# Generated by pormake.
# Topology wif, (6)-cn, num edge types: 1
# Building blocks:
#     Node 0, Type 0, BuildingBlock: IZENUY_clean_sbu_0, # of connection points: 6
#     Node 1, Type 0, BuildingBlock: IZENUY_clean_sbu_0, # of connection points: 6
#     Node 2, Type 0, BuildingBlock: IZENUY_clean_sbu_0, # of connection points: 6
#     Node 3, Type 0, BuildingBlock: IZENUY_clean_sbu_0, # of connection points: 6
#     Node 4, Type 0, BuildingBlock: IZENUY_clean_sbu_0, # of connection points: 6
#     Node 5, Type 0, BuildingBlock: IZENUY_clean_sbu_0, # of connection points: 6
#     Node 6, Type 0, BuildingBlock: IZENUY_clean_sbu_0, # of connection points: 6
#     Node 7, Type 0, BuildingBlock: IZENUY_clean_sbu_0, # of connection points: 6
#     Node 8, Type 0, BuildingBlock: IZENUY_clean_sbu_0, # of connection points: 6
#     Node 9, Type 0, BuildingBlock: IZENUY_clean_sbu_0, # of connection points: 6
#     Node 10, Type 0, BuildingBlock: IZENUY_clean_sbu_0, # of connection points: 6
#     Node 11, Type 0, BuildingBlock: IZENUY_clean_sbu_0, # of connection points: 6
#     Node 12, Type 0, BuildingBlock: IZENUY_clean_sbu_0, # of connection points: 6
#     Node 13, Type 0, BuildingBlock: IZENUY_clean_sbu_0, # of connection points: 6
#     Node 14, Type 0, BuildingBlock: IZENUY_clean_sbu_0, # of connection points: 6
#     Node 15, Type 0, BuildingBlock: IZENUY_clean_sbu_0, # of connection points: 6
#     Edge 16, Type (0, 0), BuildingBlock: KIFKEQ_clean_linker_1, # of connection points: 2
#     Edge 17, Type (0, 0), BuildingBlock: KIFKEQ_clean_linker_1, # of connection points: 2
#     Edge 18, Type (0, 0), BuildingBlock: KIFKEQ_clean_linker_1, # of connection points: 2
#     Edge 19, Type (0, 0), BuildingBlock: KIFKEQ_clean_linker_1, # of connection points: 2
#     Edge 20, Type (0, 0), BuildingBlock: KIFKEQ_clean_linker_1, # of connection points: 2
#     Edge 21, Type (0, 0), BuildingBlock: KIFKEQ_clean_linker_1, # of connection points: 2
#     Edge 22, Type (0, 0), BuildingBlock: KIFKEQ_clean_linker_1, # of connection points: 2
#     Edge 23, Type (0, 0), BuildingBlock: KIFKEQ_clean_linker_1, # of connection points: 2
#     Edge 24, Type (0, 0), BuildingBlock: KIFKEQ_clean_linker_1, # of connection points: 2
#     Edge 25, Type (0, 0), BuildingBlock: KIFKEQ_clean_linker_1, # of connection points: 2
#     Edge 26, Type (0, 0), BuildingBlock: KIFKEQ_clean_linker_1, # of connection points: 2
#     Edge 27, Type (0, 0), BuildingBlock: KIFKEQ_clean_linker_1, # of connection points: 2
#     Edge 28, Type (0, 0), BuildingBlock: KIFKEQ_clean_linker_1, # of connection points: 2
#     Edge 29, Type (0, 0), BuildingBlock: KIFKEQ_clean_linker_1, # of connection points: 2
#     Edge 30, Type (0, 0), BuildingBlock: KIFKEQ_clean_linker_1, # of connection points: 2
#     Edge 31, Type (0, 0), BuildingBlock: KIFKEQ_clean_linker_1, # of connection points: 2
#     Edge 32, Type (0, 0), BuildingBlock: KIFKEQ_clean_linker_1, # of connection points: 2
#     Edge 33, Type (0, 0), BuildingBlock: KIFKEQ_clean_linker_1, # of connection points: 2
#     Edge 34, Type (0, 0), BuildingBlock: KIFKEQ_clean_linker_1, # of connection points: 2
#     Edge 35, Type (0, 0), BuildingBlock: KIFKEQ_clean_linker_1, # of connection points: 2
#     Edge 36, Type (0, 0), BuildingBlock: KIFKEQ_clean_linker_1, # of connection points: 2
#     Edge 37, Type (0, 0), BuildingBlock: KIFKEQ_clean_linker_1, # of connection points: 2
#     Edge 38, Type (0, 0), BuildingBlock: KIFKEQ_clean_linker_1, # of connection points: 2
#     Edge 39, Type (0, 0), BuildingBlock: KIFKEQ_clean_linker_1, # of connection points: 2
#     Edge 40, Type (0, 0), BuildingBlock: KIFKEQ_clean_linker_1, # of connection points: 2
#     Edge 41, Type (0, 0), BuildingBlock: KIFKEQ_clean_linker_1, # of connection points: 2
#     Edge 42, Type (0, 0), BuildingBlock: KIFKEQ_clean_linker_1, # of connection points: 2
#     Edge 43, Type (0, 0), BuildingBlock: KIFKEQ_clean_linker_1, # of connection points: 2
#     Edge 44, Type (0, 0), BuildingBlock: KIFKEQ_clean_linker_1, # of connection points: 2
#     Edge 45, Type (0, 0), BuildingBlock: KIFKEQ_clean_linker_1, # of connection points: 2
#     Edge 46, Type (0, 0), BuildingBlock: KIFKEQ_clean_linker_1, # of connection points: 2
#     Edge 47, Type (0, 0), BuildingBlock: KIFKEQ_clean_linker_1, # of connection points: 2
#     Edge 48, Type (0, 0), BuildingBlock: KIFKEQ_clean_linker_1, # of connection points: 2
#     Edge 49, Type (0, 0), BuildingBlock: KIFKEQ_clean_linker_1, # of connection points: 2
#     Edge 50, Type (0, 0), BuildingBlock: KIFKEQ_clean_linker_1, # of connection points: 2
#     Edge 51, Type (0, 0), BuildingBlock: KIFKEQ_clean_linker_1, # of connection points: 2
#     Edge 52, Type (0, 0), BuildingBlock: KIFKEQ_clean_linker_1, # of connection points: 2
#     Edge 53, Type (0, 0), BuildingBlock: KIFKEQ_clean_linker_1, # of connection points: 2
#     Edge 54, Type (0, 0), BuildingBlock: KIFKEQ_clean_linker_1, # of connection points: 2
#     Edge 55, Type (0, 0), BuildingBlock: KIFKEQ_clean_linker_1, # of connection points: 2
#     Edge 56, Type (0, 0), BuildingBlock: KIFKEQ_clean_linker_1, # of connection points: 2
#     Edge 57, Type (0, 0), BuildingBlock: KIFKEQ_clean_linker_1, # of connection points: 2
#     Edge 58, Type (0, 0), BuildingBlock: KIFKEQ_clean_linker_1, # of connection points: 2
#     Edge 59, Type (0, 0), BuildingBlock: KIFKEQ_clean_linker_1, # of connection points: 2
#     Edge 60, Type (0, 0), BuildingBlock: KIFKEQ_clean_linker_1, # of connection points: 2
#     Edge 61, Type (0, 0), BuildingBlock: KIFKEQ_clean_linker_1, # of connection points: 2
#     Edge 62, Type (0, 0), BuildingBlock: KIFKEQ_clean_linker_1, # of connection points: 2
#     Edge 63, Type (0, 0), BuildingBlock: KIFKEQ_clean_linker_1, # of connection points: 2
# Relax obj value: 0.830
# Max RMSD: 0.280
# Mean RMSD: 0.279
data_MOF--net-wif--node1-IZENUY_clean_sbu_0--edge1-KIFKEQ_clean_linker_1
_symmetry_space_group_name_H-M    P1
_symmetry_Int_Tables_number       1
_symmetry_cell_setting            triclinic
loop_
_symmetry_equiv_pos_as_xyz
'x, y, z'
_cell_length_a     34.902582
_cell_length_b     34.917034
_cell_length_c     29.459773
_cell_angle_alpha  90.038797
_cell_angle_beta   90.046508
_cell_angle_gamma 89.941276
loop_
_atom_site_label
_atom_site_type_symbol
_atom_site_fract_x
_atom_site_fract_y
_atom_site_fract_z
_atom_type_partial_charge
Fe0 Fe 0.26662 0.06913 0.12316 0.0
Fe1 Fe 0.29949 0.02169 0.04341 0.0
O2 O 0.29431 0.06622 0.0728 0.0
Fe3 Fe 0.31812 0.10776 0.05304 0.0
O4 O 0.34478 0.11292 0.10523 0.0
O5 O 0.29561 0.1066 0.15062 0.0
O6 O 0.29754 0.03493 0.15048 0.0
C7 C 0.30533 1.00182 0.1362 0.0
C8 C 0.24612 0.13677 0.08522 0.0
O9 O 0.29815 0.99213 0.09551 0.0
C10 C 0.30216 0.07909 0.97144 0.0
O11 O 0.23278 0.03141 0.10634 0.0
O12 O 0.24739 0.01546 0.03602 0.0
O13 O 0.28052 0.14099 0.07233 0.0
O14 O 0.23439 0.1046 0.09909 0.0
C15 C 0.37315 0.04894 0.03937 0.0
O16 O 0.30515 0.04451 0.98565 0.0
O17 O 0.29322 0.10472 0.99947 0.0
C18 C 0.22486 1.01348 0.07007 0.0
O19 O 0.35085 0.02231 0.05053 0.0
O20 O 0.3607 0.08234 0.03145 0.0
C21 C 0.3301 0.11603 0.144 0.0
Fe22 Fe 0.02454 0.72079 0.98336 0.0
Fe23 Fe 0.05357 0.76199 0.8968 0.0
O24 O 0.06187 0.73146 0.94403 0.0
Fe25 Fe 0.10746 0.70966 0.95027 0.0
O26 O 0.08646 0.66234 0.94296 0.0
O27 O 0.04013 0.67131 0.99262 0.0
O28 O 0.99447 0.70172 0.93847 0.0
C29 C 0.98596 0.7175 0.90139 0.0
C30 C 0.08503 0.72018 0.04286 0.0
O31 O 1.00373 0.74687 0.8877 0.0
C32 C 0.12999 0.78106 0.92637 0.0
O33 O 1.00056 0.7688 0.97809 0.0
O34 O 0.03874 0.80124 0.93315 0.0
O35 O 0.10502 0.70553 0.01172 0.0
O36 O 0.053 0.73614 0.0333 0.0
C37 C 0.09865 0.70827 0.85555 0.0
O38 O 0.10276 0.78207 0.8975 0.0
O39 O 0.13036 0.75587 0.95725 0.0
C40 C 1.00873 0.79979 0.95704 0.0
O41 O 0.06663 0.72477 0.8561 0.0
O42 O 0.11987 0.70879 0.89005 0.0
C43 C 0.05961 0.64936 0.96732 0.0
Fe44 Fe 0.76246 0.96559 0.12069 0.0
Fe45 Fe 0.72747 1.01276 0.04185 0.0
O46 O 0.73382 0.96821 0.07093 0.0
Fe47 Fe 0.71056 0.92629 0.05091 0.0
O48 O 0.68491 0.91978 0.10336 0.0
O49 O 0.73394 0.92817 0.14888 0.0
O50 O 0.73233 0.99988 0.14902 0.0
C51 C 0.72456 0.03309 0.13515 0.0
C52 C 0.7832 0.89811 0.08183 0.0
O53 O 0.72932 0.04236 0.09387 0.0
C54 C 0.72444 0.95579 0.96939 0.0
O55 O 0.79583 1.00329 0.10287 0.0
O56 O 0.77934 0.01977 0.03323 0.0
O57 O 0.74887 0.89349 0.06897 0.0
O58 O 0.79454 0.93029 0.09605 0.0
C59 C 0.65429 0.98438 0.03909 0.0
O60 O 0.72104 0.99018 0.98404 0.0
O61 O 0.73462 0.93031 0.99696 0.0
C62 C 0.8027 0.02152 0.06657 0.0
O63 O 0.67632 1.01127 0.05022 0.0
O64 O 0.66713 0.95119 0.03063 0.0
C65 C 0.69996 0.91699 0.14199 0.0
Fe66 Fe 1.0072 0.29653 0.96895 0.0
Fe67 Fe 0.95789 0.25922 0.8938 0.0
O68 O 0.96234 0.29075 0.94077 0.0
Fe69 Fe 0.92215 0.31819 0.95765 0.0
O70 O 0.94951 0.36103 0.97477 0.0
O71 O 1.00844 0.34675 0.95558 0.0
O72 O 0.03611 0.28997 0.91696 0.0
C73 C 0.0261 0.29494 0.87593 0.0
C74 C 0.95035 0.3066 0.0409 0.0
O75 O 0.99279 0.28659 0.86268 0.0
C76 C 0.89014 0.24498 0.93502 0.0
O77 O 1.01164 0.24521 0.98214 0.0
O78 O 0.99487 0.22565 0.91384 0.0
O79 O 0.92384 0.29788 0.0139 0.0
O80 O 0.98491 0.30757 0.02605 0.0
C81 C 0.91428 0.32275 0.86569 0.0
O82 O 0.92161 0.23062 0.92211 0.0
O83 O 0.88732 0.28064 0.94295 0.0
C84 C 1.01318 0.22023 0.95053 0.0
O85 O 0.92093 0.28719 0.86364 0.0
O86 O 0.9185 0.34059 0.90242 0.0
C87 C 0.98317 0.37121 0.96438 0.0
Fe88 Fe 0.32068 0.42836 0.22314 0.0
Fe89 Fe 0.26798 0.46631 0.15357 0.0
O90 O 0.29646 0.46965 0.20324 0.0
Fe91 Fe 0.30218 0.51438 0.23181 0.0
O92 O 0.35329 0.51345 0.22294 0.0
O93 O 0.36341 0.4541 0.24417 0.0
O94 O 0.34672 0.42295 0.17054 0.0
C95 C 0.33151 0.41955 0.13203 0.0
C96 C 0.30572 0.45757 0.30455 0.0
O97 O 0.29679 0.42865 0.12599 0.0
C98 C 0.22711 0.52248 0.20708 0.0
O99 O 0.28304 0.39484 0.20466 0.0
O100 O 0.23629 0.43104 0.17881 0.0
O101 O 0.30895 0.49197 0.28976 0.0
O102 O 0.29629 0.43178 0.27695 0.0
C103 C 0.30631 0.53348 0.13872 0.0
O104 O 0.2343 0.5042 0.17081 0.0
O105 O 0.2503 0.52074 0.24057 0.0
C106 C 0.24836 0.39895 0.19261 0.0
O107 O 0.29831 0.50025 0.12509 0.0
O108 O 0.29975 0.54356 0.17942 0.0
C109 C 0.37585 0.48725 0.23489 0.0
Fe110 Fe 0.45892 0.7661 0.87109 0.0
Fe111 Fe 0.42284 0.71198 0.80136 0.0
O112 O 0.46354 0.73673 0.82212 0.0
Fe113 Fe 0.50903 0.73091 0.79492 0.0
O114 O 0.53706 0.73446 0.84803 0.0
O115 O 0.49287 0.73663 0.90125 0.0
O116 O 0.42124 0.73751 0.89845 0.0
C117 C 0.4115 0.70302 0.89244 0.0
C118 C 0.51573 0.8065 0.81821 0.0
O119 O 0.41562 0.68723 0.85439 0.0
C120 C 0.45412 0.72542 0.72051 0.0
O121 O 0.42341 0.7971 0.84449 0.0
O122 O 0.38887 0.7498 0.81679 0.0
O123 O 0.51497 0.78273 0.78526 0.0
O124 O 0.49665 0.79984 0.85399 0.0
C125 C 0.48245 0.65701 0.79315 0.0
O126 O 0.4276 0.73507 0.74691 0.0
O127 O 0.48817 0.72294 0.7365 0.0
C128 C 0.39209 0.7845 0.8288 0.0
O129 O 0.44924 0.66893 0.78318 0.0
O130 O 0.50861 0.67984 0.80451 0.0
C131 C 0.52644 0.7287 0.88866 0.0
Fe132 Fe 0.71264 0.60772 0.22032 0.0
Fe133 Fe 0.76239 0.56923 0.14789 0.0
O134 O 0.73566 0.56621 0.19887 0.0
Fe135 Fe 0.73072 0.52138 0.22754 0.0
O136 O 0.67943 0.52256 0.22048 0.0
O137 O 0.67001 0.58212 0.24193 0.0
O138 O 0.68531 0.61477 0.16895 0.0
C139 C 0.69923 0.61788 0.12977 0.0
C140 C 0.72868 0.57766 0.30079 0.0
O141 O 0.73306 0.60696 0.12156 0.0
C142 C 0.80507 0.5134 0.19982 0.0
O143 O 0.75034 0.64078 0.20121 0.0
O144 O 0.79524 0.6043 0.17144 0.0
O145 O 0.72525 0.54336 0.28586 0.0
O146 O 0.73839 0.60321 0.27316 0.0
C147 C 0.72364 0.50209 0.13484 0.0
O148 O 0.79644 0.53133 0.16375 0.0
O149 O 0.78291 0.515 0.2343 0.0
C150 C 0.78428 0.63629 0.18675 0.0
O151 O 0.73085 0.53538 0.12088 0.0
O152 O 0.73177 0.49219 0.17515 0.0
C153 C 0.65725 0.54898 0.23288 0.0
Fe154 Fe 0.56549 0.26673 0.87258 0.0
Fe155 Fe 0.60437 0.31912 0.80316 0.0
O156 O 0.56257 0.2958 0.82321 0.0
Fe157 Fe 0.51783 0.30255 0.79452 0.0
O158 O 0.48856 0.30029 0.84674 0.0
O159 O 0.53138 0.29671 0.90158 0.0
O160 O 0.60319 0.29492 0.90089 0.0
C161 C 0.61436 0.32893 0.89431 0.0
C162 C 0.50912 0.22712 0.81821 0.0
O163 O 0.61136 0.34424 0.85588 0.0
C164 C 0.57436 0.30594 0.72169 0.0
O165 O 0.60067 0.23476 0.84735 0.0
O166 O 0.63714 0.2806 0.82007 0.0
O167 O 0.51068 0.25078 0.7852 0.0
O168 O 0.52762 0.23363 0.85448 0.0
C169 C 0.54642 0.37563 0.79276 0.0
O170 O 0.5999 0.29548 0.749 0.0
O171 O 0.54007 0.30955 0.73659 0.0
C172 C 0.63264 0.24618 0.83254 0.0
O173 O 0.57948 0.36275 0.78376 0.0
O174 O 0.51948 0.35361 0.80366 0.0
C175 C 0.49811 0.30478 0.88801 0.0
Fe176 Fe 0.80604 0.52334 0.5335 0.0
Fe177 Fe 0.81856 0.60678 0.56379 0.0
O178 O 0.79609 0.56175 0.5717 0.0
Fe179 Fe 0.76544 0.55515 0.61947 0.0
O180 O 0.7794 0.50533 0.63003 0.0
O181 O 0.8244 0.4939 0.57956 0.0
O182 O 0.85573 0.53746 0.52359 0.0
C183 C 0.87824 0.55788 0.54696 0.0
C184 C 0.72684 0.50973 0.5603 0.0
O185 O 0.86582 0.5854 0.57072 0.0
C186 C 0.7475 0.63101 0.58792 0.0
O187 O 0.79142 0.55084 0.48239 0.0
O188 O 0.82201 0.60322 0.50253 0.0
O189 O 0.7258 0.5401 0.5837 0.0
O190 O 0.75763 0.50072 0.53934 0.0
C191 C 0.82162 0.59943 0.65841 0.0
O192 O 0.77261 0.63047 0.55695 0.0
O193 O 0.7463 0.60446 0.61747 0.0
C194 C 0.80755 0.58256 0.47197 0.0
O195 O 0.82042 0.61999 0.62343 0.0
O196 O 0.80301 0.56857 0.6599 0.0
C197 C 0.80814 0.48643 0.6167 0.0
Fe198 Fe 0.51815 0.23077 0.47978 0.0
Fe199 Fe 0.56728 0.26515 0.40234 0.0
O200 O 0.56299 0.23578 0.45126 0.0
Fe201 Fe 0.60361 0.21003 0.47065 0.0
O202 O 0.57676 0.16791 0.49101 0.0
O203 O 0.51769 0.17966 0.46996 0.0
O204 O 0.48898 0.23449 0.42765 0.0
C205 C 0.49834 0.23011 0.38634 0.0
C206 C 0.57498 0.22505 0.55243 0.0
O207 O 0.5318 0.23722 0.37276 0.0
C208 C 0.63553 0.28157 0.44198 0.0
O209 O 0.51291 0.28271 0.4895 0.0
O210 O 0.53085 0.29983 0.42064 0.0
O211 O 0.60112 0.23375 0.52499 0.0
O212 O 0.54049 0.22287 0.53756 0.0
C213 C 0.61168 0.20028 0.37928 0.0
O214 O 0.60393 0.29499 0.42831 0.0
O215 O 0.6384 0.24661 0.45297 0.0
C216 C 0.51219 0.30662 0.45669 0.0
O217 O 0.60365 0.23534 0.37392 0.0
O218 O 0.60801 0.18465 0.41749 0.0
C219 C 0.54336 0.15633 0.48146 0.0
Fe220 Fe 0.26145 0.46484 0.62376 0.0
Fe221 Fe 0.23276 0.51179 0.54164 0.0
O222 O 0.23536 0.4676 0.57215 0.0
Fe223 Fe 0.21037 0.42691 0.55201 0.0
O224 O 0.18297 0.42203 0.60349 0.0
O225 O 0.23061 0.42906 0.65119 0.0
O226 O 0.23067 0.50095 0.6487 0.0
C227 C 0.22472 0.5339 0.63268 0.0
C228 C 0.28067 0.39583 0.58669 0.0
O229 O 0.23544 0.54224 0.59279 0.0
C230 C 0.22779 0.45405 0.47043 0.0
O231 O 0.29719 0.50078 0.60654 0.0
O232 O 0.28512 0.51478 0.53483 0.0
O233 O 0.24675 0.39281 0.5716 0.0
O234 O 0.29298 0.42731 0.6024 0.0
C235 C 0.15798 0.48809 0.53888 0.0
O236 O 0.22575 0.48877 0.48412 0.0
O237 O 0.23607 0.42882 0.49902 0.0
C238 C 0.307 0.51676 0.56957 0.0
O239 O 0.18173 0.51372 0.54893 0.0
O240 O 0.16884 0.45418 0.53016 0.0
C241 C 0.1967 0.41866 0.6427 0.0
Fe242 Fe 0.50985 0.80114 0.47621 0.0
Fe243 Fe 0.46202 0.76665 0.39792 0.0
O244 O 0.46498 0.79479 0.44792 0.0
Fe245 Fe 0.4233 0.81793 0.4687 0.0
O246 O 0.44846 0.86135 0.48893 0.0
O247 O 0.50797 0.85222 0.4673 0.0
O248 O 0.53889 0.79907 0.4238 0.0
C249 C 0.52874 0.80587 0.38323 0.0
C250 C 0.45377 0.80402 0.54956 0.0
O251 O 0.49552 0.79772 0.36964 0.0
C252 C 0.39513 0.74531 0.4376 0.0
O253 O 0.517 0.74927 0.48479 0.0
O254 O 0.50034 0.73343 0.41495 0.0
O255 O 0.42819 0.79353 0.52231 0.0
O256 O 0.48795 0.80781 0.53439 0.0
C257 C 0.4129 0.82891 0.37779 0.0
O258 O 0.42719 0.73414 0.42263 0.0
O259 O 0.3905 0.77954 0.45092 0.0
C260 C 0.51873 0.72618 0.45115 0.0
O261 O 0.42398 0.79495 0.37067 0.0
O262 O 0.416 0.84382 0.41647 0.0
C263 C 0.48133 0.87437 0.47911 0.0
Fe264 Fe 0.76019 0.96059 0.64797 0.0
Fe265 Fe 0.79581 1.00951 0.72486 0.0
O266 O 0.79047 0.96484 0.69614 0.0
Fe267 Fe 0.81712 0.92457 0.71445 0.0
O268 O 0.84122 0.92061 0.66063 0.0
O269 O 0.78968 0.92449 0.61832 0.0
O270 O 0.78746 0.99636 0.61807 0.0
C271 C 0.79471 0.02972 0.63193 0.0
C272 C 0.74518 0.89226 0.6879 0.0
O273 O 0.79012 0.03891 0.67326 0.0
C274 C 0.80387 0.95236 0.79686 0.0
O275 O 0.72577 0.99674 0.66784 0.0
O276 O 0.74415 1.01388 0.73668 0.0
O277 O 0.7804 0.88968 0.69797 0.0
O278 O 0.73113 0.92362 0.67434 0.0
C279 C 0.87029 0.98503 0.72155 0.0
O280 O 0.80603 0.98692 0.78221 0.0
O281 O 0.79455 0.92654 0.76936 0.0
C282 C 0.7196 0.01494 0.70446 0.0
O283 O 0.84625 1.01057 0.71224 0.0
O284 O 0.85954 0.9519 0.73336 0.0
C285 C 0.82496 0.91688 0.6228 0.0
Fe286 Fe 1.01254 0.22817 0.29073 0.0
Fe287 Fe 0.96946 0.25741 0.37566 0.0
O288 O 0.96951 0.23198 0.32345 0.0
Fe289 Fe 0.92702 0.20889 0.30519 0.0
O290 O 0.95139 0.16693 0.28074 0.0
O291 O 1.01245 0.1766 0.29546 0.0
O292 O 0.04464 0.22809 0.34052 0.0
C293 C 0.03719 0.21782 0.38084 0.0
C294 C 0.95209 0.2269 0.22249 0.0
O295 O 1.00501 0.22486 0.39844 0.0
C296 C 0.90017 0.27994 0.3426 0.0
O297 O 0.01795 0.2806 0.28563 0.0
O298 O 1.00632 0.29187 0.35805 0.0
O299 O 0.92776 0.23508 0.25238 0.0
O300 O 0.98724 0.22406 0.23439 0.0
C301 C 0.92204 0.19416 0.396 0.0
O302 O 0.9328 0.29076 0.35636 0.0
O303 O 0.89508 0.24622 0.32772 0.0
C304 C 0.02151 0.30182 0.32077 0.0
O305 O 0.93313 0.22789 0.40398 0.0
O306 O 0.92356 0.18072 0.35648 0.0
C307 C 0.98516 0.15445 0.28603 0.0
Fe308 Fe 0.26707 0.05507 0.64914 0.0
Fe309 Fe 0.22193 0.02216 0.7308 0.0
O310 O 0.23334 0.06099 0.69387 0.0
Fe311 Fe 0.20943 0.10565 0.69994 0.0
O312 O 0.21106 0.11917 0.64005 0.0
O313 O 0.23184 0.06762 0.60596 0.0
O314 O 0.25468 1.00514 0.63706 0.0
C315 C 0.22525 0.98592 0.64719 0.0
C316 C 0.28109 0.13153 0.68203 0.0
O317 O 0.20693 0.99258 0.6832 0.0
C318 C 0.21605 0.08127 0.79225 0.0
O319 O 0.30462 0.04064 0.68825 0.0
O320 O 0.27089 1.00025 0.72885 0.0
O321 O 0.25429 0.13016 0.71088 0.0
O322 O 0.28501 0.10488 0.65286 0.0
C323 C 0.15014 0.05507 0.71069 0.0
O324 O 0.23316 0.04977 0.783 0.0
O325 O 0.20246 0.10165 0.76082 0.0
C326 C 0.30266 1.00974 0.71052 0.0
O327 O 0.17149 0.03534 0.73638 0.0
O328 O 0.1631 0.0835 0.68899 0.0
C329 C 0.21361 0.09866 0.60507 0.0
Fe330 Fe 0.10396 0.81713 0.3061 0.0
Fe331 Fe 0.01799 0.79934 0.29217 0.0
O332 O 0.06166 0.79284 0.32315 0.0
Fe333 Fe 0.06304 0.76323 0.37217 0.0
O334 O 0.09928 0.79152 0.40287 0.0
O335 O 0.10805 0.84185 0.35977 0.0
O336 O 0.07941 0.86044 0.28552 0.0
C337 C 0.04584 0.87283 0.29231 0.0
C338 C 0.13209 0.74421 0.33596 0.0
O339 O 0.01878 0.85043 0.30159 0.0
C340 C 1.0086 0.72374 0.31485 0.0
O341 O 0.10237 0.79431 0.25109 0.0
O342 O 0.04243 0.80655 0.23569 0.0
O343 O 0.09962 0.73205 0.34824 0.0
O344 O 0.13659 0.77894 0.32476 0.0
C345 C 0.99476 0.8006 0.38448 0.0
O346 O 1.01136 0.74759 0.28215 0.0
O347 O 0.02616 0.72986 0.35185 0.0
C348 C 0.07735 0.80403 0.22259 0.0
O349 O 0.98683 0.79666 0.34268 0.0
O350 O 0.02749 0.79246 0.39977 0.0
C351 C 0.10989 0.82591 0.39799 0.0
H352 H 0.04219 0.86578 0.18071 0.0
H353 H 0.14639 0.79943 0.17797 0.0
H354 H 0.07251 0.91472 0.13364 0.0
H355 H 0.17693 0.84847 0.13152 0.0
H356 H 0.15797 0.01681 0.11764 0.0
H357 H 0.11872 0.96386 0.14423 0.0
H358 H 0.18577 0.88537 0.06351 0.0
H359 H 0.22553 0.93894 0.03725 0.0
C360 C 0.07115 0.86085 0.16889 0.0
C361 C 0.09152 0.82812 0.18335 0.0
C362 C 0.08895 0.88946 0.14234 0.0
C363 C 0.12774 0.88639 0.12887 0.0
C364 C 0.14713 0.8523 0.1406 0.0
C365 C 0.12945 0.82388 0.16742 0.0
C366 C 0.16364 0.98846 0.10425 0.0
C367 C 0.19484 0.98263 0.07461 0.0
C368 C 0.14099 0.95776 0.1197 0.0
C369 C 0.14878 0.91967 0.10664 0.0
C370 C 0.17883 0.91399 0.07505 0.0
C371 C 0.20136 0.94495 0.05917 0.0
H372 H 0.79573 0.88621 0.84568 0.0
H373 H 0.86836 0.98553 0.83559 0.0
H374 H 0.84374 0.85402 0.89173 0.0
H375 H 0.91629 0.95388 0.88318 0.0
H376 H 0.01452 0.86674 0.90806 0.0
H377 H 0.96346 0.90714 0.87906 0.0
H378 H 0.88077 0.84172 0.95548 0.0
H379 H 0.93212 0.80016 0.98312 0.0
C380 C 0.82142 0.90188 0.85473 0.0
C381 C 0.82762 0.93883 0.83674 0.0
C382 C 0.84934 0.8832 0.88136 0.0
C383 C 0.88489 0.90061 0.89126 0.0
C384 C 0.88998 0.93871 0.87588 0.0
C385 C 0.8619 0.95745 0.84917 0.0
C386 C 0.98559 0.86123 0.91958 0.0
C387 C 0.97801 0.8297 0.94824 0.0
C388 C 0.95591 0.88478 0.90282 0.0
C389 C 0.91716 0.87807 0.91406 0.0
C390 C 0.90979 0.84779 0.94481 0.0
C391 C 0.93957 0.82405 0.96144 0.0
H392 H 0.80049 0.09668 0.03629 0.0
H393 H 0.87133 0.0173 0.11043 0.0
H394 H 0.84059 0.14989 0.06301 0.0
H395 H 0.91094 0.06989 0.13746 0.0
H396 H 0.88176 0.23211 0.18083 0.0
H397 H 0.85068 0.18442 0.1328 0.0
H398 H 0.9562 0.1201 0.12696 0.0
H399 H 0.9871 0.16769 0.17557 0.0
C400 C 0.82544 0.09031 0.05683 0.0
C401 C 0.83279 0.05231 0.07049 0.0
C402 C 0.84818 0.12103 0.073 0.0
C403 C 0.87922 0.11477 0.10307 0.0
C404 C 0.88786 0.07642 0.11414 0.0
C405 C 0.86502 0.04595 0.09842 0.0
C406 C 0.89879 0.20844 0.16819 0.0
C407 C 0.93722 0.20423 0.1824 0.0
C408 C 0.8808 0.1808 0.14046 0.0
C409 C 0.90041 0.14758 0.12607 0.0
C410 C 0.93962 0.14469 0.13775 0.0
C411 C 0.95772 0.17254 0.16521 0.0
H412 H 0.08767 0.22439 0.98309 0.0
H413 H 1.01157 0.1509 0.90782 0.0
H414 H 0.14238 0.1852 0.95884 0.0
H415 H 0.06566 0.11224 0.88312 0.0
H416 H 0.16436 0.04037 0.84255 0.0
H417 H 0.11688 0.06858 0.89374 0.0
H418 H 0.17858 0.17559 0.89085 0.0
H419 H 0.22596 0.14699 0.84041 0.0
C420 C 0.08232 0.19907 0.96282 0.0
C421 C 0.04478 0.19077 0.94805 0.0
C422 C 0.11393 0.17682 0.94809 0.0
C423 C 0.10909 0.14531 0.91835 0.0
C424 C 0.07117 0.13569 0.90627 0.0
C425 C 0.0398 0.15802 0.92061 0.0
C426 C 0.16907 0.06918 0.85502 0.0
C427 C 0.19985 0.09091 0.83798 0.0
C428 C 0.14111 0.08589 0.88359 0.0
C429 C 0.14292 0.12497 0.89621 0.0
C430 C 0.17576 0.14552 0.88258 0.0
C431 C 0.20349 0.12887 0.85385 0.0
H432 H 0.15894 0.51916 0.16197 0.0
H433 H 0.22917 0.59738 0.23853 0.0
H434 H 0.11945 0.57219 0.13575 0.0
H435 H 0.18928 0.65106 0.21247 0.0
H436 H 0.15076 0.732 0.09065 0.0
H437 H 0.1801 0.68598 0.14238 0.0
H438 H 0.07408 0.62266 0.1467 0.0
H439 H 0.04503 0.66888 0.09457 0.0
C440 C 0.16516 0.54762 0.17464 0.0
C441 C 0.19718 0.55353 0.20303 0.0
C442 C 0.14237 0.57836 0.15943 0.0
C443 C 0.15087 0.61655 0.17142 0.0
C444 C 0.18174 0.62234 0.20186 0.0
C445 C 0.20439 0.59134 0.21758 0.0
C446 C 0.13298 0.70952 0.10469 0.0
C447 C 0.09504 0.70504 0.089 0.0
C448 C 0.15006 0.68257 0.13414 0.0
C449 C 0.13002 0.64968 0.14855 0.0
C450 C 0.09097 0.64702 0.13601 0.0
C451 C 0.07379 0.67424 0.10686 0.0
H452 H 0.5901 0.80676 0.78459 0.0
H453 H 0.51204 0.87343 0.86581 0.0
H454 H 0.64333 0.84741 0.80998 0.0
H455 H 0.56467 0.91336 0.89178 0.0
H456 H 0.66167 0.9906 0.92897 0.0
H457 H 0.61281 0.96001 0.88191 0.0
H458 H 0.68121 0.85707 0.87638 0.0
H459 H 0.73021 0.88795 0.9226 0.0
C460 C 0.58396 0.83085 0.8066 0.0
C461 C 0.54634 0.83683 0.82255 0.0
C462 C 0.61474 0.85391 0.82198 0.0
C463 C 0.60896 0.88392 0.85363 0.0
C464 C 0.57087 0.89117 0.86719 0.0
C465 C 0.54035 0.86806 0.85213 0.0
C466 C 0.66707 0.96195 0.91637 0.0
C467 C 0.70037 0.94204 0.92987 0.0
C468 C 0.6385 0.94396 0.88984 0.0
C469 C 0.64217 0.90543 0.87552 0.0
C470 C 0.67685 0.88664 0.88616 0.0
C471 C 0.70526 0.90453 0.91285 0.0
H472 H 0.87064 0.5178 0.15003 0.0
H473 H 0.80705 0.43906 0.23342 0.0
H474 H 0.91021 0.46557 0.12214 0.0
H475 H 0.84739 0.3862 0.20613 0.0
H476 H 0.8846 0.30013 0.09125 0.0
H477 H 0.85518 0.34867 0.1394 0.0
H478 H 0.95735 0.41765 0.12889 0.0
H479 H 0.98639 0.36918 0.07976 0.0
C480 C 0.86596 0.48942 0.1638 0.0
C481 C 0.83565 0.48312 0.19457 0.0
C482 C 0.88884 0.45912 0.14762 0.0
C483 C 0.8823 0.42095 0.16118 0.0
C484 C 0.85332 0.41486 0.19406 0.0
C485 C 0.83046 0.44543 0.21055 0.0
C486 C 0.90138 0.32507 0.10034 0.0
C487 C 0.93819 0.33022 0.08144 0.0
C488 C 0.88433 0.35324 0.12815 0.0
C489 C 0.90327 0.38796 0.13803 0.0
C490 C 0.9412 0.39191 0.12168 0.0
C491 C 0.95835 0.36357 0.094 0.0
H492 H 0.2961 0.14702 0.92511 0.0
H493 H 0.36342 0.0435 0.92887 0.0
H494 H 0.34448 0.17748 0.87781 0.0
H495 H 0.41164 0.07364 0.88062 0.0
H496 H 0.51311 0.15928 0.86359 0.0
H497 H 0.46052 0.11949 0.88973 0.0
H498 H 0.38128 0.1873 0.81084 0.0
H499 H 0.43451 0.22783 0.78533 0.0
C500 C 0.32059 0.13016 0.91453 0.0
C501 C 0.32539 0.09254 0.93117 0.0
C502 C 0.34865 0.14781 0.88719 0.0
C503 C 0.38287 0.12863 0.87548 0.0
C504 C 0.38633 0.08998 0.88937 0.0
C505 C 0.35811 0.07225 0.91657 0.0
C506 C 0.48466 0.16505 0.85051 0.0
C507 C 0.47851 0.19679 0.82178 0.0
C508 C 0.45415 0.14204 0.86568 0.0
C509 C 0.41594 0.1499 0.8531 0.0
C510 C 0.40998 0.18034 0.82211 0.0
C511 C 0.44075 0.20333 0.80662 0.0
H512 H 0.7257 0.43332 0.53414 0.0
H513 H 0.66045 0.51615 0.61054 0.0
H514 H 0.68437 0.38225 0.56249 0.0
H515 H 0.62008 0.46527 0.64003 0.0
H516 H 0.64126 0.29808 0.67393 0.0
H517 H 0.67333 0.34598 0.62771 0.0
H518 H 0.57283 0.41796 0.63483 0.0
H519 H 0.54118 0.37014 0.68235 0.0
C520 C 0.70212 0.44093 0.55626 0.0
C521 C 0.69679 0.4794 0.56965 0.0
C522 C 0.67852 0.41132 0.57325 0.0
C523 C 0.64866 0.4189 0.60447 0.0
C524 C 0.64218 0.45765 0.61591 0.0
C525 C 0.66566 0.4872 0.59886 0.0
C526 C 0.62545 0.32362 0.66458 0.0
C527 C 0.58831 0.32973 0.68213 0.0
C528 C 0.64404 0.35145 0.63785 0.0
C529 C 0.62635 0.38677 0.6275 0.0
C530 C 0.58814 0.39178 0.64251 0.0
C531 C 0.56946 0.3638 0.66923 0.0
H532 H 0.51682 0.37372 0.40972 0.0
H533 H 0.43792 0.30804 0.49064 0.0
H534 H 0.4647 0.41426 0.38362 0.0
H535 H 0.3852 0.34941 0.46524 0.0
H536 H 0.36867 0.49207 0.34479 0.0
H537 H 0.41709 0.46133 0.39238 0.0
H538 H 0.34735 0.35948 0.39929 0.0
H539 H 0.29881 0.39058 0.35258 0.0
C540 C 0.48845 0.36873 0.42337 0.0
C541 C 0.48207 0.33754 0.45284 0.0
C542 C 0.4582 0.3922 0.40822 0.0
C543 C 0.42 0.38543 0.42163 0.0
C544 C 0.41386 0.35555 0.45331 0.0
C545 C 0.44437 0.33208 0.46873 0.0
C546 C 0.36288 0.46368 0.35786 0.0
C547 C 0.32934 0.44412 0.34459 0.0
C548 C 0.3912 0.44557 0.38467 0.0
C549 C 0.38705 0.40724 0.39951 0.0
C550 C 0.35211 0.38888 0.38913 0.0
C551 C 0.32394 0.40689 0.36216 0.0
H552 H 0.37183 0.5129 0.62095 0.0
H553 H 0.31092 0.58944 0.53174 0.0
H554 H 0.41216 0.56541 0.6465 0.0
H555 H 0.3519 0.64251 0.55682 0.0
H556 H 0.48989 0.66171 0.68385 0.0
H557 H 0.46051 0.61224 0.63659 0.0
H558 H 0.35905 0.68204 0.62267 0.0
H559 H 0.38872 0.73155 0.66924 0.0
C560 C 0.36792 0.54076 0.60544 0.0
C561 C 0.33815 0.54646 0.57374 0.0
C562 C 0.39121 0.5712 0.62026 0.0
C563 C 0.38555 0.60888 0.60435 0.0
C564 C 0.35713 0.61424 0.5706 0.0
C565 C 0.33391 0.58353 0.55544 0.0
C566 C 0.46193 0.66726 0.6693 0.0
C567 C 0.44196 0.70108 0.6806 0.0
C568 C 0.44461 0.63837 0.64267 0.0
C569 C 0.40677 0.6423 0.62603 0.0
C570 C 0.38812 0.67749 0.63433 0.0
C571 C 0.40531 0.7062 0.66118 0.0
H572 H 0.59297 0.72589 0.48544 0.0
H573 H 0.51556 0.65955 0.40302 0.0
H574 H 0.64649 0.68547 0.46014 0.0
H575 H 0.56847 0.61985 0.37716 0.0
H576 H 0.73406 0.64536 0.34792 0.0
H577 H 0.68476 0.67609 0.39388 0.0
H578 H 0.61667 0.57313 0.38738 0.0
H579 H 0.66589 0.54265 0.34077 0.0
C580 C 0.58703 0.70191 0.4632 0.0
C581 C 0.5495 0.69594 0.44692 0.0
C582 C 0.61798 0.67898 0.44788 0.0
C583 C 0.61246 0.64913 0.41594 0.0
C584 C 0.57447 0.64191 0.402 0.0
C585 C 0.54378 0.66488 0.417 0.0
C586 C 0.70913 0.62874 0.35743 0.0
C587 C 0.70444 0.59125 0.34026 0.0
C588 C 0.68054 0.64654 0.38396 0.0
C589 C 0.64584 0.62771 0.39423 0.0
C590 C 0.64236 0.58921 0.37975 0.0
C591 C 0.67114 0.57128 0.35347 0.0
H592 H 0.72059 0.0891 0.73859 0.0
H593 H 0.65171 1.01198 0.65876 0.0
H594 H 0.68069 0.14295 0.71342 0.0
H595 H 0.61264 0.06524 0.63277 0.0
H596 H 0.64223 0.22993 0.60043 0.0
H597 H 0.67168 0.18066 0.64745 0.0
H598 H 0.56741 0.11448 0.641 0.0
H599 H 0.53834 0.16358 0.59297 0.0
C600 C 0.69614 0.08331 0.71701 0.0
C601 C 0.68936 0.04576 0.70131 0.0
C602 C 0.67352 0.11446 0.70169 0.0
C603 C 0.64325 0.10914 0.67025 0.0
C604 C 0.63508 0.07113 0.65716 0.0
C605 C 0.65767 0.04023 0.67227 0.0
C606 C 0.62506 0.20545 0.61016 0.0
C607 C 0.58764 0.20121 0.59258 0.0
C608 C 0.64211 0.17686 0.63733 0.0
C609 C 0.62254 0.14267 0.64795 0.0
C610 C 0.58407 0.13974 0.63311 0.0
C611 C 0.56693 0.16848 0.60605 0.0
H612 H 0.16472 0.4884 0.43028 0.0
H613 H 0.23457 0.38674 0.42298 0.0
H614 H 0.116 0.45729 0.38335 0.0
H615 H 0.18589 0.35543 0.37656 0.0
H616 H 0.0949 0.30464 0.28461 0.0
H617 H 0.14762 0.34628 0.3095 0.0
H618 H 0.06891 0.40905 0.39464 0.0
H619 H 0.01682 0.36795 0.36942 0.0
C620 C 0.17047 0.45992 0.41738 0.0
C621 C 0.20406 0.4404 0.43061 0.0
C622 C 0.14201 0.44163 0.39093 0.0
C623 C 0.14618 0.40324 0.37632 0.0
C624 C 0.18118 0.38489 0.38659 0.0
C625 C 0.20941 0.40303 0.41334 0.0
C626 C 0.08859 0.32831 0.30719 0.0
C627 C 0.05116 0.33309 0.32429 0.0
C628 C 0.11908 0.35191 0.32227 0.0
C629 C 0.11314 0.38129 0.35471 0.0
C630 C 0.07516 0.38738 0.3694 0.0
C631 C 0.04496 0.36367 0.35474 0.0
H632 H 0.48732 0.86816 0.58857 0.0
H633 H 0.38671 0.79709 0.59724 0.0
H634 H 0.45602 0.9165 0.6358 0.0
H635 H 0.355 0.84549 0.64323 0.0
H636 H 0.30332 0.93338 0.73665 0.0
H637 H 0.34425 0.88194 0.70828 0.0
H638 H 0.40926 0.96432 0.63094 0.0
H639 H 0.36931 0.01561 0.66055 0.0
C640 C 0.45898 0.86215 0.60167 0.0
C641 C 0.43989 0.8282 0.58892 0.0
C642 C 0.44052 0.89043 0.62824 0.0
C643 C 0.40229 0.88584 0.6433 0.0
C644 C 0.38433 0.85064 0.63306 0.0
C645 C 0.40271 0.82252 0.60646 0.0
C646 C 0.32697 0.94078 0.71457 0.0
C647 C 0.33261 0.9792 0.70129 0.0
C648 C 0.35034 0.91095 0.69756 0.0
C649 C 0.38026 0.91822 0.66636 0.0
C650 C 0.38709 0.95692 0.65504 0.0
C651 C 0.36386 0.98671 0.67218 0.0
H652 H 0.79555 0.64718 0.42224 0.0
H653 H 0.85981 0.542 0.42204 0.0
H654 H 0.8427 0.6764 0.37206 0.0
H655 H 0.90706 0.57083 0.37126 0.0
H656 H 1.01074 0.6548 0.3582 0.0
H657 H 0.95709 0.61547 0.38235 0.0
H658 H 0.87993 0.68672 0.30488 0.0
H659 H 0.93428 0.72661 0.28115 0.0
C660 C 0.81855 0.62943 0.40925 0.0
C661 C 0.823 0.59172 0.42571 0.0
C662 C 0.84619 0.64648 0.3807 0.0
C663 C 0.87973 0.62662 0.36784 0.0
C664 C 0.8823 0.58768 0.38085 0.0
C665 C 0.85445 0.57057 0.40917 0.0
C666 C 0.98255 0.6614 0.3449 0.0
C667 C 0.97736 0.69386 0.31705 0.0
C668 C 0.95141 0.63867 0.35893 0.0
C669 C 0.91344 0.64756 0.34618 0.0
C670 C 0.9084 0.67885 0.31614 0.0
C671 C 0.93982 0.7015 0.3017 0.0
H672 H 0.21674 0.342 0.24452 0.0
H673 H 0.23818 0.37619 0.10651 0.0
H674 H 0.19902 0.27809 0.21851 0.0
H675 H 0.22508 0.31214 0.08039 0.0
H676 H 0.21382 0.194 0.0343 0.0
H677 H 0.19729 0.25806 0.06088 0.0
H678 H 0.2254 0.2234 0.19828 0.0
H679 H 0.23727 0.15919 0.17169 0.0
C680 C 0.21696 0.33585 0.20846 0.0
C681 C 0.22842 0.36398 0.17746 0.0
C682 C 0.20761 0.29888 0.19333 0.0
C683 C 0.21157 0.2886 0.14706 0.0
C684 C 0.22092 0.31796 0.11607 0.0
C685 C 0.2287 0.35513 0.13105 0.0
C686 C 0.21469 0.20004 0.07037 0.0
C687 C 0.2264 0.1717 0.101 0.0
C688 C 0.20608 0.23711 0.08581 0.0
C689 C 0.21108 0.24726 0.13198 0.0
C690 C 0.22053 0.21769 0.16269 0.0
C691 C 0.22757 0.18042 0.14744 0.0
H692 H 0.19549 0.7842 0.97781 0.0
H693 H 0.14798 0.82268 0.85024 0.0
H694 H 0.25932 0.8011 0.95167 0.0
H695 H 0.21195 0.84016 0.82439 0.0
H696 H 0.32815 0.78288 0.7765 0.0
H697 H 0.26338 0.79738 0.80145 0.0
H698 H 0.30824 0.84612 0.92536 0.0
H699 H 0.3734 0.83122 0.90017 0.0
C700 C 0.19844 0.79739 0.94473 0.0
C701 C 0.16652 0.80127 0.91586 0.0
C702 C 0.23518 0.80734 0.92976 0.0
C703 C 0.24097 0.82142 0.88553 0.0
C704 C 0.20863 0.82874 0.85833 0.0
C705 C 0.17184 0.81891 0.87335 0.0
C706 C 0.32428 0.79814 0.80822 0.0
C707 C 0.35586 0.80571 0.83642 0.0
C708 C 0.28705 0.80651 0.82262 0.0
C709 C 0.28043 0.82237 0.86585 0.0
C710 C 0.31229 0.83339 0.89217 0.0
C711 C 0.34969 0.82534 0.87747 0.0
H712 H 0.81638 0.69296 0.23877 0.0
H713 H 0.79429 0.65906 0.1007 0.0
H714 H 0.83395 0.75691 0.21301 0.0
H715 H 0.80717 0.72319 0.07484 0.0
H716 H 0.79376 0.87545 0.16782 0.0
H717 H 0.80709 0.81139 0.19363 0.0
H718 H 0.83365 0.77778 0.05541 0.0
H719 H 0.81561 0.84166 0.02969 0.0
C720 C 0.81598 0.69919 0.20274 0.0
C721 C 0.80433 0.67116 0.17166 0.0
C722 C 0.82523 0.73619 0.18776 0.0
C723 C 0.82089 0.74661 0.14159 0.0
C724 C 0.81153 0.7173 0.11047 0.0
C725 C 0.80391 0.68007 0.12529 0.0
C726 C 0.80343 0.85449 0.1432 0.0
C727 C 0.80366 0.86341 0.09683 0.0
C728 C 0.81133 0.8173 0.158 0.0
C729 C 0.82075 0.78802 0.12685 0.0
C730 C 0.8249 0.79846 0.08068 0.0
C731 C 0.81539 0.83543 0.06572 0.0
H732 H 0.82429 0.25053 0.98367 0.0
H733 H 0.8737 0.19413 0.86722 0.0
H734 H 0.76033 0.23316 0.95751 0.0
H735 H 0.80947 0.17719 0.84051 0.0
H736 H 0.69825 0.24435 0.78296 0.0
H737 H 0.76159 0.22668 0.81096 0.0
H738 H 0.71082 0.18303 0.93404 0.0
H739 H 0.64719 0.20025 0.90558 0.0
C740 C 0.82151 0.23306 0.95343 0.0
C741 C 0.85396 0.2238 0.92747 0.0
C742 C 0.78485 0.22303 0.93841 0.0
C743 C 0.77981 0.20412 0.89666 0.0
C744 C 0.81247 0.1919 0.87271 0.0
C745 C 0.84927 0.20133 0.88822 0.0
C746 C 0.70047 0.22941 0.81509 0.0
C747 C 0.6678 0.22384 0.84211 0.0
C748 C 0.73678 0.21922 0.83118 0.0
C749 C 0.74125 0.20386 0.87499 0.0
C750 C 0.70825 0.19501 0.90026 0.0
C751 C 0.67178 0.20457 0.88377 0.0
H752 H 0.74871 0.82728 0.73801 0.0
H753 H 0.69807 0.87461 0.61674 0.0
H754 H 0.73349 0.76293 0.71186 0.0
H755 H 0.68295 0.80988 0.59013 0.0
H756 H 0.74672 0.69678 0.53678 0.0
H757 H 0.73003 0.76075 0.56314 0.0
H758 H 0.68683 0.71316 0.68821 0.0
H759 H 0.70365 0.6491 0.6621 0.0
C760 C 0.73289 0.82393 0.70658 0.0
C761 C 0.72464 0.85592 0.67944 0.0
C762 C 0.72412 0.78701 0.69151 0.0
C763 C 0.7074 0.7812 0.64858 0.0
C764 C 0.69613 0.81342 0.62316 0.0
C765 C 0.70439 0.85051 0.63865 0.0
C766 C 0.73259 0.69973 0.56932 0.0
C767 C 0.72742 0.66774 0.59769 0.0
C768 C 0.72281 0.73651 0.58439 0.0
C769 C 0.70771 0.74213 0.62817 0.0
C770 C 0.69899 0.70982 0.65462 0.0
C771 C 0.70853 0.67303 0.63947 0.0
H772 H 0.87596 0.28499 0.42882 0.0
H773 H 0.84531 0.31669 0.29238 0.0
H774 H 0.81136 0.29763 0.45404 0.0
H775 H 0.78098 0.33359 0.31786 0.0
H776 H 0.6607 0.29311 0.35703 0.0
H777 H 0.72587 0.30513 0.33372 0.0
H778 H 0.75721 0.32643 0.4739 0.0
H779 H 0.69206 0.31019 0.49692 0.0
C780 C 0.85565 0.2967 0.40467 0.0
C781 C 0.86563 0.30011 0.35877 0.0
C782 C 0.8182 0.30413 0.41911 0.0
C783 C 0.78971 0.31607 0.38812 0.0
C784 C 0.80114 0.32305 0.3428 0.0
C785 C 0.83837 0.31421 0.32809 0.0
C786 C 0.6814 0.30144 0.38264 0.0
C787 C 0.67137 0.30092 0.4287 0.0
C788 C 0.71918 0.30853 0.36931 0.0
C789 C 0.74801 0.31622 0.4017 0.0
C790 C 0.73672 0.31923 0.4477 0.0
C791 C 0.69908 0.31072 0.46111 0.0
H792 H 0.27802 0.19654 0.73443 0.0
H793 H 0.32586 0.15245 0.60963 0.0
H794 H 0.29313 0.26145 0.71034 0.0
H795 H 0.34132 0.21746 0.58585 0.0
H796 H 0.32334 0.37746 0.66166 0.0
H797 H 0.33827 0.31251 0.68773 0.0
H798 H 0.29634 0.267 0.56072 0.0
H799 H 0.28159 0.33153 0.53499 0.0
C800 C 0.29285 0.20051 0.70249 0.0
C801 C 0.29997 0.16915 0.67365 0.0
C802 C 0.30172 0.23787 0.68872 0.0
C803 C 0.31786 0.24481 0.64574 0.0
C804 C 0.32829 0.21319 0.61881 0.0
C805 C 0.3196 0.17582 0.63266 0.0
C806 C 0.31888 0.35367 0.63864 0.0
C807 C 0.30121 0.35956 0.59629 0.0
C808 C 0.32698 0.31641 0.65379 0.0
C809 C 0.31806 0.28442 0.62661 0.0
C810 C 0.30388 0.29082 0.58253 0.0
C811 C 0.29536 0.32789 0.56769 0.0
H812 H 0.18754 0.70896 0.28485 0.0
H813 H 0.15589 0.73724 0.42202 0.0
H814 H 0.25181 0.69181 0.31046 0.0
H815 H 0.22027 0.72454 0.44747 0.0
H816 H 0.33895 0.71494 0.49152 0.0
H817 H 0.27456 0.69711 0.46738 0.0
H818 H 0.30695 0.71907 0.32774 0.0
H819 H 0.37155 0.73238 0.35219 0.0
C820 C 0.19427 0.71069 0.3207 0.0
C821 C 0.16677 0.72395 0.35156 0.0
C822 C 0.23147 0.7017 0.33554 0.0
C823 C 0.24258 0.70774 0.38123 0.0
C824 C 0.21379 0.71878 0.41226 0.0
C825 C 0.17642 0.72629 0.39766 0.0
C826 C 0.33236 0.71417 0.45558 0.0
C827 C 0.36019 0.72462 0.42369 0.0
C828 C 0.2951 0.70479 0.4415 0.0
C829 C 0.2842 0.70775 0.39534 0.0
C830 C 0.31326 0.71582 0.36344 0.0
C831 C 0.35075 0.72364 0.37744 0.0
H832 H 0.34198 0.0182 0.21465 0.0
H833 H 0.30541 0.923 0.13146 0.0
H834 H 0.36676 0.97419 0.27088 0.0
H835 H 0.32954 0.87833 0.18912 0.0
H836 H 0.41494 0.81478 0.28631 0.0
H837 H 0.38824 0.85459 0.2257 0.0
H838 H 0.34122 0.93152 0.32631 0.0
H839 H 0.3688 0.89274 0.38635 0.0
C840 C 0.33893 0.98774 0.20856 0.0
C841 C 0.32129 0.97404 0.16889 0.0
C842 C 0.353 0.96247 0.24097 0.0
C843 C 0.34946 0.92274 0.23494 0.0
C844 C 0.33271 0.90882 0.19469 0.0
C845 C 0.31883 0.93432 0.16179 0.0
C846 C 0.39867 0.84009 0.29534 0.0
C847 C 0.39437 0.85092 0.34104 0.0
C848 C 0.38325 0.86277 0.26066 0.0
C849 C 0.36308 0.89651 0.27116 0.0
C850 C 0.35745 0.90626 0.31699 0.0
C851 C 0.37313 0.88392 0.35147 0.0
H852 H 0.81624 0.57935 0.7493 0.0
H853 H 0.87771 0.65244 0.65619 0.0
H854 H 0.85151 0.60832 0.81303 0.0
H855 H 0.91291 0.68022 0.71853 0.0
H856 H 0.9585 0.64407 0.90261 0.0
H857 H 0.91581 0.61408 0.84719 0.0
H858 H 0.90175 0.7232 0.78008 0.0
H859 H 0.94528 0.75271 0.8343 0.0
C860 C 0.83732 0.60133 0.74243 0.0
C861 C 0.84369 0.61402 0.69779 0.0
C862 C 0.85752 0.6179 0.77882 0.0
C863 C 0.88444 0.64726 0.771 0.0
C864 C 0.89151 0.6587 0.72613 0.0
C865 C 0.87141 0.64249 0.6902 0.0
C866 C 0.94577 0.66173 0.87639 0.0
C867 C 0.95566 0.70066 0.87241 0.0
C868 C 0.92122 0.64454 0.84471 0.0
C869 C 0.90591 0.66604 0.80865 0.0
C870 C 0.91389 0.70553 0.80666 0.0
C871 C 0.93869 0.72255 0.83788 0.0
H872 H 0.73603 0.03122 0.22612 0.0
H873 H 0.68366 0.0992 0.12041 0.0
H874 H 0.71022 0.07404 0.2832 0.0
H875 H 0.65649 0.14186 0.17822 0.0
H876 H 0.64077 0.22681 0.2986 0.0
H877 H 0.67015 0.18905 0.23783 0.0
H878 H 0.6479 0.08551 0.31364 0.0
H879 H 0.61977 0.123 0.37441 0.0
C880 C 0.71893 0.05539 0.21506 0.0
C881 C 0.71149 0.06162 0.16879 0.0
C882 C 0.70393 0.07985 0.24786 0.0
C883 C 0.68062 0.11093 0.23537 0.0
C884 C 0.67441 0.11819 0.18893 0.0
C885 C 0.68986 0.09378 0.15586 0.0
C886 C 0.64219 0.19597 0.30215 0.0
C887 C 0.62835 0.17791 0.34152 0.0
C888 C 0.65886 0.17436 0.26728 0.0
C889 C 0.66182 0.13432 0.27113 0.0
C890 C 0.64702 0.11637 0.31005 0.0
C891 C 0.63069 0.13787 0.34486 0.0
H892 H 1.00835 0.32694 0.79496 0.0
H893 H 0.10458 0.30088 0.8821 0.0
H894 H 0.05097 0.35627 0.74055 0.0
H895 H 0.14801 0.32922 0.82612 0.0
H896 H 0.20657 0.42054 0.73496 0.0
H897 H 0.16694 0.38933 0.79251 0.0
H898 H 0.09736 0.33944 0.68637 0.0
H899 H 0.13564 0.37177 0.62952 0.0
C900 C 0.03881 0.32688 0.80216 0.0
C901 C 0.05316 0.31117 0.84263 0.0
C902 C 0.06334 0.34363 0.77077 0.0
C903 C 0.10304 0.34469 0.77858 0.0
C904 C 0.11753 0.32911 0.8192 0.0
C905 C 0.09276 0.31265 0.85109 0.0
C906 C 0.18277 0.40286 0.72412 0.0
C907 C 0.1739 0.39898 0.67781 0.0
C908 C 0.16024 0.38478 0.75702 0.0
C909 C 0.1287 0.36216 0.74412 0.0
C910 C 0.12077 0.35742 0.69765 0.0
C911 C 0.14284 0.37587 0.66497 0.0
H912 H 0.4126 0.71926 0.98345 0.0
H913 H 0.36938 0.63777 0.88559 0.0
H914 H 0.38664 0.68024 0.0451 0.0
H915 H 0.34241 0.59977 0.94662 0.0
H916 H 0.34349 0.51592 0.0611 0.0
H917 H 0.36781 0.55898 1.00369 0.0
H918 H 0.32885 0.65611 0.08222 0.0
H919 H 0.30529 0.6124 0.14114 0.0
C920 C 0.3971 0.69333 0.9751 0.0
C921 C 0.39339 0.68134 0.92973 0.0
C922 C 0.3821 0.67109 0.01038 0.0
C923 C 0.36291 0.63662 1.00084 0.0
C924 C 0.3579 0.62563 0.95528 0.0
C925 C 0.3732 0.64753 0.92022 0.0
C926 C 0.33997 0.54646 0.06623 0.0
C927 C 0.32202 0.56079 0.10536 0.0
C928 C 0.35377 0.57119 0.03311 0.0
C929 C 0.3496 0.611 0.03785 0.0
C930 C 0.33253 0.62556 0.0776 0.0
C931 C 0.31897 0.60061 0.11123 0.0
H932 H 0.63603 0.66284 0.14035 0.0
H933 H 0.71085 0.61536 0.03794 0.0
H934 H 0.59686 0.69188 0.08154 0.0
H935 H 0.67059 0.64321 0.97865 0.0
H936 H 0.60514 0.7256 0.88433 0.0
H937 H 0.64899 0.70105 0.94237 0.0
H938 H 0.55213 0.67154 0.02675 0.0
H939 H 0.5089 0.69711 0.97006 0.0
C940 C 0.64401 0.65845 0.10519 0.0
C941 C 0.67639 0.63659 0.09378 0.0
C942 C 0.62142 0.67495 0.07139 0.0
C943 C 0.63022 0.6695 0.02524 0.0
C944 C 0.66314 0.6483 0.01381 0.0
C945 C 0.6861 0.63216 0.04777 0.0
C946 C 0.59339 0.71396 0.91541 0.0
C947 C 0.55362 0.71368 0.92282 0.0
C948 C 0.61845 0.69973 0.94856 0.0
C949 C 0.60415 0.68465 0.98951 0.0
C950 C 0.5643 0.68385 0.99628 0.0
C951 C 0.53943 0.69837 0.96356 0.0
H952 H 0.61185 0.3152 0.98602 0.0
H953 H 0.6594 0.39188 0.88574 0.0
H954 H 0.63879 0.35512 0.04654 0.0
H955 H 0.68713 0.43066 0.94557 0.0
H956 H 0.68726 0.51833 0.05604 0.0
H957 H 0.6618 0.47416 1.00037 0.0
H958 H 0.69779 0.37851 0.08319 0.0
H959 H 0.72258 0.42332 0.14026 0.0
C960 C 0.62847 0.34022 0.97692 0.0
C961 C 0.63308 0.35069 0.93117 0.0
C962 C 0.644 0.36297 0.01153 0.0
C963 C 0.66458 0.3964 1.00088 0.0
C964 C 0.67055 0.4057 0.95502 0.0
C965 C 0.65479 0.38333 0.92066 0.0
C966 C 0.68989 0.48789 0.06249 0.0
C967 C 0.7074 0.4743 0.10229 0.0
C968 C 0.67542 0.46252 0.0304 0.0
C969 C 0.67841 0.42277 0.03688 0.0
C970 C 0.69502 0.40899 0.07726 0.0
C971 C 0.70932 0.43459 0.10981 0.0
H972 H 0.43217 0.34608 0.87374 0.0
H973 H 0.50044 0.29355 0.97909 0.0
H974 H 0.38992 0.3735 0.93168 0.0
H975 H 0.45791 0.31953 0.03639 0.0
H976 H 0.4087 0.40962 0.12836 0.0
H977 H 0.44621 0.38099 0.06792 0.0
H978 H 0.34283 0.36081 0.99066 0.0
H979 H 0.30515 0.39079 0.05103 0.0
C980 C 0.43774 0.33988 0.90916 0.0
C981 C 0.46986 0.31808 0.9219 0.0
C982 C 0.41353 0.35548 0.94234 0.0
C983 C 0.4209 0.34925 0.98877 0.0
C984 C 0.45199 0.32586 1.00109 0.0
C985 C 0.47628 0.31073 0.96816 0.0
C986 C 0.39388 0.39902 0.09857 0.0
C987 C 0.35391 0.40222 0.09467 0.0
C988 C 0.41539 0.38239 0.06393 0.0
C989 C 0.39751 0.36808 0.02462 0.0
C990 C 0.35753 0.37173 0.02035 0.0
C991 C 0.33593 0.38874 0.05501 0.0
H992 H 0.88271 0.46479 0.62603 0.0
H993 H 0.76877 0.44084 0.67553 0.0
H994 H 0.90953 0.42168 0.68357 0.0
H995 H 0.79567 0.39689 0.7321 0.0
H996 H 0.86887 0.29491 0.79741 0.0
H997 H 0.84318 0.33059 0.73216 0.0
H998 H 0.902 0.43216 0.77786 0.0
H999 H 0.9266 0.39711 0.84364 0.0
C1000 C 0.86339 0.44957 0.64842 0.0
C1001 C 0.8237 0.45618 0.64649 0.0
C1002 C 0.87873 0.42512 0.68136 0.0
C1003 C 0.85456 0.40614 0.71205 0.0
C1004 C 0.81477 0.41111 0.70856 0.0
C1005 C 0.79948 0.43629 0.67639 0.0
C1006 C 0.87633 0.32482 0.79334 0.0
C1007 C 0.89951 0.34338 0.8256 0.0
C1008 C 0.86165 0.34513 0.75619 0.0
C1009 C 0.87091 0.38391 0.7501 0.0
C1010 C 0.89475 0.40217 0.78177 0.0
C1011 C 0.90857 0.38222 0.81945 0.0
H1012 H 0.30436 0.14453 0.22527 0.0
H1013 H 0.40721 0.12675 0.14637 0.0
H1014 H 0.34234 0.17485 0.28507 0.0
H1015 H 0.44506 0.15577 0.20631 0.0
H1016 H 0.49964 0.24271 0.29547 0.0
H1017 H 0.45659 0.21717 0.23829 0.0
H1018 H 0.39003 0.16189 0.34313 0.0
H1019 H 0.43272 0.18884 0.40086 0.0
C1020 C 0.33505 0.14688 0.22084 0.0
C1021 C 0.35275 0.13356 0.18095 0.0
C1022 C 0.35683 0.1641 0.25515 0.0
C1023 C 0.3967 0.16812 0.2503 0.0
C1024 C 0.41432 0.15406 0.21072 0.0
C1025 C 0.39261 0.1372 0.17642 0.0
C1026 C 0.47563 0.22538 0.30642 0.0
C1027 C 0.46971 0.21749 0.35261 0.0
C1028 C 0.45107 0.21051 0.27358 0.0
C1029 C 0.42026 0.18686 0.28601 0.0
C1030 C 0.41339 0.18015 0.33241 0.0
C1031 C 0.43784 0.19549 0.36547 0.0
H1032 H 0.17081 0.712 0.82256 0.0
H1033 H 0.06 0.66176 0.79665 0.0
H1034 H 0.19883 0.67299 0.76219 0.0
H1035 H 0.08838 0.62179 0.73665 0.0
H1036 H 0.1751 0.52025 0.7017 0.0
H1037 H 0.14057 0.56692 0.74791 0.0
H1038 H 0.19374 0.65909 0.6736 0.0
H1039 H 0.22789 0.61223 0.62634 0.0
C1040 C 0.15236 0.69308 0.80325 0.0
C1041 C 0.11331 0.68974 0.81412 0.0
C1042 C 0.16835 0.67091 0.76867 0.0
C1043 C 0.14578 0.64434 0.745 0.0
C1044 C 0.10634 0.64209 0.75456 0.0
C1045 C 0.09009 0.66502 0.78855 0.0
C1046 C 0.17944 0.55047 0.69514 0.0
C1047 C 0.20453 0.56264 0.66075 0.0
C1048 C 0.1593 0.57712 0.72122 0.0
C1049 C 0.16432 0.61652 0.71404 0.0
C1050 C 0.18932 0.62882 0.67962 0.0
C1051 C 0.20889 0.60207 0.65277 0.0
H1052 H 0.63713 0.87169 0.1331 0.0
H1053 H 0.71346 0.91963 0.23371 0.0
H1054 H 0.59873 0.8433 0.19273 0.0
H1055 H 0.67386 0.8922 0.29402 0.0
H1056 H 0.6075 0.80851 0.38823 0.0
H1057 H 0.65158 0.83367 0.33075 0.0
H1058 H 0.55486 0.86651 0.24763 0.0
H1059 H 0.51145 0.84052 0.30367 0.0
C1060 C 0.64564 0.8763 0.16805 0.0
C1061 C 0.67811 0.89825 0.17871 0.0
C1062 C 0.62348 0.86016 0.20232 0.0
C1063 C 0.6328 0.86602 0.24824 0.0
C1064 C 0.66599 0.88699 0.259 0.0
C1065 C 0.68855 0.90285 0.2245 0.0
C1066 C 0.59585 0.82111 0.35759 0.0
C1067 C 0.55608 0.82203 0.35015 0.0
C1068 C 0.62103 0.83565 0.3248 0.0
C1069 C 0.60677 0.85157 0.28425 0.0
C1070 C 0.56693 0.85344 0.27777 0.0
C1071 C 0.54197 0.83867 0.31009 0.0
H1072 H 0.89406 0.21988 0.47729 0.0
H1073 H 0.90801 0.11749 0.39646 0.0
H1074 H 0.8605 0.18284 0.53512 0.0
H1075 H 0.87577 0.08032 0.45472 0.0
H1076 H 0.78396 0.02952 0.54062 0.0
H1077 H 0.81337 0.07133 0.48478 0.0
H1078 H 0.86911 0.13449 0.59243 0.0
H1079 H 0.83831 0.09324 0.6486 0.0
C1080 C 0.8903 0.1894 0.4721 0.0
C1081 C 0.90344 0.17162 0.43219 0.0
C1082 C 0.87117 0.16816 0.5053 0.0
C1083 C 0.86507 0.12867 0.49941 0.0
C1084 C 0.87908 0.11085 0.4599 0.0
C1085 C 0.89782 0.1321 0.42659 0.0
C1086 C 0.80213 0.05263 0.5524 0.0
C1087 C 0.80899 0.05805 0.59893 0.0
C1088 C 0.81927 0.07641 0.52037 0.0
C1089 C 0.84419 0.10585 0.53403 0.0
C1090 C 0.8499 0.11223 0.58074 0.0
C1091 C 0.83229 0.08863 0.61293 0.0
H1092 H 0.11531 0.22198 0.37259 0.0
H1093 H 0.02522 0.16839 0.45038 0.0
H1094 H 0.16342 0.18955 0.41988 0.0
H1095 H 0.07316 0.13548 0.49654 0.0
H1096 H 0.17091 0.05787 0.54455 0.0
H1097 H 0.13076 0.0843 0.48349 0.0
H1098 H 0.17576 0.19711 0.51064 0.0
H1099 H 0.21481 0.17101 0.5723 0.0
C1100 C 0.10585 0.20305 0.39945 0.0
C1101 C 0.06659 0.198 0.4082 0.0
C1102 C 0.13329 0.1845 0.42631 0.0
C1103 C 0.12184 0.15984 0.46142 0.0
C1104 C 0.08265 0.15399 0.46928 0.0
C1105 C 0.05529 0.17316 0.44322 0.0
C1106 C 0.17283 0.08809 0.53656 0.0
C1107 C 0.1957 0.11251 0.56296 0.0
C1108 C 0.14983 0.10319 0.50195 0.0
C1109 C 0.15026 0.14268 0.4926 0.0
C1110 C 0.17516 0.16656 0.51702 0.0
C1111 C 0.19734 0.15167 0.55229 0.0
H1112 H 0.14567 0.89537 0.39583 0.0
H1113 H 0.11435 0.8038 0.48726 0.0
H1114 H 0.17517 0.92982 0.45849 0.0
H1115 H 0.14414 0.83863 0.55023 0.0
H1116 H 0.25858 0.96356 0.56764 0.0
H1117 H 0.23181 0.92199 0.50945 0.0
H1118 H 0.13328 0.90045 0.59412 0.0
H1119 H 0.16006 0.94214 0.65283 0.0
C1120 C 0.14512 0.8825 0.42927 0.0
C1121 C 0.1277 0.84673 0.43645 0.0
C1122 C 0.16228 0.90218 0.46515 0.0
C1123 C 0.16222 0.88678 0.50919 0.0
C1124 C 0.14451 0.85121 0.51664 0.0
C1125 C 0.1276 0.83126 0.48056 0.0
C1126 C 0.23142 0.94965 0.57427 0.0
C1127 C 0.21133 0.95649 0.61485 0.0
C1128 C 0.21602 0.92597 0.54075 0.0
C1129 C 0.18024 0.90838 0.547 0.0
C1130 C 0.16099 0.91355 0.58845 0.0
C1131 C 0.17632 0.93747 0.62202 0.0
H1132 H 0.92891 0.84107 0.36661 0.0
H1133 H 0.99412 0.78988 0.47562 0.0
H1134 H 0.8849 0.86911 0.4224 0.0
H1135 H 0.95004 0.81677 0.53066 0.0
H1136 H 0.9022 0.91083 0.61687 0.0
H1137 H 0.93973 0.88151 0.55708 0.0
H1138 H 0.83618 0.85588 0.48258 0.0
H1139 H 0.79817 0.88631 0.54266 0.0
C1140 C 0.93343 0.83528 0.40233 0.0
C1141 C 0.96525 0.8138 0.41681 0.0
C1142 C 0.90824 0.85124 0.43421 0.0
C1143 C 0.91447 0.84575 0.48094 0.0
C1144 C 0.94507 0.82243 0.49498 0.0
C1145 C 0.97025 0.80686 0.46338 0.0
C1146 C 0.88728 0.89896 0.58783 0.0
C1147 C 0.84715 0.90044 0.58479 0.0
C1148 C 0.90883 0.88197 0.5536 0.0
C1149 C 0.89087 0.86571 0.51551 0.0
C1150 C 0.85079 0.86818 0.51157 0.0
C1151 C 0.82906 0.88547 0.54597 0.0
H1152 H 0.59391 0.93626 0.05257 0.0
H1153 H 0.6222 0.05158 0.01226 0.0
H1154 H 0.52597 0.95216 0.04945 0.0
H1155 H 0.55448 0.06707 1.00606 0.0
H1156 H 0.43375 0.09663 0.05305 0.0
H1157 H 0.50156 0.08048 0.04984 0.0
H1158 H 0.47257 0.96568 1.00623 0.0
H1159 H 0.40486 0.98145 0.0125 0.0
C1160 C 0.58546 0.9648 0.04215 0.0
C1161 C 0.61319 0.99278 0.03311 0.0
C1162 C 0.54648 0.97397 0.04005 0.0
C1163 C 0.53439 1.01111 0.02777 0.0
C1164 C 0.56244 0.03853 0.01688 0.0
C1165 C 0.60134 0.0296 0.02007 0.0
C1166 C 0.44205 0.06806 0.04253 0.0
C1167 C 0.41417 0.04022 0.03336 0.0
C1168 C 0.48097 0.05874 0.04037 0.0
C1169 C 0.4929 0.02158 0.02793 0.0
C1170 C 0.46472 0.99425 0.01709 0.0
C1171 C 0.42585 1.00334 0.02031 0.0
H1172 H 0.01732 0.6108 0.0299 0.0
H1173 H 0.08165 0.59466 0.906 0.0
H1174 H 0.99884 0.54376 0.02889 0.0
H1175 H 0.06236 0.52743 0.90448 0.0
H1176 H 0.05293 0.40133 0.94362 0.0
H1177 H 0.07224 0.46802 0.94488 0.0
H1178 H 0.958 0.50073 0.98614 0.0
H1179 H 0.93875 0.4335 0.98614 0.0
C1180 C 0.02753 0.5929 1.00239 0.0
C1181 C 0.05099 0.608 0.96799 0.0
C1182 C 0.01665 0.55453 1.00166 0.0
C1183 C 0.02881 0.53036 0.96642 0.0
C1184 C 0.0528 0.54527 0.93235 0.0
C1185 C 0.06388 0.58373 0.93319 0.0
C1186 C 0.03184 0.42265 0.95311 0.0
C1187 C 0.99427 0.41204 0.96498 0.0
C1188 C 0.0429 0.46097 0.95344 0.0
C1189 C 0.01668 0.48968 0.96551 0.0
C1190 C 0.97902 0.47918 0.97721 0.0
C1191 C 0.96792 0.44072 0.97698 0.0
H1192 H 0.43321 0.44118 0.26805 0.0
H1193 H 0.41156 0.55456 0.21486 0.0
H1194 H 0.50133 0.45648 0.2743 0.0
H1195 H 0.47932 0.56948 0.22056 0.0
H1196 H 0.62106 0.4818 0.21353 0.0
H1197 H 0.55337 0.46715 0.2201 0.0
H1198 H 0.53225 0.58034 0.2739 0.0
H1199 H 0.6004 0.59541 0.26679 0.0
C1200 C 0.44292 0.46932 0.25776 0.0
C1201 C 0.41696 0.4965 0.2406 0.0
C1202 C 0.48192 0.47808 0.2613 0.0
C1203 C 0.49572 0.51419 0.24784 0.0
C1204 C 0.46958 0.54162 0.23181 0.0
C1205 C 0.43072 0.53289 0.22822 0.0
C1206 C 0.60214 0.50359 0.2271 0.0
C1207 C 0.61616 0.53995 0.23926 0.0
C1208 C 0.5633 0.49501 0.23119 0.0
C1209 C 0.53742 0.52254 0.2475 0.0
C1210 C 0.55147 0.55866 0.26071 0.0
C1211 C 0.59048 0.56728 0.25668 0.0
H1212 H 0.59445 0.43547 0.8093 0.0
H1213 H 0.47987 0.40835 0.76475 0.0
H1214 H 0.57895 0.5035 0.80722 0.0
H1215 H 0.46486 0.4762 0.75942 0.0
H1216 H 0.43457 0.59649 0.80572 0.0
H1217 H 0.45069 0.52871 0.80324 0.0
H1218 H 0.56684 0.55746 0.76475 0.0
H1219 H 0.55101 0.62517 0.77043 0.0
C1220 C 0.56617 0.44423 0.79819 0.0
C1221 C 0.53825 0.4168 0.7876 0.0
C1222 C 0.55724 0.48326 0.79667 0.0
C1223 C 0.52044 0.49571 0.78341 0.0
C1224 C 0.49311 0.46796 0.77106 0.0
C1225 C 0.50176 0.42899 0.77371 0.0
C1226 C 0.46347 0.58815 0.79662 0.0
C1227 C 0.4916 0.61596 0.78861 0.0
C1228 C 0.47277 0.54924 0.79483 0.0
C1229 C 0.51022 0.53723 0.78384 0.0
C1230 C 0.53798 0.56535 0.77444 0.0
C1231 C 0.52888 0.60424 0.77735 0.0
H1232 H 0.09632 0.44162 0.52122 0.0
H1233 H 0.12703 0.55884 0.55181 0.0
H1234 H 0.02864 0.45952 0.52283 0.0
H1235 H 0.05989 0.57666 0.5523 0.0
H1236 H 0.93567 0.58413 0.60232 0.0
H1237 H 1.00352 0.56698 0.59908 0.0
H1238 H 0.98192 0.49704 0.48072 0.0
H1239 H 0.9144 0.51342 0.48442 0.0
C1240 C 0.08869 0.4712 0.52781 0.0
C1241 C 0.11706 0.49872 0.53648 0.0
C1242 C 0.04998 0.48149 0.52861 0.0
C1243 C 0.03897 0.51949 0.53799 0.0
C1244 C 0.06741 0.54704 0.54579 0.0
C1245 C 0.10596 0.53681 0.5451 0.0
C1246 C 0.94554 0.56534 0.57547 0.0
C1247 C 0.91969 0.55004 0.54379 0.0
C1248 C 0.98435 0.55553 0.57355 0.0
C1249 C 0.99798 0.53044 0.53977 0.0
C1250 C 0.97219 0.51581 0.50764 0.0
C1251 C 0.93351 0.52545 0.50966 0.0
H1252 H 0.58836 0.09821 0.51438 0.0
H1253 H 0.47579 0.12144 0.45947 0.0
H1254 H 0.57251 0.03026 0.51909 0.0
H1255 H 0.46028 0.0536 0.46367 0.0
H1256 H 0.54818 0.91088 0.45902 0.0
H1257 H 0.56235 0.97874 0.46432 0.0
H1258 H 0.44855 1.00002 0.51613 0.0
H1259 H 0.43399 0.93165 0.51035 0.0
C1260 C 0.56025 0.08887 0.50334 0.0
C1261 C 0.53348 0.11526 0.4862 0.0
C1262 C 0.5512 0.04993 0.50598 0.0
C1263 C 0.51518 0.0365 0.49157 0.0
C1264 C 0.4881 0.06303 0.47554 0.0
C1265 C 0.49713 0.10193 0.47285 0.0
C1266 C 0.52613 0.92987 0.47183 0.0
C1267 C 0.48983 0.91576 0.48406 0.0
C1268 C 0.53441 0.96883 0.47515 0.0
C1269 C 0.50664 0.9948 0.49074 0.0
C1270 C 0.47044 0.98075 0.50357 0.0
C1271 C 0.46213 0.94159 0.50034 0.0
H1272 H 0.11899 0.98481 0.72018 0.0
H1273 H 0.08902 0.10332 0.69815 0.0
H1274 H 0.05164 0.96762 0.72161 0.0
H1275 H 0.02112 0.08663 0.70202 0.0
H1276 H 0.9034 0.03934 0.66915 0.0
H1277 H 0.97077 0.0561 0.66438 0.0
H1278 H 0.99691 0.97119 0.76681 0.0
H1279 H 0.92942 0.9531 0.76959 0.0
C1280 C 0.09781 1.00726 0.71598 0.0
C1281 C 0.1091 0.04542 0.70923 0.0
C1282 C 0.05915 0.99746 0.7172 0.0
C1283 C 0.03073 0.02571 0.71253 0.0
C1284 C 0.04214 0.06396 0.70519 0.0
C1285 C 0.081 0.07365 0.7031 0.0
C1286 C 0.92361 0.02428 0.69067 0.0
C1287 C 0.91127 0.99492 0.71978 0.0
C1288 C 0.96226 0.03407 0.68815 0.0
C1289 C 0.98947 0.01518 0.71528 0.0
C1290 C 0.97695 0.98592 0.74473 0.0
C1291 C 0.93827 0.97562 0.74661 0.0
H1292 H 0.93663 0.09507 0.30184 0.0
H1293 H 0.05171 0.12111 0.25822 0.0
H1294 H 0.95158 0.02704 0.3004 0.0
H1295 H 0.06626 0.053 0.25388 0.0
H1296 H 0.09428 0.93299 0.30519 0.0
H1297 H 0.07918 1.00094 0.30006 0.0
H1298 H 0.96378 0.97286 0.2577 0.0
H1299 H 0.97849 0.90512 0.26574 0.0
C1300 C 0.96489 0.0861 0.29094 0.0
C1301 C 0.99307 0.11326 0.2804 0.0
C1302 C 0.9735 0.04703 0.28985 0.0
C1303 C 1.01029 0.03423 0.27722 0.0
C1304 C 0.03795 0.06163 0.2649 0.0
C1305 C 0.02956 0.1007 0.26698 0.0
C1306 C 0.06576 0.9415 0.29466 0.0
C1307 C 0.03746 0.9139 0.2863 0.0
C1308 C 0.05709 0.98048 0.29135 0.0
C1309 C 0.02011 0.99269 0.2786 0.0
C1310 C 0.99225 0.96477 0.26873 0.0
C1311 C 1.00072 0.92587 0.27304 0.0
loop_
_geom_bond_atom_site_label_1
_geom_bond_atom_site_label_2
_geom_bond_distance
_geom_bond_site_symmetry_2
_ccdc_geom_bond_type
Fe0 O2 1.918 . S
Fe0 O5 1.997 . S
Fe0 O6 2.002 . S
Fe0 O11 1.976 . S
Fe0 O14 1.996 . S
Fe1 O2 1.918 . S
Fe1 O9 1.997 1_545 S
Fe1 O12 1.995 1_545 S
Fe1 O16 1.976 1_554 S
Fe1 O19 2.002 1_545 S
O2 Fe0 1.918 . S
O2 Fe1 1.918 . S
O2 Fe3 1.918 . S
Fe3 O2 1.918 . S
Fe3 O4 2.002 . S
Fe3 O13 1.976 . S
Fe3 O17 1.996 1_554 S
Fe3 O20 1.997 . S
O4 Fe3 2.002 . S
O4 C21 1.295 . S
O5 Fe0 1.997 . S
O5 C21 1.235 . S
O6 Fe0 2.002 . S
O6 C7 1.295 1_545 S
C7 O6 1.295 1_565 S
C7 O9 1.235 . S
C8 O13 1.287 . S
C8 O14 1.255 . S
O9 Fe1 1.997 1_565 S
O9 C7 1.235 . S
C10 O16 1.287 . S
C10 O17 1.255 . S
O11 Fe0 1.976 . S
O11 C18 1.287 . S
O12 Fe1 1.995 1_565 S
O12 C18 1.253 1_565 S
O13 Fe3 1.976 . S
O13 C8 1.287 . S
O14 Fe0 1.996 . S
O14 C8 1.255 . S
C15 O19 1.295 1_545 S
C15 O20 1.235 . S
O16 Fe1 1.976 1_556 S
O16 C10 1.287 . S
O17 Fe3 1.996 1_556 S
O17 C10 1.255 . S
C18 O11 1.287 . S
C18 O12 1.253 1_545 S
O19 Fe1 2.002 1_565 S
O19 C15 1.295 1_565 S
O20 Fe3 1.997 . S
O20 C15 1.235 . S
C21 O4 1.295 . S
C21 O5 1.235 . S
Fe22 O24 1.918 . S
Fe22 O27 1.997 . S
Fe22 O28 2.002 1_455 S
Fe22 O33 1.976 . S
Fe22 O36 1.996 1_556 S
Fe23 O24 1.918 . S
Fe23 O31 1.987 1_455 S
Fe23 O34 1.996 . S
Fe23 O38 1.976 . S
Fe23 O41 2.002 . S
O24 Fe22 1.918 . S
O24 Fe23 1.918 . S
O24 Fe25 1.918 . S
Fe25 O24 1.918 . S
Fe25 O26 2.002 . S
Fe25 O35 1.976 1_556 S
Fe25 O39 1.996 . S
Fe25 O42 1.997 . S
O26 Fe25 2.002 . S
O26 C43 1.295 . S
O27 Fe22 1.997 . S
O27 C43 1.235 . S
O28 Fe22 2.002 1_655 S
O28 C29 1.295 . S
C29 O28 1.295 . S
C29 O31 1.244 . S
C30 O35 1.287 . S
C30 O36 1.255 . S
O31 Fe23 1.987 1_655 S
O31 C29 1.244 . S
C32 O38 1.287 . S
C32 O39 1.255 . S
O33 Fe22 1.976 . S
O33 C40 1.287 . S
O34 Fe23 1.996 . S
O34 C40 1.255 . S
O35 Fe25 1.976 1_554 S
O35 C30 1.287 . S
O36 Fe22 1.996 1_554 S
O36 C30 1.255 . S
C37 O41 1.295 . S
C37 O42 1.235 . S
O38 Fe23 1.976 . S
O38 C32 1.287 . S
O39 Fe25 1.996 . S
O39 C32 1.255 . S
C40 O33 1.287 . S
C40 O34 1.255 . S
O41 Fe23 2.002 . S
O41 C37 1.295 . S
O42 Fe25 1.997 . S
O42 C37 1.235 . S
C43 O26 1.295 . S
C43 O27 1.235 . S
Fe44 O46 1.918 . S
Fe44 O49 1.997 . S
Fe44 O50 2.002 . S
Fe44 O55 1.976 . S
Fe44 O58 1.996 . S
Fe45 O46 1.918 . S
Fe45 O53 1.997 1_565 S
Fe45 O56 1.995 1_565 S
Fe45 O60 1.976 1_554 S
Fe45 O63 2.002 1_565 S
O46 Fe44 1.918 . S
O46 Fe45 1.918 . S
O46 Fe47 1.918 . S
Fe47 O46 1.918 . S
Fe47 O48 2.002 . S
Fe47 O57 1.976 . S
Fe47 O61 1.996 1_554 S
Fe47 O64 1.997 . S
O48 Fe47 2.002 . S
O48 C65 1.295 . S
O49 Fe44 1.997 . S
O49 C65 1.235 . S
O50 Fe44 2.002 . S
O50 C51 1.295 1_565 S
C51 O50 1.295 1_545 S
C51 O53 1.235 . S
C52 O57 1.287 . S
C52 O58 1.255 . S
O53 Fe45 1.997 1_545 S
O53 C51 1.235 . S
C54 O60 1.287 . S
C54 O61 1.255 . S
O55 Fe44 1.976 . S
O55 C62 1.287 . S
O56 Fe45 1.995 1_545 S
O56 C62 1.253 1_545 S
O57 Fe47 1.976 . S
O57 C52 1.287 . S
O58 Fe44 1.996 . S
O58 C52 1.255 . S
C59 O63 1.295 1_565 S
C59 O64 1.235 . S
O60 Fe45 1.976 1_556 S
O60 C54 1.287 . S
O61 Fe47 1.996 1_556 S
O61 C54 1.255 . S
C62 O55 1.287 . S
C62 O56 1.253 1_565 S
O63 Fe45 2.002 1_545 S
O63 C59 1.295 1_545 S
O64 Fe47 1.997 . S
O64 C59 1.235 . S
C65 O48 1.295 . S
C65 O49 1.235 . S
Fe66 O68 1.918 . S
Fe66 O71 1.997 . S
Fe66 O72 2.002 1_655 S
Fe66 O77 1.976 . S
Fe66 O80 1.996 1_556 S
Fe67 O68 1.918 . S
Fe67 O75 1.987 1_655 S
Fe67 O78 1.996 . S
Fe67 O82 1.976 . S
Fe67 O85 2.002 . S
O68 Fe66 1.918 . S
O68 Fe67 1.918 . S
O68 Fe69 1.918 . S
Fe69 O68 1.918 . S
Fe69 O70 2.002 . S
Fe69 O79 1.976 1_556 S
Fe69 O83 1.996 . S
Fe69 O86 1.997 . S
O70 Fe69 2.002 . S
O70 C87 1.295 . S
O71 Fe66 1.997 . S
O71 C87 1.235 . S
O72 Fe66 2.002 1_455 S
O72 C73 1.295 . S
C73 O72 1.295 . S
C73 O75 1.244 . S
C74 O79 1.287 . S
C74 O80 1.255 . S
O75 Fe67 1.987 1_455 S
O75 C73 1.244 . S
C76 O82 1.287 . S
C76 O83 1.255 . S
O77 Fe66 1.976 . S
O77 C84 1.287 . S
O78 Fe67 1.996 . S
O78 C84 1.255 . S
O79 Fe69 1.976 1_554 S
O79 C74 1.287 . S
O80 Fe66 1.996 1_554 S
O80 C74 1.255 . S
C81 O85 1.295 . S
C81 O86 1.235 . S
O82 Fe67 1.976 . S
O82 C76 1.287 . S
O83 Fe69 1.996 . S
O83 C76 1.255 . S
C84 O77 1.287 . S
C84 O78 1.255 . S
O85 Fe67 2.002 . S
O85 C81 1.295 . S
O86 Fe69 1.997 . S
O86 C81 1.235 . S
C87 O70 1.295 . S
C87 O71 1.235 . S
Fe88 O90 1.918 . S
Fe88 O93 1.997 . S
Fe88 O94 2.002 . S
Fe88 O99 1.976 . S
Fe88 O102 1.996 . S
Fe89 O90 1.918 . S
Fe89 O97 1.997 . S
Fe89 O100 1.996 . S
Fe89 O104 1.976 . S
Fe89 O107 2.002 . S
O90 Fe88 1.918 . S
O90 Fe89 1.918 . S
O90 Fe91 1.918 . S
Fe91 O90 1.918 . S
Fe91 O92 2.002 . S
Fe91 O101 1.976 . S
Fe91 O105 1.996 . S
Fe91 O108 1.997 . S
O92 Fe91 2.002 . S
O92 C109 1.295 . S
O93 Fe88 1.997 . S
O93 C109 1.235 . S
O94 Fe88 2.002 . S
O94 C95 1.295 . S
C95 O94 1.295 . S
C95 O97 1.235 . S
C96 O101 1.287 . S
C96 O102 1.255 . S
O97 Fe89 1.997 . S
O97 C95 1.235 . S
C98 O104 1.287 . S
C98 O105 1.255 . S
O99 Fe88 1.976 . S
O99 C106 1.287 . S
O100 Fe89 1.996 . S
O100 C106 1.255 . S
O101 Fe91 1.976 . S
O101 C96 1.287 . S
O102 Fe88 1.996 . S
O102 C96 1.255 . S
C103 O107 1.295 . S
C103 O108 1.235 . S
O104 Fe89 1.976 . S
O104 C98 1.287 . S
O105 Fe91 1.996 . S
O105 C98 1.255 . S
C106 O99 1.287 . S
C106 O100 1.255 . S
O107 Fe89 2.002 . S
O107 C103 1.295 . S
O108 Fe91 1.997 . S
O108 C103 1.235 . S
C109 O92 1.295 . S
C109 O93 1.235 . S
Fe110 O112 1.918 . S
Fe110 O115 1.997 . S
Fe110 O116 2.002 . S
Fe110 O121 1.976 . S
Fe110 O124 1.996 . S
Fe111 O112 1.918 . S
Fe111 O119 1.997 . S
Fe111 O122 1.996 . S
Fe111 O126 1.976 . S
Fe111 O129 2.002 . S
O112 Fe110 1.918 . S
O112 Fe111 1.918 . S
O112 Fe113 1.918 . S
Fe113 O112 1.918 . S
Fe113 O114 2.002 . S
Fe113 O123 1.976 . S
Fe113 O127 1.996 . S
Fe113 O130 1.997 . S
O114 Fe113 2.002 . S
O114 C131 1.295 . S
O115 Fe110 1.997 . S
O115 C131 1.235 . S
O116 Fe110 2.002 . S
O116 C117 1.295 . S
C117 O116 1.295 . S
C117 O119 1.235 . S
C118 O123 1.287 . S
C118 O124 1.255 . S
O119 Fe111 1.997 . S
O119 C117 1.235 . S
C120 O126 1.287 . S
C120 O127 1.255 . S
O121 Fe110 1.976 . S
O121 C128 1.287 . S
O122 Fe111 1.996 . S
O122 C128 1.255 . S
O123 Fe113 1.976 . S
O123 C118 1.287 . S
O124 Fe110 1.996 . S
O124 C118 1.255 . S
C125 O129 1.295 . S
C125 O130 1.235 . S
O126 Fe111 1.976 . S
O126 C120 1.287 . S
O127 Fe113 1.996 . S
O127 C120 1.255 . S
C128 O121 1.287 . S
C128 O122 1.255 . S
O129 Fe111 2.002 . S
O129 C125 1.295 . S
O130 Fe113 1.997 . S
O130 C125 1.235 . S
C131 O114 1.295 . S
C131 O115 1.235 . S
Fe132 O134 1.918 . S
Fe132 O137 1.997 . S
Fe132 O138 2.002 . S
Fe132 O143 1.976 . S
Fe132 O146 1.996 . S
Fe133 O134 1.918 . S
Fe133 O141 1.997 . S
Fe133 O144 1.996 . S
Fe133 O148 1.976 . S
Fe133 O151 2.002 . S
O134 Fe132 1.918 . S
O134 Fe133 1.918 . S
O134 Fe135 1.918 . S
Fe135 O134 1.918 . S
Fe135 O136 2.002 . S
Fe135 O145 1.976 . S
Fe135 O149 1.996 . S
Fe135 O152 1.997 . S
O136 Fe135 2.002 . S
O136 C153 1.295 . S
O137 Fe132 1.997 . S
O137 C153 1.235 . S
O138 Fe132 2.002 . S
O138 C139 1.295 . S
C139 O138 1.295 . S
C139 O141 1.235 . S
C140 O145 1.287 . S
C140 O146 1.255 . S
O141 Fe133 1.997 . S
O141 C139 1.235 . S
C142 O148 1.287 . S
C142 O149 1.255 . S
O143 Fe132 1.976 . S
O143 C150 1.287 . S
O144 Fe133 1.996 . S
O144 C150 1.255 . S
O145 Fe135 1.976 . S
O145 C140 1.287 . S
O146 Fe132 1.996 . S
O146 C140 1.255 . S
C147 O151 1.295 . S
C147 O152 1.235 . S
O148 Fe133 1.976 . S
O148 C142 1.287 . S
O149 Fe135 1.996 . S
O149 C142 1.255 . S
C150 O143 1.287 . S
C150 O144 1.255 . S
O151 Fe133 2.002 . S
O151 C147 1.295 . S
O152 Fe135 1.997 . S
O152 C147 1.235 . S
C153 O136 1.295 . S
C153 O137 1.235 . S
Fe154 O156 1.918 . S
Fe154 O159 1.997 . S
Fe154 O160 2.002 . S
Fe154 O165 1.976 . S
Fe154 O168 1.996 . S
Fe155 O156 1.918 . S
Fe155 O163 1.997 . S
Fe155 O166 1.996 . S
Fe155 O170 1.976 . S
Fe155 O173 2.002 . S
O156 Fe154 1.918 . S
O156 Fe155 1.918 . S
O156 Fe157 1.918 . S
Fe157 O156 1.918 . S
Fe157 O158 2.002 . S
Fe157 O167 1.976 . S
Fe157 O171 1.996 . S
Fe157 O174 1.997 . S
O158 Fe157 2.002 . S
O158 C175 1.295 . S
O159 Fe154 1.997 . S
O159 C175 1.235 . S
O160 Fe154 2.002 . S
O160 C161 1.295 . S
C161 O160 1.295 . S
C161 O163 1.235 . S
C162 O167 1.287 . S
C162 O168 1.255 . S
O163 Fe155 1.997 . S
O163 C161 1.235 . S
C164 O170 1.287 . S
C164 O171 1.255 . S
O165 Fe154 1.976 . S
O165 C172 1.287 . S
O166 Fe155 1.996 . S
O166 C172 1.255 . S
O167 Fe157 1.976 . S
O167 C162 1.287 . S
O168 Fe154 1.996 . S
O168 C162 1.255 . S
C169 O173 1.295 . S
C169 O174 1.235 . S
O170 Fe155 1.976 . S
O170 C164 1.287 . S
O171 Fe157 1.996 . S
O171 C164 1.255 . S
C172 O165 1.287 . S
C172 O166 1.255 . S
O173 Fe155 2.002 . S
O173 C169 1.295 . S
O174 Fe157 1.997 . S
O174 C169 1.235 . S
C175 O158 1.295 . S
C175 O159 1.235 . S
Fe176 O178 1.918 . S
Fe176 O181 1.997 . S
Fe176 O182 2.002 . S
Fe176 O187 1.976 . S
Fe176 O190 1.996 . S
Fe177 O178 1.918 . S
Fe177 O185 1.997 . S
Fe177 O188 1.996 . S
Fe177 O192 1.976 . S
Fe177 O195 2.002 . S
O178 Fe176 1.918 . S
O178 Fe177 1.918 . S
O178 Fe179 1.918 . S
Fe179 O178 1.918 . S
Fe179 O180 2.002 . S
Fe179 O189 1.976 . S
Fe179 O193 1.996 . S
Fe179 O196 1.997 . S
O180 Fe179 2.002 . S
O180 C197 1.295 . S
O181 Fe176 1.997 . S
O181 C197 1.235 . S
O182 Fe176 2.002 . S
O182 C183 1.295 . S
C183 O182 1.295 . S
C183 O185 1.235 . S
C184 O189 1.287 . S
C184 O190 1.255 . S
O185 Fe177 1.997 . S
O185 C183 1.235 . S
C186 O192 1.287 . S
C186 O193 1.255 . S
O187 Fe176 1.976 . S
O187 C194 1.287 . S
O188 Fe177 1.996 . S
O188 C194 1.255 . S
O189 Fe179 1.976 . S
O189 C184 1.287 . S
O190 Fe176 1.996 . S
O190 C184 1.255 . S
C191 O195 1.295 . S
C191 O196 1.235 . S
O192 Fe177 1.976 . S
O192 C186 1.287 . S
O193 Fe179 1.996 . S
O193 C186 1.255 . S
C194 O187 1.287 . S
C194 O188 1.255 . S
O195 Fe177 2.002 . S
O195 C191 1.295 . S
O196 Fe179 1.997 . S
O196 C191 1.235 . S
C197 O180 1.295 . S
C197 O181 1.235 . S
Fe198 O200 1.918 . S
Fe198 O203 1.997 . S
Fe198 O204 2.002 . S
Fe198 O209 1.976 . S
Fe198 O212 1.996 . S
Fe199 O200 1.918 . S
Fe199 O207 1.997 . S
Fe199 O210 1.996 . S
Fe199 O214 1.976 . S
Fe199 O217 2.002 . S
O200 Fe198 1.918 . S
O200 Fe199 1.918 . S
O200 Fe201 1.918 . S
Fe201 O200 1.918 . S
Fe201 O202 2.002 . S
Fe201 O211 1.976 . S
Fe201 O215 1.996 . S
Fe201 O218 1.997 . S
O202 Fe201 2.002 . S
O202 C219 1.295 . S
O203 Fe198 1.997 . S
O203 C219 1.235 . S
O204 Fe198 2.002 . S
O204 C205 1.295 . S
C205 O204 1.295 . S
C205 O207 1.235 . S
C206 O211 1.287 . S
C206 O212 1.255 . S
O207 Fe199 1.997 . S
O207 C205 1.235 . S
C208 O214 1.287 . S
C208 O215 1.255 . S
O209 Fe198 1.976 . S
O209 C216 1.287 . S
O210 Fe199 1.996 . S
O210 C216 1.255 . S
O211 Fe201 1.976 . S
O211 C206 1.287 . S
O212 Fe198 1.996 . S
O212 C206 1.255 . S
C213 O217 1.295 . S
C213 O218 1.235 . S
O214 Fe199 1.976 . S
O214 C208 1.287 . S
O215 Fe201 1.996 . S
O215 C208 1.255 . S
C216 O209 1.287 . S
C216 O210 1.255 . S
O217 Fe199 2.002 . S
O217 C213 1.295 . S
O218 Fe201 1.997 . S
O218 C213 1.235 . S
C219 O202 1.295 . S
C219 O203 1.235 . S
Fe220 O222 1.918 . S
Fe220 O225 1.997 . S
Fe220 O226 2.002 . S
Fe220 O231 1.976 . S
Fe220 O234 1.996 . S
Fe221 O222 1.918 . S
Fe221 O229 1.997 . S
Fe221 O232 1.996 . S
Fe221 O236 1.976 . S
Fe221 O239 2.002 . S
O222 Fe220 1.918 . S
O222 Fe221 1.918 . S
O222 Fe223 1.918 . S
Fe223 O222 1.918 . S
Fe223 O224 2.002 . S
Fe223 O233 1.976 . S
Fe223 O237 1.996 . S
Fe223 O240 1.997 . S
O224 Fe223 2.002 . S
O224 C241 1.295 . S
O225 Fe220 1.997 . S
O225 C241 1.235 . S
O226 Fe220 2.002 . S
O226 C227 1.295 . S
C227 O226 1.295 . S
C227 O229 1.235 . S
C228 O233 1.287 . S
C228 O234 1.255 . S
O229 Fe221 1.997 . S
O229 C227 1.235 . S
C230 O236 1.287 . S
C230 O237 1.255 . S
O231 Fe220 1.976 . S
O231 C238 1.287 . S
O232 Fe221 1.996 . S
O232 C238 1.255 . S
O233 Fe223 1.976 . S
O233 C228 1.287 . S
O234 Fe220 1.996 . S
O234 C228 1.255 . S
C235 O239 1.295 . S
C235 O240 1.235 . S
O236 Fe221 1.976 . S
O236 C230 1.287 . S
O237 Fe223 1.996 . S
O237 C230 1.255 . S
C238 O231 1.287 . S
C238 O232 1.255 . S
O239 Fe221 2.002 . S
O239 C235 1.295 . S
O240 Fe223 1.997 . S
O240 C235 1.235 . S
C241 O224 1.295 . S
C241 O225 1.235 . S
Fe242 O244 1.918 . S
Fe242 O247 1.997 . S
Fe242 O248 2.002 . S
Fe242 O253 1.976 . S
Fe242 O256 1.996 . S
Fe243 O244 1.918 . S
Fe243 O251 1.997 . S
Fe243 O254 1.996 . S
Fe243 O258 1.976 . S
Fe243 O261 2.002 . S
O244 Fe242 1.918 . S
O244 Fe243 1.918 . S
O244 Fe245 1.918 . S
Fe245 O244 1.918 . S
Fe245 O246 2.002 . S
Fe245 O255 1.976 . S
Fe245 O259 1.996 . S
Fe245 O262 1.997 . S
O246 Fe245 2.002 . S
O246 C263 1.295 . S
O247 Fe242 1.997 . S
O247 C263 1.235 . S
O248 Fe242 2.002 . S
O248 C249 1.295 . S
C249 O248 1.295 . S
C249 O251 1.235 . S
C250 O255 1.287 . S
C250 O256 1.255 . S
O251 Fe243 1.997 . S
O251 C249 1.235 . S
C252 O258 1.287 . S
C252 O259 1.255 . S
O253 Fe242 1.976 . S
O253 C260 1.287 . S
O254 Fe243 1.996 . S
O254 C260 1.255 . S
O255 Fe245 1.976 . S
O255 C250 1.287 . S
O256 Fe242 1.996 . S
O256 C250 1.255 . S
C257 O261 1.295 . S
C257 O262 1.235 . S
O258 Fe243 1.976 . S
O258 C252 1.287 . S
O259 Fe245 1.996 . S
O259 C252 1.255 . S
C260 O253 1.287 . S
C260 O254 1.255 . S
O261 Fe243 2.002 . S
O261 C257 1.295 . S
O262 Fe245 1.997 . S
O262 C257 1.235 . S
C263 O246 1.295 . S
C263 O247 1.235 . S
Fe264 O266 1.918 . S
Fe264 O269 1.997 . S
Fe264 O270 2.002 . S
Fe264 O275 1.976 . S
Fe264 O278 1.996 . S
Fe265 O266 1.918 . S
Fe265 O273 1.997 1_565 S
Fe265 O276 1.995 1_565 S
Fe265 O280 1.976 . S
Fe265 O283 2.002 1_565 S
O266 Fe264 1.918 . S
O266 Fe265 1.918 . S
O266 Fe267 1.918 . S
Fe267 O266 1.918 . S
Fe267 O268 2.002 . S
Fe267 O277 1.976 . S
Fe267 O281 1.996 . S
Fe267 O284 1.997 . S
O268 Fe267 2.002 . S
O268 C285 1.295 . S
O269 Fe264 1.997 . S
O269 C285 1.235 . S
O270 Fe264 2.002 . S
O270 C271 1.295 1_565 S
C271 O270 1.295 1_545 S
C271 O273 1.235 . S
C272 O277 1.287 . S
C272 O278 1.255 . S
O273 Fe265 1.997 1_545 S
O273 C271 1.235 . S
C274 O280 1.287 . S
C274 O281 1.255 . S
O275 Fe264 1.976 . S
O275 C282 1.287 . S
O276 Fe265 1.995 1_545 S
O276 C282 1.253 1_545 S
O277 Fe267 1.976 . S
O277 C272 1.287 . S
O278 Fe264 1.996 . S
O278 C272 1.255 . S
C279 O283 1.295 1_565 S
C279 O284 1.235 . S
O280 Fe265 1.976 . S
O280 C274 1.287 . S
O281 Fe267 1.996 . S
O281 C274 1.255 . S
C282 O275 1.287 . S
C282 O276 1.253 1_565 S
O283 Fe265 2.002 1_545 S
O283 C279 1.295 1_545 S
O284 Fe267 1.997 . S
O284 C279 1.235 . S
C285 O268 1.295 . S
C285 O269 1.235 . S
Fe286 O288 1.918 . S
Fe286 O291 1.997 . S
Fe286 O292 2.002 1_655 S
Fe286 O297 1.976 . S
Fe286 O300 1.996 . S
Fe287 O288 1.918 . S
Fe287 O295 1.987 1_655 S
Fe287 O298 1.996 . S
Fe287 O302 1.976 . S
Fe287 O305 2.002 . S
O288 Fe286 1.918 . S
O288 Fe287 1.918 . S
O288 Fe289 1.918 . S
Fe289 O288 1.918 . S
Fe289 O290 2.002 . S
Fe289 O299 1.976 . S
Fe289 O303 1.996 . S
Fe289 O306 1.997 . S
O290 Fe289 2.002 . S
O290 C307 1.295 . S
O291 Fe286 1.997 . S
O291 C307 1.235 . S
O292 Fe286 2.002 1_455 S
O292 C293 1.295 . S
C293 O292 1.295 . S
C293 O295 1.244 . S
C294 O299 1.287 . S
C294 O300 1.255 . S
O295 Fe287 1.987 1_455 S
O295 C293 1.244 . S
C296 O302 1.287 . S
C296 O303 1.255 . S
O297 Fe286 1.976 . S
O297 C304 1.287 . S
O298 Fe287 1.996 . S
O298 C304 1.255 . S
O299 Fe289 1.976 . S
O299 C294 1.287 . S
O300 Fe286 1.996 . S
O300 C294 1.255 . S
C301 O305 1.295 . S
C301 O306 1.235 . S
O302 Fe287 1.976 . S
O302 C296 1.287 . S
O303 Fe289 1.996 . S
O303 C296 1.255 . S
C304 O297 1.287 . S
C304 O298 1.255 . S
O305 Fe287 2.002 . S
O305 C301 1.295 . S
O306 Fe289 1.997 . S
O306 C301 1.235 . S
C307 O290 1.295 . S
C307 O291 1.235 . S
Fe308 O310 1.918 . S
Fe308 O313 1.997 . S
Fe308 O314 2.002 . S
Fe308 O319 1.976 . S
Fe308 O322 1.996 . S
Fe309 O310 1.918 . S
Fe309 O317 1.997 1_545 S
Fe309 O320 1.995 1_545 S
Fe309 O324 1.976 . S
Fe309 O327 2.002 1_545 S
O310 Fe308 1.918 . S
O310 Fe309 1.918 . S
O310 Fe311 1.918 . S
Fe311 O310 1.918 . S
Fe311 O312 2.002 . S
Fe311 O321 1.976 . S
Fe311 O325 1.996 . S
Fe311 O328 1.997 . S
O312 Fe311 2.002 . S
O312 C329 1.295 . S
O313 Fe308 1.997 . S
O313 C329 1.235 . S
O314 Fe308 2.002 . S
O314 C315 1.295 1_545 S
C315 O314 1.295 1_565 S
C315 O317 1.235 . S
C316 O321 1.287 . S
C316 O322 1.255 . S
O317 Fe309 1.997 1_565 S
O317 C315 1.235 . S
C318 O324 1.287 . S
C318 O325 1.255 . S
O319 Fe308 1.976 . S
O319 C326 1.287 . S
O320 Fe309 1.995 1_565 S
O320 C326 1.253 1_565 S
O321 Fe311 1.976 . S
O321 C316 1.287 . S
O322 Fe308 1.996 . S
O322 C316 1.255 . S
C323 O327 1.295 1_545 S
C323 O328 1.235 . S
O324 Fe309 1.976 . S
O324 C318 1.287 . S
O325 Fe311 1.996 . S
O325 C318 1.255 . S
C326 O319 1.287 . S
C326 O320 1.253 1_545 S
O327 Fe309 2.002 1_565 S
O327 C323 1.295 1_565 S
O328 Fe311 1.997 . S
O328 C323 1.235 . S
C329 O312 1.295 . S
C329 O313 1.235 . S
Fe330 O332 1.918 . S
Fe330 O335 1.997 . S
Fe330 O336 2.002 . S
Fe330 O341 1.976 . S
Fe330 O344 1.996 . S
Fe331 O332 1.918 . S
Fe331 O339 1.997 . S
Fe331 O342 1.996 . S
Fe331 O346 1.976 . S
Fe331 O349 2.002 1_455 S
O332 Fe330 1.918 . S
O332 Fe331 1.918 . S
O332 Fe333 1.918 . S
Fe333 O332 1.918 . S
Fe333 O334 2.002 . S
Fe333 O343 1.976 . S
Fe333 O347 1.996 . S
Fe333 O350 1.987 1_455 S
O334 Fe333 2.002 . S
O334 C351 1.295 . S
O335 Fe330 1.997 . S
O335 C351 1.235 . S
O336 Fe330 2.002 . S
O336 C337 1.295 . S
C337 O336 1.295 . S
C337 O339 1.235 . S
C338 O343 1.287 . S
C338 O344 1.255 . S
O339 Fe331 1.997 . S
O339 C337 1.235 . S
C340 O346 1.287 . S
C340 O347 1.255 . S
O341 Fe330 1.976 . S
O341 C348 1.287 . S
O342 Fe331 1.996 . S
O342 C348 1.255 . S
O343 Fe333 1.976 . S
O343 C338 1.287 . S
O344 Fe330 1.996 . S
O344 C338 1.255 . S
C345 O349 1.295 . S
C345 O350 1.244 . S
O346 Fe331 1.976 . S
O346 C340 1.287 . S
O347 Fe333 1.996 . S
O347 C340 1.255 . S
C348 O341 1.287 . S
C348 O342 1.255 . S
O349 Fe331 2.002 1_655 S
O349 C345 1.295 . S
O350 Fe333 1.987 1_655 S
O350 C345 1.244 . S
C351 O334 1.295 . S
C351 O335 1.235 . S
H352 C360 0.950 . S
H353 C365 0.950 . S
H354 C362 0.950 . S
H355 C364 0.950 . S
H356 C366 0.950 1_545 S
H357 C368 0.950 . S
H358 C370 0.950 . S
H359 C371 0.950 . S
C360 H352 0.950 . S
C360 C361 1.386 . S
C360 C362 1.391 . S
C361 C360 1.386 . S
C361 C365 1.393 . S
C362 H354 0.950 . S
C362 C360 1.391 . S
C362 C363 1.400 . S
C363 C362 1.400 . S
C363 C364 1.398 . S
C363 C369 1.491 . S
C364 H355 0.950 . S
C364 C363 1.398 . S
C364 C365 1.391 . S
C365 H353 0.950 . S
C365 C361 1.393 . S
C365 C364 1.391 . S
C366 H356 0.950 1_565 S
C366 C367 1.386 . S
C366 C368 1.391 . S
C367 C366 1.386 . S
C367 C371 1.393 . S
C368 H357 0.950 . S
C368 C366 1.391 . S
C368 C369 1.400 . S
C369 C363 1.491 . S
C369 C368 1.400 . S
C369 C370 1.398 . S
C370 H358 0.950 . S
C370 C369 1.398 . S
C370 C371 1.391 . S
C371 H359 0.950 . S
C371 C367 1.393 . S
C371 C370 1.391 . S
H372 C380 0.950 . S
H373 C385 0.950 . S
H374 C382 0.950 . S
H375 C384 0.950 . S
H376 C386 0.950 1_455 S
H377 C388 0.950 . S
H378 C390 0.950 . S
H379 C391 0.950 . S
C380 H372 0.950 . S
C380 C381 1.386 . S
C380 C382 1.391 . S
C381 C380 1.386 . S
C381 C385 1.393 . S
C382 H374 0.950 . S
C382 C380 1.391 . S
C382 C383 1.400 . S
C383 C382 1.400 . S
C383 C384 1.398 . S
C383 C389 1.491 . S
C384 H375 0.950 . S
C384 C383 1.398 . S
C384 C385 1.391 . S
C385 H373 0.950 . S
C385 C381 1.393 . S
C385 C384 1.391 . S
C386 H376 0.950 1_655 S
C386 C387 1.386 . S
C386 C388 1.391 . S
C387 C386 1.386 . S
C387 C391 1.393 . S
C388 H377 0.950 . S
C388 C386 1.391 . S
C388 C389 1.400 . S
C389 C383 1.491 . S
C389 C388 1.400 . S
C389 C390 1.398 . S
C390 H378 0.950 . S
C390 C389 1.398 . S
C390 C391 1.391 . S
C391 H379 0.950 . S
C391 C387 1.393 . S
C391 C390 1.391 . S
H392 C400 0.950 . S
H393 C405 0.950 . S
H394 C402 0.950 . S
H395 C404 0.950 . S
H396 C406 0.950 . S
H397 C408 0.950 . S
H398 C410 0.950 . S
H399 C411 0.950 . S
C400 H392 0.950 . S
C400 C401 1.386 . S
C400 C402 1.391 . S
C401 C400 1.386 . S
C401 C405 1.393 . S
C402 H394 0.950 . S
C402 C400 1.391 . S
C402 C403 1.400 . S
C403 C402 1.400 . S
C403 C404 1.398 . S
C403 C409 1.491 . S
C404 H395 0.950 . S
C404 C403 1.398 . S
C404 C405 1.391 . S
C405 H393 0.950 . S
C405 C401 1.393 . S
C405 C404 1.391 . S
C406 H396 0.950 . S
C406 C407 1.386 . S
C406 C408 1.391 . S
C407 C406 1.386 . S
C407 C411 1.393 . S
C408 H397 0.950 . S
C408 C406 1.391 . S
C408 C409 1.400 . S
C409 C403 1.491 . S
C409 C408 1.400 . S
C409 C410 1.398 . S
C410 H398 0.950 . S
C410 C409 1.398 . S
C410 C411 1.391 . S
C411 H399 0.950 . S
C411 C407 1.393 . S
C411 C410 1.391 . S
H412 C420 0.950 . S
H413 C425 0.950 1_655 S
H414 C422 0.950 . S
H415 C424 0.950 . S
H416 C426 0.950 . S
H417 C428 0.950 . S
H418 C430 0.950 . S
H419 C431 0.950 . S
C420 H412 0.950 . S
C420 C421 1.386 . S
C420 C422 1.391 . S
C421 C420 1.386 . S
C421 C425 1.393 . S
C422 H414 0.950 . S
C422 C420 1.391 . S
C422 C423 1.400 . S
C423 C422 1.400 . S
C423 C424 1.398 . S
C423 C429 1.491 . S
C424 H415 0.950 . S
C424 C423 1.398 . S
C424 C425 1.391 . S
C425 H413 0.950 1_455 S
C425 C421 1.393 . S
C425 C424 1.391 . S
C426 H416 0.950 . S
C426 C427 1.386 . S
C426 C428 1.391 . S
C427 C426 1.386 . S
C427 C431 1.393 . S
C428 H417 0.950 . S
C428 C426 1.391 . S
C428 C429 1.400 . S
C429 C423 1.491 . S
C429 C428 1.400 . S
C429 C430 1.398 . S
C430 H418 0.950 . S
C430 C429 1.398 . S
C430 C431 1.391 . S
C431 H419 0.950 . S
C431 C427 1.393 . S
C431 C430 1.391 . S
H432 C440 0.950 . S
H433 C445 0.950 . S
H434 C442 0.950 . S
H435 C444 0.950 . S
H436 C446 0.950 . S
H437 C448 0.950 . S
H438 C450 0.950 . S
H439 C451 0.950 . S
C440 H432 0.950 . S
C440 C441 1.386 . S
C440 C442 1.391 . S
C441 C440 1.386 . S
C441 C445 1.393 . S
C442 H434 0.950 . S
C442 C440 1.391 . S
C442 C443 1.400 . S
C443 C442 1.400 . S
C443 C444 1.398 . S
C443 C449 1.491 . S
C444 H435 0.950 . S
C444 C443 1.398 . S
C444 C445 1.391 . S
C445 H433 0.950 . S
C445 C441 1.393 . S
C445 C444 1.391 . S
C446 H436 0.950 . S
C446 C447 1.386 . S
C446 C448 1.391 . S
C447 C446 1.386 . S
C447 C451 1.393 . S
C448 H437 0.950 . S
C448 C446 1.391 . S
C448 C449 1.400 . S
C449 C443 1.491 . S
C449 C448 1.400 . S
C449 C450 1.398 . S
C450 H438 0.950 . S
C450 C449 1.398 . S
C450 C451 1.391 . S
C451 H439 0.950 . S
C451 C447 1.393 . S
C451 C450 1.391 . S
H452 C460 0.950 . S
H453 C465 0.950 . S
H454 C462 0.950 . S
H455 C464 0.950 . S
H456 C466 0.950 . S
H457 C468 0.950 . S
H458 C470 0.950 . S
H459 C471 0.950 . S
C460 H452 0.950 . S
C460 C461 1.386 . S
C460 C462 1.391 . S
C461 C460 1.386 . S
C461 C465 1.393 . S
C462 H454 0.950 . S
C462 C460 1.391 . S
C462 C463 1.400 . S
C463 C462 1.400 . S
C463 C464 1.398 . S
C463 C469 1.491 . S
C464 H455 0.950 . S
C464 C463 1.398 . S
C464 C465 1.391 . S
C465 H453 0.950 . S
C465 C461 1.393 . S
C465 C464 1.391 . S
C466 H456 0.950 . S
C466 C467 1.386 . S
C466 C468 1.391 . S
C467 C466 1.386 . S
C467 C471 1.393 . S
C468 H457 0.950 . S
C468 C466 1.391 . S
C468 C469 1.400 . S
C469 C463 1.491 . S
C469 C468 1.400 . S
C469 C470 1.398 . S
C470 H458 0.950 . S
C470 C469 1.398 . S
C470 C471 1.391 . S
C471 H459 0.950 . S
C471 C467 1.393 . S
C471 C470 1.391 . S
H472 C480 0.950 . S
H473 C485 0.950 . S
H474 C482 0.950 . S
H475 C484 0.950 . S
H476 C486 0.950 . S
H477 C488 0.950 . S
H478 C490 0.950 . S
H479 C491 0.950 . S
C480 H472 0.950 . S
C480 C481 1.386 . S
C480 C482 1.391 . S
C481 C480 1.386 . S
C481 C485 1.393 . S
C482 H474 0.950 . S
C482 C480 1.391 . S
C482 C483 1.400 . S
C483 C482 1.400 . S
C483 C484 1.398 . S
C483 C489 1.491 . S
C484 H475 0.950 . S
C484 C483 1.398 . S
C484 C485 1.391 . S
C485 H473 0.950 . S
C485 C481 1.393 . S
C485 C484 1.391 . S
C486 H476 0.950 . S
C486 C487 1.386 . S
C486 C488 1.391 . S
C487 C486 1.386 . S
C487 C491 1.393 . S
C488 H477 0.950 . S
C488 C486 1.391 . S
C488 C489 1.400 . S
C489 C483 1.491 . S
C489 C488 1.400 . S
C489 C490 1.398 . S
C490 H478 0.950 . S
C490 C489 1.398 . S
C490 C491 1.391 . S
C491 H479 0.950 . S
C491 C487 1.393 . S
C491 C490 1.391 . S
H492 C500 0.950 . S
H493 C505 0.950 . S
H494 C502 0.950 . S
H495 C504 0.950 . S
H496 C506 0.950 . S
H497 C508 0.950 . S
H498 C510 0.950 . S
H499 C511 0.950 . S
C500 H492 0.950 . S
C500 C501 1.386 . S
C500 C502 1.391 . S
C501 C500 1.386 . S
C501 C505 1.393 . S
C502 H494 0.950 . S
C502 C500 1.391 . S
C502 C503 1.400 . S
C503 C502 1.400 . S
C503 C504 1.398 . S
C503 C509 1.491 . S
C504 H495 0.950 . S
C504 C503 1.398 . S
C504 C505 1.391 . S
C505 H493 0.950 . S
C505 C501 1.393 . S
C505 C504 1.391 . S
C506 H496 0.950 . S
C506 C507 1.386 . S
C506 C508 1.391 . S
C507 C506 1.386 . S
C507 C511 1.393 . S
C508 H497 0.950 . S
C508 C506 1.391 . S
C508 C509 1.400 . S
C509 C503 1.491 . S
C509 C508 1.400 . S
C509 C510 1.398 . S
C510 H498 0.950 . S
C510 C509 1.398 . S
C510 C511 1.391 . S
C511 H499 0.950 . S
C511 C507 1.393 . S
C511 C510 1.391 . S
H512 C520 0.950 . S
H513 C525 0.950 . S
H514 C522 0.950 . S
H515 C524 0.950 . S
H516 C526 0.950 . S
H517 C528 0.950 . S
H518 C530 0.950 . S
H519 C531 0.950 . S
C520 H512 0.950 . S
C520 C521 1.386 . S
C520 C522 1.391 . S
C521 C520 1.386 . S
C521 C525 1.393 . S
C522 H514 0.950 . S
C522 C520 1.391 . S
C522 C523 1.400 . S
C523 C522 1.400 . S
C523 C524 1.398 . S
C523 C529 1.491 . S
C524 H515 0.950 . S
C524 C523 1.398 . S
C524 C525 1.391 . S
C525 H513 0.950 . S
C525 C521 1.393 . S
C525 C524 1.391 . S
C526 H516 0.950 . S
C526 C527 1.386 . S
C526 C528 1.391 . S
C527 C526 1.386 . S
C527 C531 1.393 . S
C528 H517 0.950 . S
C528 C526 1.391 . S
C528 C529 1.400 . S
C529 C523 1.491 . S
C529 C528 1.400 . S
C529 C530 1.398 . S
C530 H518 0.950 . S
C530 C529 1.398 . S
C530 C531 1.391 . S
C531 H519 0.950 . S
C531 C527 1.393 . S
C531 C530 1.391 . S
H532 C540 0.950 . S
H533 C545 0.950 . S
H534 C542 0.950 . S
H535 C544 0.950 . S
H536 C546 0.950 . S
H537 C548 0.950 . S
H538 C550 0.950 . S
H539 C551 0.950 . S
C540 H532 0.950 . S
C540 C541 1.386 . S
C540 C542 1.391 . S
C541 C540 1.386 . S
C541 C545 1.393 . S
C542 H534 0.950 . S
C542 C540 1.391 . S
C542 C543 1.400 . S
C543 C542 1.400 . S
C543 C544 1.398 . S
C543 C549 1.491 . S
C544 H535 0.950 . S
C544 C543 1.398 . S
C544 C545 1.391 . S
C545 H533 0.950 . S
C545 C541 1.393 . S
C545 C544 1.391 . S
C546 H536 0.950 . S
C546 C547 1.386 . S
C546 C548 1.391 . S
C547 C546 1.386 . S
C547 C551 1.393 . S
C548 H537 0.950 . S
C548 C546 1.391 . S
C548 C549 1.400 . S
C549 C543 1.491 . S
C549 C548 1.400 . S
C549 C550 1.398 . S
C550 H538 0.950 . S
C550 C549 1.398 . S
C550 C551 1.391 . S
C551 H539 0.950 . S
C551 C547 1.393 . S
C551 C550 1.391 . S
H552 C560 0.950 . S
H553 C565 0.950 . S
H554 C562 0.950 . S
H555 C564 0.950 . S
H556 C566 0.950 . S
H557 C568 0.950 . S
H558 C570 0.950 . S
H559 C571 0.950 . S
C560 H552 0.950 . S
C560 C561 1.386 . S
C560 C562 1.391 . S
C561 C560 1.386 . S
C561 C565 1.393 . S
C562 H554 0.950 . S
C562 C560 1.391 . S
C562 C563 1.400 . S
C563 C562 1.400 . S
C563 C564 1.398 . S
C563 C569 1.491 . S
C564 H555 0.950 . S
C564 C563 1.398 . S
C564 C565 1.391 . S
C565 H553 0.950 . S
C565 C561 1.393 . S
C565 C564 1.391 . S
C566 H556 0.950 . S
C566 C567 1.386 . S
C566 C568 1.391 . S
C567 C566 1.386 . S
C567 C571 1.393 . S
C568 H557 0.950 . S
C568 C566 1.391 . S
C568 C569 1.400 . S
C569 C563 1.491 . S
C569 C568 1.400 . S
C569 C570 1.398 . S
C570 H558 0.950 . S
C570 C569 1.398 . S
C570 C571 1.391 . S
C571 H559 0.950 . S
C571 C567 1.393 . S
C571 C570 1.391 . S
H572 C580 0.950 . S
H573 C585 0.950 . S
H574 C582 0.950 . S
H575 C584 0.950 . S
H576 C586 0.950 . S
H577 C588 0.950 . S
H578 C590 0.950 . S
H579 C591 0.950 . S
C580 H572 0.950 . S
C580 C581 1.386 . S
C580 C582 1.391 . S
C581 C580 1.386 . S
C581 C585 1.393 . S
C582 H574 0.950 . S
C582 C580 1.391 . S
C582 C583 1.400 . S
C583 C582 1.400 . S
C583 C584 1.398 . S
C583 C589 1.491 . S
C584 H575 0.950 . S
C584 C583 1.398 . S
C584 C585 1.391 . S
C585 H573 0.950 . S
C585 C581 1.393 . S
C585 C584 1.391 . S
C586 H576 0.950 . S
C586 C587 1.386 . S
C586 C588 1.391 . S
C587 C586 1.386 . S
C587 C591 1.393 . S
C588 H577 0.950 . S
C588 C586 1.391 . S
C588 C589 1.400 . S
C589 C583 1.491 . S
C589 C588 1.400 . S
C589 C590 1.398 . S
C590 H578 0.950 . S
C590 C589 1.398 . S
C590 C591 1.391 . S
C591 H579 0.950 . S
C591 C587 1.393 . S
C591 C590 1.391 . S
H592 C600 0.950 . S
H593 C605 0.950 . S
H594 C602 0.950 . S
H595 C604 0.950 . S
H596 C606 0.950 . S
H597 C608 0.950 . S
H598 C610 0.950 . S
H599 C611 0.950 . S
C600 H592 0.950 . S
C600 C601 1.386 . S
C600 C602 1.391 . S
C601 C600 1.386 . S
C601 C605 1.393 . S
C602 H594 0.950 . S
C602 C600 1.391 . S
C602 C603 1.400 . S
C603 C602 1.400 . S
C603 C604 1.398 . S
C603 C609 1.491 . S
C604 H595 0.950 . S
C604 C603 1.398 . S
C604 C605 1.391 . S
C605 H593 0.950 . S
C605 C601 1.393 . S
C605 C604 1.391 . S
C606 H596 0.950 . S
C606 C607 1.386 . S
C606 C608 1.391 . S
C607 C606 1.386 . S
C607 C611 1.393 . S
C608 H597 0.950 . S
C608 C606 1.391 . S
C608 C609 1.400 . S
C609 C603 1.491 . S
C609 C608 1.400 . S
C609 C610 1.398 . S
C610 H598 0.950 . S
C610 C609 1.398 . S
C610 C611 1.391 . S
C611 H599 0.950 . S
C611 C607 1.393 . S
C611 C610 1.391 . S
H612 C620 0.950 . S
H613 C625 0.950 . S
H614 C622 0.950 . S
H615 C624 0.950 . S
H616 C626 0.950 . S
H617 C628 0.950 . S
H618 C630 0.950 . S
H619 C631 0.950 1_655 S
C620 H612 0.950 . S
C620 C621 1.386 . S
C620 C622 1.391 . S
C621 C620 1.386 . S
C621 C625 1.393 . S
C622 H614 0.950 . S
C622 C620 1.391 . S
C622 C623 1.400 . S
C623 C622 1.400 . S
C623 C624 1.398 . S
C623 C629 1.491 . S
C624 H615 0.950 . S
C624 C623 1.398 . S
C624 C625 1.391 . S
C625 H613 0.950 . S
C625 C621 1.393 . S
C625 C624 1.391 . S
C626 H616 0.950 . S
C626 C627 1.386 . S
C626 C628 1.391 . S
C627 C626 1.386 . S
C627 C631 1.393 . S
C628 H617 0.950 . S
C628 C626 1.391 . S
C628 C629 1.400 . S
C629 C623 1.491 . S
C629 C628 1.400 . S
C629 C630 1.398 . S
C630 H618 0.950 . S
C630 C629 1.398 . S
C630 C631 1.391 . S
C631 H619 0.950 1_455 S
C631 C627 1.393 . S
C631 C630 1.391 . S
H632 C640 0.950 . S
H633 C645 0.950 . S
H634 C642 0.950 . S
H635 C644 0.950 . S
H636 C646 0.950 . S
H637 C648 0.950 . S
H638 C650 0.950 . S
H639 C651 0.950 1_545 S
C640 H632 0.950 . S
C640 C641 1.386 . S
C640 C642 1.391 . S
C641 C640 1.386 . S
C641 C645 1.393 . S
C642 H634 0.950 . S
C642 C640 1.391 . S
C642 C643 1.400 . S
C643 C642 1.400 . S
C643 C644 1.398 . S
C643 C649 1.491 . S
C644 H635 0.950 . S
C644 C643 1.398 . S
C644 C645 1.391 . S
C645 H633 0.950 . S
C645 C641 1.393 . S
C645 C644 1.391 . S
C646 H636 0.950 . S
C646 C647 1.386 . S
C646 C648 1.391 . S
C647 C646 1.386 . S
C647 C651 1.393 . S
C648 H637 0.950 . S
C648 C646 1.391 . S
C648 C649 1.400 . S
C649 C643 1.491 . S
C649 C648 1.400 . S
C649 C650 1.398 . S
C650 H638 0.950 . S
C650 C649 1.398 . S
C650 C651 1.391 . S
C651 H639 0.950 1_565 S
C651 C647 1.393 . S
C651 C650 1.391 . S
H652 C660 0.950 . S
H653 C665 0.950 . S
H654 C662 0.950 . S
H655 C664 0.950 . S
H656 C666 0.950 1_455 S
H657 C668 0.950 . S
H658 C670 0.950 . S
H659 C671 0.950 . S
C660 H652 0.950 . S
C660 C661 1.386 . S
C660 C662 1.391 . S
C661 C660 1.386 . S
C661 C665 1.393 . S
C662 H654 0.950 . S
C662 C660 1.391 . S
C662 C663 1.400 . S
C663 C662 1.400 . S
C663 C664 1.398 . S
C663 C669 1.491 . S
C664 H655 0.950 . S
C664 C663 1.398 . S
C664 C665 1.391 . S
C665 H653 0.950 . S
C665 C661 1.393 . S
C665 C664 1.391 . S
C666 H656 0.950 1_655 S
C666 C667 1.386 . S
C666 C668 1.391 . S
C667 C666 1.386 . S
C667 C671 1.393 . S
C668 H657 0.950 . S
C668 C666 1.391 . S
C668 C669 1.400 . S
C669 C663 1.491 . S
C669 C668 1.400 . S
C669 C670 1.398 . S
C670 H658 0.950 . S
C670 C669 1.398 . S
C670 C671 1.391 . S
C671 H659 0.950 . S
C671 C667 1.393 . S
C671 C670 1.391 . S
H672 C680 0.950 . S
H673 C685 0.950 . S
H674 C682 0.950 . S
H675 C684 0.950 . S
H676 C686 0.950 . S
H677 C688 0.950 . S
H678 C690 0.950 . S
H679 C691 0.950 . S
C680 H672 0.950 . S
C680 C681 1.386 . S
C680 C682 1.391 . S
C681 C680 1.386 . S
C681 C685 1.393 . S
C682 H674 0.950 . S
C682 C680 1.391 . S
C682 C683 1.400 . S
C683 C682 1.400 . S
C683 C684 1.398 . S
C683 C689 1.491 . S
C684 H675 0.950 . S
C684 C683 1.398 . S
C684 C685 1.391 . S
C685 H673 0.950 . S
C685 C681 1.393 . S
C685 C684 1.391 . S
C686 H676 0.950 . S
C686 C687 1.386 . S
C686 C688 1.391 . S
C687 C686 1.386 . S
C687 C691 1.393 . S
C688 H677 0.950 . S
C688 C686 1.391 . S
C688 C689 1.400 . S
C689 C683 1.491 . S
C689 C688 1.400 . S
C689 C690 1.398 . S
C690 H678 0.950 . S
C690 C689 1.398 . S
C690 C691 1.391 . S
C691 H679 0.950 . S
C691 C687 1.393 . S
C691 C690 1.391 . S
H692 C700 0.950 . S
H693 C705 0.950 . S
H694 C702 0.950 . S
H695 C704 0.950 . S
H696 C706 0.950 . S
H697 C708 0.950 . S
H698 C710 0.950 . S
H699 C711 0.950 . S
C700 H692 0.950 . S
C700 C701 1.386 . S
C700 C702 1.391 . S
C701 C700 1.386 . S
C701 C705 1.393 . S
C702 H694 0.950 . S
C702 C700 1.391 . S
C702 C703 1.400 . S
C703 C702 1.400 . S
C703 C704 1.398 . S
C703 C709 1.491 . S
C704 H695 0.950 . S
C704 C703 1.398 . S
C704 C705 1.391 . S
C705 H693 0.950 . S
C705 C701 1.393 . S
C705 C704 1.391 . S
C706 H696 0.950 . S
C706 C707 1.386 . S
C706 C708 1.391 . S
C707 C706 1.386 . S
C707 C711 1.393 . S
C708 H697 0.950 . S
C708 C706 1.391 . S
C708 C709 1.400 . S
C709 C703 1.491 . S
C709 C708 1.400 . S
C709 C710 1.398 . S
C710 H698 0.950 . S
C710 C709 1.398 . S
C710 C711 1.391 . S
C711 H699 0.950 . S
C711 C707 1.393 . S
C711 C710 1.391 . S
H712 C720 0.950 . S
H713 C725 0.950 . S
H714 C722 0.950 . S
H715 C724 0.950 . S
H716 C726 0.950 . S
H717 C728 0.950 . S
H718 C730 0.950 . S
H719 C731 0.950 . S
C720 H712 0.950 . S
C720 C721 1.386 . S
C720 C722 1.391 . S
C721 C720 1.386 . S
C721 C725 1.393 . S
C722 H714 0.950 . S
C722 C720 1.391 . S
C722 C723 1.400 . S
C723 C722 1.400 . S
C723 C724 1.398 . S
C723 C729 1.491 . S
C724 H715 0.950 . S
C724 C723 1.398 . S
C724 C725 1.391 . S
C725 H713 0.950 . S
C725 C721 1.393 . S
C725 C724 1.391 . S
C726 H716 0.950 . S
C726 C727 1.386 . S
C726 C728 1.391 . S
C727 C726 1.386 . S
C727 C731 1.393 . S
C728 H717 0.950 . S
C728 C726 1.391 . S
C728 C729 1.400 . S
C729 C723 1.491 . S
C729 C728 1.400 . S
C729 C730 1.398 . S
C730 H718 0.950 . S
C730 C729 1.398 . S
C730 C731 1.391 . S
C731 H719 0.950 . S
C731 C727 1.393 . S
C731 C730 1.391 . S
H732 C740 0.950 . S
H733 C745 0.950 . S
H734 C742 0.950 . S
H735 C744 0.950 . S
H736 C746 0.950 . S
H737 C748 0.950 . S
H738 C750 0.950 . S
H739 C751 0.950 . S
C740 H732 0.950 . S
C740 C741 1.386 . S
C740 C742 1.391 . S
C741 C740 1.386 . S
C741 C745 1.393 . S
C742 H734 0.950 . S
C742 C740 1.391 . S
C742 C743 1.400 . S
C743 C742 1.400 . S
C743 C744 1.398 . S
C743 C749 1.491 . S
C744 H735 0.950 . S
C744 C743 1.398 . S
C744 C745 1.391 . S
C745 H733 0.950 . S
C745 C741 1.393 . S
C745 C744 1.391 . S
C746 H736 0.950 . S
C746 C747 1.386 . S
C746 C748 1.391 . S
C747 C746 1.386 . S
C747 C751 1.393 . S
C748 H737 0.950 . S
C748 C746 1.391 . S
C748 C749 1.400 . S
C749 C743 1.491 . S
C749 C748 1.400 . S
C749 C750 1.398 . S
C750 H738 0.950 . S
C750 C749 1.398 . S
C750 C751 1.391 . S
C751 H739 0.950 . S
C751 C747 1.393 . S
C751 C750 1.391 . S
H752 C760 0.950 . S
H753 C765 0.950 . S
H754 C762 0.950 . S
H755 C764 0.950 . S
H756 C766 0.950 . S
H757 C768 0.950 . S
H758 C770 0.950 . S
H759 C771 0.950 . S
C760 H752 0.950 . S
C760 C761 1.386 . S
C760 C762 1.391 . S
C761 C760 1.386 . S
C761 C765 1.393 . S
C762 H754 0.950 . S
C762 C760 1.391 . S
C762 C763 1.400 . S
C763 C762 1.400 . S
C763 C764 1.398 . S
C763 C769 1.491 . S
C764 H755 0.950 . S
C764 C763 1.398 . S
C764 C765 1.391 . S
C765 H753 0.950 . S
C765 C761 1.393 . S
C765 C764 1.391 . S
C766 H756 0.950 . S
C766 C767 1.386 . S
C766 C768 1.391 . S
C767 C766 1.386 . S
C767 C771 1.393 . S
C768 H757 0.950 . S
C768 C766 1.391 . S
C768 C769 1.400 . S
C769 C763 1.491 . S
C769 C768 1.400 . S
C769 C770 1.398 . S
C770 H758 0.950 . S
C770 C769 1.398 . S
C770 C771 1.391 . S
C771 H759 0.950 . S
C771 C767 1.393 . S
C771 C770 1.391 . S
H772 C780 0.950 . S
H773 C785 0.950 . S
H774 C782 0.950 . S
H775 C784 0.950 . S
H776 C786 0.950 . S
H777 C788 0.950 . S
H778 C790 0.950 . S
H779 C791 0.950 . S
C780 H772 0.950 . S
C780 C781 1.386 . S
C780 C782 1.391 . S
C781 C780 1.386 . S
C781 C785 1.393 . S
C782 H774 0.950 . S
C782 C780 1.391 . S
C782 C783 1.400 . S
C783 C782 1.400 . S
C783 C784 1.398 . S
C783 C789 1.491 . S
C784 H775 0.950 . S
C784 C783 1.398 . S
C784 C785 1.391 . S
C785 H773 0.950 . S
C785 C781 1.393 . S
C785 C784 1.391 . S
C786 H776 0.950 . S
C786 C787 1.386 . S
C786 C788 1.391 . S
C787 C786 1.386 . S
C787 C791 1.393 . S
C788 H777 0.950 . S
C788 C786 1.391 . S
C788 C789 1.400 . S
C789 C783 1.491 . S
C789 C788 1.400 . S
C789 C790 1.398 . S
C790 H778 0.950 . S
C790 C789 1.398 . S
C790 C791 1.391 . S
C791 H779 0.950 . S
C791 C787 1.393 . S
C791 C790 1.391 . S
H792 C800 0.950 . S
H793 C805 0.950 . S
H794 C802 0.950 . S
H795 C804 0.950 . S
H796 C806 0.950 . S
H797 C808 0.950 . S
H798 C810 0.950 . S
H799 C811 0.950 . S
C800 H792 0.950 . S
C800 C801 1.386 . S
C800 C802 1.391 . S
C801 C800 1.386 . S
C801 C805 1.393 . S
C802 H794 0.950 . S
C802 C800 1.391 . S
C802 C803 1.400 . S
C803 C802 1.400 . S
C803 C804 1.398 . S
C803 C809 1.491 . S
C804 H795 0.950 . S
C804 C803 1.398 . S
C804 C805 1.391 . S
C805 H793 0.950 . S
C805 C801 1.393 . S
C805 C804 1.391 . S
C806 H796 0.950 . S
C806 C807 1.386 . S
C806 C808 1.391 . S
C807 C806 1.386 . S
C807 C811 1.393 . S
C808 H797 0.950 . S
C808 C806 1.391 . S
C808 C809 1.400 . S
C809 C803 1.491 . S
C809 C808 1.400 . S
C809 C810 1.398 . S
C810 H798 0.950 . S
C810 C809 1.398 . S
C810 C811 1.391 . S
C811 H799 0.950 . S
C811 C807 1.393 . S
C811 C810 1.391 . S
H812 C820 0.950 . S
H813 C825 0.950 . S
H814 C822 0.950 . S
H815 C824 0.950 . S
H816 C826 0.950 . S
H817 C828 0.950 . S
H818 C830 0.950 . S
H819 C831 0.950 . S
C820 H812 0.950 . S
C820 C821 1.386 . S
C820 C822 1.391 . S
C821 C820 1.386 . S
C821 C825 1.393 . S
C822 H814 0.950 . S
C822 C820 1.391 . S
C822 C823 1.400 . S
C823 C822 1.400 . S
C823 C824 1.398 . S
C823 C829 1.491 . S
C824 H815 0.950 . S
C824 C823 1.398 . S
C824 C825 1.391 . S
C825 H813 0.950 . S
C825 C821 1.393 . S
C825 C824 1.391 . S
C826 H816 0.950 . S
C826 C827 1.386 . S
C826 C828 1.391 . S
C827 C826 1.386 . S
C827 C831 1.393 . S
C828 H817 0.950 . S
C828 C826 1.391 . S
C828 C829 1.400 . S
C829 C823 1.491 . S
C829 C828 1.400 . S
C829 C830 1.398 . S
C830 H818 0.950 . S
C830 C829 1.398 . S
C830 C831 1.391 . S
C831 H819 0.950 . S
C831 C827 1.393 . S
C831 C830 1.391 . S
H832 C840 0.950 . S
H833 C845 0.950 . S
H834 C842 0.950 . S
H835 C844 0.950 . S
H836 C846 0.950 . S
H837 C848 0.950 . S
H838 C850 0.950 . S
H839 C851 0.950 . S
C840 H832 0.950 . S
C840 C841 1.386 . S
C840 C842 1.391 . S
C841 C840 1.386 . S
C841 C845 1.393 . S
C842 H834 0.950 . S
C842 C840 1.391 . S
C842 C843 1.400 . S
C843 C842 1.400 . S
C843 C844 1.398 . S
C843 C849 1.491 . S
C844 H835 0.950 . S
C844 C843 1.398 . S
C844 C845 1.391 . S
C845 H833 0.950 . S
C845 C841 1.393 . S
C845 C844 1.391 . S
C846 H836 0.950 . S
C846 C847 1.386 . S
C846 C848 1.391 . S
C847 C846 1.386 . S
C847 C851 1.393 . S
C848 H837 0.950 . S
C848 C846 1.391 . S
C848 C849 1.400 . S
C849 C843 1.491 . S
C849 C848 1.400 . S
C849 C850 1.398 . S
C850 H838 0.950 . S
C850 C849 1.398 . S
C850 C851 1.391 . S
C851 H839 0.950 . S
C851 C847 1.393 . S
C851 C850 1.391 . S
H852 C860 0.950 . S
H853 C865 0.950 . S
H854 C862 0.950 . S
H855 C864 0.950 . S
H856 C866 0.935 1_455 S
H857 C868 0.950 . S
H858 C870 0.950 . S
H859 C871 0.950 . S
C860 H852 0.950 . S
C860 C861 1.386 . S
C860 C862 1.391 . S
C861 C860 1.386 . S
C861 C865 1.393 . S
C862 H854 0.950 . S
C862 C860 1.391 . S
C862 C863 1.400 . S
C863 C862 1.400 . S
C863 C864 1.398 . S
C863 C869 1.491 . S
C864 H855 0.950 . S
C864 C863 1.398 . S
C864 C865 1.391 . S
C865 H853 0.950 . S
C865 C861 1.393 . S
C865 C864 1.391 . S
C866 H856 0.935 1_655 S
C866 C867 1.386 . S
C866 C868 1.391 . S
C867 C866 1.386 . S
C867 C871 1.393 . S
C868 H857 0.950 . S
C868 C866 1.391 . S
C868 C869 1.400 . S
C869 C863 1.491 . S
C869 C868 1.400 . S
C869 C870 1.398 . S
C870 H858 0.950 . S
C870 C869 1.398 . S
C870 C871 1.391 . S
C871 H859 0.950 . S
C871 C867 1.393 . S
C871 C870 1.391 . S
H872 C880 0.950 . S
H873 C885 0.950 . S
H874 C882 0.950 . S
H875 C884 0.950 . S
H876 C886 0.950 . S
H877 C888 0.950 . S
H878 C890 0.950 . S
H879 C891 0.950 . S
C880 H872 0.950 . S
C880 C881 1.386 . S
C880 C882 1.391 . S
C881 C880 1.386 . S
C881 C885 1.393 . S
C882 H874 0.950 . S
C882 C880 1.391 . S
C882 C883 1.400 . S
C883 C882 1.400 . S
C883 C884 1.398 . S
C883 C889 1.491 . S
C884 H875 0.950 . S
C884 C883 1.398 . S
C884 C885 1.391 . S
C885 H873 0.950 . S
C885 C881 1.393 . S
C885 C884 1.391 . S
C886 H876 0.950 . S
C886 C887 1.386 . S
C886 C888 1.391 . S
C887 C886 1.386 . S
C887 C891 1.393 . S
C888 H877 0.950 . S
C888 C886 1.391 . S
C888 C889 1.400 . S
C889 C883 1.491 . S
C889 C888 1.400 . S
C889 C890 1.398 . S
C890 H878 0.950 . S
C890 C889 1.398 . S
C890 C891 1.391 . S
C891 H879 0.950 . S
C891 C887 1.393 . S
C891 C890 1.391 . S
H892 C900 0.938 1_655 S
H893 C905 0.950 . S
H894 C902 0.950 . S
H895 C904 0.950 . S
H896 C906 0.950 . S
H897 C908 0.950 . S
H898 C910 0.950 . S
H899 C911 0.950 . S
C900 H892 0.938 1_455 S
C900 C901 1.386 . S
C900 C902 1.391 . S
C901 C900 1.386 . S
C901 C905 1.393 . S
C902 H894 0.950 . S
C902 C900 1.391 . S
C902 C903 1.400 . S
C903 C902 1.400 . S
C903 C904 1.398 . S
C903 C909 1.491 . S
C904 H895 0.950 . S
C904 C903 1.398 . S
C904 C905 1.391 . S
C905 H893 0.950 . S
C905 C901 1.393 . S
C905 C904 1.391 . S
C906 H896 0.950 . S
C906 C907 1.386 . S
C906 C908 1.391 . S
C907 C906 1.386 . S
C907 C911 1.393 . S
C908 H897 0.950 . S
C908 C906 1.391 . S
C908 C909 1.400 . S
C909 C903 1.491 . S
C909 C908 1.400 . S
C909 C910 1.398 . S
C910 H898 0.950 . S
C910 C909 1.398 . S
C910 C911 1.391 . S
C911 H899 0.950 . S
C911 C907 1.393 . S
C911 C910 1.391 . S
H912 C920 0.950 . S
H913 C925 0.950 . S
H914 C922 0.950 1_554 S
H915 C924 0.950 . S
H916 C926 0.950 . S
H917 C928 0.950 . S
H918 C930 0.950 . S
H919 C931 0.950 . S
C920 H912 0.950 . S
C920 C921 1.386 . S
C920 C922 1.391 . S
C921 C920 1.386 . S
C921 C925 1.393 . S
C922 H914 0.950 1_556 S
C922 C920 1.391 . S
C922 C923 1.400 . S
C923 C922 1.400 . S
C923 C924 1.398 . S
C923 C929 1.491 1_556 S
C924 H915 0.950 . S
C924 C923 1.398 . S
C924 C925 1.391 . S
C925 H913 0.950 . S
C925 C921 1.393 . S
C925 C924 1.391 . S
C926 H916 0.950 . S
C926 C927 1.386 . S
C926 C928 1.391 . S
C927 C926 1.386 . S
C927 C931 1.393 . S
C928 H917 0.950 . S
C928 C926 1.391 . S
C928 C929 1.400 . S
C929 C923 1.491 1_554 S
C929 C928 1.400 . S
C929 C930 1.398 . S
C930 H918 0.950 . S
C930 C929 1.398 . S
C930 C931 1.391 . S
C931 H919 0.950 . S
C931 C927 1.393 . S
C931 C930 1.391 . S
H932 C940 0.950 . S
H933 C945 0.950 . S
H934 C942 0.944 1_556 S
H935 C944 0.950 . S
H936 C946 0.950 . S
H937 C948 0.950 . S
H938 C950 0.950 . S
H939 C951 0.950 . S
C940 H932 0.950 . S
C940 C941 1.386 . S
C940 C942 1.391 . S
C941 C940 1.386 . S
C941 C945 1.393 . S
C942 H934 0.944 1_554 S
C942 C940 1.391 . S
C942 C943 1.400 . S
C943 C942 1.400 . S
C943 C944 1.398 . S
C943 C949 1.491 1_554 S
C944 H935 0.950 . S
C944 C943 1.398 . S
C944 C945 1.391 . S
C945 H933 0.950 . S
C945 C941 1.393 . S
C945 C944 1.391 . S
C946 H936 0.950 . S
C946 C947 1.386 . S
C946 C948 1.391 . S
C947 C946 1.386 . S
C947 C951 1.393 . S
C948 H937 0.950 . S
C948 C946 1.391 . S
C948 C949 1.400 . S
C949 C943 1.491 1_556 S
C949 C948 1.400 . S
C949 C950 1.398 . S
C950 H938 0.950 . S
C950 C949 1.398 . S
C950 C951 1.391 . S
C951 H939 0.950 . S
C951 C947 1.393 . S
C951 C950 1.391 . S
H952 C960 0.950 . S
H953 C965 0.950 . S
H954 C962 0.950 1_554 S
H955 C964 0.950 . S
H956 C966 0.950 . S
H957 C968 0.950 . S
H958 C970 0.950 . S
H959 C971 0.950 . S
C960 H952 0.950 . S
C960 C961 1.386 . S
C960 C962 1.391 . S
C961 C960 1.386 . S
C961 C965 1.393 . S
C962 H954 0.950 1_556 S
C962 C960 1.391 . S
C962 C963 1.400 . S
C963 C962 1.400 . S
C963 C964 1.398 . S
C963 C969 1.491 1_556 S
C964 H955 0.950 . S
C964 C963 1.398 . S
C964 C965 1.391 . S
C965 H953 0.950 . S
C965 C961 1.393 . S
C965 C964 1.391 . S
C966 H956 0.950 . S
C966 C967 1.386 . S
C966 C968 1.391 . S
C967 C966 1.386 . S
C967 C971 1.393 . S
C968 H957 0.950 . S
C968 C966 1.391 . S
C968 C969 1.400 . S
C969 C963 1.491 1_554 S
C969 C968 1.400 . S
C969 C970 1.398 . S
C970 H958 0.950 . S
C970 C969 1.398 . S
C970 C971 1.391 . S
C971 H959 0.950 . S
C971 C967 1.393 . S
C971 C970 1.391 . S
H972 C980 0.950 . S
H973 C985 0.950 . S
H974 C982 0.950 . S
H975 C984 0.950 . S
H976 C986 0.950 . S
H977 C988 0.950 . S
H978 C990 0.950 1_556 S
H979 C991 0.950 . S
C980 H972 0.950 . S
C980 C981 1.386 . S
C980 C982 1.391 . S
C981 C980 1.386 . S
C981 C985 1.393 . S
C982 H974 0.950 . S
C982 C980 1.391 . S
C982 C983 1.400 . S
C983 C982 1.400 . S
C983 C984 1.398 . S
C983 C989 1.491 1_556 S
C984 H975 0.950 . S
C984 C983 1.398 . S
C984 C985 1.391 . S
C985 H973 0.950 . S
C985 C981 1.393 . S
C985 C984 1.391 . S
C986 H976 0.950 . S
C986 C987 1.386 . S
C986 C988 1.391 . S
C987 C986 1.386 . S
C987 C991 1.393 . S
C988 H977 0.950 . S
C988 C986 1.391 . S
C988 C989 1.400 . S
C989 C983 1.491 1_554 S
C989 C988 1.400 . S
C989 C990 1.398 . S
C990 H978 0.950 1_554 S
C990 C989 1.398 . S
C990 C991 1.391 . S
C991 H979 0.950 . S
C991 C987 1.393 . S
C991 C990 1.391 . S
H992 C1000 0.950 . S
H993 C1005 0.950 . S
H994 C1002 0.950 . S
H995 C1004 0.950 . S
H996 C1006 0.950 . S
H997 C1008 0.950 . S
H998 C1010 0.950 . S
H999 C1011 0.950 . S
C1000 H992 0.950 . S
C1000 C1001 1.386 . S
C1000 C1002 1.391 . S
C1001 C1000 1.386 . S
C1001 C1005 1.393 . S
C1002 H994 0.950 . S
C1002 C1000 1.391 . S
C1002 C1003 1.400 . S
C1003 C1002 1.400 . S
C1003 C1004 1.398 . S
C1003 C1009 1.491 . S
C1004 H995 0.950 . S
C1004 C1003 1.398 . S
C1004 C1005 1.391 . S
C1005 H993 0.950 . S
C1005 C1001 1.393 . S
C1005 C1004 1.391 . S
C1006 H996 0.950 . S
C1006 C1007 1.386 . S
C1006 C1008 1.391 . S
C1007 C1006 1.386 . S
C1007 C1011 1.393 . S
C1008 H997 0.950 . S
C1008 C1006 1.391 . S
C1008 C1009 1.400 . S
C1009 C1003 1.491 . S
C1009 C1008 1.400 . S
C1009 C1010 1.398 . S
C1010 H998 0.950 . S
C1010 C1009 1.398 . S
C1010 C1011 1.391 . S
C1011 H999 0.950 . S
C1011 C1007 1.393 . S
C1011 C1010 1.391 . S
H1012 C1020 0.950 . S
H1013 C1025 0.950 . S
H1014 C1022 0.950 . S
H1015 C1024 0.950 . S
H1016 C1026 0.950 . S
H1017 C1028 0.950 . S
H1018 C1030 0.950 . S
H1019 C1031 0.950 . S
C1020 H1012 0.950 . S
C1020 C1021 1.386 . S
C1020 C1022 1.391 . S
C1021 C1020 1.386 . S
C1021 C1025 1.393 . S
C1022 H1014 0.950 . S
C1022 C1020 1.391 . S
C1022 C1023 1.400 . S
C1023 C1022 1.400 . S
C1023 C1024 1.398 . S
C1023 C1029 1.491 . S
C1024 H1015 0.950 . S
C1024 C1023 1.398 . S
C1024 C1025 1.391 . S
C1025 H1013 0.950 . S
C1025 C1021 1.393 . S
C1025 C1024 1.391 . S
C1026 H1016 0.950 . S
C1026 C1027 1.386 . S
C1026 C1028 1.391 . S
C1027 C1026 1.386 . S
C1027 C1031 1.393 . S
C1028 H1017 0.950 . S
C1028 C1026 1.391 . S
C1028 C1029 1.400 . S
C1029 C1023 1.491 . S
C1029 C1028 1.400 . S
C1029 C1030 1.398 . S
C1030 H1018 0.950 . S
C1030 C1029 1.398 . S
C1030 C1031 1.391 . S
C1031 H1019 0.950 . S
C1031 C1027 1.393 . S
C1031 C1030 1.391 . S
H1032 C1040 0.950 . S
H1033 C1045 0.950 . S
H1034 C1042 0.950 . S
H1035 C1044 0.950 . S
H1036 C1046 0.950 . S
H1037 C1048 0.950 . S
H1038 C1050 0.950 . S
H1039 C1051 0.950 . S
C1040 H1032 0.950 . S
C1040 C1041 1.386 . S
C1040 C1042 1.391 . S
C1041 C1040 1.386 . S
C1041 C1045 1.393 . S
C1042 H1034 0.950 . S
C1042 C1040 1.391 . S
C1042 C1043 1.400 . S
C1043 C1042 1.400 . S
C1043 C1044 1.398 . S
C1043 C1049 1.491 . S
C1044 H1035 0.950 . S
C1044 C1043 1.398 . S
C1044 C1045 1.391 . S
C1045 H1033 0.950 . S
C1045 C1041 1.393 . S
C1045 C1044 1.391 . S
C1046 H1036 0.950 . S
C1046 C1047 1.386 . S
C1046 C1048 1.391 . S
C1047 C1046 1.386 . S
C1047 C1051 1.393 . S
C1048 H1037 0.950 . S
C1048 C1046 1.391 . S
C1048 C1049 1.400 . S
C1049 C1043 1.491 . S
C1049 C1048 1.400 . S
C1049 C1050 1.398 . S
C1050 H1038 0.950 . S
C1050 C1049 1.398 . S
C1050 C1051 1.391 . S
C1051 H1039 0.950 . S
C1051 C1047 1.393 . S
C1051 C1050 1.391 . S
H1052 C1060 0.950 . S
H1053 C1065 0.950 . S
H1054 C1062 0.950 . S
H1055 C1064 0.950 . S
H1056 C1066 0.950 . S
H1057 C1068 0.950 . S
H1058 C1070 0.950 . S
H1059 C1071 0.950 . S
C1060 H1052 0.950 . S
C1060 C1061 1.386 . S
C1060 C1062 1.391 . S
C1061 C1060 1.386 . S
C1061 C1065 1.393 . S
C1062 H1054 0.950 . S
C1062 C1060 1.391 . S
C1062 C1063 1.400 . S
C1063 C1062 1.400 . S
C1063 C1064 1.398 . S
C1063 C1069 1.491 . S
C1064 H1055 0.950 . S
C1064 C1063 1.398 . S
C1064 C1065 1.391 . S
C1065 H1053 0.950 . S
C1065 C1061 1.393 . S
C1065 C1064 1.391 . S
C1066 H1056 0.950 . S
C1066 C1067 1.386 . S
C1066 C1068 1.391 . S
C1067 C1066 1.386 . S
C1067 C1071 1.393 . S
C1068 H1057 0.950 . S
C1068 C1066 1.391 . S
C1068 C1069 1.400 . S
C1069 C1063 1.491 . S
C1069 C1068 1.400 . S
C1069 C1070 1.398 . S
C1070 H1058 0.950 . S
C1070 C1069 1.398 . S
C1070 C1071 1.391 . S
C1071 H1059 0.950 . S
C1071 C1067 1.393 . S
C1071 C1070 1.391 . S
H1072 C1080 0.950 . S
H1073 C1085 0.950 . S
H1074 C1082 0.950 . S
H1075 C1084 0.950 . S
H1076 C1086 0.950 . S
H1077 C1088 0.950 . S
H1078 C1090 0.950 . S
H1079 C1091 0.950 . S
C1080 H1072 0.950 . S
C1080 C1081 1.386 . S
C1080 C1082 1.391 . S
C1081 C1080 1.386 . S
C1081 C1085 1.393 . S
C1082 H1074 0.950 . S
C1082 C1080 1.391 . S
C1082 C1083 1.400 . S
C1083 C1082 1.400 . S
C1083 C1084 1.398 . S
C1083 C1089 1.491 . S
C1084 H1075 0.950 . S
C1084 C1083 1.398 . S
C1084 C1085 1.391 . S
C1085 H1073 0.950 . S
C1085 C1081 1.393 . S
C1085 C1084 1.391 . S
C1086 H1076 0.950 . S
C1086 C1087 1.386 . S
C1086 C1088 1.391 . S
C1087 C1086 1.386 . S
C1087 C1091 1.393 . S
C1088 H1077 0.950 . S
C1088 C1086 1.391 . S
C1088 C1089 1.400 . S
C1089 C1083 1.491 . S
C1089 C1088 1.400 . S
C1089 C1090 1.398 . S
C1090 H1078 0.950 . S
C1090 C1089 1.398 . S
C1090 C1091 1.391 . S
C1091 H1079 0.950 . S
C1091 C1087 1.393 . S
C1091 C1090 1.391 . S
H1092 C1100 0.950 . S
H1093 C1105 0.950 . S
H1094 C1102 0.950 . S
H1095 C1104 0.950 . S
H1096 C1106 0.950 . S
H1097 C1108 0.950 . S
H1098 C1110 0.950 . S
H1099 C1111 0.950 . S
C1100 H1092 0.950 . S
C1100 C1101 1.386 . S
C1100 C1102 1.391 . S
C1101 C1100 1.386 . S
C1101 C1105 1.393 . S
C1102 H1094 0.950 . S
C1102 C1100 1.391 . S
C1102 C1103 1.400 . S
C1103 C1102 1.400 . S
C1103 C1104 1.398 . S
C1103 C1109 1.491 . S
C1104 H1095 0.950 . S
C1104 C1103 1.398 . S
C1104 C1105 1.391 . S
C1105 H1093 0.950 . S
C1105 C1101 1.393 . S
C1105 C1104 1.391 . S
C1106 H1096 0.950 . S
C1106 C1107 1.386 . S
C1106 C1108 1.391 . S
C1107 C1106 1.386 . S
C1107 C1111 1.393 . S
C1108 H1097 0.950 . S
C1108 C1106 1.391 . S
C1108 C1109 1.400 . S
C1109 C1103 1.491 . S
C1109 C1108 1.400 . S
C1109 C1110 1.398 . S
C1110 H1098 0.950 . S
C1110 C1109 1.398 . S
C1110 C1111 1.391 . S
C1111 H1099 0.950 . S
C1111 C1107 1.393 . S
C1111 C1110 1.391 . S
H1112 C1120 0.950 . S
H1113 C1125 0.950 . S
H1114 C1122 0.950 . S
H1115 C1124 0.950 . S
H1116 C1126 0.950 . S
H1117 C1128 0.950 . S
H1118 C1130 0.950 . S
H1119 C1131 0.950 1_545 S
C1120 H1112 0.950 . S
C1120 C1121 1.386 . S
C1120 C1122 1.391 . S
C1121 C1120 1.386 . S
C1121 C1125 1.393 . S
C1122 H1114 0.950 . S
C1122 C1120 1.391 . S
C1122 C1123 1.400 . S
C1123 C1122 1.400 . S
C1123 C1124 1.398 . S
C1123 C1129 1.491 . S
C1124 H1115 0.950 . S
C1124 C1123 1.398 . S
C1124 C1125 1.391 . S
C1125 H1113 0.950 . S
C1125 C1121 1.393 . S
C1125 C1124 1.391 . S
C1126 H1116 0.950 . S
C1126 C1127 1.386 . S
C1126 C1128 1.391 . S
C1127 C1126 1.386 . S
C1127 C1131 1.393 . S
C1128 H1117 0.950 . S
C1128 C1126 1.391 . S
C1128 C1129 1.400 . S
C1129 C1123 1.491 . S
C1129 C1128 1.400 . S
C1129 C1130 1.398 . S
C1130 H1118 0.950 . S
C1130 C1129 1.398 . S
C1130 C1131 1.391 . S
C1131 H1119 0.950 1_565 S
C1131 C1127 1.393 . S
C1131 C1130 1.391 . S
H1132 C1140 0.950 . S
H1133 C1145 0.950 . S
H1134 C1142 0.950 . S
H1135 C1144 0.950 . S
H1136 C1146 0.950 . S
H1137 C1148 0.950 . S
H1138 C1150 0.950 . S
H1139 C1151 0.950 . S
C1140 H1132 0.950 . S
C1140 C1141 1.386 . S
C1140 C1142 1.391 . S
C1141 C1140 1.386 . S
C1141 C1145 1.393 . S
C1142 H1134 0.950 . S
C1142 C1140 1.391 . S
C1142 C1143 1.400 . S
C1143 C1142 1.400 . S
C1143 C1144 1.398 . S
C1143 C1149 1.491 . S
C1144 H1135 0.950 . S
C1144 C1143 1.398 . S
C1144 C1145 1.391 . S
C1145 H1133 0.950 . S
C1145 C1141 1.393 . S
C1145 C1144 1.391 . S
C1146 H1136 0.950 . S
C1146 C1147 1.386 . S
C1146 C1148 1.391 . S
C1147 C1146 1.386 . S
C1147 C1151 1.393 . S
C1148 H1137 0.950 . S
C1148 C1146 1.391 . S
C1148 C1149 1.400 . S
C1149 C1143 1.491 . S
C1149 C1148 1.400 . S
C1149 C1150 1.398 . S
C1150 H1138 0.950 . S
C1150 C1149 1.398 . S
C1150 C1151 1.391 . S
C1151 H1139 0.950 . S
C1151 C1147 1.393 . S
C1151 C1150 1.391 . S
H1152 C1160 0.950 . S
H1153 C1165 0.950 . S
H1154 C1162 0.950 . S
H1155 C1164 0.950 . S
H1156 C1166 0.950 . S
H1157 C1168 0.950 . S
H1158 C1170 0.950 . S
H1159 C1171 0.950 . S
C1160 H1152 0.950 . S
C1160 C1161 1.386 . S
C1160 C1162 1.391 . S
C1161 C1160 1.386 . S
C1161 C1165 1.393 1_564 S
C1162 H1154 0.950 . S
C1162 C1160 1.391 . S
C1162 C1163 1.400 . S
C1163 C1162 1.400 . S
C1163 C1164 1.398 1_564 S
C1163 C1169 1.491 1_565 S
C1164 H1155 0.950 . S
C1164 C1163 1.398 1_546 S
C1164 C1165 1.391 . S
C1165 H1153 0.950 . S
C1165 C1161 1.393 1_546 S
C1165 C1164 1.391 . S
C1166 H1156 0.950 . S
C1166 C1167 1.386 1_556 S
C1166 C1168 1.391 . S
C1167 C1166 1.386 1_554 S
C1167 C1171 1.393 1_545 S
C1168 H1157 0.950 . S
C1168 C1166 1.391 . S
C1168 C1169 1.400 1_556 S
C1169 C1163 1.491 1_545 S
C1169 C1168 1.400 1_554 S
C1169 C1170 1.398 1_545 S
C1170 H1158 0.950 . S
C1170 C1169 1.398 1_565 S
C1170 C1171 1.391 . S
C1171 H1159 0.950 . S
C1171 C1167 1.393 1_565 S
C1171 C1170 1.391 . S
H1172 C1180 0.950 . S
H1173 C1185 0.950 . S
H1174 C1182 0.950 . S
H1175 C1184 0.950 . S
H1176 C1186 0.950 . S
H1177 C1188 0.950 . S
H1178 C1190 0.950 . S
H1179 C1191 0.950 . S
C1180 H1172 0.950 . S
C1180 C1181 1.386 1_655 S
C1180 C1182 1.391 . S
C1181 C1180 1.386 1_455 S
C1181 C1185 1.393 1_556 S
C1182 H1174 0.950 . S
C1182 C1180 1.391 . S
C1182 C1183 1.400 1_655 S
C1183 C1182 1.400 1_455 S
C1183 C1184 1.398 1_556 S
C1183 C1189 1.491 1_455 S
C1184 H1175 0.950 . S
C1184 C1183 1.398 1_554 S
C1184 C1185 1.391 . S
C1185 H1173 0.950 . S
C1185 C1181 1.393 1_554 S
C1185 C1184 1.391 . S
C1186 H1176 0.950 . S
C1186 C1187 1.386 1_454 S
C1186 C1188 1.391 . S
C1187 C1186 1.386 1_656 S
C1187 C1191 1.393 . S
C1188 H1177 0.950 . S
C1188 C1186 1.391 . S
C1188 C1189 1.400 1_454 S
C1189 C1183 1.491 1_655 S
C1189 C1188 1.400 1_656 S
C1189 C1190 1.398 . S
C1190 H1178 0.950 . S
C1190 C1189 1.398 . S
C1190 C1191 1.391 . S
C1191 H1179 0.950 . S
C1191 C1187 1.393 . S
C1191 C1190 1.391 . S
H1192 C1200 0.950 . S
H1193 C1205 0.950 . S
H1194 C1202 0.950 . S
H1195 C1204 0.950 . S
H1196 C1206 0.950 . S
H1197 C1208 0.950 . S
H1198 C1210 0.950 . S
H1199 C1211 0.950 . S
C1200 H1192 0.950 . S
C1200 C1201 1.386 . S
C1200 C1202 1.391 . S
C1201 C1200 1.386 . S
C1201 C1205 1.393 . S
C1202 H1194 0.950 . S
C1202 C1200 1.391 . S
C1202 C1203 1.400 . S
C1203 C1202 1.400 . S
C1203 C1204 1.398 . S
C1203 C1209 1.491 . S
C1204 H1195 0.950 . S
C1204 C1203 1.398 . S
C1204 C1205 1.391 . S
C1205 H1193 0.950 . S
C1205 C1201 1.393 . S
C1205 C1204 1.391 . S
C1206 H1196 0.950 . S
C1206 C1207 1.386 . S
C1206 C1208 1.391 . S
C1207 C1206 1.386 . S
C1207 C1211 1.393 . S
C1208 H1197 0.950 . S
C1208 C1206 1.391 . S
C1208 C1209 1.400 . S
C1209 C1203 1.491 . S
C1209 C1208 1.400 . S
C1209 C1210 1.398 . S
C1210 H1198 0.950 . S
C1210 C1209 1.398 . S
C1210 C1211 1.391 . S
C1211 H1199 0.950 . S
C1211 C1207 1.393 . S
C1211 C1210 1.391 . S
H1212 C1220 0.950 . S
H1213 C1225 0.950 . S
H1214 C1222 0.950 . S
H1215 C1224 0.950 . S
H1216 C1226 0.950 . S
H1217 C1228 0.950 . S
H1218 C1230 0.950 . S
H1219 C1231 0.950 . S
C1220 H1212 0.950 . S
C1220 C1221 1.386 . S
C1220 C1222 1.391 . S
C1221 C1220 1.386 . S
C1221 C1225 1.393 . S
C1222 H1214 0.950 . S
C1222 C1220 1.391 . S
C1222 C1223 1.400 . S
C1223 C1222 1.400 . S
C1223 C1224 1.398 . S
C1223 C1229 1.491 . S
C1224 H1215 0.950 . S
C1224 C1223 1.398 . S
C1224 C1225 1.391 . S
C1225 H1213 0.950 . S
C1225 C1221 1.393 . S
C1225 C1224 1.391 . S
C1226 H1216 0.950 . S
C1226 C1227 1.386 . S
C1226 C1228 1.391 . S
C1227 C1226 1.386 . S
C1227 C1231 1.393 . S
C1228 H1217 0.950 . S
C1228 C1226 1.391 . S
C1228 C1229 1.400 . S
C1229 C1223 1.491 . S
C1229 C1228 1.400 . S
C1229 C1230 1.398 . S
C1230 H1218 0.950 . S
C1230 C1229 1.398 . S
C1230 C1231 1.391 . S
C1231 H1219 0.950 . S
C1231 C1227 1.393 . S
C1231 C1230 1.391 . S
H1232 C1240 0.950 . S
H1233 C1245 0.950 . S
H1234 C1242 0.950 . S
H1235 C1244 0.950 . S
H1236 C1246 0.950 . S
H1237 C1248 0.950 . S
H1238 C1250 0.950 . S
H1239 C1251 0.950 . S
C1240 H1232 0.950 . S
C1240 C1241 1.386 . S
C1240 C1242 1.391 . S
C1241 C1240 1.386 . S
C1241 C1245 1.393 . S
C1242 H1234 0.950 . S
C1242 C1240 1.391 . S
C1242 C1243 1.400 . S
C1243 C1242 1.400 . S
C1243 C1244 1.398 . S
C1243 C1249 1.491 1_455 S
C1244 H1235 0.950 . S
C1244 C1243 1.398 . S
C1244 C1245 1.391 . S
C1245 H1233 0.950 . S
C1245 C1241 1.393 . S
C1245 C1244 1.391 . S
C1246 H1236 0.950 . S
C1246 C1247 1.386 . S
C1246 C1248 1.391 . S
C1247 C1246 1.386 . S
C1247 C1251 1.393 . S
C1248 H1237 0.950 . S
C1248 C1246 1.391 . S
C1248 C1249 1.400 . S
C1249 C1243 1.491 1_655 S
C1249 C1248 1.400 . S
C1249 C1250 1.398 . S
C1250 H1238 0.950 . S
C1250 C1249 1.398 . S
C1250 C1251 1.391 . S
C1251 H1239 0.950 . S
C1251 C1247 1.393 . S
C1251 C1250 1.391 . S
H1252 C1260 0.950 . S
H1253 C1265 0.950 . S
H1254 C1262 0.950 . S
H1255 C1264 0.950 . S
H1256 C1266 0.950 . S
H1257 C1268 0.950 . S
H1258 C1270 0.950 . S
H1259 C1271 0.950 . S
C1260 H1252 0.950 . S
C1260 C1261 1.386 . S
C1260 C1262 1.391 . S
C1261 C1260 1.386 . S
C1261 C1265 1.393 . S
C1262 H1254 0.950 . S
C1262 C1260 1.391 . S
C1262 C1263 1.400 . S
C1263 C1262 1.400 . S
C1263 C1264 1.398 . S
C1263 C1269 1.491 1_545 S
C1264 H1255 0.950 . S
C1264 C1263 1.398 . S
C1264 C1265 1.391 . S
C1265 H1253 0.950 . S
C1265 C1261 1.393 . S
C1265 C1264 1.391 . S
C1266 H1256 0.950 . S
C1266 C1267 1.386 . S
C1266 C1268 1.391 . S
C1267 C1266 1.386 . S
C1267 C1271 1.393 . S
C1268 H1257 0.950 . S
C1268 C1266 1.391 . S
C1268 C1269 1.400 . S
C1269 C1263 1.491 1_565 S
C1269 C1268 1.400 . S
C1269 C1270 1.398 . S
C1270 H1258 0.950 . S
C1270 C1269 1.398 . S
C1270 C1271 1.391 . S
C1271 H1259 0.950 . S
C1271 C1267 1.393 . S
C1271 C1270 1.391 . S
H1272 C1280 0.950 . S
H1273 C1285 0.950 . S
H1274 C1282 0.950 . S
H1275 C1284 0.950 . S
H1276 C1286 0.950 . S
H1277 C1288 0.950 . S
H1278 C1290 0.950 . S
H1279 C1291 0.950 . S
C1280 H1272 0.950 . S
C1280 C1281 1.386 1_565 S
C1280 C1282 1.391 . S
C1281 C1280 1.386 1_545 S
C1281 C1285 1.393 . S
C1282 H1274 0.950 . S
C1282 C1280 1.391 . S
C1282 C1283 1.400 1_565 S
C1283 C1282 1.400 1_545 S
C1283 C1284 1.398 . S
C1283 C1289 1.491 1_445 S
C1284 H1275 0.950 . S
C1284 C1283 1.398 . S
C1284 C1285 1.391 . S
C1285 H1273 0.950 . S
C1285 C1281 1.393 . S
C1285 C1284 1.391 . S
C1286 H1276 0.950 . S
C1286 C1287 1.386 1_545 S
C1286 C1288 1.391 . S
C1287 C1286 1.386 1_565 S
C1287 C1291 1.393 . S
C1288 H1277 0.950 . S
C1288 C1286 1.391 . S
C1288 C1289 1.400 1_545 S
C1289 C1283 1.491 1_665 S
C1289 C1288 1.400 1_565 S
C1289 C1290 1.398 . S
C1290 H1278 0.950 . S
C1290 C1289 1.398 . S
C1290 C1291 1.391 . S
C1291 H1279 0.950 . S
C1291 C1287 1.393 . S
C1291 C1290 1.391 . S
H1292 C1300 0.950 . S
H1293 C1305 0.950 . S
H1294 C1302 0.950 . S
H1295 C1304 0.950 . S
H1296 C1306 0.950 . S
H1297 C1308 0.950 . S
H1298 C1310 0.950 . S
H1299 C1311 0.950 . S
C1300 H1292 0.950 . S
C1300 C1301 1.386 . S
C1300 C1302 1.391 . S
C1301 C1300 1.386 . S
C1301 C1305 1.393 1_655 S
C1302 H1294 0.950 . S
C1302 C1300 1.391 . S
C1302 C1303 1.400 . S
C1303 C1302 1.400 . S
C1303 C1304 1.398 1_655 S
C1303 C1309 1.491 1_645 S
C1304 H1295 0.950 . S
C1304 C1303 1.398 1_455 S
C1304 C1305 1.391 . S
C1305 H1293 0.950 . S
C1305 C1301 1.393 1_455 S
C1305 C1304 1.391 . S
C1306 H1296 0.950 . S
C1306 C1307 1.386 . S
C1306 C1308 1.391 . S
C1307 C1306 1.386 . S
C1307 C1311 1.393 1_455 S
C1308 H1297 0.950 . S
C1308 C1306 1.391 . S
C1308 C1309 1.400 . S
C1309 C1303 1.491 1_465 S
C1309 C1308 1.400 . S
C1309 C1310 1.398 1_455 S
C1310 H1298 0.950 . S
C1310 C1309 1.398 1_655 S
C1310 C1311 1.391 . S
C1311 H1299 0.950 . S
C1311 C1307 1.393 1_655 S
C1311 C1310 1.391 . S
C361 C348 1.677 . S
C367 C18 1.749 1_565 S
C381 C274 1.622 . S
C387 C40 1.756 1_655 S
C401 C62 1.751 1_545 S
C407 C294 1.673 . S
C421 C84 1.763 1_455 S
C427 C318 1.640 . S
C441 C98 1.775 . S
C447 C30 1.663 . S
C461 C118 1.752 . S
C467 C54 1.622 . S
C481 C142 1.767 . S
C487 C74 1.660 . S
C501 C10 1.629 . S
C507 C162 1.741 . S
C521 C184 1.748 . S
C527 C164 1.682 . S
C541 C216 1.735 . S
C547 C96 1.638 . S
C561 C238 1.774 . S
C567 C120 1.690 . S
C581 C260 1.756 . S
C587 C140 1.653 . S
C601 C282 1.753 1_545 S
C607 C206 1.669 . S
C621 C230 1.662 . S
C627 C304 1.741 1_455 S
C641 C250 1.660 . S
C647 C326 1.771 1_565 S
C661 C194 1.625 . S
C667 C340 1.762 1_655 S
C681 C106 1.059 . S
C687 C8 1.033 . S
C701 C32 1.007 . S
C707 C128 1.042 . S
C721 C150 1.029 . S
C727 C52 1.033 . S
C741 C76 1.006 . S
C747 C172 1.036 . S
C761 C272 1.042 . S
C767 C186 1.024 . S
C781 C296 1.036 . S
C787 C208 1.006 . S
C801 C316 1.050 . S
C807 C228 1.050 . S
C821 C338 1.011 . S
C827 C252 1.026 . S
C841 C7 1.010 . S
C847 C257 1.035 . S
C861 C191 1.043 . S
C867 C29 1.024 . S
C881 C51 1.032 . S
C887 C213 1.041 . S
C901 C73 1.023 . S
C907 C241 1.031 . S
C921 C117 1.023 . S
C927 C103 1.008 . S
C941 C139 1.038 . S
C947 C131 1.032 . S
C961 C161 1.030 . S
C967 C147 1.020 . S
C981 C175 1.032 . S
C987 C95 1.047 . S
C1001 C197 1.003 . S
C1007 C81 1.029 . S
C1021 C21 1.047 . S
C1027 C205 1.039 . S
C1041 C37 1.044 . S
C1047 C227 1.034 . S
C1061 C65 1.032 . S
C1067 C249 1.025 . S
C1081 C301 1.019 . S
C1087 C271 0.999 . S
C1101 C293 1.032 . S
C1107 C329 1.048 . S
C1121 C351 1.036 . S
C1127 C315 1.013 . S
C1141 C345 1.039 . S
C1147 C285 1.045 . S
C1161 C59 0.319 . S
C1167 C15 0.333 . S
C1181 C43 0.287 . S
C1187 C87 0.303 . S
C1201 C109 0.284 . S
C1207 C153 0.289 . S
C1221 C169 0.347 . S
C1227 C125 0.335 . S
C1241 C235 0.317 . S
C1247 C183 0.333 . S
C1261 C219 0.341 . S
C1267 C263 0.347 . S
C1281 C323 0.323 . S
C1287 C279 0.300 . S
C1301 C307 0.347 . S
C1307 C337 0.333 . S
