# Generated by pormake.
# Topology cbo, (4)-cn, num edge types: 1
# Building blocks:
#     Node 0, Type 0, BuildingBlock: QUQFOY_clean_sbu_3, # of connection points: 4
#     Node 1, Type 0, BuildingBlock: QUQFOY_clean_sbu_3, # of connection points: 4
#     Node 2, Type 0, BuildingBlock: QUQFOY_clean_sbu_3, # of connection points: 4
#     Node 3, Type 0, BuildingBlock: QUQFOY_clean_sbu_3, # of connection points: 4
#     Node 4, Type 0, BuildingBlock: QUQFOY_clean_sbu_3, # of connection points: 4
#     Node 5, Type 0, BuildingBlock: QUQFOY_clean_sbu_3, # of connection points: 4
#     Node 6, Type 0, BuildingBlock: QUQFOY_clean_sbu_3, # of connection points: 4
#     Node 7, Type 0, BuildingBlock: QUQFOY_clean_sbu_3, # of connection points: 4
#     Node 8, Type 0, BuildingBlock: QUQFOY_clean_sbu_3, # of connection points: 4
#     Node 9, Type 0, BuildingBlock: QUQFOY_clean_sbu_3, # of connection points: 4
#     Node 10, Type 0, BuildingBlock: QUQFOY_clean_sbu_3, # of connection points: 4
#     Node 11, Type 0, BuildingBlock: QUQFOY_clean_sbu_3, # of connection points: 4
#     Node 12, Type 0, BuildingBlock: QUQFOY_clean_sbu_3, # of connection points: 4
#     Node 13, Type 0, BuildingBlock: QUQFOY_clean_sbu_3, # of connection points: 4
#     Node 14, Type 0, BuildingBlock: QUQFOY_clean_sbu_3, # of connection points: 4
#     Node 15, Type 0, BuildingBlock: QUQFOY_clean_sbu_3, # of connection points: 4
#     Node 16, Type 0, BuildingBlock: QUQFOY_clean_sbu_3, # of connection points: 4
#     Node 17, Type 0, BuildingBlock: QUQFOY_clean_sbu_3, # of connection points: 4
#     Node 18, Type 0, BuildingBlock: QUQFOY_clean_sbu_3, # of connection points: 4
#     Node 19, Type 0, BuildingBlock: QUQFOY_clean_sbu_3, # of connection points: 4
#     Node 20, Type 0, BuildingBlock: QUQFOY_clean_sbu_3, # of connection points: 4
#     Node 21, Type 0, BuildingBlock: QUQFOY_clean_sbu_3, # of connection points: 4
#     Node 22, Type 0, BuildingBlock: QUQFOY_clean_sbu_3, # of connection points: 4
#     Node 23, Type 0, BuildingBlock: QUQFOY_clean_sbu_3, # of connection points: 4
#     Edge 24, Type (0, 0), BuildingBlock: AJUNOK_clean_linker_0, # of connection points: 2
#     Edge 25, Type (0, 0), BuildingBlock: AJUNOK_clean_linker_0, # of connection points: 2
#     Edge 26, Type (0, 0), BuildingBlock: AJUNOK_clean_linker_0, # of connection points: 2
#     Edge 27, Type (0, 0), BuildingBlock: AJUNOK_clean_linker_0, # of connection points: 2
#     Edge 28, Type (0, 0), BuildingBlock: AJUNOK_clean_linker_0, # of connection points: 2
#     Edge 29, Type (0, 0), BuildingBlock: AJUNOK_clean_linker_0, # of connection points: 2
#     Edge 30, Type (0, 0), BuildingBlock: AJUNOK_clean_linker_0, # of connection points: 2
#     Edge 31, Type (0, 0), BuildingBlock: AJUNOK_clean_linker_0, # of connection points: 2
#     Edge 32, Type (0, 0), BuildingBlock: AJUNOK_clean_linker_0, # of connection points: 2
#     Edge 33, Type (0, 0), BuildingBlock: AJUNOK_clean_linker_0, # of connection points: 2
#     Edge 34, Type (0, 0), BuildingBlock: AJUNOK_clean_linker_0, # of connection points: 2
#     Edge 35, Type (0, 0), BuildingBlock: AJUNOK_clean_linker_0, # of connection points: 2
#     Edge 36, Type (0, 0), BuildingBlock: AJUNOK_clean_linker_0, # of connection points: 2
#     Edge 37, Type (0, 0), BuildingBlock: AJUNOK_clean_linker_0, # of connection points: 2
#     Edge 38, Type (0, 0), BuildingBlock: AJUNOK_clean_linker_0, # of connection points: 2
#     Edge 39, Type (0, 0), BuildingBlock: AJUNOK_clean_linker_0, # of connection points: 2
#     Edge 40, Type (0, 0), BuildingBlock: AJUNOK_clean_linker_0, # of connection points: 2
#     Edge 41, Type (0, 0), BuildingBlock: AJUNOK_clean_linker_0, # of connection points: 2
#     Edge 42, Type (0, 0), BuildingBlock: AJUNOK_clean_linker_0, # of connection points: 2
#     Edge 43, Type (0, 0), BuildingBlock: AJUNOK_clean_linker_0, # of connection points: 2
#     Edge 44, Type (0, 0), BuildingBlock: AJUNOK_clean_linker_0, # of connection points: 2
#     Edge 45, Type (0, 0), BuildingBlock: AJUNOK_clean_linker_0, # of connection points: 2
#     Edge 46, Type (0, 0), BuildingBlock: AJUNOK_clean_linker_0, # of connection points: 2
#     Edge 47, Type (0, 0), BuildingBlock: AJUNOK_clean_linker_0, # of connection points: 2
#     Edge 48, Type (0, 0), BuildingBlock: AJUNOK_clean_linker_0, # of connection points: 2
#     Edge 49, Type (0, 0), BuildingBlock: AJUNOK_clean_linker_0, # of connection points: 2
#     Edge 50, Type (0, 0), BuildingBlock: AJUNOK_clean_linker_0, # of connection points: 2
#     Edge 51, Type (0, 0), BuildingBlock: AJUNOK_clean_linker_0, # of connection points: 2
#     Edge 52, Type (0, 0), BuildingBlock: AJUNOK_clean_linker_0, # of connection points: 2
#     Edge 53, Type (0, 0), BuildingBlock: AJUNOK_clean_linker_0, # of connection points: 2
#     Edge 54, Type (0, 0), BuildingBlock: AJUNOK_clean_linker_0, # of connection points: 2
#     Edge 55, Type (0, 0), BuildingBlock: AJUNOK_clean_linker_0, # of connection points: 2
#     Edge 56, Type (0, 0), BuildingBlock: AJUNOK_clean_linker_0, # of connection points: 2
#     Edge 57, Type (0, 0), BuildingBlock: AJUNOK_clean_linker_0, # of connection points: 2
#     Edge 58, Type (0, 0), BuildingBlock: AJUNOK_clean_linker_0, # of connection points: 2
#     Edge 59, Type (0, 0), BuildingBlock: AJUNOK_clean_linker_0, # of connection points: 2
#     Edge 60, Type (0, 0), BuildingBlock: AJUNOK_clean_linker_0, # of connection points: 2
#     Edge 61, Type (0, 0), BuildingBlock: AJUNOK_clean_linker_0, # of connection points: 2
#     Edge 62, Type (0, 0), BuildingBlock: AJUNOK_clean_linker_0, # of connection points: 2
#     Edge 63, Type (0, 0), BuildingBlock: AJUNOK_clean_linker_0, # of connection points: 2
#     Edge 64, Type (0, 0), BuildingBlock: AJUNOK_clean_linker_0, # of connection points: 2
#     Edge 65, Type (0, 0), BuildingBlock: AJUNOK_clean_linker_0, # of connection points: 2
#     Edge 66, Type (0, 0), BuildingBlock: AJUNOK_clean_linker_0, # of connection points: 2
#     Edge 67, Type (0, 0), BuildingBlock: AJUNOK_clean_linker_0, # of connection points: 2
#     Edge 68, Type (0, 0), BuildingBlock: AJUNOK_clean_linker_0, # of connection points: 2
#     Edge 69, Type (0, 0), BuildingBlock: AJUNOK_clean_linker_0, # of connection points: 2
#     Edge 70, Type (0, 0), BuildingBlock: AJUNOK_clean_linker_0, # of connection points: 2
#     Edge 71, Type (0, 0), BuildingBlock: AJUNOK_clean_linker_0, # of connection points: 2
# Relax obj value: 0.192
# Max RMSD: 0.203
# Mean RMSD: 0.197
data_MOF--net-cbo--node1-QUQFOY_clean_sbu_3--edge1-AJUNOK_clean_linker_0
_symmetry_space_group_name_H-M    P1
_symmetry_Int_Tables_number       1
_symmetry_cell_setting            triclinic
loop_
_symmetry_equiv_pos_as_xyz
'x, y, z'
_cell_length_a     39.268839
_cell_length_b     40.018246
_cell_length_c     40.904424
_cell_angle_alpha  89.941471
_cell_angle_beta   90.345603
_cell_angle_gamma 90.173947
loop_
_atom_site_label
_atom_site_type_symbol
_atom_site_fract_x
_atom_site_fract_y
_atom_site_fract_z
_atom_type_partial_charge
C0 C 0.14957 0.26117 0.29221 0.0
O1 O 0.16934 0.26862 0.31583 0.0
Cd2 Cd 0.18113 0.23235 0.36152 0.0
O3 O 0.13249 0.23411 0.29282 0.0
Cd4 Cd 0.12194 0.18598 0.32889 0.0
C5 C 0.20399 0.16268 0.31727 0.0
O6 O 0.12809 0.21306 0.382 0.0
O7 O 0.12411 0.15912 0.38186 0.0
O8 O 0.06189 0.19287 0.31888 0.0
C9 C 0.12702 0.18595 0.39808 0.0
O10 O 0.21218 0.18632 0.33667 0.0
C11 C 0.05652 0.16323 0.30907 0.0
O12 O 0.17298 0.15792 0.30909 0.0
O13 O 0.08225 0.1441 0.30735 0.0
C14 C 0.31514 0.70702 0.78115 0.0
O15 O 0.29649 0.69861 0.80509 0.0
Cd16 Cd 0.2845 0.73384 0.85132 0.0
O17 O 0.33192 0.73426 0.78181 0.0
Cd18 Cd 0.3438 0.78065 0.81968 0.0
C19 C 0.26229 0.80394 0.80656 0.0
O20 O 0.33686 0.75375 0.87263 0.0
O21 O 0.33899 0.80786 0.87203 0.0
O22 O 0.40386 0.77191 0.81342 0.0
C23 C 0.33704 0.78104 0.88839 0.0
O24 O 0.25422 0.78015 0.82576 0.0
C25 C 0.41078 0.80154 0.80452 0.0
O26 O 0.29324 0.80899 0.79859 0.0
O27 O 0.38584 0.82143 0.8008 0.0
C28 C 0.63129 0.21758 0.67136 0.0
O29 O 0.64855 0.20744 0.64718 0.0
Cd30 Cd 0.66621 0.24328 0.60304 0.0
O31 O 0.61912 0.24699 0.67145 0.0
Cd32 Cd 0.61549 0.29534 0.63421 0.0
C33 C 0.69808 0.30891 0.64906 0.0
O34 O 0.61954 0.27212 0.57913 0.0
O35 O 0.63328 0.32413 0.58552 0.0
O36 O 0.55462 0.29627 0.63319 0.0
C37 C 0.62837 0.29972 0.56629 0.0
O38 O 0.70298 0.28477 0.62935 0.0
C39 C 0.55134 0.32442 0.64703 0.0
O40 O 0.66805 0.31719 0.65743 0.0
O41 O 0.57843 0.33941 0.65598 0.0
C42 C 0.83608 0.74155 0.18007 0.0
O43 O 0.82002 0.75197 0.15499 0.0
Cd44 Cd 0.80703 0.71979 0.10698 0.0
O45 O 0.84919 0.71247 0.18036 0.0
Cd46 Cd 0.8554 0.66443 0.14272 0.0
C47 C 0.7698 0.65348 0.14712 0.0
O48 O 0.85908 0.69494 0.09122 0.0
O49 O 0.85485 0.64135 0.08771 0.0
O50 O 0.91344 0.66061 0.16278 0.0
C51 C 0.85804 0.66917 0.07331 0.0
O52 O 0.76696 0.6783 0.12779 0.0
C53 C 0.91335 0.62896 0.16518 0.0
O54 O 0.79895 0.6442 0.1575 0.0
O55 O 0.88559 0.61387 0.15883 0.0
C56 C 0.31448 0.11326 0.23915 0.0
O57 O 0.34394 0.12488 0.24547 0.0
Cd58 Cd 0.38696 0.13318 0.20472 0.0
O59 O 0.30773 0.10153 0.21093 0.0
Cd60 Cd 0.33576 0.08969 0.15846 0.0
C61 C 0.3354 0.17334 0.1478 0.0
O62 O 0.39459 0.08357 0.17426 0.0
O63 O 0.38511 0.09483 0.12342 0.0
O64 O 0.32413 0.03136 0.16262 0.0
C65 C 0.40655 0.08857 0.14592 0.0
O66 O 0.35985 0.17381 0.16845 0.0
C67 C 0.30696 0.02876 0.13638 0.0
O68 O 0.32032 0.14598 0.14051 0.0
O69 O 0.30133 0.05547 0.12031 0.0
C70 C 0.15158 0.84961 0.72561 0.0
O71 O 0.12186 0.83899 0.73215 0.0
Cd72 Cd 0.07721 0.8333 0.69226 0.0
O73 O 0.1584 0.86085 0.69724 0.0
Cd74 Cd 0.13096 0.87373 0.64426 0.0
C75 C 0.12448 0.7899 0.63458 0.0
O76 O 0.07461 0.88488 0.66394 0.0
O77 O 0.07881 0.87808 0.61202 0.0
O78 O 0.16011 0.92634 0.65063 0.0
C79 C 0.05982 0.88345 0.63637 0.0
O80 O 0.10073 0.79076 0.65571 0.0
C81 C 0.16843 0.9293 0.62085 0.0
O82 O 0.14091 0.81631 0.62688 0.0
O83 O 0.16028 0.90561 0.60162 0.0
C84 C 0.81455 0.34715 0.72626 0.0
O85 O 0.84271 0.3333 0.7196 0.0
Cd86 Cd 0.88477 0.32041 0.76027 0.0
O87 O 0.80924 0.3588 0.75472 0.0
Cd88 Cd 0.83885 0.36761 0.80726 0.0
C89 C 0.82924 0.28434 0.8161 0.0
O90 O 0.89728 0.36895 0.79098 0.0
O91 O 0.88825 0.3566 0.84162 0.0
O92 O 0.8342 0.42675 0.80248 0.0
C93 C 0.90947 0.36235 0.819 0.0
O94 O 0.85333 0.28197 0.79546 0.0
C95 C 0.81787 0.43158 0.82869 0.0
O96 O 0.81742 0.31284 0.82421 0.0
O97 O 0.80932 0.40587 0.84515 0.0
C98 C 0.65124 0.6199 0.22244 0.0
O99 O 0.62243 0.63251 0.21557 0.0
Cd100 Cd 0.58004 0.64284 0.25659 0.0
O101 O 0.65732 0.60898 0.25112 0.0
Cd102 Cd 0.63085 0.59937 0.30461 0.0
C103 C 0.63366 0.6835 0.31173 0.0
O104 O 0.57222 0.59348 0.28794 0.0
O105 O 0.58129 0.60216 0.33926 0.0
O106 O 0.65306 0.54384 0.29791 0.0
C107 C 0.55999 0.59802 0.31622 0.0
O108 O 0.60898 0.68396 0.29133 0.0
C109 C 0.66321 0.54055 0.32723 0.0
O110 O 0.64782 0.656 0.31989 0.0
O111 O 0.65917 0.56521 0.34639 0.0
C112 C 0.26971 0.29813 0.11396 0.0
O113 O 0.27979 0.32562 0.12621 0.0
Cd114 Cd 0.24157 0.37252 0.13231 0.0
O115 O 0.2401 0.29583 0.10146 0.0
Cd116 Cd 0.18898 0.32768 0.08818 0.0
C117 C 0.17704 0.32807 0.17013 0.0
O118 O 0.21351 0.3833 0.08146 0.0
O119 O 0.15856 0.37959 0.08226 0.0
O120 O 0.19663 0.30221 0.03547 0.0
C121 C 0.18483 0.39794 0.08028 0.0
O122 O 0.20081 0.34982 0.17124 0.0
C123 C 0.16573 0.29352 0.03183 0.0
O124 O 0.16816 0.31479 0.14303 0.0
O125 O 0.1454 0.30009 0.05504 0.0
C126 C 0.75277 0.16425 0.84566 0.0
O127 O 0.76037 0.1366 0.83237 0.0
Cd128 Cd 0.71693 0.0941 0.82464 0.0
O129 O 0.72369 0.16814 0.85843 0.0
Cd130 Cd 0.67107 0.13936 0.87231 0.0
C131 C 0.65529 0.14686 0.79179 0.0
O132 O 0.68818 0.08099 0.87427 0.0
O133 O 0.63427 0.09134 0.86968 0.0
O134 O 0.68811 0.15151 0.92686 0.0
C135 C 0.65786 0.06986 0.87229 0.0
O136 O 0.67672 0.12318 0.78907 0.0
C137 C 0.66104 0.16608 0.93559 0.0
O138 O 0.64899 0.15981 0.81964 0.0
O139 O 0.63765 0.16914 0.91403 0.0
C140 C 0.70654 0.80512 0.34427 0.0
O141 O 0.70049 0.83251 0.32967 0.0
Cd142 Cd 0.74553 0.87334 0.32305 0.0
O143 O 0.73461 0.80108 0.35933 0.0
Cd144 Cd 0.78706 0.82939 0.37557 0.0
C145 C 0.80666 0.81674 0.29682 0.0
O146 O 0.77169 0.88826 0.37377 0.0
O147 O 0.82534 0.87625 0.37197 0.0
O148 O 0.76995 0.81974 0.43073 0.0
C149 C 0.80237 0.89848 0.37263 0.0
O150 O 0.78638 0.841 0.29145 0.0
C151 C 0.79676 0.8047 0.43985 0.0
O152 O 0.81119 0.80555 0.32575 0.0
O153 O 0.81961 0.80022 0.41832 0.0
C154 C 0.18608 0.66377 0.60247 0.0
O155 O 0.17731 0.63683 0.61664 0.0
Cd156 Cd 0.21784 0.59198 0.62615 0.0
O157 O 0.21541 0.66641 0.58988 0.0
Cd158 Cd 0.26749 0.63632 0.57825 0.0
C159 C 0.28143 0.64221 0.65955 0.0
O160 O 0.2503 0.57801 0.57922 0.0
O161 O 0.30414 0.58911 0.58357 0.0
O162 O 0.2575 0.64579 0.52143 0.0
C163 C 0.2805 0.56743 0.58358 0.0
O164 O 0.25874 0.61951 0.66196 0.0
C165 C 0.28492 0.66168 0.51601 0.0
O166 O 0.28871 0.6552 0.63187 0.0
O167 O 0.3047 0.6667 0.54033 0.0
C168 C 0.80007 0.85286 0.68813 0.0
O169 O 0.8231 0.86404 0.70719 0.0
Cd170 Cd 0.88109 0.84539 0.70408 0.0
O171 O 0.80768 0.83264 0.66536 0.0
Cd172 Cd 0.8566 0.80511 0.63976 0.0
C173 C 0.86529 0.76037 0.70931 0.0
O174 O 0.89548 0.85183 0.6478 0.0
O175 O 0.91694 0.8065 0.62807 0.0
O176 O 0.82343 0.81919 0.59234 0.0
C177 C 0.9211 0.83671 0.63644 0.0
O178 O 0.87684 0.78713 0.72219 0.0
C179 C 0.83042 0.79306 0.57624 0.0
O180 O 0.85522 0.76016 0.67968 0.0
O181 O 0.8497 0.77166 0.58984 0.0
C182 C 0.66831 0.11786 0.18381 0.0
O183 O 0.64578 0.10755 0.2036 0.0
Cd184 Cd 0.58797 0.12678 0.20255 0.0
O185 O 0.66046 0.1382 0.16101 0.0
Cd186 Cd 0.61017 0.16662 0.13721 0.0
C187 C 0.60419 0.21172 0.20685 0.0
O188 O 0.5713 0.12032 0.14679 0.0
O189 O 0.54906 0.16573 0.12793 0.0
O190 O 0.64067 0.15297 0.08831 0.0
C191 C 0.54512 0.13557 0.13657 0.0
O192 O 0.59303 0.18511 0.22021 0.0
C193 C 0.63223 0.17893 0.07245 0.0
O194 O 0.61339 0.21166 0.17704 0.0
O195 O 0.61353 0.20009 0.08684 0.0
C196 C 0.30216 0.62109 0.26762 0.0
O197 O 0.3262 0.61132 0.24935 0.0
Cd198 Cd 0.3825 0.63411 0.25394 0.0
O199 O 0.30806 0.64152 0.29082 0.0
Cd200 Cd 0.3547 0.67142 0.31873 0.0
C201 C 0.35839 0.71737 0.24981 0.0
O202 O 0.39652 0.62807 0.31036 0.0
O203 O 0.4154 0.67484 0.32978 0.0
O204 O 0.3235 0.65224 0.36523 0.0
C205 C 0.42126 0.64482 0.32176 0.0
O206 O 0.37224 0.69188 0.23685 0.0
C207 C 0.32785 0.67828 0.38241 0.0
O208 O 0.34887 0.71663 0.27949 0.0
O209 O 0.34453 0.70222 0.36971 0.0
C210 C 0.17388 0.34054 0.78939 0.0
O211 O 0.15161 0.35027 0.76884 0.0
Cd212 Cd 0.09408 0.33025 0.76592 0.0
O213 O 0.16601 0.31977 0.81172 0.0
Cd214 Cd 0.11477 0.28986 0.83117 0.0
C215 C 0.1099 0.24565 0.76073 0.0
O216 O 0.07366 0.33317 0.82019 0.0
O217 O 0.05318 0.28476 0.83347 0.0
O218 O 0.12336 0.30698 0.88654 0.0
C219 C 0.04796 0.31535 0.82702 0.0
O220 O 0.09905 0.27246 0.74753 0.0
C221 C 0.12881 0.27808 0.89805 0.0
O222 O 0.119 0.24521 0.79069 0.0
O223 O 0.12889 0.2537 0.87817 0.0
C224 C 0.66118 0.85868 0.73214 0.0
O225 O 0.63823 0.84076 0.71887 0.0
Cd226 Cd 0.58996 0.82046 0.74953 0.0
O227 O 0.65749 0.86906 0.76125 0.0
Cd228 Cd 0.61795 0.8696 0.80703 0.0
C229 C 0.63519 0.78775 0.81555 0.0
O230 O 0.56345 0.86411 0.77933 0.0
O231 O 0.56542 0.85121 0.83083 0.0
O232 O 0.61549 0.92932 0.80886 0.0
C233 C 0.54795 0.85434 0.8048 0.0
O234 O 0.61653 0.78395 0.79019 0.0
C235 C 0.63065 0.93272 0.83612 0.0
O236 O 0.64228 0.81685 0.82645 0.0
O237 O 0.64019 0.90622 0.85072 0.0
C238 C 0.80827 0.10493 0.22382 0.0
O239 O 0.83187 0.12153 0.21017 0.0
Cd240 Cd 0.8817 0.1402 0.24046 0.0
O241 O 0.81166 0.09523 0.25323 0.0
Cd242 Cd 0.85089 0.09411 0.29955 0.0
C243 C 0.8381 0.17719 0.30461 0.0
O244 O 0.90615 0.0974 0.27347 0.0
O245 O 0.90317 0.11099 0.32474 0.0
O246 O 0.8511 0.03443 0.30389 0.0
C247 C 0.92116 0.10738 0.29933 0.0
O248 O 0.85687 0.17916 0.27934 0.0
C249 C 0.83496 0.03276 0.33062 0.0
O250 O 0.82954 0.14887 0.31649 0.0
O251 O 0.82596 0.06017 0.34368 0.0
C252 C 0.16334 0.60536 0.22293 0.0
O253 O 0.13937 0.62081 0.23716 0.0
Cd254 Cd 0.08566 0.63247 0.21061 0.0
O255 O 0.15921 0.59394 0.19415 0.0
Cd256 Cd 0.1194 0.58627 0.1484 0.0
C257 C 0.11982 0.67141 0.14173 0.0
O258 O 0.07175 0.58137 0.18449 0.0
O259 O 0.05951 0.5762 0.13349 0.0
O260 O 0.15141 0.53496 0.14752 0.0
C261 C 0.04901 0.57808 0.16266 0.0
O262 O 0.10367 0.67226 0.16868 0.0
C263 C 0.15073 0.53142 0.1167 0.0
O264 O 0.12933 0.64368 0.12939 0.0
O265 O 0.13531 0.55363 0.10005 0.0
C266 C 0.31037 0.3612 0.74456 0.0
O267 O 0.33667 0.34651 0.75558 0.0
Cd268 Cd 0.38362 0.33349 0.71944 0.0
O269 O 0.30979 0.37205 0.71537 0.0
Cd270 Cd 0.34261 0.37886 0.66557 0.0
C271 C 0.33486 0.29521 0.65888 0.0
O272 O 0.40043 0.38041 0.6871 0.0
O273 O 0.39383 0.37112 0.63531 0.0
O274 O 0.33089 0.43734 0.66753 0.0
C275 C 0.41391 0.37449 0.6595 0.0
O276 O 0.35675 0.29378 0.68199 0.0
C277 C 0.31657 0.43942 0.63972 0.0
O278 O 0.32335 0.32325 0.64889 0.0
O279 O 0.31371 0.41248 0.62338 0.0
C280 C 0.71437 0.67148 0.84825 0.0
O281 O 0.70953 0.64655 0.8296 0.0
Cd282 Cd 0.75208 0.60532 0.81899 0.0
O283 O 0.74167 0.67388 0.8651 0.0
Cd284 Cd 0.7933 0.63992 0.87605 0.0
C285 C 0.81675 0.66007 0.79948 0.0
O286 O 0.77068 0.58299 0.87031 0.0
O287 O 0.82507 0.58902 0.86709 0.0
O288 O 0.78697 0.65289 0.93377 0.0
C289 C 0.79972 0.56942 0.86826 0.0
O290 O 0.79586 0.63766 0.78987 0.0
C291 C 0.81833 0.65928 0.93846 0.0
O292 O 0.81968 0.66692 0.82974 0.0
O293 O 0.83787 0.65752 0.91393 0.0
C294 C 0.19082 0.79324 0.11069 0.0
O295 O 0.18654 0.81787 0.12978 0.0
Cd296 Cd 0.22847 0.86098 0.13934 0.0
O297 O 0.21744 0.79152 0.09317 0.0
Cd298 Cd 0.26882 0.82505 0.08172 0.0
C299 C 0.29511 0.80916 0.15912 0.0
O300 O 0.24795 0.88252 0.0881 0.0
O301 O 0.30229 0.87493 0.08819 0.0
O302 O 0.26231 0.8118 0.02397 0.0
C303 C 0.27762 0.89517 0.08936 0.0
O304 O 0.27424 0.83144 0.16855 0.0
C305 C 0.2931 0.80294 0.02038 0.0
O306 O 0.29655 0.80085 0.12912 0.0
O307 O 0.31229 0.80378 0.04544 0.0
C308 C 0.26388 0.17279 0.62661 0.0
O309 O 0.26917 0.148 0.6454 0.0
Cd310 Cd 0.23116 0.1014 0.65165 0.0
O311 O 0.23797 0.17336 0.60771 0.0
Cd312 Cd 0.18914 0.13743 0.5925 0.0
C313 C 0.16083 0.14822 0.67047 0.0
O314 O 0.21907 0.08426 0.59683 0.0
O315 O 0.16528 0.08167 0.58619 0.0
O316 O 0.19729 0.16046 0.53808 0.0
C317 C 0.1931 0.06641 0.59073 0.0
O318 O 0.18355 0.12775 0.68015 0.0
C319 C 0.16567 0.16364 0.53213 0.0
O320 O 0.15838 0.15611 0.64041 0.0
O321 O 0.14507 0.15517 0.55448 0.0
C322 C 0.76496 0.29765 0.33492 0.0
O323 O 0.7683 0.32088 0.31397 0.0
Cd324 Cd 0.72781 0.36467 0.30435 0.0
O325 O 0.73987 0.29747 0.35452 0.0
Cd326 Cd 0.69026 0.33288 0.36749 0.0
C327 C 0.65848 0.31359 0.29207 0.0
O328 O 0.71571 0.38729 0.35686 0.0
O329 O 0.66158 0.38673 0.36612 0.0
O330 O 0.70048 0.32692 0.42554 0.0
C331 C 0.68836 0.40353 0.36066 0.0
O332 O 0.67997 0.33404 0.28005 0.0
C333 C 0.67149 0.3144 0.43186 0.0
O334 O 0.65774 0.30818 0.32274 0.0
O335 O 0.65138 0.30949 0.40789 0.0
C336 C 0.17732 0.32672 0.23119 0.0
C337 C 0.16343 0.31499 0.20148 0.0
C338 C 0.17078 0.31048 0.26078 0.0
C339 C 0.14995 0.28187 0.26204 0.0
H340 H 0.19496 0.34757 0.23153 0.0
H341 H 0.18365 0.31953 0.28255 0.0
S342 S 0.10173 0.24507 0.19228 0.0
N343 N 0.12377 0.27597 0.17593 0.0
N344 N 0.11126 0.24549 0.23163 0.0
C345 C 0.13327 0.27175 0.23304 0.0
C346 C 0.14005 0.28829 0.20277 0.0
C347 C 0.31864 0.70384 0.72028 0.0
C348 C 0.31336 0.6876 0.75041 0.0
C349 C 0.31036 0.68819 0.69062 0.0
C350 C 0.29662 0.6557 0.69006 0.0
H351 H 0.32719 0.72959 0.71958 0.0
H352 H 0.31285 0.70242 0.66821 0.0
S353 S 0.28517 0.59987 0.76183 0.0
N354 N 0.29863 0.63554 0.77757 0.0
N355 N 0.28347 0.60589 0.72193 0.0
C356 C 0.29426 0.63813 0.71985 0.0
C357 C 0.3025 0.65414 0.75001 0.0
C358 C 0.62488 0.21273 0.73199 0.0
C359 C 0.62977 0.19707 0.70153 0.0
C360 C 0.63066 0.19556 0.7614 0.0
C361 C 0.64145 0.16208 0.76142 0.0
H362 H 0.61873 0.23907 0.73323 0.0
H363 H 0.62881 0.20931 0.78411 0.0
S364 S 0.65027 0.10767 0.68843 0.0
N365 N 0.64057 0.14474 0.67336 0.0
N366 N 0.65111 0.11235 0.72851 0.0
C367 C 0.64313 0.14527 0.73122 0.0
C368 C 0.6374 0.16279 0.70131 0.0
C369 C 0.82436 0.79533 0.20857 0.0
C370 C 0.83588 0.76214 0.21026 0.0
C371 C 0.81737 0.81354 0.23687 0.0
C372 C 0.82143 0.79934 0.26817 0.0
H373 H 0.81918 0.80699 0.18516 0.0
H374 H 0.8071 0.83847 0.23399 0.0
S375 S 0.85615 0.71507 0.28624 0.0
N376 N 0.85512 0.71713 0.24594 0.0
N377 N 0.84177 0.75139 0.29923 0.0
C378 C 0.83566 0.76715 0.27035 0.0
C379 C 0.84292 0.74855 0.24138 0.0
C380 C 0.29261 0.13802 0.29093 0.0
C381 C 0.28651 0.11856 0.26286 0.0
C382 C 0.26574 0.15023 0.30969 0.0
C383 C 0.23158 0.14348 0.30125 0.0
H384 H 0.31823 0.14567 0.29747 0.0
H385 H 0.27191 0.16659 0.32997 0.0
S386 S 0.20212 0.08773 0.23419 0.0
N387 N 0.24395 0.08859 0.23061 0.0
N388 N 0.19339 0.11163 0.2659 0.0
C389 C 0.22521 0.12132 0.27518 0.0
C390 C 0.25268 0.10884 0.256 0.0
C391 C 0.24071 0.83706 0.75905 0.0
C392 C 0.23471 0.82252 0.78979 0.0
C393 C 0.21369 0.84799 0.73932 0.0
C394 C 0.17964 0.84482 0.74959 0.0
H395 H 0.26622 0.83803 0.74915 0.0
H396 H 0.21956 0.85712 0.71504 0.0
S397 S 0.15109 0.81553 0.83115 0.0
N398 N 0.19281 0.81069 0.83187 0.0
N399 N 0.142 0.83125 0.79482 0.0
C400 C 0.17361 0.83336 0.78159 0.0
C401 C 0.20114 0.8222 0.80167 0.0
C402 C 0.75235 0.35081 0.71375 0.0
C403 C 0.7857 0.3446 0.70283 0.0
C404 C 0.72397 0.34119 0.69515 0.0
C405 C 0.72785 0.32498 0.66493 0.0
H406 H 0.74796 0.36126 0.73778 0.0
H407 H 0.69891 0.34463 0.70554 0.0
S408 S 0.80937 0.31006 0.62191 0.0
N409 N 0.82079 0.32645 0.65734 0.0
N410 N 0.76738 0.30836 0.62237 0.0
C411 C 0.76091 0.32162 0.65228 0.0
C412 C 0.78985 0.33148 0.6712 0.0
C413 C 0.7412 0.61922 0.19005 0.0
C414 C 0.73862 0.63858 0.16144 0.0
C415 C 0.71235 0.61112 0.20834 0.0
C416 C 0.67969 0.622 0.19877 0.0
H417 H 0.76588 0.61198 0.19965 0.0
H418 H 0.71608 0.59784 0.23117 0.0
S419 S 0.65833 0.66675 0.12178 0.0
N420 N 0.70021 0.66355 0.1214 0.0
N421 N 0.64593 0.64837 0.15585 0.0
C422 C 0.67636 0.63842 0.16847 0.0
C423 C 0.70583 0.64672 0.14981 0.0
C424 C 0.29142 0.20604 0.11716 0.0
C425 C 0.32234 0.20548 0.13464 0.0
C426 C 0.27574 0.23623 0.10884 0.0
C427 C 0.29023 0.26723 0.11771 0.0
H428 H 0.27831 0.183 0.11105 0.0
H429 H 0.25119 0.23506 0.09666 0.0
S430 S 0.37397 0.27969 0.15853 0.0
N431 N 0.36923 0.23875 0.15672 0.0
N432 N 0.3395 0.29549 0.14127 0.0
C433 C 0.3224 0.26712 0.133 0.0
C434 C 0.33849 0.23628 0.14142 0.0
C435 C 0.82072 0.22244 0.813 0.0
C436 C 0.81294 0.25315 0.82808 0.0
C437 C 0.80254 0.19326 0.82031 0.0
C438 C 0.77586 0.19353 0.84304 0.0
H439 H 0.84 0.22108 0.79424 0.0
H440 H 0.8084 0.17076 0.80679 0.0
S441 S 0.74937 0.26595 0.89365 0.0
N442 N 0.77958 0.28099 0.86986 0.0
N443 N 0.74553 0.22612 0.88381 0.0
C444 C 0.76951 0.22345 0.86012 0.0
C445 C 0.78798 0.25324 0.85258 0.0
C446 C 0.69351 0.74474 0.35332 0.0
C447 C 0.6835 0.77588 0.34037 0.0
C448 C 0.67622 0.71528 0.34519 0.0
C449 C 0.64801 0.71561 0.32388 0.0
H450 H 0.71594 0.74269 0.36873 0.0
H451 H 0.686 0.69193 0.35477 0.0
S452 S 0.60789 0.79127 0.28765 0.0
N453 N 0.641 0.80574 0.3083 0.0
N454 N 0.6082 0.75041 0.29316 0.0
C455 C 0.63604 0.74688 0.31276 0.0
C456 C 0.65382 0.77697 0.32098 0.0
C457 C 0.12588 0.72748 0.63795 0.0
C458 C 0.13536 0.75705 0.62156 0.0
C459 C 0.14037 0.69664 0.62986 0.0
C460 C 0.16483 0.69419 0.60504 0.0
H461 H 0.10861 0.72831 0.65848 0.0
H462 H 0.13393 0.67506 0.64462 0.0
S463 S 0.19282 0.76283 0.55006 0.0
N464 N 0.16673 0.78096 0.57603 0.0
N465 N 0.19379 0.72303 0.56066 0.0
C466 C 0.17212 0.723 0.58646 0.0
C467 C 0.15747 0.75442 0.59479 0.0
C468 C 0.85392 0.70896 0.78616 0.0
C469 C 0.83476 0.68131 0.77523 0.0
C470 C 0.8658 0.73318 0.76432 0.0
C471 C 0.85905 0.73086 0.73056 0.0
H472 H 0.85838 0.71299 0.81202 0.0
H473 H 0.87883 0.75478 0.77436 0.0
S474 S 0.81594 0.65996 0.6886 0.0
N475 N 0.81395 0.65047 0.72782 0.0
N476 N 0.83631 0.69604 0.68672 0.0
C477 C 0.84262 0.70181 0.71894 0.0
C478 C 0.83047 0.67706 0.74126 0.0
C479 C 0.63223 0.26724 0.21533 0.0
C480 C 0.61118 0.24158 0.2274 0.0
C481 C 0.64536 0.29203 0.23602 0.0
C482 C 0.63799 0.2922 0.26967 0.0
H483 H 0.64042 0.26717 0.19009 0.0
H484 H 0.66308 0.30994 0.22579 0.0
S485 S 0.57797 0.23504 0.31203 0.0
N486 N 0.57901 0.22112 0.27408 0.0
N487 N 0.60371 0.26771 0.31299 0.0
C488 C 0.6143 0.26865 0.28141 0.0
C489 C 0.6009 0.24335 0.2603 0.0
C490 C 0.35394 0.74345 0.19449 0.0
C491 C 0.34815 0.74564 0.22835 0.0
C492 C 0.33816 0.76533 0.17251 0.0
C493 C 0.31596 0.79048 0.18339 0.0
H494 H 0.36931 0.72352 0.18452 0.0
H495 H 0.34228 0.7614 0.14664 0.0
S496 S 0.29754 0.81111 0.27004 0.0
N497 N 0.32258 0.77811 0.27208 0.0
N498 N 0.29292 0.81935 0.23072 0.0
C499 C 0.31237 0.79492 0.21737 0.0
C500 C 0.32847 0.77252 0.23984 0.0
C501 C 0.15231 0.16802 0.72781 0.0
C502 C 0.14123 0.16742 0.69499 0.0
C503 C 0.14007 0.19192 0.74977 0.0
C504 C 0.11628 0.21614 0.73976 0.0
H505 H 0.17231 0.15144 0.73614 0.0
H506 H 0.1511 0.19273 0.77409 0.0
S507 S 0.07311 0.22023 0.65884 0.0
N508 N 0.10063 0.18937 0.65528 0.0
N509 N 0.07765 0.23428 0.69654 0.0
C510 C 0.1024 0.21362 0.70804 0.0
C511 C 0.11485 0.18925 0.68567 0.0
C512 C 0.72122 0.8792 0.73381 0.0
C513 C 0.69474 0.86339 0.71623 0.0
C514 C 0.75499 0.87758 0.72335 0.0
C515 C 0.76375 0.8602 0.69478 0.0
H516 H 0.71626 0.89135 0.75695 0.0
H517 H 0.77451 0.88853 0.73884 0.0
S518 S 0.70317 0.82099 0.63599 0.0
N519 N 0.67894 0.83443 0.66605 0.0
N520 N 0.74247 0.83163 0.64614 0.0
C521 C 0.73717 0.84717 0.67521 0.0
C522 C 0.70267 0.84873 0.68597 0.0
C523 C 0.73037 0.12816 0.17432 0.0
C524 C 0.70458 0.10903 0.18925 0.0
C525 C 0.76459 0.12466 0.18358 0.0
C526 C 0.77431 0.10187 0.20809 0.0
H527 H 0.72397 0.14745 0.15676 0.0
H528 H 0.78311 0.14157 0.17304 0.0
S529 S 0.71776 0.04059 0.24933 0.0
N530 N 0.69194 0.06265 0.22581 0.0
N531 N 0.75622 0.05599 0.2431 0.0
C532 C 0.74925 0.08031 0.22082 0.0
C533 C 0.7144 0.08393 0.21146 0.0
C534 C 0.23962 0.62937 0.27478 0.0
C535 C 0.26643 0.61186 0.25986 0.0
C536 C 0.20592 0.62551 0.26409 0.0
C537 C 0.19769 0.60398 0.23806 0.0
H538 H 0.24475 0.64755 0.29379 0.0
H539 H 0.18654 0.64092 0.27519 0.0
S540 S 0.25753 0.54753 0.19508 0.0
N541 N 0.28179 0.56866 0.22087 0.0
N542 N 0.21844 0.56127 0.2008 0.0
C543 C 0.22384 0.58424 0.22476 0.0
C544 C 0.25819 0.58821 0.23565 0.0
C545 C 0.25095 0.38123 0.75141 0.0
C546 C 0.27805 0.3615 0.76311 0.0
C547 C 0.2176 0.37588 0.76194 0.0
C548 C 0.20991 0.35067 0.78472 0.0
H549 H 0.25512 0.39963 0.73239 0.0
H550 H 0.19748 0.39047 0.7507 0.0
S551 S 0.27257 0.29664 0.8278 0.0
N552 N 0.29573 0.31914 0.80235 0.0
N553 N 0.23292 0.3092 0.82243 0.0
C554 C 0.2372 0.33315 0.79922 0.0
C555 C 0.27133 0.33857 0.78837 0.0
C556 C 0.70223 0.73247 0.85447 0.0
C557 C 0.69059 0.70013 0.84649 0.0
C558 C 0.68305 0.76084 0.84638 0.0
C559 C 0.65156 0.75787 0.83006 0.0
H560 H 0.72728 0.73612 0.86513 0.0
H561 H 0.69401 0.78525 0.85114 0.0
S562 S 0.60637 0.67871 0.81042 0.0
N563 N 0.64316 0.6667 0.82617 0.0
N564 N 0.60711 0.71995 0.81112 0.0
C565 C 0.63826 0.72563 0.82473 0.0
C566 C 0.65777 0.69678 0.83292 0.0
C567 C 0.16064 0.70337 0.1068 0.0
C568 C 0.13224 0.70337 0.12762 0.0
C569 C 0.17795 0.73306 0.09936 0.0
C570 C 0.16757 0.76393 0.11246 0.0
H571 H 0.17105 0.68007 0.09791 0.0
H572 H 0.20092 0.73134 0.08494 0.0
S573 S 0.09005 0.7784 0.16192 0.0
N574 N 0.09104 0.73755 0.15653 0.0
N575 N 0.12364 0.7933 0.14263 0.0
C576 C 0.13723 0.76468 0.13056 0.0
C577 C 0.11956 0.73443 0.13811 0.0
C578 C 0.28956 0.26404 0.62811 0.0
C579 C 0.32034 0.2636 0.64589 0.0
C580 C 0.27248 0.23433 0.62015 0.0
C581 C 0.28547 0.20304 0.62976 0.0
H582 H 0.27762 0.28752 0.62163 0.0
H583 H 0.248 0.23612 0.60793 0.0
S584 S 0.36831 0.18783 0.67119 0.0
N585 N 0.36549 0.2289 0.66876 0.0
N586 N 0.33318 0.17319 0.65402 0.0
C587 C 0.31746 0.20211 0.64533 0.0
C588 C 0.33494 0.23234 0.65333 0.0
C589 C 0.7754 0.23668 0.34341 0.0
C590 C 0.78753 0.26814 0.33321 0.0
C591 C 0.79305 0.20731 0.33589 0.0
C592 C 0.82349 0.20837 0.31798 0.0
H593 H 0.75102 0.23445 0.3555 0.0
H594 H 0.78166 0.18357 0.34252 0.0
S595 S 0.86971 0.28495 0.29198 0.0
N596 N 0.8344 0.29893 0.30878 0.0
N597 N 0.86778 0.24385 0.29493 0.0
C598 C 0.83742 0.23987 0.31028 0.0
C599 C 0.81939 0.26972 0.31782 0.0
C600 C 0.12579 0.15604 0.48546 0.0
C601 C 0.15336 0.1734 0.49951 0.0
C602 C 0.11662 0.16119 0.45274 0.0
C603 C 0.13398 0.18465 0.4334 0.0
H604 H 0.11238 0.13707 0.4993 0.0
H605 H 0.09631 0.14616 0.44226 0.0
S606 S 0.20579 0.23879 0.4598 0.0
N607 N 0.19677 0.21612 0.49241 0.0
N608 N 0.17844 0.22699 0.43119 0.0
C609 C 0.16024 0.20362 0.44775 0.0
C610 C 0.17026 0.19764 0.48078 0.0
C611 C 0.28566 0.7766 0.96563 0.0
C612 C 0.30641 0.79398 -0.01197 0.0
C613 C 0.29677 0.77045 0.93371 0.0
C614 C 0.32851 0.78238 0.92313 0.0
H615 H 0.2605 0.76817 0.97266 0.0
H616 H 0.27979 0.75781 0.91676 0.0
S617 S 0.39251 0.82854 0.97231 0.0
N618 N 0.36072 0.82176 -0.00222 0.0
N619 N 0.38082 0.81149 0.93721 0.0
C620 C 0.34971 0.79918 0.94535 0.0
C621 C 0.33886 0.80462 0.97805 0.0
C622 C 0.67586 0.32758 0.49101 0.0
C623 C 0.66083 0.30855 0.46591 0.0
C624 C 0.66491 0.32462 0.52331 0.0
C625 C 0.63901 0.30199 0.53188 0.0
H626 H 0.69572 0.34557 0.4856 0.0
H627 H 0.67707 0.34007 0.54175 0.0
S628 S 0.5923 0.24536 0.47559 0.0
N629 N 0.61903 0.26586 0.45177 0.0
N630 N 0.5991 0.25958 0.51297 0.0
C631 C 0.62426 0.28218 0.50723 0.0
C632 C 0.63497 0.28568 0.4741 0.0
C633 C 0.82269 0.68789 0.02638 0.0
C634 C 0.85181 0.67132 0.03805 0.0
C635 C 0.81248 0.68477 -0.00636 0.0
C636 C 0.83167 0.66582 0.97151 0.0
H637 H 0.80667 0.70171 0.04304 0.0
H638 H 0.78903 0.69659 -0.01423 0.0
S639 S 0.91118 0.61955 -0.01007 0.0
N640 N 0.90022 0.63631 0.02521 0.0
N641 N 0.88203 0.63171 0.96318 0.0
C642 C 0.86185 0.65068 -0.01741 0.0
C643 C 0.87164 0.65306 0.01608 0.0
C644 C 0.45236 0.11992 0.11745 0.0
C645 C 0.44285 0.09658 0.14146 0.0
C646 C 0.48579 0.1318 0.11563 0.0
C647 C 0.51103 0.12022 0.13728 0.0
H648 H 0.43357 0.1303 0.10083 0.0
H649 H 0.49178 0.15062 0.09747 0.0
S650 S 0.49982 0.05696 0.20271 0.0
N651 N 0.46156 0.06093 0.18619 0.0
N652 N 0.52485 0.08263 0.1822 0.0
C653 C 0.5023 0.09561 0.16033 0.0
C654 C 0.46805 0.08397 0.16259 0.0
C655 C 0.97748 0.84273 0.61018 0.0
C656 C 0.95485 0.85256 0.63477 0.0
C657 C 0.01089 0.85477 0.60964 0.0
C658 C 0.02307 0.8764 0.63418 0.0
H659 H 0.96951 0.82509 0.59155 0.0
H660 H 0.02774 0.8456 0.59081 0.0
S661 S 0.97319 0.91121 0.70278 0.0
N662 N 0.946 0.88687 0.683 0.0
N663 N 0.00942 0.90872 0.68262 0.0
C664 C 0.00033 0.8874 0.65823 0.0
C665 C 0.96601 0.87568 0.65835 0.0
C666 C -0.01214 0.31515 0.84558 0.0
C667 C 0.01334 0.32913 0.82583 0.0
C668 C 0.95449 0.32718 0.84435 0.0
C669 C 0.94541 0.35305 0.82275 0.0
H670 H -0.00628 0.29472 0.86206 0.0
H671 H 0.93547 0.31528 0.85955 0.0
S672 S 0.00286 0.39858 0.7665 0.0
N673 N 0.02762 0.37096 0.78487 0.0
N674 N 0.96449 0.39293 0.78189 0.0
C675 C 0.97072 0.36757 0.80322 0.0
C676 C 0.00484 0.35577 0.80494 0.0
C677 C 0.46575 0.60714 0.29942 0.0
C678 C 0.45593 0.6311 0.32261 0.0
C679 C 0.4994 0.59579 0.29806 0.0
C680 C 0.52405 0.60741 0.32038 0.0
H681 H 0.44763 0.598 0.2814 0.0
H682 H 0.50628 0.57821 0.27913 0.0
S683 S 0.51034 0.66845 0.38737 0.0
N684 N 0.47283 0.66498 0.36924 0.0
N685 N 0.53592 0.64311 0.36736 0.0
C686 C 0.51412 0.63034 0.3446 0.0
C687 C 0.48008 0.64236 0.34551 0.0
C688 C 0.15207 0.45013 0.07071 0.0
C689 C 0.18132 0.43447 0.08347 0.0
C690 C 0.14383 0.48298 0.07934 0.0
C691 C 0.1641 0.5008 0.10172 0.0
H692 H 0.13456 0.43633 0.05518 0.0
H693 H 0.12015 0.49351 0.07038 0.0
S694 S 0.2454 0.47277 0.13892 0.0
N695 N 0.23262 0.44076 0.11651 0.0
N696 N 0.21623 0.50201 0.13391 0.0
C697 C 0.19448 0.4863 0.11299 0.0
C698 C 0.20339 0.45321 0.10349 0.0
C699 C 0.61351 -0.00813 0.84207 0.0
C700 C 0.63688 0.96641 0.84939 0.0
C701 C 0.62 0.02497 0.85093 0.0
C702 C 0.6505 0.03406 0.86683 0.0
H703 H 0.59019 -0.01373 0.82886 0.0
H704 H 0.60145 0.04373 0.84405 0.0
S705 S 0.71925 0.9764 0.89307 0.0
N706 N 0.69085 0.95194 0.87504 0.0
N707 N 0.7036 0.01463 0.89107 0.0
C708 C 0.67371 0.00869 0.8752 0.0
C709 C 0.66673 0.97472 0.86669 0.0
C710 C 0.85004 0.97353 0.34033 0.0
C711 C 0.82716 -6e-05 0.34514 0.0
C712 C 0.84228 0.94115 0.35067 0.0
C713 C 0.81096 0.93373 0.36557 0.0
H714 H 0.87401 0.97781 0.328 0.0
H715 H 0.86054 0.92158 0.34574 0.0
S716 S 0.74289 -0.00553 0.38514 0.0
N717 N 0.77266 0.01716 0.36724 0.0
N718 N 0.75751 0.95581 0.38603 0.0
C719 C 0.78817 0.9601 0.37137 0.0
C720 C 0.79643 -0.00664 0.36136 0.0
C721 C 0.28645 0.47396 0.5972 0.0
C722 C 0.3052 0.47209 0.62666 0.0
C723 C 0.27725 0.50496 0.58365 0.0
C724 C 0.28712 0.53488 0.59888 0.0
H725 H 0.27918 0.45141 0.58432 0.0
H726 H 0.26337 0.50555 0.56068 0.0
S727 S 0.33383 0.54408 0.67739 0.0
N728 N 0.33122 0.50336 0.67153 0.0
N729 N 0.31446 0.56116 0.64566 0.0
C730 C 0.3049 0.53342 0.62868 0.0
C731 C 0.31382 0.50212 0.64269 0.0
C732 C 0.83308 0.78125 0.48485 0.0
C733 C 0.80225 0.79596 0.47467 0.0
C734 C 0.84112 0.77794 0.51816 0.0
C735 C 0.81876 0.78964 0.54222 0.0
H736 H 0.85182 0.77362 0.46705 0.0
H737 H 0.86586 0.76817 0.52501 0.0
S738 S 0.73269 0.82491 0.52897 0.0
N739 N 0.74738 0.81817 0.49183 0.0
N740 N 0.76313 0.81264 0.55419 0.0
C741 C 0.78697 0.80216 0.53254 0.0
C742 C 0.77852 0.80511 0.49879 0.0
C743 C 0.62444 0.18779 -0.01911 0.0
C744 C 0.65613 0.1757 0.97021 0.0
C745 C 0.61754 0.19136 0.01434 0.0
C746 C 0.64198 0.18253 0.03802 0.0
H747 H 0.60427 0.19297 0.96344 0.0
H748 H 0.59225 0.19894 0.0217 0.0
S749 S 0.73052 0.15523 0.0232 0.0
N750 N 0.7137 0.15947 -0.01364 0.0
N751 N 0.70004 0.16522 0.04896 0.0
C752 C 0.67439 0.17276 0.02775 0.0
C753 C 0.68167 0.16965 -0.00613 0.0
C754 C 0.28582 0.66071 0.42382 0.0
C755 C 0.315 0.67934 0.41611 0.0
C756 C 0.27545 0.65677 0.45615 0.0
C757 C 0.29424 0.67079 0.48217 0.0
H758 H 0.27132 0.64826 0.40475 0.0
H759 H 0.25329 0.64132 0.46074 0.0
S760 S 0.37122 0.72419 0.47459 0.0
N761 N 0.36132 0.71408 0.43655 0.0
N762 N 0.34219 0.70615 0.49781 0.0
C763 C 0.32267 0.69083 0.4747 0.0
C764 C 0.33294 0.69528 0.44152 0.0
C765 C 0.12163 0.29263 -0.01172 0.0
C766 C 0.15336 0.28149 -9e-05 0.0
C767 C 0.11289 0.2894 0.95526 0.0
C768 C 0.13509 0.274 0.93315 0.0
H769 H 0.10465 0.30633 0.00413 0.0
H770 H 0.08933 0.30048 0.94662 0.0
S771 S 0.2187 0.23617 0.95234 0.0
N772 N 0.20553 0.25152 -0.01246 0.0
N773 N 0.18825 0.24437 0.92547 0.0
C774 C 0.16542 0.26005 0.94495 0.0
C775 C 0.17478 0.26407 0.97844 0.0
C776 C 0.4871 0.85711 0.78721 0.0
C777 C 0.5137 0.83974 0.80266 0.0
C778 C 0.45384 0.84418 0.78709 0.0
C779 C 0.44644 0.81312 0.8017 0.0
H780 H 0.49181 0.88129 0.77616 0.0
H781 H 0.43375 0.85885 0.77594 0.0
S782 S 0.50872 0.75642 0.84197 0.0
N783 N 0.53144 0.78919 0.83077 0.0
N784 N 0.46936 0.76435 0.82996 0.0
C785 C 0.47341 0.79484 0.81576 0.0
C786 C 0.50697 0.80832 0.81642 0.0
C787 C -0.01654 0.10446 0.28816 0.0
C788 C 0.95502 0.12284 0.29812 0.0
C789 C 0.01633 0.11814 0.29067 0.0
C790 C 0.02157 0.15079 0.30268 0.0
H791 H 0.98042 0.07896 0.27971 0.0
H792 H 0.03779 0.1027 0.28397 0.0
S793 S 0.95404 0.21031 0.32764 0.0
N794 N 0.9333 0.17586 0.31759 0.0
N795 N -0.00531 0.20204 0.3217 0.0
C796 C -0.00717 0.16999 0.31081 0.0
C797 C 0.95961 0.15585 0.30872 0.0
C798 C 0.00431 0.61196 0.18981 0.0
C799 C 0.01296 0.58541 0.16901 0.0
C800 C 0.97116 0.62478 0.19008 0.0
C801 C 0.94543 0.61072 0.17038 0.0
H802 H 0.0237 0.62456 0.20414 0.0
H803 H 0.96599 0.64676 0.20467 0.0
S804 S 0.95419 0.53783 0.11518 0.0
N805 N -0.00724 0.54357 0.13052 0.0
N806 N 0.93 0.5667 0.13204 0.0
C807 C 0.95311 0.58231 0.15168 0.0
C808 C -0.01294 0.56989 0.15072 0.0
C809 C 0.45898 0.34332 0.63044 0.0
C810 C 0.44982 0.36426 0.65651 0.0
C811 C 0.49194 0.33082 0.62777 0.0
C812 C 0.51731 0.33926 0.65066 0.0
H813 H 0.44033 0.33567 0.61228 0.0
H814 H 0.49756 0.31437 0.60749 0.0
S815 S 0.50707 0.39441 0.72267 0.0
N816 N 0.46894 0.39356 0.70538 0.0
N817 N 0.53161 0.37063 0.69975 0.0
C818 C 0.50895 0.36094 0.67638 0.0
C819 C 0.47499 0.37324 0.67949 0.0
C820 C 0.8319 0.52388 0.8415 0.0
C821 C 0.80363 0.53374 0.85999 0.0
C822 C 0.83586 0.4908 0.83154 0.0
C823 C 0.81214 0.46601 0.84023 0.0
H824 H 0.85086 0.54199 0.83396 0.0
H825 H 0.85796 0.48458 0.81705 0.0
S826 S 0.73428 0.47846 0.88945 0.0
N827 N 0.7516 0.51607 0.88706 0.0
N828 N 0.75975 0.45324 0.86907 0.0
C829 C 0.7841 0.47521 0.85936 0.0
C830 C 0.77964 0.50926 0.86898 0.0
C831 C 0.31211 0.9363 0.12035 0.0
C832 C 0.28364 0.92976 0.10037 0.0
C833 C 0.31875 0.96832 0.13215 0.0
C834 C 0.29763 -0.00463 0.12392 0.0
H835 H 0.32929 0.91637 0.1274 0.0
H836 H 0.34106 0.97196 0.14746 0.0
S837 S 0.2199 -0.0083 0.07215 0.0
N838 N 0.2338 0.95276 0.07305 0.0
N839 N 0.24707 0.01374 0.09447 0.0
C840 C 0.26917 -0.01058 0.10372 0.0
C841 C 0.26192 0.95639 0.09222 0.0
C842 C 0.16599 0.97646 0.58167 0.0
C843 C 0.18178 0.96129 0.60875 0.0
C844 C 0.17131 0.01037 0.57486 0.0
C845 C 0.19336 0.02981 0.5943 0.0
H846 H 0.14735 0.9628 0.56726 0.0
H847 H 0.15695 0.0218 0.55512 0.0
S848 S 0.24444 0.00029 0.6651 0.0
N849 N 0.22247 0.96711 0.65331 0.0
N850 N 0.23384 0.03054 0.63953 0.0
C851 C 0.21158 0.01413 0.61965 0.0
C852 C 0.20539 0.97987 0.62716 0.0
C853 C 0.66465 0.45947 0.37371 0.0
C854 C 0.68661 0.43976 0.35482 0.0
C855 C 0.65938 0.49324 0.3662 0.0
C856 C 0.67509 0.50793 0.33897 0.0
H857 H 0.65081 0.44849 0.39391 0.0
H858 H 0.64125 0.5073 0.38051 0.0
S859 S 0.73624 0.46766 0.28292 0.0
N860 N 0.72599 0.43798 0.30921 0.0
N861 N 0.71466 0.50108 0.29413 0.0
C862 C 0.69798 0.48887 0.32061 0.0
C863 C 0.70415 0.45481 0.32883 0.0
loop_
_geom_bond_atom_site_label_1
_geom_bond_atom_site_label_2
_geom_bond_distance
_geom_bond_site_symmetry_2
_ccdc_geom_bond_type
C0 O1 1.306 . S
C0 O3 1.160 . S
O1 C0 1.306 . S
O1 Cd2 2.228 . S
Cd2 O1 2.228 . S
Cd2 O6 2.273 . S
Cd2 O10 2.277 . S
O3 C0 1.160 . S
O3 Cd4 2.203 . S
Cd4 O3 2.203 . S
Cd4 O6 2.411 . S
Cd4 O7 2.333 . S
Cd4 O8 2.352 . S
Cd4 O12 2.277 . S
Cd4 O13 2.356 . S
C5 O10 1.209 . S
C5 O12 1.226 . S
O6 Cd2 2.273 . S
O6 Cd4 2.411 . S
O6 C9 1.320 . S
O7 Cd4 2.333 . S
O7 C9 1.214 . S
O8 Cd4 2.352 . S
O8 C11 1.258 . S
C9 O6 1.320 . S
C9 O7 1.214 . S
O10 Cd2 2.277 . S
O10 C5 1.209 . S
C11 O8 1.258 . S
C11 O13 1.282 . S
O12 Cd4 2.277 . S
O12 C5 1.226 . S
O13 Cd4 2.356 . S
O13 C11 1.282 . S
C14 O15 1.306 . S
C14 O17 1.160 . S
O15 C14 1.306 . S
O15 Cd16 2.228 . S
Cd16 O15 2.228 . S
Cd16 O20 2.273 . S
Cd16 O24 2.277 . S
O17 C14 1.160 . S
O17 Cd18 2.203 . S
Cd18 O17 2.203 . S
Cd18 O20 2.411 . S
Cd18 O21 2.333 . S
Cd18 O22 2.352 . S
Cd18 O26 2.277 . S
Cd18 O27 2.356 . S
C19 O24 1.209 . S
C19 O26 1.226 . S
O20 Cd16 2.273 . S
O20 Cd18 2.411 . S
O20 C23 1.320 . S
O21 Cd18 2.333 . S
O21 C23 1.214 . S
O22 Cd18 2.352 . S
O22 C25 1.258 . S
C23 O20 1.320 . S
C23 O21 1.214 . S
O24 Cd16 2.277 . S
O24 C19 1.209 . S
C25 O22 1.258 . S
C25 O27 1.282 . S
O26 Cd18 2.277 . S
O26 C19 1.226 . S
O27 Cd18 2.356 . S
O27 C25 1.282 . S
C28 O29 1.306 . S
C28 O31 1.160 . S
O29 C28 1.306 . S
O29 Cd30 2.228 . S
Cd30 O29 2.228 . S
Cd30 O34 2.273 . S
Cd30 O38 2.277 . S
O31 C28 1.160 . S
O31 Cd32 2.203 . S
Cd32 O31 2.203 . S
Cd32 O34 2.411 . S
Cd32 O35 2.333 . S
Cd32 O36 2.352 . S
Cd32 O40 2.277 . S
Cd32 O41 2.356 . S
C33 O38 1.209 . S
C33 O40 1.226 . S
O34 Cd30 2.273 . S
O34 Cd32 2.411 . S
O34 C37 1.320 . S
O35 Cd32 2.333 . S
O35 C37 1.214 . S
O36 Cd32 2.352 . S
O36 C39 1.258 . S
C37 O34 1.320 . S
C37 O35 1.214 . S
O38 Cd30 2.277 . S
O38 C33 1.209 . S
C39 O36 1.258 . S
C39 O41 1.282 . S
O40 Cd32 2.277 . S
O40 C33 1.226 . S
O41 Cd32 2.356 . S
O41 C39 1.282 . S
C42 O43 1.306 . S
C42 O45 1.160 . S
O43 C42 1.306 . S
O43 Cd44 2.228 . S
Cd44 O43 2.228 . S
Cd44 O48 2.273 . S
Cd44 O52 2.277 . S
O45 C42 1.160 . S
O45 Cd46 2.203 . S
Cd46 O45 2.203 . S
Cd46 O48 2.411 . S
Cd46 O49 2.333 . S
Cd46 O50 2.352 . S
Cd46 O54 2.277 . S
Cd46 O55 2.356 . S
C47 O52 1.209 . S
C47 O54 1.226 . S
O48 Cd44 2.273 . S
O48 Cd46 2.411 . S
O48 C51 1.320 . S
O49 Cd46 2.333 . S
O49 C51 1.214 . S
O50 Cd46 2.352 . S
O50 C53 1.258 . S
C51 O48 1.320 . S
C51 O49 1.214 . S
O52 Cd44 2.277 . S
O52 C47 1.209 . S
C53 O50 1.258 . S
C53 O55 1.282 . S
O54 Cd46 2.277 . S
O54 C47 1.226 . S
O55 Cd46 2.356 . S
O55 C53 1.282 . S
C56 O57 1.306 . S
C56 O59 1.160 . S
O57 C56 1.306 . S
O57 Cd58 2.228 . S
Cd58 O57 2.228 . S
Cd58 O62 2.273 . S
Cd58 O66 2.277 . S
O59 C56 1.160 . S
O59 Cd60 2.203 . S
Cd60 O59 2.203 . S
Cd60 O62 2.411 . S
Cd60 O63 2.333 . S
Cd60 O64 2.352 . S
Cd60 O68 2.277 . S
Cd60 O69 2.356 . S
C61 O66 1.209 . S
C61 O68 1.226 . S
O62 Cd58 2.273 . S
O62 Cd60 2.411 . S
O62 C65 1.320 . S
O63 Cd60 2.333 . S
O63 C65 1.214 . S
O64 Cd60 2.352 . S
O64 C67 1.258 . S
C65 O62 1.320 . S
C65 O63 1.214 . S
O66 Cd58 2.277 . S
O66 C61 1.209 . S
C67 O64 1.258 . S
C67 O69 1.282 . S
O68 Cd60 2.277 . S
O68 C61 1.226 . S
O69 Cd60 2.356 . S
O69 C67 1.282 . S
C70 O71 1.306 . S
C70 O73 1.160 . S
O71 C70 1.306 . S
O71 Cd72 2.228 . S
Cd72 O71 2.228 . S
Cd72 O76 2.273 . S
Cd72 O80 2.277 . S
O73 C70 1.160 . S
O73 Cd74 2.203 . S
Cd74 O73 2.203 . S
Cd74 O76 2.411 . S
Cd74 O77 2.333 . S
Cd74 O78 2.352 . S
Cd74 O82 2.277 . S
Cd74 O83 2.356 . S
C75 O80 1.209 . S
C75 O82 1.226 . S
O76 Cd72 2.273 . S
O76 Cd74 2.411 . S
O76 C79 1.320 . S
O77 Cd74 2.333 . S
O77 C79 1.214 . S
O78 Cd74 2.352 . S
O78 C81 1.258 . S
C79 O76 1.320 . S
C79 O77 1.214 . S
O80 Cd72 2.277 . S
O80 C75 1.209 . S
C81 O78 1.258 . S
C81 O83 1.282 . S
O82 Cd74 2.277 . S
O82 C75 1.226 . S
O83 Cd74 2.356 . S
O83 C81 1.282 . S
C84 O85 1.306 . S
C84 O87 1.160 . S
O85 C84 1.306 . S
O85 Cd86 2.228 . S
Cd86 O85 2.228 . S
Cd86 O90 2.273 . S
Cd86 O94 2.277 . S
O87 C84 1.160 . S
O87 Cd88 2.203 . S
Cd88 O87 2.203 . S
Cd88 O90 2.411 . S
Cd88 O91 2.333 . S
Cd88 O92 2.352 . S
Cd88 O96 2.277 . S
Cd88 O97 2.356 . S
C89 O94 1.209 . S
C89 O96 1.226 . S
O90 Cd86 2.273 . S
O90 Cd88 2.411 . S
O90 C93 1.320 . S
O91 Cd88 2.333 . S
O91 C93 1.214 . S
O92 Cd88 2.352 . S
O92 C95 1.258 . S
C93 O90 1.320 . S
C93 O91 1.214 . S
O94 Cd86 2.277 . S
O94 C89 1.209 . S
C95 O92 1.258 . S
C95 O97 1.282 . S
O96 Cd88 2.277 . S
O96 C89 1.226 . S
O97 Cd88 2.356 . S
O97 C95 1.282 . S
C98 O99 1.306 . S
C98 O101 1.160 . S
O99 C98 1.306 . S
O99 Cd100 2.228 . S
Cd100 O99 2.228 . S
Cd100 O104 2.273 . S
Cd100 O108 2.277 . S
O101 C98 1.160 . S
O101 Cd102 2.203 . S
Cd102 O101 2.203 . S
Cd102 O104 2.411 . S
Cd102 O105 2.333 . S
Cd102 O106 2.352 . S
Cd102 O110 2.277 . S
Cd102 O111 2.356 . S
C103 O108 1.209 . S
C103 O110 1.226 . S
O104 Cd100 2.273 . S
O104 Cd102 2.411 . S
O104 C107 1.320 . S
O105 Cd102 2.333 . S
O105 C107 1.214 . S
O106 Cd102 2.352 . S
O106 C109 1.258 . S
C107 O104 1.320 . S
C107 O105 1.214 . S
O108 Cd100 2.277 . S
O108 C103 1.209 . S
C109 O106 1.258 . S
C109 O111 1.282 . S
O110 Cd102 2.277 . S
O110 C103 1.226 . S
O111 Cd102 2.356 . S
O111 C109 1.282 . S
C112 O113 1.306 . S
C112 O115 1.160 . S
O113 C112 1.306 . S
O113 Cd114 2.228 . S
Cd114 O113 2.228 . S
Cd114 O118 2.273 . S
Cd114 O122 2.277 . S
O115 C112 1.160 . S
O115 Cd116 2.203 . S
Cd116 O115 2.203 . S
Cd116 O118 2.411 . S
Cd116 O119 2.333 . S
Cd116 O120 2.352 . S
Cd116 O124 2.277 . S
Cd116 O125 2.356 . S
C117 O122 1.209 . S
C117 O124 1.226 . S
O118 Cd114 2.273 . S
O118 Cd116 2.411 . S
O118 C121 1.320 . S
O119 Cd116 2.333 . S
O119 C121 1.214 . S
O120 Cd116 2.352 . S
O120 C123 1.258 . S
C121 O118 1.320 . S
C121 O119 1.214 . S
O122 Cd114 2.277 . S
O122 C117 1.209 . S
C123 O120 1.258 . S
C123 O125 1.282 . S
O124 Cd116 2.277 . S
O124 C117 1.226 . S
O125 Cd116 2.356 . S
O125 C123 1.282 . S
C126 O127 1.306 . S
C126 O129 1.160 . S
O127 C126 1.306 . S
O127 Cd128 2.228 . S
Cd128 O127 2.228 . S
Cd128 O132 2.273 . S
Cd128 O136 2.277 . S
O129 C126 1.160 . S
O129 Cd130 2.203 . S
Cd130 O129 2.203 . S
Cd130 O132 2.411 . S
Cd130 O133 2.333 . S
Cd130 O134 2.352 . S
Cd130 O138 2.277 . S
Cd130 O139 2.356 . S
C131 O136 1.209 . S
C131 O138 1.226 . S
O132 Cd128 2.273 . S
O132 Cd130 2.411 . S
O132 C135 1.320 . S
O133 Cd130 2.333 . S
O133 C135 1.214 . S
O134 Cd130 2.352 . S
O134 C137 1.258 . S
C135 O132 1.320 . S
C135 O133 1.214 . S
O136 Cd128 2.277 . S
O136 C131 1.209 . S
C137 O134 1.258 . S
C137 O139 1.282 . S
O138 Cd130 2.277 . S
O138 C131 1.226 . S
O139 Cd130 2.356 . S
O139 C137 1.282 . S
C140 O141 1.306 . S
C140 O143 1.160 . S
O141 C140 1.306 . S
O141 Cd142 2.228 . S
Cd142 O141 2.228 . S
Cd142 O146 2.273 . S
Cd142 O150 2.277 . S
O143 C140 1.160 . S
O143 Cd144 2.203 . S
Cd144 O143 2.203 . S
Cd144 O146 2.411 . S
Cd144 O147 2.333 . S
Cd144 O148 2.352 . S
Cd144 O152 2.277 . S
Cd144 O153 2.356 . S
C145 O150 1.209 . S
C145 O152 1.226 . S
O146 Cd142 2.273 . S
O146 Cd144 2.411 . S
O146 C149 1.320 . S
O147 Cd144 2.333 . S
O147 C149 1.214 . S
O148 Cd144 2.352 . S
O148 C151 1.258 . S
C149 O146 1.320 . S
C149 O147 1.214 . S
O150 Cd142 2.277 . S
O150 C145 1.209 . S
C151 O148 1.258 . S
C151 O153 1.282 . S
O152 Cd144 2.277 . S
O152 C145 1.226 . S
O153 Cd144 2.356 . S
O153 C151 1.282 . S
C154 O155 1.306 . S
C154 O157 1.160 . S
O155 C154 1.306 . S
O155 Cd156 2.228 . S
Cd156 O155 2.228 . S
Cd156 O160 2.273 . S
Cd156 O164 2.277 . S
O157 C154 1.160 . S
O157 Cd158 2.203 . S
Cd158 O157 2.203 . S
Cd158 O160 2.411 . S
Cd158 O161 2.333 . S
Cd158 O162 2.352 . S
Cd158 O166 2.277 . S
Cd158 O167 2.356 . S
C159 O164 1.209 . S
C159 O166 1.226 . S
O160 Cd156 2.273 . S
O160 Cd158 2.411 . S
O160 C163 1.320 . S
O161 Cd158 2.333 . S
O161 C163 1.214 . S
O162 Cd158 2.352 . S
O162 C165 1.258 . S
C163 O160 1.320 . S
C163 O161 1.214 . S
O164 Cd156 2.277 . S
O164 C159 1.209 . S
C165 O162 1.258 . S
C165 O167 1.282 . S
O166 Cd158 2.277 . S
O166 C159 1.226 . S
O167 Cd158 2.356 . S
O167 C165 1.282 . S
C168 O169 1.306 . S
C168 O171 1.160 . S
O169 C168 1.306 . S
O169 Cd170 2.228 . S
Cd170 O169 2.228 . S
Cd170 O174 2.273 . S
Cd170 O178 2.277 . S
O171 C168 1.160 . S
O171 Cd172 2.203 . S
Cd172 O171 2.203 . S
Cd172 O174 2.411 . S
Cd172 O175 2.333 . S
Cd172 O176 2.352 . S
Cd172 O180 2.277 . S
Cd172 O181 2.356 . S
C173 O178 1.209 . S
C173 O180 1.226 . S
O174 Cd170 2.273 . S
O174 Cd172 2.411 . S
O174 C177 1.320 . S
O175 Cd172 2.333 . S
O175 C177 1.214 . S
O176 Cd172 2.352 . S
O176 C179 1.258 . S
C177 O174 1.320 . S
C177 O175 1.214 . S
O178 Cd170 2.277 . S
O178 C173 1.209 . S
C179 O176 1.258 . S
C179 O181 1.282 . S
O180 Cd172 2.277 . S
O180 C173 1.226 . S
O181 Cd172 2.356 . S
O181 C179 1.282 . S
C182 O183 1.306 . S
C182 O185 1.160 . S
O183 C182 1.306 . S
O183 Cd184 2.228 . S
Cd184 O183 2.228 . S
Cd184 O188 2.273 . S
Cd184 O192 2.277 . S
O185 C182 1.160 . S
O185 Cd186 2.203 . S
Cd186 O185 2.203 . S
Cd186 O188 2.411 . S
Cd186 O189 2.333 . S
Cd186 O190 2.352 . S
Cd186 O194 2.277 . S
Cd186 O195 2.356 . S
C187 O192 1.209 . S
C187 O194 1.226 . S
O188 Cd184 2.273 . S
O188 Cd186 2.411 . S
O188 C191 1.320 . S
O189 Cd186 2.333 . S
O189 C191 1.214 . S
O190 Cd186 2.352 . S
O190 C193 1.258 . S
C191 O188 1.320 . S
C191 O189 1.214 . S
O192 Cd184 2.277 . S
O192 C187 1.209 . S
C193 O190 1.258 . S
C193 O195 1.282 . S
O194 Cd186 2.277 . S
O194 C187 1.226 . S
O195 Cd186 2.356 . S
O195 C193 1.282 . S
C196 O197 1.306 . S
C196 O199 1.160 . S
O197 C196 1.306 . S
O197 Cd198 2.228 . S
Cd198 O197 2.228 . S
Cd198 O202 2.273 . S
Cd198 O206 2.277 . S
O199 C196 1.160 . S
O199 Cd200 2.203 . S
Cd200 O199 2.203 . S
Cd200 O202 2.411 . S
Cd200 O203 2.333 . S
Cd200 O204 2.352 . S
Cd200 O208 2.277 . S
Cd200 O209 2.356 . S
C201 O206 1.209 . S
C201 O208 1.226 . S
O202 Cd198 2.273 . S
O202 Cd200 2.411 . S
O202 C205 1.320 . S
O203 Cd200 2.333 . S
O203 C205 1.214 . S
O204 Cd200 2.352 . S
O204 C207 1.258 . S
C205 O202 1.320 . S
C205 O203 1.214 . S
O206 Cd198 2.277 . S
O206 C201 1.209 . S
C207 O204 1.258 . S
C207 O209 1.282 . S
O208 Cd200 2.277 . S
O208 C201 1.226 . S
O209 Cd200 2.356 . S
O209 C207 1.282 . S
C210 O211 1.306 . S
C210 O213 1.160 . S
O211 C210 1.306 . S
O211 Cd212 2.228 . S
Cd212 O211 2.228 . S
Cd212 O216 2.273 . S
Cd212 O220 2.277 . S
O213 C210 1.160 . S
O213 Cd214 2.203 . S
Cd214 O213 2.203 . S
Cd214 O216 2.411 . S
Cd214 O217 2.333 . S
Cd214 O218 2.352 . S
Cd214 O222 2.277 . S
Cd214 O223 2.356 . S
C215 O220 1.209 . S
C215 O222 1.226 . S
O216 Cd212 2.273 . S
O216 Cd214 2.411 . S
O216 C219 1.320 . S
O217 Cd214 2.333 . S
O217 C219 1.214 . S
O218 Cd214 2.352 . S
O218 C221 1.258 . S
C219 O216 1.320 . S
C219 O217 1.214 . S
O220 Cd212 2.277 . S
O220 C215 1.209 . S
C221 O218 1.258 . S
C221 O223 1.282 . S
O222 Cd214 2.277 . S
O222 C215 1.226 . S
O223 Cd214 2.356 . S
O223 C221 1.282 . S
C224 O225 1.306 . S
C224 O227 1.160 . S
O225 C224 1.306 . S
O225 Cd226 2.228 . S
Cd226 O225 2.228 . S
Cd226 O230 2.273 . S
Cd226 O234 2.277 . S
O227 C224 1.160 . S
O227 Cd228 2.203 . S
Cd228 O227 2.203 . S
Cd228 O230 2.411 . S
Cd228 O231 2.333 . S
Cd228 O232 2.352 . S
Cd228 O236 2.277 . S
Cd228 O237 2.356 . S
C229 O234 1.209 . S
C229 O236 1.226 . S
O230 Cd226 2.273 . S
O230 Cd228 2.411 . S
O230 C233 1.320 . S
O231 Cd228 2.333 . S
O231 C233 1.214 . S
O232 Cd228 2.352 . S
O232 C235 1.258 . S
C233 O230 1.320 . S
C233 O231 1.214 . S
O234 Cd226 2.277 . S
O234 C229 1.209 . S
C235 O232 1.258 . S
C235 O237 1.282 . S
O236 Cd228 2.277 . S
O236 C229 1.226 . S
O237 Cd228 2.356 . S
O237 C235 1.282 . S
C238 O239 1.306 . S
C238 O241 1.160 . S
O239 C238 1.306 . S
O239 Cd240 2.228 . S
Cd240 O239 2.228 . S
Cd240 O244 2.273 . S
Cd240 O248 2.277 . S
O241 C238 1.160 . S
O241 Cd242 2.203 . S
Cd242 O241 2.203 . S
Cd242 O244 2.411 . S
Cd242 O245 2.333 . S
Cd242 O246 2.352 . S
Cd242 O250 2.277 . S
Cd242 O251 2.356 . S
C243 O248 1.209 . S
C243 O250 1.226 . S
O244 Cd240 2.273 . S
O244 Cd242 2.411 . S
O244 C247 1.320 . S
O245 Cd242 2.333 . S
O245 C247 1.214 . S
O246 Cd242 2.352 . S
O246 C249 1.258 . S
C247 O244 1.320 . S
C247 O245 1.214 . S
O248 Cd240 2.277 . S
O248 C243 1.209 . S
C249 O246 1.258 . S
C249 O251 1.282 . S
O250 Cd242 2.277 . S
O250 C243 1.226 . S
O251 Cd242 2.356 . S
O251 C249 1.282 . S
C252 O253 1.306 . S
C252 O255 1.160 . S
O253 C252 1.306 . S
O253 Cd254 2.228 . S
Cd254 O253 2.228 . S
Cd254 O258 2.273 . S
Cd254 O262 2.277 . S
O255 C252 1.160 . S
O255 Cd256 2.203 . S
Cd256 O255 2.203 . S
Cd256 O258 2.411 . S
Cd256 O259 2.333 . S
Cd256 O260 2.352 . S
Cd256 O264 2.277 . S
Cd256 O265 2.356 . S
C257 O262 1.209 . S
C257 O264 1.226 . S
O258 Cd254 2.273 . S
O258 Cd256 2.411 . S
O258 C261 1.320 . S
O259 Cd256 2.333 . S
O259 C261 1.214 . S
O260 Cd256 2.352 . S
O260 C263 1.258 . S
C261 O258 1.320 . S
C261 O259 1.214 . S
O262 Cd254 2.277 . S
O262 C257 1.209 . S
C263 O260 1.258 . S
C263 O265 1.282 . S
O264 Cd256 2.277 . S
O264 C257 1.226 . S
O265 Cd256 2.356 . S
O265 C263 1.282 . S
C266 O267 1.306 . S
C266 O269 1.160 . S
O267 C266 1.306 . S
O267 Cd268 2.228 . S
Cd268 O267 2.228 . S
Cd268 O272 2.273 . S
Cd268 O276 2.277 . S
O269 C266 1.160 . S
O269 Cd270 2.203 . S
Cd270 O269 2.203 . S
Cd270 O272 2.411 . S
Cd270 O273 2.333 . S
Cd270 O274 2.352 . S
Cd270 O278 2.277 . S
Cd270 O279 2.356 . S
C271 O276 1.209 . S
C271 O278 1.226 . S
O272 Cd268 2.273 . S
O272 Cd270 2.411 . S
O272 C275 1.320 . S
O273 Cd270 2.333 . S
O273 C275 1.214 . S
O274 Cd270 2.352 . S
O274 C277 1.258 . S
C275 O272 1.320 . S
C275 O273 1.214 . S
O276 Cd268 2.277 . S
O276 C271 1.209 . S
C277 O274 1.258 . S
C277 O279 1.282 . S
O278 Cd270 2.277 . S
O278 C271 1.226 . S
O279 Cd270 2.356 . S
O279 C277 1.282 . S
C280 O281 1.306 . S
C280 O283 1.160 . S
O281 C280 1.306 . S
O281 Cd282 2.228 . S
Cd282 O281 2.228 . S
Cd282 O286 2.273 . S
Cd282 O290 2.277 . S
O283 C280 1.160 . S
O283 Cd284 2.203 . S
Cd284 O283 2.203 . S
Cd284 O286 2.411 . S
Cd284 O287 2.333 . S
Cd284 O288 2.352 . S
Cd284 O292 2.277 . S
Cd284 O293 2.356 . S
C285 O290 1.209 . S
C285 O292 1.226 . S
O286 Cd282 2.273 . S
O286 Cd284 2.411 . S
O286 C289 1.320 . S
O287 Cd284 2.333 . S
O287 C289 1.214 . S
O288 Cd284 2.352 . S
O288 C291 1.258 . S
C289 O286 1.320 . S
C289 O287 1.214 . S
O290 Cd282 2.277 . S
O290 C285 1.209 . S
C291 O288 1.258 . S
C291 O293 1.282 . S
O292 Cd284 2.277 . S
O292 C285 1.226 . S
O293 Cd284 2.356 . S
O293 C291 1.282 . S
C294 O295 1.306 . S
C294 O297 1.160 . S
O295 C294 1.306 . S
O295 Cd296 2.228 . S
Cd296 O295 2.228 . S
Cd296 O300 2.273 . S
Cd296 O304 2.277 . S
O297 C294 1.160 . S
O297 Cd298 2.203 . S
Cd298 O297 2.203 . S
Cd298 O300 2.411 . S
Cd298 O301 2.333 . S
Cd298 O302 2.352 . S
Cd298 O306 2.277 . S
Cd298 O307 2.356 . S
C299 O304 1.209 . S
C299 O306 1.226 . S
O300 Cd296 2.273 . S
O300 Cd298 2.411 . S
O300 C303 1.320 . S
O301 Cd298 2.333 . S
O301 C303 1.214 . S
O302 Cd298 2.352 . S
O302 C305 1.258 . S
C303 O300 1.320 . S
C303 O301 1.214 . S
O304 Cd296 2.277 . S
O304 C299 1.209 . S
C305 O302 1.258 . S
C305 O307 1.282 . S
O306 Cd298 2.277 . S
O306 C299 1.226 . S
O307 Cd298 2.356 . S
O307 C305 1.282 . S
C308 O309 1.306 . S
C308 O311 1.160 . S
O309 C308 1.306 . S
O309 Cd310 2.228 . S
Cd310 O309 2.228 . S
Cd310 O314 2.273 . S
Cd310 O318 2.277 . S
O311 C308 1.160 . S
O311 Cd312 2.203 . S
Cd312 O311 2.203 . S
Cd312 O314 2.411 . S
Cd312 O315 2.333 . S
Cd312 O316 2.352 . S
Cd312 O320 2.277 . S
Cd312 O321 2.356 . S
C313 O318 1.209 . S
C313 O320 1.226 . S
O314 Cd310 2.273 . S
O314 Cd312 2.411 . S
O314 C317 1.320 . S
O315 Cd312 2.333 . S
O315 C317 1.214 . S
O316 Cd312 2.352 . S
O316 C319 1.258 . S
C317 O314 1.320 . S
C317 O315 1.214 . S
O318 Cd310 2.277 . S
O318 C313 1.209 . S
C319 O316 1.258 . S
C319 O321 1.282 . S
O320 Cd312 2.277 . S
O320 C313 1.226 . S
O321 Cd312 2.356 . S
O321 C319 1.282 . S
C322 O323 1.306 . S
C322 O325 1.160 . S
O323 C322 1.306 . S
O323 Cd324 2.228 . S
Cd324 O323 2.228 . S
Cd324 O328 2.273 . S
Cd324 O332 2.277 . S
O325 C322 1.160 . S
O325 Cd326 2.203 . S
Cd326 O325 2.203 . S
Cd326 O328 2.411 . S
Cd326 O329 2.333 . S
Cd326 O330 2.352 . S
Cd326 O334 2.277 . S
Cd326 O335 2.356 . S
C327 O332 1.209 . S
C327 O334 1.226 . S
O328 Cd324 2.273 . S
O328 Cd326 2.411 . S
O328 C331 1.320 . S
O329 Cd326 2.333 . S
O329 C331 1.214 . S
O330 Cd326 2.352 . S
O330 C333 1.258 . S
C331 O328 1.320 . S
C331 O329 1.214 . S
O332 Cd324 2.277 . S
O332 C327 1.209 . S
C333 O330 1.258 . S
C333 O335 1.282 . S
O334 Cd326 2.277 . S
O334 C327 1.226 . S
O335 Cd326 2.356 . S
O335 C333 1.282 . S
C336 C337 1.369 . S
C336 C338 1.419 . S
C336 H340 0.930 . S
C337 C336 1.369 . S
C337 C346 1.429 . S
C338 C336 1.419 . S
C338 C339 1.363 . S
C338 H341 0.929 . S
C339 C338 1.363 . S
C339 C345 1.428 . S
H340 C336 0.930 . S
H341 C338 0.929 . S
S342 N343 1.613 . S
S342 N344 1.610 . S
N343 S342 1.613 . S
N343 C346 1.350 . S
N344 S342 1.610 . S
N344 C345 1.351 . S
C345 C339 1.428 . S
C345 N344 1.351 . S
C345 C346 1.434 . S
C346 C337 1.429 . S
C346 N343 1.350 . S
C346 C345 1.434 . S
C347 C348 1.369 . S
C347 C349 1.419 . S
C347 H351 0.930 . S
C348 C347 1.369 . S
C348 C357 1.429 . S
C349 C347 1.419 . S
C349 C350 1.363 . S
C349 H352 0.929 . S
C350 C349 1.363 . S
C350 C356 1.428 . S
H351 C347 0.930 . S
H352 C349 0.929 . S
S353 N354 1.613 . S
S353 N355 1.610 . S
N354 S353 1.613 . S
N354 C357 1.350 . S
N355 S353 1.610 . S
N355 C356 1.351 . S
C356 C350 1.428 . S
C356 N355 1.351 . S
C356 C357 1.434 . S
C357 C348 1.429 . S
C357 N354 1.350 . S
C357 C356 1.434 . S
C358 C359 1.369 . S
C358 C360 1.419 . S
C358 H362 0.930 . S
C359 C358 1.369 . S
C359 C368 1.429 . S
C360 C358 1.419 . S
C360 C361 1.363 . S
C360 H363 0.929 . S
C361 C360 1.363 . S
C361 C367 1.428 . S
H362 C358 0.930 . S
H363 C360 0.929 . S
S364 N365 1.613 . S
S364 N366 1.610 . S
N365 S364 1.613 . S
N365 C368 1.350 . S
N366 S364 1.610 . S
N366 C367 1.351 . S
C367 C361 1.428 . S
C367 N366 1.351 . S
C367 C368 1.434 . S
C368 C359 1.429 . S
C368 N365 1.350 . S
C368 C367 1.434 . S
C369 C370 1.369 . S
C369 C371 1.419 . S
C369 H373 0.930 . S
C370 C369 1.369 . S
C370 C379 1.429 . S
C371 C369 1.419 . S
C371 C372 1.363 . S
C371 H374 0.929 . S
C372 C371 1.363 . S
C372 C378 1.428 . S
H373 C369 0.930 . S
H374 C371 0.929 . S
S375 N376 1.613 . S
S375 N377 1.610 . S
N376 S375 1.613 . S
N376 C379 1.350 . S
N377 S375 1.610 . S
N377 C378 1.351 . S
C378 C372 1.428 . S
C378 N377 1.351 . S
C378 C379 1.434 . S
C379 C370 1.429 . S
C379 N376 1.350 . S
C379 C378 1.434 . S
C380 C381 1.369 . S
C380 C382 1.419 . S
C380 H384 0.930 . S
C381 C380 1.369 . S
C381 C390 1.429 . S
C382 C380 1.419 . S
C382 C383 1.363 . S
C382 H385 0.929 . S
C383 C382 1.363 . S
C383 C389 1.428 . S
H384 C380 0.930 . S
H385 C382 0.929 . S
S386 N387 1.613 . S
S386 N388 1.610 . S
N387 S386 1.613 . S
N387 C390 1.350 . S
N388 S386 1.610 . S
N388 C389 1.351 . S
C389 C383 1.428 . S
C389 N388 1.351 . S
C389 C390 1.434 . S
C390 C381 1.429 . S
C390 N387 1.350 . S
C390 C389 1.434 . S
C391 C392 1.369 . S
C391 C393 1.419 . S
C391 H395 0.930 . S
C392 C391 1.369 . S
C392 C401 1.429 . S
C393 C391 1.419 . S
C393 C394 1.363 . S
C393 H396 0.929 . S
C394 C393 1.363 . S
C394 C400 1.428 . S
H395 C391 0.930 . S
H396 C393 0.929 . S
S397 N398 1.613 . S
S397 N399 1.610 . S
N398 S397 1.613 . S
N398 C401 1.350 . S
N399 S397 1.610 . S
N399 C400 1.351 . S
C400 C394 1.428 . S
C400 N399 1.351 . S
C400 C401 1.434 . S
C401 C392 1.429 . S
C401 N398 1.350 . S
C401 C400 1.434 . S
C402 C403 1.369 . S
C402 C404 1.419 . S
C402 H406 0.930 . S
C403 C402 1.369 . S
C403 C412 1.429 . S
C404 C402 1.419 . S
C404 C405 1.363 . S
C404 H407 0.929 . S
C405 C404 1.363 . S
C405 C411 1.428 . S
H406 C402 0.930 . S
H407 C404 0.929 . S
S408 N409 1.613 . S
S408 N410 1.610 . S
N409 S408 1.613 . S
N409 C412 1.350 . S
N410 S408 1.610 . S
N410 C411 1.351 . S
C411 C405 1.428 . S
C411 N410 1.351 . S
C411 C412 1.434 . S
C412 C403 1.429 . S
C412 N409 1.350 . S
C412 C411 1.434 . S
C413 C414 1.369 . S
C413 C415 1.419 . S
C413 H417 0.930 . S
C414 C413 1.369 . S
C414 C423 1.429 . S
C415 C413 1.419 . S
C415 C416 1.363 . S
C415 H418 0.929 . S
C416 C415 1.363 . S
C416 C422 1.428 . S
H417 C413 0.930 . S
H418 C415 0.929 . S
S419 N420 1.613 . S
S419 N421 1.610 . S
N420 S419 1.613 . S
N420 C423 1.350 . S
N421 S419 1.610 . S
N421 C422 1.351 . S
C422 C416 1.428 . S
C422 N421 1.351 . S
C422 C423 1.434 . S
C423 C414 1.429 . S
C423 N420 1.350 . S
C423 C422 1.434 . S
C424 C425 1.369 . S
C424 C426 1.419 . S
C424 H428 0.930 . S
C425 C424 1.369 . S
C425 C434 1.429 . S
C426 C424 1.419 . S
C426 C427 1.363 . S
C426 H429 0.929 . S
C427 C426 1.363 . S
C427 C433 1.428 . S
H428 C424 0.930 . S
H429 C426 0.929 . S
S430 N431 1.613 . S
S430 N432 1.610 . S
N431 S430 1.613 . S
N431 C434 1.350 . S
N432 S430 1.610 . S
N432 C433 1.351 . S
C433 C427 1.428 . S
C433 N432 1.351 . S
C433 C434 1.434 . S
C434 C425 1.429 . S
C434 N431 1.350 . S
C434 C433 1.434 . S
C435 C436 1.369 . S
C435 C437 1.419 . S
C435 H439 0.930 . S
C436 C435 1.369 . S
C436 C445 1.429 . S
C437 C435 1.419 . S
C437 C438 1.363 . S
C437 H440 0.929 . S
C438 C437 1.363 . S
C438 C444 1.428 . S
H439 C435 0.930 . S
H440 C437 0.929 . S
S441 N442 1.613 . S
S441 N443 1.610 . S
N442 S441 1.613 . S
N442 C445 1.350 . S
N443 S441 1.610 . S
N443 C444 1.351 . S
C444 C438 1.428 . S
C444 N443 1.351 . S
C444 C445 1.434 . S
C445 C436 1.429 . S
C445 N442 1.350 . S
C445 C444 1.434 . S
C446 C447 1.369 . S
C446 C448 1.419 . S
C446 H450 0.930 . S
C447 C446 1.369 . S
C447 C456 1.429 . S
C448 C446 1.419 . S
C448 C449 1.363 . S
C448 H451 0.929 . S
C449 C448 1.363 . S
C449 C455 1.428 . S
H450 C446 0.930 . S
H451 C448 0.929 . S
S452 N453 1.613 . S
S452 N454 1.610 . S
N453 S452 1.613 . S
N453 C456 1.350 . S
N454 S452 1.610 . S
N454 C455 1.351 . S
C455 C449 1.428 . S
C455 N454 1.351 . S
C455 C456 1.434 . S
C456 C447 1.429 . S
C456 N453 1.350 . S
C456 C455 1.434 . S
C457 C458 1.369 . S
C457 C459 1.419 . S
C457 H461 0.930 . S
C458 C457 1.369 . S
C458 C467 1.429 . S
C459 C457 1.419 . S
C459 C460 1.363 . S
C459 H462 0.929 . S
C460 C459 1.363 . S
C460 C466 1.428 . S
H461 C457 0.930 . S
H462 C459 0.929 . S
S463 N464 1.613 . S
S463 N465 1.610 . S
N464 S463 1.613 . S
N464 C467 1.350 . S
N465 S463 1.610 . S
N465 C466 1.351 . S
C466 C460 1.428 . S
C466 N465 1.351 . S
C466 C467 1.434 . S
C467 C458 1.429 . S
C467 N464 1.350 . S
C467 C466 1.434 . S
C468 C469 1.369 . S
C468 C470 1.419 . S
C468 H472 0.930 . S
C469 C468 1.369 . S
C469 C478 1.429 . S
C470 C468 1.419 . S
C470 C471 1.363 . S
C470 H473 0.929 . S
C471 C470 1.363 . S
C471 C477 1.428 . S
H472 C468 0.930 . S
H473 C470 0.929 . S
S474 N475 1.613 . S
S474 N476 1.610 . S
N475 S474 1.613 . S
N475 C478 1.350 . S
N476 S474 1.610 . S
N476 C477 1.351 . S
C477 C471 1.428 . S
C477 N476 1.351 . S
C477 C478 1.434 . S
C478 C469 1.429 . S
C478 N475 1.350 . S
C478 C477 1.434 . S
C479 C480 1.369 . S
C479 C481 1.419 . S
C479 H483 0.930 . S
C480 C479 1.369 . S
C480 C489 1.429 . S
C481 C479 1.419 . S
C481 C482 1.363 . S
C481 H484 0.929 . S
C482 C481 1.363 . S
C482 C488 1.428 . S
H483 C479 0.930 . S
H484 C481 0.929 . S
S485 N486 1.613 . S
S485 N487 1.610 . S
N486 S485 1.613 . S
N486 C489 1.350 . S
N487 S485 1.610 . S
N487 C488 1.351 . S
C488 C482 1.428 . S
C488 N487 1.351 . S
C488 C489 1.434 . S
C489 C480 1.429 . S
C489 N486 1.350 . S
C489 C488 1.434 . S
C490 C491 1.369 . S
C490 C492 1.419 . S
C490 H494 0.930 . S
C491 C490 1.369 . S
C491 C500 1.429 . S
C492 C490 1.419 . S
C492 C493 1.363 . S
C492 H495 0.929 . S
C493 C492 1.363 . S
C493 C499 1.428 . S
H494 C490 0.930 . S
H495 C492 0.929 . S
S496 N497 1.613 . S
S496 N498 1.610 . S
N497 S496 1.613 . S
N497 C500 1.350 . S
N498 S496 1.610 . S
N498 C499 1.351 . S
C499 C493 1.428 . S
C499 N498 1.351 . S
C499 C500 1.434 . S
C500 C491 1.429 . S
C500 N497 1.350 . S
C500 C499 1.434 . S
C501 C502 1.369 . S
C501 C503 1.419 . S
C501 H505 0.930 . S
C502 C501 1.369 . S
C502 C511 1.429 . S
C503 C501 1.419 . S
C503 C504 1.363 . S
C503 H506 0.929 . S
C504 C503 1.363 . S
C504 C510 1.428 . S
H505 C501 0.930 . S
H506 C503 0.929 . S
S507 N508 1.613 . S
S507 N509 1.610 . S
N508 S507 1.613 . S
N508 C511 1.350 . S
N509 S507 1.610 . S
N509 C510 1.351 . S
C510 C504 1.428 . S
C510 N509 1.351 . S
C510 C511 1.434 . S
C511 C502 1.429 . S
C511 N508 1.350 . S
C511 C510 1.434 . S
C512 C513 1.369 . S
C512 C514 1.419 . S
C512 H516 0.930 . S
C513 C512 1.369 . S
C513 C522 1.429 . S
C514 C512 1.419 . S
C514 C515 1.363 . S
C514 H517 0.929 . S
C515 C514 1.363 . S
C515 C521 1.428 . S
H516 C512 0.930 . S
H517 C514 0.929 . S
S518 N519 1.613 . S
S518 N520 1.610 . S
N519 S518 1.613 . S
N519 C522 1.350 . S
N520 S518 1.610 . S
N520 C521 1.351 . S
C521 C515 1.428 . S
C521 N520 1.351 . S
C521 C522 1.434 . S
C522 C513 1.429 . S
C522 N519 1.350 . S
C522 C521 1.434 . S
C523 C524 1.369 . S
C523 C525 1.419 . S
C523 H527 0.930 . S
C524 C523 1.369 . S
C524 C533 1.429 . S
C525 C523 1.419 . S
C525 C526 1.363 . S
C525 H528 0.929 . S
C526 C525 1.363 . S
C526 C532 1.428 . S
H527 C523 0.930 . S
H528 C525 0.929 . S
S529 N530 1.613 . S
S529 N531 1.610 . S
N530 S529 1.613 . S
N530 C533 1.350 . S
N531 S529 1.610 . S
N531 C532 1.351 . S
C532 C526 1.428 . S
C532 N531 1.351 . S
C532 C533 1.434 . S
C533 C524 1.429 . S
C533 N530 1.350 . S
C533 C532 1.434 . S
C534 C535 1.369 . S
C534 C536 1.419 . S
C534 H538 0.930 . S
C535 C534 1.369 . S
C535 C544 1.429 . S
C536 C534 1.419 . S
C536 C537 1.363 . S
C536 H539 0.929 . S
C537 C536 1.363 . S
C537 C543 1.428 . S
H538 C534 0.930 . S
H539 C536 0.929 . S
S540 N541 1.613 . S
S540 N542 1.610 . S
N541 S540 1.613 . S
N541 C544 1.350 . S
N542 S540 1.610 . S
N542 C543 1.351 . S
C543 C537 1.428 . S
C543 N542 1.351 . S
C543 C544 1.434 . S
C544 C535 1.429 . S
C544 N541 1.350 . S
C544 C543 1.434 . S
C545 C546 1.369 . S
C545 C547 1.419 . S
C545 H549 0.930 . S
C546 C545 1.369 . S
C546 C555 1.429 . S
C547 C545 1.419 . S
C547 C548 1.363 . S
C547 H550 0.929 . S
C548 C547 1.363 . S
C548 C554 1.428 . S
H549 C545 0.930 . S
H550 C547 0.929 . S
S551 N552 1.613 . S
S551 N553 1.610 . S
N552 S551 1.613 . S
N552 C555 1.350 . S
N553 S551 1.610 . S
N553 C554 1.351 . S
C554 C548 1.428 . S
C554 N553 1.351 . S
C554 C555 1.434 . S
C555 C546 1.429 . S
C555 N552 1.350 . S
C555 C554 1.434 . S
C556 C557 1.369 . S
C556 C558 1.419 . S
C556 H560 0.930 . S
C557 C556 1.369 . S
C557 C566 1.429 . S
C558 C556 1.419 . S
C558 C559 1.363 . S
C558 H561 0.929 . S
C559 C558 1.363 . S
C559 C565 1.428 . S
H560 C556 0.930 . S
H561 C558 0.929 . S
S562 N563 1.613 . S
S562 N564 1.610 . S
N563 S562 1.613 . S
N563 C566 1.350 . S
N564 S562 1.610 . S
N564 C565 1.351 . S
C565 C559 1.428 . S
C565 N564 1.351 . S
C565 C566 1.434 . S
C566 C557 1.429 . S
C566 N563 1.350 . S
C566 C565 1.434 . S
C567 C568 1.369 . S
C567 C569 1.419 . S
C567 H571 0.930 . S
C568 C567 1.369 . S
C568 C577 1.429 . S
C569 C567 1.419 . S
C569 C570 1.363 . S
C569 H572 0.929 . S
C570 C569 1.363 . S
C570 C576 1.428 . S
H571 C567 0.930 . S
H572 C569 0.929 . S
S573 N574 1.613 . S
S573 N575 1.610 . S
N574 S573 1.613 . S
N574 C577 1.350 . S
N575 S573 1.610 . S
N575 C576 1.351 . S
C576 C570 1.428 . S
C576 N575 1.351 . S
C576 C577 1.434 . S
C577 C568 1.429 . S
C577 N574 1.350 . S
C577 C576 1.434 . S
C578 C579 1.369 . S
C578 C580 1.419 . S
C578 H582 0.930 . S
C579 C578 1.369 . S
C579 C588 1.429 . S
C580 C578 1.419 . S
C580 C581 1.363 . S
C580 H583 0.929 . S
C581 C580 1.363 . S
C581 C587 1.428 . S
H582 C578 0.930 . S
H583 C580 0.929 . S
S584 N585 1.613 . S
S584 N586 1.610 . S
N585 S584 1.613 . S
N585 C588 1.350 . S
N586 S584 1.610 . S
N586 C587 1.351 . S
C587 C581 1.428 . S
C587 N586 1.351 . S
C587 C588 1.434 . S
C588 C579 1.429 . S
C588 N585 1.350 . S
C588 C587 1.434 . S
C589 C590 1.369 . S
C589 C591 1.419 . S
C589 H593 0.930 . S
C590 C589 1.369 . S
C590 C599 1.429 . S
C591 C589 1.419 . S
C591 C592 1.363 . S
C591 H594 0.929 . S
C592 C591 1.363 . S
C592 C598 1.428 . S
H593 C589 0.930 . S
H594 C591 0.929 . S
S595 N596 1.613 . S
S595 N597 1.610 . S
N596 S595 1.613 . S
N596 C599 1.350 . S
N597 S595 1.610 . S
N597 C598 1.351 . S
C598 C592 1.428 . S
C598 N597 1.351 . S
C598 C599 1.434 . S
C599 C590 1.429 . S
C599 N596 1.350 . S
C599 C598 1.434 . S
C600 C601 1.369 . S
C600 C602 1.419 . S
C600 H604 0.930 . S
C601 C600 1.369 . S
C601 C610 1.429 . S
C602 C600 1.419 . S
C602 C603 1.363 . S
C602 H605 0.929 . S
C603 C602 1.363 . S
C603 C609 1.428 . S
H604 C600 0.930 . S
H605 C602 0.929 . S
S606 N607 1.613 . S
S606 N608 1.610 . S
N607 S606 1.613 . S
N607 C610 1.350 . S
N608 S606 1.610 . S
N608 C609 1.351 . S
C609 C603 1.428 . S
C609 N608 1.351 . S
C609 C610 1.434 . S
C610 C601 1.429 . S
C610 N607 1.350 . S
C610 C609 1.434 . S
C611 C612 1.369 1_556 S
C611 C613 1.419 . S
C611 H615 0.930 . S
C612 C611 1.369 1_554 S
C612 C621 1.429 1_554 S
C613 C611 1.419 . S
C613 C614 1.363 . S
C613 H616 0.929 . S
C614 C613 1.363 . S
C614 C620 1.428 . S
H615 C611 0.930 . S
H616 C613 0.929 . S
S617 N618 1.613 1_556 S
S617 N619 1.610 . S
N618 S617 1.613 1_554 S
N618 C621 1.350 1_554 S
N619 S617 1.610 . S
N619 C620 1.351 . S
C620 C614 1.428 . S
C620 N619 1.351 . S
C620 C621 1.434 . S
C621 C612 1.429 1_556 S
C621 N618 1.350 1_556 S
C621 C620 1.434 . S
C622 C623 1.369 . S
C622 C624 1.419 . S
C622 H626 0.930 . S
C623 C622 1.369 . S
C623 C632 1.429 . S
C624 C622 1.419 . S
C624 C625 1.363 . S
C624 H627 0.929 . S
C625 C624 1.363 . S
C625 C631 1.428 . S
H626 C622 0.930 . S
H627 C624 0.929 . S
S628 N629 1.613 . S
S628 N630 1.610 . S
N629 S628 1.613 . S
N629 C632 1.350 . S
N630 S628 1.610 . S
N630 C631 1.351 . S
C631 C625 1.428 . S
C631 N630 1.351 . S
C631 C632 1.434 . S
C632 C623 1.429 . S
C632 N629 1.350 . S
C632 C631 1.434 . S
C633 C634 1.369 . S
C633 C635 1.419 . S
C633 H637 0.930 . S
C634 C633 1.369 . S
C634 C643 1.429 . S
C635 C633 1.419 . S
C635 C636 1.363 1_554 S
C635 H638 0.929 . S
C636 C635 1.363 1_556 S
C636 C642 1.428 1_556 S
H637 C633 0.930 . S
H638 C635 0.929 . S
S639 N640 1.613 . S
S639 N641 1.610 1_554 S
N640 S639 1.613 . S
N640 C643 1.350 . S
N641 S639 1.610 1_556 S
N641 C642 1.351 1_556 S
C642 C636 1.428 1_554 S
C642 N641 1.351 1_554 S
C642 C643 1.434 . S
C643 C634 1.429 . S
C643 N640 1.350 . S
C643 C642 1.434 . S
C644 C645 1.369 . S
C644 C646 1.419 . S
C644 H648 0.930 . S
C645 C644 1.369 . S
C645 C654 1.429 . S
C646 C644 1.419 . S
C646 C647 1.363 . S
C646 H649 0.929 . S
C647 C646 1.363 . S
C647 C653 1.428 . S
H648 C644 0.930 . S
H649 C646 0.929 . S
S650 N651 1.613 . S
S650 N652 1.610 . S
N651 S650 1.613 . S
N651 C654 1.350 . S
N652 S650 1.610 . S
N652 C653 1.351 . S
C653 C647 1.428 . S
C653 N652 1.351 . S
C653 C654 1.434 . S
C654 C645 1.429 . S
C654 N651 1.350 . S
C654 C653 1.434 . S
C655 C656 1.369 1_455 S
C655 C657 1.419 . S
C655 H659 0.930 . S
C656 C655 1.369 1_655 S
C656 C665 1.429 . S
C657 C655 1.419 . S
C657 C658 1.363 . S
C657 H660 0.929 . S
C658 C657 1.363 . S
C658 C664 1.428 . S
H659 C655 0.930 . S
H660 C657 0.929 . S
S661 N662 1.613 . S
S661 N663 1.610 1_655 S
N662 S661 1.613 . S
N662 C665 1.350 . S
N663 S661 1.610 1_455 S
N663 C664 1.351 . S
C664 C658 1.428 . S
C664 N663 1.351 . S
C664 C665 1.434 1_455 S
C665 C656 1.429 . S
C665 N662 1.350 . S
C665 C664 1.434 1_655 S
C666 C667 1.369 1_655 S
C666 C668 1.419 . S
C666 H670 0.930 . S
C667 C666 1.369 1_455 S
C667 C676 1.424 1_455 S
C668 C666 1.419 . S
C668 C669 1.363 . S
C668 H671 0.929 . S
C669 C668 1.363 . S
C669 C675 1.428 . S
H670 C666 0.930 . S
H671 C668 0.929 . S
S672 N673 1.613 1_655 S
S672 N674 1.610 . S
N673 S672 1.613 1_455 S
N673 C676 1.339 1_455 S
N674 S672 1.610 . S
N674 C675 1.351 . S
C675 C669 1.428 . S
C675 N674 1.351 . S
C675 C676 1.451 . S
C676 C667 1.424 1_655 S
C676 N673 1.339 1_655 S
C676 C675 1.451 . S
C677 C678 1.369 . S
C677 C679 1.419 . S
C677 H681 0.930 . S
C678 C677 1.369 . S
C678 C687 1.429 . S
C679 C677 1.419 . S
C679 C680 1.363 . S
C679 H682 0.929 . S
C680 C679 1.363 . S
C680 C686 1.428 . S
H681 C677 0.930 . S
H682 C679 0.929 . S
S683 N684 1.613 . S
S683 N685 1.610 . S
N684 S683 1.613 . S
N684 C687 1.350 . S
N685 S683 1.610 . S
N685 C686 1.351 . S
C686 C680 1.428 . S
C686 N685 1.351 . S
C686 C687 1.434 . S
C687 C678 1.429 . S
C687 N684 1.350 . S
C687 C686 1.434 . S
C688 C689 1.369 . S
C688 C690 1.419 . S
C688 H692 0.930 . S
C689 C688 1.369 . S
C689 C698 1.429 . S
C690 C688 1.419 . S
C690 C691 1.363 . S
C690 H693 0.929 . S
C691 C690 1.363 . S
C691 C697 1.428 . S
H692 C688 0.930 . S
H693 C690 0.929 . S
S694 N695 1.613 . S
S694 N696 1.610 . S
N695 S694 1.613 . S
N695 C698 1.350 . S
N696 S694 1.610 . S
N696 C697 1.351 . S
C697 C691 1.428 . S
C697 N696 1.351 . S
C697 C698 1.434 . S
C698 C689 1.429 . S
C698 N695 1.350 . S
C698 C697 1.434 . S
C699 C700 1.354 1_545 S
C699 C701 1.419 . S
C699 H703 0.930 . S
C700 C699 1.354 1_565 S
C700 C709 1.423 1_565 S
C701 C699 1.419 . S
C701 C702 1.363 . S
C701 H704 0.929 . S
C702 C701 1.363 . S
C702 C708 1.428 . S
H703 C699 0.930 . S
H704 C701 0.929 . S
S705 N706 1.613 1_545 S
S705 N707 1.610 . S
N706 S705 1.613 1_565 S
N706 C709 1.350 1_565 S
N707 S705 1.610 . S
N707 C708 1.351 . S
C708 C702 1.428 . S
C708 N707 1.351 . S
C708 C709 1.434 . S
C709 C700 1.423 1_545 S
C709 N706 1.350 1_545 S
C709 C708 1.434 . S
C710 C711 1.355 1_565 S
C710 C712 1.419 . S
C710 H714 0.930 . S
C711 C710 1.355 1_545 S
C711 C720 1.422 1_545 S
C712 C710 1.419 . S
C712 C713 1.363 . S
C712 H715 0.929 . S
C713 C712 1.363 . S
C713 C719 1.428 . S
H714 C710 0.930 . S
H715 C712 0.929 . S
S716 N717 1.613 1_565 S
S716 N718 1.610 . S
N717 S716 1.613 1_545 S
N717 C720 1.350 1_545 S
N718 S716 1.610 . S
N718 C719 1.351 . S
C719 C713 1.428 . S
C719 N718 1.351 . S
C719 C720 1.434 . S
C720 C711 1.422 1_565 S
C720 N717 1.350 1_565 S
C720 C719 1.434 . S
C721 C722 1.369 . S
C721 C723 1.419 . S
C721 H725 0.930 . S
C722 C721 1.369 . S
C722 C731 1.429 . S
C723 C721 1.419 . S
C723 C724 1.363 . S
C723 H726 0.929 . S
C724 C723 1.363 . S
C724 C730 1.428 . S
H725 C721 0.930 . S
H726 C723 0.929 . S
S727 N728 1.613 . S
S727 N729 1.610 . S
N728 S727 1.613 . S
N728 C731 1.350 . S
N729 S727 1.610 . S
N729 C730 1.351 . S
C730 C724 1.428 . S
C730 N729 1.351 . S
C730 C731 1.434 . S
C731 C722 1.429 . S
C731 N728 1.350 . S
C731 C730 1.434 . S
C732 C733 1.369 . S
C732 C734 1.419 . S
C732 H736 0.930 . S
C733 C732 1.369 . S
C733 C742 1.429 . S
C734 C732 1.419 . S
C734 C735 1.363 . S
C734 H737 0.929 . S
C735 C734 1.363 . S
C735 C741 1.428 . S
H736 C732 0.930 . S
H737 C734 0.929 . S
S738 N739 1.613 . S
S738 N740 1.610 . S
N739 S738 1.613 . S
N739 C742 1.350 . S
N740 S738 1.610 . S
N740 C741 1.351 . S
C741 C735 1.428 . S
C741 N740 1.351 . S
C741 C742 1.434 . S
C742 C733 1.429 . S
C742 N739 1.350 . S
C742 C741 1.434 . S
C743 C744 1.369 . S
C743 C745 1.419 1_556 S
C743 H747 0.930 . S
C744 C743 1.369 . S
C744 C753 1.429 1_556 S
C745 C743 1.419 1_554 S
C745 C746 1.363 . S
C745 H748 0.929 . S
C746 C745 1.363 . S
C746 C752 1.428 . S
H747 C743 0.930 . S
H748 C745 0.929 . S
S749 N750 1.613 . S
S749 N751 1.610 . S
N750 S749 1.613 . S
N750 C753 1.350 . S
N751 S749 1.610 . S
N751 C752 1.351 . S
C752 C746 1.428 . S
C752 N751 1.351 . S
C752 C753 1.434 . S
C753 C744 1.429 1_554 S
C753 N750 1.350 . S
C753 C752 1.434 . S
C754 C755 1.369 . S
C754 C756 1.419 . S
C754 H758 0.930 . S
C755 C754 1.369 . S
C755 C764 1.429 . S
C756 C754 1.419 . S
C756 C757 1.363 . S
C756 H759 0.929 . S
C757 C756 1.363 . S
C757 C763 1.428 . S
H758 C754 0.930 . S
H759 C756 0.929 . S
S760 N761 1.613 . S
S760 N762 1.610 . S
N761 S760 1.613 . S
N761 C764 1.350 . S
N762 S760 1.610 . S
N762 C763 1.351 . S
C763 C757 1.428 . S
C763 N762 1.351 . S
C763 C764 1.434 . S
C764 C755 1.429 . S
C764 N761 1.350 . S
C764 C763 1.434 . S
C765 C766 1.369 1_556 S
C765 C767 1.419 . S
C765 H769 0.930 . S
C766 C765 1.369 1_554 S
C766 C775 1.429 1_554 S
C767 C765 1.419 . S
C767 C768 1.363 . S
C767 H770 0.929 . S
C768 C767 1.363 . S
C768 C774 1.428 . S
H769 C765 0.930 . S
H770 C767 0.929 . S
S771 N772 1.613 1_556 S
S771 N773 1.610 . S
N772 S771 1.613 1_554 S
N772 C775 1.350 1_554 S
N773 S771 1.610 . S
N773 C774 1.351 . S
C774 C768 1.428 . S
C774 N773 1.351 . S
C774 C775 1.434 . S
C775 C766 1.429 1_556 S
C775 N772 1.350 1_556 S
C775 C774 1.434 . S
C776 C777 1.369 . S
C776 C778 1.419 . S
C776 H780 0.930 . S
C777 C776 1.369 . S
C777 C786 1.429 . S
C778 C776 1.419 . S
C778 C779 1.363 . S
C778 H781 0.929 . S
C779 C778 1.363 . S
C779 C785 1.428 . S
H780 C776 0.930 . S
H781 C778 0.929 . S
S782 N783 1.613 . S
S782 N784 1.610 . S
N783 S782 1.613 . S
N783 C786 1.350 . S
N784 S782 1.610 . S
N784 C785 1.351 . S
C785 C779 1.428 . S
C785 N784 1.351 . S
C785 C786 1.434 . S
C786 C777 1.429 . S
C786 N783 1.350 . S
C786 C785 1.434 . S
C787 C788 1.369 . S
C787 C789 1.419 . S
C787 H791 0.930 . S
C788 C787 1.369 . S
C788 C797 1.429 . S
C789 C787 1.419 . S
C789 C790 1.360 1_655 S
C789 H792 0.929 1_655 S
C790 C789 1.360 1_455 S
C790 C796 1.421 1_455 S
H791 C787 0.930 . S
H792 C789 0.929 1_455 S
S793 N794 1.613 . S
S793 N795 1.610 . S
N794 S793 1.613 . S
N794 C797 1.350 . S
N795 S793 1.610 . S
N795 C796 1.351 . S
C796 C790 1.421 1_655 S
C796 N795 1.351 . S
C796 C797 1.434 . S
C797 C788 1.429 . S
C797 N794 1.350 . S
C797 C796 1.434 . S
C798 C799 1.369 . S
C798 C800 1.419 . S
C798 H802 0.930 . S
C799 C798 1.369 . S
C799 C808 1.429 . S
C800 C798 1.419 . S
C800 C801 1.351 1_455 S
C800 H803 0.929 . S
C801 C800 1.351 1_655 S
C801 C807 1.424 1_655 S
H802 C798 0.930 . S
H803 C800 0.929 . S
S804 N805 1.613 . S
S804 N806 1.610 1_455 S
N805 S804 1.613 . S
N805 C808 1.350 . S
N806 S804 1.610 1_655 S
N806 C807 1.351 1_655 S
C807 C801 1.424 1_455 S
C807 N806 1.351 1_455 S
C807 C808 1.434 . S
C808 C799 1.429 . S
C808 N805 1.350 . S
C808 C807 1.434 . S
C809 C810 1.369 . S
C809 C811 1.419 . S
C809 H813 0.930 . S
C810 C809 1.369 . S
C810 C819 1.429 . S
C811 C809 1.419 . S
C811 C812 1.363 . S
C811 H814 0.929 . S
C812 C811 1.363 . S
C812 C818 1.428 . S
H813 C809 0.930 . S
H814 C811 0.929 . S
S815 N816 1.613 . S
S815 N817 1.610 . S
N816 S815 1.613 . S
N816 C819 1.350 . S
N817 S815 1.610 . S
N817 C818 1.351 . S
C818 C812 1.428 . S
C818 N817 1.351 . S
C818 C819 1.434 . S
C819 C810 1.429 . S
C819 N816 1.350 . S
C819 C818 1.434 . S
C820 C821 1.369 . S
C820 C822 1.419 . S
C820 H824 0.930 . S
C821 C820 1.369 . S
C821 C830 1.429 . S
C822 C820 1.419 . S
C822 C823 1.363 . S
C822 H825 0.929 . S
C823 C822 1.363 . S
C823 C829 1.428 . S
H824 C820 0.930 . S
H825 C822 0.929 . S
S826 N827 1.613 . S
S826 N828 1.610 . S
N827 S826 1.613 . S
N827 C830 1.350 . S
N828 S826 1.610 . S
N828 C829 1.351 . S
C829 C823 1.428 . S
C829 N828 1.351 . S
C829 C830 1.434 . S
C830 C821 1.429 . S
C830 N827 1.350 . S
C830 C829 1.434 . S
C831 C832 1.369 . S
C831 C833 1.419 . S
C831 H835 0.930 . S
C832 C831 1.369 . S
C832 C841 1.429 . S
C833 C831 1.419 . S
C833 C834 1.350 1_565 S
C833 H836 0.929 . S
C834 C833 1.350 1_545 S
C834 C840 1.426 1_545 S
H835 C831 0.930 . S
H836 C833 0.929 . S
S837 N838 1.613 . S
S837 N839 1.610 1_565 S
N838 S837 1.613 . S
N838 C841 1.350 . S
N839 S837 1.610 1_545 S
N839 C840 1.351 1_545 S
C840 C834 1.426 1_565 S
C840 N839 1.351 1_565 S
C840 C841 1.434 . S
C841 C832 1.429 . S
C841 N838 1.350 . S
C841 C840 1.434 . S
C842 C843 1.367 1_545 S
C842 C844 1.419 . S
C842 H846 0.937 . S
C843 C842 1.367 1_565 S
C843 C852 1.425 1_565 S
C844 C842 1.419 . S
C844 C845 1.363 . S
C844 H847 0.929 . S
C845 C844 1.363 . S
C845 C851 1.428 . S
H846 C842 0.937 . S
H847 C844 0.929 . S
S848 N849 1.613 . S
S848 N850 1.610 . S
N849 S848 1.613 . S
N849 C852 1.350 . S
N850 S848 1.610 . S
N850 C851 1.351 . S
C851 C845 1.428 . S
C851 N850 1.351 . S
C851 C852 1.434 . S
C852 C843 1.425 1_545 S
C852 N849 1.350 . S
C852 C851 1.434 . S
C853 C854 1.369 . S
C853 C855 1.419 . S
C853 H857 0.930 . S
C854 C853 1.369 . S
C854 C863 1.429 . S
C855 C853 1.419 . S
C855 C856 1.363 . S
C855 H858 0.929 . S
C856 C855 1.363 . S
C856 C862 1.428 . S
H857 C853 0.930 . S
H858 C855 0.929 . S
S859 N860 1.613 . S
S859 N861 1.610 . S
N860 S859 1.613 . S
N860 C863 1.350 . S
N861 S859 1.610 . S
N861 C862 1.351 . S
C862 C856 1.428 . S
C862 N861 1.351 . S
C862 C863 1.434 . S
C863 C854 1.429 . S
C863 N860 1.350 . S
C863 C862 1.434 . S
C337 C117 1.203 . S
C339 C0 1.185 . S
C348 C14 1.186 . S
C350 C159 1.200 . S
C359 C28 1.189 . S
C361 C131 1.203 . S
C370 C42 1.185 . S
C372 C145 1.202 . S
C381 C56 1.220 . S
C383 C5 1.249 . S
C392 C19 1.249 . S
C394 C70 1.226 . S
C403 C84 1.229 . S
C405 C33 1.252 . S
C414 C47 1.249 . S
C416 C98 1.225 . S
C425 C61 1.209 . S
C427 C112 1.191 . S
C436 C89 1.213 . S
C438 C126 1.194 . S
C447 C140 1.187 . S
C449 C103 1.207 . S
C458 C75 1.213 . S
C460 C154 1.194 . S
C469 C285 1.220 . S
C471 C173 1.207 . S
C480 C187 1.208 . S
C482 C327 1.224 . S
C491 C201 1.214 . S
C493 C299 1.225 . S
C502 C313 1.225 . S
C504 C215 1.209 . S
C513 C224 1.162 . S
C515 C168 1.180 . S
C524 C182 1.186 . S
C526 C238 1.171 . S
C535 C196 1.179 . S
C537 C252 1.163 . S
C546 C266 1.167 . S
C548 C210 1.183 . S
C557 C280 1.191 . S
C559 C229 1.214 . S
C568 C257 1.213 . S
C570 C294 1.191 . S
C579 C271 1.218 . S
C581 C308 1.196 . S
C590 C322 1.194 . S
C592 C243 1.215 . S
C601 C319 1.440 . S
C603 C9 1.434 . S
C612 C305 1.441 . S
C614 C23 1.430 . S
C623 C333 1.440 . S
C625 C37 1.432 . S
C634 C51 1.431 . S
C636 C291 1.441 . S
C645 C65 1.452 . S
C647 C191 1.465 . S
C656 C177 1.465 . S
C658 C79 1.450 . S
C667 C219 1.465 . S
C669 C93 1.451 . S
C678 C205 1.465 . S
C680 C107 1.450 . S
C689 C121 1.406 . S
C691 C263 1.409 . S
C700 C235 1.428 . S
C702 C135 1.404 . S
C711 C249 1.427 . S
C713 C149 1.405 . S
C722 C277 1.411 . S
C724 C163 1.404 . S
C733 C151 1.444 . S
C735 C179 1.449 . S
C744 C137 1.444 . S
C746 C193 1.449 . S
C755 C207 1.450 . S
C757 C165 1.441 . S
C766 C123 1.443 . S
C768 C221 1.450 . S
C777 C233 1.419 . S
C779 C25 1.427 . S
C788 C247 1.419 . S
C790 C11 1.436 . S
C799 C261 1.419 . S
C801 C53 1.441 . S
C810 C275 1.420 . S
C812 C39 1.424 . S
C821 C289 1.477 . S
C823 C95 1.477 . S
C832 C303 1.476 . S
C834 C67 1.493 . S
C843 C81 1.486 . S
C845 C317 1.477 . S
C854 C331 1.478 . S
C856 C109 1.479 . S
