# Generated by pormake.
# Topology wke, (5)-cn, num edge types: 1
# Building blocks:
#     Node 0, Type 0, BuildingBlock: XOMCOT_clean_sbu_0, # of connection points: 5
#     Node 1, Type 0, BuildingBlock: XOMCOT_clean_sbu_0, # of connection points: 5
#     Node 2, Type 0, BuildingBlock: XOMCOT_clean_sbu_0, # of connection points: 5
#     Node 3, Type 0, BuildingBlock: XOMCOT_clean_sbu_0, # of connection points: 5
#     Node 4, Type 0, BuildingBlock: XOMCOT_clean_sbu_0, # of connection points: 5
#     Node 5, Type 0, BuildingBlock: XOMCOT_clean_sbu_0, # of connection points: 5
#     Node 6, Type 0, BuildingBlock: XOMCOT_clean_sbu_0, # of connection points: 5
#     Node 7, Type 0, BuildingBlock: XOMCOT_clean_sbu_0, # of connection points: 5
#     Node 8, Type 0, BuildingBlock: XOMCOT_clean_sbu_0, # of connection points: 5
#     Node 9, Type 0, BuildingBlock: XOMCOT_clean_sbu_0, # of connection points: 5
#     Node 10, Type 0, BuildingBlock: XOMCOT_clean_sbu_0, # of connection points: 5
#     Node 11, Type 0, BuildingBlock: XOMCOT_clean_sbu_0, # of connection points: 5
#     Edge 12, Type (0, 0), BuildingBlock: KIFKEQ_clean_linker_1, # of connection points: 2
#     Edge 13, Type (0, 0), BuildingBlock: KIFKEQ_clean_linker_1, # of connection points: 2
#     Edge 14, Type (0, 0), BuildingBlock: KIFKEQ_clean_linker_1, # of connection points: 2
#     Edge 15, Type (0, 0), BuildingBlock: KIFKEQ_clean_linker_1, # of connection points: 2
#     Edge 16, Type (0, 0), BuildingBlock: KIFKEQ_clean_linker_1, # of connection points: 2
#     Edge 17, Type (0, 0), BuildingBlock: KIFKEQ_clean_linker_1, # of connection points: 2
#     Edge 18, Type (0, 0), BuildingBlock: KIFKEQ_clean_linker_1, # of connection points: 2
#     Edge 19, Type (0, 0), BuildingBlock: KIFKEQ_clean_linker_1, # of connection points: 2
#     Edge 20, Type (0, 0), BuildingBlock: KIFKEQ_clean_linker_1, # of connection points: 2
#     Edge 21, Type (0, 0), BuildingBlock: KIFKEQ_clean_linker_1, # of connection points: 2
#     Edge 22, Type (0, 0), BuildingBlock: KIFKEQ_clean_linker_1, # of connection points: 2
#     Edge 23, Type (0, 0), BuildingBlock: KIFKEQ_clean_linker_1, # of connection points: 2
#     Edge 24, Type (0, 0), BuildingBlock: KIFKEQ_clean_linker_1, # of connection points: 2
#     Edge 25, Type (0, 0), BuildingBlock: KIFKEQ_clean_linker_1, # of connection points: 2
#     Edge 26, Type (0, 0), BuildingBlock: KIFKEQ_clean_linker_1, # of connection points: 2
#     Edge 27, Type (0, 0), BuildingBlock: KIFKEQ_clean_linker_1, # of connection points: 2
#     Edge 28, Type (0, 0), BuildingBlock: KIFKEQ_clean_linker_1, # of connection points: 2
#     Edge 29, Type (0, 0), BuildingBlock: KIFKEQ_clean_linker_1, # of connection points: 2
#     Edge 30, Type (0, 0), BuildingBlock: KIFKEQ_clean_linker_1, # of connection points: 2
#     Edge 31, Type (0, 0), BuildingBlock: KIFKEQ_clean_linker_1, # of connection points: 2
#     Edge 32, Type (0, 0), BuildingBlock: KIFKEQ_clean_linker_1, # of connection points: 2
#     Edge 33, Type (0, 0), BuildingBlock: KIFKEQ_clean_linker_1, # of connection points: 2
#     Edge 34, Type (0, 0), BuildingBlock: KIFKEQ_clean_linker_1, # of connection points: 2
#     Edge 35, Type (0, 0), BuildingBlock: KIFKEQ_clean_linker_1, # of connection points: 2
#     Edge 36, Type (0, 0), BuildingBlock: KIFKEQ_clean_linker_1, # of connection points: 2
#     Edge 37, Type (0, 0), BuildingBlock: KIFKEQ_clean_linker_1, # of connection points: 2
#     Edge 38, Type (0, 0), BuildingBlock: KIFKEQ_clean_linker_1, # of connection points: 2
#     Edge 39, Type (0, 0), BuildingBlock: KIFKEQ_clean_linker_1, # of connection points: 2
#     Edge 40, Type (0, 0), BuildingBlock: KIFKEQ_clean_linker_1, # of connection points: 2
#     Edge 41, Type (0, 0), BuildingBlock: KIFKEQ_clean_linker_1, # of connection points: 2
# Relax obj value: 0.148
# Max RMSD: 0.150
# Mean RMSD: 0.150
data_MOF--net-wke--node1-XOMCOT_clean_sbu_0--edge1-KIFKEQ_clean_linker_1
_symmetry_space_group_name_H-M    P1
_symmetry_Int_Tables_number       1
_symmetry_cell_setting            triclinic
loop_
_symmetry_equiv_pos_as_xyz
'x, y, z'
_cell_length_a     72.444555
_cell_length_b     72.471314
_cell_length_c     17.801969
_cell_angle_alpha  89.958213
_cell_angle_beta   89.985736
_cell_angle_gamma 120.01504
loop_
_atom_site_label
_atom_site_type_symbol
_atom_site_fract_x
_atom_site_fract_y
_atom_site_fract_z
_atom_type_partial_charge
Co0 Co 0.1095 0.41964 0.31278 0.0
C1 C 0.10436 0.41707 0.1455 0.0
C2 C 0.09153 0.38649 0.19797 0.0
C3 C 0.08975 0.38363 0.12143 0.0
N4 N 0.10054 0.40744 0.21324 0.0
N5 N 0.09788 0.40291 0.08829 0.0
H6 H 0.11207 0.43401 0.1376 0.0
H7 H 0.08715 0.37415 0.23983 0.0
C8 C 0.06214 0.39387 0.31971 0.0
O9 O 0.06202 0.40111 0.25215 0.0
N10 N 0.11869 0.43128 0.41179 0.0
C11 C 0.13431 0.45114 0.42869 0.0
C12 C 0.13612 0.45307 0.50562 0.0
C13 C 0.11115 0.42139 0.47814 0.0
N14 N 0.12152 0.43437 0.53646 0.0
C15 C 0.11682 0.45919 0.24974 0.0
C16 C 0.08495 0.46155 0.32669 0.0
C17 C 0.09871 0.47855 0.28056 0.0
C18 C 0.11484 0.47727 0.24198 0.0
C19 C 0.08777 0.44391 0.33409 0.0
N20 N 0.10301 0.44238 0.29344 0.0
H21 H 0.13012 0.45918 0.22256 0.0
H22 H 0.07836 0.43215 0.37584 0.0
H23 H 0.1437 0.46335 0.3879 0.0
H24 H 0.09861 0.40495 0.48366 0.0
O25 O 0.13868 0.43403 0.27944 0.0
O26 O 0.12189 0.40147 0.32735 0.0
O27 O 0.07988 0.39981 0.35308 0.0
C28 C 0.13927 0.41705 0.2986 0.0
H29 H 0.08375 0.36856 0.09271 0.0
H30 H 0.14711 0.46722 0.5365 0.0
H31 H 0.07285 0.4624 0.35985 0.0
H32 H 0.12612 0.49036 0.20722 0.0
Co33 Co 0.68922 0.10795 0.81398 0.0
C34 C 0.68752 0.10319 0.64628 0.0
C35 C 0.70446 0.08967 0.70029 0.0
C36 C 0.70585 0.0879 0.62382 0.0
N37 N 0.6928 0.09908 0.7146 0.0
N38 N 0.69517 0.0964 0.59007 0.0
H39 H 0.67924 0.11183 0.63678 0.0
H40 H 0.71185 0.08484 0.7428 0.0
C41 C 0.66738 0.06055 0.82111 0.0
O42 O 0.66022 0.06038 0.75315 0.0
N43 N 0.6864 0.11699 0.91299 0.0
C44 C 0.68188 0.13238 0.92981 0.0
C45 C 0.68141 0.13397 1.00674 0.0
C46 C 0.68867 0.10942 0.97942 0.0
N47 N 0.68563 0.11947 0.03815 0.0
C48 C 0.65718 0.11501 0.74773 0.0
C49 C 0.62252 0.08285 0.82194 0.0
C50 C 0.61918 0.09607 0.77285 0.0
C51 C 0.63699 0.11247 0.73619 0.0
C52 C 0.6431 0.0862 0.83282 0.0
N53 N 0.66006 0.10146 0.79306 0.0
H54 H 0.67062 0.1285 0.72191 0.0
H55 H 0.64529 0.07696 0.87566 0.0
H56 H 0.67919 0.14184 0.88897 0.0
H57 H 0.69231 0.09672 0.98426 0.0
O58 O 0.70415 0.13715 0.78114 0.0
O59 O 0.71971 0.12027 0.82988 0.0
O60 O 0.67923 0.0783 0.85419 0.0
C61 C 0.72164 0.13769 0.80109 0.0
H62 H 0.71426 0.08111 0.59529 0.0
H63 H 0.67846 0.14521 0.03676 0.0
H64 H 0.60946 0.0702 0.85293 0.0
H65 H 0.6356 0.12388 0.70085 0.0
Co66 Co 0.57424 0.68849 0.33535 0.0
C67 C 0.57625 0.68683 0.17023 0.0
C68 C 0.60544 0.69232 0.22116 0.0
C69 C 0.60764 0.69253 0.14418 0.0
N70 N 0.58572 0.68864 0.2372 0.0
N71 N 0.58931 0.68917 0.11225 0.0
H72 H 0.56018 0.68401 0.16428 0.0
H73 H 0.61755 0.69519 0.26238 0.0
C74 C 0.58613 0.66081 0.42185 0.0
O75 O 0.56597 0.64942 0.44121 0.0
N76 N 0.56327 0.68935 0.43524 0.0
C77 C 0.54686 0.69252 0.45199 0.0
C78 C 0.54543 0.69377 0.52865 0.0
C79 C 0.5724 0.69025 0.50259 0.0
N80 N 0.56145 0.69221 0.56053 0.0
C81 C 0.53041 0.65488 0.32547 0.0
C82 C 0.53852 0.6235 0.27574 0.0
C83 C 0.51749 0.61811 0.29201 0.0
C84 C 0.5135 0.63421 0.31553 0.0
C85 C 0.55504 0.64441 0.28736 0.0
N86 N 0.55099 0.65956 0.31601 0.0
H87 H 0.52679 0.6671 0.33948 0.0
H88 H 0.57121 0.64828 0.27529 0.0
H89 H 0.53707 0.69484 0.4117 0.0
H90 H 0.58703 0.68993 0.5095 0.0
O91 O 0.56125 0.70374 0.29432 0.0
O92 O 0.59378 0.71897 0.34295 0.0
O93 O 0.59255 0.67747 0.38093 0.0
C94 C 0.57879 0.72114 0.31075 0.0
H95 H 0.62192 0.69568 0.11412 0.0
H96 H 0.53392 0.69641 0.55839 0.0
H97 H 0.54221 0.61159 0.25582 0.0
H98 H 0.49736 0.63092 0.32508 0.0
Co99 Co 0.88514 0.57424 0.84063 0.0
C100 C 0.88895 0.57619 0.67548 0.0
C101 C 0.91344 0.60489 0.72647 0.0
C102 C 0.91539 0.60714 0.64945 0.0
N103 N 0.89691 0.58545 0.74252 0.0
N104 N 0.8999 0.58912 0.61744 0.0
H105 H 0.87525 0.56039 0.66954 0.0
H106 H 0.923 0.61683 0.76772 0.0
C107 C 0.9232 0.58436 0.93226 0.0
O108 O 0.91269 0.56417 0.95197 0.0
N109 N 0.87279 0.56358 0.94041 0.0
C110 C 0.85329 0.54702 0.957 0.0
C111 C 0.85033 0.54583 0.03358 0.0
C112 C 0.8806 0.57311 1.00762 0.0
N113 N 0.86764 0.56217 0.06557 0.0
C114 C 0.87355 0.53005 0.82885 0.0
C115 C 0.91313 0.53721 0.78396 0.0
C116 C 0.89684 0.51629 0.79768 0.0
C117 C 0.87673 0.51278 0.81886 0.0
C118 C 0.90931 0.55409 0.79574 0.0
N119 N 0.89 0.55046 0.82195 0.0
H120 H 0.8577 0.52685 0.84056 0.0
H121 H 0.92207 0.57016 0.78532 0.0
H122 H 0.84135 0.53697 0.9167 0.0
H123 H 0.8954 0.58792 0.01431 0.0
O124 O 0.85707 0.56194 0.79883 0.0
O125 O 0.87495 0.59444 0.84726 0.0
O126 O 0.91455 0.59167 0.88736 0.0
C127 C 0.85766 0.5797 0.81488 0.0
H128 H 0.92682 0.62129 0.61948 0.0
H129 H 0.8362 0.5342 0.06311 0.0
H130 H 0.92877 0.54052 0.76579 0.0
H131 H 0.86345 0.49675 0.82637 0.0
Co132 Co 0.30888 0.88828 0.32801 0.0
C133 C 0.31016 0.89209 0.16045 0.0
C134 C 0.30045 0.91236 0.21329 0.0
C135 C 0.2991 0.91397 0.13666 0.0
N136 N 0.30801 0.8991 0.22851 0.0
N137 N 0.30516 0.90114 0.10345 0.0
H138 H 0.31419 0.87984 0.15216 0.0
H139 H 0.29536 0.91969 0.25513 0.0
C140 C 0.33149 0.93537 0.35017 0.0
O141 O 0.34181 0.93709 0.28743 0.0
N142 N 0.30895 0.87726 0.42675 0.0
C143 C 0.31339 0.86177 0.44324 0.0
C144 C 0.3131 0.85952 0.52011 0.0
C145 C 0.30589 0.88416 0.49342 0.0
N146 N 0.30847 0.87368 0.55173 0.0
C147 C 0.34384 0.8851 0.26536 0.0
C148 C 0.37439 0.91217 0.36619 0.0
C149 C 0.3802 0.90244 0.31033 0.0
C150 C 0.36459 0.88869 0.25969 0.0
C151 C 0.35347 0.90829 0.36934 0.0
N152 N 0.33863 0.89561 0.31719 0.0
H153 H 0.33178 0.87287 0.23081 0.0
H154 H 0.34911 0.91491 0.41572 0.0
H155 H 0.31699 0.85301 0.40225 0.0
H156 H 0.30245 0.89698 0.49912 0.0
O157 O 0.2954 0.85979 0.28817 0.0
O158 O 0.27814 0.87545 0.3332 0.0
O159 O 0.31744 0.91697 0.37403 0.0
C160 C 0.2773 0.85868 0.3028 0.0
H161 H 0.29308 0.92304 0.10791 0.0
H162 H 0.31613 0.84833 0.55016 0.0
H163 H 0.38581 0.92243 0.40786 0.0
H164 H 0.36811 0.87994 0.21824 0.0
Co165 Co 0.42343 0.31113 0.81687 0.0
C166 C 0.42047 0.31358 0.64987 0.0
C167 C 0.39008 0.29426 0.70208 0.0
C168 C 0.38727 0.29304 0.62544 0.0
N169 N 0.41088 0.3073 0.71758 0.0
N170 N 0.40643 0.30516 0.59247 0.0
H171 H 0.43734 0.32365 0.64216 0.0
H172 H 0.37786 0.28567 0.74379 0.0
C173 C 0.39493 0.33009 0.82677 0.0
O174 O 0.39953 0.33635 0.75662 0.0
N175 N 0.4355 0.31424 0.91563 0.0
C176 C 0.45565 0.31941 0.93231 0.0
C177 C 0.45771 0.3197 1.00929 0.0
C178 C 0.42555 0.31146 0.98215 0.0
N179 N 0.43879 0.31475 0.0404 0.0
C180 C 0.46246 0.34395 0.75295 0.0
C181 C 0.46293 0.37817 0.82286 0.0
C182 C 0.48026 0.38194 0.77708 0.0
C183 C 0.47982 0.36437 0.74229 0.0
C184 C 0.44599 0.35739 0.8329 0.0
N185 N 0.4454 0.34058 0.79577 0.0
H186 H 0.46313 0.33074 0.72802 0.0
H187 H 0.43396 0.355 0.87344 0.0
H188 H 0.46797 0.32274 0.89139 0.0
H189 H 0.4089 0.30676 0.98785 0.0
O190 O 0.43836 0.29685 0.78341 0.0
O191 O 0.40601 0.2806 0.83306 0.0
O192 O 0.40316 0.32009 0.85854 0.0
C193 C 0.42172 0.27914 0.80391 0.0
H194 H 0.37236 0.2832 0.59655 0.0
H195 H 0.47208 0.32353 0.03999 0.0
H196 H 0.46256 0.39107 0.85207 0.0
H197 H 0.49315 0.36615 0.70916 0.0
Co198 Co 0.57271 0.88574 0.19996 0.0
C199 C 0.57546 0.88932 0.3649 0.0
C200 C 0.60459 0.91286 0.31312 0.0
C201 C 0.60705 0.91467 0.39014 0.0
N202 N 0.58476 0.897 0.29762 0.0
N203 N 0.58873 0.89979 0.42269 0.0
H204 H 0.55932 0.87621 0.37111 0.0
H205 H 0.61658 0.92209 0.27147 0.0
C206 C 0.58297 0.92367 0.10743 0.0
O207 O 0.56264 0.91337 0.08947 0.0
N208 N 0.56107 0.87395 0.1007 0.0
C209 C 0.54274 0.85597 0.08366 0.0
C210 C 0.54135 0.8532 1.00696 0.0
C211 C 0.57112 0.88097 0.03372 0.0
N212 N 0.55914 0.86909 0.97531 0.0
C213 C 0.52915 0.87416 0.22947 0.0
C214 C 0.53695 0.91466 0.26303 0.0
C215 C 0.51587 0.89775 0.26268 0.0
C216 C 0.51213 0.87721 0.24732 0.0
C217 C 0.55355 0.91081 0.24571 0.0
N218 N 0.54943 0.89098 0.22408 0.0
H219 H 0.52598 0.85812 0.22234 0.0
H220 H 0.56976 0.92387 0.24938 0.0
H221 H 0.53144 0.84485 0.12341 0.0
H222 H 0.58691 0.89464 0.02777 0.0
O223 O 0.5604 0.85745 0.24003 0.0
O224 O 0.5925 0.87515 0.18832 0.0
O225 O 0.59023 0.91514 0.15314 0.0
C226 C 0.57786 0.8578 0.2208 0.0
H227 H 0.62148 0.92565 0.41967 0.0
H228 H 0.52843 0.84011 0.97714 0.0
H229 H 0.5406 0.93065 0.27762 0.0
H230 H 0.49614 0.86358 0.24855 0.0
Co231 Co 0.68917 0.57935 0.71177 0.0
C232 C 0.68703 0.5819 0.87895 0.0
C233 C 0.70331 0.61263 0.82658 0.0
C234 C 0.70436 0.61543 0.90325 0.0
N235 N 0.69212 0.5916 0.81115 0.0
N236 N 0.69419 0.59607 0.93608 0.0
H237 H 0.6788 0.56493 0.88714 0.0
H238 H 0.71071 0.62507 0.78476 0.0
C239 C 0.66847 0.60619 0.69962 0.0
O240 O 0.66124 0.6006 0.76842 0.0
N241 N 0.68689 0.56756 0.61289 0.0
C242 C 0.68114 0.54727 0.59624 0.0
C243 C 0.68051 0.54511 0.5193 0.0
C244 C 0.68986 0.57754 0.5463 0.0
N245 N 0.68595 0.56415 0.48796 0.0
C246 C 0.65668 0.5399 0.77461 0.0
C247 C 0.62252 0.53798 0.69859 0.0
C248 C 0.61915 0.52085 0.74422 0.0
C249 C 0.63651 0.52193 0.78245 0.0
C250 C 0.64307 0.55551 0.6911 0.0
N251 N 0.65983 0.55677 0.73099 0.0
H252 H 0.66992 0.5397 0.80134 0.0
H253 H 0.64545 0.56734 0.64968 0.0
H254 H 0.67746 0.53487 0.63718 0.0
H255 H 0.69434 0.59413 0.54075 0.0
O256 O 0.70388 0.565 0.74633 0.0
O257 O 0.71971 0.5975 0.69783 0.0
O258 O 0.67964 0.59907 0.66922 0.0
C259 C 0.72148 0.58198 0.72716 0.0
H260 H 0.71276 0.63051 0.9325 0.0
H261 H 0.67647 0.53065 0.4889 0.0
H262 H 0.6096 0.5373 0.66577 0.0
H263 H 0.6346 0.50875 0.81689 0.0
Co264 Co 0.11129 0.68762 0.19988 0.0
C265 C 0.10665 0.68585 0.36737 0.0
C266 C 0.09454 0.70419 0.31451 0.0
C267 C 0.09294 0.70552 0.39105 0.0
N268 N 0.10299 0.69172 0.29949 0.0
N269 N 0.10061 0.694 0.42441 0.0
H270 H 0.11386 0.67618 0.37548 0.0
H271 H 0.09035 0.71224 0.27246 0.0
C272 C 0.06394 0.66671 0.19628 0.0
O273 O 0.06403 0.65982 0.2645 0.0
N274 N 0.11984 0.68432 0.10082 0.0
C275 C 0.135 0.67943 0.08377 0.0
C276 C 0.13674 0.67924 1.00682 0.0
C277 C 0.11251 0.68701 0.03457 0.0
N278 N 0.12257 0.68397 0.97614 0.0
C279 C 0.1183 0.65543 0.26531 0.0
C280 C 0.08531 0.62083 0.19402 0.0
C281 C 0.09885 0.61741 0.24113 0.0
C282 C 0.11564 0.63518 0.27646 0.0
C283 C 0.08878 0.64145 0.18345 0.0
N284 N 0.1045 0.65842 0.22169 0.0
H285 H 0.132 0.66884 0.29026 0.0
H286 H 0.07927 0.64366 0.14181 0.0
H287 H 0.14419 0.67632 0.12446 0.0
H288 H 0.10043 0.69154 0.02925 0.0
O289 O 0.14069 0.70243 0.23106 0.0
O290 O 0.12383 0.71804 0.18247 0.0
O291 O 0.08154 0.67792 0.1613 0.0
C292 C 0.14131 0.71992 0.21049 0.0
H293 H 0.08732 0.71495 0.41959 0.0
H294 H 0.14745 0.6757 0.97583 0.0
H295 H 0.07232 0.6078 0.1642 0.0
H296 H 0.12723 0.6337 0.31039 0.0
Co297 Co 0.4242 0.11171 0.7021 0.0
C298 C 0.42179 0.10717 0.8693 0.0
C299 C 0.3911 0.09064 0.81695 0.0
C300 C 0.38829 0.08888 0.89363 0.0
N301 N 0.41214 0.10177 0.80149 0.0
N302 N 0.40762 0.09937 0.92649 0.0
H303 H 0.43868 0.11713 0.8774 0.0
H304 H 0.3786 0.08481 0.77518 0.0
C305 C 0.39789 0.06426 0.68559 0.0
O306 O 0.40513 0.06232 0.75107 0.0
N307 N 0.43577 0.12178 0.60321 0.0
C308 C 0.45597 0.13662 0.58657 0.0
C309 C 0.45809 0.1384 0.50964 0.0
C310 C 0.4258 0.11484 0.5366 0.0
N311 N 0.43913 0.12465 0.47823 0.0
C312 C 0.46337 0.11756 0.76365 0.0
C313 C 0.46525 0.08626 0.68123 0.0
C314 C 0.48208 0.09904 0.72949 0.0
C315 C 0.48109 0.11493 0.77065 0.0
C316 C 0.44799 0.08974 0.67465 0.0
N317 N 0.44665 0.10462 0.71811 0.0
H318 H 0.46371 0.13081 0.79234 0.0
H319 H 0.43637 0.08114 0.6316 0.0
H320 H 0.46837 0.14531 0.62753 0.0
H321 H 0.4093 0.10251 0.53102 0.0
O322 O 0.43891 0.14059 0.73879 0.0
O323 O 0.40626 0.1244 0.69163 0.0
O324 O 0.40403 0.08276 0.65828 0.0
C325 C 0.42196 0.14147 0.72132 0.0
H326 H 0.37315 0.08131 0.92282 0.0
H327 H 0.47251 0.14906 0.47934 0.0
H328 H 0.46595 0.07442 0.64608 0.0
H329 H 0.49414 0.12555 0.80681 0.0
Co330 Co 0.31027 0.42377 0.18096 0.0
C331 C 0.31193 0.42177 0.34613 0.0
C332 C 0.30653 0.39264 0.29521 0.0
C333 C 0.3063 0.39041 0.37219 0.0
N334 N 0.31016 0.41233 0.27916 0.0
N335 N 0.3096 0.40872 0.4041 0.0
H336 H 0.3147 0.43782 0.35208 0.0
H337 H 0.30369 0.38054 0.25399 0.0
C338 C 0.33804 0.41194 0.09478 0.0
O339 O 0.34934 0.43207 0.07505 0.0
N340 N 0.30934 0.43468 0.08104 0.0
C341 C 0.30605 0.451 0.06424 0.0
C342 C 0.30475 0.45241 0.98758 0.0
C343 C 0.30849 0.42557 0.01371 0.0
N344 N 0.30642 0.43646 0.95575 0.0
C345 C 0.34379 0.46761 0.19051 0.0
C346 C 0.37528 0.45968 0.24055 0.0
C347 C 0.38058 0.48067 0.22411 0.0
C348 C 0.36443 0.48457 0.20042 0.0
C349 C 0.35439 0.4431 0.22894 0.0
N350 N 0.33918 0.44707 0.20016 0.0
H351 H 0.33152 0.47117 0.17639 0.0
H352 H 0.35058 0.42696 0.24116 0.0
H353 H 0.30366 0.46075 0.1045 0.0
H354 H 0.30892 0.411 1.00684 0.0
O355 O 0.295 0.43674 0.22199 0.0
O356 O 0.27977 0.40421 0.17354 0.0
O357 O 0.32136 0.40549 0.13557 0.0
C358 C 0.27759 0.41918 0.20575 0.0
H359 H 0.30317 0.37614 0.40224 0.0
H360 H 0.30201 0.46385 0.95781 0.0
H361 H 0.38724 0.45606 0.26061 0.0
H362 H 0.36766 0.50068 0.19073 0.0
Co363 Co 0.88495 0.30933 0.68597 0.0
C364 C 0.88881 0.31127 0.85108 0.0
C365 C 0.91331 0.30708 0.80003 0.0
C366 C 0.91527 0.30682 0.87706 0.0
N367 N 0.89677 0.30996 0.78402 0.0
N368 N 0.89977 0.30933 0.9091 0.0
H369 H 0.87509 0.31335 0.85704 0.0
H370 H 0.92289 0.30471 0.75876 0.0
C371 C 0.92296 0.33732 0.59393 0.0
O372 O 0.91242 0.347 0.57458 0.0
N373 N 0.87255 0.30758 0.5863 0.0
C374 C 0.85304 0.30462 0.56985 0.0
C375 C 0.85008 0.30287 0.49328 0.0
C376 C 0.88037 0.30589 0.51902 0.0
N377 N 0.8674 0.30387 0.46116 0.0
C378 C 0.87331 0.34192 0.6977 0.0
C379 C 0.91289 0.37435 0.74245 0.0
C380 C 0.8966 0.37897 0.72882 0.0
C381 C 0.8765 0.36238 0.7077 0.0
C382 C 0.90908 0.35366 0.73069 0.0
N383 N 0.88977 0.33797 0.70456 0.0
H384 H 0.85747 0.32927 0.68603 0.0
H385 H 0.92184 0.35035 0.74102 0.0
H386 H 0.8411 0.3027 0.61026 0.0
H387 H 0.89518 0.30592 0.51221 0.0
O388 O 0.8569 0.29352 0.72812 0.0
O389 O 0.87483 0.27896 0.67957 0.0
O390 O 0.91435 0.32135 0.63886 0.0
C391 C 0.85755 0.27637 0.71223 0.0
H392 H 0.92671 0.30412 0.90701 0.0
H393 H 0.83594 0.30036 0.46385 0.0
H394 H 0.92853 0.38668 0.76054 0.0
H395 H 0.86322 0.36512 0.70023 0.0
H396 H 0.02209 0.37655 0.26241 0.0
H397 H 0.05594 0.38366 0.47005 0.0
H398 H 0.98857 0.36063 0.33089 0.0
H399 H 0.02212 0.36777 0.5389 0.0
H400 H 0.94174 0.36679 0.48363 0.0
H401 H 0.9751 0.37763 0.41968 0.0
H402 H 0.98518 0.33415 0.556 0.0
H403 H 0.95131 0.32312 0.62137 0.0
C404 C 0.02238 0.37454 0.32262 0.0
C405 C 0.04174 0.38166 0.36084 0.0
C406 C 0.00315 0.36545 0.36187 0.0
C407 C 0.00276 0.36326 0.44038 0.0
C408 C 0.02195 0.36922 0.47838 0.0
C409 C 0.0413 0.37837 0.43893 0.0
C410 C 0.95096 0.35946 0.50043 0.0
C411 C 0.94376 0.34399 0.55754 0.0
C412 C 0.97007 0.3656 0.46321 0.0
C413 C 0.98263 0.35654 0.48209 0.0
C414 C 0.97578 0.34137 0.54028 0.0
C415 C 0.9564 0.33503 0.57745 0.0
H416 H 0.64214 0.02037 0.76741 0.0
H417 H 0.67281 0.05472 0.97049 0.0
H418 H 0.62392 0.98736 0.83871 0.0
H419 H 0.6543 0.02146 0.04211 0.0
H420 H 0.57201 0.94306 1.00024 0.0
H421 H 0.59482 0.97573 0.93282 0.0
H422 H 0.64922 0.98391 0.05948 0.0
H423 H 0.62613 0.95076 0.12831 0.0
C424 C 0.64518 0.02088 0.82715 0.0
C425 C 0.65872 0.04026 0.86334 0.0
C426 C 0.63468 0.00195 0.86805 0.0
C427 C 0.63743 0.00189 0.94616 0.0
C428 C 0.6519 0.02103 0.98194 0.0
C429 C 0.66243 0.04007 0.9409 0.0
C430 C 0.58881 0.95172 0.01419 0.0
C431 C 0.59724 0.94419 0.06958 0.0
C432 C 0.60192 0.97043 0.97498 0.0
C433 C 0.62386 0.98223 0.99007 0.0
C434 C 0.63235 0.97509 0.04667 0.0
C435 C 0.61916 0.95613 0.08587 0.0
H436 H 0.66348 0.60442 0.54745 0.0
H437 H 0.65528 0.63353 0.74689 0.0
H438 H 0.64618 0.61981 0.47247 0.0
H439 H 0.63853 0.64941 0.67097 0.0
H440 H 0.62686 0.68714 0.47092 0.0
H441 H 0.65023 0.67642 0.53449 0.0
H442 H 0.6028 0.61031 0.50322 0.0
H443 H 0.57922 0.62091 0.44246 0.0
C444 C 0.65847 0.61452 0.57494 0.0
C445 C 0.66063 0.61773 0.65309 0.0
C446 C 0.64857 0.62327 0.53203 0.0
C447 C 0.64121 0.63581 0.5662 0.0
C448 C 0.64431 0.63992 0.64353 0.0
C449 C 0.65375 0.63077 0.68683 0.0
C450 C 0.62163 0.67035 0.47686 0.0
C451 C 0.6013 0.65481 0.45207 0.0
C452 C 0.6349 0.66427 0.5133 0.0
C453 C 0.62822 0.64259 0.52318 0.0
C454 C 0.60828 0.62711 0.49566 0.0
C455 C 0.59482 0.63317 0.46125 0.0
H456 H 0.05704 0.66961 0.04584 0.0
H457 H 0.02418 0.64533 0.25699 0.0
H458 H 0.0228 0.65183 0.97978 0.0
H459 H 0.99023 0.62789 0.19126 0.0
H460 H 0.94173 0.57412 0.04467 0.0
H461 H 0.97548 0.59663 0.10622 0.0
H462 H 0.9863 0.64935 0.96366 0.0
H463 H 0.95204 0.62651 0.90069 0.0
C464 C 0.04253 0.66082 0.07829 0.0
C465 C 0.04335 0.65861 0.1566 0.0
C466 C 0.02294 0.65072 0.04044 0.0
C467 C 0.00389 0.63822 0.08028 0.0
C468 C 0.00469 0.63708 0.15891 0.0
C469 C 0.02417 0.64712 0.19658 0.0
C470 C 0.95119 0.59049 0.02603 0.0
C471 C 0.94411 0.59852 0.96777 0.0
C472 C 0.97052 0.60346 0.06188 0.0
C473 C 0.98342 0.62483 0.04045 0.0
C474 C 0.97664 0.63292 0.98132 0.0
C475 C 0.95704 0.61989 0.94554 0.0
H476 H 0.38357 0.02252 0.72171 0.0
H477 H 0.38302 0.06265 0.54299 0.0
H478 H 0.3652 0.99148 0.64034 0.0
H479 H 0.3644 0.03156 0.46215 0.0
H480 H 0.3602 0.97677 0.31586 0.0
H481 H 0.37385 0.00766 0.39801 0.0
H482 H 0.33163 0.96821 0.57474 0.0
H483 H 0.31813 0.93715 0.49279 0.0
C484 C 0.37931 0.02471 0.66543 0.0
C485 C 0.38495 0.04513 0.63876 0.0
C486 C 0.36866 0.00687 0.61889 0.0
C487 C 0.36344 0.00905 0.54457 0.0
C488 C 0.36847 0.02938 0.51874 0.0
C489 C 0.37907 0.0472 0.56529 0.0
C490 C 0.35365 0.97468 0.37196 0.0
C491 C 0.33815 0.95444 0.39779 0.0
C492 C 0.3614 0.99244 0.41898 0.0
C493 C 0.35388 0.9904 0.49306 0.0
C494 C 0.33794 0.97027 0.51827 0.0
C495 C 0.33011 0.95249 0.47109 0.0
H496 H 0.36578 0.34086 0.77888 0.0
H497 H 0.39792 0.3372 0.97795 0.0
H498 H 0.34943 0.35749 0.85276 0.0
H499 H 0.38201 0.35435 0.05084 0.0
H500 H 0.37819 0.41928 0.07672 0.0
H501 H 0.3894 0.39583 0.01904 0.0
H502 H 0.32358 0.34771 0.98622 0.0
H503 H 0.31224 0.37098 0.04673 0.0
C504 C 0.36911 0.34335 0.83849 0.0
C505 C 0.38314 0.33779 0.87261 0.0
C506 C 0.35968 0.35273 0.88067 0.0
C507 C 0.36449 0.3571 0.95721 0.0
C508 C 0.37803 0.35101 0.99189 0.0
C509 C 0.38707 0.34119 0.95017 0.0
C510 C 0.36612 0.40356 0.05822 0.0
C511 C 0.34439 0.39687 0.06608 0.0
C512 C 0.37253 0.39017 0.02559 0.0
C513 C 0.35732 0.37005 0.99851 0.0
C514 C 0.33554 0.36317 1.00705 0.0
C515 C 0.3291 0.37639 0.04175 0.0
H516 H 0.08516 0.58518 0.13637 0.0
H517 H 0.10707 0.6004 0.36619 0.0
H518 H 0.08315 0.55074 0.14961 0.0
H519 H 0.10613 0.56641 0.37716 0.0
H520 H 0.13023 0.51892 0.31008 0.0
H521 H 0.12841 0.55172 0.30402 0.0
H522 H 0.06249 0.51543 0.23606 0.0
H523 H 0.06419 0.48243 0.24377 0.0
C524 C 0.08927 0.58118 0.19002 0.0
C525 C 0.09639 0.5958 0.2501 0.0
C526 C 0.08821 0.56145 0.19728 0.0
C527 C 0.0946 0.55605 0.2642 0.0
C528 C 0.10133 0.57035 0.32469 0.0
C529 C 0.102 0.58989 0.31803 0.0
C530 C 0.11536 0.51799 0.29396 0.0
C531 C 0.09736 0.49824 0.27711 0.0
C532 C 0.11428 0.53668 0.29096 0.0
C533 C 0.09531 0.53603 0.26967 0.0
C534 C 0.0773 0.5163 0.25245 0.0
C535 C 0.07825 0.4975 0.25705 0.0
H536 H 0.52275 0.12973 0.69957 0.0
H537 H 0.48475 0.06387 0.76635 0.0
H538 H 0.55501 0.12691 0.70627 0.0
H539 H 0.51722 0.06118 0.77498 0.0
H540 H 0.58701 0.08347 0.87763 0.0
H541 H 0.55282 0.08198 0.863 0.0
H542 H 0.5686 0.10316 0.63352 0.0
H543 H 0.60229 0.10352 0.64589 0.0
C544 C 0.52137 0.11468 0.71582 0.0
C545 C 0.50138 0.09702 0.73265 0.0
C546 C 0.53975 0.11304 0.71926 0.0
C547 C 0.53851 0.09383 0.74105 0.0
C548 C 0.51852 0.07615 0.75817 0.0
C549 C 0.50003 0.07766 0.75305 0.0
C550 C 0.58307 0.08726 0.8233 0.0
C551 C 0.59764 0.09376 0.76309 0.0
C552 C 0.56349 0.08651 0.81524 0.0
C553 C 0.55822 0.09258 0.74735 0.0
C554 C 0.57244 0.09861 0.68669 0.0
C555 C 0.59181 0.09896 0.69416 0.0
H556 H 0.50878 0.59103 0.17321 0.0
H557 H 0.4858 0.59542 0.3925 0.0
H558 H 0.47736 0.55564 0.15632 0.0
H559 H 0.45446 0.56022 0.37562 0.0
H560 H 0.40763 0.48963 0.34327 0.0
H561 H 0.4429 0.52122 0.36027 0.0
H562 H 0.43831 0.54377 0.14028 0.0
H563 H 0.40323 0.51227 0.12332 0.0
C564 C 0.49717 0.58428 0.21813 0.0
C565 C 0.49959 0.59598 0.28388 0.0
C566 C 0.47917 0.56413 0.20835 0.0
C567 C 0.46347 0.55522 0.26462 0.0
C568 C 0.46638 0.56659 0.33159 0.0
C569 C 0.4842 0.5868 0.34095 0.0
C570 C 0.41435 0.5012 0.29823 0.0
C571 C 0.40268 0.49864 0.23226 0.0
C572 C 0.43444 0.5193 0.30807 0.0
C573 C 0.4433 0.53496 0.25164 0.0
C574 C 0.43197 0.53189 0.18445 0.0
C575 C 0.41183 0.51398 0.17503 0.0
H576 H 0.88671 0.48418 0.89724 0.0
H577 H 0.91493 0.50724 0.679 0.0
H578 H 0.88995 0.45247 0.8802 0.0
H579 H 0.91814 0.47538 0.66174 0.0
H580 H 0.88639 0.40095 0.62955 0.0
H581 H 0.88978 0.43597 0.64655 0.0
H582 H 0.91818 0.44127 0.86447 0.0
H583 H 0.91482 0.40615 0.84727 0.0
C584 C 0.89375 0.48249 0.84588 0.0
C585 C 0.90045 0.49803 0.78921 0.0
C586 C 0.89577 0.46447 0.83641 0.0
C587 C 0.90428 0.4615 0.76966 0.0
C588 C 0.91145 0.47728 0.71361 0.0
C589 C 0.90971 0.4955 0.72359 0.0
C590 C 0.8935 0.4097 0.6808 0.0
C591 C 0.90023 0.40085 0.73732 0.0
C592 C 0.89561 0.42978 0.69023 0.0
C593 C 0.90423 0.44129 0.75682 0.0
C594 C 0.9114 0.43266 0.81273 0.0
C595 C 0.90958 0.41267 0.80279 0.0
H596 H 0.48164 0.87467 0.35444 0.0
H597 H 0.50924 0.92883 0.20463 0.0
H598 H 0.45025 0.8785 0.37007 0.0
H599 H 0.4779 0.93286 0.22107 0.0
H600 H 0.40535 0.90961 0.18715 0.0
H601 H 0.4397 0.91097 0.18134 0.0
H602 H 0.43843 0.90295 0.42206 0.0
H603 H 0.40392 0.90128 0.42773 0.0
C604 C 0.48105 0.88749 0.32535 0.0
C605 C 0.4978 0.90136 0.2779 0.0
C606 C 0.46318 0.88981 0.33483 0.0
C607 C 0.4616 0.90594 0.2966 0.0
C608 C 0.47862 0.92018 0.25075 0.0
C609 C 0.4966 0.91798 0.24183 0.0
C610 C 0.4125 0.90828 0.23882 0.0
C611 C 0.40193 0.90526 0.30782 0.0
C612 C 0.43223 0.90925 0.2356 0.0
C613 C 0.44172 0.90702 0.30125 0.0
C614 C 0.43142 0.90456 0.37052 0.0
C615 C 0.41176 0.90378 0.37382 0.0
H616 H 0.50589 0.3994 0.65322 0.0
H617 H 0.498 0.41403 0.88255 0.0
H618 H 0.53893 0.43348 0.64413 0.0
H619 H 0.53048 0.44857 0.87123 0.0
H620 H 0.58072 0.51709 0.78022 0.0
H621 H 0.54588 0.48417 0.78639 0.0
H622 H 0.57542 0.44777 0.71897 0.0
H623 H 0.61015 0.48047 0.71435 0.0
C624 C 0.51107 0.40982 0.70165 0.0
C625 C 0.49925 0.4037 0.76895 0.0
C626 C 0.52994 0.42941 0.69608 0.0
C627 C 0.53722 0.44355 0.75706 0.0
C628 C 0.52507 0.43797 0.82323 0.0
C629 C 0.50638 0.41819 0.82939 0.0
C630 C 0.57966 0.50201 0.76677 0.0
C631 C 0.59804 0.50121 0.74722 0.0
C632 C 0.55983 0.48326 0.7705 0.0
C633 C 0.55804 0.46352 0.7529 0.0
C634 C 0.57638 0.46282 0.73228 0.0
C635 C 0.59622 0.48145 0.73013 0.0
H636 H 0.08382 0.40797 0.60372 0.0
H637 H 0.1508 0.44962 0.64741 0.0
H638 H 0.0774 0.40042 0.73782 0.0
H639 H 0.14466 0.44171 0.781 0.0
H640 H 0.12467 0.44087 0.02054 0.0
H641 H 0.12938 0.44833 0.88731 0.0
H642 H 0.08301 0.38264 0.83974 0.0
H643 H 0.07719 0.37543 0.97344 0.0
C644 C 0.0972 0.4153 0.64203 0.0
C645 C 0.1178 0.42944 0.61525 0.0
C646 C 0.09356 0.41097 0.71887 0.0
C647 C 0.11049 0.42052 0.77052 0.0
C648 C 0.13114 0.43443 0.74326 0.0
C649 C 0.13471 0.43893 0.66664 0.0
C650 C 0.11516 0.42801 0.98221 0.0
C651 C 0.10052 0.40747 1.00864 0.0
C652 C 0.11812 0.43226 0.90529 0.0
C653 C 0.10673 0.41606 0.85246 0.0
C654 C 0.09194 0.39558 0.87867 0.0
C655 C 0.08881 0.39137 0.95569 0.0
H656 H 0.66225 0.09613 0.51758 0.0
H657 H 0.72413 0.10254 0.48255 0.0
H658 H 0.65936 0.10087 0.38331 0.0
H659 H 0.72161 0.10784 0.34864 0.0
H660 H 0.70263 0.09721 0.10346 0.0
H661 H 0.70394 0.0905 0.23618 0.0
H662 H 0.67339 0.12713 0.28776 0.0
H663 H 0.67085 0.13276 0.15504 0.0
C664 C 0.6753 0.09873 0.48114 0.0
C665 C 0.6934 0.09895 0.51058 0.0
C666 C 0.6737 0.10151 0.40417 0.0
C667 C 0.69027 0.1048 0.35484 0.0
C668 C 0.70836 0.10496 0.38452 0.0
C669 C 0.70985 0.10198 0.46138 0.0
C670 C 0.69592 0.10365 0.14259 0.0
C671 C 0.68663 0.11559 0.11746 0.0
C672 C 0.69692 0.1 0.21923 0.0
C673 C 0.68883 0.10831 0.27304 0.0
C674 C 0.67954 0.12022 0.24807 0.0
C675 C 0.67836 0.12372 0.17146 0.0
H676 H 0.53279 0.67965 0.67412 0.0
H677 H 0.59964 0.70458 0.62757 0.0
H678 H 0.53947 0.67874 0.80758 0.0
H679 H 0.6064 0.70385 0.76134 0.0
H680 H 0.60675 0.67863 0.99709 0.0
H681 H 0.60013 0.67952 0.86322 0.0
H682 H 0.55596 0.70147 0.9136 0.0
H683 H 0.56244 0.70035 0.04726 0.0
C684 C 0.54897 0.68521 0.69238 0.0
C685 C 0.56566 0.69224 0.63987 0.0
C686 C 0.55282 0.68468 0.76909 0.0
C687 C 0.57349 0.69123 0.7955 0.0
C688 C 0.59022 0.69835 0.74301 0.0
C689 C 0.58635 0.69881 0.66617 0.0
C690 C 0.59571 0.68374 0.97955 0.0
C691 C 0.5851 0.68936 0.03304 0.0
C692 C 0.59194 0.68431 0.90272 0.0
C693 C 0.57752 0.6906 0.87737 0.0
C694 C 0.5669 0.69621 0.93097 0.0
C695 C 0.57061 0.69555 1.00778 0.0
H696 H 0.86144 0.56305 0.55329 0.0
H697 H 0.92762 0.60635 0.50112 0.0
H698 H 0.85339 0.55693 0.41984 0.0
H699 H 0.91963 0.60013 0.36741 0.0
H700 H 0.89384 0.60029 0.13278 0.0
H701 H 0.9016 0.60693 0.26644 0.0
H702 H 0.85894 0.5402 0.31283 0.0
H703 H 0.85113 0.53361 0.1796 0.0
C704 C 0.87434 0.57108 0.51345 0.0
C705 C 0.89521 0.58516 0.5382 0.0
C706 C 0.86972 0.56759 0.43671 0.0
C707 C 0.88585 0.57802 0.38255 0.0
C708 C 0.90673 0.59208 0.40733 0.0
C709 C 0.91134 0.59562 0.48412 0.0
C710 C 0.88616 0.58701 0.17134 0.0
C711 C 0.87177 0.5664 0.14503 0.0
C712 C 0.89065 0.59082 0.24817 0.0
C713 C 0.88091 0.57411 0.30071 0.0
C714 C 0.86647 0.55354 0.27435 0.0
C715 C 0.86196 0.54975 0.19768 0.0
H716 H 0.32743 0.86442 0.66581 0.0
H717 H 0.28768 0.89184 0.61864 0.0
H718 H 0.32615 0.87096 0.79902 0.0
H719 H 0.28654 0.89851 0.75231 0.0
H720 H 0.30942 0.92755 0.98835 0.0
H721 H 0.30977 0.92082 0.85427 0.0
H722 H 0.30107 0.8586 0.90371 0.0
H723 H 0.30059 0.86524 0.03737 0.0
C724 C 0.31821 0.87163 0.68368 0.0
C725 C 0.30758 0.8775 0.63101 0.0
C726 C 0.31751 0.87541 0.7603 0.0
C727 C 0.3062 0.88521 0.78646 0.0
C728 C 0.29562 0.89117 0.73397 0.0
C729 C 0.29628 0.88734 0.65721 0.0
C730 C 0.30738 0.91236 0.97066 0.0
C731 C 0.30509 0.89701 0.02399 0.0
C732 C 0.30757 0.9085 0.89372 0.0
C733 C 0.30552 0.8892 0.8682 0.0
C734 C 0.30306 0.87379 0.92145 0.0
C735 C 0.30283 0.87763 0.9983 0.0
H736 H 0.37866 0.2967 0.47703 0.0
H737 H 0.44494 0.31849 0.52527 0.0
H738 H 0.38617 0.29857 0.34343 0.0
H739 H 0.45261 0.32164 0.39211 0.0
H740 H 0.45555 0.30243 0.15192 0.0
H741 H 0.44746 0.30023 0.28548 0.0
H742 H 0.40303 0.32234 0.24154 0.0
H743 H 0.41081 0.32394 0.10755 0.0
C744 C 0.39484 0.30196 0.45955 0.0
C745 C 0.4111 0.30731 0.51283 0.0
C746 C 0.39921 0.3033 0.38256 0.0
C747 C 0.42 0.3102 0.35664 0.0
C748 C 0.43633 0.31591 0.4098 0.0
C749 C 0.43194 0.31439 0.4867 0.0
C750 C 0.44414 0.3069 0.17095 0.0
C751 C 0.43384 0.31337 0.1193 0.0
C752 C 0.43953 0.30572 0.24759 0.0
C753 C 0.42465 0.31122 0.27467 0.0
C754 C 0.41432 0.31767 0.22278 0.0
C755 C 0.41879 0.31863 0.14595 0.0
H756 H 0.5602 0.86221 0.4878 0.0
H757 H 0.60801 0.9271 0.53894 0.0
H758 H 0.55347 0.85461 0.6213 0.0
H759 H 0.60123 0.91949 0.67274 0.0
H760 H 0.59807 0.89225 0.90851 0.0
H761 H 0.60546 0.89968 0.77489 0.0
H762 H 0.53808 0.86271 0.72732 0.0
H763 H 0.53068 0.8553 0.86039 0.0
C764 C 0.56914 0.87495 0.52733 0.0
C765 C 0.58462 0.89532 0.50215 0.0
C766 C 0.56529 0.87057 0.60416 0.0
C767 C 0.57678 0.88643 0.6581 0.0
C768 C 0.5923 0.90678 0.63298 0.0
C769 C 0.59617 0.91117 0.55608 0.0
C770 C 0.5848 0.88576 0.86976 0.0
C771 C 0.56375 0.87306 0.89582 0.0
C772 C 0.58905 0.89006 0.79292 0.0
C773 C 0.57238 0.88178 0.74003 0.0
C774 C 0.55137 0.86905 0.76609 0.0
C775 C 0.54712 0.86477 0.84275 0.0
H776 H 0.71024 0.60247 0.42014 0.0
H777 H 0.66356 0.53672 0.37585 0.0
H778 H 0.71201 0.61035 0.28627 0.0
H779 H 0.66522 0.54458 0.24233 0.0
H780 H 0.69126 0.56106 1.00312 0.0
H781 H 0.68911 0.55354 0.13702 0.0
H782 H 0.6915 0.61319 0.184 0.0
H783 H 0.69378 0.62074 0.04966 0.0
C784 C 0.70021 0.58973 0.38201 0.0
C785 C 0.68684 0.56893 0.40886 0.0
C786 C 0.7012 0.59425 0.30519 0.0
C787 C 0.68881 0.57808 0.25338 0.0
C788 C 0.67529 0.55734 0.2804 0.0
C789 C 0.67434 0.55282 0.35709 0.0
C790 C 0.69109 0.57247 0.04182 0.0
C791 C 0.69262 0.59149 0.0155 0.0
C792 C 0.68986 0.56816 0.11877 0.0
C793 C 0.69009 0.58274 0.17143 0.0
C794 C 0.6916 0.60175 0.14512 0.0
C795 C 0.69288 0.60608 0.06809 0.0
H796 H 0.12646 0.68166 0.4923 0.0
H797 H 0.08054 0.70172 0.53921 0.0
H798 H 0.13075 0.67848 0.62547 0.0
H799 H 0.08599 0.69989 0.67296 0.0
H800 H 0.08534 0.67418 0.90847 0.0
H801 H 0.07937 0.67601 0.77438 0.0
H802 H 0.14637 0.69998 0.73227 0.0
H803 H 0.15205 0.6975 0.86576 0.0
C804 C 0.1172 0.68538 0.53057 0.0
C805 C 0.10311 0.69197 0.50408 0.0
C806 C 0.11995 0.68386 0.60748 0.0
C807 C 0.10887 0.68909 0.66028 0.0
C808 C 0.09465 0.69553 0.63403 0.0
C809 C 0.09174 0.69686 0.55699 0.0
C810 C 0.09876 0.67993 0.87039 0.0
C811 C 0.11913 0.6856 0.89741 0.0
C812 C 0.09538 0.68104 0.79357 0.0
C813 C 0.11237 0.68805 0.74222 0.0
C814 C 0.13281 0.69403 0.76976 0.0
C815 C 0.13611 0.69269 0.84633 0.0
H816 H 0.44154 0.13289 0.99304 0.0
H817 H 0.38375 0.07377 0.04075 0.0
H818 H 0.44892 0.13876 0.12684 0.0
H819 H 0.39116 0.07963 0.17499 0.0
H820 H 0.40053 0.10913 0.41069 0.0
H821 H 0.39271 0.10274 0.27691 0.0
H822 H 0.45913 0.12471 0.23214 0.0
H823 H 0.46694 0.1311 0.3655 0.0
C824 C 0.43052 0.121 0.03194 0.0
C825 C 0.41208 0.10279 1.00592 0.0
C826 C 0.43474 0.12438 0.10884 0.0
C827 C 0.42066 0.10965 0.16179 0.0
C828 C 0.4022 0.09146 0.13584 0.0
C829 C 0.39796 0.08808 0.05885 0.0
C830 C 0.41344 0.11245 0.37244 0.0
C831 C 0.4344 0.12075 0.39908 0.0
C832 C 0.40895 0.10877 0.29566 0.0
C833 C 0.4253 0.11328 0.24365 0.0
C834 C 0.44621 0.12143 0.27039 0.0
C835 C 0.4507 0.12512 0.34703 0.0
H836 H 0.29417 0.3983 0.8888 0.0
H837 H 0.31885 0.46508 0.84212 0.0
H838 H 0.29489 0.39154 0.75503 0.0
H839 H 0.31976 0.45841 0.70867 0.0
H840 H 0.29823 0.43543 0.46901 0.0
H841 H 0.29703 0.44186 0.60266 0.0
H842 H 0.31924 0.3979 0.65317 0.0
H843 H 0.32021 0.39134 0.51931 0.0
C844 C 0.29988 0.41158 0.85017 0.0
C845 C 0.30639 0.43224 0.87642 0.0
C846 C 0.30033 0.40771 0.77333 0.0
C847 C 0.30738 0.42443 0.72082 0.0
C848 C 0.31387 0.44507 0.74718 0.0
C849 C 0.31335 0.44891 0.82388 0.0
C850 C 0.30307 0.4273 0.50852 0.0
C851 C 0.30936 0.41289 0.4833 0.0
C852 C 0.30237 0.43098 0.58532 0.0
C853 C 0.30804 0.42041 0.63895 0.0
C854 C 0.31442 0.40606 0.61365 0.0
C855 C 0.31503 0.40232 0.53682 0.0
H856 H 0.85087 0.31592 0.34727 0.0
H857 H 0.89365 0.29204 0.39372 0.0
H858 H 0.85871 0.31722 0.21399 0.0
H859 H 0.90144 0.29323 0.26003 0.0
H860 H 0.92747 0.31986 0.02534 0.0
H861 H 0.91946 0.31809 0.15908 0.0
H862 H 0.85322 0.29501 0.10686 0.0
H863 H 0.86129 0.29694 0.97338 0.0
C864 C 0.86172 0.31065 0.3291 0.0
C865 C 0.87155 0.30381 0.38166 0.0
C866 C 0.86625 0.31141 0.2524 0.0
C867 C 0.88073 0.30533 0.22593 0.0
C868 C 0.89047 0.29836 0.27839 0.0
C869 C 0.88596 0.29764 0.35523 0.0
C870 C 0.91119 0.3143 0.04239 0.0
C871 C 0.89507 0.30861 0.98836 0.0
C872 C 0.90657 0.31323 0.1192 0.0
C873 C 0.88568 0.30639 0.14405 0.0
C874 C 0.86956 0.3007 0.08994 0.0
C875 C 0.87419 0.30183 0.01318 0.0
H876 H 0.14553 0.38305 0.32337 0.0
H877 H 0.17721 0.44828 0.24553 0.0
H878 H 0.17849 0.38192 0.3028 0.0
H879 H 0.20965 0.44706 0.22448 0.0
H880 H 0.27017 0.4475 0.27965 0.0
H881 H 0.23625 0.44534 0.3049 0.0
H882 H 0.20324 0.38376 0.19721 0.0
H883 H 0.23757 0.38578 0.17242 0.0
C884 C 0.15947 0.39709 0.30192 0.0
C885 C 0.15882 0.4158 0.28664 0.0
C886 C 0.17826 0.3964 0.28971 0.0
C887 C 0.19671 0.41446 0.26264 0.0
C888 C 0.19584 0.433 0.24662 0.0
C889 C 0.17718 0.43366 0.25844 0.0
C890 C 0.25573 0.43342 0.26138 0.0
C891 C 0.25658 0.4169 0.22325 0.0
C892 C 0.23626 0.43223 0.27572 0.0
C893 C 0.21708 0.41451 0.25222 0.0
C894 C 0.21778 0.39759 0.21617 0.0
C895 C 0.2374 0.3988 0.20164 0.0
H896 H 0.85117 0.2366 0.6758 0.0
H897 H 0.82225 0.26835 0.79039 0.0
H898 H 0.81899 0.20205 0.70003 0.0
H899 H 0.79064 0.23425 0.81486 0.0
H900 H 0.76183 0.14364 0.8252 0.0
H901 H 0.79604 0.17662 0.80604 0.0
H902 H 0.76234 0.20837 0.73122 0.0
H903 H 0.72856 0.17592 0.75069 0.0
C904 C 0.83808 0.23619 0.70661 0.0
C905 C 0.83913 0.2552 0.73027 0.0
C906 C 0.81975 0.21646 0.72076 0.0
C907 C 0.80221 0.2155 0.75847 0.0
C908 C 0.80371 0.23449 0.78438 0.0
C909 C 0.82189 0.25405 0.77043 0.0
C910 C 0.76182 0.15772 0.80482 0.0
C911 C 0.74251 0.15723 0.79003 0.0
C912 C 0.78136 0.17651 0.79341 0.0
C913 C 0.78185 0.19511 0.76776 0.0
C914 C 0.7625 0.19442 0.75223 0.0
C915 C 0.74312 0.17575 0.76316 0.0
H916 H 0.54895 0.8207 0.28586 0.0
H917 H 0.61214 0.85236 0.18894 0.0
H918 H 0.55133 0.78891 0.30629 0.0
H919 H 0.61444 0.81997 0.20949 0.0
H920 H 0.6126 0.76117 0.34142 0.0
H921 H 0.61444 0.79552 0.31827 0.0
H922 H 0.55186 0.76245 0.21774 0.0
H923 H 0.54992 0.72855 0.2409 0.0
C924 C 0.56341 0.82091 0.2689 0.0
C925 C 0.58029 0.83902 0.23507 0.0
C926 C 0.56472 0.80261 0.28047 0.0
C927 C 0.58296 0.80187 0.25866 0.0
C928 C 0.60021 0.82015 0.22687 0.0
C929 C 0.59885 0.8386 0.21483 0.0
C930 C 0.59933 0.76134 0.31402 0.0
C931 C 0.58101 0.74215 0.29386 0.0
C932 C 0.60044 0.78096 0.30045 0.0
C933 C 0.58318 0.78161 0.26703 0.0
C934 C 0.56525 0.76243 0.24478 0.0
C935 C 0.56418 0.74298 0.25799 0.0
H936 H 0.85131 0.61313 0.85084 0.0
H937 H 0.82205 0.55204 0.73912 0.0
H938 H 0.81898 0.61531 0.8279 0.0
H939 H 0.79029 0.55433 0.71599 0.0
H940 H 0.76164 0.61611 0.70249 0.0
H941 H 0.79583 0.6174 0.7221 0.0
H942 H 0.76217 0.55224 0.80022 0.0
H943 H 0.72836 0.55087 0.78032 0.0
C944 C 0.83811 0.60031 0.82096 0.0
C945 C 0.83912 0.58231 0.79766 0.0
C946 C 0.81968 0.60159 0.80758 0.0
C947 C 0.80202 0.58485 0.77105 0.0
C948 C 0.80346 0.56729 0.7456 0.0
C949 C 0.82173 0.56603 0.75874 0.0
C950 C 0.76162 0.6021 0.72381 0.0
C951 C 0.74231 0.58333 0.73927 0.0
C952 C 0.78116 0.60289 0.73545 0.0
C953 C 0.78165 0.58486 0.76206 0.0
C954 C 0.76231 0.56628 0.77848 0.0
C955 C 0.74292 0.56553 0.7673 0.0
H956 H 0.23655 0.85043 0.33058 0.0
H957 H 0.27205 0.82282 0.23492 0.0
H958 H 0.20319 0.81729 0.30527 0.0
H959 H 0.23895 0.7901 0.20873 0.0
H960 H 0.14727 0.75983 0.18224 0.0
H961 H 0.17989 0.79415 0.20176 0.0
H962 H 0.21175 0.76117 0.28337 0.0
H963 H 0.17954 0.72717 0.263 0.0
C964 C 0.23722 0.83736 0.30379 0.0
C965 C 0.25692 0.83916 0.28541 0.0
C966 C 0.21813 0.81845 0.2889 0.0
C967 C 0.21844 0.80101 0.25555 0.0
C968 C 0.23816 0.80308 0.23571 0.0
C969 C 0.25715 0.8219 0.25049 0.0
C970 C 0.1613 0.75998 0.20403 0.0
C971 C 0.16087 0.74081 0.22072 0.0
C972 C 0.17992 0.77961 0.21566 0.0
C973 C 0.19844 0.78038 0.24374 0.0
C974 C 0.19789 0.76115 0.2605 0.0
C975 C 0.17936 0.74164 0.24914 0.0
H976 H 0.38856 0.23895 0.8344 0.0
H977 H 0.45289 0.27267 0.7478 0.0
H978 H 0.38771 0.20503 0.81554 0.0
H979 H 0.45193 0.23903 0.72811 0.0
H980 H 0.45265 0.17851 0.78277 0.0
H981 H 0.4516 0.21106 0.80486 0.0
H982 H 0.38791 0.18155 0.71331 0.0
H983 H 0.38883 0.14861 0.69206 0.0
C984 C 0.40248 0.23912 0.81134 0.0
C985 C 0.42083 0.25848 0.79301 0.0
C986 C 0.40195 0.21971 0.8001 0.0
C987 C 0.4198 0.21935 0.77073 0.0
C988 C 0.43804 0.23875 0.75199 0.0
C989 C 0.43855 0.25805 0.76297 0.0
C990 C 0.43838 0.1789 0.76734 0.0
C991 C 0.42086 0.16102 0.7352 0.0
C992 C 0.43783 0.19761 0.77974 0.0
C993 C 0.41974 0.19896 0.76029 0.0
C994 C 0.40202 0.18096 0.72933 0.0
C995 C 0.4026 0.16216 0.71675 0.0
loop_
_geom_bond_atom_site_label_1
_geom_bond_atom_site_label_2
_geom_bond_distance
_geom_bond_site_symmetry_2
_ccdc_geom_bond_type
Co0 N4 2.148 . S
Co0 N10 2.128 . S
Co0 N20 2.194 . S
Co0 O25 2.351 . S
Co0 O26 2.155 . S
Co0 O27 2.096 . S
C1 N4 1.301 . S
C1 N5 1.328 . S
C1 H6 0.930 . S
C2 C3 1.333 . S
C2 N4 1.317 . S
C2 H7 0.930 . S
C3 C2 1.333 . S
C3 N5 1.350 . S
C3 H29 0.931 . S
N4 Co0 2.148 . S
N4 C1 1.301 . S
N4 C2 1.317 . S
N5 C1 1.328 . S
N5 C3 1.350 . S
H6 C1 0.930 . S
H7 C2 0.930 . S
C8 O9 1.224 . S
C8 O27 1.247 . S
O9 C8 1.224 . S
N10 Co0 2.128 . S
N10 C11 1.355 . S
N10 C13 1.311 . S
C11 N10 1.355 . S
C11 C12 1.363 . S
C11 H23 0.929 . S
C12 C11 1.363 . S
C12 N14 1.375 . S
C12 H30 0.931 . S
C13 N10 1.311 . S
C13 N14 1.347 . S
C13 H24 0.929 . S
N14 C12 1.375 . S
N14 C13 1.347 . S
C15 C18 1.365 . S
C15 N20 1.328 . S
C15 H21 0.929 . S
C16 C17 1.362 . S
C16 C19 1.378 . S
C16 H31 0.929 . S
C17 C16 1.362 . S
C17 C18 1.366 . S
C18 C15 1.365 . S
C18 C17 1.366 . S
C18 H32 0.930 . S
C19 C16 1.378 . S
C19 N20 1.315 . S
C19 H22 0.930 . S
N20 Co0 2.194 . S
N20 C15 1.328 . S
N20 C19 1.315 . S
H21 C15 0.929 . S
H22 C19 0.930 . S
H23 C11 0.929 . S
H24 C13 0.929 . S
O25 Co0 2.351 . S
O25 C28 1.244 . S
O26 Co0 2.155 . S
O26 C28 1.240 . S
O27 Co0 2.096 . S
O27 C8 1.247 . S
C28 O25 1.244 . S
C28 O26 1.240 . S
H29 C3 0.931 . S
H30 C12 0.931 . S
H31 C16 0.929 . S
H32 C18 0.930 . S
Co33 N37 2.148 . S
Co33 N43 2.128 . S
Co33 N53 2.194 . S
Co33 O58 2.351 . S
Co33 O59 2.155 . S
Co33 O60 2.096 . S
C34 N37 1.301 . S
C34 N38 1.328 . S
C34 H39 0.930 . S
C35 C36 1.333 . S
C35 N37 1.317 . S
C35 H40 0.930 . S
C36 C35 1.333 . S
C36 N38 1.350 . S
C36 H62 0.931 . S
N37 Co33 2.148 . S
N37 C34 1.301 . S
N37 C35 1.317 . S
N38 C34 1.328 . S
N38 C36 1.350 . S
H39 C34 0.930 . S
H40 C35 0.930 . S
C41 O42 1.224 . S
C41 O60 1.247 . S
O42 C41 1.224 . S
N43 Co33 2.128 . S
N43 C44 1.355 . S
N43 C46 1.321 . S
C44 N43 1.355 . S
C44 C45 1.363 1_556 S
C44 H56 0.929 . S
C45 C44 1.363 1_554 S
C45 N47 1.375 . S
C45 H63 0.931 . S
C46 N43 1.321 . S
C46 N47 1.337 1_556 S
C46 H57 0.929 . S
N47 C45 1.375 . S
N47 C46 1.337 1_554 S
C48 C51 1.365 . S
C48 N53 1.328 . S
C48 H54 0.929 . S
C49 C50 1.362 . S
C49 C52 1.378 . S
C49 H64 0.929 . S
C50 C49 1.362 . S
C50 C51 1.366 . S
C51 C48 1.365 . S
C51 C50 1.366 . S
C51 H65 0.930 . S
C52 C49 1.378 . S
C52 N53 1.315 . S
C52 H55 0.930 . S
N53 Co33 2.194 . S
N53 C48 1.328 . S
N53 C52 1.315 . S
H54 C48 0.929 . S
H55 C52 0.930 . S
H56 C44 0.929 . S
H57 C46 0.929 . S
O58 Co33 2.351 . S
O58 C61 1.244 . S
O59 Co33 2.155 . S
O59 C61 1.240 . S
O60 Co33 2.096 . S
O60 C41 1.247 . S
C61 O58 1.244 . S
C61 O59 1.240 . S
H62 C36 0.931 . S
H63 C45 0.931 . S
H64 C49 0.929 . S
H65 C51 0.930 . S
Co66 N70 2.148 . S
Co66 N76 2.128 . S
Co66 N86 2.194 . S
Co66 O91 2.351 . S
Co66 O92 2.155 . S
Co66 O93 2.096 . S
C67 N70 1.301 . S
C67 N71 1.328 . S
C67 H72 0.930 . S
C68 C69 1.333 . S
C68 N70 1.317 . S
C68 H73 0.930 . S
C69 C68 1.333 . S
C69 N71 1.350 . S
C69 H95 0.931 . S
N70 Co66 2.148 . S
N70 C67 1.301 . S
N70 C68 1.317 . S
N71 C67 1.328 . S
N71 C69 1.350 . S
H72 C67 0.930 . S
H73 C68 0.930 . S
C74 O75 1.224 . S
C74 O93 1.247 . S
O75 C74 1.224 . S
N76 Co66 2.128 . S
N76 C77 1.355 . S
N76 C79 1.311 . S
C77 N76 1.355 . S
C77 C78 1.363 . S
C77 H89 0.929 . S
C78 C77 1.363 . S
C78 N80 1.375 . S
C78 H96 0.931 . S
C79 N76 1.311 . S
C79 N80 1.347 . S
C79 H90 0.929 . S
N80 C78 1.375 . S
N80 C79 1.347 . S
C81 C84 1.365 . S
C81 N86 1.328 . S
C81 H87 0.929 . S
C82 C83 1.362 . S
C82 C85 1.378 . S
C82 H97 0.929 . S
C83 C82 1.362 . S
C83 C84 1.366 . S
C84 C81 1.365 . S
C84 C83 1.366 . S
C84 H98 0.930 . S
C85 C82 1.378 . S
C85 N86 1.315 . S
C85 H88 0.930 . S
N86 Co66 2.194 . S
N86 C81 1.328 . S
N86 C85 1.315 . S
H87 C81 0.929 . S
H88 C85 0.930 . S
H89 C77 0.929 . S
H90 C79 0.929 . S
O91 Co66 2.351 . S
O91 C94 1.244 . S
O92 Co66 2.155 . S
O92 C94 1.240 . S
O93 Co66 2.096 . S
O93 C74 1.247 . S
C94 O91 1.244 . S
C94 O92 1.240 . S
H95 C69 0.931 . S
H96 C78 0.931 . S
H97 C82 0.929 . S
H98 C84 0.930 . S
Co99 N103 2.148 . S
Co99 N109 2.128 . S
Co99 N119 2.194 . S
Co99 O124 2.351 . S
Co99 O125 2.155 . S
Co99 O126 2.096 . S
C100 N103 1.301 . S
C100 N104 1.328 . S
C100 H105 0.930 . S
C101 C102 1.333 . S
C101 N103 1.317 . S
C101 H106 0.930 . S
C102 C101 1.333 . S
C102 N104 1.350 . S
C102 H128 0.931 . S
N103 Co99 2.148 . S
N103 C100 1.301 . S
N103 C101 1.317 . S
N104 C100 1.328 . S
N104 C102 1.350 . S
H105 C100 0.930 . S
H106 C101 0.930 . S
C107 O108 1.224 . S
C107 O126 1.247 . S
O108 C107 1.224 . S
N109 Co99 2.128 . S
N109 C110 1.355 . S
N109 C112 1.322 . S
C110 N109 1.355 . S
C110 C111 1.363 1_556 S
C110 H122 0.929 . S
C111 C110 1.363 1_554 S
C111 N113 1.375 . S
C111 H129 0.931 . S
C112 N109 1.322 . S
C112 N113 1.336 1_556 S
C112 H123 0.929 . S
N113 C111 1.375 . S
N113 C112 1.336 1_554 S
C114 C117 1.365 . S
C114 N119 1.328 . S
C114 H120 0.929 . S
C115 C116 1.362 . S
C115 C118 1.378 . S
C115 H130 0.929 . S
C116 C115 1.362 . S
C116 C117 1.366 . S
C117 C114 1.365 . S
C117 C116 1.366 . S
C117 H131 0.930 . S
C118 C115 1.378 . S
C118 N119 1.315 . S
C118 H121 0.930 . S
N119 Co99 2.194 . S
N119 C114 1.328 . S
N119 C118 1.315 . S
H120 C114 0.929 . S
H121 C118 0.930 . S
H122 C110 0.929 . S
H123 C112 0.929 . S
O124 Co99 2.351 . S
O124 C127 1.244 . S
O125 Co99 2.155 . S
O125 C127 1.240 . S
O126 Co99 2.096 . S
O126 C107 1.247 . S
C127 O124 1.244 . S
C127 O125 1.240 . S
H128 C102 0.931 . S
H129 C111 0.931 . S
H130 C115 0.929 . S
H131 C117 0.930 . S
Co132 N136 2.148 . S
Co132 N142 2.128 . S
Co132 N152 2.194 . S
Co132 O157 2.351 . S
Co132 O158 2.155 . S
Co132 O159 2.096 . S
C133 N136 1.301 . S
C133 N137 1.328 . S
C133 H138 0.930 . S
C134 C135 1.333 . S
C134 N136 1.317 . S
C134 H139 0.930 . S
C135 C134 1.333 . S
C135 N137 1.350 . S
C135 H161 0.931 . S
N136 Co132 2.148 . S
N136 C133 1.301 . S
N136 C134 1.317 . S
N137 C133 1.328 . S
N137 C135 1.350 . S
H138 C133 0.930 . S
H139 C134 0.930 . S
C140 O141 1.224 . S
C140 O159 1.247 . S
O141 C140 1.224 . S
N142 Co132 2.128 . S
N142 C143 1.355 . S
N142 C145 1.311 . S
C143 N142 1.355 . S
C143 C144 1.363 . S
C143 H155 0.929 . S
C144 C143 1.363 . S
C144 N146 1.375 . S
C144 H162 0.931 . S
C145 N142 1.311 . S
C145 N146 1.347 . S
C145 H156 0.929 . S
N146 C144 1.375 . S
N146 C145 1.347 . S
C147 C150 1.365 . S
C147 N152 1.328 . S
C147 H153 0.929 . S
C148 C149 1.362 . S
C148 C151 1.378 . S
C148 H163 0.929 . S
C149 C148 1.362 . S
C149 C150 1.366 . S
C150 C147 1.365 . S
C150 C149 1.366 . S
C150 H164 0.930 . S
C151 C148 1.378 . S
C151 N152 1.315 . S
C151 H154 0.930 . S
N152 Co132 2.194 . S
N152 C147 1.328 . S
N152 C151 1.315 . S
H153 C147 0.929 . S
H154 C151 0.930 . S
H155 C143 0.929 . S
H156 C145 0.929 . S
O157 Co132 2.351 . S
O157 C160 1.244 . S
O158 Co132 2.155 . S
O158 C160 1.240 . S
O159 Co132 2.096 . S
O159 C140 1.247 . S
C160 O157 1.244 . S
C160 O158 1.240 . S
H161 C135 0.931 . S
H162 C144 0.931 . S
H163 C148 0.929 . S
H164 C150 0.930 . S
Co165 N169 2.148 . S
Co165 N175 2.128 . S
Co165 N185 2.194 . S
Co165 O190 2.351 . S
Co165 O191 2.155 . S
Co165 O192 2.096 . S
C166 N169 1.301 . S
C166 N170 1.328 . S
C166 H171 0.930 . S
C167 C168 1.333 . S
C167 N169 1.317 . S
C167 H172 0.930 . S
C168 C167 1.333 . S
C168 N170 1.350 . S
C168 H194 0.931 . S
N169 Co165 2.148 . S
N169 C166 1.301 . S
N169 C167 1.317 . S
N170 C166 1.328 . S
N170 C168 1.350 . S
H171 C166 0.930 . S
H172 C167 0.930 . S
C173 O174 1.224 . S
C173 O192 1.247 . S
O174 C173 1.224 . S
N175 Co165 2.128 . S
N175 C176 1.355 . S
N175 C178 1.321 . S
C176 N175 1.355 . S
C176 C177 1.363 1_556 S
C176 H188 0.929 . S
C177 C176 1.363 1_554 S
C177 N179 1.375 . S
C177 H195 0.931 . S
C178 N175 1.321 . S
C178 N179 1.337 1_556 S
C178 H189 0.929 . S
N179 C177 1.375 . S
N179 C178 1.337 1_554 S
C180 C183 1.365 . S
C180 N185 1.328 . S
C180 H186 0.929 . S
C181 C182 1.362 . S
C181 C184 1.378 . S
C181 H196 0.929 . S
C182 C181 1.362 . S
C182 C183 1.366 . S
C183 C180 1.365 . S
C183 C182 1.366 . S
C183 H197 0.930 . S
C184 C181 1.378 . S
C184 N185 1.315 . S
C184 H187 0.930 . S
N185 Co165 2.194 . S
N185 C180 1.328 . S
N185 C184 1.315 . S
H186 C180 0.929 . S
H187 C184 0.930 . S
H188 C176 0.929 . S
H189 C178 0.929 . S
O190 Co165 2.351 . S
O190 C193 1.244 . S
O191 Co165 2.155 . S
O191 C193 1.240 . S
O192 Co165 2.096 . S
O192 C173 1.247 . S
C193 O190 1.244 . S
C193 O191 1.240 . S
H194 C168 0.931 . S
H195 C177 0.931 . S
H196 C181 0.929 . S
H197 C183 0.930 . S
Co198 N202 2.148 . S
Co198 N208 2.128 . S
Co198 N218 2.194 . S
Co198 O223 2.351 . S
Co198 O224 2.155 . S
Co198 O225 2.096 . S
C199 N202 1.301 . S
C199 N203 1.328 . S
C199 H204 0.930 . S
C200 C201 1.333 . S
C200 N202 1.317 . S
C200 H205 0.930 . S
C201 C200 1.333 . S
C201 N203 1.350 . S
C201 H227 0.931 . S
N202 Co198 2.148 . S
N202 C199 1.301 . S
N202 C200 1.317 . S
N203 C199 1.328 . S
N203 C201 1.350 . S
H204 C199 0.930 . S
H205 C200 0.930 . S
C206 O207 1.224 . S
C206 O225 1.247 . S
O207 C206 1.224 . S
N208 Co198 2.128 . S
N208 C209 1.355 . S
N208 C211 1.322 . S
C209 N208 1.355 . S
C209 C210 1.363 1_554 S
C209 H221 0.929 . S
C210 C209 1.363 1_556 S
C210 N212 1.375 . S
C210 H228 0.931 . S
C211 N208 1.322 . S
C211 N212 1.336 1_554 S
C211 H222 0.929 . S
N212 C210 1.375 . S
N212 C211 1.336 1_556 S
C213 C216 1.365 . S
C213 N218 1.328 . S
C213 H219 0.929 . S
C214 C215 1.362 . S
C214 C217 1.378 . S
C214 H229 0.929 . S
C215 C214 1.362 . S
C215 C216 1.366 . S
C216 C213 1.365 . S
C216 C215 1.366 . S
C216 H230 0.930 . S
C217 C214 1.378 . S
C217 N218 1.315 . S
C217 H220 0.930 . S
N218 Co198 2.194 . S
N218 C213 1.328 . S
N218 C217 1.315 . S
H219 C213 0.929 . S
H220 C217 0.930 . S
H221 C209 0.929 . S
H222 C211 0.929 . S
O223 Co198 2.351 . S
O223 C226 1.244 . S
O224 Co198 2.155 . S
O224 C226 1.240 . S
O225 Co198 2.096 . S
O225 C206 1.247 . S
C226 O223 1.244 . S
C226 O224 1.240 . S
H227 C201 0.931 . S
H228 C210 0.931 . S
H229 C214 0.929 . S
H230 C216 0.930 . S
Co231 N235 2.148 . S
Co231 N241 2.128 . S
Co231 N251 2.194 . S
Co231 O256 2.351 . S
Co231 O257 2.155 . S
Co231 O258 2.096 . S
C232 N235 1.301 . S
C232 N236 1.328 . S
C232 H237 0.930 . S
C233 C234 1.333 . S
C233 N235 1.317 . S
C233 H238 0.930 . S
C234 C233 1.333 . S
C234 N236 1.350 . S
C234 H260 0.931 . S
N235 Co231 2.148 . S
N235 C232 1.301 . S
N235 C233 1.317 . S
N236 C232 1.328 . S
N236 C234 1.350 . S
H237 C232 0.930 . S
H238 C233 0.930 . S
C239 O240 1.224 . S
C239 O258 1.247 . S
O240 C239 1.224 . S
N241 Co231 2.128 . S
N241 C242 1.355 . S
N241 C244 1.311 . S
C242 N241 1.355 . S
C242 C243 1.363 . S
C242 H254 0.929 . S
C243 C242 1.363 . S
C243 N245 1.375 . S
C243 H261 0.931 . S
C244 N241 1.311 . S
C244 N245 1.347 . S
C244 H255 0.929 . S
N245 C243 1.375 . S
N245 C244 1.347 . S
C246 C249 1.365 . S
C246 N251 1.328 . S
C246 H252 0.929 . S
C247 C248 1.362 . S
C247 C250 1.378 . S
C247 H262 0.929 . S
C248 C247 1.362 . S
C248 C249 1.366 . S
C249 C246 1.365 . S
C249 C248 1.366 . S
C249 H263 0.930 . S
C250 C247 1.378 . S
C250 N251 1.315 . S
C250 H253 0.930 . S
N251 Co231 2.194 . S
N251 C246 1.328 . S
N251 C250 1.315 . S
H252 C246 0.929 . S
H253 C250 0.930 . S
H254 C242 0.929 . S
H255 C244 0.929 . S
O256 Co231 2.351 . S
O256 C259 1.244 . S
O257 Co231 2.155 . S
O257 C259 1.240 . S
O258 Co231 2.096 . S
O258 C239 1.247 . S
C259 O256 1.244 . S
C259 O257 1.240 . S
H260 C234 0.931 . S
H261 C243 0.931 . S
H262 C247 0.929 . S
H263 C249 0.930 . S
Co264 N268 2.148 . S
Co264 N274 2.128 . S
Co264 N284 2.194 . S
Co264 O289 2.351 . S
Co264 O290 2.155 . S
Co264 O291 2.096 . S
C265 N268 1.301 . S
C265 N269 1.328 . S
C265 H270 0.930 . S
C266 C267 1.333 . S
C266 N268 1.317 . S
C266 H271 0.930 . S
C267 C266 1.333 . S
C267 N269 1.350 . S
C267 H293 0.931 . S
N268 Co264 2.148 . S
N268 C265 1.301 . S
N268 C266 1.317 . S
N269 C265 1.328 . S
N269 C267 1.350 . S
H270 C265 0.930 . S
H271 C266 0.930 . S
C272 O273 1.224 . S
C272 O291 1.247 . S
O273 C272 1.224 . S
N274 Co264 2.128 . S
N274 C275 1.355 . S
N274 C277 1.321 . S
C275 N274 1.355 . S
C275 C276 1.363 1_554 S
C275 H287 0.929 . S
C276 C275 1.363 1_556 S
C276 N278 1.375 . S
C276 H294 0.931 . S
C277 N274 1.321 . S
C277 N278 1.337 1_554 S
C277 H288 0.929 . S
N278 C276 1.375 . S
N278 C277 1.337 1_556 S
C279 C282 1.365 . S
C279 N284 1.328 . S
C279 H285 0.929 . S
C280 C281 1.362 . S
C280 C283 1.378 . S
C280 H295 0.929 . S
C281 C280 1.362 . S
C281 C282 1.366 . S
C282 C279 1.365 . S
C282 C281 1.366 . S
C282 H296 0.930 . S
C283 C280 1.378 . S
C283 N284 1.315 . S
C283 H286 0.930 . S
N284 Co264 2.194 . S
N284 C279 1.328 . S
N284 C283 1.315 . S
H285 C279 0.929 . S
H286 C283 0.930 . S
H287 C275 0.929 . S
H288 C277 0.929 . S
O289 Co264 2.351 . S
O289 C292 1.244 . S
O290 Co264 2.155 . S
O290 C292 1.240 . S
O291 Co264 2.096 . S
O291 C272 1.247 . S
C292 O289 1.244 . S
C292 O290 1.240 . S
H293 C267 0.931 . S
H294 C276 0.931 . S
H295 C280 0.929 . S
H296 C282 0.930 . S
Co297 N301 2.148 . S
Co297 N307 2.128 . S
Co297 N317 2.194 . S
Co297 O322 2.351 . S
Co297 O323 2.155 . S
Co297 O324 2.096 . S
C298 N301 1.301 . S
C298 N302 1.328 . S
C298 H303 0.930 . S
C299 C300 1.333 . S
C299 N301 1.317 . S
C299 H304 0.930 . S
C300 C299 1.333 . S
C300 N302 1.350 . S
C300 H326 0.931 . S
N301 Co297 2.148 . S
N301 C298 1.301 . S
N301 C299 1.317 . S
N302 C298 1.328 . S
N302 C300 1.350 . S
H303 C298 0.930 . S
H304 C299 0.930 . S
C305 O306 1.224 . S
C305 O324 1.247 . S
O306 C305 1.224 . S
N307 Co297 2.128 . S
N307 C308 1.355 . S
N307 C310 1.311 . S
C308 N307 1.355 . S
C308 C309 1.363 . S
C308 H320 0.929 . S
C309 C308 1.363 . S
C309 N311 1.375 . S
C309 H327 0.931 . S
C310 N307 1.311 . S
C310 N311 1.347 . S
C310 H321 0.929 . S
N311 C309 1.375 . S
N311 C310 1.347 . S
C312 C315 1.365 . S
C312 N317 1.328 . S
C312 H318 0.929 . S
C313 C314 1.362 . S
C313 C316 1.378 . S
C313 H328 0.929 . S
C314 C313 1.362 . S
C314 C315 1.366 . S
C315 C312 1.365 . S
C315 C314 1.366 . S
C315 H329 0.930 . S
C316 C313 1.378 . S
C316 N317 1.315 . S
C316 H319 0.930 . S
N317 Co297 2.194 . S
N317 C312 1.328 . S
N317 C316 1.315 . S
H318 C312 0.929 . S
H319 C316 0.930 . S
H320 C308 0.929 . S
H321 C310 0.929 . S
O322 Co297 2.351 . S
O322 C325 1.244 . S
O323 Co297 2.155 . S
O323 C325 1.240 . S
O324 Co297 2.096 . S
O324 C305 1.247 . S
C325 O322 1.244 . S
C325 O323 1.240 . S
H326 C300 0.931 . S
H327 C309 0.931 . S
H328 C313 0.929 . S
H329 C315 0.930 . S
Co330 N334 2.148 . S
Co330 N340 2.128 . S
Co330 N350 2.194 . S
Co330 O355 2.351 . S
Co330 O356 2.155 . S
Co330 O357 2.096 . S
C331 N334 1.301 . S
C331 N335 1.328 . S
C331 H336 0.930 . S
C332 C333 1.333 . S
C332 N334 1.317 . S
C332 H337 0.930 . S
C333 C332 1.333 . S
C333 N335 1.350 . S
C333 H359 0.931 . S
N334 Co330 2.148 . S
N334 C331 1.301 . S
N334 C332 1.317 . S
N335 C331 1.328 . S
N335 C333 1.350 . S
H336 C331 0.930 . S
H337 C332 0.930 . S
C338 O339 1.224 . S
C338 O357 1.247 . S
O339 C338 1.224 . S
N340 Co330 2.128 . S
N340 C341 1.355 . S
N340 C343 1.321 . S
C341 N340 1.355 . S
C341 C342 1.363 1_554 S
C341 H353 0.929 . S
C342 C341 1.363 1_556 S
C342 N344 1.375 . S
C342 H360 0.931 . S
C343 N340 1.321 . S
C343 N344 1.337 1_554 S
C343 H354 0.929 . S
N344 C342 1.375 . S
N344 C343 1.337 1_556 S
C345 C348 1.365 . S
C345 N350 1.328 . S
C345 H351 0.929 . S
C346 C347 1.362 . S
C346 C349 1.378 . S
C346 H361 0.929 . S
C347 C346 1.362 . S
C347 C348 1.366 . S
C348 C345 1.365 . S
C348 C347 1.366 . S
C348 H362 0.930 . S
C349 C346 1.378 . S
C349 N350 1.315 . S
C349 H352 0.930 . S
N350 Co330 2.194 . S
N350 C345 1.328 . S
N350 C349 1.315 . S
H351 C345 0.929 . S
H352 C349 0.930 . S
H353 C341 0.929 . S
H354 C343 0.929 . S
O355 Co330 2.351 . S
O355 C358 1.244 . S
O356 Co330 2.155 . S
O356 C358 1.240 . S
O357 Co330 2.096 . S
O357 C338 1.247 . S
C358 O355 1.244 . S
C358 O356 1.240 . S
H359 C333 0.931 . S
H360 C342 0.931 . S
H361 C346 0.929 . S
H362 C348 0.930 . S
Co363 N367 2.148 . S
Co363 N373 2.128 . S
Co363 N383 2.194 . S
Co363 O388 2.351 . S
Co363 O389 2.155 . S
Co363 O390 2.096 . S
C364 N367 1.301 . S
C364 N368 1.328 . S
C364 H369 0.930 . S
C365 C366 1.333 . S
C365 N367 1.317 . S
C365 H370 0.930 . S
C366 C365 1.333 . S
C366 N368 1.350 . S
C366 H392 0.931 . S
N367 Co363 2.148 . S
N367 C364 1.301 . S
N367 C365 1.317 . S
N368 C364 1.328 . S
N368 C366 1.350 . S
H369 C364 0.930 . S
H370 C365 0.930 . S
C371 O372 1.224 . S
C371 O390 1.247 . S
O372 C371 1.224 . S
N373 Co363 2.128 . S
N373 C374 1.355 . S
N373 C376 1.311 . S
C374 N373 1.355 . S
C374 C375 1.363 . S
C374 H386 0.929 . S
C375 C374 1.363 . S
C375 N377 1.375 . S
C375 H393 0.931 . S
C376 N373 1.311 . S
C376 N377 1.347 . S
C376 H387 0.929 . S
N377 C375 1.375 . S
N377 C376 1.347 . S
C378 C381 1.365 . S
C378 N383 1.328 . S
C378 H384 0.929 . S
C379 C380 1.362 . S
C379 C382 1.378 . S
C379 H394 0.929 . S
C380 C379 1.362 . S
C380 C381 1.366 . S
C381 C378 1.365 . S
C381 C380 1.366 . S
C381 H395 0.930 . S
C382 C379 1.378 . S
C382 N383 1.315 . S
C382 H385 0.930 . S
N383 Co363 2.194 . S
N383 C378 1.328 . S
N383 C382 1.315 . S
H384 C378 0.929 . S
H385 C382 0.930 . S
H386 C374 0.929 . S
H387 C376 0.929 . S
O388 Co363 2.351 . S
O388 C391 1.244 . S
O389 Co363 2.155 . S
O389 C391 1.240 . S
O390 Co363 2.096 . S
O390 C371 1.247 . S
C391 O388 1.244 . S
C391 O389 1.240 . S
H392 C366 0.931 . S
H393 C375 0.931 . S
H394 C379 0.929 . S
H395 C381 0.930 . S
H396 C404 0.950 . S
H397 C409 0.950 . S
H398 C406 0.950 . S
H399 C408 0.950 . S
H400 C410 0.950 . S
H401 C412 0.950 . S
H402 C414 0.950 . S
H403 C415 0.950 . S
C404 H396 0.950 . S
C404 C405 1.386 . S
C404 C406 1.391 . S
C405 C404 1.386 . S
C405 C409 1.393 . S
C406 H398 0.950 . S
C406 C404 1.391 . S
C406 C407 1.400 . S
C407 C406 1.400 . S
C407 C408 1.398 . S
C407 C413 1.491 1_455 S
C408 H399 0.950 . S
C408 C407 1.398 . S
C408 C409 1.391 . S
C409 H397 0.950 . S
C409 C405 1.393 . S
C409 C408 1.391 . S
C410 H400 0.950 . S
C410 C411 1.386 . S
C410 C412 1.391 . S
C411 C410 1.386 . S
C411 C415 1.393 . S
C412 H401 0.950 . S
C412 C410 1.391 . S
C412 C413 1.400 . S
C413 C407 1.491 1_655 S
C413 C412 1.400 . S
C413 C414 1.398 . S
C414 H402 0.950 . S
C414 C413 1.398 . S
C414 C415 1.391 . S
C415 H403 0.950 . S
C415 C411 1.393 . S
C415 C414 1.391 . S
H416 C424 0.950 . S
H417 C429 0.950 . S
H418 C426 0.950 . S
H419 C428 0.950 1_554 S
H420 C430 0.950 . S
H421 C432 0.950 . S
H422 C434 0.950 1_556 S
H423 C435 0.950 . S
C424 H416 0.950 . S
C424 C425 1.386 . S
C424 C426 1.391 . S
C425 C424 1.386 . S
C425 C429 1.393 . S
C426 H418 0.950 . S
C426 C424 1.391 . S
C426 C427 1.400 . S
C427 C426 1.400 . S
C427 C428 1.398 . S
C427 C433 1.491 1_546 S
C428 H419 0.950 1_556 S
C428 C427 1.398 . S
C428 C429 1.391 . S
C429 H417 0.950 . S
C429 C425 1.393 . S
C429 C428 1.391 . S
C430 H420 0.950 . S
C430 C431 1.386 . S
C430 C432 1.391 . S
C431 C430 1.386 . S
C431 C435 1.393 . S
C432 H421 0.950 . S
C432 C430 1.391 . S
C432 C433 1.400 . S
C433 C427 1.491 1_564 S
C433 C432 1.400 . S
C433 C434 1.398 . S
C434 H422 0.950 1_554 S
C434 C433 1.398 . S
C434 C435 1.391 . S
C435 H423 0.950 . S
C435 C431 1.393 . S
C435 C434 1.391 . S
H436 C444 0.950 . S
H437 C449 0.950 . S
H438 C446 0.950 . S
H439 C448 0.950 . S
H440 C450 0.950 . S
H441 C452 0.950 . S
H442 C454 0.950 . S
H443 C455 0.950 . S
C444 H436 0.950 . S
C444 C445 1.386 . S
C444 C446 1.391 . S
C445 C444 1.386 . S
C445 C449 1.393 . S
C446 H438 0.950 . S
C446 C444 1.391 . S
C446 C447 1.400 . S
C447 C446 1.400 . S
C447 C448 1.398 . S
C447 C453 1.491 . S
C448 H439 0.950 . S
C448 C447 1.398 . S
C448 C449 1.391 . S
C449 H437 0.950 . S
C449 C445 1.393 . S
C449 C448 1.391 . S
C450 H440 0.950 . S
C450 C451 1.386 . S
C450 C452 1.391 . S
C451 C450 1.386 . S
C451 C455 1.393 . S
C452 H441 0.950 . S
C452 C450 1.391 . S
C452 C453 1.400 . S
C453 C447 1.491 . S
C453 C452 1.400 . S
C453 C454 1.398 . S
C454 H442 0.950 . S
C454 C453 1.398 . S
C454 C455 1.391 . S
C455 H443 0.950 . S
C455 C451 1.393 . S
C455 C454 1.391 . S
H456 C464 0.950 . S
H457 C469 0.950 . S
H458 C466 0.950 1_556 S
H459 C468 0.950 . S
H460 C470 0.950 . S
H461 C472 0.950 1_554 S
H462 C474 0.950 . S
H463 C475 0.950 . S
C464 H456 0.950 . S
C464 C465 1.386 . S
C464 C466 1.391 . S
C465 C464 1.386 . S
C465 C469 1.393 . S
C466 H458 0.950 1_554 S
C466 C464 1.391 . S
C466 C467 1.400 . S
C467 C466 1.400 . S
C467 C468 1.398 . S
C467 C473 1.491 1_454 S
C468 H459 0.950 . S
C468 C467 1.398 . S
C468 C469 1.391 . S
C469 H457 0.950 . S
C469 C465 1.393 . S
C469 C468 1.391 . S
C470 H460 0.950 . S
C470 C471 1.386 . S
C470 C472 1.391 . S
C471 C470 1.386 . S
C471 C475 1.393 . S
C472 H461 0.950 1_556 S
C472 C470 1.391 . S
C472 C473 1.400 . S
C473 C467 1.491 1_656 S
C473 C472 1.400 . S
C473 C474 1.398 . S
C474 H462 0.950 . S
C474 C473 1.398 . S
C474 C475 1.391 . S
C475 H463 0.950 . S
C475 C471 1.393 . S
C475 C474 1.391 . S
H476 C484 0.950 . S
H477 C489 0.950 . S
H478 C486 0.950 1_565 S
H479 C488 0.950 . S
H480 C490 0.950 . S
H481 C492 0.950 1_545 S
H482 C494 0.950 . S
H483 C495 0.950 . S
C484 H476 0.950 . S
C484 C485 1.386 . S
C484 C486 1.391 . S
C485 C484 1.386 . S
C485 C489 1.393 . S
C486 H478 0.950 1_545 S
C486 C484 1.391 . S
C486 C487 1.400 . S
C487 C486 1.400 . S
C487 C488 1.398 . S
C487 C493 1.491 1_545 S
C488 H479 0.950 . S
C488 C487 1.398 . S
C488 C489 1.391 . S
C489 H477 0.950 . S
C489 C485 1.393 . S
C489 C488 1.391 . S
C490 H480 0.950 . S
C490 C491 1.386 . S
C490 C492 1.391 . S
C491 C490 1.386 . S
C491 C495 1.393 . S
C492 H481 0.950 1_565 S
C492 C490 1.391 . S
C492 C493 1.400 . S
C493 C487 1.491 1_565 S
C493 C492 1.400 . S
C493 C494 1.398 . S
C494 H482 0.950 . S
C494 C493 1.398 . S
C494 C495 1.391 . S
C495 H483 0.950 . S
C495 C491 1.393 . S
C495 C494 1.391 . S
H496 C504 0.950 . S
H497 C509 0.950 . S
H498 C506 0.950 . S
H499 C508 0.950 1_554 S
H500 C510 0.950 . S
H501 C512 0.950 . S
H502 C514 0.950 1_556 S
H503 C515 0.950 . S
C504 H496 0.950 . S
C504 C505 1.386 . S
C504 C506 1.391 . S
C505 C504 1.386 . S
C505 C509 1.393 . S
C506 H498 0.950 . S
C506 C504 1.391 . S
C506 C507 1.400 . S
C507 C506 1.400 . S
C507 C508 1.398 . S
C507 C513 1.491 1_556 S
C508 H499 0.950 1_556 S
C508 C507 1.398 . S
C508 C509 1.391 . S
C509 H497 0.950 . S
C509 C505 1.393 . S
C509 C508 1.391 . S
C510 H500 0.950 . S
C510 C511 1.386 . S
C510 C512 1.391 . S
C511 C510 1.386 . S
C511 C515 1.393 . S
C512 H501 0.950 . S
C512 C510 1.391 . S
C512 C513 1.400 . S
C513 C507 1.491 1_554 S
C513 C512 1.400 . S
C513 C514 1.398 . S
C514 H502 0.950 1_554 S
C514 C513 1.398 . S
C514 C515 1.391 . S
C515 H503 0.950 . S
C515 C511 1.393 . S
C515 C514 1.391 . S
H516 C524 0.950 . S
H517 C529 0.950 . S
H518 C526 0.950 . S
H519 C528 0.950 . S
H520 C530 0.950 . S
H521 C532 0.950 . S
H522 C534 0.950 . S
H523 C535 0.950 . S
C524 H516 0.950 . S
C524 C525 1.386 . S
C524 C526 1.391 . S
C525 C524 1.386 . S
C525 C529 1.393 . S
C526 H518 0.950 . S
C526 C524 1.391 . S
C526 C527 1.400 . S
C527 C526 1.400 . S
C527 C528 1.398 . S
C527 C533 1.491 . S
C528 H519 0.950 . S
C528 C527 1.398 . S
C528 C529 1.391 . S
C529 H517 0.950 . S
C529 C525 1.393 . S
C529 C528 1.391 . S
C530 H520 0.950 . S
C530 C531 1.386 . S
C530 C532 1.391 . S
C531 C530 1.386 . S
C531 C535 1.393 . S
C532 H521 0.950 . S
C532 C530 1.391 . S
C532 C533 1.400 . S
C533 C527 1.491 . S
C533 C532 1.400 . S
C533 C534 1.398 . S
C534 H522 0.950 . S
C534 C533 1.398 . S
C534 C535 1.391 . S
C535 H523 0.950 . S
C535 C531 1.393 . S
C535 C534 1.391 . S
H536 C544 0.950 . S
H537 C549 0.950 . S
H538 C546 0.950 . S
H539 C548 0.950 . S
H540 C550 0.950 . S
H541 C552 0.950 . S
H542 C554 0.950 . S
H543 C555 0.950 . S
C544 H536 0.950 . S
C544 C545 1.386 . S
C544 C546 1.391 . S
C545 C544 1.386 . S
C545 C549 1.393 . S
C546 H538 0.950 . S
C546 C544 1.391 . S
C546 C547 1.400 . S
C547 C546 1.400 . S
C547 C548 1.398 . S
C547 C553 1.491 . S
C548 H539 0.950 . S
C548 C547 1.398 . S
C548 C549 1.391 . S
C549 H537 0.950 . S
C549 C545 1.393 . S
C549 C548 1.391 . S
C550 H540 0.950 . S
C550 C551 1.386 . S
C550 C552 1.391 . S
C551 C550 1.386 . S
C551 C555 1.393 . S
C552 H541 0.950 . S
C552 C550 1.391 . S
C552 C553 1.400 . S
C553 C547 1.491 . S
C553 C552 1.400 . S
C553 C554 1.398 . S
C554 H542 0.950 . S
C554 C553 1.398 . S
C554 C555 1.391 . S
C555 H543 0.950 . S
C555 C551 1.393 . S
C555 C554 1.391 . S
H556 C564 0.950 . S
H557 C569 0.950 . S
H558 C566 0.950 . S
H559 C568 0.950 . S
H560 C570 0.950 . S
H561 C572 0.950 . S
H562 C574 0.950 . S
H563 C575 0.950 . S
C564 H556 0.950 . S
C564 C565 1.386 . S
C564 C566 1.391 . S
C565 C564 1.386 . S
C565 C569 1.393 . S
C566 H558 0.950 . S
C566 C564 1.391 . S
C566 C567 1.400 . S
C567 C566 1.400 . S
C567 C568 1.398 . S
C567 C573 1.491 . S
C568 H559 0.950 . S
C568 C567 1.398 . S
C568 C569 1.391 . S
C569 H557 0.950 . S
C569 C565 1.393 . S
C569 C568 1.391 . S
C570 H560 0.950 . S
C570 C571 1.386 . S
C570 C572 1.391 . S
C571 C570 1.386 . S
C571 C575 1.393 . S
C572 H561 0.950 . S
C572 C570 1.391 . S
C572 C573 1.400 . S
C573 C567 1.491 . S
C573 C572 1.400 . S
C573 C574 1.398 . S
C574 H562 0.950 . S
C574 C573 1.398 . S
C574 C575 1.391 . S
C575 H563 0.950 . S
C575 C571 1.393 . S
C575 C574 1.391 . S
H576 C584 0.950 . S
H577 C589 0.950 . S
H578 C586 0.950 . S
H579 C588 0.950 . S
H580 C590 0.950 . S
H581 C592 0.950 . S
H582 C594 0.950 . S
H583 C595 0.950 . S
C584 H576 0.950 . S
C584 C585 1.386 . S
C584 C586 1.391 . S
C585 C584 1.386 . S
C585 C589 1.393 . S
C586 H578 0.950 . S
C586 C584 1.391 . S
C586 C587 1.400 . S
C587 C586 1.400 . S
C587 C588 1.398 . S
C587 C593 1.491 . S
C588 H579 0.950 . S
C588 C587 1.398 . S
C588 C589 1.391 . S
C589 H577 0.950 . S
C589 C585 1.393 . S
C589 C588 1.391 . S
C590 H580 0.950 . S
C590 C591 1.386 . S
C590 C592 1.391 . S
C591 C590 1.386 . S
C591 C595 1.393 . S
C592 H581 0.950 . S
C592 C590 1.391 . S
C592 C593 1.400 . S
C593 C587 1.491 . S
C593 C592 1.400 . S
C593 C594 1.398 . S
C594 H582 0.950 . S
C594 C593 1.398 . S
C594 C595 1.391 . S
C595 H583 0.950 . S
C595 C591 1.393 . S
C595 C594 1.391 . S
H596 C604 0.950 . S
H597 C609 0.950 . S
H598 C606 0.950 . S
H599 C608 0.950 . S
H600 C610 0.950 . S
H601 C612 0.950 . S
H602 C614 0.950 . S
H603 C615 0.950 . S
C604 H596 0.950 . S
C604 C605 1.386 . S
C604 C606 1.391 . S
C605 C604 1.386 . S
C605 C609 1.393 . S
C606 H598 0.950 . S
C606 C604 1.391 . S
C606 C607 1.400 . S
C607 C606 1.400 . S
C607 C608 1.398 . S
C607 C613 1.491 . S
C608 H599 0.950 . S
C608 C607 1.398 . S
C608 C609 1.391 . S
C609 H597 0.950 . S
C609 C605 1.393 . S
C609 C608 1.391 . S
C610 H600 0.950 . S
C610 C611 1.386 . S
C610 C612 1.391 . S
C611 C610 1.386 . S
C611 C615 1.393 . S
C612 H601 0.950 . S
C612 C610 1.391 . S
C612 C613 1.400 . S
C613 C607 1.491 . S
C613 C612 1.400 . S
C613 C614 1.398 . S
C614 H602 0.950 . S
C614 C613 1.398 . S
C614 C615 1.391 . S
C615 H603 0.950 . S
C615 C611 1.393 . S
C615 C614 1.391 . S
H616 C624 0.950 . S
H617 C629 0.950 . S
H618 C626 0.950 . S
H619 C628 0.950 . S
H620 C630 0.950 . S
H621 C632 0.950 . S
H622 C634 0.950 . S
H623 C635 0.950 . S
C624 H616 0.950 . S
C624 C625 1.386 . S
C624 C626 1.391 . S
C625 C624 1.386 . S
C625 C629 1.393 . S
C626 H618 0.950 . S
C626 C624 1.391 . S
C626 C627 1.400 . S
C627 C626 1.400 . S
C627 C628 1.398 . S
C627 C633 1.491 . S
C628 H619 0.950 . S
C628 C627 1.398 . S
C628 C629 1.391 . S
C629 H617 0.950 . S
C629 C625 1.393 . S
C629 C628 1.391 . S
C630 H620 0.950 . S
C630 C631 1.386 . S
C630 C632 1.391 . S
C631 C630 1.386 . S
C631 C635 1.393 . S
C632 H621 0.950 . S
C632 C630 1.391 . S
C632 C633 1.400 . S
C633 C627 1.491 . S
C633 C632 1.400 . S
C633 C634 1.398 . S
C634 H622 0.950 . S
C634 C633 1.398 . S
C634 C635 1.391 . S
C635 H623 0.950 . S
C635 C631 1.393 . S
C635 C634 1.391 . S
H636 C644 0.950 . S
H637 C649 0.950 . S
H638 C646 0.950 . S
H639 C648 0.950 . S
H640 C650 0.950 1_554 S
H641 C652 0.950 . S
H642 C654 0.950 . S
H643 C655 0.950 1_554 S
C644 H636 0.950 . S
C644 C645 1.386 . S
C644 C646 1.391 . S
C645 C644 1.386 . S
C645 C649 1.393 . S
C646 H638 0.950 . S
C646 C644 1.391 . S
C646 C647 1.400 . S
C647 C646 1.400 . S
C647 C648 1.398 . S
C647 C653 1.491 . S
C648 H639 0.950 . S
C648 C647 1.398 . S
C648 C649 1.391 . S
C649 H637 0.950 . S
C649 C645 1.393 . S
C649 C648 1.391 . S
C650 H640 0.950 1_556 S
C650 C651 1.386 1_556 S
C650 C652 1.391 . S
C651 C650 1.386 1_554 S
C651 C655 1.393 1_554 S
C652 H641 0.950 . S
C652 C650 1.391 . S
C652 C653 1.400 . S
C653 C647 1.491 . S
C653 C652 1.400 . S
C653 C654 1.398 . S
C654 H642 0.950 . S
C654 C653 1.398 . S
C654 C655 1.391 . S
C655 H643 0.950 1_556 S
C655 C651 1.393 1_556 S
C655 C654 1.391 . S
H656 C664 0.950 . S
H657 C669 0.950 . S
H658 C666 0.950 . S
H659 C668 0.950 . S
H660 C670 0.950 . S
H661 C672 0.950 . S
H662 C674 0.950 . S
H663 C675 0.950 . S
C664 H656 0.950 . S
C664 C665 1.386 . S
C664 C666 1.391 . S
C665 C664 1.386 . S
C665 C669 1.393 . S
C666 H658 0.950 . S
C666 C664 1.391 . S
C666 C667 1.400 . S
C667 C666 1.400 . S
C667 C668 1.398 . S
C667 C673 1.491 . S
C668 H659 0.950 . S
C668 C667 1.398 . S
C668 C669 1.391 . S
C669 H657 0.950 . S
C669 C665 1.393 . S
C669 C668 1.391 . S
C670 H660 0.950 . S
C670 C671 1.386 . S
C670 C672 1.391 . S
C671 C670 1.386 . S
C671 C675 1.393 . S
C672 H661 0.950 . S
C672 C670 1.391 . S
C672 C673 1.400 . S
C673 C667 1.491 . S
C673 C672 1.400 . S
C673 C674 1.398 . S
C674 H662 0.950 . S
C674 C673 1.398 . S
C674 C675 1.391 . S
C675 H663 0.950 . S
C675 C671 1.393 . S
C675 C674 1.391 . S
H676 C684 0.950 . S
H677 C689 0.950 . S
H678 C686 0.950 . S
H679 C688 0.950 . S
H680 C690 0.950 1_554 S
H681 C692 0.950 . S
H682 C694 0.950 . S
H683 C695 0.950 1_554 S
C684 H676 0.950 . S
C684 C685 1.386 . S
C684 C686 1.391 . S
C685 C684 1.386 . S
C685 C689 1.393 . S
C686 H678 0.950 . S
C686 C684 1.391 . S
C686 C687 1.400 . S
C687 C686 1.400 . S
C687 C688 1.398 . S
C687 C693 1.491 . S
C688 H679 0.950 . S
C688 C687 1.398 . S
C688 C689 1.391 . S
C689 H677 0.950 . S
C689 C685 1.393 . S
C689 C688 1.391 . S
C690 H680 0.950 1_556 S
C690 C691 1.386 1_556 S
C690 C692 1.391 . S
C691 C690 1.386 1_554 S
C691 C695 1.393 1_554 S
C692 H681 0.950 . S
C692 C690 1.391 . S
C692 C693 1.400 . S
C693 C687 1.491 . S
C693 C692 1.400 . S
C693 C694 1.398 . S
C694 H682 0.950 . S
C694 C693 1.398 . S
C694 C695 1.391 . S
C695 H683 0.950 1_556 S
C695 C691 1.393 1_556 S
C695 C694 1.391 . S
H696 C704 0.950 . S
H697 C709 0.950 . S
H698 C706 0.950 . S
H699 C708 0.950 . S
H700 C710 0.950 . S
H701 C712 0.950 . S
H702 C714 0.950 . S
H703 C715 0.950 . S
C704 H696 0.950 . S
C704 C705 1.386 . S
C704 C706 1.391 . S
C705 C704 1.386 . S
C705 C709 1.393 . S
C706 H698 0.950 . S
C706 C704 1.391 . S
C706 C707 1.400 . S
C707 C706 1.400 . S
C707 C708 1.398 . S
C707 C713 1.491 . S
C708 H699 0.950 . S
C708 C707 1.398 . S
C708 C709 1.391 . S
C709 H697 0.950 . S
C709 C705 1.393 . S
C709 C708 1.391 . S
C710 H700 0.950 . S
C710 C711 1.386 . S
C710 C712 1.391 . S
C711 C710 1.386 . S
C711 C715 1.393 . S
C712 H701 0.950 . S
C712 C710 1.391 . S
C712 C713 1.400 . S
C713 C707 1.491 . S
C713 C712 1.400 . S
C713 C714 1.398 . S
C714 H702 0.950 . S
C714 C713 1.398 . S
C714 C715 1.391 . S
C715 H703 0.950 . S
C715 C711 1.393 . S
C715 C714 1.391 . S
H716 C724 0.950 . S
H717 C729 0.950 . S
H718 C726 0.950 . S
H719 C728 0.950 . S
H720 C730 0.950 . S
H721 C732 0.950 . S
H722 C734 0.950 . S
H723 C735 0.950 1_554 S
C724 H716 0.950 . S
C724 C725 1.386 . S
C724 C726 1.391 . S
C725 C724 1.386 . S
C725 C729 1.393 . S
C726 H718 0.950 . S
C726 C724 1.391 . S
C726 C727 1.400 . S
C727 C726 1.400 . S
C727 C728 1.398 . S
C727 C733 1.491 . S
C728 H719 0.950 . S
C728 C727 1.398 . S
C728 C729 1.391 . S
C729 H717 0.950 . S
C729 C725 1.393 . S
C729 C728 1.391 . S
C730 H720 0.950 . S
C730 C731 1.386 1_556 S
C730 C732 1.391 . S
C731 C730 1.386 1_554 S
C731 C735 1.393 1_554 S
C732 H721 0.950 . S
C732 C730 1.391 . S
C732 C733 1.400 . S
C733 C727 1.491 . S
C733 C732 1.400 . S
C733 C734 1.398 . S
C734 H722 0.950 . S
C734 C733 1.398 . S
C734 C735 1.391 . S
C735 H723 0.950 1_556 S
C735 C731 1.393 1_556 S
C735 C734 1.391 . S
H736 C744 0.950 . S
H737 C749 0.950 . S
H738 C746 0.950 . S
H739 C748 0.950 . S
H740 C750 0.950 . S
H741 C752 0.950 . S
H742 C754 0.950 . S
H743 C755 0.950 . S
C744 H736 0.950 . S
C744 C745 1.386 . S
C744 C746 1.391 . S
C745 C744 1.386 . S
C745 C749 1.393 . S
C746 H738 0.950 . S
C746 C744 1.391 . S
C746 C747 1.400 . S
C747 C746 1.400 . S
C747 C748 1.398 . S
C747 C753 1.491 . S
C748 H739 0.950 . S
C748 C747 1.398 . S
C748 C749 1.391 . S
C749 H737 0.950 . S
C749 C745 1.393 . S
C749 C748 1.391 . S
C750 H740 0.950 . S
C750 C751 1.386 . S
C750 C752 1.391 . S
C751 C750 1.386 . S
C751 C755 1.393 . S
C752 H741 0.950 . S
C752 C750 1.391 . S
C752 C753 1.400 . S
C753 C747 1.491 . S
C753 C752 1.400 . S
C753 C754 1.398 . S
C754 H742 0.950 . S
C754 C753 1.398 . S
C754 C755 1.391 . S
C755 H743 0.950 . S
C755 C751 1.393 . S
C755 C754 1.391 . S
H756 C764 0.950 . S
H757 C769 0.950 . S
H758 C766 0.950 . S
H759 C768 0.950 . S
H760 C770 0.950 . S
H761 C772 0.950 . S
H762 C774 0.950 . S
H763 C775 0.950 . S
C764 H756 0.950 . S
C764 C765 1.386 . S
C764 C766 1.391 . S
C765 C764 1.386 . S
C765 C769 1.393 . S
C766 H758 0.950 . S
C766 C764 1.391 . S
C766 C767 1.400 . S
C767 C766 1.400 . S
C767 C768 1.398 . S
C767 C773 1.491 . S
C768 H759 0.950 . S
C768 C767 1.398 . S
C768 C769 1.391 . S
C769 H757 0.950 . S
C769 C765 1.393 . S
C769 C768 1.391 . S
C770 H760 0.950 . S
C770 C771 1.386 . S
C770 C772 1.391 . S
C771 C770 1.386 . S
C771 C775 1.393 . S
C772 H761 0.950 . S
C772 C770 1.391 . S
C772 C773 1.400 . S
C773 C767 1.491 . S
C773 C772 1.400 . S
C773 C774 1.398 . S
C774 H762 0.950 . S
C774 C773 1.398 . S
C774 C775 1.391 . S
C775 H763 0.950 . S
C775 C771 1.393 . S
C775 C774 1.391 . S
H776 C784 0.950 . S
H777 C789 0.950 . S
H778 C786 0.950 . S
H779 C788 0.950 . S
H780 C790 0.950 1_556 S
H781 C792 0.950 . S
H782 C794 0.950 . S
H783 C795 0.950 . S
C784 H776 0.950 . S
C784 C785 1.386 . S
C784 C786 1.391 . S
C785 C784 1.386 . S
C785 C789 1.393 . S
C786 H778 0.950 . S
C786 C784 1.391 . S
C786 C787 1.400 . S
C787 C786 1.400 . S
C787 C788 1.398 . S
C787 C793 1.491 . S
C788 H779 0.950 . S
C788 C787 1.398 . S
C788 C789 1.391 . S
C789 H777 0.950 . S
C789 C785 1.393 . S
C789 C788 1.391 . S
C790 H780 0.950 1_554 S
C790 C791 1.386 1_554 S
C790 C792 1.391 . S
C791 C790 1.386 1_556 S
C791 C795 1.393 1_556 S
C792 H781 0.950 . S
C792 C790 1.391 . S
C792 C793 1.400 . S
C793 C787 1.491 . S
C793 C792 1.400 . S
C793 C794 1.398 . S
C794 H782 0.950 . S
C794 C793 1.398 . S
C794 C795 1.391 . S
C795 H783 0.950 . S
C795 C791 1.393 1_554 S
C795 C794 1.391 . S
H796 C804 0.950 . S
H797 C809 0.950 . S
H798 C806 0.950 . S
H799 C808 0.950 . S
H800 C810 0.950 . S
H801 C812 0.950 . S
H802 C814 0.950 . S
H803 C815 0.950 . S
C804 H796 0.950 . S
C804 C805 1.386 . S
C804 C806 1.391 . S
C805 C804 1.386 . S
C805 C809 1.393 . S
C806 H798 0.950 . S
C806 C804 1.391 . S
C806 C807 1.400 . S
C807 C806 1.400 . S
C807 C808 1.398 . S
C807 C813 1.491 . S
C808 H799 0.950 . S
C808 C807 1.398 . S
C808 C809 1.391 . S
C809 H797 0.950 . S
C809 C805 1.393 . S
C809 C808 1.391 . S
C810 H800 0.950 . S
C810 C811 1.386 . S
C810 C812 1.391 . S
C811 C810 1.386 . S
C811 C815 1.393 . S
C812 H801 0.950 . S
C812 C810 1.391 . S
C812 C813 1.400 . S
C813 C807 1.491 . S
C813 C812 1.400 . S
C813 C814 1.398 . S
C814 H802 0.950 . S
C814 C813 1.398 . S
C814 C815 1.391 . S
C815 H803 0.950 . S
C815 C811 1.393 . S
C815 C814 1.391 . S
H816 C824 0.950 1_556 S
H817 C829 0.950 . S
H818 C826 0.950 . S
H819 C828 0.950 . S
H820 C830 0.950 . S
H821 C832 0.950 . S
H822 C834 0.950 . S
H823 C835 0.950 . S
C824 H816 0.950 1_554 S
C824 C825 1.386 1_554 S
C824 C826 1.391 . S
C825 C824 1.386 1_556 S
C825 C829 1.393 1_556 S
C826 H818 0.950 . S
C826 C824 1.391 . S
C826 C827 1.400 . S
C827 C826 1.400 . S
C827 C828 1.398 . S
C827 C833 1.491 . S
C828 H819 0.950 . S
C828 C827 1.398 . S
C828 C829 1.391 . S
C829 H817 0.950 . S
C829 C825 1.393 1_554 S
C829 C828 1.391 . S
C830 H820 0.950 . S
C830 C831 1.386 . S
C830 C832 1.391 . S
C831 C830 1.386 . S
C831 C835 1.393 . S
C832 H821 0.950 . S
C832 C830 1.391 . S
C832 C833 1.400 . S
C833 C827 1.491 . S
C833 C832 1.400 . S
C833 C834 1.398 . S
C834 H822 0.950 . S
C834 C833 1.398 . S
C834 C835 1.391 . S
C835 H823 0.950 . S
C835 C831 1.393 . S
C835 C834 1.391 . S
H836 C844 0.950 . S
H837 C849 0.950 . S
H838 C846 0.950 . S
H839 C848 0.950 . S
H840 C850 0.950 . S
H841 C852 0.950 . S
H842 C854 0.950 . S
H843 C855 0.950 . S
C844 H836 0.950 . S
C844 C845 1.386 . S
C844 C846 1.391 . S
C845 C844 1.386 . S
C845 C849 1.393 . S
C846 H838 0.950 . S
C846 C844 1.391 . S
C846 C847 1.400 . S
C847 C846 1.400 . S
C847 C848 1.398 . S
C847 C853 1.491 . S
C848 H839 0.950 . S
C848 C847 1.398 . S
C848 C849 1.391 . S
C849 H837 0.950 . S
C849 C845 1.393 . S
C849 C848 1.391 . S
C850 H840 0.950 . S
C850 C851 1.386 . S
C850 C852 1.391 . S
C851 C850 1.386 . S
C851 C855 1.393 . S
C852 H841 0.950 . S
C852 C850 1.391 . S
C852 C853 1.400 . S
C853 C847 1.491 . S
C853 C852 1.400 . S
C853 C854 1.398 . S
C854 H842 0.950 . S
C854 C853 1.398 . S
C854 C855 1.391 . S
C855 H843 0.950 . S
C855 C851 1.393 . S
C855 C854 1.391 . S
H856 C864 0.950 . S
H857 C869 0.950 . S
H858 C866 0.950 . S
H859 C868 0.950 . S
H860 C870 0.950 . S
H861 C872 0.950 . S
H862 C874 0.950 . S
H863 C875 0.950 1_556 S
C864 H856 0.950 . S
C864 C865 1.386 . S
C864 C866 1.391 . S
C865 C864 1.386 . S
C865 C869 1.393 . S
C866 H858 0.950 . S
C866 C864 1.391 . S
C866 C867 1.400 . S
C867 C866 1.400 . S
C867 C868 1.398 . S
C867 C873 1.491 . S
C868 H859 0.950 . S
C868 C867 1.398 . S
C868 C869 1.391 . S
C869 H857 0.950 . S
C869 C865 1.393 . S
C869 C868 1.391 . S
C870 H860 0.950 . S
C870 C871 1.386 1_554 S
C870 C872 1.391 . S
C871 C870 1.386 1_556 S
C871 C875 1.393 1_556 S
C872 H861 0.950 . S
C872 C870 1.391 . S
C872 C873 1.400 . S
C873 C867 1.491 . S
C873 C872 1.400 . S
C873 C874 1.398 . S
C874 H862 0.950 . S
C874 C873 1.398 . S
C874 C875 1.391 . S
C875 H863 0.950 1_554 S
C875 C871 1.393 1_554 S
C875 C874 1.391 . S
H876 C884 0.950 . S
H877 C889 0.950 . S
H878 C886 0.950 . S
H879 C888 0.950 . S
H880 C890 0.950 . S
H881 C892 0.950 . S
H882 C894 0.950 . S
H883 C895 0.950 . S
C884 H876 0.950 . S
C884 C885 1.386 . S
C884 C886 1.391 . S
C885 C884 1.386 . S
C885 C889 1.393 . S
C886 H878 0.950 . S
C886 C884 1.391 . S
C886 C887 1.400 . S
C887 C886 1.400 . S
C887 C888 1.398 . S
C887 C893 1.491 . S
C888 H879 0.950 . S
C888 C887 1.398 . S
C888 C889 1.391 . S
C889 H877 0.950 . S
C889 C885 1.393 . S
C889 C888 1.391 . S
C890 H880 0.950 . S
C890 C891 1.386 . S
C890 C892 1.391 . S
C891 C890 1.386 . S
C891 C895 1.393 . S
C892 H881 0.950 . S
C892 C890 1.391 . S
C892 C893 1.400 . S
C893 C887 1.491 . S
C893 C892 1.400 . S
C893 C894 1.398 . S
C894 H882 0.950 . S
C894 C893 1.398 . S
C894 C895 1.391 . S
C895 H883 0.950 . S
C895 C891 1.393 . S
C895 C894 1.391 . S
H896 C904 0.950 . S
H897 C909 0.950 . S
H898 C906 0.950 . S
H899 C908 0.950 . S
H900 C910 0.950 . S
H901 C912 0.950 . S
H902 C914 0.950 . S
H903 C915 0.950 . S
C904 H896 0.950 . S
C904 C905 1.386 . S
C904 C906 1.391 . S
C905 C904 1.386 . S
C905 C909 1.393 . S
C906 H898 0.950 . S
C906 C904 1.391 . S
C906 C907 1.400 . S
C907 C906 1.400 . S
C907 C908 1.398 . S
C907 C913 1.491 . S
C908 H899 0.950 . S
C908 C907 1.398 . S
C908 C909 1.391 . S
C909 H897 0.950 . S
C909 C905 1.393 . S
C909 C908 1.391 . S
C910 H900 0.950 . S
C910 C911 1.386 . S
C910 C912 1.391 . S
C911 C910 1.386 . S
C911 C915 1.393 . S
C912 H901 0.950 . S
C912 C910 1.391 . S
C912 C913 1.400 . S
C913 C907 1.491 . S
C913 C912 1.400 . S
C913 C914 1.398 . S
C914 H902 0.950 . S
C914 C913 1.398 . S
C914 C915 1.391 . S
C915 H903 0.950 . S
C915 C911 1.393 . S
C915 C914 1.391 . S
H916 C924 0.950 . S
H917 C929 0.950 . S
H918 C926 0.950 . S
H919 C928 0.950 . S
H920 C930 0.950 . S
H921 C932 0.950 . S
H922 C934 0.950 . S
H923 C935 0.950 . S
C924 H916 0.950 . S
C924 C925 1.386 . S
C924 C926 1.391 . S
C925 C924 1.386 . S
C925 C929 1.393 . S
C926 H918 0.950 . S
C926 C924 1.391 . S
C926 C927 1.400 . S
C927 C926 1.400 . S
C927 C928 1.398 . S
C927 C933 1.491 . S
C928 H919 0.950 . S
C928 C927 1.398 . S
C928 C929 1.391 . S
C929 H917 0.950 . S
C929 C925 1.393 . S
C929 C928 1.391 . S
C930 H920 0.950 . S
C930 C931 1.386 . S
C930 C932 1.391 . S
C931 C930 1.386 . S
C931 C935 1.393 . S
C932 H921 0.950 . S
C932 C930 1.391 . S
C932 C933 1.400 . S
C933 C927 1.491 . S
C933 C932 1.400 . S
C933 C934 1.398 . S
C934 H922 0.950 . S
C934 C933 1.398 . S
C934 C935 1.391 . S
C935 H923 0.950 . S
C935 C931 1.393 . S
C935 C934 1.391 . S
H936 C944 0.950 . S
H937 C949 0.950 . S
H938 C946 0.950 . S
H939 C948 0.950 . S
H940 C950 0.950 . S
H941 C952 0.950 . S
H942 C954 0.950 . S
H943 C955 0.950 . S
C944 H936 0.950 . S
C944 C945 1.386 . S
C944 C946 1.391 . S
C945 C944 1.386 . S
C945 C949 1.393 . S
C946 H938 0.950 . S
C946 C944 1.391 . S
C946 C947 1.400 . S
C947 C946 1.400 . S
C947 C948 1.398 . S
C947 C953 1.491 . S
C948 H939 0.950 . S
C948 C947 1.398 . S
C948 C949 1.391 . S
C949 H937 0.950 . S
C949 C945 1.393 . S
C949 C948 1.391 . S
C950 H940 0.950 . S
C950 C951 1.386 . S
C950 C952 1.391 . S
C951 C950 1.386 . S
C951 C955 1.393 . S
C952 H941 0.950 . S
C952 C950 1.391 . S
C952 C953 1.400 . S
C953 C947 1.491 . S
C953 C952 1.400 . S
C953 C954 1.398 . S
C954 H942 0.950 . S
C954 C953 1.398 . S
C954 C955 1.391 . S
C955 H943 0.950 . S
C955 C951 1.393 . S
C955 C954 1.391 . S
H956 C964 0.950 . S
H957 C969 0.950 . S
H958 C966 0.950 . S
H959 C968 0.950 . S
H960 C970 0.950 . S
H961 C972 0.950 . S
H962 C974 0.950 . S
H963 C975 0.950 . S
C964 H956 0.950 . S
C964 C965 1.386 . S
C964 C966 1.391 . S
C965 C964 1.386 . S
C965 C969 1.393 . S
C966 H958 0.950 . S
C966 C964 1.391 . S
C966 C967 1.400 . S
C967 C966 1.400 . S
C967 C968 1.398 . S
C967 C973 1.491 . S
C968 H959 0.950 . S
C968 C967 1.398 . S
C968 C969 1.391 . S
C969 H957 0.950 . S
C969 C965 1.393 . S
C969 C968 1.391 . S
C970 H960 0.950 . S
C970 C971 1.386 . S
C970 C972 1.391 . S
C971 C970 1.386 . S
C971 C975 1.393 . S
C972 H961 0.950 . S
C972 C970 1.391 . S
C972 C973 1.400 . S
C973 C967 1.491 . S
C973 C972 1.400 . S
C973 C974 1.398 . S
C974 H962 0.950 . S
C974 C973 1.398 . S
C974 C975 1.391 . S
C975 H963 0.950 . S
C975 C971 1.393 . S
C975 C974 1.391 . S
H976 C984 0.950 . S
H977 C989 0.950 . S
H978 C986 0.950 . S
H979 C988 0.950 . S
H980 C990 0.950 . S
H981 C992 0.950 . S
H982 C994 0.950 . S
H983 C995 0.950 . S
C984 H976 0.950 . S
C984 C985 1.386 . S
C984 C986 1.391 . S
C985 C984 1.386 . S
C985 C989 1.393 . S
C986 H978 0.950 . S
C986 C984 1.391 . S
C986 C987 1.400 . S
C987 C986 1.400 . S
C987 C988 1.398 . S
C987 C993 1.491 . S
C988 H979 0.950 . S
C988 C987 1.398 . S
C988 C989 1.391 . S
C989 H977 0.950 . S
C989 C985 1.393 . S
C989 C988 1.391 . S
C990 H980 0.950 . S
C990 C991 1.386 . S
C990 C992 1.391 . S
C991 C990 1.386 . S
C991 C995 1.393 . S
C992 H981 0.950 . S
C992 C990 1.391 . S
C992 C993 1.400 . S
C993 C987 1.491 . S
C993 C992 1.400 . S
C993 C994 1.398 . S
C994 H982 0.950 . S
C994 C993 1.398 . S
C994 C995 1.391 . S
C995 H983 0.950 . S
C995 C991 1.393 . S
C995 C994 1.391 . S
C405 C8 1.153 . S
C411 C371 1.145 . S
C425 C41 1.153 . S
C431 C206 1.145 . S
C445 C239 1.152 . S
C451 C74 1.169 . S
C465 C272 1.154 . S
C471 C107 1.169 . S
C485 C305 1.165 . S
C491 C140 1.141 . S
C505 C173 1.155 . S
C511 C338 1.143 . S
C525 C281 1.615 . S
C531 C17 1.609 . S
C545 C314 1.609 . S
C551 C50 1.605 . S
C565 C83 1.606 . S
C571 C347 1.611 . S
C585 C116 1.614 . S
C591 C380 1.609 . S
C605 C215 1.608 . S
C611 C149 1.613 . S
C625 C182 1.606 . S
C631 C248 1.611 . S
C645 N14 1.351 . S
C651 N5 1.351 . S
C665 N38 1.357 . S
C671 N47 1.357 . S
C685 N80 1.349 . S
C691 N71 1.352 . S
C705 N104 1.353 . S
C711 N113 1.351 . S
C725 N146 1.357 . S
C731 N137 1.358 . S
C745 N170 1.351 . S
C751 N179 1.351 . S
C765 N203 1.357 . S
C771 N212 1.355 . S
C785 N245 1.345 . S
C791 N236 1.346 . S
C805 N269 1.356 . S
C811 N278 1.354 . S
C825 N302 1.357 . S
C831 N311 1.355 . S
C845 N344 1.351 . S
C851 N335 1.351 . S
C865 N377 1.356 . S
C871 N368 1.358 . S
C885 C28 1.244 . S
C891 C358 1.241 . S
C905 C391 1.245 . S
C911 C61 1.239 . S
C925 C226 1.238 . S
C931 C94 1.242 . S
C945 C127 1.245 . S
C951 C259 1.238 . S
C965 C160 1.245 . S
C971 C292 1.238 . S
C985 C193 1.241 . S
C991 C325 1.244 . S
