# Generated by pormake.
# Topology rhr-a, (3)-cn, num edge types: 1
# Building blocks:
#     Node 0, Type 0, BuildingBlock: WUSLED_clean_sbu_0, # of connection points: 3
#     Node 1, Type 0, BuildingBlock: WUSLED_clean_sbu_0, # of connection points: 3
#     Node 2, Type 0, BuildingBlock: WUSLED_clean_sbu_0, # of connection points: 3
#     Node 3, Type 0, BuildingBlock: WUSLED_clean_sbu_0, # of connection points: 3
#     Node 4, Type 0, BuildingBlock: WUSLED_clean_sbu_0, # of connection points: 3
#     Node 5, Type 0, BuildingBlock: WUSLED_clean_sbu_0, # of connection points: 3
#     Node 6, Type 0, BuildingBlock: WUSLED_clean_sbu_0, # of connection points: 3
#     Node 7, Type 0, BuildingBlock: WUSLED_clean_sbu_0, # of connection points: 3
#     Node 8, Type 0, BuildingBlock: WUSLED_clean_sbu_0, # of connection points: 3
#     Node 9, Type 0, BuildingBlock: WUSLED_clean_sbu_0, # of connection points: 3
#     Node 10, Type 0, BuildingBlock: WUSLED_clean_sbu_0, # of connection points: 3
#     Node 11, Type 0, BuildingBlock: WUSLED_clean_sbu_0, # of connection points: 3
#     Node 12, Type 0, BuildingBlock: WUSLED_clean_sbu_0, # of connection points: 3
#     Node 13, Type 0, BuildingBlock: WUSLED_clean_sbu_0, # of connection points: 3
#     Node 14, Type 0, BuildingBlock: WUSLED_clean_sbu_0, # of connection points: 3
#     Node 15, Type 0, BuildingBlock: WUSLED_clean_sbu_0, # of connection points: 3
#     Node 16, Type 0, BuildingBlock: WUSLED_clean_sbu_0, # of connection points: 3
#     Node 17, Type 0, BuildingBlock: WUSLED_clean_sbu_0, # of connection points: 3
#     Node 18, Type 0, BuildingBlock: WUSLED_clean_sbu_0, # of connection points: 3
#     Node 19, Type 0, BuildingBlock: WUSLED_clean_sbu_0, # of connection points: 3
#     Node 20, Type 0, BuildingBlock: WUSLED_clean_sbu_0, # of connection points: 3
#     Node 21, Type 0, BuildingBlock: WUSLED_clean_sbu_0, # of connection points: 3
#     Node 22, Type 0, BuildingBlock: WUSLED_clean_sbu_0, # of connection points: 3
#     Node 23, Type 0, BuildingBlock: WUSLED_clean_sbu_0, # of connection points: 3
#     Node 24, Type 0, BuildingBlock: WUSLED_clean_sbu_0, # of connection points: 3
#     Node 25, Type 0, BuildingBlock: WUSLED_clean_sbu_0, # of connection points: 3
#     Node 26, Type 0, BuildingBlock: WUSLED_clean_sbu_0, # of connection points: 3
#     Node 27, Type 0, BuildingBlock: WUSLED_clean_sbu_0, # of connection points: 3
#     Node 28, Type 0, BuildingBlock: WUSLED_clean_sbu_0, # of connection points: 3
#     Node 29, Type 0, BuildingBlock: WUSLED_clean_sbu_0, # of connection points: 3
#     Node 30, Type 0, BuildingBlock: WUSLED_clean_sbu_0, # of connection points: 3
#     Node 31, Type 0, BuildingBlock: WUSLED_clean_sbu_0, # of connection points: 3
#     Node 32, Type 0, BuildingBlock: WUSLED_clean_sbu_0, # of connection points: 3
#     Node 33, Type 0, BuildingBlock: WUSLED_clean_sbu_0, # of connection points: 3
#     Node 34, Type 0, BuildingBlock: WUSLED_clean_sbu_0, # of connection points: 3
#     Node 35, Type 0, BuildingBlock: WUSLED_clean_sbu_0, # of connection points: 3
#     Node 36, Type 0, BuildingBlock: WUSLED_clean_sbu_0, # of connection points: 3
#     Node 37, Type 0, BuildingBlock: WUSLED_clean_sbu_0, # of connection points: 3
#     Node 38, Type 0, BuildingBlock: WUSLED_clean_sbu_0, # of connection points: 3
#     Node 39, Type 0, BuildingBlock: WUSLED_clean_sbu_0, # of connection points: 3
#     Node 40, Type 0, BuildingBlock: WUSLED_clean_sbu_0, # of connection points: 3
#     Node 41, Type 0, BuildingBlock: WUSLED_clean_sbu_0, # of connection points: 3
#     Node 42, Type 0, BuildingBlock: WUSLED_clean_sbu_0, # of connection points: 3
#     Node 43, Type 0, BuildingBlock: WUSLED_clean_sbu_0, # of connection points: 3
#     Node 44, Type 0, BuildingBlock: WUSLED_clean_sbu_0, # of connection points: 3
#     Node 45, Type 0, BuildingBlock: WUSLED_clean_sbu_0, # of connection points: 3
#     Node 46, Type 0, BuildingBlock: WUSLED_clean_sbu_0, # of connection points: 3
#     Node 47, Type 0, BuildingBlock: WUSLED_clean_sbu_0, # of connection points: 3
#     Node 48, Type 0, BuildingBlock: WUSLED_clean_sbu_0, # of connection points: 3
#     Node 49, Type 0, BuildingBlock: WUSLED_clean_sbu_0, # of connection points: 3
#     Node 50, Type 0, BuildingBlock: WUSLED_clean_sbu_0, # of connection points: 3
#     Node 51, Type 0, BuildingBlock: WUSLED_clean_sbu_0, # of connection points: 3
#     Node 52, Type 0, BuildingBlock: WUSLED_clean_sbu_0, # of connection points: 3
#     Node 53, Type 0, BuildingBlock: WUSLED_clean_sbu_0, # of connection points: 3
#     Node 54, Type 0, BuildingBlock: WUSLED_clean_sbu_0, # of connection points: 3
#     Node 55, Type 0, BuildingBlock: WUSLED_clean_sbu_0, # of connection points: 3
#     Node 56, Type 0, BuildingBlock: WUSLED_clean_sbu_0, # of connection points: 3
#     Node 57, Type 0, BuildingBlock: WUSLED_clean_sbu_0, # of connection points: 3
#     Node 58, Type 0, BuildingBlock: WUSLED_clean_sbu_0, # of connection points: 3
#     Node 59, Type 0, BuildingBlock: WUSLED_clean_sbu_0, # of connection points: 3
#     Node 60, Type 0, BuildingBlock: WUSLED_clean_sbu_0, # of connection points: 3
#     Node 61, Type 0, BuildingBlock: WUSLED_clean_sbu_0, # of connection points: 3
#     Node 62, Type 0, BuildingBlock: WUSLED_clean_sbu_0, # of connection points: 3
#     Node 63, Type 0, BuildingBlock: WUSLED_clean_sbu_0, # of connection points: 3
#     Node 64, Type 0, BuildingBlock: WUSLED_clean_sbu_0, # of connection points: 3
#     Node 65, Type 0, BuildingBlock: WUSLED_clean_sbu_0, # of connection points: 3
#     Node 66, Type 0, BuildingBlock: WUSLED_clean_sbu_0, # of connection points: 3
#     Node 67, Type 0, BuildingBlock: WUSLED_clean_sbu_0, # of connection points: 3
#     Node 68, Type 0, BuildingBlock: WUSLED_clean_sbu_0, # of connection points: 3
#     Node 69, Type 0, BuildingBlock: WUSLED_clean_sbu_0, # of connection points: 3
#     Node 70, Type 0, BuildingBlock: WUSLED_clean_sbu_0, # of connection points: 3
#     Node 71, Type 0, BuildingBlock: WUSLED_clean_sbu_0, # of connection points: 3
#     Node 72, Type 0, BuildingBlock: WUSLED_clean_sbu_0, # of connection points: 3
#     Node 73, Type 0, BuildingBlock: WUSLED_clean_sbu_0, # of connection points: 3
#     Node 74, Type 0, BuildingBlock: WUSLED_clean_sbu_0, # of connection points: 3
#     Node 75, Type 0, BuildingBlock: WUSLED_clean_sbu_0, # of connection points: 3
#     Node 76, Type 0, BuildingBlock: WUSLED_clean_sbu_0, # of connection points: 3
#     Node 77, Type 0, BuildingBlock: WUSLED_clean_sbu_0, # of connection points: 3
#     Node 78, Type 0, BuildingBlock: WUSLED_clean_sbu_0, # of connection points: 3
#     Node 79, Type 0, BuildingBlock: WUSLED_clean_sbu_0, # of connection points: 3
#     Node 80, Type 0, BuildingBlock: WUSLED_clean_sbu_0, # of connection points: 3
#     Node 81, Type 0, BuildingBlock: WUSLED_clean_sbu_0, # of connection points: 3
#     Node 82, Type 0, BuildingBlock: WUSLED_clean_sbu_0, # of connection points: 3
#     Node 83, Type 0, BuildingBlock: WUSLED_clean_sbu_0, # of connection points: 3
#     Node 84, Type 0, BuildingBlock: WUSLED_clean_sbu_0, # of connection points: 3
#     Node 85, Type 0, BuildingBlock: WUSLED_clean_sbu_0, # of connection points: 3
#     Node 86, Type 0, BuildingBlock: WUSLED_clean_sbu_0, # of connection points: 3
#     Node 87, Type 0, BuildingBlock: WUSLED_clean_sbu_0, # of connection points: 3
#     Node 88, Type 0, BuildingBlock: WUSLED_clean_sbu_0, # of connection points: 3
#     Node 89, Type 0, BuildingBlock: WUSLED_clean_sbu_0, # of connection points: 3
#     Node 90, Type 0, BuildingBlock: WUSLED_clean_sbu_0, # of connection points: 3
#     Node 91, Type 0, BuildingBlock: WUSLED_clean_sbu_0, # of connection points: 3
#     Node 92, Type 0, BuildingBlock: WUSLED_clean_sbu_0, # of connection points: 3
#     Node 93, Type 0, BuildingBlock: WUSLED_clean_sbu_0, # of connection points: 3
#     Node 94, Type 0, BuildingBlock: WUSLED_clean_sbu_0, # of connection points: 3
#     Node 95, Type 0, BuildingBlock: WUSLED_clean_sbu_0, # of connection points: 3
#     Edge 96, Type (0, 0), BuildingBlock: XIVTED_clean_linker_0, # of connection points: 2
#     Edge 97, Type (0, 0), BuildingBlock: XIVTED_clean_linker_0, # of connection points: 2
#     Edge 98, Type (0, 0), BuildingBlock: XIVTED_clean_linker_0, # of connection points: 2
#     Edge 99, Type (0, 0), BuildingBlock: XIVTED_clean_linker_0, # of connection points: 2
#     Edge 100, Type (0, 0), BuildingBlock: XIVTED_clean_linker_0, # of connection points: 2
#     Edge 101, Type (0, 0), BuildingBlock: XIVTED_clean_linker_0, # of connection points: 2
#     Edge 102, Type (0, 0), BuildingBlock: XIVTED_clean_linker_0, # of connection points: 2
#     Edge 103, Type (0, 0), BuildingBlock: XIVTED_clean_linker_0, # of connection points: 2
#     Edge 104, Type (0, 0), BuildingBlock: XIVTED_clean_linker_0, # of connection points: 2
#     Edge 105, Type (0, 0), BuildingBlock: XIVTED_clean_linker_0, # of connection points: 2
#     Edge 106, Type (0, 0), BuildingBlock: XIVTED_clean_linker_0, # of connection points: 2
#     Edge 107, Type (0, 0), BuildingBlock: XIVTED_clean_linker_0, # of connection points: 2
#     Edge 108, Type (0, 0), BuildingBlock: XIVTED_clean_linker_0, # of connection points: 2
#     Edge 109, Type (0, 0), BuildingBlock: XIVTED_clean_linker_0, # of connection points: 2
#     Edge 110, Type (0, 0), BuildingBlock: XIVTED_clean_linker_0, # of connection points: 2
#     Edge 111, Type (0, 0), BuildingBlock: XIVTED_clean_linker_0, # of connection points: 2
#     Edge 112, Type (0, 0), BuildingBlock: XIVTED_clean_linker_0, # of connection points: 2
#     Edge 113, Type (0, 0), BuildingBlock: XIVTED_clean_linker_0, # of connection points: 2
#     Edge 114, Type (0, 0), BuildingBlock: XIVTED_clean_linker_0, # of connection points: 2
#     Edge 115, Type (0, 0), BuildingBlock: XIVTED_clean_linker_0, # of connection points: 2
#     Edge 116, Type (0, 0), BuildingBlock: XIVTED_clean_linker_0, # of connection points: 2
#     Edge 117, Type (0, 0), BuildingBlock: XIVTED_clean_linker_0, # of connection points: 2
#     Edge 118, Type (0, 0), BuildingBlock: XIVTED_clean_linker_0, # of connection points: 2
#     Edge 119, Type (0, 0), BuildingBlock: XIVTED_clean_linker_0, # of connection points: 2
#     Edge 120, Type (0, 0), BuildingBlock: XIVTED_clean_linker_0, # of connection points: 2
#     Edge 121, Type (0, 0), BuildingBlock: XIVTED_clean_linker_0, # of connection points: 2
#     Edge 122, Type (0, 0), BuildingBlock: XIVTED_clean_linker_0, # of connection points: 2
#     Edge 123, Type (0, 0), BuildingBlock: XIVTED_clean_linker_0, # of connection points: 2
#     Edge 124, Type (0, 0), BuildingBlock: XIVTED_clean_linker_0, # of connection points: 2
#     Edge 125, Type (0, 0), BuildingBlock: XIVTED_clean_linker_0, # of connection points: 2
#     Edge 126, Type (0, 0), BuildingBlock: XIVTED_clean_linker_0, # of connection points: 2
#     Edge 127, Type (0, 0), BuildingBlock: XIVTED_clean_linker_0, # of connection points: 2
#     Edge 128, Type (0, 0), BuildingBlock: XIVTED_clean_linker_0, # of connection points: 2
#     Edge 129, Type (0, 0), BuildingBlock: XIVTED_clean_linker_0, # of connection points: 2
#     Edge 130, Type (0, 0), BuildingBlock: XIVTED_clean_linker_0, # of connection points: 2
#     Edge 131, Type (0, 0), BuildingBlock: XIVTED_clean_linker_0, # of connection points: 2
#     Edge 132, Type (0, 0), BuildingBlock: XIVTED_clean_linker_0, # of connection points: 2
#     Edge 133, Type (0, 0), BuildingBlock: XIVTED_clean_linker_0, # of connection points: 2
#     Edge 134, Type (0, 0), BuildingBlock: XIVTED_clean_linker_0, # of connection points: 2
#     Edge 135, Type (0, 0), BuildingBlock: XIVTED_clean_linker_0, # of connection points: 2
#     Edge 136, Type (0, 0), BuildingBlock: XIVTED_clean_linker_0, # of connection points: 2
#     Edge 137, Type (0, 0), BuildingBlock: XIVTED_clean_linker_0, # of connection points: 2
#     Edge 138, Type (0, 0), BuildingBlock: XIVTED_clean_linker_0, # of connection points: 2
#     Edge 139, Type (0, 0), BuildingBlock: XIVTED_clean_linker_0, # of connection points: 2
#     Edge 140, Type (0, 0), BuildingBlock: XIVTED_clean_linker_0, # of connection points: 2
#     Edge 141, Type (0, 0), BuildingBlock: XIVTED_clean_linker_0, # of connection points: 2
#     Edge 142, Type (0, 0), BuildingBlock: XIVTED_clean_linker_0, # of connection points: 2
#     Edge 143, Type (0, 0), BuildingBlock: XIVTED_clean_linker_0, # of connection points: 2
#     Edge 144, Type (0, 0), BuildingBlock: XIVTED_clean_linker_0, # of connection points: 2
#     Edge 145, Type (0, 0), BuildingBlock: XIVTED_clean_linker_0, # of connection points: 2
#     Edge 146, Type (0, 0), BuildingBlock: XIVTED_clean_linker_0, # of connection points: 2
#     Edge 147, Type (0, 0), BuildingBlock: XIVTED_clean_linker_0, # of connection points: 2
#     Edge 148, Type (0, 0), BuildingBlock: XIVTED_clean_linker_0, # of connection points: 2
#     Edge 149, Type (0, 0), BuildingBlock: XIVTED_clean_linker_0, # of connection points: 2
#     Edge 150, Type (0, 0), BuildingBlock: XIVTED_clean_linker_0, # of connection points: 2
#     Edge 151, Type (0, 0), BuildingBlock: XIVTED_clean_linker_0, # of connection points: 2
#     Edge 152, Type (0, 0), BuildingBlock: XIVTED_clean_linker_0, # of connection points: 2
#     Edge 153, Type (0, 0), BuildingBlock: XIVTED_clean_linker_0, # of connection points: 2
#     Edge 154, Type (0, 0), BuildingBlock: XIVTED_clean_linker_0, # of connection points: 2
#     Edge 155, Type (0, 0), BuildingBlock: XIVTED_clean_linker_0, # of connection points: 2
#     Edge 156, Type (0, 0), BuildingBlock: XIVTED_clean_linker_0, # of connection points: 2
#     Edge 157, Type (0, 0), BuildingBlock: XIVTED_clean_linker_0, # of connection points: 2
#     Edge 158, Type (0, 0), BuildingBlock: XIVTED_clean_linker_0, # of connection points: 2
#     Edge 159, Type (0, 0), BuildingBlock: XIVTED_clean_linker_0, # of connection points: 2
#     Edge 160, Type (0, 0), BuildingBlock: XIVTED_clean_linker_0, # of connection points: 2
#     Edge 161, Type (0, 0), BuildingBlock: XIVTED_clean_linker_0, # of connection points: 2
#     Edge 162, Type (0, 0), BuildingBlock: XIVTED_clean_linker_0, # of connection points: 2
#     Edge 163, Type (0, 0), BuildingBlock: XIVTED_clean_linker_0, # of connection points: 2
#     Edge 164, Type (0, 0), BuildingBlock: XIVTED_clean_linker_0, # of connection points: 2
#     Edge 165, Type (0, 0), BuildingBlock: XIVTED_clean_linker_0, # of connection points: 2
#     Edge 166, Type (0, 0), BuildingBlock: XIVTED_clean_linker_0, # of connection points: 2
#     Edge 167, Type (0, 0), BuildingBlock: XIVTED_clean_linker_0, # of connection points: 2
#     Edge 168, Type (0, 0), BuildingBlock: XIVTED_clean_linker_0, # of connection points: 2
#     Edge 169, Type (0, 0), BuildingBlock: XIVTED_clean_linker_0, # of connection points: 2
#     Edge 170, Type (0, 0), BuildingBlock: XIVTED_clean_linker_0, # of connection points: 2
#     Edge 171, Type (0, 0), BuildingBlock: XIVTED_clean_linker_0, # of connection points: 2
#     Edge 172, Type (0, 0), BuildingBlock: XIVTED_clean_linker_0, # of connection points: 2
#     Edge 173, Type (0, 0), BuildingBlock: XIVTED_clean_linker_0, # of connection points: 2
#     Edge 174, Type (0, 0), BuildingBlock: XIVTED_clean_linker_0, # of connection points: 2
#     Edge 175, Type (0, 0), BuildingBlock: XIVTED_clean_linker_0, # of connection points: 2
#     Edge 176, Type (0, 0), BuildingBlock: XIVTED_clean_linker_0, # of connection points: 2
#     Edge 177, Type (0, 0), BuildingBlock: XIVTED_clean_linker_0, # of connection points: 2
#     Edge 178, Type (0, 0), BuildingBlock: XIVTED_clean_linker_0, # of connection points: 2
#     Edge 179, Type (0, 0), BuildingBlock: XIVTED_clean_linker_0, # of connection points: 2
#     Edge 180, Type (0, 0), BuildingBlock: XIVTED_clean_linker_0, # of connection points: 2
#     Edge 181, Type (0, 0), BuildingBlock: XIVTED_clean_linker_0, # of connection points: 2
#     Edge 182, Type (0, 0), BuildingBlock: XIVTED_clean_linker_0, # of connection points: 2
#     Edge 183, Type (0, 0), BuildingBlock: XIVTED_clean_linker_0, # of connection points: 2
#     Edge 184, Type (0, 0), BuildingBlock: XIVTED_clean_linker_0, # of connection points: 2
#     Edge 185, Type (0, 0), BuildingBlock: XIVTED_clean_linker_0, # of connection points: 2
#     Edge 186, Type (0, 0), BuildingBlock: XIVTED_clean_linker_0, # of connection points: 2
#     Edge 187, Type (0, 0), BuildingBlock: XIVTED_clean_linker_0, # of connection points: 2
#     Edge 188, Type (0, 0), BuildingBlock: XIVTED_clean_linker_0, # of connection points: 2
#     Edge 189, Type (0, 0), BuildingBlock: XIVTED_clean_linker_0, # of connection points: 2
#     Edge 190, Type (0, 0), BuildingBlock: XIVTED_clean_linker_0, # of connection points: 2
#     Edge 191, Type (0, 0), BuildingBlock: XIVTED_clean_linker_0, # of connection points: 2
#     Edge 192, Type (0, 0), BuildingBlock: XIVTED_clean_linker_0, # of connection points: 2
#     Edge 193, Type (0, 0), BuildingBlock: XIVTED_clean_linker_0, # of connection points: 2
#     Edge 194, Type (0, 0), BuildingBlock: XIVTED_clean_linker_0, # of connection points: 2
#     Edge 195, Type (0, 0), BuildingBlock: XIVTED_clean_linker_0, # of connection points: 2
#     Edge 196, Type (0, 0), BuildingBlock: XIVTED_clean_linker_0, # of connection points: 2
#     Edge 197, Type (0, 0), BuildingBlock: XIVTED_clean_linker_0, # of connection points: 2
#     Edge 198, Type (0, 0), BuildingBlock: XIVTED_clean_linker_0, # of connection points: 2
#     Edge 199, Type (0, 0), BuildingBlock: XIVTED_clean_linker_0, # of connection points: 2
#     Edge 200, Type (0, 0), BuildingBlock: XIVTED_clean_linker_0, # of connection points: 2
#     Edge 201, Type (0, 0), BuildingBlock: XIVTED_clean_linker_0, # of connection points: 2
#     Edge 202, Type (0, 0), BuildingBlock: XIVTED_clean_linker_0, # of connection points: 2
#     Edge 203, Type (0, 0), BuildingBlock: XIVTED_clean_linker_0, # of connection points: 2
#     Edge 204, Type (0, 0), BuildingBlock: XIVTED_clean_linker_0, # of connection points: 2
#     Edge 205, Type (0, 0), BuildingBlock: XIVTED_clean_linker_0, # of connection points: 2
#     Edge 206, Type (0, 0), BuildingBlock: XIVTED_clean_linker_0, # of connection points: 2
#     Edge 207, Type (0, 0), BuildingBlock: XIVTED_clean_linker_0, # of connection points: 2
#     Edge 208, Type (0, 0), BuildingBlock: XIVTED_clean_linker_0, # of connection points: 2
#     Edge 209, Type (0, 0), BuildingBlock: XIVTED_clean_linker_0, # of connection points: 2
#     Edge 210, Type (0, 0), BuildingBlock: XIVTED_clean_linker_0, # of connection points: 2
#     Edge 211, Type (0, 0), BuildingBlock: XIVTED_clean_linker_0, # of connection points: 2
#     Edge 212, Type (0, 0), BuildingBlock: XIVTED_clean_linker_0, # of connection points: 2
#     Edge 213, Type (0, 0), BuildingBlock: XIVTED_clean_linker_0, # of connection points: 2
#     Edge 214, Type (0, 0), BuildingBlock: XIVTED_clean_linker_0, # of connection points: 2
#     Edge 215, Type (0, 0), BuildingBlock: XIVTED_clean_linker_0, # of connection points: 2
#     Edge 216, Type (0, 0), BuildingBlock: XIVTED_clean_linker_0, # of connection points: 2
#     Edge 217, Type (0, 0), BuildingBlock: XIVTED_clean_linker_0, # of connection points: 2
#     Edge 218, Type (0, 0), BuildingBlock: XIVTED_clean_linker_0, # of connection points: 2
#     Edge 219, Type (0, 0), BuildingBlock: XIVTED_clean_linker_0, # of connection points: 2
#     Edge 220, Type (0, 0), BuildingBlock: XIVTED_clean_linker_0, # of connection points: 2
#     Edge 221, Type (0, 0), BuildingBlock: XIVTED_clean_linker_0, # of connection points: 2
#     Edge 222, Type (0, 0), BuildingBlock: XIVTED_clean_linker_0, # of connection points: 2
#     Edge 223, Type (0, 0), BuildingBlock: XIVTED_clean_linker_0, # of connection points: 2
#     Edge 224, Type (0, 0), BuildingBlock: XIVTED_clean_linker_0, # of connection points: 2
#     Edge 225, Type (0, 0), BuildingBlock: XIVTED_clean_linker_0, # of connection points: 2
#     Edge 226, Type (0, 0), BuildingBlock: XIVTED_clean_linker_0, # of connection points: 2
#     Edge 227, Type (0, 0), BuildingBlock: XIVTED_clean_linker_0, # of connection points: 2
#     Edge 228, Type (0, 0), BuildingBlock: XIVTED_clean_linker_0, # of connection points: 2
#     Edge 229, Type (0, 0), BuildingBlock: XIVTED_clean_linker_0, # of connection points: 2
#     Edge 230, Type (0, 0), BuildingBlock: XIVTED_clean_linker_0, # of connection points: 2
#     Edge 231, Type (0, 0), BuildingBlock: XIVTED_clean_linker_0, # of connection points: 2
#     Edge 232, Type (0, 0), BuildingBlock: XIVTED_clean_linker_0, # of connection points: 2
#     Edge 233, Type (0, 0), BuildingBlock: XIVTED_clean_linker_0, # of connection points: 2
#     Edge 234, Type (0, 0), BuildingBlock: XIVTED_clean_linker_0, # of connection points: 2
#     Edge 235, Type (0, 0), BuildingBlock: XIVTED_clean_linker_0, # of connection points: 2
#     Edge 236, Type (0, 0), BuildingBlock: XIVTED_clean_linker_0, # of connection points: 2
#     Edge 237, Type (0, 0), BuildingBlock: XIVTED_clean_linker_0, # of connection points: 2
#     Edge 238, Type (0, 0), BuildingBlock: XIVTED_clean_linker_0, # of connection points: 2
#     Edge 239, Type (0, 0), BuildingBlock: XIVTED_clean_linker_0, # of connection points: 2
# Relax obj value: 0.126
# Max RMSD: 0.104
# Mean RMSD: 0.104
data_MOF--net-rhr-a--node1-WUSLED_clean_sbu_0--edge1-XIVTED_clean_linker_0
_symmetry_space_group_name_H-M    P1
_symmetry_Int_Tables_number       1
_symmetry_cell_setting            triclinic
loop_
_symmetry_equiv_pos_as_xyz
'x, y, z'
_cell_length_a     180.77794
_cell_length_b     181.07451
_cell_length_c     180.96136
_cell_angle_alpha  89.959238
_cell_angle_beta   90.006802
_cell_angle_gamma 90.031122
loop_
_atom_site_label
_atom_site_type_symbol
_atom_site_fract_x
_atom_site_fract_y
_atom_site_fract_z
_atom_type_partial_charge
C0 C 0.083 0.28496 0.34691 0.0
C1 C 0.07701 0.28551 0.34201 0.0
C2 C 0.08347 0.29504 0.33502 0.0
C3 C 0.07725 0.29049 0.33611 0.0
C4 C 0.08952 0.29435 0.33987 0.0
C5 C 0.08928 0.28935 0.34578 0.0
U6 U 0.07138 0.27281 0.35915 0.0
O7 O 0.07374 0.26228 0.36477 0.0
O8 O 0.07057 0.27202 0.37124 0.0
C9 C 0.07297 0.26517 0.37138 0.0
C10 C 0.0825 0.28012 0.35341 0.0
C11 C 0.07904 0.26374 0.37658 0.0
C12 C 0.09152 0.26609 0.38098 0.0
C13 C 0.0859 0.2673 0.37581 0.0
C14 C 0.08353 0.25767 0.38766 0.0
C15 C 0.09038 0.26131 0.38701 0.0
C16 C 0.07792 0.25888 0.38249 0.0
C17 C 0.05088 0.27088 0.35364 0.0
C18 C 0.04063 0.26753 0.36166 0.0
C19 C 0.0388 0.26829 0.34842 0.0
C20 C 0.04623 0.2702 0.3475 0.0
C21 C 0.03587 0.26705 0.35552 0.0
C22 C 0.04808 0.26941 0.36073 0.0
C23 C 0.05848 0.27356 0.35253 0.0
O24 O 0.07838 0.28273 0.35879 0.0
O25 O 0.0812 0.27312 0.35198 0.0
O26 O 0.06347 0.26854 0.35091 0.0
O27 O 0.06083 0.2785 0.35731 0.0
H28 H 0.0721 0.28217 0.34282 0.0
H29 H 0.07254 0.2908 0.33243 0.0
H30 H 0.09436 0.29782 0.33924 0.0
H31 H 0.09393 0.28903 0.34954 0.0
H32 H 0.0967 0.26904 0.38035 0.0
H33 H 0.08685 0.27108 0.37126 0.0
H34 H 0.0825 0.25386 0.39216 0.0
H35 H 0.07266 0.25607 0.38315 0.0
H36 H 0.03856 0.26653 0.36719 0.0
H37 H 0.03528 0.26807 0.34358 0.0
H38 H 0.04829 0.27133 0.342 0.0
H39 H 0.05162 0.26988 0.36555 0.0
C40 C 0.73036 0.08311 0.34657 0.0
C41 C 0.7291 0.07705 0.34191 0.0
C42 C 0.72065 0.08441 0.33444 0.0
C43 C 0.72429 0.07769 0.3359 0.0
C44 C 0.72205 0.0905 0.33906 0.0
C45 C 0.72687 0.08985 0.34508 0.0
U46 U 0.74196 0.07098 0.35898 0.0
O47 O 0.75231 0.07306 0.365 0.0
O48 O 0.74225 0.07005 0.3711 0.0
C49 C 0.74913 0.07236 0.3715 0.0
C50 C 0.73501 0.0823 0.35317 0.0
C51 C 0.75045 0.07838 0.37681 0.0
C52 C 0.75186 0.09142 0.3797 0.0
C53 C 0.75073 0.08579 0.37452 0.0
C54 C 0.75235 0.08231 0.3895 0.0
C55 C 0.75265 0.08974 0.38725 0.0
C56 C 0.75128 0.07668 0.38432 0.0
C57 C 0.74387 0.05059 0.35332 0.0
C58 C 0.74726 0.04039 0.36137 0.0
C59 C 0.74644 0.03851 0.34813 0.0
C60 C 0.74452 0.04592 0.3472 0.0
C61 C 0.74774 0.03562 0.35524 0.0
C62 C 0.74537 0.04782 0.36041 0.0
C63 C 0.74127 0.0582 0.35218 0.0
O64 O 0.73215 0.07812 0.35838 0.0
O65 O 0.74203 0.08088 0.3519 0.0
O66 O 0.7464 0.06315 0.35078 0.0
O67 O 0.73619 0.06053 0.35682 0.0
H68 H 0.73172 0.07179 0.34302 0.0
H69 H 0.72327 0.07286 0.33252 0.0
H70 H 0.71941 0.09577 0.33804 0.0
H71 H 0.72778 0.09458 0.34863 0.0
H72 H 0.75198 0.0971 0.37781 0.0
H73 H 0.75002 0.08722 0.36875 0.0
H74 H 0.75302 0.08083 0.39526 0.0
H75 H 0.75107 0.071 0.38618 0.0
H76 H 0.74831 0.03835 0.3669 0.0
H77 H 0.74665 0.03498 0.34331 0.0
H78 H 0.74336 0.04796 0.34168 0.0
H79 H 0.74493 0.05137 0.36521 0.0
C80 C 0.9331 0.72915 0.3469 0.0
C81 C 0.93927 0.72764 0.34245 0.0
C82 C 0.93195 0.71912 0.33503 0.0
C83 C 0.9387 0.72267 0.33657 0.0
C84 C 0.92575 0.72074 0.33946 0.0
C85 C 0.92634 0.72572 0.34535 0.0
U86 U 0.94493 0.74143 0.35896 0.0
O87 O 0.94254 0.75209 0.36431 0.0
O88 O 0.94557 0.74247 0.37104 0.0
C89 C 0.94315 0.74931 0.37099 0.0
C90 C 0.93378 0.7341 0.35328 0.0
C91 C 0.93691 0.75081 0.37597 0.0
C92 C 0.92455 0.748 0.38045 0.0
C93 C 0.93037 0.74665 0.37553 0.0
C94 C 0.93169 0.75776 0.38618 0.0
C95 C 0.92516 0.75355 0.38585 0.0
C96 C 0.93752 0.75639 0.38129 0.0
C97 C 0.96547 0.74329 0.35368 0.0
C98 C 0.97564 0.74677 0.36175 0.0
C99 C 0.97753 0.74611 0.34851 0.0
C100 C 0.97014 0.74408 0.34755 0.0
C101 C 0.98041 0.74737 0.35562 0.0
C102 C 0.96822 0.74477 0.36078 0.0
C103 C 0.9579 0.74054 0.35252 0.0
O104 O 0.93788 0.73154 0.3587 0.0
O105 O 0.93518 0.74105 0.35169 0.0
O106 O 0.95292 0.74551 0.35071 0.0
O107 O 0.9555 0.7357 0.35737 0.0
H108 H 0.94456 0.73022 0.34361 0.0
H109 H 0.9436 0.72148 0.33334 0.0
H110 H 0.92045 0.71818 0.33837 0.0
H111 H 0.92152 0.72683 0.34873 0.0
H112 H 0.91956 0.74472 0.37998 0.0
H113 H 0.92979 0.74234 0.37142 0.0
H114 H 0.93237 0.76202 0.39033 0.0
H115 H 0.94253 0.75965 0.3817 0.0
H116 H 0.97767 0.74778 0.36729 0.0
H117 H 0.98106 0.74643 0.34368 0.0
H118 H 0.96812 0.74295 0.34203 0.0
H119 H 0.96468 0.74423 0.36558 0.0
C120 C 0.28573 0.93299 0.34652 0.0
C121 C 0.28632 0.939 0.34166 0.0
C122 C 0.29576 0.93252 0.3346 0.0
C123 C 0.29127 0.93876 0.33575 0.0
C124 C 0.29503 0.92644 0.3394 0.0
C125 C 0.29006 0.92669 0.34533 0.0
U126 U 0.27359 0.94454 0.35884 0.0
O127 O 0.26307 0.94214 0.36447 0.0
O128 O 0.27285 0.94528 0.37093 0.0
C129 C 0.266 0.94287 0.37108 0.0
C130 C 0.2809 0.93347 0.35303 0.0
C131 C 0.2646 0.93676 0.37624 0.0
C132 C 0.26687 0.92421 0.38042 0.0
C133 C 0.26805 0.92988 0.3753 0.0
C134 C 0.25872 0.93221 0.3874 0.0
C135 C 0.26224 0.92533 0.38658 0.0
C136 C 0.2599 0.93787 0.38228 0.0
C137 C 0.27159 0.96501 0.35344 0.0
C138 C 0.26823 0.97519 0.36154 0.0
C139 C 0.26885 0.97708 0.34829 0.0
C140 C 0.27081 0.96969 0.34733 0.0
C141 C 0.26765 0.97996 0.35542 0.0
C142 C 0.27017 0.96776 0.36056 0.0
C143 C 0.2743 0.95745 0.35228 0.0
O144 O 0.28353 0.93757 0.35841 0.0
O145 O 0.27389 0.93476 0.35162 0.0
O146 O 0.26928 0.95246 0.35064 0.0
O147 O 0.27927 0.9551 0.35703 0.0
H148 H 0.28302 0.94392 0.34252 0.0
H149 H 0.29161 0.94349 0.33209 0.0
H150 H 0.29846 0.92159 0.33872 0.0
H151 H 0.2897 0.92202 0.34906 0.0
H152 H 0.26973 0.91901 0.37966 0.0
H153 H 0.27171 0.92894 0.37065 0.0
H154 H 0.25503 0.93323 0.392 0.0
H155 H 0.25717 0.94314 0.38307 0.0
H156 H 0.26727 0.97721 0.36708 0.0
H157 H 0.26855 0.98061 0.34347 0.0
H158 H 0.2719 0.96766 0.3418 0.0
H159 H 0.2707 0.96422 0.36535 0.0
C160 C 0.08368 0.72889 0.66923 0.0
C161 C 0.07753 0.72737 0.67371 0.0
C162 C 0.0849 0.71883 0.68107 0.0
C163 C 0.07814 0.72239 0.67958 0.0
C164 C 0.09106 0.72046 0.6766 0.0
C165 C 0.09045 0.72545 0.67073 0.0
U166 U 0.07179 0.74113 0.65716 0.0
O167 O 0.07416 0.75179 0.65179 0.0
O168 O 0.07115 0.74216 0.64508 0.0
C169 C 0.07357 0.749 0.64511 0.0
C170 C 0.08297 0.73385 0.66285 0.0
C171 C 0.07984 0.75047 0.64014 0.0
C172 C 0.09228 0.74773 0.63589 0.0
C173 C 0.08644 0.74645 0.6408 0.0
C174 C 0.08503 0.75715 0.62973 0.0
C175 C 0.09163 0.75307 0.63027 0.0
C176 C 0.07918 0.75585 0.63462 0.0
C177 C 0.05124 0.74289 0.66241 0.0
C178 C 0.0412 0.74662 0.6543 0.0
C179 C 0.03904 0.7453 0.66745 0.0
C180 C 0.04644 0.74332 0.66846 0.0
C181 C 0.0363 0.74687 0.66034 0.0
C182 C 0.04862 0.74466 0.65533 0.0
C183 C 0.05882 0.74019 0.6636 0.0
O184 O 0.07887 0.73127 0.65743 0.0
O185 O 0.08154 0.74079 0.66444 0.0
O186 O 0.06377 0.74519 0.66539 0.0
O187 O 0.06124 0.73535 0.65876 0.0
H188 H 0.07224 0.72995 0.6726 0.0
H189 H 0.07325 0.72118 0.68284 0.0
H190 H 0.09637 0.71789 0.67765 0.0
H191 H 0.09524 0.72658 0.66732 0.0
H192 H 0.09732 0.74456 0.63652 0.0
H193 H 0.08705 0.74229 0.64506 0.0
H194 H 0.08431 0.76124 0.62542 0.0
H195 H 0.07411 0.75899 0.63404 0.0
H196 H 0.03927 0.74787 0.64877 0.0
H197 H 0.03541 0.74533 0.67221 0.0
H198 H 0.04837 0.74195 0.67397 0.0
H199 H 0.05227 0.7444 0.65059 0.0
C200 C 0.28601 0.08266 0.66914 0.0
C201 C 0.28653 0.07669 0.67404 0.0
C202 C 0.29597 0.08316 0.68113 0.0
C203 C 0.29144 0.07694 0.67999 0.0
C204 C 0.2953 0.08921 0.67627 0.0
C205 C 0.29037 0.08895 0.67032 0.0
U206 U 0.27416 0.071 0.65664 0.0
O207 O 0.26367 0.0732 0.65089 0.0
O208 O 0.27359 0.07034 0.64451 0.0
C209 C 0.26668 0.07259 0.64431 0.0
C210 C 0.28126 0.08214 0.66257 0.0
C211 C 0.26516 0.07865 0.63913 0.0
C212 C 0.26451 0.09174 0.6362 0.0
C213 C 0.26597 0.08606 0.64125 0.0
C214 C 0.26153 0.08265 0.62685 0.0
C215 C 0.26227 0.0901 0.62893 0.0
C216 C 0.26295 0.07699 0.6319 0.0
C217 C 0.27228 0.0505 0.66195 0.0
C218 C 0.26896 0.04036 0.6538 0.0
C219 C 0.26948 0.03841 0.66704 0.0
C220 C 0.27145 0.0458 0.66804 0.0
C221 C 0.26832 0.03557 0.6599 0.0
C222 C 0.27091 0.04777 0.65481 0.0
C223 C 0.27494 0.05808 0.66317 0.0
O224 O 0.284 0.0781 0.6572 0.0
O225 O 0.27424 0.08075 0.66388 0.0
O226 O 0.26987 0.06301 0.66478 0.0
O227 O 0.27993 0.06049 0.65847 0.0
H228 H 0.28321 0.07177 0.67319 0.0
H229 H 0.29173 0.07223 0.68368 0.0
H230 H 0.29876 0.09405 0.67694 0.0
H231 H 0.29007 0.09359 0.66655 0.0
H232 H 0.26507 0.09741 0.63803 0.0
H233 H 0.2677 0.08745 0.64681 0.0
H234 H 0.25995 0.08117 0.62127 0.0
H235 H 0.26236 0.0713 0.63015 0.0
H236 H 0.26803 0.03835 0.64824 0.0
H237 H 0.26913 0.03487 0.67185 0.0
H238 H 0.27251 0.04781 0.67358 0.0
H239 H 0.27148 0.05134 0.65004 0.0
C240 C 0.93353 0.28518 0.66988 0.0
C241 C 0.93946 0.28542 0.67488 0.0
C242 C 0.93318 0.29494 0.68202 0.0
C243 C 0.93927 0.29024 0.68091 0.0
C244 C 0.92717 0.29454 0.67708 0.0
C245 C 0.92736 0.2897 0.67105 0.0
U246 U 0.94511 0.27359 0.65705 0.0
O247 O 0.94278 0.26335 0.65095 0.0
O248 O 0.94579 0.27345 0.64491 0.0
C249 C 0.94339 0.26661 0.64447 0.0
C250 C 0.93403 0.2806 0.6632 0.0
C251 C 0.93727 0.2654 0.63924 0.0
C252 C 0.92419 0.26379 0.63653 0.0
C253 C 0.9299 0.26484 0.64165 0.0
C254 C 0.93312 0.26396 0.62655 0.0
C255 C 0.92574 0.26338 0.62893 0.0
C256 C 0.93883 0.26494 0.63167 0.0
C257 C 0.96566 0.27148 0.66227 0.0
C258 C 0.97571 0.26817 0.65399 0.0
C259 C 0.97789 0.26896 0.66718 0.0
C260 C 0.97048 0.27083 0.66828 0.0
C261 C 0.98063 0.26771 0.66001 0.0
C262 C 0.96827 0.27002 0.65511 0.0
C263 C 0.95807 0.27408 0.66358 0.0
O264 O 0.93809 0.28346 0.65791 0.0
O265 O 0.93536 0.27355 0.66433 0.0
O266 O 0.95311 0.26897 0.66501 0.0
O267 O 0.95567 0.27923 0.65905 0.0
H268 H 0.94429 0.28199 0.67404 0.0
H269 H 0.94394 0.29033 0.68466 0.0
H270 H 0.92243 0.29813 0.67772 0.0
H271 H 0.92277 0.28962 0.66721 0.0
H272 H 0.91855 0.26344 0.63852 0.0
H273 H 0.92857 0.26526 0.64747 0.0
H274 H 0.9345 0.26357 0.62074 0.0
H275 H 0.94448 0.26537 0.6297 0.0
H276 H 0.97762 0.26716 0.64841 0.0
H277 H 0.98153 0.26876 0.67192 0.0
H278 H 0.96856 0.27196 0.67384 0.0
H279 H 0.96461 0.27046 0.65039 0.0
C280 C 0.73137 0.9327 0.66971 0.0
C281 C 0.73094 0.93871 0.67458 0.0
C282 C 0.72156 0.93231 0.68182 0.0
C283 C 0.7261 0.93851 0.68059 0.0
C284 C 0.72215 0.92623 0.67701 0.0
C285 C 0.727 0.92643 0.67099 0.0
U286 U 0.74306 0.94423 0.65689 0.0
O287 O 0.75334 0.94188 0.65085 0.0
O288 O 0.74327 0.94488 0.64475 0.0
C289 C 0.75011 0.94247 0.64436 0.0
C290 C 0.73598 0.93317 0.66304 0.0
C291 C 0.75132 0.93632 0.63917 0.0
C292 C 0.75278 0.92323 0.63657 0.0
C293 C 0.75174 0.92898 0.64164 0.0
C294 C 0.75287 0.93209 0.62654 0.0
C295 C 0.75331 0.92472 0.62896 0.0
C296 C 0.7519 0.93783 0.6316 0.0
C297 C 0.7452 0.96474 0.66209 0.0
C298 C 0.74854 0.9748 0.65383 0.0
C299 C 0.74783 0.97692 0.66703 0.0
C300 C 0.74592 0.96953 0.66812 0.0
C301 C 0.74906 0.97968 0.65986 0.0
C302 C 0.74664 0.96738 0.65494 0.0
C303 C 0.74256 0.95717 0.66339 0.0
O304 O 0.73316 0.93723 0.65773 0.0
O305 O 0.74304 0.93451 0.6642 0.0
O306 O 0.74766 0.95221 0.66486 0.0
O307 O 0.73743 0.95479 0.65884 0.0
H308 H 0.73426 0.9436 0.67364 0.0
H309 H 0.72587 0.94324 0.68424 0.0
H310 H 0.71868 0.92141 0.67775 0.0
H311 H 0.72723 0.92177 0.66725 0.0
H312 H 0.75302 0.9176 0.6386 0.0
H313 H 0.75123 0.92768 0.64746 0.0
H314 H 0.75334 0.93343 0.62072 0.0
H315 H 0.75157 0.94346 0.6296 0.0
H316 H 0.74952 0.97673 0.64825 0.0
H317 H 0.74808 0.98053 0.67179 0.0
H318 H 0.74481 0.96759 0.67368 0.0
H319 H 0.74615 0.96374 0.65021 0.0
C320 C 0.34639 0.08262 0.28525 0.0
C321 C 0.34143 0.07667 0.28565 0.0
C322 C 0.33426 0.08311 0.29504 0.0
C323 C 0.33541 0.07692 0.29048 0.0
C324 C 0.33917 0.08913 0.29448 0.0
C325 C 0.34519 0.08887 0.28963 0.0
U326 U 0.3592 0.07099 0.27365 0.0
O327 O 0.36526 0.07329 0.26337 0.0
O328 O 0.37136 0.07035 0.27345 0.0
C329 C 0.37176 0.07272 0.2666 0.0
C330 C 0.35306 0.08208 0.28064 0.0
C331 C 0.37695 0.07886 0.26535 0.0
C332 C 0.37956 0.09195 0.26384 0.0
C333 C 0.37449 0.08621 0.26491 0.0
C334 C 0.3896 0.08309 0.26375 0.0
C335 C 0.38718 0.09045 0.26328 0.0
C336 C 0.38453 0.07735 0.26476 0.0
C337 C 0.35402 0.05047 0.2716 0.0
C338 C 0.36232 0.04043 0.26833 0.0
C339 C 0.3491 0.03828 0.26896 0.0
C340 C 0.34799 0.04567 0.27086 0.0
C341 C 0.35629 0.03554 0.26777 0.0
C342 C 0.36119 0.04785 0.27021 0.0
C343 C 0.35269 0.05804 0.27421 0.0
O344 O 0.35836 0.07803 0.2835 0.0
O345 O 0.3519 0.08071 0.2736 0.0
O346 O 0.35122 0.06298 0.2691 0.0
O347 O 0.35724 0.06045 0.27933 0.0
H348 H 0.34229 0.07178 0.28231 0.0
H349 H 0.33168 0.07224 0.29069 0.0
H350 H 0.3385 0.09394 0.29797 0.0
H351 H 0.34901 0.09348 0.28943 0.0
H352 H 0.37754 0.09758 0.26358 0.0
H353 H 0.36867 0.0875 0.26543 0.0
H354 H 0.39542 0.08175 0.26326 0.0
H355 H 0.38653 0.07172 0.2651 0.0
H356 H 0.36791 0.03851 0.26737 0.0
H357 H 0.34434 0.03465 0.26868 0.0
H358 H 0.34242 0.04759 0.27194 0.0
H359 H 0.36592 0.05149 0.27071 0.0
C360 C 0.93298 0.3464 0.28543 0.0
C361 C 0.93911 0.34184 0.28677 0.0
C362 C 0.93177 0.33431 0.29519 0.0
C363 C 0.93851 0.33584 0.2916 0.0
C364 C 0.92561 0.33883 0.2937 0.0
C365 C 0.92622 0.34483 0.28886 0.0
U366 U 0.94502 0.35885 0.27377 0.0
O367 O 0.94287 0.36482 0.2634 0.0
O368 O 0.94585 0.37097 0.27343 0.0
C369 C 0.94352 0.37133 0.26656 0.0
C370 C 0.93374 0.35298 0.28074 0.0
C371 C 0.93745 0.37657 0.26523 0.0
C372 C 0.92436 0.37934 0.26386 0.0
C373 C 0.93004 0.37422 0.265 0.0
C374 C 0.9334 0.3892 0.26325 0.0
C375 C 0.92597 0.38689 0.263 0.0
C376 C 0.93908 0.38408 0.26433 0.0
C377 C 0.96558 0.35323 0.27183 0.0
C378 C 0.97737 0.35972 0.27223 0.0
C379 C 0.97641 0.34804 0.26581 0.0
C380 C 0.96891 0.34765 0.26761 0.0
C381 C 0.98079 0.35398 0.26825 0.0
C382 C 0.96985 0.35935 0.274 0.0
C383 C 0.9579 0.35219 0.27443 0.0
O384 O 0.93788 0.35822 0.28357 0.0
O385 O 0.93517 0.35169 0.27374 0.0
O386 O 0.95292 0.3507 0.26935 0.0
O387 O 0.9555 0.35678 0.27953 0.0
H388 H 0.94439 0.34301 0.28419 0.0
H389 H 0.94339 0.33255 0.29269 0.0
H390 H 0.92032 0.33774 0.2963 0.0
H391 H 0.92144 0.3483 0.28788 0.0
H392 H 0.91869 0.3774 0.26377 0.0
H393 H 0.92866 0.36845 0.26576 0.0
H394 H 0.93483 0.39497 0.26253 0.0
H395 H 0.94476 0.386 0.2645 0.0
H396 H 0.98058 0.36435 0.27427 0.0
H397 H 0.97882 0.34359 0.26261 0.0
H398 H 0.96574 0.34288 0.26587 0.0
H399 H 0.96745 0.36375 0.27727 0.0
C400 C 0.67002 0.93259 0.28604 0.0
C401 C 0.67454 0.93872 0.28746 0.0
C402 C 0.68193 0.93142 0.29603 0.0
C403 C 0.68045 0.93814 0.29241 0.0
C404 C 0.67742 0.92527 0.2945 0.0
C405 C 0.67151 0.92585 0.28955 0.0
U406 U 0.65788 0.94448 0.2739 0.0
O407 O 0.6525 0.94219 0.26323 0.0
O408 O 0.64579 0.9451 0.2729 0.0
C409 C 0.64582 0.94274 0.26603 0.0
C410 C 0.66361 0.93328 0.28111 0.0
C411 C 0.64086 0.93649 0.26451 0.0
C412 C 0.63662 0.92403 0.26717 0.0
C413 C 0.64151 0.92987 0.2685 0.0
C414 C 0.63049 0.93132 0.25774 0.0
C415 C 0.63103 0.9247 0.26179 0.0
C416 C 0.63536 0.93716 0.2591 0.0
C417 C 0.66319 0.96502 0.27232 0.0
C418 C 0.65513 0.97513 0.26868 0.0
C419 C 0.6683 0.9772 0.27004 0.0
C420 C 0.66927 0.96979 0.27194 0.0
C421 C 0.6612 0.97999 0.26849 0.0
C422 C 0.65611 0.96769 0.27056 0.0
C423 C 0.66433 0.95742 0.27494 0.0
O424 O 0.65818 0.93733 0.28372 0.0
O425 O 0.66518 0.93475 0.27417 0.0
O426 O 0.66612 0.95252 0.26989 0.0
O427 O 0.65947 0.95496 0.27976 0.0
H428 H 0.67343 0.94398 0.28482 0.0
H429 H 0.68374 0.94301 0.29353 0.0
H430 H 0.67846 0.92 0.29713 0.0
H431 H 0.66807 0.92107 0.2885 0.0
H432 H 0.63724 0.91898 0.27032 0.0
H433 H 0.64576 0.92925 0.27268 0.0
H434 H 0.6262 0.93204 0.25363 0.0
H435 H 0.63479 0.94224 0.25598 0.0
H436 H 0.6496 0.97709 0.26745 0.0
H437 H 0.67309 0.9808 0.27005 0.0
H438 H 0.67477 0.96782 0.27329 0.0
H439 H 0.65134 0.96407 0.27079 0.0
C440 C 0.08349 0.66918 0.28498 0.0
C441 C 0.07751 0.67409 0.28537 0.0
C442 C 0.08391 0.68129 0.29477 0.0
C443 C 0.07772 0.6801 0.2902 0.0
C444 C 0.08997 0.67644 0.29422 0.0
C445 C 0.08975 0.67042 0.28938 0.0
U446 U 0.07188 0.65645 0.27331 0.0
O447 O 0.07419 0.6504 0.26304 0.0
O448 O 0.07116 0.64432 0.2731 0.0
C449 C 0.07357 0.64391 0.26626 0.0
C450 C 0.08298 0.66252 0.28038 0.0
C451 C 0.0797 0.6387 0.26505 0.0
C452 C 0.09281 0.63604 0.26365 0.0
C453 C 0.08707 0.64112 0.2647 0.0
C454 C 0.08387 0.62607 0.2634 0.0
C455 C 0.09126 0.62845 0.26302 0.0
C456 C 0.07814 0.63115 0.26439 0.0
C457 C 0.05136 0.66183 0.27117 0.0
C458 C 0.04112 0.65371 0.26805 0.0
C459 C 0.03927 0.66696 0.26841 0.0
C460 C 0.0467 0.66794 0.2703 0.0
C461 C 0.03636 0.65983 0.26737 0.0
C462 C 0.04857 0.65471 0.26992 0.0
C463 C 0.05896 0.66304 0.27381 0.0
O464 O 0.07888 0.65724 0.28321 0.0
O465 O 0.08167 0.66368 0.27333 0.0
O466 O 0.06395 0.66448 0.26872 0.0
O467 O 0.06131 0.65846 0.27893 0.0
H468 H 0.07261 0.6732 0.28203 0.0
H469 H 0.07301 0.68379 0.2904 0.0
H470 H 0.09478 0.67714 0.29772 0.0
H471 H 0.09439 0.66664 0.28918 0.0
H472 H 0.09845 0.63803 0.26346 0.0
H473 H 0.0884 0.64693 0.26528 0.0
H474 H 0.08249 0.62027 0.26285 0.0
H475 H 0.07249 0.62918 0.26466 0.0
H476 H 0.03907 0.64815 0.26721 0.0
H477 H 0.03576 0.67178 0.26804 0.0
H478 H 0.04876 0.67348 0.27127 0.0
H479 H 0.05211 0.64992 0.27053 0.0
C480 C 0.34728 0.93317 0.73017 0.0
C481 C 0.34254 0.93925 0.72947 0.0
C482 C 0.33536 0.93275 0.72013 0.0
C483 C 0.33663 0.93905 0.72451 0.0
C484 C 0.34006 0.92661 0.72096 0.0
C485 C 0.34599 0.92683 0.72593 0.0
U486 U 0.35968 0.94451 0.74249 0.0
O487 O 0.36516 0.94191 0.75304 0.0
O488 O 0.37179 0.94503 0.74337 0.0
C489 C 0.37182 0.94251 0.75018 0.0
C490 C 0.35377 0.93357 0.73504 0.0
C491 C 0.37677 0.93621 0.75151 0.0
C492 C 0.38106 0.92387 0.74847 0.0
C493 C 0.37618 0.92975 0.74728 0.0
C494 C 0.38707 0.93082 0.75821 0.0
C495 C 0.38659 0.92435 0.75392 0.0
C496 C 0.38221 0.9367 0.757 0.0
C497 C 0.35449 0.96505 0.74461 0.0
C498 C 0.36259 0.97525 0.74791 0.0
C499 C 0.34931 0.97707 0.74749 0.0
C500 C 0.34836 0.96968 0.74551 0.0
C501 C 0.35645 0.97998 0.7486 0.0
C502 C 0.36161 0.96783 0.74595 0.0
C503 C 0.3533 0.95751 0.74184 0.0
O504 O 0.35922 0.93764 0.73249 0.0
O505 O 0.35231 0.93484 0.74205 0.0
O506 O 0.35155 0.95249 0.74679 0.0
O507 O 0.35809 0.95515 0.73691 0.0
H508 H 0.34348 0.94421 0.7327 0.0
H509 H 0.33306 0.94383 0.72409 0.0
H510 H 0.3393 0.92171 0.71761 0.0
H511 H 0.34963 0.9221 0.72638 0.0
H512 H 0.38048 0.91894 0.74514 0.0
H513 H 0.37197 0.92927 0.74304 0.0
H514 H 0.39132 0.9314 0.76239 0.0
H515 H 0.38274 0.94166 0.7603 0.0
H516 H 0.36814 0.9773 0.74881 0.0
H517 H 0.34447 0.98057 0.74787 0.0
H518 H 0.34282 0.96764 0.74447 0.0
H519 H 0.36642 0.96432 0.74533 0.0
C520 C 0.08337 0.34667 0.72953 0.0
C521 C 0.07719 0.34222 0.72811 0.0
C522 C 0.08442 0.33476 0.71956 0.0
C523 C 0.0777 0.33631 0.72317 0.0
C524 C 0.09063 0.3392 0.72109 0.0
C525 C 0.0901 0.34511 0.72603 0.0
U526 U 0.07163 0.35881 0.74178 0.0
O527 O 0.07406 0.36423 0.7524 0.0
O528 O 0.07099 0.37089 0.74274 0.0
C529 C 0.07345 0.37089 0.74957 0.0
C530 C 0.08274 0.35309 0.73445 0.0
C531 C 0.07971 0.37587 0.75099 0.0
C532 C 0.09209 0.38024 0.74811 0.0
C533 C 0.08624 0.37533 0.74685 0.0
C534 C 0.08496 0.38619 0.75776 0.0
C535 C 0.0915 0.38575 0.75356 0.0
C536 C 0.07911 0.3813 0.75647 0.0
C537 C 0.05109 0.35349 0.74369 0.0
C538 C 0.041 0.36155 0.74739 0.0
C539 C 0.03894 0.34837 0.74622 0.0
C540 C 0.04634 0.34741 0.74422 0.0
C541 C 0.03615 0.35546 0.74773 0.0
C542 C 0.04842 0.36056 0.74541 0.0
C543 C 0.05866 0.35234 0.74096 0.0
O544 O 0.07864 0.35849 0.73187 0.0
O545 O 0.08137 0.35154 0.74141 0.0
O546 O 0.06365 0.35059 0.74594 0.0
O547 O 0.06104 0.35718 0.73608 0.0
H548 H 0.07193 0.34338 0.73074 0.0
H549 H 0.07279 0.33307 0.72205 0.0
H550 H 0.0959 0.3381 0.71847 0.0
H551 H 0.09493 0.3485 0.72708 0.0
H552 H 0.09708 0.37969 0.74485 0.0
H553 H 0.08681 0.37113 0.74262 0.0
H554 H 0.0843 0.39042 0.76193 0.0
H555 H 0.0741 0.38179 0.75971 0.0
H556 H 0.03904 0.36706 0.7486 0.0
H557 H 0.03535 0.34358 0.74632 0.0
H558 H 0.0483 0.34191 0.74289 0.0
H559 H 0.05203 0.36533 0.74508 0.0
C560 C 0.67004 0.08235 0.73005 0.0
C561 C 0.67481 0.07628 0.72942 0.0
C562 C 0.68199 0.08274 0.72004 0.0
C563 C 0.68074 0.07648 0.72448 0.0
C564 C 0.67726 0.08887 0.7208 0.0
C565 C 0.67132 0.08866 0.72576 0.0
U566 U 0.65751 0.07101 0.74226 0.0
O567 O 0.65201 0.07358 0.7528 0.0
O568 O 0.64539 0.07057 0.74308 0.0
C569 C 0.64536 0.07305 0.74991 0.0
C570 C 0.66354 0.08195 0.7349 0.0
C571 C 0.64044 0.07936 0.75126 0.0
C572 C 0.63624 0.09176 0.74829 0.0
C573 C 0.6411 0.08587 0.7471 0.0
C574 C 0.63011 0.08474 0.75792 0.0
C575 C 0.63066 0.09125 0.75369 0.0
C576 C 0.63495 0.07885 0.7567 0.0
C577 C 0.66248 0.05042 0.74429 0.0
C578 C 0.65422 0.04038 0.7477 0.0
C579 C 0.66743 0.03827 0.74701 0.0
C580 C 0.66852 0.04565 0.74505 0.0
C581 C 0.66026 0.03551 0.74825 0.0
C582 C 0.65532 0.04779 0.74575 0.0
C583 C 0.66377 0.05796 0.74156 0.0
O584 O 0.65806 0.07795 0.7323 0.0
O585 O 0.66496 0.08062 0.7419 0.0
O586 O 0.66555 0.06293 0.74654 0.0
O587 O 0.65903 0.0604 0.73662 0.0
H588 H 0.67389 0.07135 0.73269 0.0
H589 H 0.68434 0.07171 0.72412 0.0
H590 H 0.67801 0.09374 0.71741 0.0
H591 H 0.66766 0.09338 0.72615 0.0
H592 H 0.63687 0.09672 0.74501 0.0
H593 H 0.64535 0.08637 0.7429 0.0
H594 H 0.62582 0.08413 0.76206 0.0
H595 H 0.63436 0.07385 0.75995 0.0
H596 H 0.64863 0.03844 0.74869 0.0
H597 H 0.6722 0.03466 0.74729 0.0
H598 H 0.67408 0.04758 0.74392 0.0
H599 H 0.65058 0.05141 0.74524 0.0
C600 C 0.93329 0.66847 0.72979 0.0
C601 C 0.93947 0.67291 0.72825 0.0
C602 C 0.93211 0.68036 0.71979 0.0
C603 C 0.93888 0.6788 0.7233 0.0
C604 C 0.92592 0.67594 0.72144 0.0
C605 C 0.92651 0.67004 0.7264 0.0
U606 U 0.94518 0.65637 0.74197 0.0
O607 O 0.94284 0.65093 0.7526 0.0
O608 O 0.94588 0.64429 0.74292 0.0
C609 C 0.94345 0.64427 0.74977 0.0
C610 C 0.93399 0.66206 0.73471 0.0
C611 C 0.93721 0.63928 0.75121 0.0
C612 C 0.92481 0.63493 0.74838 0.0
C613 C 0.93064 0.63986 0.74712 0.0
C614 C 0.93202 0.62889 0.75793 0.0
C615 C 0.92544 0.62936 0.75378 0.0
C616 C 0.93785 0.6338 0.75664 0.0
C617 C 0.96571 0.66176 0.74374 0.0
C618 C 0.9758 0.65372 0.74749 0.0
C619 C 0.97791 0.66686 0.74604 0.0
C620 C 0.9705 0.66782 0.74409 0.0
C621 C 0.98068 0.65978 0.74766 0.0
C622 C 0.96837 0.6547 0.74556 0.0
C623 C 0.95812 0.66289 0.74106 0.0
O624 O 0.9381 0.65667 0.73211 0.0
O625 O 0.93541 0.66361 0.74166 0.0
O626 O 0.95316 0.66461 0.74608 0.0
O627 O 0.95572 0.65805 0.7362 0.0
H628 H 0.94476 0.67174 0.73081 0.0
H629 H 0.94379 0.68202 0.72209 0.0
H630 H 0.92061 0.67704 0.7189 0.0
H631 H 0.92169 0.66666 0.72753 0.0
H632 H 0.91979 0.6355 0.74516 0.0
H633 H 0.93004 0.64409 0.74293 0.0
H634 H 0.93272 0.62462 0.76206 0.0
H635 H 0.94289 0.63328 0.75983 0.0
H636 H 0.97775 0.64821 0.74878 0.0
H637 H 0.98152 0.67163 0.74601 0.0
H638 H 0.96854 0.6733 0.74268 0.0
H639 H 0.96473 0.64995 0.74535 0.0
C640 C 0.28636 0.34713 0.08287 0.0
C641 C 0.2878 0.34258 0.07677 0.0
C642 C 0.29637 0.33525 0.08412 0.0
C643 C 0.29276 0.3367 0.07738 0.0
C644 C 0.29481 0.33978 0.09025 0.0
C645 C 0.28985 0.34567 0.08962 0.0
U646 U 0.27413 0.35899 0.07084 0.0
O647 O 0.2635 0.36449 0.07306 0.0
O648 O 0.2732 0.37104 0.06984 0.0
C649 C 0.26633 0.37113 0.07221 0.0
C650 C 0.28144 0.35353 0.08211 0.0
C651 C 0.26482 0.37637 0.07822 0.0
C652 C 0.26717 0.38099 0.0906 0.0
C653 C 0.26846 0.37578 0.08504 0.0
C654 C 0.25851 0.38735 0.0826 0.0
C655 C 0.26223 0.38688 0.08942 0.0
C656 C 0.2598 0.38214 0.07705 0.0
C657 C 0.27227 0.35322 0.05047 0.0
C658 C 0.26857 0.36113 0.04025 0.0
C659 C 0.26972 0.34792 0.03842 0.0
C660 C 0.27174 0.34707 0.04582 0.0
C661 C 0.26822 0.35497 0.03552 0.0
C662 C 0.27056 0.36026 0.04768 0.0
C663 C 0.275 0.3522 0.05806 0.0
O664 O 0.28402 0.35885 0.07789 0.0
O665 O 0.27446 0.35196 0.08076 0.0
O666 O 0.26999 0.35057 0.06306 0.0
O667 O 0.27989 0.35706 0.06034 0.0
H668 H 0.28517 0.34366 0.07149 0.0
H669 H 0.2939 0.3334 0.07253 0.0
H670 H 0.29743 0.33877 0.09554 0.0
H671 H 0.28879 0.34914 0.09439 0.0
H672 H 0.27018 0.38051 0.09575 0.0
H673 H 0.27237 0.37135 0.08602 0.0
H674 H 0.25457 0.39173 0.08154 0.0
H675 H 0.25692 0.38265 0.07182 0.0
H676 H 0.26737 0.36662 0.0382 0.0
H677 H 0.26961 0.34308 0.03491 0.0
H678 H 0.27306 0.3416 0.04788 0.0
H679 H 0.2709 0.36508 0.05121 0.0
C680 C 0.28548 0.66927 0.93275 0.0
C681 C 0.28572 0.67426 0.93867 0.0
C682 C 0.29506 0.68156 0.93227 0.0
C683 C 0.29045 0.68036 0.93842 0.0
C684 C 0.29466 0.67662 0.92627 0.0
C685 C 0.28991 0.67052 0.92652 0.0
U686 U 0.27407 0.65629 0.94439 0.0
O687 O 0.2639 0.65004 0.94211 0.0
O688 O 0.27409 0.64415 0.94508 0.0
C689 C 0.26724 0.64362 0.94271 0.0
C690 C 0.28099 0.66253 0.93328 0.0
C691 C 0.26608 0.63838 0.93661 0.0
C692 C 0.26464 0.63566 0.92353 0.0
C693 C 0.26566 0.64077 0.92924 0.0
C694 C 0.26457 0.62571 0.93248 0.0
C695 C 0.26411 0.62807 0.92509 0.0
C696 C 0.26553 0.63082 0.93818 0.0
C697 C 0.27188 0.66148 0.96489 0.0
C698 C 0.26863 0.65316 0.97492 0.0
C699 C 0.26922 0.66635 0.9771 0.0
C700 C 0.27112 0.66749 0.96971 0.0
C701 C 0.26806 0.65916 0.97983 0.0
C702 C 0.27051 0.65431 0.9675 0.0
C703 C 0.27449 0.66284 0.95732 0.0
O704 O 0.28393 0.65729 0.93736 0.0
O705 O 0.27391 0.66355 0.93463 0.0
O706 O 0.26936 0.66419 0.95236 0.0
O707 O 0.2797 0.65838 0.95493 0.0
H708 H 0.28235 0.67336 0.94353 0.0
H709 H 0.29054 0.6841 0.94309 0.0
H710 H 0.29819 0.67733 0.92149 0.0
H711 H 0.28983 0.66668 0.92193 0.0
H712 H 0.26438 0.63764 0.91788 0.0
H713 H 0.26615 0.64659 0.92789 0.0
H714 H 0.26411 0.61991 0.93387 0.0
H715 H 0.26586 0.62887 0.94384 0.0
H716 H 0.2677 0.64756 0.97684 0.0
H717 H 0.26893 0.67109 0.98073 0.0
H718 H 0.27218 0.67306 0.96779 0.0
H719 H 0.27104 0.6496 0.96385 0.0
C720 C 0.34653 0.28517 0.93279 0.0
C721 C 0.34158 0.2856 0.93874 0.0
C722 C 0.33446 0.29501 0.93226 0.0
C723 C 0.33558 0.29046 0.93847 0.0
C724 C 0.33936 0.29443 0.92624 0.0
C725 C 0.34536 0.28955 0.92652 0.0
U726 U 0.35927 0.27354 0.94449 0.0
O727 O 0.36524 0.26321 0.94224 0.0
O728 O 0.37142 0.27325 0.94513 0.0
C729 C 0.37176 0.26639 0.94279 0.0
C730 C 0.35317 0.28053 0.93334 0.0
C731 C 0.37694 0.26509 0.93665 0.0
C732 C 0.37952 0.26362 0.92354 0.0
C733 C 0.37447 0.26474 0.92929 0.0
C734 C 0.38955 0.26329 0.93241 0.0
C735 C 0.38712 0.26292 0.92504 0.0
C736 C 0.3845 0.26435 0.93816 0.0
C737 C 0.35403 0.27163 0.96503 0.0
C738 C 0.36225 0.26837 0.97515 0.0
C739 C 0.34904 0.26914 0.97723 0.0
C740 C 0.34797 0.27099 0.96981 0.0
C741 C 0.3562 0.26791 0.98002 0.0
C742 C 0.36117 0.27019 0.9677 0.0
C743 C 0.35275 0.2742 0.95743 0.0
O744 O 0.3585 0.28336 0.93739 0.0
O745 O 0.35196 0.2735 0.93475 0.0
O746 O 0.35125 0.26908 0.95251 0.0
O747 O 0.35736 0.27927 0.95499 0.0
H748 H 0.34242 0.28227 0.94364 0.0
H749 H 0.33186 0.29068 0.94315 0.0
H750 H 0.33871 0.29791 0.92142 0.0
H751 H 0.34918 0.28932 0.92191 0.0
H752 H 0.37749 0.26344 0.91791 0.0
H753 H 0.36865 0.26538 0.928 0.0
H754 H 0.39536 0.26269 0.93375 0.0
H755 H 0.38651 0.26461 0.9438 0.0
H756 H 0.36783 0.26737 0.9771 0.0
H757 H 0.34426 0.26894 0.98084 0.0
H758 H 0.34242 0.2721 0.96785 0.0
H759 H 0.36592 0.27063 0.96407 0.0
C760 C 0.73074 0.34607 0.93245 0.0
C761 C 0.72939 0.34149 0.93856 0.0
C762 C 0.72078 0.33413 0.93128 0.0
C763 C 0.72447 0.33557 0.93798 0.0
C764 C 0.72224 0.3387 0.92514 0.0
C765 C 0.72718 0.34462 0.92573 0.0
U766 U 0.74283 0.35814 0.94442 0.0
O767 O 0.75345 0.36367 0.9422 0.0
O768 O 0.7437 0.37021 0.94526 0.0
C769 C 0.75059 0.3703 0.94294 0.0
C770 C 0.73563 0.35251 0.93317 0.0
C771 C 0.75214 0.37549 0.9369 0.0
C772 C 0.74982 0.38005 0.92448 0.0
C773 C 0.7485 0.37487 0.93007 0.0
C774 C 0.75852 0.38641 0.93244 0.0
C775 C 0.7548 0.38592 0.92562 0.0
C776 C 0.75719 0.38124 0.93802 0.0
C777 C 0.74458 0.35254 0.96497 0.0
C778 C 0.74447 0.35918 0.97667 0.0
C779 C 0.75043 0.34724 0.97585 0.0
C780 C 0.74858 0.34684 0.96836 0.0
C781 C 0.74824 0.35333 0.98014 0.0
C782 C 0.74266 0.3588 0.96916 0.0
C783 C 0.74193 0.35154 0.95731 0.0
O784 O 0.73298 0.35786 0.9373 0.0
O785 O 0.7426 0.35099 0.93459 0.0
O786 O 0.74695 0.34984 0.95234 0.0
O787 O 0.73699 0.35629 0.95489 0.0
H788 H 0.73207 0.34257 0.9438 0.0
H789 H 0.7234 0.33224 0.94284 0.0
H790 H 0.71957 0.33769 0.91988 0.0
H791 H 0.72817 0.34811 0.92097 0.0
H792 H 0.74681 0.37955 0.91933 0.0
H793 H 0.74457 0.37045 0.92912 0.0
H794 H 0.76247 0.39079 0.93346 0.0
H795 H 0.76006 0.38177 0.94325 0.0
H796 H 0.74263 0.36392 0.97981 0.0
H797 H 0.75345 0.34269 0.9783 0.0
H798 H 0.75012 0.34196 0.96525 0.0
H799 H 0.73957 0.3633 0.96672 0.0
C800 C 0.66994 0.73095 0.93302 0.0
C801 C 0.67499 0.73063 0.93889 0.0
C802 C 0.68202 0.72111 0.93248 0.0
C803 C 0.68099 0.72577 0.93861 0.0
C804 C 0.67701 0.72158 0.92653 0.0
C805 C 0.67101 0.72645 0.92681 0.0
U806 U 0.65749 0.74278 0.94474 0.0
O807 O 0.65168 0.75322 0.94246 0.0
O808 O 0.64537 0.74332 0.94556 0.0
C809 C 0.64511 0.75019 0.94322 0.0
C810 C 0.66335 0.73566 0.93357 0.0
C811 C 0.63988 0.75157 0.93716 0.0
C812 C 0.63552 0.74924 0.92468 0.0
C813 C 0.64071 0.74808 0.93029 0.0
C814 C 0.6287 0.75749 0.93271 0.0
C815 C 0.62941 0.75392 0.92584 0.0
C816 C 0.63389 0.75632 0.93832 0.0
C817 C 0.663 0.74468 0.9652 0.0
C818 C 0.65493 0.74787 0.97546 0.0
C819 C 0.66819 0.74728 0.97729 0.0
C820 C 0.66914 0.74542 0.96986 0.0
C821 C 0.66107 0.74841 0.98021 0.0
C822 C 0.65589 0.74603 0.968 0.0
C823 C 0.66415 0.74206 0.9576 0.0
O824 O 0.65802 0.73291 0.93768 0.0
O825 O 0.66464 0.74268 0.9349 0.0
O826 O 0.66568 0.74714 0.95264 0.0
O827 O 0.65945 0.73705 0.95524 0.0
H828 H 0.67423 0.73405 0.94374 0.0
H829 H 0.68479 0.72564 0.94323 0.0
H830 H 0.67759 0.71801 0.92177 0.0
H831 H 0.66712 0.7266 0.92226 0.0
H832 H 0.6362 0.74635 0.91948 0.0
H833 H 0.64532 0.74438 0.92932 0.0
H834 H 0.62413 0.76122 0.93376 0.0
H835 H 0.63318 0.75908 0.94358 0.0
H836 H 0.64938 0.74878 0.97752 0.0
H837 H 0.67303 0.74756 0.98081 0.0
H838 H 0.67467 0.74438 0.9678 0.0
H839 H 0.65108 0.74552 0.96447 0.0
C840 C 0.73119 0.66868 0.08291 0.0
C841 C 0.72942 0.67297 0.0767 0.0
C842 C 0.72122 0.68059 0.08416 0.0
C843 C 0.72449 0.67888 0.07732 0.0
C844 C 0.7231 0.67632 0.09039 0.0
C845 C 0.72804 0.67041 0.08976 0.0
U846 U 0.74256 0.65611 0.07077 0.0
O847 O 0.75332 0.6507 0.0726 0.0
O848 O 0.74342 0.64403 0.07043 0.0
C849 C 0.75044 0.64404 0.07234 0.0
C850 C 0.73608 0.66225 0.08218 0.0
C851 C 0.75233 0.63911 0.0785 0.0
C852 C 0.75036 0.63477 0.09106 0.0
C853 C 0.74885 0.63983 0.08539 0.0
C854 C 0.75896 0.62838 0.08303 0.0
C855 C 0.75536 0.62893 0.08991 0.0
C856 C 0.75744 0.63342 0.07738 0.0
C857 C 0.74276 0.66044 0.04987 0.0
C858 C 0.73885 0.65784 0.03728 0.0
C859 C 0.75181 0.65994 0.03991 0.0
C860 C 0.75013 0.66093 0.04739 0.0
C861 C 0.74618 0.65843 0.03476 0.0
C862 C 0.73716 0.65886 0.04473 0.0
C863 C 0.74069 0.66196 0.05763 0.0
O864 O 0.73321 0.65669 0.0785 0.0
O865 O 0.74292 0.66374 0.08022 0.0
O866 O 0.746 0.664 0.06217 0.0
O867 O 0.73598 0.65731 0.06062 0.0
H868 H 0.73178 0.67168 0.07135 0.0
H869 H 0.7231 0.68198 0.07239 0.0
H870 H 0.72075 0.67755 0.09576 0.0
H871 H 0.72935 0.66715 0.09461 0.0
H872 H 0.74744 0.63532 0.09625 0.0
H873 H 0.74487 0.6442 0.08634 0.0
H874 H 0.76293 0.62403 0.082 0.0
H875 H 0.76019 0.63281 0.0721 0.0
H876 H 0.73437 0.6568 0.03344 0.0
H877 H 0.75752 0.66039 0.03814 0.0
H878 H 0.75458 0.66216 0.05121 0.0
H879 H 0.73144 0.65855 0.04647 0.0
C880 C 0.34695 0.72997 0.08221 0.0
C881 C 0.34223 0.72924 0.07609 0.0
C882 C 0.33506 0.71988 0.08259 0.0
C883 C 0.33634 0.72426 0.07629 0.0
C884 C 0.33974 0.72074 0.08876 0.0
C885 C 0.34564 0.72574 0.08856 0.0
U886 U 0.35942 0.74223 0.07087 0.0
O887 O 0.36488 0.75279 0.07344 0.0
O888 O 0.37153 0.74311 0.07044 0.0
C889 C 0.37154 0.74993 0.07292 0.0
C890 C 0.35342 0.73486 0.08181 0.0
C891 C 0.37644 0.7513 0.07925 0.0
C892 C 0.38057 0.74835 0.09169 0.0
C893 C 0.37572 0.74717 0.08578 0.0
C894 C 0.3868 0.7579 0.08465 0.0
C895 C 0.38619 0.75371 0.09118 0.0
C896 C 0.38197 0.75669 0.07874 0.0
C897 C 0.35446 0.7442 0.05025 0.0
C898 C 0.36272 0.74755 0.04018 0.0
C899 C 0.34949 0.74689 0.03808 0.0
C900 C 0.34841 0.74495 0.04548 0.0
C901 C 0.35666 0.74809 0.03531 0.0
C902 C 0.36162 0.74564 0.0476 0.0
C903 C 0.35318 0.74148 0.0578 0.0
O904 O 0.35891 0.73228 0.07782 0.0
O905 O 0.35196 0.74184 0.08047 0.0
O906 O 0.35137 0.74647 0.06276 0.0
O907 O 0.35793 0.73657 0.06026 0.0
H908 H 0.34318 0.73247 0.07114 0.0
H909 H 0.33279 0.72382 0.07149 0.0
H910 H 0.33896 0.7174 0.09366 0.0
H911 H 0.34926 0.72621 0.0933 0.0
H912 H 0.3799 0.7451 0.09667 0.0
H913 H 0.37145 0.743 0.08628 0.0
H914 H 0.39112 0.762 0.08404 0.0
H915 H 0.3826 0.75991 0.07373 0.0
H916 H 0.3683 0.74852 0.03824 0.0
H917 H 0.34472 0.74716 0.03448 0.0
H918 H 0.34285 0.74384 0.04742 0.0
H919 H 0.36637 0.74513 0.05122 0.0
C920 C 0.66951 0.28521 0.08257 0.0
C921 C 0.67428 0.28597 0.0765 0.0
C922 C 0.68138 0.29531 0.08309 0.0
C923 C 0.68016 0.29096 0.07676 0.0
C924 C 0.67665 0.29443 0.08921 0.0
C925 C 0.67075 0.28942 0.08894 0.0
U926 U 0.65724 0.2729 0.0711 0.0
O927 O 0.65182 0.2623 0.07359 0.0
O928 O 0.64514 0.27194 0.07052 0.0
C929 C 0.64514 0.26511 0.073 0.0
C930 C 0.66306 0.2803 0.08211 0.0
C931 C 0.64018 0.2637 0.07927 0.0
C932 C 0.63578 0.26665 0.09161 0.0
C933 C 0.64068 0.26791 0.08575 0.0
C934 C 0.62993 0.25685 0.0846 0.0
C935 C 0.63033 0.26112 0.09108 0.0
C936 C 0.63481 0.25815 0.07874 0.0
C937 C 0.66255 0.27098 0.05054 0.0
C938 C 0.65454 0.26765 0.04028 0.0
C939 C 0.6678 0.26831 0.0385 0.0
C940 C 0.66871 0.27023 0.04591 0.0
C941 C 0.6607 0.26711 0.03556 0.0
C942 C 0.65546 0.26955 0.04773 0.0
C943 C 0.66367 0.2737 0.05812 0.0
O944 O 0.6576 0.28285 0.07805 0.0
O945 O 0.66456 0.27332 0.0808 0.0
O946 O 0.66543 0.26872 0.06311 0.0
O947 O 0.65883 0.27856 0.06049 0.0
H948 H 0.67338 0.28276 0.07153 0.0
H949 H 0.68376 0.29142 0.072 0.0
H950 H 0.67737 0.29775 0.09413 0.0
H951 H 0.66709 0.28893 0.09366 0.0
H952 H 0.6363 0.26997 0.09656 0.0
H953 H 0.64483 0.2722 0.08627 0.0
H954 H 0.62575 0.25262 0.08398 0.0
H955 H 0.63435 0.25485 0.07377 0.0
H956 H 0.649 0.26668 0.03821 0.0
H957 H 0.67266 0.26805 0.035 0.0
H958 H 0.67422 0.27134 0.04799 0.0
H959 H 0.65063 0.27006 0.05123 0.0
C960 C 0.93372 0.72976 0.66875 0.0
C961 C 0.93987 0.72832 0.67325 0.0
C962 C 0.93253 0.71984 0.68071 0.0
C963 C 0.93928 0.72341 0.67918 0.0
C964 C 0.92636 0.7214 0.67623 0.0
C965 C 0.92696 0.72632 0.6703 0.0
U966 U 0.94561 0.7419 0.6566 0.0
O967 O 0.94631 0.74281 0.64451 0.0
O968 O 0.94326 0.7525 0.65111 0.0
C969 C 0.94387 0.74965 0.64447 0.0
C970 C 0.93442 0.73465 0.66231 0.0
C971 C 0.93762 0.75106 0.63947 0.0
C972 C 0.9252 0.74823 0.6352 0.0
C973 C 0.93104 0.74699 0.64012 0.0
C974 C 0.93241 0.7577 0.62905 0.0
C975 C 0.92583 0.75357 0.62959 0.0
C976 C 0.93826 0.75644 0.63395 0.0
C977 C 0.96615 0.74371 0.66203 0.0
C978 C 0.97643 0.74705 0.65404 0.0
C979 C 0.97821 0.74634 0.66729 0.0
C980 C 0.97078 0.74442 0.66819 0.0
C981 C 0.98116 0.74757 0.6602 0.0
C982 C 0.96897 0.74515 0.65495 0.0
C983 C 0.95854 0.74103 0.66313 0.0
O984 O 0.93583 0.74161 0.66384 0.0
O985 O 0.93854 0.73203 0.65694 0.0
O986 O 0.95616 0.73616 0.65831 0.0
O987 O 0.95358 0.74605 0.66484 0.0
H988 H 0.94515 0.73091 0.6721 0.0
H989 H 0.94417 0.72226 0.68245 0.0
H990 H 0.92106 0.71883 0.67731 0.0
H991 H 0.92216 0.72739 0.66687 0.0
H992 H 0.92017 0.74503 0.63582 0.0
H993 H 0.93045 0.74284 0.64439 0.0
H994 H 0.9331 0.76179 0.62474 0.0
H995 H 0.9433 0.75961 0.63338 0.0
H996 H 0.97851 0.74804 0.64852 0.0
H997 H 0.98171 0.74659 0.67215 0.0
H998 H 0.9687 0.74331 0.67369 0.0
H999 H 0.96546 0.74467 0.65012 0.0
C1000 C 0.28599 0.93361 0.66885 0.0
C1001 C 0.28664 0.93969 0.6736 0.0
C1002 C 0.29607 0.93325 0.68074 0.0
C1003 C 0.29162 0.93951 0.6795 0.0
C1004 C 0.29528 0.92711 0.67603 0.0
C1005 C 0.29028 0.9273 0.67013 0.0
U1006 U 0.27375 0.94498 0.65642 0.0
O1007 O 0.27287 0.94547 0.64432 0.0
O1008 O 0.26316 0.94247 0.65096 0.0
C1009 C 0.26602 0.94301 0.64431 0.0
C1010 C 0.28111 0.93401 0.66238 0.0
C1011 C 0.26463 0.93672 0.63938 0.0
C1012 C 0.26754 0.92433 0.63515 0.0
C1013 C 0.26877 0.9302 0.64001 0.0
C1014 C 0.25791 0.93138 0.62907 0.0
C1015 C 0.26211 0.92486 0.62959 0.0
C1016 C 0.25917 0.93726 0.63392 0.0
C1017 C 0.27187 0.96557 0.66151 0.0
C1018 C 0.2685 0.9757 0.65336 0.0
C1019 C 0.26931 0.9777 0.66657 0.0
C1020 C 0.27121 0.9703 0.66759 0.0
C1021 C 0.26805 0.98053 0.65944 0.0
C1022 C 0.27038 0.96827 0.65439 0.0
C1023 C 0.27455 0.958 0.66273 0.0
O1024 O 0.27411 0.93534 0.66383 0.0
O1025 O 0.2837 0.93801 0.6569 0.0
O1026 O 0.27945 0.95557 0.65795 0.0
O1027 O 0.26954 0.95305 0.66451 0.0
H1028 H 0.28337 0.94462 0.67269 0.0
H1029 H 0.29201 0.94429 0.68308 0.0
H1030 H 0.29868 0.92224 0.67678 0.0
H1031 H 0.28987 0.92258 0.66648 0.0
H1032 H 0.2708 0.91935 0.63575 0.0
H1033 H 0.27299 0.92968 0.64424 0.0
H1034 H 0.25375 0.93201 0.62481 0.0
H1035 H 0.25592 0.94226 0.63336 0.0
H1036 H 0.26749 0.97768 0.6478 0.0
H1037 H 0.26912 0.98128 0.67136 0.0
H1038 H 0.27236 0.96831 0.67312 0.0
H1039 H 0.27082 0.96467 0.64962 0.0
C1040 C 0.08317 0.28584 0.66809 0.0
C1041 C 0.07701 0.28738 0.67254 0.0
C1042 C 0.08441 0.29583 0.67998 0.0
C1043 C 0.07762 0.29233 0.67844 0.0
C1044 C 0.09058 0.29416 0.67554 0.0
C1045 C 0.08996 0.28921 0.66964 0.0
U1046 U 0.07127 0.2736 0.65603 0.0
O1047 O 0.07057 0.27264 0.64395 0.0
O1048 O 0.07366 0.26299 0.6506 0.0
C1049 C 0.07302 0.26581 0.64394 0.0
C1050 C 0.08245 0.28091 0.66169 0.0
C1051 C 0.07927 0.2644 0.63894 0.0
C1052 C 0.09167 0.26727 0.63461 0.0
C1053 C 0.08583 0.26851 0.63953 0.0
C1054 C 0.08449 0.25771 0.62856 0.0
C1055 C 0.09105 0.26187 0.62905 0.0
C1056 C 0.07865 0.25898 0.63346 0.0
C1057 C 0.05075 0.27171 0.66146 0.0
C1058 C 0.04047 0.26838 0.65347 0.0
C1059 C 0.03874 0.26889 0.66674 0.0
C1060 C 0.04615 0.27087 0.66763 0.0
C1061 C 0.03577 0.26773 0.65965 0.0
C1062 C 0.04791 0.27033 0.65437 0.0
C1063 C 0.05834 0.27444 0.66256 0.0
O1064 O 0.08106 0.27396 0.66326 0.0
O1065 O 0.07831 0.2835 0.65631 0.0
O1066 O 0.06071 0.27931 0.65772 0.0
O1067 O 0.06333 0.26945 0.6643 0.0
H1068 H 0.07171 0.28484 0.67139 0.0
H1069 H 0.07274 0.29355 0.68167 0.0
H1070 H 0.09591 0.29668 0.67663 0.0
H1071 H 0.09477 0.28806 0.66626 0.0
H1072 H 0.09667 0.2705 0.63519 0.0
H1073 H 0.08641 0.27269 0.64377 0.0
H1074 H 0.08381 0.25358 0.62429 0.0
H1075 H 0.07362 0.25577 0.63294 0.0
H1076 H 0.03837 0.26744 0.64795 0.0
H1077 H 0.03526 0.26854 0.6716 0.0
H1078 H 0.04825 0.27194 0.67314 0.0
H1079 H 0.0514 0.27091 0.64954 0.0
C1080 C 0.73125 0.08166 0.66868 0.0
C1081 C 0.73071 0.07567 0.67356 0.0
C1082 C 0.72125 0.08211 0.68063 0.0
C1083 C 0.72578 0.07589 0.67949 0.0
C1084 C 0.72192 0.08817 0.6758 0.0
C1085 C 0.72688 0.08794 0.66986 0.0
U1086 U 0.74337 0.07014 0.65632 0.0
O1087 O 0.74407 0.0694 0.64422 0.0
O1088 O 0.75387 0.07256 0.65065 0.0
C1089 C 0.75092 0.07182 0.64405 0.0
C1090 C 0.73605 0.08119 0.66215 0.0
C1091 C 0.75229 0.07794 0.63889 0.0
C1092 C 0.74999 0.09049 0.63472 0.0
C1093 C 0.74883 0.0848 0.63984 0.0
C1094 C 0.75815 0.08251 0.62773 0.0
C1095 C 0.75462 0.08938 0.62857 0.0
C1096 C 0.75699 0.07684 0.63284 0.0
C1097 C 0.74544 0.04967 0.66173 0.0
C1098 C 0.7487 0.03945 0.65365 0.0
C1099 C 0.74829 0.03763 0.66691 0.0
C1100 C 0.74633 0.04503 0.66786 0.0
C1101 C 0.74938 0.03472 0.65979 0.0
C1102 C 0.74676 0.04688 0.65461 0.0
C1103 C 0.74272 0.05723 0.66289 0.0
O1104 O 0.74308 0.07991 0.66353 0.0
O1105 O 0.73341 0.07708 0.65678 0.0
O1106 O 0.73773 0.05957 0.65816 0.0
O1107 O 0.74773 0.06223 0.66451 0.0
H1108 H 0.73404 0.07076 0.67271 0.0
H1109 H 0.72548 0.07118 0.68316 0.0
H1110 H 0.71846 0.093 0.67647 0.0
H1111 H 0.72719 0.09259 0.66611 0.0
H1112 H 0.74712 0.09568 0.6355 0.0
H1113 H 0.74517 0.08573 0.64449 0.0
H1114 H 0.76184 0.08151 0.62312 0.0
H1115 H 0.75972 0.07158 0.63205 0.0
H1116 H 0.74958 0.03739 0.6481 0.0
H1117 H 0.74866 0.03413 0.67175 0.0
H1118 H 0.74531 0.04709 0.67339 0.0
H1119 H 0.74615 0.05039 0.6498 0.0
C1120 C 0.93323 0.28562 0.3469 0.0
C1121 C 0.93936 0.28717 0.34242 0.0
C1122 C 0.93188 0.29548 0.33492 0.0
C1123 C 0.9387 0.29206 0.33647 0.0
C1124 C 0.92573 0.29381 0.33938 0.0
C1125 C 0.92641 0.28891 0.34533 0.0
U1126 U 0.94526 0.27361 0.35908 0.0
O1127 O 0.94599 0.27278 0.37117 0.0
O1128 O 0.94298 0.26303 0.36463 0.0
C1129 C 0.9436 0.26592 0.37126 0.0
C1130 C 0.93401 0.28076 0.35336 0.0
C1131 C 0.93738 0.26448 0.37629 0.0
C1132 C 0.925 0.26728 0.38069 0.0
C1133 C 0.93081 0.26856 0.37574 0.0
C1134 C 0.93225 0.25775 0.3867 0.0
C1135 C 0.92567 0.26188 0.38625 0.0
C1136 C 0.93806 0.25905 0.38177 0.0
C1137 C 0.96577 0.27185 0.35367 0.0
C1138 C 0.97587 0.26817 0.36174 0.0
C1139 C 0.97794 0.26944 0.34857 0.0
C1140 C 0.97053 0.2714 0.34759 0.0
C1141 C 0.98073 0.2679 0.35566 0.0
C1142 C 0.96844 0.27011 0.36075 0.0
C1143 C 0.95817 0.27451 0.35252 0.0
O1144 O 0.93546 0.27381 0.35186 0.0
O1145 O 0.93813 0.28344 0.3587 0.0
O1146 O 0.95577 0.27941 0.35732 0.0
O1147 O 0.95322 0.26947 0.35085 0.0
H1148 H 0.94469 0.28469 0.34358 0.0
H1149 H 0.94357 0.2933 0.33322 0.0
H1150 H 0.92039 0.29627 0.33828 0.0
H1151 H 0.92162 0.28775 0.34874 0.0
H1152 H 0.91998 0.27049 0.38014 0.0
H1153 H 0.93018 0.27275 0.37151 0.0
H1154 H 0.93297 0.25362 0.39097 0.0
H1155 H 0.9431 0.25587 0.38227 0.0
H1156 H 0.97783 0.26694 0.36726 0.0
H1157 H 0.98154 0.26939 0.34378 0.0
H1158 H 0.96857 0.27275 0.3421 0.0
H1159 H 0.96482 0.27039 0.36551 0.0
C1160 C 0.73068 0.93286 0.34772 0.0
C1161 C 0.7292 0.93892 0.34313 0.0
C1162 C 0.72079 0.93142 0.33575 0.0
C1163 C 0.7243 0.93821 0.33719 0.0
C1164 C 0.72239 0.92533 0.34033 0.0
C1165 C 0.7273 0.92605 0.34627 0.0
U1166 U 0.74256 0.94511 0.35971 0.0
O1167 O 0.74336 0.94608 0.37179 0.0
O1168 O 0.75318 0.94309 0.36531 0.0
C1169 C 0.75027 0.94384 0.37193 0.0
C1170 C 0.73553 0.93371 0.35417 0.0
C1171 C 0.75183 0.93782 0.37715 0.0
C1172 C 0.74971 0.92533 0.38159 0.0
C1173 C 0.74838 0.93092 0.37641 0.0
C1174 C 0.75804 0.93347 0.38821 0.0
C1175 C 0.75451 0.92656 0.38759 0.0
C1176 C 0.7567 0.93904 0.38304 0.0
C1177 C 0.74403 0.96552 0.35397 0.0
C1178 C 0.74762 0.97574 0.3619 0.0
C1179 C 0.74617 0.97767 0.34873 0.0
C1180 C 0.74433 0.97023 0.34784 0.0
C1181 C 0.74774 0.98054 0.35578 0.0
C1182 C 0.7458 0.96827 0.361 0.0
C1183 C 0.74148 0.95788 0.35293 0.0
O1184 O 0.74249 0.9352 0.35267 0.0
O1185 O 0.73281 0.93785 0.35947 0.0
O1186 O 0.7366 0.95548 0.35775 0.0
O1187 O 0.74661 0.95299 0.35134 0.0
H1188 H 0.73175 0.94423 0.34421 0.0
H1189 H 0.72313 0.94303 0.33386 0.0
H1190 H 0.71985 0.92001 0.33932 0.0
H1191 H 0.72839 0.92132 0.34977 0.0
H1192 H 0.74685 0.92011 0.38098 0.0
H1193 H 0.74459 0.92989 0.37188 0.0
H1194 H 0.76186 0.93456 0.39269 0.0
H1195 H 0.75943 0.94433 0.38367 0.0
H1196 H 0.74887 0.97776 0.36739 0.0
H1197 H 0.74611 0.98122 0.34391 0.0
H1198 H 0.74296 0.9682 0.34238 0.0
H1199 H 0.74563 0.96469 0.3658 0.0
C1200 C 0.08264 0.73024 0.3463 0.0
C1201 C 0.07663 0.72975 0.34141 0.0
C1202 C 0.08309 0.72035 0.33427 0.0
C1203 C 0.07686 0.72487 0.33544 0.0
C1204 C 0.08915 0.72098 0.33911 0.0
C1205 C 0.08892 0.72588 0.34509 0.0
U1206 U 0.07115 0.74222 0.35887 0.0
O1207 O 0.07064 0.74291 0.37098 0.0
O1208 O 0.07362 0.75271 0.3645 0.0
C1209 C 0.07307 0.74975 0.37111 0.0
C1210 C 0.08219 0.73501 0.35284 0.0
C1211 C 0.07937 0.75109 0.37607 0.0
C1212 C 0.09177 0.74814 0.38031 0.0
C1213 C 0.0859 0.74695 0.37542 0.0
C1214 C 0.08469 0.7577 0.38645 0.0
C1215 C 0.09122 0.75351 0.38591 0.0
C1216 C 0.07881 0.75649 0.38157 0.0
C1217 C 0.05054 0.74412 0.35375 0.0
C1218 C 0.04041 0.74744 0.36192 0.0
C1219 C 0.03835 0.7466 0.34872 0.0
C1220 C 0.04577 0.74474 0.34768 0.0
C1221 C 0.03554 0.74786 0.35586 0.0
C1222 C 0.04786 0.7456 0.36087 0.0
C1223 C 0.05813 0.74148 0.35251 0.0
O1224 O 0.08083 0.74202 0.3515 0.0
O1225 O 0.07817 0.73232 0.35826 0.0
O1226 O 0.06057 0.73652 0.35722 0.0
O1227 O 0.06308 0.74653 0.35082 0.0
H1228 H 0.07173 0.73307 0.34228 0.0
H1229 H 0.07214 0.72461 0.33177 0.0
H1230 H 0.09399 0.71753 0.33842 0.0
H1231 H 0.09358 0.72616 0.34884 0.0
H1232 H 0.09675 0.74489 0.37969 0.0
H1233 H 0.08643 0.74278 0.37116 0.0
H1234 H 0.08405 0.76182 0.39074 0.0
H1235 H 0.0738 0.75972 0.38215 0.0
H1236 H 0.03844 0.74846 0.36748 0.0
H1237 H 0.03475 0.74677 0.34394 0.0
H1238 H 0.04774 0.74359 0.34215 0.0
H1239 H 0.05148 0.74518 0.36563 0.0
C1240 C 0.28537 0.0821 0.34674 0.0
C1241 C 0.28572 0.07618 0.34176 0.0
C1242 C 0.29521 0.08256 0.33465 0.0
C1243 C 0.29057 0.07642 0.33576 0.0
C1244 C 0.29473 0.08856 0.33958 0.0
C1245 C 0.28985 0.08831 0.34559 0.0
U1246 U 0.27352 0.07046 0.35925 0.0
O1247 O 0.27298 0.06967 0.37135 0.0
O1248 O 0.26307 0.07276 0.36506 0.0
C1249 C 0.26611 0.07201 0.37162 0.0
C1250 C 0.28067 0.08159 0.35334 0.0
C1251 C 0.26472 0.07807 0.37684 0.0
C1252 C 0.267 0.09057 0.38114 0.0
C1253 C 0.26817 0.08495 0.37596 0.0
C1254 C 0.25885 0.08249 0.38804 0.0
C1255 C 0.26237 0.08938 0.38728 0.0
C1256 C 0.26002 0.07689 0.38287 0.0
C1257 C 0.27157 0.05 0.3538 0.0
C1258 C 0.26815 0.03984 0.36189 0.0
C1259 C 0.26911 0.03786 0.34869 0.0
C1260 C 0.271 0.04527 0.3477 0.0
C1261 C 0.26777 0.03502 0.3558 0.0
C1262 C 0.27001 0.04728 0.3609 0.0
C1263 C 0.27421 0.05759 0.35262 0.0
O1264 O 0.27363 0.08027 0.35206 0.0
O1265 O 0.28341 0.0775 0.35867 0.0
O1266 O 0.27923 0.05995 0.35732 0.0
O1267 O 0.26912 0.06255 0.3511 0.0
H1268 H 0.28231 0.07133 0.34258 0.0
H1269 H 0.29072 0.07176 0.33201 0.0
H1270 H 0.29827 0.09333 0.33894 0.0
H1271 H 0.28969 0.09291 0.34942 0.0
H1272 H 0.26986 0.09578 0.38042 0.0
H1273 H 0.27184 0.08594 0.37132 0.0
H1274 H 0.25516 0.08142 0.39263 0.0
H1275 H 0.2573 0.0716 0.38361 0.0
H1276 H 0.26707 0.03784 0.36743 0.0
H1277 H 0.26897 0.03429 0.34389 0.0
H1278 H 0.2722 0.04727 0.34219 0.0
H1279 H 0.27039 0.05087 0.36567 0.0
C1280 C 0.66993 0.93356 0.73078 0.0
C1281 C 0.67478 0.93958 0.73025 0.0
C1282 C 0.68197 0.93314 0.72088 0.0
C1283 C 0.68075 0.93937 0.72536 0.0
C1284 C 0.67716 0.92706 0.72154 0.0
C1285 C 0.67118 0.92728 0.72645 0.0
U1286 U 0.65735 0.94495 0.74286 0.0
O1287 O 0.64523 0.94542 0.7436 0.0
O1288 O 0.65177 0.94243 0.75338 0.0
C1289 C 0.64514 0.94297 0.75044 0.0
C1290 C 0.66339 0.93398 0.73558 0.0
C1291 C 0.64019 0.93668 0.7518 0.0
C1292 C 0.63587 0.92433 0.74881 0.0
C1293 C 0.64076 0.9302 0.7476 0.0
C1294 C 0.6299 0.93131 0.75855 0.0
C1295 C 0.63036 0.92483 0.75429 0.0
C1296 C 0.63476 0.93719 0.7573 0.0
C1297 C 0.66243 0.96553 0.74488 0.0
C1298 C 0.65424 0.97572 0.74798 0.0
C1299 C 0.66751 0.97759 0.7478 0.0
C1300 C 0.66853 0.97019 0.74587 0.0
C1301 C 0.66035 0.98047 0.74877 0.0
C1302 C 0.65527 0.96829 0.74607 0.0
C1303 C 0.66368 0.95798 0.74217 0.0
O1304 O 0.66476 0.93531 0.74259 0.0
O1305 O 0.65795 0.938 0.73292 0.0
O1306 O 0.65896 0.95555 0.73721 0.0
O1307 O 0.66541 0.95301 0.74718 0.0
H1308 H 0.67389 0.94449 0.73356 0.0
H1309 H 0.68441 0.9441 0.72508 0.0
H1310 H 0.67788 0.92221 0.71811 0.0
H1311 H 0.66745 0.9226 0.72677 0.0
H1312 H 0.63643 0.91938 0.7455 0.0
H1313 H 0.64495 0.9297 0.74335 0.0
H1314 H 0.62567 0.93191 0.76274 0.0
H1315 H 0.63425 0.94216 0.76059 0.0
H1316 H 0.64866 0.97775 0.74876 0.0
H1317 H 0.67233 0.98111 0.74826 0.0
H1318 H 0.67409 0.96816 0.74495 0.0
H1319 H 0.65048 0.96476 0.74537 0.0
C1320 C 0.08335 0.66771 0.73038 0.0
C1321 C 0.07726 0.67232 0.72904 0.0
C1322 C 0.08461 0.67968 0.72049 0.0
C1323 C 0.07789 0.67826 0.72414 0.0
C1324 C 0.09072 0.67509 0.72194 0.0
C1325 C 0.09009 0.66914 0.72685 0.0
U1326 U 0.07126 0.65574 0.74244 0.0
O1327 O 0.07028 0.64368 0.7433 0.0
O1328 O 0.07342 0.65018 0.75305 0.0
C1329 C 0.0726 0.64355 0.75018 0.0
C1330 C 0.08258 0.66126 0.73525 0.0
C1331 C 0.07861 0.63831 0.75172 0.0
C1332 C 0.09099 0.63365 0.74938 0.0
C1333 C 0.08543 0.63886 0.74806 0.0
C1334 C 0.083 0.62738 0.75811 0.0
C1335 C 0.08982 0.6278 0.75437 0.0
C1336 C 0.07745 0.63258 0.75678 0.0
C1337 C 0.05085 0.66151 0.74417 0.0
C1338 C 0.04056 0.65361 0.74771 0.0
C1339 C 0.03878 0.66683 0.74663 0.0
C1340 C 0.04621 0.66768 0.7447 0.0
C1341 C 0.03584 0.65978 0.74805 0.0
C1342 C 0.04802 0.65447 0.74581 0.0
C1343 C 0.05847 0.66253 0.74152 0.0
O1344 O 0.08119 0.66277 0.74222 0.0
O1345 O 0.07838 0.65596 0.7326 0.0
O1346 O 0.06079 0.65769 0.73663 0.0
O1347 O 0.06344 0.66412 0.74657 0.0
H1348 H 0.072 0.67125 0.7317 0.0
H1349 H 0.07304 0.68161 0.72308 0.0
H1350 H 0.096 0.67608 0.71929 0.0
H1351 H 0.09484 0.66563 0.72783 0.0
H1352 H 0.09614 0.63411 0.74635 0.0
H1353 H 0.08641 0.64327 0.74412 0.0
H1354 H 0.08195 0.62302 0.76208 0.0
H1355 H 0.07222 0.6321 0.75967 0.0
H1356 H 0.03848 0.64812 0.74886 0.0
H1357 H 0.03529 0.67169 0.74674 0.0
H1358 H 0.0483 0.67315 0.74343 0.0
H1359 H 0.05154 0.64964 0.74547 0.0
C1360 C 0.34732 0.08206 0.73043 0.0
C1361 C 0.34241 0.07609 0.7299 0.0
C1362 C 0.33539 0.08254 0.72039 0.0
C1363 C 0.33649 0.07633 0.72494 0.0
C1364 C 0.34026 0.08858 0.72105 0.0
C1365 C 0.34619 0.08833 0.72603 0.0
U1366 U 0.35969 0.07048 0.74252 0.0
O1367 O 0.3718 0.06979 0.74328 0.0
O1368 O 0.36529 0.07284 0.75306 0.0
C1369 C 0.37192 0.07215 0.75015 0.0
C1370 C 0.35384 0.08157 0.73525 0.0
C1371 C 0.37707 0.07825 0.75161 0.0
C1372 C 0.38138 0.09076 0.74931 0.0
C1373 C 0.37625 0.0851 0.74807 0.0
C1374 C 0.38812 0.08279 0.75771 0.0
C1375 C 0.38742 0.08965 0.7541 0.0
C1376 C 0.38299 0.07715 0.75647 0.0
C1377 C 0.35438 0.04998 0.74441 0.0
C1378 C 0.36254 0.03991 0.74794 0.0
C1379 C 0.34934 0.0378 0.74688 0.0
C1380 C 0.34832 0.0452 0.74496 0.0
C1381 C 0.35648 0.03503 0.74829 0.0
C1382 C 0.3615 0.04733 0.74604 0.0
C1383 C 0.35317 0.05755 0.74173 0.0
O1384 O 0.35243 0.08023 0.74226 0.0
O1385 O 0.35924 0.07751 0.73261 0.0
O1386 O 0.35793 0.05995 0.73679 0.0
O1387 O 0.35151 0.0625 0.74677 0.0
H1388 H 0.34322 0.07119 0.73325 0.0
H1389 H 0.33279 0.07163 0.72466 0.0
H1390 H 0.33963 0.0934 0.71757 0.0
H1391 H 0.34997 0.09297 0.72633 0.0
H1392 H 0.38071 0.09593 0.74639 0.0
H1393 H 0.3717 0.08603 0.74429 0.0
H1394 H 0.39263 0.08179 0.76153 0.0
H1395 H 0.38369 0.0719 0.75926 0.0
H1396 H 0.36809 0.03797 0.74907 0.0
H1397 H 0.34457 0.03419 0.747 0.0
H1398 H 0.34279 0.04714 0.7437 0.0
H1399 H 0.36625 0.05096 0.74568 0.0
C1400 C 0.93374 0.34635 0.73108 0.0
C1401 C 0.93964 0.34135 0.73066 0.0
C1402 C 0.93311 0.33428 0.72126 0.0
C1403 C 0.93932 0.33536 0.72581 0.0
C1404 C 0.92714 0.33925 0.72181 0.0
C1405 C 0.92746 0.34524 0.72668 0.0
U1406 U 0.94553 0.35876 0.74292 0.0
O1407 O 0.94639 0.37085 0.74345 0.0
O1408 O 0.94327 0.36457 0.75335 0.0
C1409 C 0.94405 0.37113 0.75032 0.0
C1410 C 0.93433 0.35294 0.73579 0.0
C1411 C 0.93802 0.37638 0.7517 0.0
C1412 C 0.92554 0.3808 0.74938 0.0
C1413 C 0.93114 0.37558 0.74821 0.0
C1414 C 0.93364 0.38757 0.75763 0.0
C1415 C 0.92675 0.38689 0.75406 0.0
C1416 C 0.93921 0.38236 0.75645 0.0
C1417 C 0.96599 0.35322 0.74486 0.0
C1418 C 0.97624 0.36128 0.74813 0.0
C1419 C 0.9781 0.34804 0.74743 0.0
C1420 C 0.97067 0.3471 0.74556 0.0
C1421 C 0.98101 0.35515 0.74863 0.0
C1422 C 0.96878 0.36031 0.74628 0.0
C1423 C 0.95838 0.35207 0.74222 0.0
O1424 O 0.93566 0.35164 0.74281 0.0
O1425 O 0.93846 0.35824 0.73304 0.0
O1426 O 0.95604 0.35676 0.7372 0.0
O1427 O 0.95341 0.35057 0.7473 0.0
H1428 H 0.94455 0.34214 0.73401 0.0
H1429 H 0.94397 0.33159 0.72561 0.0
H1430 H 0.92231 0.33863 0.71833 0.0
H1431 H 0.92288 0.34909 0.72691 0.0
H1432 H 0.92034 0.38015 0.74648 0.0
H1433 H 0.93013 0.37099 0.74451 0.0
H1434 H 0.93472 0.39211 0.76136 0.0
H1435 H 0.94449 0.38303 0.75922 0.0
H1436 H 0.97829 0.36681 0.7491 0.0
H1437 H 0.98163 0.34322 0.74767 0.0
H1438 H 0.96861 0.34158 0.74446 0.0
H1439 H 0.96523 0.36511 0.7458 0.0
C1440 C 0.66914 0.08274 0.28552 0.0
C1441 C 0.67377 0.07671 0.28702 0.0
C1442 C 0.68111 0.08426 0.2954 0.0
C1443 C 0.6797 0.07746 0.29191 0.0
C1444 C 0.67651 0.09032 0.29378 0.0
C1445 C 0.67057 0.08956 0.28888 0.0
U1446 U 0.65717 0.07045 0.27363 0.0
O1447 O 0.64509 0.06943 0.27284 0.0
O1448 O 0.65155 0.0725 0.26304 0.0
C1449 C 0.64493 0.0717 0.26594 0.0
C1450 C 0.66268 0.08185 0.28068 0.0
C1451 C 0.63967 0.07769 0.2644 0.0
C1452 C 0.6351 0.09011 0.26661 0.0
C1453 C 0.64032 0.08456 0.26793 0.0
C1454 C 0.62863 0.08202 0.25813 0.0
C1455 C 0.62915 0.08888 0.26173 0.0
C1456 C 0.63384 0.07647 0.25946 0.0
C1457 C 0.66297 0.05008 0.27205 0.0
C1458 C 0.65506 0.03979 0.2686 0.0
C1459 C 0.66831 0.03803 0.26962 0.0
C1460 C 0.66915 0.04546 0.27152 0.0
C1461 C 0.66124 0.03508 0.26824 0.0
C1462 C 0.65592 0.04725 0.27046 0.0
C1463 C 0.664 0.05771 0.27464 0.0
O1464 O 0.66419 0.08039 0.27372 0.0
O1465 O 0.6574 0.07766 0.28339 0.0
O1466 O 0.65918 0.06006 0.27954 0.0
O1467 O 0.66557 0.06264 0.26954 0.0
H1468 H 0.67271 0.07139 0.28449 0.0
H1469 H 0.68306 0.07265 0.2931 0.0
H1470 H 0.67749 0.09565 0.2963 0.0
H1471 H 0.66705 0.09427 0.28778 0.0
H1472 H 0.63563 0.0953 0.26953 0.0
H1473 H 0.6448 0.08558 0.27177 0.0
H1474 H 0.62419 0.08092 0.25425 0.0
H1475 H 0.63328 0.07121 0.25667 0.0
H1476 H 0.64956 0.0377 0.26748 0.0
H1477 H 0.67317 0.03454 0.2695 0.0
H1478 H 0.67464 0.04755 0.27275 0.0
H1479 H 0.65108 0.05075 0.27081 0.0
C1480 C 0.9337 0.66816 0.28564 0.0
C1481 C 0.9398 0.67273 0.28705 0.0
C1482 C 0.93243 0.68012 0.29553 0.0
C1483 C 0.93917 0.67865 0.29195 0.0
C1484 C 0.92629 0.67557 0.29401 0.0
C1485 C 0.92693 0.66963 0.2891 0.0
U1486 U 0.94576 0.65608 0.27366 0.0
O1487 O 0.94661 0.644 0.27284 0.0
O1488 O 0.94359 0.65052 0.26307 0.0
C1489 C 0.9443 0.64389 0.26596 0.0
C1490 C 0.93446 0.66171 0.28078 0.0
C1491 C 0.93823 0.63873 0.26443 0.0
C1492 C 0.92567 0.63443 0.26658 0.0
C1493 C 0.93132 0.63956 0.26787 0.0
C1494 C 0.93375 0.62768 0.2583 0.0
C1495 C 0.92684 0.62839 0.26182 0.0
C1496 C 0.93939 0.63281 0.25961 0.0
C1497 C 0.96624 0.66158 0.27199 0.0
C1498 C 0.97636 0.65353 0.26838 0.0
C1499 C 0.97842 0.66669 0.2696 0.0
C1500 C 0.971 0.66766 0.27154 0.0
C1501 C 0.98122 0.6596 0.2681 0.0
C1502 C 0.96892 0.65451 0.27029 0.0
C1503 C 0.95863 0.66272 0.27462 0.0
O1504 O 0.93591 0.66321 0.27382 0.0
O1505 O 0.93859 0.65638 0.28346 0.0
O1506 O 0.95623 0.65793 0.27952 0.0
O1507 O 0.9537 0.66437 0.26955 0.0
H1508 H 0.94509 0.67163 0.28444 0.0
H1509 H 0.94403 0.68197 0.29306 0.0
H1510 H 0.921 0.67659 0.29661 0.0
H1511 H 0.92216 0.66615 0.28807 0.0
H1512 H 0.92045 0.63511 0.26943 0.0
H1513 H 0.93034 0.64411 0.27163 0.0
H1514 H 0.9348 0.62318 0.25452 0.0
H1515 H 0.94468 0.63211 0.25689 0.0
H1516 H 0.97833 0.64801 0.26718 0.0
H1517 H 0.98202 0.67148 0.26954 0.0
H1518 H 0.96903 0.67316 0.27285 0.0
H1519 H 0.9653 0.64975 0.27057 0.0
C1520 C 0.34717 0.93355 0.28537 0.0
C1521 C 0.34234 0.93958 0.28596 0.0
C1522 C 0.33525 0.93313 0.29542 0.0
C1523 C 0.33643 0.93937 0.29092 0.0
C1524 C 0.34003 0.92704 0.29469 0.0
C1525 C 0.34595 0.92726 0.28971 0.0
U1526 U 0.3596 0.94495 0.27313 0.0
O1527 O 0.37171 0.94546 0.27226 0.0
O1528 O 0.36507 0.94243 0.26256 0.0
C1529 C 0.37173 0.94299 0.26543 0.0
C1530 C 0.35365 0.93398 0.2805 0.0
C1531 C 0.37667 0.9367 0.26404 0.0
C1532 C 0.38098 0.92434 0.26701 0.0
C1533 C 0.3761 0.93021 0.26824 0.0
C1534 C 0.38696 0.93136 0.25729 0.0
C1535 C 0.38649 0.92487 0.26154 0.0
C1536 C 0.3821 0.93723 0.25855 0.0
C1537 C 0.35447 0.96553 0.27114 0.0
C1538 C 0.3626 0.97577 0.26803 0.0
C1539 C 0.34932 0.97755 0.26821 0.0
C1540 C 0.34834 0.97015 0.27014 0.0
C1541 C 0.35646 0.98049 0.26725 0.0
C1542 C 0.36161 0.96834 0.26994 0.0
C1543 C 0.35326 0.95797 0.27386 0.0
O1544 O 0.35221 0.9353 0.2735 0.0
O1545 O 0.35912 0.938 0.28308 0.0
O1546 O 0.35804 0.95555 0.27878 0.0
O1547 O 0.35149 0.953 0.26888 0.0
H1548 H 0.34321 0.9445 0.28265 0.0
H1549 H 0.3328 0.94411 0.29126 0.0
H1550 H 0.33934 0.92219 0.29812 0.0
H1551 H 0.34966 0.92257 0.28934 0.0
H1552 H 0.38041 0.91938 0.27031 0.0
H1553 H 0.3719 0.9297 0.27248 0.0
H1554 H 0.3912 0.93198 0.2531 0.0
H1555 H 0.38262 0.94221 0.25527 0.0
H1556 H 0.36817 0.97785 0.26725 0.0
H1557 H 0.34448 0.98104 0.26775 0.0
H1558 H 0.34279 0.96808 0.27106 0.0
H1559 H 0.36642 0.96484 0.27064 0.0
C1560 C 0.08361 0.34636 0.28576 0.0
C1561 C 0.07755 0.34156 0.28638 0.0
C1562 C 0.08405 0.33442 0.29577 0.0
C1563 C 0.07777 0.33564 0.29132 0.0
C1564 C 0.09016 0.33919 0.29501 0.0
C1565 C 0.08993 0.34512 0.29005 0.0
U1566 U 0.07217 0.35881 0.27359 0.0
O1567 O 0.07165 0.3709 0.27276 0.0
O1568 O 0.07466 0.36432 0.26303 0.0
C1569 C 0.0741 0.37096 0.26592 0.0
C1570 C 0.08317 0.35286 0.28091 0.0
C1571 C 0.08036 0.37593 0.26451 0.0
C1572 C 0.09267 0.38042 0.2675 0.0
C1573 C 0.08683 0.37551 0.26877 0.0
C1574 C 0.08568 0.38612 0.25759 0.0
C1575 C 0.09215 0.38581 0.26191 0.0
C1576 C 0.07984 0.38123 0.25889 0.0
C1577 C 0.05148 0.35359 0.27161 0.0
C1578 C 0.03977 0.36023 0.27183 0.0
C1579 C 0.04058 0.34838 0.26571 0.0
C1580 C 0.04808 0.34795 0.26753 0.0
C1581 C 0.03628 0.35443 0.268 0.0
C1582 C 0.04729 0.35982 0.27361 0.0
C1583 C 0.05912 0.35249 0.27431 0.0
O1584 O 0.08184 0.35144 0.27391 0.0
O1585 O 0.07915 0.3583 0.28353 0.0
O1586 O 0.06157 0.3572 0.27927 0.0
O1587 O 0.06411 0.35071 0.26934 0.0
H1588 H 0.07261 0.34246 0.28311 0.0
H1589 H 0.07301 0.33202 0.29168 0.0
H1590 H 0.09504 0.33846 0.29841 0.0
H1591 H 0.09464 0.34881 0.28967 0.0
H1592 H 0.09761 0.37997 0.27086 0.0
H1593 H 0.08734 0.37141 0.27311 0.0
H1594 H 0.08507 0.39025 0.2533 0.0
H1595 H 0.07488 0.38163 0.25555 0.0
H1596 H 0.03663 0.36495 0.27374 0.0
H1597 H 0.03811 0.34387 0.26264 0.0
H1598 H 0.05118 0.34308 0.26592 0.0
H1599 H 0.04974 0.36427 0.27678 0.0
C1600 C 0.73145 0.67003 0.93235 0.0
C1601 C 0.73116 0.67509 0.93821 0.0
C1602 C 0.72167 0.68215 0.93178 0.0
C1603 C 0.72634 0.6811 0.93792 0.0
C1604 C 0.72212 0.67716 0.92584 0.0
C1605 C 0.72696 0.67113 0.92613 0.0
U1606 U 0.74283 0.65728 0.94423 0.0
O1607 O 0.74285 0.64516 0.9451 0.0
O1608 O 0.75305 0.65105 0.94212 0.0
C1609 C 0.74972 0.64462 0.94281 0.0
C1610 C 0.73599 0.66333 0.93297 0.0
C1611 C 0.75095 0.63929 0.9368 0.0
C1612 C 0.75231 0.63635 0.92376 0.0
C1613 C 0.75126 0.64155 0.92938 0.0
C1614 C 0.75266 0.62657 0.93291 0.0
C1615 C 0.75299 0.6288 0.92546 0.0
C1616 C 0.75166 0.63178 0.93851 0.0
C1617 C 0.7447 0.66266 0.96469 0.0
C1618 C 0.7481 0.65435 0.97467 0.0
C1619 C 0.74663 0.66743 0.97707 0.0
C1620 C 0.74493 0.66861 0.96963 0.0
C1621 C 0.74812 0.66027 0.97971 0.0
C1622 C 0.74642 0.65554 0.96721 0.0
C1623 C 0.74221 0.66398 0.95707 0.0
O1624 O 0.74304 0.66444 0.93438 0.0
O1625 O 0.73305 0.65811 0.93706 0.0
O1626 O 0.73704 0.65949 0.95465 0.0
O1627 O 0.74743 0.66529 0.95218 0.0
H1628 H 0.73457 0.67429 0.94307 0.0
H1629 H 0.72622 0.6849 0.94254 0.0
H1630 H 0.71855 0.67775 0.92107 0.0
H1631 H 0.72707 0.66724 0.92159 0.0
H1632 H 0.75246 0.63822 0.91807 0.0
H1633 H 0.75064 0.64732 0.92793 0.0
H1634 H 0.75324 0.62081 0.9344 0.0
H1635 H 0.75143 0.62993 0.94421 0.0
H1636 H 0.74931 0.64879 0.97651 0.0
H1637 H 0.74649 0.6721 0.9808 0.0
H1638 H 0.74359 0.67414 0.96778 0.0
H1639 H 0.7463 0.65089 0.96345 0.0
C1640 C 0.73065 0.34669 0.08267 0.0
C1641 C 0.73003 0.34195 0.07657 0.0
C1642 C 0.72056 0.3348 0.08294 0.0
C1643 C 0.72505 0.33605 0.07671 0.0
C1644 C 0.72131 0.33949 0.0891 0.0
C1645 C 0.72631 0.3454 0.08895 0.0
U1646 U 0.74303 0.35908 0.07141 0.0
O1647 O 0.74394 0.37117 0.0709 0.0
O1648 O 0.7536 0.36453 0.07403 0.0
C1649 C 0.75075 0.37118 0.07343 0.0
C1650 C 0.73553 0.35316 0.08232 0.0
C1651 C 0.7521 0.37613 0.07972 0.0
C1652 C 0.74902 0.38052 0.09202 0.0
C1653 C 0.74781 0.37563 0.08616 0.0
C1654 C 0.75892 0.38634 0.08512 0.0
C1655 C 0.75457 0.38595 0.09156 0.0
C1656 C 0.75769 0.38147 0.07925 0.0
C1657 C 0.74516 0.35377 0.05076 0.0
C1658 C 0.74502 0.3603 0.03899 0.0
C1659 C 0.75102 0.34838 0.03993 0.0
C1660 C 0.7492 0.34806 0.04743 0.0
C1661 C 0.74878 0.35442 0.03557 0.0
C1662 C 0.74323 0.35998 0.04651 0.0
C1663 C 0.74241 0.35275 0.05838 0.0
O1664 O 0.74255 0.35171 0.08107 0.0
O1665 O 0.733 0.35863 0.07827 0.0
O1666 O 0.73745 0.35751 0.06076 0.0
O1667 O 0.74733 0.35095 0.06342 0.0
H1668 H 0.73334 0.34288 0.07166 0.0
H1669 H 0.7247 0.33249 0.07192 0.0
H1670 H 0.71788 0.33874 0.09394 0.0
H1671 H 0.72668 0.34904 0.09369 0.0
H1672 H 0.74564 0.38002 0.09694 0.0
H1673 H 0.7435 0.3715 0.08663 0.0
H1674 H 0.76318 0.39051 0.08455 0.0
H1675 H 0.76104 0.38193 0.07431 0.0
H1676 H 0.74315 0.365 0.0358 0.0
H1677 H 0.75404 0.34382 0.03752 0.0
H1678 H 0.75075 0.3432 0.05058 0.0
H1679 H 0.74011 0.36448 0.0489 0.0
C1680 C 0.66991 0.72968 0.08264 0.0
C1681 C 0.67433 0.72816 0.07645 0.0
C1682 C 0.68195 0.71986 0.08382 0.0
C1683 C 0.6803 0.72329 0.07704 0.0
C1684 C 0.67755 0.72149 0.09002 0.0
C1685 C 0.67157 0.72636 0.08943 0.0
U1686 U 0.65764 0.74171 0.07077 0.0
O1687 O 0.64553 0.74255 0.07012 0.0
O1688 O 0.65212 0.75229 0.0731 0.0
C1689 C 0.64547 0.7494 0.07252 0.0
C1690 C 0.66344 0.73453 0.08194 0.0
C1691 C 0.64049 0.75082 0.07878 0.0
C1692 C 0.63626 0.74803 0.09121 0.0
C1693 C 0.64117 0.74679 0.08537 0.0
C1694 C 0.63003 0.75742 0.08397 0.0
C1695 C 0.63061 0.75334 0.09057 0.0
C1696 C 0.63493 0.75616 0.07812 0.0
C1697 C 0.66293 0.74352 0.05024 0.0
C1698 C 0.65482 0.74712 0.04015 0.0
C1699 C 0.66801 0.74603 0.03808 0.0
C1700 C 0.66901 0.74406 0.04548 0.0
C1701 C 0.66089 0.74748 0.0353 0.0
C1702 C 0.65583 0.74517 0.04757 0.0
C1703 C 0.66412 0.74084 0.05782 0.0
O1704 O 0.66493 0.74149 0.08051 0.0
O1705 O 0.65805 0.73186 0.07786 0.0
O1706 O 0.65932 0.73595 0.06024 0.0
O1707 O 0.66583 0.74588 0.06276 0.0
H1708 H 0.6731 0.73065 0.07115 0.0
H1709 H 0.68351 0.72209 0.07213 0.0
H1710 H 0.67872 0.71902 0.09535 0.0
H1711 H 0.66821 0.72749 0.09425 0.0
H1712 H 0.63691 0.74486 0.09625 0.0
H1713 H 0.64547 0.74267 0.08598 0.0
H1714 H 0.6257 0.76149 0.08326 0.0
H1715 H 0.63433 0.7593 0.07306 0.0
H1716 H 0.64927 0.74828 0.03819 0.0
H1717 H 0.6728 0.74616 0.03449 0.0
H1718 H 0.67453 0.74279 0.04744 0.0
H1719 H 0.65106 0.74482 0.05119 0.0
C1720 C 0.2861 0.66823 0.08171 0.0
C1721 C 0.2867 0.67299 0.07563 0.0
C1722 C 0.29607 0.68021 0.08206 0.0
C1723 C 0.29163 0.67893 0.0758 0.0
C1724 C 0.29533 0.67549 0.08821 0.0
C1725 C 0.29039 0.66954 0.08802 0.0
U1726 U 0.27385 0.65575 0.0704 0.0
O1727 O 0.27306 0.64366 0.06989 0.0
O1728 O 0.26333 0.6502 0.073 0.0
C1729 C 0.26624 0.64358 0.07241 0.0
C1730 C 0.28127 0.66172 0.08133 0.0
C1731 C 0.26492 0.63861 0.0787 0.0
C1732 C 0.26801 0.63427 0.09102 0.0
C1733 C 0.26918 0.63916 0.08515 0.0
C1734 C 0.25821 0.62832 0.08409 0.0
C1735 C 0.26252 0.62877 0.09055 0.0
C1736 C 0.25941 0.6332 0.07821 0.0
C1737 C 0.27168 0.6609 0.04984 0.0
C1738 C 0.26852 0.65278 0.03962 0.0
C1739 C 0.26867 0.66604 0.03782 0.0
C1740 C 0.27065 0.66702 0.04521 0.0
C1741 C 0.2677 0.65891 0.0349 0.0
C1742 C 0.27048 0.65377 0.04704 0.0
C1743 C 0.27446 0.66212 0.05738 0.0
O1744 O 0.27424 0.66312 0.08006 0.0
O1745 O 0.28386 0.65629 0.07728 0.0
O1746 O 0.27943 0.65738 0.05976 0.0
O1747 O 0.26949 0.66384 0.0624 0.0
H1748 H 0.28343 0.67205 0.0707 0.0
H1749 H 0.29198 0.68251 0.07102 0.0
H1750 H 0.29873 0.67626 0.09308 0.0
H1751 H 0.29002 0.66589 0.09275 0.0
H1752 H 0.27136 0.63482 0.09595 0.0
H1753 H 0.27344 0.64335 0.08563 0.0
H1754 H 0.254 0.6241 0.08351 0.0
H1755 H 0.25608 0.6327 0.07326 0.0
H1756 H 0.26774 0.64722 0.03756 0.0
H1757 H 0.26818 0.67087 0.03432 0.0
H1758 H 0.27158 0.67256 0.04727 0.0
H1759 H 0.27121 0.64897 0.05055 0.0
C1760 C 0.34744 0.28589 0.08246 0.0
C1761 C 0.3429 0.28731 0.07634 0.0
C1762 C 0.3355 0.29583 0.08366 0.0
C1763 C 0.33698 0.29223 0.07693 0.0
C1764 C 0.34003 0.29431 0.08981 0.0
C1765 C 0.34595 0.28938 0.0892 0.0
U1766 U 0.3596 0.27372 0.07061 0.0
O1767 O 0.3717 0.27278 0.06997 0.0
O1768 O 0.36503 0.2631 0.07299 0.0
C1769 C 0.3717 0.26594 0.0724 0.0
C1770 C 0.35387 0.28098 0.08176 0.0
C1771 C 0.37667 0.2645 0.07866 0.0
C1772 C 0.38091 0.26726 0.0911 0.0
C1773 C 0.37601 0.26853 0.08525 0.0
C1774 C 0.38707 0.25782 0.08389 0.0
C1775 C 0.38652 0.26191 0.09047 0.0
C1776 C 0.38219 0.25911 0.07803 0.0
C1777 C 0.35428 0.2719 0.05008 0.0
C1778 C 0.36235 0.2686 0.03985 0.0
C1779 C 0.34908 0.2691 0.03804 0.0
C1780 C 0.34814 0.27106 0.04544 0.0
C1781 C 0.3562 0.26795 0.03512 0.0
C1782 C 0.3614 0.27054 0.04728 0.0
C1783 C 0.35313 0.2746 0.05765 0.0
O1784 O 0.35232 0.27403 0.08035 0.0
O1785 O 0.35926 0.2836 0.07766 0.0
O1786 O 0.35796 0.27947 0.06006 0.0
O1787 O 0.35137 0.2696 0.06262 0.0
H1788 H 0.34401 0.28468 0.07107 0.0
H1789 H 0.33367 0.29335 0.07207 0.0
H1790 H 0.33899 0.29692 0.09509 0.0
H1791 H 0.34941 0.28833 0.09398 0.0
H1792 H 0.38028 0.27044 0.09613 0.0
H1793 H 0.37174 0.27269 0.08584 0.0
H1794 H 0.39138 0.25373 0.08319 0.0
H1795 H 0.38278 0.25596 0.07298 0.0
H1796 H 0.3679 0.26768 0.03779 0.0
H1797 H 0.34423 0.26875 0.03454 0.0
H1798 H 0.34261 0.27211 0.0475 0.0
H1799 H 0.36622 0.27112 0.05079 0.0
C1800 C 0.28544 0.34654 0.93327 0.0
C1801 C 0.28582 0.34155 0.93919 0.0
C1802 C 0.29536 0.33453 0.93279 0.0
C1803 C 0.29072 0.33559 0.93894 0.0
C1804 C 0.29483 0.33948 0.9268 0.0
C1805 C 0.28991 0.34545 0.92705 0.0
U1806 U 0.2735 0.35888 0.94497 0.0
O1807 O 0.27288 0.37097 0.94584 0.0
O1808 O 0.26301 0.36463 0.9427 0.0
C1809 C 0.26601 0.3712 0.94349 0.0
C1810 C 0.28069 0.3531 0.9338 0.0
C1811 C 0.26459 0.37646 0.93747 0.0
C1812 C 0.26704 0.38106 0.9251 0.0
C1813 C 0.26824 0.37583 0.93067 0.0
C1814 C 0.25842 0.38751 0.93306 0.0
C1815 C 0.26215 0.38701 0.92625 0.0
C1816 C 0.25964 0.38229 0.93862 0.0
C1817 C 0.27162 0.35327 0.96541 0.0
C1818 C 0.26802 0.36128 0.97557 0.0
C1819 C 0.26939 0.34812 0.97759 0.0
C1820 C 0.27126 0.34718 0.97016 0.0
C1821 C 0.26786 0.35519 0.98042 0.0
C1822 C 0.26987 0.36032 0.96812 0.0
C1823 C 0.27425 0.35217 0.95781 0.0
O1824 O 0.27366 0.35177 0.93511 0.0
O1825 O 0.2834 0.35843 0.93792 0.0
O1826 O 0.27923 0.35691 0.95547 0.0
O1827 O 0.26917 0.35065 0.95284 0.0
H1828 H 0.28242 0.34233 0.94405 0.0
H1829 H 0.2909 0.33183 0.94359 0.0
H1830 H 0.29837 0.33887 0.92201 0.0
H1831 H 0.28972 0.34929 0.92246 0.0
H1832 H 0.27005 0.38054 0.91995 0.0
H1833 H 0.2721 0.37135 0.9297 0.0
H1834 H 0.25453 0.39194 0.93409 0.0
H1835 H 0.25675 0.38283 0.94383 0.0
H1836 H 0.26679 0.36678 0.97755 0.0
H1837 H 0.26943 0.34333 0.98118 0.0
H1838 H 0.27262 0.3417 0.96817 0.0
H1839 H 0.27008 0.3651 0.96451 0.0
C1840 C 0.66916 0.2853 0.93285 0.0
C1841 C 0.67375 0.2868 0.93892 0.0
C1842 C 0.68109 0.29524 0.93142 0.0
C1843 C 0.67966 0.29172 0.93821 0.0
C1844 C 0.67652 0.29362 0.92533 0.0
C1845 C 0.6706 0.28869 0.92605 0.0
U1846 U 0.65716 0.27332 0.94504 0.0
O1847 O 0.64507 0.27242 0.94593 0.0
O1848 O 0.65164 0.26268 0.94295 0.0
C1849 C 0.64499 0.26553 0.94366 0.0
C1850 C 0.66273 0.28041 0.93369 0.0
C1851 C 0.63982 0.26394 0.93761 0.0
C1852 C 0.63536 0.26613 0.92513 0.0
C1853 C 0.64051 0.26748 0.93075 0.0
C1854 C 0.62886 0.2576 0.93317 0.0
C1855 C 0.62943 0.26122 0.9263 0.0
C1856 C 0.634 0.25897 0.93877 0.0
C1857 C 0.66271 0.27177 0.96549 0.0
C1858 C 0.65467 0.26804 0.97559 0.0
C1859 C 0.66782 0.26951 0.97768 0.0
C1860 C 0.66879 0.27144 0.97027 0.0
C1861 C 0.66074 0.26789 0.98046 0.0
C1862 C 0.65565 0.26994 0.96815 0.0
C1863 C 0.66384 0.27438 0.95788 0.0
O1864 O 0.66428 0.27347 0.93518 0.0
O1865 O 0.65739 0.28308 0.93782 0.0
O1866 O 0.659 0.27923 0.95546 0.0
O1867 O 0.6655 0.2693 0.95297 0.0
H1868 H 0.67268 0.28425 0.94423 0.0
H1869 H 0.683 0.29291 0.94304 0.0
H1870 H 0.67752 0.29617 0.92 0.0
H1871 H 0.66711 0.28759 0.92131 0.0
H1872 H 0.63593 0.26906 0.91995 0.0
H1873 H 0.64498 0.27135 0.92977 0.0
H1874 H 0.62444 0.2537 0.93422 0.0
H1875 H 0.63341 0.25617 0.94403 0.0
H1876 H 0.64915 0.26674 0.97754 0.0
H1877 H 0.6726 0.26955 0.98129 0.0
H1878 H 0.67428 0.27285 0.96831 0.0
H1879 H 0.65089 0.27012 0.96452 0.0
C1880 C 0.34668 0.73048 0.93324 0.0
C1881 C 0.34164 0.73028 0.93914 0.0
C1882 C 0.33442 0.72084 0.93281 0.0
C1883 C 0.33556 0.72552 0.93892 0.0
C1884 C 0.3394 0.7212 0.92684 0.0
C1885 C 0.34549 0.72598 0.92706 0.0
U1886 U 0.35958 0.74203 0.94482 0.0
O1887 O 0.37174 0.74212 0.9455 0.0
O1888 O 0.36575 0.75223 0.94248 0.0
C1889 C 0.37221 0.74895 0.94309 0.0
C1890 C 0.3534 0.73501 0.93375 0.0
C1891 C 0.37743 0.75012 0.93696 0.0
C1892 C 0.3801 0.75147 0.92386 0.0
C1893 C 0.37501 0.75043 0.92959 0.0
C1894 C 0.39009 0.75179 0.93279 0.0
C1895 C 0.3877 0.75213 0.9254 0.0
C1896 C 0.38499 0.75081 0.93851 0.0
C1897 C 0.3543 0.7443 0.96531 0.0
C1898 C 0.36253 0.74736 0.97548 0.0
C1899 C 0.34926 0.74729 0.97737 0.0
C1900 C 0.34821 0.74534 0.96998 0.0
C1901 C 0.35643 0.74822 0.98025 0.0
C1902 C 0.36147 0.74544 0.96806 0.0
C1903 C 0.35301 0.74164 0.95775 0.0
O1904 O 0.35232 0.74207 0.93505 0.0
O1905 O 0.35866 0.73213 0.93785 0.0
O1906 O 0.35752 0.73646 0.9554 0.0
O1907 O 0.3516 0.74671 0.95275 0.0
H1908 H 0.3425 0.7337 0.94397 0.0
H1909 H 0.33178 0.72547 0.94356 0.0
H1910 H 0.33874 0.71762 0.9221 0.0
H1911 H 0.34936 0.72603 0.92249 0.0
H1912 H 0.37811 0.75163 0.91822 0.0
H1913 H 0.36919 0.74983 0.92827 0.0
H1914 H 0.39589 0.75236 0.93415 0.0
H1915 H 0.38697 0.75057 0.94416 0.0
H1916 H 0.36812 0.74811 0.97751 0.0
H1917 H 0.34445 0.7478 0.9809 0.0
H1918 H 0.34264 0.74447 0.96796 0.0
H1919 H 0.36624 0.7447 0.96452 0.0
C1920 C 0.58324 0.78497 0.8464 0.0
C1921 C 0.57721 0.78552 0.84155 0.0
C1922 C 0.58359 0.79509 0.83456 0.0
C1923 C 0.57739 0.79052 0.83567 0.0
C1924 C 0.58968 0.7944 0.83935 0.0
C1925 C 0.5895 0.78939 0.84524 0.0
U1926 U 0.57168 0.77283 0.85869 0.0
O1927 O 0.57402 0.76227 0.86425 0.0
O1928 O 0.57094 0.772 0.87078 0.0
C1929 C 0.57331 0.76514 0.87089 0.0
C1930 C 0.58279 0.78011 0.85289 0.0
C1931 C 0.57941 0.76367 0.87604 0.0
C1932 C 0.59186 0.76608 0.88048 0.0
C1933 C 0.58622 0.76732 0.87533 0.0
C1934 C 0.58398 0.75742 0.88699 0.0
C1935 C 0.59078 0.76116 0.88641 0.0
C1936 C 0.57835 0.75867 0.88185 0.0
C1937 C 0.55114 0.77105 0.85332 0.0
C1938 C 0.54101 0.7675 0.8614 0.0
C1939 C 0.53893 0.7688 0.84824 0.0
C1940 C 0.54636 0.77066 0.84725 0.0
C1941 C 0.53613 0.76732 0.85534 0.0
C1942 C 0.54847 0.76934 0.8604 0.0
C1943 C 0.55875 0.77369 0.85216 0.0
O1944 O 0.57873 0.78271 0.85832 0.0
O1945 O 0.58146 0.77312 0.85145 0.0
O1946 O 0.56369 0.76864 0.85049 0.0
O1947 O 0.56115 0.77859 0.85694 0.0
H1948 H 0.57232 0.78216 0.84238 0.0
H1949 H 0.57265 0.79082 0.83202 0.0
H1950 H 0.5945 0.7979 0.8387 0.0
H1951 H 0.59417 0.78906 0.84897 0.0
H1952 H 0.597 0.76911 0.87991 0.0
H1953 H 0.58712 0.77121 0.87087 0.0
H1954 H 0.583 0.7535 0.89141 0.0
H1955 H 0.57313 0.75578 0.88245 0.0
H1956 H 0.53904 0.76631 0.86693 0.0
H1957 H 0.53532 0.76882 0.84346 0.0
H1958 H 0.54833 0.77199 0.84175 0.0
H1959 H 0.5521 0.76958 0.86515 0.0
C1960 C 0.23054 0.58297 0.84655 0.0
C1961 C 0.22901 0.57689 0.84201 0.0
C1962 C 0.22056 0.58435 0.83465 0.0
C1963 C 0.22407 0.57757 0.83611 0.0
C1964 C 0.22221 0.59046 0.83917 0.0
C1965 C 0.22716 0.58977 0.84507 0.0
U1966 U 0.24226 0.57073 0.85871 0.0
O1967 O 0.25292 0.57262 0.86425 0.0
O1968 O 0.24306 0.56998 0.87082 0.0
C1969 C 0.25001 0.57208 0.87089 0.0
C1970 C 0.2354 0.58214 0.853 0.0
C1971 C 0.25174 0.57814 0.876 0.0
C1972 C 0.25234 0.59124 0.87889 0.0
C1973 C 0.25077 0.58554 0.8739 0.0
C1974 C 0.25579 0.58218 0.88813 0.0
C1975 C 0.25487 0.58963 0.88608 0.0
C1976 C 0.25425 0.5765 0.88313 0.0
C1977 C 0.24348 0.55023 0.85329 0.0
C1978 C 0.24713 0.54012 0.86134 0.0
C1979 C 0.24563 0.53803 0.8482 0.0
C1980 C 0.24376 0.54544 0.84722 0.0
C1981 C 0.24724 0.53524 0.85528 0.0
C1982 C 0.24528 0.54756 0.86035 0.0
C1983 C 0.24099 0.55787 0.85213 0.0
O1984 O 0.23262 0.57811 0.85837 0.0
O1985 O 0.24233 0.58053 0.8515 0.0
O1986 O 0.24616 0.56269 0.85044 0.0
O1987 O 0.23617 0.56039 0.85695 0.0
H1988 H 0.23154 0.57158 0.84311 0.0
H1989 H 0.22285 0.57272 0.83282 0.0
H1990 H 0.21967 0.59578 0.83814 0.0
H1991 H 0.22829 0.59452 0.84853 0.0
H1992 H 0.25164 0.5969 0.87709 0.0
H1993 H 0.2488 0.58691 0.86841 0.0
H1994 H 0.25759 0.58072 0.89365 0.0
H1995 H 0.25497 0.57082 0.88486 0.0
H1996 H 0.24842 0.53816 0.86685 0.0
H1997 H 0.24556 0.53442 0.84343 0.0
H1998 H 0.24237 0.54741 0.84174 0.0
H1999 H 0.24514 0.5512 0.8651 0.0
C2000 C 0.43329 0.22999 0.84638 0.0
C2001 C 0.43928 0.22941 0.84149 0.0
C2002 C 0.43277 0.21993 0.83451 0.0
C2003 C 0.43901 0.22444 0.8356 0.0
C2004 C 0.42671 0.22066 0.83934 0.0
C2005 C 0.42698 0.22564 0.84525 0.0
U2006 U 0.44504 0.24187 0.85876 0.0
O2007 O 0.44292 0.25244 0.86435 0.0
O2008 O 0.44569 0.2426 0.87088 0.0
C2009 C 0.4435 0.24952 0.87098 0.0
C2010 C 0.43383 0.23481 0.85289 0.0
C2011 C 0.43744 0.25117 0.87613 0.0
C2012 C 0.42433 0.25173 0.87909 0.0
C2013 C 0.43002 0.25016 0.87407 0.0
C2014 C 0.43345 0.25524 0.88826 0.0
C2015 C 0.42598 0.2543 0.88625 0.0
C2016 C 0.43911 0.2537 0.88324 0.0
C2017 C 0.46559 0.24348 0.85348 0.0
C2018 C 0.47566 0.2471 0.86162 0.0
C2019 C 0.47782 0.24582 0.84847 0.0
C2020 C 0.47041 0.2439 0.84744 0.0
C2021 C 0.48056 0.24735 0.85559 0.0
C2022 C 0.46822 0.2452 0.86058 0.0
C2023 C 0.45798 0.24088 0.85227 0.0
O2024 O 0.43784 0.2321 0.85831 0.0
O2025 O 0.43528 0.24179 0.85149 0.0
O2026 O 0.45309 0.24597 0.85058 0.0
O2027 O 0.45551 0.23599 0.85704 0.0
H2028 H 0.44421 0.23272 0.8423 0.0
H2029 H 0.44373 0.2241 0.83192 0.0
H2030 H 0.42185 0.21721 0.83871 0.0
H2031 H 0.42234 0.226 0.84901 0.0
H2032 H 0.41866 0.251 0.87732 0.0
H2033 H 0.42863 0.24817 0.8686 0.0
H2034 H 0.43493 0.25707 0.89376 0.0
H2035 H 0.44481 0.25445 0.88493 0.0
H2036 H 0.47758 0.24832 0.86716 0.0
H2037 H 0.48146 0.24585 0.84372 0.0
H2038 H 0.46848 0.24257 0.84193 0.0
H2039 H 0.46456 0.24495 0.86531 0.0
C2040 C 0.78598 0.43218 0.84623 0.0
C2041 C 0.78654 0.43818 0.84135 0.0
C2042 C 0.796 0.43172 0.83429 0.0
C2043 C 0.79148 0.43795 0.83543 0.0
C2044 C 0.7953 0.42566 0.83912 0.0
C2045 C 0.79034 0.4259 0.84505 0.0
U2046 U 0.77401 0.44379 0.85866 0.0
O2047 O 0.76349 0.44147 0.86432 0.0
O2048 O 0.77333 0.44448 0.87076 0.0
C2049 C 0.76645 0.44215 0.87092 0.0
C2050 C 0.78118 0.43268 0.85276 0.0
C2051 C 0.76499 0.43605 0.87608 0.0
C2052 C 0.76723 0.42353 0.88034 0.0
C2053 C 0.76846 0.42918 0.87521 0.0
C2054 C 0.75895 0.43153 0.88717 0.0
C2055 C 0.7625 0.42466 0.88642 0.0
C2056 C 0.76019 0.43717 0.88204 0.0
C2057 C 0.77222 0.4644 0.85326 0.0
C2058 C 0.77233 0.47599 0.86007 0.0
C2059 C 0.76669 0.47543 0.84795 0.0
C2060 C 0.76841 0.46792 0.84749 0.0
C2061 C 0.7688 0.4796 0.85416 0.0
C2062 C 0.77402 0.46846 0.85963 0.0
C2063 C 0.77481 0.45674 0.85218 0.0
O2064 O 0.78388 0.43671 0.85816 0.0
O2065 O 0.77418 0.43405 0.85139 0.0
O2066 O 0.76975 0.45179 0.85051 0.0
O2067 O 0.77981 0.45428 0.85685 0.0
H2068 H 0.78322 0.44309 0.8422 0.0
H2069 H 0.79179 0.44266 0.83176 0.0
H2070 H 0.79875 0.42082 0.83846 0.0
H2071 H 0.79001 0.42124 0.8488 0.0
H2072 H 0.77011 0.41833 0.87965 0.0
H2073 H 0.7722 0.42824 0.87063 0.0
H2074 H 0.75518 0.43256 0.8917 0.0
H2075 H 0.75744 0.44244 0.88276 0.0
H2076 H 0.7741 0.47903 0.8649 0.0
H2077 H 0.76383 0.478 0.84335 0.0
H2078 H 0.76696 0.46491 0.84253 0.0
H2079 H 0.77696 0.4659 0.86417 0.0
C2080 C 0.58351 0.22949 0.16924 0.0
C2081 C 0.57736 0.228 0.17373 0.0
C2082 C 0.58472 0.21954 0.18118 0.0
C2083 C 0.57796 0.22308 0.17965 0.0
C2084 C 0.59089 0.22114 0.17671 0.0
C2085 C 0.59029 0.22608 0.17079 0.0
U2086 U 0.57162 0.24155 0.157 0.0
O2087 O 0.57394 0.25218 0.15155 0.0
O2088 O 0.57102 0.24247 0.14491 0.0
C2089 C 0.5734 0.24933 0.1449 0.0
C2090 C 0.58281 0.23439 0.16281 0.0
C2091 C 0.57966 0.25082 0.13994 0.0
C2092 C 0.59208 0.24806 0.13562 0.0
C2093 C 0.58624 0.24675 0.14052 0.0
C2094 C 0.58487 0.25762 0.12961 0.0
C2095 C 0.59145 0.25349 0.13008 0.0
C2096 C 0.57903 0.25628 0.13449 0.0
C2097 C 0.55103 0.24323 0.16215 0.0
C2098 C 0.541 0.24681 0.15395 0.0
C2099 C 0.53881 0.24569 0.16712 0.0
C2100 C 0.54621 0.24375 0.16818 0.0
C2101 C 0.53608 0.24714 0.15998 0.0
C2102 C 0.54842 0.24489 0.15503 0.0
C2103 C 0.55862 0.24058 0.16339 0.0
O2104 O 0.57876 0.23174 0.1574 0.0
O2105 O 0.58133 0.24133 0.16434 0.0
O2106 O 0.56354 0.24563 0.16516 0.0
O2107 O 0.5611 0.23572 0.1586 0.0
H2108 H 0.57207 0.23057 0.17257 0.0
H2109 H 0.57307 0.2219 0.1829 0.0
H2110 H 0.5962 0.21859 0.1778 0.0
H2111 H 0.59509 0.22718 0.16738 0.0
H2112 H 0.5971 0.24486 0.13619 0.0
H2113 H 0.58683 0.24254 0.14473 0.0
H2114 H 0.58417 0.26177 0.12536 0.0
H2115 H 0.57398 0.25946 0.13397 0.0
H2116 H 0.53908 0.24797 0.1484 0.0
H2117 H 0.53517 0.24579 0.17187 0.0
H2118 H 0.54813 0.24247 0.17371 0.0
H2119 H 0.55208 0.24456 0.1503 0.0
C2120 C 0.78617 0.58285 0.16949 0.0
C2121 C 0.7867 0.57689 0.17441 0.0
C2122 C 0.79621 0.58337 0.1814 0.0
C2123 C 0.79166 0.57715 0.18032 0.0
C2124 C 0.79554 0.58939 0.17652 0.0
C2125 C 0.79056 0.58913 0.17061 0.0
U2126 U 0.77405 0.57125 0.15716 0.0
O2127 O 0.76354 0.57364 0.15149 0.0
O2128 O 0.77334 0.57049 0.14507 0.0
C2129 C 0.76649 0.5729 0.14489 0.0
C2130 C 0.78134 0.58233 0.16297 0.0
C2131 C 0.76511 0.579 0.13972 0.0
C2132 C 0.76753 0.59147 0.1354 0.0
C2133 C 0.76868 0.58582 0.14056 0.0
C2134 C 0.75914 0.58354 0.1286 0.0
C2135 C 0.7628 0.59037 0.12932 0.0
C2136 C 0.7603 0.57791 0.13375 0.0
C2137 C 0.77202 0.55077 0.1625 0.0
C2138 C 0.76867 0.54065 0.15434 0.0
C2139 C 0.76928 0.53867 0.16757 0.0
C2140 C 0.77124 0.54606 0.16859 0.0
C2141 C 0.76809 0.53584 0.16043 0.0
C2142 C 0.7706 0.54807 0.15537 0.0
C2143 C 0.77473 0.55833 0.16372 0.0
O2144 O 0.78399 0.57823 0.1576 0.0
O2145 O 0.77433 0.58103 0.16437 0.0
O2146 O 0.76971 0.56332 0.16534 0.0
O2147 O 0.77973 0.5607 0.159 0.0
H2148 H 0.78336 0.57199 0.17361 0.0
H2149 H 0.79196 0.57246 0.18403 0.0
H2150 H 0.79901 0.59423 0.17714 0.0
H2151 H 0.79024 0.59375 0.16682 0.0
H2152 H 0.77048 0.59663 0.13608 0.0
H2153 H 0.77242 0.58674 0.14514 0.0
H2154 H 0.75537 0.58255 0.12406 0.0
H2155 H 0.75748 0.57267 0.13305 0.0
H2156 H 0.76771 0.53866 0.14878 0.0
H2157 H 0.76898 0.5351 0.17237 0.0
H2158 H 0.77234 0.54805 0.17413 0.0
H2159 H 0.77113 0.55165 0.1506 0.0
C2160 C 0.43421 0.78543 0.16932 0.0
C2161 C 0.44034 0.78609 0.17402 0.0
C2162 C 0.43395 0.7955 0.1812 0.0
C2163 C 0.44021 0.79106 0.17992 0.0
C2164 C 0.42776 0.79471 0.17654 0.0
C2165 C 0.4279 0.78972 0.17064 0.0
U2166 U 0.44545 0.77313 0.15684 0.0
O2167 O 0.4428 0.76259 0.15138 0.0
O2168 O 0.44586 0.77226 0.14474 0.0
C2169 C 0.44334 0.76545 0.14473 0.0
C2170 C 0.43455 0.78056 0.16285 0.0
C2171 C 0.437 0.76412 0.13983 0.0
C2172 C 0.4246 0.76714 0.13564 0.0
C2173 C 0.43051 0.7683 0.14049 0.0
C2174 C 0.43157 0.75749 0.12951 0.0
C2175 C 0.42507 0.76174 0.13007 0.0
C2176 C 0.43748 0.75868 0.13435 0.0
C2177 C 0.46607 0.77103 0.16178 0.0
C2178 C 0.47608 0.76754 0.15352 0.0
C2179 C 0.47827 0.76837 0.16671 0.0
C2180 C 0.47088 0.77035 0.1678 0.0
C2181 C 0.48099 0.76706 0.15955 0.0
C2182 C 0.46867 0.76949 0.15464 0.0
C2183 C 0.45854 0.7738 0.16307 0.0
O2184 O 0.43855 0.78311 0.15735 0.0
O2185 O 0.43584 0.77356 0.1643 0.0
O2186 O 0.45354 0.76883 0.16488 0.0
O2187 O 0.45611 0.77872 0.15832 0.0
H2188 H 0.44527 0.78282 0.17307 0.0
H2189 H 0.44503 0.79145 0.18346 0.0
H2190 H 0.42289 0.7981 0.17732 0.0
H2191 H 0.42314 0.78931 0.16702 0.0
H2192 H 0.41964 0.77044 0.13627 0.0
H2193 H 0.43004 0.7725 0.14473 0.0
H2194 H 0.43215 0.75335 0.12523 0.0
H2195 H 0.44246 0.75541 0.13376 0.0
H2196 H 0.47799 0.76648 0.14795 0.0
H2197 H 0.48191 0.76816 0.17146 0.0
H2198 H 0.46898 0.77154 0.17335 0.0
H2199 H 0.46502 0.76995 0.14991 0.0
C2200 C 0.23088 0.43245 0.16839 0.0
C2201 C 0.22954 0.43854 0.17298 0.0
C2202 C 0.22106 0.4312 0.18044 0.0
C2203 C 0.22468 0.43792 0.17895 0.0
C2204 C 0.22251 0.42508 0.17586 0.0
C2205 C 0.22738 0.42571 0.16988 0.0
U2206 U 0.24273 0.44454 0.15621 0.0
O2207 O 0.25331 0.44243 0.15057 0.0
O2208 O 0.24347 0.44541 0.14413 0.0
C2209 C 0.25037 0.44314 0.14396 0.0
C2210 C 0.23569 0.43322 0.1619 0.0
C2211 C 0.25188 0.43708 0.13879 0.0
C2212 C 0.24974 0.42453 0.13454 0.0
C2213 C 0.24846 0.43017 0.13966 0.0
C2214 C 0.25794 0.43263 0.1277 0.0
C2215 C 0.25445 0.42571 0.12845 0.0
C2216 C 0.25665 0.43825 0.13282 0.0
C2217 C 0.24432 0.46498 0.1618 0.0
C2218 C 0.24788 0.47517 0.1538 0.0
C2219 C 0.24653 0.47714 0.16698 0.0
C2220 C 0.24468 0.46971 0.16791 0.0
C2221 C 0.24805 0.47999 0.1599 0.0
C2222 C 0.24605 0.46772 0.15475 0.0
C2223 C 0.24175 0.45736 0.1629 0.0
O2224 O 0.23295 0.43733 0.15658 0.0
O2225 O 0.24266 0.43469 0.16334 0.0
O2226 O 0.24687 0.45246 0.16449 0.0
O2227 O 0.23684 0.45496 0.15812 0.0
H2228 H 0.23217 0.44381 0.17187 0.0
H2229 H 0.22362 0.44277 0.18229 0.0
H2230 H 0.21989 0.41981 0.1769 0.0
H2231 H 0.22836 0.42096 0.16638 0.0
H2232 H 0.24691 0.41931 0.13525 0.0
H2233 H 0.24474 0.42918 0.14425 0.0
H2234 H 0.26169 0.43369 0.12315 0.0
H2235 H 0.25935 0.44355 0.13209 0.0
H2236 H 0.2491 0.47718 0.1483 0.0
H2237 H 0.24651 0.48071 0.17178 0.0
H2238 H 0.24334 0.4677 0.17339 0.0
H2239 H 0.24583 0.46413 0.14997 0.0
C2240 C 0.84741 0.58256 0.78624 0.0
C2241 C 0.84288 0.57644 0.78767 0.0
C2242 C 0.83541 0.58378 0.79612 0.0
C2243 C 0.83693 0.57704 0.79256 0.0
C2244 C 0.83993 0.58993 0.79458 0.0
C2245 C 0.84588 0.58932 0.78968 0.0
U2246 U 0.85959 0.5707 0.77411 0.0
O2247 O 0.8651 0.57309 0.76352 0.0
O2248 O 0.87169 0.57002 0.77323 0.0
C2249 C 0.87175 0.57247 0.76639 0.0
C2250 C 0.85386 0.58185 0.78137 0.0
C2251 C 0.87676 0.57871 0.76499 0.0
C2252 C 0.8811 0.59108 0.76786 0.0
C2253 C 0.87617 0.58525 0.7691 0.0
C2254 C 0.88715 0.58394 0.75829 0.0
C2255 C 0.88666 0.59048 0.76246 0.0
C2256 C 0.88224 0.5781 0.75956 0.0
C2257 C 0.8542 0.55022 0.77219 0.0
C2258 C 0.86226 0.54005 0.76872 0.0
C2259 C 0.84901 0.53818 0.76941 0.0
C2260 C 0.84807 0.54556 0.77142 0.0
C2261 C 0.85612 0.5353 0.76815 0.0
C2262 C 0.86131 0.54746 0.77071 0.0
C2263 C 0.85306 0.55778 0.77491 0.0
O2264 O 0.85923 0.57773 0.784 0.0
O2265 O 0.85235 0.58047 0.7744 0.0
O2266 O 0.85135 0.56277 0.76991 0.0
O2267 O 0.85787 0.56015 0.77982 0.0
H2268 H 0.84401 0.57117 0.78508 0.0
H2269 H 0.83363 0.57217 0.79369 0.0
H2270 H 0.83886 0.59522 0.79716 0.0
H2271 H 0.84933 0.5941 0.78863 0.0
H2272 H 0.88051 0.59608 0.7711 0.0
H2273 H 0.87193 0.58582 0.77329 0.0
H2274 H 0.89142 0.58326 0.75415 0.0
H2275 H 0.88277 0.57308 0.75635 0.0
H2276 H 0.8678 0.53802 0.7677 0.0
H2277 H 0.84417 0.53466 0.76912 0.0
H2278 H 0.84255 0.54759 0.77256 0.0
H2279 H 0.86612 0.551 0.77123 0.0
C2280 C 0.43337 0.84621 0.78603 0.0
C2281 C 0.43952 0.84171 0.78745 0.0
C2282 C 0.4322 0.83422 0.79591 0.0
C2283 C 0.43894 0.83576 0.79234 0.0
C2284 C 0.42602 0.8387 0.79438 0.0
C2285 C 0.42661 0.84465 0.78948 0.0
U2286 U 0.44523 0.85849 0.77397 0.0
O2287 O 0.44287 0.86399 0.76337 0.0
O2288 O 0.44584 0.87058 0.77311 0.0
C2289 C 0.44343 0.87063 0.76625 0.0
C2290 C 0.43406 0.85266 0.78116 0.0
C2291 C 0.43716 0.87559 0.76483 0.0
C2292 C 0.42471 0.87979 0.76761 0.0
C2293 C 0.43057 0.8749 0.76886 0.0
C2294 C 0.43194 0.88601 0.7582 0.0
C2295 C 0.42534 0.88543 0.76229 0.0
C2296 C 0.4378 0.88113 0.75947 0.0
C2297 C 0.4658 0.85331 0.77218 0.0
C2298 C 0.47587 0.86148 0.76862 0.0
C2299 C 0.47799 0.84831 0.76966 0.0
C2300 C 0.4706 0.84727 0.77162 0.0
C2301 C 0.48075 0.85544 0.76824 0.0
C2302 C 0.46844 0.86042 0.77055 0.0
C2303 C 0.45822 0.85208 0.77485 0.0
O2304 O 0.43814 0.85805 0.78382 0.0
O2305 O 0.43551 0.85118 0.7742 0.0
O2306 O 0.45328 0.85034 0.76981 0.0
O2307 O 0.45578 0.85685 0.77975 0.0
H2308 H 0.4448 0.84287 0.78485 0.0
H2309 H 0.44383 0.83249 0.79347 0.0
H2310 H 0.42073 0.83761 0.79696 0.0
H2311 H 0.42181 0.84808 0.78843 0.0
H2312 H 0.41968 0.87913 0.77079 0.0
H2313 H 0.42997 0.87061 0.77299 0.0
H2314 H 0.43264 0.89034 0.75413 0.0
H2315 H 0.44286 0.88174 0.75632 0.0
H2316 H 0.4778 0.86703 0.76748 0.0
H2317 H 0.48161 0.84355 0.76952 0.0
H2318 H 0.46865 0.84174 0.77287 0.0
H2319 H 0.4648 0.86516 0.77092 0.0
C2320 C 0.16943 0.43232 0.78636 0.0
C2321 C 0.17392 0.43844 0.78789 0.0
C2322 C 0.18134 0.43104 0.79634 0.0
C2323 C 0.17983 0.43781 0.79283 0.0
C2324 C 0.17686 0.42489 0.7947 0.0
C2325 C 0.17095 0.42553 0.78975 0.0
U2326 U 0.15732 0.44427 0.77423 0.0
O2327 O 0.15187 0.44197 0.76359 0.0
O2328 O 0.14522 0.44495 0.77328 0.0
C2329 C 0.1452 0.44256 0.76643 0.0
C2330 C 0.16301 0.43306 0.78145 0.0
C2331 C 0.14021 0.43632 0.76497 0.0
C2332 C 0.13592 0.4239 0.76774 0.0
C2333 C 0.14083 0.42973 0.76902 0.0
C2334 C 0.12981 0.43113 0.75826 0.0
C2335 C 0.13033 0.42455 0.76236 0.0
C2336 C 0.13471 0.43697 0.75956 0.0
C2337 C 0.16272 0.46478 0.77252 0.0
C2338 C 0.15469 0.475 0.76912 0.0
C2339 C 0.16794 0.47686 0.76992 0.0
C2340 C 0.16886 0.46944 0.77185 0.0
C2341 C 0.16084 0.47976 0.76864 0.0
C2342 C 0.15562 0.46756 0.77102 0.0
C2343 C 0.16384 0.45719 0.77518 0.0
O2344 O 0.15762 0.43716 0.78407 0.0
O2345 O 0.16457 0.43451 0.7745 0.0
O2346 O 0.16557 0.45225 0.77014 0.0
O2347 O 0.159 0.45477 0.78003 0.0
H2348 H 0.17279 0.44374 0.78534 0.0
H2349 H 0.1831 0.44268 0.79404 0.0
H2350 H 0.17793 0.41958 0.79723 0.0
H2351 H 0.16753 0.42075 0.78862 0.0
H2352 H 0.13652 0.41888 0.77093 0.0
H2353 H 0.14509 0.42913 0.77319 0.0
H2354 H 0.12552 0.43184 0.75414 0.0
H2355 H 0.13416 0.44202 0.7564 0.0
H2356 H 0.14916 0.47705 0.76809 0.0
H2357 H 0.17278 0.48037 0.76971 0.0
H2358 H 0.17437 0.46739 0.773 0.0
H2359 H 0.15081 0.46403 0.77147 0.0
C2360 C 0.58317 0.16926 0.78581 0.0
C2361 C 0.57713 0.17407 0.78646 0.0
C2362 C 0.58365 0.1811 0.79591 0.0
C2363 C 0.57738 0.17995 0.79145 0.0
C2364 C 0.58975 0.17633 0.79512 0.0
C2365 C 0.5895 0.17044 0.79012 0.0
U2366 U 0.57171 0.15693 0.77352 0.0
O2367 O 0.57425 0.15149 0.76294 0.0
O2368 O 0.57119 0.14484 0.77261 0.0
C2369 C 0.57368 0.14484 0.76579 0.0
C2370 C 0.58272 0.16281 0.78091 0.0
C2371 C 0.57998 0.13991 0.76441 0.0
C2372 C 0.59239 0.13569 0.76734 0.0
C2373 C 0.58651 0.14056 0.76854 0.0
C2374 C 0.58531 0.12956 0.75776 0.0
C2375 C 0.59185 0.13011 0.76195 0.0
C2376 C 0.57942 0.13442 0.759 0.0
C2377 C 0.55112 0.16205 0.77155 0.0
C2378 C 0.54104 0.15391 0.76798 0.0
C2379 C 0.53894 0.16708 0.76902 0.0
C2380 C 0.54634 0.16811 0.77097 0.0
C2381 C 0.53617 0.15996 0.76761 0.0
C2382 C 0.54847 0.15495 0.76992 0.0
C2383 C 0.55868 0.16327 0.77428 0.0
O2384 O 0.57867 0.15736 0.78348 0.0
O2385 O 0.58139 0.1643 0.77392 0.0
O2386 O 0.56367 0.16505 0.76929 0.0
O2387 O 0.56109 0.15848 0.77918 0.0
H2388 H 0.57219 0.17323 0.78318 0.0
H2389 H 0.57263 0.18358 0.79184 0.0
H2390 H 0.59463 0.177 0.79853 0.0
H2391 H 0.59418 0.16674 0.7897 0.0
H2392 H 0.59738 0.13632 0.77059 0.0
H2393 H 0.58704 0.14481 0.77272 0.0
H2394 H 0.58467 0.12527 0.75364 0.0
H2395 H 0.57441 0.13383 0.75577 0.0
H2396 H 0.5391 0.14836 0.76685 0.0
H2397 H 0.53533 0.17185 0.76889 0.0
H2398 H 0.54829 0.17363 0.77223 0.0
H2399 H 0.5521 0.1502 0.7703 0.0
C2400 C 0.84721 0.43243 0.23077 0.0
C2401 C 0.84072 0.43647 0.23214 0.0
C2402 C 0.83507 0.43147 0.22097 0.0
C2403 C 0.8347 0.43595 0.22732 0.0
C2404 C 0.84156 0.42737 0.21969 0.0
C2405 C 0.84756 0.42784 0.22455 0.0
U2406 U 0.85954 0.44468 0.2424 0.0
O2407 O 0.86538 0.44273 0.25288 0.0
O2408 O 0.87168 0.44554 0.24289 0.0
C2409 C 0.87195 0.44338 0.24982 0.0
C2410 C 0.8538 0.43333 0.23548 0.0
C2411 C 0.87717 0.43736 0.25137 0.0
C2412 C 0.88017 0.42429 0.25199 0.0
C2413 C 0.87511 0.42994 0.25049 0.0
C2414 C 0.88943 0.43343 0.25519 0.0
C2415 C 0.8874 0.42596 0.25437 0.0
C2416 C 0.88436 0.43906 0.25371 0.0
C2417 C 0.85391 0.46508 0.24407 0.0
C2418 C 0.86197 0.47519 0.24768 0.0
C2419 C 0.8488 0.47726 0.2463 0.0
C2420 C 0.84783 0.46985 0.24442 0.0
C2421 C 0.8559 0.48005 0.24786 0.0
C2422 C 0.86098 0.46775 0.24582 0.0
C2423 C 0.85277 0.45746 0.24151 0.0
O2424 O 0.85903 0.43749 0.23262 0.0
O2425 O 0.85255 0.43473 0.2425 0.0
O2426 O 0.85127 0.45254 0.24664 0.0
O2427 O 0.85749 0.45508 0.23653 0.0
H2428 H 0.84034 0.4401 0.23688 0.0
H2429 H 0.82977 0.43911 0.22856 0.0
H2430 H 0.84211 0.42396 0.21481 0.0
H2431 H 0.85254 0.42474 0.22336 0.0
H2432 H 0.87839 0.41861 0.25138 0.0
H2433 H 0.86958 0.42852 0.24866 0.0
H2434 H 0.89497 0.43494 0.25687 0.0
H2435 H 0.88606 0.44476 0.25437 0.0
H2436 H 0.86749 0.47715 0.24893 0.0
H2437 H 0.84402 0.48086 0.24628 0.0
H2438 H 0.84233 0.46787 0.24306 0.0
H2439 H 0.86574 0.46413 0.24562 0.0
C2440 C 0.58299 0.84667 0.22997 0.0
C2441 C 0.57686 0.84197 0.22931 0.0
C2442 C 0.58323 0.83482 0.21986 0.0
C2443 C 0.57698 0.83609 0.22432 0.0
C2444 C 0.58942 0.83949 0.22064 0.0
C2445 C 0.58929 0.84537 0.22565 0.0
U2446 U 0.57179 0.85904 0.2424 0.0
O2447 O 0.57446 0.86442 0.25299 0.0
O2448 O 0.57135 0.87113 0.24337 0.0
C2449 C 0.57389 0.87109 0.25018 0.0
C2450 C 0.58267 0.85312 0.23488 0.0
C2451 C 0.58019 0.87602 0.25157 0.0
C2452 C 0.5925 0.88046 0.2485 0.0
C2453 C 0.58662 0.87559 0.24725 0.0
C2454 C 0.58563 0.88614 0.25849 0.0
C2455 C 0.59206 0.88581 0.25411 0.0
C2456 C 0.57975 0.88129 0.25721 0.0
C2457 C 0.55119 0.85399 0.24459 0.0
C2458 C 0.54105 0.86214 0.24794 0.0
C2459 C 0.53913 0.8489 0.24757 0.0
C2460 C 0.54651 0.8479 0.24553 0.0
C2461 C 0.53627 0.85604 0.24868 0.0
C2462 C 0.54846 0.86113 0.24593 0.0
C2463 C 0.55872 0.85277 0.24177 0.0
O2464 O 0.57864 0.85861 0.23237 0.0
O2465 O 0.58142 0.85163 0.24188 0.0
O2466 O 0.56375 0.85094 0.24668 0.0
O2467 O 0.5611 0.85757 0.23686 0.0
H2468 H 0.57194 0.84291 0.2326 0.0
H2469 H 0.57217 0.83255 0.22394 0.0
H2470 H 0.59428 0.83872 0.21724 0.0
H2471 H 0.59405 0.84899 0.22606 0.0
H2472 H 0.59741 0.88 0.2451 0.0
H2473 H 0.58707 0.87151 0.24289 0.0
H2474 H 0.58507 0.89025 0.26279 0.0
H2475 H 0.57482 0.8817 0.26059 0.0
H2476 H 0.53903 0.8677 0.24884 0.0
H2477 H 0.5356 0.84409 0.24798 0.0
H2478 H 0.54852 0.84236 0.24449 0.0
H2479 H 0.552 0.86591 0.24527 0.0
C2480 C 0.16953 0.5827 0.23032 0.0
C2481 C 0.17411 0.57661 0.22894 0.0
C2482 C 0.1815 0.58395 0.2204 0.0
C2483 C 0.18004 0.57722 0.22403 0.0
C2484 C 0.17694 0.59007 0.2219 0.0
C2485 C 0.171 0.58944 0.22682 0.0
U2486 U 0.15731 0.57053 0.24203 0.0
O2487 O 0.15175 0.57243 0.25267 0.0
O2488 O 0.14519 0.56978 0.24281 0.0
C2489 C 0.14511 0.57189 0.24976 0.0
C2490 C 0.16305 0.58192 0.23515 0.0
C2491 C 0.13999 0.57795 0.25147 0.0
C2492 C 0.13706 0.59104 0.25202 0.0
C2493 C 0.14206 0.58535 0.25044 0.0
C2494 C 0.12787 0.58197 0.25561 0.0
C2495 C 0.1299 0.58942 0.25462 0.0
C2496 C 0.13288 0.5763 0.25406 0.0
C2497 C 0.16281 0.55004 0.2433 0.0
C2498 C 0.15481 0.53984 0.24684 0.0
C2499 C 0.16799 0.53787 0.24548 0.0
C2500 C 0.16892 0.5453 0.24363 0.0
C2501 C 0.16092 0.53502 0.24701 0.0
C2502 C 0.15575 0.5473 0.24502 0.0
C2503 C 0.16392 0.55769 0.24081 0.0
O2504 O 0.15767 0.57789 0.23238 0.0
O2505 O 0.16452 0.58034 0.24209 0.0
O2506 O 0.16559 0.56251 0.24597 0.0
O2507 O 0.15909 0.56018 0.23598 0.0
H2508 H 0.17301 0.57134 0.23156 0.0
H2509 H 0.18337 0.57237 0.22293 0.0
H2510 H 0.17796 0.59534 0.21927 0.0
H2511 H 0.1675 0.5942 0.22783 0.0
H2512 H 0.13884 0.5967 0.25126 0.0
H2513 H 0.14753 0.58671 0.24841 0.0
H2514 H 0.12237 0.58051 0.25747 0.0
H2515 H 0.13117 0.57061 0.25483 0.0
H2516 H 0.1493 0.53783 0.24806 0.0
H2517 H 0.1728 0.53431 0.24545 0.0
H2518 H 0.1744 0.54733 0.2423 0.0
H2519 H 0.15096 0.55089 0.24483 0.0
C2520 C 0.43363 0.16884 0.23058 0.0
C2521 C 0.43964 0.1737 0.22992 0.0
C2522 C 0.43309 0.1807 0.22047 0.0
C2523 C 0.43937 0.17958 0.22494 0.0
C2524 C 0.42701 0.17589 0.22127 0.0
C2525 C 0.42729 0.17 0.22628 0.0
U2526 U 0.44539 0.15649 0.24247 0.0
O2527 O 0.44329 0.15092 0.25306 0.0
O2528 O 0.44604 0.14438 0.24323 0.0
C2529 C 0.44385 0.14429 0.25015 0.0
C2530 C 0.43417 0.16234 0.23541 0.0
C2531 C 0.43776 0.13918 0.2518 0.0
C2532 C 0.42464 0.13625 0.25223 0.0
C2533 C 0.43036 0.14123 0.25067 0.0
C2534 C 0.43368 0.1271 0.25597 0.0
C2535 C 0.42623 0.12911 0.2549 0.0
C2536 C 0.43938 0.13209 0.25445 0.0
C2537 C 0.46596 0.16184 0.24399 0.0
C2538 C 0.4762 0.15378 0.24728 0.0
C2539 C 0.47809 0.16701 0.2465 0.0
C2540 C 0.47065 0.16795 0.24463 0.0
C2541 C 0.48098 0.1599 0.24774 0.0
C2542 C 0.46874 0.15474 0.24544 0.0
C2543 C 0.45833 0.16299 0.24142 0.0
O2544 O 0.43817 0.15693 0.23271 0.0
O2545 O 0.43563 0.16375 0.24238 0.0
O2546 O 0.45345 0.16468 0.24653 0.0
O2547 O 0.45585 0.15821 0.23656 0.0
H2548 H 0.44459 0.17286 0.23319 0.0
H2549 H 0.4441 0.18323 0.22455 0.0
H2550 H 0.42213 0.17654 0.21786 0.0
H2551 H 0.42263 0.16627 0.22668 0.0
H2552 H 0.41898 0.13801 0.2514 0.0
H2553 H 0.42901 0.14668 0.2486 0.0
H2554 H 0.43513 0.12162 0.25789 0.0
H2555 H 0.44506 0.1304 0.25529 0.0
H2556 H 0.47825 0.14825 0.24828 0.0
H2557 H 0.48163 0.17183 0.24671 0.0
H2558 H 0.46861 0.17347 0.24352 0.0
H2559 H 0.46518 0.14994 0.24501 0.0
C2560 C 0.78567 0.8463 0.58239 0.0
C2561 C 0.78622 0.84144 0.57639 0.0
C2562 C 0.79581 0.83446 0.58276 0.0
C2563 C 0.79122 0.83557 0.57657 0.0
C2564 C 0.79512 0.83926 0.58884 0.0
C2565 C 0.79009 0.84514 0.58865 0.0
U2566 U 0.77367 0.85865 0.57077 0.0
O2567 O 0.76308 0.86421 0.57296 0.0
O2568 O 0.77291 0.87076 0.57012 0.0
C2569 C 0.766 0.87085 0.57237 0.0
C2570 C 0.78084 0.85279 0.58192 0.0
C2571 C 0.76439 0.87596 0.57846 0.0
C2572 C 0.76405 0.8789 0.59156 0.0
C2573 C 0.76556 0.87391 0.58585 0.0
C2574 C 0.76028 0.88804 0.58254 0.0
C2575 C 0.76139 0.88603 0.58997 0.0
C2576 C 0.76176 0.88305 0.57684 0.0
C2577 C 0.77198 0.85331 0.55024 0.0
C2578 C 0.76863 0.86135 0.54002 0.0
C2579 C 0.76942 0.84813 0.53814 0.0
C2580 C 0.77132 0.84719 0.54556 0.0
C2581 C 0.76816 0.85523 0.53525 0.0
C2582 C 0.7705 0.8604 0.54747 0.0
C2583 C 0.7746 0.85216 0.55785 0.0
O2584 O 0.7835 0.85822 0.5779 0.0
O2585 O 0.77384 0.85139 0.58053 0.0
O2586 O 0.76953 0.85046 0.56277 0.0
O2587 O 0.7795 0.85694 0.56028 0.0
H2588 H 0.78286 0.84226 0.5715 0.0
H2589 H 0.79153 0.83191 0.57185 0.0
H2590 H 0.79862 0.83862 0.59366 0.0
H2591 H 0.78977 0.84888 0.59331 0.0
H2592 H 0.7649 0.87713 0.59721 0.0
H2593 H 0.76762 0.86845 0.58719 0.0
H2594 H 0.75838 0.89353 0.58109 0.0
H2595 H 0.76089 0.88474 0.57117 0.0
H2596 H 0.76761 0.86688 0.53798 0.0
H2597 H 0.76921 0.84331 0.53461 0.0
H2598 H 0.77246 0.84168 0.54761 0.0
H2599 H 0.77095 0.86519 0.55102 0.0
C2600 C 0.78613 0.16827 0.43272 0.0
C2601 C 0.78751 0.17283 0.43882 0.0
C2602 C 0.79603 0.18025 0.43149 0.0
C2603 C 0.79241 0.17877 0.43822 0.0
C2604 C 0.79452 0.17571 0.42536 0.0
C2605 C 0.78962 0.16976 0.42597 0.0
U2606 U 0.7743 0.15607 0.44482 0.0
O2607 O 0.7637 0.15047 0.44281 0.0
O2608 O 0.77357 0.14397 0.4456 0.0
C2609 C 0.76664 0.14385 0.44341 0.0
C2610 C 0.78131 0.16178 0.43348 0.0
C2611 C 0.76501 0.1387 0.43735 0.0
C2612 C 0.76434 0.13581 0.42425 0.0
C2613 C 0.76585 0.14082 0.42994 0.0
C2614 C 0.76121 0.12648 0.43333 0.0
C2615 C 0.762 0.12857 0.42588 0.0
C2616 C 0.76269 0.13151 0.439 0.0
C2617 C 0.77275 0.16164 0.46528 0.0
C2618 C 0.76932 0.15369 0.47556 0.0
C2619 C 0.77016 0.16692 0.47733 0.0
C2620 C 0.7721 0.1678 0.46991 0.0
C2621 C 0.76884 0.15985 0.48027 0.0
C2622 C 0.77124 0.15458 0.46811 0.0
C2623 C 0.77534 0.16272 0.45766 0.0
O2624 O 0.78405 0.15645 0.43757 0.0
O2625 O 0.77434 0.16323 0.43498 0.0
O2626 O 0.77023 0.16436 0.45275 0.0
O2627 O 0.78022 0.15792 0.45525 0.0
H2628 H 0.78489 0.17172 0.44409 0.0
H2629 H 0.79351 0.18208 0.44308 0.0
H2630 H 0.79715 0.17675 0.42008 0.0
H2631 H 0.78861 0.16629 0.42121 0.0
H2632 H 0.76493 0.13763 0.41858 0.0
H2633 H 0.76767 0.14636 0.42855 0.0
H2634 H 0.75956 0.12093 0.43481 0.0
H2635 H 0.76207 0.12976 0.4447 0.0
H2636 H 0.76826 0.14818 0.47764 0.0
H2637 H 0.76995 0.17177 0.48082 0.0
H2638 H 0.77327 0.17329 0.46783 0.0
H2639 H 0.77166 0.14975 0.4646 0.0
C2640 C 0.84752 0.78612 0.43271 0.0
C2641 C 0.84305 0.78768 0.43885 0.0
C2642 C 0.83567 0.79616 0.43144 0.0
C2643 C 0.83717 0.79265 0.43822 0.0
C2644 C 0.84012 0.79448 0.42528 0.0
C2645 C 0.846 0.7895 0.42592 0.0
U2646 U 0.85962 0.77395 0.44465 0.0
O2647 O 0.86495 0.76326 0.44236 0.0
O2648 O 0.87171 0.77291 0.44525 0.0
C2649 C 0.87165 0.76604 0.4429 0.0
C2650 C 0.8539 0.78116 0.43345 0.0
C2651 C 0.87659 0.7645 0.43664 0.0
C2652 C 0.88091 0.76718 0.42421 0.0
C2653 C 0.87603 0.76855 0.43005 0.0
C2654 C 0.88685 0.7576 0.43144 0.0
C2655 C 0.8864 0.76171 0.42485 0.0
C2656 C 0.882 0.759 0.43729 0.0
C2657 C 0.85441 0.77233 0.46521 0.0
C2658 C 0.86254 0.7687 0.47528 0.0
C2659 C 0.84936 0.76989 0.47739 0.0
C2660 C 0.84834 0.77184 0.47 0.0
C2661 C 0.85648 0.7684 0.48016 0.0
C2662 C 0.86151 0.77063 0.46786 0.0
C2663 C 0.85322 0.77499 0.45762 0.0
O2664 O 0.85934 0.78376 0.4375 0.0
O2665 O 0.8523 0.77423 0.43494 0.0
O2666 O 0.85139 0.76996 0.45271 0.0
O2667 O 0.85807 0.7798 0.45515 0.0
H2668 H 0.84418 0.78514 0.44415 0.0
H2669 H 0.83393 0.79389 0.44309 0.0
H2670 H 0.83906 0.79701 0.41996 0.0
H2671 H 0.8494 0.78834 0.42113 0.0
H2672 H 0.88035 0.77037 0.41918 0.0
H2673 H 0.87186 0.7728 0.42945 0.0
H2674 H 0.89107 0.75341 0.43215 0.0
H2675 H 0.8825 0.75583 0.44234 0.0
H2676 H 0.86808 0.76751 0.47722 0.0
H2677 H 0.84458 0.76981 0.48101 0.0
H2678 H 0.84283 0.77315 0.46805 0.0
H2679 H 0.86626 0.77094 0.46422 0.0
C2680 C 0.23112 0.84642 0.43332 0.0
C2681 C 0.23053 0.8416 0.43937 0.0
C2682 C 0.22096 0.83459 0.433 0.0
C2683 C 0.22551 0.83574 0.4392 0.0
C2684 C 0.22169 0.83936 0.42688 0.0
C2685 C 0.22672 0.84523 0.42706 0.0
U2686 U 0.24343 0.85865 0.44478 0.0
O2687 O 0.254 0.86417 0.44233 0.0
O2688 O 0.2443 0.87072 0.44551 0.0
C2689 C 0.25115 0.8708 0.44309 0.0
C2690 C 0.23601 0.85288 0.43374 0.0
C2691 C 0.25262 0.87598 0.43701 0.0
C2692 C 0.25007 0.88059 0.42466 0.0
C2693 C 0.24884 0.87541 0.43027 0.0
C2694 C 0.25898 0.88687 0.43245 0.0
C2695 C 0.25511 0.88643 0.42572 0.0
C2696 C 0.25774 0.88169 0.43805 0.0
C2697 C 0.24542 0.85332 0.46527 0.0
C2698 C 0.24913 0.86146 0.47528 0.0
C2699 C 0.24787 0.84832 0.47747 0.0
C2700 C 0.24589 0.84728 0.47008 0.0
C2701 C 0.2494 0.85543 0.48019 0.0
C2702 C 0.24718 0.86041 0.46787 0.0
C2703 C 0.24268 0.85213 0.45771 0.0
O2704 O 0.23346 0.85831 0.43782 0.0
O2705 O 0.24302 0.85141 0.43502 0.0
O2706 O 0.24767 0.85044 0.45272 0.0
O2707 O 0.23775 0.85691 0.45535 0.0
H2708 H 0.23387 0.84245 0.44426 0.0
H2709 H 0.22517 0.83211 0.44395 0.0
H2710 H 0.21821 0.83869 0.42206 0.0
H2711 H 0.22708 0.84894 0.42237 0.0
H2712 H 0.24695 0.88013 0.41958 0.0
H2713 H 0.24486 0.87102 0.42939 0.0
H2714 H 0.26299 0.89121 0.43341 0.0
H2715 H 0.26073 0.88219 0.44321 0.0
H2716 H 0.25036 0.867 0.47719 0.0
H2717 H 0.24792 0.84357 0.4811 0.0
H2718 H 0.24453 0.84178 0.46817 0.0
H2719 H 0.24688 0.86514 0.46421 0.0
C2720 C 0.16981 0.2301 0.43299 0.0
C2721 C 0.17469 0.22945 0.43898 0.0
C2722 C 0.18168 0.22001 0.43243 0.0
C2723 C 0.18058 0.22447 0.43869 0.0
C2724 C 0.17684 0.22079 0.42637 0.0
C2725 C 0.17094 0.22579 0.42667 0.0
U2726 U 0.15756 0.2422 0.44466 0.0
O2727 O 0.152 0.25277 0.44234 0.0
O2728 O 0.14546 0.24302 0.44541 0.0
C2729 C 0.14536 0.24989 0.44305 0.0
C2730 C 0.16333 0.23496 0.43352 0.0
C2731 C 0.1402 0.25138 0.43697 0.0
C2732 C 0.13579 0.24905 0.4245 0.0
C2733 C 0.14094 0.24779 0.43014 0.0
C2734 C 0.12921 0.25759 0.43243 0.0
C2735 C 0.12982 0.25392 0.4256 0.0
C2736 C 0.13435 0.25632 0.43806 0.0
C2737 C 0.16294 0.24398 0.46517 0.0
C2738 C 0.15483 0.24753 0.47527 0.0
C2739 C 0.16801 0.2463 0.47736 0.0
C2740 C 0.16901 0.24441 0.46995 0.0
C2741 C 0.16089 0.24777 0.48014 0.0
C2742 C 0.15585 0.24567 0.46783 0.0
C2743 C 0.16411 0.24133 0.45758 0.0
O2744 O 0.15792 0.23233 0.4376 0.0
O2745 O 0.16479 0.24194 0.43488 0.0
O2746 O 0.16578 0.24638 0.45263 0.0
O2747 O 0.15932 0.23643 0.45518 0.0
H2748 H 0.17388 0.23273 0.44392 0.0
H2749 H 0.18426 0.2241 0.4434 0.0
H2750 H 0.17748 0.21739 0.4215 0.0
H2751 H 0.16719 0.22619 0.42202 0.0
H2752 H 0.13639 0.24607 0.41934 0.0
H2753 H 0.14543 0.24394 0.42922 0.0
H2754 H 0.12476 0.26146 0.43343 0.0
H2755 H 0.13372 0.25916 0.44329 0.0
H2756 H 0.14929 0.24871 0.47722 0.0
H2757 H 0.17279 0.24633 0.48097 0.0
H2758 H 0.17452 0.2431 0.46799 0.0
H2759 H 0.15109 0.24539 0.4642 0.0
C2760 C 0.2307 0.16882 0.58293 0.0
C2761 C 0.22922 0.17336 0.57683 0.0
C2762 C 0.22085 0.18081 0.58427 0.0
C2763 C 0.22434 0.17931 0.57749 0.0
C2764 C 0.22247 0.17631 0.59041 0.0
C2765 C 0.22736 0.17036 0.58974 0.0
U2766 U 0.2424 0.15652 0.57079 0.0
O2767 O 0.25282 0.15062 0.57289 0.0
O2768 O 0.24282 0.14441 0.56992 0.0
C2769 C 0.2497 0.14409 0.57223 0.0
C2770 C 0.23543 0.16228 0.58212 0.0
C2771 C 0.25106 0.13884 0.5783 0.0
C2772 C 0.25238 0.13604 0.59138 0.0
C2773 C 0.25125 0.14116 0.5857 0.0
C2774 C 0.25306 0.1262 0.58233 0.0
C2775 C 0.25325 0.12849 0.58975 0.0
C2776 C 0.25199 0.13133 0.57666 0.0
C2777 C 0.2442 0.16208 0.55036 0.0
C2778 C 0.2478 0.154 0.54026 0.0
C2779 C 0.24659 0.16716 0.53818 0.0
C2780 C 0.24466 0.16815 0.54559 0.0
C2781 C 0.24809 0.16007 0.5354 0.0
C2782 C 0.24589 0.155 0.54769 0.0
C2783 C 0.24161 0.16324 0.55797 0.0
O2784 O 0.23262 0.15703 0.57797 0.0
O2785 O 0.24243 0.16364 0.58066 0.0
O2786 O 0.24674 0.16472 0.5629 0.0
O2787 O 0.23659 0.15857 0.56035 0.0
H2788 H 0.23174 0.17221 0.57151 0.0
H2789 H 0.22315 0.18259 0.57263 0.0
H2790 H 0.21995 0.17738 0.59573 0.0
H2791 H 0.22845 0.1669 0.5945 0.0
H2792 H 0.25243 0.13795 0.59704 0.0
H2793 H 0.25047 0.14693 0.58709 0.0
H2794 H 0.25379 0.12044 0.5809 0.0
H2795 H 0.25184 0.12943 0.57098 0.0
H2796 H 0.249 0.14848 0.5383 0.0
H2797 H 0.24666 0.17194 0.53458 0.0
H2798 H 0.24336 0.17365 0.54755 0.0
H2799 H 0.24561 0.15024 0.55132 0.0
C2800 C 0.84701 0.22996 0.58265 0.0
C2801 C 0.84212 0.22941 0.57665 0.0
C2802 C 0.83511 0.21989 0.58308 0.0
C2803 C 0.83622 0.22444 0.57687 0.0
C2804 C 0.83994 0.22058 0.58915 0.0
C2805 C 0.84585 0.22557 0.58892 0.0
U2806 U 0.85952 0.24179 0.57097 0.0
O2807 O 0.86511 0.25236 0.57309 0.0
O2808 O 0.87165 0.24251 0.57042 0.0
C2809 C 0.87174 0.24943 0.57259 0.0
C2810 C 0.85354 0.23477 0.58215 0.0
C2811 C 0.87682 0.25107 0.57872 0.0
C2812 C 0.87964 0.25151 0.59185 0.0
C2813 C 0.87469 0.24998 0.5861 0.0
C2814 C 0.8889 0.25517 0.58288 0.0
C2815 C 0.88682 0.25413 0.59031 0.0
C2816 C 0.88395 0.25366 0.57716 0.0
C2817 C 0.85432 0.24327 0.55037 0.0
C2818 C 0.86247 0.24663 0.54022 0.0
C2819 C 0.84927 0.24559 0.53817 0.0
C2820 C 0.84825 0.24377 0.54559 0.0
C2821 C 0.8564 0.24694 0.53536 0.0
C2822 C 0.86144 0.24483 0.54768 0.0
C2823 C 0.85311 0.24074 0.558 0.0
O2824 O 0.85898 0.23205 0.5782 0.0
O2825 O 0.85216 0.24175 0.58066 0.0
O2826 O 0.85139 0.24586 0.56284 0.0
O2827 O 0.85787 0.23587 0.56052 0.0
H2828 H 0.84295 0.23275 0.57175 0.0
H2829 H 0.83254 0.22414 0.57216 0.0
H2830 H 0.8393 0.2171 0.59398 0.0
H2831 H 0.84961 0.2259 0.59357 0.0
H2832 H 0.87782 0.25072 0.59749 0.0
H2833 H 0.8692 0.24795 0.58741 0.0
H2834 H 0.89442 0.25704 0.58148 0.0
H2835 H 0.8857 0.25448 0.57149 0.0
H2836 H 0.86803 0.24772 0.53825 0.0
H2837 H 0.84448 0.24568 0.53456 0.0
H2838 H 0.84272 0.24256 0.54757 0.0
H2839 H 0.8662 0.24451 0.55131 0.0
C2840 C 0.16952 0.78544 0.58231 0.0
C2841 C 0.17426 0.78615 0.57621 0.0
C2842 C 0.18145 0.79547 0.58273 0.0
C2843 C 0.18017 0.79111 0.57642 0.0
C2844 C 0.17675 0.79463 0.58888 0.0
C2845 C 0.17083 0.78966 0.58866 0.0
U2846 U 0.15709 0.77314 0.57097 0.0
O2847 O 0.15162 0.76258 0.57358 0.0
O2848 O 0.14498 0.77225 0.5705 0.0
C2849 C 0.14496 0.76544 0.57301 0.0
C2850 C 0.16304 0.78056 0.5819 0.0
C2851 C 0.14003 0.76409 0.57932 0.0
C2852 C 0.13577 0.7671 0.59169 0.0
C2853 C 0.14063 0.7683 0.5858 0.0
C2854 C 0.12975 0.75737 0.58474 0.0
C2855 C 0.13025 0.76163 0.59122 0.0
C2856 C 0.1346 0.7586 0.57884 0.0
C2857 C 0.16219 0.77103 0.5504 0.0
C2858 C 0.15403 0.76776 0.54023 0.0
C2859 C 0.1673 0.76811 0.53835 0.0
C2860 C 0.1683 0.7701 0.54573 0.0
C2861 C 0.16015 0.76703 0.53547 0.0
C2862 C 0.15505 0.76972 0.54764 0.0
C2863 C 0.16341 0.7738 0.55794 0.0
O2864 O 0.15757 0.78312 0.57786 0.0
O2865 O 0.1645 0.77357 0.58062 0.0
O2866 O 0.16519 0.76885 0.56295 0.0
O2867 O 0.15864 0.77872 0.56032 0.0
H2868 H 0.17331 0.78293 0.57125 0.0
H2869 H 0.18374 0.79154 0.57163 0.0
H2870 H 0.17752 0.79796 0.59378 0.0
H2871 H 0.16719 0.7892 0.5934 0.0
H2872 H 0.13636 0.77042 0.59664 0.0
H2873 H 0.14483 0.77255 0.58627 0.0
H2874 H 0.12552 0.75317 0.58416 0.0
H2875 H 0.13406 0.7553 0.57388 0.0
H2876 H 0.14847 0.76688 0.5382 0.0
H2877 H 0.17212 0.7677 0.53482 0.0
H2878 H 0.17385 0.77111 0.54776 0.0
H2879 H 0.15025 0.77037 0.55118 0.0
C2880 C 0.43397 0.22957 0.16876 0.0
C2881 C 0.44002 0.22901 0.17358 0.0
C2882 C 0.43358 0.21958 0.18071 0.0
C2883 C 0.43982 0.22407 0.17951 0.0
C2884 C 0.42747 0.22027 0.17593 0.0
C2885 C 0.42768 0.22523 0.16999 0.0
U2886 U 0.44538 0.24181 0.15634 0.0
O2887 O 0.44593 0.24265 0.14424 0.0
O2888 O 0.44284 0.25235 0.15082 0.0
C2889 C 0.44344 0.24946 0.14418 0.0
C2890 C 0.43439 0.23441 0.16226 0.0
C2891 C 0.43716 0.25082 0.1392 0.0
C2892 C 0.42481 0.24783 0.13484 0.0
C2893 C 0.43066 0.24662 0.13975 0.0
C2894 C 0.43184 0.25755 0.12888 0.0
C2895 C 0.42534 0.25329 0.12933 0.0
C2896 C 0.4377 0.25631 0.13377 0.0
C2897 C 0.46596 0.24388 0.16159 0.0
C2898 C 0.47623 0.24709 0.15354 0.0
C2899 C 0.47799 0.24672 0.16681 0.0
C2900 C 0.47057 0.24478 0.16774 0.0
C2901 C 0.48095 0.24778 0.1597 0.0
C2902 C 0.46879 0.24517 0.15448 0.0
C2903 C 0.45838 0.24114 0.16275 0.0
O2904 O 0.43568 0.24142 0.16368 0.0
O2905 O 0.43845 0.23183 0.15683 0.0
O2906 O 0.45601 0.23621 0.15797 0.0
O2907 O 0.45338 0.24611 0.16447 0.0
H2908 H 0.44494 0.23232 0.1727 0.0
H2909 H 0.44457 0.22376 0.18315 0.0
H2910 H 0.42261 0.21684 0.17664 0.0
H2911 H 0.42298 0.22557 0.16629 0.0
H2912 H 0.41984 0.24452 0.13539 0.0
H2913 H 0.43014 0.24237 0.14394 0.0
H2914 H 0.43247 0.26174 0.12466 0.0
H2915 H 0.44269 0.2596 0.13328 0.0
H2916 H 0.47832 0.24795 0.148 0.0
H2917 H 0.48147 0.24711 0.17166 0.0
H2918 H 0.46849 0.24378 0.17326 0.0
H2919 H 0.46529 0.24453 0.14966 0.0
C2920 C 0.78629 0.43376 0.16928 0.0
C2921 C 0.78979 0.44012 0.17198 0.0
C2922 C 0.79597 0.43286 0.18149 0.0
C2923 C 0.79461 0.43967 0.17799 0.0
C2924 C 0.79236 0.42651 0.17881 0.0
C2925 C 0.78757 0.42696 0.17275 0.0
U2926 U 0.77401 0.44521 0.15689 0.0
O2927 O 0.77292 0.44559 0.14481 0.0
O2928 O 0.7633 0.44274 0.15164 0.0
C2929 C 0.76605 0.44319 0.14493 0.0
C2930 C 0.7813 0.43421 0.16288 0.0
C2931 C 0.76454 0.43685 0.14009 0.0
C2932 C 0.7673 0.4244 0.13596 0.0
C2933 C 0.76861 0.43029 0.14078 0.0
C2934 C 0.75775 0.43151 0.12983 0.0
C2935 C 0.76189 0.42495 0.1304 0.0
C2936 C 0.75908 0.43741 0.13463 0.0
C2937 C 0.77236 0.46586 0.16184 0.0
C2938 C 0.76893 0.47599 0.15372 0.0
C2939 C 0.76976 0.47798 0.16693 0.0
C2940 C 0.7717 0.47058 0.16793 0.0
C2941 C 0.76845 0.48081 0.15981 0.0
C2942 C 0.77085 0.46857 0.15473 0.0
C2943 C 0.77503 0.45828 0.16306 0.0
O2944 O 0.77435 0.43567 0.16445 0.0
O2945 O 0.78383 0.43809 0.15727 0.0
O2946 O 0.77982 0.45577 0.15821 0.0
O2947 O 0.77001 0.45339 0.16497 0.0
H2948 H 0.78884 0.44544 0.16939 0.0
H2949 H 0.79737 0.44466 0.17981 0.0
H2950 H 0.79318 0.42119 0.18143 0.0
H2951 H 0.78486 0.422 0.17077 0.0
H2952 H 0.77052 0.41939 0.1366 0.0
H2953 H 0.77283 0.42976 0.145 0.0
H2954 H 0.7536 0.43216 0.12556 0.0
H2955 H 0.7559 0.44245 0.13403 0.0
H2956 H 0.76788 0.47798 0.14817 0.0
H2957 H 0.76955 0.48154 0.17173 0.0
H2958 H 0.77287 0.46859 0.17346 0.0
H2959 H 0.77129 0.46498 0.14996 0.0
C2960 C 0.58296 0.78551 0.16865 0.0
C2961 C 0.57686 0.78624 0.17338 0.0
C2962 C 0.58343 0.79553 0.18056 0.0
C2963 C 0.5771 0.79119 0.17929 0.0
C2964 C 0.58958 0.79468 0.17587 0.0
C2965 C 0.58934 0.78971 0.16995 0.0
U2966 U 0.57159 0.77318 0.1563 0.0
O2967 O 0.57105 0.7723 0.1442 0.0
O2968 O 0.57419 0.76264 0.15082 0.0
C2969 C 0.57358 0.76549 0.14417 0.0
C2970 C 0.58254 0.78064 0.16218 0.0
C2971 C 0.57986 0.76416 0.13921 0.0
C2972 C 0.59221 0.76721 0.13486 0.0
C2973 C 0.58634 0.7684 0.13976 0.0
C2974 C 0.58523 0.75746 0.12891 0.0
C2975 C 0.59171 0.76174 0.12936 0.0
C2976 C 0.57936 0.75867 0.13379 0.0
C2977 C 0.55103 0.77098 0.16148 0.0
C2978 C 0.54084 0.76764 0.15336 0.0
C2979 C 0.53899 0.76801 0.16662 0.0
C2980 C 0.54638 0.77004 0.16759 0.0
C2981 C 0.53609 0.76691 0.15948 0.0
C2982 C 0.54826 0.76965 0.15435 0.0
C2983 C 0.55857 0.77379 0.16268 0.0
O2984 O 0.58128 0.77364 0.16365 0.0
O2985 O 0.57846 0.78319 0.15674 0.0
O2986 O 0.56092 0.77873 0.15789 0.0
O2987 O 0.5636 0.76886 0.16443 0.0
H2988 H 0.57189 0.78304 0.17244 0.0
H2989 H 0.57231 0.79163 0.18286 0.0
H2990 H 0.59451 0.798 0.17664 0.0
H2991 H 0.59408 0.78924 0.16632 0.0
H2992 H 0.59716 0.77054 0.13541 0.0
H2993 H 0.58684 0.77264 0.14395 0.0
H2994 H 0.58463 0.75327 0.12469 0.0
H2995 H 0.57439 0.75536 0.13329 0.0
H2996 H 0.5388 0.76675 0.1478 0.0
H2997 H 0.53547 0.76759 0.17144 0.0
H2998 H 0.54841 0.77107 0.17313 0.0
H2999 H 0.55179 0.77031 0.14955 0.0
C3000 C 0.23023 0.58251 0.1687 0.0
C3001 C 0.22871 0.57641 0.17324 0.0
C3002 C 0.2203 0.58387 0.18064 0.0
C3003 C 0.2238 0.57709 0.17916 0.0
C3004 C 0.22194 0.58999 0.17612 0.0
C3005 C 0.22686 0.58931 0.17019 0.0
U3006 U 0.24234 0.5705 0.15664 0.0
O3007 O 0.24325 0.56974 0.14456 0.0
O3008 O 0.25297 0.57278 0.15116 0.0
C3009 C 0.25011 0.57215 0.14451 0.0
C3010 C 0.23513 0.58173 0.16228 0.0
C3011 C 0.25155 0.57837 0.13949 0.0
C3012 C 0.2488 0.59079 0.13522 0.0
C3013 C 0.24755 0.58498 0.14015 0.0
C3014 C 0.25816 0.5835 0.129 0.0
C3015 C 0.2541 0.59011 0.12956 0.0
C3016 C 0.25688 0.57768 0.13392 0.0
C3017 C 0.2441 0.55002 0.16212 0.0
C3018 C 0.24759 0.53983 0.15412 0.0
C3019 C 0.24669 0.53795 0.16735 0.0
C3020 C 0.24473 0.54536 0.16826 0.0
C3021 C 0.24804 0.53507 0.16026 0.0
C3022 C 0.24566 0.54726 0.15505 0.0
C3023 C 0.24142 0.55761 0.16323 0.0
O3024 O 0.24209 0.5803 0.16383 0.0
O3025 O 0.23249 0.57759 0.15694 0.0
O3026 O 0.23654 0.55999 0.1584 0.0
O3027 O 0.24646 0.56257 0.16493 0.0
H3028 H 0.23125 0.57111 0.17213 0.0
H3029 H 0.22259 0.57224 0.18246 0.0
H3030 H 0.21942 0.59532 0.17716 0.0
H3031 H 0.22799 0.59407 0.16674 0.0
H3032 H 0.24566 0.59584 0.13585 0.0
H3033 H 0.24344 0.58562 0.14446 0.0
H3034 H 0.26221 0.58276 0.12466 0.0
H3035 H 0.26 0.57261 0.13334 0.0
H3036 H 0.24867 0.5378 0.1486 0.0
H3037 H 0.24689 0.53443 0.17218 0.0
H3038 H 0.24353 0.54739 0.17376 0.0
H3039 H 0.24524 0.5508 0.15024 0.0
C3040 C 0.43331 0.78505 0.84717 0.0
C3041 C 0.43941 0.78658 0.84264 0.0
C3042 C 0.43196 0.79502 0.83527 0.0
C3043 C 0.43875 0.79151 0.83674 0.0
C3044 C 0.42582 0.79337 0.83978 0.0
C3045 C 0.4265 0.78843 0.84569 0.0
U3046 U 0.44553 0.77318 0.85921 0.0
O3047 O 0.44636 0.77234 0.87131 0.0
O3048 O 0.44357 0.76254 0.86473 0.0
C3049 C 0.44419 0.76541 0.87138 0.0
C3050 C 0.43412 0.78018 0.85361 0.0
C3051 C 0.43815 0.76372 0.87654 0.0
C3052 C 0.42506 0.76314 0.87953 0.0
C3053 C 0.43073 0.76471 0.8745 0.0
C3054 C 0.43419 0.75965 0.88869 0.0
C3055 C 0.42671 0.76059 0.88669 0.0
C3056 C 0.43984 0.76119 0.88365 0.0
C3057 C 0.46599 0.77173 0.85357 0.0
C3058 C 0.47625 0.7682 0.8615 0.0
C3059 C 0.47805 0.7692 0.84827 0.0
C3060 C 0.47063 0.77116 0.8474 0.0
C3061 C 0.48098 0.76779 0.85533 0.0
C3062 C 0.4688 0.77013 0.86062 0.0
C3063 C 0.45835 0.77432 0.85251 0.0
O3064 O 0.43565 0.77325 0.85209 0.0
O3065 O 0.43824 0.78289 0.85895 0.0
O3066 O 0.45594 0.77915 0.85737 0.0
O3067 O 0.45345 0.76923 0.85085 0.0
H3068 H 0.44473 0.78404 0.84375 0.0
H3069 H 0.4436 0.79273 0.83345 0.0
H3070 H 0.4205 0.79591 0.83874 0.0
H3071 H 0.42174 0.78731 0.84914 0.0
H3072 H 0.41938 0.76386 0.87777 0.0
H3073 H 0.42933 0.7667 0.86903 0.0
H3074 H 0.43568 0.75783 0.89419 0.0
H3075 H 0.44554 0.76045 0.88533 0.0
H3076 H 0.47832 0.76706 0.867 0.0
H3077 H 0.48155 0.76905 0.84341 0.0
H3078 H 0.46855 0.7724 0.84192 0.0
H3079 H 0.46528 0.77049 0.86545 0.0
C3080 C 0.23076 0.43258 0.84738 0.0
C3081 C 0.22938 0.43866 0.84278 0.0
C3082 C 0.22089 0.43129 0.83538 0.0
C3083 C 0.2245 0.43802 0.83683 0.0
C3084 C 0.22238 0.42518 0.83996 0.0
C3085 C 0.22728 0.42583 0.84591 0.0
U3086 U 0.24269 0.4447 0.85944 0.0
O3087 O 0.24349 0.4456 0.87152 0.0
O3088 O 0.2533 0.4426 0.86503 0.0
C3089 C 0.25039 0.44331 0.87166 0.0
C3090 C 0.23561 0.43336 0.85384 0.0
C3091 C 0.25192 0.43725 0.87683 0.0
C3092 C 0.24979 0.42471 0.88111 0.0
C3093 C 0.2485 0.43035 0.87598 0.0
C3094 C 0.25802 0.4328 0.88791 0.0
C3095 C 0.25453 0.42589 0.88718 0.0
C3096 C 0.25672 0.43843 0.88279 0.0
C3097 C 0.24425 0.46513 0.85373 0.0
C3098 C 0.24759 0.47546 0.86164 0.0
C3099 C 0.24668 0.47718 0.84839 0.0
C3100 C 0.24483 0.46974 0.84755 0.0
C3101 C 0.24798 0.48016 0.85545 0.0
C3102 C 0.24576 0.46799 0.86078 0.0
C3103 C 0.24168 0.45749 0.8527 0.0
O3104 O 0.24258 0.43482 0.85236 0.0
O3105 O 0.2329 0.43749 0.85916 0.0
O3106 O 0.23679 0.45511 0.85753 0.0
O3107 O 0.24678 0.45258 0.8511 0.0
H3108 H 0.232 0.44393 0.84386 0.0
H3109 H 0.2234 0.44287 0.83349 0.0
H3110 H 0.21977 0.41989 0.83894 0.0
H3111 H 0.22829 0.42108 0.84942 0.0
H3112 H 0.24696 0.41948 0.88042 0.0
H3113 H 0.24476 0.42936 0.87141 0.0
H3114 H 0.26179 0.43386 0.89244 0.0
H3115 H 0.25942 0.44372 0.8835 0.0
H3116 H 0.24863 0.47757 0.86714 0.0
H3117 H 0.24683 0.48066 0.84351 0.0
H3118 H 0.24367 0.46763 0.84207 0.0
H3119 H 0.24538 0.46449 0.86563 0.0
C3120 C 0.58279 0.23008 0.84745 0.0
C3121 C 0.57682 0.22961 0.84252 0.0
C3122 C 0.58323 0.2201 0.83549 0.0
C3123 C 0.57704 0.22468 0.83659 0.0
C3124 C 0.58928 0.22072 0.84037 0.0
C3125 C 0.58904 0.22566 0.84631 0.0
U3126 U 0.57116 0.24216 0.85972 0.0
O3127 O 0.57029 0.24285 0.8718 0.0
O3128 O 0.57352 0.25264 0.86541 0.0
C3129 C 0.5727 0.2497 0.872 0.0
C3130 C 0.58229 0.23486 0.85398 0.0
C3131 C 0.57875 0.25109 0.87724 0.0
C3132 C 0.59122 0.24875 0.88166 0.0
C3133 C 0.58561 0.24756 0.87646 0.0
C3134 C 0.58318 0.25706 0.88839 0.0
C3135 C 0.59005 0.25347 0.88773 0.0
C3136 C 0.57758 0.25588 0.88319 0.0
C3137 C 0.55072 0.24418 0.85407 0.0
C3138 C 0.54041 0.24751 0.86203 0.0
C3139 C 0.53868 0.24683 0.84877 0.0
C3140 C 0.5461 0.24491 0.8479 0.0
C3141 C 0.53571 0.24804 0.85585 0.0
C3142 C 0.54787 0.24562 0.86114 0.0
C3143 C 0.55831 0.24148 0.853 0.0
O3144 O 0.58103 0.24188 0.8526 0.0
O3145 O 0.57814 0.23222 0.85933 0.0
O3146 O 0.5606 0.23651 0.85777 0.0
O3147 O 0.56333 0.2465 0.85145 0.0
H3148 H 0.57193 0.23297 0.84334 0.0
H3149 H 0.57235 0.22444 0.83289 0.0
H3150 H 0.59409 0.21722 0.83973 0.0
H3151 H 0.59368 0.22592 0.8501 0.0
H3152 H 0.59641 0.24584 0.88102 0.0
H3153 H 0.58659 0.24383 0.87188 0.0
H3154 H 0.58212 0.26083 0.89292 0.0
H3155 H 0.57232 0.25866 0.88386 0.0
H3156 H 0.53832 0.24849 0.86755 0.0
H3157 H 0.5352 0.24708 0.8439 0.0
H3158 H 0.54821 0.24379 0.8424 0.0
H3159 H 0.55137 0.24512 0.86598 0.0
C3160 C 0.78621 0.58291 0.84739 0.0
C3161 C 0.78771 0.5768 0.84288 0.0
C3162 C 0.79617 0.5842 0.83547 0.0
C3163 C 0.79264 0.57743 0.83697 0.0
C3164 C 0.79455 0.59034 0.83995 0.0
C3165 C 0.78961 0.58969 0.84587 0.0
U3166 U 0.77431 0.5708 0.85952 0.0
O3167 O 0.77352 0.57003 0.87163 0.0
O3168 O 0.76369 0.57282 0.86507 0.0
C3169 C 0.7666 0.57224 0.87171 0.0
C3170 C 0.78135 0.58213 0.85385 0.0
C3171 C 0.76498 0.57834 0.87682 0.0
C3172 C 0.76439 0.59145 0.87962 0.0
C3173 C 0.76588 0.58572 0.87465 0.0
C3174 C 0.76116 0.58245 0.889 0.0
C3175 C 0.76202 0.58988 0.88687 0.0
C3176 C 0.76262 0.57674 0.88401 0.0
C3177 C 0.77277 0.55024 0.85382 0.0
C3178 C 0.77311 0.5384 0.8602 0.0
C3179 C 0.7669 0.53944 0.84839 0.0
C3180 C 0.76867 0.54695 0.84812 0.0
C3181 C 0.76926 0.53503 0.85434 0.0
C3182 C 0.77485 0.54593 0.85994 0.0
C3183 C 0.77534 0.55794 0.85291 0.0
O3184 O 0.77439 0.58062 0.85235 0.0
O3185 O 0.78407 0.57804 0.85919 0.0
O3186 O 0.78024 0.56038 0.8577 0.0
O3187 O 0.77028 0.56287 0.85121 0.0
H3188 H 0.78516 0.5715 0.84402 0.0
H3189 H 0.79384 0.57257 0.83371 0.0
H3190 H 0.7971 0.59565 0.83889 0.0
H3191 H 0.7885 0.59447 0.8493 0.0
H3192 H 0.76504 0.5971 0.87776 0.0
H3193 H 0.76774 0.58706 0.86911 0.0
H3194 H 0.75948 0.58102 0.89456 0.0
H3195 H 0.76195 0.57106 0.8858 0.0
H3196 H 0.77508 0.53517 0.86483 0.0
H3197 H 0.76381 0.53707 0.84385 0.0
H3198 H 0.767 0.55015 0.84334 0.0
H3199 H 0.77803 0.5483 0.86443 0.0
C3200 C 0.16987 0.43245 0.22972 0.0
C3201 C 0.17438 0.43857 0.22814 0.0
C3202 C 0.18172 0.43113 0.21967 0.0
C3203 C 0.18025 0.43791 0.22317 0.0
C3204 C 0.17723 0.42499 0.22135 0.0
C3205 C 0.17136 0.42566 0.22634 0.0
U3206 U 0.15786 0.44446 0.24187 0.0
O3207 O 0.14578 0.44515 0.24291 0.0
O3208 O 0.15251 0.44222 0.25257 0.0
C3209 C 0.14582 0.44279 0.24979 0.0
C3210 C 0.1635 0.43322 0.23468 0.0
C3211 C 0.14085 0.43656 0.25132 0.0
C3212 C 0.13658 0.42411 0.24869 0.0
C3213 C 0.14147 0.42994 0.24734 0.0
C3214 C 0.13048 0.43141 0.25811 0.0
C3215 C 0.131 0.42479 0.25407 0.0
C3216 C 0.13536 0.43725 0.25673 0.0
C3217 C 0.16325 0.46498 0.24343 0.0
C3218 C 0.15522 0.47517 0.24687 0.0
C3219 C 0.16845 0.47707 0.24594 0.0
C3220 C 0.16938 0.46966 0.24403 0.0
C3221 C 0.16135 0.47995 0.24728 0.0
C3222 C 0.15616 0.46774 0.24498 0.0
C3223 C 0.16437 0.45738 0.24079 0.0
O3224 O 0.16511 0.4347 0.24161 0.0
O3225 O 0.15809 0.43731 0.23207 0.0
O3226 O 0.15949 0.45494 0.23599 0.0
O3227 O 0.16616 0.45247 0.24584 0.0
H3228 H 0.17328 0.44387 0.23069 0.0
H3229 H 0.18352 0.44277 0.22192 0.0
H3230 H 0.17827 0.41967 0.21883 0.0
H3231 H 0.16793 0.42089 0.22751 0.0
H3232 H 0.13718 0.41906 0.24555 0.0
H3233 H 0.14572 0.42931 0.24316 0.0
H3234 H 0.1262 0.43215 0.26223 0.0
H3235 H 0.13481 0.44233 0.25985 0.0
H3236 H 0.14969 0.4772 0.24795 0.0
H3237 H 0.17329 0.48061 0.24611 0.0
H3238 H 0.17489 0.46763 0.24283 0.0
H3239 H 0.15135 0.46418 0.24458 0.0
C3240 C 0.58375 0.16786 0.22991 0.0
C3241 C 0.57763 0.17237 0.22841 0.0
C3242 C 0.58506 0.17985 0.22004 0.0
C3243 C 0.57827 0.17832 0.22353 0.0
C3244 C 0.59121 0.17536 0.22165 0.0
C3245 C 0.59055 0.16941 0.22655 0.0
U3246 U 0.57162 0.15576 0.24181 0.0
O3247 O 0.57072 0.14369 0.2426 0.0
O3248 O 0.57373 0.15016 0.2524 0.0
C3249 C 0.573 0.14355 0.2495 0.0
C3250 C 0.58297 0.1614 0.23475 0.0
C3251 C 0.57906 0.13837 0.25103 0.0
C3252 C 0.59159 0.13402 0.2489 0.0
C3253 C 0.58596 0.13917 0.24759 0.0
C3254 C 0.58348 0.12731 0.25719 0.0
C3255 C 0.5904 0.128 0.25367 0.0
C3256 C 0.57787 0.13245 0.25587 0.0
C3257 C 0.55116 0.16137 0.2434 0.0
C3258 C 0.54096 0.15338 0.247 0.0
C3259 C 0.539 0.16655 0.24568 0.0
C3260 C 0.54643 0.16748 0.24379 0.0
C3261 C 0.53615 0.15948 0.24721 0.0
C3262 C 0.54842 0.15432 0.24513 0.0
C3263 C 0.55879 0.16246 0.24081 0.0
O3264 O 0.5815 0.16288 0.24171 0.0
O3265 O 0.57883 0.15608 0.23204 0.0
O3266 O 0.56118 0.15766 0.23592 0.0
O3267 O 0.56371 0.16407 0.24591 0.0
H3268 H 0.57231 0.17122 0.23094 0.0
H3269 H 0.5734 0.18159 0.22234 0.0
H3270 H 0.59654 0.17644 0.21913 0.0
H3271 H 0.59533 0.16598 0.22765 0.0
H3272 H 0.59681 0.13468 0.24604 0.0
H3273 H 0.58696 0.14371 0.24382 0.0
H3274 H 0.58241 0.12281 0.26099 0.0
H3275 H 0.57257 0.13177 0.2586 0.0
H3276 H 0.53896 0.14788 0.24823 0.0
H3277 H 0.53543 0.17136 0.24569 0.0
H3278 H 0.54844 0.17295 0.24245 0.0
H3279 H 0.55201 0.14954 0.2449 0.0
C3280 C 0.84772 0.58224 0.23053 0.0
C3281 C 0.84274 0.57632 0.23006 0.0
C3282 C 0.83578 0.58277 0.22051 0.0
C3283 C 0.83682 0.57659 0.22512 0.0
C3284 C 0.84071 0.58876 0.22112 0.0
C3285 C 0.84665 0.58848 0.22609 0.0
U3286 U 0.85993 0.57055 0.24263 0.0
O3287 O 0.87203 0.56965 0.24338 0.0
O3288 O 0.86559 0.57284 0.25316 0.0
C3289 C 0.8722 0.57203 0.25024 0.0
C3290 C 0.85424 0.5817 0.23534 0.0
C3291 C 0.87746 0.57805 0.25168 0.0
C3292 C 0.88204 0.59043 0.24926 0.0
C3293 C 0.87681 0.58486 0.24803 0.0
C3294 C 0.88851 0.58247 0.25787 0.0
C3295 C 0.88799 0.58928 0.25415 0.0
C3296 C 0.88329 0.57691 0.25663 0.0
C3297 C 0.85425 0.55013 0.24455 0.0
C3298 C 0.86219 0.53984 0.24794 0.0
C3299 C 0.84892 0.5381 0.24712 0.0
C3300 C 0.84806 0.54552 0.24521 0.0
C3301 C 0.856 0.53513 0.2484 0.0
C3302 C 0.86131 0.54729 0.24605 0.0
C3303 C 0.85319 0.55773 0.24188 0.0
O3304 O 0.85284 0.58041 0.24236 0.0
O3305 O 0.85959 0.57756 0.23271 0.0
O3306 O 0.85799 0.56003 0.23693 0.0
O3307 O 0.85163 0.56272 0.24691 0.0
H3308 H 0.84351 0.57144 0.23345 0.0
H3309 H 0.83307 0.57193 0.22488 0.0
H3310 H 0.84013 0.59356 0.2176 0.0
H3311 H 0.85048 0.59308 0.22635 0.0
H3312 H 0.88151 0.59558 0.24625 0.0
H3313 H 0.87233 0.58582 0.24418 0.0
H3314 H 0.89294 0.58143 0.26176 0.0
H3315 H 0.88384 0.57169 0.25951 0.0
H3316 H 0.8677 0.53775 0.24896 0.0
H3317 H 0.84405 0.53462 0.24732 0.0
H3318 H 0.84257 0.54762 0.24406 0.0
H3319 H 0.86616 0.55079 0.24561 0.0
C3320 C 0.43417 0.84668 0.23053 0.0
C3321 C 0.44028 0.84197 0.22979 0.0
C3322 C 0.43371 0.83477 0.22051 0.0
C3323 C 0.44005 0.83606 0.22484 0.0
C3324 C 0.42755 0.83944 0.22139 0.0
C3325 C 0.42779 0.84536 0.22635 0.0
U3326 U 0.4456 0.85911 0.24273 0.0
O3327 O 0.44609 0.8712 0.2436 0.0
O3328 O 0.44308 0.86458 0.25331 0.0
C3329 C 0.44363 0.87122 0.25043 0.0
C3330 C 0.4346 0.85316 0.2354 0.0
C3331 C 0.43733 0.87615 0.25182 0.0
C3332 C 0.42494 0.88044 0.24887 0.0
C3333 C 0.43081 0.87557 0.24764 0.0
C3334 C 0.43198 0.88642 0.25857 0.0
C3335 C 0.42547 0.88595 0.25433 0.0
C3336 C 0.43786 0.88157 0.25731 0.0
C3337 C 0.46621 0.85406 0.24468 0.0
C3338 C 0.47628 0.86226 0.24814 0.0
C3339 C 0.47839 0.84907 0.24728 0.0
C3340 C 0.47099 0.84802 0.24534 0.0
C3341 C 0.48116 0.85622 0.24859 0.0
C3342 C 0.46886 0.86119 0.24622 0.0
C3343 C 0.45864 0.85281 0.24197 0.0
O3344 O 0.43594 0.85171 0.24239 0.0
O3345 O 0.43862 0.85862 0.2328 0.0
O3346 O 0.45621 0.85757 0.23706 0.0
O3347 O 0.45368 0.85103 0.24697 0.0
H3348 H 0.44526 0.84293 0.23298 0.0
H3349 H 0.44485 0.83251 0.22439 0.0
H3350 H 0.42261 0.83866 0.21808 0.0
H3351 H 0.42304 0.84898 0.22683 0.0
H3352 H 0.41997 0.87987 0.24558 0.0
H3353 H 0.4303 0.87138 0.2434 0.0
H3354 H 0.4326 0.89065 0.26275 0.0
H3355 H 0.44285 0.8821 0.26058 0.0
H3356 H 0.47823 0.86782 0.2492 0.0
H3357 H 0.482 0.84431 0.24748 0.0
H3358 H 0.46904 0.84248 0.24415 0.0
H3359 H 0.46523 0.86593 0.24578 0.0
C3360 C 0.169 0.58249 0.78579 0.0
C3361 C 0.17365 0.57644 0.78716 0.0
C3362 C 0.18112 0.58389 0.79552 0.0
C3363 C 0.17965 0.57713 0.79197 0.0
C3364 C 0.17649 0.58997 0.79404 0.0
C3365 C 0.17048 0.58927 0.78922 0.0
U3366 U 0.15679 0.57029 0.77408 0.0
O3367 O 0.14469 0.56939 0.77342 0.0
O3368 O 0.15108 0.57234 0.76353 0.0
C3369 C 0.14448 0.57163 0.76651 0.0
C3370 C 0.16248 0.58166 0.78103 0.0
C3371 C 0.13929 0.57768 0.76499 0.0
C3372 C 0.13504 0.59024 0.76703 0.0
C3373 C 0.14018 0.58461 0.76833 0.0
C3374 C 0.12813 0.58207 0.75898 0.0
C3375 C 0.12891 0.58902 0.76239 0.0
C3376 C 0.13327 0.57646 0.76028 0.0
C3377 C 0.16241 0.54985 0.77255 0.0
C3378 C 0.1544 0.53966 0.76903 0.0
C3379 C 0.16759 0.5377 0.77033 0.0
C3380 C 0.16853 0.54513 0.77217 0.0
C3381 C 0.16051 0.53484 0.76883 0.0
C3382 C 0.15535 0.54712 0.77085 0.0
C3383 C 0.16352 0.55749 0.77509 0.0
O3384 O 0.1639 0.58016 0.77406 0.0
O3385 O 0.15719 0.57753 0.78381 0.0
O3386 O 0.15875 0.55989 0.78001 0.0
O3387 O 0.16508 0.56238 0.76995 0.0
H3388 H 0.17255 0.57115 0.78458 0.0
H3389 H 0.18303 0.57231 0.79305 0.0
H3390 H 0.17751 0.59527 0.79662 0.0
H3391 H 0.16694 0.59399 0.78822 0.0
H3392 H 0.13577 0.59549 0.7698 0.0
H3393 H 0.14481 0.58564 0.772 0.0
H3394 H 0.12355 0.58098 0.75528 0.0
H3395 H 0.13252 0.57114 0.75764 0.0
H3396 H 0.14889 0.53765 0.76783 0.0
H3397 H 0.1724 0.53413 0.77033 0.0
H3398 H 0.17402 0.54714 0.77349 0.0
H3399 H 0.15056 0.55071 0.77107 0.0
C3400 C 0.43393 0.1685 0.7854 0.0
C3401 C 0.43989 0.17343 0.78593 0.0
C3402 C 0.43342 0.18039 0.79544 0.0
C3403 C 0.43963 0.17933 0.79089 0.0
C3404 C 0.42739 0.17551 0.79478 0.0
C3405 C 0.42765 0.1696 0.7898 0.0
U3406 U 0.44557 0.15631 0.77322 0.0
O3407 O 0.44639 0.14423 0.77243 0.0
O3408 O 0.4432 0.15072 0.76268 0.0
C3409 C 0.44399 0.1441 0.76557 0.0
C3410 C 0.43445 0.16201 0.78056 0.0
C3411 C 0.43793 0.13889 0.76412 0.0
C3412 C 0.42551 0.13436 0.76651 0.0
C3413 C 0.43111 0.13955 0.76775 0.0
C3414 C 0.43348 0.12787 0.75792 0.0
C3415 C 0.42665 0.12841 0.76163 0.0
C3416 C 0.43906 0.13306 0.75917 0.0
C3417 C 0.46604 0.16184 0.77124 0.0
C3418 C 0.47628 0.15383 0.76784 0.0
C3419 C 0.4781 0.16707 0.76854 0.0
C3420 C 0.47069 0.16798 0.77049 0.0
C3421 C 0.48102 0.15998 0.7673 0.0
C3422 C 0.46884 0.15475 0.76978 0.0
C3423 C 0.45845 0.16294 0.77395 0.0
O3424 O 0.43573 0.16345 0.77355 0.0
O3425 O 0.43858 0.15665 0.78316 0.0
O3426 O 0.45613 0.15816 0.7789 0.0
O3427 O 0.45344 0.16457 0.76895 0.0
H3428 H 0.4448 0.17264 0.78258 0.0
H3429 H 0.44432 0.18304 0.79118 0.0
H3430 H 0.42255 0.17612 0.79826 0.0
H3431 H 0.42302 0.16582 0.78949 0.0
H3432 H 0.42035 0.1349 0.7695 0.0
H3433 H 0.43016 0.14403 0.7716 0.0
H3434 H 0.4345 0.12344 0.75404 0.0
H3435 H 0.44429 0.13249 0.7563 0.0
H3436 H 0.47834 0.14831 0.76685 0.0
H3437 H 0.48161 0.17191 0.76827 0.0
H3438 H 0.46862 0.17348 0.77162 0.0
H3439 H 0.46531 0.14994 0.77028 0.0
C3440 C 0.84743 0.43303 0.78509 0.0
C3441 C 0.84252 0.43899 0.78564 0.0
C3442 C 0.8355 0.4325 0.79512 0.0
C3443 C 0.83659 0.43872 0.79058 0.0
C3444 C 0.84037 0.42647 0.79443 0.0
C3445 C 0.8463 0.42675 0.78946 0.0
U3446 U 0.85979 0.44471 0.77309 0.0
O3447 O 0.8719 0.44544 0.77234 0.0
O3448 O 0.86541 0.44244 0.76254 0.0
C3449 C 0.87203 0.44312 0.76546 0.0
C3450 C 0.85395 0.43356 0.78027 0.0
C3451 C 0.87718 0.43702 0.76398 0.0
C3452 C 0.88157 0.42456 0.76635 0.0
C3453 C 0.87644 0.43021 0.76761 0.0
C3454 C 0.88812 0.43245 0.75773 0.0
C3455 C 0.88751 0.42564 0.76144 0.0
C3456 C 0.883 0.43808 0.759 0.0
C3457 C 0.85441 0.46522 0.77138 0.0
C3458 C 0.8625 0.4754 0.76798 0.0
C3459 C 0.8493 0.47739 0.76907 0.0
C3460 C 0.84832 0.46996 0.7709 0.0
C3461 C 0.85641 0.48023 0.76769 0.0
C3462 C 0.86151 0.46794 0.76979 0.0
C3463 C 0.85325 0.45762 0.77398 0.0
O3464 O 0.85255 0.43494 0.77328 0.0
O3465 O 0.85936 0.43761 0.78294 0.0
O3466 O 0.85802 0.45519 0.7789 0.0
O3467 O 0.8516 0.4527 0.7689 0.0
H3468 H 0.84333 0.44391 0.78231 0.0
H3469 H 0.83289 0.44341 0.79088 0.0
H3470 H 0.83974 0.42163 0.79789 0.0
H3471 H 0.85008 0.42212 0.78914 0.0
H3472 H 0.88097 0.41942 0.76935 0.0
H3473 H 0.87196 0.42931 0.77148 0.0
H3474 H 0.89256 0.43342 0.75382 0.0
H3475 H 0.88363 0.4433 0.75613 0.0
H3476 H 0.86804 0.47739 0.76687 0.0
H3477 H 0.8445 0.48097 0.769 0.0
H3478 H 0.8428 0.46796 0.77213 0.0
H3479 H 0.86629 0.46434 0.7701 0.0
C3480 C 0.58305 0.84647 0.78535 0.0
C3481 C 0.57702 0.84165 0.78604 0.0
C3482 C 0.58364 0.83455 0.79537 0.0
C3483 C 0.57731 0.83573 0.79099 0.0
C3484 C 0.58972 0.83934 0.79455 0.0
C3485 C 0.58942 0.84526 0.78958 0.0
U3486 U 0.57149 0.85883 0.77318 0.0
O3487 O 0.57092 0.87091 0.77232 0.0
O3488 O 0.57394 0.86432 0.7626 0.0
C3489 C 0.57337 0.87096 0.76548 0.0
C3490 C 0.58255 0.85295 0.78049 0.0
C3491 C 0.57964 0.87593 0.76408 0.0
C3492 C 0.59202 0.88027 0.76699 0.0
C3493 C 0.58617 0.87536 0.76823 0.0
C3494 C 0.58492 0.88625 0.75733 0.0
C3495 C 0.59146 0.88579 0.76154 0.0
C3496 C 0.57907 0.88137 0.7586 0.0
C3497 C 0.5509 0.85358 0.77129 0.0
C3498 C 0.54063 0.86165 0.76811 0.0
C3499 C 0.53883 0.8484 0.76854 0.0
C3500 C 0.54626 0.84745 0.77044 0.0
C3501 C 0.53589 0.85551 0.76746 0.0
C3502 C 0.54809 0.86069 0.76999 0.0
C3503 C 0.55849 0.85242 0.77398 0.0
O3504 O 0.5812 0.85151 0.7735 0.0
O3505 O 0.5785 0.85837 0.7831 0.0
O3506 O 0.5609 0.8572 0.77888 0.0
O3507 O 0.56346 0.85069 0.76897 0.0
H3508 H 0.57204 0.84252 0.78281 0.0
H3509 H 0.57257 0.83209 0.79139 0.0
H3510 H 0.59464 0.83864 0.79789 0.0
H3511 H 0.59411 0.84896 0.78915 0.0
H3512 H 0.59701 0.8797 0.77026 0.0
H3513 H 0.58671 0.87116 0.77246 0.0
H3514 H 0.58427 0.89049 0.75316 0.0
H3515 H 0.57406 0.88188 0.75535 0.0
H3516 H 0.53856 0.86719 0.76724 0.0
H3517 H 0.53533 0.84356 0.76819 0.0
H3518 H 0.54833 0.84193 0.77145 0.0
H3519 H 0.55161 0.8655 0.77058 0.0
C3520 C 0.231 0.16873 0.43323 0.0
C3521 C 0.23044 0.17361 0.43922 0.0
C3522 C 0.22089 0.18058 0.4328 0.0
C3523 C 0.22545 0.17949 0.439 0.0
C3524 C 0.22158 0.17575 0.42674 0.0
C3525 C 0.22659 0.16986 0.42697 0.0
U3526 U 0.24321 0.15651 0.44481 0.0
O3527 O 0.24407 0.14444 0.44558 0.0
O3528 O 0.2538 0.15099 0.44245 0.0
C3529 C 0.25093 0.14435 0.44319 0.0
C3530 C 0.23587 0.16226 0.43371 0.0
C3531 C 0.25241 0.13919 0.43712 0.0
C3532 C 0.24996 0.13468 0.42471 0.0
C3533 C 0.2487 0.13983 0.43034 0.0
C3534 C 0.25874 0.12829 0.43256 0.0
C3535 C 0.25495 0.12881 0.42578 0.0
C3536 C 0.25747 0.13344 0.43817 0.0
C3537 C 0.2451 0.16198 0.4653 0.0
C3538 C 0.24842 0.15398 0.47557 0.0
C3539 C 0.24771 0.16722 0.47736 0.0
C3540 C 0.24581 0.16813 0.46994 0.0
C3541 C 0.24892 0.16013 0.4803 0.0
C3542 C 0.24655 0.1549 0.46811 0.0
C3543 C 0.24241 0.16309 0.45771 0.0
O3544 O 0.24288 0.16371 0.43501 0.0
O3545 O 0.23328 0.15685 0.43781 0.0
O3546 O 0.2375 0.15829 0.45535 0.0
O3547 O 0.24744 0.16476 0.45273 0.0
H3548 H 0.2338 0.1728 0.44412 0.0
H3549 H 0.22515 0.18316 0.44371 0.0
H3550 H 0.21809 0.17638 0.42191 0.0
H3551 H 0.22692 0.16611 0.42232 0.0
H3552 H 0.2469 0.1352 0.41959 0.0
H3553 H 0.24476 0.14425 0.42944 0.0
H3554 H 0.26271 0.12392 0.43353 0.0
H3555 H 0.2604 0.13288 0.44337 0.0
H3556 H 0.24941 0.14846 0.47764 0.0
H3557 H 0.24795 0.17206 0.48086 0.0
H3558 H 0.24469 0.17363 0.46786 0.0
H3559 H 0.24607 0.15008 0.4646 0.0
C3560 C 0.23092 0.84665 0.58198 0.0
C3561 C 0.23027 0.8419 0.5759 0.0
C3562 C 0.22079 0.8348 0.58231 0.0
C3563 C 0.22527 0.83602 0.57606 0.0
C3564 C 0.22157 0.83951 0.58845 0.0
C3565 C 0.22659 0.8454 0.58827 0.0
U3566 U 0.2434 0.85892 0.57069 0.0
O3567 O 0.24436 0.871 0.57012 0.0
O3568 O 0.25398 0.86434 0.57332 0.0
C3569 C 0.25117 0.871 0.57267 0.0
C3570 C 0.23584 0.8531 0.5816 0.0
C3571 C 0.25252 0.87597 0.57894 0.0
C3572 C 0.24946 0.88036 0.59125 0.0
C3573 C 0.24826 0.87546 0.5854 0.0
C3574 C 0.25928 0.88624 0.58429 0.0
C3575 C 0.25497 0.88583 0.59075 0.0
C3576 C 0.25806 0.88136 0.57844 0.0
C3577 C 0.2456 0.85366 0.55017 0.0
C3578 C 0.24906 0.8617 0.53997 0.0
C3579 C 0.24848 0.84845 0.53816 0.0
C3580 C 0.24645 0.84752 0.54554 0.0
C3581 C 0.24969 0.85556 0.53524 0.0
C3582 C 0.24705 0.86075 0.54739 0.0
C3583 C 0.24278 0.85251 0.5577 0.0
O3584 O 0.24285 0.8516 0.58039 0.0
O3585 O 0.23334 0.85855 0.57751 0.0
O3586 O 0.23786 0.85733 0.56002 0.0
O3587 O 0.24769 0.85075 0.56275 0.0
H3588 H 0.23357 0.8428 0.57098 0.0
H3589 H 0.22489 0.83244 0.57128 0.0
H3590 H 0.21815 0.83878 0.59331 0.0
H3591 H 0.22699 0.84905 0.593 0.0
H3592 H 0.2461 0.87984 0.59618 0.0
H3593 H 0.24398 0.87129 0.5859 0.0
H3594 H 0.26351 0.89044 0.58369 0.0
H3595 H 0.26139 0.88183 0.57348 0.0
H3596 H 0.25004 0.86723 0.53792 0.0
H3597 H 0.24882 0.84361 0.53466 0.0
H3598 H 0.24533 0.84201 0.54759 0.0
H3599 H 0.24646 0.86556 0.55089 0.0
C3600 C 0.16947 0.22982 0.58261 0.0
C3601 C 0.17401 0.22842 0.57649 0.0
C3602 C 0.18154 0.22004 0.58386 0.0
C3603 C 0.18 0.22358 0.5771 0.0
C3604 C 0.17701 0.22155 0.59 0.0
C3605 C 0.17102 0.22641 0.58938 0.0
U3606 U 0.15723 0.24184 0.57068 0.0
O3607 O 0.14513 0.24263 0.56994 0.0
O3608 O 0.15164 0.25239 0.57301 0.0
C3609 C 0.14501 0.24947 0.57237 0.0
C3610 C 0.16298 0.23464 0.58188 0.0
C3611 C 0.13997 0.25084 0.57858 0.0
C3612 C 0.13557 0.24794 0.59094 0.0
C3613 C 0.14053 0.24672 0.58513 0.0
C3614 C 0.12953 0.25749 0.58375 0.0
C3615 C 0.12999 0.25332 0.5903 0.0
C3616 C 0.13447 0.25624 0.57794 0.0
C3617 C 0.16272 0.24377 0.55021 0.0
C3618 C 0.15471 0.24717 0.53996 0.0
C3619 C 0.16798 0.2465 0.53817 0.0
C3620 C 0.16888 0.24453 0.54558 0.0
C3621 C 0.16088 0.24774 0.53524 0.0
C3622 C 0.15563 0.24522 0.5474 0.0
C3623 C 0.16384 0.24107 0.55779 0.0
O3624 O 0.16444 0.24162 0.58049 0.0
O3625 O 0.15765 0.23197 0.57774 0.0
O3626 O 0.15904 0.23614 0.56014 0.0
O3627 O 0.16548 0.24609 0.56277 0.0
H3628 H 0.17286 0.231 0.5712 0.0
H3629 H 0.1833 0.22247 0.57224 0.0
H3630 H 0.1781 0.21899 0.5953 0.0
H3631 H 0.16757 0.22744 0.59416 0.0
H3632 H 0.13613 0.2447 0.59594 0.0
H3633 H 0.14478 0.24255 0.58573 0.0
H3634 H 0.12525 0.26161 0.58305 0.0
H3635 H 0.13396 0.25946 0.57292 0.0
H3636 H 0.14918 0.24817 0.5379 0.0
H3637 H 0.17283 0.24679 0.53468 0.0
H3638 H 0.1744 0.24341 0.54765 0.0
H3639 H 0.1508 0.24471 0.55091 0.0
C3640 C 0.78575 0.1686 0.58269 0.0
C3641 C 0.78637 0.17352 0.57673 0.0
C3642 C 0.79579 0.18052 0.58333 0.0
C3643 C 0.79133 0.17943 0.57705 0.0
C3644 C 0.79504 0.17565 0.58935 0.0
C3645 C 0.79006 0.16973 0.58903 0.0
U3646 U 0.77379 0.15636 0.57089 0.0
O3647 O 0.77303 0.14428 0.57006 0.0
O3648 O 0.76321 0.15074 0.57308 0.0
C3649 C 0.76613 0.14413 0.57234 0.0
C3650 C 0.78093 0.1621 0.58211 0.0
C3651 C 0.7646 0.13891 0.57837 0.0
C3652 C 0.767 0.13425 0.59074 0.0
C3653 C 0.7683 0.13946 0.58517 0.0
C3654 C 0.7582 0.128 0.58281 0.0
C3655 C 0.76199 0.12841 0.58959 0.0
C3656 C 0.75951 0.1332 0.57725 0.0
C3657 C 0.77217 0.16184 0.5504 0.0
C3658 C 0.76867 0.15377 0.54025 0.0
C3659 C 0.76998 0.16693 0.53819 0.0
C3660 C 0.77181 0.16791 0.54562 0.0
C3661 C 0.7685 0.15984 0.53538 0.0
C3662 C 0.77047 0.15477 0.54771 0.0
C3663 C 0.77475 0.16298 0.55802 0.0
O3664 O 0.77393 0.16352 0.58071 0.0
O3665 O 0.78362 0.15673 0.57804 0.0
O3666 O 0.77966 0.15821 0.56044 0.0
O3667 O 0.76964 0.16459 0.56292 0.0
H3668 H 0.78309 0.17272 0.57178 0.0
H3669 H 0.79168 0.18313 0.57236 0.0
H3670 H 0.79845 0.17628 0.59423 0.0
H3671 H 0.78968 0.16595 0.59366 0.0
H3672 H 0.77006 0.1347 0.59586 0.0
H3673 H 0.77226 0.14386 0.58612 0.0
H3674 H 0.75422 0.12365 0.58178 0.0
H3675 H 0.75659 0.13272 0.57204 0.0
H3676 H 0.76747 0.14825 0.53828 0.0
H3677 H 0.77 0.17171 0.53458 0.0
H3678 H 0.77312 0.1734 0.5476 0.0
H3679 H 0.77069 0.15001 0.55134 0.0
C3680 C 0.84745 0.78553 0.58231 0.0
C3681 C 0.84261 0.78618 0.57629 0.0
C3682 C 0.83546 0.79548 0.58287 0.0
C3683 C 0.83666 0.79109 0.57657 0.0
C3684 C 0.84026 0.7947 0.58895 0.0
C3685 C 0.84622 0.78977 0.58866 0.0
U3686 U 0.85987 0.77342 0.57079 0.0
O3687 O 0.87198 0.77263 0.5702 0.0
O3688 O 0.86543 0.76289 0.57327 0.0
C3689 C 0.87207 0.7658 0.57267 0.0
C3690 C 0.85396 0.78072 0.58182 0.0
C3691 C 0.87706 0.76446 0.57894 0.0
C3692 C 0.8814 0.76743 0.59129 0.0
C3693 C 0.87648 0.76863 0.58544 0.0
C3694 C 0.88743 0.75778 0.58423 0.0
C3695 C 0.88695 0.76201 0.59074 0.0
C3696 C 0.88253 0.75901 0.57838 0.0
C3697 C 0.85458 0.77144 0.55024 0.0
C3698 C 0.86265 0.76823 0.53998 0.0
C3699 C 0.84938 0.76869 0.53818 0.0
C3700 C 0.84844 0.77059 0.5456 0.0
C3701 C 0.8565 0.7676 0.53525 0.0
C3702 C 0.8617 0.77012 0.54743 0.0
C3703 C 0.85342 0.77413 0.55781 0.0
O3704 O 0.85255 0.77372 0.5805 0.0
O3705 O 0.85937 0.78335 0.57775 0.0
O3706 O 0.85819 0.77907 0.56019 0.0
O3707 O 0.85172 0.76912 0.56279 0.0
H3708 H 0.84349 0.78295 0.57133 0.0
H3709 H 0.83301 0.79146 0.57184 0.0
H3710 H 0.83955 0.79805 0.59385 0.0
H3711 H 0.84993 0.78937 0.59334 0.0
H3712 H 0.88083 0.77072 0.59625 0.0
H3713 H 0.87226 0.77284 0.58597 0.0
H3714 H 0.89169 0.75363 0.5836 0.0
H3715 H 0.88305 0.75574 0.57339 0.0
H3716 H 0.8682 0.76735 0.53791 0.0
H3717 H 0.84453 0.76835 0.53468 0.0
H3718 H 0.84291 0.77161 0.54767 0.0
H3719 H 0.86652 0.7707 0.55094 0.0
C3720 C 0.78636 0.84726 0.43274 0.0
C3721 C 0.78771 0.84268 0.43884 0.0
C3722 C 0.79623 0.83526 0.43152 0.0
C3723 C 0.7926 0.83673 0.43824 0.0
C3724 C 0.79477 0.83983 0.42539 0.0
C3725 C 0.78987 0.84578 0.426 0.0
U3726 U 0.77438 0.85932 0.44478 0.0
O3727 O 0.77358 0.87139 0.44569 0.0
O3728 O 0.76378 0.86491 0.44262 0.0
C3729 C 0.76668 0.87153 0.44338 0.0
C3730 C 0.78152 0.85372 0.43348 0.0
C3731 C 0.76517 0.87674 0.43735 0.0
C3732 C 0.76741 0.88122 0.42489 0.0
C3733 C 0.76871 0.87604 0.43049 0.0
C3734 C 0.75893 0.88775 0.43293 0.0
C3735 C 0.76255 0.88717 0.42607 0.0
C3736 C 0.76024 0.88258 0.43852 0.0
C3737 C 0.77266 0.85368 0.4652 0.0
C3738 C 0.76895 0.86167 0.47533 0.0
C3739 C 0.77036 0.84851 0.47736 0.0
C3740 C 0.7723 0.84758 0.46995 0.0
C3741 C 0.76876 0.85558 0.48017 0.0
C3742 C 0.77086 0.86072 0.46789 0.0
C3743 C 0.7753 0.85259 0.4576 0.0
O3744 O 0.77454 0.85224 0.4349 0.0
O3745 O 0.7842 0.85904 0.43763 0.0
O3746 O 0.78022 0.8574 0.45524 0.0
O3747 O 0.77023 0.85099 0.45265 0.0
H3748 H 0.78507 0.84378 0.4441 0.0
H3749 H 0.79367 0.8334 0.4431 0.0
H3750 H 0.7974 0.8388 0.42011 0.0
H3751 H 0.78888 0.84927 0.42123 0.0
H3752 H 0.77034 0.88064 0.41971 0.0
H3753 H 0.77255 0.87155 0.42951 0.0
H3754 H 0.75506 0.89219 0.43399 0.0
H3755 H 0.75744 0.88318 0.44378 0.0
H3756 H 0.76767 0.86717 0.4773 0.0
H3757 H 0.77037 0.84372 0.48094 0.0
H3758 H 0.77369 0.84211 0.46796 0.0
H3759 H 0.77108 0.8655 0.46428 0.0
C3760 C 0.16949 0.78543 0.43341 0.0
C3761 C 0.17427 0.78613 0.43947 0.0
C3762 C 0.18144 0.79543 0.43288 0.0
C3763 C 0.1802 0.79108 0.43921 0.0
C3764 C 0.17669 0.7946 0.42677 0.0
C3765 C 0.17075 0.78964 0.42705 0.0
U3766 U 0.15704 0.77323 0.44488 0.0
O3767 O 0.14493 0.77239 0.44538 0.0
O3768 O 0.15153 0.76268 0.44236 0.0
C3769 C 0.14488 0.76557 0.44291 0.0
C3770 C 0.163 0.78057 0.43388 0.0
C3771 C 0.13993 0.7642 0.43662 0.0
C3772 C 0.1357 0.76714 0.42422 0.0
C3773 C 0.14058 0.76834 0.43009 0.0
C3774 C 0.12956 0.75756 0.43129 0.0
C3775 C 0.13011 0.76176 0.42476 0.0
C3776 C 0.13443 0.75878 0.43717 0.0
C3777 C 0.16213 0.77125 0.46546 0.0
C3778 C 0.15393 0.76778 0.47553 0.0
C3779 C 0.16714 0.76863 0.47762 0.0
C3780 C 0.16819 0.77058 0.47023 0.0
C3781 C 0.15999 0.76732 0.4804 0.0
C3782 C 0.15499 0.76971 0.46811 0.0
C3783 C 0.16338 0.77397 0.4579 0.0
O3784 O 0.16443 0.77358 0.43522 0.0
O3785 O 0.15755 0.78317 0.43791 0.0
O3786 O 0.15862 0.77889 0.45548 0.0
O3787 O 0.16514 0.76897 0.45293 0.0
H3788 H 0.17336 0.78292 0.44445 0.0
H3789 H 0.18381 0.79149 0.44397 0.0
H3790 H 0.17743 0.79793 0.42185 0.0
H3791 H 0.16708 0.78919 0.42234 0.0
H3792 H 0.13632 0.7704 0.41924 0.0
H3793 H 0.14484 0.77253 0.42957 0.0
H3794 H 0.12527 0.75343 0.43192 0.0
H3795 H 0.13385 0.75555 0.44217 0.0
H3796 H 0.14836 0.76673 0.47747 0.0
H3797 H 0.17192 0.76843 0.48123 0.0
H3798 H 0.17373 0.77177 0.46829 0.0
H3799 H 0.15024 0.77016 0.46449 0.0
C3800 C 0.84772 0.22902 0.43281 0.0
C3801 C 0.84322 0.22748 0.43893 0.0
C3802 C 0.83577 0.21909 0.43149 0.0
C3803 C 0.83729 0.22257 0.43828 0.0
C3804 C 0.84026 0.22074 0.42535 0.0
C3805 C 0.84619 0.22567 0.42601 0.0
U3806 U 0.85985 0.24112 0.44478 0.0
O3807 O 0.87194 0.24204 0.4455 0.0
O3808 O 0.86532 0.25174 0.44247 0.0
C3809 C 0.87198 0.24889 0.44309 0.0
C3810 C 0.85415 0.23392 0.43357 0.0
C3811 C 0.87699 0.25034 0.43686 0.0
C3812 C 0.88135 0.24755 0.42448 0.0
C3813 C 0.87642 0.24627 0.43029 0.0
C3814 C 0.88738 0.25709 0.43168 0.0
C3815 C 0.88691 0.25296 0.42512 0.0
C3816 C 0.88246 0.25578 0.43751 0.0
C3817 C 0.85443 0.24289 0.46529 0.0
C3818 C 0.86246 0.24626 0.47552 0.0
C3819 C 0.8492 0.2456 0.47733 0.0
C3820 C 0.84828 0.24364 0.46993 0.0
C3821 C 0.85631 0.24683 0.48025 0.0
C3822 C 0.86153 0.24433 0.46809 0.0
C3823 C 0.8533 0.24021 0.4577 0.0
O3824 O 0.85261 0.24086 0.435 0.0
O3825 O 0.85952 0.23128 0.43769 0.0
O3826 O 0.85813 0.23534 0.45531 0.0
O3827 O 0.85158 0.24524 0.45274 0.0
H3828 H 0.84436 0.23001 0.44424 0.0
H3829 H 0.83402 0.22135 0.44314 0.0
H3830 H 0.83918 0.21824 0.42002 0.0
H3831 H 0.84961 0.22681 0.42123 0.0
H3832 H 0.88079 0.24434 0.41946 0.0
H3833 H 0.87219 0.24207 0.42969 0.0
H3834 H 0.89164 0.26124 0.43239 0.0
H3835 H 0.88298 0.25897 0.44255 0.0
H3836 H 0.868 0.24725 0.47758 0.0
H3837 H 0.84435 0.24589 0.48084 0.0
H3838 H 0.84276 0.24253 0.46787 0.0
H3839 H 0.86635 0.24382 0.46457 0.0
H3840 H 0.08868 0.26036 0.40202 0.0
H3841 H 0.13187 0.25523 0.41058 0.0
H3842 H 0.10541 0.25989 0.38502 0.0
H3843 H 0.1148 0.2551 0.42727 0.0
H3844 H 0.12236 0.25699 0.40111 0.0
H3845 H 0.09826 0.25851 0.41132 0.0
C3846 C 0.09437 0.25981 0.40023 0.0
C3847 C 0.09622 0.26024 0.39271 0.0
C3848 C 0.1207 0.25659 0.40685 0.0
C3849 C 0.10728 0.25821 0.40337 0.0
C3850 C 0.12612 0.25554 0.41226 0.0
C3851 C 0.12414 0.25504 0.41975 0.0
C3852 C 0.11323 0.25711 0.40894 0.0
C3853 C 0.11661 0.25557 0.42159 0.0
C3854 C 0.09985 0.2588 0.40555 0.0
C3855 C 0.10372 0.25966 0.39075 0.0
N3856 N 0.11145 0.25658 0.41623 0.0
N3857 N 0.10897 0.25866 0.39605 0.0
H3858 H 0.76945 0.12666 0.41275 0.0
H3859 H 0.74598 0.09118 0.40074 0.0
H3860 H 0.75096 0.11815 0.42525 0.0
H3861 H 0.76175 0.10186 0.38637 0.0
H3862 H 0.74804 0.10082 0.40996 0.0
H3863 H 0.76693 0.11752 0.40313 0.0
C3864 C 0.76482 0.12292 0.41345 0.0
C3865 C 0.76043 0.12318 0.41986 0.0
C3866 C 0.75104 0.10107 0.40478 0.0
C3867 C 0.7576 0.11261 0.40889 0.0
C3868 C 0.74989 0.09555 0.39954 0.0
C3869 C 0.75372 0.09569 0.39279 0.0
C3870 C 0.7561 0.10678 0.40331 0.0
C3871 C 0.75864 0.10155 0.39148 0.0
C3872 C 0.76342 0.11768 0.40797 0.0
C3873 C 0.75459 0.11809 0.42049 0.0
N3874 N 0.75972 0.10684 0.39671 0.0
N3875 N 0.75337 0.11301 0.4151 0.0
H3876 H 0.91972 0.7668 0.39079 0.0
H3877 H 0.89149 0.74844 0.41957 0.0
H3878 H 0.91674 0.74327 0.39317 0.0
H3879 H 0.8935 0.77196 0.41622 0.0
H3880 H 0.90064 0.74643 0.40983 0.0
H3881 H 0.91004 0.7688 0.4 0.0
C3882 C 0.91704 0.76206 0.39326 0.0
C3883 C 0.91907 0.75486 0.39122 0.0
C3884 C 0.89906 0.75203 0.4112 0.0
C3885 C 0.90794 0.75711 0.40175 0.0
C3886 C 0.89387 0.75319 0.4168 0.0
C3887 C 0.89174 0.76038 0.41874 0.0
C3888 C 0.90219 0.75812 0.40754 0.0
C3889 C 0.89491 0.76631 0.41486 0.0
C3890 C 0.91148 0.7632 0.39849 0.0
C3891 C 0.91531 0.74892 0.39452 0.0
N3892 N 0.9 0.76505 0.40948 0.0
N3893 N 0.90996 0.75018 0.39964 0.0
H3894 H 0.25664 0.90136 0.42758 0.0
H3895 H 0.26051 0.91038 0.38439 0.0
H3896 H 0.25598 0.88461 0.41064 0.0
H3897 H 0.26167 0.92681 0.40163 0.0
H3898 H 0.25885 0.90083 0.39383 0.0
H3899 H 0.25847 0.91072 0.41807 0.0
C3900 C 0.25694 0.89964 0.42186 0.0
C3901 C 0.25619 0.89217 0.41992 0.0
C3902 C 0.25946 0.90653 0.39554 0.0
C3903 C 0.2582 0.90291 0.40895 0.0
C3904 C 0.26045 0.91198 0.39016 0.0
C3905 C 0.26121 0.91943 0.39221 0.0
C3906 C 0.25925 0.90852 0.40304 0.0
C3907 C 0.26099 0.92117 0.39977 0.0
C3908 C 0.25794 0.905 0.41641 0.0
C3909 C 0.25646 0.8903 0.41239 0.0
N3910 N 0.26003 0.91577 0.40489 0.0
N3911 N 0.25745 0.89563 0.40718 0.0
H3912 H 0.10025 0.74266 0.62345 0.0
H3913 H 0.12323 0.77211 0.59962 0.0
H3914 H 0.0969 0.76621 0.62481 0.0
H3915 H 0.12514 0.74851 0.59686 0.0
H3916 H 0.11421 0.77008 0.60948 0.0
H3917 H 0.11001 0.74472 0.61433 0.0
C3918 C 0.10161 0.74827 0.62188 0.0
C3919 C 0.09773 0.75427 0.6249 0.0
C3920 C 0.11661 0.76534 0.60673 0.0
C3921 C 0.10886 0.75667 0.61439 0.0
C3922 C 0.1218 0.76649 0.60113 0.0
C3923 C 0.12494 0.76047 0.59739 0.0
C3924 C 0.11455 0.7581 0.60864 0.0
C3925 C 0.12279 0.75332 0.59952 0.0
C3926 C 0.10715 0.74944 0.61663 0.0
C3927 C 0.09967 0.76142 0.62256 0.0
N3928 N 0.11773 0.75234 0.60499 0.0
N3929 N 0.10509 0.76242 0.61745 0.0
H3930 H 0.24663 0.11498 0.59121 0.0
H3931 H 0.26969 0.10326 0.62706 0.0
H3932 H 0.2622 0.12948 0.60198 0.0
H3933 H 0.25133 0.09068 0.61841 0.0
H3934 H 0.26726 0.11283 0.61784 0.0
H3935 H 0.2486 0.10584 0.60094 0.0
C3936 C 0.25048 0.11623 0.59562 0.0
C3937 C 0.25428 0.12299 0.59576 0.0
C3938 C 0.26375 0.10798 0.61798 0.0
C3939 C 0.25655 0.11255 0.60696 0.0
C3940 C 0.26511 0.10252 0.62327 0.0
C3941 C 0.26074 0.09611 0.62351 0.0
C3942 C 0.258 0.10702 0.61285 0.0
C3943 C 0.25495 0.09544 0.61837 0.0
C3944 C 0.25158 0.11103 0.6012 0.0
C3945 C 0.25912 0.12436 0.60167 0.0
N3946 N 0.25377 0.10081 0.61325 0.0
N3947 N 0.26015 0.11917 0.60702 0.0
H3948 H 0.88898 0.2464 0.60324 0.0
H3949 H 0.92384 0.27056 0.61575 0.0
H3950 H 0.89685 0.26549 0.59127 0.0
H3951 H 0.91388 0.25391 0.62963 0.0
H3952 H 0.91412 0.26855 0.6066 0.0
H3953 H 0.89808 0.24892 0.61291 0.0
C3954 C 0.89257 0.25116 0.60266 0.0
C3955 C 0.89215 0.25571 0.59638 0.0
C3956 C 0.91404 0.26535 0.61165 0.0
C3957 C 0.90267 0.25856 0.60741 0.0
C3958 C 0.91961 0.26646 0.61686 0.0
C3959 C 0.91969 0.26237 0.62345 0.0
C3960 C 0.90851 0.26006 0.61299 0.0
C3961 C 0.914 0.25722 0.62465 0.0
C3962 C 0.89779 0.25257 0.60818 0.0
C3963 C 0.89704 0.26173 0.59592 0.0
N3964 N 0.90867 0.25618 0.61945 0.0
N3965 N 0.9021 0.26296 0.60133 0.0
H3966 H 0.74996 0.89597 0.59092 0.0
H3967 H 0.7626 0.91277 0.62986 0.0
H3968 H 0.76921 0.88835 0.60282 0.0
H3969 H 0.74624 0.92284 0.61573 0.0
H3970 H 0.76431 0.90299 0.62066 0.0
H3971 H 0.74779 0.90511 0.60056 0.0
C3972 C 0.75375 0.89623 0.59554 0.0
C3973 C 0.75982 0.8914 0.59601 0.0
C3974 C 0.76034 0.90734 0.61958 0.0
C3975 C 0.75729 0.90183 0.60716 0.0
C3976 C 0.75933 0.91289 0.62484 0.0
C3977 C 0.75429 0.91864 0.62354 0.0
C3978 C 0.75623 0.90751 0.61299 0.0
C3979 C 0.75026 0.91857 0.61691 0.0
C3980 C 0.75249 0.90144 0.60107 0.0
C3981 C 0.76443 0.8919 0.60225 0.0
N3982 N 0.75131 0.91309 0.6119 0.0
N3983 N 0.76308 0.89704 0.60756 0.0
H3984 H 0.38626 0.10239 0.25396 0.0
H3985 H 0.42533 0.1192 0.26635 0.0
H3986 H 0.40046 0.09236 0.27029 0.0
H3987 H 0.41333 0.12678 0.24716 0.0
H3988 H 0.41567 0.11006 0.2686 0.0
H3989 H 0.39548 0.11215 0.25218 0.0
C3990 C 0.39129 0.10227 0.25721 0.0
C3991 C 0.39261 0.09653 0.26226 0.0
C3992 C 0.41514 0.11373 0.2639 0.0
C3993 C 0.40318 0.10766 0.26023 0.0
C3994 C 0.42068 0.11893 0.26259 0.0
C3995 C 0.42019 0.12375 0.25651 0.0
C3996 C 0.40902 0.11333 0.25913 0.0
C3997 C 0.41392 0.12324 0.25194 0.0
C3998 C 0.39657 0.10781 0.25615 0.0
C3999 C 0.39926 0.09661 0.26627 0.0
N4000 N 0.4086 0.11811 0.25334 0.0
N4001 N 0.40429 0.10209 0.26517 0.0
H4002 H 0.91381 0.38584 0.25398 0.0
H4003 H 0.8977 0.42538 0.26551 0.0
H4004 H 0.92443 0.40042 0.26957 0.0
H4005 H 0.88947 0.41286 0.24694 0.0
H4006 H 0.90687 0.41576 0.26778 0.0
H4007 H 0.90412 0.39511 0.2521 0.0
C4008 C 0.91408 0.39097 0.25704 0.0
C4009 C 0.91996 0.39237 0.26191 0.0
C4010 C 0.90306 0.41512 0.26321 0.0
C4011 C 0.90891 0.40301 0.25978 0.0
C4012 C 0.89784 0.42063 0.26188 0.0
C4013 C 0.89282 0.41998 0.25598 0.0
C4014 C 0.90327 0.40886 0.25864 0.0
C4015 C 0.89317 0.41359 0.25159 0.0
C4016 C 0.90857 0.39628 0.25593 0.0
C4017 C 0.92006 0.39915 0.26568 0.0
N4018 N 0.89831 0.40828 0.253 0.0
N4019 N 0.91462 0.4042 0.26454 0.0
H4020 H 0.62568 0.91952 0.24858 0.0
H4021 H 0.59784 0.8906 0.26729 0.0
H4022 H 0.62415 0.91598 0.27212 0.0
H4023 H 0.60027 0.89319 0.24371 0.0
H4024 H 0.60758 0.89976 0.26916 0.0
H4025 H 0.6165 0.90978 0.24667 0.0
C4026 C 0.6234 0.9167 0.25335 0.0
C4027 C 0.62567 0.91859 0.26052 0.0
C4028 C 0.60601 0.89831 0.26358 0.0
C4029 C 0.61518 0.9074 0.25837 0.0
C4030 C 0.60041 0.8931 0.26251 0.0
C4031 C 0.5982 0.89114 0.25533 0.0
C4032 C 0.60941 0.90163 0.25743 0.0
C4033 C 0.60183 0.89448 0.24934 0.0
C4034 C 0.61819 0.91111 0.25225 0.0
C4035 C 0.62262 0.91467 0.26648 0.0
N4036 N 0.60722 0.89959 0.25052 0.0
N4037 N 0.61751 0.90929 0.26528 0.0
H4038 H 0.1033 0.62941 0.25382 0.0
H4039 H 0.11986 0.59022 0.26598 0.0
H4040 H 0.09304 0.61511 0.26991 0.0
H4041 H 0.12766 0.60238 0.24698 0.0
H4042 H 0.11071 0.59986 0.26823 0.0
H4043 H 0.11304 0.62018 0.25203 0.0
C4044 C 0.10312 0.62435 0.25701 0.0
C4045 C 0.09733 0.62301 0.262 0.0
C4046 C 0.11443 0.60042 0.26357 0.0
C4047 C 0.10844 0.61242 0.25997 0.0
C4048 C 0.11964 0.5949 0.26226 0.0
C4049 C 0.12452 0.59544 0.25624 0.0
C4050 C 0.11409 0.60658 0.25887 0.0
C4051 C 0.12407 0.60174 0.25172 0.0
C4052 C 0.10866 0.61907 0.25596 0.0
C4053 C 0.09734 0.61632 0.26594 0.0
N4054 N 0.11894 0.60705 0.25312 0.0
N4055 N 0.1028 0.61129 0.26484 0.0
H4056 H 0.41671 0.89218 0.77275 0.0
H4057 H 0.39362 0.91601 0.74341 0.0
H4058 H 0.42004 0.89092 0.74917 0.0
H4059 H 0.39175 0.9187 0.76703 0.0
H4060 H 0.40267 0.90618 0.74539 0.0
H4061 H 0.40692 0.90127 0.77074 0.0
C4062 C 0.41534 0.89377 0.76715 0.0
C4063 C 0.41922 0.89079 0.76112 0.0
C4064 C 0.40027 0.90891 0.75015 0.0
C4065 C 0.40806 0.90126 0.75878 0.0
C4066 C 0.39506 0.91449 0.74902 0.0
C4067 C 0.39192 0.91821 0.75506 0.0
C4068 C 0.40235 0.907 0.75738 0.0
C4069 C 0.39409 0.91607 0.7622 0.0
C4070 C 0.40978 0.899 0.766 0.0
C4071 C 0.41727 0.89314 0.75399 0.0
N4072 N 0.39917 0.91061 0.76316 0.0
N4073 N 0.41183 0.89823 0.75301 0.0
H4074 H 0.09996 0.39281 0.74314 0.0
H4075 H 0.12342 0.41594 0.77275 0.0
H4076 H 0.09695 0.39094 0.76673 0.0
H4077 H 0.12496 0.41927 0.74919 0.0
H4078 H 0.11433 0.40616 0.77064 0.0
H4079 H 0.10974 0.4019 0.74524 0.0
C4080 C 0.1014 0.39427 0.74877 0.0
C4081 C 0.09761 0.39112 0.75477 0.0
C4082 C 0.11667 0.40902 0.76593 0.0
C4083 C 0.10877 0.40158 0.75721 0.0
C4084 C 0.12189 0.41457 0.76713 0.0
C4085 C 0.12495 0.41845 0.76114 0.0
C4086 C 0.11449 0.40729 0.75868 0.0
C4087 C 0.12268 0.4165 0.75397 0.0
C4088 C 0.10695 0.39949 0.74996 0.0
C4089 C 0.09965 0.3933 0.76193 0.0
N4090 N 0.11759 0.41107 0.75295 0.0
N4091 N 0.10508 0.39839 0.76295 0.0
H4092 H 0.60036 0.12325 0.77246 0.0
H4093 H 0.62378 0.09972 0.74318 0.0
H4094 H 0.59733 0.12478 0.74885 0.0
H4095 H 0.62538 0.09678 0.76679 0.0
H4096 H 0.61473 0.10954 0.74515 0.0
H4097 H 0.61017 0.11419 0.77048 0.0
C4098 C 0.6018 0.12173 0.76686 0.0
C4099 C 0.59799 0.12477 0.76081 0.0
C4100 C 0.61707 0.10676 0.7499 0.0
C4101 C 0.60919 0.11433 0.75851 0.0
C4102 C 0.62228 0.10118 0.74878 0.0
C4103 C 0.62534 0.0974 0.75483 0.0
C4104 C 0.61491 0.10861 0.75712 0.0
C4105 C 0.6231 0.09948 0.76196 0.0
C4106 C 0.60737 0.11652 0.76573 0.0
C4107 C 0.60004 0.12251 0.75368 0.0
N4108 N 0.61802 0.10493 0.76291 0.0
N4109 N 0.60549 0.11743 0.75273 0.0
H4110 H 0.91692 0.6224 0.74336 0.0
H4111 H 0.89364 0.59898 0.77289 0.0
H4112 H 0.92009 0.62402 0.76694 0.0
H4113 H 0.89196 0.59589 0.74931 0.0
H4114 H 0.90272 0.60877 0.77082 0.0
H4115 H 0.90716 0.61329 0.74543 0.0
C4116 C 0.91553 0.62089 0.74898 0.0
C4117 C 0.91935 0.62398 0.75498 0.0
C4118 C 0.90036 0.60596 0.76609 0.0
C4119 C 0.90821 0.61348 0.7574 0.0
C4120 C 0.89513 0.6004 0.76727 0.0
C4121 C 0.89204 0.59659 0.76126 0.0
C4122 C 0.9025 0.60776 0.75885 0.0
C4123 C 0.89427 0.5986 0.75411 0.0
C4124 C 0.90998 0.61565 0.75016 0.0
C4125 C 0.91736 0.62172 0.76214 0.0
N4126 N 0.89936 0.60404 0.7531 0.0
N4127 N 0.91193 0.61661 0.76315 0.0
H4128 H 0.26084 0.40183 0.08753 0.0
H4129 H 0.25621 0.41077 0.13065 0.0
H4130 H 0.26102 0.38504 0.10447 0.0
H4131 H 0.2553 0.42723 0.11341 0.0
H4132 H 0.25803 0.40125 0.12123 0.0
H4133 H 0.25888 0.41119 0.09701 0.0
C4134 C 0.26041 0.4001 0.09324 0.0
C4135 C 0.26106 0.39262 0.09519 0.0
C4136 C 0.25744 0.40695 0.11951 0.0
C4137 C 0.25891 0.40336 0.10613 0.0
C4138 C 0.25636 0.41239 0.12488 0.0
C4139 C 0.25561 0.41983 0.12283 0.0
C4140 C 0.25776 0.40896 0.11202 0.0
C4141 C 0.25596 0.42159 0.11527 0.0
C4142 C 0.25934 0.40546 0.09867 0.0
C4143 C 0.26062 0.39074 0.10271 0.0
N4144 N 0.257 0.41621 0.11016 0.0
N4145 N 0.25956 0.39607 0.10791 0.0
H4146 H 0.27115 0.61481 0.92332 0.0
H4147 H 0.24725 0.60261 0.88819 0.0
H4148 H 0.2548 0.62886 0.91313 0.0
H4149 H 0.26612 0.59041 0.89626 0.0
H4150 H 0.24977 0.61222 0.89733 0.0
H4151 H 0.26914 0.60567 0.9136 0.0
C4152 C 0.26712 0.61596 0.91904 0.0
C4153 C 0.26311 0.62259 0.91906 0.0
C4154 C 0.25337 0.60745 0.89708 0.0
C4155 C 0.2608 0.61216 0.90788 0.0
C4156 C 0.25196 0.60197 0.89183 0.0
C4157 C 0.25646 0.59565 0.89145 0.0
C4158 C 0.2593 0.60661 0.90202 0.0
C4159 C 0.26241 0.5951 0.89641 0.0
C4160 C 0.26601 0.61076 0.91346 0.0
C4161 C 0.25805 0.62385 0.91331 0.0
N4162 N 0.26364 0.60048 0.9015 0.0
N4163 N 0.257 0.61866 0.90797 0.0
H4164 H 0.38604 0.25373 0.91303 0.0
H4165 H 0.42527 0.26565 0.89627 0.0
H4166 H 0.40052 0.26971 0.92319 0.0
H4167 H 0.41295 0.24674 0.88853 0.0
H4168 H 0.41567 0.26795 0.90545 0.0
H4169 H 0.39522 0.25188 0.90324 0.0
C4170 C 0.39113 0.25688 0.91317 0.0
C4171 C 0.39253 0.26186 0.91895 0.0
C4172 C 0.41506 0.2633 0.90174 0.0
C4173 C 0.40306 0.25976 0.90779 0.0
C4174 C 0.42057 0.26195 0.89651 0.0
C4175 C 0.41998 0.25595 0.89164 0.0
C4176 C 0.40887 0.25863 0.9021 0.0
C4177 C 0.41363 0.25147 0.89211 0.0
C4178 C 0.39638 0.2558 0.90761 0.0
C4179 C 0.39925 0.26575 0.9189 0.0
N4180 N 0.40834 0.25289 0.89726 0.0
N4181 N 0.40425 0.26462 0.91341 0.0
H4182 H 0.75622 0.40088 0.92743 0.0
H4183 H 0.76086 0.4097 0.88428 0.0
H4184 H 0.75601 0.38403 0.91057 0.0
H4185 H 0.76168 0.4262 0.90146 0.0
H4186 H 0.75908 0.40018 0.89374 0.0
H4187 H 0.7582 0.41019 0.91791 0.0
C4188 C 0.75665 0.39912 0.92173 0.0
C4189 C 0.75598 0.39163 0.91982 0.0
C4190 C 0.75964 0.40589 0.89543 0.0
C4191 C 0.75815 0.40234 0.90883 0.0
C4192 C 0.7607 0.41132 0.89004 0.0
C4193 C 0.7614 0.41878 0.89207 0.0
C4194 C 0.7593 0.40792 0.90292 0.0
C4195 C 0.76105 0.42056 0.89961 0.0
C4196 C 0.75773 0.40446 0.91628 0.0
C4197 C 0.75642 0.38973 0.9123 0.0
N4198 N 0.76002 0.41518 0.90475 0.0
N4199 N 0.75749 0.39504 0.90709 0.0
H4200 H 0.60583 0.76001 0.88439 0.0
H4201 H 0.61437 0.75464 0.92752 0.0
H4202 H 0.5891 0.75985 0.90141 0.0
H4203 H 0.63142 0.75551 0.91084 0.0
H4204 H 0.60506 0.75645 0.91794 0.0
H4205 H 0.61531 0.75828 0.8939 0.0
C4206 C 0.60415 0.75964 0.89012 0.0
C4207 C 0.59664 0.76006 0.89209 0.0
C4208 C 0.61084 0.75625 0.91636 0.0
C4209 C 0.60746 0.75802 0.903 0.0
C4210 C 0.61617 0.75526 0.92184 0.0
C4211 C 0.62371 0.75496 0.92 0.0
C4212 C 0.61303 0.75694 0.90895 0.0
C4213 C 0.62567 0.75564 0.91252 0.0
C4214 C 0.60956 0.75862 0.89555 0.0
C4215 C 0.59479 0.75944 0.8996 0.0
N4216 N 0.62037 0.75661 0.90727 0.0
N4217 N 0.60016 0.75846 0.90477 0.0
H4218 H 0.76136 0.60537 0.13138 0.0
H4219 H 0.75679 0.61397 0.08818 0.0
H4220 H 0.76199 0.58876 0.11429 0.0
H4221 H 0.75672 0.63093 0.10494 0.0
H4222 H 0.75877 0.60471 0.09775 0.0
H4223 H 0.75973 0.61485 0.12187 0.0
C4224 C 0.76119 0.60371 0.12563 0.0
C4225 C 0.76179 0.59624 0.12364 0.0
C4226 C 0.75833 0.61046 0.09935 0.0
C4227 C 0.75986 0.60707 0.11273 0.0
C4228 C 0.75726 0.61577 0.09387 0.0
C4229 C 0.75662 0.62326 0.09574 0.0
C4230 C 0.75878 0.61262 0.10678 0.0
C4231 C 0.7571 0.62521 0.10324 0.0
C4232 C 0.76022 0.60913 0.12021 0.0
C4233 C 0.76144 0.59442 0.11611 0.0
N4234 N 0.75816 0.61993 0.10849 0.0
N4235 N 0.7605 0.59979 0.11094 0.0
H4236 H 0.41665 0.7723 0.12319 0.0
H4237 H 0.39296 0.74317 0.09971 0.0
H4238 H 0.41945 0.74868 0.12479 0.0
H4239 H 0.39158 0.76677 0.09669 0.0
H4240 H 0.40201 0.74509 0.10955 0.0
H4241 H 0.40681 0.77038 0.11413 0.0
C4242 C 0.41515 0.7667 0.12168 0.0
C4243 C 0.4189 0.76064 0.12475 0.0
C4244 C 0.39972 0.74985 0.10675 0.0
C4245 C 0.40767 0.75841 0.11431 0.0
C4246 C 0.39451 0.74876 0.10116 0.0
C4247 C 0.39151 0.75482 0.09735 0.0
C4248 C 0.40195 0.75706 0.10858 0.0
C4249 C 0.39382 0.76194 0.0994 0.0
C4250 C 0.40956 0.76562 0.11647 0.0
C4251 C 0.41678 0.75352 0.1225 0.0
N4252 N 0.39889 0.76286 0.10487 0.0
N4253 N 0.41132 0.75261 0.11742 0.0
H4254 H 0.62533 0.24794 0.09667 0.0
H4255 H 0.59679 0.26669 0.12484 0.0
H4256 H 0.62312 0.27151 0.09943 0.0
H4257 H 0.60001 0.24314 0.12307 0.0
H4258 H 0.6065 0.26857 0.11563 0.0
H4259 H 0.61616 0.24607 0.10642 0.0
C4260 C 0.62291 0.25272 0.09932 0.0
C4261 C 0.62498 0.25989 0.09721 0.0
C4262 C 0.60511 0.26299 0.11728 0.0
C4263 C 0.61449 0.25779 0.10841 0.0
C4264 C 0.59953 0.26191 0.12251 0.0
C4265 C 0.59755 0.25474 0.12472 0.0
C4266 C 0.60873 0.25686 0.11419 0.0
C4267 C 0.60139 0.24877 0.12159 0.0
C4268 C 0.61769 0.25165 0.10491 0.0
C4269 C 0.62174 0.26588 0.10092 0.0
N4270 N 0.60676 0.24996 0.11646 0.0
N4271 N 0.61663 0.2647 0.10631 0.0
H4272 H 0.89397 0.7725 0.59914 0.0
H4273 H 0.91724 0.74312 0.62274 0.0
H4274 H 0.8922 0.7489 0.59627 0.0
H4275 H 0.92049 0.76669 0.62415 0.0
H4276 H 0.90745 0.74515 0.61366 0.0
H4277 H 0.90307 0.77049 0.60893 0.0
C4278 C 0.89545 0.76689 0.60061 0.0
C4279 C 0.89232 0.76086 0.59686 0.0
C4280 C 0.91029 0.74988 0.61597 0.0
C4281 C 0.90281 0.75852 0.60803 0.0
C4282 C 0.91585 0.74873 0.62119 0.0
C4283 C 0.91971 0.75475 0.62421 0.0
C4284 C 0.90853 0.75711 0.61375 0.0
C4285 C 0.91773 0.76189 0.6219 0.0
C4286 C 0.90068 0.76575 0.60617 0.0
C4287 C 0.89454 0.75372 0.59894 0.0
N4288 N 0.91229 0.76287 0.61681 0.0
N4289 N 0.89964 0.75275 0.60438 0.0
H4290 H 0.24896 0.91937 0.62436 0.0
H4291 H 0.26811 0.89092 0.5964 0.0
H4292 H 0.27258 0.91639 0.62265 0.0
H4293 H 0.24447 0.89299 0.59902 0.0
H4294 H 0.26986 0.90012 0.60612 0.0
H4295 H 0.2472 0.90961 0.6152 0.0
C4296 C 0.25378 0.91667 0.62205 0.0
C4297 C 0.26094 0.91873 0.62426 0.0
C4298 C 0.26429 0.89855 0.60459 0.0
C4299 C 0.25895 0.9075 0.61379 0.0
C4300 C 0.26328 0.89332 0.59901 0.0
C4301 C 0.25613 0.89119 0.59686 0.0
C4302 C 0.25809 0.90172 0.60804 0.0
C4303 C 0.25008 0.8944 0.60053 0.0
C4304 C 0.25277 0.91107 0.61685 0.0
C4305 C 0.26697 0.91495 0.62117 0.0
N4306 N 0.2512 0.89953 0.60591 0.0
N4307 N 0.26584 0.90955 0.61607 0.0
H4308 H 0.09956 0.27232 0.62209 0.0
H4309 H 0.123 0.24287 0.59878 0.0
H4310 H 0.09645 0.24874 0.62372 0.0
H4311 H 0.12464 0.26645 0.59567 0.0
H4312 H 0.11387 0.24491 0.60852 0.0
H4313 H 0.10936 0.27027 0.61301 0.0
C4314 C 0.10098 0.2667 0.62058 0.0
C4315 C 0.09716 0.26069 0.62367 0.0
C4316 C 0.11623 0.24964 0.60572 0.0
C4317 C 0.10834 0.25831 0.61321 0.0
C4318 C 0.12148 0.24848 0.60019 0.0
C4319 C 0.12458 0.2545 0.59638 0.0
C4320 C 0.11407 0.25688 0.60751 0.0
C4321 C 0.12232 0.26164 0.59838 0.0
C4322 C 0.10654 0.26554 0.61536 0.0
C4323 C 0.09917 0.25354 0.62142 0.0
N4324 N 0.11721 0.26263 0.6038 0.0
N4325 N 0.10461 0.25255 0.61634 0.0
H4326 H 0.75633 0.10432 0.6308 0.0
H4327 H 0.76046 0.11348 0.58767 0.0
H4328 H 0.75523 0.08795 0.6135 0.0
H4329 H 0.76094 0.13019 0.60467 0.0
H4330 H 0.75855 0.10409 0.59714 0.0
H4331 H 0.75802 0.1139 0.6214 0.0
C4332 C 0.75641 0.10274 0.62503 0.0
C4333 C 0.75566 0.0953 0.62295 0.0
C4334 C 0.75906 0.10981 0.59881 0.0
C4335 C 0.75765 0.10625 0.61217 0.0
C4336 C 0.76011 0.11519 0.59339 0.0
C4337 C 0.76083 0.12266 0.59536 0.0
C4338 C 0.75874 0.11187 0.60628 0.0
C4339 C 0.76049 0.1245 0.6029 0.0
C4340 C 0.75741 0.10821 0.61967 0.0
C4341 C 0.7559 0.09359 0.61539 0.0
N4342 N 0.75945 0.11915 0.60808 0.0
N4343 N 0.75687 0.09901 0.61029 0.0
H4344 H 0.91714 0.27225 0.39327 0.0
H4345 H 0.89392 0.24259 0.41658 0.0
H4346 H 0.92035 0.2487 0.39157 0.0
H4347 H 0.8922 0.26614 0.41978 0.0
H4348 H 0.903 0.24473 0.40681 0.0
H4349 H 0.9074 0.27012 0.40239 0.0
C4350 C 0.91576 0.26663 0.39477 0.0
C4351 C 0.91959 0.26065 0.39165 0.0
C4352 C 0.90063 0.24943 0.40964 0.0
C4353 C 0.90847 0.25817 0.40215 0.0
C4354 C 0.89541 0.24822 0.41519 0.0
C4355 C 0.89229 0.2542 0.41902 0.0
C4356 C 0.90276 0.25668 0.40787 0.0
C4357 C 0.89452 0.26136 0.41704 0.0
C4358 C 0.91022 0.26542 0.40001 0.0
C4359 C 0.91762 0.25348 0.39389 0.0
N4360 N 0.89961 0.2624 0.41161 0.0
N4361 N 0.9122 0.25244 0.399 0.0
H4362 H 0.75558 0.92826 0.4026 0.0
H4363 H 0.7611 0.88517 0.41106 0.0
H4364 H 0.75616 0.91158 0.38558 0.0
H4365 H 0.76134 0.90217 0.42777 0.0
H4366 H 0.75922 0.89467 0.40163 0.0
H4367 H 0.75761 0.9187 0.41187 0.0
C4368 C 0.75618 0.92259 0.4008 0.0
C4369 C 0.75573 0.92074 0.39328 0.0
C4370 C 0.75968 0.89631 0.40736 0.0
C4371 C 0.75796 0.90971 0.40392 0.0
C4372 C 0.76079 0.89089 0.41275 0.0
C4373 C 0.76136 0.89285 0.42024 0.0
C4374 C 0.75915 0.90376 0.40946 0.0
C4375 C 0.76081 0.90037 0.42209 0.0
C4376 C 0.7573 0.91712 0.40611 0.0
C4377 C 0.7564 0.91326 0.39131 0.0
N4378 N 0.75974 0.90553 0.41675 0.0
N4379 N 0.75749 0.90802 0.39659 0.0
H4380 H 0.12322 0.77226 0.41628 0.0
H4381 H 0.09971 0.743 0.39278 0.0
H4382 H 0.12477 0.74867 0.41927 0.0
H4383 H 0.09672 0.7666 0.39125 0.0
H4384 H 0.10953 0.74497 0.40186 0.0
H4385 H 0.11415 0.77029 0.40647 0.0
C4386 C 0.1217 0.76666 0.41483 0.0
C4387 C 0.12476 0.76062 0.41862 0.0
C4388 C 0.10674 0.74972 0.39953 0.0
C4389 C 0.1143 0.75832 0.40743 0.0
C4390 C 0.10116 0.7486 0.39431 0.0
C4391 C 0.09736 0.75464 0.39125 0.0
C4392 C 0.10857 0.75694 0.40171 0.0
C4393 C 0.09942 0.76177 0.39352 0.0
C4394 C 0.11648 0.76554 0.40926 0.0
C4395 C 0.12249 0.75349 0.41657 0.0
N4396 N 0.10487 0.76272 0.39861 0.0
N4397 N 0.1174 0.75254 0.41112 0.0
H4398 H 0.26177 0.08774 0.40232 0.0
H4399 H 0.256 0.1308 0.41073 0.0
H4400 H 0.26065 0.10435 0.38524 0.0
H4401 H 0.25643 0.11384 0.42751 0.0
H4402 H 0.25779 0.1213 0.40129 0.0
H4403 H 0.25993 0.09732 0.41159 0.0
C4404 C 0.26109 0.0934 0.40051 0.0
C4405 C 0.26133 0.09522 0.39297 0.0
C4406 C 0.2575 0.11966 0.40704 0.0
C4407 C 0.25931 0.10628 0.40361 0.0
C4408 C 0.25644 0.12508 0.41243 0.0
C4409 C 0.25608 0.12313 0.41994 0.0
C4410 C 0.25819 0.11223 0.40915 0.0
C4411 C 0.25679 0.11564 0.42181 0.0
C4412 C 0.26008 0.09888 0.40582 0.0
C4413 C 0.26057 0.10269 0.39098 0.0
N4414 N 0.2578 0.11047 0.41646 0.0
N4415 N 0.25958 0.10794 0.39627 0.0
H4416 H 0.62525 0.91923 0.76743 0.0
H4417 H 0.59694 0.89101 0.74839 0.0
H4418 H 0.62328 0.91645 0.74383 0.0
H4419 H 0.5999 0.89283 0.77199 0.0
H4420 H 0.60667 0.90021 0.7466 0.0
H4421 H 0.61608 0.90947 0.76921 0.0
C4422 C 0.62288 0.91658 0.76262 0.0
C4423 C 0.62502 0.91869 0.75546 0.0
C4424 C 0.60522 0.89858 0.75217 0.0
C4425 C 0.61453 0.90746 0.75746 0.0
C4426 C 0.59963 0.89335 0.7532 0.0
C4427 C 0.59757 0.89115 0.76035 0.0
C4428 C 0.60876 0.90168 0.75834 0.0
C4429 C 0.60134 0.8943 0.76637 0.0
C4430 C 0.61767 0.91097 0.76364 0.0
C4431 C 0.62185 0.91496 0.74944 0.0
N4432 N 0.60672 0.89942 0.76523 0.0
N4433 N 0.61674 0.90956 0.75058 0.0
H4434 H 0.1311 0.60394 0.76046 0.0
H4435 H 0.08793 0.61287 0.75592 0.0
H4436 H 0.11384 0.5875 0.76165 0.0
H4437 H 0.1049 0.62964 0.75552 0.0
H4438 H 0.09742 0.60353 0.75795 0.0
H4439 H 0.12168 0.61345 0.75858 0.0
C4440 C 0.12533 0.60233 0.76036 0.0
C4441 C 0.12328 0.59489 0.7612 0.0
C4442 C 0.09908 0.60925 0.75743 0.0
C4443 C 0.11245 0.60576 0.75899 0.0
C4444 C 0.09365 0.6146 0.75631 0.0
C4445 C 0.0956 0.62208 0.75558 0.0
C4446 C 0.10655 0.61135 0.75781 0.0
C4447 C 0.10313 0.62395 0.75598 0.0
C4448 C 0.11996 0.60776 0.75925 0.0
C4449 C 0.11571 0.59313 0.76092 0.0
N4450 N 0.10833 0.61863 0.75707 0.0
N4451 N 0.11059 0.59852 0.75984 0.0
H4452 H 0.42845 0.11344 0.76044 0.0
H4453 H 0.38528 0.10462 0.75559 0.0
H4454 H 0.41159 0.13031 0.76036 0.0
H4455 H 0.40246 0.08809 0.7551 0.0
H4456 H 0.39474 0.11414 0.75737 0.0
H4457 H 0.41892 0.10411 0.75853 0.0
C4458 C 0.42275 0.1152 0.75997 0.0
C4459 C 0.42084 0.12269 0.76052 0.0
C4460 C 0.39643 0.10843 0.75688 0.0
C4461 C 0.40984 0.11198 0.75843 0.0
C4462 C 0.39104 0.10299 0.75582 0.0
C4463 C 0.39307 0.09553 0.75521 0.0
C4464 C 0.40392 0.10639 0.75731 0.0
C4465 C 0.40061 0.09374 0.75565 0.0
C4466 C 0.41729 0.10985 0.75892 0.0
C4467 C 0.41332 0.1246 0.76003 0.0
N4468 N 0.40575 0.09913 0.75667 0.0
N4469 N 0.4081 0.11928 0.759 0.0
H4470 H 0.8854 0.41063 0.76022 0.0
H4471 H 0.92851 0.4019 0.75479 0.0
H4472 H 0.90253 0.42725 0.76012 0.0
H4473 H 0.91173 0.38496 0.75565 0.0
H4474 H 0.91898 0.41123 0.75662 0.0
H4475 H 0.89486 0.40112 0.75845 0.0
C4476 C 0.89115 0.41228 0.75986 0.0
C4477 C 0.89316 0.41976 0.7603 0.0
C4478 C 0.91737 0.40548 0.75641 0.0
C4479 C 0.90401 0.40891 0.75821 0.0
C4480 C 0.92282 0.40013 0.75541 0.0
C4481 C 0.92094 0.39261 0.7551 0.0
C4482 C 0.90993 0.40333 0.75711 0.0
C4483 C 0.91344 0.39069 0.75579 0.0
C4484 C 0.89654 0.40685 0.75881 0.0
C4485 C 0.90069 0.42157 0.75969 0.0
N4486 N 0.90821 0.39601 0.75677 0.0
N4487 N 0.90583 0.4162 0.75869 0.0
H4488 H 0.60538 0.13013 0.25534 0.0
H4489 H 0.61415 0.08706 0.26048 0.0
H4490 H 0.5888 0.11298 0.2547 0.0
H4491 H 0.63106 0.1039 0.26029 0.0
H4492 H 0.60482 0.09655 0.25845 0.0
H4493 H 0.61488 0.12069 0.25723 0.0
C4494 C 0.60374 0.12438 0.25556 0.0
C4495 C 0.59626 0.12236 0.25487 0.0
C4496 C 0.61056 0.09818 0.25884 0.0
C4497 C 0.60712 0.11152 0.2571 0.0
C4498 C 0.61592 0.09275 0.25996 0.0
C4499 C 0.62342 0.09466 0.26053 0.0
C4500 C 0.6127 0.10562 0.25829 0.0
C4501 C 0.62534 0.10217 0.25996 0.0
C4502 C 0.60916 0.119 0.25668 0.0
C4503 C 0.59447 0.11482 0.25532 0.0
N4504 N 0.62001 0.10737 0.25886 0.0
N4505 N 0.59984 0.1097 0.2564 0.0
H4506 H 0.91186 0.63055 0.26015 0.0
H4507 H 0.90298 0.58745 0.25539 0.0
H4508 H 0.9284 0.61337 0.26087 0.0
H4509 H 0.88612 0.60432 0.25538 0.0
H4510 H 0.91234 0.59695 0.2573 0.0
H4511 H 0.90233 0.62112 0.25832 0.0
C4512 C 0.91349 0.6248 0.25995 0.0
C4513 C 0.92096 0.62276 0.26065 0.0
C4514 C 0.9066 0.59859 0.25689 0.0
C4515 C 0.91008 0.61194 0.25849 0.0
C4516 C 0.90123 0.59315 0.25584 0.0
C4517 C 0.89373 0.59507 0.25526 0.0
C4518 C 0.90448 0.60603 0.25736 0.0
C4519 C 0.89183 0.60258 0.25573 0.0
C4520 C 0.90805 0.61942 0.25887 0.0
C4521 C 0.92274 0.61522 0.26025 0.0
N4522 N 0.89717 0.60779 0.25676 0.0
N4523 N 0.91735 0.6101 0.2592 0.0
H4524 H 0.41992 0.89109 0.26747 0.0
H4525 H 0.39163 0.91931 0.2484 0.0
H4526 H 0.41704 0.89299 0.24387 0.0
H4527 H 0.39356 0.91647 0.272 0.0
H4528 H 0.40081 0.90957 0.24663 0.0
H4529 H 0.41016 0.90026 0.26925 0.0
C4530 C 0.41724 0.89344 0.26266 0.0
C4531 C 0.41933 0.89128 0.25551 0.0
C4532 C 0.39921 0.91105 0.2522 0.0
C4533 C 0.40811 0.90177 0.2575 0.0
C4534 C 0.39399 0.91665 0.25321 0.0
C4535 C 0.39183 0.91874 0.26037 0.0
C4536 C 0.40233 0.90753 0.25837 0.0
C4537 C 0.395 0.915 0.26639 0.0
C4538 C 0.41164 0.89865 0.26368 0.0
C4539 C 0.41558 0.89443 0.24949 0.0
N4540 N 0.40011 0.90961 0.26526 0.0
N4541 N 0.41018 0.89954 0.25062 0.0
H4542 H 0.12568 0.41962 0.26731 0.0
H4543 H 0.0978 0.39068 0.24871 0.0
H4544 H 0.12407 0.41609 0.24378 0.0
H4545 H 0.10039 0.39318 0.27228 0.0
H4546 H 0.1075 0.39989 0.2468 0.0
H4547 H 0.11651 0.40988 0.26926 0.0
C4548 C 0.12339 0.4168 0.26255 0.0
C4549 C 0.12564 0.4187 0.25537 0.0
C4550 C 0.10597 0.39841 0.25239 0.0
C4551 C 0.11516 0.4075 0.25756 0.0
C4552 C 0.10041 0.39318 0.25348 0.0
C4553 C 0.09826 0.39117 0.26066 0.0
C4554 C 0.10941 0.40171 0.25852 0.0
C4555 C 0.10191 0.39451 0.26665 0.0
C4556 C 0.11818 0.41121 0.26367 0.0
C4557 C 0.12256 0.41477 0.24942 0.0
N4558 N 0.10728 0.39963 0.26544 0.0
N4559 N 0.11746 0.40939 0.25064 0.0
H4560 H 0.74613 0.61539 0.92405 0.0
H4561 H 0.76958 0.60295 0.88872 0.0
H4562 H 0.76212 0.62951 0.91336 0.0
H4563 H 0.75096 0.59067 0.89726 0.0
H4564 H 0.76714 0.61264 0.89778 0.0
H4565 H 0.74812 0.60611 0.91447 0.0
C4566 C 0.75008 0.61653 0.91969 0.0
C4567 C 0.75399 0.62322 0.91952 0.0
C4568 C 0.76357 0.60784 0.89765 0.0
C4569 C 0.75627 0.61262 0.9085 0.0
C4570 C 0.76494 0.60231 0.89245 0.0
C4571 C 0.76049 0.59594 0.89222 0.0
C4572 C 0.75774 0.607 0.9027 0.0
C4573 C 0.75463 0.5954 0.89729 0.0
C4574 C 0.75118 0.61125 0.91419 0.0
C4575 C 0.75895 0.62445 0.91367 0.0
N4576 N 0.75345 0.60083 0.90233 0.0
N4577 N 0.75998 0.61918 0.90842 0.0
H4578 H 0.76772 0.39092 0.09728 0.0
H4579 H 0.74871 0.41956 0.12513 0.0
H4580 H 0.74409 0.39318 0.09979 0.0
H4581 H 0.77231 0.41636 0.12352 0.0
H4582 H 0.74689 0.40979 0.11599 0.0
H4583 H 0.76951 0.4001 0.10701 0.0
C4584 C 0.76291 0.39335 0.09987 0.0
C4585 C 0.75575 0.39129 0.09769 0.0
C4586 C 0.75247 0.4112 0.11766 0.0
C4587 C 0.75775 0.40179 0.10888 0.0
C4588 C 0.75351 0.41681 0.12285 0.0
C4589 C 0.76067 0.41881 0.12509 0.0
C4590 C 0.75863 0.40758 0.11463 0.0
C4591 C 0.76668 0.41496 0.12202 0.0
C4592 C 0.76393 0.39857 0.10546 0.0
C4593 C 0.74971 0.39455 0.10133 0.0
N4594 N 0.76553 0.40957 0.11693 0.0
N4595 N 0.75085 0.39966 0.10672 0.0
H4596 H 0.60004 0.77225 0.12228 0.0
H4597 H 0.62384 0.7429 0.09922 0.0
H4598 H 0.59734 0.74864 0.12422 0.0
H4599 H 0.62512 0.76646 0.09583 0.0
H4600 H 0.61475 0.74492 0.109 0.0
H4601 H 0.60986 0.77025 0.1132 0.0
C4602 C 0.60156 0.76664 0.12084 0.0
C4603 C 0.59784 0.7606 0.12401 0.0
C4604 C 0.61703 0.74965 0.10613 0.0
C4605 C 0.60904 0.75828 0.11356 0.0
C4606 C 0.62226 0.7485 0.10057 0.0
C4607 C 0.62524 0.75451 0.09668 0.0
C4608 C 0.61477 0.75687 0.10785 0.0
C4609 C 0.62289 0.76165 0.09861 0.0
C4610 C 0.60713 0.76551 0.11562 0.0
C4611 C 0.59998 0.75346 0.12186 0.0
N4612 N 0.6178 0.76263 0.10405 0.0
N4613 N 0.60543 0.7525 0.11677 0.0
H4614 H 0.24365 0.59875 0.12279 0.0
H4615 H 0.27305 0.62169 0.09885 0.0
H4616 H 0.26724 0.5953 0.12399 0.0
H4617 H 0.2494 0.62366 0.09623 0.0
H4618 H 0.27106 0.61263 0.10868 0.0
H4619 H 0.24568 0.6085 0.11367 0.0
C4620 C 0.24926 0.60009 0.12118 0.0
C4621 C 0.25528 0.59619 0.12416 0.0
C4622 C 0.2663 0.61506 0.10596 0.0
C4623 C 0.25765 0.60731 0.11364 0.0
C4624 C 0.26743 0.62027 0.10038 0.0
C4625 C 0.26138 0.62343 0.09669 0.0
C4626 C 0.25906 0.61301 0.1079 0.0
C4627 C 0.25423 0.62129 0.09885 0.0
C4628 C 0.25042 0.60562 0.11594 0.0
C4629 C 0.26243 0.59809 0.12177 0.0
N4630 N 0.25327 0.61622 0.10431 0.0
N4631 N 0.26341 0.60351 0.11666 0.0
H4632 H 0.41695 0.24284 0.12225 0.0
H4633 H 0.39335 0.27232 0.09911 0.0
H4634 H 0.41978 0.26642 0.12417 0.0
H4635 H 0.39193 0.24877 0.09577 0.0
H4636 H 0.40242 0.27025 0.10891 0.0
H4637 H 0.40716 0.24488 0.11316 0.0
C4638 C 0.41547 0.24845 0.12081 0.0
C4639 C 0.41921 0.25447 0.12397 0.0
C4640 C 0.40011 0.26553 0.10605 0.0
C4641 C 0.40804 0.25685 0.1135 0.0
C4642 C 0.3949 0.26671 0.10048 0.0
C4643 C 0.39188 0.26071 0.0966 0.0
C4644 C 0.40233 0.25829 0.10778 0.0
C4645 C 0.39418 0.25356 0.09855 0.0
C4646 C 0.40991 0.24961 0.11558 0.0
C4647 C 0.41712 0.26162 0.1218 0.0
N4648 N 0.39926 0.25255 0.104 0.0
N4649 N 0.41168 0.26261 0.11671 0.0
H4650 H 0.25626 0.41094 0.885 0.0
H4651 H 0.26093 0.40197 0.92811 0.0
H4652 H 0.25544 0.4274 0.90222 0.0
H4653 H 0.26095 0.38518 0.9112 0.0
H4654 H 0.25904 0.41134 0.91862 0.0
H4655 H 0.25809 0.40141 0.89442 0.0
C4656 C 0.25643 0.41256 0.89075 0.0
C4657 C 0.25571 0.42 0.89281 0.0
C4658 C 0.25945 0.40561 0.91697 0.0
C4659 C 0.25787 0.40912 0.90362 0.0
C4660 C 0.26049 0.40024 0.9224 0.0
C4661 C 0.26106 0.39275 0.92047 0.0
C4662 C 0.25899 0.40351 0.90952 0.0
C4663 C 0.26061 0.39088 0.91295 0.0
C4664 C 0.25752 0.40711 0.89613 0.0
C4665 C 0.25609 0.42176 0.90036 0.0
N4666 N 0.25959 0.39622 0.90775 0.0
N4667 N 0.25713 0.41637 0.90547 0.0
H4668 H 0.58834 0.25431 0.90275 0.0
H4669 H 0.63148 0.25981 0.91129 0.0
H4670 H 0.60507 0.25501 0.88574 0.0
H4671 H 0.61442 0.25988 0.92798 0.0
H4672 H 0.62199 0.25792 0.90184 0.0
H4673 H 0.59791 0.2562 0.91204 0.0
C4674 C 0.59402 0.25491 0.90095 0.0
C4675 C 0.59588 0.25454 0.89343 0.0
C4676 C 0.62033 0.25834 0.90757 0.0
C4677 C 0.60693 0.25661 0.9041 0.0
C4678 C 0.62575 0.25946 0.91297 0.0
C4679 C 0.62376 0.25999 0.92046 0.0
C4680 C 0.61287 0.25777 0.90966 0.0
C4681 C 0.61624 0.25939 0.9223 0.0
C4682 C 0.5995 0.25594 0.90628 0.0
C4683 C 0.60338 0.2552 0.89148 0.0
N4684 N 0.61108 0.25832 0.91695 0.0
N4685 N 0.60862 0.25621 0.89677 0.0
H4686 H 0.426 0.74929 0.89681 0.0
H4687 H 0.3867 0.76128 0.91334 0.0
H4688 H 0.41371 0.76817 0.88893 0.0
H4689 H 0.4011 0.74531 0.92365 0.0
H4690 H 0.39594 0.76309 0.90359 0.0
H4691 H 0.41637 0.74703 0.90598 0.0
C4692 C 0.4213 0.75299 0.89702 0.0
C4693 C 0.42072 0.75897 0.8921 0.0
C4694 C 0.39707 0.75918 0.90799 0.0
C4695 C 0.40958 0.75633 0.90256 0.0
C4696 C 0.39179 0.75812 0.91352 0.0
C4697 C 0.39315 0.75316 0.91933 0.0
C4698 C 0.40374 0.75522 0.90822 0.0
C4699 C 0.39986 0.74926 0.91933 0.0
C4700 C 0.41578 0.75167 0.90224 0.0
C4701 C 0.41438 0.76345 0.89254 0.0
N4702 N 0.4049 0.75037 0.91387 0.0
N4703 N 0.40907 0.76205 0.89769 0.0
H4704 H 0.07207 0.30397 0.33062 0.0
H4705 H 0.09546 0.32506 0.29947 0.0
H4706 H 0.09493 0.29901 0.32582 0.0
H4707 H 0.07274 0.33003 0.30483 0.0
H4708 H 0.09539 0.31535 0.30888 0.0
H4709 H 0.07219 0.31329 0.3209 0.0
C4710 C 0.07711 0.30479 0.32747 0.0
C4711 C 0.0835 0.30067 0.32903 0.0
C4712 C 0.09042 0.31856 0.30798 0.0
C4713 C 0.0837 0.31145 0.31792 0.0
C4714 C 0.09046 0.32413 0.30263 0.0
C4715 C 0.08409 0.32838 0.30134 0.0
C4716 C 0.08396 0.31723 0.31209 0.0
C4717 C 0.07775 0.32684 0.30555 0.0
C4718 C 0.07718 0.31016 0.32195 0.0
C4719 C 0.08989 0.3021 0.32486 0.0
N4720 N 0.07785 0.32141 0.31073 0.0
N4721 N 0.08983 0.30737 0.3195 0.0
H4722 H 0.68101 0.0917 0.3086 0.0
H4723 H 0.72158 0.07847 0.32049 0.0
H4724 H 0.69509 0.07831 0.29477 0.0
H4725 H 0.70725 0.09151 0.33439 0.0
H4726 H 0.71221 0.07885 0.31075 0.0
H4727 H 0.69087 0.09231 0.31779 0.0
C4728 C 0.6862 0.08895 0.30745 0.0
C4729 C 0.6872 0.08493 0.30089 0.0
C4730 C 0.71113 0.08166 0.31592 0.0
C4731 C 0.69851 0.08552 0.31147 0.0
C4732 C 0.71647 0.08142 0.3215 0.0
C4733 C 0.7152 0.08494 0.32829 0.0
C4734 C 0.70446 0.08544 0.31714 0.0
C4735 C 0.70852 0.08878 0.32923 0.0
C4736 C 0.69182 0.08926 0.31273 0.0
C4737 C 0.69402 0.08138 0.29979 0.0
N4738 N 0.70339 0.08889 0.32373 0.0
N4739 N 0.6994 0.08174 0.30503 0.0
H4740 H 0.92455 0.70589 0.33506 0.0
H4741 H 0.93848 0.69402 0.29476 0.0
H4742 H 0.93822 0.71971 0.32121 0.0
H4743 H 0.92515 0.68011 0.30884 0.0
H4744 H 0.93801 0.70371 0.30414 0.0
H4745 H 0.92416 0.69667 0.32523 0.0
C4746 C 0.92741 0.70702 0.32992 0.0
C4747 C 0.93144 0.71359 0.32897 0.0
C4748 C 0.93516 0.69855 0.30516 0.0
C4749 C 0.9311 0.70298 0.31771 0.0
C4750 C 0.93546 0.693 0.29982 0.0
C4751 C 0.93187 0.68621 0.30101 0.0
C4752 C 0.93127 0.69733 0.31177 0.0
C4753 C 0.92794 0.68526 0.30764 0.0
C4754 C 0.92723 0.70173 0.32433 0.0
C4755 C 0.93514 0.71468 0.32223 0.0
N4756 N 0.92777 0.69074 0.31277 0.0
N4757 N 0.93489 0.70943 0.31687 0.0
H4758 H 0.33087 0.94447 0.30442 0.0
H4759 H 0.29955 0.92111 0.32529 0.0
H4760 H 0.32592 0.92173 0.29925 0.0
H4761 H 0.30481 0.94384 0.33021 0.0
H4762 H 0.30902 0.92119 0.31562 0.0
H4763 H 0.3211 0.94435 0.31368 0.0
C4764 C 0.32769 0.93946 0.30518 0.0
C4765 C 0.32922 0.93311 0.30101 0.0
C4766 C 0.30809 0.92616 0.31881 0.0
C4767 C 0.31804 0.9329 0.31174 0.0
C4768 C 0.3027 0.92611 0.32436 0.0
C4769 C 0.30136 0.93248 0.32858 0.0
C4770 C 0.31218 0.93263 0.31748 0.0
C4771 C 0.30556 0.93883 0.32704 0.0
C4772 C 0.32213 0.93938 0.31052 0.0
C4773 C 0.32499 0.92674 0.30238 0.0
N4774 N 0.31078 0.93873 0.32164 0.0
N4775 N 0.3196 0.92679 0.30762 0.0
H4776 H 0.09226 0.70558 0.68096 0.0
H4777 H 0.07866 0.69362 0.72136 0.0
H4778 H 0.07873 0.71937 0.69494 0.0
H4779 H 0.09175 0.67969 0.7071 0.0
H4780 H 0.07909 0.70334 0.712 0.0
H4781 H 0.09271 0.69633 0.69076 0.0
C4782 C 0.08944 0.7067 0.68612 0.0
C4783 C 0.08544 0.71327 0.68711 0.0
C4784 C 0.08189 0.69817 0.71093 0.0
C4785 C 0.08585 0.70263 0.69835 0.0
C4786 C 0.08162 0.6926 0.71626 0.0
C4787 C 0.08515 0.6858 0.71502 0.0
C4788 C 0.08571 0.69695 0.70428 0.0
C4789 C 0.08901 0.68486 0.70835 0.0
C4790 C 0.08966 0.70139 0.6917 0.0
C4791 C 0.08179 0.71435 0.69388 0.0
N4792 N 0.08916 0.69035 0.70323 0.0
N4793 N 0.08207 0.70908 0.69923 0.0
H4794 H 0.29983 0.09462 0.69036 0.0
H4795 H 0.33088 0.07116 0.7115 0.0
H4796 H 0.30491 0.07181 0.68563 0.0
H4797 H 0.32621 0.09401 0.71642 0.0
H4798 H 0.32112 0.07129 0.70223 0.0
H4799 H 0.30929 0.09454 0.70005 0.0
C4800 C 0.30294 0.0896 0.69134 0.0
C4801 C 0.30155 0.08321 0.68717 0.0
C4802 C 0.32221 0.07628 0.70534 0.0
C4803 C 0.31235 0.08307 0.69828 0.0
C4804 C 0.32776 0.07619 0.71068 0.0
C4805 C 0.32937 0.08258 0.71478 0.0
C4806 C 0.3182 0.08279 0.70404 0.0
C4807 C 0.32522 0.08898 0.71335 0.0
C4808 C 0.30831 0.08955 0.6969 0.0
C4809 C 0.30569 0.07684 0.68876 0.0
N4810 N 0.31983 0.08892 0.7081 0.0
N4811 N 0.3109 0.07694 0.69417 0.0
H4812 H 0.92149 0.32524 0.7174 0.0
H4813 H 0.9448 0.30342 0.68674 0.0
H4814 H 0.94447 0.32946 0.71249 0.0
H4815 H 0.92171 0.29914 0.69112 0.0
H4816 H 0.94481 0.31267 0.69651 0.0
H4817 H 0.92145 0.31547 0.70805 0.0
C4818 C 0.92652 0.32413 0.71435 0.0
C4819 C 0.933 0.32819 0.71575 0.0
C4820 C 0.93974 0.3097 0.69536 0.0
C4821 C 0.933 0.31697 0.70508 0.0
C4822 C 0.93974 0.30437 0.6898 0.0
C4823 C 0.93325 0.30047 0.6881 0.0
C4824 C 0.9332 0.31118 0.69927 0.0
C4825 C 0.92683 0.30207 0.69218 0.0
C4826 C 0.9265 0.31852 0.70904 0.0
C4827 C 0.93938 0.32642 0.7117 0.0
N4828 N 0.92696 0.3073 0.69757 0.0
N4829 N 0.93921 0.32097 0.70655 0.0
H4830 H 0.71773 0.92094 0.69118 0.0
H4831 H 0.68652 0.94449 0.71196 0.0
H4832 H 0.7127 0.94373 0.68628 0.0
H4833 H 0.69128 0.92171 0.71714 0.0
H4834 H 0.69638 0.94435 0.70279 0.0
H4835 H 0.70828 0.9211 0.70087 0.0
C4836 C 0.71463 0.92598 0.69213 0.0
C4837 C 0.71603 0.93234 0.6879 0.0
C4838 C 0.6953 0.93938 0.70593 0.0
C4839 C 0.70523 0.93257 0.69902 0.0
C4840 C 0.68968 0.93947 0.71122 0.0
C4841 C 0.68807 0.93311 0.71536 0.0
C4842 C 0.69934 0.93287 0.70474 0.0
C4843 C 0.69228 0.92672 0.71403 0.0
C4844 C 0.70926 0.92607 0.69769 0.0
C4845 C 0.71191 0.93873 0.68946 0.0
N4846 N 0.69772 0.92676 0.70883 0.0
N4847 N 0.7067 0.93867 0.69486 0.0
H4848 H 0.30384 0.07109 0.3299 0.0
H4849 H 0.32509 0.0946 0.29896 0.0
H4850 H 0.29923 0.09407 0.32553 0.0
H4851 H 0.3296 0.0717 0.30382 0.0
H4852 H 0.3154 0.09452 0.30841 0.0
H4853 H 0.313 0.07118 0.32003 0.0
C4854 C 0.3047 0.07614 0.32682 0.0
C4855 C 0.30073 0.08257 0.32855 0.0
C4856 C 0.3185 0.08951 0.30739 0.0
C4857 C 0.31134 0.08275 0.31726 0.0
C4858 C 0.32405 0.08956 0.30201 0.0
C4859 C 0.32817 0.08314 0.30057 0.0
C4860 C 0.31706 0.083 0.31137 0.0
C4861 C 0.32651 0.07674 0.30465 0.0
C4862 C 0.30998 0.0762 0.32121 0.0
C4863 C 0.30221 0.089 0.32445 0.0
N4864 N 0.32111 0.07685 0.30986 0.0
N4865 N 0.3074 0.08892 0.319 0.0
H4866 H 0.92429 0.30859 0.33485 0.0
H4867 H 0.93795 0.32046 0.29443 0.0
H4868 H 0.93813 0.2949 0.32108 0.0
H4869 H 0.92452 0.33425 0.3085 0.0
H4870 H 0.93761 0.31078 0.30386 0.0
H4871 H 0.92373 0.31774 0.32495 0.0
C4872 C 0.92715 0.30747 0.32971 0.0
C4873 C 0.93127 0.30096 0.32881 0.0
C4874 C 0.93471 0.31591 0.30487 0.0
C4875 C 0.93074 0.31148 0.31746 0.0
C4876 C 0.93493 0.32146 0.2995 0.0
C4877 C 0.93128 0.3282 0.30068 0.0
C4878 C 0.93082 0.31711 0.31148 0.0
C4879 C 0.92735 0.32912 0.30731 0.0
C4880 C 0.92687 0.31272 0.32407 0.0
C4881 C 0.93497 0.29988 0.32207 0.0
N4882 N 0.92725 0.32366 0.31246 0.0
N4883 N 0.93463 0.30509 0.31666 0.0
H4884 H 0.69584 0.93751 0.29528 0.0
H4885 H 0.70756 0.92399 0.33578 0.0
H4886 H 0.68189 0.92423 0.30938 0.0
H4887 H 0.72148 0.93744 0.32182 0.0
H4888 H 0.69839 0.92346 0.3259 0.0
H4889 H 0.70551 0.93711 0.30471 0.0
C4890 C 0.6948 0.93451 0.30036 0.0
C4891 C 0.68802 0.93092 0.30154 0.0
C4892 C 0.70346 0.92651 0.32498 0.0
C4893 C 0.69911 0.9304 0.31235 0.0
C4894 C 0.70873 0.92677 0.33061 0.0
C4895 C 0.71531 0.93078 0.32965 0.0
C4896 C 0.70475 0.93028 0.31832 0.0
C4897 C 0.71645 0.93438 0.32286 0.0
C4898 C 0.70035 0.93426 0.30573 0.0
C4899 C 0.68705 0.92701 0.30819 0.0
N4900 N 0.71122 0.93405 0.31747 0.0
N4901 N 0.69252 0.92689 0.31334 0.0
H4902 H 0.09534 0.69057 0.29866 0.0
H4903 H 0.07169 0.7115 0.32967 0.0
H4904 H 0.07245 0.68583 0.30355 0.0
H4905 H 0.09457 0.71654 0.32503 0.0
H4906 H 0.07184 0.70233 0.31983 0.0
H4907 H 0.09518 0.70025 0.30809 0.0
C4908 C 0.09028 0.69155 0.30172 0.0
C4909 C 0.08389 0.68737 0.30029 0.0
C4910 C 0.07683 0.70545 0.32094 0.0
C4911 C 0.08367 0.69848 0.31107 0.0
C4912 C 0.07674 0.71073 0.32654 0.0
C4913 C 0.08312 0.71483 0.32818 0.0
C4914 C 0.08337 0.70421 0.31694 0.0
C4915 C 0.08954 0.71346 0.32402 0.0
C4916 C 0.09019 0.69711 0.30708 0.0
C4917 C 0.07748 0.68897 0.30437 0.0
N4918 N 0.0895 0.70826 0.31859 0.0
N4919 N 0.07754 0.69437 0.30957 0.0
H4920 H 0.3052 0.94457 0.68496 0.0
H4921 H 0.32586 0.92142 0.71655 0.0
H4922 H 0.29981 0.92193 0.69019 0.0
H4923 H 0.33113 0.94399 0.71091 0.0
H4924 H 0.31617 0.92148 0.70711 0.0
H4925 H 0.31449 0.94449 0.69471 0.0
C4926 C 0.30592 0.93959 0.6882 0.0
C4927 C 0.30168 0.93325 0.68675 0.0
C4928 C 0.31944 0.92642 0.70795 0.0
C4929 C 0.31244 0.93309 0.69791 0.0
C4930 C 0.325 0.92638 0.71332 0.0
C4931 C 0.32932 0.93271 0.71454 0.0
C4932 C 0.3182 0.93284 0.70376 0.0
C4933 C 0.32787 0.93901 0.71025 0.0
C4934 C 0.31127 0.93953 0.69375 0.0
C4935 C 0.30299 0.92692 0.69106 0.0
N4936 N 0.32245 0.93891 0.70505 0.0
N4937 N 0.30825 0.927 0.69644 0.0
H4938 H 0.07815 0.32094 0.72029 0.0
H4939 H 0.09191 0.309 0.67996 0.0
H4940 H 0.09165 0.33471 0.70623 0.0
H4941 H 0.07813 0.29528 0.6938 0.0
H4942 H 0.09239 0.3182 0.68979 0.0
H4943 H 0.07848 0.31127 0.71088 0.0
C4944 C 0.08118 0.32194 0.71523 0.0
C4945 C 0.08486 0.32867 0.71405 0.0
C4946 C 0.08928 0.31317 0.6907 0.0
C4947 C 0.0853 0.31758 0.70326 0.0
C4948 C 0.08904 0.30788 0.68509 0.0
C4949 C 0.08496 0.30135 0.68604 0.0
C4950 C 0.08541 0.31194 0.69731 0.0
C4951 C 0.08126 0.30028 0.69278 0.0
C4952 C 0.08139 0.3164 0.70987 0.0
C4953 C 0.0888 0.32959 0.70742 0.0
N4954 N 0.08156 0.30552 0.69815 0.0
N4955 N 0.08889 0.32413 0.70228 0.0
H4956 H 0.69142 0.0941 0.71634 0.0
H4957 H 0.7123 0.07074 0.68507 0.0
H4958 H 0.68631 0.07144 0.71096 0.0
H4959 H 0.71738 0.09353 0.68989 0.0
H4960 H 0.70303 0.07085 0.69485 0.0
H4961 H 0.70112 0.094 0.7069 0.0
C4962 C 0.69232 0.08911 0.71317 0.0
C4963 C 0.68804 0.08276 0.71446 0.0
C4964 C 0.70617 0.07583 0.69379 0.0
C4965 C 0.69917 0.0826 0.70368 0.0
C4966 C 0.71151 0.07576 0.68823 0.0
C4967 C 0.71566 0.08213 0.68666 0.0
C4968 C 0.70493 0.08233 0.69783 0.0
C4969 C 0.71427 0.08851 0.69085 0.0
C4970 C 0.69789 0.08905 0.7078 0.0
C4971 C 0.68954 0.07643 0.71024 0.0
N4972 N 0.70903 0.08845 0.69625 0.0
N4973 N 0.69496 0.07652 0.70505 0.0
H4974 H 0.92465 0.68037 0.70659 0.0
H4975 H 0.93872 0.72058 0.69457 0.0
H4976 H 0.93844 0.69416 0.72033 0.0
H4977 H 0.9252 0.70658 0.68077 0.0
H4978 H 0.93827 0.7112 0.70428 0.0
H4979 H 0.92426 0.69019 0.69735 0.0
C4980 C 0.92754 0.68549 0.7077 0.0
C4981 C 0.9316 0.68642 0.71425 0.0
C4982 C 0.93538 0.71019 0.69914 0.0
C4983 C 0.93125 0.69768 0.70363 0.0
C4984 C 0.93566 0.71553 0.69357 0.0
C4985 C 0.93201 0.71436 0.68682 0.0
C4986 C 0.93143 0.70361 0.69796 0.0
C4987 C 0.92803 0.70776 0.68591 0.0
C4988 C 0.92735 0.69108 0.7024 0.0
C4989 C 0.93533 0.69315 0.71532 0.0
N4990 N 0.92787 0.70263 0.69139 0.0
N4991 N 0.93508 0.6985 0.71006 0.0
H4992 H 0.32158 0.29505 0.07761 0.0
H4993 H 0.30969 0.33536 0.09139 0.0
H4994 H 0.33551 0.30915 0.09088 0.0
H4995 H 0.29573 0.32136 0.07804 0.0
H4996 H 0.31895 0.32556 0.09178 0.0
H4997 H 0.31185 0.3044 0.07809 0.0
C4998 C 0.3226 0.30011 0.08062 0.0
C4999 C 0.32939 0.30131 0.08419 0.0
C5000 C 0.31385 0.32462 0.08878 0.0
C5001 C 0.31824 0.31204 0.08481 0.0
C5002 C 0.30853 0.3302 0.0886 0.0
C5003 C 0.30191 0.3292 0.08466 0.0
C5004 C 0.31257 0.31797 0.085 0.0
C5005 C 0.30079 0.32243 0.08105 0.0
C5006 C 0.31703 0.30544 0.08092 0.0
C5007 C 0.33034 0.30794 0.08811 0.0
N5008 N 0.30606 0.31708 0.08129 0.0
N5009 N 0.32485 0.31306 0.08829 0.0
H5010 H 0.32951 0.7124 0.94438 0.0
H5011 H 0.29896 0.69072 0.92076 0.0
H5012 H 0.32534 0.71675 0.9213 0.0
H5013 H 0.30363 0.68643 0.94376 0.0
H5014 H 0.30829 0.70053 0.92086 0.0
H5015 H 0.31964 0.70324 0.94431 0.0
C5016 C 0.32647 0.71149 0.93931 0.0
C5017 C 0.32826 0.71538 0.93284 0.0
C5018 C 0.30724 0.69746 0.92589 0.0
C5019 C 0.31698 0.70476 0.93269 0.0
C5020 C 0.30194 0.69183 0.92583 0.0
C5021 C 0.30049 0.68774 0.93226 0.0
C5022 C 0.31114 0.69899 0.93243 0.0
C5023 C 0.30447 0.6895 0.9387 0.0
C5024 C 0.32086 0.70621 0.93926 0.0
C5025 C 0.32421 0.71383 0.92639 0.0
N5026 N 0.30961 0.69497 0.9386 0.0
N5027 N 0.31877 0.70864 0.92648 0.0
H5028 H 0.3253 0.29895 0.92075 0.0
H5029 H 0.30404 0.32983 0.94426 0.0
H5030 H 0.32984 0.30381 0.94366 0.0
H5031 H 0.29941 0.32546 0.92127 0.0
H5032 H 0.31324 0.32001 0.94416 0.0
H5033 H 0.31563 0.30841 0.92081 0.0
C5034 C 0.32428 0.30201 0.92579 0.0
C5035 C 0.32839 0.30056 0.93222 0.0
C5036 C 0.31021 0.32117 0.93913 0.0
C5037 C 0.3173 0.31137 0.93233 0.0
C5038 C 0.30491 0.32676 0.93919 0.0
C5039 C 0.30091 0.32847 0.93276 0.0
C5040 C 0.31157 0.31724 0.93258 0.0
C5041 C 0.30241 0.32439 0.92633 0.0
C5042 C 0.31873 0.30738 0.92583 0.0
C5043 C 0.32674 0.30464 0.93861 0.0
N5044 N 0.30761 0.31897 0.92641 0.0
N5045 N 0.32135 0.30985 0.93849 0.0
H5046 H 0.72161 0.32021 0.93728 0.0
H5047 H 0.68101 0.30846 0.924 0.0
H5048 H 0.70736 0.33417 0.92419 0.0
H5049 H 0.69504 0.2946 0.93743 0.0
H5050 H 0.69088 0.31764 0.92343 0.0
H5051 H 0.71219 0.31054 0.93693 0.0
C5052 C 0.7165 0.32125 0.93433 0.0
C5053 C 0.71528 0.32804 0.93078 0.0
C5054 C 0.69182 0.31258 0.92648 0.0
C5055 C 0.70447 0.31695 0.93031 0.0
C5056 C 0.68619 0.3073 0.92677 0.0
C5057 C 0.68718 0.30074 0.93078 0.0
C5058 C 0.6985 0.3113 0.93023 0.0
C5059 C 0.69399 0.29962 0.93436 0.0
C5060 C 0.71114 0.3157 0.93411 0.0
C5061 C 0.70859 0.32901 0.92694 0.0
N5062 N 0.69938 0.30485 0.93401 0.0
N5063 N 0.70344 0.32354 0.92684 0.0
H5064 H 0.71753 0.69114 0.92023 0.0
H5065 H 0.6869 0.71255 0.94396 0.0
H5066 H 0.71307 0.68692 0.94328 0.0
H5067 H 0.691 0.71702 0.92089 0.0
H5068 H 0.69677 0.7034 0.94382 0.0
H5069 H 0.70805 0.7008 0.92033 0.0
C5070 C 0.71456 0.69224 0.92531 0.0
C5071 C 0.71612 0.68821 0.93176 0.0
C5072 C 0.69553 0.70639 0.93878 0.0
C5073 C 0.70529 0.69929 0.93192 0.0
C5074 C 0.68992 0.71166 0.93887 0.0
C5075 C 0.68812 0.7156 0.93243 0.0
C5076 C 0.6994 0.705 0.9322 0.0
C5077 C 0.69214 0.71407 0.92597 0.0
C5078 C 0.70917 0.69777 0.92537 0.0
C5079 C 0.71215 0.68994 0.9382 0.0
N5080 N 0.69759 0.70889 0.92601 0.0
N5081 N 0.70692 0.69533 0.93811 0.0
H5082 H 0.69572 0.72058 0.07741 0.0
H5083 H 0.70826 0.68074 0.09204 0.0
H5084 H 0.68222 0.70673 0.0914 0.0
H5085 H 0.72155 0.69425 0.07753 0.0
H5086 H 0.69899 0.69053 0.09247 0.0
H5087 H 0.7055 0.71128 0.07786 0.0
C5088 C 0.6948 0.71558 0.08057 0.0
C5089 C 0.68811 0.71443 0.08435 0.0
C5090 C 0.70395 0.69137 0.08921 0.0
C5091 C 0.69933 0.70377 0.08494 0.0
C5092 C 0.70927 0.68579 0.089 0.0
C5093 C 0.7157 0.68665 0.08473 0.0
C5094 C 0.70504 0.69787 0.08511 0.0
C5095 C 0.71663 0.69329 0.08081 0.0
C5096 C 0.70041 0.71029 0.08086 0.0
C5097 C 0.68731 0.7079 0.08847 0.0
N5098 N 0.71136 0.69863 0.08109 0.0
N5099 N 0.69283 0.70281 0.08863 0.0
H5100 H 0.30516 0.68452 0.07074 0.0
H5101 H 0.32554 0.71626 0.0939 0.0
H5102 H 0.29972 0.68968 0.09338 0.0
H5103 H 0.33091 0.71064 0.07135 0.0
H5104 H 0.31591 0.70675 0.09382 0.0
H5105 H 0.31436 0.69435 0.07082 0.0
C5106 C 0.30585 0.68776 0.07571 0.0
C5107 C 0.30163 0.68627 0.08205 0.0
C5108 C 0.31919 0.70762 0.08889 0.0
C5109 C 0.31228 0.69752 0.08222 0.0
C5110 C 0.32471 0.71302 0.08894 0.0
C5111 C 0.32905 0.71427 0.08262 0.0
C5112 C 0.318 0.70341 0.08247 0.0
C5113 C 0.32765 0.70996 0.07632 0.0
C5114 C 0.31115 0.69336 0.07577 0.0
C5115 C 0.3029 0.69058 0.08839 0.0
N5116 N 0.32226 0.70473 0.07641 0.0
N5117 N 0.30811 0.69601 0.08831 0.0
H5118 H 0.6908 0.29888 0.09449 0.0
H5119 H 0.71151 0.3306 0.07155 0.0
H5120 H 0.68563 0.3046 0.07191 0.0
H5121 H 0.71677 0.32532 0.09422 0.0
H5122 H 0.70224 0.32083 0.07155 0.0
H5123 H 0.70046 0.30836 0.09452 0.0
C5124 C 0.69168 0.30214 0.08955 0.0
C5125 C 0.68739 0.30092 0.08319 0.0
C5126 C 0.70542 0.32179 0.07653 0.0
C5127 C 0.69848 0.31175 0.08316 0.0
C5128 C 0.71076 0.32735 0.07652 0.0
C5129 C 0.71496 0.32878 0.08289 0.0
C5130 C 0.70423 0.31761 0.08296 0.0
C5131 C 0.71362 0.32446 0.08921 0.0
C5132 C 0.69722 0.30752 0.08955 0.0
C5133 C 0.68886 0.30525 0.07691 0.0
N5134 N 0.70837 0.31907 0.08908 0.0
N5135 N 0.69426 0.31046 0.07706 0.0
H5136 H 0.59513 0.82524 0.79895 0.0
H5137 H 0.57213 0.80401 0.83029 0.0
H5138 H 0.57244 0.83011 0.80455 0.0
H5139 H 0.59495 0.79914 0.82527 0.0
H5140 H 0.57212 0.81335 0.8206 0.0
H5141 H 0.59519 0.81552 0.80836 0.0
C5142 C 0.59017 0.82428 0.80217 0.0
C5143 C 0.58376 0.8285 0.80094 0.0
C5144 C 0.57713 0.81024 0.82159 0.0
C5145 C 0.58379 0.81735 0.81169 0.0
C5146 C 0.57713 0.80486 0.8271 0.0
C5147 C 0.58354 0.80075 0.82859 0.0
C5148 C 0.5836 0.81156 0.81751 0.0
C5149 C 0.5899 0.80222 0.82437 0.0
C5150 C 0.5902 0.81871 0.80751 0.0
C5151 C 0.57747 0.82694 0.80521 0.0
N5152 N 0.58977 0.8075 0.81902 0.0
N5153 N 0.57765 0.82151 0.81039 0.0
H5154 H 0.19508 0.57797 0.79456 0.0
H5155 H 0.20733 0.59177 0.83479 0.0
H5156 H 0.18124 0.59116 0.80882 0.0
H5157 H 0.22107 0.57825 0.82075 0.0
H5158 H 0.19802 0.59223 0.82502 0.0
H5159 H 0.2049 0.57851 0.80382 0.0
C5160 C 0.1941 0.58098 0.79964 0.0
C5161 C 0.1873 0.5845 0.80091 0.0
C5162 C 0.20309 0.58918 0.82406 0.0
C5163 C 0.19856 0.58518 0.81153 0.0
C5164 C 0.20843 0.58896 0.82962 0.0
C5165 C 0.215 0.58495 0.82861 0.0
C5166 C 0.20429 0.58536 0.81742 0.0
C5167 C 0.21605 0.58132 0.82183 0.0
C5168 C 0.19973 0.58131 0.80491 0.0
C5169 C 0.18641 0.58843 0.80755 0.0
N5170 N 0.21075 0.5816 0.81651 0.0
N5171 N 0.19196 0.58863 0.81261 0.0
H5172 H 0.4448 0.18492 0.80434 0.0
H5173 H 0.42129 0.21601 0.8253 0.0
H5174 H 0.4219 0.18953 0.7994 0.0
H5175 H 0.44412 0.21094 0.83011 0.0
H5176 H 0.42136 0.2065 0.81569 0.0
H5177 H 0.44465 0.19468 0.81359 0.0
C5178 C 0.43975 0.18803 0.80515 0.0
C5179 C 0.43336 0.1864 0.80105 0.0
C5180 C 0.42635 0.20749 0.81884 0.0
C5181 C 0.43312 0.19757 0.81176 0.0
C5182 C 0.42631 0.21289 0.82435 0.0
C5183 C 0.43271 0.21429 0.82852 0.0
C5184 C 0.43284 0.20344 0.81749 0.0
C5185 C 0.43908 0.21014 0.82697 0.0
C5186 C 0.43965 0.19358 0.81048 0.0
C5187 C 0.42694 0.19053 0.80247 0.0
N5188 N 0.43898 0.20491 0.8216 0.0
N5189 N 0.42698 0.19593 0.80771 0.0
H5190 H 0.79988 0.4203 0.82504 0.0
H5191 H 0.83099 0.44384 0.80404 0.0
H5192 H 0.80498 0.44308 0.82987 0.0
H5193 H 0.82631 0.421 0.79903 0.0
H5194 H 0.82122 0.44367 0.8133 0.0
H5195 H 0.80936 0.42041 0.81537 0.0
C5196 C 0.803 0.42532 0.82408 0.0
C5197 C 0.80161 0.4317 0.82827 0.0
C5198 C 0.82231 0.43869 0.81018 0.0
C5199 C 0.81243 0.43187 0.81719 0.0
C5200 C 0.82787 0.4388 0.80484 0.0
C5201 C 0.82947 0.43243 0.80072 0.0
C5202 C 0.8183 0.43217 0.81144 0.0
C5203 C 0.82532 0.42602 0.80213 0.0
C5204 C 0.80838 0.42539 0.81854 0.0
C5205 C 0.80576 0.43807 0.82672 0.0
N5206 N 0.81992 0.42605 0.80737 0.0
N5207 N 0.81098 0.43798 0.82132 0.0
H5208 H 0.59254 0.17993 0.20685 0.0
H5209 H 0.57852 0.2202 0.19503 0.0
H5210 H 0.57884 0.19369 0.22069 0.0
H5211 H 0.59209 0.2063 0.1812 0.0
H5212 H 0.57898 0.21079 0.20471 0.0
H5213 H 0.59297 0.18981 0.19767 0.0
C5214 C 0.58968 0.18505 0.208 0.0
C5215 C 0.58563 0.18596 0.21456 0.0
C5216 C 0.58188 0.20981 0.19956 0.0
C5217 C 0.58602 0.19728 0.204 0.0
C5218 C 0.58159 0.21517 0.19402 0.0
C5219 C 0.58525 0.21404 0.18726 0.0
C5220 C 0.58585 0.20325 0.19836 0.0
C5221 C 0.58925 0.20745 0.18633 0.0
C5222 C 0.58989 0.19068 0.20273 0.0
C5223 C 0.58194 0.19269 0.21567 0.0
N5224 N 0.58941 0.2023 0.1918 0.0
N5225 N 0.58221 0.19808 0.21044 0.0
H5226 H 0.80017 0.59485 0.19055 0.0
H5227 H 0.83118 0.57136 0.21172 0.0
H5228 H 0.80514 0.57201 0.18591 0.0
H5229 H 0.82669 0.59428 0.21647 0.0
H5230 H 0.82139 0.57149 0.20247 0.0
H5231 H 0.80967 0.59479 0.20019 0.0
C5232 C 0.80326 0.58983 0.19154 0.0
C5233 C 0.80183 0.58342 0.18741 0.0
C5234 C 0.82252 0.5765 0.20554 0.0
C5235 C 0.81269 0.5833 0.19847 0.0
C5236 C 0.82809 0.57641 0.21087 0.0
C5237 C 0.82975 0.58281 0.21492 0.0
C5238 C 0.81856 0.58303 0.20421 0.0
C5239 C 0.82565 0.58924 0.21344 0.0
C5240 C 0.80866 0.58979 0.19707 0.0
C5241 C 0.80596 0.57705 0.18901 0.0
N5242 N 0.82024 0.58918 0.20821 0.0
N5243 N 0.81119 0.57716 0.1944 0.0
H5244 H 0.42236 0.82525 0.21705 0.0
H5245 H 0.44531 0.80462 0.18532 0.0
H5246 H 0.44489 0.83056 0.21121 0.0
H5247 H 0.42269 0.79922 0.19073 0.0
H5248 H 0.4453 0.81391 0.19506 0.0
H5249 H 0.42236 0.81555 0.20763 0.0
C5250 C 0.4273 0.82439 0.21378 0.0
C5251 C 0.43363 0.82873 0.21494 0.0
C5252 C 0.44034 0.81069 0.19414 0.0
C5253 C 0.4337 0.81761 0.20418 0.0
C5254 C 0.44035 0.80534 0.1886 0.0
C5255 C 0.434 0.8011 0.18721 0.0
C5256 C 0.43391 0.81185 0.19834 0.0
C5257 C 0.42769 0.80241 0.19156 0.0
C5258 C 0.42731 0.81883 0.20843 0.0
C5259 C 0.43991 0.8273 0.2106 0.0
N5260 N 0.42781 0.80766 0.19693 0.0
N5261 N 0.43977 0.82188 0.20542 0.0
H5262 H 0.18158 0.42367 0.20648 0.0
H5263 H 0.22199 0.4372 0.19435 0.0
H5264 H 0.19562 0.43726 0.22016 0.0
H5265 H 0.20769 0.42402 0.18053 0.0
H5266 H 0.21265 0.43681 0.20411 0.0
H5267 H 0.19138 0.42315 0.19721 0.0
C5268 C 0.18675 0.42649 0.20758 0.0
C5269 C 0.18776 0.43053 0.21412 0.0
C5270 C 0.21157 0.43398 0.19895 0.0
C5271 C 0.19899 0.43004 0.20346 0.0
C5272 C 0.21689 0.43423 0.19336 0.0
C5273 C 0.21562 0.43067 0.18658 0.0
C5274 C 0.20492 0.43015 0.19777 0.0
C5275 C 0.20895 0.42679 0.18568 0.0
C5276 C 0.19233 0.42623 0.20225 0.0
C5277 C 0.19455 0.43417 0.21516 0.0
N5278 N 0.20384 0.42666 0.19119 0.0
N5279 N 0.19989 0.43385 0.20989 0.0
H5280 H 0.82152 0.57767 0.79531 0.0
H5281 H 0.80941 0.59162 0.83553 0.0
H5282 H 0.83533 0.59108 0.8094 0.0
H5283 H 0.79562 0.57801 0.82161 0.0
H5284 H 0.81868 0.59202 0.82573 0.0
H5285 H 0.81175 0.57814 0.80464 0.0
C5286 C 0.8225 0.58071 0.80037 0.0
C5287 C 0.82928 0.58431 0.80158 0.0
C5288 C 0.81362 0.58897 0.82481 0.0
C5289 C 0.81808 0.58493 0.81227 0.0
C5290 C 0.80829 0.58878 0.83039 0.0
C5291 C 0.80171 0.58476 0.82941 0.0
C5292 C 0.81239 0.58512 0.81819 0.0
C5293 C 0.80064 0.58109 0.82266 0.0
C5294 C 0.81691 0.58101 0.80568 0.0
C5295 C 0.83018 0.58828 0.80819 0.0
N5296 N 0.80593 0.58134 0.81732 0.0
N5297 N 0.82467 0.58845 0.81329 0.0
H5298 H 0.43835 0.82037 0.79509 0.0
H5299 H 0.4245 0.80822 0.83535 0.0
H5300 H 0.4249 0.8341 0.8092 0.0
H5301 H 0.43811 0.79449 0.82139 0.0
H5302 H 0.42405 0.81748 0.82556 0.0
H5303 H 0.43791 0.81062 0.80443 0.0
C5304 C 0.43531 0.82134 0.80015 0.0
C5305 C 0.43168 0.82809 0.80137 0.0
C5306 C 0.42711 0.81243 0.82462 0.0
C5307 C 0.43111 0.81691 0.81207 0.0
C5308 C 0.42733 0.80711 0.8302 0.0
C5309 C 0.43137 0.80055 0.82921 0.0
C5310 C 0.43095 0.81121 0.81798 0.0
C5311 C 0.43502 0.7995 0.82244 0.0
C5312 C 0.43503 0.81575 0.80547 0.0
C5313 C 0.42772 0.82897 0.80798 0.0
N5314 N 0.43474 0.80477 0.8171 0.0
N5315 N 0.42757 0.82346 0.81309 0.0
H5316 H 0.22172 0.43729 0.82145 0.0
H5317 H 0.1813 0.4236 0.80955 0.0
H5318 H 0.20754 0.42407 0.83537 0.0
H5319 H 0.19522 0.43723 0.79576 0.0
H5320 H 0.19115 0.42312 0.81876 0.0
H5321 H 0.21234 0.43685 0.81174 0.0
C5322 C 0.21664 0.4343 0.82247 0.0
C5323 C 0.21542 0.43073 0.82926 0.0
C5324 C 0.19207 0.4262 0.81371 0.0
C5325 C 0.20466 0.43017 0.81812 0.0
C5326 C 0.18646 0.42643 0.80842 0.0
C5327 C 0.18742 0.43047 0.80186 0.0
C5328 C 0.19871 0.43003 0.81246 0.0
C5329 C 0.19419 0.43413 0.80077 0.0
C5330 C 0.21129 0.43402 0.8169 0.0
C5331 C 0.20877 0.42683 0.8302 0.0
N5332 N 0.19956 0.43384 0.80602 0.0
N5333 N 0.20363 0.42668 0.82472 0.0
H5334 H 0.5718 0.21127 0.83099 0.0
H5335 H 0.59511 0.19038 0.7997 0.0
H5336 H 0.5947 0.21615 0.82629 0.0
H5337 H 0.57236 0.18546 0.805 0.0
H5338 H 0.59508 0.2 0.8092 0.0
H5339 H 0.57187 0.20205 0.82119 0.0
C5340 C 0.57683 0.21046 0.82785 0.0
C5341 C 0.58324 0.21453 0.82946 0.0
C5342 C 0.59009 0.19682 0.80827 0.0
C5343 C 0.5834 0.20385 0.81826 0.0
C5344 C 0.59012 0.1913 0.80287 0.0
C5345 C 0.58372 0.1871 0.80153 0.0
C5346 C 0.58364 0.19814 0.81238 0.0
C5347 C 0.57738 0.18862 0.80575 0.0
C5348 C 0.57689 0.20514 0.82228 0.0
C5349 C 0.58965 0.2131 0.8253 0.0
N5350 N 0.57751 0.19399 0.81098 0.0
N5351 N 0.58956 0.20788 0.81989 0.0
H5352 H 0.79806 0.44286 0.19273 0.0
H5353 H 0.82987 0.41968 0.21288 0.0
H5354 H 0.80592 0.42181 0.18472 0.0
H5355 H 0.82607 0.44292 0.21666 0.0
H5356 H 0.82005 0.41976 0.20359 0.0
H5357 H 0.80722 0.44234 0.20262 0.0
C5358 C 0.80171 0.43813 0.19302 0.0
C5359 C 0.80123 0.4324 0.18781 0.0
C5360 C 0.82136 0.42483 0.20648 0.0
C5361 C 0.81168 0.43172 0.19924 0.0
C5362 C 0.82699 0.42481 0.21176 0.0
C5363 C 0.82885 0.43131 0.21557 0.0
C5364 C 0.8175 0.4314 0.20501 0.0
C5365 C 0.82479 0.43774 0.21397 0.0
C5366 C 0.80692 0.43783 0.1987 0.0
C5367 C 0.80601 0.42633 0.18863 0.0
N5368 N 0.81933 0.43762 0.20882 0.0
N5369 N 0.81104 0.42616 0.19422 0.0
H5370 H 0.5948 0.79902 0.19006 0.0
H5371 H 0.57185 0.83069 0.21076 0.0
H5372 H 0.57224 0.8048 0.18482 0.0
H5373 H 0.59449 0.82532 0.2161 0.0
H5374 H 0.57185 0.82096 0.20147 0.0
H5375 H 0.5948 0.80844 0.19975 0.0
C5376 C 0.58985 0.80228 0.19093 0.0
C5377 C 0.58351 0.8011 0.18661 0.0
C5378 C 0.57682 0.82189 0.20468 0.0
C5379 C 0.58346 0.81186 0.19774 0.0
C5380 C 0.57681 0.82742 0.21003 0.0
C5381 C 0.58318 0.82883 0.21425 0.0
C5382 C 0.58325 0.81769 0.2035 0.0
C5383 C 0.58949 0.82449 0.21293 0.0
C5384 C 0.58985 0.80763 0.19649 0.0
C5385 C 0.57722 0.80542 0.18807 0.0
N5386 N 0.58936 0.81912 0.20767 0.0
N5387 N 0.57737 0.81061 0.19349 0.0
H5388 H 0.2071 0.59134 0.18063 0.0
H5389 H 0.19543 0.57793 0.22118 0.0
H5390 H 0.22096 0.57778 0.19454 0.0
H5391 H 0.18145 0.59111 0.20704 0.0
H5392 H 0.20509 0.57829 0.21174 0.0
H5393 H 0.19795 0.5919 0.19053 0.0
C5394 C 0.20826 0.58854 0.18579 0.0
C5395 C 0.21482 0.58449 0.18674 0.0
C5396 C 0.19992 0.58113 0.21071 0.0
C5397 C 0.20429 0.58503 0.19809 0.0
C5398 C 0.19438 0.5809 0.21609 0.0
C5399 C 0.18759 0.58447 0.2149 0.0
C5400 C 0.19867 0.58495 0.20407 0.0
C5401 C 0.18662 0.58834 0.20824 0.0
C5402 C 0.203 0.58882 0.19143 0.0
C5403 C 0.21595 0.58088 0.19352 0.0
N5404 N 0.19207 0.58845 0.20308 0.0
N5405 N 0.21073 0.58122 0.19892 0.0
H5406 H 0.42164 0.18996 0.21664 0.0
H5407 H 0.44495 0.21061 0.18513 0.0
H5408 H 0.44439 0.185 0.21135 0.0
H5409 H 0.42217 0.21578 0.19006 0.0
H5410 H 0.44485 0.20142 0.19496 0.0
H5411 H 0.42168 0.19954 0.20709 0.0
C5412 C 0.42664 0.19087 0.21346 0.0
C5413 C 0.43302 0.18666 0.21482 0.0
C5414 C 0.43987 0.20457 0.19392 0.0
C5415 C 0.43313 0.19766 0.20391 0.0
C5416 C 0.43993 0.20987 0.18832 0.0
C5417 C 0.43356 0.21401 0.18677 0.0
C5418 C 0.43338 0.20336 0.19801 0.0
C5419 C 0.42719 0.21267 0.19101 0.0
C5420 C 0.42667 0.19637 0.20804 0.0
C5421 C 0.43937 0.18817 0.21059 0.0
N5422 N 0.42726 0.20746 0.19643 0.0
N5423 N 0.43925 0.19352 0.20534 0.0
H5424 H 0.82612 0.79903 0.59435 0.0
H5425 H 0.80474 0.83021 0.57131 0.0
H5426 H 0.83096 0.8046 0.57166 0.0
H5427 H 0.79989 0.8252 0.59413 0.0
H5428 H 0.81412 0.82056 0.57132 0.0
H5429 H 0.81635 0.80839 0.5944 0.0
C5430 C 0.82515 0.80223 0.58939 0.0
C5431 C 0.82938 0.80101 0.58299 0.0
C5432 C 0.811 0.82155 0.57633 0.0
C5433 C 0.81816 0.81169 0.58299 0.0
C5434 C 0.80559 0.82703 0.57632 0.0
C5435 C 0.80148 0.82851 0.58273 0.0
C5436 C 0.81234 0.81748 0.5828 0.0
C5437 C 0.80297 0.82431 0.58908 0.0
C5438 C 0.81954 0.80754 0.58941 0.0
C5439 C 0.82779 0.80526 0.57669 0.0
N5440 N 0.80828 0.81898 0.58896 0.0
N5441 N 0.82233 0.8104 0.57686 0.0
H5442 H 0.83575 0.20593 0.424 0.0
H5443 H 0.79525 0.19414 0.43756 0.0
H5444 H 0.82189 0.2197 0.43767 0.0
H5445 H 0.80938 0.18025 0.42429 0.0
H5446 H 0.80469 0.2038 0.4372 0.0
H5447 H 0.82586 0.19676 0.42347 0.0
C5448 C 0.8306 0.20706 0.42683 0.0
C5449 C 0.82967 0.2136 0.4309 0.0
C5450 C 0.80571 0.19865 0.43434 0.0
C5451 C 0.81833 0.20306 0.43039 0.0
C5452 C 0.80034 0.19311 0.43457 0.0
C5453 C 0.80153 0.18635 0.43098 0.0
C5454 C 0.81235 0.19743 0.43049 0.0
C5455 C 0.80818 0.1854 0.42708 0.0
C5456 C 0.82497 0.2018 0.42656 0.0
C5457 C 0.8229 0.2147 0.43455 0.0
N5458 N 0.81334 0.19085 0.42697 0.0
N5459 N 0.8175 0.20948 0.43423 0.0
H5460 H 0.83576 0.80934 0.42396 0.0
H5461 H 0.79535 0.82136 0.43756 0.0
H5462 H 0.8218 0.79564 0.43764 0.0
H5463 H 0.8096 0.83522 0.42435 0.0
H5464 H 0.80472 0.81164 0.43718 0.0
H5465 H 0.82594 0.81858 0.42346 0.0
C5466 C 0.8306 0.80824 0.4268 0.0
C5467 C 0.82962 0.8017 0.43086 0.0
C5468 C 0.80578 0.8168 0.43434 0.0
C5469 C 0.81837 0.81233 0.43039 0.0
C5470 C 0.80045 0.82237 0.43458 0.0
C5471 C 0.80169 0.82914 0.431 0.0
C5472 C 0.81243 0.818 0.4305 0.0
C5473 C 0.80836 0.83007 0.42712 0.0
C5474 C 0.82501 0.81354 0.42655 0.0
C5475 C 0.82285 0.80064 0.43453 0.0
N5476 N 0.81348 0.82458 0.427 0.0
N5477 N 0.8175 0.8059 0.43422 0.0
H5478 H 0.21196 0.83037 0.44442 0.0
H5479 H 0.19084 0.79897 0.42145 0.0
H5480 H 0.21697 0.82526 0.42167 0.0
H5481 H 0.18581 0.80465 0.44406 0.0
H5482 H 0.20058 0.80837 0.42141 0.0
H5483 H 0.2026 0.82068 0.44442 0.0
C5484 C 0.21114 0.82717 0.43943 0.0
C5485 C 0.21529 0.82863 0.43304 0.0
C5486 C 0.19735 0.80754 0.42638 0.0
C5487 C 0.20447 0.81755 0.43297 0.0
C5488 C 0.19177 0.8022 0.4264 0.0
C5489 C 0.1875 0.801 0.43277 0.0
C5490 C 0.19867 0.81173 0.43278 0.0
C5491 C 0.18902 0.80529 0.43905 0.0
C5492 C 0.20575 0.82166 0.43942 0.0
C5493 C 0.21386 0.82438 0.4267 0.0
N5494 N 0.19447 0.81046 0.43889 0.0
N5495 N 0.20857 0.81904 0.42683 0.0
H5496 H 0.1909 0.21621 0.42093 0.0
H5497 H 0.21196 0.18497 0.44419 0.0
H5498 H 0.18609 0.21092 0.4437 0.0
H5499 H 0.2169 0.1898 0.42136 0.0
H5500 H 0.20267 0.19471 0.44412 0.0
H5501 H 0.20055 0.20672 0.42094 0.0
C5502 C 0.19185 0.21305 0.42593 0.0
C5503 C 0.18767 0.21439 0.43233 0.0
C5504 C 0.20579 0.19366 0.43912 0.0
C5505 C 0.19875 0.20356 0.43239 0.0
C5506 C 0.21114 0.18812 0.43917 0.0
C5507 C 0.21526 0.18657 0.43278 0.0
C5508 C 0.2045 0.1977 0.43262 0.0
C5509 C 0.21382 0.19075 0.42639 0.0
C5510 C 0.19739 0.20766 0.42593 0.0
C5511 C 0.18923 0.21018 0.43866 0.0
N5512 N 0.20856 0.19613 0.42648 0.0
N5513 N 0.19462 0.20496 0.43852 0.0
H5514 H 0.20764 0.18075 0.59173 0.0
H5515 H 0.19542 0.2209 0.57773 0.0
H5516 H 0.22138 0.19467 0.57806 0.0
H5517 H 0.18168 0.20678 0.5912 0.0
H5518 H 0.20522 0.21161 0.57822 0.0
H5519 H 0.19837 0.19052 0.59216 0.0
C5520 C 0.20876 0.18589 0.58888 0.0
C5521 C 0.21532 0.18687 0.58484 0.0
C5522 C 0.20007 0.21056 0.58109 0.0
C5523 C 0.20463 0.19808 0.58521 0.0
C5524 C 0.19446 0.21585 0.58079 0.0
C5525 C 0.18769 0.21462 0.58441 0.0
C5526 C 0.19892 0.20397 0.58503 0.0
C5527 C 0.18682 0.20801 0.58839 0.0
C5528 C 0.20342 0.19146 0.58909 0.0
C5529 C 0.21637 0.19362 0.58115 0.0
N5530 N 0.19235 0.20293 0.58857 0.0
N5531 N 0.21108 0.19895 0.58141 0.0
H5532 H 0.79957 0.18969 0.59486 0.0
H5533 H 0.83075 0.21097 0.57167 0.0
H5534 H 0.80487 0.18502 0.57208 0.0
H5535 H 0.82587 0.21585 0.5945 0.0
H5536 H 0.82104 0.20164 0.57172 0.0
H5537 H 0.80902 0.19939 0.59488 0.0
C5538 C 0.80272 0.19069 0.58987 0.0
C5539 C 0.8014 0.18653 0.58345 0.0
C5540 C 0.82207 0.20476 0.57672 0.0
C5541 C 0.81219 0.19766 0.58343 0.0
C5542 C 0.8276 0.21013 0.57668 0.0
C5543 C 0.82912 0.21424 0.58308 0.0
C5544 C 0.81802 0.20343 0.58321 0.0
C5545 C 0.82494 0.21277 0.58946 0.0
C5546 C 0.8081 0.19625 0.58988 0.0
C5547 C 0.8056 0.18814 0.57712 0.0
N5548 N 0.81958 0.20749 0.58936 0.0
N5549 N 0.8108 0.19355 0.57728 0.0
H5550 H 0.21169 0.8306 0.57096 0.0
H5551 H 0.19095 0.79902 0.59407 0.0
H5552 H 0.217 0.82537 0.59363 0.0
H5553 H 0.1857 0.80471 0.5715 0.0
H5554 H 0.20065 0.80845 0.59402 0.0
H5555 H 0.20239 0.82086 0.57102 0.0
C5556 C 0.21095 0.82736 0.57594 0.0
C5557 C 0.21516 0.8288 0.58229 0.0
C5558 C 0.19739 0.80762 0.58908 0.0
C5559 C 0.2044 0.81767 0.58243 0.0
C5560 C 0.19182 0.80226 0.58911 0.0
C5561 C 0.18749 0.80105 0.58278 0.0
C5562 C 0.19863 0.81182 0.58267 0.0
C5563 C 0.18895 0.80535 0.57648 0.0
C5564 C 0.20559 0.82182 0.57598 0.0
C5565 C 0.21383 0.82451 0.58862 0.0
N5566 N 0.19438 0.81054 0.5766 0.0
N5567 N 0.20857 0.81913 0.58853 0.0
H5568 H 0.98985 0.27315 0.36658 0.0
H5569 H 0.0267 0.25835 0.34712 0.0
H5570 H 0.98994 0.25944 0.34708 0.0
H5571 H 0.02663 0.27284 0.36605 0.0
H5572 H 0.01324 0.25747 0.34792 0.0
H5573 H 1.00327 0.27178 0.36743 0.0
C5574 C 0.99267 0.26975 0.36254 0.0
C5575 C 0.98876 0.26646 0.35671 0.0
C5576 C 0.01617 0.26079 0.35194 0.0
C5577 C 1.00416 0.26496 0.35759 0.0
C5578 C 0.02386 0.26132 0.35147 0.0
C5579 C 0.02781 0.26574 0.35648 0.0
C5580 C 0.01237 0.26473 0.35744 0.0
C5581 C 0.02383 0.26934 0.36209 0.0
C5582 C 1.00035 0.26902 0.363 0.0
C5583 C 0.99274 0.26219 0.35159 0.0
N5584 N 0.01634 0.26881 0.36238 0.0
N5585 N 1.00022 0.26161 0.35212 0.0
H5586 H 0.74242 0.98964 0.36667 0.0
H5587 H 0.75649 0.02654 0.34682 0.0
H5588 H 0.75596 0.98983 0.34703 0.0
H5589 H 0.74211 0.02636 0.36585 0.0
H5590 H 0.75758 0.01312 0.34769 0.0
H5591 H 0.74356 1.00306 0.3674 0.0
C5592 C 0.74573 0.99248 0.36257 0.0
C5593 C 0.74905 0.98859 0.35674 0.0
C5594 C 0.75423 0.01602 0.35172 0.0
C5595 C 0.75028 1.004 0.35748 0.0
C5596 C 0.75359 0.02368 0.3512 0.0
C5597 C 0.74914 0.02759 0.35622 0.0
C5598 C 0.75038 0.0122 0.35727 0.0
C5599 C 0.74563 0.0236 0.36188 0.0
C5600 C 0.74634 1.00016 0.36297 0.0
C5601 C 0.75319 0.99261 0.35154 0.0
N5602 N 0.74627 0.01612 0.36221 0.0
N5603 N 0.75365 1.00008 0.35201 0.0
H5604 H 0.02653 0.74212 0.36662 0.0
H5605 H 0.98939 0.75637 0.34733 0.0
H5606 H 0.02616 0.75641 0.34753 0.0
H5607 H 0.98975 0.7417 0.36613 0.0
H5608 H 1.00282 0.7576 0.34819 0.0
H5609 H 0.01308 0.74315 0.36749 0.0
C5610 C 0.02364 0.74558 0.36268 0.0
C5611 C 0.02749 0.74913 0.35695 0.0
C5612 C 0.99996 0.75416 0.35217 0.0
C5613 C 0.01205 0.75024 0.35784 0.0
C5614 C 0.99229 0.75344 0.35166 0.0
C5615 C 0.98844 0.74887 0.35662 0.0
C5616 C 1.00384 0.75026 0.35765 0.0
C5617 C 0.99248 0.74531 0.36221 0.0
C5618 C 0.01595 0.74612 0.36314 0.0
C5619 C 0.02342 0.75346 0.35195 0.0
N5620 N 0.99996 0.74603 0.36253 0.0
N5621 N 0.01593 0.75384 0.35248 0.0
H5622 H 0.27338 0.02592 0.36655 0.0
H5623 H 0.25873 0.98904 0.34715 0.0
H5624 H 0.25921 0.02575 0.34736 0.0
H5625 H 0.27347 0.9892 0.36591 0.0
H5626 H 0.25767 1.00246 0.34803 0.0
H5627 H 0.27222 0.0125 0.36737 0.0
C5628 C 0.26993 0.02308 0.36258 0.0
C5629 C 0.26644 0.02698 0.35684 0.0
C5630 C 0.26109 0.99956 0.352 0.0
C5631 C 0.26518 0.01157 0.35767 0.0
C5632 C 0.26171 0.99189 0.35149 0.0
C5633 C 0.26626 0.98799 0.35642 0.0
C5634 C 0.26506 1.00337 0.35748 0.0
C5635 C 0.26988 0.99197 0.36201 0.0
C5636 C 0.26931 0.0154 0.36301 0.0
C5637 C 0.26211 0.02297 0.35179 0.0
N5638 N 0.26926 0.99945 0.36234 0.0
N5639 N 0.26164 0.01549 0.3523 0.0
H5640 H 0.99026 0.75633 0.66862 0.0
H5641 H 0.02725 0.74164 0.64936 0.0
H5642 H 0.99047 0.74179 0.64973 0.0
H5643 H 0.02702 0.75529 0.6689 0.0
H5644 H 0.01384 0.74298 0.64842 0.0
H5645 H 1.00372 0.75726 0.66788 0.0
C5646 C 0.99313 0.75336 0.66429 0.0
C5647 C 0.98922 0.74891 0.65928 0.0
C5648 C 0.01672 0.74574 0.65288 0.0
C5649 C 1.00466 0.74997 0.65838 0.0
C5650 C 0.0244 0.74502 0.65339 0.0
C5651 C 0.02827 0.74831 0.65925 0.0
C5652 C 0.01287 0.74977 0.65828 0.0
C5653 C 0.02425 0.75255 0.66436 0.0
C5654 C 1.00082 0.75392 0.66385 0.0
C5655 C 0.99324 0.74532 0.65369 0.0
N5656 N 0.01678 0.75311 0.66378 0.0
N5657 N 1.00073 0.74587 0.65344 0.0
H5658 H 0.25925 0.02653 0.66806 0.0
H5659 H 0.27382 0.9896 0.64874 0.0
H5660 H 0.27415 0.02631 0.64942 0.0
H5661 H 0.25942 0.98983 0.66776 0.0
H5662 H 0.27273 1.00302 0.64792 0.0
H5663 H 0.25809 0.01312 0.66713 0.0
C5664 C 0.26225 0.02367 0.66374 0.0
C5665 C 0.26687 0.02755 0.65886 0.0
C5666 C 0.26976 1.00013 0.65223 0.0
C5667 C 0.26554 0.01218 0.65775 0.0
C5668 C 0.27033 0.99245 0.65267 0.0
C5669 C 0.26676 0.98857 0.65837 0.0
C5670 C 0.26559 1.00398 0.65754 0.0
C5671 C 0.26238 0.9926 0.66336 0.0
C5672 C 0.26156 0.01601 0.6632 0.0
C5673 C 0.2705 0.02356 0.65329 0.0
N5674 N 0.26197 1.00007 0.66286 0.0
N5675 N 0.26981 0.01609 0.65293 0.0
H5676 H 0.98958 0.27344 0.64918 0.0
H5677 H 0.02681 0.25873 0.66796 0.0
H5678 H 0.99004 0.25908 0.66823 0.0
H5679 H 0.02635 0.27359 0.64931 0.0
H5680 H 0.01336 0.25764 0.66724 0.0
H5681 H 1.003 0.2723 0.64817 0.0
C5682 C 0.99248 0.26995 0.65308 0.0
C5683 C 0.98866 0.2664 0.65884 0.0
C5684 C 0.0162 0.26108 0.66326 0.0
C5685 C 1.00408 0.26518 0.65778 0.0
C5686 C 0.02388 0.26173 0.66368 0.0
C5687 C 0.02772 0.26632 0.65873 0.0
C5688 C 0.0123 0.26508 0.65787 0.0
C5689 C 0.02364 0.26996 0.65322 0.0
C5690 C 1.00016 0.26935 0.65253 0.0
C5691 C 0.99275 0.26203 0.66378 0.0
N5692 N 0.01615 0.26932 0.65298 0.0
N5693 N 1.00023 0.26158 0.66317 0.0
H5694 H 0.75842 0.02568 0.66796 0.0
H5695 H 0.74331 0.9887 0.64912 0.0
H5696 H 0.74338 0.02541 0.64944 0.0
H5697 H 0.75783 0.98897 0.66806 0.0
H5698 H 0.74453 1.0021 0.64816 0.0
H5699 H 0.75944 0.01225 0.66716 0.0
C5700 C 0.75537 0.0228 0.6637 0.0
C5701 C 0.75075 0.02668 0.65881 0.0
C5702 C 0.74751 0.99923 0.65249 0.0
C5703 C 0.7519 0.01129 0.65785 0.0
C5704 C 0.74685 0.99156 0.65301 0.0
C5705 C 0.75042 0.9877 0.65872 0.0
C5706 C 0.75175 1.00308 0.65772 0.0
C5707 C 0.75487 0.99173 0.66365 0.0
C5708 C 0.75597 0.01513 0.66323 0.0
C5709 C 0.74703 0.02267 0.6533 0.0
N5710 N 0.75536 0.9992 0.66307 0.0
N5711 N 0.74763 0.01519 0.65302 0.0
H5712 H 0.34841 0.98955 0.25811 0.0
H5713 H 0.36701 0.02652 0.27357 0.0
H5714 H 0.3667 0.9898 0.27343 0.0
H5715 H 0.34816 0.02625 0.25894 0.0
H5716 H 0.36801 0.01313 0.27232 0.0
H5717 H 0.34919 1.00298 0.25716 0.0
C5718 C 0.35262 0.99242 0.26124 0.0
C5719 C 0.35745 0.98854 0.26592 0.0
C5720 C 0.36369 0.016 0.26932 0.0
C5721 C 0.35839 1.00394 0.26485 0.0
C5722 C 0.36315 0.02367 0.27 0.0
C5723 C 0.35745 0.02752 0.26641 0.0
C5724 C 0.35849 0.01215 0.26503 0.0
C5725 C 0.35255 0.02349 0.26192 0.0
C5726 C 0.35308 1.0001 0.26068 0.0
C5727 C 0.36289 0.99255 0.26973 0.0
N5728 N 0.35315 0.01603 0.26141 0.0
N5729 N 0.36316 1.00004 0.26917 0.0
H5730 H 0.9902 0.34218 0.26913 0.0
H5731 H 0.02715 0.36611 0.26443 0.0
H5732 H 0.99004 0.36566 0.26496 0.0
H5733 H 0.02674 0.34275 0.26925 0.0
H5734 H 0.01362 0.36601 0.26368 0.0
H5735 H 1.00361 0.34221 0.26809 0.0
C5736 C 0.99297 0.34734 0.26789 0.0
C5737 C 0.98895 0.35393 0.26713 0.0
C5738 C 0.01651 0.3609 0.26485 0.0
C5739 C 1.00442 0.35403 0.26609 0.0
C5740 C 0.02423 0.36095 0.26531 0.0
C5741 C 0.02812 0.35443 0.26692 0.0
C5742 C 0.01263 0.35427 0.26603 0.0
C5743 C 0.02402 0.3479 0.26789 0.0
C5744 C 1.00066 0.34736 0.26735 0.0
C5745 C 0.9929 0.36046 0.26569 0.0
N5746 N 0.01653 0.348 0.26747 0.0
N5747 N 1.00042 0.36035 0.26524 0.0
H5748 H 0.65023 0.98902 0.27378 0.0
H5749 H 0.66985 0.02603 0.25964 0.0
H5750 H 0.66985 0.98932 0.26019 0.0
H5751 H 0.65064 0.02576 0.27379 0.0
H5752 H 0.66909 0.01259 0.25861 0.0
H5753 H 0.64938 1.00243 0.27257 0.0
C5754 C 0.6543 0.99189 0.27044 0.0
C5755 C 0.66016 0.98803 0.26713 0.0
C5756 C 0.665 0.01547 0.26189 0.0
C5757 C 0.65928 1.00342 0.26583 0.0
C5758 C 0.66545 0.02315 0.2625 0.0
C5759 C 0.66034 0.02703 0.26687 0.0
C5760 C 0.65943 0.01163 0.2657 0.0
C5761 C 0.65467 0.02301 0.27034 0.0
C5762 C 0.65384 0.99956 0.2698 0.0
C5763 C 0.66532 0.99207 0.26295 0.0
N5764 N 0.65441 0.01553 0.26973 0.0
N5765 N 0.66479 0.99954 0.26246 0.0
H5766 H 0.99033 0.64874 0.27347 0.0
H5767 H 0.02721 0.66799 0.25842 0.0
H5768 H 0.99046 0.66814 0.2596 0.0
H5769 H 0.02711 0.64943 0.2734 0.0
H5770 H 0.01375 0.66715 0.25752 0.0
H5771 H 1.00375 0.64788 0.27215 0.0
C5772 C 0.99316 0.65276 0.27005 0.0
C5773 C 0.98925 0.65856 0.26669 0.0
C5774 C 0.01668 0.66322 0.26095 0.0
C5775 C 1.00466 0.65767 0.26524 0.0
C5776 C 0.02436 0.66371 0.26149 0.0
C5777 C 0.0283 0.65882 0.26606 0.0
C5778 C 0.01287 0.65782 0.26503 0.0
C5779 C 0.02432 0.6533 0.26979 0.0
C5780 C 1.00084 0.65229 0.26934 0.0
C5781 C 0.99325 0.66365 0.2624 0.0
N5782 N 0.01682 0.65299 0.26925 0.0
N5783 N 1.00073 0.66311 0.26184 0.0
H5784 H 0.34823 0.98901 0.75761 0.0
H5785 H 0.36734 0.02602 0.74278 0.0
H5786 H 0.36685 0.9893 0.74269 0.0
H5787 H 0.34806 0.02572 0.75684 0.0
H5788 H 0.36826 0.01261 0.74401 0.0
H5789 H 0.34903 1.00245 0.75863 0.0
C5790 C 0.35252 0.9919 0.75458 0.0
C5791 C 0.35743 0.98802 0.74999 0.0
C5792 C 0.36386 0.01548 0.74688 0.0
C5793 C 0.3584 1.00342 0.75115 0.0
C5794 C 0.36337 0.02315 0.74622 0.0
C5795 C 0.35757 0.02701 0.74966 0.0
C5796 C 0.35853 0.01162 0.751 0.0
C5797 C 0.35253 0.02297 0.75398 0.0
C5798 C 0.35299 0.99957 0.75518 0.0
C5799 C 0.36297 0.99204 0.74631 0.0
N5800 N 0.3531 0.0155 0.75448 0.0
N5801 N 0.36325 0.99952 0.74691 0.0
H5802 H 0.02699 0.36633 0.74243 0.0
H5803 H 0.99021 0.34682 0.75737 0.0
H5804 H 0.02697 0.34691 0.75628 0.0
H5805 H 0.99022 0.36568 0.74277 0.0
H5806 H 1.00367 0.34767 0.75825 0.0
H5807 H 0.01358 0.36715 0.74381 0.0
C5808 C 0.02419 0.3623 0.74586 0.0
C5809 C 0.02812 0.3565 0.74919 0.0
C5810 C 1.00072 0.35167 0.75491 0.0
C5811 C 0.01272 0.35734 0.7507 0.0
C5812 C 0.99304 0.35117 0.75438 0.0
C5813 C 0.98907 0.35614 0.74993 0.0
C5814 C 1.0045 0.35716 0.75093 0.0
C5815 C 0.99303 0.36175 0.7463 0.0
C5816 C 0.01651 0.36274 0.7466 0.0
C5817 C 0.02415 0.35139 0.7535 0.0
N5818 N 1.00053 0.36206 0.74682 0.0
N5819 N 0.01668 0.3519 0.75408 0.0
H5820 H 0.64954 0.02645 0.74251 0.0
H5821 H 0.66836 0.98956 0.75792 0.0
H5822 H 0.66845 0.02626 0.75708 0.0
H5823 H 0.65005 0.98974 0.74261 0.0
H5824 H 0.6675 1.00299 0.75888 0.0
H5825 H 0.6486 0.01305 0.74378 0.0
C5826 C 0.65343 0.02361 0.74607 0.0
C5827 C 0.65913 0.02749 0.74964 0.0
C5828 C 0.66362 1.00009 0.75536 0.0
C5829 C 0.65815 0.01211 0.75103 0.0
C5830 C 0.66413 0.99242 0.75479 0.0
C5831 C 0.65932 0.98851 0.75011 0.0
C5832 C 0.65829 1.00391 0.7512 0.0
C5833 C 0.65385 0.9925 0.74631 0.0
C5834 C 0.65292 0.01594 0.74675 0.0
C5835 C 0.66405 0.02349 0.75412 0.0
N5836 N 0.65353 0.99998 0.74688 0.0
N5837 N 0.66348 0.01602 0.75464 0.0
H5838 H 0.02676 0.66841 0.75662 0.0
H5839 H 0.98973 0.64877 0.74251 0.0
H5840 H 0.02651 0.64916 0.74256 0.0
H5841 H 0.98999 0.66846 0.75594 0.0
H5842 H 1.00315 0.64791 0.74377 0.0
H5843 H 0.0133 0.66766 0.75763 0.0
C5844 C 0.02388 0.664 0.75378 0.0
C5845 C 0.02778 0.65889 0.74944 0.0
C5846 C 1.00027 0.65238 0.7465 0.0
C5847 C 0.01235 0.65798 0.75059 0.0
C5848 C 0.99259 0.65285 0.74582 0.0
C5849 C 0.98872 0.65874 0.74907 0.0
C5850 C 1.00413 0.65784 0.75044 0.0
C5851 C 0.99276 0.6639 0.75322 0.0
C5852 C 0.01619 0.66356 0.75438 0.0
C5853 C 0.02376 0.6532 0.746 0.0
N5854 N 1.00024 0.66337 0.75375 0.0
N5855 N 0.01626 0.65295 0.74659 0.0
H5856 H 0.2732 0.36614 0.98943 0.0
H5857 H 0.25958 0.34633 0.02653 0.0
H5858 H 0.25965 0.3465 0.98979 0.0
H5859 H 0.27356 0.36565 0.02617 0.0
H5860 H 0.25838 0.34713 0.0131 0.0
H5861 H 0.27212 0.36694 1.00286 0.0
C5862 C 0.26989 0.36206 0.99232 0.0
C5863 C 0.26656 0.35621 0.98847 0.0
C5864 C 0.26166 0.35123 0.01596 0.0
C5865 C 0.26541 0.35703 1.00389 0.0
C5866 C 0.26237 0.35076 0.02363 0.0
C5867 C 0.26674 0.35589 0.02749 0.0
C5868 C 0.26537 0.35685 0.01209 0.0
C5869 C 0.2701 0.3616 0.02345 0.0
C5870 C 0.26933 0.3625 1.0 0.0
C5871 C 0.26243 0.35104 0.99253 0.0
N5872 N 0.26941 0.36189 0.01597 0.0
N5873 N 0.26202 0.35154 1.00001 0.0
H5874 H 0.25849 0.66692 0.02588 0.0
H5875 H 0.27391 0.64845 0.98882 0.0
H5876 H 0.27386 0.64869 0.02556 0.0
H5877 H 0.2592 0.66722 0.98915 0.0
H5878 H 0.27268 0.64742 1.00223 0.0
H5879 H 0.25749 0.66615 0.01243 0.0
C5880 C 0.26163 0.66272 0.02298 0.0
C5881 C 0.26633 0.65792 0.02686 0.0
C5882 C 0.26966 0.65173 0.99936 0.0
C5883 C 0.2652 0.65698 0.01144 0.0
C5884 C 0.27032 0.65229 0.99169 0.0
C5885 C 0.2667 0.65797 0.98785 0.0
C5886 C 0.26536 0.6569 1.00324 0.0
C5887 C 0.2622 0.66283 0.99189 0.0
C5888 C 0.26103 0.66227 0.01531 0.0
C5889 C 0.27014 0.65249 0.02282 0.0
N5890 N 0.2617 0.66222 0.99936 0.0
N5891 N 0.26955 0.65222 0.01534 0.0
H5892 H 0.34795 0.25894 0.02612 0.0
H5893 H 0.36696 0.27367 0.98902 0.0
H5894 H 0.3666 0.27383 0.02577 0.0
H5895 H 0.34792 0.25928 0.98938 0.0
H5896 H 0.36788 0.27255 1.00244 0.0
H5897 H 0.34875 0.25785 0.01268 0.0
C5898 C 0.35224 0.26195 0.02322 0.0
C5899 C 0.35717 0.26655 0.02708 0.0
C5900 C 0.36354 0.26958 0.99958 0.0
C5901 C 0.35813 0.26531 0.01168 0.0
C5902 C 0.36304 0.27018 0.9919 0.0
C5903 C 0.35731 0.26662 0.98806 0.0
C5904 C 0.35827 0.2654 1.00347 0.0
C5905 C 0.35235 0.26224 0.99212 0.0
C5906 C 0.35271 0.26131 0.01555 0.0
C5907 C 0.3627 0.2702 0.02304 0.0
N5908 N 0.35291 0.2618 0.9996 0.0
N5909 N 0.36299 0.26956 0.01556 0.0
H5910 H 0.75249 0.36592 0.02627 0.0
H5911 H 0.74699 0.34168 0.98972 0.0
H5912 H 0.74731 0.34264 0.02621 0.0
H5913 H 0.75199 0.36499 0.98921 0.0
H5914 H 0.74811 0.34184 1.00311 0.0
H5915 H 0.75317 0.36564 0.01276 0.0
C5916 C 0.75152 0.36075 0.02343 0.0
C5917 C 0.74983 0.3543 0.02741 0.0
C5918 C 0.74901 0.34692 1.00008 0.0
C5919 C 0.75064 0.35394 0.01194 0.0
C5920 C 0.74843 0.34682 0.9924 0.0
C5921 C 0.7494 0.35333 0.98829 0.0
C5922 C 0.75052 0.35359 1.00374 0.0
C5923 C 0.7511 0.35986 0.99215 0.0
C5924 C 0.75194 0.36059 0.01572 0.0
C5925 C 0.74874 0.34773 0.02342 0.0
N5926 N 0.75157 0.35983 0.99965 0.0
N5927 N 0.74912 0.34774 0.01593 0.0
H5928 H 0.66935 0.75721 0.98938 0.0
H5929 H 0.65004 0.74209 0.02617 0.0
H5930 H 0.6506 0.74246 0.98943 0.0
H5931 H 0.66938 0.75608 0.0261 0.0
H5932 H 0.64918 0.74346 0.01277 0.0
H5933 H 0.66853 0.75807 1.00283 0.0
C5934 C 0.66504 0.75418 0.99222 0.0
C5935 C 0.66009 0.7497 0.98827 0.0
C5936 C 0.65357 0.74629 0.01569 0.0
C5937 C 0.65909 0.75066 1.00369 0.0
C5938 C 0.65404 0.74555 0.02336 0.0
C5939 C 0.65983 0.74893 0.02728 0.0
C5940 C 0.65894 0.75043 0.01189 0.0
C5941 C 0.6649 0.75327 0.0233 0.0
C5942 C 0.66455 0.75469 0.9999 0.0
C5943 C 0.65451 0.74601 0.99223 0.0
N5944 N 0.66437 0.75385 0.01583 0.0
N5945 N 0.65421 0.74652 0.99972 0.0
H5946 H 0.7425 0.64903 0.98817 0.0
H5947 H 0.75545 0.66706 0.02641 0.0
H5948 H 0.75603 0.66863 0.98963 0.0
H5949 H 0.74061 0.64845 0.02481 0.0
H5950 H 0.7571 0.66672 0.013 0.0
H5951 H 0.74317 0.64774 1.00158 0.0
C5952 C 0.74571 0.653 0.99129 0.0
C5953 C 0.74917 0.65899 0.98776 0.0
C5954 C 0.75353 0.66267 0.01559 0.0
C5955 C 0.74985 0.6576 1.00316 0.0
C5956 C 0.75262 0.66283 0.02325 0.0
C5957 C 0.74783 0.65782 0.02673 0.0
C5958 C 0.74963 0.65745 0.01137 0.0
C5959 C 0.74425 0.65251 0.02235 0.0
C5960 C 0.74604 0.65229 0.99897 0.0
C5961 C 0.75317 0.66401 0.99213 0.0
N5962 N 0.74519 0.6525 0.0149 0.0
N5963 N 0.75336 0.66323 0.9996 0.0
H5964 H 0.34851 0.75747 0.98928 0.0
H5965 H 0.36735 0.74227 0.02627 0.0
H5966 H 0.36671 0.74206 0.98954 0.0
H5967 H 0.3485 0.75688 0.02601 0.0
H5968 H 0.36826 0.74344 0.01286 0.0
H5969 H 0.34941 0.75854 1.00271 0.0
C5970 C 0.35273 0.75434 0.99216 0.0
C5971 C 0.35749 0.74961 0.98828 0.0
C5972 C 0.36396 0.74645 0.01574 0.0
C5973 C 0.35857 0.75082 1.00367 0.0
C5974 C 0.36347 0.74582 0.02341 0.0
C5975 C 0.35779 0.74943 0.02728 0.0
C5976 C 0.35874 0.7507 0.01188 0.0
C5977 C 0.35288 0.75389 0.02325 0.0
C5978 C 0.35326 0.75497 0.99983 0.0
C5979 C 0.36295 0.74581 0.99229 0.0
N5980 N 0.35343 0.75436 0.01577 0.0
N5981 N 0.36329 0.74644 0.99977 0.0
H5982 H 0.64973 0.27304 0.98951 0.0
H5983 H 0.6691 0.25836 0.02645 0.0
H5984 H 0.66941 0.25956 0.98973 0.0
H5985 H 0.65022 0.27292 0.02626 0.0
H5986 H 0.66836 0.25746 0.013 0.0
H5987 H 0.64883 0.27169 1.00292 0.0
C5988 C 0.6538 0.2697 0.99236 0.0
C5989 C 0.65969 0.26646 0.98849 0.0
C5990 C 0.66434 0.2608 0.0159 0.0
C5991 C 0.65875 0.26499 1.00387 0.0
C5992 C 0.66477 0.26133 0.02359 0.0
C5993 C 0.65976 0.26578 0.0275 0.0
C5994 C 0.65886 0.26477 0.01208 0.0
C5995 C 0.65417 0.2694 0.0235 0.0
C5996 C 0.65331 0.26898 1.00003 0.0
C5997 C 0.66485 0.26227 0.9925 0.0
N5998 N 0.65392 0.26886 0.01601 0.0
N5999 N 0.66429 0.2617 0.99997 0.0
H6000 H 0.52716 0.77275 0.86629 0.0
H6001 H 0.48992 0.75905 0.84676 0.0
H6002 H 0.52669 0.75907 0.84676 0.0
H6003 H 0.49038 0.77323 0.86591 0.0
H6004 H 0.50336 0.75783 0.84752 0.0
H6005 H 0.51372 0.77171 0.86716 0.0
C6006 C 0.52425 0.76942 0.86225 0.0
C6007 C 0.52807 0.76604 0.8564 0.0
C6008 C 0.50052 0.76116 0.8516 0.0
C6009 C 0.51264 0.76494 0.8573 0.0
C6010 C 0.49285 0.76188 0.85115 0.0
C6011 C 0.48902 0.76631 0.85623 0.0
C6012 C 0.50442 0.76492 0.85716 0.0
C6013 C 0.49309 0.76973 0.86189 0.0
C6014 C 0.51656 0.76888 0.86272 0.0
C6015 C 0.52397 0.76189 0.85128 0.0
N6016 N 0.50057 0.76902 0.86216 0.0
N6017 N 0.51648 0.7615 0.85182 0.0
H6018 H 0.24206 0.5262 0.86629 0.0
H6019 H 0.25658 0.48927 0.84688 0.0
H6020 H 0.25553 0.52597 0.8466 0.0
H6021 H 0.24226 0.48946 0.86596 0.0
H6022 H 0.25747 0.50272 0.84757 0.0
H6023 H 0.24338 0.5128 0.8672 0.0
C6024 C 0.24539 0.52335 0.86222 0.0
C6025 C 0.24864 0.52722 0.85632 0.0
C6026 C 0.25419 0.49981 0.85165 0.0
C6027 C 0.25008 0.51184 0.85727 0.0
C6028 C 0.25365 0.49214 0.85124 0.0
C6029 C 0.24928 0.48822 0.85632 0.0
C6030 C 0.25029 0.50364 0.85716 0.0
C6031 C 0.24573 0.49223 0.86194 0.0
C6032 C 0.2461 0.51568 0.86271 0.0
C6033 C 0.25282 0.5232 0.85117 0.0
N6034 N 0.24625 0.49971 0.86217 0.0
N6035 N 0.25337 0.51574 0.85173 0.0
H6036 H 0.48958 0.24206 0.86657 0.0
H6037 H 0.52663 0.25681 0.84742 0.0
H6038 H 0.48988 0.25579 0.84707 0.0
H6039 H 0.52637 0.24223 0.86629 0.0
H6040 H 0.51317 0.25773 0.84812 0.0
H6041 H 0.503 0.24338 0.86753 0.0
C6042 C 0.49245 0.24545 0.86255 0.0
C6043 C 0.48859 0.24876 0.85669 0.0
C6044 C 0.51606 0.25438 0.85215 0.0
C6045 C 0.50399 0.25021 0.85769 0.0
C6046 C 0.52375 0.25383 0.85174 0.0
C6047 C 0.52764 0.24937 0.85676 0.0
C6048 C 0.5122 0.25042 0.85761 0.0
C6049 C 0.52361 0.24576 0.86233 0.0
C6050 C 0.50012 0.24616 0.86308 0.0
C6051 C 0.49263 0.25302 0.8516 0.0
N6052 N 0.51612 0.2463 0.86256 0.0
N6053 N 0.5001 0.25358 0.85219 0.0
H6054 H 0.77046 0.52576 0.84247 0.0
H6055 H 0.76489 0.48861 0.86582 0.0
H6056 H 0.76573 0.52566 0.86585 0.0
H6057 H 0.7706 0.48928 0.84266 0.0
H6058 H 0.76425 0.50212 0.86586 0.0
H6059 H 0.76943 0.51237 0.84233 0.0
C6060 C 0.7691 0.52294 0.84757 0.0
C6061 C 0.76818 0.52688 0.85418 0.0
C6062 C 0.76559 0.49929 0.86077 0.0
C6063 C 0.76714 0.51144 0.85409 0.0
C6064 C 0.76599 0.49158 0.86074 0.0
C6065 C 0.76781 0.48777 0.85423 0.0
C6066 C 0.76704 0.50323 0.85424 0.0
C6067 C 0.76907 0.49193 0.84779 0.0
C6068 C 0.76857 0.51526 0.84749 0.0
C6069 C 0.76658 0.52286 0.86064 0.0
N6070 N 0.76869 0.49941 0.84797 0.0
N6071 N 0.76614 0.51536 0.86044 0.0
H6072 H 0.49001 0.25676 0.16792 0.0
H6073 H 0.52707 0.24171 0.14906 0.0
H6074 H 0.49029 0.24178 0.14938 0.0
H6075 H 0.52677 0.25569 0.16836 0.0
H6076 H 0.51366 0.24302 0.14807 0.0
H6077 H 0.50348 0.25769 0.16719 0.0
C6078 C 0.4929 0.2537 0.16366 0.0
C6079 C 0.48901 0.24913 0.15875 0.0
C6080 C 0.51653 0.24586 0.15248 0.0
C6081 C 0.50445 0.25018 0.15787 0.0
C6082 C 0.52421 0.24515 0.15302 0.0
C6083 C 0.52806 0.24854 0.15885 0.0
C6084 C 0.51266 0.24998 0.1578 0.0
C6085 C 0.52402 0.25287 0.16386 0.0
C6086 C 0.50059 0.25425 0.16324 0.0
C6087 C 0.49304 0.2454 0.15326 0.0
N6088 N 0.51655 0.25342 0.16326 0.0
N6089 N 0.50054 0.24596 0.15302 0.0
H6090 H 0.75917 0.52668 0.16861 0.0
H6091 H 0.77407 0.48997 0.14911 0.0
H6092 H 0.77395 0.52668 0.14988 0.0
H6093 H 0.75975 0.48998 0.16819 0.0
H6094 H 0.77282 0.50338 0.14833 0.0
H6095 H 0.75815 0.51326 0.16764 0.0
C6096 C 0.76217 0.52386 0.16427 0.0
C6097 C 0.76671 0.52781 0.15937 0.0
C6098 C 0.7699 0.50045 0.15265 0.0
C6099 C 0.76556 0.51243 0.15821 0.0
C6100 C 0.77056 0.49277 0.15307 0.0
C6101 C 0.76706 0.48883 0.15877 0.0
C6102 C 0.76571 0.50423 0.15798 0.0
C6103 C 0.76266 0.49279 0.16379 0.0
C6104 C 0.76156 0.51619 0.1637 0.0
C6105 C 0.77035 0.52388 0.15376 0.0
N6106 N 0.76215 0.50027 0.16331 0.0
N6107 N 0.76975 0.5164 0.15338 0.0
H6108 H 0.52708 0.7578 0.16763 0.0
H6109 H 0.48999 0.77269 0.14872 0.0
H6110 H 0.52676 0.77282 0.14911 0.0
H6111 H 0.49032 0.75836 0.16779 0.0
H6112 H 0.50341 0.77147 0.14775 0.0
H6113 H 0.51363 0.75671 0.16681 0.0
C6114 C 0.52419 0.76084 0.16336 0.0
C6115 C 0.52806 0.76547 0.15848 0.0
C6116 C 0.50055 0.76854 0.1521 0.0
C6117 C 0.51264 0.76424 0.1575 0.0
C6118 C 0.49287 0.76919 0.15263 0.0
C6119 C 0.48902 0.76568 0.15839 0.0
C6120 C 0.50442 0.76436 0.15737 0.0
C6121 C 0.49307 0.76128 0.16335 0.0
C6122 C 0.51651 0.76019 0.16288 0.0
C6123 C 0.52402 0.76916 0.15296 0.0
N6124 N 0.50055 0.76079 0.16276 0.0
N6125 N 0.51653 0.76852 0.15267 0.0
H6126 H 0.25678 0.52601 0.16873 0.0
H6127 H 0.24269 0.48907 0.14901 0.0
H6128 H 0.24246 0.52579 0.14965 0.0
H6129 H 0.25633 0.4893 0.16858 0.0
H6130 H 0.24384 0.50249 0.14822 0.0
H6131 H 0.25787 0.51259 0.16789 0.0
C6132 C 0.2539 0.52314 0.16434 0.0
C6133 C 0.24946 0.52704 0.1593 0.0
C6134 C 0.24664 0.4996 0.15265 0.0
C6135 C 0.2507 0.51165 0.15829 0.0
C6136 C 0.24603 0.49192 0.15307 0.0
C6137 C 0.24937 0.48804 0.15891 0.0
C6138 C 0.25061 0.50345 0.1581 0.0
C6139 C 0.25355 0.49207 0.16407 0.0
C6140 C 0.25454 0.51548 0.16385 0.0
C6141 C 0.24597 0.52304 0.15363 0.0
N6142 N 0.25401 0.49954 0.16357 0.0
N6143 N 0.24661 0.51556 0.15333 0.0
H6144 H 0.84776 0.52632 0.75921 0.0
H6145 H 0.86724 0.48925 0.7733 0.0
H6146 H 0.86665 0.52597 0.77379 0.0
H6147 H 0.8479 0.48961 0.75931 0.0
H6148 H 0.86806 0.50268 0.77227 0.0
H6149 H 0.84861 0.51291 0.75801 0.0
C6150 C 0.85212 0.52343 0.76213 0.0
C6151 C 0.8571 0.52728 0.76667 0.0
C6152 C 0.86368 0.49982 0.76937 0.0
C6153 C 0.85812 0.5119 0.76531 0.0
C6154 C 0.86323 0.49213 0.76991 0.0
C6155 C 0.85745 0.48829 0.76644 0.0
C6156 C 0.8583 0.5037 0.76533 0.0
C6157 C 0.85237 0.49235 0.7622 0.0
C6158 C 0.85262 0.51577 0.76142 0.0
C6159 C 0.86271 0.52325 0.7702 0.0
N6160 N 0.85288 0.49983 0.76181 0.0
N6161 N 0.86303 0.51578 0.76951 0.0
H6162 H 0.48983 0.86629 0.7737 0.0
H6163 H 0.52677 0.8473 0.75853 0.0
H6164 H 0.49001 0.84705 0.75962 0.0
H6165 H 0.52661 0.86587 0.77348 0.0
H6166 H 0.5133 0.84808 0.75764 0.0
H6167 H 0.50324 0.86723 0.77236 0.0
C6168 C 0.49267 0.86233 0.77023 0.0
C6169 C 0.48878 0.85654 0.76682 0.0
C6170 C 0.51622 0.85203 0.76106 0.0
C6171 C 0.50418 0.85752 0.76535 0.0
C6172 C 0.52391 0.85157 0.7616 0.0
C6173 C 0.52783 0.85648 0.76615 0.0
C6174 C 0.51239 0.85741 0.76514 0.0
C6175 C 0.52383 0.86199 0.76987 0.0
C6176 C 0.50034 0.86284 0.76951 0.0
C6177 C 0.49279 0.85152 0.76246 0.0
N6178 N 0.51634 0.86226 0.76934 0.0
N6179 N 0.50026 0.8521 0.7619 0.0
H6180 H 0.16927 0.48886 0.75989 0.0
H6181 H 0.14963 0.52574 0.77421 0.0
H6182 H 0.15027 0.48901 0.77433 0.0
H6183 H 0.16917 0.52557 0.76051 0.0
H6184 H 0.14883 0.51233 0.77303 0.0
H6185 H 0.16844 0.50229 0.75887 0.0
C6186 C 0.1649 0.49171 0.76282 0.0
C6187 C 0.15988 0.4878 0.76726 0.0
C6188 C 0.15326 0.51523 0.77023 0.0
C6189 C 0.15888 0.5032 0.7661 0.0
C6190 C 0.15369 0.5229 0.77086 0.0
C6191 C 0.15951 0.5268 0.76751 0.0
C6192 C 0.1587 0.5114 0.76623 0.0
C6193 C 0.16466 0.52279 0.76331 0.0
C6194 C 0.16441 0.49938 0.76221 0.0
C6195 C 0.15424 0.49179 0.77081 0.0
N6196 N 0.16416 0.51532 0.76283 0.0
N6197 N 0.15393 0.49926 0.7702 0.0
H6198 H 0.49009 0.16835 0.75846 0.0
H6199 H 0.52711 0.1491 0.77309 0.0
H6200 H 0.49034 0.1495 0.77307 0.0
H6201 H 0.52686 0.16838 0.75906 0.0
H6202 H 0.51369 0.14819 0.77186 0.0
H6203 H 0.50355 0.16755 0.75743 0.0
C6204 C 0.49297 0.16401 0.76142 0.0
C6205 C 0.48908 0.15903 0.76592 0.0
C6206 C 0.51657 0.15259 0.76899 0.0
C6207 C 0.5045 0.15807 0.76475 0.0
C6208 C 0.52425 0.15307 0.76965 0.0
C6209 C 0.52813 0.15886 0.76623 0.0
C6210 C 0.51272 0.15793 0.76489 0.0
C6211 C 0.5241 0.16391 0.76191 0.0
C6212 C 0.50065 0.16355 0.76081 0.0
C6213 C 0.49309 0.15344 0.76951 0.0
N6214 N 0.51662 0.16336 0.76141 0.0
N6215 N 0.50058 0.15316 0.7689 0.0
H6216 H 0.86688 0.4891 0.24259 0.0
H6217 H 0.84749 0.52605 0.25708 0.0
H6218 H 0.84726 0.48934 0.25618 0.0
H6219 H 0.86651 0.52583 0.24267 0.0
H6220 H 0.8482 0.51261 0.25803 0.0
H6221 H 0.86778 0.5025 0.24386 0.0
C6222 C 0.86282 0.49195 0.24594 0.0
C6223 C 0.85695 0.48808 0.24923 0.0
C6224 C 0.85226 0.5155 0.25471 0.0
C6225 C 0.85788 0.50346 0.25062 0.0
C6226 C 0.85184 0.52318 0.25415 0.0
C6227 C 0.8569 0.52708 0.24973 0.0
C6228 C 0.85777 0.51167 0.2508 0.0
C6229 C 0.86251 0.52307 0.24617 0.0
C6230 C 0.86331 0.49962 0.24662 0.0
C6231 C 0.8518 0.49211 0.25343 0.0
N6232 N 0.86275 0.51558 0.24673 0.0
N6233 N 0.85236 0.49957 0.25396 0.0
H6234 H 0.52723 0.84792 0.25779 0.0
H6235 H 0.49021 0.86699 0.24294 0.0
H6236 H 0.52697 0.86645 0.24277 0.0
H6237 H 0.49047 0.84792 0.25726 0.0
H6238 H 0.50364 0.8679 0.24414 0.0
H6239 H 0.51379 0.84879 0.25888 0.0
C6240 C 0.52435 0.8522 0.25475 0.0
C6241 C 0.52824 0.85707 0.25012 0.0
C6242 C 0.50075 0.86356 0.24707 0.0
C6243 C 0.51283 0.85811 0.25136 0.0
C6244 C 0.49307 0.86306 0.24644 0.0
C6245 C 0.4892 0.85733 0.24996 0.0
C6246 C 0.50461 0.85827 0.25125 0.0
C6247 C 0.49323 0.85235 0.25434 0.0
C6248 C 0.51668 0.85272 0.2554 0.0
C6249 C 0.52422 0.8626 0.24644 0.0
N6250 N 0.50072 0.8529 0.25482 0.0
N6251 N 0.51674 0.86292 0.24708 0.0
H6252 H 0.15002 0.52591 0.24169 0.0
H6253 H 0.16982 0.48907 0.25596 0.0
H6254 H 0.16961 0.52577 0.25532 0.0
H6255 H 0.15071 0.48917 0.24166 0.0
H6256 H 0.16896 0.50249 0.25698 0.0
H6257 H 0.14925 0.51249 0.24291 0.0
C6258 C 0.1541 0.52307 0.24504 0.0
C6259 C 0.15993 0.52698 0.24835 0.0
C6260 C 0.16491 0.49958 0.25367 0.0
C6261 C 0.15914 0.51158 0.24968 0.0
C6262 C 0.16541 0.49191 0.25307 0.0
C6263 C 0.16038 0.48799 0.24866 0.0
C6264 C 0.15934 0.50338 0.24981 0.0
C6265 C 0.1547 0.49196 0.24515 0.0
C6266 C 0.15368 0.5154 0.24568 0.0
C6267 C 0.1651 0.52298 0.25255 0.0
N6268 N 0.15438 0.49943 0.24575 0.0
N6269 N 0.16461 0.51551 0.25305 0.0
H6270 H 0.49016 0.16827 0.25647 0.0
H6271 H 0.52699 0.14863 0.2419 0.0
H6272 H 0.4902 0.14935 0.24197 0.0
H6273 H 0.52692 0.16814 0.25559 0.0
H6274 H 0.51356 0.14785 0.24317 0.0
H6275 H 0.50361 0.16741 0.25742 0.0
C6276 C 0.49299 0.16391 0.25351 0.0
C6277 C 0.48904 0.15892 0.24907 0.0
C6278 C 0.51649 0.15227 0.24595 0.0
C6279 C 0.50447 0.15789 0.25015 0.0
C6280 C 0.52417 0.15269 0.24527 0.0
C6281 C 0.5281 0.1585 0.24859 0.0
C6282 C 0.51268 0.1577 0.24997 0.0
C6283 C 0.52411 0.16364 0.25282 0.0
C6284 C 0.50068 0.1634 0.25408 0.0
C6285 C 0.493 0.1533 0.24549 0.0
N6286 N 0.51663 0.16315 0.25335 0.0
N6287 N 0.5005 0.15298 0.24605 0.0
H6288 H 0.75942 0.84684 0.52611 0.0
H6289 H 0.77397 0.8665 0.48928 0.0
H6290 H 0.77389 0.86581 0.52602 0.0
H6291 H 0.7604 0.84689 0.48939 0.0
H6292 H 0.77266 0.86731 0.50269 0.0
H6293 H 0.75847 0.84769 0.51267 0.0
C6294 C 0.76237 0.85121 0.52327 0.0
C6295 C 0.7668 0.85621 0.5272 0.0
C6296 C 0.76991 0.86286 0.49978 0.0
C6297 C 0.76572 0.85723 0.5118 0.0
C6298 C 0.77062 0.86243 0.49211 0.0
C6299 C 0.76734 0.85658 0.4882 0.0
C6300 C 0.76591 0.85741 0.50359 0.0
C6301 C 0.76313 0.85142 0.49219 0.0
C6302 C 0.7618 0.85171 0.51559 0.0
C6303 C 0.77037 0.86185 0.52323 0.0
N6304 N 0.76258 0.85192 0.49966 0.0
N6305 N 0.76981 0.86216 0.51575 0.0
H6306 H 0.77396 0.14892 0.52642 0.0
H6307 H 0.76002 0.16833 0.48923 0.0
H6308 H 0.76024 0.16841 0.52596 0.0
H6309 H 0.77443 0.14934 0.48966 0.0
H6310 H 0.75885 0.16757 0.50266 0.0
H6311 H 0.77291 0.14805 0.51299 0.0
C6312 C 0.77062 0.15295 0.52351 0.0
C6313 C 0.76723 0.15879 0.52733 0.0
C6314 C 0.76222 0.16353 0.49981 0.0
C6315 C 0.7661 0.15788 0.51191 0.0
C6316 C 0.76291 0.16398 0.49214 0.0
C6317 C 0.76739 0.15894 0.48831 0.0
C6318 C 0.76606 0.15802 0.50371 0.0
C6319 C 0.77089 0.15332 0.49237 0.0
C6320 C 0.77007 0.15248 0.51583 0.0
C6321 C 0.76306 0.1639 0.52324 0.0
N6322 N 0.7702 0.15306 0.49985 0.0
N6323 N 0.76266 0.16336 0.51576 0.0
H6324 H 0.86739 0.77375 0.48922 0.0
H6325 H 0.84824 0.75871 0.52613 0.0
H6326 H 0.84798 0.75987 0.48941 0.0
H6327 H 0.86691 0.77357 0.52597 0.0
H6328 H 0.84901 0.75782 0.51268 0.0
H6329 H 0.86831 0.7724 0.50263 0.0
C6330 C 0.86339 0.77032 0.49206 0.0
C6331 C 0.85756 0.76697 0.48818 0.0
C6332 C 0.85299 0.76122 0.51559 0.0
C6333 C 0.85852 0.7655 0.50357 0.0
C6334 C 0.85253 0.76175 0.52327 0.0
C6335 C 0.85747 0.76628 0.52719 0.0
C6336 C 0.8584 0.76528 0.51177 0.0
C6337 C 0.86301 0.76998 0.5232 0.0
C6338 C 0.86389 0.7696 0.49973 0.0
C6339 C 0.85248 0.76267 0.49219 0.0
N6340 N 0.86328 0.76945 0.51571 0.0
N6341 N 0.85305 0.7621 0.49966 0.0
H6342 H 0.25864 0.84724 0.52624 0.0
H6343 H 0.24408 0.8664 0.48917 0.0
H6344 H 0.24393 0.866 0.5259 0.0
H6345 H 0.25785 0.84695 0.48952 0.0
H6346 H 0.24534 0.86736 0.50257 0.0
H6347 H 0.2597 0.84801 0.5128 0.0
C6348 C 0.25567 0.85155 0.52335 0.0
C6349 C 0.25113 0.85652 0.52721 0.0
C6350 C 0.24814 0.86292 0.49971 0.0
C6351 C 0.25233 0.85744 0.5118 0.0
C6352 C 0.24747 0.8624 0.49204 0.0
C6353 C 0.25081 0.85654 0.48821 0.0
C6354 C 0.25219 0.85755 0.50359 0.0
C6355 C 0.25507 0.85147 0.49226 0.0
C6356 C 0.2563 0.852 0.51567 0.0
C6357 C 0.24752 0.86208 0.52317 0.0
N6358 N 0.25559 0.85206 0.49973 0.0
N6359 N 0.24814 0.86234 0.51568 0.0
H6360 H 0.16928 0.25662 0.52624 0.0
H6361 H 0.14996 0.24234 0.48914 0.0
H6362 H 0.15039 0.24204 0.52588 0.0
H6363 H 0.16943 0.25613 0.48951 0.0
H6364 H 0.14906 0.24348 0.50256 0.0
H6365 H 0.16851 0.25772 0.51281 0.0
C6366 C 0.16494 0.25368 0.52334 0.0
C6367 C 0.15994 0.24917 0.5272 0.0
C6368 C 0.15349 0.24632 0.4997 0.0
C6369 C 0.15901 0.25042 0.5118 0.0
C6370 C 0.15398 0.24571 0.49202 0.0
C6371 C 0.15982 0.24909 0.48818 0.0
C6372 C 0.15888 0.25033 0.50359 0.0
C6373 C 0.16492 0.25332 0.49224 0.0
C6374 C 0.16449 0.25433 0.51567 0.0
C6375 C 0.15435 0.24561 0.52316 0.0
N6376 N 0.16436 0.25377 0.49972 0.0
N6377 N 0.15408 0.24625 0.51568 0.0
H6378 H 0.24277 0.14917 0.5263 0.0
H6379 H 0.25767 0.16852 0.48944 0.0
H6380 H 0.25659 0.16862 0.52616 0.0
H6381 H 0.24308 0.14964 0.48956 0.0
H6382 H 0.25855 0.16774 0.50289 0.0
H6383 H 0.24412 0.1483 0.5129 0.0
C6384 C 0.24618 0.15319 0.52348 0.0
C6385 C 0.24952 0.15902 0.52737 0.0
C6386 C 0.25521 0.16372 0.49998 0.0
C6387 C 0.251 0.15811 0.51199 0.0
C6388 C 0.25468 0.16418 0.49229 0.0
C6389 C 0.25023 0.15918 0.48836 0.0
C6390 C 0.25123 0.15824 0.50378 0.0
C6391 C 0.24661 0.15359 0.49234 0.0
C6392 C 0.24691 0.15272 0.51581 0.0
C6393 C 0.25381 0.16411 0.52338 0.0
N6394 N 0.24713 0.15332 0.49983 0.0
N6395 N 0.25438 0.16357 0.51591 0.0
H6396 H 0.84796 0.25573 0.48926 0.0
H6397 H 0.86723 0.24134 0.52635 0.0
H6398 H 0.86678 0.24108 0.4896 0.0
H6399 H 0.84797 0.2554 0.52599 0.0
H6400 H 0.86811 0.24244 0.51292 0.0
H6401 H 0.84876 0.25684 0.50269 0.0
C6402 C 0.85229 0.25278 0.49215 0.0
C6403 C 0.85726 0.24825 0.48829 0.0
C6404 C 0.86373 0.24534 0.51578 0.0
C6405 C 0.85823 0.2495 0.50369 0.0
C6406 C 0.86325 0.24476 0.52347 0.0
C6407 C 0.85748 0.24823 0.52731 0.0
C6408 C 0.85838 0.24942 0.5119 0.0
C6409 C 0.85243 0.25251 0.52325 0.0
C6410 C 0.85276 0.25343 0.49982 0.0
C6411 C 0.86285 0.24467 0.49233 0.0
N6412 N 0.85297 0.25294 0.51577 0.0
N6413 N 0.86314 0.24531 0.49981 0.0
H6414 H 0.14921 0.77295 0.48945 0.0
H6415 H 0.16827 0.75797 0.52641 0.0
H6416 H 0.16829 0.75864 0.48968 0.0
H6417 H 0.14975 0.773 0.52618 0.0
H6418 H 0.16741 0.75694 0.51298 0.0
H6419 H 0.1483 0.77172 0.50286 0.0
C6420 C 0.15314 0.76945 0.4923 0.0
C6421 C 0.15888 0.76595 0.48843 0.0
C6422 C 0.16349 0.76041 0.51587 0.0
C6423 C 0.15794 0.76461 0.50382 0.0
C6424 C 0.164 0.76102 0.52354 0.0
C6425 C 0.15913 0.76564 0.52743 0.0
C6426 C 0.1581 0.76447 0.51203 0.0
C6427 C 0.1536 0.76934 0.52343 0.0
C6428 C 0.15265 0.7688 0.49997 0.0
C6429 C 0.16386 0.76156 0.49245 0.0
N6430 N 0.15329 0.76874 0.51594 0.0
N6431 N 0.16331 0.76106 0.49992 0.0
loop_
_geom_bond_atom_site_label_1
_geom_bond_atom_site_label_2
_geom_bond_distance
_geom_bond_site_symmetry_2
_ccdc_geom_bond_type
C0 C1 1.264 . S
C0 C5 1.479 . S
C0 C10 1.465 . S
C1 C0 1.264 . S
C1 C3 1.339 . S
C1 H28 0.931 . S
C2 C3 1.395 . S
C2 C4 1.320 . S
C3 C1 1.339 . S
C3 C2 1.395 . S
C3 H29 0.929 . S
C4 C2 1.320 . S
C4 C5 1.405 . S
C4 H30 0.930 . S
C5 C0 1.479 . S
C5 C4 1.405 . S
C5 H31 0.931 . S
U6 O7 2.454 . S
U6 O8 2.458 . S
U6 C9 2.984 . S
U6 C10 2.847 . S
U6 C23 2.882 . S
U6 O24 2.441 . S
U6 O25 2.420 . S
U6 O26 2.455 . S
U6 O27 2.449 . S
O7 U6 2.454 . S
O7 C9 1.353 . S
O8 U6 2.458 . S
O8 C9 1.286 . S
C9 U6 2.984 . S
C9 O7 1.353 . S
C9 O8 1.286 . S
C9 C11 1.363 . S
C10 C0 1.465 . S
C10 U6 2.847 . S
C10 O24 1.249 . S
C10 O25 1.202 . S
C11 C9 1.363 . S
C11 C13 1.408 . S
C11 C16 1.342 . S
C12 C13 1.310 . S
C12 C15 1.461 . S
C12 H32 0.932 . S
C13 C11 1.408 . S
C13 C12 1.310 . S
C13 H33 0.930 . S
C14 C15 1.474 . S
C14 C16 1.285 . S
C14 H34 0.929 . S
C15 C12 1.461 . S
C15 C14 1.474 . S
C16 C11 1.342 . S
C16 C14 1.285 . S
C16 H35 0.930 . S
C17 C20 1.424 . S
C17 C22 1.245 . S
C17 C23 1.428 . S
C18 C21 1.260 . S
C18 C22 1.477 . S
C18 H36 0.932 . S
C19 C20 1.384 . S
C19 C21 1.479 . S
C19 H37 0.929 . S
C20 C17 1.424 . S
C20 C19 1.384 . S
C20 H38 0.928 . S
C21 C18 1.260 . S
C21 C19 1.479 . S
C22 C17 1.245 . S
C22 C18 1.477 . S
C22 H39 0.932 . S
C23 U6 2.882 . S
C23 C17 1.428 . S
C23 O26 1.301 . S
C23 O27 1.282 . S
O24 U6 2.441 . S
O24 C10 1.249 . S
O25 U6 2.420 . S
O25 C10 1.202 . S
O26 U6 2.455 . S
O26 C23 1.301 . S
O27 U6 2.449 . S
O27 C23 1.282 . S
H28 C1 0.931 . S
H29 C3 0.929 . S
H30 C4 0.930 . S
H31 C5 0.931 . S
H32 C12 0.932 . S
H33 C13 0.930 . S
H34 C14 0.929 . S
H35 C16 0.930 . S
H36 C18 0.932 . S
H37 C19 0.929 . S
H38 C20 0.928 . S
H39 C22 0.932 . S
C40 C41 1.264 . S
C40 C45 1.479 . S
C40 C50 1.465 . S
C41 C40 1.264 . S
C41 C43 1.339 . S
C41 H68 0.931 . S
C42 C43 1.395 . S
C42 C44 1.320 . S
C43 C41 1.339 . S
C43 C42 1.395 . S
C43 H69 0.929 . S
C44 C42 1.320 . S
C44 C45 1.405 . S
C44 H70 0.930 . S
C45 C40 1.479 . S
C45 C44 1.405 . S
C45 H71 0.931 . S
U46 O47 2.454 . S
U46 O48 2.458 . S
U46 C49 2.984 . S
U46 C50 2.847 . S
U46 C63 2.882 . S
U46 O64 2.441 . S
U46 O65 2.420 . S
U46 O66 2.455 . S
U46 O67 2.449 . S
O47 U46 2.454 . S
O47 C49 1.353 . S
O48 U46 2.458 . S
O48 C49 1.286 . S
C49 U46 2.984 . S
C49 O47 1.353 . S
C49 O48 1.286 . S
C49 C51 1.363 . S
C50 C40 1.465 . S
C50 U46 2.847 . S
C50 O64 1.249 . S
C50 O65 1.202 . S
C51 C49 1.363 . S
C51 C53 1.408 . S
C51 C56 1.342 . S
C52 C53 1.310 . S
C52 C55 1.461 . S
C52 H72 0.932 . S
C53 C51 1.408 . S
C53 C52 1.310 . S
C53 H73 0.930 . S
C54 C55 1.474 . S
C54 C56 1.285 . S
C54 H74 0.929 . S
C55 C52 1.461 . S
C55 C54 1.474 . S
C56 C51 1.342 . S
C56 C54 1.285 . S
C56 H75 0.930 . S
C57 C60 1.424 . S
C57 C62 1.245 . S
C57 C63 1.428 . S
C58 C61 1.260 . S
C58 C62 1.477 . S
C58 H76 0.932 . S
C59 C60 1.384 . S
C59 C61 1.479 . S
C59 H77 0.929 . S
C60 C57 1.424 . S
C60 C59 1.384 . S
C60 H78 0.928 . S
C61 C58 1.260 . S
C61 C59 1.479 . S
C62 C57 1.245 . S
C62 C58 1.477 . S
C62 H79 0.932 . S
C63 U46 2.882 . S
C63 C57 1.428 . S
C63 O66 1.301 . S
C63 O67 1.282 . S
O64 U46 2.441 . S
O64 C50 1.249 . S
O65 U46 2.420 . S
O65 C50 1.202 . S
O66 U46 2.455 . S
O66 C63 1.301 . S
O67 U46 2.449 . S
O67 C63 1.282 . S
H68 C41 0.931 . S
H69 C43 0.929 . S
H70 C44 0.930 . S
H71 C45 0.931 . S
H72 C52 0.932 . S
H73 C53 0.930 . S
H74 C54 0.929 . S
H75 C56 0.930 . S
H76 C58 0.932 . S
H77 C59 0.929 . S
H78 C60 0.928 . S
H79 C62 0.932 . S
C80 C81 1.264 . S
C80 C85 1.479 . S
C80 C90 1.465 . S
C81 C80 1.264 . S
C81 C83 1.339 . S
C81 H108 0.931 . S
C82 C83 1.395 . S
C82 C84 1.320 . S
C83 C81 1.339 . S
C83 C82 1.395 . S
C83 H109 0.929 . S
C84 C82 1.320 . S
C84 C85 1.405 . S
C84 H110 0.930 . S
C85 C80 1.479 . S
C85 C84 1.405 . S
C85 H111 0.931 . S
U86 O87 2.454 . S
U86 O88 2.458 . S
U86 C89 2.984 . S
U86 C90 2.847 . S
U86 C103 2.882 . S
U86 O104 2.441 . S
U86 O105 2.420 . S
U86 O106 2.455 . S
U86 O107 2.449 . S
O87 U86 2.454 . S
O87 C89 1.353 . S
O88 U86 2.458 . S
O88 C89 1.286 . S
C89 U86 2.984 . S
C89 O87 1.353 . S
C89 O88 1.286 . S
C89 C91 1.363 . S
C90 C80 1.465 . S
C90 U86 2.847 . S
C90 O104 1.249 . S
C90 O105 1.202 . S
C91 C89 1.363 . S
C91 C93 1.408 . S
C91 C96 1.342 . S
C92 C93 1.310 . S
C92 C95 1.461 . S
C92 H112 0.932 . S
C93 C91 1.408 . S
C93 C92 1.310 . S
C93 H113 0.930 . S
C94 C95 1.474 . S
C94 C96 1.285 . S
C94 H114 0.929 . S
C95 C92 1.461 . S
C95 C94 1.474 . S
C96 C91 1.342 . S
C96 C94 1.285 . S
C96 H115 0.930 . S
C97 C100 1.424 . S
C97 C102 1.245 . S
C97 C103 1.428 . S
C98 C101 1.260 . S
C98 C102 1.477 . S
C98 H116 0.932 . S
C99 C100 1.384 . S
C99 C101 1.479 . S
C99 H117 0.929 . S
C100 C97 1.424 . S
C100 C99 1.384 . S
C100 H118 0.928 . S
C101 C98 1.260 . S
C101 C99 1.479 . S
C102 C97 1.245 . S
C102 C98 1.477 . S
C102 H119 0.932 . S
C103 U86 2.882 . S
C103 C97 1.428 . S
C103 O106 1.301 . S
C103 O107 1.282 . S
O104 U86 2.441 . S
O104 C90 1.249 . S
O105 U86 2.420 . S
O105 C90 1.202 . S
O106 U86 2.455 . S
O106 C103 1.301 . S
O107 U86 2.449 . S
O107 C103 1.282 . S
H108 C81 0.931 . S
H109 C83 0.929 . S
H110 C84 0.930 . S
H111 C85 0.931 . S
H112 C92 0.932 . S
H113 C93 0.930 . S
H114 C94 0.929 . S
H115 C96 0.930 . S
H116 C98 0.932 . S
H117 C99 0.929 . S
H118 C100 0.928 . S
H119 C102 0.932 . S
C120 C121 1.264 . S
C120 C125 1.479 . S
C120 C130 1.465 . S
C121 C120 1.264 . S
C121 C123 1.339 . S
C121 H148 0.931 . S
C122 C123 1.395 . S
C122 C124 1.320 . S
C123 C121 1.339 . S
C123 C122 1.395 . S
C123 H149 0.929 . S
C124 C122 1.320 . S
C124 C125 1.405 . S
C124 H150 0.930 . S
C125 C120 1.479 . S
C125 C124 1.405 . S
C125 H151 0.931 . S
U126 O127 2.454 . S
U126 O128 2.458 . S
U126 C129 2.984 . S
U126 C130 2.847 . S
U126 C143 2.882 . S
U126 O144 2.441 . S
U126 O145 2.420 . S
U126 O146 2.455 . S
U126 O147 2.449 . S
O127 U126 2.454 . S
O127 C129 1.353 . S
O128 U126 2.458 . S
O128 C129 1.286 . S
C129 U126 2.984 . S
C129 O127 1.353 . S
C129 O128 1.286 . S
C129 C131 1.363 . S
C130 C120 1.465 . S
C130 U126 2.847 . S
C130 O144 1.249 . S
C130 O145 1.202 . S
C131 C129 1.363 . S
C131 C133 1.408 . S
C131 C136 1.342 . S
C132 C133 1.310 . S
C132 C135 1.461 . S
C132 H152 0.932 . S
C133 C131 1.408 . S
C133 C132 1.310 . S
C133 H153 0.930 . S
C134 C135 1.474 . S
C134 C136 1.285 . S
C134 H154 0.929 . S
C135 C132 1.461 . S
C135 C134 1.474 . S
C136 C131 1.342 . S
C136 C134 1.285 . S
C136 H155 0.930 . S
C137 C140 1.424 . S
C137 C142 1.245 . S
C137 C143 1.428 . S
C138 C141 1.260 . S
C138 C142 1.477 . S
C138 H156 0.932 . S
C139 C140 1.384 . S
C139 C141 1.479 . S
C139 H157 0.929 . S
C140 C137 1.424 . S
C140 C139 1.384 . S
C140 H158 0.928 . S
C141 C138 1.260 . S
C141 C139 1.479 . S
C142 C137 1.245 . S
C142 C138 1.477 . S
C142 H159 0.932 . S
C143 U126 2.882 . S
C143 C137 1.428 . S
C143 O146 1.301 . S
C143 O147 1.282 . S
O144 U126 2.441 . S
O144 C130 1.249 . S
O145 U126 2.420 . S
O145 C130 1.202 . S
O146 U126 2.455 . S
O146 C143 1.301 . S
O147 U126 2.449 . S
O147 C143 1.282 . S
H148 C121 0.931 . S
H149 C123 0.929 . S
H150 C124 0.930 . S
H151 C125 0.931 . S
H152 C132 0.932 . S
H153 C133 0.930 . S
H154 C134 0.929 . S
H155 C136 0.930 . S
H156 C138 0.932 . S
H157 C139 0.929 . S
H158 C140 0.928 . S
H159 C142 0.932 . S
C160 C161 1.264 . S
C160 C165 1.479 . S
C160 C170 1.465 . S
C161 C160 1.264 . S
C161 C163 1.339 . S
C161 H188 0.931 . S
C162 C163 1.395 . S
C162 C164 1.320 . S
C163 C161 1.339 . S
C163 C162 1.395 . S
C163 H189 0.929 . S
C164 C162 1.320 . S
C164 C165 1.405 . S
C164 H190 0.930 . S
C165 C160 1.479 . S
C165 C164 1.405 . S
C165 H191 0.931 . S
U166 O167 2.454 . S
U166 O168 2.458 . S
U166 C169 2.984 . S
U166 C170 2.847 . S
U166 C183 2.882 . S
U166 O184 2.441 . S
U166 O185 2.420 . S
U166 O186 2.455 . S
U166 O187 2.449 . S
O167 U166 2.454 . S
O167 C169 1.353 . S
O168 U166 2.458 . S
O168 C169 1.286 . S
C169 U166 2.984 . S
C169 O167 1.353 . S
C169 O168 1.286 . S
C169 C171 1.363 . S
C170 C160 1.465 . S
C170 U166 2.847 . S
C170 O184 1.249 . S
C170 O185 1.202 . S
C171 C169 1.363 . S
C171 C173 1.408 . S
C171 C176 1.342 . S
C172 C173 1.310 . S
C172 C175 1.461 . S
C172 H192 0.932 . S
C173 C171 1.408 . S
C173 C172 1.310 . S
C173 H193 0.930 . S
C174 C175 1.474 . S
C174 C176 1.285 . S
C174 H194 0.929 . S
C175 C172 1.461 . S
C175 C174 1.474 . S
C176 C171 1.342 . S
C176 C174 1.285 . S
C176 H195 0.930 . S
C177 C180 1.424 . S
C177 C182 1.245 . S
C177 C183 1.428 . S
C178 C181 1.260 . S
C178 C182 1.477 . S
C178 H196 0.932 . S
C179 C180 1.384 . S
C179 C181 1.479 . S
C179 H197 0.929 . S
C180 C177 1.424 . S
C180 C179 1.384 . S
C180 H198 0.928 . S
C181 C178 1.260 . S
C181 C179 1.479 . S
C182 C177 1.245 . S
C182 C178 1.477 . S
C182 H199 0.932 . S
C183 U166 2.882 . S
C183 C177 1.428 . S
C183 O186 1.301 . S
C183 O187 1.282 . S
O184 U166 2.441 . S
O184 C170 1.249 . S
O185 U166 2.420 . S
O185 C170 1.202 . S
O186 U166 2.455 . S
O186 C183 1.301 . S
O187 U166 2.449 . S
O187 C183 1.282 . S
H188 C161 0.931 . S
H189 C163 0.929 . S
H190 C164 0.930 . S
H191 C165 0.931 . S
H192 C172 0.932 . S
H193 C173 0.930 . S
H194 C174 0.929 . S
H195 C176 0.930 . S
H196 C178 0.932 . S
H197 C179 0.929 . S
H198 C180 0.928 . S
H199 C182 0.932 . S
C200 C201 1.264 . S
C200 C205 1.479 . S
C200 C210 1.465 . S
C201 C200 1.264 . S
C201 C203 1.339 . S
C201 H228 0.931 . S
C202 C203 1.395 . S
C202 C204 1.320 . S
C203 C201 1.339 . S
C203 C202 1.395 . S
C203 H229 0.929 . S
C204 C202 1.320 . S
C204 C205 1.405 . S
C204 H230 0.930 . S
C205 C200 1.479 . S
C205 C204 1.405 . S
C205 H231 0.931 . S
U206 O207 2.454 . S
U206 O208 2.458 . S
U206 C209 2.984 . S
U206 C210 2.847 . S
U206 C223 2.882 . S
U206 O224 2.441 . S
U206 O225 2.420 . S
U206 O226 2.455 . S
U206 O227 2.449 . S
O207 U206 2.454 . S
O207 C209 1.353 . S
O208 U206 2.458 . S
O208 C209 1.286 . S
C209 U206 2.984 . S
C209 O207 1.353 . S
C209 O208 1.286 . S
C209 C211 1.363 . S
C210 C200 1.465 . S
C210 U206 2.847 . S
C210 O224 1.249 . S
C210 O225 1.202 . S
C211 C209 1.363 . S
C211 C213 1.408 . S
C211 C216 1.342 . S
C212 C213 1.310 . S
C212 C215 1.461 . S
C212 H232 0.932 . S
C213 C211 1.408 . S
C213 C212 1.310 . S
C213 H233 0.930 . S
C214 C215 1.474 . S
C214 C216 1.285 . S
C214 H234 0.929 . S
C215 C212 1.461 . S
C215 C214 1.474 . S
C216 C211 1.342 . S
C216 C214 1.285 . S
C216 H235 0.930 . S
C217 C220 1.424 . S
C217 C222 1.245 . S
C217 C223 1.428 . S
C218 C221 1.260 . S
C218 C222 1.477 . S
C218 H236 0.932 . S
C219 C220 1.384 . S
C219 C221 1.479 . S
C219 H237 0.929 . S
C220 C217 1.424 . S
C220 C219 1.384 . S
C220 H238 0.928 . S
C221 C218 1.260 . S
C221 C219 1.479 . S
C222 C217 1.245 . S
C222 C218 1.477 . S
C222 H239 0.932 . S
C223 U206 2.882 . S
C223 C217 1.428 . S
C223 O226 1.301 . S
C223 O227 1.282 . S
O224 U206 2.441 . S
O224 C210 1.249 . S
O225 U206 2.420 . S
O225 C210 1.202 . S
O226 U206 2.455 . S
O226 C223 1.301 . S
O227 U206 2.449 . S
O227 C223 1.282 . S
H228 C201 0.931 . S
H229 C203 0.929 . S
H230 C204 0.930 . S
H231 C205 0.931 . S
H232 C212 0.932 . S
H233 C213 0.930 . S
H234 C214 0.929 . S
H235 C216 0.930 . S
H236 C218 0.932 . S
H237 C219 0.929 . S
H238 C220 0.928 . S
H239 C222 0.932 . S
C240 C241 1.264 . S
C240 C245 1.479 . S
C240 C250 1.465 . S
C241 C240 1.264 . S
C241 C243 1.339 . S
C241 H268 0.931 . S
C242 C243 1.395 . S
C242 C244 1.320 . S
C243 C241 1.339 . S
C243 C242 1.395 . S
C243 H269 0.929 . S
C244 C242 1.320 . S
C244 C245 1.405 . S
C244 H270 0.930 . S
C245 C240 1.479 . S
C245 C244 1.405 . S
C245 H271 0.931 . S
U246 O247 2.454 . S
U246 O248 2.458 . S
U246 C249 2.984 . S
U246 C250 2.847 . S
U246 C263 2.882 . S
U246 O264 2.441 . S
U246 O265 2.420 . S
U246 O266 2.455 . S
U246 O267 2.449 . S
O247 U246 2.454 . S
O247 C249 1.353 . S
O248 U246 2.458 . S
O248 C249 1.286 . S
C249 U246 2.984 . S
C249 O247 1.353 . S
C249 O248 1.286 . S
C249 C251 1.363 . S
C250 C240 1.465 . S
C250 U246 2.847 . S
C250 O264 1.249 . S
C250 O265 1.202 . S
C251 C249 1.363 . S
C251 C253 1.408 . S
C251 C256 1.342 . S
C252 C253 1.310 . S
C252 C255 1.461 . S
C252 H272 0.932 . S
C253 C251 1.408 . S
C253 C252 1.310 . S
C253 H273 0.930 . S
C254 C255 1.474 . S
C254 C256 1.285 . S
C254 H274 0.929 . S
C255 C252 1.461 . S
C255 C254 1.474 . S
C256 C251 1.342 . S
C256 C254 1.285 . S
C256 H275 0.930 . S
C257 C260 1.424 . S
C257 C262 1.245 . S
C257 C263 1.428 . S
C258 C261 1.260 . S
C258 C262 1.477 . S
C258 H276 0.932 . S
C259 C260 1.384 . S
C259 C261 1.479 . S
C259 H277 0.929 . S
C260 C257 1.424 . S
C260 C259 1.384 . S
C260 H278 0.928 . S
C261 C258 1.260 . S
C261 C259 1.479 . S
C262 C257 1.245 . S
C262 C258 1.477 . S
C262 H279 0.932 . S
C263 U246 2.882 . S
C263 C257 1.428 . S
C263 O266 1.301 . S
C263 O267 1.282 . S
O264 U246 2.441 . S
O264 C250 1.249 . S
O265 U246 2.420 . S
O265 C250 1.202 . S
O266 U246 2.455 . S
O266 C263 1.301 . S
O267 U246 2.449 . S
O267 C263 1.282 . S
H268 C241 0.931 . S
H269 C243 0.929 . S
H270 C244 0.930 . S
H271 C245 0.931 . S
H272 C252 0.932 . S
H273 C253 0.930 . S
H274 C254 0.929 . S
H275 C256 0.930 . S
H276 C258 0.932 . S
H277 C259 0.929 . S
H278 C260 0.928 . S
H279 C262 0.932 . S
C280 C281 1.264 . S
C280 C285 1.479 . S
C280 C290 1.465 . S
C281 C280 1.264 . S
C281 C283 1.339 . S
C281 H308 0.931 . S
C282 C283 1.395 . S
C282 C284 1.320 . S
C283 C281 1.339 . S
C283 C282 1.395 . S
C283 H309 0.929 . S
C284 C282 1.320 . S
C284 C285 1.405 . S
C284 H310 0.930 . S
C285 C280 1.479 . S
C285 C284 1.405 . S
C285 H311 0.931 . S
U286 O287 2.454 . S
U286 O288 2.458 . S
U286 C289 2.984 . S
U286 C290 2.847 . S
U286 C303 2.882 . S
U286 O304 2.441 . S
U286 O305 2.420 . S
U286 O306 2.455 . S
U286 O307 2.449 . S
O287 U286 2.454 . S
O287 C289 1.353 . S
O288 U286 2.458 . S
O288 C289 1.286 . S
C289 U286 2.984 . S
C289 O287 1.353 . S
C289 O288 1.286 . S
C289 C291 1.363 . S
C290 C280 1.465 . S
C290 U286 2.847 . S
C290 O304 1.249 . S
C290 O305 1.202 . S
C291 C289 1.363 . S
C291 C293 1.408 . S
C291 C296 1.342 . S
C292 C293 1.310 . S
C292 C295 1.461 . S
C292 H312 0.932 . S
C293 C291 1.408 . S
C293 C292 1.310 . S
C293 H313 0.930 . S
C294 C295 1.474 . S
C294 C296 1.285 . S
C294 H314 0.929 . S
C295 C292 1.461 . S
C295 C294 1.474 . S
C296 C291 1.342 . S
C296 C294 1.285 . S
C296 H315 0.930 . S
C297 C300 1.424 . S
C297 C302 1.245 . S
C297 C303 1.428 . S
C298 C301 1.260 . S
C298 C302 1.477 . S
C298 H316 0.932 . S
C299 C300 1.384 . S
C299 C301 1.479 . S
C299 H317 0.929 . S
C300 C297 1.424 . S
C300 C299 1.384 . S
C300 H318 0.928 . S
C301 C298 1.260 . S
C301 C299 1.479 . S
C302 C297 1.245 . S
C302 C298 1.477 . S
C302 H319 0.932 . S
C303 U286 2.882 . S
C303 C297 1.428 . S
C303 O306 1.301 . S
C303 O307 1.282 . S
O304 U286 2.441 . S
O304 C290 1.249 . S
O305 U286 2.420 . S
O305 C290 1.202 . S
O306 U286 2.455 . S
O306 C303 1.301 . S
O307 U286 2.449 . S
O307 C303 1.282 . S
H308 C281 0.931 . S
H309 C283 0.929 . S
H310 C284 0.930 . S
H311 C285 0.931 . S
H312 C292 0.932 . S
H313 C293 0.930 . S
H314 C294 0.929 . S
H315 C296 0.930 . S
H316 C298 0.932 . S
H317 C299 0.929 . S
H318 C300 0.928 . S
H319 C302 0.932 . S
C320 C321 1.264 . S
C320 C325 1.479 . S
C320 C330 1.465 . S
C321 C320 1.264 . S
C321 C323 1.339 . S
C321 H348 0.931 . S
C322 C323 1.395 . S
C322 C324 1.320 . S
C323 C321 1.339 . S
C323 C322 1.395 . S
C323 H349 0.929 . S
C324 C322 1.320 . S
C324 C325 1.405 . S
C324 H350 0.930 . S
C325 C320 1.479 . S
C325 C324 1.405 . S
C325 H351 0.931 . S
U326 O327 2.454 . S
U326 O328 2.458 . S
U326 C329 2.984 . S
U326 C330 2.847 . S
U326 C343 2.882 . S
U326 O344 2.441 . S
U326 O345 2.420 . S
U326 O346 2.455 . S
U326 O347 2.449 . S
O327 U326 2.454 . S
O327 C329 1.353 . S
O328 U326 2.458 . S
O328 C329 1.286 . S
C329 U326 2.984 . S
C329 O327 1.353 . S
C329 O328 1.286 . S
C329 C331 1.363 . S
C330 C320 1.465 . S
C330 U326 2.847 . S
C330 O344 1.249 . S
C330 O345 1.202 . S
C331 C329 1.363 . S
C331 C333 1.408 . S
C331 C336 1.342 . S
C332 C333 1.310 . S
C332 C335 1.461 . S
C332 H352 0.932 . S
C333 C331 1.408 . S
C333 C332 1.310 . S
C333 H353 0.930 . S
C334 C335 1.474 . S
C334 C336 1.285 . S
C334 H354 0.929 . S
C335 C332 1.461 . S
C335 C334 1.474 . S
C336 C331 1.342 . S
C336 C334 1.285 . S
C336 H355 0.930 . S
C337 C340 1.424 . S
C337 C342 1.245 . S
C337 C343 1.428 . S
C338 C341 1.260 . S
C338 C342 1.477 . S
C338 H356 0.932 . S
C339 C340 1.384 . S
C339 C341 1.479 . S
C339 H357 0.929 . S
C340 C337 1.424 . S
C340 C339 1.384 . S
C340 H358 0.928 . S
C341 C338 1.260 . S
C341 C339 1.479 . S
C342 C337 1.245 . S
C342 C338 1.477 . S
C342 H359 0.932 . S
C343 U326 2.882 . S
C343 C337 1.428 . S
C343 O346 1.301 . S
C343 O347 1.282 . S
O344 U326 2.441 . S
O344 C330 1.249 . S
O345 U326 2.420 . S
O345 C330 1.202 . S
O346 U326 2.455 . S
O346 C343 1.301 . S
O347 U326 2.449 . S
O347 C343 1.282 . S
H348 C321 0.931 . S
H349 C323 0.929 . S
H350 C324 0.930 . S
H351 C325 0.931 . S
H352 C332 0.932 . S
H353 C333 0.930 . S
H354 C334 0.929 . S
H355 C336 0.930 . S
H356 C338 0.932 . S
H357 C339 0.929 . S
H358 C340 0.928 . S
H359 C342 0.932 . S
C360 C361 1.264 . S
C360 C365 1.479 . S
C360 C370 1.465 . S
C361 C360 1.264 . S
C361 C363 1.339 . S
C361 H388 0.931 . S
C362 C363 1.395 . S
C362 C364 1.320 . S
C363 C361 1.339 . S
C363 C362 1.395 . S
C363 H389 0.929 . S
C364 C362 1.320 . S
C364 C365 1.405 . S
C364 H390 0.930 . S
C365 C360 1.479 . S
C365 C364 1.405 . S
C365 H391 0.931 . S
U366 O367 2.454 . S
U366 O368 2.458 . S
U366 C369 2.984 . S
U366 C370 2.847 . S
U366 C383 2.882 . S
U366 O384 2.441 . S
U366 O385 2.420 . S
U366 O386 2.455 . S
U366 O387 2.449 . S
O367 U366 2.454 . S
O367 C369 1.353 . S
O368 U366 2.458 . S
O368 C369 1.286 . S
C369 U366 2.984 . S
C369 O367 1.353 . S
C369 O368 1.286 . S
C369 C371 1.363 . S
C370 C360 1.465 . S
C370 U366 2.847 . S
C370 O384 1.249 . S
C370 O385 1.202 . S
C371 C369 1.363 . S
C371 C373 1.408 . S
C371 C376 1.342 . S
C372 C373 1.310 . S
C372 C375 1.461 . S
C372 H392 0.932 . S
C373 C371 1.408 . S
C373 C372 1.310 . S
C373 H393 0.930 . S
C374 C375 1.474 . S
C374 C376 1.285 . S
C374 H394 0.929 . S
C375 C372 1.461 . S
C375 C374 1.474 . S
C376 C371 1.342 . S
C376 C374 1.285 . S
C376 H395 0.930 . S
C377 C380 1.424 . S
C377 C382 1.245 . S
C377 C383 1.428 . S
C378 C381 1.260 . S
C378 C382 1.477 . S
C378 H396 0.932 . S
C379 C380 1.384 . S
C379 C381 1.479 . S
C379 H397 0.929 . S
C380 C377 1.424 . S
C380 C379 1.384 . S
C380 H398 0.928 . S
C381 C378 1.260 . S
C381 C379 1.479 . S
C382 C377 1.245 . S
C382 C378 1.477 . S
C382 H399 0.932 . S
C383 U366 2.882 . S
C383 C377 1.428 . S
C383 O386 1.301 . S
C383 O387 1.282 . S
O384 U366 2.441 . S
O384 C370 1.249 . S
O385 U366 2.420 . S
O385 C370 1.202 . S
O386 U366 2.455 . S
O386 C383 1.301 . S
O387 U366 2.449 . S
O387 C383 1.282 . S
H388 C361 0.931 . S
H389 C363 0.929 . S
H390 C364 0.930 . S
H391 C365 0.931 . S
H392 C372 0.932 . S
H393 C373 0.930 . S
H394 C374 0.929 . S
H395 C376 0.930 . S
H396 C378 0.932 . S
H397 C379 0.929 . S
H398 C380 0.928 . S
H399 C382 0.932 . S
C400 C401 1.264 . S
C400 C405 1.479 . S
C400 C410 1.465 . S
C401 C400 1.264 . S
C401 C403 1.339 . S
C401 H428 0.931 . S
C402 C403 1.395 . S
C402 C404 1.320 . S
C403 C401 1.339 . S
C403 C402 1.395 . S
C403 H429 0.929 . S
C404 C402 1.320 . S
C404 C405 1.405 . S
C404 H430 0.930 . S
C405 C400 1.479 . S
C405 C404 1.405 . S
C405 H431 0.931 . S
U406 O407 2.454 . S
U406 O408 2.458 . S
U406 C409 2.984 . S
U406 C410 2.847 . S
U406 C423 2.882 . S
U406 O424 2.441 . S
U406 O425 2.420 . S
U406 O426 2.455 . S
U406 O427 2.449 . S
O407 U406 2.454 . S
O407 C409 1.353 . S
O408 U406 2.458 . S
O408 C409 1.286 . S
C409 U406 2.984 . S
C409 O407 1.353 . S
C409 O408 1.286 . S
C409 C411 1.363 . S
C410 C400 1.465 . S
C410 U406 2.847 . S
C410 O424 1.249 . S
C410 O425 1.202 . S
C411 C409 1.363 . S
C411 C413 1.408 . S
C411 C416 1.342 . S
C412 C413 1.310 . S
C412 C415 1.461 . S
C412 H432 0.932 . S
C413 C411 1.408 . S
C413 C412 1.310 . S
C413 H433 0.930 . S
C414 C415 1.474 . S
C414 C416 1.285 . S
C414 H434 0.929 . S
C415 C412 1.461 . S
C415 C414 1.474 . S
C416 C411 1.342 . S
C416 C414 1.285 . S
C416 H435 0.930 . S
C417 C420 1.424 . S
C417 C422 1.245 . S
C417 C423 1.428 . S
C418 C421 1.260 . S
C418 C422 1.477 . S
C418 H436 0.932 . S
C419 C420 1.384 . S
C419 C421 1.479 . S
C419 H437 0.929 . S
C420 C417 1.424 . S
C420 C419 1.384 . S
C420 H438 0.928 . S
C421 C418 1.260 . S
C421 C419 1.479 . S
C422 C417 1.245 . S
C422 C418 1.477 . S
C422 H439 0.932 . S
C423 U406 2.882 . S
C423 C417 1.428 . S
C423 O426 1.301 . S
C423 O427 1.282 . S
O424 U406 2.441 . S
O424 C410 1.249 . S
O425 U406 2.420 . S
O425 C410 1.202 . S
O426 U406 2.455 . S
O426 C423 1.301 . S
O427 U406 2.449 . S
O427 C423 1.282 . S
H428 C401 0.931 . S
H429 C403 0.929 . S
H430 C404 0.930 . S
H431 C405 0.931 . S
H432 C412 0.932 . S
H433 C413 0.930 . S
H434 C414 0.929 . S
H435 C416 0.930 . S
H436 C418 0.932 . S
H437 C419 0.929 . S
H438 C420 0.928 . S
H439 C422 0.932 . S
C440 C441 1.264 . S
C440 C445 1.479 . S
C440 C450 1.465 . S
C441 C440 1.264 . S
C441 C443 1.339 . S
C441 H468 0.931 . S
C442 C443 1.395 . S
C442 C444 1.320 . S
C443 C441 1.339 . S
C443 C442 1.395 . S
C443 H469 0.929 . S
C444 C442 1.320 . S
C444 C445 1.405 . S
C444 H470 0.930 . S
C445 C440 1.479 . S
C445 C444 1.405 . S
C445 H471 0.931 . S
U446 O447 2.454 . S
U446 O448 2.458 . S
U446 C449 2.984 . S
U446 C450 2.847 . S
U446 C463 2.882 . S
U446 O464 2.441 . S
U446 O465 2.420 . S
U446 O466 2.455 . S
U446 O467 2.449 . S
O447 U446 2.454 . S
O447 C449 1.353 . S
O448 U446 2.458 . S
O448 C449 1.286 . S
C449 U446 2.984 . S
C449 O447 1.353 . S
C449 O448 1.286 . S
C449 C451 1.363 . S
C450 C440 1.465 . S
C450 U446 2.847 . S
C450 O464 1.249 . S
C450 O465 1.202 . S
C451 C449 1.363 . S
C451 C453 1.408 . S
C451 C456 1.342 . S
C452 C453 1.310 . S
C452 C455 1.461 . S
C452 H472 0.932 . S
C453 C451 1.408 . S
C453 C452 1.310 . S
C453 H473 0.930 . S
C454 C455 1.474 . S
C454 C456 1.285 . S
C454 H474 0.929 . S
C455 C452 1.461 . S
C455 C454 1.474 . S
C456 C451 1.342 . S
C456 C454 1.285 . S
C456 H475 0.930 . S
C457 C460 1.424 . S
C457 C462 1.245 . S
C457 C463 1.428 . S
C458 C461 1.260 . S
C458 C462 1.477 . S
C458 H476 0.932 . S
C459 C460 1.384 . S
C459 C461 1.479 . S
C459 H477 0.929 . S
C460 C457 1.424 . S
C460 C459 1.384 . S
C460 H478 0.928 . S
C461 C458 1.260 . S
C461 C459 1.479 . S
C462 C457 1.245 . S
C462 C458 1.477 . S
C462 H479 0.932 . S
C463 U446 2.882 . S
C463 C457 1.428 . S
C463 O466 1.301 . S
C463 O467 1.282 . S
O464 U446 2.441 . S
O464 C450 1.249 . S
O465 U446 2.420 . S
O465 C450 1.202 . S
O466 U446 2.455 . S
O466 C463 1.301 . S
O467 U446 2.449 . S
O467 C463 1.282 . S
H468 C441 0.931 . S
H469 C443 0.929 . S
H470 C444 0.930 . S
H471 C445 0.931 . S
H472 C452 0.932 . S
H473 C453 0.930 . S
H474 C454 0.929 . S
H475 C456 0.930 . S
H476 C458 0.932 . S
H477 C459 0.929 . S
H478 C460 0.928 . S
H479 C462 0.932 . S
C480 C481 1.264 . S
C480 C485 1.479 . S
C480 C490 1.465 . S
C481 C480 1.264 . S
C481 C483 1.339 . S
C481 H508 0.931 . S
C482 C483 1.395 . S
C482 C484 1.320 . S
C483 C481 1.339 . S
C483 C482 1.395 . S
C483 H509 0.929 . S
C484 C482 1.320 . S
C484 C485 1.405 . S
C484 H510 0.930 . S
C485 C480 1.479 . S
C485 C484 1.405 . S
C485 H511 0.931 . S
U486 O487 2.454 . S
U486 O488 2.458 . S
U486 C489 2.984 . S
U486 C490 2.847 . S
U486 C503 2.882 . S
U486 O504 2.441 . S
U486 O505 2.420 . S
U486 O506 2.455 . S
U486 O507 2.449 . S
O487 U486 2.454 . S
O487 C489 1.353 . S
O488 U486 2.458 . S
O488 C489 1.286 . S
C489 U486 2.984 . S
C489 O487 1.353 . S
C489 O488 1.286 . S
C489 C491 1.363 . S
C490 C480 1.465 . S
C490 U486 2.847 . S
C490 O504 1.249 . S
C490 O505 1.202 . S
C491 C489 1.363 . S
C491 C493 1.408 . S
C491 C496 1.342 . S
C492 C493 1.310 . S
C492 C495 1.461 . S
C492 H512 0.932 . S
C493 C491 1.408 . S
C493 C492 1.310 . S
C493 H513 0.930 . S
C494 C495 1.474 . S
C494 C496 1.285 . S
C494 H514 0.929 . S
C495 C492 1.461 . S
C495 C494 1.474 . S
C496 C491 1.342 . S
C496 C494 1.285 . S
C496 H515 0.930 . S
C497 C500 1.424 . S
C497 C502 1.245 . S
C497 C503 1.428 . S
C498 C501 1.260 . S
C498 C502 1.477 . S
C498 H516 0.932 . S
C499 C500 1.384 . S
C499 C501 1.479 . S
C499 H517 0.929 . S
C500 C497 1.424 . S
C500 C499 1.384 . S
C500 H518 0.928 . S
C501 C498 1.260 . S
C501 C499 1.479 . S
C502 C497 1.245 . S
C502 C498 1.477 . S
C502 H519 0.932 . S
C503 U486 2.882 . S
C503 C497 1.428 . S
C503 O506 1.301 . S
C503 O507 1.282 . S
O504 U486 2.441 . S
O504 C490 1.249 . S
O505 U486 2.420 . S
O505 C490 1.202 . S
O506 U486 2.455 . S
O506 C503 1.301 . S
O507 U486 2.449 . S
O507 C503 1.282 . S
H508 C481 0.931 . S
H509 C483 0.929 . S
H510 C484 0.930 . S
H511 C485 0.931 . S
H512 C492 0.932 . S
H513 C493 0.930 . S
H514 C494 0.929 . S
H515 C496 0.930 . S
H516 C498 0.932 . S
H517 C499 0.929 . S
H518 C500 0.928 . S
H519 C502 0.932 . S
C520 C521 1.264 . S
C520 C525 1.479 . S
C520 C530 1.465 . S
C521 C520 1.264 . S
C521 C523 1.339 . S
C521 H548 0.931 . S
C522 C523 1.395 . S
C522 C524 1.320 . S
C523 C521 1.339 . S
C523 C522 1.395 . S
C523 H549 0.929 . S
C524 C522 1.320 . S
C524 C525 1.405 . S
C524 H550 0.930 . S
C525 C520 1.479 . S
C525 C524 1.405 . S
C525 H551 0.931 . S
U526 O527 2.454 . S
U526 O528 2.458 . S
U526 C529 2.984 . S
U526 C530 2.847 . S
U526 C543 2.882 . S
U526 O544 2.441 . S
U526 O545 2.420 . S
U526 O546 2.455 . S
U526 O547 2.449 . S
O527 U526 2.454 . S
O527 C529 1.353 . S
O528 U526 2.458 . S
O528 C529 1.286 . S
C529 U526 2.984 . S
C529 O527 1.353 . S
C529 O528 1.286 . S
C529 C531 1.363 . S
C530 C520 1.465 . S
C530 U526 2.847 . S
C530 O544 1.249 . S
C530 O545 1.202 . S
C531 C529 1.363 . S
C531 C533 1.408 . S
C531 C536 1.342 . S
C532 C533 1.310 . S
C532 C535 1.461 . S
C532 H552 0.932 . S
C533 C531 1.408 . S
C533 C532 1.310 . S
C533 H553 0.930 . S
C534 C535 1.474 . S
C534 C536 1.285 . S
C534 H554 0.929 . S
C535 C532 1.461 . S
C535 C534 1.474 . S
C536 C531 1.342 . S
C536 C534 1.285 . S
C536 H555 0.930 . S
C537 C540 1.424 . S
C537 C542 1.245 . S
C537 C543 1.428 . S
C538 C541 1.260 . S
C538 C542 1.477 . S
C538 H556 0.932 . S
C539 C540 1.384 . S
C539 C541 1.479 . S
C539 H557 0.929 . S
C540 C537 1.424 . S
C540 C539 1.384 . S
C540 H558 0.928 . S
C541 C538 1.260 . S
C541 C539 1.479 . S
C542 C537 1.245 . S
C542 C538 1.477 . S
C542 H559 0.932 . S
C543 U526 2.882 . S
C543 C537 1.428 . S
C543 O546 1.301 . S
C543 O547 1.282 . S
O544 U526 2.441 . S
O544 C530 1.249 . S
O545 U526 2.420 . S
O545 C530 1.202 . S
O546 U526 2.455 . S
O546 C543 1.301 . S
O547 U526 2.449 . S
O547 C543 1.282 . S
H548 C521 0.931 . S
H549 C523 0.929 . S
H550 C524 0.930 . S
H551 C525 0.931 . S
H552 C532 0.932 . S
H553 C533 0.930 . S
H554 C534 0.929 . S
H555 C536 0.930 . S
H556 C538 0.932 . S
H557 C539 0.929 . S
H558 C540 0.928 . S
H559 C542 0.932 . S
C560 C561 1.264 . S
C560 C565 1.479 . S
C560 C570 1.465 . S
C561 C560 1.264 . S
C561 C563 1.339 . S
C561 H588 0.931 . S
C562 C563 1.395 . S
C562 C564 1.320 . S
C563 C561 1.339 . S
C563 C562 1.395 . S
C563 H589 0.929 . S
C564 C562 1.320 . S
C564 C565 1.405 . S
C564 H590 0.930 . S
C565 C560 1.479 . S
C565 C564 1.405 . S
C565 H591 0.931 . S
U566 O567 2.454 . S
U566 O568 2.458 . S
U566 C569 2.984 . S
U566 C570 2.847 . S
U566 C583 2.882 . S
U566 O584 2.441 . S
U566 O585 2.420 . S
U566 O586 2.455 . S
U566 O587 2.449 . S
O567 U566 2.454 . S
O567 C569 1.353 . S
O568 U566 2.458 . S
O568 C569 1.286 . S
C569 U566 2.984 . S
C569 O567 1.353 . S
C569 O568 1.286 . S
C569 C571 1.363 . S
C570 C560 1.465 . S
C570 U566 2.847 . S
C570 O584 1.249 . S
C570 O585 1.202 . S
C571 C569 1.363 . S
C571 C573 1.408 . S
C571 C576 1.342 . S
C572 C573 1.310 . S
C572 C575 1.461 . S
C572 H592 0.932 . S
C573 C571 1.408 . S
C573 C572 1.310 . S
C573 H593 0.930 . S
C574 C575 1.474 . S
C574 C576 1.285 . S
C574 H594 0.929 . S
C575 C572 1.461 . S
C575 C574 1.474 . S
C576 C571 1.342 . S
C576 C574 1.285 . S
C576 H595 0.930 . S
C577 C580 1.424 . S
C577 C582 1.245 . S
C577 C583 1.428 . S
C578 C581 1.260 . S
C578 C582 1.477 . S
C578 H596 0.932 . S
C579 C580 1.384 . S
C579 C581 1.479 . S
C579 H597 0.929 . S
C580 C577 1.424 . S
C580 C579 1.384 . S
C580 H598 0.928 . S
C581 C578 1.260 . S
C581 C579 1.479 . S
C582 C577 1.245 . S
C582 C578 1.477 . S
C582 H599 0.932 . S
C583 U566 2.882 . S
C583 C577 1.428 . S
C583 O586 1.301 . S
C583 O587 1.282 . S
O584 U566 2.441 . S
O584 C570 1.249 . S
O585 U566 2.420 . S
O585 C570 1.202 . S
O586 U566 2.455 . S
O586 C583 1.301 . S
O587 U566 2.449 . S
O587 C583 1.282 . S
H588 C561 0.931 . S
H589 C563 0.929 . S
H590 C564 0.930 . S
H591 C565 0.931 . S
H592 C572 0.932 . S
H593 C573 0.930 . S
H594 C574 0.929 . S
H595 C576 0.930 . S
H596 C578 0.932 . S
H597 C579 0.929 . S
H598 C580 0.928 . S
H599 C582 0.932 . S
C600 C601 1.264 . S
C600 C605 1.479 . S
C600 C610 1.465 . S
C601 C600 1.264 . S
C601 C603 1.339 . S
C601 H628 0.931 . S
C602 C603 1.395 . S
C602 C604 1.320 . S
C603 C601 1.339 . S
C603 C602 1.395 . S
C603 H629 0.929 . S
C604 C602 1.320 . S
C604 C605 1.405 . S
C604 H630 0.930 . S
C605 C600 1.479 . S
C605 C604 1.405 . S
C605 H631 0.931 . S
U606 O607 2.454 . S
U606 O608 2.458 . S
U606 C609 2.984 . S
U606 C610 2.847 . S
U606 C623 2.882 . S
U606 O624 2.441 . S
U606 O625 2.420 . S
U606 O626 2.455 . S
U606 O627 2.449 . S
O607 U606 2.454 . S
O607 C609 1.353 . S
O608 U606 2.458 . S
O608 C609 1.286 . S
C609 U606 2.984 . S
C609 O607 1.353 . S
C609 O608 1.286 . S
C609 C611 1.363 . S
C610 C600 1.465 . S
C610 U606 2.847 . S
C610 O624 1.249 . S
C610 O625 1.202 . S
C611 C609 1.363 . S
C611 C613 1.408 . S
C611 C616 1.342 . S
C612 C613 1.310 . S
C612 C615 1.461 . S
C612 H632 0.932 . S
C613 C611 1.408 . S
C613 C612 1.310 . S
C613 H633 0.930 . S
C614 C615 1.474 . S
C614 C616 1.285 . S
C614 H634 0.929 . S
C615 C612 1.461 . S
C615 C614 1.474 . S
C616 C611 1.342 . S
C616 C614 1.285 . S
C616 H635 0.930 . S
C617 C620 1.424 . S
C617 C622 1.245 . S
C617 C623 1.428 . S
C618 C621 1.260 . S
C618 C622 1.477 . S
C618 H636 0.932 . S
C619 C620 1.384 . S
C619 C621 1.479 . S
C619 H637 0.929 . S
C620 C617 1.424 . S
C620 C619 1.384 . S
C620 H638 0.928 . S
C621 C618 1.260 . S
C621 C619 1.479 . S
C622 C617 1.245 . S
C622 C618 1.477 . S
C622 H639 0.932 . S
C623 U606 2.882 . S
C623 C617 1.428 . S
C623 O626 1.301 . S
C623 O627 1.282 . S
O624 U606 2.441 . S
O624 C610 1.249 . S
O625 U606 2.420 . S
O625 C610 1.202 . S
O626 U606 2.455 . S
O626 C623 1.301 . S
O627 U606 2.449 . S
O627 C623 1.282 . S
H628 C601 0.931 . S
H629 C603 0.929 . S
H630 C604 0.930 . S
H631 C605 0.931 . S
H632 C612 0.932 . S
H633 C613 0.930 . S
H634 C614 0.929 . S
H635 C616 0.930 . S
H636 C618 0.932 . S
H637 C619 0.929 . S
H638 C620 0.928 . S
H639 C622 0.932 . S
C640 C641 1.264 . S
C640 C645 1.479 . S
C640 C650 1.465 . S
C641 C640 1.264 . S
C641 C643 1.339 . S
C641 H668 0.931 . S
C642 C643 1.395 . S
C642 C644 1.320 . S
C643 C641 1.339 . S
C643 C642 1.395 . S
C643 H669 0.929 . S
C644 C642 1.320 . S
C644 C645 1.405 . S
C644 H670 0.930 . S
C645 C640 1.479 . S
C645 C644 1.405 . S
C645 H671 0.931 . S
U646 O647 2.454 . S
U646 O648 2.458 . S
U646 C649 2.984 . S
U646 C650 2.847 . S
U646 C663 2.882 . S
U646 O664 2.441 . S
U646 O665 2.420 . S
U646 O666 2.455 . S
U646 O667 2.449 . S
O647 U646 2.454 . S
O647 C649 1.353 . S
O648 U646 2.458 . S
O648 C649 1.286 . S
C649 U646 2.984 . S
C649 O647 1.353 . S
C649 O648 1.286 . S
C649 C651 1.363 . S
C650 C640 1.465 . S
C650 U646 2.847 . S
C650 O664 1.249 . S
C650 O665 1.202 . S
C651 C649 1.363 . S
C651 C653 1.408 . S
C651 C656 1.342 . S
C652 C653 1.310 . S
C652 C655 1.461 . S
C652 H672 0.932 . S
C653 C651 1.408 . S
C653 C652 1.310 . S
C653 H673 0.930 . S
C654 C655 1.474 . S
C654 C656 1.285 . S
C654 H674 0.929 . S
C655 C652 1.461 . S
C655 C654 1.474 . S
C656 C651 1.342 . S
C656 C654 1.285 . S
C656 H675 0.930 . S
C657 C660 1.424 . S
C657 C662 1.245 . S
C657 C663 1.428 . S
C658 C661 1.260 . S
C658 C662 1.477 . S
C658 H676 0.932 . S
C659 C660 1.384 . S
C659 C661 1.479 . S
C659 H677 0.929 . S
C660 C657 1.424 . S
C660 C659 1.384 . S
C660 H678 0.928 . S
C661 C658 1.260 . S
C661 C659 1.479 . S
C662 C657 1.245 . S
C662 C658 1.477 . S
C662 H679 0.932 . S
C663 U646 2.882 . S
C663 C657 1.428 . S
C663 O666 1.301 . S
C663 O667 1.282 . S
O664 U646 2.441 . S
O664 C650 1.249 . S
O665 U646 2.420 . S
O665 C650 1.202 . S
O666 U646 2.455 . S
O666 C663 1.301 . S
O667 U646 2.449 . S
O667 C663 1.282 . S
H668 C641 0.931 . S
H669 C643 0.929 . S
H670 C644 0.930 . S
H671 C645 0.931 . S
H672 C652 0.932 . S
H673 C653 0.930 . S
H674 C654 0.929 . S
H675 C656 0.930 . S
H676 C658 0.932 . S
H677 C659 0.929 . S
H678 C660 0.928 . S
H679 C662 0.932 . S
C680 C681 1.264 . S
C680 C685 1.479 . S
C680 C690 1.465 . S
C681 C680 1.264 . S
C681 C683 1.339 . S
C681 H708 0.931 . S
C682 C683 1.395 . S
C682 C684 1.320 . S
C683 C681 1.339 . S
C683 C682 1.395 . S
C683 H709 0.929 . S
C684 C682 1.320 . S
C684 C685 1.405 . S
C684 H710 0.930 . S
C685 C680 1.479 . S
C685 C684 1.405 . S
C685 H711 0.931 . S
U686 O687 2.454 . S
U686 O688 2.458 . S
U686 C689 2.984 . S
U686 C690 2.847 . S
U686 C703 2.882 . S
U686 O704 2.441 . S
U686 O705 2.420 . S
U686 O706 2.455 . S
U686 O707 2.449 . S
O687 U686 2.454 . S
O687 C689 1.353 . S
O688 U686 2.458 . S
O688 C689 1.286 . S
C689 U686 2.984 . S
C689 O687 1.353 . S
C689 O688 1.286 . S
C689 C691 1.363 . S
C690 C680 1.465 . S
C690 U686 2.847 . S
C690 O704 1.249 . S
C690 O705 1.202 . S
C691 C689 1.363 . S
C691 C693 1.408 . S
C691 C696 1.342 . S
C692 C693 1.310 . S
C692 C695 1.461 . S
C692 H712 0.932 . S
C693 C691 1.408 . S
C693 C692 1.310 . S
C693 H713 0.930 . S
C694 C695 1.474 . S
C694 C696 1.285 . S
C694 H714 0.929 . S
C695 C692 1.461 . S
C695 C694 1.474 . S
C696 C691 1.342 . S
C696 C694 1.285 . S
C696 H715 0.930 . S
C697 C700 1.424 . S
C697 C702 1.245 . S
C697 C703 1.428 . S
C698 C701 1.260 . S
C698 C702 1.477 . S
C698 H716 0.932 . S
C699 C700 1.384 . S
C699 C701 1.479 . S
C699 H717 0.929 . S
C700 C697 1.424 . S
C700 C699 1.384 . S
C700 H718 0.928 . S
C701 C698 1.260 . S
C701 C699 1.479 . S
C702 C697 1.245 . S
C702 C698 1.477 . S
C702 H719 0.932 . S
C703 U686 2.882 . S
C703 C697 1.428 . S
C703 O706 1.301 . S
C703 O707 1.282 . S
O704 U686 2.441 . S
O704 C690 1.249 . S
O705 U686 2.420 . S
O705 C690 1.202 . S
O706 U686 2.455 . S
O706 C703 1.301 . S
O707 U686 2.449 . S
O707 C703 1.282 . S
H708 C681 0.931 . S
H709 C683 0.929 . S
H710 C684 0.930 . S
H711 C685 0.931 . S
H712 C692 0.932 . S
H713 C693 0.930 . S
H714 C694 0.929 . S
H715 C696 0.930 . S
H716 C698 0.932 . S
H717 C699 0.929 . S
H718 C700 0.928 . S
H719 C702 0.932 . S
C720 C721 1.264 . S
C720 C725 1.479 . S
C720 C730 1.465 . S
C721 C720 1.264 . S
C721 C723 1.339 . S
C721 H748 0.931 . S
C722 C723 1.395 . S
C722 C724 1.320 . S
C723 C721 1.339 . S
C723 C722 1.395 . S
C723 H749 0.929 . S
C724 C722 1.320 . S
C724 C725 1.405 . S
C724 H750 0.930 . S
C725 C720 1.479 . S
C725 C724 1.405 . S
C725 H751 0.931 . S
U726 O727 2.454 . S
U726 O728 2.458 . S
U726 C729 2.984 . S
U726 C730 2.847 . S
U726 C743 2.882 . S
U726 O744 2.441 . S
U726 O745 2.420 . S
U726 O746 2.455 . S
U726 O747 2.449 . S
O727 U726 2.454 . S
O727 C729 1.353 . S
O728 U726 2.458 . S
O728 C729 1.286 . S
C729 U726 2.984 . S
C729 O727 1.353 . S
C729 O728 1.286 . S
C729 C731 1.363 . S
C730 C720 1.465 . S
C730 U726 2.847 . S
C730 O744 1.249 . S
C730 O745 1.202 . S
C731 C729 1.363 . S
C731 C733 1.408 . S
C731 C736 1.342 . S
C732 C733 1.310 . S
C732 C735 1.461 . S
C732 H752 0.932 . S
C733 C731 1.408 . S
C733 C732 1.310 . S
C733 H753 0.930 . S
C734 C735 1.474 . S
C734 C736 1.285 . S
C734 H754 0.929 . S
C735 C732 1.461 . S
C735 C734 1.474 . S
C736 C731 1.342 . S
C736 C734 1.285 . S
C736 H755 0.930 . S
C737 C740 1.424 . S
C737 C742 1.245 . S
C737 C743 1.428 . S
C738 C741 1.260 . S
C738 C742 1.477 . S
C738 H756 0.932 . S
C739 C740 1.384 . S
C739 C741 1.479 . S
C739 H757 0.929 . S
C740 C737 1.424 . S
C740 C739 1.384 . S
C740 H758 0.928 . S
C741 C738 1.260 . S
C741 C739 1.479 . S
C742 C737 1.245 . S
C742 C738 1.477 . S
C742 H759 0.932 . S
C743 U726 2.882 . S
C743 C737 1.428 . S
C743 O746 1.301 . S
C743 O747 1.282 . S
O744 U726 2.441 . S
O744 C730 1.249 . S
O745 U726 2.420 . S
O745 C730 1.202 . S
O746 U726 2.455 . S
O746 C743 1.301 . S
O747 U726 2.449 . S
O747 C743 1.282 . S
H748 C721 0.931 . S
H749 C723 0.929 . S
H750 C724 0.930 . S
H751 C725 0.931 . S
H752 C732 0.932 . S
H753 C733 0.930 . S
H754 C734 0.929 . S
H755 C736 0.930 . S
H756 C738 0.932 . S
H757 C739 0.929 . S
H758 C740 0.928 . S
H759 C742 0.932 . S
C760 C761 1.264 . S
C760 C765 1.479 . S
C760 C770 1.465 . S
C761 C760 1.264 . S
C761 C763 1.339 . S
C761 H788 0.931 . S
C762 C763 1.395 . S
C762 C764 1.320 . S
C763 C761 1.339 . S
C763 C762 1.395 . S
C763 H789 0.929 . S
C764 C762 1.320 . S
C764 C765 1.405 . S
C764 H790 0.930 . S
C765 C760 1.479 . S
C765 C764 1.405 . S
C765 H791 0.931 . S
U766 O767 2.454 . S
U766 O768 2.458 . S
U766 C769 2.984 . S
U766 C770 2.847 . S
U766 C783 2.882 . S
U766 O784 2.441 . S
U766 O785 2.420 . S
U766 O786 2.455 . S
U766 O787 2.449 . S
O767 U766 2.454 . S
O767 C769 1.353 . S
O768 U766 2.458 . S
O768 C769 1.286 . S
C769 U766 2.984 . S
C769 O767 1.353 . S
C769 O768 1.286 . S
C769 C771 1.363 . S
C770 C760 1.465 . S
C770 U766 2.847 . S
C770 O784 1.249 . S
C770 O785 1.202 . S
C771 C769 1.363 . S
C771 C773 1.408 . S
C771 C776 1.342 . S
C772 C773 1.310 . S
C772 C775 1.461 . S
C772 H792 0.932 . S
C773 C771 1.408 . S
C773 C772 1.310 . S
C773 H793 0.930 . S
C774 C775 1.474 . S
C774 C776 1.285 . S
C774 H794 0.929 . S
C775 C772 1.461 . S
C775 C774 1.474 . S
C776 C771 1.342 . S
C776 C774 1.285 . S
C776 H795 0.930 . S
C777 C780 1.424 . S
C777 C782 1.245 . S
C777 C783 1.428 . S
C778 C781 1.260 . S
C778 C782 1.477 . S
C778 H796 0.932 . S
C779 C780 1.384 . S
C779 C781 1.479 . S
C779 H797 0.929 . S
C780 C777 1.424 . S
C780 C779 1.384 . S
C780 H798 0.928 . S
C781 C778 1.260 . S
C781 C779 1.479 . S
C782 C777 1.245 . S
C782 C778 1.477 . S
C782 H799 0.932 . S
C783 U766 2.882 . S
C783 C777 1.428 . S
C783 O786 1.301 . S
C783 O787 1.282 . S
O784 U766 2.441 . S
O784 C770 1.249 . S
O785 U766 2.420 . S
O785 C770 1.202 . S
O786 U766 2.455 . S
O786 C783 1.301 . S
O787 U766 2.449 . S
O787 C783 1.282 . S
H788 C761 0.931 . S
H789 C763 0.929 . S
H790 C764 0.930 . S
H791 C765 0.931 . S
H792 C772 0.932 . S
H793 C773 0.930 . S
H794 C774 0.929 . S
H795 C776 0.930 . S
H796 C778 0.932 . S
H797 C779 0.929 . S
H798 C780 0.928 . S
H799 C782 0.932 . S
C800 C801 1.264 . S
C800 C805 1.479 . S
C800 C810 1.465 . S
C801 C800 1.264 . S
C801 C803 1.339 . S
C801 H828 0.931 . S
C802 C803 1.395 . S
C802 C804 1.320 . S
C803 C801 1.339 . S
C803 C802 1.395 . S
C803 H829 0.929 . S
C804 C802 1.320 . S
C804 C805 1.405 . S
C804 H830 0.930 . S
C805 C800 1.479 . S
C805 C804 1.405 . S
C805 H831 0.931 . S
U806 O807 2.454 . S
U806 O808 2.458 . S
U806 C809 2.984 . S
U806 C810 2.847 . S
U806 C823 2.882 . S
U806 O824 2.441 . S
U806 O825 2.420 . S
U806 O826 2.455 . S
U806 O827 2.449 . S
O807 U806 2.454 . S
O807 C809 1.353 . S
O808 U806 2.458 . S
O808 C809 1.286 . S
C809 U806 2.984 . S
C809 O807 1.353 . S
C809 O808 1.286 . S
C809 C811 1.363 . S
C810 C800 1.465 . S
C810 U806 2.847 . S
C810 O824 1.249 . S
C810 O825 1.202 . S
C811 C809 1.363 . S
C811 C813 1.408 . S
C811 C816 1.342 . S
C812 C813 1.310 . S
C812 C815 1.461 . S
C812 H832 0.932 . S
C813 C811 1.408 . S
C813 C812 1.310 . S
C813 H833 0.930 . S
C814 C815 1.474 . S
C814 C816 1.285 . S
C814 H834 0.929 . S
C815 C812 1.461 . S
C815 C814 1.474 . S
C816 C811 1.342 . S
C816 C814 1.285 . S
C816 H835 0.930 . S
C817 C820 1.424 . S
C817 C822 1.245 . S
C817 C823 1.428 . S
C818 C821 1.260 . S
C818 C822 1.477 . S
C818 H836 0.932 . S
C819 C820 1.384 . S
C819 C821 1.479 . S
C819 H837 0.929 . S
C820 C817 1.424 . S
C820 C819 1.384 . S
C820 H838 0.928 . S
C821 C818 1.260 . S
C821 C819 1.479 . S
C822 C817 1.245 . S
C822 C818 1.477 . S
C822 H839 0.932 . S
C823 U806 2.882 . S
C823 C817 1.428 . S
C823 O826 1.301 . S
C823 O827 1.282 . S
O824 U806 2.441 . S
O824 C810 1.249 . S
O825 U806 2.420 . S
O825 C810 1.202 . S
O826 U806 2.455 . S
O826 C823 1.301 . S
O827 U806 2.449 . S
O827 C823 1.282 . S
H828 C801 0.931 . S
H829 C803 0.929 . S
H830 C804 0.930 . S
H831 C805 0.931 . S
H832 C812 0.932 . S
H833 C813 0.930 . S
H834 C814 0.929 . S
H835 C816 0.930 . S
H836 C818 0.932 . S
H837 C819 0.929 . S
H838 C820 0.928 . S
H839 C822 0.932 . S
C840 C841 1.264 . S
C840 C845 1.479 . S
C840 C850 1.465 . S
C841 C840 1.264 . S
C841 C843 1.339 . S
C841 H868 0.931 . S
C842 C843 1.395 . S
C842 C844 1.320 . S
C843 C841 1.339 . S
C843 C842 1.395 . S
C843 H869 0.929 . S
C844 C842 1.320 . S
C844 C845 1.405 . S
C844 H870 0.930 . S
C845 C840 1.479 . S
C845 C844 1.405 . S
C845 H871 0.931 . S
U846 O847 2.454 . S
U846 O848 2.458 . S
U846 C849 2.984 . S
U846 C850 2.847 . S
U846 C863 2.882 . S
U846 O864 2.441 . S
U846 O865 2.420 . S
U846 O866 2.455 . S
U846 O867 2.449 . S
O847 U846 2.454 . S
O847 C849 1.353 . S
O848 U846 2.458 . S
O848 C849 1.286 . S
C849 U846 2.984 . S
C849 O847 1.353 . S
C849 O848 1.286 . S
C849 C851 1.363 . S
C850 C840 1.465 . S
C850 U846 2.847 . S
C850 O864 1.249 . S
C850 O865 1.202 . S
C851 C849 1.363 . S
C851 C853 1.408 . S
C851 C856 1.342 . S
C852 C853 1.310 . S
C852 C855 1.461 . S
C852 H872 0.932 . S
C853 C851 1.408 . S
C853 C852 1.310 . S
C853 H873 0.930 . S
C854 C855 1.474 . S
C854 C856 1.285 . S
C854 H874 0.929 . S
C855 C852 1.461 . S
C855 C854 1.474 . S
C856 C851 1.342 . S
C856 C854 1.285 . S
C856 H875 0.930 . S
C857 C860 1.424 . S
C857 C862 1.245 . S
C857 C863 1.428 . S
C858 C861 1.260 . S
C858 C862 1.477 . S
C858 H876 0.932 . S
C859 C860 1.384 . S
C859 C861 1.479 . S
C859 H877 0.929 . S
C860 C857 1.424 . S
C860 C859 1.384 . S
C860 H878 0.928 . S
C861 C858 1.260 . S
C861 C859 1.479 . S
C862 C857 1.245 . S
C862 C858 1.477 . S
C862 H879 0.932 . S
C863 U846 2.882 . S
C863 C857 1.428 . S
C863 O866 1.301 . S
C863 O867 1.282 . S
O864 U846 2.441 . S
O864 C850 1.249 . S
O865 U846 2.420 . S
O865 C850 1.202 . S
O866 U846 2.455 . S
O866 C863 1.301 . S
O867 U846 2.449 . S
O867 C863 1.282 . S
H868 C841 0.931 . S
H869 C843 0.929 . S
H870 C844 0.930 . S
H871 C845 0.931 . S
H872 C852 0.932 . S
H873 C853 0.930 . S
H874 C854 0.929 . S
H875 C856 0.930 . S
H876 C858 0.932 . S
H877 C859 0.929 . S
H878 C860 0.928 . S
H879 C862 0.932 . S
C880 C881 1.264 . S
C880 C885 1.479 . S
C880 C890 1.465 . S
C881 C880 1.264 . S
C881 C883 1.339 . S
C881 H908 0.931 . S
C882 C883 1.395 . S
C882 C884 1.320 . S
C883 C881 1.339 . S
C883 C882 1.395 . S
C883 H909 0.929 . S
C884 C882 1.320 . S
C884 C885 1.405 . S
C884 H910 0.930 . S
C885 C880 1.479 . S
C885 C884 1.405 . S
C885 H911 0.931 . S
U886 O887 2.454 . S
U886 O888 2.458 . S
U886 C889 2.984 . S
U886 C890 2.847 . S
U886 C903 2.882 . S
U886 O904 2.441 . S
U886 O905 2.420 . S
U886 O906 2.455 . S
U886 O907 2.449 . S
O887 U886 2.454 . S
O887 C889 1.353 . S
O888 U886 2.458 . S
O888 C889 1.286 . S
C889 U886 2.984 . S
C889 O887 1.353 . S
C889 O888 1.286 . S
C889 C891 1.363 . S
C890 C880 1.465 . S
C890 U886 2.847 . S
C890 O904 1.249 . S
C890 O905 1.202 . S
C891 C889 1.363 . S
C891 C893 1.408 . S
C891 C896 1.342 . S
C892 C893 1.310 . S
C892 C895 1.461 . S
C892 H912 0.932 . S
C893 C891 1.408 . S
C893 C892 1.310 . S
C893 H913 0.930 . S
C894 C895 1.474 . S
C894 C896 1.285 . S
C894 H914 0.929 . S
C895 C892 1.461 . S
C895 C894 1.474 . S
C896 C891 1.342 . S
C896 C894 1.285 . S
C896 H915 0.930 . S
C897 C900 1.424 . S
C897 C902 1.245 . S
C897 C903 1.428 . S
C898 C901 1.260 . S
C898 C902 1.477 . S
C898 H916 0.932 . S
C899 C900 1.384 . S
C899 C901 1.479 . S
C899 H917 0.929 . S
C900 C897 1.424 . S
C900 C899 1.384 . S
C900 H918 0.928 . S
C901 C898 1.260 . S
C901 C899 1.479 . S
C902 C897 1.245 . S
C902 C898 1.477 . S
C902 H919 0.932 . S
C903 U886 2.882 . S
C903 C897 1.428 . S
C903 O906 1.301 . S
C903 O907 1.282 . S
O904 U886 2.441 . S
O904 C890 1.249 . S
O905 U886 2.420 . S
O905 C890 1.202 . S
O906 U886 2.455 . S
O906 C903 1.301 . S
O907 U886 2.449 . S
O907 C903 1.282 . S
H908 C881 0.931 . S
H909 C883 0.929 . S
H910 C884 0.930 . S
H911 C885 0.931 . S
H912 C892 0.932 . S
H913 C893 0.930 . S
H914 C894 0.929 . S
H915 C896 0.930 . S
H916 C898 0.932 . S
H917 C899 0.929 . S
H918 C900 0.928 . S
H919 C902 0.932 . S
C920 C921 1.264 . S
C920 C925 1.479 . S
C920 C930 1.465 . S
C921 C920 1.264 . S
C921 C923 1.339 . S
C921 H948 0.931 . S
C922 C923 1.395 . S
C922 C924 1.320 . S
C923 C921 1.339 . S
C923 C922 1.395 . S
C923 H949 0.929 . S
C924 C922 1.320 . S
C924 C925 1.405 . S
C924 H950 0.930 . S
C925 C920 1.479 . S
C925 C924 1.405 . S
C925 H951 0.931 . S
U926 O927 2.454 . S
U926 O928 2.458 . S
U926 C929 2.984 . S
U926 C930 2.847 . S
U926 C943 2.882 . S
U926 O944 2.441 . S
U926 O945 2.420 . S
U926 O946 2.455 . S
U926 O947 2.449 . S
O927 U926 2.454 . S
O927 C929 1.353 . S
O928 U926 2.458 . S
O928 C929 1.286 . S
C929 U926 2.984 . S
C929 O927 1.353 . S
C929 O928 1.286 . S
C929 C931 1.363 . S
C930 C920 1.465 . S
C930 U926 2.847 . S
C930 O944 1.249 . S
C930 O945 1.202 . S
C931 C929 1.363 . S
C931 C933 1.408 . S
C931 C936 1.342 . S
C932 C933 1.310 . S
C932 C935 1.461 . S
C932 H952 0.932 . S
C933 C931 1.408 . S
C933 C932 1.310 . S
C933 H953 0.930 . S
C934 C935 1.474 . S
C934 C936 1.285 . S
C934 H954 0.929 . S
C935 C932 1.461 . S
C935 C934 1.474 . S
C936 C931 1.342 . S
C936 C934 1.285 . S
C936 H955 0.930 . S
C937 C940 1.424 . S
C937 C942 1.245 . S
C937 C943 1.428 . S
C938 C941 1.260 . S
C938 C942 1.477 . S
C938 H956 0.932 . S
C939 C940 1.384 . S
C939 C941 1.479 . S
C939 H957 0.929 . S
C940 C937 1.424 . S
C940 C939 1.384 . S
C940 H958 0.928 . S
C941 C938 1.260 . S
C941 C939 1.479 . S
C942 C937 1.245 . S
C942 C938 1.477 . S
C942 H959 0.932 . S
C943 U926 2.882 . S
C943 C937 1.428 . S
C943 O946 1.301 . S
C943 O947 1.282 . S
O944 U926 2.441 . S
O944 C930 1.249 . S
O945 U926 2.420 . S
O945 C930 1.202 . S
O946 U926 2.455 . S
O946 C943 1.301 . S
O947 U926 2.449 . S
O947 C943 1.282 . S
H948 C921 0.931 . S
H949 C923 0.929 . S
H950 C924 0.930 . S
H951 C925 0.931 . S
H952 C932 0.932 . S
H953 C933 0.930 . S
H954 C934 0.929 . S
H955 C936 0.930 . S
H956 C938 0.932 . S
H957 C939 0.929 . S
H958 C940 0.928 . S
H959 C942 0.932 . S
C960 C961 1.264 . S
C960 C965 1.479 . S
C960 C970 1.465 . S
C961 C960 1.264 . S
C961 C963 1.339 . S
C961 H988 0.931 . S
C962 C963 1.395 . S
C962 C964 1.320 . S
C963 C961 1.339 . S
C963 C962 1.395 . S
C963 H989 0.929 . S
C964 C962 1.320 . S
C964 C965 1.405 . S
C964 H990 0.930 . S
C965 C960 1.479 . S
C965 C964 1.405 . S
C965 H991 0.931 . S
U966 O967 2.454 . S
U966 O968 2.458 . S
U966 C969 2.984 . S
U966 C970 2.847 . S
U966 C983 2.882 . S
U966 O984 2.441 . S
U966 O985 2.420 . S
U966 O986 2.455 . S
U966 O987 2.449 . S
O967 U966 2.454 . S
O967 C969 1.353 . S
O968 U966 2.458 . S
O968 C969 1.286 . S
C969 U966 2.984 . S
C969 O967 1.353 . S
C969 O968 1.286 . S
C969 C971 1.363 . S
C970 C960 1.465 . S
C970 U966 2.847 . S
C970 O984 1.249 . S
C970 O985 1.202 . S
C971 C969 1.363 . S
C971 C973 1.408 . S
C971 C976 1.342 . S
C972 C973 1.310 . S
C972 C975 1.461 . S
C972 H992 0.932 . S
C973 C971 1.408 . S
C973 C972 1.310 . S
C973 H993 0.930 . S
C974 C975 1.474 . S
C974 C976 1.285 . S
C974 H994 0.929 . S
C975 C972 1.461 . S
C975 C974 1.474 . S
C976 C971 1.342 . S
C976 C974 1.285 . S
C976 H995 0.930 . S
C977 C980 1.424 . S
C977 C982 1.245 . S
C977 C983 1.428 . S
C978 C981 1.260 . S
C978 C982 1.477 . S
C978 H996 0.932 . S
C979 C980 1.384 . S
C979 C981 1.479 . S
C979 H997 0.929 . S
C980 C977 1.424 . S
C980 C979 1.384 . S
C980 H998 0.928 . S
C981 C978 1.260 . S
C981 C979 1.479 . S
C982 C977 1.245 . S
C982 C978 1.477 . S
C982 H999 0.932 . S
C983 U966 2.882 . S
C983 C977 1.428 . S
C983 O986 1.301 . S
C983 O987 1.282 . S
O984 U966 2.441 . S
O984 C970 1.249 . S
O985 U966 2.420 . S
O985 C970 1.202 . S
O986 U966 2.455 . S
O986 C983 1.301 . S
O987 U966 2.449 . S
O987 C983 1.282 . S
H988 C961 0.931 . S
H989 C963 0.929 . S
H990 C964 0.930 . S
H991 C965 0.931 . S
H992 C972 0.932 . S
H993 C973 0.930 . S
H994 C974 0.929 . S
H995 C976 0.930 . S
H996 C978 0.932 . S
H997 C979 0.929 . S
H998 C980 0.928 . S
H999 C982 0.932 . S
C1000 C1001 1.264 . S
C1000 C1005 1.479 . S
C1000 C1010 1.465 . S
C1001 C1000 1.264 . S
C1001 C1003 1.339 . S
C1001 H1028 0.931 . S
C1002 C1003 1.395 . S
C1002 C1004 1.320 . S
C1003 C1001 1.339 . S
C1003 C1002 1.395 . S
C1003 H1029 0.929 . S
C1004 C1002 1.320 . S
C1004 C1005 1.405 . S
C1004 H1030 0.930 . S
C1005 C1000 1.479 . S
C1005 C1004 1.405 . S
C1005 H1031 0.931 . S
U1006 O1007 2.454 . S
U1006 O1008 2.458 . S
U1006 C1009 2.984 . S
U1006 C1010 2.847 . S
U1006 C1023 2.882 . S
U1006 O1024 2.441 . S
U1006 O1025 2.420 . S
U1006 O1026 2.455 . S
U1006 O1027 2.449 . S
O1007 U1006 2.454 . S
O1007 C1009 1.353 . S
O1008 U1006 2.458 . S
O1008 C1009 1.286 . S
C1009 U1006 2.984 . S
C1009 O1007 1.353 . S
C1009 O1008 1.286 . S
C1009 C1011 1.363 . S
C1010 C1000 1.465 . S
C1010 U1006 2.847 . S
C1010 O1024 1.249 . S
C1010 O1025 1.202 . S
C1011 C1009 1.363 . S
C1011 C1013 1.408 . S
C1011 C1016 1.342 . S
C1012 C1013 1.310 . S
C1012 C1015 1.461 . S
C1012 H1032 0.932 . S
C1013 C1011 1.408 . S
C1013 C1012 1.310 . S
C1013 H1033 0.930 . S
C1014 C1015 1.474 . S
C1014 C1016 1.285 . S
C1014 H1034 0.929 . S
C1015 C1012 1.461 . S
C1015 C1014 1.474 . S
C1016 C1011 1.342 . S
C1016 C1014 1.285 . S
C1016 H1035 0.930 . S
C1017 C1020 1.424 . S
C1017 C1022 1.245 . S
C1017 C1023 1.428 . S
C1018 C1021 1.260 . S
C1018 C1022 1.477 . S
C1018 H1036 0.932 . S
C1019 C1020 1.384 . S
C1019 C1021 1.479 . S
C1019 H1037 0.929 . S
C1020 C1017 1.424 . S
C1020 C1019 1.384 . S
C1020 H1038 0.928 . S
C1021 C1018 1.260 . S
C1021 C1019 1.479 . S
C1022 C1017 1.245 . S
C1022 C1018 1.477 . S
C1022 H1039 0.932 . S
C1023 U1006 2.882 . S
C1023 C1017 1.428 . S
C1023 O1026 1.301 . S
C1023 O1027 1.282 . S
O1024 U1006 2.441 . S
O1024 C1010 1.249 . S
O1025 U1006 2.420 . S
O1025 C1010 1.202 . S
O1026 U1006 2.455 . S
O1026 C1023 1.301 . S
O1027 U1006 2.449 . S
O1027 C1023 1.282 . S
H1028 C1001 0.931 . S
H1029 C1003 0.929 . S
H1030 C1004 0.930 . S
H1031 C1005 0.931 . S
H1032 C1012 0.932 . S
H1033 C1013 0.930 . S
H1034 C1014 0.929 . S
H1035 C1016 0.930 . S
H1036 C1018 0.932 . S
H1037 C1019 0.929 . S
H1038 C1020 0.928 . S
H1039 C1022 0.932 . S
C1040 C1041 1.264 . S
C1040 C1045 1.479 . S
C1040 C1050 1.465 . S
C1041 C1040 1.264 . S
C1041 C1043 1.339 . S
C1041 H1068 0.931 . S
C1042 C1043 1.395 . S
C1042 C1044 1.320 . S
C1043 C1041 1.339 . S
C1043 C1042 1.395 . S
C1043 H1069 0.929 . S
C1044 C1042 1.320 . S
C1044 C1045 1.405 . S
C1044 H1070 0.930 . S
C1045 C1040 1.479 . S
C1045 C1044 1.405 . S
C1045 H1071 0.931 . S
U1046 O1047 2.454 . S
U1046 O1048 2.458 . S
U1046 C1049 2.984 . S
U1046 C1050 2.847 . S
U1046 C1063 2.882 . S
U1046 O1064 2.441 . S
U1046 O1065 2.420 . S
U1046 O1066 2.455 . S
U1046 O1067 2.449 . S
O1047 U1046 2.454 . S
O1047 C1049 1.353 . S
O1048 U1046 2.458 . S
O1048 C1049 1.286 . S
C1049 U1046 2.984 . S
C1049 O1047 1.353 . S
C1049 O1048 1.286 . S
C1049 C1051 1.363 . S
C1050 C1040 1.465 . S
C1050 U1046 2.847 . S
C1050 O1064 1.249 . S
C1050 O1065 1.202 . S
C1051 C1049 1.363 . S
C1051 C1053 1.408 . S
C1051 C1056 1.342 . S
C1052 C1053 1.310 . S
C1052 C1055 1.461 . S
C1052 H1072 0.932 . S
C1053 C1051 1.408 . S
C1053 C1052 1.310 . S
C1053 H1073 0.930 . S
C1054 C1055 1.474 . S
C1054 C1056 1.285 . S
C1054 H1074 0.929 . S
C1055 C1052 1.461 . S
C1055 C1054 1.474 . S
C1056 C1051 1.342 . S
C1056 C1054 1.285 . S
C1056 H1075 0.930 . S
C1057 C1060 1.424 . S
C1057 C1062 1.245 . S
C1057 C1063 1.428 . S
C1058 C1061 1.260 . S
C1058 C1062 1.477 . S
C1058 H1076 0.932 . S
C1059 C1060 1.384 . S
C1059 C1061 1.479 . S
C1059 H1077 0.929 . S
C1060 C1057 1.424 . S
C1060 C1059 1.384 . S
C1060 H1078 0.928 . S
C1061 C1058 1.260 . S
C1061 C1059 1.479 . S
C1062 C1057 1.245 . S
C1062 C1058 1.477 . S
C1062 H1079 0.932 . S
C1063 U1046 2.882 . S
C1063 C1057 1.428 . S
C1063 O1066 1.301 . S
C1063 O1067 1.282 . S
O1064 U1046 2.441 . S
O1064 C1050 1.249 . S
O1065 U1046 2.420 . S
O1065 C1050 1.202 . S
O1066 U1046 2.455 . S
O1066 C1063 1.301 . S
O1067 U1046 2.449 . S
O1067 C1063 1.282 . S
H1068 C1041 0.931 . S
H1069 C1043 0.929 . S
H1070 C1044 0.930 . S
H1071 C1045 0.931 . S
H1072 C1052 0.932 . S
H1073 C1053 0.930 . S
H1074 C1054 0.929 . S
H1075 C1056 0.930 . S
H1076 C1058 0.932 . S
H1077 C1059 0.929 . S
H1078 C1060 0.928 . S
H1079 C1062 0.932 . S
C1080 C1081 1.264 . S
C1080 C1085 1.479 . S
C1080 C1090 1.465 . S
C1081 C1080 1.264 . S
C1081 C1083 1.339 . S
C1081 H1108 0.931 . S
C1082 C1083 1.395 . S
C1082 C1084 1.320 . S
C1083 C1081 1.339 . S
C1083 C1082 1.395 . S
C1083 H1109 0.929 . S
C1084 C1082 1.320 . S
C1084 C1085 1.405 . S
C1084 H1110 0.930 . S
C1085 C1080 1.479 . S
C1085 C1084 1.405 . S
C1085 H1111 0.931 . S
U1086 O1087 2.454 . S
U1086 O1088 2.458 . S
U1086 C1089 2.984 . S
U1086 C1090 2.847 . S
U1086 C1103 2.882 . S
U1086 O1104 2.441 . S
U1086 O1105 2.420 . S
U1086 O1106 2.455 . S
U1086 O1107 2.449 . S
O1087 U1086 2.454 . S
O1087 C1089 1.353 . S
O1088 U1086 2.458 . S
O1088 C1089 1.286 . S
C1089 U1086 2.984 . S
C1089 O1087 1.353 . S
C1089 O1088 1.286 . S
C1089 C1091 1.363 . S
C1090 C1080 1.465 . S
C1090 U1086 2.847 . S
C1090 O1104 1.249 . S
C1090 O1105 1.202 . S
C1091 C1089 1.363 . S
C1091 C1093 1.408 . S
C1091 C1096 1.342 . S
C1092 C1093 1.310 . S
C1092 C1095 1.461 . S
C1092 H1112 0.932 . S
C1093 C1091 1.408 . S
C1093 C1092 1.310 . S
C1093 H1113 0.930 . S
C1094 C1095 1.474 . S
C1094 C1096 1.285 . S
C1094 H1114 0.929 . S
C1095 C1092 1.461 . S
C1095 C1094 1.474 . S
C1096 C1091 1.342 . S
C1096 C1094 1.285 . S
C1096 H1115 0.930 . S
C1097 C1100 1.424 . S
C1097 C1102 1.245 . S
C1097 C1103 1.428 . S
C1098 C1101 1.260 . S
C1098 C1102 1.477 . S
C1098 H1116 0.932 . S
C1099 C1100 1.384 . S
C1099 C1101 1.479 . S
C1099 H1117 0.929 . S
C1100 C1097 1.424 . S
C1100 C1099 1.384 . S
C1100 H1118 0.928 . S
C1101 C1098 1.260 . S
C1101 C1099 1.479 . S
C1102 C1097 1.245 . S
C1102 C1098 1.477 . S
C1102 H1119 0.932 . S
C1103 U1086 2.882 . S
C1103 C1097 1.428 . S
C1103 O1106 1.301 . S
C1103 O1107 1.282 . S
O1104 U1086 2.441 . S
O1104 C1090 1.249 . S
O1105 U1086 2.420 . S
O1105 C1090 1.202 . S
O1106 U1086 2.455 . S
O1106 C1103 1.301 . S
O1107 U1086 2.449 . S
O1107 C1103 1.282 . S
H1108 C1081 0.931 . S
H1109 C1083 0.929 . S
H1110 C1084 0.930 . S
H1111 C1085 0.931 . S
H1112 C1092 0.932 . S
H1113 C1093 0.930 . S
H1114 C1094 0.929 . S
H1115 C1096 0.930 . S
H1116 C1098 0.932 . S
H1117 C1099 0.929 . S
H1118 C1100 0.928 . S
H1119 C1102 0.932 . S
C1120 C1121 1.264 . S
C1120 C1125 1.479 . S
C1120 C1130 1.465 . S
C1121 C1120 1.264 . S
C1121 C1123 1.339 . S
C1121 H1148 0.931 . S
C1122 C1123 1.395 . S
C1122 C1124 1.320 . S
C1123 C1121 1.339 . S
C1123 C1122 1.395 . S
C1123 H1149 0.929 . S
C1124 C1122 1.320 . S
C1124 C1125 1.405 . S
C1124 H1150 0.930 . S
C1125 C1120 1.479 . S
C1125 C1124 1.405 . S
C1125 H1151 0.931 . S
U1126 O1127 2.454 . S
U1126 O1128 2.458 . S
U1126 C1129 2.984 . S
U1126 C1130 2.847 . S
U1126 C1143 2.882 . S
U1126 O1144 2.441 . S
U1126 O1145 2.420 . S
U1126 O1146 2.455 . S
U1126 O1147 2.449 . S
O1127 U1126 2.454 . S
O1127 C1129 1.353 . S
O1128 U1126 2.458 . S
O1128 C1129 1.286 . S
C1129 U1126 2.984 . S
C1129 O1127 1.353 . S
C1129 O1128 1.286 . S
C1129 C1131 1.363 . S
C1130 C1120 1.465 . S
C1130 U1126 2.847 . S
C1130 O1144 1.249 . S
C1130 O1145 1.202 . S
C1131 C1129 1.363 . S
C1131 C1133 1.408 . S
C1131 C1136 1.342 . S
C1132 C1133 1.310 . S
C1132 C1135 1.461 . S
C1132 H1152 0.932 . S
C1133 C1131 1.408 . S
C1133 C1132 1.310 . S
C1133 H1153 0.930 . S
C1134 C1135 1.474 . S
C1134 C1136 1.285 . S
C1134 H1154 0.929 . S
C1135 C1132 1.461 . S
C1135 C1134 1.474 . S
C1136 C1131 1.342 . S
C1136 C1134 1.285 . S
C1136 H1155 0.930 . S
C1137 C1140 1.424 . S
C1137 C1142 1.245 . S
C1137 C1143 1.428 . S
C1138 C1141 1.260 . S
C1138 C1142 1.477 . S
C1138 H1156 0.932 . S
C1139 C1140 1.384 . S
C1139 C1141 1.479 . S
C1139 H1157 0.929 . S
C1140 C1137 1.424 . S
C1140 C1139 1.384 . S
C1140 H1158 0.928 . S
C1141 C1138 1.260 . S
C1141 C1139 1.479 . S
C1142 C1137 1.245 . S
C1142 C1138 1.477 . S
C1142 H1159 0.932 . S
C1143 U1126 2.882 . S
C1143 C1137 1.428 . S
C1143 O1146 1.301 . S
C1143 O1147 1.282 . S
O1144 U1126 2.441 . S
O1144 C1130 1.249 . S
O1145 U1126 2.420 . S
O1145 C1130 1.202 . S
O1146 U1126 2.455 . S
O1146 C1143 1.301 . S
O1147 U1126 2.449 . S
O1147 C1143 1.282 . S
H1148 C1121 0.931 . S
H1149 C1123 0.929 . S
H1150 C1124 0.930 . S
H1151 C1125 0.931 . S
H1152 C1132 0.932 . S
H1153 C1133 0.930 . S
H1154 C1134 0.929 . S
H1155 C1136 0.930 . S
H1156 C1138 0.932 . S
H1157 C1139 0.929 . S
H1158 C1140 0.928 . S
H1159 C1142 0.932 . S
C1160 C1161 1.264 . S
C1160 C1165 1.479 . S
C1160 C1170 1.465 . S
C1161 C1160 1.264 . S
C1161 C1163 1.339 . S
C1161 H1188 0.931 . S
C1162 C1163 1.395 . S
C1162 C1164 1.320 . S
C1163 C1161 1.339 . S
C1163 C1162 1.395 . S
C1163 H1189 0.929 . S
C1164 C1162 1.320 . S
C1164 C1165 1.405 . S
C1164 H1190 0.930 . S
C1165 C1160 1.479 . S
C1165 C1164 1.405 . S
C1165 H1191 0.931 . S
U1166 O1167 2.454 . S
U1166 O1168 2.458 . S
U1166 C1169 2.984 . S
U1166 C1170 2.847 . S
U1166 C1183 2.882 . S
U1166 O1184 2.441 . S
U1166 O1185 2.420 . S
U1166 O1186 2.455 . S
U1166 O1187 2.449 . S
O1167 U1166 2.454 . S
O1167 C1169 1.353 . S
O1168 U1166 2.458 . S
O1168 C1169 1.286 . S
C1169 U1166 2.984 . S
C1169 O1167 1.353 . S
C1169 O1168 1.286 . S
C1169 C1171 1.363 . S
C1170 C1160 1.465 . S
C1170 U1166 2.847 . S
C1170 O1184 1.249 . S
C1170 O1185 1.202 . S
C1171 C1169 1.363 . S
C1171 C1173 1.408 . S
C1171 C1176 1.342 . S
C1172 C1173 1.310 . S
C1172 C1175 1.461 . S
C1172 H1192 0.932 . S
C1173 C1171 1.408 . S
C1173 C1172 1.310 . S
C1173 H1193 0.930 . S
C1174 C1175 1.474 . S
C1174 C1176 1.285 . S
C1174 H1194 0.929 . S
C1175 C1172 1.461 . S
C1175 C1174 1.474 . S
C1176 C1171 1.342 . S
C1176 C1174 1.285 . S
C1176 H1195 0.930 . S
C1177 C1180 1.424 . S
C1177 C1182 1.245 . S
C1177 C1183 1.428 . S
C1178 C1181 1.260 . S
C1178 C1182 1.477 . S
C1178 H1196 0.932 . S
C1179 C1180 1.384 . S
C1179 C1181 1.479 . S
C1179 H1197 0.929 . S
C1180 C1177 1.424 . S
C1180 C1179 1.384 . S
C1180 H1198 0.928 . S
C1181 C1178 1.260 . S
C1181 C1179 1.479 . S
C1182 C1177 1.245 . S
C1182 C1178 1.477 . S
C1182 H1199 0.932 . S
C1183 U1166 2.882 . S
C1183 C1177 1.428 . S
C1183 O1186 1.301 . S
C1183 O1187 1.282 . S
O1184 U1166 2.441 . S
O1184 C1170 1.249 . S
O1185 U1166 2.420 . S
O1185 C1170 1.202 . S
O1186 U1166 2.455 . S
O1186 C1183 1.301 . S
O1187 U1166 2.449 . S
O1187 C1183 1.282 . S
H1188 C1161 0.931 . S
H1189 C1163 0.929 . S
H1190 C1164 0.930 . S
H1191 C1165 0.931 . S
H1192 C1172 0.932 . S
H1193 C1173 0.930 . S
H1194 C1174 0.929 . S
H1195 C1176 0.930 . S
H1196 C1178 0.932 . S
H1197 C1179 0.929 . S
H1198 C1180 0.928 . S
H1199 C1182 0.932 . S
C1200 C1201 1.264 . S
C1200 C1205 1.479 . S
C1200 C1210 1.465 . S
C1201 C1200 1.264 . S
C1201 C1203 1.339 . S
C1201 H1228 0.931 . S
C1202 C1203 1.395 . S
C1202 C1204 1.320 . S
C1203 C1201 1.339 . S
C1203 C1202 1.395 . S
C1203 H1229 0.929 . S
C1204 C1202 1.320 . S
C1204 C1205 1.405 . S
C1204 H1230 0.930 . S
C1205 C1200 1.479 . S
C1205 C1204 1.405 . S
C1205 H1231 0.931 . S
U1206 O1207 2.454 . S
U1206 O1208 2.458 . S
U1206 C1209 2.984 . S
U1206 C1210 2.847 . S
U1206 C1223 2.882 . S
U1206 O1224 2.441 . S
U1206 O1225 2.420 . S
U1206 O1226 2.455 . S
U1206 O1227 2.449 . S
O1207 U1206 2.454 . S
O1207 C1209 1.353 . S
O1208 U1206 2.458 . S
O1208 C1209 1.286 . S
C1209 U1206 2.984 . S
C1209 O1207 1.353 . S
C1209 O1208 1.286 . S
C1209 C1211 1.363 . S
C1210 C1200 1.465 . S
C1210 U1206 2.847 . S
C1210 O1224 1.249 . S
C1210 O1225 1.202 . S
C1211 C1209 1.363 . S
C1211 C1213 1.408 . S
C1211 C1216 1.342 . S
C1212 C1213 1.310 . S
C1212 C1215 1.461 . S
C1212 H1232 0.932 . S
C1213 C1211 1.408 . S
C1213 C1212 1.310 . S
C1213 H1233 0.930 . S
C1214 C1215 1.474 . S
C1214 C1216 1.285 . S
C1214 H1234 0.929 . S
C1215 C1212 1.461 . S
C1215 C1214 1.474 . S
C1216 C1211 1.342 . S
C1216 C1214 1.285 . S
C1216 H1235 0.930 . S
C1217 C1220 1.424 . S
C1217 C1222 1.245 . S
C1217 C1223 1.428 . S
C1218 C1221 1.260 . S
C1218 C1222 1.477 . S
C1218 H1236 0.932 . S
C1219 C1220 1.384 . S
C1219 C1221 1.479 . S
C1219 H1237 0.929 . S
C1220 C1217 1.424 . S
C1220 C1219 1.384 . S
C1220 H1238 0.928 . S
C1221 C1218 1.260 . S
C1221 C1219 1.479 . S
C1222 C1217 1.245 . S
C1222 C1218 1.477 . S
C1222 H1239 0.932 . S
C1223 U1206 2.882 . S
C1223 C1217 1.428 . S
C1223 O1226 1.301 . S
C1223 O1227 1.282 . S
O1224 U1206 2.441 . S
O1224 C1210 1.249 . S
O1225 U1206 2.420 . S
O1225 C1210 1.202 . S
O1226 U1206 2.455 . S
O1226 C1223 1.301 . S
O1227 U1206 2.449 . S
O1227 C1223 1.282 . S
H1228 C1201 0.931 . S
H1229 C1203 0.929 . S
H1230 C1204 0.930 . S
H1231 C1205 0.931 . S
H1232 C1212 0.932 . S
H1233 C1213 0.930 . S
H1234 C1214 0.929 . S
H1235 C1216 0.930 . S
H1236 C1218 0.932 . S
H1237 C1219 0.929 . S
H1238 C1220 0.928 . S
H1239 C1222 0.932 . S
C1240 C1241 1.264 . S
C1240 C1245 1.479 . S
C1240 C1250 1.465 . S
C1241 C1240 1.264 . S
C1241 C1243 1.339 . S
C1241 H1268 0.931 . S
C1242 C1243 1.395 . S
C1242 C1244 1.320 . S
C1243 C1241 1.339 . S
C1243 C1242 1.395 . S
C1243 H1269 0.929 . S
C1244 C1242 1.320 . S
C1244 C1245 1.405 . S
C1244 H1270 0.930 . S
C1245 C1240 1.479 . S
C1245 C1244 1.405 . S
C1245 H1271 0.931 . S
U1246 O1247 2.454 . S
U1246 O1248 2.458 . S
U1246 C1249 2.984 . S
U1246 C1250 2.847 . S
U1246 C1263 2.882 . S
U1246 O1264 2.441 . S
U1246 O1265 2.420 . S
U1246 O1266 2.455 . S
U1246 O1267 2.449 . S
O1247 U1246 2.454 . S
O1247 C1249 1.353 . S
O1248 U1246 2.458 . S
O1248 C1249 1.286 . S
C1249 U1246 2.984 . S
C1249 O1247 1.353 . S
C1249 O1248 1.286 . S
C1249 C1251 1.363 . S
C1250 C1240 1.465 . S
C1250 U1246 2.847 . S
C1250 O1264 1.249 . S
C1250 O1265 1.202 . S
C1251 C1249 1.363 . S
C1251 C1253 1.408 . S
C1251 C1256 1.342 . S
C1252 C1253 1.310 . S
C1252 C1255 1.461 . S
C1252 H1272 0.932 . S
C1253 C1251 1.408 . S
C1253 C1252 1.310 . S
C1253 H1273 0.930 . S
C1254 C1255 1.474 . S
C1254 C1256 1.285 . S
C1254 H1274 0.929 . S
C1255 C1252 1.461 . S
C1255 C1254 1.474 . S
C1256 C1251 1.342 . S
C1256 C1254 1.285 . S
C1256 H1275 0.930 . S
C1257 C1260 1.424 . S
C1257 C1262 1.245 . S
C1257 C1263 1.428 . S
C1258 C1261 1.260 . S
C1258 C1262 1.477 . S
C1258 H1276 0.932 . S
C1259 C1260 1.384 . S
C1259 C1261 1.479 . S
C1259 H1277 0.929 . S
C1260 C1257 1.424 . S
C1260 C1259 1.384 . S
C1260 H1278 0.928 . S
C1261 C1258 1.260 . S
C1261 C1259 1.479 . S
C1262 C1257 1.245 . S
C1262 C1258 1.477 . S
C1262 H1279 0.932 . S
C1263 U1246 2.882 . S
C1263 C1257 1.428 . S
C1263 O1266 1.301 . S
C1263 O1267 1.282 . S
O1264 U1246 2.441 . S
O1264 C1250 1.249 . S
O1265 U1246 2.420 . S
O1265 C1250 1.202 . S
O1266 U1246 2.455 . S
O1266 C1263 1.301 . S
O1267 U1246 2.449 . S
O1267 C1263 1.282 . S
H1268 C1241 0.931 . S
H1269 C1243 0.929 . S
H1270 C1244 0.930 . S
H1271 C1245 0.931 . S
H1272 C1252 0.932 . S
H1273 C1253 0.930 . S
H1274 C1254 0.929 . S
H1275 C1256 0.930 . S
H1276 C1258 0.932 . S
H1277 C1259 0.929 . S
H1278 C1260 0.928 . S
H1279 C1262 0.932 . S
C1280 C1281 1.264 . S
C1280 C1285 1.479 . S
C1280 C1290 1.465 . S
C1281 C1280 1.264 . S
C1281 C1283 1.339 . S
C1281 H1308 0.931 . S
C1282 C1283 1.395 . S
C1282 C1284 1.320 . S
C1283 C1281 1.339 . S
C1283 C1282 1.395 . S
C1283 H1309 0.929 . S
C1284 C1282 1.320 . S
C1284 C1285 1.405 . S
C1284 H1310 0.930 . S
C1285 C1280 1.479 . S
C1285 C1284 1.405 . S
C1285 H1311 0.931 . S
U1286 O1287 2.454 . S
U1286 O1288 2.458 . S
U1286 C1289 2.984 . S
U1286 C1290 2.847 . S
U1286 C1303 2.882 . S
U1286 O1304 2.441 . S
U1286 O1305 2.420 . S
U1286 O1306 2.455 . S
U1286 O1307 2.449 . S
O1287 U1286 2.454 . S
O1287 C1289 1.353 . S
O1288 U1286 2.458 . S
O1288 C1289 1.286 . S
C1289 U1286 2.984 . S
C1289 O1287 1.353 . S
C1289 O1288 1.286 . S
C1289 C1291 1.363 . S
C1290 C1280 1.465 . S
C1290 U1286 2.847 . S
C1290 O1304 1.249 . S
C1290 O1305 1.202 . S
C1291 C1289 1.363 . S
C1291 C1293 1.408 . S
C1291 C1296 1.342 . S
C1292 C1293 1.310 . S
C1292 C1295 1.461 . S
C1292 H1312 0.932 . S
C1293 C1291 1.408 . S
C1293 C1292 1.310 . S
C1293 H1313 0.930 . S
C1294 C1295 1.474 . S
C1294 C1296 1.285 . S
C1294 H1314 0.929 . S
C1295 C1292 1.461 . S
C1295 C1294 1.474 . S
C1296 C1291 1.342 . S
C1296 C1294 1.285 . S
C1296 H1315 0.930 . S
C1297 C1300 1.424 . S
C1297 C1302 1.245 . S
C1297 C1303 1.428 . S
C1298 C1301 1.260 . S
C1298 C1302 1.477 . S
C1298 H1316 0.932 . S
C1299 C1300 1.384 . S
C1299 C1301 1.479 . S
C1299 H1317 0.929 . S
C1300 C1297 1.424 . S
C1300 C1299 1.384 . S
C1300 H1318 0.928 . S
C1301 C1298 1.260 . S
C1301 C1299 1.479 . S
C1302 C1297 1.245 . S
C1302 C1298 1.477 . S
C1302 H1319 0.932 . S
C1303 U1286 2.882 . S
C1303 C1297 1.428 . S
C1303 O1306 1.301 . S
C1303 O1307 1.282 . S
O1304 U1286 2.441 . S
O1304 C1290 1.249 . S
O1305 U1286 2.420 . S
O1305 C1290 1.202 . S
O1306 U1286 2.455 . S
O1306 C1303 1.301 . S
O1307 U1286 2.449 . S
O1307 C1303 1.282 . S
H1308 C1281 0.931 . S
H1309 C1283 0.929 . S
H1310 C1284 0.930 . S
H1311 C1285 0.931 . S
H1312 C1292 0.932 . S
H1313 C1293 0.930 . S
H1314 C1294 0.929 . S
H1315 C1296 0.930 . S
H1316 C1298 0.932 . S
H1317 C1299 0.929 . S
H1318 C1300 0.928 . S
H1319 C1302 0.932 . S
C1320 C1321 1.264 . S
C1320 C1325 1.479 . S
C1320 C1330 1.465 . S
C1321 C1320 1.264 . S
C1321 C1323 1.339 . S
C1321 H1348 0.931 . S
C1322 C1323 1.395 . S
C1322 C1324 1.320 . S
C1323 C1321 1.339 . S
C1323 C1322 1.395 . S
C1323 H1349 0.929 . S
C1324 C1322 1.320 . S
C1324 C1325 1.405 . S
C1324 H1350 0.930 . S
C1325 C1320 1.479 . S
C1325 C1324 1.405 . S
C1325 H1351 0.931 . S
U1326 O1327 2.454 . S
U1326 O1328 2.458 . S
U1326 C1329 2.984 . S
U1326 C1330 2.847 . S
U1326 C1343 2.882 . S
U1326 O1344 2.441 . S
U1326 O1345 2.420 . S
U1326 O1346 2.455 . S
U1326 O1347 2.449 . S
O1327 U1326 2.454 . S
O1327 C1329 1.353 . S
O1328 U1326 2.458 . S
O1328 C1329 1.286 . S
C1329 U1326 2.984 . S
C1329 O1327 1.353 . S
C1329 O1328 1.286 . S
C1329 C1331 1.363 . S
C1330 C1320 1.465 . S
C1330 U1326 2.847 . S
C1330 O1344 1.249 . S
C1330 O1345 1.202 . S
C1331 C1329 1.363 . S
C1331 C1333 1.408 . S
C1331 C1336 1.342 . S
C1332 C1333 1.310 . S
C1332 C1335 1.461 . S
C1332 H1352 0.932 . S
C1333 C1331 1.408 . S
C1333 C1332 1.310 . S
C1333 H1353 0.930 . S
C1334 C1335 1.474 . S
C1334 C1336 1.285 . S
C1334 H1354 0.929 . S
C1335 C1332 1.461 . S
C1335 C1334 1.474 . S
C1336 C1331 1.342 . S
C1336 C1334 1.285 . S
C1336 H1355 0.930 . S
C1337 C1340 1.424 . S
C1337 C1342 1.245 . S
C1337 C1343 1.428 . S
C1338 C1341 1.260 . S
C1338 C1342 1.477 . S
C1338 H1356 0.932 . S
C1339 C1340 1.384 . S
C1339 C1341 1.479 . S
C1339 H1357 0.929 . S
C1340 C1337 1.424 . S
C1340 C1339 1.384 . S
C1340 H1358 0.928 . S
C1341 C1338 1.260 . S
C1341 C1339 1.479 . S
C1342 C1337 1.245 . S
C1342 C1338 1.477 . S
C1342 H1359 0.932 . S
C1343 U1326 2.882 . S
C1343 C1337 1.428 . S
C1343 O1346 1.301 . S
C1343 O1347 1.282 . S
O1344 U1326 2.441 . S
O1344 C1330 1.249 . S
O1345 U1326 2.420 . S
O1345 C1330 1.202 . S
O1346 U1326 2.455 . S
O1346 C1343 1.301 . S
O1347 U1326 2.449 . S
O1347 C1343 1.282 . S
H1348 C1321 0.931 . S
H1349 C1323 0.929 . S
H1350 C1324 0.930 . S
H1351 C1325 0.931 . S
H1352 C1332 0.932 . S
H1353 C1333 0.930 . S
H1354 C1334 0.929 . S
H1355 C1336 0.930 . S
H1356 C1338 0.932 . S
H1357 C1339 0.929 . S
H1358 C1340 0.928 . S
H1359 C1342 0.932 . S
C1360 C1361 1.264 . S
C1360 C1365 1.479 . S
C1360 C1370 1.465 . S
C1361 C1360 1.264 . S
C1361 C1363 1.339 . S
C1361 H1388 0.931 . S
C1362 C1363 1.395 . S
C1362 C1364 1.320 . S
C1363 C1361 1.339 . S
C1363 C1362 1.395 . S
C1363 H1389 0.929 . S
C1364 C1362 1.320 . S
C1364 C1365 1.405 . S
C1364 H1390 0.930 . S
C1365 C1360 1.479 . S
C1365 C1364 1.405 . S
C1365 H1391 0.931 . S
U1366 O1367 2.454 . S
U1366 O1368 2.458 . S
U1366 C1369 2.984 . S
U1366 C1370 2.847 . S
U1366 C1383 2.882 . S
U1366 O1384 2.441 . S
U1366 O1385 2.420 . S
U1366 O1386 2.455 . S
U1366 O1387 2.449 . S
O1367 U1366 2.454 . S
O1367 C1369 1.353 . S
O1368 U1366 2.458 . S
O1368 C1369 1.286 . S
C1369 U1366 2.984 . S
C1369 O1367 1.353 . S
C1369 O1368 1.286 . S
C1369 C1371 1.363 . S
C1370 C1360 1.465 . S
C1370 U1366 2.847 . S
C1370 O1384 1.249 . S
C1370 O1385 1.202 . S
C1371 C1369 1.363 . S
C1371 C1373 1.408 . S
C1371 C1376 1.342 . S
C1372 C1373 1.310 . S
C1372 C1375 1.461 . S
C1372 H1392 0.932 . S
C1373 C1371 1.408 . S
C1373 C1372 1.310 . S
C1373 H1393 0.930 . S
C1374 C1375 1.474 . S
C1374 C1376 1.285 . S
C1374 H1394 0.929 . S
C1375 C1372 1.461 . S
C1375 C1374 1.474 . S
C1376 C1371 1.342 . S
C1376 C1374 1.285 . S
C1376 H1395 0.930 . S
C1377 C1380 1.424 . S
C1377 C1382 1.245 . S
C1377 C1383 1.428 . S
C1378 C1381 1.260 . S
C1378 C1382 1.477 . S
C1378 H1396 0.932 . S
C1379 C1380 1.384 . S
C1379 C1381 1.479 . S
C1379 H1397 0.929 . S
C1380 C1377 1.424 . S
C1380 C1379 1.384 . S
C1380 H1398 0.928 . S
C1381 C1378 1.260 . S
C1381 C1379 1.479 . S
C1382 C1377 1.245 . S
C1382 C1378 1.477 . S
C1382 H1399 0.932 . S
C1383 U1366 2.882 . S
C1383 C1377 1.428 . S
C1383 O1386 1.301 . S
C1383 O1387 1.282 . S
O1384 U1366 2.441 . S
O1384 C1370 1.249 . S
O1385 U1366 2.420 . S
O1385 C1370 1.202 . S
O1386 U1366 2.455 . S
O1386 C1383 1.301 . S
O1387 U1366 2.449 . S
O1387 C1383 1.282 . S
H1388 C1361 0.931 . S
H1389 C1363 0.929 . S
H1390 C1364 0.930 . S
H1391 C1365 0.931 . S
H1392 C1372 0.932 . S
H1393 C1373 0.930 . S
H1394 C1374 0.929 . S
H1395 C1376 0.930 . S
H1396 C1378 0.932 . S
H1397 C1379 0.929 . S
H1398 C1380 0.928 . S
H1399 C1382 0.932 . S
C1400 C1401 1.264 . S
C1400 C1405 1.479 . S
C1400 C1410 1.465 . S
C1401 C1400 1.264 . S
C1401 C1403 1.339 . S
C1401 H1428 0.931 . S
C1402 C1403 1.395 . S
C1402 C1404 1.320 . S
C1403 C1401 1.339 . S
C1403 C1402 1.395 . S
C1403 H1429 0.929 . S
C1404 C1402 1.320 . S
C1404 C1405 1.405 . S
C1404 H1430 0.930 . S
C1405 C1400 1.479 . S
C1405 C1404 1.405 . S
C1405 H1431 0.931 . S
U1406 O1407 2.454 . S
U1406 O1408 2.458 . S
U1406 C1409 2.984 . S
U1406 C1410 2.847 . S
U1406 C1423 2.882 . S
U1406 O1424 2.441 . S
U1406 O1425 2.420 . S
U1406 O1426 2.455 . S
U1406 O1427 2.449 . S
O1407 U1406 2.454 . S
O1407 C1409 1.353 . S
O1408 U1406 2.458 . S
O1408 C1409 1.286 . S
C1409 U1406 2.984 . S
C1409 O1407 1.353 . S
C1409 O1408 1.286 . S
C1409 C1411 1.363 . S
C1410 C1400 1.465 . S
C1410 U1406 2.847 . S
C1410 O1424 1.249 . S
C1410 O1425 1.202 . S
C1411 C1409 1.363 . S
C1411 C1413 1.408 . S
C1411 C1416 1.342 . S
C1412 C1413 1.310 . S
C1412 C1415 1.461 . S
C1412 H1432 0.932 . S
C1413 C1411 1.408 . S
C1413 C1412 1.310 . S
C1413 H1433 0.930 . S
C1414 C1415 1.474 . S
C1414 C1416 1.285 . S
C1414 H1434 0.929 . S
C1415 C1412 1.461 . S
C1415 C1414 1.474 . S
C1416 C1411 1.342 . S
C1416 C1414 1.285 . S
C1416 H1435 0.930 . S
C1417 C1420 1.424 . S
C1417 C1422 1.245 . S
C1417 C1423 1.428 . S
C1418 C1421 1.260 . S
C1418 C1422 1.477 . S
C1418 H1436 0.932 . S
C1419 C1420 1.384 . S
C1419 C1421 1.479 . S
C1419 H1437 0.929 . S
C1420 C1417 1.424 . S
C1420 C1419 1.384 . S
C1420 H1438 0.928 . S
C1421 C1418 1.260 . S
C1421 C1419 1.479 . S
C1422 C1417 1.245 . S
C1422 C1418 1.477 . S
C1422 H1439 0.932 . S
C1423 U1406 2.882 . S
C1423 C1417 1.428 . S
C1423 O1426 1.301 . S
C1423 O1427 1.282 . S
O1424 U1406 2.441 . S
O1424 C1410 1.249 . S
O1425 U1406 2.420 . S
O1425 C1410 1.202 . S
O1426 U1406 2.455 . S
O1426 C1423 1.301 . S
O1427 U1406 2.449 . S
O1427 C1423 1.282 . S
H1428 C1401 0.931 . S
H1429 C1403 0.929 . S
H1430 C1404 0.930 . S
H1431 C1405 0.931 . S
H1432 C1412 0.932 . S
H1433 C1413 0.930 . S
H1434 C1414 0.929 . S
H1435 C1416 0.930 . S
H1436 C1418 0.932 . S
H1437 C1419 0.929 . S
H1438 C1420 0.928 . S
H1439 C1422 0.932 . S
C1440 C1441 1.264 . S
C1440 C1445 1.479 . S
C1440 C1450 1.465 . S
C1441 C1440 1.264 . S
C1441 C1443 1.339 . S
C1441 H1468 0.931 . S
C1442 C1443 1.395 . S
C1442 C1444 1.320 . S
C1443 C1441 1.339 . S
C1443 C1442 1.395 . S
C1443 H1469 0.929 . S
C1444 C1442 1.320 . S
C1444 C1445 1.405 . S
C1444 H1470 0.930 . S
C1445 C1440 1.479 . S
C1445 C1444 1.405 . S
C1445 H1471 0.931 . S
U1446 O1447 2.454 . S
U1446 O1448 2.458 . S
U1446 C1449 2.984 . S
U1446 C1450 2.847 . S
U1446 C1463 2.882 . S
U1446 O1464 2.441 . S
U1446 O1465 2.420 . S
U1446 O1466 2.455 . S
U1446 O1467 2.449 . S
O1447 U1446 2.454 . S
O1447 C1449 1.353 . S
O1448 U1446 2.458 . S
O1448 C1449 1.286 . S
C1449 U1446 2.984 . S
C1449 O1447 1.353 . S
C1449 O1448 1.286 . S
C1449 C1451 1.363 . S
C1450 C1440 1.465 . S
C1450 U1446 2.847 . S
C1450 O1464 1.249 . S
C1450 O1465 1.202 . S
C1451 C1449 1.363 . S
C1451 C1453 1.408 . S
C1451 C1456 1.342 . S
C1452 C1453 1.310 . S
C1452 C1455 1.461 . S
C1452 H1472 0.932 . S
C1453 C1451 1.408 . S
C1453 C1452 1.310 . S
C1453 H1473 0.930 . S
C1454 C1455 1.474 . S
C1454 C1456 1.285 . S
C1454 H1474 0.929 . S
C1455 C1452 1.461 . S
C1455 C1454 1.474 . S
C1456 C1451 1.342 . S
C1456 C1454 1.285 . S
C1456 H1475 0.930 . S
C1457 C1460 1.424 . S
C1457 C1462 1.245 . S
C1457 C1463 1.428 . S
C1458 C1461 1.260 . S
C1458 C1462 1.477 . S
C1458 H1476 0.932 . S
C1459 C1460 1.384 . S
C1459 C1461 1.479 . S
C1459 H1477 0.929 . S
C1460 C1457 1.424 . S
C1460 C1459 1.384 . S
C1460 H1478 0.928 . S
C1461 C1458 1.260 . S
C1461 C1459 1.479 . S
C1462 C1457 1.245 . S
C1462 C1458 1.477 . S
C1462 H1479 0.932 . S
C1463 U1446 2.882 . S
C1463 C1457 1.428 . S
C1463 O1466 1.301 . S
C1463 O1467 1.282 . S
O1464 U1446 2.441 . S
O1464 C1450 1.249 . S
O1465 U1446 2.420 . S
O1465 C1450 1.202 . S
O1466 U1446 2.455 . S
O1466 C1463 1.301 . S
O1467 U1446 2.449 . S
O1467 C1463 1.282 . S
H1468 C1441 0.931 . S
H1469 C1443 0.929 . S
H1470 C1444 0.930 . S
H1471 C1445 0.931 . S
H1472 C1452 0.932 . S
H1473 C1453 0.930 . S
H1474 C1454 0.929 . S
H1475 C1456 0.930 . S
H1476 C1458 0.932 . S
H1477 C1459 0.929 . S
H1478 C1460 0.928 . S
H1479 C1462 0.932 . S
C1480 C1481 1.264 . S
C1480 C1485 1.479 . S
C1480 C1490 1.465 . S
C1481 C1480 1.264 . S
C1481 C1483 1.339 . S
C1481 H1508 0.931 . S
C1482 C1483 1.395 . S
C1482 C1484 1.320 . S
C1483 C1481 1.339 . S
C1483 C1482 1.395 . S
C1483 H1509 0.929 . S
C1484 C1482 1.320 . S
C1484 C1485 1.405 . S
C1484 H1510 0.930 . S
C1485 C1480 1.479 . S
C1485 C1484 1.405 . S
C1485 H1511 0.931 . S
U1486 O1487 2.454 . S
U1486 O1488 2.458 . S
U1486 C1489 2.984 . S
U1486 C1490 2.847 . S
U1486 C1503 2.882 . S
U1486 O1504 2.441 . S
U1486 O1505 2.420 . S
U1486 O1506 2.455 . S
U1486 O1507 2.449 . S
O1487 U1486 2.454 . S
O1487 C1489 1.353 . S
O1488 U1486 2.458 . S
O1488 C1489 1.286 . S
C1489 U1486 2.984 . S
C1489 O1487 1.353 . S
C1489 O1488 1.286 . S
C1489 C1491 1.363 . S
C1490 C1480 1.465 . S
C1490 U1486 2.847 . S
C1490 O1504 1.249 . S
C1490 O1505 1.202 . S
C1491 C1489 1.363 . S
C1491 C1493 1.408 . S
C1491 C1496 1.342 . S
C1492 C1493 1.310 . S
C1492 C1495 1.461 . S
C1492 H1512 0.932 . S
C1493 C1491 1.408 . S
C1493 C1492 1.310 . S
C1493 H1513 0.930 . S
C1494 C1495 1.474 . S
C1494 C1496 1.285 . S
C1494 H1514 0.929 . S
C1495 C1492 1.461 . S
C1495 C1494 1.474 . S
C1496 C1491 1.342 . S
C1496 C1494 1.285 . S
C1496 H1515 0.930 . S
C1497 C1500 1.424 . S
C1497 C1502 1.245 . S
C1497 C1503 1.428 . S
C1498 C1501 1.260 . S
C1498 C1502 1.477 . S
C1498 H1516 0.932 . S
C1499 C1500 1.384 . S
C1499 C1501 1.479 . S
C1499 H1517 0.929 . S
C1500 C1497 1.424 . S
C1500 C1499 1.384 . S
C1500 H1518 0.928 . S
C1501 C1498 1.260 . S
C1501 C1499 1.479 . S
C1502 C1497 1.245 . S
C1502 C1498 1.477 . S
C1502 H1519 0.932 . S
C1503 U1486 2.882 . S
C1503 C1497 1.428 . S
C1503 O1506 1.301 . S
C1503 O1507 1.282 . S
O1504 U1486 2.441 . S
O1504 C1490 1.249 . S
O1505 U1486 2.420 . S
O1505 C1490 1.202 . S
O1506 U1486 2.455 . S
O1506 C1503 1.301 . S
O1507 U1486 2.449 . S
O1507 C1503 1.282 . S
H1508 C1481 0.931 . S
H1509 C1483 0.929 . S
H1510 C1484 0.930 . S
H1511 C1485 0.931 . S
H1512 C1492 0.932 . S
H1513 C1493 0.930 . S
H1514 C1494 0.929 . S
H1515 C1496 0.930 . S
H1516 C1498 0.932 . S
H1517 C1499 0.929 . S
H1518 C1500 0.928 . S
H1519 C1502 0.932 . S
C1520 C1521 1.264 . S
C1520 C1525 1.479 . S
C1520 C1530 1.465 . S
C1521 C1520 1.264 . S
C1521 C1523 1.339 . S
C1521 H1548 0.931 . S
C1522 C1523 1.395 . S
C1522 C1524 1.320 . S
C1523 C1521 1.339 . S
C1523 C1522 1.395 . S
C1523 H1549 0.929 . S
C1524 C1522 1.320 . S
C1524 C1525 1.405 . S
C1524 H1550 0.930 . S
C1525 C1520 1.479 . S
C1525 C1524 1.405 . S
C1525 H1551 0.931 . S
U1526 O1527 2.454 . S
U1526 O1528 2.458 . S
U1526 C1529 2.984 . S
U1526 C1530 2.847 . S
U1526 C1543 2.882 . S
U1526 O1544 2.441 . S
U1526 O1545 2.420 . S
U1526 O1546 2.455 . S
U1526 O1547 2.449 . S
O1527 U1526 2.454 . S
O1527 C1529 1.353 . S
O1528 U1526 2.458 . S
O1528 C1529 1.286 . S
C1529 U1526 2.984 . S
C1529 O1527 1.353 . S
C1529 O1528 1.286 . S
C1529 C1531 1.363 . S
C1530 C1520 1.465 . S
C1530 U1526 2.847 . S
C1530 O1544 1.249 . S
C1530 O1545 1.202 . S
C1531 C1529 1.363 . S
C1531 C1533 1.408 . S
C1531 C1536 1.342 . S
C1532 C1533 1.310 . S
C1532 C1535 1.461 . S
C1532 H1552 0.932 . S
C1533 C1531 1.408 . S
C1533 C1532 1.310 . S
C1533 H1553 0.930 . S
C1534 C1535 1.474 . S
C1534 C1536 1.285 . S
C1534 H1554 0.929 . S
C1535 C1532 1.461 . S
C1535 C1534 1.474 . S
C1536 C1531 1.342 . S
C1536 C1534 1.285 . S
C1536 H1555 0.930 . S
C1537 C1540 1.424 . S
C1537 C1542 1.245 . S
C1537 C1543 1.428 . S
C1538 C1541 1.260 . S
C1538 C1542 1.477 . S
C1538 H1556 0.932 . S
C1539 C1540 1.384 . S
C1539 C1541 1.479 . S
C1539 H1557 0.929 . S
C1540 C1537 1.424 . S
C1540 C1539 1.384 . S
C1540 H1558 0.928 . S
C1541 C1538 1.260 . S
C1541 C1539 1.479 . S
C1542 C1537 1.245 . S
C1542 C1538 1.477 . S
C1542 H1559 0.932 . S
C1543 U1526 2.882 . S
C1543 C1537 1.428 . S
C1543 O1546 1.301 . S
C1543 O1547 1.282 . S
O1544 U1526 2.441 . S
O1544 C1530 1.249 . S
O1545 U1526 2.420 . S
O1545 C1530 1.202 . S
O1546 U1526 2.455 . S
O1546 C1543 1.301 . S
O1547 U1526 2.449 . S
O1547 C1543 1.282 . S
H1548 C1521 0.931 . S
H1549 C1523 0.929 . S
H1550 C1524 0.930 . S
H1551 C1525 0.931 . S
H1552 C1532 0.932 . S
H1553 C1533 0.930 . S
H1554 C1534 0.929 . S
H1555 C1536 0.930 . S
H1556 C1538 0.932 . S
H1557 C1539 0.929 . S
H1558 C1540 0.928 . S
H1559 C1542 0.932 . S
C1560 C1561 1.264 . S
C1560 C1565 1.479 . S
C1560 C1570 1.465 . S
C1561 C1560 1.264 . S
C1561 C1563 1.339 . S
C1561 H1588 0.931 . S
C1562 C1563 1.395 . S
C1562 C1564 1.320 . S
C1563 C1561 1.339 . S
C1563 C1562 1.395 . S
C1563 H1589 0.929 . S
C1564 C1562 1.320 . S
C1564 C1565 1.405 . S
C1564 H1590 0.930 . S
C1565 C1560 1.479 . S
C1565 C1564 1.405 . S
C1565 H1591 0.931 . S
U1566 O1567 2.454 . S
U1566 O1568 2.458 . S
U1566 C1569 2.984 . S
U1566 C1570 2.847 . S
U1566 C1583 2.882 . S
U1566 O1584 2.441 . S
U1566 O1585 2.420 . S
U1566 O1586 2.455 . S
U1566 O1587 2.449 . S
O1567 U1566 2.454 . S
O1567 C1569 1.353 . S
O1568 U1566 2.458 . S
O1568 C1569 1.286 . S
C1569 U1566 2.984 . S
C1569 O1567 1.353 . S
C1569 O1568 1.286 . S
C1569 C1571 1.363 . S
C1570 C1560 1.465 . S
C1570 U1566 2.847 . S
C1570 O1584 1.249 . S
C1570 O1585 1.202 . S
C1571 C1569 1.363 . S
C1571 C1573 1.408 . S
C1571 C1576 1.342 . S
C1572 C1573 1.310 . S
C1572 C1575 1.461 . S
C1572 H1592 0.932 . S
C1573 C1571 1.408 . S
C1573 C1572 1.310 . S
C1573 H1593 0.930 . S
C1574 C1575 1.474 . S
C1574 C1576 1.285 . S
C1574 H1594 0.929 . S
C1575 C1572 1.461 . S
C1575 C1574 1.474 . S
C1576 C1571 1.342 . S
C1576 C1574 1.285 . S
C1576 H1595 0.930 . S
C1577 C1580 1.424 . S
C1577 C1582 1.245 . S
C1577 C1583 1.428 . S
C1578 C1581 1.260 . S
C1578 C1582 1.477 . S
C1578 H1596 0.932 . S
C1579 C1580 1.384 . S
C1579 C1581 1.479 . S
C1579 H1597 0.929 . S
C1580 C1577 1.424 . S
C1580 C1579 1.384 . S
C1580 H1598 0.928 . S
C1581 C1578 1.260 . S
C1581 C1579 1.479 . S
C1582 C1577 1.245 . S
C1582 C1578 1.477 . S
C1582 H1599 0.932 . S
C1583 U1566 2.882 . S
C1583 C1577 1.428 . S
C1583 O1586 1.301 . S
C1583 O1587 1.282 . S
O1584 U1566 2.441 . S
O1584 C1570 1.249 . S
O1585 U1566 2.420 . S
O1585 C1570 1.202 . S
O1586 U1566 2.455 . S
O1586 C1583 1.301 . S
O1587 U1566 2.449 . S
O1587 C1583 1.282 . S
H1588 C1561 0.931 . S
H1589 C1563 0.929 . S
H1590 C1564 0.930 . S
H1591 C1565 0.931 . S
H1592 C1572 0.932 . S
H1593 C1573 0.930 . S
H1594 C1574 0.929 . S
H1595 C1576 0.930 . S
H1596 C1578 0.932 . S
H1597 C1579 0.929 . S
H1598 C1580 0.928 . S
H1599 C1582 0.932 . S
C1600 C1601 1.264 . S
C1600 C1605 1.479 . S
C1600 C1610 1.465 . S
C1601 C1600 1.264 . S
C1601 C1603 1.339 . S
C1601 H1628 0.931 . S
C1602 C1603 1.395 . S
C1602 C1604 1.320 . S
C1603 C1601 1.339 . S
C1603 C1602 1.395 . S
C1603 H1629 0.929 . S
C1604 C1602 1.320 . S
C1604 C1605 1.405 . S
C1604 H1630 0.930 . S
C1605 C1600 1.479 . S
C1605 C1604 1.405 . S
C1605 H1631 0.931 . S
U1606 O1607 2.454 . S
U1606 O1608 2.458 . S
U1606 C1609 2.984 . S
U1606 C1610 2.847 . S
U1606 C1623 2.882 . S
U1606 O1624 2.441 . S
U1606 O1625 2.420 . S
U1606 O1626 2.455 . S
U1606 O1627 2.449 . S
O1607 U1606 2.454 . S
O1607 C1609 1.353 . S
O1608 U1606 2.458 . S
O1608 C1609 1.286 . S
C1609 U1606 2.984 . S
C1609 O1607 1.353 . S
C1609 O1608 1.286 . S
C1609 C1611 1.363 . S
C1610 C1600 1.465 . S
C1610 U1606 2.847 . S
C1610 O1624 1.249 . S
C1610 O1625 1.202 . S
C1611 C1609 1.363 . S
C1611 C1613 1.408 . S
C1611 C1616 1.342 . S
C1612 C1613 1.310 . S
C1612 C1615 1.461 . S
C1612 H1632 0.932 . S
C1613 C1611 1.408 . S
C1613 C1612 1.310 . S
C1613 H1633 0.930 . S
C1614 C1615 1.474 . S
C1614 C1616 1.285 . S
C1614 H1634 0.929 . S
C1615 C1612 1.461 . S
C1615 C1614 1.474 . S
C1616 C1611 1.342 . S
C1616 C1614 1.285 . S
C1616 H1635 0.930 . S
C1617 C1620 1.424 . S
C1617 C1622 1.245 . S
C1617 C1623 1.428 . S
C1618 C1621 1.260 . S
C1618 C1622 1.477 . S
C1618 H1636 0.932 . S
C1619 C1620 1.384 . S
C1619 C1621 1.479 . S
C1619 H1637 0.929 . S
C1620 C1617 1.424 . S
C1620 C1619 1.384 . S
C1620 H1638 0.928 . S
C1621 C1618 1.260 . S
C1621 C1619 1.479 . S
C1622 C1617 1.245 . S
C1622 C1618 1.477 . S
C1622 H1639 0.932 . S
C1623 U1606 2.882 . S
C1623 C1617 1.428 . S
C1623 O1626 1.301 . S
C1623 O1627 1.282 . S
O1624 U1606 2.441 . S
O1624 C1610 1.249 . S
O1625 U1606 2.420 . S
O1625 C1610 1.202 . S
O1626 U1606 2.455 . S
O1626 C1623 1.301 . S
O1627 U1606 2.449 . S
O1627 C1623 1.282 . S
H1628 C1601 0.931 . S
H1629 C1603 0.929 . S
H1630 C1604 0.930 . S
H1631 C1605 0.931 . S
H1632 C1612 0.932 . S
H1633 C1613 0.930 . S
H1634 C1614 0.929 . S
H1635 C1616 0.930 . S
H1636 C1618 0.932 . S
H1637 C1619 0.929 . S
H1638 C1620 0.928 . S
H1639 C1622 0.932 . S
C1640 C1641 1.264 . S
C1640 C1645 1.479 . S
C1640 C1650 1.465 . S
C1641 C1640 1.264 . S
C1641 C1643 1.339 . S
C1641 H1668 0.931 . S
C1642 C1643 1.395 . S
C1642 C1644 1.320 . S
C1643 C1641 1.339 . S
C1643 C1642 1.395 . S
C1643 H1669 0.929 . S
C1644 C1642 1.320 . S
C1644 C1645 1.405 . S
C1644 H1670 0.930 . S
C1645 C1640 1.479 . S
C1645 C1644 1.405 . S
C1645 H1671 0.931 . S
U1646 O1647 2.454 . S
U1646 O1648 2.458 . S
U1646 C1649 2.984 . S
U1646 C1650 2.847 . S
U1646 C1663 2.882 . S
U1646 O1664 2.441 . S
U1646 O1665 2.420 . S
U1646 O1666 2.455 . S
U1646 O1667 2.449 . S
O1647 U1646 2.454 . S
O1647 C1649 1.353 . S
O1648 U1646 2.458 . S
O1648 C1649 1.286 . S
C1649 U1646 2.984 . S
C1649 O1647 1.353 . S
C1649 O1648 1.286 . S
C1649 C1651 1.363 . S
C1650 C1640 1.465 . S
C1650 U1646 2.847 . S
C1650 O1664 1.249 . S
C1650 O1665 1.202 . S
C1651 C1649 1.363 . S
C1651 C1653 1.408 . S
C1651 C1656 1.342 . S
C1652 C1653 1.310 . S
C1652 C1655 1.461 . S
C1652 H1672 0.932 . S
C1653 C1651 1.408 . S
C1653 C1652 1.310 . S
C1653 H1673 0.930 . S
C1654 C1655 1.474 . S
C1654 C1656 1.285 . S
C1654 H1674 0.929 . S
C1655 C1652 1.461 . S
C1655 C1654 1.474 . S
C1656 C1651 1.342 . S
C1656 C1654 1.285 . S
C1656 H1675 0.930 . S
C1657 C1660 1.424 . S
C1657 C1662 1.245 . S
C1657 C1663 1.428 . S
C1658 C1661 1.260 . S
C1658 C1662 1.477 . S
C1658 H1676 0.932 . S
C1659 C1660 1.384 . S
C1659 C1661 1.479 . S
C1659 H1677 0.929 . S
C1660 C1657 1.424 . S
C1660 C1659 1.384 . S
C1660 H1678 0.928 . S
C1661 C1658 1.260 . S
C1661 C1659 1.479 . S
C1662 C1657 1.245 . S
C1662 C1658 1.477 . S
C1662 H1679 0.932 . S
C1663 U1646 2.882 . S
C1663 C1657 1.428 . S
C1663 O1666 1.301 . S
C1663 O1667 1.282 . S
O1664 U1646 2.441 . S
O1664 C1650 1.249 . S
O1665 U1646 2.420 . S
O1665 C1650 1.202 . S
O1666 U1646 2.455 . S
O1666 C1663 1.301 . S
O1667 U1646 2.449 . S
O1667 C1663 1.282 . S
H1668 C1641 0.931 . S
H1669 C1643 0.929 . S
H1670 C1644 0.930 . S
H1671 C1645 0.931 . S
H1672 C1652 0.932 . S
H1673 C1653 0.930 . S
H1674 C1654 0.929 . S
H1675 C1656 0.930 . S
H1676 C1658 0.932 . S
H1677 C1659 0.929 . S
H1678 C1660 0.928 . S
H1679 C1662 0.932 . S
C1680 C1681 1.264 . S
C1680 C1685 1.479 . S
C1680 C1690 1.465 . S
C1681 C1680 1.264 . S
C1681 C1683 1.339 . S
C1681 H1708 0.931 . S
C1682 C1683 1.395 . S
C1682 C1684 1.320 . S
C1683 C1681 1.339 . S
C1683 C1682 1.395 . S
C1683 H1709 0.929 . S
C1684 C1682 1.320 . S
C1684 C1685 1.405 . S
C1684 H1710 0.930 . S
C1685 C1680 1.479 . S
C1685 C1684 1.405 . S
C1685 H1711 0.931 . S
U1686 O1687 2.454 . S
U1686 O1688 2.458 . S
U1686 C1689 2.984 . S
U1686 C1690 2.847 . S
U1686 C1703 2.882 . S
U1686 O1704 2.441 . S
U1686 O1705 2.420 . S
U1686 O1706 2.455 . S
U1686 O1707 2.449 . S
O1687 U1686 2.454 . S
O1687 C1689 1.353 . S
O1688 U1686 2.458 . S
O1688 C1689 1.286 . S
C1689 U1686 2.984 . S
C1689 O1687 1.353 . S
C1689 O1688 1.286 . S
C1689 C1691 1.363 . S
C1690 C1680 1.465 . S
C1690 U1686 2.847 . S
C1690 O1704 1.249 . S
C1690 O1705 1.202 . S
C1691 C1689 1.363 . S
C1691 C1693 1.408 . S
C1691 C1696 1.342 . S
C1692 C1693 1.310 . S
C1692 C1695 1.461 . S
C1692 H1712 0.932 . S
C1693 C1691 1.408 . S
C1693 C1692 1.310 . S
C1693 H1713 0.930 . S
C1694 C1695 1.474 . S
C1694 C1696 1.285 . S
C1694 H1714 0.929 . S
C1695 C1692 1.461 . S
C1695 C1694 1.474 . S
C1696 C1691 1.342 . S
C1696 C1694 1.285 . S
C1696 H1715 0.930 . S
C1697 C1700 1.424 . S
C1697 C1702 1.245 . S
C1697 C1703 1.428 . S
C1698 C1701 1.260 . S
C1698 C1702 1.477 . S
C1698 H1716 0.932 . S
C1699 C1700 1.384 . S
C1699 C1701 1.479 . S
C1699 H1717 0.929 . S
C1700 C1697 1.424 . S
C1700 C1699 1.384 . S
C1700 H1718 0.928 . S
C1701 C1698 1.260 . S
C1701 C1699 1.479 . S
C1702 C1697 1.245 . S
C1702 C1698 1.477 . S
C1702 H1719 0.932 . S
C1703 U1686 2.882 . S
C1703 C1697 1.428 . S
C1703 O1706 1.301 . S
C1703 O1707 1.282 . S
O1704 U1686 2.441 . S
O1704 C1690 1.249 . S
O1705 U1686 2.420 . S
O1705 C1690 1.202 . S
O1706 U1686 2.455 . S
O1706 C1703 1.301 . S
O1707 U1686 2.449 . S
O1707 C1703 1.282 . S
H1708 C1681 0.931 . S
H1709 C1683 0.929 . S
H1710 C1684 0.930 . S
H1711 C1685 0.931 . S
H1712 C1692 0.932 . S
H1713 C1693 0.930 . S
H1714 C1694 0.929 . S
H1715 C1696 0.930 . S
H1716 C1698 0.932 . S
H1717 C1699 0.929 . S
H1718 C1700 0.928 . S
H1719 C1702 0.932 . S
C1720 C1721 1.264 . S
C1720 C1725 1.479 . S
C1720 C1730 1.465 . S
C1721 C1720 1.264 . S
C1721 C1723 1.339 . S
C1721 H1748 0.931 . S
C1722 C1723 1.395 . S
C1722 C1724 1.320 . S
C1723 C1721 1.339 . S
C1723 C1722 1.395 . S
C1723 H1749 0.929 . S
C1724 C1722 1.320 . S
C1724 C1725 1.405 . S
C1724 H1750 0.930 . S
C1725 C1720 1.479 . S
C1725 C1724 1.405 . S
C1725 H1751 0.931 . S
U1726 O1727 2.454 . S
U1726 O1728 2.458 . S
U1726 C1729 2.984 . S
U1726 C1730 2.847 . S
U1726 C1743 2.882 . S
U1726 O1744 2.441 . S
U1726 O1745 2.420 . S
U1726 O1746 2.455 . S
U1726 O1747 2.449 . S
O1727 U1726 2.454 . S
O1727 C1729 1.353 . S
O1728 U1726 2.458 . S
O1728 C1729 1.286 . S
C1729 U1726 2.984 . S
C1729 O1727 1.353 . S
C1729 O1728 1.286 . S
C1729 C1731 1.363 . S
C1730 C1720 1.465 . S
C1730 U1726 2.847 . S
C1730 O1744 1.249 . S
C1730 O1745 1.202 . S
C1731 C1729 1.363 . S
C1731 C1733 1.408 . S
C1731 C1736 1.342 . S
C1732 C1733 1.310 . S
C1732 C1735 1.461 . S
C1732 H1752 0.932 . S
C1733 C1731 1.408 . S
C1733 C1732 1.310 . S
C1733 H1753 0.930 . S
C1734 C1735 1.474 . S
C1734 C1736 1.285 . S
C1734 H1754 0.929 . S
C1735 C1732 1.461 . S
C1735 C1734 1.474 . S
C1736 C1731 1.342 . S
C1736 C1734 1.285 . S
C1736 H1755 0.930 . S
C1737 C1740 1.424 . S
C1737 C1742 1.245 . S
C1737 C1743 1.428 . S
C1738 C1741 1.260 . S
C1738 C1742 1.477 . S
C1738 H1756 0.932 . S
C1739 C1740 1.384 . S
C1739 C1741 1.479 . S
C1739 H1757 0.929 . S
C1740 C1737 1.424 . S
C1740 C1739 1.384 . S
C1740 H1758 0.928 . S
C1741 C1738 1.260 . S
C1741 C1739 1.479 . S
C1742 C1737 1.245 . S
C1742 C1738 1.477 . S
C1742 H1759 0.932 . S
C1743 U1726 2.882 . S
C1743 C1737 1.428 . S
C1743 O1746 1.301 . S
C1743 O1747 1.282 . S
O1744 U1726 2.441 . S
O1744 C1730 1.249 . S
O1745 U1726 2.420 . S
O1745 C1730 1.202 . S
O1746 U1726 2.455 . S
O1746 C1743 1.301 . S
O1747 U1726 2.449 . S
O1747 C1743 1.282 . S
H1748 C1721 0.931 . S
H1749 C1723 0.929 . S
H1750 C1724 0.930 . S
H1751 C1725 0.931 . S
H1752 C1732 0.932 . S
H1753 C1733 0.930 . S
H1754 C1734 0.929 . S
H1755 C1736 0.930 . S
H1756 C1738 0.932 . S
H1757 C1739 0.929 . S
H1758 C1740 0.928 . S
H1759 C1742 0.932 . S
C1760 C1761 1.264 . S
C1760 C1765 1.479 . S
C1760 C1770 1.465 . S
C1761 C1760 1.264 . S
C1761 C1763 1.339 . S
C1761 H1788 0.931 . S
C1762 C1763 1.395 . S
C1762 C1764 1.320 . S
C1763 C1761 1.339 . S
C1763 C1762 1.395 . S
C1763 H1789 0.929 . S
C1764 C1762 1.320 . S
C1764 C1765 1.405 . S
C1764 H1790 0.930 . S
C1765 C1760 1.479 . S
C1765 C1764 1.405 . S
C1765 H1791 0.931 . S
U1766 O1767 2.454 . S
U1766 O1768 2.458 . S
U1766 C1769 2.984 . S
U1766 C1770 2.847 . S
U1766 C1783 2.882 . S
U1766 O1784 2.441 . S
U1766 O1785 2.420 . S
U1766 O1786 2.455 . S
U1766 O1787 2.449 . S
O1767 U1766 2.454 . S
O1767 C1769 1.353 . S
O1768 U1766 2.458 . S
O1768 C1769 1.286 . S
C1769 U1766 2.984 . S
C1769 O1767 1.353 . S
C1769 O1768 1.286 . S
C1769 C1771 1.363 . S
C1770 C1760 1.465 . S
C1770 U1766 2.847 . S
C1770 O1784 1.249 . S
C1770 O1785 1.202 . S
C1771 C1769 1.363 . S
C1771 C1773 1.408 . S
C1771 C1776 1.342 . S
C1772 C1773 1.310 . S
C1772 C1775 1.461 . S
C1772 H1792 0.932 . S
C1773 C1771 1.408 . S
C1773 C1772 1.310 . S
C1773 H1793 0.930 . S
C1774 C1775 1.474 . S
C1774 C1776 1.285 . S
C1774 H1794 0.929 . S
C1775 C1772 1.461 . S
C1775 C1774 1.474 . S
C1776 C1771 1.342 . S
C1776 C1774 1.285 . S
C1776 H1795 0.930 . S
C1777 C1780 1.424 . S
C1777 C1782 1.245 . S
C1777 C1783 1.428 . S
C1778 C1781 1.260 . S
C1778 C1782 1.477 . S
C1778 H1796 0.932 . S
C1779 C1780 1.384 . S
C1779 C1781 1.479 . S
C1779 H1797 0.929 . S
C1780 C1777 1.424 . S
C1780 C1779 1.384 . S
C1780 H1798 0.928 . S
C1781 C1778 1.260 . S
C1781 C1779 1.479 . S
C1782 C1777 1.245 . S
C1782 C1778 1.477 . S
C1782 H1799 0.932 . S
C1783 U1766 2.882 . S
C1783 C1777 1.428 . S
C1783 O1786 1.301 . S
C1783 O1787 1.282 . S
O1784 U1766 2.441 . S
O1784 C1770 1.249 . S
O1785 U1766 2.420 . S
O1785 C1770 1.202 . S
O1786 U1766 2.455 . S
O1786 C1783 1.301 . S
O1787 U1766 2.449 . S
O1787 C1783 1.282 . S
H1788 C1761 0.931 . S
H1789 C1763 0.929 . S
H1790 C1764 0.930 . S
H1791 C1765 0.931 . S
H1792 C1772 0.932 . S
H1793 C1773 0.930 . S
H1794 C1774 0.929 . S
H1795 C1776 0.930 . S
H1796 C1778 0.932 . S
H1797 C1779 0.929 . S
H1798 C1780 0.928 . S
H1799 C1782 0.932 . S
C1800 C1801 1.264 . S
C1800 C1805 1.479 . S
C1800 C1810 1.465 . S
C1801 C1800 1.264 . S
C1801 C1803 1.339 . S
C1801 H1828 0.931 . S
C1802 C1803 1.395 . S
C1802 C1804 1.320 . S
C1803 C1801 1.339 . S
C1803 C1802 1.395 . S
C1803 H1829 0.929 . S
C1804 C1802 1.320 . S
C1804 C1805 1.405 . S
C1804 H1830 0.930 . S
C1805 C1800 1.479 . S
C1805 C1804 1.405 . S
C1805 H1831 0.931 . S
U1806 O1807 2.454 . S
U1806 O1808 2.458 . S
U1806 C1809 2.984 . S
U1806 C1810 2.847 . S
U1806 C1823 2.882 . S
U1806 O1824 2.441 . S
U1806 O1825 2.420 . S
U1806 O1826 2.455 . S
U1806 O1827 2.449 . S
O1807 U1806 2.454 . S
O1807 C1809 1.353 . S
O1808 U1806 2.458 . S
O1808 C1809 1.286 . S
C1809 U1806 2.984 . S
C1809 O1807 1.353 . S
C1809 O1808 1.286 . S
C1809 C1811 1.363 . S
C1810 C1800 1.465 . S
C1810 U1806 2.847 . S
C1810 O1824 1.249 . S
C1810 O1825 1.202 . S
C1811 C1809 1.363 . S
C1811 C1813 1.408 . S
C1811 C1816 1.342 . S
C1812 C1813 1.310 . S
C1812 C1815 1.461 . S
C1812 H1832 0.932 . S
C1813 C1811 1.408 . S
C1813 C1812 1.310 . S
C1813 H1833 0.930 . S
C1814 C1815 1.474 . S
C1814 C1816 1.285 . S
C1814 H1834 0.929 . S
C1815 C1812 1.461 . S
C1815 C1814 1.474 . S
C1816 C1811 1.342 . S
C1816 C1814 1.285 . S
C1816 H1835 0.930 . S
C1817 C1820 1.424 . S
C1817 C1822 1.245 . S
C1817 C1823 1.428 . S
C1818 C1821 1.260 . S
C1818 C1822 1.477 . S
C1818 H1836 0.932 . S
C1819 C1820 1.384 . S
C1819 C1821 1.479 . S
C1819 H1837 0.929 . S
C1820 C1817 1.424 . S
C1820 C1819 1.384 . S
C1820 H1838 0.928 . S
C1821 C1818 1.260 . S
C1821 C1819 1.479 . S
C1822 C1817 1.245 . S
C1822 C1818 1.477 . S
C1822 H1839 0.932 . S
C1823 U1806 2.882 . S
C1823 C1817 1.428 . S
C1823 O1826 1.301 . S
C1823 O1827 1.282 . S
O1824 U1806 2.441 . S
O1824 C1810 1.249 . S
O1825 U1806 2.420 . S
O1825 C1810 1.202 . S
O1826 U1806 2.455 . S
O1826 C1823 1.301 . S
O1827 U1806 2.449 . S
O1827 C1823 1.282 . S
H1828 C1801 0.931 . S
H1829 C1803 0.929 . S
H1830 C1804 0.930 . S
H1831 C1805 0.931 . S
H1832 C1812 0.932 . S
H1833 C1813 0.930 . S
H1834 C1814 0.929 . S
H1835 C1816 0.930 . S
H1836 C1818 0.932 . S
H1837 C1819 0.929 . S
H1838 C1820 0.928 . S
H1839 C1822 0.932 . S
C1840 C1841 1.264 . S
C1840 C1845 1.479 . S
C1840 C1850 1.465 . S
C1841 C1840 1.264 . S
C1841 C1843 1.339 . S
C1841 H1868 0.931 . S
C1842 C1843 1.395 . S
C1842 C1844 1.320 . S
C1843 C1841 1.339 . S
C1843 C1842 1.395 . S
C1843 H1869 0.929 . S
C1844 C1842 1.320 . S
C1844 C1845 1.405 . S
C1844 H1870 0.930 . S
C1845 C1840 1.479 . S
C1845 C1844 1.405 . S
C1845 H1871 0.931 . S
U1846 O1847 2.454 . S
U1846 O1848 2.458 . S
U1846 C1849 2.984 . S
U1846 C1850 2.847 . S
U1846 C1863 2.882 . S
U1846 O1864 2.441 . S
U1846 O1865 2.420 . S
U1846 O1866 2.455 . S
U1846 O1867 2.449 . S
O1847 U1846 2.454 . S
O1847 C1849 1.353 . S
O1848 U1846 2.458 . S
O1848 C1849 1.286 . S
C1849 U1846 2.984 . S
C1849 O1847 1.353 . S
C1849 O1848 1.286 . S
C1849 C1851 1.363 . S
C1850 C1840 1.465 . S
C1850 U1846 2.847 . S
C1850 O1864 1.249 . S
C1850 O1865 1.202 . S
C1851 C1849 1.363 . S
C1851 C1853 1.408 . S
C1851 C1856 1.342 . S
C1852 C1853 1.310 . S
C1852 C1855 1.461 . S
C1852 H1872 0.932 . S
C1853 C1851 1.408 . S
C1853 C1852 1.310 . S
C1853 H1873 0.930 . S
C1854 C1855 1.474 . S
C1854 C1856 1.285 . S
C1854 H1874 0.929 . S
C1855 C1852 1.461 . S
C1855 C1854 1.474 . S
C1856 C1851 1.342 . S
C1856 C1854 1.285 . S
C1856 H1875 0.930 . S
C1857 C1860 1.424 . S
C1857 C1862 1.245 . S
C1857 C1863 1.428 . S
C1858 C1861 1.260 . S
C1858 C1862 1.477 . S
C1858 H1876 0.932 . S
C1859 C1860 1.384 . S
C1859 C1861 1.479 . S
C1859 H1877 0.929 . S
C1860 C1857 1.424 . S
C1860 C1859 1.384 . S
C1860 H1878 0.928 . S
C1861 C1858 1.260 . S
C1861 C1859 1.479 . S
C1862 C1857 1.245 . S
C1862 C1858 1.477 . S
C1862 H1879 0.932 . S
C1863 U1846 2.882 . S
C1863 C1857 1.428 . S
C1863 O1866 1.301 . S
C1863 O1867 1.282 . S
O1864 U1846 2.441 . S
O1864 C1850 1.249 . S
O1865 U1846 2.420 . S
O1865 C1850 1.202 . S
O1866 U1846 2.455 . S
O1866 C1863 1.301 . S
O1867 U1846 2.449 . S
O1867 C1863 1.282 . S
H1868 C1841 0.931 . S
H1869 C1843 0.929 . S
H1870 C1844 0.930 . S
H1871 C1845 0.931 . S
H1872 C1852 0.932 . S
H1873 C1853 0.930 . S
H1874 C1854 0.929 . S
H1875 C1856 0.930 . S
H1876 C1858 0.932 . S
H1877 C1859 0.929 . S
H1878 C1860 0.928 . S
H1879 C1862 0.932 . S
C1880 C1881 1.264 . S
C1880 C1885 1.479 . S
C1880 C1890 1.465 . S
C1881 C1880 1.264 . S
C1881 C1883 1.339 . S
C1881 H1908 0.931 . S
C1882 C1883 1.395 . S
C1882 C1884 1.320 . S
C1883 C1881 1.339 . S
C1883 C1882 1.395 . S
C1883 H1909 0.929 . S
C1884 C1882 1.320 . S
C1884 C1885 1.405 . S
C1884 H1910 0.930 . S
C1885 C1880 1.479 . S
C1885 C1884 1.405 . S
C1885 H1911 0.931 . S
U1886 O1887 2.454 . S
U1886 O1888 2.458 . S
U1886 C1889 2.984 . S
U1886 C1890 2.847 . S
U1886 C1903 2.882 . S
U1886 O1904 2.441 . S
U1886 O1905 2.420 . S
U1886 O1906 2.455 . S
U1886 O1907 2.449 . S
O1887 U1886 2.454 . S
O1887 C1889 1.353 . S
O1888 U1886 2.458 . S
O1888 C1889 1.286 . S
C1889 U1886 2.984 . S
C1889 O1887 1.353 . S
C1889 O1888 1.286 . S
C1889 C1891 1.363 . S
C1890 C1880 1.465 . S
C1890 U1886 2.847 . S
C1890 O1904 1.249 . S
C1890 O1905 1.202 . S
C1891 C1889 1.363 . S
C1891 C1893 1.408 . S
C1891 C1896 1.342 . S
C1892 C1893 1.310 . S
C1892 C1895 1.461 . S
C1892 H1912 0.932 . S
C1893 C1891 1.408 . S
C1893 C1892 1.310 . S
C1893 H1913 0.930 . S
C1894 C1895 1.474 . S
C1894 C1896 1.285 . S
C1894 H1914 0.929 . S
C1895 C1892 1.461 . S
C1895 C1894 1.474 . S
C1896 C1891 1.342 . S
C1896 C1894 1.285 . S
C1896 H1915 0.930 . S
C1897 C1900 1.424 . S
C1897 C1902 1.245 . S
C1897 C1903 1.428 . S
C1898 C1901 1.260 . S
C1898 C1902 1.477 . S
C1898 H1916 0.932 . S
C1899 C1900 1.384 . S
C1899 C1901 1.479 . S
C1899 H1917 0.929 . S
C1900 C1897 1.424 . S
C1900 C1899 1.384 . S
C1900 H1918 0.928 . S
C1901 C1898 1.260 . S
C1901 C1899 1.479 . S
C1902 C1897 1.245 . S
C1902 C1898 1.477 . S
C1902 H1919 0.932 . S
C1903 U1886 2.882 . S
C1903 C1897 1.428 . S
C1903 O1906 1.301 . S
C1903 O1907 1.282 . S
O1904 U1886 2.441 . S
O1904 C1890 1.249 . S
O1905 U1886 2.420 . S
O1905 C1890 1.202 . S
O1906 U1886 2.455 . S
O1906 C1903 1.301 . S
O1907 U1886 2.449 . S
O1907 C1903 1.282 . S
H1908 C1881 0.931 . S
H1909 C1883 0.929 . S
H1910 C1884 0.930 . S
H1911 C1885 0.931 . S
H1912 C1892 0.932 . S
H1913 C1893 0.930 . S
H1914 C1894 0.929 . S
H1915 C1896 0.930 . S
H1916 C1898 0.932 . S
H1917 C1899 0.929 . S
H1918 C1900 0.928 . S
H1919 C1902 0.932 . S
C1920 C1921 1.264 . S
C1920 C1925 1.479 . S
C1920 C1930 1.465 . S
C1921 C1920 1.264 . S
C1921 C1923 1.339 . S
C1921 H1948 0.931 . S
C1922 C1923 1.395 . S
C1922 C1924 1.320 . S
C1923 C1921 1.339 . S
C1923 C1922 1.395 . S
C1923 H1949 0.929 . S
C1924 C1922 1.320 . S
C1924 C1925 1.405 . S
C1924 H1950 0.930 . S
C1925 C1920 1.479 . S
C1925 C1924 1.405 . S
C1925 H1951 0.931 . S
U1926 O1927 2.454 . S
U1926 O1928 2.458 . S
U1926 C1929 2.984 . S
U1926 C1930 2.847 . S
U1926 C1943 2.882 . S
U1926 O1944 2.441 . S
U1926 O1945 2.420 . S
U1926 O1946 2.455 . S
U1926 O1947 2.449 . S
O1927 U1926 2.454 . S
O1927 C1929 1.353 . S
O1928 U1926 2.458 . S
O1928 C1929 1.286 . S
C1929 U1926 2.984 . S
C1929 O1927 1.353 . S
C1929 O1928 1.286 . S
C1929 C1931 1.363 . S
C1930 C1920 1.465 . S
C1930 U1926 2.847 . S
C1930 O1944 1.249 . S
C1930 O1945 1.202 . S
C1931 C1929 1.363 . S
C1931 C1933 1.408 . S
C1931 C1936 1.342 . S
C1932 C1933 1.310 . S
C1932 C1935 1.461 . S
C1932 H1952 0.932 . S
C1933 C1931 1.408 . S
C1933 C1932 1.310 . S
C1933 H1953 0.930 . S
C1934 C1935 1.474 . S
C1934 C1936 1.285 . S
C1934 H1954 0.929 . S
C1935 C1932 1.461 . S
C1935 C1934 1.474 . S
C1936 C1931 1.342 . S
C1936 C1934 1.285 . S
C1936 H1955 0.930 . S
C1937 C1940 1.424 . S
C1937 C1942 1.245 . S
C1937 C1943 1.428 . S
C1938 C1941 1.260 . S
C1938 C1942 1.477 . S
C1938 H1956 0.932 . S
C1939 C1940 1.384 . S
C1939 C1941 1.479 . S
C1939 H1957 0.929 . S
C1940 C1937 1.424 . S
C1940 C1939 1.384 . S
C1940 H1958 0.928 . S
C1941 C1938 1.260 . S
C1941 C1939 1.479 . S
C1942 C1937 1.245 . S
C1942 C1938 1.477 . S
C1942 H1959 0.932 . S
C1943 U1926 2.882 . S
C1943 C1937 1.428 . S
C1943 O1946 1.301 . S
C1943 O1947 1.282 . S
O1944 U1926 2.441 . S
O1944 C1930 1.249 . S
O1945 U1926 2.420 . S
O1945 C1930 1.202 . S
O1946 U1926 2.455 . S
O1946 C1943 1.301 . S
O1947 U1926 2.449 . S
O1947 C1943 1.282 . S
H1948 C1921 0.931 . S
H1949 C1923 0.929 . S
H1950 C1924 0.930 . S
H1951 C1925 0.931 . S
H1952 C1932 0.932 . S
H1953 C1933 0.930 . S
H1954 C1934 0.929 . S
H1955 C1936 0.930 . S
H1956 C1938 0.932 . S
H1957 C1939 0.929 . S
H1958 C1940 0.928 . S
H1959 C1942 0.932 . S
C1960 C1961 1.264 . S
C1960 C1965 1.479 . S
C1960 C1970 1.465 . S
C1961 C1960 1.264 . S
C1961 C1963 1.339 . S
C1961 H1988 0.931 . S
C1962 C1963 1.395 . S
C1962 C1964 1.320 . S
C1963 C1961 1.339 . S
C1963 C1962 1.395 . S
C1963 H1989 0.929 . S
C1964 C1962 1.320 . S
C1964 C1965 1.405 . S
C1964 H1990 0.930 . S
C1965 C1960 1.479 . S
C1965 C1964 1.405 . S
C1965 H1991 0.931 . S
U1966 O1967 2.454 . S
U1966 O1968 2.458 . S
U1966 C1969 2.984 . S
U1966 C1970 2.847 . S
U1966 C1983 2.882 . S
U1966 O1984 2.441 . S
U1966 O1985 2.420 . S
U1966 O1986 2.455 . S
U1966 O1987 2.449 . S
O1967 U1966 2.454 . S
O1967 C1969 1.353 . S
O1968 U1966 2.458 . S
O1968 C1969 1.286 . S
C1969 U1966 2.984 . S
C1969 O1967 1.353 . S
C1969 O1968 1.286 . S
C1969 C1971 1.363 . S
C1970 C1960 1.465 . S
C1970 U1966 2.847 . S
C1970 O1984 1.249 . S
C1970 O1985 1.202 . S
C1971 C1969 1.363 . S
C1971 C1973 1.408 . S
C1971 C1976 1.342 . S
C1972 C1973 1.310 . S
C1972 C1975 1.461 . S
C1972 H1992 0.932 . S
C1973 C1971 1.408 . S
C1973 C1972 1.310 . S
C1973 H1993 0.930 . S
C1974 C1975 1.474 . S
C1974 C1976 1.285 . S
C1974 H1994 0.929 . S
C1975 C1972 1.461 . S
C1975 C1974 1.474 . S
C1976 C1971 1.342 . S
C1976 C1974 1.285 . S
C1976 H1995 0.930 . S
C1977 C1980 1.424 . S
C1977 C1982 1.245 . S
C1977 C1983 1.428 . S
C1978 C1981 1.260 . S
C1978 C1982 1.477 . S
C1978 H1996 0.932 . S
C1979 C1980 1.384 . S
C1979 C1981 1.479 . S
C1979 H1997 0.929 . S
C1980 C1977 1.424 . S
C1980 C1979 1.384 . S
C1980 H1998 0.928 . S
C1981 C1978 1.260 . S
C1981 C1979 1.479 . S
C1982 C1977 1.245 . S
C1982 C1978 1.477 . S
C1982 H1999 0.932 . S
C1983 U1966 2.882 . S
C1983 C1977 1.428 . S
C1983 O1986 1.301 . S
C1983 O1987 1.282 . S
O1984 U1966 2.441 . S
O1984 C1970 1.249 . S
O1985 U1966 2.420 . S
O1985 C1970 1.202 . S
O1986 U1966 2.455 . S
O1986 C1983 1.301 . S
O1987 U1966 2.449 . S
O1987 C1983 1.282 . S
H1988 C1961 0.931 . S
H1989 C1963 0.929 . S
H1990 C1964 0.930 . S
H1991 C1965 0.931 . S
H1992 C1972 0.932 . S
H1993 C1973 0.930 . S
H1994 C1974 0.929 . S
H1995 C1976 0.930 . S
H1996 C1978 0.932 . S
H1997 C1979 0.929 . S
H1998 C1980 0.928 . S
H1999 C1982 0.932 . S
C2000 C2001 1.264 . S
C2000 C2005 1.479 . S
C2000 C2010 1.465 . S
C2001 C2000 1.264 . S
C2001 C2003 1.339 . S
C2001 H2028 0.931 . S
C2002 C2003 1.395 . S
C2002 C2004 1.320 . S
C2003 C2001 1.339 . S
C2003 C2002 1.395 . S
C2003 H2029 0.929 . S
C2004 C2002 1.320 . S
C2004 C2005 1.405 . S
C2004 H2030 0.930 . S
C2005 C2000 1.479 . S
C2005 C2004 1.405 . S
C2005 H2031 0.931 . S
U2006 O2007 2.454 . S
U2006 O2008 2.458 . S
U2006 C2009 2.984 . S
U2006 C2010 2.847 . S
U2006 C2023 2.882 . S
U2006 O2024 2.441 . S
U2006 O2025 2.420 . S
U2006 O2026 2.455 . S
U2006 O2027 2.449 . S
O2007 U2006 2.454 . S
O2007 C2009 1.353 . S
O2008 U2006 2.458 . S
O2008 C2009 1.286 . S
C2009 U2006 2.984 . S
C2009 O2007 1.353 . S
C2009 O2008 1.286 . S
C2009 C2011 1.363 . S
C2010 C2000 1.465 . S
C2010 U2006 2.847 . S
C2010 O2024 1.249 . S
C2010 O2025 1.202 . S
C2011 C2009 1.363 . S
C2011 C2013 1.408 . S
C2011 C2016 1.342 . S
C2012 C2013 1.310 . S
C2012 C2015 1.461 . S
C2012 H2032 0.932 . S
C2013 C2011 1.408 . S
C2013 C2012 1.310 . S
C2013 H2033 0.930 . S
C2014 C2015 1.474 . S
C2014 C2016 1.285 . S
C2014 H2034 0.929 . S
C2015 C2012 1.461 . S
C2015 C2014 1.474 . S
C2016 C2011 1.342 . S
C2016 C2014 1.285 . S
C2016 H2035 0.930 . S
C2017 C2020 1.424 . S
C2017 C2022 1.245 . S
C2017 C2023 1.428 . S
C2018 C2021 1.260 . S
C2018 C2022 1.477 . S
C2018 H2036 0.932 . S
C2019 C2020 1.384 . S
C2019 C2021 1.479 . S
C2019 H2037 0.929 . S
C2020 C2017 1.424 . S
C2020 C2019 1.384 . S
C2020 H2038 0.928 . S
C2021 C2018 1.260 . S
C2021 C2019 1.479 . S
C2022 C2017 1.245 . S
C2022 C2018 1.477 . S
C2022 H2039 0.932 . S
C2023 U2006 2.882 . S
C2023 C2017 1.428 . S
C2023 O2026 1.301 . S
C2023 O2027 1.282 . S
O2024 U2006 2.441 . S
O2024 C2010 1.249 . S
O2025 U2006 2.420 . S
O2025 C2010 1.202 . S
O2026 U2006 2.455 . S
O2026 C2023 1.301 . S
O2027 U2006 2.449 . S
O2027 C2023 1.282 . S
H2028 C2001 0.931 . S
H2029 C2003 0.929 . S
H2030 C2004 0.930 . S
H2031 C2005 0.931 . S
H2032 C2012 0.932 . S
H2033 C2013 0.930 . S
H2034 C2014 0.929 . S
H2035 C2016 0.930 . S
H2036 C2018 0.932 . S
H2037 C2019 0.929 . S
H2038 C2020 0.928 . S
H2039 C2022 0.932 . S
C2040 C2041 1.264 . S
C2040 C2045 1.479 . S
C2040 C2050 1.465 . S
C2041 C2040 1.264 . S
C2041 C2043 1.339 . S
C2041 H2068 0.931 . S
C2042 C2043 1.395 . S
C2042 C2044 1.320 . S
C2043 C2041 1.339 . S
C2043 C2042 1.395 . S
C2043 H2069 0.929 . S
C2044 C2042 1.320 . S
C2044 C2045 1.405 . S
C2044 H2070 0.930 . S
C2045 C2040 1.479 . S
C2045 C2044 1.405 . S
C2045 H2071 0.931 . S
U2046 O2047 2.454 . S
U2046 O2048 2.458 . S
U2046 C2049 2.984 . S
U2046 C2050 2.847 . S
U2046 C2063 2.882 . S
U2046 O2064 2.441 . S
U2046 O2065 2.420 . S
U2046 O2066 2.455 . S
U2046 O2067 2.449 . S
O2047 U2046 2.454 . S
O2047 C2049 1.353 . S
O2048 U2046 2.458 . S
O2048 C2049 1.286 . S
C2049 U2046 2.984 . S
C2049 O2047 1.353 . S
C2049 O2048 1.286 . S
C2049 C2051 1.363 . S
C2050 C2040 1.465 . S
C2050 U2046 2.847 . S
C2050 O2064 1.249 . S
C2050 O2065 1.202 . S
C2051 C2049 1.363 . S
C2051 C2053 1.408 . S
C2051 C2056 1.342 . S
C2052 C2053 1.310 . S
C2052 C2055 1.461 . S
C2052 H2072 0.932 . S
C2053 C2051 1.408 . S
C2053 C2052 1.310 . S
C2053 H2073 0.930 . S
C2054 C2055 1.474 . S
C2054 C2056 1.285 . S
C2054 H2074 0.929 . S
C2055 C2052 1.461 . S
C2055 C2054 1.474 . S
C2056 C2051 1.342 . S
C2056 C2054 1.285 . S
C2056 H2075 0.930 . S
C2057 C2060 1.424 . S
C2057 C2062 1.245 . S
C2057 C2063 1.428 . S
C2058 C2061 1.260 . S
C2058 C2062 1.477 . S
C2058 H2076 0.932 . S
C2059 C2060 1.384 . S
C2059 C2061 1.479 . S
C2059 H2077 0.929 . S
C2060 C2057 1.424 . S
C2060 C2059 1.384 . S
C2060 H2078 0.928 . S
C2061 C2058 1.260 . S
C2061 C2059 1.479 . S
C2062 C2057 1.245 . S
C2062 C2058 1.477 . S
C2062 H2079 0.932 . S
C2063 U2046 2.882 . S
C2063 C2057 1.428 . S
C2063 O2066 1.301 . S
C2063 O2067 1.282 . S
O2064 U2046 2.441 . S
O2064 C2050 1.249 . S
O2065 U2046 2.420 . S
O2065 C2050 1.202 . S
O2066 U2046 2.455 . S
O2066 C2063 1.301 . S
O2067 U2046 2.449 . S
O2067 C2063 1.282 . S
H2068 C2041 0.931 . S
H2069 C2043 0.929 . S
H2070 C2044 0.930 . S
H2071 C2045 0.931 . S
H2072 C2052 0.932 . S
H2073 C2053 0.930 . S
H2074 C2054 0.929 . S
H2075 C2056 0.930 . S
H2076 C2058 0.932 . S
H2077 C2059 0.929 . S
H2078 C2060 0.928 . S
H2079 C2062 0.932 . S
C2080 C2081 1.264 . S
C2080 C2085 1.479 . S
C2080 C2090 1.465 . S
C2081 C2080 1.264 . S
C2081 C2083 1.339 . S
C2081 H2108 0.931 . S
C2082 C2083 1.395 . S
C2082 C2084 1.320 . S
C2083 C2081 1.339 . S
C2083 C2082 1.395 . S
C2083 H2109 0.929 . S
C2084 C2082 1.320 . S
C2084 C2085 1.405 . S
C2084 H2110 0.930 . S
C2085 C2080 1.479 . S
C2085 C2084 1.405 . S
C2085 H2111 0.931 . S
U2086 O2087 2.454 . S
U2086 O2088 2.458 . S
U2086 C2089 2.984 . S
U2086 C2090 2.847 . S
U2086 C2103 2.882 . S
U2086 O2104 2.441 . S
U2086 O2105 2.420 . S
U2086 O2106 2.455 . S
U2086 O2107 2.449 . S
O2087 U2086 2.454 . S
O2087 C2089 1.353 . S
O2088 U2086 2.458 . S
O2088 C2089 1.286 . S
C2089 U2086 2.984 . S
C2089 O2087 1.353 . S
C2089 O2088 1.286 . S
C2089 C2091 1.363 . S
C2090 C2080 1.465 . S
C2090 U2086 2.847 . S
C2090 O2104 1.249 . S
C2090 O2105 1.202 . S
C2091 C2089 1.363 . S
C2091 C2093 1.408 . S
C2091 C2096 1.342 . S
C2092 C2093 1.310 . S
C2092 C2095 1.461 . S
C2092 H2112 0.932 . S
C2093 C2091 1.408 . S
C2093 C2092 1.310 . S
C2093 H2113 0.930 . S
C2094 C2095 1.474 . S
C2094 C2096 1.285 . S
C2094 H2114 0.929 . S
C2095 C2092 1.461 . S
C2095 C2094 1.474 . S
C2096 C2091 1.342 . S
C2096 C2094 1.285 . S
C2096 H2115 0.930 . S
C2097 C2100 1.424 . S
C2097 C2102 1.245 . S
C2097 C2103 1.428 . S
C2098 C2101 1.260 . S
C2098 C2102 1.477 . S
C2098 H2116 0.932 . S
C2099 C2100 1.384 . S
C2099 C2101 1.479 . S
C2099 H2117 0.929 . S
C2100 C2097 1.424 . S
C2100 C2099 1.384 . S
C2100 H2118 0.928 . S
C2101 C2098 1.260 . S
C2101 C2099 1.479 . S
C2102 C2097 1.245 . S
C2102 C2098 1.477 . S
C2102 H2119 0.932 . S
C2103 U2086 2.882 . S
C2103 C2097 1.428 . S
C2103 O2106 1.301 . S
C2103 O2107 1.282 . S
O2104 U2086 2.441 . S
O2104 C2090 1.249 . S
O2105 U2086 2.420 . S
O2105 C2090 1.202 . S
O2106 U2086 2.455 . S
O2106 C2103 1.301 . S
O2107 U2086 2.449 . S
O2107 C2103 1.282 . S
H2108 C2081 0.931 . S
H2109 C2083 0.929 . S
H2110 C2084 0.930 . S
H2111 C2085 0.931 . S
H2112 C2092 0.932 . S
H2113 C2093 0.930 . S
H2114 C2094 0.929 . S
H2115 C2096 0.930 . S
H2116 C2098 0.932 . S
H2117 C2099 0.929 . S
H2118 C2100 0.928 . S
H2119 C2102 0.932 . S
C2120 C2121 1.264 . S
C2120 C2125 1.479 . S
C2120 C2130 1.465 . S
C2121 C2120 1.264 . S
C2121 C2123 1.339 . S
C2121 H2148 0.931 . S
C2122 C2123 1.395 . S
C2122 C2124 1.320 . S
C2123 C2121 1.339 . S
C2123 C2122 1.395 . S
C2123 H2149 0.929 . S
C2124 C2122 1.320 . S
C2124 C2125 1.405 . S
C2124 H2150 0.930 . S
C2125 C2120 1.479 . S
C2125 C2124 1.405 . S
C2125 H2151 0.931 . S
U2126 O2127 2.454 . S
U2126 O2128 2.458 . S
U2126 C2129 2.984 . S
U2126 C2130 2.847 . S
U2126 C2143 2.882 . S
U2126 O2144 2.441 . S
U2126 O2145 2.420 . S
U2126 O2146 2.455 . S
U2126 O2147 2.449 . S
O2127 U2126 2.454 . S
O2127 C2129 1.353 . S
O2128 U2126 2.458 . S
O2128 C2129 1.286 . S
C2129 U2126 2.984 . S
C2129 O2127 1.353 . S
C2129 O2128 1.286 . S
C2129 C2131 1.363 . S
C2130 C2120 1.465 . S
C2130 U2126 2.847 . S
C2130 O2144 1.249 . S
C2130 O2145 1.202 . S
C2131 C2129 1.363 . S
C2131 C2133 1.408 . S
C2131 C2136 1.342 . S
C2132 C2133 1.310 . S
C2132 C2135 1.461 . S
C2132 H2152 0.932 . S
C2133 C2131 1.408 . S
C2133 C2132 1.310 . S
C2133 H2153 0.930 . S
C2134 C2135 1.474 . S
C2134 C2136 1.285 . S
C2134 H2154 0.929 . S
C2135 C2132 1.461 . S
C2135 C2134 1.474 . S
C2136 C2131 1.342 . S
C2136 C2134 1.285 . S
C2136 H2155 0.930 . S
C2137 C2140 1.424 . S
C2137 C2142 1.245 . S
C2137 C2143 1.428 . S
C2138 C2141 1.260 . S
C2138 C2142 1.477 . S
C2138 H2156 0.932 . S
C2139 C2140 1.384 . S
C2139 C2141 1.479 . S
C2139 H2157 0.929 . S
C2140 C2137 1.424 . S
C2140 C2139 1.384 . S
C2140 H2158 0.928 . S
C2141 C2138 1.260 . S
C2141 C2139 1.479 . S
C2142 C2137 1.245 . S
C2142 C2138 1.477 . S
C2142 H2159 0.932 . S
C2143 U2126 2.882 . S
C2143 C2137 1.428 . S
C2143 O2146 1.301 . S
C2143 O2147 1.282 . S
O2144 U2126 2.441 . S
O2144 C2130 1.249 . S
O2145 U2126 2.420 . S
O2145 C2130 1.202 . S
O2146 U2126 2.455 . S
O2146 C2143 1.301 . S
O2147 U2126 2.449 . S
O2147 C2143 1.282 . S
H2148 C2121 0.931 . S
H2149 C2123 0.929 . S
H2150 C2124 0.930 . S
H2151 C2125 0.931 . S
H2152 C2132 0.932 . S
H2153 C2133 0.930 . S
H2154 C2134 0.929 . S
H2155 C2136 0.930 . S
H2156 C2138 0.932 . S
H2157 C2139 0.929 . S
H2158 C2140 0.928 . S
H2159 C2142 0.932 . S
C2160 C2161 1.264 . S
C2160 C2165 1.479 . S
C2160 C2170 1.465 . S
C2161 C2160 1.264 . S
C2161 C2163 1.339 . S
C2161 H2188 0.931 . S
C2162 C2163 1.395 . S
C2162 C2164 1.320 . S
C2163 C2161 1.339 . S
C2163 C2162 1.395 . S
C2163 H2189 0.929 . S
C2164 C2162 1.320 . S
C2164 C2165 1.405 . S
C2164 H2190 0.930 . S
C2165 C2160 1.479 . S
C2165 C2164 1.405 . S
C2165 H2191 0.931 . S
U2166 O2167 2.454 . S
U2166 O2168 2.458 . S
U2166 C2169 2.984 . S
U2166 C2170 2.847 . S
U2166 C2183 2.882 . S
U2166 O2184 2.441 . S
U2166 O2185 2.420 . S
U2166 O2186 2.455 . S
U2166 O2187 2.449 . S
O2167 U2166 2.454 . S
O2167 C2169 1.353 . S
O2168 U2166 2.458 . S
O2168 C2169 1.286 . S
C2169 U2166 2.984 . S
C2169 O2167 1.353 . S
C2169 O2168 1.286 . S
C2169 C2171 1.363 . S
C2170 C2160 1.465 . S
C2170 U2166 2.847 . S
C2170 O2184 1.249 . S
C2170 O2185 1.202 . S
C2171 C2169 1.363 . S
C2171 C2173 1.408 . S
C2171 C2176 1.342 . S
C2172 C2173 1.310 . S
C2172 C2175 1.461 . S
C2172 H2192 0.932 . S
C2173 C2171 1.408 . S
C2173 C2172 1.310 . S
C2173 H2193 0.930 . S
C2174 C2175 1.474 . S
C2174 C2176 1.285 . S
C2174 H2194 0.929 . S
C2175 C2172 1.461 . S
C2175 C2174 1.474 . S
C2176 C2171 1.342 . S
C2176 C2174 1.285 . S
C2176 H2195 0.930 . S
C2177 C2180 1.424 . S
C2177 C2182 1.245 . S
C2177 C2183 1.428 . S
C2178 C2181 1.260 . S
C2178 C2182 1.477 . S
C2178 H2196 0.932 . S
C2179 C2180 1.384 . S
C2179 C2181 1.479 . S
C2179 H2197 0.929 . S
C2180 C2177 1.424 . S
C2180 C2179 1.384 . S
C2180 H2198 0.928 . S
C2181 C2178 1.260 . S
C2181 C2179 1.479 . S
C2182 C2177 1.245 . S
C2182 C2178 1.477 . S
C2182 H2199 0.932 . S
C2183 U2166 2.882 . S
C2183 C2177 1.428 . S
C2183 O2186 1.301 . S
C2183 O2187 1.282 . S
O2184 U2166 2.441 . S
O2184 C2170 1.249 . S
O2185 U2166 2.420 . S
O2185 C2170 1.202 . S
O2186 U2166 2.455 . S
O2186 C2183 1.301 . S
O2187 U2166 2.449 . S
O2187 C2183 1.282 . S
H2188 C2161 0.931 . S
H2189 C2163 0.929 . S
H2190 C2164 0.930 . S
H2191 C2165 0.931 . S
H2192 C2172 0.932 . S
H2193 C2173 0.930 . S
H2194 C2174 0.929 . S
H2195 C2176 0.930 . S
H2196 C2178 0.932 . S
H2197 C2179 0.929 . S
H2198 C2180 0.928 . S
H2199 C2182 0.932 . S
C2200 C2201 1.264 . S
C2200 C2205 1.479 . S
C2200 C2210 1.465 . S
C2201 C2200 1.264 . S
C2201 C2203 1.339 . S
C2201 H2228 0.931 . S
C2202 C2203 1.395 . S
C2202 C2204 1.320 . S
C2203 C2201 1.339 . S
C2203 C2202 1.395 . S
C2203 H2229 0.929 . S
C2204 C2202 1.320 . S
C2204 C2205 1.405 . S
C2204 H2230 0.930 . S
C2205 C2200 1.479 . S
C2205 C2204 1.405 . S
C2205 H2231 0.931 . S
U2206 O2207 2.454 . S
U2206 O2208 2.458 . S
U2206 C2209 2.984 . S
U2206 C2210 2.847 . S
U2206 C2223 2.882 . S
U2206 O2224 2.441 . S
U2206 O2225 2.420 . S
U2206 O2226 2.455 . S
U2206 O2227 2.449 . S
O2207 U2206 2.454 . S
O2207 C2209 1.353 . S
O2208 U2206 2.458 . S
O2208 C2209 1.286 . S
C2209 U2206 2.984 . S
C2209 O2207 1.353 . S
C2209 O2208 1.286 . S
C2209 C2211 1.363 . S
C2210 C2200 1.465 . S
C2210 U2206 2.847 . S
C2210 O2224 1.249 . S
C2210 O2225 1.202 . S
C2211 C2209 1.363 . S
C2211 C2213 1.408 . S
C2211 C2216 1.342 . S
C2212 C2213 1.310 . S
C2212 C2215 1.461 . S
C2212 H2232 0.932 . S
C2213 C2211 1.408 . S
C2213 C2212 1.310 . S
C2213 H2233 0.930 . S
C2214 C2215 1.474 . S
C2214 C2216 1.285 . S
C2214 H2234 0.929 . S
C2215 C2212 1.461 . S
C2215 C2214 1.474 . S
C2216 C2211 1.342 . S
C2216 C2214 1.285 . S
C2216 H2235 0.930 . S
C2217 C2220 1.424 . S
C2217 C2222 1.245 . S
C2217 C2223 1.428 . S
C2218 C2221 1.260 . S
C2218 C2222 1.477 . S
C2218 H2236 0.932 . S
C2219 C2220 1.384 . S
C2219 C2221 1.479 . S
C2219 H2237 0.929 . S
C2220 C2217 1.424 . S
C2220 C2219 1.384 . S
C2220 H2238 0.928 . S
C2221 C2218 1.260 . S
C2221 C2219 1.479 . S
C2222 C2217 1.245 . S
C2222 C2218 1.477 . S
C2222 H2239 0.932 . S
C2223 U2206 2.882 . S
C2223 C2217 1.428 . S
C2223 O2226 1.301 . S
C2223 O2227 1.282 . S
O2224 U2206 2.441 . S
O2224 C2210 1.249 . S
O2225 U2206 2.420 . S
O2225 C2210 1.202 . S
O2226 U2206 2.455 . S
O2226 C2223 1.301 . S
O2227 U2206 2.449 . S
O2227 C2223 1.282 . S
H2228 C2201 0.931 . S
H2229 C2203 0.929 . S
H2230 C2204 0.930 . S
H2231 C2205 0.931 . S
H2232 C2212 0.932 . S
H2233 C2213 0.930 . S
H2234 C2214 0.929 . S
H2235 C2216 0.930 . S
H2236 C2218 0.932 . S
H2237 C2219 0.929 . S
H2238 C2220 0.928 . S
H2239 C2222 0.932 . S
C2240 C2241 1.264 . S
C2240 C2245 1.479 . S
C2240 C2250 1.465 . S
C2241 C2240 1.264 . S
C2241 C2243 1.339 . S
C2241 H2268 0.931 . S
C2242 C2243 1.395 . S
C2242 C2244 1.320 . S
C2243 C2241 1.339 . S
C2243 C2242 1.395 . S
C2243 H2269 0.929 . S
C2244 C2242 1.320 . S
C2244 C2245 1.405 . S
C2244 H2270 0.930 . S
C2245 C2240 1.479 . S
C2245 C2244 1.405 . S
C2245 H2271 0.931 . S
U2246 O2247 2.454 . S
U2246 O2248 2.458 . S
U2246 C2249 2.984 . S
U2246 C2250 2.847 . S
U2246 C2263 2.882 . S
U2246 O2264 2.441 . S
U2246 O2265 2.420 . S
U2246 O2266 2.455 . S
U2246 O2267 2.449 . S
O2247 U2246 2.454 . S
O2247 C2249 1.353 . S
O2248 U2246 2.458 . S
O2248 C2249 1.286 . S
C2249 U2246 2.984 . S
C2249 O2247 1.353 . S
C2249 O2248 1.286 . S
C2249 C2251 1.363 . S
C2250 C2240 1.465 . S
C2250 U2246 2.847 . S
C2250 O2264 1.249 . S
C2250 O2265 1.202 . S
C2251 C2249 1.363 . S
C2251 C2253 1.408 . S
C2251 C2256 1.342 . S
C2252 C2253 1.310 . S
C2252 C2255 1.461 . S
C2252 H2272 0.932 . S
C2253 C2251 1.408 . S
C2253 C2252 1.310 . S
C2253 H2273 0.930 . S
C2254 C2255 1.474 . S
C2254 C2256 1.285 . S
C2254 H2274 0.929 . S
C2255 C2252 1.461 . S
C2255 C2254 1.474 . S
C2256 C2251 1.342 . S
C2256 C2254 1.285 . S
C2256 H2275 0.930 . S
C2257 C2260 1.424 . S
C2257 C2262 1.245 . S
C2257 C2263 1.428 . S
C2258 C2261 1.260 . S
C2258 C2262 1.477 . S
C2258 H2276 0.932 . S
C2259 C2260 1.384 . S
C2259 C2261 1.479 . S
C2259 H2277 0.929 . S
C2260 C2257 1.424 . S
C2260 C2259 1.384 . S
C2260 H2278 0.928 . S
C2261 C2258 1.260 . S
C2261 C2259 1.479 . S
C2262 C2257 1.245 . S
C2262 C2258 1.477 . S
C2262 H2279 0.932 . S
C2263 U2246 2.882 . S
C2263 C2257 1.428 . S
C2263 O2266 1.301 . S
C2263 O2267 1.282 . S
O2264 U2246 2.441 . S
O2264 C2250 1.249 . S
O2265 U2246 2.420 . S
O2265 C2250 1.202 . S
O2266 U2246 2.455 . S
O2266 C2263 1.301 . S
O2267 U2246 2.449 . S
O2267 C2263 1.282 . S
H2268 C2241 0.931 . S
H2269 C2243 0.929 . S
H2270 C2244 0.930 . S
H2271 C2245 0.931 . S
H2272 C2252 0.932 . S
H2273 C2253 0.930 . S
H2274 C2254 0.929 . S
H2275 C2256 0.930 . S
H2276 C2258 0.932 . S
H2277 C2259 0.929 . S
H2278 C2260 0.928 . S
H2279 C2262 0.932 . S
C2280 C2281 1.264 . S
C2280 C2285 1.479 . S
C2280 C2290 1.465 . S
C2281 C2280 1.264 . S
C2281 C2283 1.339 . S
C2281 H2308 0.931 . S
C2282 C2283 1.395 . S
C2282 C2284 1.320 . S
C2283 C2281 1.339 . S
C2283 C2282 1.395 . S
C2283 H2309 0.929 . S
C2284 C2282 1.320 . S
C2284 C2285 1.405 . S
C2284 H2310 0.930 . S
C2285 C2280 1.479 . S
C2285 C2284 1.405 . S
C2285 H2311 0.931 . S
U2286 O2287 2.454 . S
U2286 O2288 2.458 . S
U2286 C2289 2.984 . S
U2286 C2290 2.847 . S
U2286 C2303 2.882 . S
U2286 O2304 2.441 . S
U2286 O2305 2.420 . S
U2286 O2306 2.455 . S
U2286 O2307 2.449 . S
O2287 U2286 2.454 . S
O2287 C2289 1.353 . S
O2288 U2286 2.458 . S
O2288 C2289 1.286 . S
C2289 U2286 2.984 . S
C2289 O2287 1.353 . S
C2289 O2288 1.286 . S
C2289 C2291 1.363 . S
C2290 C2280 1.465 . S
C2290 U2286 2.847 . S
C2290 O2304 1.249 . S
C2290 O2305 1.202 . S
C2291 C2289 1.363 . S
C2291 C2293 1.408 . S
C2291 C2296 1.342 . S
C2292 C2293 1.310 . S
C2292 C2295 1.461 . S
C2292 H2312 0.932 . S
C2293 C2291 1.408 . S
C2293 C2292 1.310 . S
C2293 H2313 0.930 . S
C2294 C2295 1.474 . S
C2294 C2296 1.285 . S
C2294 H2314 0.929 . S
C2295 C2292 1.461 . S
C2295 C2294 1.474 . S
C2296 C2291 1.342 . S
C2296 C2294 1.285 . S
C2296 H2315 0.930 . S
C2297 C2300 1.424 . S
C2297 C2302 1.245 . S
C2297 C2303 1.428 . S
C2298 C2301 1.260 . S
C2298 C2302 1.477 . S
C2298 H2316 0.932 . S
C2299 C2300 1.384 . S
C2299 C2301 1.479 . S
C2299 H2317 0.929 . S
C2300 C2297 1.424 . S
C2300 C2299 1.384 . S
C2300 H2318 0.928 . S
C2301 C2298 1.260 . S
C2301 C2299 1.479 . S
C2302 C2297 1.245 . S
C2302 C2298 1.477 . S
C2302 H2319 0.932 . S
C2303 U2286 2.882 . S
C2303 C2297 1.428 . S
C2303 O2306 1.301 . S
C2303 O2307 1.282 . S
O2304 U2286 2.441 . S
O2304 C2290 1.249 . S
O2305 U2286 2.420 . S
O2305 C2290 1.202 . S
O2306 U2286 2.455 . S
O2306 C2303 1.301 . S
O2307 U2286 2.449 . S
O2307 C2303 1.282 . S
H2308 C2281 0.931 . S
H2309 C2283 0.929 . S
H2310 C2284 0.930 . S
H2311 C2285 0.931 . S
H2312 C2292 0.932 . S
H2313 C2293 0.930 . S
H2314 C2294 0.929 . S
H2315 C2296 0.930 . S
H2316 C2298 0.932 . S
H2317 C2299 0.929 . S
H2318 C2300 0.928 . S
H2319 C2302 0.932 . S
C2320 C2321 1.264 . S
C2320 C2325 1.479 . S
C2320 C2330 1.465 . S
C2321 C2320 1.264 . S
C2321 C2323 1.339 . S
C2321 H2348 0.931 . S
C2322 C2323 1.395 . S
C2322 C2324 1.320 . S
C2323 C2321 1.339 . S
C2323 C2322 1.395 . S
C2323 H2349 0.929 . S
C2324 C2322 1.320 . S
C2324 C2325 1.405 . S
C2324 H2350 0.930 . S
C2325 C2320 1.479 . S
C2325 C2324 1.405 . S
C2325 H2351 0.931 . S
U2326 O2327 2.454 . S
U2326 O2328 2.458 . S
U2326 C2329 2.984 . S
U2326 C2330 2.847 . S
U2326 C2343 2.882 . S
U2326 O2344 2.441 . S
U2326 O2345 2.420 . S
U2326 O2346 2.455 . S
U2326 O2347 2.449 . S
O2327 U2326 2.454 . S
O2327 C2329 1.353 . S
O2328 U2326 2.458 . S
O2328 C2329 1.286 . S
C2329 U2326 2.984 . S
C2329 O2327 1.353 . S
C2329 O2328 1.286 . S
C2329 C2331 1.363 . S
C2330 C2320 1.465 . S
C2330 U2326 2.847 . S
C2330 O2344 1.249 . S
C2330 O2345 1.202 . S
C2331 C2329 1.363 . S
C2331 C2333 1.408 . S
C2331 C2336 1.342 . S
C2332 C2333 1.310 . S
C2332 C2335 1.461 . S
C2332 H2352 0.932 . S
C2333 C2331 1.408 . S
C2333 C2332 1.310 . S
C2333 H2353 0.930 . S
C2334 C2335 1.474 . S
C2334 C2336 1.285 . S
C2334 H2354 0.929 . S
C2335 C2332 1.461 . S
C2335 C2334 1.474 . S
C2336 C2331 1.342 . S
C2336 C2334 1.285 . S
C2336 H2355 0.930 . S
C2337 C2340 1.424 . S
C2337 C2342 1.245 . S
C2337 C2343 1.428 . S
C2338 C2341 1.260 . S
C2338 C2342 1.477 . S
C2338 H2356 0.932 . S
C2339 C2340 1.384 . S
C2339 C2341 1.479 . S
C2339 H2357 0.929 . S
C2340 C2337 1.424 . S
C2340 C2339 1.384 . S
C2340 H2358 0.928 . S
C2341 C2338 1.260 . S
C2341 C2339 1.479 . S
C2342 C2337 1.245 . S
C2342 C2338 1.477 . S
C2342 H2359 0.932 . S
C2343 U2326 2.882 . S
C2343 C2337 1.428 . S
C2343 O2346 1.301 . S
C2343 O2347 1.282 . S
O2344 U2326 2.441 . S
O2344 C2330 1.249 . S
O2345 U2326 2.420 . S
O2345 C2330 1.202 . S
O2346 U2326 2.455 . S
O2346 C2343 1.301 . S
O2347 U2326 2.449 . S
O2347 C2343 1.282 . S
H2348 C2321 0.931 . S
H2349 C2323 0.929 . S
H2350 C2324 0.930 . S
H2351 C2325 0.931 . S
H2352 C2332 0.932 . S
H2353 C2333 0.930 . S
H2354 C2334 0.929 . S
H2355 C2336 0.930 . S
H2356 C2338 0.932 . S
H2357 C2339 0.929 . S
H2358 C2340 0.928 . S
H2359 C2342 0.932 . S
C2360 C2361 1.264 . S
C2360 C2365 1.479 . S
C2360 C2370 1.465 . S
C2361 C2360 1.264 . S
C2361 C2363 1.339 . S
C2361 H2388 0.931 . S
C2362 C2363 1.395 . S
C2362 C2364 1.320 . S
C2363 C2361 1.339 . S
C2363 C2362 1.395 . S
C2363 H2389 0.929 . S
C2364 C2362 1.320 . S
C2364 C2365 1.405 . S
C2364 H2390 0.930 . S
C2365 C2360 1.479 . S
C2365 C2364 1.405 . S
C2365 H2391 0.931 . S
U2366 O2367 2.454 . S
U2366 O2368 2.458 . S
U2366 C2369 2.984 . S
U2366 C2370 2.847 . S
U2366 C2383 2.882 . S
U2366 O2384 2.441 . S
U2366 O2385 2.420 . S
U2366 O2386 2.455 . S
U2366 O2387 2.449 . S
O2367 U2366 2.454 . S
O2367 C2369 1.353 . S
O2368 U2366 2.458 . S
O2368 C2369 1.286 . S
C2369 U2366 2.984 . S
C2369 O2367 1.353 . S
C2369 O2368 1.286 . S
C2369 C2371 1.363 . S
C2370 C2360 1.465 . S
C2370 U2366 2.847 . S
C2370 O2384 1.249 . S
C2370 O2385 1.202 . S
C2371 C2369 1.363 . S
C2371 C2373 1.408 . S
C2371 C2376 1.342 . S
C2372 C2373 1.310 . S
C2372 C2375 1.461 . S
C2372 H2392 0.932 . S
C2373 C2371 1.408 . S
C2373 C2372 1.310 . S
C2373 H2393 0.930 . S
C2374 C2375 1.474 . S
C2374 C2376 1.285 . S
C2374 H2394 0.929 . S
C2375 C2372 1.461 . S
C2375 C2374 1.474 . S
C2376 C2371 1.342 . S
C2376 C2374 1.285 . S
C2376 H2395 0.930 . S
C2377 C2380 1.424 . S
C2377 C2382 1.245 . S
C2377 C2383 1.428 . S
C2378 C2381 1.260 . S
C2378 C2382 1.477 . S
C2378 H2396 0.932 . S
C2379 C2380 1.384 . S
C2379 C2381 1.479 . S
C2379 H2397 0.929 . S
C2380 C2377 1.424 . S
C2380 C2379 1.384 . S
C2380 H2398 0.928 . S
C2381 C2378 1.260 . S
C2381 C2379 1.479 . S
C2382 C2377 1.245 . S
C2382 C2378 1.477 . S
C2382 H2399 0.932 . S
C2383 U2366 2.882 . S
C2383 C2377 1.428 . S
C2383 O2386 1.301 . S
C2383 O2387 1.282 . S
O2384 U2366 2.441 . S
O2384 C2370 1.249 . S
O2385 U2366 2.420 . S
O2385 C2370 1.202 . S
O2386 U2366 2.455 . S
O2386 C2383 1.301 . S
O2387 U2366 2.449 . S
O2387 C2383 1.282 . S
H2388 C2361 0.931 . S
H2389 C2363 0.929 . S
H2390 C2364 0.930 . S
H2391 C2365 0.931 . S
H2392 C2372 0.932 . S
H2393 C2373 0.930 . S
H2394 C2374 0.929 . S
H2395 C2376 0.930 . S
H2396 C2378 0.932 . S
H2397 C2379 0.929 . S
H2398 C2380 0.928 . S
H2399 C2382 0.932 . S
C2400 C2401 1.264 . S
C2400 C2405 1.479 . S
C2400 C2410 1.465 . S
C2401 C2400 1.264 . S
C2401 C2403 1.339 . S
C2401 H2428 0.931 . S
C2402 C2403 1.395 . S
C2402 C2404 1.320 . S
C2403 C2401 1.339 . S
C2403 C2402 1.395 . S
C2403 H2429 0.929 . S
C2404 C2402 1.320 . S
C2404 C2405 1.405 . S
C2404 H2430 0.930 . S
C2405 C2400 1.479 . S
C2405 C2404 1.405 . S
C2405 H2431 0.931 . S
U2406 O2407 2.454 . S
U2406 O2408 2.458 . S
U2406 C2409 2.984 . S
U2406 C2410 2.847 . S
U2406 C2423 2.882 . S
U2406 O2424 2.441 . S
U2406 O2425 2.420 . S
U2406 O2426 2.455 . S
U2406 O2427 2.449 . S
O2407 U2406 2.454 . S
O2407 C2409 1.353 . S
O2408 U2406 2.458 . S
O2408 C2409 1.286 . S
C2409 U2406 2.984 . S
C2409 O2407 1.353 . S
C2409 O2408 1.286 . S
C2409 C2411 1.363 . S
C2410 C2400 1.465 . S
C2410 U2406 2.847 . S
C2410 O2424 1.249 . S
C2410 O2425 1.202 . S
C2411 C2409 1.363 . S
C2411 C2413 1.408 . S
C2411 C2416 1.342 . S
C2412 C2413 1.310 . S
C2412 C2415 1.461 . S
C2412 H2432 0.932 . S
C2413 C2411 1.408 . S
C2413 C2412 1.310 . S
C2413 H2433 0.930 . S
C2414 C2415 1.474 . S
C2414 C2416 1.285 . S
C2414 H2434 0.929 . S
C2415 C2412 1.461 . S
C2415 C2414 1.474 . S
C2416 C2411 1.342 . S
C2416 C2414 1.285 . S
C2416 H2435 0.930 . S
C2417 C2420 1.424 . S
C2417 C2422 1.245 . S
C2417 C2423 1.428 . S
C2418 C2421 1.260 . S
C2418 C2422 1.477 . S
C2418 H2436 0.932 . S
C2419 C2420 1.384 . S
C2419 C2421 1.479 . S
C2419 H2437 0.929 . S
C2420 C2417 1.424 . S
C2420 C2419 1.384 . S
C2420 H2438 0.928 . S
C2421 C2418 1.260 . S
C2421 C2419 1.479 . S
C2422 C2417 1.245 . S
C2422 C2418 1.477 . S
C2422 H2439 0.932 . S
C2423 U2406 2.882 . S
C2423 C2417 1.428 . S
C2423 O2426 1.301 . S
C2423 O2427 1.282 . S
O2424 U2406 2.441 . S
O2424 C2410 1.249 . S
O2425 U2406 2.420 . S
O2425 C2410 1.202 . S
O2426 U2406 2.455 . S
O2426 C2423 1.301 . S
O2427 U2406 2.449 . S
O2427 C2423 1.282 . S
H2428 C2401 0.931 . S
H2429 C2403 0.929 . S
H2430 C2404 0.930 . S
H2431 C2405 0.931 . S
H2432 C2412 0.932 . S
H2433 C2413 0.930 . S
H2434 C2414 0.929 . S
H2435 C2416 0.930 . S
H2436 C2418 0.932 . S
H2437 C2419 0.929 . S
H2438 C2420 0.928 . S
H2439 C2422 0.932 . S
C2440 C2441 1.264 . S
C2440 C2445 1.479 . S
C2440 C2450 1.465 . S
C2441 C2440 1.264 . S
C2441 C2443 1.339 . S
C2441 H2468 0.931 . S
C2442 C2443 1.395 . S
C2442 C2444 1.320 . S
C2443 C2441 1.339 . S
C2443 C2442 1.395 . S
C2443 H2469 0.929 . S
C2444 C2442 1.320 . S
C2444 C2445 1.405 . S
C2444 H2470 0.930 . S
C2445 C2440 1.479 . S
C2445 C2444 1.405 . S
C2445 H2471 0.931 . S
U2446 O2447 2.454 . S
U2446 O2448 2.458 . S
U2446 C2449 2.984 . S
U2446 C2450 2.847 . S
U2446 C2463 2.882 . S
U2446 O2464 2.441 . S
U2446 O2465 2.420 . S
U2446 O2466 2.455 . S
U2446 O2467 2.449 . S
O2447 U2446 2.454 . S
O2447 C2449 1.353 . S
O2448 U2446 2.458 . S
O2448 C2449 1.286 . S
C2449 U2446 2.984 . S
C2449 O2447 1.353 . S
C2449 O2448 1.286 . S
C2449 C2451 1.363 . S
C2450 C2440 1.465 . S
C2450 U2446 2.847 . S
C2450 O2464 1.249 . S
C2450 O2465 1.202 . S
C2451 C2449 1.363 . S
C2451 C2453 1.408 . S
C2451 C2456 1.342 . S
C2452 C2453 1.310 . S
C2452 C2455 1.461 . S
C2452 H2472 0.932 . S
C2453 C2451 1.408 . S
C2453 C2452 1.310 . S
C2453 H2473 0.930 . S
C2454 C2455 1.474 . S
C2454 C2456 1.285 . S
C2454 H2474 0.929 . S
C2455 C2452 1.461 . S
C2455 C2454 1.474 . S
C2456 C2451 1.342 . S
C2456 C2454 1.285 . S
C2456 H2475 0.930 . S
C2457 C2460 1.424 . S
C2457 C2462 1.245 . S
C2457 C2463 1.428 . S
C2458 C2461 1.260 . S
C2458 C2462 1.477 . S
C2458 H2476 0.932 . S
C2459 C2460 1.384 . S
C2459 C2461 1.479 . S
C2459 H2477 0.929 . S
C2460 C2457 1.424 . S
C2460 C2459 1.384 . S
C2460 H2478 0.928 . S
C2461 C2458 1.260 . S
C2461 C2459 1.479 . S
C2462 C2457 1.245 . S
C2462 C2458 1.477 . S
C2462 H2479 0.932 . S
C2463 U2446 2.882 . S
C2463 C2457 1.428 . S
C2463 O2466 1.301 . S
C2463 O2467 1.282 . S
O2464 U2446 2.441 . S
O2464 C2450 1.249 . S
O2465 U2446 2.420 . S
O2465 C2450 1.202 . S
O2466 U2446 2.455 . S
O2466 C2463 1.301 . S
O2467 U2446 2.449 . S
O2467 C2463 1.282 . S
H2468 C2441 0.931 . S
H2469 C2443 0.929 . S
H2470 C2444 0.930 . S
H2471 C2445 0.931 . S
H2472 C2452 0.932 . S
H2473 C2453 0.930 . S
H2474 C2454 0.929 . S
H2475 C2456 0.930 . S
H2476 C2458 0.932 . S
H2477 C2459 0.929 . S
H2478 C2460 0.928 . S
H2479 C2462 0.932 . S
C2480 C2481 1.264 . S
C2480 C2485 1.479 . S
C2480 C2490 1.465 . S
C2481 C2480 1.264 . S
C2481 C2483 1.339 . S
C2481 H2508 0.931 . S
C2482 C2483 1.395 . S
C2482 C2484 1.320 . S
C2483 C2481 1.339 . S
C2483 C2482 1.395 . S
C2483 H2509 0.929 . S
C2484 C2482 1.320 . S
C2484 C2485 1.405 . S
C2484 H2510 0.930 . S
C2485 C2480 1.479 . S
C2485 C2484 1.405 . S
C2485 H2511 0.931 . S
U2486 O2487 2.454 . S
U2486 O2488 2.458 . S
U2486 C2489 2.984 . S
U2486 C2490 2.847 . S
U2486 C2503 2.882 . S
U2486 O2504 2.441 . S
U2486 O2505 2.420 . S
U2486 O2506 2.455 . S
U2486 O2507 2.449 . S
O2487 U2486 2.454 . S
O2487 C2489 1.353 . S
O2488 U2486 2.458 . S
O2488 C2489 1.286 . S
C2489 U2486 2.984 . S
C2489 O2487 1.353 . S
C2489 O2488 1.286 . S
C2489 C2491 1.363 . S
C2490 C2480 1.465 . S
C2490 U2486 2.847 . S
C2490 O2504 1.249 . S
C2490 O2505 1.202 . S
C2491 C2489 1.363 . S
C2491 C2493 1.408 . S
C2491 C2496 1.342 . S
C2492 C2493 1.310 . S
C2492 C2495 1.461 . S
C2492 H2512 0.932 . S
C2493 C2491 1.408 . S
C2493 C2492 1.310 . S
C2493 H2513 0.930 . S
C2494 C2495 1.474 . S
C2494 C2496 1.285 . S
C2494 H2514 0.929 . S
C2495 C2492 1.461 . S
C2495 C2494 1.474 . S
C2496 C2491 1.342 . S
C2496 C2494 1.285 . S
C2496 H2515 0.930 . S
C2497 C2500 1.424 . S
C2497 C2502 1.245 . S
C2497 C2503 1.428 . S
C2498 C2501 1.260 . S
C2498 C2502 1.477 . S
C2498 H2516 0.932 . S
C2499 C2500 1.384 . S
C2499 C2501 1.479 . S
C2499 H2517 0.929 . S
C2500 C2497 1.424 . S
C2500 C2499 1.384 . S
C2500 H2518 0.928 . S
C2501 C2498 1.260 . S
C2501 C2499 1.479 . S
C2502 C2497 1.245 . S
C2502 C2498 1.477 . S
C2502 H2519 0.932 . S
C2503 U2486 2.882 . S
C2503 C2497 1.428 . S
C2503 O2506 1.301 . S
C2503 O2507 1.282 . S
O2504 U2486 2.441 . S
O2504 C2490 1.249 . S
O2505 U2486 2.420 . S
O2505 C2490 1.202 . S
O2506 U2486 2.455 . S
O2506 C2503 1.301 . S
O2507 U2486 2.449 . S
O2507 C2503 1.282 . S
H2508 C2481 0.931 . S
H2509 C2483 0.929 . S
H2510 C2484 0.930 . S
H2511 C2485 0.931 . S
H2512 C2492 0.932 . S
H2513 C2493 0.930 . S
H2514 C2494 0.929 . S
H2515 C2496 0.930 . S
H2516 C2498 0.932 . S
H2517 C2499 0.929 . S
H2518 C2500 0.928 . S
H2519 C2502 0.932 . S
C2520 C2521 1.264 . S
C2520 C2525 1.479 . S
C2520 C2530 1.465 . S
C2521 C2520 1.264 . S
C2521 C2523 1.339 . S
C2521 H2548 0.931 . S
C2522 C2523 1.395 . S
C2522 C2524 1.320 . S
C2523 C2521 1.339 . S
C2523 C2522 1.395 . S
C2523 H2549 0.929 . S
C2524 C2522 1.320 . S
C2524 C2525 1.405 . S
C2524 H2550 0.930 . S
C2525 C2520 1.479 . S
C2525 C2524 1.405 . S
C2525 H2551 0.931 . S
U2526 O2527 2.454 . S
U2526 O2528 2.458 . S
U2526 C2529 2.984 . S
U2526 C2530 2.847 . S
U2526 C2543 2.882 . S
U2526 O2544 2.441 . S
U2526 O2545 2.420 . S
U2526 O2546 2.455 . S
U2526 O2547 2.449 . S
O2527 U2526 2.454 . S
O2527 C2529 1.353 . S
O2528 U2526 2.458 . S
O2528 C2529 1.286 . S
C2529 U2526 2.984 . S
C2529 O2527 1.353 . S
C2529 O2528 1.286 . S
C2529 C2531 1.363 . S
C2530 C2520 1.465 . S
C2530 U2526 2.847 . S
C2530 O2544 1.249 . S
C2530 O2545 1.202 . S
C2531 C2529 1.363 . S
C2531 C2533 1.408 . S
C2531 C2536 1.342 . S
C2532 C2533 1.310 . S
C2532 C2535 1.461 . S
C2532 H2552 0.932 . S
C2533 C2531 1.408 . S
C2533 C2532 1.310 . S
C2533 H2553 0.930 . S
C2534 C2535 1.474 . S
C2534 C2536 1.285 . S
C2534 H2554 0.929 . S
C2535 C2532 1.461 . S
C2535 C2534 1.474 . S
C2536 C2531 1.342 . S
C2536 C2534 1.285 . S
C2536 H2555 0.930 . S
C2537 C2540 1.424 . S
C2537 C2542 1.245 . S
C2537 C2543 1.428 . S
C2538 C2541 1.260 . S
C2538 C2542 1.477 . S
C2538 H2556 0.932 . S
C2539 C2540 1.384 . S
C2539 C2541 1.479 . S
C2539 H2557 0.929 . S
C2540 C2537 1.424 . S
C2540 C2539 1.384 . S
C2540 H2558 0.928 . S
C2541 C2538 1.260 . S
C2541 C2539 1.479 . S
C2542 C2537 1.245 . S
C2542 C2538 1.477 . S
C2542 H2559 0.932 . S
C2543 U2526 2.882 . S
C2543 C2537 1.428 . S
C2543 O2546 1.301 . S
C2543 O2547 1.282 . S
O2544 U2526 2.441 . S
O2544 C2530 1.249 . S
O2545 U2526 2.420 . S
O2545 C2530 1.202 . S
O2546 U2526 2.455 . S
O2546 C2543 1.301 . S
O2547 U2526 2.449 . S
O2547 C2543 1.282 . S
H2548 C2521 0.931 . S
H2549 C2523 0.929 . S
H2550 C2524 0.930 . S
H2551 C2525 0.931 . S
H2552 C2532 0.932 . S
H2553 C2533 0.930 . S
H2554 C2534 0.929 . S
H2555 C2536 0.930 . S
H2556 C2538 0.932 . S
H2557 C2539 0.929 . S
H2558 C2540 0.928 . S
H2559 C2542 0.932 . S
C2560 C2561 1.264 . S
C2560 C2565 1.479 . S
C2560 C2570 1.465 . S
C2561 C2560 1.264 . S
C2561 C2563 1.339 . S
C2561 H2588 0.931 . S
C2562 C2563 1.395 . S
C2562 C2564 1.320 . S
C2563 C2561 1.339 . S
C2563 C2562 1.395 . S
C2563 H2589 0.929 . S
C2564 C2562 1.320 . S
C2564 C2565 1.405 . S
C2564 H2590 0.930 . S
C2565 C2560 1.479 . S
C2565 C2564 1.405 . S
C2565 H2591 0.931 . S
U2566 O2567 2.454 . S
U2566 O2568 2.458 . S
U2566 C2569 2.984 . S
U2566 C2570 2.847 . S
U2566 C2583 2.882 . S
U2566 O2584 2.441 . S
U2566 O2585 2.420 . S
U2566 O2586 2.455 . S
U2566 O2587 2.449 . S
O2567 U2566 2.454 . S
O2567 C2569 1.353 . S
O2568 U2566 2.458 . S
O2568 C2569 1.286 . S
C2569 U2566 2.984 . S
C2569 O2567 1.353 . S
C2569 O2568 1.286 . S
C2569 C2571 1.363 . S
C2570 C2560 1.465 . S
C2570 U2566 2.847 . S
C2570 O2584 1.249 . S
C2570 O2585 1.202 . S
C2571 C2569 1.363 . S
C2571 C2573 1.408 . S
C2571 C2576 1.342 . S
C2572 C2573 1.310 . S
C2572 C2575 1.461 . S
C2572 H2592 0.932 . S
C2573 C2571 1.408 . S
C2573 C2572 1.310 . S
C2573 H2593 0.930 . S
C2574 C2575 1.474 . S
C2574 C2576 1.285 . S
C2574 H2594 0.929 . S
C2575 C2572 1.461 . S
C2575 C2574 1.474 . S
C2576 C2571 1.342 . S
C2576 C2574 1.285 . S
C2576 H2595 0.930 . S
C2577 C2580 1.424 . S
C2577 C2582 1.245 . S
C2577 C2583 1.428 . S
C2578 C2581 1.260 . S
C2578 C2582 1.477 . S
C2578 H2596 0.932 . S
C2579 C2580 1.384 . S
C2579 C2581 1.479 . S
C2579 H2597 0.929 . S
C2580 C2577 1.424 . S
C2580 C2579 1.384 . S
C2580 H2598 0.928 . S
C2581 C2578 1.260 . S
C2581 C2579 1.479 . S
C2582 C2577 1.245 . S
C2582 C2578 1.477 . S
C2582 H2599 0.932 . S
C2583 U2566 2.882 . S
C2583 C2577 1.428 . S
C2583 O2586 1.301 . S
C2583 O2587 1.282 . S
O2584 U2566 2.441 . S
O2584 C2570 1.249 . S
O2585 U2566 2.420 . S
O2585 C2570 1.202 . S
O2586 U2566 2.455 . S
O2586 C2583 1.301 . S
O2587 U2566 2.449 . S
O2587 C2583 1.282 . S
H2588 C2561 0.931 . S
H2589 C2563 0.929 . S
H2590 C2564 0.930 . S
H2591 C2565 0.931 . S
H2592 C2572 0.932 . S
H2593 C2573 0.930 . S
H2594 C2574 0.929 . S
H2595 C2576 0.930 . S
H2596 C2578 0.932 . S
H2597 C2579 0.929 . S
H2598 C2580 0.928 . S
H2599 C2582 0.932 . S
C2600 C2601 1.264 . S
C2600 C2605 1.479 . S
C2600 C2610 1.465 . S
C2601 C2600 1.264 . S
C2601 C2603 1.339 . S
C2601 H2628 0.931 . S
C2602 C2603 1.395 . S
C2602 C2604 1.320 . S
C2603 C2601 1.339 . S
C2603 C2602 1.395 . S
C2603 H2629 0.929 . S
C2604 C2602 1.320 . S
C2604 C2605 1.405 . S
C2604 H2630 0.930 . S
C2605 C2600 1.479 . S
C2605 C2604 1.405 . S
C2605 H2631 0.931 . S
U2606 O2607 2.454 . S
U2606 O2608 2.458 . S
U2606 C2609 2.984 . S
U2606 C2610 2.847 . S
U2606 C2623 2.882 . S
U2606 O2624 2.441 . S
U2606 O2625 2.420 . S
U2606 O2626 2.455 . S
U2606 O2627 2.449 . S
O2607 U2606 2.454 . S
O2607 C2609 1.353 . S
O2608 U2606 2.458 . S
O2608 C2609 1.286 . S
C2609 U2606 2.984 . S
C2609 O2607 1.353 . S
C2609 O2608 1.286 . S
C2609 C2611 1.363 . S
C2610 C2600 1.465 . S
C2610 U2606 2.847 . S
C2610 O2624 1.249 . S
C2610 O2625 1.202 . S
C2611 C2609 1.363 . S
C2611 C2613 1.408 . S
C2611 C2616 1.342 . S
C2612 C2613 1.310 . S
C2612 C2615 1.461 . S
C2612 H2632 0.932 . S
C2613 C2611 1.408 . S
C2613 C2612 1.310 . S
C2613 H2633 0.930 . S
C2614 C2615 1.474 . S
C2614 C2616 1.285 . S
C2614 H2634 0.929 . S
C2615 C2612 1.461 . S
C2615 C2614 1.474 . S
C2616 C2611 1.342 . S
C2616 C2614 1.285 . S
C2616 H2635 0.930 . S
C2617 C2620 1.424 . S
C2617 C2622 1.245 . S
C2617 C2623 1.428 . S
C2618 C2621 1.260 . S
C2618 C2622 1.477 . S
C2618 H2636 0.932 . S
C2619 C2620 1.384 . S
C2619 C2621 1.479 . S
C2619 H2637 0.929 . S
C2620 C2617 1.424 . S
C2620 C2619 1.384 . S
C2620 H2638 0.928 . S
C2621 C2618 1.260 . S
C2621 C2619 1.479 . S
C2622 C2617 1.245 . S
C2622 C2618 1.477 . S
C2622 H2639 0.932 . S
C2623 U2606 2.882 . S
C2623 C2617 1.428 . S
C2623 O2626 1.301 . S
C2623 O2627 1.282 . S
O2624 U2606 2.441 . S
O2624 C2610 1.249 . S
O2625 U2606 2.420 . S
O2625 C2610 1.202 . S
O2626 U2606 2.455 . S
O2626 C2623 1.301 . S
O2627 U2606 2.449 . S
O2627 C2623 1.282 . S
H2628 C2601 0.931 . S
H2629 C2603 0.929 . S
H2630 C2604 0.930 . S
H2631 C2605 0.931 . S
H2632 C2612 0.932 . S
H2633 C2613 0.930 . S
H2634 C2614 0.929 . S
H2635 C2616 0.930 . S
H2636 C2618 0.932 . S
H2637 C2619 0.929 . S
H2638 C2620 0.928 . S
H2639 C2622 0.932 . S
C2640 C2641 1.264 . S
C2640 C2645 1.479 . S
C2640 C2650 1.465 . S
C2641 C2640 1.264 . S
C2641 C2643 1.339 . S
C2641 H2668 0.931 . S
C2642 C2643 1.395 . S
C2642 C2644 1.320 . S
C2643 C2641 1.339 . S
C2643 C2642 1.395 . S
C2643 H2669 0.929 . S
C2644 C2642 1.320 . S
C2644 C2645 1.405 . S
C2644 H2670 0.930 . S
C2645 C2640 1.479 . S
C2645 C2644 1.405 . S
C2645 H2671 0.931 . S
U2646 O2647 2.454 . S
U2646 O2648 2.458 . S
U2646 C2649 2.984 . S
U2646 C2650 2.847 . S
U2646 C2663 2.882 . S
U2646 O2664 2.441 . S
U2646 O2665 2.420 . S
U2646 O2666 2.455 . S
U2646 O2667 2.449 . S
O2647 U2646 2.454 . S
O2647 C2649 1.353 . S
O2648 U2646 2.458 . S
O2648 C2649 1.286 . S
C2649 U2646 2.984 . S
C2649 O2647 1.353 . S
C2649 O2648 1.286 . S
C2649 C2651 1.363 . S
C2650 C2640 1.465 . S
C2650 U2646 2.847 . S
C2650 O2664 1.249 . S
C2650 O2665 1.202 . S
C2651 C2649 1.363 . S
C2651 C2653 1.408 . S
C2651 C2656 1.342 . S
C2652 C2653 1.310 . S
C2652 C2655 1.461 . S
C2652 H2672 0.932 . S
C2653 C2651 1.408 . S
C2653 C2652 1.310 . S
C2653 H2673 0.930 . S
C2654 C2655 1.474 . S
C2654 C2656 1.285 . S
C2654 H2674 0.929 . S
C2655 C2652 1.461 . S
C2655 C2654 1.474 . S
C2656 C2651 1.342 . S
C2656 C2654 1.285 . S
C2656 H2675 0.930 . S
C2657 C2660 1.424 . S
C2657 C2662 1.245 . S
C2657 C2663 1.428 . S
C2658 C2661 1.260 . S
C2658 C2662 1.477 . S
C2658 H2676 0.932 . S
C2659 C2660 1.384 . S
C2659 C2661 1.479 . S
C2659 H2677 0.929 . S
C2660 C2657 1.424 . S
C2660 C2659 1.384 . S
C2660 H2678 0.928 . S
C2661 C2658 1.260 . S
C2661 C2659 1.479 . S
C2662 C2657 1.245 . S
C2662 C2658 1.477 . S
C2662 H2679 0.932 . S
C2663 U2646 2.882 . S
C2663 C2657 1.428 . S
C2663 O2666 1.301 . S
C2663 O2667 1.282 . S
O2664 U2646 2.441 . S
O2664 C2650 1.249 . S
O2665 U2646 2.420 . S
O2665 C2650 1.202 . S
O2666 U2646 2.455 . S
O2666 C2663 1.301 . S
O2667 U2646 2.449 . S
O2667 C2663 1.282 . S
H2668 C2641 0.931 . S
H2669 C2643 0.929 . S
H2670 C2644 0.930 . S
H2671 C2645 0.931 . S
H2672 C2652 0.932 . S
H2673 C2653 0.930 . S
H2674 C2654 0.929 . S
H2675 C2656 0.930 . S
H2676 C2658 0.932 . S
H2677 C2659 0.929 . S
H2678 C2660 0.928 . S
H2679 C2662 0.932 . S
C2680 C2681 1.264 . S
C2680 C2685 1.479 . S
C2680 C2690 1.465 . S
C2681 C2680 1.264 . S
C2681 C2683 1.339 . S
C2681 H2708 0.931 . S
C2682 C2683 1.395 . S
C2682 C2684 1.320 . S
C2683 C2681 1.339 . S
C2683 C2682 1.395 . S
C2683 H2709 0.929 . S
C2684 C2682 1.320 . S
C2684 C2685 1.405 . S
C2684 H2710 0.930 . S
C2685 C2680 1.479 . S
C2685 C2684 1.405 . S
C2685 H2711 0.931 . S
U2686 O2687 2.454 . S
U2686 O2688 2.458 . S
U2686 C2689 2.984 . S
U2686 C2690 2.847 . S
U2686 C2703 2.882 . S
U2686 O2704 2.441 . S
U2686 O2705 2.420 . S
U2686 O2706 2.455 . S
U2686 O2707 2.449 . S
O2687 U2686 2.454 . S
O2687 C2689 1.353 . S
O2688 U2686 2.458 . S
O2688 C2689 1.286 . S
C2689 U2686 2.984 . S
C2689 O2687 1.353 . S
C2689 O2688 1.286 . S
C2689 C2691 1.363 . S
C2690 C2680 1.465 . S
C2690 U2686 2.847 . S
C2690 O2704 1.249 . S
C2690 O2705 1.202 . S
C2691 C2689 1.363 . S
C2691 C2693 1.408 . S
C2691 C2696 1.342 . S
C2692 C2693 1.310 . S
C2692 C2695 1.461 . S
C2692 H2712 0.932 . S
C2693 C2691 1.408 . S
C2693 C2692 1.310 . S
C2693 H2713 0.930 . S
C2694 C2695 1.474 . S
C2694 C2696 1.285 . S
C2694 H2714 0.929 . S
C2695 C2692 1.461 . S
C2695 C2694 1.474 . S
C2696 C2691 1.342 . S
C2696 C2694 1.285 . S
C2696 H2715 0.930 . S
C2697 C2700 1.424 . S
C2697 C2702 1.245 . S
C2697 C2703 1.428 . S
C2698 C2701 1.260 . S
C2698 C2702 1.477 . S
C2698 H2716 0.932 . S
C2699 C2700 1.384 . S
C2699 C2701 1.479 . S
C2699 H2717 0.929 . S
C2700 C2697 1.424 . S
C2700 C2699 1.384 . S
C2700 H2718 0.928 . S
C2701 C2698 1.260 . S
C2701 C2699 1.479 . S
C2702 C2697 1.245 . S
C2702 C2698 1.477 . S
C2702 H2719 0.932 . S
C2703 U2686 2.882 . S
C2703 C2697 1.428 . S
C2703 O2706 1.301 . S
C2703 O2707 1.282 . S
O2704 U2686 2.441 . S
O2704 C2690 1.249 . S
O2705 U2686 2.420 . S
O2705 C2690 1.202 . S
O2706 U2686 2.455 . S
O2706 C2703 1.301 . S
O2707 U2686 2.449 . S
O2707 C2703 1.282 . S
H2708 C2681 0.931 . S
H2709 C2683 0.929 . S
H2710 C2684 0.930 . S
H2711 C2685 0.931 . S
H2712 C2692 0.932 . S
H2713 C2693 0.930 . S
H2714 C2694 0.929 . S
H2715 C2696 0.930 . S
H2716 C2698 0.932 . S
H2717 C2699 0.929 . S
H2718 C2700 0.928 . S
H2719 C2702 0.932 . S
C2720 C2721 1.264 . S
C2720 C2725 1.479 . S
C2720 C2730 1.465 . S
C2721 C2720 1.264 . S
C2721 C2723 1.339 . S
C2721 H2748 0.931 . S
C2722 C2723 1.395 . S
C2722 C2724 1.320 . S
C2723 C2721 1.339 . S
C2723 C2722 1.395 . S
C2723 H2749 0.929 . S
C2724 C2722 1.320 . S
C2724 C2725 1.405 . S
C2724 H2750 0.930 . S
C2725 C2720 1.479 . S
C2725 C2724 1.405 . S
C2725 H2751 0.931 . S
U2726 O2727 2.454 . S
U2726 O2728 2.458 . S
U2726 C2729 2.984 . S
U2726 C2730 2.847 . S
U2726 C2743 2.882 . S
U2726 O2744 2.441 . S
U2726 O2745 2.420 . S
U2726 O2746 2.455 . S
U2726 O2747 2.449 . S
O2727 U2726 2.454 . S
O2727 C2729 1.353 . S
O2728 U2726 2.458 . S
O2728 C2729 1.286 . S
C2729 U2726 2.984 . S
C2729 O2727 1.353 . S
C2729 O2728 1.286 . S
C2729 C2731 1.363 . S
C2730 C2720 1.465 . S
C2730 U2726 2.847 . S
C2730 O2744 1.249 . S
C2730 O2745 1.202 . S
C2731 C2729 1.363 . S
C2731 C2733 1.408 . S
C2731 C2736 1.342 . S
C2732 C2733 1.310 . S
C2732 C2735 1.461 . S
C2732 H2752 0.932 . S
C2733 C2731 1.408 . S
C2733 C2732 1.310 . S
C2733 H2753 0.930 . S
C2734 C2735 1.474 . S
C2734 C2736 1.285 . S
C2734 H2754 0.929 . S
C2735 C2732 1.461 . S
C2735 C2734 1.474 . S
C2736 C2731 1.342 . S
C2736 C2734 1.285 . S
C2736 H2755 0.930 . S
C2737 C2740 1.424 . S
C2737 C2742 1.245 . S
C2737 C2743 1.428 . S
C2738 C2741 1.260 . S
C2738 C2742 1.477 . S
C2738 H2756 0.932 . S
C2739 C2740 1.384 . S
C2739 C2741 1.479 . S
C2739 H2757 0.929 . S
C2740 C2737 1.424 . S
C2740 C2739 1.384 . S
C2740 H2758 0.928 . S
C2741 C2738 1.260 . S
C2741 C2739 1.479 . S
C2742 C2737 1.245 . S
C2742 C2738 1.477 . S
C2742 H2759 0.932 . S
C2743 U2726 2.882 . S
C2743 C2737 1.428 . S
C2743 O2746 1.301 . S
C2743 O2747 1.282 . S
O2744 U2726 2.441 . S
O2744 C2730 1.249 . S
O2745 U2726 2.420 . S
O2745 C2730 1.202 . S
O2746 U2726 2.455 . S
O2746 C2743 1.301 . S
O2747 U2726 2.449 . S
O2747 C2743 1.282 . S
H2748 C2721 0.931 . S
H2749 C2723 0.929 . S
H2750 C2724 0.930 . S
H2751 C2725 0.931 . S
H2752 C2732 0.932 . S
H2753 C2733 0.930 . S
H2754 C2734 0.929 . S
H2755 C2736 0.930 . S
H2756 C2738 0.932 . S
H2757 C2739 0.929 . S
H2758 C2740 0.928 . S
H2759 C2742 0.932 . S
C2760 C2761 1.264 . S
C2760 C2765 1.479 . S
C2760 C2770 1.465 . S
C2761 C2760 1.264 . S
C2761 C2763 1.339 . S
C2761 H2788 0.931 . S
C2762 C2763 1.395 . S
C2762 C2764 1.320 . S
C2763 C2761 1.339 . S
C2763 C2762 1.395 . S
C2763 H2789 0.929 . S
C2764 C2762 1.320 . S
C2764 C2765 1.405 . S
C2764 H2790 0.930 . S
C2765 C2760 1.479 . S
C2765 C2764 1.405 . S
C2765 H2791 0.931 . S
U2766 O2767 2.454 . S
U2766 O2768 2.458 . S
U2766 C2769 2.984 . S
U2766 C2770 2.847 . S
U2766 C2783 2.882 . S
U2766 O2784 2.441 . S
U2766 O2785 2.420 . S
U2766 O2786 2.455 . S
U2766 O2787 2.449 . S
O2767 U2766 2.454 . S
O2767 C2769 1.353 . S
O2768 U2766 2.458 . S
O2768 C2769 1.286 . S
C2769 U2766 2.984 . S
C2769 O2767 1.353 . S
C2769 O2768 1.286 . S
C2769 C2771 1.363 . S
C2770 C2760 1.465 . S
C2770 U2766 2.847 . S
C2770 O2784 1.249 . S
C2770 O2785 1.202 . S
C2771 C2769 1.363 . S
C2771 C2773 1.408 . S
C2771 C2776 1.342 . S
C2772 C2773 1.310 . S
C2772 C2775 1.461 . S
C2772 H2792 0.932 . S
C2773 C2771 1.408 . S
C2773 C2772 1.310 . S
C2773 H2793 0.930 . S
C2774 C2775 1.474 . S
C2774 C2776 1.285 . S
C2774 H2794 0.929 . S
C2775 C2772 1.461 . S
C2775 C2774 1.474 . S
C2776 C2771 1.342 . S
C2776 C2774 1.285 . S
C2776 H2795 0.930 . S
C2777 C2780 1.424 . S
C2777 C2782 1.245 . S
C2777 C2783 1.428 . S
C2778 C2781 1.260 . S
C2778 C2782 1.477 . S
C2778 H2796 0.932 . S
C2779 C2780 1.384 . S
C2779 C2781 1.479 . S
C2779 H2797 0.929 . S
C2780 C2777 1.424 . S
C2780 C2779 1.384 . S
C2780 H2798 0.928 . S
C2781 C2778 1.260 . S
C2781 C2779 1.479 . S
C2782 C2777 1.245 . S
C2782 C2778 1.477 . S
C2782 H2799 0.932 . S
C2783 U2766 2.882 . S
C2783 C2777 1.428 . S
C2783 O2786 1.301 . S
C2783 O2787 1.282 . S
O2784 U2766 2.441 . S
O2784 C2770 1.249 . S
O2785 U2766 2.420 . S
O2785 C2770 1.202 . S
O2786 U2766 2.455 . S
O2786 C2783 1.301 . S
O2787 U2766 2.449 . S
O2787 C2783 1.282 . S
H2788 C2761 0.931 . S
H2789 C2763 0.929 . S
H2790 C2764 0.930 . S
H2791 C2765 0.931 . S
H2792 C2772 0.932 . S
H2793 C2773 0.930 . S
H2794 C2774 0.929 . S
H2795 C2776 0.930 . S
H2796 C2778 0.932 . S
H2797 C2779 0.929 . S
H2798 C2780 0.928 . S
H2799 C2782 0.932 . S
C2800 C2801 1.264 . S
C2800 C2805 1.479 . S
C2800 C2810 1.465 . S
C2801 C2800 1.264 . S
C2801 C2803 1.339 . S
C2801 H2828 0.931 . S
C2802 C2803 1.395 . S
C2802 C2804 1.320 . S
C2803 C2801 1.339 . S
C2803 C2802 1.395 . S
C2803 H2829 0.929 . S
C2804 C2802 1.320 . S
C2804 C2805 1.405 . S
C2804 H2830 0.930 . S
C2805 C2800 1.479 . S
C2805 C2804 1.405 . S
C2805 H2831 0.931 . S
U2806 O2807 2.454 . S
U2806 O2808 2.458 . S
U2806 C2809 2.984 . S
U2806 C2810 2.847 . S
U2806 C2823 2.882 . S
U2806 O2824 2.441 . S
U2806 O2825 2.420 . S
U2806 O2826 2.455 . S
U2806 O2827 2.449 . S
O2807 U2806 2.454 . S
O2807 C2809 1.353 . S
O2808 U2806 2.458 . S
O2808 C2809 1.286 . S
C2809 U2806 2.984 . S
C2809 O2807 1.353 . S
C2809 O2808 1.286 . S
C2809 C2811 1.363 . S
C2810 C2800 1.465 . S
C2810 U2806 2.847 . S
C2810 O2824 1.249 . S
C2810 O2825 1.202 . S
C2811 C2809 1.363 . S
C2811 C2813 1.408 . S
C2811 C2816 1.342 . S
C2812 C2813 1.310 . S
C2812 C2815 1.461 . S
C2812 H2832 0.932 . S
C2813 C2811 1.408 . S
C2813 C2812 1.310 . S
C2813 H2833 0.930 . S
C2814 C2815 1.474 . S
C2814 C2816 1.285 . S
C2814 H2834 0.929 . S
C2815 C2812 1.461 . S
C2815 C2814 1.474 . S
C2816 C2811 1.342 . S
C2816 C2814 1.285 . S
C2816 H2835 0.930 . S
C2817 C2820 1.424 . S
C2817 C2822 1.245 . S
C2817 C2823 1.428 . S
C2818 C2821 1.260 . S
C2818 C2822 1.477 . S
C2818 H2836 0.932 . S
C2819 C2820 1.384 . S
C2819 C2821 1.479 . S
C2819 H2837 0.929 . S
C2820 C2817 1.424 . S
C2820 C2819 1.384 . S
C2820 H2838 0.928 . S
C2821 C2818 1.260 . S
C2821 C2819 1.479 . S
C2822 C2817 1.245 . S
C2822 C2818 1.477 . S
C2822 H2839 0.932 . S
C2823 U2806 2.882 . S
C2823 C2817 1.428 . S
C2823 O2826 1.301 . S
C2823 O2827 1.282 . S
O2824 U2806 2.441 . S
O2824 C2810 1.249 . S
O2825 U2806 2.420 . S
O2825 C2810 1.202 . S
O2826 U2806 2.455 . S
O2826 C2823 1.301 . S
O2827 U2806 2.449 . S
O2827 C2823 1.282 . S
H2828 C2801 0.931 . S
H2829 C2803 0.929 . S
H2830 C2804 0.930 . S
H2831 C2805 0.931 . S
H2832 C2812 0.932 . S
H2833 C2813 0.930 . S
H2834 C2814 0.929 . S
H2835 C2816 0.930 . S
H2836 C2818 0.932 . S
H2837 C2819 0.929 . S
H2838 C2820 0.928 . S
H2839 C2822 0.932 . S
C2840 C2841 1.264 . S
C2840 C2845 1.479 . S
C2840 C2850 1.465 . S
C2841 C2840 1.264 . S
C2841 C2843 1.339 . S
C2841 H2868 0.931 . S
C2842 C2843 1.395 . S
C2842 C2844 1.320 . S
C2843 C2841 1.339 . S
C2843 C2842 1.395 . S
C2843 H2869 0.929 . S
C2844 C2842 1.320 . S
C2844 C2845 1.405 . S
C2844 H2870 0.930 . S
C2845 C2840 1.479 . S
C2845 C2844 1.405 . S
C2845 H2871 0.931 . S
U2846 O2847 2.454 . S
U2846 O2848 2.458 . S
U2846 C2849 2.984 . S
U2846 C2850 2.847 . S
U2846 C2863 2.882 . S
U2846 O2864 2.441 . S
U2846 O2865 2.420 . S
U2846 O2866 2.455 . S
U2846 O2867 2.449 . S
O2847 U2846 2.454 . S
O2847 C2849 1.353 . S
O2848 U2846 2.458 . S
O2848 C2849 1.286 . S
C2849 U2846 2.984 . S
C2849 O2847 1.353 . S
C2849 O2848 1.286 . S
C2849 C2851 1.363 . S
C2850 C2840 1.465 . S
C2850 U2846 2.847 . S
C2850 O2864 1.249 . S
C2850 O2865 1.202 . S
C2851 C2849 1.363 . S
C2851 C2853 1.408 . S
C2851 C2856 1.342 . S
C2852 C2853 1.310 . S
C2852 C2855 1.461 . S
C2852 H2872 0.932 . S
C2853 C2851 1.408 . S
C2853 C2852 1.310 . S
C2853 H2873 0.930 . S
C2854 C2855 1.474 . S
C2854 C2856 1.285 . S
C2854 H2874 0.929 . S
C2855 C2852 1.461 . S
C2855 C2854 1.474 . S
C2856 C2851 1.342 . S
C2856 C2854 1.285 . S
C2856 H2875 0.930 . S
C2857 C2860 1.424 . S
C2857 C2862 1.245 . S
C2857 C2863 1.428 . S
C2858 C2861 1.260 . S
C2858 C2862 1.477 . S
C2858 H2876 0.932 . S
C2859 C2860 1.384 . S
C2859 C2861 1.479 . S
C2859 H2877 0.929 . S
C2860 C2857 1.424 . S
C2860 C2859 1.384 . S
C2860 H2878 0.928 . S
C2861 C2858 1.260 . S
C2861 C2859 1.479 . S
C2862 C2857 1.245 . S
C2862 C2858 1.477 . S
C2862 H2879 0.932 . S
C2863 U2846 2.882 . S
C2863 C2857 1.428 . S
C2863 O2866 1.301 . S
C2863 O2867 1.282 . S
O2864 U2846 2.441 . S
O2864 C2850 1.249 . S
O2865 U2846 2.420 . S
O2865 C2850 1.202 . S
O2866 U2846 2.455 . S
O2866 C2863 1.301 . S
O2867 U2846 2.449 . S
O2867 C2863 1.282 . S
H2868 C2841 0.931 . S
H2869 C2843 0.929 . S
H2870 C2844 0.930 . S
H2871 C2845 0.931 . S
H2872 C2852 0.932 . S
H2873 C2853 0.930 . S
H2874 C2854 0.929 . S
H2875 C2856 0.930 . S
H2876 C2858 0.932 . S
H2877 C2859 0.929 . S
H2878 C2860 0.928 . S
H2879 C2862 0.932 . S
C2880 C2881 1.264 . S
C2880 C2885 1.479 . S
C2880 C2890 1.465 . S
C2881 C2880 1.264 . S
C2881 C2883 1.339 . S
C2881 H2908 0.931 . S
C2882 C2883 1.395 . S
C2882 C2884 1.320 . S
C2883 C2881 1.339 . S
C2883 C2882 1.395 . S
C2883 H2909 0.929 . S
C2884 C2882 1.320 . S
C2884 C2885 1.405 . S
C2884 H2910 0.930 . S
C2885 C2880 1.479 . S
C2885 C2884 1.405 . S
C2885 H2911 0.931 . S
U2886 O2887 2.454 . S
U2886 O2888 2.458 . S
U2886 C2889 2.984 . S
U2886 C2890 2.847 . S
U2886 C2903 2.882 . S
U2886 O2904 2.441 . S
U2886 O2905 2.420 . S
U2886 O2906 2.455 . S
U2886 O2907 2.449 . S
O2887 U2886 2.454 . S
O2887 C2889 1.353 . S
O2888 U2886 2.458 . S
O2888 C2889 1.286 . S
C2889 U2886 2.984 . S
C2889 O2887 1.353 . S
C2889 O2888 1.286 . S
C2889 C2891 1.363 . S
C2890 C2880 1.465 . S
C2890 U2886 2.847 . S
C2890 O2904 1.249 . S
C2890 O2905 1.202 . S
C2891 C2889 1.363 . S
C2891 C2893 1.408 . S
C2891 C2896 1.342 . S
C2892 C2893 1.310 . S
C2892 C2895 1.461 . S
C2892 H2912 0.932 . S
C2893 C2891 1.408 . S
C2893 C2892 1.310 . S
C2893 H2913 0.930 . S
C2894 C2895 1.474 . S
C2894 C2896 1.285 . S
C2894 H2914 0.929 . S
C2895 C2892 1.461 . S
C2895 C2894 1.474 . S
C2896 C2891 1.342 . S
C2896 C2894 1.285 . S
C2896 H2915 0.930 . S
C2897 C2900 1.424 . S
C2897 C2902 1.245 . S
C2897 C2903 1.428 . S
C2898 C2901 1.260 . S
C2898 C2902 1.477 . S
C2898 H2916 0.932 . S
C2899 C2900 1.384 . S
C2899 C2901 1.479 . S
C2899 H2917 0.929 . S
C2900 C2897 1.424 . S
C2900 C2899 1.384 . S
C2900 H2918 0.928 . S
C2901 C2898 1.260 . S
C2901 C2899 1.479 . S
C2902 C2897 1.245 . S
C2902 C2898 1.477 . S
C2902 H2919 0.932 . S
C2903 U2886 2.882 . S
C2903 C2897 1.428 . S
C2903 O2906 1.301 . S
C2903 O2907 1.282 . S
O2904 U2886 2.441 . S
O2904 C2890 1.249 . S
O2905 U2886 2.420 . S
O2905 C2890 1.202 . S
O2906 U2886 2.455 . S
O2906 C2903 1.301 . S
O2907 U2886 2.449 . S
O2907 C2903 1.282 . S
H2908 C2881 0.931 . S
H2909 C2883 0.929 . S
H2910 C2884 0.930 . S
H2911 C2885 0.931 . S
H2912 C2892 0.932 . S
H2913 C2893 0.930 . S
H2914 C2894 0.929 . S
H2915 C2896 0.930 . S
H2916 C2898 0.932 . S
H2917 C2899 0.929 . S
H2918 C2900 0.928 . S
H2919 C2902 0.932 . S
C2920 C2921 1.264 . S
C2920 C2925 1.479 . S
C2920 C2930 1.465 . S
C2921 C2920 1.264 . S
C2921 C2923 1.339 . S
C2921 H2948 0.931 . S
C2922 C2923 1.395 . S
C2922 C2924 1.320 . S
C2923 C2921 1.339 . S
C2923 C2922 1.395 . S
C2923 H2949 0.929 . S
C2924 C2922 1.320 . S
C2924 C2925 1.405 . S
C2924 H2950 0.930 . S
C2925 C2920 1.479 . S
C2925 C2924 1.405 . S
C2925 H2951 0.931 . S
U2926 O2927 2.454 . S
U2926 O2928 2.458 . S
U2926 C2929 2.984 . S
U2926 C2930 2.847 . S
U2926 C2943 2.882 . S
U2926 O2944 2.441 . S
U2926 O2945 2.420 . S
U2926 O2946 2.455 . S
U2926 O2947 2.449 . S
O2927 U2926 2.454 . S
O2927 C2929 1.353 . S
O2928 U2926 2.458 . S
O2928 C2929 1.286 . S
C2929 U2926 2.984 . S
C2929 O2927 1.353 . S
C2929 O2928 1.286 . S
C2929 C2931 1.363 . S
C2930 C2920 1.465 . S
C2930 U2926 2.847 . S
C2930 O2944 1.249 . S
C2930 O2945 1.202 . S
C2931 C2929 1.363 . S
C2931 C2933 1.408 . S
C2931 C2936 1.342 . S
C2932 C2933 1.310 . S
C2932 C2935 1.461 . S
C2932 H2952 0.932 . S
C2933 C2931 1.408 . S
C2933 C2932 1.310 . S
C2933 H2953 0.930 . S
C2934 C2935 1.474 . S
C2934 C2936 1.285 . S
C2934 H2954 0.929 . S
C2935 C2932 1.461 . S
C2935 C2934 1.474 . S
C2936 C2931 1.342 . S
C2936 C2934 1.285 . S
C2936 H2955 0.930 . S
C2937 C2940 1.424 . S
C2937 C2942 1.245 . S
C2937 C2943 1.428 . S
C2938 C2941 1.260 . S
C2938 C2942 1.477 . S
C2938 H2956 0.932 . S
C2939 C2940 1.384 . S
C2939 C2941 1.479 . S
C2939 H2957 0.929 . S
C2940 C2937 1.424 . S
C2940 C2939 1.384 . S
C2940 H2958 0.928 . S
C2941 C2938 1.260 . S
C2941 C2939 1.479 . S
C2942 C2937 1.245 . S
C2942 C2938 1.477 . S
C2942 H2959 0.932 . S
C2943 U2926 2.882 . S
C2943 C2937 1.428 . S
C2943 O2946 1.301 . S
C2943 O2947 1.282 . S
O2944 U2926 2.441 . S
O2944 C2930 1.249 . S
O2945 U2926 2.420 . S
O2945 C2930 1.202 . S
O2946 U2926 2.455 . S
O2946 C2943 1.301 . S
O2947 U2926 2.449 . S
O2947 C2943 1.282 . S
H2948 C2921 0.931 . S
H2949 C2923 0.929 . S
H2950 C2924 0.930 . S
H2951 C2925 0.931 . S
H2952 C2932 0.932 . S
H2953 C2933 0.930 . S
H2954 C2934 0.929 . S
H2955 C2936 0.930 . S
H2956 C2938 0.932 . S
H2957 C2939 0.929 . S
H2958 C2940 0.928 . S
H2959 C2942 0.932 . S
C2960 C2961 1.264 . S
C2960 C2965 1.479 . S
C2960 C2970 1.465 . S
C2961 C2960 1.264 . S
C2961 C2963 1.339 . S
C2961 H2988 0.931 . S
C2962 C2963 1.395 . S
C2962 C2964 1.320 . S
C2963 C2961 1.339 . S
C2963 C2962 1.395 . S
C2963 H2989 0.929 . S
C2964 C2962 1.320 . S
C2964 C2965 1.405 . S
C2964 H2990 0.930 . S
C2965 C2960 1.479 . S
C2965 C2964 1.405 . S
C2965 H2991 0.931 . S
U2966 O2967 2.454 . S
U2966 O2968 2.458 . S
U2966 C2969 2.984 . S
U2966 C2970 2.847 . S
U2966 C2983 2.882 . S
U2966 O2984 2.441 . S
U2966 O2985 2.420 . S
U2966 O2986 2.455 . S
U2966 O2987 2.449 . S
O2967 U2966 2.454 . S
O2967 C2969 1.353 . S
O2968 U2966 2.458 . S
O2968 C2969 1.286 . S
C2969 U2966 2.984 . S
C2969 O2967 1.353 . S
C2969 O2968 1.286 . S
C2969 C2971 1.363 . S
C2970 C2960 1.465 . S
C2970 U2966 2.847 . S
C2970 O2984 1.249 . S
C2970 O2985 1.202 . S
C2971 C2969 1.363 . S
C2971 C2973 1.408 . S
C2971 C2976 1.342 . S
C2972 C2973 1.310 . S
C2972 C2975 1.461 . S
C2972 H2992 0.932 . S
C2973 C2971 1.408 . S
C2973 C2972 1.310 . S
C2973 H2993 0.930 . S
C2974 C2975 1.474 . S
C2974 C2976 1.285 . S
C2974 H2994 0.929 . S
C2975 C2972 1.461 . S
C2975 C2974 1.474 . S
C2976 C2971 1.342 . S
C2976 C2974 1.285 . S
C2976 H2995 0.930 . S
C2977 C2980 1.424 . S
C2977 C2982 1.245 . S
C2977 C2983 1.428 . S
C2978 C2981 1.260 . S
C2978 C2982 1.477 . S
C2978 H2996 0.932 . S
C2979 C2980 1.384 . S
C2979 C2981 1.479 . S
C2979 H2997 0.929 . S
C2980 C2977 1.424 . S
C2980 C2979 1.384 . S
C2980 H2998 0.928 . S
C2981 C2978 1.260 . S
C2981 C2979 1.479 . S
C2982 C2977 1.245 . S
C2982 C2978 1.477 . S
C2982 H2999 0.932 . S
C2983 U2966 2.882 . S
C2983 C2977 1.428 . S
C2983 O2986 1.301 . S
C2983 O2987 1.282 . S
O2984 U2966 2.441 . S
O2984 C2970 1.249 . S
O2985 U2966 2.420 . S
O2985 C2970 1.202 . S
O2986 U2966 2.455 . S
O2986 C2983 1.301 . S
O2987 U2966 2.449 . S
O2987 C2983 1.282 . S
H2988 C2961 0.931 . S
H2989 C2963 0.929 . S
H2990 C2964 0.930 . S
H2991 C2965 0.931 . S
H2992 C2972 0.932 . S
H2993 C2973 0.930 . S
H2994 C2974 0.929 . S
H2995 C2976 0.930 . S
H2996 C2978 0.932 . S
H2997 C2979 0.929 . S
H2998 C2980 0.928 . S
H2999 C2982 0.932 . S
C3000 C3001 1.264 . S
C3000 C3005 1.479 . S
C3000 C3010 1.465 . S
C3001 C3000 1.264 . S
C3001 C3003 1.339 . S
C3001 H3028 0.931 . S
C3002 C3003 1.395 . S
C3002 C3004 1.320 . S
C3003 C3001 1.339 . S
C3003 C3002 1.395 . S
C3003 H3029 0.929 . S
C3004 C3002 1.320 . S
C3004 C3005 1.405 . S
C3004 H3030 0.930 . S
C3005 C3000 1.479 . S
C3005 C3004 1.405 . S
C3005 H3031 0.931 . S
U3006 O3007 2.454 . S
U3006 O3008 2.458 . S
U3006 C3009 2.984 . S
U3006 C3010 2.847 . S
U3006 C3023 2.882 . S
U3006 O3024 2.441 . S
U3006 O3025 2.420 . S
U3006 O3026 2.455 . S
U3006 O3027 2.449 . S
O3007 U3006 2.454 . S
O3007 C3009 1.353 . S
O3008 U3006 2.458 . S
O3008 C3009 1.286 . S
C3009 U3006 2.984 . S
C3009 O3007 1.353 . S
C3009 O3008 1.286 . S
C3009 C3011 1.363 . S
C3010 C3000 1.465 . S
C3010 U3006 2.847 . S
C3010 O3024 1.249 . S
C3010 O3025 1.202 . S
C3011 C3009 1.363 . S
C3011 C3013 1.408 . S
C3011 C3016 1.342 . S
C3012 C3013 1.310 . S
C3012 C3015 1.461 . S
C3012 H3032 0.932 . S
C3013 C3011 1.408 . S
C3013 C3012 1.310 . S
C3013 H3033 0.930 . S
C3014 C3015 1.474 . S
C3014 C3016 1.285 . S
C3014 H3034 0.929 . S
C3015 C3012 1.461 . S
C3015 C3014 1.474 . S
C3016 C3011 1.342 . S
C3016 C3014 1.285 . S
C3016 H3035 0.930 . S
C3017 C3020 1.424 . S
C3017 C3022 1.245 . S
C3017 C3023 1.428 . S
C3018 C3021 1.260 . S
C3018 C3022 1.477 . S
C3018 H3036 0.932 . S
C3019 C3020 1.384 . S
C3019 C3021 1.479 . S
C3019 H3037 0.929 . S
C3020 C3017 1.424 . S
C3020 C3019 1.384 . S
C3020 H3038 0.928 . S
C3021 C3018 1.260 . S
C3021 C3019 1.479 . S
C3022 C3017 1.245 . S
C3022 C3018 1.477 . S
C3022 H3039 0.932 . S
C3023 U3006 2.882 . S
C3023 C3017 1.428 . S
C3023 O3026 1.301 . S
C3023 O3027 1.282 . S
O3024 U3006 2.441 . S
O3024 C3010 1.249 . S
O3025 U3006 2.420 . S
O3025 C3010 1.202 . S
O3026 U3006 2.455 . S
O3026 C3023 1.301 . S
O3027 U3006 2.449 . S
O3027 C3023 1.282 . S
H3028 C3001 0.931 . S
H3029 C3003 0.929 . S
H3030 C3004 0.930 . S
H3031 C3005 0.931 . S
H3032 C3012 0.932 . S
H3033 C3013 0.930 . S
H3034 C3014 0.929 . S
H3035 C3016 0.930 . S
H3036 C3018 0.932 . S
H3037 C3019 0.929 . S
H3038 C3020 0.928 . S
H3039 C3022 0.932 . S
C3040 C3041 1.264 . S
C3040 C3045 1.479 . S
C3040 C3050 1.465 . S
C3041 C3040 1.264 . S
C3041 C3043 1.339 . S
C3041 H3068 0.931 . S
C3042 C3043 1.395 . S
C3042 C3044 1.320 . S
C3043 C3041 1.339 . S
C3043 C3042 1.395 . S
C3043 H3069 0.929 . S
C3044 C3042 1.320 . S
C3044 C3045 1.405 . S
C3044 H3070 0.930 . S
C3045 C3040 1.479 . S
C3045 C3044 1.405 . S
C3045 H3071 0.931 . S
U3046 O3047 2.454 . S
U3046 O3048 2.458 . S
U3046 C3049 2.984 . S
U3046 C3050 2.847 . S
U3046 C3063 2.882 . S
U3046 O3064 2.441 . S
U3046 O3065 2.420 . S
U3046 O3066 2.455 . S
U3046 O3067 2.449 . S
O3047 U3046 2.454 . S
O3047 C3049 1.353 . S
O3048 U3046 2.458 . S
O3048 C3049 1.286 . S
C3049 U3046 2.984 . S
C3049 O3047 1.353 . S
C3049 O3048 1.286 . S
C3049 C3051 1.363 . S
C3050 C3040 1.465 . S
C3050 U3046 2.847 . S
C3050 O3064 1.249 . S
C3050 O3065 1.202 . S
C3051 C3049 1.363 . S
C3051 C3053 1.408 . S
C3051 C3056 1.342 . S
C3052 C3053 1.310 . S
C3052 C3055 1.461 . S
C3052 H3072 0.932 . S
C3053 C3051 1.408 . S
C3053 C3052 1.310 . S
C3053 H3073 0.930 . S
C3054 C3055 1.474 . S
C3054 C3056 1.285 . S
C3054 H3074 0.929 . S
C3055 C3052 1.461 . S
C3055 C3054 1.474 . S
C3056 C3051 1.342 . S
C3056 C3054 1.285 . S
C3056 H3075 0.930 . S
C3057 C3060 1.424 . S
C3057 C3062 1.245 . S
C3057 C3063 1.428 . S
C3058 C3061 1.260 . S
C3058 C3062 1.477 . S
C3058 H3076 0.932 . S
C3059 C3060 1.384 . S
C3059 C3061 1.479 . S
C3059 H3077 0.929 . S
C3060 C3057 1.424 . S
C3060 C3059 1.384 . S
C3060 H3078 0.928 . S
C3061 C3058 1.260 . S
C3061 C3059 1.479 . S
C3062 C3057 1.245 . S
C3062 C3058 1.477 . S
C3062 H3079 0.932 . S
C3063 U3046 2.882 . S
C3063 C3057 1.428 . S
C3063 O3066 1.301 . S
C3063 O3067 1.282 . S
O3064 U3046 2.441 . S
O3064 C3050 1.249 . S
O3065 U3046 2.420 . S
O3065 C3050 1.202 . S
O3066 U3046 2.455 . S
O3066 C3063 1.301 . S
O3067 U3046 2.449 . S
O3067 C3063 1.282 . S
H3068 C3041 0.931 . S
H3069 C3043 0.929 . S
H3070 C3044 0.930 . S
H3071 C3045 0.931 . S
H3072 C3052 0.932 . S
H3073 C3053 0.930 . S
H3074 C3054 0.929 . S
H3075 C3056 0.930 . S
H3076 C3058 0.932 . S
H3077 C3059 0.929 . S
H3078 C3060 0.928 . S
H3079 C3062 0.932 . S
C3080 C3081 1.264 . S
C3080 C3085 1.479 . S
C3080 C3090 1.465 . S
C3081 C3080 1.264 . S
C3081 C3083 1.339 . S
C3081 H3108 0.931 . S
C3082 C3083 1.395 . S
C3082 C3084 1.320 . S
C3083 C3081 1.339 . S
C3083 C3082 1.395 . S
C3083 H3109 0.929 . S
C3084 C3082 1.320 . S
C3084 C3085 1.405 . S
C3084 H3110 0.930 . S
C3085 C3080 1.479 . S
C3085 C3084 1.405 . S
C3085 H3111 0.931 . S
U3086 O3087 2.454 . S
U3086 O3088 2.458 . S
U3086 C3089 2.984 . S
U3086 C3090 2.847 . S
U3086 C3103 2.882 . S
U3086 O3104 2.441 . S
U3086 O3105 2.420 . S
U3086 O3106 2.455 . S
U3086 O3107 2.449 . S
O3087 U3086 2.454 . S
O3087 C3089 1.353 . S
O3088 U3086 2.458 . S
O3088 C3089 1.286 . S
C3089 U3086 2.984 . S
C3089 O3087 1.353 . S
C3089 O3088 1.286 . S
C3089 C3091 1.363 . S
C3090 C3080 1.465 . S
C3090 U3086 2.847 . S
C3090 O3104 1.249 . S
C3090 O3105 1.202 . S
C3091 C3089 1.363 . S
C3091 C3093 1.408 . S
C3091 C3096 1.342 . S
C3092 C3093 1.310 . S
C3092 C3095 1.461 . S
C3092 H3112 0.932 . S
C3093 C3091 1.408 . S
C3093 C3092 1.310 . S
C3093 H3113 0.930 . S
C3094 C3095 1.474 . S
C3094 C3096 1.285 . S
C3094 H3114 0.929 . S
C3095 C3092 1.461 . S
C3095 C3094 1.474 . S
C3096 C3091 1.342 . S
C3096 C3094 1.285 . S
C3096 H3115 0.930 . S
C3097 C3100 1.424 . S
C3097 C3102 1.245 . S
C3097 C3103 1.428 . S
C3098 C3101 1.260 . S
C3098 C3102 1.477 . S
C3098 H3116 0.932 . S
C3099 C3100 1.384 . S
C3099 C3101 1.479 . S
C3099 H3117 0.929 . S
C3100 C3097 1.424 . S
C3100 C3099 1.384 . S
C3100 H3118 0.928 . S
C3101 C3098 1.260 . S
C3101 C3099 1.479 . S
C3102 C3097 1.245 . S
C3102 C3098 1.477 . S
C3102 H3119 0.932 . S
C3103 U3086 2.882 . S
C3103 C3097 1.428 . S
C3103 O3106 1.301 . S
C3103 O3107 1.282 . S
O3104 U3086 2.441 . S
O3104 C3090 1.249 . S
O3105 U3086 2.420 . S
O3105 C3090 1.202 . S
O3106 U3086 2.455 . S
O3106 C3103 1.301 . S
O3107 U3086 2.449 . S
O3107 C3103 1.282 . S
H3108 C3081 0.931 . S
H3109 C3083 0.929 . S
H3110 C3084 0.930 . S
H3111 C3085 0.931 . S
H3112 C3092 0.932 . S
H3113 C3093 0.930 . S
H3114 C3094 0.929 . S
H3115 C3096 0.930 . S
H3116 C3098 0.932 . S
H3117 C3099 0.929 . S
H3118 C3100 0.928 . S
H3119 C3102 0.932 . S
C3120 C3121 1.264 . S
C3120 C3125 1.479 . S
C3120 C3130 1.465 . S
C3121 C3120 1.264 . S
C3121 C3123 1.339 . S
C3121 H3148 0.931 . S
C3122 C3123 1.395 . S
C3122 C3124 1.320 . S
C3123 C3121 1.339 . S
C3123 C3122 1.395 . S
C3123 H3149 0.929 . S
C3124 C3122 1.320 . S
C3124 C3125 1.405 . S
C3124 H3150 0.930 . S
C3125 C3120 1.479 . S
C3125 C3124 1.405 . S
C3125 H3151 0.931 . S
U3126 O3127 2.454 . S
U3126 O3128 2.458 . S
U3126 C3129 2.984 . S
U3126 C3130 2.847 . S
U3126 C3143 2.882 . S
U3126 O3144 2.441 . S
U3126 O3145 2.420 . S
U3126 O3146 2.455 . S
U3126 O3147 2.449 . S
O3127 U3126 2.454 . S
O3127 C3129 1.353 . S
O3128 U3126 2.458 . S
O3128 C3129 1.286 . S
C3129 U3126 2.984 . S
C3129 O3127 1.353 . S
C3129 O3128 1.286 . S
C3129 C3131 1.363 . S
C3130 C3120 1.465 . S
C3130 U3126 2.847 . S
C3130 O3144 1.249 . S
C3130 O3145 1.202 . S
C3131 C3129 1.363 . S
C3131 C3133 1.408 . S
C3131 C3136 1.342 . S
C3132 C3133 1.310 . S
C3132 C3135 1.461 . S
C3132 H3152 0.932 . S
C3133 C3131 1.408 . S
C3133 C3132 1.310 . S
C3133 H3153 0.930 . S
C3134 C3135 1.474 . S
C3134 C3136 1.285 . S
C3134 H3154 0.929 . S
C3135 C3132 1.461 . S
C3135 C3134 1.474 . S
C3136 C3131 1.342 . S
C3136 C3134 1.285 . S
C3136 H3155 0.930 . S
C3137 C3140 1.424 . S
C3137 C3142 1.245 . S
C3137 C3143 1.428 . S
C3138 C3141 1.260 . S
C3138 C3142 1.477 . S
C3138 H3156 0.932 . S
C3139 C3140 1.384 . S
C3139 C3141 1.479 . S
C3139 H3157 0.929 . S
C3140 C3137 1.424 . S
C3140 C3139 1.384 . S
C3140 H3158 0.928 . S
C3141 C3138 1.260 . S
C3141 C3139 1.479 . S
C3142 C3137 1.245 . S
C3142 C3138 1.477 . S
C3142 H3159 0.932 . S
C3143 U3126 2.882 . S
C3143 C3137 1.428 . S
C3143 O3146 1.301 . S
C3143 O3147 1.282 . S
O3144 U3126 2.441 . S
O3144 C3130 1.249 . S
O3145 U3126 2.420 . S
O3145 C3130 1.202 . S
O3146 U3126 2.455 . S
O3146 C3143 1.301 . S
O3147 U3126 2.449 . S
O3147 C3143 1.282 . S
H3148 C3121 0.931 . S
H3149 C3123 0.929 . S
H3150 C3124 0.930 . S
H3151 C3125 0.931 . S
H3152 C3132 0.932 . S
H3153 C3133 0.930 . S
H3154 C3134 0.929 . S
H3155 C3136 0.930 . S
H3156 C3138 0.932 . S
H3157 C3139 0.929 . S
H3158 C3140 0.928 . S
H3159 C3142 0.932 . S
C3160 C3161 1.264 . S
C3160 C3165 1.479 . S
C3160 C3170 1.465 . S
C3161 C3160 1.264 . S
C3161 C3163 1.339 . S
C3161 H3188 0.931 . S
C3162 C3163 1.395 . S
C3162 C3164 1.320 . S
C3163 C3161 1.339 . S
C3163 C3162 1.395 . S
C3163 H3189 0.929 . S
C3164 C3162 1.320 . S
C3164 C3165 1.405 . S
C3164 H3190 0.930 . S
C3165 C3160 1.479 . S
C3165 C3164 1.405 . S
C3165 H3191 0.931 . S
U3166 O3167 2.454 . S
U3166 O3168 2.458 . S
U3166 C3169 2.984 . S
U3166 C3170 2.847 . S
U3166 C3183 2.882 . S
U3166 O3184 2.441 . S
U3166 O3185 2.420 . S
U3166 O3186 2.455 . S
U3166 O3187 2.449 . S
O3167 U3166 2.454 . S
O3167 C3169 1.353 . S
O3168 U3166 2.458 . S
O3168 C3169 1.286 . S
C3169 U3166 2.984 . S
C3169 O3167 1.353 . S
C3169 O3168 1.286 . S
C3169 C3171 1.363 . S
C3170 C3160 1.465 . S
C3170 U3166 2.847 . S
C3170 O3184 1.249 . S
C3170 O3185 1.202 . S
C3171 C3169 1.363 . S
C3171 C3173 1.408 . S
C3171 C3176 1.342 . S
C3172 C3173 1.310 . S
C3172 C3175 1.461 . S
C3172 H3192 0.932 . S
C3173 C3171 1.408 . S
C3173 C3172 1.310 . S
C3173 H3193 0.930 . S
C3174 C3175 1.474 . S
C3174 C3176 1.285 . S
C3174 H3194 0.929 . S
C3175 C3172 1.461 . S
C3175 C3174 1.474 . S
C3176 C3171 1.342 . S
C3176 C3174 1.285 . S
C3176 H3195 0.930 . S
C3177 C3180 1.424 . S
C3177 C3182 1.245 . S
C3177 C3183 1.428 . S
C3178 C3181 1.260 . S
C3178 C3182 1.477 . S
C3178 H3196 0.932 . S
C3179 C3180 1.384 . S
C3179 C3181 1.479 . S
C3179 H3197 0.929 . S
C3180 C3177 1.424 . S
C3180 C3179 1.384 . S
C3180 H3198 0.928 . S
C3181 C3178 1.260 . S
C3181 C3179 1.479 . S
C3182 C3177 1.245 . S
C3182 C3178 1.477 . S
C3182 H3199 0.932 . S
C3183 U3166 2.882 . S
C3183 C3177 1.428 . S
C3183 O3186 1.301 . S
C3183 O3187 1.282 . S
O3184 U3166 2.441 . S
O3184 C3170 1.249 . S
O3185 U3166 2.420 . S
O3185 C3170 1.202 . S
O3186 U3166 2.455 . S
O3186 C3183 1.301 . S
O3187 U3166 2.449 . S
O3187 C3183 1.282 . S
H3188 C3161 0.931 . S
H3189 C3163 0.929 . S
H3190 C3164 0.930 . S
H3191 C3165 0.931 . S
H3192 C3172 0.932 . S
H3193 C3173 0.930 . S
H3194 C3174 0.929 . S
H3195 C3176 0.930 . S
H3196 C3178 0.932 . S
H3197 C3179 0.929 . S
H3198 C3180 0.928 . S
H3199 C3182 0.932 . S
C3200 C3201 1.264 . S
C3200 C3205 1.479 . S
C3200 C3210 1.465 . S
C3201 C3200 1.264 . S
C3201 C3203 1.339 . S
C3201 H3228 0.931 . S
C3202 C3203 1.395 . S
C3202 C3204 1.320 . S
C3203 C3201 1.339 . S
C3203 C3202 1.395 . S
C3203 H3229 0.929 . S
C3204 C3202 1.320 . S
C3204 C3205 1.405 . S
C3204 H3230 0.930 . S
C3205 C3200 1.479 . S
C3205 C3204 1.405 . S
C3205 H3231 0.931 . S
U3206 O3207 2.454 . S
U3206 O3208 2.458 . S
U3206 C3209 2.984 . S
U3206 C3210 2.847 . S
U3206 C3223 2.882 . S
U3206 O3224 2.441 . S
U3206 O3225 2.420 . S
U3206 O3226 2.455 . S
U3206 O3227 2.449 . S
O3207 U3206 2.454 . S
O3207 C3209 1.353 . S
O3208 U3206 2.458 . S
O3208 C3209 1.286 . S
C3209 U3206 2.984 . S
C3209 O3207 1.353 . S
C3209 O3208 1.286 . S
C3209 C3211 1.363 . S
C3210 C3200 1.465 . S
C3210 U3206 2.847 . S
C3210 O3224 1.249 . S
C3210 O3225 1.202 . S
C3211 C3209 1.363 . S
C3211 C3213 1.408 . S
C3211 C3216 1.342 . S
C3212 C3213 1.310 . S
C3212 C3215 1.461 . S
C3212 H3232 0.932 . S
C3213 C3211 1.408 . S
C3213 C3212 1.310 . S
C3213 H3233 0.930 . S
C3214 C3215 1.474 . S
C3214 C3216 1.285 . S
C3214 H3234 0.929 . S
C3215 C3212 1.461 . S
C3215 C3214 1.474 . S
C3216 C3211 1.342 . S
C3216 C3214 1.285 . S
C3216 H3235 0.930 . S
C3217 C3220 1.424 . S
C3217 C3222 1.245 . S
C3217 C3223 1.428 . S
C3218 C3221 1.260 . S
C3218 C3222 1.477 . S
C3218 H3236 0.932 . S
C3219 C3220 1.384 . S
C3219 C3221 1.479 . S
C3219 H3237 0.929 . S
C3220 C3217 1.424 . S
C3220 C3219 1.384 . S
C3220 H3238 0.928 . S
C3221 C3218 1.260 . S
C3221 C3219 1.479 . S
C3222 C3217 1.245 . S
C3222 C3218 1.477 . S
C3222 H3239 0.932 . S
C3223 U3206 2.882 . S
C3223 C3217 1.428 . S
C3223 O3226 1.301 . S
C3223 O3227 1.282 . S
O3224 U3206 2.441 . S
O3224 C3210 1.249 . S
O3225 U3206 2.420 . S
O3225 C3210 1.202 . S
O3226 U3206 2.455 . S
O3226 C3223 1.301 . S
O3227 U3206 2.449 . S
O3227 C3223 1.282 . S
H3228 C3201 0.931 . S
H3229 C3203 0.929 . S
H3230 C3204 0.930 . S
H3231 C3205 0.931 . S
H3232 C3212 0.932 . S
H3233 C3213 0.930 . S
H3234 C3214 0.929 . S
H3235 C3216 0.930 . S
H3236 C3218 0.932 . S
H3237 C3219 0.929 . S
H3238 C3220 0.928 . S
H3239 C3222 0.932 . S
C3240 C3241 1.264 . S
C3240 C3245 1.479 . S
C3240 C3250 1.465 . S
C3241 C3240 1.264 . S
C3241 C3243 1.339 . S
C3241 H3268 0.931 . S
C3242 C3243 1.395 . S
C3242 C3244 1.320 . S
C3243 C3241 1.339 . S
C3243 C3242 1.395 . S
C3243 H3269 0.929 . S
C3244 C3242 1.320 . S
C3244 C3245 1.405 . S
C3244 H3270 0.930 . S
C3245 C3240 1.479 . S
C3245 C3244 1.405 . S
C3245 H3271 0.931 . S
U3246 O3247 2.454 . S
U3246 O3248 2.458 . S
U3246 C3249 2.984 . S
U3246 C3250 2.847 . S
U3246 C3263 2.882 . S
U3246 O3264 2.441 . S
U3246 O3265 2.420 . S
U3246 O3266 2.455 . S
U3246 O3267 2.449 . S
O3247 U3246 2.454 . S
O3247 C3249 1.353 . S
O3248 U3246 2.458 . S
O3248 C3249 1.286 . S
C3249 U3246 2.984 . S
C3249 O3247 1.353 . S
C3249 O3248 1.286 . S
C3249 C3251 1.363 . S
C3250 C3240 1.465 . S
C3250 U3246 2.847 . S
C3250 O3264 1.249 . S
C3250 O3265 1.202 . S
C3251 C3249 1.363 . S
C3251 C3253 1.408 . S
C3251 C3256 1.342 . S
C3252 C3253 1.310 . S
C3252 C3255 1.461 . S
C3252 H3272 0.932 . S
C3253 C3251 1.408 . S
C3253 C3252 1.310 . S
C3253 H3273 0.930 . S
C3254 C3255 1.474 . S
C3254 C3256 1.285 . S
C3254 H3274 0.929 . S
C3255 C3252 1.461 . S
C3255 C3254 1.474 . S
C3256 C3251 1.342 . S
C3256 C3254 1.285 . S
C3256 H3275 0.930 . S
C3257 C3260 1.424 . S
C3257 C3262 1.245 . S
C3257 C3263 1.428 . S
C3258 C3261 1.260 . S
C3258 C3262 1.477 . S
C3258 H3276 0.932 . S
C3259 C3260 1.384 . S
C3259 C3261 1.479 . S
C3259 H3277 0.929 . S
C3260 C3257 1.424 . S
C3260 C3259 1.384 . S
C3260 H3278 0.928 . S
C3261 C3258 1.260 . S
C3261 C3259 1.479 . S
C3262 C3257 1.245 . S
C3262 C3258 1.477 . S
C3262 H3279 0.932 . S
C3263 U3246 2.882 . S
C3263 C3257 1.428 . S
C3263 O3266 1.301 . S
C3263 O3267 1.282 . S
O3264 U3246 2.441 . S
O3264 C3250 1.249 . S
O3265 U3246 2.420 . S
O3265 C3250 1.202 . S
O3266 U3246 2.455 . S
O3266 C3263 1.301 . S
O3267 U3246 2.449 . S
O3267 C3263 1.282 . S
H3268 C3241 0.931 . S
H3269 C3243 0.929 . S
H3270 C3244 0.930 . S
H3271 C3245 0.931 . S
H3272 C3252 0.932 . S
H3273 C3253 0.930 . S
H3274 C3254 0.929 . S
H3275 C3256 0.930 . S
H3276 C3258 0.932 . S
H3277 C3259 0.929 . S
H3278 C3260 0.928 . S
H3279 C3262 0.932 . S
C3280 C3281 1.264 . S
C3280 C3285 1.479 . S
C3280 C3290 1.465 . S
C3281 C3280 1.264 . S
C3281 C3283 1.339 . S
C3281 H3308 0.931 . S
C3282 C3283 1.395 . S
C3282 C3284 1.320 . S
C3283 C3281 1.339 . S
C3283 C3282 1.395 . S
C3283 H3309 0.929 . S
C3284 C3282 1.320 . S
C3284 C3285 1.405 . S
C3284 H3310 0.930 . S
C3285 C3280 1.479 . S
C3285 C3284 1.405 . S
C3285 H3311 0.931 . S
U3286 O3287 2.454 . S
U3286 O3288 2.458 . S
U3286 C3289 2.984 . S
U3286 C3290 2.847 . S
U3286 C3303 2.882 . S
U3286 O3304 2.441 . S
U3286 O3305 2.420 . S
U3286 O3306 2.455 . S
U3286 O3307 2.449 . S
O3287 U3286 2.454 . S
O3287 C3289 1.353 . S
O3288 U3286 2.458 . S
O3288 C3289 1.286 . S
C3289 U3286 2.984 . S
C3289 O3287 1.353 . S
C3289 O3288 1.286 . S
C3289 C3291 1.363 . S
C3290 C3280 1.465 . S
C3290 U3286 2.847 . S
C3290 O3304 1.249 . S
C3290 O3305 1.202 . S
C3291 C3289 1.363 . S
C3291 C3293 1.408 . S
C3291 C3296 1.342 . S
C3292 C3293 1.310 . S
C3292 C3295 1.461 . S
C3292 H3312 0.932 . S
C3293 C3291 1.408 . S
C3293 C3292 1.310 . S
C3293 H3313 0.930 . S
C3294 C3295 1.474 . S
C3294 C3296 1.285 . S
C3294 H3314 0.929 . S
C3295 C3292 1.461 . S
C3295 C3294 1.474 . S
C3296 C3291 1.342 . S
C3296 C3294 1.285 . S
C3296 H3315 0.930 . S
C3297 C3300 1.424 . S
C3297 C3302 1.245 . S
C3297 C3303 1.428 . S
C3298 C3301 1.260 . S
C3298 C3302 1.477 . S
C3298 H3316 0.932 . S
C3299 C3300 1.384 . S
C3299 C3301 1.479 . S
C3299 H3317 0.929 . S
C3300 C3297 1.424 . S
C3300 C3299 1.384 . S
C3300 H3318 0.928 . S
C3301 C3298 1.260 . S
C3301 C3299 1.479 . S
C3302 C3297 1.245 . S
C3302 C3298 1.477 . S
C3302 H3319 0.932 . S
C3303 U3286 2.882 . S
C3303 C3297 1.428 . S
C3303 O3306 1.301 . S
C3303 O3307 1.282 . S
O3304 U3286 2.441 . S
O3304 C3290 1.249 . S
O3305 U3286 2.420 . S
O3305 C3290 1.202 . S
O3306 U3286 2.455 . S
O3306 C3303 1.301 . S
O3307 U3286 2.449 . S
O3307 C3303 1.282 . S
H3308 C3281 0.931 . S
H3309 C3283 0.929 . S
H3310 C3284 0.930 . S
H3311 C3285 0.931 . S
H3312 C3292 0.932 . S
H3313 C3293 0.930 . S
H3314 C3294 0.929 . S
H3315 C3296 0.930 . S
H3316 C3298 0.932 . S
H3317 C3299 0.929 . S
H3318 C3300 0.928 . S
H3319 C3302 0.932 . S
C3320 C3321 1.264 . S
C3320 C3325 1.479 . S
C3320 C3330 1.465 . S
C3321 C3320 1.264 . S
C3321 C3323 1.339 . S
C3321 H3348 0.931 . S
C3322 C3323 1.395 . S
C3322 C3324 1.320 . S
C3323 C3321 1.339 . S
C3323 C3322 1.395 . S
C3323 H3349 0.929 . S
C3324 C3322 1.320 . S
C3324 C3325 1.405 . S
C3324 H3350 0.930 . S
C3325 C3320 1.479 . S
C3325 C3324 1.405 . S
C3325 H3351 0.931 . S
U3326 O3327 2.454 . S
U3326 O3328 2.458 . S
U3326 C3329 2.984 . S
U3326 C3330 2.847 . S
U3326 C3343 2.882 . S
U3326 O3344 2.441 . S
U3326 O3345 2.420 . S
U3326 O3346 2.455 . S
U3326 O3347 2.449 . S
O3327 U3326 2.454 . S
O3327 C3329 1.353 . S
O3328 U3326 2.458 . S
O3328 C3329 1.286 . S
C3329 U3326 2.984 . S
C3329 O3327 1.353 . S
C3329 O3328 1.286 . S
C3329 C3331 1.363 . S
C3330 C3320 1.465 . S
C3330 U3326 2.847 . S
C3330 O3344 1.249 . S
C3330 O3345 1.202 . S
C3331 C3329 1.363 . S
C3331 C3333 1.408 . S
C3331 C3336 1.342 . S
C3332 C3333 1.310 . S
C3332 C3335 1.461 . S
C3332 H3352 0.932 . S
C3333 C3331 1.408 . S
C3333 C3332 1.310 . S
C3333 H3353 0.930 . S
C3334 C3335 1.474 . S
C3334 C3336 1.285 . S
C3334 H3354 0.929 . S
C3335 C3332 1.461 . S
C3335 C3334 1.474 . S
C3336 C3331 1.342 . S
C3336 C3334 1.285 . S
C3336 H3355 0.930 . S
C3337 C3340 1.424 . S
C3337 C3342 1.245 . S
C3337 C3343 1.428 . S
C3338 C3341 1.260 . S
C3338 C3342 1.477 . S
C3338 H3356 0.932 . S
C3339 C3340 1.384 . S
C3339 C3341 1.479 . S
C3339 H3357 0.929 . S
C3340 C3337 1.424 . S
C3340 C3339 1.384 . S
C3340 H3358 0.928 . S
C3341 C3338 1.260 . S
C3341 C3339 1.479 . S
C3342 C3337 1.245 . S
C3342 C3338 1.477 . S
C3342 H3359 0.932 . S
C3343 U3326 2.882 . S
C3343 C3337 1.428 . S
C3343 O3346 1.301 . S
C3343 O3347 1.282 . S
O3344 U3326 2.441 . S
O3344 C3330 1.249 . S
O3345 U3326 2.420 . S
O3345 C3330 1.202 . S
O3346 U3326 2.455 . S
O3346 C3343 1.301 . S
O3347 U3326 2.449 . S
O3347 C3343 1.282 . S
H3348 C3321 0.931 . S
H3349 C3323 0.929 . S
H3350 C3324 0.930 . S
H3351 C3325 0.931 . S
H3352 C3332 0.932 . S
H3353 C3333 0.930 . S
H3354 C3334 0.929 . S
H3355 C3336 0.930 . S
H3356 C3338 0.932 . S
H3357 C3339 0.929 . S
H3358 C3340 0.928 . S
H3359 C3342 0.932 . S
C3360 C3361 1.264 . S
C3360 C3365 1.479 . S
C3360 C3370 1.465 . S
C3361 C3360 1.264 . S
C3361 C3363 1.339 . S
C3361 H3388 0.931 . S
C3362 C3363 1.395 . S
C3362 C3364 1.320 . S
C3363 C3361 1.339 . S
C3363 C3362 1.395 . S
C3363 H3389 0.929 . S
C3364 C3362 1.320 . S
C3364 C3365 1.405 . S
C3364 H3390 0.930 . S
C3365 C3360 1.479 . S
C3365 C3364 1.405 . S
C3365 H3391 0.931 . S
U3366 O3367 2.454 . S
U3366 O3368 2.458 . S
U3366 C3369 2.984 . S
U3366 C3370 2.847 . S
U3366 C3383 2.882 . S
U3366 O3384 2.441 . S
U3366 O3385 2.420 . S
U3366 O3386 2.455 . S
U3366 O3387 2.449 . S
O3367 U3366 2.454 . S
O3367 C3369 1.353 . S
O3368 U3366 2.458 . S
O3368 C3369 1.286 . S
C3369 U3366 2.984 . S
C3369 O3367 1.353 . S
C3369 O3368 1.286 . S
C3369 C3371 1.363 . S
C3370 C3360 1.465 . S
C3370 U3366 2.847 . S
C3370 O3384 1.249 . S
C3370 O3385 1.202 . S
C3371 C3369 1.363 . S
C3371 C3373 1.408 . S
C3371 C3376 1.342 . S
C3372 C3373 1.310 . S
C3372 C3375 1.461 . S
C3372 H3392 0.932 . S
C3373 C3371 1.408 . S
C3373 C3372 1.310 . S
C3373 H3393 0.930 . S
C3374 C3375 1.474 . S
C3374 C3376 1.285 . S
C3374 H3394 0.929 . S
C3375 C3372 1.461 . S
C3375 C3374 1.474 . S
C3376 C3371 1.342 . S
C3376 C3374 1.285 . S
C3376 H3395 0.930 . S
C3377 C3380 1.424 . S
C3377 C3382 1.245 . S
C3377 C3383 1.428 . S
C3378 C3381 1.260 . S
C3378 C3382 1.477 . S
C3378 H3396 0.932 . S
C3379 C3380 1.384 . S
C3379 C3381 1.479 . S
C3379 H3397 0.929 . S
C3380 C3377 1.424 . S
C3380 C3379 1.384 . S
C3380 H3398 0.928 . S
C3381 C3378 1.260 . S
C3381 C3379 1.479 . S
C3382 C3377 1.245 . S
C3382 C3378 1.477 . S
C3382 H3399 0.932 . S
C3383 U3366 2.882 . S
C3383 C3377 1.428 . S
C3383 O3386 1.301 . S
C3383 O3387 1.282 . S
O3384 U3366 2.441 . S
O3384 C3370 1.249 . S
O3385 U3366 2.420 . S
O3385 C3370 1.202 . S
O3386 U3366 2.455 . S
O3386 C3383 1.301 . S
O3387 U3366 2.449 . S
O3387 C3383 1.282 . S
H3388 C3361 0.931 . S
H3389 C3363 0.929 . S
H3390 C3364 0.930 . S
H3391 C3365 0.931 . S
H3392 C3372 0.932 . S
H3393 C3373 0.930 . S
H3394 C3374 0.929 . S
H3395 C3376 0.930 . S
H3396 C3378 0.932 . S
H3397 C3379 0.929 . S
H3398 C3380 0.928 . S
H3399 C3382 0.932 . S
C3400 C3401 1.264 . S
C3400 C3405 1.479 . S
C3400 C3410 1.465 . S
C3401 C3400 1.264 . S
C3401 C3403 1.339 . S
C3401 H3428 0.931 . S
C3402 C3403 1.395 . S
C3402 C3404 1.320 . S
C3403 C3401 1.339 . S
C3403 C3402 1.395 . S
C3403 H3429 0.929 . S
C3404 C3402 1.320 . S
C3404 C3405 1.405 . S
C3404 H3430 0.930 . S
C3405 C3400 1.479 . S
C3405 C3404 1.405 . S
C3405 H3431 0.931 . S
U3406 O3407 2.454 . S
U3406 O3408 2.458 . S
U3406 C3409 2.984 . S
U3406 C3410 2.847 . S
U3406 C3423 2.882 . S
U3406 O3424 2.441 . S
U3406 O3425 2.420 . S
U3406 O3426 2.455 . S
U3406 O3427 2.449 . S
O3407 U3406 2.454 . S
O3407 C3409 1.353 . S
O3408 U3406 2.458 . S
O3408 C3409 1.286 . S
C3409 U3406 2.984 . S
C3409 O3407 1.353 . S
C3409 O3408 1.286 . S
C3409 C3411 1.363 . S
C3410 C3400 1.465 . S
C3410 U3406 2.847 . S
C3410 O3424 1.249 . S
C3410 O3425 1.202 . S
C3411 C3409 1.363 . S
C3411 C3413 1.408 . S
C3411 C3416 1.342 . S
C3412 C3413 1.310 . S
C3412 C3415 1.461 . S
C3412 H3432 0.932 . S
C3413 C3411 1.408 . S
C3413 C3412 1.310 . S
C3413 H3433 0.930 . S
C3414 C3415 1.474 . S
C3414 C3416 1.285 . S
C3414 H3434 0.929 . S
C3415 C3412 1.461 . S
C3415 C3414 1.474 . S
C3416 C3411 1.342 . S
C3416 C3414 1.285 . S
C3416 H3435 0.930 . S
C3417 C3420 1.424 . S
C3417 C3422 1.245 . S
C3417 C3423 1.428 . S
C3418 C3421 1.260 . S
C3418 C3422 1.477 . S
C3418 H3436 0.932 . S
C3419 C3420 1.384 . S
C3419 C3421 1.479 . S
C3419 H3437 0.929 . S
C3420 C3417 1.424 . S
C3420 C3419 1.384 . S
C3420 H3438 0.928 . S
C3421 C3418 1.260 . S
C3421 C3419 1.479 . S
C3422 C3417 1.245 . S
C3422 C3418 1.477 . S
C3422 H3439 0.932 . S
C3423 U3406 2.882 . S
C3423 C3417 1.428 . S
C3423 O3426 1.301 . S
C3423 O3427 1.282 . S
O3424 U3406 2.441 . S
O3424 C3410 1.249 . S
O3425 U3406 2.420 . S
O3425 C3410 1.202 . S
O3426 U3406 2.455 . S
O3426 C3423 1.301 . S
O3427 U3406 2.449 . S
O3427 C3423 1.282 . S
H3428 C3401 0.931 . S
H3429 C3403 0.929 . S
H3430 C3404 0.930 . S
H3431 C3405 0.931 . S
H3432 C3412 0.932 . S
H3433 C3413 0.930 . S
H3434 C3414 0.929 . S
H3435 C3416 0.930 . S
H3436 C3418 0.932 . S
H3437 C3419 0.929 . S
H3438 C3420 0.928 . S
H3439 C3422 0.932 . S
C3440 C3441 1.264 . S
C3440 C3445 1.479 . S
C3440 C3450 1.465 . S
C3441 C3440 1.264 . S
C3441 C3443 1.339 . S
C3441 H3468 0.931 . S
C3442 C3443 1.395 . S
C3442 C3444 1.320 . S
C3443 C3441 1.339 . S
C3443 C3442 1.395 . S
C3443 H3469 0.929 . S
C3444 C3442 1.320 . S
C3444 C3445 1.405 . S
C3444 H3470 0.930 . S
C3445 C3440 1.479 . S
C3445 C3444 1.405 . S
C3445 H3471 0.931 . S
U3446 O3447 2.454 . S
U3446 O3448 2.458 . S
U3446 C3449 2.984 . S
U3446 C3450 2.847 . S
U3446 C3463 2.882 . S
U3446 O3464 2.441 . S
U3446 O3465 2.420 . S
U3446 O3466 2.455 . S
U3446 O3467 2.449 . S
O3447 U3446 2.454 . S
O3447 C3449 1.353 . S
O3448 U3446 2.458 . S
O3448 C3449 1.286 . S
C3449 U3446 2.984 . S
C3449 O3447 1.353 . S
C3449 O3448 1.286 . S
C3449 C3451 1.363 . S
C3450 C3440 1.465 . S
C3450 U3446 2.847 . S
C3450 O3464 1.249 . S
C3450 O3465 1.202 . S
C3451 C3449 1.363 . S
C3451 C3453 1.408 . S
C3451 C3456 1.342 . S
C3452 C3453 1.310 . S
C3452 C3455 1.461 . S
C3452 H3472 0.932 . S
C3453 C3451 1.408 . S
C3453 C3452 1.310 . S
C3453 H3473 0.930 . S
C3454 C3455 1.474 . S
C3454 C3456 1.285 . S
C3454 H3474 0.929 . S
C3455 C3452 1.461 . S
C3455 C3454 1.474 . S
C3456 C3451 1.342 . S
C3456 C3454 1.285 . S
C3456 H3475 0.930 . S
C3457 C3460 1.424 . S
C3457 C3462 1.245 . S
C3457 C3463 1.428 . S
C3458 C3461 1.260 . S
C3458 C3462 1.477 . S
C3458 H3476 0.932 . S
C3459 C3460 1.384 . S
C3459 C3461 1.479 . S
C3459 H3477 0.929 . S
C3460 C3457 1.424 . S
C3460 C3459 1.384 . S
C3460 H3478 0.928 . S
C3461 C3458 1.260 . S
C3461 C3459 1.479 . S
C3462 C3457 1.245 . S
C3462 C3458 1.477 . S
C3462 H3479 0.932 . S
C3463 U3446 2.882 . S
C3463 C3457 1.428 . S
C3463 O3466 1.301 . S
C3463 O3467 1.282 . S
O3464 U3446 2.441 . S
O3464 C3450 1.249 . S
O3465 U3446 2.420 . S
O3465 C3450 1.202 . S
O3466 U3446 2.455 . S
O3466 C3463 1.301 . S
O3467 U3446 2.449 . S
O3467 C3463 1.282 . S
H3468 C3441 0.931 . S
H3469 C3443 0.929 . S
H3470 C3444 0.930 . S
H3471 C3445 0.931 . S
H3472 C3452 0.932 . S
H3473 C3453 0.930 . S
H3474 C3454 0.929 . S
H3475 C3456 0.930 . S
H3476 C3458 0.932 . S
H3477 C3459 0.929 . S
H3478 C3460 0.928 . S
H3479 C3462 0.932 . S
C3480 C3481 1.264 . S
C3480 C3485 1.479 . S
C3480 C3490 1.465 . S
C3481 C3480 1.264 . S
C3481 C3483 1.339 . S
C3481 H3508 0.931 . S
C3482 C3483 1.395 . S
C3482 C3484 1.320 . S
C3483 C3481 1.339 . S
C3483 C3482 1.395 . S
C3483 H3509 0.929 . S
C3484 C3482 1.320 . S
C3484 C3485 1.405 . S
C3484 H3510 0.930 . S
C3485 C3480 1.479 . S
C3485 C3484 1.405 . S
C3485 H3511 0.931 . S
U3486 O3487 2.454 . S
U3486 O3488 2.458 . S
U3486 C3489 2.984 . S
U3486 C3490 2.847 . S
U3486 C3503 2.882 . S
U3486 O3504 2.441 . S
U3486 O3505 2.420 . S
U3486 O3506 2.455 . S
U3486 O3507 2.449 . S
O3487 U3486 2.454 . S
O3487 C3489 1.353 . S
O3488 U3486 2.458 . S
O3488 C3489 1.286 . S
C3489 U3486 2.984 . S
C3489 O3487 1.353 . S
C3489 O3488 1.286 . S
C3489 C3491 1.363 . S
C3490 C3480 1.465 . S
C3490 U3486 2.847 . S
C3490 O3504 1.249 . S
C3490 O3505 1.202 . S
C3491 C3489 1.363 . S
C3491 C3493 1.408 . S
C3491 C3496 1.342 . S
C3492 C3493 1.310 . S
C3492 C3495 1.461 . S
C3492 H3512 0.932 . S
C3493 C3491 1.408 . S
C3493 C3492 1.310 . S
C3493 H3513 0.930 . S
C3494 C3495 1.474 . S
C3494 C3496 1.285 . S
C3494 H3514 0.929 . S
C3495 C3492 1.461 . S
C3495 C3494 1.474 . S
C3496 C3491 1.342 . S
C3496 C3494 1.285 . S
C3496 H3515 0.930 . S
C3497 C3500 1.424 . S
C3497 C3502 1.245 . S
C3497 C3503 1.428 . S
C3498 C3501 1.260 . S
C3498 C3502 1.477 . S
C3498 H3516 0.932 . S
C3499 C3500 1.384 . S
C3499 C3501 1.479 . S
C3499 H3517 0.929 . S
C3500 C3497 1.424 . S
C3500 C3499 1.384 . S
C3500 H3518 0.928 . S
C3501 C3498 1.260 . S
C3501 C3499 1.479 . S
C3502 C3497 1.245 . S
C3502 C3498 1.477 . S
C3502 H3519 0.932 . S
C3503 U3486 2.882 . S
C3503 C3497 1.428 . S
C3503 O3506 1.301 . S
C3503 O3507 1.282 . S
O3504 U3486 2.441 . S
O3504 C3490 1.249 . S
O3505 U3486 2.420 . S
O3505 C3490 1.202 . S
O3506 U3486 2.455 . S
O3506 C3503 1.301 . S
O3507 U3486 2.449 . S
O3507 C3503 1.282 . S
H3508 C3481 0.931 . S
H3509 C3483 0.929 . S
H3510 C3484 0.930 . S
H3511 C3485 0.931 . S
H3512 C3492 0.932 . S
H3513 C3493 0.930 . S
H3514 C3494 0.929 . S
H3515 C3496 0.930 . S
H3516 C3498 0.932 . S
H3517 C3499 0.929 . S
H3518 C3500 0.928 . S
H3519 C3502 0.932 . S
C3520 C3521 1.264 . S
C3520 C3525 1.479 . S
C3520 C3530 1.465 . S
C3521 C3520 1.264 . S
C3521 C3523 1.339 . S
C3521 H3548 0.931 . S
C3522 C3523 1.395 . S
C3522 C3524 1.320 . S
C3523 C3521 1.339 . S
C3523 C3522 1.395 . S
C3523 H3549 0.929 . S
C3524 C3522 1.320 . S
C3524 C3525 1.405 . S
C3524 H3550 0.930 . S
C3525 C3520 1.479 . S
C3525 C3524 1.405 . S
C3525 H3551 0.931 . S
U3526 O3527 2.454 . S
U3526 O3528 2.458 . S
U3526 C3529 2.984 . S
U3526 C3530 2.847 . S
U3526 C3543 2.882 . S
U3526 O3544 2.441 . S
U3526 O3545 2.420 . S
U3526 O3546 2.455 . S
U3526 O3547 2.449 . S
O3527 U3526 2.454 . S
O3527 C3529 1.353 . S
O3528 U3526 2.458 . S
O3528 C3529 1.286 . S
C3529 U3526 2.984 . S
C3529 O3527 1.353 . S
C3529 O3528 1.286 . S
C3529 C3531 1.363 . S
C3530 C3520 1.465 . S
C3530 U3526 2.847 . S
C3530 O3544 1.249 . S
C3530 O3545 1.202 . S
C3531 C3529 1.363 . S
C3531 C3533 1.408 . S
C3531 C3536 1.342 . S
C3532 C3533 1.310 . S
C3532 C3535 1.461 . S
C3532 H3552 0.932 . S
C3533 C3531 1.408 . S
C3533 C3532 1.310 . S
C3533 H3553 0.930 . S
C3534 C3535 1.474 . S
C3534 C3536 1.285 . S
C3534 H3554 0.929 . S
C3535 C3532 1.461 . S
C3535 C3534 1.474 . S
C3536 C3531 1.342 . S
C3536 C3534 1.285 . S
C3536 H3555 0.930 . S
C3537 C3540 1.424 . S
C3537 C3542 1.245 . S
C3537 C3543 1.428 . S
C3538 C3541 1.260 . S
C3538 C3542 1.477 . S
C3538 H3556 0.932 . S
C3539 C3540 1.384 . S
C3539 C3541 1.479 . S
C3539 H3557 0.929 . S
C3540 C3537 1.424 . S
C3540 C3539 1.384 . S
C3540 H3558 0.928 . S
C3541 C3538 1.260 . S
C3541 C3539 1.479 . S
C3542 C3537 1.245 . S
C3542 C3538 1.477 . S
C3542 H3559 0.932 . S
C3543 U3526 2.882 . S
C3543 C3537 1.428 . S
C3543 O3546 1.301 . S
C3543 O3547 1.282 . S
O3544 U3526 2.441 . S
O3544 C3530 1.249 . S
O3545 U3526 2.420 . S
O3545 C3530 1.202 . S
O3546 U3526 2.455 . S
O3546 C3543 1.301 . S
O3547 U3526 2.449 . S
O3547 C3543 1.282 . S
H3548 C3521 0.931 . S
H3549 C3523 0.929 . S
H3550 C3524 0.930 . S
H3551 C3525 0.931 . S
H3552 C3532 0.932 . S
H3553 C3533 0.930 . S
H3554 C3534 0.929 . S
H3555 C3536 0.930 . S
H3556 C3538 0.932 . S
H3557 C3539 0.929 . S
H3558 C3540 0.928 . S
H3559 C3542 0.932 . S
C3560 C3561 1.264 . S
C3560 C3565 1.479 . S
C3560 C3570 1.465 . S
C3561 C3560 1.264 . S
C3561 C3563 1.339 . S
C3561 H3588 0.931 . S
C3562 C3563 1.395 . S
C3562 C3564 1.320 . S
C3563 C3561 1.339 . S
C3563 C3562 1.395 . S
C3563 H3589 0.929 . S
C3564 C3562 1.320 . S
C3564 C3565 1.405 . S
C3564 H3590 0.930 . S
C3565 C3560 1.479 . S
C3565 C3564 1.405 . S
C3565 H3591 0.931 . S
U3566 O3567 2.454 . S
U3566 O3568 2.458 . S
U3566 C3569 2.984 . S
U3566 C3570 2.847 . S
U3566 C3583 2.882 . S
U3566 O3584 2.441 . S
U3566 O3585 2.420 . S
U3566 O3586 2.455 . S
U3566 O3587 2.449 . S
O3567 U3566 2.454 . S
O3567 C3569 1.353 . S
O3568 U3566 2.458 . S
O3568 C3569 1.286 . S
C3569 U3566 2.984 . S
C3569 O3567 1.353 . S
C3569 O3568 1.286 . S
C3569 C3571 1.363 . S
C3570 C3560 1.465 . S
C3570 U3566 2.847 . S
C3570 O3584 1.249 . S
C3570 O3585 1.202 . S
C3571 C3569 1.363 . S
C3571 C3573 1.408 . S
C3571 C3576 1.342 . S
C3572 C3573 1.310 . S
C3572 C3575 1.461 . S
C3572 H3592 0.932 . S
C3573 C3571 1.408 . S
C3573 C3572 1.310 . S
C3573 H3593 0.930 . S
C3574 C3575 1.474 . S
C3574 C3576 1.285 . S
C3574 H3594 0.929 . S
C3575 C3572 1.461 . S
C3575 C3574 1.474 . S
C3576 C3571 1.342 . S
C3576 C3574 1.285 . S
C3576 H3595 0.930 . S
C3577 C3580 1.424 . S
C3577 C3582 1.245 . S
C3577 C3583 1.428 . S
C3578 C3581 1.260 . S
C3578 C3582 1.477 . S
C3578 H3596 0.932 . S
C3579 C3580 1.384 . S
C3579 C3581 1.479 . S
C3579 H3597 0.929 . S
C3580 C3577 1.424 . S
C3580 C3579 1.384 . S
C3580 H3598 0.928 . S
C3581 C3578 1.260 . S
C3581 C3579 1.479 . S
C3582 C3577 1.245 . S
C3582 C3578 1.477 . S
C3582 H3599 0.932 . S
C3583 U3566 2.882 . S
C3583 C3577 1.428 . S
C3583 O3586 1.301 . S
C3583 O3587 1.282 . S
O3584 U3566 2.441 . S
O3584 C3570 1.249 . S
O3585 U3566 2.420 . S
O3585 C3570 1.202 . S
O3586 U3566 2.455 . S
O3586 C3583 1.301 . S
O3587 U3566 2.449 . S
O3587 C3583 1.282 . S
H3588 C3561 0.931 . S
H3589 C3563 0.929 . S
H3590 C3564 0.930 . S
H3591 C3565 0.931 . S
H3592 C3572 0.932 . S
H3593 C3573 0.930 . S
H3594 C3574 0.929 . S
H3595 C3576 0.930 . S
H3596 C3578 0.932 . S
H3597 C3579 0.929 . S
H3598 C3580 0.928 . S
H3599 C3582 0.932 . S
C3600 C3601 1.264 . S
C3600 C3605 1.479 . S
C3600 C3610 1.465 . S
C3601 C3600 1.264 . S
C3601 C3603 1.339 . S
C3601 H3628 0.931 . S
C3602 C3603 1.395 . S
C3602 C3604 1.320 . S
C3603 C3601 1.339 . S
C3603 C3602 1.395 . S
C3603 H3629 0.929 . S
C3604 C3602 1.320 . S
C3604 C3605 1.405 . S
C3604 H3630 0.930 . S
C3605 C3600 1.479 . S
C3605 C3604 1.405 . S
C3605 H3631 0.931 . S
U3606 O3607 2.454 . S
U3606 O3608 2.458 . S
U3606 C3609 2.984 . S
U3606 C3610 2.847 . S
U3606 C3623 2.882 . S
U3606 O3624 2.441 . S
U3606 O3625 2.420 . S
U3606 O3626 2.455 . S
U3606 O3627 2.449 . S
O3607 U3606 2.454 . S
O3607 C3609 1.353 . S
O3608 U3606 2.458 . S
O3608 C3609 1.286 . S
C3609 U3606 2.984 . S
C3609 O3607 1.353 . S
C3609 O3608 1.286 . S
C3609 C3611 1.363 . S
C3610 C3600 1.465 . S
C3610 U3606 2.847 . S
C3610 O3624 1.249 . S
C3610 O3625 1.202 . S
C3611 C3609 1.363 . S
C3611 C3613 1.408 . S
C3611 C3616 1.342 . S
C3612 C3613 1.310 . S
C3612 C3615 1.461 . S
C3612 H3632 0.932 . S
C3613 C3611 1.408 . S
C3613 C3612 1.310 . S
C3613 H3633 0.930 . S
C3614 C3615 1.474 . S
C3614 C3616 1.285 . S
C3614 H3634 0.929 . S
C3615 C3612 1.461 . S
C3615 C3614 1.474 . S
C3616 C3611 1.342 . S
C3616 C3614 1.285 . S
C3616 H3635 0.930 . S
C3617 C3620 1.424 . S
C3617 C3622 1.245 . S
C3617 C3623 1.428 . S
C3618 C3621 1.260 . S
C3618 C3622 1.477 . S
C3618 H3636 0.932 . S
C3619 C3620 1.384 . S
C3619 C3621 1.479 . S
C3619 H3637 0.929 . S
C3620 C3617 1.424 . S
C3620 C3619 1.384 . S
C3620 H3638 0.928 . S
C3621 C3618 1.260 . S
C3621 C3619 1.479 . S
C3622 C3617 1.245 . S
C3622 C3618 1.477 . S
C3622 H3639 0.932 . S
C3623 U3606 2.882 . S
C3623 C3617 1.428 . S
C3623 O3626 1.301 . S
C3623 O3627 1.282 . S
O3624 U3606 2.441 . S
O3624 C3610 1.249 . S
O3625 U3606 2.420 . S
O3625 C3610 1.202 . S
O3626 U3606 2.455 . S
O3626 C3623 1.301 . S
O3627 U3606 2.449 . S
O3627 C3623 1.282 . S
H3628 C3601 0.931 . S
H3629 C3603 0.929 . S
H3630 C3604 0.930 . S
H3631 C3605 0.931 . S
H3632 C3612 0.932 . S
H3633 C3613 0.930 . S
H3634 C3614 0.929 . S
H3635 C3616 0.930 . S
H3636 C3618 0.932 . S
H3637 C3619 0.929 . S
H3638 C3620 0.928 . S
H3639 C3622 0.932 . S
C3640 C3641 1.264 . S
C3640 C3645 1.479 . S
C3640 C3650 1.465 . S
C3641 C3640 1.264 . S
C3641 C3643 1.339 . S
C3641 H3668 0.931 . S
C3642 C3643 1.395 . S
C3642 C3644 1.320 . S
C3643 C3641 1.339 . S
C3643 C3642 1.395 . S
C3643 H3669 0.929 . S
C3644 C3642 1.320 . S
C3644 C3645 1.405 . S
C3644 H3670 0.930 . S
C3645 C3640 1.479 . S
C3645 C3644 1.405 . S
C3645 H3671 0.931 . S
U3646 O3647 2.454 . S
U3646 O3648 2.458 . S
U3646 C3649 2.984 . S
U3646 C3650 2.847 . S
U3646 C3663 2.882 . S
U3646 O3664 2.441 . S
U3646 O3665 2.420 . S
U3646 O3666 2.455 . S
U3646 O3667 2.449 . S
O3647 U3646 2.454 . S
O3647 C3649 1.353 . S
O3648 U3646 2.458 . S
O3648 C3649 1.286 . S
C3649 U3646 2.984 . S
C3649 O3647 1.353 . S
C3649 O3648 1.286 . S
C3649 C3651 1.363 . S
C3650 C3640 1.465 . S
C3650 U3646 2.847 . S
C3650 O3664 1.249 . S
C3650 O3665 1.202 . S
C3651 C3649 1.363 . S
C3651 C3653 1.408 . S
C3651 C3656 1.342 . S
C3652 C3653 1.310 . S
C3652 C3655 1.461 . S
C3652 H3672 0.932 . S
C3653 C3651 1.408 . S
C3653 C3652 1.310 . S
C3653 H3673 0.930 . S
C3654 C3655 1.474 . S
C3654 C3656 1.285 . S
C3654 H3674 0.929 . S
C3655 C3652 1.461 . S
C3655 C3654 1.474 . S
C3656 C3651 1.342 . S
C3656 C3654 1.285 . S
C3656 H3675 0.930 . S
C3657 C3660 1.424 . S
C3657 C3662 1.245 . S
C3657 C3663 1.428 . S
C3658 C3661 1.260 . S
C3658 C3662 1.477 . S
C3658 H3676 0.932 . S
C3659 C3660 1.384 . S
C3659 C3661 1.479 . S
C3659 H3677 0.929 . S
C3660 C3657 1.424 . S
C3660 C3659 1.384 . S
C3660 H3678 0.928 . S
C3661 C3658 1.260 . S
C3661 C3659 1.479 . S
C3662 C3657 1.245 . S
C3662 C3658 1.477 . S
C3662 H3679 0.932 . S
C3663 U3646 2.882 . S
C3663 C3657 1.428 . S
C3663 O3666 1.301 . S
C3663 O3667 1.282 . S
O3664 U3646 2.441 . S
O3664 C3650 1.249 . S
O3665 U3646 2.420 . S
O3665 C3650 1.202 . S
O3666 U3646 2.455 . S
O3666 C3663 1.301 . S
O3667 U3646 2.449 . S
O3667 C3663 1.282 . S
H3668 C3641 0.931 . S
H3669 C3643 0.929 . S
H3670 C3644 0.930 . S
H3671 C3645 0.931 . S
H3672 C3652 0.932 . S
H3673 C3653 0.930 . S
H3674 C3654 0.929 . S
H3675 C3656 0.930 . S
H3676 C3658 0.932 . S
H3677 C3659 0.929 . S
H3678 C3660 0.928 . S
H3679 C3662 0.932 . S
C3680 C3681 1.264 . S
C3680 C3685 1.479 . S
C3680 C3690 1.465 . S
C3681 C3680 1.264 . S
C3681 C3683 1.339 . S
C3681 H3708 0.931 . S
C3682 C3683 1.395 . S
C3682 C3684 1.320 . S
C3683 C3681 1.339 . S
C3683 C3682 1.395 . S
C3683 H3709 0.929 . S
C3684 C3682 1.320 . S
C3684 C3685 1.405 . S
C3684 H3710 0.930 . S
C3685 C3680 1.479 . S
C3685 C3684 1.405 . S
C3685 H3711 0.931 . S
U3686 O3687 2.454 . S
U3686 O3688 2.458 . S
U3686 C3689 2.984 . S
U3686 C3690 2.847 . S
U3686 C3703 2.882 . S
U3686 O3704 2.441 . S
U3686 O3705 2.420 . S
U3686 O3706 2.455 . S
U3686 O3707 2.449 . S
O3687 U3686 2.454 . S
O3687 C3689 1.353 . S
O3688 U3686 2.458 . S
O3688 C3689 1.286 . S
C3689 U3686 2.984 . S
C3689 O3687 1.353 . S
C3689 O3688 1.286 . S
C3689 C3691 1.363 . S
C3690 C3680 1.465 . S
C3690 U3686 2.847 . S
C3690 O3704 1.249 . S
C3690 O3705 1.202 . S
C3691 C3689 1.363 . S
C3691 C3693 1.408 . S
C3691 C3696 1.342 . S
C3692 C3693 1.310 . S
C3692 C3695 1.461 . S
C3692 H3712 0.932 . S
C3693 C3691 1.408 . S
C3693 C3692 1.310 . S
C3693 H3713 0.930 . S
C3694 C3695 1.474 . S
C3694 C3696 1.285 . S
C3694 H3714 0.929 . S
C3695 C3692 1.461 . S
C3695 C3694 1.474 . S
C3696 C3691 1.342 . S
C3696 C3694 1.285 . S
C3696 H3715 0.930 . S
C3697 C3700 1.424 . S
C3697 C3702 1.245 . S
C3697 C3703 1.428 . S
C3698 C3701 1.260 . S
C3698 C3702 1.477 . S
C3698 H3716 0.932 . S
C3699 C3700 1.384 . S
C3699 C3701 1.479 . S
C3699 H3717 0.929 . S
C3700 C3697 1.424 . S
C3700 C3699 1.384 . S
C3700 H3718 0.928 . S
C3701 C3698 1.260 . S
C3701 C3699 1.479 . S
C3702 C3697 1.245 . S
C3702 C3698 1.477 . S
C3702 H3719 0.932 . S
C3703 U3686 2.882 . S
C3703 C3697 1.428 . S
C3703 O3706 1.301 . S
C3703 O3707 1.282 . S
O3704 U3686 2.441 . S
O3704 C3690 1.249 . S
O3705 U3686 2.420 . S
O3705 C3690 1.202 . S
O3706 U3686 2.455 . S
O3706 C3703 1.301 . S
O3707 U3686 2.449 . S
O3707 C3703 1.282 . S
H3708 C3681 0.931 . S
H3709 C3683 0.929 . S
H3710 C3684 0.930 . S
H3711 C3685 0.931 . S
H3712 C3692 0.932 . S
H3713 C3693 0.930 . S
H3714 C3694 0.929 . S
H3715 C3696 0.930 . S
H3716 C3698 0.932 . S
H3717 C3699 0.929 . S
H3718 C3700 0.928 . S
H3719 C3702 0.932 . S
C3720 C3721 1.264 . S
C3720 C3725 1.479 . S
C3720 C3730 1.465 . S
C3721 C3720 1.264 . S
C3721 C3723 1.339 . S
C3721 H3748 0.931 . S
C3722 C3723 1.395 . S
C3722 C3724 1.320 . S
C3723 C3721 1.339 . S
C3723 C3722 1.395 . S
C3723 H3749 0.929 . S
C3724 C3722 1.320 . S
C3724 C3725 1.405 . S
C3724 H3750 0.930 . S
C3725 C3720 1.479 . S
C3725 C3724 1.405 . S
C3725 H3751 0.931 . S
U3726 O3727 2.454 . S
U3726 O3728 2.458 . S
U3726 C3729 2.984 . S
U3726 C3730 2.847 . S
U3726 C3743 2.882 . S
U3726 O3744 2.441 . S
U3726 O3745 2.420 . S
U3726 O3746 2.455 . S
U3726 O3747 2.449 . S
O3727 U3726 2.454 . S
O3727 C3729 1.353 . S
O3728 U3726 2.458 . S
O3728 C3729 1.286 . S
C3729 U3726 2.984 . S
C3729 O3727 1.353 . S
C3729 O3728 1.286 . S
C3729 C3731 1.363 . S
C3730 C3720 1.465 . S
C3730 U3726 2.847 . S
C3730 O3744 1.249 . S
C3730 O3745 1.202 . S
C3731 C3729 1.363 . S
C3731 C3733 1.408 . S
C3731 C3736 1.342 . S
C3732 C3733 1.310 . S
C3732 C3735 1.461 . S
C3732 H3752 0.932 . S
C3733 C3731 1.408 . S
C3733 C3732 1.310 . S
C3733 H3753 0.930 . S
C3734 C3735 1.474 . S
C3734 C3736 1.285 . S
C3734 H3754 0.929 . S
C3735 C3732 1.461 . S
C3735 C3734 1.474 . S
C3736 C3731 1.342 . S
C3736 C3734 1.285 . S
C3736 H3755 0.930 . S
C3737 C3740 1.424 . S
C3737 C3742 1.245 . S
C3737 C3743 1.428 . S
C3738 C3741 1.260 . S
C3738 C3742 1.477 . S
C3738 H3756 0.932 . S
C3739 C3740 1.384 . S
C3739 C3741 1.479 . S
C3739 H3757 0.929 . S
C3740 C3737 1.424 . S
C3740 C3739 1.384 . S
C3740 H3758 0.928 . S
C3741 C3738 1.260 . S
C3741 C3739 1.479 . S
C3742 C3737 1.245 . S
C3742 C3738 1.477 . S
C3742 H3759 0.932 . S
C3743 U3726 2.882 . S
C3743 C3737 1.428 . S
C3743 O3746 1.301 . S
C3743 O3747 1.282 . S
O3744 U3726 2.441 . S
O3744 C3730 1.249 . S
O3745 U3726 2.420 . S
O3745 C3730 1.202 . S
O3746 U3726 2.455 . S
O3746 C3743 1.301 . S
O3747 U3726 2.449 . S
O3747 C3743 1.282 . S
H3748 C3721 0.931 . S
H3749 C3723 0.929 . S
H3750 C3724 0.930 . S
H3751 C3725 0.931 . S
H3752 C3732 0.932 . S
H3753 C3733 0.930 . S
H3754 C3734 0.929 . S
H3755 C3736 0.930 . S
H3756 C3738 0.932 . S
H3757 C3739 0.929 . S
H3758 C3740 0.928 . S
H3759 C3742 0.932 . S
C3760 C3761 1.264 . S
C3760 C3765 1.479 . S
C3760 C3770 1.465 . S
C3761 C3760 1.264 . S
C3761 C3763 1.339 . S
C3761 H3788 0.931 . S
C3762 C3763 1.395 . S
C3762 C3764 1.320 . S
C3763 C3761 1.339 . S
C3763 C3762 1.395 . S
C3763 H3789 0.929 . S
C3764 C3762 1.320 . S
C3764 C3765 1.405 . S
C3764 H3790 0.930 . S
C3765 C3760 1.479 . S
C3765 C3764 1.405 . S
C3765 H3791 0.931 . S
U3766 O3767 2.454 . S
U3766 O3768 2.458 . S
U3766 C3769 2.984 . S
U3766 C3770 2.847 . S
U3766 C3783 2.882 . S
U3766 O3784 2.441 . S
U3766 O3785 2.420 . S
U3766 O3786 2.455 . S
U3766 O3787 2.449 . S
O3767 U3766 2.454 . S
O3767 C3769 1.353 . S
O3768 U3766 2.458 . S
O3768 C3769 1.286 . S
C3769 U3766 2.984 . S
C3769 O3767 1.353 . S
C3769 O3768 1.286 . S
C3769 C3771 1.363 . S
C3770 C3760 1.465 . S
C3770 U3766 2.847 . S
C3770 O3784 1.249 . S
C3770 O3785 1.202 . S
C3771 C3769 1.363 . S
C3771 C3773 1.408 . S
C3771 C3776 1.342 . S
C3772 C3773 1.310 . S
C3772 C3775 1.461 . S
C3772 H3792 0.932 . S
C3773 C3771 1.408 . S
C3773 C3772 1.310 . S
C3773 H3793 0.930 . S
C3774 C3775 1.474 . S
C3774 C3776 1.285 . S
C3774 H3794 0.929 . S
C3775 C3772 1.461 . S
C3775 C3774 1.474 . S
C3776 C3771 1.342 . S
C3776 C3774 1.285 . S
C3776 H3795 0.930 . S
C3777 C3780 1.424 . S
C3777 C3782 1.245 . S
C3777 C3783 1.428 . S
C3778 C3781 1.260 . S
C3778 C3782 1.477 . S
C3778 H3796 0.932 . S
C3779 C3780 1.384 . S
C3779 C3781 1.479 . S
C3779 H3797 0.929 . S
C3780 C3777 1.424 . S
C3780 C3779 1.384 . S
C3780 H3798 0.928 . S
C3781 C3778 1.260 . S
C3781 C3779 1.479 . S
C3782 C3777 1.245 . S
C3782 C3778 1.477 . S
C3782 H3799 0.932 . S
C3783 U3766 2.882 . S
C3783 C3777 1.428 . S
C3783 O3786 1.301 . S
C3783 O3787 1.282 . S
O3784 U3766 2.441 . S
O3784 C3770 1.249 . S
O3785 U3766 2.420 . S
O3785 C3770 1.202 . S
O3786 U3766 2.455 . S
O3786 C3783 1.301 . S
O3787 U3766 2.449 . S
O3787 C3783 1.282 . S
H3788 C3761 0.931 . S
H3789 C3763 0.929 . S
H3790 C3764 0.930 . S
H3791 C3765 0.931 . S
H3792 C3772 0.932 . S
H3793 C3773 0.930 . S
H3794 C3774 0.929 . S
H3795 C3776 0.930 . S
H3796 C3778 0.932 . S
H3797 C3779 0.929 . S
H3798 C3780 0.928 . S
H3799 C3782 0.932 . S
C3800 C3801 1.264 . S
C3800 C3805 1.479 . S
C3800 C3810 1.465 . S
C3801 C3800 1.264 . S
C3801 C3803 1.339 . S
C3801 H3828 0.931 . S
C3802 C3803 1.395 . S
C3802 C3804 1.320 . S
C3803 C3801 1.339 . S
C3803 C3802 1.395 . S
C3803 H3829 0.929 . S
C3804 C3802 1.320 . S
C3804 C3805 1.405 . S
C3804 H3830 0.930 . S
C3805 C3800 1.479 . S
C3805 C3804 1.405 . S
C3805 H3831 0.931 . S
U3806 O3807 2.454 . S
U3806 O3808 2.458 . S
U3806 C3809 2.984 . S
U3806 C3810 2.847 . S
U3806 C3823 2.882 . S
U3806 O3824 2.441 . S
U3806 O3825 2.420 . S
U3806 O3826 2.455 . S
U3806 O3827 2.449 . S
O3807 U3806 2.454 . S
O3807 C3809 1.353 . S
O3808 U3806 2.458 . S
O3808 C3809 1.286 . S
C3809 U3806 2.984 . S
C3809 O3807 1.353 . S
C3809 O3808 1.286 . S
C3809 C3811 1.363 . S
C3810 C3800 1.465 . S
C3810 U3806 2.847 . S
C3810 O3824 1.249 . S
C3810 O3825 1.202 . S
C3811 C3809 1.363 . S
C3811 C3813 1.408 . S
C3811 C3816 1.342 . S
C3812 C3813 1.310 . S
C3812 C3815 1.461 . S
C3812 H3832 0.932 . S
C3813 C3811 1.408 . S
C3813 C3812 1.310 . S
C3813 H3833 0.930 . S
C3814 C3815 1.474 . S
C3814 C3816 1.285 . S
C3814 H3834 0.929 . S
C3815 C3812 1.461 . S
C3815 C3814 1.474 . S
C3816 C3811 1.342 . S
C3816 C3814 1.285 . S
C3816 H3835 0.930 . S
C3817 C3820 1.424 . S
C3817 C3822 1.245 . S
C3817 C3823 1.428 . S
C3818 C3821 1.260 . S
C3818 C3822 1.477 . S
C3818 H3836 0.932 . S
C3819 C3820 1.384 . S
C3819 C3821 1.479 . S
C3819 H3837 0.929 . S
C3820 C3817 1.424 . S
C3820 C3819 1.384 . S
C3820 H3838 0.928 . S
C3821 C3818 1.260 . S
C3821 C3819 1.479 . S
C3822 C3817 1.245 . S
C3822 C3818 1.477 . S
C3822 H3839 0.932 . S
C3823 U3806 2.882 . S
C3823 C3817 1.428 . S
C3823 O3826 1.301 . S
C3823 O3827 1.282 . S
O3824 U3806 2.441 . S
O3824 C3810 1.249 . S
O3825 U3806 2.420 . S
O3825 C3810 1.202 . S
O3826 U3806 2.455 . S
O3826 C3823 1.301 . S
O3827 U3806 2.449 . S
O3827 C3823 1.282 . S
H3828 C3801 0.931 . S
H3829 C3803 0.929 . S
H3830 C3804 0.930 . S
H3831 C3805 0.931 . S
H3832 C3812 0.932 . S
H3833 C3813 0.930 . S
H3834 C3814 0.929 . S
H3835 C3816 0.930 . S
H3836 C3818 0.932 . S
H3837 C3819 0.929 . S
H3838 C3820 0.928 . S
H3839 C3822 0.932 . S
H3840 C3846 0.930 . S
H3841 C3850 0.930 . S
H3842 C3855 0.929 . S
H3843 C3853 0.929 . S
H3844 C3848 0.929 . S
H3845 C3854 0.929 . S
C3846 H3840 0.930 . S
C3846 C3847 1.367 . S
C3846 C3854 1.378 . S
C3847 C3846 1.367 . S
C3847 C3855 1.433 . S
C3848 H3844 0.929 . S
C3848 C3850 1.378 . S
C3848 C3852 1.350 . S
C3849 C3852 1.463 . S
C3849 C3854 1.350 . S
C3849 N3857 1.427 . S
C3850 H3841 0.930 . S
C3850 C3848 1.378 . S
C3850 C3851 1.367 . S
C3851 C3850 1.367 . S
C3851 C3853 1.433 . S
C3852 C3848 1.350 . S
C3852 C3849 1.463 . S
C3852 N3856 1.427 . S
C3853 H3843 0.929 . S
C3853 C3851 1.433 . S
C3853 N3856 1.384 . S
C3854 H3845 0.929 . S
C3854 C3846 1.378 . S
C3854 C3849 1.350 . S
C3855 H3842 0.929 . S
C3855 C3847 1.433 . S
C3855 N3857 1.384 . S
N3856 C3852 1.427 . S
N3856 C3853 1.384 . S
N3857 C3849 1.427 . S
N3857 C3855 1.384 . S
H3858 C3864 0.930 . S
H3859 C3868 0.930 . S
H3860 C3873 0.929 . S
H3861 C3871 0.929 . S
H3862 C3866 0.929 . S
H3863 C3872 0.929 . S
C3864 H3858 0.930 . S
C3864 C3865 1.367 . S
C3864 C3872 1.378 . S
C3865 C3864 1.367 . S
C3865 C3873 1.433 . S
C3866 H3862 0.929 . S
C3866 C3868 1.378 . S
C3866 C3870 1.350 . S
C3867 C3870 1.463 . S
C3867 C3872 1.350 . S
C3867 N3875 1.427 . S
C3868 H3859 0.930 . S
C3868 C3866 1.378 . S
C3868 C3869 1.367 . S
C3869 C3868 1.367 . S
C3869 C3871 1.433 . S
C3870 C3866 1.350 . S
C3870 C3867 1.463 . S
C3870 N3874 1.427 . S
C3871 H3861 0.929 . S
C3871 C3869 1.433 . S
C3871 N3874 1.384 . S
C3872 H3863 0.929 . S
C3872 C3864 1.378 . S
C3872 C3867 1.350 . S
C3873 H3860 0.929 . S
C3873 C3865 1.433 . S
C3873 N3875 1.384 . S
N3874 C3870 1.427 . S
N3874 C3871 1.384 . S
N3875 C3867 1.427 . S
N3875 C3873 1.384 . S
H3876 C3882 0.930 . S
H3877 C3886 0.930 . S
H3878 C3891 0.929 . S
H3879 C3889 0.929 . S
H3880 C3884 0.929 . S
H3881 C3890 0.929 . S
C3882 H3876 0.930 . S
C3882 C3883 1.367 . S
C3882 C3890 1.378 . S
C3883 C3882 1.367 . S
C3883 C3891 1.433 . S
C3884 H3880 0.929 . S
C3884 C3886 1.378 . S
C3884 C3888 1.350 . S
C3885 C3888 1.463 . S
C3885 C3890 1.350 . S
C3885 N3893 1.427 . S
C3886 H3877 0.930 . S
C3886 C3884 1.378 . S
C3886 C3887 1.367 . S
C3887 C3886 1.367 . S
C3887 C3889 1.433 . S
C3888 C3884 1.350 . S
C3888 C3885 1.463 . S
C3888 N3892 1.427 . S
C3889 H3879 0.929 . S
C3889 C3887 1.433 . S
C3889 N3892 1.384 . S
C3890 H3881 0.929 . S
C3890 C3882 1.378 . S
C3890 C3885 1.350 . S
C3891 H3878 0.929 . S
C3891 C3883 1.433 . S
C3891 N3893 1.384 . S
N3892 C3888 1.427 . S
N3892 C3889 1.384 . S
N3893 C3885 1.427 . S
N3893 C3891 1.384 . S
H3894 C3900 0.930 . S
H3895 C3904 0.930 . S
H3896 C3909 0.929 . S
H3897 C3907 0.929 . S
H3898 C3902 0.929 . S
H3899 C3908 0.929 . S
C3900 H3894 0.930 . S
C3900 C3901 1.367 . S
C3900 C3908 1.378 . S
C3901 C3900 1.367 . S
C3901 C3909 1.433 . S
C3902 H3898 0.929 . S
C3902 C3904 1.378 . S
C3902 C3906 1.350 . S
C3903 C3906 1.463 . S
C3903 C3908 1.350 . S
C3903 N3911 1.427 . S
C3904 H3895 0.930 . S
C3904 C3902 1.378 . S
C3904 C3905 1.367 . S
C3905 C3904 1.367 . S
C3905 C3907 1.433 . S
C3906 C3902 1.350 . S
C3906 C3903 1.463 . S
C3906 N3910 1.427 . S
C3907 H3897 0.929 . S
C3907 C3905 1.433 . S
C3907 N3910 1.384 . S
C3908 H3899 0.929 . S
C3908 C3900 1.378 . S
C3908 C3903 1.350 . S
C3909 H3896 0.929 . S
C3909 C3901 1.433 . S
C3909 N3911 1.384 . S
N3910 C3906 1.427 . S
N3910 C3907 1.384 . S
N3911 C3903 1.427 . S
N3911 C3909 1.384 . S
H3912 C3918 0.930 . S
H3913 C3922 0.930 . S
H3914 C3927 0.929 . S
H3915 C3925 0.929 . S
H3916 C3920 0.929 . S
H3917 C3926 0.929 . S
C3918 H3912 0.930 . S
C3918 C3919 1.367 . S
C3918 C3926 1.378 . S
C3919 C3918 1.367 . S
C3919 C3927 1.433 . S
C3920 H3916 0.929 . S
C3920 C3922 1.378 . S
C3920 C3924 1.350 . S
C3921 C3924 1.463 . S
C3921 C3926 1.350 . S
C3921 N3929 1.427 . S
C3922 H3913 0.930 . S
C3922 C3920 1.378 . S
C3922 C3923 1.367 . S
C3923 C3922 1.367 . S
C3923 C3925 1.433 . S
C3924 C3920 1.350 . S
C3924 C3921 1.463 . S
C3924 N3928 1.427 . S
C3925 H3915 0.929 . S
C3925 C3923 1.433 . S
C3925 N3928 1.384 . S
C3926 H3917 0.929 . S
C3926 C3918 1.378 . S
C3926 C3921 1.350 . S
C3927 H3914 0.929 . S
C3927 C3919 1.433 . S
C3927 N3929 1.384 . S
N3928 C3924 1.427 . S
N3928 C3925 1.384 . S
N3929 C3921 1.427 . S
N3929 C3927 1.384 . S
H3930 C3936 0.930 . S
H3931 C3940 0.930 . S
H3932 C3945 0.929 . S
H3933 C3943 0.929 . S
H3934 C3938 0.929 . S
H3935 C3944 0.929 . S
C3936 H3930 0.930 . S
C3936 C3937 1.367 . S
C3936 C3944 1.378 . S
C3937 C3936 1.367 . S
C3937 C3945 1.433 . S
C3938 H3934 0.929 . S
C3938 C3940 1.378 . S
C3938 C3942 1.350 . S
C3939 C3942 1.463 . S
C3939 C3944 1.350 . S
C3939 N3947 1.427 . S
C3940 H3931 0.930 . S
C3940 C3938 1.378 . S
C3940 C3941 1.367 . S
C3941 C3940 1.367 . S
C3941 C3943 1.433 . S
C3942 C3938 1.350 . S
C3942 C3939 1.463 . S
C3942 N3946 1.427 . S
C3943 H3933 0.929 . S
C3943 C3941 1.433 . S
C3943 N3946 1.384 . S
C3944 H3935 0.929 . S
C3944 C3936 1.378 . S
C3944 C3939 1.350 . S
C3945 H3932 0.929 . S
C3945 C3937 1.433 . S
C3945 N3947 1.384 . S
N3946 C3942 1.427 . S
N3946 C3943 1.384 . S
N3947 C3939 1.427 . S
N3947 C3945 1.384 . S
H3948 C3954 0.930 . S
H3949 C3958 0.930 . S
H3950 C3963 0.929 . S
H3951 C3961 0.929 . S
H3952 C3956 0.929 . S
H3953 C3962 0.929 . S
C3954 H3948 0.930 . S
C3954 C3955 1.367 . S
C3954 C3962 1.378 . S
C3955 C3954 1.367 . S
C3955 C3963 1.433 . S
C3956 H3952 0.929 . S
C3956 C3958 1.378 . S
C3956 C3960 1.350 . S
C3957 C3960 1.463 . S
C3957 C3962 1.350 . S
C3957 N3965 1.427 . S
C3958 H3949 0.930 . S
C3958 C3956 1.378 . S
C3958 C3959 1.367 . S
C3959 C3958 1.367 . S
C3959 C3961 1.433 . S
C3960 C3956 1.350 . S
C3960 C3957 1.463 . S
C3960 N3964 1.427 . S
C3961 H3951 0.929 . S
C3961 C3959 1.433 . S
C3961 N3964 1.384 . S
C3962 H3953 0.929 . S
C3962 C3954 1.378 . S
C3962 C3957 1.350 . S
C3963 H3950 0.929 . S
C3963 C3955 1.433 . S
C3963 N3965 1.384 . S
N3964 C3960 1.427 . S
N3964 C3961 1.384 . S
N3965 C3957 1.427 . S
N3965 C3963 1.384 . S
H3966 C3972 0.930 . S
H3967 C3976 0.930 . S
H3968 C3981 0.929 . S
H3969 C3979 0.929 . S
H3970 C3974 0.929 . S
H3971 C3980 0.929 . S
C3972 H3966 0.930 . S
C3972 C3973 1.367 . S
C3972 C3980 1.378 . S
C3973 C3972 1.367 . S
C3973 C3981 1.433 . S
C3974 H3970 0.929 . S
C3974 C3976 1.378 . S
C3974 C3978 1.350 . S
C3975 C3978 1.463 . S
C3975 C3980 1.350 . S
C3975 N3983 1.427 . S
C3976 H3967 0.930 . S
C3976 C3974 1.378 . S
C3976 C3977 1.367 . S
C3977 C3976 1.367 . S
C3977 C3979 1.433 . S
C3978 C3974 1.350 . S
C3978 C3975 1.463 . S
C3978 N3982 1.427 . S
C3979 H3969 0.929 . S
C3979 C3977 1.433 . S
C3979 N3982 1.384 . S
C3980 H3971 0.929 . S
C3980 C3972 1.378 . S
C3980 C3975 1.350 . S
C3981 H3968 0.929 . S
C3981 C3973 1.433 . S
C3981 N3983 1.384 . S
N3982 C3978 1.427 . S
N3982 C3979 1.384 . S
N3983 C3975 1.427 . S
N3983 C3981 1.384 . S
H3984 C3990 0.930 . S
H3985 C3994 0.930 . S
H3986 C3999 0.929 . S
H3987 C3997 0.929 . S
H3988 C3992 0.929 . S
H3989 C3998 0.929 . S
C3990 H3984 0.930 . S
C3990 C3991 1.367 . S
C3990 C3998 1.378 . S
C3991 C3990 1.367 . S
C3991 C3999 1.433 . S
C3992 H3988 0.929 . S
C3992 C3994 1.378 . S
C3992 C3996 1.350 . S
C3993 C3996 1.463 . S
C3993 C3998 1.350 . S
C3993 N4001 1.427 . S
C3994 H3985 0.930 . S
C3994 C3992 1.378 . S
C3994 C3995 1.367 . S
C3995 C3994 1.367 . S
C3995 C3997 1.433 . S
C3996 C3992 1.350 . S
C3996 C3993 1.463 . S
C3996 N4000 1.427 . S
C3997 H3987 0.929 . S
C3997 C3995 1.433 . S
C3997 N4000 1.384 . S
C3998 H3989 0.929 . S
C3998 C3990 1.378 . S
C3998 C3993 1.350 . S
C3999 H3986 0.929 . S
C3999 C3991 1.433 . S
C3999 N4001 1.384 . S
N4000 C3996 1.427 . S
N4000 C3997 1.384 . S
N4001 C3993 1.427 . S
N4001 C3999 1.384 . S
H4002 C4008 0.930 . S
H4003 C4012 0.930 . S
H4004 C4017 0.929 . S
H4005 C4015 0.929 . S
H4006 C4010 0.929 . S
H4007 C4016 0.929 . S
C4008 H4002 0.930 . S
C4008 C4009 1.367 . S
C4008 C4016 1.378 . S
C4009 C4008 1.367 . S
C4009 C4017 1.433 . S
C4010 H4006 0.929 . S
C4010 C4012 1.378 . S
C4010 C4014 1.350 . S
C4011 C4014 1.463 . S
C4011 C4016 1.350 . S
C4011 N4019 1.427 . S
C4012 H4003 0.930 . S
C4012 C4010 1.378 . S
C4012 C4013 1.367 . S
C4013 C4012 1.367 . S
C4013 C4015 1.433 . S
C4014 C4010 1.350 . S
C4014 C4011 1.463 . S
C4014 N4018 1.427 . S
C4015 H4005 0.929 . S
C4015 C4013 1.433 . S
C4015 N4018 1.384 . S
C4016 H4007 0.929 . S
C4016 C4008 1.378 . S
C4016 C4011 1.350 . S
C4017 H4004 0.929 . S
C4017 C4009 1.433 . S
C4017 N4019 1.384 . S
N4018 C4014 1.427 . S
N4018 C4015 1.384 . S
N4019 C4011 1.427 . S
N4019 C4017 1.384 . S
H4020 C4026 0.930 . S
H4021 C4030 0.930 . S
H4022 C4035 0.929 . S
H4023 C4033 0.929 . S
H4024 C4028 0.929 . S
H4025 C4034 0.929 . S
C4026 H4020 0.930 . S
C4026 C4027 1.367 . S
C4026 C4034 1.378 . S
C4027 C4026 1.367 . S
C4027 C4035 1.433 . S
C4028 H4024 0.929 . S
C4028 C4030 1.378 . S
C4028 C4032 1.350 . S
C4029 C4032 1.463 . S
C4029 C4034 1.350 . S
C4029 N4037 1.427 . S
C4030 H4021 0.930 . S
C4030 C4028 1.378 . S
C4030 C4031 1.367 . S
C4031 C4030 1.367 . S
C4031 C4033 1.433 . S
C4032 C4028 1.350 . S
C4032 C4029 1.463 . S
C4032 N4036 1.427 . S
C4033 H4023 0.929 . S
C4033 C4031 1.433 . S
C4033 N4036 1.384 . S
C4034 H4025 0.929 . S
C4034 C4026 1.378 . S
C4034 C4029 1.350 . S
C4035 H4022 0.929 . S
C4035 C4027 1.433 . S
C4035 N4037 1.384 . S
N4036 C4032 1.427 . S
N4036 C4033 1.384 . S
N4037 C4029 1.427 . S
N4037 C4035 1.384 . S
H4038 C4044 0.930 . S
H4039 C4048 0.930 . S
H4040 C4053 0.929 . S
H4041 C4051 0.929 . S
H4042 C4046 0.929 . S
H4043 C4052 0.929 . S
C4044 H4038 0.930 . S
C4044 C4045 1.367 . S
C4044 C4052 1.378 . S
C4045 C4044 1.367 . S
C4045 C4053 1.433 . S
C4046 H4042 0.929 . S
C4046 C4048 1.378 . S
C4046 C4050 1.350 . S
C4047 C4050 1.463 . S
C4047 C4052 1.350 . S
C4047 N4055 1.427 . S
C4048 H4039 0.930 . S
C4048 C4046 1.378 . S
C4048 C4049 1.367 . S
C4049 C4048 1.367 . S
C4049 C4051 1.433 . S
C4050 C4046 1.350 . S
C4050 C4047 1.463 . S
C4050 N4054 1.427 . S
C4051 H4041 0.929 . S
C4051 C4049 1.433 . S
C4051 N4054 1.384 . S
C4052 H4043 0.929 . S
C4052 C4044 1.378 . S
C4052 C4047 1.350 . S
C4053 H4040 0.929 . S
C4053 C4045 1.433 . S
C4053 N4055 1.384 . S
N4054 C4050 1.427 . S
N4054 C4051 1.384 . S
N4055 C4047 1.427 . S
N4055 C4053 1.384 . S
H4056 C4062 0.930 . S
H4057 C4066 0.930 . S
H4058 C4071 0.929 . S
H4059 C4069 0.929 . S
H4060 C4064 0.929 . S
H4061 C4070 0.929 . S
C4062 H4056 0.930 . S
C4062 C4063 1.367 . S
C4062 C4070 1.378 . S
C4063 C4062 1.367 . S
C4063 C4071 1.433 . S
C4064 H4060 0.929 . S
C4064 C4066 1.378 . S
C4064 C4068 1.350 . S
C4065 C4068 1.463 . S
C4065 C4070 1.350 . S
C4065 N4073 1.427 . S
C4066 H4057 0.930 . S
C4066 C4064 1.378 . S
C4066 C4067 1.367 . S
C4067 C4066 1.367 . S
C4067 C4069 1.433 . S
C4068 C4064 1.350 . S
C4068 C4065 1.463 . S
C4068 N4072 1.427 . S
C4069 H4059 0.929 . S
C4069 C4067 1.433 . S
C4069 N4072 1.384 . S
C4070 H4061 0.929 . S
C4070 C4062 1.378 . S
C4070 C4065 1.350 . S
C4071 H4058 0.929 . S
C4071 C4063 1.433 . S
C4071 N4073 1.384 . S
N4072 C4068 1.427 . S
N4072 C4069 1.384 . S
N4073 C4065 1.427 . S
N4073 C4071 1.384 . S
H4074 C4080 0.930 . S
H4075 C4084 0.930 . S
H4076 C4089 0.929 . S
H4077 C4087 0.929 . S
H4078 C4082 0.929 . S
H4079 C4088 0.929 . S
C4080 H4074 0.930 . S
C4080 C4081 1.367 . S
C4080 C4088 1.378 . S
C4081 C4080 1.367 . S
C4081 C4089 1.433 . S
C4082 H4078 0.929 . S
C4082 C4084 1.378 . S
C4082 C4086 1.350 . S
C4083 C4086 1.463 . S
C4083 C4088 1.350 . S
C4083 N4091 1.427 . S
C4084 H4075 0.930 . S
C4084 C4082 1.378 . S
C4084 C4085 1.367 . S
C4085 C4084 1.367 . S
C4085 C4087 1.433 . S
C4086 C4082 1.350 . S
C4086 C4083 1.463 . S
C4086 N4090 1.427 . S
C4087 H4077 0.929 . S
C4087 C4085 1.433 . S
C4087 N4090 1.384 . S
C4088 H4079 0.929 . S
C4088 C4080 1.378 . S
C4088 C4083 1.350 . S
C4089 H4076 0.929 . S
C4089 C4081 1.433 . S
C4089 N4091 1.384 . S
N4090 C4086 1.427 . S
N4090 C4087 1.384 . S
N4091 C4083 1.427 . S
N4091 C4089 1.384 . S
H4092 C4098 0.930 . S
H4093 C4102 0.930 . S
H4094 C4107 0.929 . S
H4095 C4105 0.929 . S
H4096 C4100 0.929 . S
H4097 C4106 0.929 . S
C4098 H4092 0.930 . S
C4098 C4099 1.367 . S
C4098 C4106 1.378 . S
C4099 C4098 1.367 . S
C4099 C4107 1.433 . S
C4100 H4096 0.929 . S
C4100 C4102 1.378 . S
C4100 C4104 1.350 . S
C4101 C4104 1.463 . S
C4101 C4106 1.350 . S
C4101 N4109 1.427 . S
C4102 H4093 0.930 . S
C4102 C4100 1.378 . S
C4102 C4103 1.367 . S
C4103 C4102 1.367 . S
C4103 C4105 1.433 . S
C4104 C4100 1.350 . S
C4104 C4101 1.463 . S
C4104 N4108 1.427 . S
C4105 H4095 0.929 . S
C4105 C4103 1.433 . S
C4105 N4108 1.384 . S
C4106 H4097 0.929 . S
C4106 C4098 1.378 . S
C4106 C4101 1.350 . S
C4107 H4094 0.929 . S
C4107 C4099 1.433 . S
C4107 N4109 1.384 . S
N4108 C4104 1.427 . S
N4108 C4105 1.384 . S
N4109 C4101 1.427 . S
N4109 C4107 1.384 . S
H4110 C4116 0.930 . S
H4111 C4120 0.930 . S
H4112 C4125 0.929 . S
H4113 C4123 0.929 . S
H4114 C4118 0.929 . S
H4115 C4124 0.929 . S
C4116 H4110 0.930 . S
C4116 C4117 1.367 . S
C4116 C4124 1.378 . S
C4117 C4116 1.367 . S
C4117 C4125 1.433 . S
C4118 H4114 0.929 . S
C4118 C4120 1.378 . S
C4118 C4122 1.350 . S
C4119 C4122 1.463 . S
C4119 C4124 1.350 . S
C4119 N4127 1.427 . S
C4120 H4111 0.930 . S
C4120 C4118 1.378 . S
C4120 C4121 1.367 . S
C4121 C4120 1.367 . S
C4121 C4123 1.433 . S
C4122 C4118 1.350 . S
C4122 C4119 1.463 . S
C4122 N4126 1.427 . S
C4123 H4113 0.929 . S
C4123 C4121 1.433 . S
C4123 N4126 1.384 . S
C4124 H4115 0.929 . S
C4124 C4116 1.378 . S
C4124 C4119 1.350 . S
C4125 H4112 0.929 . S
C4125 C4117 1.433 . S
C4125 N4127 1.384 . S
N4126 C4122 1.427 . S
N4126 C4123 1.384 . S
N4127 C4119 1.427 . S
N4127 C4125 1.384 . S
H4128 C4134 0.930 . S
H4129 C4138 0.930 . S
H4130 C4143 0.929 . S
H4131 C4141 0.929 . S
H4132 C4136 0.929 . S
H4133 C4142 0.929 . S
C4134 H4128 0.930 . S
C4134 C4135 1.367 . S
C4134 C4142 1.378 . S
C4135 C4134 1.367 . S
C4135 C4143 1.433 . S
C4136 H4132 0.929 . S
C4136 C4138 1.378 . S
C4136 C4140 1.350 . S
C4137 C4140 1.463 . S
C4137 C4142 1.350 . S
C4137 N4145 1.427 . S
C4138 H4129 0.930 . S
C4138 C4136 1.378 . S
C4138 C4139 1.367 . S
C4139 C4138 1.367 . S
C4139 C4141 1.433 . S
C4140 C4136 1.350 . S
C4140 C4137 1.463 . S
C4140 N4144 1.427 . S
C4141 H4131 0.929 . S
C4141 C4139 1.433 . S
C4141 N4144 1.384 . S
C4142 H4133 0.929 . S
C4142 C4134 1.378 . S
C4142 C4137 1.350 . S
C4143 H4130 0.929 . S
C4143 C4135 1.433 . S
C4143 N4145 1.384 . S
N4144 C4140 1.427 . S
N4144 C4141 1.384 . S
N4145 C4137 1.427 . S
N4145 C4143 1.384 . S
H4146 C4152 0.930 . S
H4147 C4156 0.930 . S
H4148 C4161 0.929 . S
H4149 C4159 0.929 . S
H4150 C4154 0.929 . S
H4151 C4160 0.929 . S
C4152 H4146 0.930 . S
C4152 C4153 1.367 . S
C4152 C4160 1.378 . S
C4153 C4152 1.367 . S
C4153 C4161 1.433 . S
C4154 H4150 0.929 . S
C4154 C4156 1.378 . S
C4154 C4158 1.350 . S
C4155 C4158 1.463 . S
C4155 C4160 1.350 . S
C4155 N4163 1.427 . S
C4156 H4147 0.930 . S
C4156 C4154 1.378 . S
C4156 C4157 1.367 . S
C4157 C4156 1.367 . S
C4157 C4159 1.433 . S
C4158 C4154 1.350 . S
C4158 C4155 1.463 . S
C4158 N4162 1.427 . S
C4159 H4149 0.929 . S
C4159 C4157 1.433 . S
C4159 N4162 1.384 . S
C4160 H4151 0.929 . S
C4160 C4152 1.378 . S
C4160 C4155 1.350 . S
C4161 H4148 0.929 . S
C4161 C4153 1.433 . S
C4161 N4163 1.384 . S
N4162 C4158 1.427 . S
N4162 C4159 1.384 . S
N4163 C4155 1.427 . S
N4163 C4161 1.384 . S
H4164 C4170 0.930 . S
H4165 C4174 0.930 . S
H4166 C4179 0.929 . S
H4167 C4177 0.929 . S
H4168 C4172 0.929 . S
H4169 C4178 0.929 . S
C4170 H4164 0.930 . S
C4170 C4171 1.367 . S
C4170 C4178 1.378 . S
C4171 C4170 1.367 . S
C4171 C4179 1.433 . S
C4172 H4168 0.929 . S
C4172 C4174 1.378 . S
C4172 C4176 1.350 . S
C4173 C4176 1.463 . S
C4173 C4178 1.350 . S
C4173 N4181 1.427 . S
C4174 H4165 0.930 . S
C4174 C4172 1.378 . S
C4174 C4175 1.367 . S
C4175 C4174 1.367 . S
C4175 C4177 1.433 . S
C4176 C4172 1.350 . S
C4176 C4173 1.463 . S
C4176 N4180 1.427 . S
C4177 H4167 0.929 . S
C4177 C4175 1.433 . S
C4177 N4180 1.384 . S
C4178 H4169 0.929 . S
C4178 C4170 1.378 . S
C4178 C4173 1.350 . S
C4179 H4166 0.929 . S
C4179 C4171 1.433 . S
C4179 N4181 1.384 . S
N4180 C4176 1.427 . S
N4180 C4177 1.384 . S
N4181 C4173 1.427 . S
N4181 C4179 1.384 . S
H4182 C4188 0.930 . S
H4183 C4192 0.930 . S
H4184 C4197 0.929 . S
H4185 C4195 0.929 . S
H4186 C4190 0.929 . S
H4187 C4196 0.929 . S
C4188 H4182 0.930 . S
C4188 C4189 1.367 . S
C4188 C4196 1.378 . S
C4189 C4188 1.367 . S
C4189 C4197 1.433 . S
C4190 H4186 0.929 . S
C4190 C4192 1.378 . S
C4190 C4194 1.350 . S
C4191 C4194 1.463 . S
C4191 C4196 1.350 . S
C4191 N4199 1.427 . S
C4192 H4183 0.930 . S
C4192 C4190 1.378 . S
C4192 C4193 1.367 . S
C4193 C4192 1.367 . S
C4193 C4195 1.433 . S
C4194 C4190 1.350 . S
C4194 C4191 1.463 . S
C4194 N4198 1.427 . S
C4195 H4185 0.929 . S
C4195 C4193 1.433 . S
C4195 N4198 1.384 . S
C4196 H4187 0.929 . S
C4196 C4188 1.378 . S
C4196 C4191 1.350 . S
C4197 H4184 0.929 . S
C4197 C4189 1.433 . S
C4197 N4199 1.384 . S
N4198 C4194 1.427 . S
N4198 C4195 1.384 . S
N4199 C4191 1.427 . S
N4199 C4197 1.384 . S
H4200 C4206 0.930 . S
H4201 C4210 0.930 . S
H4202 C4215 0.929 . S
H4203 C4213 0.929 . S
H4204 C4208 0.929 . S
H4205 C4214 0.929 . S
C4206 H4200 0.930 . S
C4206 C4207 1.367 . S
C4206 C4214 1.378 . S
C4207 C4206 1.367 . S
C4207 C4215 1.433 . S
C4208 H4204 0.929 . S
C4208 C4210 1.378 . S
C4208 C4212 1.350 . S
C4209 C4212 1.463 . S
C4209 C4214 1.350 . S
C4209 N4217 1.427 . S
C4210 H4201 0.930 . S
C4210 C4208 1.378 . S
C4210 C4211 1.367 . S
C4211 C4210 1.367 . S
C4211 C4213 1.433 . S
C4212 C4208 1.350 . S
C4212 C4209 1.463 . S
C4212 N4216 1.427 . S
C4213 H4203 0.929 . S
C4213 C4211 1.433 . S
C4213 N4216 1.384 . S
C4214 H4205 0.929 . S
C4214 C4206 1.378 . S
C4214 C4209 1.350 . S
C4215 H4202 0.929 . S
C4215 C4207 1.433 . S
C4215 N4217 1.384 . S
N4216 C4212 1.427 . S
N4216 C4213 1.384 . S
N4217 C4209 1.427 . S
N4217 C4215 1.384 . S
H4218 C4224 0.930 . S
H4219 C4228 0.930 . S
H4220 C4233 0.929 . S
H4221 C4231 0.929 . S
H4222 C4226 0.929 . S
H4223 C4232 0.929 . S
C4224 H4218 0.930 . S
C4224 C4225 1.367 . S
C4224 C4232 1.378 . S
C4225 C4224 1.367 . S
C4225 C4233 1.433 . S
C4226 H4222 0.929 . S
C4226 C4228 1.378 . S
C4226 C4230 1.350 . S
C4227 C4230 1.463 . S
C4227 C4232 1.350 . S
C4227 N4235 1.427 . S
C4228 H4219 0.930 . S
C4228 C4226 1.378 . S
C4228 C4229 1.367 . S
C4229 C4228 1.367 . S
C4229 C4231 1.433 . S
C4230 C4226 1.350 . S
C4230 C4227 1.463 . S
C4230 N4234 1.427 . S
C4231 H4221 0.929 . S
C4231 C4229 1.433 . S
C4231 N4234 1.384 . S
C4232 H4223 0.929 . S
C4232 C4224 1.378 . S
C4232 C4227 1.350 . S
C4233 H4220 0.929 . S
C4233 C4225 1.433 . S
C4233 N4235 1.384 . S
N4234 C4230 1.427 . S
N4234 C4231 1.384 . S
N4235 C4227 1.427 . S
N4235 C4233 1.384 . S
H4236 C4242 0.930 . S
H4237 C4246 0.930 . S
H4238 C4251 0.929 . S
H4239 C4249 0.929 . S
H4240 C4244 0.929 . S
H4241 C4250 0.929 . S
C4242 H4236 0.930 . S
C4242 C4243 1.367 . S
C4242 C4250 1.378 . S
C4243 C4242 1.367 . S
C4243 C4251 1.433 . S
C4244 H4240 0.929 . S
C4244 C4246 1.378 . S
C4244 C4248 1.350 . S
C4245 C4248 1.463 . S
C4245 C4250 1.350 . S
C4245 N4253 1.427 . S
C4246 H4237 0.930 . S
C4246 C4244 1.378 . S
C4246 C4247 1.367 . S
C4247 C4246 1.367 . S
C4247 C4249 1.433 . S
C4248 C4244 1.350 . S
C4248 C4245 1.463 . S
C4248 N4252 1.427 . S
C4249 H4239 0.929 . S
C4249 C4247 1.433 . S
C4249 N4252 1.384 . S
C4250 H4241 0.929 . S
C4250 C4242 1.378 . S
C4250 C4245 1.350 . S
C4251 H4238 0.929 . S
C4251 C4243 1.433 . S
C4251 N4253 1.384 . S
N4252 C4248 1.427 . S
N4252 C4249 1.384 . S
N4253 C4245 1.427 . S
N4253 C4251 1.384 . S
H4254 C4260 0.930 . S
H4255 C4264 0.930 . S
H4256 C4269 0.929 . S
H4257 C4267 0.929 . S
H4258 C4262 0.929 . S
H4259 C4268 0.929 . S
C4260 H4254 0.930 . S
C4260 C4261 1.367 . S
C4260 C4268 1.378 . S
C4261 C4260 1.367 . S
C4261 C4269 1.433 . S
C4262 H4258 0.929 . S
C4262 C4264 1.378 . S
C4262 C4266 1.350 . S
C4263 C4266 1.463 . S
C4263 C4268 1.350 . S
C4263 N4271 1.427 . S
C4264 H4255 0.930 . S
C4264 C4262 1.378 . S
C4264 C4265 1.367 . S
C4265 C4264 1.367 . S
C4265 C4267 1.433 . S
C4266 C4262 1.350 . S
C4266 C4263 1.463 . S
C4266 N4270 1.427 . S
C4267 H4257 0.929 . S
C4267 C4265 1.433 . S
C4267 N4270 1.384 . S
C4268 H4259 0.929 . S
C4268 C4260 1.378 . S
C4268 C4263 1.350 . S
C4269 H4256 0.929 . S
C4269 C4261 1.433 . S
C4269 N4271 1.384 . S
N4270 C4266 1.427 . S
N4270 C4267 1.384 . S
N4271 C4263 1.427 . S
N4271 C4269 1.384 . S
H4272 C4278 0.930 . S
H4273 C4282 0.930 . S
H4274 C4287 0.929 . S
H4275 C4285 0.929 . S
H4276 C4280 0.929 . S
H4277 C4286 0.929 . S
C4278 H4272 0.930 . S
C4278 C4279 1.367 . S
C4278 C4286 1.378 . S
C4279 C4278 1.367 . S
C4279 C4287 1.433 . S
C4280 H4276 0.929 . S
C4280 C4282 1.378 . S
C4280 C4284 1.350 . S
C4281 C4284 1.463 . S
C4281 C4286 1.350 . S
C4281 N4289 1.427 . S
C4282 H4273 0.930 . S
C4282 C4280 1.378 . S
C4282 C4283 1.367 . S
C4283 C4282 1.367 . S
C4283 C4285 1.433 . S
C4284 C4280 1.350 . S
C4284 C4281 1.463 . S
C4284 N4288 1.427 . S
C4285 H4275 0.929 . S
C4285 C4283 1.433 . S
C4285 N4288 1.384 . S
C4286 H4277 0.929 . S
C4286 C4278 1.378 . S
C4286 C4281 1.350 . S
C4287 H4274 0.929 . S
C4287 C4279 1.433 . S
C4287 N4289 1.384 . S
N4288 C4284 1.427 . S
N4288 C4285 1.384 . S
N4289 C4281 1.427 . S
N4289 C4287 1.384 . S
H4290 C4296 0.930 . S
H4291 C4300 0.930 . S
H4292 C4305 0.929 . S
H4293 C4303 0.929 . S
H4294 C4298 0.929 . S
H4295 C4304 0.929 . S
C4296 H4290 0.930 . S
C4296 C4297 1.367 . S
C4296 C4304 1.378 . S
C4297 C4296 1.367 . S
C4297 C4305 1.433 . S
C4298 H4294 0.929 . S
C4298 C4300 1.378 . S
C4298 C4302 1.350 . S
C4299 C4302 1.463 . S
C4299 C4304 1.350 . S
C4299 N4307 1.427 . S
C4300 H4291 0.930 . S
C4300 C4298 1.378 . S
C4300 C4301 1.367 . S
C4301 C4300 1.367 . S
C4301 C4303 1.433 . S
C4302 C4298 1.350 . S
C4302 C4299 1.463 . S
C4302 N4306 1.427 . S
C4303 H4293 0.929 . S
C4303 C4301 1.433 . S
C4303 N4306 1.384 . S
C4304 H4295 0.929 . S
C4304 C4296 1.378 . S
C4304 C4299 1.350 . S
C4305 H4292 0.929 . S
C4305 C4297 1.433 . S
C4305 N4307 1.384 . S
N4306 C4302 1.427 . S
N4306 C4303 1.384 . S
N4307 C4299 1.427 . S
N4307 C4305 1.384 . S
H4308 C4314 0.930 . S
H4309 C4318 0.930 . S
H4310 C4323 0.929 . S
H4311 C4321 0.929 . S
H4312 C4316 0.929 . S
H4313 C4322 0.929 . S
C4314 H4308 0.930 . S
C4314 C4315 1.367 . S
C4314 C4322 1.378 . S
C4315 C4314 1.367 . S
C4315 C4323 1.433 . S
C4316 H4312 0.929 . S
C4316 C4318 1.378 . S
C4316 C4320 1.350 . S
C4317 C4320 1.463 . S
C4317 C4322 1.350 . S
C4317 N4325 1.427 . S
C4318 H4309 0.930 . S
C4318 C4316 1.378 . S
C4318 C4319 1.367 . S
C4319 C4318 1.367 . S
C4319 C4321 1.433 . S
C4320 C4316 1.350 . S
C4320 C4317 1.463 . S
C4320 N4324 1.427 . S
C4321 H4311 0.929 . S
C4321 C4319 1.433 . S
C4321 N4324 1.384 . S
C4322 H4313 0.929 . S
C4322 C4314 1.378 . S
C4322 C4317 1.350 . S
C4323 H4310 0.929 . S
C4323 C4315 1.433 . S
C4323 N4325 1.384 . S
N4324 C4320 1.427 . S
N4324 C4321 1.384 . S
N4325 C4317 1.427 . S
N4325 C4323 1.384 . S
H4326 C4332 0.930 . S
H4327 C4336 0.930 . S
H4328 C4341 0.929 . S
H4329 C4339 0.929 . S
H4330 C4334 0.929 . S
H4331 C4340 0.929 . S
C4332 H4326 0.930 . S
C4332 C4333 1.367 . S
C4332 C4340 1.378 . S
C4333 C4332 1.367 . S
C4333 C4341 1.433 . S
C4334 H4330 0.929 . S
C4334 C4336 1.378 . S
C4334 C4338 1.350 . S
C4335 C4338 1.463 . S
C4335 C4340 1.350 . S
C4335 N4343 1.427 . S
C4336 H4327 0.930 . S
C4336 C4334 1.378 . S
C4336 C4337 1.367 . S
C4337 C4336 1.367 . S
C4337 C4339 1.433 . S
C4338 C4334 1.350 . S
C4338 C4335 1.463 . S
C4338 N4342 1.427 . S
C4339 H4329 0.929 . S
C4339 C4337 1.433 . S
C4339 N4342 1.384 . S
C4340 H4331 0.929 . S
C4340 C4332 1.378 . S
C4340 C4335 1.350 . S
C4341 H4328 0.929 . S
C4341 C4333 1.433 . S
C4341 N4343 1.384 . S
N4342 C4338 1.427 . S
N4342 C4339 1.384 . S
N4343 C4335 1.427 . S
N4343 C4341 1.384 . S
H4344 C4350 0.930 . S
H4345 C4354 0.930 . S
H4346 C4359 0.929 . S
H4347 C4357 0.929 . S
H4348 C4352 0.929 . S
H4349 C4358 0.929 . S
C4350 H4344 0.930 . S
C4350 C4351 1.367 . S
C4350 C4358 1.378 . S
C4351 C4350 1.367 . S
C4351 C4359 1.433 . S
C4352 H4348 0.929 . S
C4352 C4354 1.378 . S
C4352 C4356 1.350 . S
C4353 C4356 1.463 . S
C4353 C4358 1.350 . S
C4353 N4361 1.427 . S
C4354 H4345 0.930 . S
C4354 C4352 1.378 . S
C4354 C4355 1.367 . S
C4355 C4354 1.367 . S
C4355 C4357 1.433 . S
C4356 C4352 1.350 . S
C4356 C4353 1.463 . S
C4356 N4360 1.427 . S
C4357 H4347 0.929 . S
C4357 C4355 1.433 . S
C4357 N4360 1.384 . S
C4358 H4349 0.929 . S
C4358 C4350 1.378 . S
C4358 C4353 1.350 . S
C4359 H4346 0.929 . S
C4359 C4351 1.433 . S
C4359 N4361 1.384 . S
N4360 C4356 1.427 . S
N4360 C4357 1.384 . S
N4361 C4353 1.427 . S
N4361 C4359 1.384 . S
H4362 C4368 0.930 . S
H4363 C4372 0.930 . S
H4364 C4377 0.929 . S
H4365 C4375 0.929 . S
H4366 C4370 0.929 . S
H4367 C4376 0.929 . S
C4368 H4362 0.930 . S
C4368 C4369 1.367 . S
C4368 C4376 1.378 . S
C4369 C4368 1.367 . S
C4369 C4377 1.433 . S
C4370 H4366 0.929 . S
C4370 C4372 1.378 . S
C4370 C4374 1.350 . S
C4371 C4374 1.463 . S
C4371 C4376 1.350 . S
C4371 N4379 1.427 . S
C4372 H4363 0.930 . S
C4372 C4370 1.378 . S
C4372 C4373 1.367 . S
C4373 C4372 1.367 . S
C4373 C4375 1.433 . S
C4374 C4370 1.350 . S
C4374 C4371 1.463 . S
C4374 N4378 1.427 . S
C4375 H4365 0.929 . S
C4375 C4373 1.433 . S
C4375 N4378 1.384 . S
C4376 H4367 0.929 . S
C4376 C4368 1.378 . S
C4376 C4371 1.350 . S
C4377 H4364 0.929 . S
C4377 C4369 1.433 . S
C4377 N4379 1.384 . S
N4378 C4374 1.427 . S
N4378 C4375 1.384 . S
N4379 C4371 1.427 . S
N4379 C4377 1.384 . S
H4380 C4386 0.930 . S
H4381 C4390 0.930 . S
H4382 C4395 0.929 . S
H4383 C4393 0.929 . S
H4384 C4388 0.929 . S
H4385 C4394 0.929 . S
C4386 H4380 0.930 . S
C4386 C4387 1.367 . S
C4386 C4394 1.378 . S
C4387 C4386 1.367 . S
C4387 C4395 1.433 . S
C4388 H4384 0.929 . S
C4388 C4390 1.378 . S
C4388 C4392 1.350 . S
C4389 C4392 1.463 . S
C4389 C4394 1.350 . S
C4389 N4397 1.427 . S
C4390 H4381 0.930 . S
C4390 C4388 1.378 . S
C4390 C4391 1.367 . S
C4391 C4390 1.367 . S
C4391 C4393 1.433 . S
C4392 C4388 1.350 . S
C4392 C4389 1.463 . S
C4392 N4396 1.427 . S
C4393 H4383 0.929 . S
C4393 C4391 1.433 . S
C4393 N4396 1.384 . S
C4394 H4385 0.929 . S
C4394 C4386 1.378 . S
C4394 C4389 1.350 . S
C4395 H4382 0.929 . S
C4395 C4387 1.433 . S
C4395 N4397 1.384 . S
N4396 C4392 1.427 . S
N4396 C4393 1.384 . S
N4397 C4389 1.427 . S
N4397 C4395 1.384 . S
H4398 C4404 0.930 . S
H4399 C4408 0.930 . S
H4400 C4413 0.929 . S
H4401 C4411 0.929 . S
H4402 C4406 0.929 . S
H4403 C4412 0.929 . S
C4404 H4398 0.930 . S
C4404 C4405 1.367 . S
C4404 C4412 1.378 . S
C4405 C4404 1.367 . S
C4405 C4413 1.433 . S
C4406 H4402 0.929 . S
C4406 C4408 1.378 . S
C4406 C4410 1.350 . S
C4407 C4410 1.463 . S
C4407 C4412 1.350 . S
C4407 N4415 1.427 . S
C4408 H4399 0.930 . S
C4408 C4406 1.378 . S
C4408 C4409 1.367 . S
C4409 C4408 1.367 . S
C4409 C4411 1.433 . S
C4410 C4406 1.350 . S
C4410 C4407 1.463 . S
C4410 N4414 1.427 . S
C4411 H4401 0.929 . S
C4411 C4409 1.433 . S
C4411 N4414 1.384 . S
C4412 H4403 0.929 . S
C4412 C4404 1.378 . S
C4412 C4407 1.350 . S
C4413 H4400 0.929 . S
C4413 C4405 1.433 . S
C4413 N4415 1.384 . S
N4414 C4410 1.427 . S
N4414 C4411 1.384 . S
N4415 C4407 1.427 . S
N4415 C4413 1.384 . S
H4416 C4422 0.930 . S
H4417 C4426 0.930 . S
H4418 C4431 0.929 . S
H4419 C4429 0.929 . S
H4420 C4424 0.929 . S
H4421 C4430 0.929 . S
C4422 H4416 0.930 . S
C4422 C4423 1.367 . S
C4422 C4430 1.378 . S
C4423 C4422 1.367 . S
C4423 C4431 1.433 . S
C4424 H4420 0.929 . S
C4424 C4426 1.378 . S
C4424 C4428 1.350 . S
C4425 C4428 1.463 . S
C4425 C4430 1.350 . S
C4425 N4433 1.427 . S
C4426 H4417 0.930 . S
C4426 C4424 1.378 . S
C4426 C4427 1.367 . S
C4427 C4426 1.367 . S
C4427 C4429 1.433 . S
C4428 C4424 1.350 . S
C4428 C4425 1.463 . S
C4428 N4432 1.427 . S
C4429 H4419 0.929 . S
C4429 C4427 1.433 . S
C4429 N4432 1.384 . S
C4430 H4421 0.929 . S
C4430 C4422 1.378 . S
C4430 C4425 1.350 . S
C4431 H4418 0.929 . S
C4431 C4423 1.433 . S
C4431 N4433 1.384 . S
N4432 C4428 1.427 . S
N4432 C4429 1.384 . S
N4433 C4425 1.427 . S
N4433 C4431 1.384 . S
H4434 C4440 0.930 . S
H4435 C4444 0.930 . S
H4436 C4449 0.929 . S
H4437 C4447 0.929 . S
H4438 C4442 0.929 . S
H4439 C4448 0.929 . S
C4440 H4434 0.930 . S
C4440 C4441 1.367 . S
C4440 C4448 1.378 . S
C4441 C4440 1.367 . S
C4441 C4449 1.433 . S
C4442 H4438 0.929 . S
C4442 C4444 1.378 . S
C4442 C4446 1.350 . S
C4443 C4446 1.463 . S
C4443 C4448 1.350 . S
C4443 N4451 1.427 . S
C4444 H4435 0.930 . S
C4444 C4442 1.378 . S
C4444 C4445 1.367 . S
C4445 C4444 1.367 . S
C4445 C4447 1.433 . S
C4446 C4442 1.350 . S
C4446 C4443 1.463 . S
C4446 N4450 1.427 . S
C4447 H4437 0.929 . S
C4447 C4445 1.433 . S
C4447 N4450 1.384 . S
C4448 H4439 0.929 . S
C4448 C4440 1.378 . S
C4448 C4443 1.350 . S
C4449 H4436 0.929 . S
C4449 C4441 1.433 . S
C4449 N4451 1.384 . S
N4450 C4446 1.427 . S
N4450 C4447 1.384 . S
N4451 C4443 1.427 . S
N4451 C4449 1.384 . S
H4452 C4458 0.930 . S
H4453 C4462 0.930 . S
H4454 C4467 0.929 . S
H4455 C4465 0.929 . S
H4456 C4460 0.929 . S
H4457 C4466 0.929 . S
C4458 H4452 0.930 . S
C4458 C4459 1.367 . S
C4458 C4466 1.378 . S
C4459 C4458 1.367 . S
C4459 C4467 1.433 . S
C4460 H4456 0.929 . S
C4460 C4462 1.378 . S
C4460 C4464 1.350 . S
C4461 C4464 1.463 . S
C4461 C4466 1.350 . S
C4461 N4469 1.427 . S
C4462 H4453 0.930 . S
C4462 C4460 1.378 . S
C4462 C4463 1.367 . S
C4463 C4462 1.367 . S
C4463 C4465 1.433 . S
C4464 C4460 1.350 . S
C4464 C4461 1.463 . S
C4464 N4468 1.427 . S
C4465 H4455 0.929 . S
C4465 C4463 1.433 . S
C4465 N4468 1.384 . S
C4466 H4457 0.929 . S
C4466 C4458 1.378 . S
C4466 C4461 1.350 . S
C4467 H4454 0.929 . S
C4467 C4459 1.433 . S
C4467 N4469 1.384 . S
N4468 C4464 1.427 . S
N4468 C4465 1.384 . S
N4469 C4461 1.427 . S
N4469 C4467 1.384 . S
H4470 C4476 0.930 . S
H4471 C4480 0.930 . S
H4472 C4485 0.929 . S
H4473 C4483 0.929 . S
H4474 C4478 0.929 . S
H4475 C4484 0.929 . S
C4476 H4470 0.930 . S
C4476 C4477 1.367 . S
C4476 C4484 1.378 . S
C4477 C4476 1.367 . S
C4477 C4485 1.433 . S
C4478 H4474 0.929 . S
C4478 C4480 1.378 . S
C4478 C4482 1.350 . S
C4479 C4482 1.463 . S
C4479 C4484 1.350 . S
C4479 N4487 1.427 . S
C4480 H4471 0.930 . S
C4480 C4478 1.378 . S
C4480 C4481 1.367 . S
C4481 C4480 1.367 . S
C4481 C4483 1.433 . S
C4482 C4478 1.350 . S
C4482 C4479 1.463 . S
C4482 N4486 1.427 . S
C4483 H4473 0.929 . S
C4483 C4481 1.433 . S
C4483 N4486 1.384 . S
C4484 H4475 0.929 . S
C4484 C4476 1.378 . S
C4484 C4479 1.350 . S
C4485 H4472 0.929 . S
C4485 C4477 1.433 . S
C4485 N4487 1.384 . S
N4486 C4482 1.427 . S
N4486 C4483 1.384 . S
N4487 C4479 1.427 . S
N4487 C4485 1.384 . S
H4488 C4494 0.930 . S
H4489 C4498 0.930 . S
H4490 C4503 0.929 . S
H4491 C4501 0.929 . S
H4492 C4496 0.929 . S
H4493 C4502 0.929 . S
C4494 H4488 0.930 . S
C4494 C4495 1.367 . S
C4494 C4502 1.378 . S
C4495 C4494 1.367 . S
C4495 C4503 1.433 . S
C4496 H4492 0.929 . S
C4496 C4498 1.378 . S
C4496 C4500 1.350 . S
C4497 C4500 1.463 . S
C4497 C4502 1.350 . S
C4497 N4505 1.427 . S
C4498 H4489 0.930 . S
C4498 C4496 1.378 . S
C4498 C4499 1.367 . S
C4499 C4498 1.367 . S
C4499 C4501 1.433 . S
C4500 C4496 1.350 . S
C4500 C4497 1.463 . S
C4500 N4504 1.427 . S
C4501 H4491 0.929 . S
C4501 C4499 1.433 . S
C4501 N4504 1.384 . S
C4502 H4493 0.929 . S
C4502 C4494 1.378 . S
C4502 C4497 1.350 . S
C4503 H4490 0.929 . S
C4503 C4495 1.433 . S
C4503 N4505 1.384 . S
N4504 C4500 1.427 . S
N4504 C4501 1.384 . S
N4505 C4497 1.427 . S
N4505 C4503 1.384 . S
H4506 C4512 0.930 . S
H4507 C4516 0.930 . S
H4508 C4521 0.929 . S
H4509 C4519 0.929 . S
H4510 C4514 0.929 . S
H4511 C4520 0.929 . S
C4512 H4506 0.930 . S
C4512 C4513 1.367 . S
C4512 C4520 1.378 . S
C4513 C4512 1.367 . S
C4513 C4521 1.433 . S
C4514 H4510 0.929 . S
C4514 C4516 1.378 . S
C4514 C4518 1.350 . S
C4515 C4518 1.463 . S
C4515 C4520 1.350 . S
C4515 N4523 1.427 . S
C4516 H4507 0.930 . S
C4516 C4514 1.378 . S
C4516 C4517 1.367 . S
C4517 C4516 1.367 . S
C4517 C4519 1.433 . S
C4518 C4514 1.350 . S
C4518 C4515 1.463 . S
C4518 N4522 1.427 . S
C4519 H4509 0.929 . S
C4519 C4517 1.433 . S
C4519 N4522 1.384 . S
C4520 H4511 0.929 . S
C4520 C4512 1.378 . S
C4520 C4515 1.350 . S
C4521 H4508 0.929 . S
C4521 C4513 1.433 . S
C4521 N4523 1.384 . S
N4522 C4518 1.427 . S
N4522 C4519 1.384 . S
N4523 C4515 1.427 . S
N4523 C4521 1.384 . S
H4524 C4530 0.930 . S
H4525 C4534 0.930 . S
H4526 C4539 0.929 . S
H4527 C4537 0.929 . S
H4528 C4532 0.929 . S
H4529 C4538 0.929 . S
C4530 H4524 0.930 . S
C4530 C4531 1.367 . S
C4530 C4538 1.378 . S
C4531 C4530 1.367 . S
C4531 C4539 1.433 . S
C4532 H4528 0.929 . S
C4532 C4534 1.378 . S
C4532 C4536 1.350 . S
C4533 C4536 1.463 . S
C4533 C4538 1.350 . S
C4533 N4541 1.427 . S
C4534 H4525 0.930 . S
C4534 C4532 1.378 . S
C4534 C4535 1.367 . S
C4535 C4534 1.367 . S
C4535 C4537 1.433 . S
C4536 C4532 1.350 . S
C4536 C4533 1.463 . S
C4536 N4540 1.427 . S
C4537 H4527 0.929 . S
C4537 C4535 1.433 . S
C4537 N4540 1.384 . S
C4538 H4529 0.929 . S
C4538 C4530 1.378 . S
C4538 C4533 1.350 . S
C4539 H4526 0.929 . S
C4539 C4531 1.433 . S
C4539 N4541 1.384 . S
N4540 C4536 1.427 . S
N4540 C4537 1.384 . S
N4541 C4533 1.427 . S
N4541 C4539 1.384 . S
H4542 C4548 0.930 . S
H4543 C4552 0.930 . S
H4544 C4557 0.929 . S
H4545 C4555 0.929 . S
H4546 C4550 0.929 . S
H4547 C4556 0.929 . S
C4548 H4542 0.930 . S
C4548 C4549 1.367 . S
C4548 C4556 1.378 . S
C4549 C4548 1.367 . S
C4549 C4557 1.433 . S
C4550 H4546 0.929 . S
C4550 C4552 1.378 . S
C4550 C4554 1.350 . S
C4551 C4554 1.463 . S
C4551 C4556 1.350 . S
C4551 N4559 1.427 . S
C4552 H4543 0.930 . S
C4552 C4550 1.378 . S
C4552 C4553 1.367 . S
C4553 C4552 1.367 . S
C4553 C4555 1.433 . S
C4554 C4550 1.350 . S
C4554 C4551 1.463 . S
C4554 N4558 1.427 . S
C4555 H4545 0.929 . S
C4555 C4553 1.433 . S
C4555 N4558 1.384 . S
C4556 H4547 0.929 . S
C4556 C4548 1.378 . S
C4556 C4551 1.350 . S
C4557 H4544 0.929 . S
C4557 C4549 1.433 . S
C4557 N4559 1.384 . S
N4558 C4554 1.427 . S
N4558 C4555 1.384 . S
N4559 C4551 1.427 . S
N4559 C4557 1.384 . S
H4560 C4566 0.930 . S
H4561 C4570 0.930 . S
H4562 C4575 0.929 . S
H4563 C4573 0.929 . S
H4564 C4568 0.929 . S
H4565 C4574 0.929 . S
C4566 H4560 0.930 . S
C4566 C4567 1.367 . S
C4566 C4574 1.378 . S
C4567 C4566 1.367 . S
C4567 C4575 1.433 . S
C4568 H4564 0.929 . S
C4568 C4570 1.378 . S
C4568 C4572 1.350 . S
C4569 C4572 1.463 . S
C4569 C4574 1.350 . S
C4569 N4577 1.427 . S
C4570 H4561 0.930 . S
C4570 C4568 1.378 . S
C4570 C4571 1.367 . S
C4571 C4570 1.367 . S
C4571 C4573 1.433 . S
C4572 C4568 1.350 . S
C4572 C4569 1.463 . S
C4572 N4576 1.427 . S
C4573 H4563 0.929 . S
C4573 C4571 1.433 . S
C4573 N4576 1.384 . S
C4574 H4565 0.929 . S
C4574 C4566 1.378 . S
C4574 C4569 1.350 . S
C4575 H4562 0.929 . S
C4575 C4567 1.433 . S
C4575 N4577 1.384 . S
N4576 C4572 1.427 . S
N4576 C4573 1.384 . S
N4577 C4569 1.427 . S
N4577 C4575 1.384 . S
H4578 C4584 0.930 . S
H4579 C4588 0.930 . S
H4580 C4593 0.929 . S
H4581 C4591 0.929 . S
H4582 C4586 0.929 . S
H4583 C4592 0.929 . S
C4584 H4578 0.930 . S
C4584 C4585 1.367 . S
C4584 C4592 1.378 . S
C4585 C4584 1.367 . S
C4585 C4593 1.433 . S
C4586 H4582 0.929 . S
C4586 C4588 1.378 . S
C4586 C4590 1.350 . S
C4587 C4590 1.463 . S
C4587 C4592 1.350 . S
C4587 N4595 1.427 . S
C4588 H4579 0.930 . S
C4588 C4586 1.378 . S
C4588 C4589 1.367 . S
C4589 C4588 1.367 . S
C4589 C4591 1.433 . S
C4590 C4586 1.350 . S
C4590 C4587 1.463 . S
C4590 N4594 1.427 . S
C4591 H4581 0.929 . S
C4591 C4589 1.433 . S
C4591 N4594 1.384 . S
C4592 H4583 0.929 . S
C4592 C4584 1.378 . S
C4592 C4587 1.350 . S
C4593 H4580 0.929 . S
C4593 C4585 1.433 . S
C4593 N4595 1.384 . S
N4594 C4590 1.427 . S
N4594 C4591 1.384 . S
N4595 C4587 1.427 . S
N4595 C4593 1.384 . S
H4596 C4602 0.930 . S
H4597 C4606 0.930 . S
H4598 C4611 0.929 . S
H4599 C4609 0.929 . S
H4600 C4604 0.929 . S
H4601 C4610 0.929 . S
C4602 H4596 0.930 . S
C4602 C4603 1.367 . S
C4602 C4610 1.378 . S
C4603 C4602 1.367 . S
C4603 C4611 1.433 . S
C4604 H4600 0.929 . S
C4604 C4606 1.378 . S
C4604 C4608 1.350 . S
C4605 C4608 1.463 . S
C4605 C4610 1.350 . S
C4605 N4613 1.427 . S
C4606 H4597 0.930 . S
C4606 C4604 1.378 . S
C4606 C4607 1.367 . S
C4607 C4606 1.367 . S
C4607 C4609 1.433 . S
C4608 C4604 1.350 . S
C4608 C4605 1.463 . S
C4608 N4612 1.427 . S
C4609 H4599 0.929 . S
C4609 C4607 1.433 . S
C4609 N4612 1.384 . S
C4610 H4601 0.929 . S
C4610 C4602 1.378 . S
C4610 C4605 1.350 . S
C4611 H4598 0.929 . S
C4611 C4603 1.433 . S
C4611 N4613 1.384 . S
N4612 C4608 1.427 . S
N4612 C4609 1.384 . S
N4613 C4605 1.427 . S
N4613 C4611 1.384 . S
H4614 C4620 0.930 . S
H4615 C4624 0.930 . S
H4616 C4629 0.929 . S
H4617 C4627 0.929 . S
H4618 C4622 0.929 . S
H4619 C4628 0.929 . S
C4620 H4614 0.930 . S
C4620 C4621 1.367 . S
C4620 C4628 1.378 . S
C4621 C4620 1.367 . S
C4621 C4629 1.433 . S
C4622 H4618 0.929 . S
C4622 C4624 1.378 . S
C4622 C4626 1.350 . S
C4623 C4626 1.463 . S
C4623 C4628 1.350 . S
C4623 N4631 1.427 . S
C4624 H4615 0.930 . S
C4624 C4622 1.378 . S
C4624 C4625 1.367 . S
C4625 C4624 1.367 . S
C4625 C4627 1.433 . S
C4626 C4622 1.350 . S
C4626 C4623 1.463 . S
C4626 N4630 1.427 . S
C4627 H4617 0.929 . S
C4627 C4625 1.433 . S
C4627 N4630 1.384 . S
C4628 H4619 0.929 . S
C4628 C4620 1.378 . S
C4628 C4623 1.350 . S
C4629 H4616 0.929 . S
C4629 C4621 1.433 . S
C4629 N4631 1.384 . S
N4630 C4626 1.427 . S
N4630 C4627 1.384 . S
N4631 C4623 1.427 . S
N4631 C4629 1.384 . S
H4632 C4638 0.930 . S
H4633 C4642 0.930 . S
H4634 C4647 0.929 . S
H4635 C4645 0.929 . S
H4636 C4640 0.929 . S
H4637 C4646 0.929 . S
C4638 H4632 0.930 . S
C4638 C4639 1.367 . S
C4638 C4646 1.378 . S
C4639 C4638 1.367 . S
C4639 C4647 1.433 . S
C4640 H4636 0.929 . S
C4640 C4642 1.378 . S
C4640 C4644 1.350 . S
C4641 C4644 1.463 . S
C4641 C4646 1.350 . S
C4641 N4649 1.427 . S
C4642 H4633 0.930 . S
C4642 C4640 1.378 . S
C4642 C4643 1.367 . S
C4643 C4642 1.367 . S
C4643 C4645 1.433 . S
C4644 C4640 1.350 . S
C4644 C4641 1.463 . S
C4644 N4648 1.427 . S
C4645 H4635 0.929 . S
C4645 C4643 1.433 . S
C4645 N4648 1.384 . S
C4646 H4637 0.929 . S
C4646 C4638 1.378 . S
C4646 C4641 1.350 . S
C4647 H4634 0.929 . S
C4647 C4639 1.433 . S
C4647 N4649 1.384 . S
N4648 C4644 1.427 . S
N4648 C4645 1.384 . S
N4649 C4641 1.427 . S
N4649 C4647 1.384 . S
H4650 C4656 0.930 . S
H4651 C4660 0.930 . S
H4652 C4665 0.929 . S
H4653 C4663 0.929 . S
H4654 C4658 0.929 . S
H4655 C4664 0.929 . S
C4656 H4650 0.930 . S
C4656 C4657 1.367 . S
C4656 C4664 1.378 . S
C4657 C4656 1.367 . S
C4657 C4665 1.433 . S
C4658 H4654 0.929 . S
C4658 C4660 1.378 . S
C4658 C4662 1.350 . S
C4659 C4662 1.463 . S
C4659 C4664 1.350 . S
C4659 N4667 1.427 . S
C4660 H4651 0.930 . S
C4660 C4658 1.378 . S
C4660 C4661 1.367 . S
C4661 C4660 1.367 . S
C4661 C4663 1.433 . S
C4662 C4658 1.350 . S
C4662 C4659 1.463 . S
C4662 N4666 1.427 . S
C4663 H4653 0.929 . S
C4663 C4661 1.433 . S
C4663 N4666 1.384 . S
C4664 H4655 0.929 . S
C4664 C4656 1.378 . S
C4664 C4659 1.350 . S
C4665 H4652 0.929 . S
C4665 C4657 1.433 . S
C4665 N4667 1.384 . S
N4666 C4662 1.427 . S
N4666 C4663 1.384 . S
N4667 C4659 1.427 . S
N4667 C4665 1.384 . S
H4668 C4674 0.930 . S
H4669 C4678 0.930 . S
H4670 C4683 0.929 . S
H4671 C4681 0.929 . S
H4672 C4676 0.929 . S
H4673 C4682 0.929 . S
C4674 H4668 0.930 . S
C4674 C4675 1.367 . S
C4674 C4682 1.378 . S
C4675 C4674 1.367 . S
C4675 C4683 1.433 . S
C4676 H4672 0.929 . S
C4676 C4678 1.378 . S
C4676 C4680 1.350 . S
C4677 C4680 1.463 . S
C4677 C4682 1.350 . S
C4677 N4685 1.427 . S
C4678 H4669 0.930 . S
C4678 C4676 1.378 . S
C4678 C4679 1.367 . S
C4679 C4678 1.367 . S
C4679 C4681 1.433 . S
C4680 C4676 1.350 . S
C4680 C4677 1.463 . S
C4680 N4684 1.427 . S
C4681 H4671 0.929 . S
C4681 C4679 1.433 . S
C4681 N4684 1.384 . S
C4682 H4673 0.929 . S
C4682 C4674 1.378 . S
C4682 C4677 1.350 . S
C4683 H4670 0.929 . S
C4683 C4675 1.433 . S
C4683 N4685 1.384 . S
N4684 C4680 1.427 . S
N4684 C4681 1.384 . S
N4685 C4677 1.427 . S
N4685 C4683 1.384 . S
H4686 C4692 0.930 . S
H4687 C4696 0.930 . S
H4688 C4701 0.929 . S
H4689 C4699 0.929 . S
H4690 C4694 0.929 . S
H4691 C4700 0.929 . S
C4692 H4686 0.930 . S
C4692 C4693 1.367 . S
C4692 C4700 1.378 . S
C4693 C4692 1.367 . S
C4693 C4701 1.433 . S
C4694 H4690 0.929 . S
C4694 C4696 1.378 . S
C4694 C4698 1.350 . S
C4695 C4698 1.463 . S
C4695 C4700 1.350 . S
C4695 N4703 1.427 . S
C4696 H4687 0.930 . S
C4696 C4694 1.378 . S
C4696 C4697 1.367 . S
C4697 C4696 1.367 . S
C4697 C4699 1.433 . S
C4698 C4694 1.350 . S
C4698 C4695 1.463 . S
C4698 N4702 1.427 . S
C4699 H4689 0.929 . S
C4699 C4697 1.433 . S
C4699 N4702 1.384 . S
C4700 H4691 0.929 . S
C4700 C4692 1.378 . S
C4700 C4695 1.350 . S
C4701 H4688 0.929 . S
C4701 C4693 1.433 . S
C4701 N4703 1.384 . S
N4702 C4698 1.427 . S
N4702 C4699 1.384 . S
N4703 C4695 1.427 . S
N4703 C4701 1.384 . S
H4704 C4710 0.930 . S
H4705 C4714 0.930 . S
H4706 C4719 0.929 . S
H4707 C4717 0.929 . S
H4708 C4712 0.929 . S
H4709 C4718 0.929 . S
C4710 H4704 0.930 . S
C4710 C4711 1.367 . S
C4710 C4718 1.378 . S
C4711 C4710 1.367 . S
C4711 C4719 1.433 . S
C4712 H4708 0.929 . S
C4712 C4714 1.378 . S
C4712 C4716 1.350 . S
C4713 C4716 1.463 . S
C4713 C4718 1.350 . S
C4713 N4721 1.427 . S
C4714 H4705 0.930 . S
C4714 C4712 1.378 . S
C4714 C4715 1.367 . S
C4715 C4714 1.367 . S
C4715 C4717 1.433 . S
C4716 C4712 1.350 . S
C4716 C4713 1.463 . S
C4716 N4720 1.427 . S
C4717 H4707 0.929 . S
C4717 C4715 1.433 . S
C4717 N4720 1.384 . S
C4718 H4709 0.929 . S
C4718 C4710 1.378 . S
C4718 C4713 1.350 . S
C4719 H4706 0.929 . S
C4719 C4711 1.433 . S
C4719 N4721 1.384 . S
N4720 C4716 1.427 . S
N4720 C4717 1.384 . S
N4721 C4713 1.427 . S
N4721 C4719 1.384 . S
H4722 C4728 0.930 . S
H4723 C4732 0.930 . S
H4724 C4737 0.929 . S
H4725 C4735 0.929 . S
H4726 C4730 0.929 . S
H4727 C4736 0.929 . S
C4728 H4722 0.930 . S
C4728 C4729 1.367 . S
C4728 C4736 1.378 . S
C4729 C4728 1.367 . S
C4729 C4737 1.433 . S
C4730 H4726 0.929 . S
C4730 C4732 1.378 . S
C4730 C4734 1.350 . S
C4731 C4734 1.463 . S
C4731 C4736 1.350 . S
C4731 N4739 1.427 . S
C4732 H4723 0.930 . S
C4732 C4730 1.378 . S
C4732 C4733 1.367 . S
C4733 C4732 1.367 . S
C4733 C4735 1.433 . S
C4734 C4730 1.350 . S
C4734 C4731 1.463 . S
C4734 N4738 1.427 . S
C4735 H4725 0.929 . S
C4735 C4733 1.433 . S
C4735 N4738 1.384 . S
C4736 H4727 0.929 . S
C4736 C4728 1.378 . S
C4736 C4731 1.350 . S
C4737 H4724 0.929 . S
C4737 C4729 1.433 . S
C4737 N4739 1.384 . S
N4738 C4734 1.427 . S
N4738 C4735 1.384 . S
N4739 C4731 1.427 . S
N4739 C4737 1.384 . S
H4740 C4746 0.930 . S
H4741 C4750 0.930 . S
H4742 C4755 0.929 . S
H4743 C4753 0.929 . S
H4744 C4748 0.929 . S
H4745 C4754 0.929 . S
C4746 H4740 0.930 . S
C4746 C4747 1.367 . S
C4746 C4754 1.378 . S
C4747 C4746 1.367 . S
C4747 C4755 1.433 . S
C4748 H4744 0.929 . S
C4748 C4750 1.378 . S
C4748 C4752 1.350 . S
C4749 C4752 1.463 . S
C4749 C4754 1.350 . S
C4749 N4757 1.427 . S
C4750 H4741 0.930 . S
C4750 C4748 1.378 . S
C4750 C4751 1.367 . S
C4751 C4750 1.367 . S
C4751 C4753 1.433 . S
C4752 C4748 1.350 . S
C4752 C4749 1.463 . S
C4752 N4756 1.427 . S
C4753 H4743 0.929 . S
C4753 C4751 1.433 . S
C4753 N4756 1.384 . S
C4754 H4745 0.929 . S
C4754 C4746 1.378 . S
C4754 C4749 1.350 . S
C4755 H4742 0.929 . S
C4755 C4747 1.433 . S
C4755 N4757 1.384 . S
N4756 C4752 1.427 . S
N4756 C4753 1.384 . S
N4757 C4749 1.427 . S
N4757 C4755 1.384 . S
H4758 C4764 0.930 . S
H4759 C4768 0.930 . S
H4760 C4773 0.929 . S
H4761 C4771 0.929 . S
H4762 C4766 0.929 . S
H4763 C4772 0.929 . S
C4764 H4758 0.930 . S
C4764 C4765 1.367 . S
C4764 C4772 1.378 . S
C4765 C4764 1.367 . S
C4765 C4773 1.433 . S
C4766 H4762 0.929 . S
C4766 C4768 1.378 . S
C4766 C4770 1.350 . S
C4767 C4770 1.463 . S
C4767 C4772 1.350 . S
C4767 N4775 1.427 . S
C4768 H4759 0.930 . S
C4768 C4766 1.378 . S
C4768 C4769 1.367 . S
C4769 C4768 1.367 . S
C4769 C4771 1.433 . S
C4770 C4766 1.350 . S
C4770 C4767 1.463 . S
C4770 N4774 1.427 . S
C4771 H4761 0.929 . S
C4771 C4769 1.433 . S
C4771 N4774 1.384 . S
C4772 H4763 0.929 . S
C4772 C4764 1.378 . S
C4772 C4767 1.350 . S
C4773 H4760 0.929 . S
C4773 C4765 1.433 . S
C4773 N4775 1.384 . S
N4774 C4770 1.427 . S
N4774 C4771 1.384 . S
N4775 C4767 1.427 . S
N4775 C4773 1.384 . S
H4776 C4782 0.930 . S
H4777 C4786 0.930 . S
H4778 C4791 0.929 . S
H4779 C4789 0.929 . S
H4780 C4784 0.929 . S
H4781 C4790 0.929 . S
C4782 H4776 0.930 . S
C4782 C4783 1.367 . S
C4782 C4790 1.378 . S
C4783 C4782 1.367 . S
C4783 C4791 1.433 . S
C4784 H4780 0.929 . S
C4784 C4786 1.378 . S
C4784 C4788 1.350 . S
C4785 C4788 1.463 . S
C4785 C4790 1.350 . S
C4785 N4793 1.427 . S
C4786 H4777 0.930 . S
C4786 C4784 1.378 . S
C4786 C4787 1.367 . S
C4787 C4786 1.367 . S
C4787 C4789 1.433 . S
C4788 C4784 1.350 . S
C4788 C4785 1.463 . S
C4788 N4792 1.427 . S
C4789 H4779 0.929 . S
C4789 C4787 1.433 . S
C4789 N4792 1.384 . S
C4790 H4781 0.929 . S
C4790 C4782 1.378 . S
C4790 C4785 1.350 . S
C4791 H4778 0.929 . S
C4791 C4783 1.433 . S
C4791 N4793 1.384 . S
N4792 C4788 1.427 . S
N4792 C4789 1.384 . S
N4793 C4785 1.427 . S
N4793 C4791 1.384 . S
H4794 C4800 0.930 . S
H4795 C4804 0.930 . S
H4796 C4809 0.929 . S
H4797 C4807 0.929 . S
H4798 C4802 0.929 . S
H4799 C4808 0.929 . S
C4800 H4794 0.930 . S
C4800 C4801 1.367 . S
C4800 C4808 1.378 . S
C4801 C4800 1.367 . S
C4801 C4809 1.433 . S
C4802 H4798 0.929 . S
C4802 C4804 1.378 . S
C4802 C4806 1.350 . S
C4803 C4806 1.463 . S
C4803 C4808 1.350 . S
C4803 N4811 1.427 . S
C4804 H4795 0.930 . S
C4804 C4802 1.378 . S
C4804 C4805 1.367 . S
C4805 C4804 1.367 . S
C4805 C4807 1.433 . S
C4806 C4802 1.350 . S
C4806 C4803 1.463 . S
C4806 N4810 1.427 . S
C4807 H4797 0.929 . S
C4807 C4805 1.433 . S
C4807 N4810 1.384 . S
C4808 H4799 0.929 . S
C4808 C4800 1.378 . S
C4808 C4803 1.350 . S
C4809 H4796 0.929 . S
C4809 C4801 1.433 . S
C4809 N4811 1.384 . S
N4810 C4806 1.427 . S
N4810 C4807 1.384 . S
N4811 C4803 1.427 . S
N4811 C4809 1.384 . S
H4812 C4818 0.930 . S
H4813 C4822 0.930 . S
H4814 C4827 0.929 . S
H4815 C4825 0.929 . S
H4816 C4820 0.929 . S
H4817 C4826 0.929 . S
C4818 H4812 0.930 . S
C4818 C4819 1.367 . S
C4818 C4826 1.378 . S
C4819 C4818 1.367 . S
C4819 C4827 1.433 . S
C4820 H4816 0.929 . S
C4820 C4822 1.378 . S
C4820 C4824 1.350 . S
C4821 C4824 1.463 . S
C4821 C4826 1.350 . S
C4821 N4829 1.427 . S
C4822 H4813 0.930 . S
C4822 C4820 1.378 . S
C4822 C4823 1.367 . S
C4823 C4822 1.367 . S
C4823 C4825 1.433 . S
C4824 C4820 1.350 . S
C4824 C4821 1.463 . S
C4824 N4828 1.427 . S
C4825 H4815 0.929 . S
C4825 C4823 1.433 . S
C4825 N4828 1.384 . S
C4826 H4817 0.929 . S
C4826 C4818 1.378 . S
C4826 C4821 1.350 . S
C4827 H4814 0.929 . S
C4827 C4819 1.433 . S
C4827 N4829 1.384 . S
N4828 C4824 1.427 . S
N4828 C4825 1.384 . S
N4829 C4821 1.427 . S
N4829 C4827 1.384 . S
H4830 C4836 0.930 . S
H4831 C4840 0.930 . S
H4832 C4845 0.929 . S
H4833 C4843 0.929 . S
H4834 C4838 0.929 . S
H4835 C4844 0.929 . S
C4836 H4830 0.930 . S
C4836 C4837 1.367 . S
C4836 C4844 1.378 . S
C4837 C4836 1.367 . S
C4837 C4845 1.433 . S
C4838 H4834 0.929 . S
C4838 C4840 1.378 . S
C4838 C4842 1.350 . S
C4839 C4842 1.463 . S
C4839 C4844 1.350 . S
C4839 N4847 1.427 . S
C4840 H4831 0.930 . S
C4840 C4838 1.378 . S
C4840 C4841 1.367 . S
C4841 C4840 1.367 . S
C4841 C4843 1.433 . S
C4842 C4838 1.350 . S
C4842 C4839 1.463 . S
C4842 N4846 1.427 . S
C4843 H4833 0.929 . S
C4843 C4841 1.433 . S
C4843 N4846 1.384 . S
C4844 H4835 0.929 . S
C4844 C4836 1.378 . S
C4844 C4839 1.350 . S
C4845 H4832 0.929 . S
C4845 C4837 1.433 . S
C4845 N4847 1.384 . S
N4846 C4842 1.427 . S
N4846 C4843 1.384 . S
N4847 C4839 1.427 . S
N4847 C4845 1.384 . S
H4848 C4854 0.930 . S
H4849 C4858 0.930 . S
H4850 C4863 0.929 . S
H4851 C4861 0.929 . S
H4852 C4856 0.929 . S
H4853 C4862 0.929 . S
C4854 H4848 0.930 . S
C4854 C4855 1.367 . S
C4854 C4862 1.378 . S
C4855 C4854 1.367 . S
C4855 C4863 1.433 . S
C4856 H4852 0.929 . S
C4856 C4858 1.378 . S
C4856 C4860 1.350 . S
C4857 C4860 1.463 . S
C4857 C4862 1.350 . S
C4857 N4865 1.427 . S
C4858 H4849 0.930 . S
C4858 C4856 1.378 . S
C4858 C4859 1.367 . S
C4859 C4858 1.367 . S
C4859 C4861 1.433 . S
C4860 C4856 1.350 . S
C4860 C4857 1.463 . S
C4860 N4864 1.427 . S
C4861 H4851 0.929 . S
C4861 C4859 1.433 . S
C4861 N4864 1.384 . S
C4862 H4853 0.929 . S
C4862 C4854 1.378 . S
C4862 C4857 1.350 . S
C4863 H4850 0.929 . S
C4863 C4855 1.433 . S
C4863 N4865 1.384 . S
N4864 C4860 1.427 . S
N4864 C4861 1.384 . S
N4865 C4857 1.427 . S
N4865 C4863 1.384 . S
H4866 C4872 0.930 . S
H4867 C4876 0.930 . S
H4868 C4881 0.929 . S
H4869 C4879 0.929 . S
H4870 C4874 0.929 . S
H4871 C4880 0.929 . S
C4872 H4866 0.930 . S
C4872 C4873 1.367 . S
C4872 C4880 1.378 . S
C4873 C4872 1.367 . S
C4873 C4881 1.433 . S
C4874 H4870 0.929 . S
C4874 C4876 1.378 . S
C4874 C4878 1.350 . S
C4875 C4878 1.463 . S
C4875 C4880 1.350 . S
C4875 N4883 1.427 . S
C4876 H4867 0.930 . S
C4876 C4874 1.378 . S
C4876 C4877 1.367 . S
C4877 C4876 1.367 . S
C4877 C4879 1.433 . S
C4878 C4874 1.350 . S
C4878 C4875 1.463 . S
C4878 N4882 1.427 . S
C4879 H4869 0.929 . S
C4879 C4877 1.433 . S
C4879 N4882 1.384 . S
C4880 H4871 0.929 . S
C4880 C4872 1.378 . S
C4880 C4875 1.350 . S
C4881 H4868 0.929 . S
C4881 C4873 1.433 . S
C4881 N4883 1.384 . S
N4882 C4878 1.427 . S
N4882 C4879 1.384 . S
N4883 C4875 1.427 . S
N4883 C4881 1.384 . S
H4884 C4890 0.930 . S
H4885 C4894 0.930 . S
H4886 C4899 0.929 . S
H4887 C4897 0.929 . S
H4888 C4892 0.929 . S
H4889 C4898 0.929 . S
C4890 H4884 0.930 . S
C4890 C4891 1.367 . S
C4890 C4898 1.378 . S
C4891 C4890 1.367 . S
C4891 C4899 1.433 . S
C4892 H4888 0.929 . S
C4892 C4894 1.378 . S
C4892 C4896 1.350 . S
C4893 C4896 1.463 . S
C4893 C4898 1.350 . S
C4893 N4901 1.427 . S
C4894 H4885 0.930 . S
C4894 C4892 1.378 . S
C4894 C4895 1.367 . S
C4895 C4894 1.367 . S
C4895 C4897 1.433 . S
C4896 C4892 1.350 . S
C4896 C4893 1.463 . S
C4896 N4900 1.427 . S
C4897 H4887 0.929 . S
C4897 C4895 1.433 . S
C4897 N4900 1.384 . S
C4898 H4889 0.929 . S
C4898 C4890 1.378 . S
C4898 C4893 1.350 . S
C4899 H4886 0.929 . S
C4899 C4891 1.433 . S
C4899 N4901 1.384 . S
N4900 C4896 1.427 . S
N4900 C4897 1.384 . S
N4901 C4893 1.427 . S
N4901 C4899 1.384 . S
H4902 C4908 0.930 . S
H4903 C4912 0.930 . S
H4904 C4917 0.929 . S
H4905 C4915 0.929 . S
H4906 C4910 0.929 . S
H4907 C4916 0.929 . S
C4908 H4902 0.930 . S
C4908 C4909 1.367 . S
C4908 C4916 1.378 . S
C4909 C4908 1.367 . S
C4909 C4917 1.433 . S
C4910 H4906 0.929 . S
C4910 C4912 1.378 . S
C4910 C4914 1.350 . S
C4911 C4914 1.463 . S
C4911 C4916 1.350 . S
C4911 N4919 1.427 . S
C4912 H4903 0.930 . S
C4912 C4910 1.378 . S
C4912 C4913 1.367 . S
C4913 C4912 1.367 . S
C4913 C4915 1.433 . S
C4914 C4910 1.350 . S
C4914 C4911 1.463 . S
C4914 N4918 1.427 . S
C4915 H4905 0.929 . S
C4915 C4913 1.433 . S
C4915 N4918 1.384 . S
C4916 H4907 0.929 . S
C4916 C4908 1.378 . S
C4916 C4911 1.350 . S
C4917 H4904 0.929 . S
C4917 C4909 1.433 . S
C4917 N4919 1.384 . S
N4918 C4914 1.427 . S
N4918 C4915 1.384 . S
N4919 C4911 1.427 . S
N4919 C4917 1.384 . S
H4920 C4926 0.930 . S
H4921 C4930 0.930 . S
H4922 C4935 0.929 . S
H4923 C4933 0.929 . S
H4924 C4928 0.929 . S
H4925 C4934 0.929 . S
C4926 H4920 0.930 . S
C4926 C4927 1.367 . S
C4926 C4934 1.378 . S
C4927 C4926 1.367 . S
C4927 C4935 1.433 . S
C4928 H4924 0.929 . S
C4928 C4930 1.378 . S
C4928 C4932 1.350 . S
C4929 C4932 1.463 . S
C4929 C4934 1.350 . S
C4929 N4937 1.427 . S
C4930 H4921 0.930 . S
C4930 C4928 1.378 . S
C4930 C4931 1.367 . S
C4931 C4930 1.367 . S
C4931 C4933 1.433 . S
C4932 C4928 1.350 . S
C4932 C4929 1.463 . S
C4932 N4936 1.427 . S
C4933 H4923 0.929 . S
C4933 C4931 1.433 . S
C4933 N4936 1.384 . S
C4934 H4925 0.929 . S
C4934 C4926 1.378 . S
C4934 C4929 1.350 . S
C4935 H4922 0.929 . S
C4935 C4927 1.433 . S
C4935 N4937 1.384 . S
N4936 C4932 1.427 . S
N4936 C4933 1.384 . S
N4937 C4929 1.427 . S
N4937 C4935 1.384 . S
H4938 C4944 0.930 . S
H4939 C4948 0.930 . S
H4940 C4953 0.929 . S
H4941 C4951 0.929 . S
H4942 C4946 0.929 . S
H4943 C4952 0.929 . S
C4944 H4938 0.930 . S
C4944 C4945 1.367 . S
C4944 C4952 1.378 . S
C4945 C4944 1.367 . S
C4945 C4953 1.433 . S
C4946 H4942 0.929 . S
C4946 C4948 1.378 . S
C4946 C4950 1.350 . S
C4947 C4950 1.463 . S
C4947 C4952 1.350 . S
C4947 N4955 1.427 . S
C4948 H4939 0.930 . S
C4948 C4946 1.378 . S
C4948 C4949 1.367 . S
C4949 C4948 1.367 . S
C4949 C4951 1.433 . S
C4950 C4946 1.350 . S
C4950 C4947 1.463 . S
C4950 N4954 1.427 . S
C4951 H4941 0.929 . S
C4951 C4949 1.433 . S
C4951 N4954 1.384 . S
C4952 H4943 0.929 . S
C4952 C4944 1.378 . S
C4952 C4947 1.350 . S
C4953 H4940 0.929 . S
C4953 C4945 1.433 . S
C4953 N4955 1.384 . S
N4954 C4950 1.427 . S
N4954 C4951 1.384 . S
N4955 C4947 1.427 . S
N4955 C4953 1.384 . S
H4956 C4962 0.930 . S
H4957 C4966 0.930 . S
H4958 C4971 0.929 . S
H4959 C4969 0.929 . S
H4960 C4964 0.929 . S
H4961 C4970 0.929 . S
C4962 H4956 0.930 . S
C4962 C4963 1.367 . S
C4962 C4970 1.378 . S
C4963 C4962 1.367 . S
C4963 C4971 1.433 . S
C4964 H4960 0.929 . S
C4964 C4966 1.378 . S
C4964 C4968 1.350 . S
C4965 C4968 1.463 . S
C4965 C4970 1.350 . S
C4965 N4973 1.427 . S
C4966 H4957 0.930 . S
C4966 C4964 1.378 . S
C4966 C4967 1.367 . S
C4967 C4966 1.367 . S
C4967 C4969 1.433 . S
C4968 C4964 1.350 . S
C4968 C4965 1.463 . S
C4968 N4972 1.427 . S
C4969 H4959 0.929 . S
C4969 C4967 1.433 . S
C4969 N4972 1.384 . S
C4970 H4961 0.929 . S
C4970 C4962 1.378 . S
C4970 C4965 1.350 . S
C4971 H4958 0.929 . S
C4971 C4963 1.433 . S
C4971 N4973 1.384 . S
N4972 C4968 1.427 . S
N4972 C4969 1.384 . S
N4973 C4965 1.427 . S
N4973 C4971 1.384 . S
H4974 C4980 0.930 . S
H4975 C4984 0.930 . S
H4976 C4989 0.929 . S
H4977 C4987 0.929 . S
H4978 C4982 0.929 . S
H4979 C4988 0.929 . S
C4980 H4974 0.930 . S
C4980 C4981 1.367 . S
C4980 C4988 1.378 . S
C4981 C4980 1.367 . S
C4981 C4989 1.433 . S
C4982 H4978 0.929 . S
C4982 C4984 1.378 . S
C4982 C4986 1.350 . S
C4983 C4986 1.463 . S
C4983 C4988 1.350 . S
C4983 N4991 1.427 . S
C4984 H4975 0.930 . S
C4984 C4982 1.378 . S
C4984 C4985 1.367 . S
C4985 C4984 1.367 . S
C4985 C4987 1.433 . S
C4986 C4982 1.350 . S
C4986 C4983 1.463 . S
C4986 N4990 1.427 . S
C4987 H4977 0.929 . S
C4987 C4985 1.433 . S
C4987 N4990 1.384 . S
C4988 H4979 0.929 . S
C4988 C4980 1.378 . S
C4988 C4983 1.350 . S
C4989 H4976 0.929 . S
C4989 C4981 1.433 . S
C4989 N4991 1.384 . S
N4990 C4986 1.427 . S
N4990 C4987 1.384 . S
N4991 C4983 1.427 . S
N4991 C4989 1.384 . S
H4992 C4998 0.930 . S
H4993 C5002 0.930 . S
H4994 C5007 0.929 . S
H4995 C5005 0.929 . S
H4996 C5000 0.929 . S
H4997 C5006 0.929 . S
C4998 H4992 0.930 . S
C4998 C4999 1.367 . S
C4998 C5006 1.378 . S
C4999 C4998 1.367 . S
C4999 C5007 1.433 . S
C5000 H4996 0.929 . S
C5000 C5002 1.378 . S
C5000 C5004 1.350 . S
C5001 C5004 1.463 . S
C5001 C5006 1.350 . S
C5001 N5009 1.427 . S
C5002 H4993 0.930 . S
C5002 C5000 1.378 . S
C5002 C5003 1.367 . S
C5003 C5002 1.367 . S
C5003 C5005 1.433 . S
C5004 C5000 1.350 . S
C5004 C5001 1.463 . S
C5004 N5008 1.427 . S
C5005 H4995 0.929 . S
C5005 C5003 1.433 . S
C5005 N5008 1.384 . S
C5006 H4997 0.929 . S
C5006 C4998 1.378 . S
C5006 C5001 1.350 . S
C5007 H4994 0.929 . S
C5007 C4999 1.433 . S
C5007 N5009 1.384 . S
N5008 C5004 1.427 . S
N5008 C5005 1.384 . S
N5009 C5001 1.427 . S
N5009 C5007 1.384 . S
H5010 C5016 0.930 . S
H5011 C5020 0.930 . S
H5012 C5025 0.929 . S
H5013 C5023 0.929 . S
H5014 C5018 0.929 . S
H5015 C5024 0.929 . S
C5016 H5010 0.930 . S
C5016 C5017 1.367 . S
C5016 C5024 1.378 . S
C5017 C5016 1.367 . S
C5017 C5025 1.433 . S
C5018 H5014 0.929 . S
C5018 C5020 1.378 . S
C5018 C5022 1.350 . S
C5019 C5022 1.463 . S
C5019 C5024 1.350 . S
C5019 N5027 1.427 . S
C5020 H5011 0.930 . S
C5020 C5018 1.378 . S
C5020 C5021 1.367 . S
C5021 C5020 1.367 . S
C5021 C5023 1.433 . S
C5022 C5018 1.350 . S
C5022 C5019 1.463 . S
C5022 N5026 1.427 . S
C5023 H5013 0.929 . S
C5023 C5021 1.433 . S
C5023 N5026 1.384 . S
C5024 H5015 0.929 . S
C5024 C5016 1.378 . S
C5024 C5019 1.350 . S
C5025 H5012 0.929 . S
C5025 C5017 1.433 . S
C5025 N5027 1.384 . S
N5026 C5022 1.427 . S
N5026 C5023 1.384 . S
N5027 C5019 1.427 . S
N5027 C5025 1.384 . S
H5028 C5034 0.930 . S
H5029 C5038 0.930 . S
H5030 C5043 0.929 . S
H5031 C5041 0.929 . S
H5032 C5036 0.929 . S
H5033 C5042 0.929 . S
C5034 H5028 0.930 . S
C5034 C5035 1.367 . S
C5034 C5042 1.378 . S
C5035 C5034 1.367 . S
C5035 C5043 1.433 . S
C5036 H5032 0.929 . S
C5036 C5038 1.378 . S
C5036 C5040 1.350 . S
C5037 C5040 1.463 . S
C5037 C5042 1.350 . S
C5037 N5045 1.427 . S
C5038 H5029 0.930 . S
C5038 C5036 1.378 . S
C5038 C5039 1.367 . S
C5039 C5038 1.367 . S
C5039 C5041 1.433 . S
C5040 C5036 1.350 . S
C5040 C5037 1.463 . S
C5040 N5044 1.427 . S
C5041 H5031 0.929 . S
C5041 C5039 1.433 . S
C5041 N5044 1.384 . S
C5042 H5033 0.929 . S
C5042 C5034 1.378 . S
C5042 C5037 1.350 . S
C5043 H5030 0.929 . S
C5043 C5035 1.433 . S
C5043 N5045 1.384 . S
N5044 C5040 1.427 . S
N5044 C5041 1.384 . S
N5045 C5037 1.427 . S
N5045 C5043 1.384 . S
H5046 C5052 0.930 . S
H5047 C5056 0.930 . S
H5048 C5061 0.929 . S
H5049 C5059 0.929 . S
H5050 C5054 0.929 . S
H5051 C5060 0.929 . S
C5052 H5046 0.930 . S
C5052 C5053 1.367 . S
C5052 C5060 1.378 . S
C5053 C5052 1.367 . S
C5053 C5061 1.433 . S
C5054 H5050 0.929 . S
C5054 C5056 1.378 . S
C5054 C5058 1.350 . S
C5055 C5058 1.463 . S
C5055 C5060 1.350 . S
C5055 N5063 1.427 . S
C5056 H5047 0.930 . S
C5056 C5054 1.378 . S
C5056 C5057 1.367 . S
C5057 C5056 1.367 . S
C5057 C5059 1.433 . S
C5058 C5054 1.350 . S
C5058 C5055 1.463 . S
C5058 N5062 1.427 . S
C5059 H5049 0.929 . S
C5059 C5057 1.433 . S
C5059 N5062 1.384 . S
C5060 H5051 0.929 . S
C5060 C5052 1.378 . S
C5060 C5055 1.350 . S
C5061 H5048 0.929 . S
C5061 C5053 1.433 . S
C5061 N5063 1.384 . S
N5062 C5058 1.427 . S
N5062 C5059 1.384 . S
N5063 C5055 1.427 . S
N5063 C5061 1.384 . S
H5064 C5070 0.930 . S
H5065 C5074 0.930 . S
H5066 C5079 0.929 . S
H5067 C5077 0.929 . S
H5068 C5072 0.929 . S
H5069 C5078 0.929 . S
C5070 H5064 0.930 . S
C5070 C5071 1.367 . S
C5070 C5078 1.378 . S
C5071 C5070 1.367 . S
C5071 C5079 1.433 . S
C5072 H5068 0.929 . S
C5072 C5074 1.378 . S
C5072 C5076 1.350 . S
C5073 C5076 1.463 . S
C5073 C5078 1.350 . S
C5073 N5081 1.427 . S
C5074 H5065 0.930 . S
C5074 C5072 1.378 . S
C5074 C5075 1.367 . S
C5075 C5074 1.367 . S
C5075 C5077 1.433 . S
C5076 C5072 1.350 . S
C5076 C5073 1.463 . S
C5076 N5080 1.427 . S
C5077 H5067 0.929 . S
C5077 C5075 1.433 . S
C5077 N5080 1.384 . S
C5078 H5069 0.929 . S
C5078 C5070 1.378 . S
C5078 C5073 1.350 . S
C5079 H5066 0.929 . S
C5079 C5071 1.433 . S
C5079 N5081 1.384 . S
N5080 C5076 1.427 . S
N5080 C5077 1.384 . S
N5081 C5073 1.427 . S
N5081 C5079 1.384 . S
H5082 C5088 0.930 . S
H5083 C5092 0.930 . S
H5084 C5097 0.929 . S
H5085 C5095 0.929 . S
H5086 C5090 0.929 . S
H5087 C5096 0.929 . S
C5088 H5082 0.930 . S
C5088 C5089 1.367 . S
C5088 C5096 1.378 . S
C5089 C5088 1.367 . S
C5089 C5097 1.433 . S
C5090 H5086 0.929 . S
C5090 C5092 1.378 . S
C5090 C5094 1.350 . S
C5091 C5094 1.463 . S
C5091 C5096 1.350 . S
C5091 N5099 1.427 . S
C5092 H5083 0.930 . S
C5092 C5090 1.378 . S
C5092 C5093 1.367 . S
C5093 C5092 1.367 . S
C5093 C5095 1.433 . S
C5094 C5090 1.350 . S
C5094 C5091 1.463 . S
C5094 N5098 1.427 . S
C5095 H5085 0.929 . S
C5095 C5093 1.433 . S
C5095 N5098 1.384 . S
C5096 H5087 0.929 . S
C5096 C5088 1.378 . S
C5096 C5091 1.350 . S
C5097 H5084 0.929 . S
C5097 C5089 1.433 . S
C5097 N5099 1.384 . S
N5098 C5094 1.427 . S
N5098 C5095 1.384 . S
N5099 C5091 1.427 . S
N5099 C5097 1.384 . S
H5100 C5106 0.930 . S
H5101 C5110 0.930 . S
H5102 C5115 0.929 . S
H5103 C5113 0.929 . S
H5104 C5108 0.929 . S
H5105 C5114 0.929 . S
C5106 H5100 0.930 . S
C5106 C5107 1.367 . S
C5106 C5114 1.378 . S
C5107 C5106 1.367 . S
C5107 C5115 1.433 . S
C5108 H5104 0.929 . S
C5108 C5110 1.378 . S
C5108 C5112 1.350 . S
C5109 C5112 1.463 . S
C5109 C5114 1.350 . S
C5109 N5117 1.427 . S
C5110 H5101 0.930 . S
C5110 C5108 1.378 . S
C5110 C5111 1.367 . S
C5111 C5110 1.367 . S
C5111 C5113 1.433 . S
C5112 C5108 1.350 . S
C5112 C5109 1.463 . S
C5112 N5116 1.427 . S
C5113 H5103 0.929 . S
C5113 C5111 1.433 . S
C5113 N5116 1.384 . S
C5114 H5105 0.929 . S
C5114 C5106 1.378 . S
C5114 C5109 1.350 . S
C5115 H5102 0.929 . S
C5115 C5107 1.433 . S
C5115 N5117 1.384 . S
N5116 C5112 1.427 . S
N5116 C5113 1.384 . S
N5117 C5109 1.427 . S
N5117 C5115 1.384 . S
H5118 C5124 0.930 . S
H5119 C5128 0.930 . S
H5120 C5133 0.929 . S
H5121 C5131 0.929 . S
H5122 C5126 0.929 . S
H5123 C5132 0.929 . S
C5124 H5118 0.930 . S
C5124 C5125 1.367 . S
C5124 C5132 1.378 . S
C5125 C5124 1.367 . S
C5125 C5133 1.433 . S
C5126 H5122 0.929 . S
C5126 C5128 1.378 . S
C5126 C5130 1.350 . S
C5127 C5130 1.463 . S
C5127 C5132 1.350 . S
C5127 N5135 1.427 . S
C5128 H5119 0.930 . S
C5128 C5126 1.378 . S
C5128 C5129 1.367 . S
C5129 C5128 1.367 . S
C5129 C5131 1.433 . S
C5130 C5126 1.350 . S
C5130 C5127 1.463 . S
C5130 N5134 1.427 . S
C5131 H5121 0.929 . S
C5131 C5129 1.433 . S
C5131 N5134 1.384 . S
C5132 H5123 0.929 . S
C5132 C5124 1.378 . S
C5132 C5127 1.350 . S
C5133 H5120 0.929 . S
C5133 C5125 1.433 . S
C5133 N5135 1.384 . S
N5134 C5130 1.427 . S
N5134 C5131 1.384 . S
N5135 C5127 1.427 . S
N5135 C5133 1.384 . S
H5136 C5142 0.930 . S
H5137 C5146 0.930 . S
H5138 C5151 0.929 . S
H5139 C5149 0.929 . S
H5140 C5144 0.929 . S
H5141 C5150 0.929 . S
C5142 H5136 0.930 . S
C5142 C5143 1.367 . S
C5142 C5150 1.378 . S
C5143 C5142 1.367 . S
C5143 C5151 1.433 . S
C5144 H5140 0.929 . S
C5144 C5146 1.378 . S
C5144 C5148 1.350 . S
C5145 C5148 1.463 . S
C5145 C5150 1.350 . S
C5145 N5153 1.427 . S
C5146 H5137 0.930 . S
C5146 C5144 1.378 . S
C5146 C5147 1.367 . S
C5147 C5146 1.367 . S
C5147 C5149 1.433 . S
C5148 C5144 1.350 . S
C5148 C5145 1.463 . S
C5148 N5152 1.427 . S
C5149 H5139 0.929 . S
C5149 C5147 1.433 . S
C5149 N5152 1.384 . S
C5150 H5141 0.929 . S
C5150 C5142 1.378 . S
C5150 C5145 1.350 . S
C5151 H5138 0.929 . S
C5151 C5143 1.433 . S
C5151 N5153 1.384 . S
N5152 C5148 1.427 . S
N5152 C5149 1.384 . S
N5153 C5145 1.427 . S
N5153 C5151 1.384 . S
H5154 C5160 0.930 . S
H5155 C5164 0.930 . S
H5156 C5169 0.929 . S
H5157 C5167 0.929 . S
H5158 C5162 0.929 . S
H5159 C5168 0.929 . S
C5160 H5154 0.930 . S
C5160 C5161 1.367 . S
C5160 C5168 1.378 . S
C5161 C5160 1.367 . S
C5161 C5169 1.433 . S
C5162 H5158 0.929 . S
C5162 C5164 1.378 . S
C5162 C5166 1.350 . S
C5163 C5166 1.463 . S
C5163 C5168 1.350 . S
C5163 N5171 1.427 . S
C5164 H5155 0.930 . S
C5164 C5162 1.378 . S
C5164 C5165 1.367 . S
C5165 C5164 1.367 . S
C5165 C5167 1.433 . S
C5166 C5162 1.350 . S
C5166 C5163 1.463 . S
C5166 N5170 1.427 . S
C5167 H5157 0.929 . S
C5167 C5165 1.433 . S
C5167 N5170 1.384 . S
C5168 H5159 0.929 . S
C5168 C5160 1.378 . S
C5168 C5163 1.350 . S
C5169 H5156 0.929 . S
C5169 C5161 1.433 . S
C5169 N5171 1.384 . S
N5170 C5166 1.427 . S
N5170 C5167 1.384 . S
N5171 C5163 1.427 . S
N5171 C5169 1.384 . S
H5172 C5178 0.930 . S
H5173 C5182 0.930 . S
H5174 C5187 0.929 . S
H5175 C5185 0.929 . S
H5176 C5180 0.929 . S
H5177 C5186 0.929 . S
C5178 H5172 0.930 . S
C5178 C5179 1.367 . S
C5178 C5186 1.378 . S
C5179 C5178 1.367 . S
C5179 C5187 1.433 . S
C5180 H5176 0.929 . S
C5180 C5182 1.378 . S
C5180 C5184 1.350 . S
C5181 C5184 1.463 . S
C5181 C5186 1.350 . S
C5181 N5189 1.427 . S
C5182 H5173 0.930 . S
C5182 C5180 1.378 . S
C5182 C5183 1.367 . S
C5183 C5182 1.367 . S
C5183 C5185 1.433 . S
C5184 C5180 1.350 . S
C5184 C5181 1.463 . S
C5184 N5188 1.427 . S
C5185 H5175 0.929 . S
C5185 C5183 1.433 . S
C5185 N5188 1.384 . S
C5186 H5177 0.929 . S
C5186 C5178 1.378 . S
C5186 C5181 1.350 . S
C5187 H5174 0.929 . S
C5187 C5179 1.433 . S
C5187 N5189 1.384 . S
N5188 C5184 1.427 . S
N5188 C5185 1.384 . S
N5189 C5181 1.427 . S
N5189 C5187 1.384 . S
H5190 C5196 0.930 . S
H5191 C5200 0.930 . S
H5192 C5205 0.929 . S
H5193 C5203 0.929 . S
H5194 C5198 0.929 . S
H5195 C5204 0.929 . S
C5196 H5190 0.930 . S
C5196 C5197 1.367 . S
C5196 C5204 1.378 . S
C5197 C5196 1.367 . S
C5197 C5205 1.433 . S
C5198 H5194 0.929 . S
C5198 C5200 1.378 . S
C5198 C5202 1.350 . S
C5199 C5202 1.463 . S
C5199 C5204 1.350 . S
C5199 N5207 1.427 . S
C5200 H5191 0.930 . S
C5200 C5198 1.378 . S
C5200 C5201 1.367 . S
C5201 C5200 1.367 . S
C5201 C5203 1.433 . S
C5202 C5198 1.350 . S
C5202 C5199 1.463 . S
C5202 N5206 1.427 . S
C5203 H5193 0.929 . S
C5203 C5201 1.433 . S
C5203 N5206 1.384 . S
C5204 H5195 0.929 . S
C5204 C5196 1.378 . S
C5204 C5199 1.350 . S
C5205 H5192 0.929 . S
C5205 C5197 1.433 . S
C5205 N5207 1.384 . S
N5206 C5202 1.427 . S
N5206 C5203 1.384 . S
N5207 C5199 1.427 . S
N5207 C5205 1.384 . S
H5208 C5214 0.930 . S
H5209 C5218 0.930 . S
H5210 C5223 0.929 . S
H5211 C5221 0.929 . S
H5212 C5216 0.929 . S
H5213 C5222 0.929 . S
C5214 H5208 0.930 . S
C5214 C5215 1.367 . S
C5214 C5222 1.378 . S
C5215 C5214 1.367 . S
C5215 C5223 1.433 . S
C5216 H5212 0.929 . S
C5216 C5218 1.378 . S
C5216 C5220 1.350 . S
C5217 C5220 1.463 . S
C5217 C5222 1.350 . S
C5217 N5225 1.427 . S
C5218 H5209 0.930 . S
C5218 C5216 1.378 . S
C5218 C5219 1.367 . S
C5219 C5218 1.367 . S
C5219 C5221 1.433 . S
C5220 C5216 1.350 . S
C5220 C5217 1.463 . S
C5220 N5224 1.427 . S
C5221 H5211 0.929 . S
C5221 C5219 1.433 . S
C5221 N5224 1.384 . S
C5222 H5213 0.929 . S
C5222 C5214 1.378 . S
C5222 C5217 1.350 . S
C5223 H5210 0.929 . S
C5223 C5215 1.433 . S
C5223 N5225 1.384 . S
N5224 C5220 1.427 . S
N5224 C5221 1.384 . S
N5225 C5217 1.427 . S
N5225 C5223 1.384 . S
H5226 C5232 0.930 . S
H5227 C5236 0.930 . S
H5228 C5241 0.929 . S
H5229 C5239 0.929 . S
H5230 C5234 0.929 . S
H5231 C5240 0.929 . S
C5232 H5226 0.930 . S
C5232 C5233 1.367 . S
C5232 C5240 1.378 . S
C5233 C5232 1.367 . S
C5233 C5241 1.433 . S
C5234 H5230 0.929 . S
C5234 C5236 1.378 . S
C5234 C5238 1.350 . S
C5235 C5238 1.463 . S
C5235 C5240 1.350 . S
C5235 N5243 1.427 . S
C5236 H5227 0.930 . S
C5236 C5234 1.378 . S
C5236 C5237 1.367 . S
C5237 C5236 1.367 . S
C5237 C5239 1.433 . S
C5238 C5234 1.350 . S
C5238 C5235 1.463 . S
C5238 N5242 1.427 . S
C5239 H5229 0.929 . S
C5239 C5237 1.433 . S
C5239 N5242 1.384 . S
C5240 H5231 0.929 . S
C5240 C5232 1.378 . S
C5240 C5235 1.350 . S
C5241 H5228 0.929 . S
C5241 C5233 1.433 . S
C5241 N5243 1.384 . S
N5242 C5238 1.427 . S
N5242 C5239 1.384 . S
N5243 C5235 1.427 . S
N5243 C5241 1.384 . S
H5244 C5250 0.930 . S
H5245 C5254 0.930 . S
H5246 C5259 0.929 . S
H5247 C5257 0.929 . S
H5248 C5252 0.929 . S
H5249 C5258 0.929 . S
C5250 H5244 0.930 . S
C5250 C5251 1.367 . S
C5250 C5258 1.378 . S
C5251 C5250 1.367 . S
C5251 C5259 1.433 . S
C5252 H5248 0.929 . S
C5252 C5254 1.378 . S
C5252 C5256 1.350 . S
C5253 C5256 1.463 . S
C5253 C5258 1.350 . S
C5253 N5261 1.427 . S
C5254 H5245 0.930 . S
C5254 C5252 1.378 . S
C5254 C5255 1.367 . S
C5255 C5254 1.367 . S
C5255 C5257 1.433 . S
C5256 C5252 1.350 . S
C5256 C5253 1.463 . S
C5256 N5260 1.427 . S
C5257 H5247 0.929 . S
C5257 C5255 1.433 . S
C5257 N5260 1.384 . S
C5258 H5249 0.929 . S
C5258 C5250 1.378 . S
C5258 C5253 1.350 . S
C5259 H5246 0.929 . S
C5259 C5251 1.433 . S
C5259 N5261 1.384 . S
N5260 C5256 1.427 . S
N5260 C5257 1.384 . S
N5261 C5253 1.427 . S
N5261 C5259 1.384 . S
H5262 C5268 0.930 . S
H5263 C5272 0.930 . S
H5264 C5277 0.929 . S
H5265 C5275 0.929 . S
H5266 C5270 0.929 . S
H5267 C5276 0.929 . S
C5268 H5262 0.930 . S
C5268 C5269 1.367 . S
C5268 C5276 1.378 . S
C5269 C5268 1.367 . S
C5269 C5277 1.433 . S
C5270 H5266 0.929 . S
C5270 C5272 1.378 . S
C5270 C5274 1.350 . S
C5271 C5274 1.463 . S
C5271 C5276 1.350 . S
C5271 N5279 1.427 . S
C5272 H5263 0.930 . S
C5272 C5270 1.378 . S
C5272 C5273 1.367 . S
C5273 C5272 1.367 . S
C5273 C5275 1.433 . S
C5274 C5270 1.350 . S
C5274 C5271 1.463 . S
C5274 N5278 1.427 . S
C5275 H5265 0.929 . S
C5275 C5273 1.433 . S
C5275 N5278 1.384 . S
C5276 H5267 0.929 . S
C5276 C5268 1.378 . S
C5276 C5271 1.350 . S
C5277 H5264 0.929 . S
C5277 C5269 1.433 . S
C5277 N5279 1.384 . S
N5278 C5274 1.427 . S
N5278 C5275 1.384 . S
N5279 C5271 1.427 . S
N5279 C5277 1.384 . S
H5280 C5286 0.930 . S
H5281 C5290 0.930 . S
H5282 C5295 0.929 . S
H5283 C5293 0.929 . S
H5284 C5288 0.929 . S
H5285 C5294 0.929 . S
C5286 H5280 0.930 . S
C5286 C5287 1.367 . S
C5286 C5294 1.378 . S
C5287 C5286 1.367 . S
C5287 C5295 1.433 . S
C5288 H5284 0.929 . S
C5288 C5290 1.378 . S
C5288 C5292 1.350 . S
C5289 C5292 1.463 . S
C5289 C5294 1.350 . S
C5289 N5297 1.427 . S
C5290 H5281 0.930 . S
C5290 C5288 1.378 . S
C5290 C5291 1.367 . S
C5291 C5290 1.367 . S
C5291 C5293 1.433 . S
C5292 C5288 1.350 . S
C5292 C5289 1.463 . S
C5292 N5296 1.427 . S
C5293 H5283 0.929 . S
C5293 C5291 1.433 . S
C5293 N5296 1.384 . S
C5294 H5285 0.929 . S
C5294 C5286 1.378 . S
C5294 C5289 1.350 . S
C5295 H5282 0.929 . S
C5295 C5287 1.433 . S
C5295 N5297 1.384 . S
N5296 C5292 1.427 . S
N5296 C5293 1.384 . S
N5297 C5289 1.427 . S
N5297 C5295 1.384 . S
H5298 C5304 0.930 . S
H5299 C5308 0.930 . S
H5300 C5313 0.929 . S
H5301 C5311 0.929 . S
H5302 C5306 0.929 . S
H5303 C5312 0.929 . S
C5304 H5298 0.930 . S
C5304 C5305 1.367 . S
C5304 C5312 1.378 . S
C5305 C5304 1.367 . S
C5305 C5313 1.433 . S
C5306 H5302 0.929 . S
C5306 C5308 1.378 . S
C5306 C5310 1.350 . S
C5307 C5310 1.463 . S
C5307 C5312 1.350 . S
C5307 N5315 1.427 . S
C5308 H5299 0.930 . S
C5308 C5306 1.378 . S
C5308 C5309 1.367 . S
C5309 C5308 1.367 . S
C5309 C5311 1.433 . S
C5310 C5306 1.350 . S
C5310 C5307 1.463 . S
C5310 N5314 1.427 . S
C5311 H5301 0.929 . S
C5311 C5309 1.433 . S
C5311 N5314 1.384 . S
C5312 H5303 0.929 . S
C5312 C5304 1.378 . S
C5312 C5307 1.350 . S
C5313 H5300 0.929 . S
C5313 C5305 1.433 . S
C5313 N5315 1.384 . S
N5314 C5310 1.427 . S
N5314 C5311 1.384 . S
N5315 C5307 1.427 . S
N5315 C5313 1.384 . S
H5316 C5322 0.930 . S
H5317 C5326 0.930 . S
H5318 C5331 0.929 . S
H5319 C5329 0.929 . S
H5320 C5324 0.929 . S
H5321 C5330 0.929 . S
C5322 H5316 0.930 . S
C5322 C5323 1.367 . S
C5322 C5330 1.378 . S
C5323 C5322 1.367 . S
C5323 C5331 1.433 . S
C5324 H5320 0.929 . S
C5324 C5326 1.378 . S
C5324 C5328 1.350 . S
C5325 C5328 1.463 . S
C5325 C5330 1.350 . S
C5325 N5333 1.427 . S
C5326 H5317 0.930 . S
C5326 C5324 1.378 . S
C5326 C5327 1.367 . S
C5327 C5326 1.367 . S
C5327 C5329 1.433 . S
C5328 C5324 1.350 . S
C5328 C5325 1.463 . S
C5328 N5332 1.427 . S
C5329 H5319 0.929 . S
C5329 C5327 1.433 . S
C5329 N5332 1.384 . S
C5330 H5321 0.929 . S
C5330 C5322 1.378 . S
C5330 C5325 1.350 . S
C5331 H5318 0.929 . S
C5331 C5323 1.433 . S
C5331 N5333 1.384 . S
N5332 C5328 1.427 . S
N5332 C5329 1.384 . S
N5333 C5325 1.427 . S
N5333 C5331 1.384 . S
H5334 C5340 0.930 . S
H5335 C5344 0.930 . S
H5336 C5349 0.929 . S
H5337 C5347 0.929 . S
H5338 C5342 0.929 . S
H5339 C5348 0.929 . S
C5340 H5334 0.930 . S
C5340 C5341 1.367 . S
C5340 C5348 1.378 . S
C5341 C5340 1.367 . S
C5341 C5349 1.433 . S
C5342 H5338 0.929 . S
C5342 C5344 1.378 . S
C5342 C5346 1.350 . S
C5343 C5346 1.463 . S
C5343 C5348 1.350 . S
C5343 N5351 1.427 . S
C5344 H5335 0.930 . S
C5344 C5342 1.378 . S
C5344 C5345 1.367 . S
C5345 C5344 1.367 . S
C5345 C5347 1.433 . S
C5346 C5342 1.350 . S
C5346 C5343 1.463 . S
C5346 N5350 1.427 . S
C5347 H5337 0.929 . S
C5347 C5345 1.433 . S
C5347 N5350 1.384 . S
C5348 H5339 0.929 . S
C5348 C5340 1.378 . S
C5348 C5343 1.350 . S
C5349 H5336 0.929 . S
C5349 C5341 1.433 . S
C5349 N5351 1.384 . S
N5350 C5346 1.427 . S
N5350 C5347 1.384 . S
N5351 C5343 1.427 . S
N5351 C5349 1.384 . S
H5352 C5358 0.930 . S
H5353 C5362 0.930 . S
H5354 C5367 0.929 . S
H5355 C5365 0.929 . S
H5356 C5360 0.929 . S
H5357 C5366 0.929 . S
C5358 H5352 0.930 . S
C5358 C5359 1.367 . S
C5358 C5366 1.378 . S
C5359 C5358 1.367 . S
C5359 C5367 1.433 . S
C5360 H5356 0.929 . S
C5360 C5362 1.378 . S
C5360 C5364 1.350 . S
C5361 C5364 1.463 . S
C5361 C5366 1.350 . S
C5361 N5369 1.427 . S
C5362 H5353 0.930 . S
C5362 C5360 1.378 . S
C5362 C5363 1.367 . S
C5363 C5362 1.367 . S
C5363 C5365 1.433 . S
C5364 C5360 1.350 . S
C5364 C5361 1.463 . S
C5364 N5368 1.427 . S
C5365 H5355 0.929 . S
C5365 C5363 1.433 . S
C5365 N5368 1.384 . S
C5366 H5357 0.929 . S
C5366 C5358 1.378 . S
C5366 C5361 1.350 . S
C5367 H5354 0.929 . S
C5367 C5359 1.433 . S
C5367 N5369 1.384 . S
N5368 C5364 1.427 . S
N5368 C5365 1.384 . S
N5369 C5361 1.427 . S
N5369 C5367 1.384 . S
H5370 C5376 0.930 . S
H5371 C5380 0.930 . S
H5372 C5385 0.929 . S
H5373 C5383 0.929 . S
H5374 C5378 0.929 . S
H5375 C5384 0.929 . S
C5376 H5370 0.930 . S
C5376 C5377 1.367 . S
C5376 C5384 1.378 . S
C5377 C5376 1.367 . S
C5377 C5385 1.433 . S
C5378 H5374 0.929 . S
C5378 C5380 1.378 . S
C5378 C5382 1.350 . S
C5379 C5382 1.463 . S
C5379 C5384 1.350 . S
C5379 N5387 1.427 . S
C5380 H5371 0.930 . S
C5380 C5378 1.378 . S
C5380 C5381 1.367 . S
C5381 C5380 1.367 . S
C5381 C5383 1.433 . S
C5382 C5378 1.350 . S
C5382 C5379 1.463 . S
C5382 N5386 1.427 . S
C5383 H5373 0.929 . S
C5383 C5381 1.433 . S
C5383 N5386 1.384 . S
C5384 H5375 0.929 . S
C5384 C5376 1.378 . S
C5384 C5379 1.350 . S
C5385 H5372 0.929 . S
C5385 C5377 1.433 . S
C5385 N5387 1.384 . S
N5386 C5382 1.427 . S
N5386 C5383 1.384 . S
N5387 C5379 1.427 . S
N5387 C5385 1.384 . S
H5388 C5394 0.930 . S
H5389 C5398 0.930 . S
H5390 C5403 0.929 . S
H5391 C5401 0.929 . S
H5392 C5396 0.929 . S
H5393 C5402 0.929 . S
C5394 H5388 0.930 . S
C5394 C5395 1.367 . S
C5394 C5402 1.378 . S
C5395 C5394 1.367 . S
C5395 C5403 1.433 . S
C5396 H5392 0.929 . S
C5396 C5398 1.378 . S
C5396 C5400 1.350 . S
C5397 C5400 1.463 . S
C5397 C5402 1.350 . S
C5397 N5405 1.427 . S
C5398 H5389 0.930 . S
C5398 C5396 1.378 . S
C5398 C5399 1.367 . S
C5399 C5398 1.367 . S
C5399 C5401 1.433 . S
C5400 C5396 1.350 . S
C5400 C5397 1.463 . S
C5400 N5404 1.427 . S
C5401 H5391 0.929 . S
C5401 C5399 1.433 . S
C5401 N5404 1.384 . S
C5402 H5393 0.929 . S
C5402 C5394 1.378 . S
C5402 C5397 1.350 . S
C5403 H5390 0.929 . S
C5403 C5395 1.433 . S
C5403 N5405 1.384 . S
N5404 C5400 1.427 . S
N5404 C5401 1.384 . S
N5405 C5397 1.427 . S
N5405 C5403 1.384 . S
H5406 C5412 0.930 . S
H5407 C5416 0.930 . S
H5408 C5421 0.929 . S
H5409 C5419 0.929 . S
H5410 C5414 0.929 . S
H5411 C5420 0.929 . S
C5412 H5406 0.930 . S
C5412 C5413 1.367 . S
C5412 C5420 1.378 . S
C5413 C5412 1.367 . S
C5413 C5421 1.433 . S
C5414 H5410 0.929 . S
C5414 C5416 1.378 . S
C5414 C5418 1.350 . S
C5415 C5418 1.463 . S
C5415 C5420 1.350 . S
C5415 N5423 1.427 . S
C5416 H5407 0.930 . S
C5416 C5414 1.378 . S
C5416 C5417 1.367 . S
C5417 C5416 1.367 . S
C5417 C5419 1.433 . S
C5418 C5414 1.350 . S
C5418 C5415 1.463 . S
C5418 N5422 1.427 . S
C5419 H5409 0.929 . S
C5419 C5417 1.433 . S
C5419 N5422 1.384 . S
C5420 H5411 0.929 . S
C5420 C5412 1.378 . S
C5420 C5415 1.350 . S
C5421 H5408 0.929 . S
C5421 C5413 1.433 . S
C5421 N5423 1.384 . S
N5422 C5418 1.427 . S
N5422 C5419 1.384 . S
N5423 C5415 1.427 . S
N5423 C5421 1.384 . S
H5424 C5430 0.930 . S
H5425 C5434 0.930 . S
H5426 C5439 0.929 . S
H5427 C5437 0.929 . S
H5428 C5432 0.929 . S
H5429 C5438 0.929 . S
C5430 H5424 0.930 . S
C5430 C5431 1.367 . S
C5430 C5438 1.378 . S
C5431 C5430 1.367 . S
C5431 C5439 1.433 . S
C5432 H5428 0.929 . S
C5432 C5434 1.378 . S
C5432 C5436 1.350 . S
C5433 C5436 1.463 . S
C5433 C5438 1.350 . S
C5433 N5441 1.427 . S
C5434 H5425 0.930 . S
C5434 C5432 1.378 . S
C5434 C5435 1.367 . S
C5435 C5434 1.367 . S
C5435 C5437 1.433 . S
C5436 C5432 1.350 . S
C5436 C5433 1.463 . S
C5436 N5440 1.427 . S
C5437 H5427 0.929 . S
C5437 C5435 1.433 . S
C5437 N5440 1.384 . S
C5438 H5429 0.929 . S
C5438 C5430 1.378 . S
C5438 C5433 1.350 . S
C5439 H5426 0.929 . S
C5439 C5431 1.433 . S
C5439 N5441 1.384 . S
N5440 C5436 1.427 . S
N5440 C5437 1.384 . S
N5441 C5433 1.427 . S
N5441 C5439 1.384 . S
H5442 C5448 0.930 . S
H5443 C5452 0.930 . S
H5444 C5457 0.929 . S
H5445 C5455 0.929 . S
H5446 C5450 0.929 . S
H5447 C5456 0.929 . S
C5448 H5442 0.930 . S
C5448 C5449 1.367 . S
C5448 C5456 1.378 . S
C5449 C5448 1.367 . S
C5449 C5457 1.433 . S
C5450 H5446 0.929 . S
C5450 C5452 1.378 . S
C5450 C5454 1.350 . S
C5451 C5454 1.463 . S
C5451 C5456 1.350 . S
C5451 N5459 1.427 . S
C5452 H5443 0.930 . S
C5452 C5450 1.378 . S
C5452 C5453 1.367 . S
C5453 C5452 1.367 . S
C5453 C5455 1.433 . S
C5454 C5450 1.350 . S
C5454 C5451 1.463 . S
C5454 N5458 1.427 . S
C5455 H5445 0.929 . S
C5455 C5453 1.433 . S
C5455 N5458 1.384 . S
C5456 H5447 0.929 . S
C5456 C5448 1.378 . S
C5456 C5451 1.350 . S
C5457 H5444 0.929 . S
C5457 C5449 1.433 . S
C5457 N5459 1.384 . S
N5458 C5454 1.427 . S
N5458 C5455 1.384 . S
N5459 C5451 1.427 . S
N5459 C5457 1.384 . S
H5460 C5466 0.930 . S
H5461 C5470 0.930 . S
H5462 C5475 0.929 . S
H5463 C5473 0.929 . S
H5464 C5468 0.929 . S
H5465 C5474 0.929 . S
C5466 H5460 0.930 . S
C5466 C5467 1.367 . S
C5466 C5474 1.378 . S
C5467 C5466 1.367 . S
C5467 C5475 1.433 . S
C5468 H5464 0.929 . S
C5468 C5470 1.378 . S
C5468 C5472 1.350 . S
C5469 C5472 1.463 . S
C5469 C5474 1.350 . S
C5469 N5477 1.427 . S
C5470 H5461 0.930 . S
C5470 C5468 1.378 . S
C5470 C5471 1.367 . S
C5471 C5470 1.367 . S
C5471 C5473 1.433 . S
C5472 C5468 1.350 . S
C5472 C5469 1.463 . S
C5472 N5476 1.427 . S
C5473 H5463 0.929 . S
C5473 C5471 1.433 . S
C5473 N5476 1.384 . S
C5474 H5465 0.929 . S
C5474 C5466 1.378 . S
C5474 C5469 1.350 . S
C5475 H5462 0.929 . S
C5475 C5467 1.433 . S
C5475 N5477 1.384 . S
N5476 C5472 1.427 . S
N5476 C5473 1.384 . S
N5477 C5469 1.427 . S
N5477 C5475 1.384 . S
H5478 C5484 0.930 . S
H5479 C5488 0.930 . S
H5480 C5493 0.929 . S
H5481 C5491 0.929 . S
H5482 C5486 0.929 . S
H5483 C5492 0.929 . S
C5484 H5478 0.930 . S
C5484 C5485 1.367 . S
C5484 C5492 1.378 . S
C5485 C5484 1.367 . S
C5485 C5493 1.433 . S
C5486 H5482 0.929 . S
C5486 C5488 1.378 . S
C5486 C5490 1.350 . S
C5487 C5490 1.463 . S
C5487 C5492 1.350 . S
C5487 N5495 1.427 . S
C5488 H5479 0.930 . S
C5488 C5486 1.378 . S
C5488 C5489 1.367 . S
C5489 C5488 1.367 . S
C5489 C5491 1.433 . S
C5490 C5486 1.350 . S
C5490 C5487 1.463 . S
C5490 N5494 1.427 . S
C5491 H5481 0.929 . S
C5491 C5489 1.433 . S
C5491 N5494 1.384 . S
C5492 H5483 0.929 . S
C5492 C5484 1.378 . S
C5492 C5487 1.350 . S
C5493 H5480 0.929 . S
C5493 C5485 1.433 . S
C5493 N5495 1.384 . S
N5494 C5490 1.427 . S
N5494 C5491 1.384 . S
N5495 C5487 1.427 . S
N5495 C5493 1.384 . S
H5496 C5502 0.930 . S
H5497 C5506 0.930 . S
H5498 C5511 0.929 . S
H5499 C5509 0.929 . S
H5500 C5504 0.929 . S
H5501 C5510 0.929 . S
C5502 H5496 0.930 . S
C5502 C5503 1.367 . S
C5502 C5510 1.378 . S
C5503 C5502 1.367 . S
C5503 C5511 1.433 . S
C5504 H5500 0.929 . S
C5504 C5506 1.378 . S
C5504 C5508 1.350 . S
C5505 C5508 1.463 . S
C5505 C5510 1.350 . S
C5505 N5513 1.427 . S
C5506 H5497 0.930 . S
C5506 C5504 1.378 . S
C5506 C5507 1.367 . S
C5507 C5506 1.367 . S
C5507 C5509 1.433 . S
C5508 C5504 1.350 . S
C5508 C5505 1.463 . S
C5508 N5512 1.427 . S
C5509 H5499 0.929 . S
C5509 C5507 1.433 . S
C5509 N5512 1.384 . S
C5510 H5501 0.929 . S
C5510 C5502 1.378 . S
C5510 C5505 1.350 . S
C5511 H5498 0.929 . S
C5511 C5503 1.433 . S
C5511 N5513 1.384 . S
N5512 C5508 1.427 . S
N5512 C5509 1.384 . S
N5513 C5505 1.427 . S
N5513 C5511 1.384 . S
H5514 C5520 0.930 . S
H5515 C5524 0.930 . S
H5516 C5529 0.929 . S
H5517 C5527 0.929 . S
H5518 C5522 0.929 . S
H5519 C5528 0.929 . S
C5520 H5514 0.930 . S
C5520 C5521 1.367 . S
C5520 C5528 1.378 . S
C5521 C5520 1.367 . S
C5521 C5529 1.433 . S
C5522 H5518 0.929 . S
C5522 C5524 1.378 . S
C5522 C5526 1.350 . S
C5523 C5526 1.463 . S
C5523 C5528 1.350 . S
C5523 N5531 1.427 . S
C5524 H5515 0.930 . S
C5524 C5522 1.378 . S
C5524 C5525 1.367 . S
C5525 C5524 1.367 . S
C5525 C5527 1.433 . S
C5526 C5522 1.350 . S
C5526 C5523 1.463 . S
C5526 N5530 1.427 . S
C5527 H5517 0.929 . S
C5527 C5525 1.433 . S
C5527 N5530 1.384 . S
C5528 H5519 0.929 . S
C5528 C5520 1.378 . S
C5528 C5523 1.350 . S
C5529 H5516 0.929 . S
C5529 C5521 1.433 . S
C5529 N5531 1.384 . S
N5530 C5526 1.427 . S
N5530 C5527 1.384 . S
N5531 C5523 1.427 . S
N5531 C5529 1.384 . S
H5532 C5538 0.930 . S
H5533 C5542 0.930 . S
H5534 C5547 0.929 . S
H5535 C5545 0.929 . S
H5536 C5540 0.929 . S
H5537 C5546 0.929 . S
C5538 H5532 0.930 . S
C5538 C5539 1.367 . S
C5538 C5546 1.378 . S
C5539 C5538 1.367 . S
C5539 C5547 1.433 . S
C5540 H5536 0.929 . S
C5540 C5542 1.378 . S
C5540 C5544 1.350 . S
C5541 C5544 1.463 . S
C5541 C5546 1.350 . S
C5541 N5549 1.427 . S
C5542 H5533 0.930 . S
C5542 C5540 1.378 . S
C5542 C5543 1.367 . S
C5543 C5542 1.367 . S
C5543 C5545 1.433 . S
C5544 C5540 1.350 . S
C5544 C5541 1.463 . S
C5544 N5548 1.427 . S
C5545 H5535 0.929 . S
C5545 C5543 1.433 . S
C5545 N5548 1.384 . S
C5546 H5537 0.929 . S
C5546 C5538 1.378 . S
C5546 C5541 1.350 . S
C5547 H5534 0.929 . S
C5547 C5539 1.433 . S
C5547 N5549 1.384 . S
N5548 C5544 1.427 . S
N5548 C5545 1.384 . S
N5549 C5541 1.427 . S
N5549 C5547 1.384 . S
H5550 C5556 0.930 . S
H5551 C5560 0.930 . S
H5552 C5565 0.929 . S
H5553 C5563 0.929 . S
H5554 C5558 0.929 . S
H5555 C5564 0.929 . S
C5556 H5550 0.930 . S
C5556 C5557 1.367 . S
C5556 C5564 1.378 . S
C5557 C5556 1.367 . S
C5557 C5565 1.433 . S
C5558 H5554 0.929 . S
C5558 C5560 1.378 . S
C5558 C5562 1.350 . S
C5559 C5562 1.463 . S
C5559 C5564 1.350 . S
C5559 N5567 1.427 . S
C5560 H5551 0.930 . S
C5560 C5558 1.378 . S
C5560 C5561 1.367 . S
C5561 C5560 1.367 . S
C5561 C5563 1.433 . S
C5562 C5558 1.350 . S
C5562 C5559 1.463 . S
C5562 N5566 1.427 . S
C5563 H5553 0.929 . S
C5563 C5561 1.433 . S
C5563 N5566 1.384 . S
C5564 H5555 0.929 . S
C5564 C5556 1.378 . S
C5564 C5559 1.350 . S
C5565 H5552 0.929 . S
C5565 C5557 1.433 . S
C5565 N5567 1.384 . S
N5566 C5562 1.427 . S
N5566 C5563 1.384 . S
N5567 C5559 1.427 . S
N5567 C5565 1.384 . S
H5568 C5574 0.930 . S
H5569 C5578 0.930 . S
H5570 C5583 0.929 . S
H5571 C5581 0.929 . S
H5572 C5576 0.929 . S
H5573 C5582 0.929 . S
C5574 H5568 0.930 . S
C5574 C5575 1.367 . S
C5574 C5582 1.378 . S
C5575 C5574 1.367 . S
C5575 C5583 1.433 . S
C5576 H5572 0.929 . S
C5576 C5578 1.378 . S
C5576 C5580 1.350 . S
C5577 C5580 1.463 1_655 S
C5577 C5582 1.350 . S
C5577 N5585 1.427 . S
C5578 H5569 0.930 . S
C5578 C5576 1.378 . S
C5578 C5579 1.367 . S
C5579 C5578 1.367 . S
C5579 C5581 1.433 . S
C5580 C5576 1.350 . S
C5580 C5577 1.463 1_455 S
C5580 N5584 1.427 . S
C5581 H5571 0.929 . S
C5581 C5579 1.433 . S
C5581 N5584 1.384 . S
C5582 H5573 0.929 . S
C5582 C5574 1.378 . S
C5582 C5577 1.350 . S
C5583 H5570 0.929 . S
C5583 C5575 1.433 . S
C5583 N5585 1.384 . S
N5584 C5580 1.427 . S
N5584 C5581 1.384 . S
N5585 C5577 1.427 . S
N5585 C5583 1.384 . S
H5586 C5592 0.930 . S
H5587 C5596 0.930 . S
H5588 C5601 0.929 . S
H5589 C5599 0.929 . S
H5590 C5594 0.929 . S
H5591 C5600 0.929 . S
C5592 H5586 0.930 . S
C5592 C5593 1.367 . S
C5592 C5600 1.378 . S
C5593 C5592 1.367 . S
C5593 C5601 1.433 . S
C5594 H5590 0.929 . S
C5594 C5596 1.378 . S
C5594 C5598 1.350 . S
C5595 C5598 1.463 1_565 S
C5595 C5600 1.350 . S
C5595 N5603 1.427 . S
C5596 H5587 0.930 . S
C5596 C5594 1.378 . S
C5596 C5597 1.367 . S
C5597 C5596 1.367 . S
C5597 C5599 1.433 . S
C5598 C5594 1.350 . S
C5598 C5595 1.463 1_545 S
C5598 N5602 1.427 . S
C5599 H5589 0.929 . S
C5599 C5597 1.433 . S
C5599 N5602 1.384 . S
C5600 H5591 0.929 . S
C5600 C5592 1.378 . S
C5600 C5595 1.350 . S
C5601 H5588 0.929 . S
C5601 C5593 1.433 . S
C5601 N5603 1.384 . S
N5602 C5598 1.427 . S
N5602 C5599 1.384 . S
N5603 C5595 1.427 . S
N5603 C5601 1.384 . S
H5604 C5610 0.930 . S
H5605 C5614 0.930 . S
H5606 C5619 0.929 . S
H5607 C5617 0.929 . S
H5608 C5612 0.929 . S
H5609 C5618 0.929 . S
C5610 H5604 0.930 . S
C5610 C5611 1.367 . S
C5610 C5618 1.378 . S
C5611 C5610 1.367 . S
C5611 C5619 1.433 . S
C5612 H5608 0.929 . S
C5612 C5614 1.378 . S
C5612 C5616 1.350 . S
C5613 C5616 1.463 1_455 S
C5613 C5618 1.350 . S
C5613 N5621 1.427 . S
C5614 H5605 0.930 . S
C5614 C5612 1.378 . S
C5614 C5615 1.367 . S
C5615 C5614 1.367 . S
C5615 C5617 1.433 . S
C5616 C5612 1.350 . S
C5616 C5613 1.463 1_655 S
C5616 N5620 1.427 . S
C5617 H5607 0.929 . S
C5617 C5615 1.433 . S
C5617 N5620 1.384 . S
C5618 H5609 0.929 . S
C5618 C5610 1.378 . S
C5618 C5613 1.350 . S
C5619 H5606 0.929 . S
C5619 C5611 1.433 . S
C5619 N5621 1.384 . S
N5620 C5616 1.427 . S
N5620 C5617 1.384 . S
N5621 C5613 1.427 . S
N5621 C5619 1.384 . S
H5622 C5628 0.930 . S
H5623 C5632 0.930 . S
H5624 C5637 0.929 . S
H5625 C5635 0.929 . S
H5626 C5630 0.929 . S
H5627 C5636 0.929 . S
C5628 H5622 0.930 . S
C5628 C5629 1.367 . S
C5628 C5636 1.378 . S
C5629 C5628 1.367 . S
C5629 C5637 1.433 . S
C5630 H5626 0.929 . S
C5630 C5632 1.378 . S
C5630 C5634 1.350 . S
C5631 C5634 1.463 1_545 S
C5631 C5636 1.350 . S
C5631 N5639 1.427 . S
C5632 H5623 0.930 . S
C5632 C5630 1.378 . S
C5632 C5633 1.367 . S
C5633 C5632 1.367 . S
C5633 C5635 1.433 . S
C5634 C5630 1.350 . S
C5634 C5631 1.463 1_565 S
C5634 N5638 1.427 . S
C5635 H5625 0.929 . S
C5635 C5633 1.433 . S
C5635 N5638 1.384 . S
C5636 H5627 0.929 . S
C5636 C5628 1.378 . S
C5636 C5631 1.350 . S
C5637 H5624 0.929 . S
C5637 C5629 1.433 . S
C5637 N5639 1.384 . S
N5638 C5634 1.427 . S
N5638 C5635 1.384 . S
N5639 C5631 1.427 . S
N5639 C5637 1.384 . S
H5640 C5646 0.930 . S
H5641 C5650 0.930 . S
H5642 C5655 0.929 . S
H5643 C5653 0.929 . S
H5644 C5648 0.929 . S
H5645 C5654 0.929 . S
C5646 H5640 0.930 . S
C5646 C5647 1.367 . S
C5646 C5654 1.378 . S
C5647 C5646 1.367 . S
C5647 C5655 1.433 . S
C5648 H5644 0.929 . S
C5648 C5650 1.378 . S
C5648 C5652 1.350 . S
C5649 C5652 1.463 1_655 S
C5649 C5654 1.350 . S
C5649 N5657 1.427 . S
C5650 H5641 0.930 . S
C5650 C5648 1.378 . S
C5650 C5651 1.367 . S
C5651 C5650 1.367 . S
C5651 C5653 1.433 . S
C5652 C5648 1.350 . S
C5652 C5649 1.463 1_455 S
C5652 N5656 1.427 . S
C5653 H5643 0.929 . S
C5653 C5651 1.433 . S
C5653 N5656 1.384 . S
C5654 H5645 0.929 . S
C5654 C5646 1.378 . S
C5654 C5649 1.350 . S
C5655 H5642 0.929 . S
C5655 C5647 1.433 . S
C5655 N5657 1.384 . S
N5656 C5652 1.427 . S
N5656 C5653 1.384 . S
N5657 C5649 1.427 . S
N5657 C5655 1.384 . S
H5658 C5664 0.930 . S
H5659 C5668 0.930 . S
H5660 C5673 0.929 . S
H5661 C5671 0.929 . S
H5662 C5666 0.929 . S
H5663 C5672 0.929 . S
C5664 H5658 0.930 . S
C5664 C5665 1.367 . S
C5664 C5672 1.378 . S
C5665 C5664 1.367 . S
C5665 C5673 1.433 . S
C5666 H5662 0.929 . S
C5666 C5668 1.378 . S
C5666 C5670 1.350 . S
C5667 C5670 1.463 1_545 S
C5667 C5672 1.350 . S
C5667 N5675 1.427 . S
C5668 H5659 0.930 . S
C5668 C5666 1.378 . S
C5668 C5669 1.367 . S
C5669 C5668 1.367 . S
C5669 C5671 1.433 . S
C5670 C5666 1.350 . S
C5670 C5667 1.463 1_565 S
C5670 N5674 1.427 . S
C5671 H5661 0.929 . S
C5671 C5669 1.433 . S
C5671 N5674 1.384 . S
C5672 H5663 0.929 . S
C5672 C5664 1.378 . S
C5672 C5667 1.350 . S
C5673 H5660 0.929 . S
C5673 C5665 1.433 . S
C5673 N5675 1.384 . S
N5674 C5670 1.427 . S
N5674 C5671 1.384 . S
N5675 C5667 1.427 . S
N5675 C5673 1.384 . S
H5676 C5682 0.930 . S
H5677 C5686 0.930 . S
H5678 C5691 0.929 . S
H5679 C5689 0.929 . S
H5680 C5684 0.929 . S
H5681 C5690 0.929 . S
C5682 H5676 0.930 . S
C5682 C5683 1.367 . S
C5682 C5690 1.378 . S
C5683 C5682 1.367 . S
C5683 C5691 1.433 . S
C5684 H5680 0.929 . S
C5684 C5686 1.378 . S
C5684 C5688 1.350 . S
C5685 C5688 1.463 1_655 S
C5685 C5690 1.350 . S
C5685 N5693 1.427 . S
C5686 H5677 0.930 . S
C5686 C5684 1.378 . S
C5686 C5687 1.367 . S
C5687 C5686 1.367 . S
C5687 C5689 1.433 . S
C5688 C5684 1.350 . S
C5688 C5685 1.463 1_455 S
C5688 N5692 1.427 . S
C5689 H5679 0.929 . S
C5689 C5687 1.433 . S
C5689 N5692 1.384 . S
C5690 H5681 0.929 . S
C5690 C5682 1.378 . S
C5690 C5685 1.350 . S
C5691 H5678 0.929 . S
C5691 C5683 1.433 . S
C5691 N5693 1.384 . S
N5692 C5688 1.427 . S
N5692 C5689 1.384 . S
N5693 C5685 1.427 . S
N5693 C5691 1.384 . S
H5694 C5700 0.930 . S
H5695 C5704 0.930 . S
H5696 C5709 0.929 . S
H5697 C5707 0.929 . S
H5698 C5702 0.929 . S
H5699 C5708 0.929 . S
C5700 H5694 0.930 . S
C5700 C5701 1.367 . S
C5700 C5708 1.378 . S
C5701 C5700 1.367 . S
C5701 C5709 1.433 . S
C5702 H5698 0.929 . S
C5702 C5704 1.378 . S
C5702 C5706 1.350 . S
C5703 C5706 1.463 1_545 S
C5703 C5708 1.350 . S
C5703 N5711 1.427 . S
C5704 H5695 0.930 . S
C5704 C5702 1.378 . S
C5704 C5705 1.367 . S
C5705 C5704 1.367 . S
C5705 C5707 1.433 . S
C5706 C5702 1.350 . S
C5706 C5703 1.463 1_565 S
C5706 N5710 1.427 . S
C5707 H5697 0.929 . S
C5707 C5705 1.433 . S
C5707 N5710 1.384 . S
C5708 H5699 0.929 . S
C5708 C5700 1.378 . S
C5708 C5703 1.350 . S
C5709 H5696 0.929 . S
C5709 C5701 1.433 . S
C5709 N5711 1.384 . S
N5710 C5706 1.427 . S
N5710 C5707 1.384 . S
N5711 C5703 1.427 . S
N5711 C5709 1.384 . S
H5712 C5718 0.930 . S
H5713 C5722 0.930 . S
H5714 C5727 0.929 . S
H5715 C5725 0.929 . S
H5716 C5720 0.929 . S
H5717 C5726 0.929 . S
C5718 H5712 0.930 . S
C5718 C5719 1.367 . S
C5718 C5726 1.378 . S
C5719 C5718 1.367 . S
C5719 C5727 1.433 . S
C5720 H5716 0.929 . S
C5720 C5722 1.378 . S
C5720 C5724 1.350 . S
C5721 C5724 1.463 1_565 S
C5721 C5726 1.350 . S
C5721 N5729 1.427 . S
C5722 H5713 0.930 . S
C5722 C5720 1.378 . S
C5722 C5723 1.367 . S
C5723 C5722 1.367 . S
C5723 C5725 1.433 . S
C5724 C5720 1.350 . S
C5724 C5721 1.463 1_545 S
C5724 N5728 1.427 . S
C5725 H5715 0.929 . S
C5725 C5723 1.433 . S
C5725 N5728 1.384 . S
C5726 H5717 0.929 . S
C5726 C5718 1.378 . S
C5726 C5721 1.350 . S
C5727 H5714 0.929 . S
C5727 C5719 1.433 . S
C5727 N5729 1.384 . S
N5728 C5724 1.427 . S
N5728 C5725 1.384 . S
N5729 C5721 1.427 . S
N5729 C5727 1.384 . S
H5730 C5736 0.930 . S
H5731 C5740 0.930 . S
H5732 C5745 0.929 . S
H5733 C5743 0.929 . S
H5734 C5738 0.929 . S
H5735 C5744 0.929 . S
C5736 H5730 0.930 . S
C5736 C5737 1.367 . S
C5736 C5744 1.378 . S
C5737 C5736 1.367 . S
C5737 C5745 1.433 . S
C5738 H5734 0.929 . S
C5738 C5740 1.378 . S
C5738 C5742 1.350 . S
C5739 C5742 1.463 1_655 S
C5739 C5744 1.350 . S
C5739 N5747 1.427 . S
C5740 H5731 0.930 . S
C5740 C5738 1.378 . S
C5740 C5741 1.367 . S
C5741 C5740 1.367 . S
C5741 C5743 1.433 . S
C5742 C5738 1.350 . S
C5742 C5739 1.463 1_455 S
C5742 N5746 1.427 . S
C5743 H5733 0.929 . S
C5743 C5741 1.433 . S
C5743 N5746 1.384 . S
C5744 H5735 0.929 . S
C5744 C5736 1.378 . S
C5744 C5739 1.350 . S
C5745 H5732 0.929 . S
C5745 C5737 1.433 . S
C5745 N5747 1.384 . S
N5746 C5742 1.427 . S
N5746 C5743 1.384 . S
N5747 C5739 1.427 . S
N5747 C5745 1.384 . S
H5748 C5754 0.930 . S
H5749 C5758 0.930 . S
H5750 C5763 0.929 . S
H5751 C5761 0.929 . S
H5752 C5756 0.929 . S
H5753 C5762 0.929 . S
C5754 H5748 0.930 . S
C5754 C5755 1.367 . S
C5754 C5762 1.378 . S
C5755 C5754 1.367 . S
C5755 C5763 1.433 . S
C5756 H5752 0.929 . S
C5756 C5758 1.378 . S
C5756 C5760 1.350 . S
C5757 C5760 1.463 1_565 S
C5757 C5762 1.350 . S
C5757 N5765 1.427 . S
C5758 H5749 0.930 . S
C5758 C5756 1.378 . S
C5758 C5759 1.367 . S
C5759 C5758 1.367 . S
C5759 C5761 1.433 . S
C5760 C5756 1.350 . S
C5760 C5757 1.463 1_545 S
C5760 N5764 1.427 . S
C5761 H5751 0.929 . S
C5761 C5759 1.433 . S
C5761 N5764 1.384 . S
C5762 H5753 0.929 . S
C5762 C5754 1.378 . S
C5762 C5757 1.350 . S
C5763 H5750 0.929 . S
C5763 C5755 1.433 . S
C5763 N5765 1.384 . S
N5764 C5760 1.427 . S
N5764 C5761 1.384 . S
N5765 C5757 1.427 . S
N5765 C5763 1.384 . S
H5766 C5772 0.930 . S
H5767 C5776 0.930 . S
H5768 C5781 0.929 . S
H5769 C5779 0.929 . S
H5770 C5774 0.929 . S
H5771 C5780 0.929 . S
C5772 H5766 0.930 . S
C5772 C5773 1.367 . S
C5772 C5780 1.378 . S
C5773 C5772 1.367 . S
C5773 C5781 1.433 . S
C5774 H5770 0.929 . S
C5774 C5776 1.378 . S
C5774 C5778 1.350 . S
C5775 C5778 1.463 1_655 S
C5775 C5780 1.350 . S
C5775 N5783 1.427 . S
C5776 H5767 0.930 . S
C5776 C5774 1.378 . S
C5776 C5777 1.367 . S
C5777 C5776 1.367 . S
C5777 C5779 1.433 . S
C5778 C5774 1.350 . S
C5778 C5775 1.463 1_455 S
C5778 N5782 1.427 . S
C5779 H5769 0.929 . S
C5779 C5777 1.433 . S
C5779 N5782 1.384 . S
C5780 H5771 0.929 . S
C5780 C5772 1.378 . S
C5780 C5775 1.350 . S
C5781 H5768 0.929 . S
C5781 C5773 1.433 . S
C5781 N5783 1.384 . S
N5782 C5778 1.427 . S
N5782 C5779 1.384 . S
N5783 C5775 1.427 . S
N5783 C5781 1.384 . S
H5784 C5790 0.930 . S
H5785 C5794 0.930 . S
H5786 C5799 0.929 . S
H5787 C5797 0.929 . S
H5788 C5792 0.929 . S
H5789 C5798 0.929 . S
C5790 H5784 0.930 . S
C5790 C5791 1.367 . S
C5790 C5798 1.378 . S
C5791 C5790 1.367 . S
C5791 C5799 1.433 . S
C5792 H5788 0.929 . S
C5792 C5794 1.378 . S
C5792 C5796 1.350 . S
C5793 C5796 1.463 1_565 S
C5793 C5798 1.350 . S
C5793 N5801 1.427 . S
C5794 H5785 0.930 . S
C5794 C5792 1.378 . S
C5794 C5795 1.367 . S
C5795 C5794 1.367 . S
C5795 C5797 1.433 . S
C5796 C5792 1.350 . S
C5796 C5793 1.463 1_545 S
C5796 N5800 1.427 . S
C5797 H5787 0.929 . S
C5797 C5795 1.433 . S
C5797 N5800 1.384 . S
C5798 H5789 0.929 . S
C5798 C5790 1.378 . S
C5798 C5793 1.350 . S
C5799 H5786 0.929 . S
C5799 C5791 1.433 . S
C5799 N5801 1.384 . S
N5800 C5796 1.427 . S
N5800 C5797 1.384 . S
N5801 C5793 1.427 . S
N5801 C5799 1.384 . S
H5802 C5808 0.930 . S
H5803 C5812 0.930 . S
H5804 C5817 0.929 . S
H5805 C5815 0.929 . S
H5806 C5810 0.929 . S
H5807 C5816 0.929 . S
C5808 H5802 0.930 . S
C5808 C5809 1.367 . S
C5808 C5816 1.378 . S
C5809 C5808 1.367 . S
C5809 C5817 1.433 . S
C5810 H5806 0.929 . S
C5810 C5812 1.378 . S
C5810 C5814 1.350 . S
C5811 C5814 1.463 1_455 S
C5811 C5816 1.350 . S
C5811 N5819 1.427 . S
C5812 H5803 0.930 . S
C5812 C5810 1.378 . S
C5812 C5813 1.367 . S
C5813 C5812 1.367 . S
C5813 C5815 1.433 . S
C5814 C5810 1.350 . S
C5814 C5811 1.463 1_655 S
C5814 N5818 1.427 . S
C5815 H5805 0.929 . S
C5815 C5813 1.433 . S
C5815 N5818 1.384 . S
C5816 H5807 0.929 . S
C5816 C5808 1.378 . S
C5816 C5811 1.350 . S
C5817 H5804 0.929 . S
C5817 C5809 1.433 . S
C5817 N5819 1.384 . S
N5818 C5814 1.427 . S
N5818 C5815 1.384 . S
N5819 C5811 1.427 . S
N5819 C5817 1.384 . S
H5820 C5826 0.930 . S
H5821 C5830 0.930 . S
H5822 C5835 0.929 . S
H5823 C5833 0.929 . S
H5824 C5828 0.929 . S
H5825 C5834 0.929 . S
C5826 H5820 0.930 . S
C5826 C5827 1.367 . S
C5826 C5834 1.378 . S
C5827 C5826 1.367 . S
C5827 C5835 1.433 . S
C5828 H5824 0.929 . S
C5828 C5830 1.378 . S
C5828 C5832 1.350 . S
C5829 C5832 1.463 1_545 S
C5829 C5834 1.350 . S
C5829 N5837 1.427 . S
C5830 H5821 0.930 . S
C5830 C5828 1.378 . S
C5830 C5831 1.367 . S
C5831 C5830 1.367 . S
C5831 C5833 1.433 . S
C5832 C5828 1.350 . S
C5832 C5829 1.463 1_565 S
C5832 N5836 1.427 . S
C5833 H5823 0.929 . S
C5833 C5831 1.433 . S
C5833 N5836 1.384 . S
C5834 H5825 0.929 . S
C5834 C5826 1.378 . S
C5834 C5829 1.350 . S
C5835 H5822 0.929 . S
C5835 C5827 1.433 . S
C5835 N5837 1.384 . S
N5836 C5832 1.427 . S
N5836 C5833 1.384 . S
N5837 C5829 1.427 . S
N5837 C5835 1.384 . S
H5838 C5844 0.930 . S
H5839 C5848 0.930 . S
H5840 C5853 0.929 . S
H5841 C5851 0.929 . S
H5842 C5846 0.929 . S
H5843 C5852 0.929 . S
C5844 H5838 0.930 . S
C5844 C5845 1.367 . S
C5844 C5852 1.378 . S
C5845 C5844 1.367 . S
C5845 C5853 1.433 . S
C5846 H5842 0.929 . S
C5846 C5848 1.378 . S
C5846 C5850 1.350 . S
C5847 C5850 1.463 1_455 S
C5847 C5852 1.350 . S
C5847 N5855 1.427 . S
C5848 H5839 0.930 . S
C5848 C5846 1.378 . S
C5848 C5849 1.367 . S
C5849 C5848 1.367 . S
C5849 C5851 1.433 . S
C5850 C5846 1.350 . S
C5850 C5847 1.463 1_655 S
C5850 N5854 1.427 . S
C5851 H5841 0.929 . S
C5851 C5849 1.433 . S
C5851 N5854 1.384 . S
C5852 H5843 0.929 . S
C5852 C5844 1.378 . S
C5852 C5847 1.350 . S
C5853 H5840 0.929 . S
C5853 C5845 1.433 . S
C5853 N5855 1.384 . S
N5854 C5850 1.427 . S
N5854 C5851 1.384 . S
N5855 C5847 1.427 . S
N5855 C5853 1.384 . S
H5856 C5862 0.930 . S
H5857 C5866 0.930 . S
H5858 C5871 0.929 . S
H5859 C5869 0.929 . S
H5860 C5864 0.929 . S
H5861 C5870 0.929 . S
C5862 H5856 0.930 . S
C5862 C5863 1.367 . S
C5862 C5870 1.378 . S
C5863 C5862 1.367 . S
C5863 C5871 1.433 . S
C5864 H5860 0.929 . S
C5864 C5866 1.378 . S
C5864 C5868 1.350 . S
C5865 C5868 1.463 1_556 S
C5865 C5870 1.350 . S
C5865 N5873 1.427 . S
C5866 H5857 0.930 . S
C5866 C5864 1.378 . S
C5866 C5867 1.367 . S
C5867 C5866 1.367 . S
C5867 C5869 1.433 . S
C5868 C5864 1.350 . S
C5868 C5865 1.463 1_554 S
C5868 N5872 1.427 . S
C5869 H5859 0.929 . S
C5869 C5867 1.433 . S
C5869 N5872 1.384 . S
C5870 H5861 0.929 . S
C5870 C5862 1.378 . S
C5870 C5865 1.350 . S
C5871 H5858 0.929 . S
C5871 C5863 1.433 . S
C5871 N5873 1.384 . S
N5872 C5868 1.427 . S
N5872 C5869 1.384 . S
N5873 C5865 1.427 . S
N5873 C5871 1.384 . S
H5874 C5880 0.930 . S
H5875 C5884 0.930 . S
H5876 C5889 0.929 . S
H5877 C5887 0.929 . S
H5878 C5882 0.929 . S
H5879 C5888 0.929 . S
C5880 H5874 0.930 . S
C5880 C5881 1.367 . S
C5880 C5888 1.378 . S
C5881 C5880 1.367 . S
C5881 C5889 1.433 . S
C5882 H5878 0.929 . S
C5882 C5884 1.378 . S
C5882 C5886 1.350 . S
C5883 C5886 1.463 1_554 S
C5883 C5888 1.350 . S
C5883 N5891 1.427 . S
C5884 H5875 0.930 . S
C5884 C5882 1.378 . S
C5884 C5885 1.367 . S
C5885 C5884 1.367 . S
C5885 C5887 1.433 . S
C5886 C5882 1.350 . S
C5886 C5883 1.463 1_556 S
C5886 N5890 1.427 . S
C5887 H5877 0.929 . S
C5887 C5885 1.433 . S
C5887 N5890 1.384 . S
C5888 H5879 0.929 . S
C5888 C5880 1.378 . S
C5888 C5883 1.350 . S
C5889 H5876 0.929 . S
C5889 C5881 1.433 . S
C5889 N5891 1.384 . S
N5890 C5886 1.427 . S
N5890 C5887 1.384 . S
N5891 C5883 1.427 . S
N5891 C5889 1.384 . S
H5892 C5898 0.930 . S
H5893 C5902 0.930 . S
H5894 C5907 0.929 . S
H5895 C5905 0.929 . S
H5896 C5900 0.929 . S
H5897 C5906 0.929 . S
C5898 H5892 0.930 . S
C5898 C5899 1.367 . S
C5898 C5906 1.378 . S
C5899 C5898 1.367 . S
C5899 C5907 1.433 . S
C5900 H5896 0.929 . S
C5900 C5902 1.378 . S
C5900 C5904 1.350 . S
C5901 C5904 1.463 1_554 S
C5901 C5906 1.350 . S
C5901 N5909 1.427 . S
C5902 H5893 0.930 . S
C5902 C5900 1.378 . S
C5902 C5903 1.367 . S
C5903 C5902 1.367 . S
C5903 C5905 1.433 . S
C5904 C5900 1.350 . S
C5904 C5901 1.463 1_556 S
C5904 N5908 1.427 . S
C5905 H5895 0.929 . S
C5905 C5903 1.433 . S
C5905 N5908 1.384 . S
C5906 H5897 0.929 . S
C5906 C5898 1.378 . S
C5906 C5901 1.350 . S
C5907 H5894 0.929 . S
C5907 C5899 1.433 . S
C5907 N5909 1.384 . S
N5908 C5904 1.427 . S
N5908 C5905 1.384 . S
N5909 C5901 1.427 . S
N5909 C5907 1.384 . S
H5910 C5916 0.930 . S
H5911 C5920 0.930 . S
H5912 C5925 0.929 . S
H5913 C5923 0.929 . S
H5914 C5918 0.929 . S
H5915 C5924 0.929 . S
C5916 H5910 0.930 . S
C5916 C5917 1.367 . S
C5916 C5924 1.378 . S
C5917 C5916 1.367 . S
C5917 C5925 1.433 . S
C5918 H5914 0.929 . S
C5918 C5920 1.378 . S
C5918 C5922 1.350 . S
C5919 C5922 1.463 1_554 S
C5919 C5924 1.350 . S
C5919 N5927 1.427 . S
C5920 H5911 0.930 . S
C5920 C5918 1.378 . S
C5920 C5921 1.367 . S
C5921 C5920 1.367 . S
C5921 C5923 1.433 . S
C5922 C5918 1.350 . S
C5922 C5919 1.463 1_556 S
C5922 N5926 1.427 . S
C5923 H5913 0.929 . S
C5923 C5921 1.433 . S
C5923 N5926 1.384 . S
C5924 H5915 0.929 . S
C5924 C5916 1.378 . S
C5924 C5919 1.350 . S
C5925 H5912 0.929 . S
C5925 C5917 1.433 . S
C5925 N5927 1.384 . S
N5926 C5922 1.427 . S
N5926 C5923 1.384 . S
N5927 C5919 1.427 . S
N5927 C5925 1.384 . S
H5928 C5934 0.930 . S
H5929 C5938 0.930 . S
H5930 C5943 0.929 . S
H5931 C5941 0.929 . S
H5932 C5936 0.929 . S
H5933 C5942 0.929 . S
C5934 H5928 0.930 . S
C5934 C5935 1.367 . S
C5934 C5942 1.378 . S
C5935 C5934 1.367 . S
C5935 C5943 1.433 . S
C5936 H5932 0.929 . S
C5936 C5938 1.378 . S
C5936 C5940 1.350 . S
C5937 C5940 1.463 1_556 S
C5937 C5942 1.350 . S
C5937 N5945 1.427 . S
C5938 H5929 0.930 . S
C5938 C5936 1.378 . S
C5938 C5939 1.367 . S
C5939 C5938 1.367 . S
C5939 C5941 1.433 . S
C5940 C5936 1.350 . S
C5940 C5937 1.463 1_554 S
C5940 N5944 1.427 . S
C5941 H5931 0.929 . S
C5941 C5939 1.433 . S
C5941 N5944 1.384 . S
C5942 H5933 0.929 . S
C5942 C5934 1.378 . S
C5942 C5937 1.350 . S
C5943 H5930 0.929 . S
C5943 C5935 1.433 . S
C5943 N5945 1.384 . S
N5944 C5940 1.427 . S
N5944 C5941 1.384 . S
N5945 C5937 1.427 . S
N5945 C5943 1.384 . S
H5946 C5952 0.930 . S
H5947 C5956 0.930 . S
H5948 C5961 0.929 . S
H5949 C5959 0.929 . S
H5950 C5954 0.929 . S
H5951 C5960 0.929 . S
C5952 H5946 0.930 . S
C5952 C5953 1.367 . S
C5952 C5960 1.378 . S
C5953 C5952 1.367 . S
C5953 C5961 1.433 . S
C5954 H5950 0.929 . S
C5954 C5956 1.378 . S
C5954 C5958 1.350 . S
C5955 C5958 1.463 1_556 S
C5955 C5960 1.350 . S
C5955 N5963 1.427 . S
C5956 H5947 0.930 . S
C5956 C5954 1.378 . S
C5956 C5957 1.367 . S
C5957 C5956 1.367 . S
C5957 C5959 1.433 . S
C5958 C5954 1.350 . S
C5958 C5955 1.463 1_554 S
C5958 N5962 1.427 . S
C5959 H5949 0.929 . S
C5959 C5957 1.433 . S
C5959 N5962 1.384 . S
C5960 H5951 0.929 . S
C5960 C5952 1.378 . S
C5960 C5955 1.350 . S
C5961 H5948 0.929 . S
C5961 C5953 1.433 . S
C5961 N5963 1.384 . S
N5962 C5958 1.427 . S
N5962 C5959 1.384 . S
N5963 C5955 1.427 . S
N5963 C5961 1.384 . S
H5964 C5970 0.930 . S
H5965 C5974 0.930 . S
H5966 C5979 0.929 . S
H5967 C5977 0.929 . S
H5968 C5972 0.929 . S
H5969 C5978 0.929 . S
C5970 H5964 0.930 . S
C5970 C5971 1.367 . S
C5970 C5978 1.378 . S
C5971 C5970 1.367 . S
C5971 C5979 1.433 . S
C5972 H5968 0.929 . S
C5972 C5974 1.378 . S
C5972 C5976 1.350 . S
C5973 C5976 1.463 1_556 S
C5973 C5978 1.350 . S
C5973 N5981 1.427 . S
C5974 H5965 0.930 . S
C5974 C5972 1.378 . S
C5974 C5975 1.367 . S
C5975 C5974 1.367 . S
C5975 C5977 1.433 . S
C5976 C5972 1.350 . S
C5976 C5973 1.463 1_554 S
C5976 N5980 1.427 . S
C5977 H5967 0.929 . S
C5977 C5975 1.433 . S
C5977 N5980 1.384 . S
C5978 H5969 0.929 . S
C5978 C5970 1.378 . S
C5978 C5973 1.350 . S
C5979 H5966 0.929 . S
C5979 C5971 1.433 . S
C5979 N5981 1.384 . S
N5980 C5976 1.427 . S
N5980 C5977 1.384 . S
N5981 C5973 1.427 . S
N5981 C5979 1.384 . S
H5982 C5988 0.930 . S
H5983 C5992 0.930 . S
H5984 C5997 0.929 . S
H5985 C5995 0.929 . S
H5986 C5990 0.929 . S
H5987 C5996 0.929 . S
C5988 H5982 0.930 . S
C5988 C5989 1.367 . S
C5988 C5996 1.378 . S
C5989 C5988 1.367 . S
C5989 C5997 1.433 . S
C5990 H5986 0.929 . S
C5990 C5992 1.378 . S
C5990 C5994 1.350 . S
C5991 C5994 1.463 1_556 S
C5991 C5996 1.350 . S
C5991 N5999 1.427 . S
C5992 H5983 0.930 . S
C5992 C5990 1.378 . S
C5992 C5993 1.367 . S
C5993 C5992 1.367 . S
C5993 C5995 1.433 . S
C5994 C5990 1.350 . S
C5994 C5991 1.463 1_554 S
C5994 N5998 1.427 . S
C5995 H5985 0.929 . S
C5995 C5993 1.433 . S
C5995 N5998 1.384 . S
C5996 H5987 0.929 . S
C5996 C5988 1.378 . S
C5996 C5991 1.350 . S
C5997 H5984 0.929 . S
C5997 C5989 1.433 . S
C5997 N5999 1.384 . S
N5998 C5994 1.427 . S
N5998 C5995 1.384 . S
N5999 C5991 1.427 . S
N5999 C5997 1.384 . S
H6000 C6006 0.930 . S
H6001 C6010 0.930 . S
H6002 C6015 0.929 . S
H6003 C6013 0.929 . S
H6004 C6008 0.929 . S
H6005 C6014 0.929 . S
C6006 H6000 0.930 . S
C6006 C6007 1.367 . S
C6006 C6014 1.378 . S
C6007 C6006 1.367 . S
C6007 C6015 1.433 . S
C6008 H6004 0.929 . S
C6008 C6010 1.378 . S
C6008 C6012 1.350 . S
C6009 C6012 1.463 . S
C6009 C6014 1.350 . S
C6009 N6017 1.427 . S
C6010 H6001 0.930 . S
C6010 C6008 1.378 . S
C6010 C6011 1.367 . S
C6011 C6010 1.367 . S
C6011 C6013 1.433 . S
C6012 C6008 1.350 . S
C6012 C6009 1.463 . S
C6012 N6016 1.427 . S
C6013 H6003 0.929 . S
C6013 C6011 1.433 . S
C6013 N6016 1.384 . S
C6014 H6005 0.929 . S
C6014 C6006 1.378 . S
C6014 C6009 1.350 . S
C6015 H6002 0.929 . S
C6015 C6007 1.433 . S
C6015 N6017 1.384 . S
N6016 C6012 1.427 . S
N6016 C6013 1.384 . S
N6017 C6009 1.427 . S
N6017 C6015 1.384 . S
H6018 C6024 0.930 . S
H6019 C6028 0.930 . S
H6020 C6033 0.929 . S
H6021 C6031 0.929 . S
H6022 C6026 0.929 . S
H6023 C6032 0.929 . S
C6024 H6018 0.930 . S
C6024 C6025 1.367 . S
C6024 C6032 1.378 . S
C6025 C6024 1.367 . S
C6025 C6033 1.433 . S
C6026 H6022 0.929 . S
C6026 C6028 1.378 . S
C6026 C6030 1.350 . S
C6027 C6030 1.463 . S
C6027 C6032 1.350 . S
C6027 N6035 1.427 . S
C6028 H6019 0.930 . S
C6028 C6026 1.378 . S
C6028 C6029 1.367 . S
C6029 C6028 1.367 . S
C6029 C6031 1.433 . S
C6030 C6026 1.350 . S
C6030 C6027 1.463 . S
C6030 N6034 1.427 . S
C6031 H6021 0.929 . S
C6031 C6029 1.433 . S
C6031 N6034 1.384 . S
C6032 H6023 0.929 . S
C6032 C6024 1.378 . S
C6032 C6027 1.350 . S
C6033 H6020 0.929 . S
C6033 C6025 1.433 . S
C6033 N6035 1.384 . S
N6034 C6030 1.427 . S
N6034 C6031 1.384 . S
N6035 C6027 1.427 . S
N6035 C6033 1.384 . S
H6036 C6042 0.930 . S
H6037 C6046 0.930 . S
H6038 C6051 0.929 . S
H6039 C6049 0.929 . S
H6040 C6044 0.929 . S
H6041 C6050 0.929 . S
C6042 H6036 0.930 . S
C6042 C6043 1.367 . S
C6042 C6050 1.378 . S
C6043 C6042 1.367 . S
C6043 C6051 1.433 . S
C6044 H6040 0.929 . S
C6044 C6046 1.378 . S
C6044 C6048 1.350 . S
C6045 C6048 1.463 . S
C6045 C6050 1.350 . S
C6045 N6053 1.427 . S
C6046 H6037 0.930 . S
C6046 C6044 1.378 . S
C6046 C6047 1.367 . S
C6047 C6046 1.367 . S
C6047 C6049 1.433 . S
C6048 C6044 1.350 . S
C6048 C6045 1.463 . S
C6048 N6052 1.427 . S
C6049 H6039 0.929 . S
C6049 C6047 1.433 . S
C6049 N6052 1.384 . S
C6050 H6041 0.929 . S
C6050 C6042 1.378 . S
C6050 C6045 1.350 . S
C6051 H6038 0.929 . S
C6051 C6043 1.433 . S
C6051 N6053 1.384 . S
N6052 C6048 1.427 . S
N6052 C6049 1.384 . S
N6053 C6045 1.427 . S
N6053 C6051 1.384 . S
H6054 C6060 0.930 . S
H6055 C6064 0.930 . S
H6056 C6069 0.929 . S
H6057 C6067 0.929 . S
H6058 C6062 0.929 . S
H6059 C6068 0.929 . S
C6060 H6054 0.930 . S
C6060 C6061 1.367 . S
C6060 C6068 1.378 . S
C6061 C6060 1.367 . S
C6061 C6069 1.433 . S
C6062 H6058 0.929 . S
C6062 C6064 1.378 . S
C6062 C6066 1.350 . S
C6063 C6066 1.463 . S
C6063 C6068 1.350 . S
C6063 N6071 1.427 . S
C6064 H6055 0.930 . S
C6064 C6062 1.378 . S
C6064 C6065 1.367 . S
C6065 C6064 1.367 . S
C6065 C6067 1.433 . S
C6066 C6062 1.350 . S
C6066 C6063 1.463 . S
C6066 N6070 1.427 . S
C6067 H6057 0.929 . S
C6067 C6065 1.433 . S
C6067 N6070 1.384 . S
C6068 H6059 0.929 . S
C6068 C6060 1.378 . S
C6068 C6063 1.350 . S
C6069 H6056 0.929 . S
C6069 C6061 1.433 . S
C6069 N6071 1.384 . S
N6070 C6066 1.427 . S
N6070 C6067 1.384 . S
N6071 C6063 1.427 . S
N6071 C6069 1.384 . S
H6072 C6078 0.930 . S
H6073 C6082 0.930 . S
H6074 C6087 0.929 . S
H6075 C6085 0.929 . S
H6076 C6080 0.929 . S
H6077 C6086 0.929 . S
C6078 H6072 0.930 . S
C6078 C6079 1.367 . S
C6078 C6086 1.378 . S
C6079 C6078 1.367 . S
C6079 C6087 1.433 . S
C6080 H6076 0.929 . S
C6080 C6082 1.378 . S
C6080 C6084 1.350 . S
C6081 C6084 1.463 . S
C6081 C6086 1.350 . S
C6081 N6089 1.427 . S
C6082 H6073 0.930 . S
C6082 C6080 1.378 . S
C6082 C6083 1.367 . S
C6083 C6082 1.367 . S
C6083 C6085 1.433 . S
C6084 C6080 1.350 . S
C6084 C6081 1.463 . S
C6084 N6088 1.427 . S
C6085 H6075 0.929 . S
C6085 C6083 1.433 . S
C6085 N6088 1.384 . S
C6086 H6077 0.929 . S
C6086 C6078 1.378 . S
C6086 C6081 1.350 . S
C6087 H6074 0.929 . S
C6087 C6079 1.433 . S
C6087 N6089 1.384 . S
N6088 C6084 1.427 . S
N6088 C6085 1.384 . S
N6089 C6081 1.427 . S
N6089 C6087 1.384 . S
H6090 C6096 0.930 . S
H6091 C6100 0.930 . S
H6092 C6105 0.929 . S
H6093 C6103 0.929 . S
H6094 C6098 0.929 . S
H6095 C6104 0.929 . S
C6096 H6090 0.930 . S
C6096 C6097 1.367 . S
C6096 C6104 1.378 . S
C6097 C6096 1.367 . S
C6097 C6105 1.433 . S
C6098 H6094 0.929 . S
C6098 C6100 1.378 . S
C6098 C6102 1.350 . S
C6099 C6102 1.463 . S
C6099 C6104 1.350 . S
C6099 N6107 1.427 . S
C6100 H6091 0.930 . S
C6100 C6098 1.378 . S
C6100 C6101 1.367 . S
C6101 C6100 1.367 . S
C6101 C6103 1.433 . S
C6102 C6098 1.350 . S
C6102 C6099 1.463 . S
C6102 N6106 1.427 . S
C6103 H6093 0.929 . S
C6103 C6101 1.433 . S
C6103 N6106 1.384 . S
C6104 H6095 0.929 . S
C6104 C6096 1.378 . S
C6104 C6099 1.350 . S
C6105 H6092 0.929 . S
C6105 C6097 1.433 . S
C6105 N6107 1.384 . S
N6106 C6102 1.427 . S
N6106 C6103 1.384 . S
N6107 C6099 1.427 . S
N6107 C6105 1.384 . S
H6108 C6114 0.930 . S
H6109 C6118 0.930 . S
H6110 C6123 0.929 . S
H6111 C6121 0.929 . S
H6112 C6116 0.929 . S
H6113 C6122 0.929 . S
C6114 H6108 0.930 . S
C6114 C6115 1.367 . S
C6114 C6122 1.378 . S
C6115 C6114 1.367 . S
C6115 C6123 1.433 . S
C6116 H6112 0.929 . S
C6116 C6118 1.378 . S
C6116 C6120 1.350 . S
C6117 C6120 1.463 . S
C6117 C6122 1.350 . S
C6117 N6125 1.427 . S
C6118 H6109 0.930 . S
C6118 C6116 1.378 . S
C6118 C6119 1.367 . S
C6119 C6118 1.367 . S
C6119 C6121 1.433 . S
C6120 C6116 1.350 . S
C6120 C6117 1.463 . S
C6120 N6124 1.427 . S
C6121 H6111 0.929 . S
C6121 C6119 1.433 . S
C6121 N6124 1.384 . S
C6122 H6113 0.929 . S
C6122 C6114 1.378 . S
C6122 C6117 1.350 . S
C6123 H6110 0.929 . S
C6123 C6115 1.433 . S
C6123 N6125 1.384 . S
N6124 C6120 1.427 . S
N6124 C6121 1.384 . S
N6125 C6117 1.427 . S
N6125 C6123 1.384 . S
H6126 C6132 0.930 . S
H6127 C6136 0.930 . S
H6128 C6141 0.929 . S
H6129 C6139 0.929 . S
H6130 C6134 0.929 . S
H6131 C6140 0.929 . S
C6132 H6126 0.930 . S
C6132 C6133 1.367 . S
C6132 C6140 1.378 . S
C6133 C6132 1.367 . S
C6133 C6141 1.433 . S
C6134 H6130 0.929 . S
C6134 C6136 1.378 . S
C6134 C6138 1.350 . S
C6135 C6138 1.463 . S
C6135 C6140 1.350 . S
C6135 N6143 1.427 . S
C6136 H6127 0.930 . S
C6136 C6134 1.378 . S
C6136 C6137 1.367 . S
C6137 C6136 1.367 . S
C6137 C6139 1.433 . S
C6138 C6134 1.350 . S
C6138 C6135 1.463 . S
C6138 N6142 1.427 . S
C6139 H6129 0.929 . S
C6139 C6137 1.433 . S
C6139 N6142 1.384 . S
C6140 H6131 0.929 . S
C6140 C6132 1.378 . S
C6140 C6135 1.350 . S
C6141 H6128 0.929 . S
C6141 C6133 1.433 . S
C6141 N6143 1.384 . S
N6142 C6138 1.427 . S
N6142 C6139 1.384 . S
N6143 C6135 1.427 . S
N6143 C6141 1.384 . S
H6144 C6150 0.930 . S
H6145 C6154 0.930 . S
H6146 C6159 0.929 . S
H6147 C6157 0.929 . S
H6148 C6152 0.929 . S
H6149 C6158 0.929 . S
C6150 H6144 0.930 . S
C6150 C6151 1.367 . S
C6150 C6158 1.378 . S
C6151 C6150 1.367 . S
C6151 C6159 1.433 . S
C6152 H6148 0.929 . S
C6152 C6154 1.378 . S
C6152 C6156 1.350 . S
C6153 C6156 1.463 . S
C6153 C6158 1.350 . S
C6153 N6161 1.427 . S
C6154 H6145 0.930 . S
C6154 C6152 1.378 . S
C6154 C6155 1.367 . S
C6155 C6154 1.367 . S
C6155 C6157 1.433 . S
C6156 C6152 1.350 . S
C6156 C6153 1.463 . S
C6156 N6160 1.427 . S
C6157 H6147 0.929 . S
C6157 C6155 1.433 . S
C6157 N6160 1.384 . S
C6158 H6149 0.929 . S
C6158 C6150 1.378 . S
C6158 C6153 1.350 . S
C6159 H6146 0.929 . S
C6159 C6151 1.433 . S
C6159 N6161 1.384 . S
N6160 C6156 1.427 . S
N6160 C6157 1.384 . S
N6161 C6153 1.427 . S
N6161 C6159 1.384 . S
H6162 C6168 0.930 . S
H6163 C6172 0.930 . S
H6164 C6177 0.929 . S
H6165 C6175 0.929 . S
H6166 C6170 0.929 . S
H6167 C6176 0.929 . S
C6168 H6162 0.930 . S
C6168 C6169 1.367 . S
C6168 C6176 1.378 . S
C6169 C6168 1.367 . S
C6169 C6177 1.433 . S
C6170 H6166 0.929 . S
C6170 C6172 1.378 . S
C6170 C6174 1.350 . S
C6171 C6174 1.463 . S
C6171 C6176 1.350 . S
C6171 N6179 1.427 . S
C6172 H6163 0.930 . S
C6172 C6170 1.378 . S
C6172 C6173 1.367 . S
C6173 C6172 1.367 . S
C6173 C6175 1.433 . S
C6174 C6170 1.350 . S
C6174 C6171 1.463 . S
C6174 N6178 1.427 . S
C6175 H6165 0.929 . S
C6175 C6173 1.433 . S
C6175 N6178 1.384 . S
C6176 H6167 0.929 . S
C6176 C6168 1.378 . S
C6176 C6171 1.350 . S
C6177 H6164 0.929 . S
C6177 C6169 1.433 . S
C6177 N6179 1.384 . S
N6178 C6174 1.427 . S
N6178 C6175 1.384 . S
N6179 C6171 1.427 . S
N6179 C6177 1.384 . S
H6180 C6186 0.930 . S
H6181 C6190 0.930 . S
H6182 C6195 0.929 . S
H6183 C6193 0.929 . S
H6184 C6188 0.929 . S
H6185 C6194 0.929 . S
C6186 H6180 0.930 . S
C6186 C6187 1.367 . S
C6186 C6194 1.378 . S
C6187 C6186 1.367 . S
C6187 C6195 1.433 . S
C6188 H6184 0.929 . S
C6188 C6190 1.378 . S
C6188 C6192 1.350 . S
C6189 C6192 1.463 . S
C6189 C6194 1.350 . S
C6189 N6197 1.427 . S
C6190 H6181 0.930 . S
C6190 C6188 1.378 . S
C6190 C6191 1.367 . S
C6191 C6190 1.367 . S
C6191 C6193 1.433 . S
C6192 C6188 1.350 . S
C6192 C6189 1.463 . S
C6192 N6196 1.427 . S
C6193 H6183 0.929 . S
C6193 C6191 1.433 . S
C6193 N6196 1.384 . S
C6194 H6185 0.929 . S
C6194 C6186 1.378 . S
C6194 C6189 1.350 . S
C6195 H6182 0.929 . S
C6195 C6187 1.433 . S
C6195 N6197 1.384 . S
N6196 C6192 1.427 . S
N6196 C6193 1.384 . S
N6197 C6189 1.427 . S
N6197 C6195 1.384 . S
H6198 C6204 0.930 . S
H6199 C6208 0.930 . S
H6200 C6213 0.929 . S
H6201 C6211 0.929 . S
H6202 C6206 0.929 . S
H6203 C6212 0.929 . S
C6204 H6198 0.930 . S
C6204 C6205 1.367 . S
C6204 C6212 1.378 . S
C6205 C6204 1.367 . S
C6205 C6213 1.433 . S
C6206 H6202 0.929 . S
C6206 C6208 1.378 . S
C6206 C6210 1.350 . S
C6207 C6210 1.463 . S
C6207 C6212 1.350 . S
C6207 N6215 1.427 . S
C6208 H6199 0.930 . S
C6208 C6206 1.378 . S
C6208 C6209 1.367 . S
C6209 C6208 1.367 . S
C6209 C6211 1.433 . S
C6210 C6206 1.350 . S
C6210 C6207 1.463 . S
C6210 N6214 1.427 . S
C6211 H6201 0.929 . S
C6211 C6209 1.433 . S
C6211 N6214 1.384 . S
C6212 H6203 0.929 . S
C6212 C6204 1.378 . S
C6212 C6207 1.350 . S
C6213 H6200 0.929 . S
C6213 C6205 1.433 . S
C6213 N6215 1.384 . S
N6214 C6210 1.427 . S
N6214 C6211 1.384 . S
N6215 C6207 1.427 . S
N6215 C6213 1.384 . S
H6216 C6222 0.930 . S
H6217 C6226 0.930 . S
H6218 C6231 0.929 . S
H6219 C6229 0.929 . S
H6220 C6224 0.929 . S
H6221 C6230 0.929 . S
C6222 H6216 0.930 . S
C6222 C6223 1.367 . S
C6222 C6230 1.378 . S
C6223 C6222 1.367 . S
C6223 C6231 1.433 . S
C6224 H6220 0.929 . S
C6224 C6226 1.378 . S
C6224 C6228 1.350 . S
C6225 C6228 1.463 . S
C6225 C6230 1.350 . S
C6225 N6233 1.427 . S
C6226 H6217 0.930 . S
C6226 C6224 1.378 . S
C6226 C6227 1.367 . S
C6227 C6226 1.367 . S
C6227 C6229 1.433 . S
C6228 C6224 1.350 . S
C6228 C6225 1.463 . S
C6228 N6232 1.427 . S
C6229 H6219 0.929 . S
C6229 C6227 1.433 . S
C6229 N6232 1.384 . S
C6230 H6221 0.929 . S
C6230 C6222 1.378 . S
C6230 C6225 1.350 . S
C6231 H6218 0.929 . S
C6231 C6223 1.433 . S
C6231 N6233 1.384 . S
N6232 C6228 1.427 . S
N6232 C6229 1.384 . S
N6233 C6225 1.427 . S
N6233 C6231 1.384 . S
H6234 C6240 0.930 . S
H6235 C6244 0.930 . S
H6236 C6249 0.929 . S
H6237 C6247 0.929 . S
H6238 C6242 0.929 . S
H6239 C6248 0.929 . S
C6240 H6234 0.930 . S
C6240 C6241 1.367 . S
C6240 C6248 1.378 . S
C6241 C6240 1.367 . S
C6241 C6249 1.433 . S
C6242 H6238 0.929 . S
C6242 C6244 1.378 . S
C6242 C6246 1.350 . S
C6243 C6246 1.463 . S
C6243 C6248 1.350 . S
C6243 N6251 1.427 . S
C6244 H6235 0.930 . S
C6244 C6242 1.378 . S
C6244 C6245 1.367 . S
C6245 C6244 1.367 . S
C6245 C6247 1.433 . S
C6246 C6242 1.350 . S
C6246 C6243 1.463 . S
C6246 N6250 1.427 . S
C6247 H6237 0.929 . S
C6247 C6245 1.433 . S
C6247 N6250 1.384 . S
C6248 H6239 0.929 . S
C6248 C6240 1.378 . S
C6248 C6243 1.350 . S
C6249 H6236 0.929 . S
C6249 C6241 1.433 . S
C6249 N6251 1.384 . S
N6250 C6246 1.427 . S
N6250 C6247 1.384 . S
N6251 C6243 1.427 . S
N6251 C6249 1.384 . S
H6252 C6258 0.930 . S
H6253 C6262 0.930 . S
H6254 C6267 0.929 . S
H6255 C6265 0.929 . S
H6256 C6260 0.929 . S
H6257 C6266 0.929 . S
C6258 H6252 0.930 . S
C6258 C6259 1.367 . S
C6258 C6266 1.378 . S
C6259 C6258 1.367 . S
C6259 C6267 1.433 . S
C6260 H6256 0.929 . S
C6260 C6262 1.378 . S
C6260 C6264 1.350 . S
C6261 C6264 1.463 . S
C6261 C6266 1.350 . S
C6261 N6269 1.427 . S
C6262 H6253 0.930 . S
C6262 C6260 1.378 . S
C6262 C6263 1.367 . S
C6263 C6262 1.367 . S
C6263 C6265 1.433 . S
C6264 C6260 1.350 . S
C6264 C6261 1.463 . S
C6264 N6268 1.427 . S
C6265 H6255 0.929 . S
C6265 C6263 1.433 . S
C6265 N6268 1.384 . S
C6266 H6257 0.929 . S
C6266 C6258 1.378 . S
C6266 C6261 1.350 . S
C6267 H6254 0.929 . S
C6267 C6259 1.433 . S
C6267 N6269 1.384 . S
N6268 C6264 1.427 . S
N6268 C6265 1.384 . S
N6269 C6261 1.427 . S
N6269 C6267 1.384 . S
H6270 C6276 0.930 . S
H6271 C6280 0.930 . S
H6272 C6285 0.929 . S
H6273 C6283 0.929 . S
H6274 C6278 0.929 . S
H6275 C6284 0.929 . S
C6276 H6270 0.930 . S
C6276 C6277 1.367 . S
C6276 C6284 1.378 . S
C6277 C6276 1.367 . S
C6277 C6285 1.433 . S
C6278 H6274 0.929 . S
C6278 C6280 1.378 . S
C6278 C6282 1.350 . S
C6279 C6282 1.463 . S
C6279 C6284 1.350 . S
C6279 N6287 1.427 . S
C6280 H6271 0.930 . S
C6280 C6278 1.378 . S
C6280 C6281 1.367 . S
C6281 C6280 1.367 . S
C6281 C6283 1.433 . S
C6282 C6278 1.350 . S
C6282 C6279 1.463 . S
C6282 N6286 1.427 . S
C6283 H6273 0.929 . S
C6283 C6281 1.433 . S
C6283 N6286 1.384 . S
C6284 H6275 0.929 . S
C6284 C6276 1.378 . S
C6284 C6279 1.350 . S
C6285 H6272 0.929 . S
C6285 C6277 1.433 . S
C6285 N6287 1.384 . S
N6286 C6282 1.427 . S
N6286 C6283 1.384 . S
N6287 C6279 1.427 . S
N6287 C6285 1.384 . S
H6288 C6294 0.930 . S
H6289 C6298 0.930 . S
H6290 C6303 0.929 . S
H6291 C6301 0.929 . S
H6292 C6296 0.929 . S
H6293 C6302 0.929 . S
C6294 H6288 0.930 . S
C6294 C6295 1.367 . S
C6294 C6302 1.378 . S
C6295 C6294 1.367 . S
C6295 C6303 1.433 . S
C6296 H6292 0.929 . S
C6296 C6298 1.378 . S
C6296 C6300 1.350 . S
C6297 C6300 1.463 . S
C6297 C6302 1.350 . S
C6297 N6305 1.427 . S
C6298 H6289 0.930 . S
C6298 C6296 1.378 . S
C6298 C6299 1.367 . S
C6299 C6298 1.367 . S
C6299 C6301 1.433 . S
C6300 C6296 1.350 . S
C6300 C6297 1.463 . S
C6300 N6304 1.427 . S
C6301 H6291 0.929 . S
C6301 C6299 1.433 . S
C6301 N6304 1.384 . S
C6302 H6293 0.929 . S
C6302 C6294 1.378 . S
C6302 C6297 1.350 . S
C6303 H6290 0.929 . S
C6303 C6295 1.433 . S
C6303 N6305 1.384 . S
N6304 C6300 1.427 . S
N6304 C6301 1.384 . S
N6305 C6297 1.427 . S
N6305 C6303 1.384 . S
H6306 C6312 0.930 . S
H6307 C6316 0.930 . S
H6308 C6321 0.929 . S
H6309 C6319 0.929 . S
H6310 C6314 0.929 . S
H6311 C6320 0.929 . S
C6312 H6306 0.930 . S
C6312 C6313 1.367 . S
C6312 C6320 1.378 . S
C6313 C6312 1.367 . S
C6313 C6321 1.433 . S
C6314 H6310 0.929 . S
C6314 C6316 1.378 . S
C6314 C6318 1.350 . S
C6315 C6318 1.463 . S
C6315 C6320 1.350 . S
C6315 N6323 1.427 . S
C6316 H6307 0.930 . S
C6316 C6314 1.378 . S
C6316 C6317 1.367 . S
C6317 C6316 1.367 . S
C6317 C6319 1.433 . S
C6318 C6314 1.350 . S
C6318 C6315 1.463 . S
C6318 N6322 1.427 . S
C6319 H6309 0.929 . S
C6319 C6317 1.433 . S
C6319 N6322 1.384 . S
C6320 H6311 0.929 . S
C6320 C6312 1.378 . S
C6320 C6315 1.350 . S
C6321 H6308 0.929 . S
C6321 C6313 1.433 . S
C6321 N6323 1.384 . S
N6322 C6318 1.427 . S
N6322 C6319 1.384 . S
N6323 C6315 1.427 . S
N6323 C6321 1.384 . S
H6324 C6330 0.930 . S
H6325 C6334 0.930 . S
H6326 C6339 0.929 . S
H6327 C6337 0.929 . S
H6328 C6332 0.929 . S
H6329 C6338 0.929 . S
C6330 H6324 0.930 . S
C6330 C6331 1.367 . S
C6330 C6338 1.378 . S
C6331 C6330 1.367 . S
C6331 C6339 1.433 . S
C6332 H6328 0.929 . S
C6332 C6334 1.378 . S
C6332 C6336 1.350 . S
C6333 C6336 1.463 . S
C6333 C6338 1.350 . S
C6333 N6341 1.427 . S
C6334 H6325 0.930 . S
C6334 C6332 1.378 . S
C6334 C6335 1.367 . S
C6335 C6334 1.367 . S
C6335 C6337 1.433 . S
C6336 C6332 1.350 . S
C6336 C6333 1.463 . S
C6336 N6340 1.427 . S
C6337 H6327 0.929 . S
C6337 C6335 1.433 . S
C6337 N6340 1.384 . S
C6338 H6329 0.929 . S
C6338 C6330 1.378 . S
C6338 C6333 1.350 . S
C6339 H6326 0.929 . S
C6339 C6331 1.433 . S
C6339 N6341 1.384 . S
N6340 C6336 1.427 . S
N6340 C6337 1.384 . S
N6341 C6333 1.427 . S
N6341 C6339 1.384 . S
H6342 C6348 0.930 . S
H6343 C6352 0.930 . S
H6344 C6357 0.929 . S
H6345 C6355 0.929 . S
H6346 C6350 0.929 . S
H6347 C6356 0.929 . S
C6348 H6342 0.930 . S
C6348 C6349 1.367 . S
C6348 C6356 1.378 . S
C6349 C6348 1.367 . S
C6349 C6357 1.433 . S
C6350 H6346 0.929 . S
C6350 C6352 1.378 . S
C6350 C6354 1.350 . S
C6351 C6354 1.463 . S
C6351 C6356 1.350 . S
C6351 N6359 1.427 . S
C6352 H6343 0.930 . S
C6352 C6350 1.378 . S
C6352 C6353 1.367 . S
C6353 C6352 1.367 . S
C6353 C6355 1.433 . S
C6354 C6350 1.350 . S
C6354 C6351 1.463 . S
C6354 N6358 1.427 . S
C6355 H6345 0.929 . S
C6355 C6353 1.433 . S
C6355 N6358 1.384 . S
C6356 H6347 0.929 . S
C6356 C6348 1.378 . S
C6356 C6351 1.350 . S
C6357 H6344 0.929 . S
C6357 C6349 1.433 . S
C6357 N6359 1.384 . S
N6358 C6354 1.427 . S
N6358 C6355 1.384 . S
N6359 C6351 1.427 . S
N6359 C6357 1.384 . S
H6360 C6366 0.930 . S
H6361 C6370 0.930 . S
H6362 C6375 0.929 . S
H6363 C6373 0.929 . S
H6364 C6368 0.929 . S
H6365 C6374 0.929 . S
C6366 H6360 0.930 . S
C6366 C6367 1.367 . S
C6366 C6374 1.378 . S
C6367 C6366 1.367 . S
C6367 C6375 1.433 . S
C6368 H6364 0.929 . S
C6368 C6370 1.378 . S
C6368 C6372 1.350 . S
C6369 C6372 1.463 . S
C6369 C6374 1.350 . S
C6369 N6377 1.427 . S
C6370 H6361 0.930 . S
C6370 C6368 1.378 . S
C6370 C6371 1.367 . S
C6371 C6370 1.367 . S
C6371 C6373 1.433 . S
C6372 C6368 1.350 . S
C6372 C6369 1.463 . S
C6372 N6376 1.427 . S
C6373 H6363 0.929 . S
C6373 C6371 1.433 . S
C6373 N6376 1.384 . S
C6374 H6365 0.929 . S
C6374 C6366 1.378 . S
C6374 C6369 1.350 . S
C6375 H6362 0.929 . S
C6375 C6367 1.433 . S
C6375 N6377 1.384 . S
N6376 C6372 1.427 . S
N6376 C6373 1.384 . S
N6377 C6369 1.427 . S
N6377 C6375 1.384 . S
H6378 C6384 0.930 . S
H6379 C6388 0.930 . S
H6380 C6393 0.929 . S
H6381 C6391 0.929 . S
H6382 C6386 0.929 . S
H6383 C6392 0.929 . S
C6384 H6378 0.930 . S
C6384 C6385 1.367 . S
C6384 C6392 1.378 . S
C6385 C6384 1.367 . S
C6385 C6393 1.433 . S
C6386 H6382 0.929 . S
C6386 C6388 1.378 . S
C6386 C6390 1.350 . S
C6387 C6390 1.463 . S
C6387 C6392 1.350 . S
C6387 N6395 1.427 . S
C6388 H6379 0.930 . S
C6388 C6386 1.378 . S
C6388 C6389 1.367 . S
C6389 C6388 1.367 . S
C6389 C6391 1.433 . S
C6390 C6386 1.350 . S
C6390 C6387 1.463 . S
C6390 N6394 1.427 . S
C6391 H6381 0.929 . S
C6391 C6389 1.433 . S
C6391 N6394 1.384 . S
C6392 H6383 0.929 . S
C6392 C6384 1.378 . S
C6392 C6387 1.350 . S
C6393 H6380 0.929 . S
C6393 C6385 1.433 . S
C6393 N6395 1.384 . S
N6394 C6390 1.427 . S
N6394 C6391 1.384 . S
N6395 C6387 1.427 . S
N6395 C6393 1.384 . S
H6396 C6402 0.930 . S
H6397 C6406 0.930 . S
H6398 C6411 0.929 . S
H6399 C6409 0.929 . S
H6400 C6404 0.929 . S
H6401 C6410 0.929 . S
C6402 H6396 0.930 . S
C6402 C6403 1.367 . S
C6402 C6410 1.378 . S
C6403 C6402 1.367 . S
C6403 C6411 1.433 . S
C6404 H6400 0.929 . S
C6404 C6406 1.378 . S
C6404 C6408 1.350 . S
C6405 C6408 1.463 . S
C6405 C6410 1.350 . S
C6405 N6413 1.427 . S
C6406 H6397 0.930 . S
C6406 C6404 1.378 . S
C6406 C6407 1.367 . S
C6407 C6406 1.367 . S
C6407 C6409 1.433 . S
C6408 C6404 1.350 . S
C6408 C6405 1.463 . S
C6408 N6412 1.427 . S
C6409 H6399 0.929 . S
C6409 C6407 1.433 . S
C6409 N6412 1.384 . S
C6410 H6401 0.929 . S
C6410 C6402 1.378 . S
C6410 C6405 1.350 . S
C6411 H6398 0.929 . S
C6411 C6403 1.433 . S
C6411 N6413 1.384 . S
N6412 C6408 1.427 . S
N6412 C6409 1.384 . S
N6413 C6405 1.427 . S
N6413 C6411 1.384 . S
H6414 C6420 0.930 . S
H6415 C6424 0.930 . S
H6416 C6429 0.929 . S
H6417 C6427 0.929 . S
H6418 C6422 0.929 . S
H6419 C6428 0.929 . S
C6420 H6414 0.930 . S
C6420 C6421 1.367 . S
C6420 C6428 1.378 . S
C6421 C6420 1.367 . S
C6421 C6429 1.433 . S
C6422 H6418 0.929 . S
C6422 C6424 1.378 . S
C6422 C6426 1.350 . S
C6423 C6426 1.463 . S
C6423 C6428 1.350 . S
C6423 N6431 1.427 . S
C6424 H6415 0.930 . S
C6424 C6422 1.378 . S
C6424 C6425 1.367 . S
C6425 C6424 1.367 . S
C6425 C6427 1.433 . S
C6426 C6422 1.350 . S
C6426 C6423 1.463 . S
C6426 N6430 1.427 . S
C6427 H6417 0.929 . S
C6427 C6425 1.433 . S
C6427 N6430 1.384 . S
C6428 H6419 0.929 . S
C6428 C6420 1.378 . S
C6428 C6423 1.350 . S
C6429 H6416 0.929 . S
C6429 C6421 1.433 . S
C6429 N6431 1.384 . S
N6430 C6426 1.427 . S
N6430 C6427 1.384 . S
N6431 C6423 1.427 . S
N6431 C6429 1.384 . S
C3847 C15 1.520 . S
C3851 C2735 1.521 . S
C3865 C2615 1.518 . S
C3869 C55 1.518 . S
C3883 C95 1.530 . S
C3887 C2655 1.530 . S
C3901 C2695 1.526 . S
C3905 C135 1.527 . S
C3919 C175 1.516 . S
C3923 C2855 1.516 . S
C3937 C2775 1.517 . S
C3941 C215 1.517 . S
C3955 C2815 1.517 . S
C3959 C255 1.516 . S
C3973 C2575 1.529 . S
C3977 C295 1.529 . S
C3991 C335 1.529 . S
C3995 C2535 1.529 . S
C4009 C375 1.529 . S
C4013 C2415 1.528 . S
C4027 C415 1.530 . S
C4031 C2455 1.530 . S
C4045 C455 1.529 . S
C4049 C2495 1.529 . S
C4063 C2295 1.516 . S
C4067 C495 1.516 . S
C4081 C535 1.516 . S
C4085 C2335 1.516 . S
C4099 C2375 1.516 . S
C4103 C575 1.516 . S
C4117 C615 1.516 . S
C4121 C2255 1.516 . S
C4135 C655 1.524 . S
C4139 C2215 1.524 . S
C4153 C695 1.517 . S
C4157 C1975 1.517 . S
C4171 C735 1.528 . S
C4175 C2015 1.528 . S
C4189 C775 1.524 . S
C4193 C2055 1.524 . S
C4207 C1935 1.520 . S
C4211 C815 1.520 . S
C4225 C2135 1.520 . S
C4229 C855 1.520 . S
C4243 C2175 1.516 . S
C4247 C895 1.516 . S
C4261 C935 1.530 . S
C4265 C2095 1.530 . S
C4279 C3695 1.507 . S
C4283 C975 1.507 . S
C4297 C1015 1.522 . S
C4301 C3575 1.522 . S
C4315 C1055 1.508 . S
C4319 C3615 1.508 . S
C4333 C1095 1.519 . S
C4337 C3655 1.518 . S
C4351 C1135 1.507 . S
C4355 C3815 1.508 . S
C4369 C1175 1.512 . S
C4373 C3735 1.513 . S
C4387 C3775 1.509 . S
C4391 C1215 1.508 . S
C4405 C1255 1.510 . S
C4409 C3535 1.511 . S
C4423 C1295 1.522 . S
C4427 C3495 1.522 . S
C4441 C3375 1.519 . S
C4445 C1335 1.519 . S
C4459 C3415 1.514 . S
C4463 C1375 1.515 . S
C4477 C3455 1.512 . S
C4481 C1415 1.511 . S
C4495 C3255 1.517 . S
C4499 C1455 1.516 . S
C4513 C1495 1.518 . S
C4517 C3295 1.517 . S
C4531 C3335 1.522 . S
C4535 C1535 1.522 . S
C4549 C3215 1.521 . S
C4553 C1575 1.521 . S
C4567 C1615 1.509 . S
C4571 C3175 1.509 . S
C4585 C1655 1.521 . S
C4589 C2935 1.520 . S
C4603 C2975 1.507 . S
C4607 C1695 1.507 . S
C4621 C3015 1.509 . S
C4625 C1735 1.508 . S
C4639 C2895 1.507 . S
C4643 C1775 1.507 . S
C4657 C3095 1.519 . S
C4661 C1815 1.518 . S
C4675 C3135 1.511 . S
C4679 C1855 1.512 . S
C4693 C3055 1.519 . S
C4697 C1895 1.520 . S
C4711 C2 1.728 . S
C4715 C1562 1.696 . S
C4729 C1442 1.693 . S
C4733 C42 1.727 . S
C4747 C82 1.729 . S
C4751 C1482 1.697 . S
C4765 C1522 1.692 . S
C4769 C122 1.728 . S
C4783 C162 1.729 . S
C4787 C1322 1.698 . S
C4801 C202 1.728 . S
C4805 C1362 1.688 . S
C4819 C1402 1.698 . S
C4823 C242 1.728 . S
C4837 C282 1.728 . S
C4841 C1282 1.691 . S
C4855 C1242 1.688 . S
C4859 C322 1.727 . S
C4873 C1122 1.689 . S
C4877 C362 1.727 . S
C4891 C402 1.727 . S
C4895 C1162 1.692 . S
C4909 C442 1.728 . S
C4913 C1202 1.692 . S
C4927 C1002 1.690 . S
C4931 C482 1.728 . S
C4945 C522 1.727 . S
C4949 C1042 1.690 . S
C4963 C562 1.728 . S
C4967 C1082 1.690 . S
C4981 C602 1.729 . S
C4985 C962 1.694 . S
C4999 C1762 1.697 . S
C5003 C642 1.729 . S
C5017 C1882 1.691 . S
C5021 C682 1.728 . S
C5035 C722 1.728 . S
C5039 C1802 1.691 . S
C5053 C762 1.727 . S
C5057 C1842 1.690 . S
C5071 C1602 1.695 . S
C5075 C802 1.728 . S
C5089 C1682 1.694 . S
C5093 C842 1.729 . S
C5107 C1722 1.691 . S
C5111 C882 1.728 . S
C5125 C922 1.728 . S
C5129 C1642 1.691 . S
C5143 C3482 1.697 . S
C5147 C1922 1.728 . S
C5161 C3362 1.695 . S
C5165 C1962 1.729 . S
C5179 C3402 1.689 . S
C5183 C2002 1.728 . S
C5197 C2042 1.728 . S
C5201 C3442 1.691 . S
C5215 C3242 1.692 . S
C5219 C2082 1.727 . S
C5233 C2122 1.728 . S
C5237 C3282 1.690 . S
C5251 C3322 1.698 . S
C5255 C2162 1.728 . S
C5269 C3202 1.691 . S
C5273 C2202 1.727 . S
C5287 C2242 1.727 . S
C5291 C3162 1.690 . S
C5305 C2282 1.727 . S
C5309 C3042 1.691 . S
C5323 C3082 1.693 . S
C5327 C2322 1.729 . S
C5341 C3122 1.689 . S
C5345 C2362 1.728 . S
C5359 C2922 1.693 . S
C5363 C2402 1.729 . S
C5377 C2962 1.698 . S
C5381 C2442 1.728 . S
C5395 C3002 1.690 . S
C5399 C2482 1.727 . S
C5413 C2522 1.728 . S
C5417 C2882 1.689 . S
C5431 C3682 1.698 . S
C5435 C2562 1.728 . S
C5449 C3802 1.692 . S
C5453 C2602 1.727 . S
C5467 C2642 1.729 . S
C5471 C3722 1.698 . S
C5485 C2682 1.728 . S
C5489 C3762 1.698 . S
C5503 C2722 1.728 . S
C5507 C3522 1.690 . S
C5521 C2762 1.729 . S
C5525 C3602 1.696 . S
C5539 C3642 1.696 . S
C5543 C2802 1.728 . S
C5557 C3562 1.690 . S
C5561 C2842 1.728 . S
C5575 C1141 1.489 . S
C5579 C21 1.535 . S
C5593 C1181 1.499 . S
C5597 C61 1.528 . S
C5611 C1221 1.490 . S
C5615 C101 1.530 . S
C5629 C1261 1.490 . S
C5633 C141 1.535 . S
C5647 C981 1.503 . S
C5651 C181 1.530 . S
C5665 C221 1.529 . S
C5669 C1021 1.493 . S
C5683 C261 1.534 . S
C5687 C1061 1.499 . S
C5701 C1101 1.501 . S
C5705 C301 1.533 . S
C5719 C1541 1.502 . S
C5723 C341 1.532 . S
C5737 C381 1.528 . S
C5741 C1581 1.500 . S
C5755 C421 1.536 . S
C5759 C1461 1.492 . S
C5773 C1501 1.492 . S
C5777 C461 1.529 . S
C5791 C501 1.534 . S
C5795 C1381 1.488 . S
C5809 C541 1.536 . S
C5813 C1421 1.493 . S
C5827 C581 1.529 . S
C5831 C1301 1.502 . S
C5845 C1341 1.497 . S
C5849 C621 1.535 . S
C5863 C1821 1.497 . S
C5867 C661 1.528 . S
C5881 C1741 1.495 . S
C5885 C701 1.536 . S
C5899 C1781 1.503 . S
C5903 C741 1.531 . S
C5917 C1661 1.501 . S
C5921 C781 1.528 . S
C5935 C821 1.534 . S
C5939 C1701 1.488 . S
C5953 C1621 1.499 . S
C5957 C861 1.528 . S
C5971 C1901 1.500 . S
C5975 C901 1.534 . S
C5989 C1861 1.491 . S
C5993 C941 1.530 . S
C6007 C1941 1.534 . S
C6011 C3061 1.501 . S
C6025 C1981 1.536 . S
C6029 C3101 1.494 . S
C6043 C2021 1.535 . S
C6047 C3141 1.497 . S
C6061 C3181 1.491 . S
C6065 C2061 1.536 . S
C6079 C2901 1.503 . S
C6083 C2101 1.531 . S
C6097 C2141 1.530 . S
C6101 C2941 1.491 . S
C6115 C2981 1.501 . S
C6119 C2181 1.533 . S
C6133 C3021 1.503 . S
C6137 C2221 1.530 . S
C6151 C2261 1.534 . S
C6155 C3461 1.489 . S
C6169 C2301 1.530 . S
C6173 C3501 1.503 . S
C6187 C2341 1.535 . S
C6191 C3381 1.489 . S
C6205 C3421 1.502 . S
C6209 C2381 1.533 . S
C6223 C2421 1.530 . S
C6227 C3301 1.503 . S
C6241 C2461 1.529 . S
C6245 C3341 1.493 . S
C6259 C2501 1.536 . S
C6263 C3221 1.495 . S
C6277 C2541 1.534 . S
C6281 C3261 1.488 . S
C6295 C2581 1.529 . S
C6299 C3741 1.494 . S
C6313 C3661 1.494 . S
C6317 C2621 1.528 . S
C6331 C2661 1.529 . S
C6335 C3701 1.502 . S
C6349 C3581 1.494 . S
C6353 C2701 1.536 . S
C6367 C3621 1.496 . S
C6371 C2741 1.535 . S
C6385 C2781 1.535 . S
C6389 C3541 1.497 . S
C6403 C3821 1.501 . S
C6407 C2821 1.533 . S
C6421 C3781 1.489 . S
C6425 C2861 1.531 . S
