# Generated by pormake.
# Topology afw, (4)-cn, num edge types: 1
# Building blocks:
#     Node 0, Type 0, BuildingBlock: NAHDIM_clean_sbu_0, # of connection points: 4
#     Node 1, Type 0, BuildingBlock: NAHDIM_clean_sbu_0, # of connection points: 4
#     Node 2, Type 0, BuildingBlock: NAHDIM_clean_sbu_0, # of connection points: 4
#     Node 3, Type 0, BuildingBlock: NAHDIM_clean_sbu_0, # of connection points: 4
#     Node 4, Type 0, BuildingBlock: NAHDIM_clean_sbu_0, # of connection points: 4
#     Node 5, Type 0, BuildingBlock: NAHDIM_clean_sbu_0, # of connection points: 4
#     Node 6, Type 0, BuildingBlock: NAHDIM_clean_sbu_0, # of connection points: 4
#     Node 7, Type 0, BuildingBlock: NAHDIM_clean_sbu_0, # of connection points: 4
#     Node 8, Type 0, BuildingBlock: NAHDIM_clean_sbu_0, # of connection points: 4
#     Edge 9, Type (0, 0), BuildingBlock: XIVTED_clean_linker_0, # of connection points: 2
#     Edge 10, Type (0, 0), BuildingBlock: XIVTED_clean_linker_0, # of connection points: 2
#     Edge 11, Type (0, 0), BuildingBlock: XIVTED_clean_linker_0, # of connection points: 2
#     Edge 12, Type (0, 0), BuildingBlock: XIVTED_clean_linker_0, # of connection points: 2
#     Edge 13, Type (0, 0), BuildingBlock: XIVTED_clean_linker_0, # of connection points: 2
#     Edge 14, Type (0, 0), BuildingBlock: XIVTED_clean_linker_0, # of connection points: 2
#     Edge 15, Type (0, 0), BuildingBlock: XIVTED_clean_linker_0, # of connection points: 2
#     Edge 16, Type (0, 0), BuildingBlock: XIVTED_clean_linker_0, # of connection points: 2
#     Edge 17, Type (0, 0), BuildingBlock: XIVTED_clean_linker_0, # of connection points: 2
#     Edge 18, Type (0, 0), BuildingBlock: XIVTED_clean_linker_0, # of connection points: 2
#     Edge 19, Type (0, 0), BuildingBlock: XIVTED_clean_linker_0, # of connection points: 2
#     Edge 20, Type (0, 0), BuildingBlock: XIVTED_clean_linker_0, # of connection points: 2
#     Edge 21, Type (0, 0), BuildingBlock: XIVTED_clean_linker_0, # of connection points: 2
#     Edge 22, Type (0, 0), BuildingBlock: XIVTED_clean_linker_0, # of connection points: 2
#     Edge 23, Type (0, 0), BuildingBlock: XIVTED_clean_linker_0, # of connection points: 2
#     Edge 24, Type (0, 0), BuildingBlock: XIVTED_clean_linker_0, # of connection points: 2
#     Edge 25, Type (0, 0), BuildingBlock: XIVTED_clean_linker_0, # of connection points: 2
#     Edge 26, Type (0, 0), BuildingBlock: XIVTED_clean_linker_0, # of connection points: 2
# Relax obj value: 0.264
# Max RMSD: 0.263
# Mean RMSD: 0.246
data_MOF--net-afw--node1-NAHDIM_clean_sbu_0--edge1-XIVTED_clean_linker_0
_symmetry_space_group_name_H-M    P1
_symmetry_Int_Tables_number       1
_symmetry_cell_setting            triclinic
loop_
_symmetry_equiv_pos_as_xyz
'x, y, z'
_cell_length_a     39.146616
_cell_length_b     41.466758
_cell_length_c     35.466545
_cell_angle_alpha  92.420977
_cell_angle_beta   90.575929
_cell_angle_gamma 118.81956
loop_
_atom_site_label
_atom_site_type_symbol
_atom_site_fract_x
_atom_site_fract_y
_atom_site_fract_z
_atom_type_partial_charge
C0 C 0.00311 0.26968 0.95421 0.0
O1 O 0.00555 0.28008 -0.00992 0.0
O2 O 0.05976 0.20382 0.9688 0.0
Zn3 Zn 0.01515 0.21215 0.9838 0.0
O4 O 0.02625 0.23906 0.03431 0.0
C5 C 0.93463 0.1497 0.97434 0.0
O6 O 0.92741 0.16889 0.95004 0.0
O7 O 0.00538 0.24084 0.94489 0.0
C8 C 0.02342 0.22205 0.06403 0.0
O9 O 0.01651 0.18772 0.06092 0.0
C10 C 0.09421 0.22236 0.98294 0.0
O11 O 0.10217 0.24936 0.00818 0.0
O12 O 0.96844 0.16284 -0.01025 0.0
C13 C 0.76476 0.75345 0.04469 0.0
O14 O 0.76598 0.74215 0.00981 0.0
O15 O 0.85293 0.83498 -0.00064 0.0
Zn16 Zn 0.79725 0.82164 0.00974 0.0
O17 O 0.76282 0.79725 0.96356 0.0
C18 C 0.7819 0.88275 0.00109 0.0
O19 O 0.76034 0.86246 0.97178 0.0
O20 O 0.7771 0.78757 0.0523 0.0
C21 C 0.77272 0.78451 0.93505 0.0
O22 O 0.80731 0.78666 0.93508 0.0
C23 C 0.87168 0.81892 0.0102 0.0
O24 O 0.8541 0.78938 0.02977 0.0
O25 O 0.79816 0.86983 0.02242 0.0
C26 C 0.27028 0.97729 0.93655 0.0
O27 O 0.26844 0.96657 0.97114 0.0
O28 O 0.17752 0.97901 0.97761 0.0
Zn29 Zn 0.23347 0.01611 0.96955 0.0
O30 O 0.26736 0.02849 0.01647 0.0
C31 C 0.24774 0.09203 0.9731 0.0
O32 O 0.27073 0.09629 0.00229 0.0
O33 O 0.25632 -0.00165 0.92875 0.0
C34 C 0.25927 0.01006 0.04587 0.0
O35 O 0.22549 0.98 0.04752 0.0
C36 C 0.16103 0.94424 0.97987 0.0
O37 O 0.18187 0.92718 0.97807 0.0
O38 O 0.23125 0.06127 0.95425 0.0
C39 C 0.69526 0.5823 0.25536 0.0
O40 O 0.68354 0.58889 0.28794 0.0
O41 O 0.74203 0.51145 0.29347 0.0
Zn42 Zn 0.69981 0.52572 0.29544 0.0
O43 O 0.70405 0.55374 0.3443 0.0
C44 C 0.61993 0.47353 0.31326 0.0
O45 O 0.62197 0.50092 0.33492 0.0
O46 O 0.70342 0.55618 0.25182 0.0
C47 C 0.7034 0.53993 0.37574 0.0
O48 O 0.70212 0.50768 0.37607 0.0
C49 C 0.77441 0.52831 0.31192 0.0
O50 O 0.78252 0.55819 0.33284 0.0
O51 O 0.64865 0.4786 0.29315 0.0
C52 C 0.39978 0.08579 0.38869 0.0
O53 O 0.38404 0.07124 0.35516 0.0
O54 O 0.51674 0.14357 0.35189 0.0
Zn55 Zn 0.46282 0.13758 0.34536 0.0
O56 O 0.43527 0.10616 0.29888 0.0
C57 C 0.46943 0.21041 0.36316 0.0
O58 O 0.46421 0.20115 0.39845 0.0
O59 O 0.43259 0.11503 0.39127 0.0
C60 C 0.44677 0.11846 0.26662 0.0
O61 O 0.47811 0.15069 0.26444 0.0
C62 C 0.52932 0.12433 0.3342 0.0
O63 O 0.50601 0.0977 0.30993 0.0
O64 O 0.46892 0.18764 0.3378 0.0
C65 C 0.96397 0.33314 0.39828 0.0
O66 O 0.97678 0.34339 0.36442 0.0
O67 O 0.88596 0.34424 0.34204 0.0
Zn68 Zn 0.89222 0.30085 0.35639 0.0
O69 O 0.91584 0.28558 0.31387 0.0
C70 C 0.81767 0.23718 0.3394 0.0
O71 O 0.83321 0.23845 0.30646 0.0
O72 O 0.92747 0.31403 0.40255 0.0
C73 C 0.93454 0.30773 0.28864 0.0
O74 O 0.93769 0.34077 0.28999 0.0
C75 C 0.89919 0.37467 0.36127 0.0
O76 O 0.91935 0.37962 0.39283 0.0
O77 O 0.83824 0.26023 0.36596 0.0
C78 C 0.35624 0.93319 0.60668 0.0
O79 O 0.36505 0.94761 0.64141 0.0
O80 O 0.40985 0.86764 0.62694 0.0
Zn81 Zn 0.36351 0.87425 0.63928 0.0
O82 O 0.36936 0.89985 0.6899 0.0
C83 C 0.31421 0.80066 0.61326 0.0
O84 O 0.33677 0.81275 0.58422 0.0
O85 O 0.35376 0.90188 0.59911 0.0
C86 C 0.36317 0.88331 0.72046 0.0
O87 O 0.35558 0.84877 0.71942 0.0
C88 C 0.44031 0.87765 0.64765 0.0
O89 O 0.44484 0.89676 0.67956 0.0
O90 O 0.31851 0.82323 0.64057 0.0
C91 C 0.09191 0.42976 0.74319 0.0
O92 O 0.07576 0.42304 0.70911 0.0
O93 O 0.21263 0.46607 0.7117 0.0
Zn94 Zn 0.16245 0.46766 0.70274 0.0
O95 O 0.13256 0.4363 0.65657 0.0
C96 C 0.20781 0.53997 0.6778 0.0
O97 O 0.23105 0.52623 0.66979 0.0
O98 O 0.12872 0.44932 0.74755 0.0
C99 C 0.14496 0.44344 0.62336 0.0
O100 O 0.1797 0.47132 0.61845 0.0
C101 C 0.22327 0.44626 0.69217 0.0
O102 O 0.19916 0.4223 0.66625 0.0
O103 O 0.17599 0.52019 0.69384 0.0
C104 C 0.60823 0.62418 0.59755 0.0
O105 O 0.6025 0.60856 0.63005 0.0
O106 O 0.51467 0.60866 0.63959 0.0
Zn107 Zn 0.56551 0.65503 0.63307 0.0
O108 O 0.59859 0.67029 0.68074 0.0
C109 C 0.57645 0.72922 0.62927 0.0
O110 O 0.61055 0.73877 0.6455 0.0
O111 O 0.5947 0.64597 0.59182 0.0
C112 C 0.58852 0.68196 0.70993 0.0
O113 O 0.5556 0.68319 0.70887 0.0
C114 C 0.50666 0.58933 0.66839 0.0
O115 O 0.53295 0.59876 0.69591 0.0
O116 O 0.55334 0.6954 0.62042 0.0
H117 H 0.26893 0.15704 0.01379 0.0
H118 H 0.09 0.17304 0.92705 0.0
H119 H 0.19687 0.08979 0.91824 0.0
H120 H 0.16534 0.24513 0.01847 0.0
H121 H 0.13478 0.14839 0.91766 0.0
H122 H 0.23799 0.19586 0.00997 0.0
C123 C 0.2471 0.15078 -0.00841 0.0
C124 C 0.23498 0.11969 0.96673 0.0
C125 C 0.14182 0.1699 0.93951 0.0
C126 C 0.19918 0.16379 0.96246 0.0
C127 C 0.11619 0.18396 0.94493 0.0
C128 C 0.12363 0.21079 0.97398 0.0
C129 C 0.17498 0.18243 0.96357 0.0
C130 C 0.15827 0.22423 -0.00405 0.0
C131 C 0.22937 0.17293 -0.01051 0.0
C132 C 0.20677 0.11315 0.93836 0.0
N133 N 0.18241 0.20952 -0.00935 0.0
N134 N 0.18946 0.13467 0.93736 0.0
H135 H 0.82724 0.93316 0.05724 0.0
H136 H 0.8648 0.10468 0.93633 0.0
H137 H 0.76443 0.92304 0.95275 0.0
H138 H 0.93572 0.10964 0.03273 0.0
H139 H 0.81896 0.04039 0.94865 0.0
H140 H 0.85735 2e-05 0.05594 0.0
C141 C 0.81928 0.94497 0.03431 0.0
C142 C 0.79388 0.92247 0.00465 0.0
C143 C 0.84436 0.05576 0.9673 0.0
C144 C 0.8287 -0.00091 0.00272 0.0
C145 C 0.87049 0.09241 0.96029 0.0
C146 C 0.90445 0.11229 0.98313 0.0
C147 C 0.85225 0.03912 -0.00254 0.0
C148 C 0.91027 0.09515 0.01396 0.0
C149 C 0.8366 0.98319 0.03352 0.0
C150 C 0.78427 0.93934 0.97596 0.0
N151 N 0.88464 0.05952 0.02002 0.0
N152 N 0.80218 0.9767 0.97537 0.0
H153 H 0.91732 0.88243 0.97532 0.0
H154 H 0.1151 0.87148 -0.00402 0.0
H155 H 0.92201 0.79261 0.02811 0.0
H156 H 0.10932 0.9699 0.97153 0.0
H157 H 0.04385 0.83872 0.00146 0.0
H158 H 0.9872 0.9111 0.96638 0.0
C159 C 0.933 0.86859 0.98491 0.0
C160 C 0.91374 0.83515 0.00275 0.0
C161 C 0.05834 0.86749 -0.00509 0.0
C162 C 0.99414 0.86805 -0.00738 0.0
C163 C 0.09891 0.88616 -0.00829 0.0
C164 C 0.11822 0.92351 0.9834 0.0
C165 C 0.03707 0.88627 -0.01072 0.0
C166 C 0.0958 0.94119 0.97817 0.0
C167 C 0.97301 0.88509 0.97989 0.0
C168 C 0.93571 0.81851 0.0144 0.0
N169 N 0.05653 0.92241 0.98111 0.0
N170 N 0.97484 0.83519 0.0092 0.0
H171 H 0.91732 0.44088 0.39799 0.0
H172 H 0.77099 0.47218 0.26613 0.0
H173 H 0.85699 0.37237 0.29837 0.0
H174 H 0.83615 0.54584 0.36113 0.0
H175 H 0.8079 0.43936 0.27378 0.0
H176 H 0.89357 0.48347 0.38154 0.0
C177 C 0.89941 0.43496 0.37248 0.0
C178 C 0.88868 0.40273 0.34981 0.0
C179 C 0.81447 0.46293 0.29276 0.0
C180 C 0.86133 0.45125 0.33092 0.0
C181 C 0.79336 0.48169 0.2884 0.0
C182 C 0.80017 0.51152 0.31333 0.0
C183 C 0.84236 0.47377 0.32253 0.0
C184 C 0.8298 0.52285 0.34141 0.0
C185 C 0.88587 0.4593 0.3631 0.0
C186 C 0.86565 0.39663 0.31694 0.0
N187 N 0.84949 0.50365 0.34558 0.0
N188 N 0.85246 0.42046 0.30871 0.0
H189 H 0.48391 0.23808 0.2931 0.0
H190 H 0.56846 0.44718 0.37037 0.0
H191 H 0.48133 0.26962 0.41023 0.0
H192 H 0.59863 0.41371 0.26457 0.0
H193 H 0.52263 0.38243 0.38045 0.0
H194 H 0.51171 0.30243 0.27786 0.0
C195 C 0.48876 0.25847 0.31561 0.0
C196 C 0.48092 0.24849 0.35317 0.0
C197 C 0.53891 0.38939 0.35481 0.0
C198 C 0.51285 0.32233 0.33576 0.0
C199 C 0.56488 0.42631 0.34891 0.0
C200 C 0.5877 0.43573 0.31678 0.0
C201 C 0.53552 0.3619 0.32818 0.0
C202 C 0.58196 0.40759 0.28995 0.0
C203 C 0.50469 0.29524 0.30684 0.0
C204 C 0.48736 0.27612 0.38098 0.0
N205 N 0.55663 0.37193 0.29638 0.0
N206 N 0.50339 0.31192 0.37178 0.0
H207 H 0.57079 0.09993 0.29084 0.0
H208 H 0.77361 0.23559 0.39955 0.0
H209 H 0.58238 0.17088 0.38834 0.0
H210 H 0.76512 0.18433 0.28879 0.0
H211 H 0.70258 0.2021 0.40213 0.0
H212 H 0.64095 0.12114 0.29594 0.0
C213 C 0.58798 0.11964 0.31356 0.0
C214 C 0.57079 0.13398 0.33894 0.0
C215 C 0.71629 0.19791 0.37742 0.0
C216 C 0.65091 0.15824 0.34496 0.0
C217 C 0.75688 0.21691 0.37597 0.0
C218 C 0.77534 0.21314 0.34367 0.0
C219 C 0.69398 0.17487 0.34641 0.0
C220 C 0.7521 0.18839 0.31408 0.0
C221 C 0.62801 0.13179 0.31638 0.0
C222 C 0.59447 0.1594 0.36788 0.0
N223 N 0.7126 0.17043 0.31602 0.0
N224 N 0.63333 0.17085 0.36997 0.0
H225 H 0.43414 0.83102 0.58796 0.0
H226 H 0.60795 0.7987 0.66304 0.0
H227 H 0.50696 0.88979 0.68646 0.0
H228 H 0.51386 0.72206 0.58755 0.0
H229 H 0.58028 0.84056 0.66243 0.0
H230 H 0.47264 0.79972 0.578 0.0
C231 C 0.45855 0.83775 0.60726 0.0
C232 C 0.46699 0.86275 0.63844 0.0
C233 C 0.56598 0.81474 0.64572 0.0
C234 C 0.51113 0.82678 0.62714 0.0
C235 C 0.58181 0.7909 0.64591 0.0
C236 C 0.56294 0.75667 0.6256 0.0
C237 C 0.5313 0.80439 0.62477 0.0
C238 C 0.52914 0.748 0.60393 0.0
C239 C 0.48044 0.81973 0.60158 0.0
C240 C 0.49918 0.87047 0.66228 0.0
N241 N 0.51431 0.77162 0.60423 0.0
N242 N 0.51991 0.85229 0.65632 0.0
H243 H 0.30951 0.74442 0.5667 0.0
H244 H 0.17835 0.58494 0.70297 0.0
H245 H 0.2639 0.76579 0.66952 0.0
H246 H 0.25991 0.57924 0.62555 0.0
H247 H 0.19757 0.64739 0.68328 0.0
H248 H 0.27786 0.67913 0.57945 0.0
C249 C 0.29232 0.73534 0.59165 0.0
C250 C 0.2898 0.76067 0.61737 0.0
C251 C 0.21101 0.63226 0.67057 0.0
C252 C 0.25373 0.68603 0.63217 0.0
C253 C 0.2001 0.59674 0.68175 0.0
C254 C 0.21789 0.57713 0.66613 0.0
C255 C 0.23932 0.64777 0.64318 0.0
C256 C 0.2458 0.59356 0.63867 0.0
C257 C 0.27446 0.69809 0.599 0.0
C258 C 0.26694 0.74722 0.64915 0.0
N259 N 0.25562 0.62789 0.62806 0.0
N260 N 0.25001 0.71078 0.65586 0.0
H261 H 0.27759 0.48268 0.74929 0.0
H262 H 0.45135 0.55063 0.61274 0.0
H263 H 0.26387 0.43353 0.63662 0.0
H264 H 0.47066 0.55986 0.73364 0.0
H265 H 0.38268 0.50645 0.62086 0.0
H266 H 0.34836 0.50957 0.74524 0.0
C267 C 0.28946 0.47698 0.72399 0.0
C268 C 0.2649 0.45618 0.6931 0.0
C269 C 0.40208 0.51767 0.64557 0.0
C270 C 0.34568 0.48743 0.688 0.0
C271 C 0.4412 0.54301 0.64096 0.0
C272 C 0.46657 0.55917 0.67259 0.0
C273 C 0.38807 0.50911 0.68211 0.0
C274 C 0.45201 0.54811 0.70851 0.0
C275 C 0.32982 0.49228 0.72171 0.0
C276 C 0.28176 0.44949 0.66106 0.0
N277 N 0.4135 0.52425 0.71237 0.0
N278 N 0.3212 0.46573 0.65901 0.0
H279 H 0.0263 0.34321 0.96244 0.0
H280 H 0.02176 0.36653 0.74062 0.0
H281 H 0.98274 0.25207 0.87926 0.0
H282 H 0.10944 0.44781 0.81847 0.0
H283 H 0.98965 0.32858 0.79377 0.0
H284 H 0.03874 0.38534 0.91166 0.0
C285 C 0.01856 0.33197 0.93359 0.0
C286 C 0.00412 0.29421 0.92488 0.0
C287 C 0.01551 0.35506 0.79915 0.0
C288 C 0.01794 0.34207 0.86708 0.0
C289 C 0.03376 0.37678 0.76896 0.0
C290 C 0.06864 0.41004 0.77521 0.0
C291 C 0.03198 0.36706 0.83574 0.0
C292 C 0.08292 0.42204 0.81245 0.0
C293 C 0.02579 0.35603 0.90472 0.0
C294 C 0.99451 0.2811 0.88706 0.0
N295 N 0.06466 0.40039 0.84137 0.0
N296 N 0.0019 0.30508 0.85944 0.0
H297 H 0.78315 0.75348 0.86941 0.0
H298 H 0.57685 0.70977 0.77696 0.0
H299 H 0.69993 0.77725 0.92587 0.0
H300 H 0.65893 0.68423 0.72075 0.0
H301 H 0.62105 0.7333 0.83244 0.0
H302 H 0.7375 0.72675 0.81508 0.0
C303 C 0.75528 0.75303 0.87042 0.0
C304 C 0.74537 0.76768 0.90218 0.0
C305 C 0.62935 0.72246 0.80801 0.0
C306 C 0.69306 0.7372 0.84019 0.0
C307 C 0.60411 0.709 0.77633 0.0
C308 C 0.61427 0.69512 0.74415 0.0
C309 C 0.66504 0.72208 0.80749 0.0
C310 C 0.64995 0.69477 0.74493 0.0
C311 C 0.72922 0.73776 0.83941 0.0
C312 C 0.70883 0.76631 0.90196 0.0
N313 N 0.6741 0.70815 0.77606 0.0
N314 N 0.68405 0.75141 0.87142 0.0
H315 H 0.37107 0.95229 0.73022 0.0
H316 H 0.29229 0.92396 0.93982 0.0
H317 H 0.34381 0.85472 0.7903 0.0
H318 H 0.29069 0.00371 0.86639 0.0
H319 H 0.32171 0.90392 0.88985 0.0
H320 H 0.35357 0.97772 0.78519 0.0
C321 C 0.36185 0.93636 0.75514 0.0
C322 C 0.35836 0.90106 0.75547 0.0
C323 C 0.31502 0.92589 0.88482 0.0
C324 C 0.33805 0.93003 0.81843 0.0
C325 C 0.29826 0.93735 0.91327 0.0
C326 C 0.28875 0.96534 0.90711 0.0
C327 C 0.32265 0.94283 0.85018 0.0
C328 C 0.29721 0.9818 0.87224 0.0
C329 C 0.3517 0.95086 0.78646 0.0
C330 C 0.34657 0.88189 0.7887 0.0
N331 N 0.31365 0.97027 0.84508 0.0
N332 N 0.3365 0.8965 0.81881 0.0
H333 H 0.46045 0.13868 0.19358 0.0
H334 H 0.25176 0.97984 0.11473 0.0
H335 H 0.37783 0.05363 0.26189 0.0
H336 H 0.33269 0.06903 0.04942 0.0
H337 H 0.29982 0.00286 0.16743 0.0
H338 H 0.41654 0.10941 0.13861 0.0
C339 C 0.43324 0.11365 0.19697 0.0
C340 C 0.42262 0.09879 0.23245 0.0
C341 C 0.30706 0.01726 0.14148 0.0
C342 C 0.37204 0.06529 0.1697 0.0
C343 C 0.27964 0.00416 0.11142 0.0
C344 C 0.2881 0.02269 0.07773 0.0
C345 C 0.34316 0.04906 0.13774 0.0
C346 C 0.32476 0.05397 0.07494 0.0
C347 C 0.40811 0.09699 0.16557 0.0
C348 C 0.38707 0.06619 0.23511 0.0
N349 N 0.35084 0.06622 0.10459 0.0
N350 N 0.3629 0.05068 0.20419 0.0
H351 H 0.03741 0.29246 0.08038 0.0
H352 H 0.93653 0.2428 0.27927 0.0
H353 H 0.00244 0.18878 0.13129 0.0
H354 H 0.97562 0.34783 0.2299 0.0
H355 H 0.96611 0.22461 0.22821 0.0
H356 H 0.02184 0.31574 0.13826 0.0
C357 C 0.02697 0.27475 0.10394 0.0
C358 C 0.02066 0.23843 0.10083 0.0
C359 C 0.96844 0.25173 0.22868 0.0
C360 C 0.00231 0.26476 0.16699 0.0
C361 C 0.95142 0.26208 0.25775 0.0
C362 C 0.95327 0.29675 0.25862 0.0
C363 C 0.98727 0.27614 0.20018 0.0
C364 C 0.97322 0.32072 0.23018 0.0
C365 C 0.01798 0.28804 0.13697 0.0
C366 C 0.00742 0.21685 0.13235 0.0
N367 N 0.98922 0.30986 0.20197 0.0
N368 N -0.00182 0.23019 0.16398 0.0
H369 H 0.69284 0.64724 0.25639 0.0
H370 H 0.74479 0.68056 0.0391 0.0
H371 H 0.71109 0.57196 0.18234 0.0
H372 H 0.75298 0.76592 0.11873 0.0
H373 H 0.72408 0.63754 0.08959 0.0
H374 H 0.70644 0.68816 0.20435 0.0
C375 C 0.69945 0.63919 0.22914 0.0
C376 C 0.70108 0.60625 0.22374 0.0
C377 C 0.73033 0.66566 0.096 0.0
C378 C 0.7166 0.65286 0.16421 0.0
C379 C 0.74209 0.69024 0.06718 0.0
C380 C 0.75085 0.72695 0.07478 0.0
C381 C 0.72709 0.6778 0.13266 0.0
C382 C 0.74674 0.73791 0.11168 0.0
C383 C 0.70732 0.66262 0.19952 0.0
C384 C 0.70977 0.5972 0.18784 0.0
N385 N 0.73519 0.71342 0.13931 0.0
N386 N 0.71726 0.62042 0.15946 0.0
H387 H 0.06932 0.38788 0.62321 0.0
H388 H 0.04324 0.37504 0.39833 0.0
H389 H 0.16214 0.45104 0.54867 0.0
H390 H 0.94784 0.31924 0.47275 0.0
H391 H 0.08844 0.39793 0.45292 0.0
H392 H 0.0258 0.35712 0.56821 0.0
C393 C 0.08066 0.39507 0.59528 0.0
C394 C 0.11934 0.42231 0.5905 0.0
C395 C 0.05765 0.38054 0.45733 0.0
C396 C 0.06965 0.38731 0.52752 0.0
C397 C 0.03179 0.36745 0.42615 0.0
C398 C 0.99165 0.34542 0.43103 0.0
C399 C 0.04331 0.37159 0.49369 0.0
C400 C 0.97854 0.33631 0.46773 0.0
C401 C 0.05576 0.37755 0.5639 0.0
C402 C 0.13246 0.43041 0.55367 0.0
N403 N 0.00431 0.34961 0.49771 0.0
N404 N 0.10759 0.41313 0.52359 0.0
H405 H 0.70097 0.60461 0.38395 0.0
H406 H 0.63464 0.57388 0.59777 0.0
H407 H 0.69348 0.51481 0.4472 0.0
H408 H 0.6285 0.65446 0.52886 0.0
H409 H 0.66493 0.55724 0.54604 0.0
H410 H 0.6839 0.62888 0.44016 0.0
C411 C 0.69616 0.59019 0.40978 0.0
C412 C 0.6982 0.55737 0.41076 0.0
C413 C 0.65716 0.57871 0.54236 0.0
C414 C 0.67834 0.58491 0.47517 0.0
C415 C 0.63988 0.58824 0.57187 0.0
C416 C 0.62867 0.61535 0.56748 0.0
C417 C 0.66336 0.59649 0.50828 0.0
C418 C 0.63634 0.63316 0.53337 0.0
C419 C 0.68629 0.60403 0.44186 0.0
C420 C 0.69193 0.54004 0.44509 0.0
N421 N 0.65303 0.62328 0.50502 0.0
N422 N 0.68192 0.55385 0.47589 0.0
H423 H 0.32962 0.90923 0.53379 0.0
H424 H 0.41893 0.11054 0.46259 0.0
H425 H 0.37491 0.00586 0.61 0.0
H426 H 0.34342 0.01384 0.39213 0.0
H427 H 0.39949 0.0731 0.51774 0.0
H428 H 0.33091 0.94683 0.48208 0.0
C429 C 0.33949 0.93829 0.53971 0.0
C430 C 0.35273 0.95457 0.57612 0.0
C431 C 0.38667 0.06018 0.4903 0.0
C432 C 0.3545 -0.00225 0.5171 0.0
C433 C 0.39781 0.08153 0.45881 0.0
C434 C 0.38322 0.06514 0.42269 0.0
C435 C 0.36129 0.02209 0.4855 0.0
C436 C 0.35564 0.02754 0.41944 0.0
C437 C 0.34005 0.95971 0.51022 0.0
C438 C 0.36478 -0.00775 0.58229 0.0
N439 N 0.34609 0.00712 0.45039 0.0
N440 N 0.36594 0.0127 0.55293 0.0
loop_
_geom_bond_atom_site_label_1
_geom_bond_atom_site_label_2
_geom_bond_distance
_geom_bond_site_symmetry_2
_ccdc_geom_bond_type
C0 O1 1.160 . S
C0 O7 1.185 . S
O1 C0 1.160 . S
O2 Zn3 1.900 . S
O2 C10 1.290 . S
Zn3 O2 1.900 . S
Zn3 O4 2.032 . S
Zn3 O7 2.086 1_554 S
Zn3 O12 1.977 1_454 S
O4 Zn3 2.032 . S
O4 C8 1.278 . S
C5 O6 1.203 . S
C5 O12 1.267 1_554 S
O6 C5 1.203 . S
O7 C0 1.185 . S
O7 Zn3 2.086 1_556 S
C8 O4 1.278 . S
C8 O9 1.211 1_455 S
O9 C8 1.211 1_655 S
C10 O2 1.290 . S
C10 O11 1.273 . S
O11 C10 1.273 . S
O12 Zn3 1.977 1_656 S
O12 C5 1.267 1_556 S
C13 O14 1.160 . S
C13 O20 1.185 . S
O14 C13 1.160 . S
O15 Zn16 1.899 . S
O15 C23 1.284 1_554 S
Zn16 O15 1.899 . S
Zn16 O17 2.032 1_554 S
Zn16 O20 2.086 . S
Zn16 O25 1.977 . S
O17 Zn16 2.032 1_556 S
O17 C21 1.278 . S
C18 O19 1.203 1_554 S
C18 O25 1.267 . S
O19 C18 1.203 1_556 S
O20 C13 1.185 . S
O20 Zn16 2.086 . S
C21 O17 1.278 . S
C21 O22 1.211 . S
O22 C21 1.211 . S
C23 O15 1.284 1_556 S
C23 O24 1.273 . S
O24 C23 1.273 . S
O25 Zn16 1.977 . S
O25 C18 1.267 . S
C26 O27 1.160 . S
C26 O33 1.185 1_565 S
O27 C26 1.160 . S
O28 Zn29 1.899 1_565 S
O28 C36 1.284 1_556 S
Zn29 O28 1.899 1_545 S
Zn29 O30 2.032 1_556 S
Zn29 O33 2.086 . S
Zn29 O38 1.977 . S
O30 Zn29 2.032 1_554 S
O30 C34 1.278 . S
C31 O32 1.203 . S
C31 O38 1.267 1_554 S
O32 C31 1.203 . S
O33 C26 1.185 1_545 S
O33 Zn29 2.086 . S
C34 O30 1.278 . S
C34 O35 1.211 . S
O35 C34 1.211 . S
C36 O28 1.284 1_554 S
C36 O37 1.273 . S
O37 C36 1.273 . S
O38 Zn29 1.977 . S
O38 C31 1.267 1_556 S
C39 O40 1.160 . S
C39 O46 1.185 . S
O40 C39 1.160 . S
O41 Zn42 1.899 . S
O41 C49 1.284 . S
Zn42 O41 1.899 . S
Zn42 O43 2.032 . S
Zn42 O46 2.086 . S
Zn42 O51 1.977 . S
O43 Zn42 2.032 . S
O43 C47 1.278 . S
C44 O45 1.203 . S
C44 O51 1.267 . S
O45 C44 1.203 . S
O46 C39 1.185 . S
O46 Zn42 2.086 . S
C47 O43 1.278 . S
C47 O48 1.211 . S
O48 C47 1.211 . S
C49 O41 1.284 . S
C49 O50 1.273 . S
O50 C49 1.273 . S
O51 Zn42 1.977 . S
O51 C44 1.267 . S
C52 O53 1.160 . S
C52 O59 1.185 . S
O53 C52 1.160 . S
O54 Zn55 1.899 . S
O54 C62 1.284 . S
Zn55 O54 1.899 . S
Zn55 O56 2.032 . S
Zn55 O59 2.086 . S
Zn55 O64 1.977 . S
O56 Zn55 2.032 . S
O56 C60 1.278 . S
C57 O58 1.203 . S
C57 O64 1.267 . S
O58 C57 1.203 . S
O59 C52 1.185 . S
O59 Zn55 2.086 . S
C60 O56 1.278 . S
C60 O61 1.211 . S
O61 C60 1.211 . S
C62 O54 1.284 . S
C62 O63 1.273 . S
O63 C62 1.273 . S
O64 Zn55 1.977 . S
O64 C57 1.267 . S
C65 O66 1.160 . S
C65 O72 1.185 . S
O66 C65 1.160 . S
O67 Zn68 1.899 . S
O67 C75 1.284 . S
Zn68 O67 1.899 . S
Zn68 O69 2.032 . S
Zn68 O72 2.086 . S
Zn68 O77 1.977 . S
O69 Zn68 2.032 . S
O69 C73 1.278 . S
C70 O71 1.203 . S
C70 O77 1.267 . S
O71 C70 1.203 . S
O72 C65 1.185 . S
O72 Zn68 2.086 . S
C73 O69 1.278 . S
C73 O74 1.211 . S
O74 C73 1.211 . S
C75 O67 1.284 . S
C75 O76 1.273 . S
O76 C75 1.273 . S
O77 Zn68 1.977 . S
O77 C70 1.267 . S
C78 O79 1.160 . S
C78 O85 1.185 . S
O79 C78 1.160 . S
O80 Zn81 1.899 . S
O80 C88 1.284 . S
Zn81 O80 1.899 . S
Zn81 O82 2.032 . S
Zn81 O85 2.086 . S
Zn81 O90 1.977 . S
O82 Zn81 2.032 . S
O82 C86 1.278 . S
C83 O84 1.203 . S
C83 O90 1.267 . S
O84 C83 1.203 . S
O85 C78 1.185 . S
O85 Zn81 2.086 . S
C86 O82 1.278 . S
C86 O87 1.211 . S
O87 C86 1.211 . S
C88 O80 1.284 . S
C88 O89 1.273 . S
O89 C88 1.273 . S
O90 Zn81 1.977 . S
O90 C83 1.267 . S
C91 O92 1.160 . S
C91 O98 1.185 . S
O92 C91 1.160 . S
O93 Zn94 1.899 . S
O93 C101 1.284 . S
Zn94 O93 1.899 . S
Zn94 O95 2.032 . S
Zn94 O98 2.086 . S
Zn94 O103 1.977 . S
O95 Zn94 2.032 . S
O95 C99 1.278 . S
C96 O97 1.203 . S
C96 O103 1.267 . S
O97 C96 1.203 . S
O98 C91 1.185 . S
O98 Zn94 2.086 . S
C99 O95 1.278 . S
C99 O100 1.211 . S
O100 C99 1.211 . S
C101 O93 1.284 . S
C101 O102 1.273 . S
O102 C101 1.273 . S
O103 Zn94 1.977 . S
O103 C96 1.267 . S
C104 O105 1.160 . S
C104 O111 1.185 . S
O105 C104 1.160 . S
O106 Zn107 1.899 . S
O106 C114 1.284 . S
Zn107 O106 1.899 . S
Zn107 O108 2.032 . S
Zn107 O111 2.086 . S
Zn107 O116 1.977 . S
O108 Zn107 2.032 . S
O108 C112 1.278 . S
C109 O110 1.203 . S
C109 O116 1.267 . S
O110 C109 1.203 . S
O111 C104 1.185 . S
O111 Zn107 2.086 . S
C112 O108 1.278 . S
C112 O113 1.211 . S
O113 C112 1.211 . S
C114 O106 1.284 . S
C114 O115 1.273 . S
O115 C114 1.273 . S
O116 Zn107 1.977 . S
O116 C109 1.267 . S
H117 C123 0.930 . S
H118 C127 0.930 . S
H119 C132 0.929 . S
H120 C130 0.929 . S
H121 C125 0.929 . S
H122 C131 0.929 . S
C123 H117 0.930 . S
C123 C124 1.378 . S
C123 C131 1.378 . S
C124 C123 1.378 . S
C124 C132 1.423 1_554 S
C125 H121 0.929 . S
C125 C127 1.378 . S
C125 C129 1.350 1_556 S
C126 C129 1.463 . S
C126 C131 1.350 . S
C126 N134 1.427 1_554 S
C127 H118 0.930 . S
C127 C125 1.378 . S
C127 C128 1.367 1_556 S
C128 C127 1.367 1_554 S
C128 C130 1.433 . S
C129 C125 1.350 1_554 S
C129 C126 1.463 . S
C129 N133 1.427 . S
C130 H120 0.929 . S
C130 C128 1.433 . S
C130 N133 1.384 . S
C131 H122 0.929 . S
C131 C123 1.378 . S
C131 C126 1.350 . S
C132 H119 0.929 . S
C132 C124 1.423 1_556 S
C132 N134 1.384 . S
N133 C129 1.427 . S
N133 C130 1.384 . S
N134 C126 1.427 1_556 S
N134 C132 1.384 . S
H135 C141 0.930 . S
H136 C145 0.930 . S
H137 C150 0.929 . S
H138 C148 0.929 . S
H139 C143 0.929 . S
H140 C149 0.929 . S
C141 H135 0.930 . S
C141 C142 1.367 . S
C141 C149 1.378 . S
C142 C141 1.367 . S
C142 C150 1.433 1_554 S
C143 H139 0.929 . S
C143 C145 1.378 . S
C143 C147 1.350 1_556 S
C144 C147 1.463 1_565 S
C144 C149 1.350 . S
C144 N152 1.427 1_554 S
C145 H136 0.930 . S
C145 C143 1.378 . S
C145 C146 1.379 . S
C146 C145 1.379 . S
C146 C148 1.417 1_556 S
C147 C143 1.350 1_554 S
C147 C144 1.463 1_545 S
C147 N151 1.427 . S
C148 H138 0.929 . S
C148 C146 1.417 1_554 S
C148 N151 1.384 . S
C149 H140 0.929 . S
C149 C141 1.378 . S
C149 C144 1.350 . S
C150 H137 0.929 . S
C150 C142 1.433 1_556 S
C150 N152 1.384 . S
N151 C147 1.427 . S
N151 C148 1.384 . S
N152 C144 1.427 1_556 S
N152 C150 1.384 . S
H153 C159 0.930 . S
H154 C163 0.930 . S
H155 C168 0.929 . S
H156 C166 0.929 . S
H157 C161 0.929 . S
H158 C167 0.929 . S
C159 H153 0.930 . S
C159 C160 1.367 . S
C159 C167 1.378 . S
C160 C159 1.367 . S
C160 C168 1.433 1_556 S
C161 H157 0.929 . S
C161 C163 1.378 . S
C161 C165 1.350 . S
C162 C165 1.463 . S
C162 C167 1.350 1_454 S
C162 N170 1.427 1_455 S
C163 H154 0.930 . S
C163 C161 1.378 . S
C163 C164 1.367 . S
C164 C163 1.367 . S
C164 C166 1.433 . S
C165 C161 1.350 . S
C165 C162 1.463 . S
C165 N169 1.427 . S
C166 H156 0.929 . S
C166 C164 1.433 . S
C166 N169 1.384 . S
C167 H158 0.929 . S
C167 C159 1.378 . S
C167 C162 1.350 1_656 S
C168 H155 0.929 . S
C168 C160 1.433 1_554 S
C168 N170 1.384 . S
N169 C165 1.427 . S
N169 C166 1.384 . S
N170 C162 1.427 1_655 S
N170 C168 1.384 . S
H171 C177 0.930 . S
H172 C181 0.930 . S
H173 C186 0.929 . S
H174 C184 0.929 . S
H175 C179 0.929 . S
H176 C185 0.929 . S
C177 H171 0.930 . S
C177 C178 1.367 . S
C177 C185 1.378 . S
C178 C177 1.367 . S
C178 C186 1.433 . S
C179 H175 0.929 . S
C179 C181 1.378 . S
C179 C183 1.350 . S
C180 C183 1.463 . S
C180 C185 1.350 . S
C180 N188 1.427 . S
C181 H172 0.930 . S
C181 C179 1.378 . S
C181 C182 1.367 . S
C182 C181 1.367 . S
C182 C184 1.433 . S
C183 C179 1.350 . S
C183 C180 1.463 . S
C183 N187 1.427 . S
C184 H174 0.929 . S
C184 C182 1.433 . S
C184 N187 1.384 . S
C185 H176 0.929 . S
C185 C177 1.378 . S
C185 C180 1.350 . S
C186 H173 0.929 . S
C186 C178 1.433 . S
C186 N188 1.384 . S
N187 C183 1.427 . S
N187 C184 1.384 . S
N188 C180 1.427 . S
N188 C186 1.384 . S
H189 C195 0.930 . S
H190 C199 0.930 . S
H191 C204 0.929 . S
H192 C202 0.929 . S
H193 C197 0.929 . S
H194 C203 0.929 . S
C195 H189 0.930 . S
C195 C196 1.367 . S
C195 C203 1.378 . S
C196 C195 1.367 . S
C196 C204 1.433 . S
C197 H193 0.929 . S
C197 C199 1.378 . S
C197 C201 1.350 . S
C198 C201 1.463 . S
C198 C203 1.350 . S
C198 N206 1.427 . S
C199 H190 0.930 . S
C199 C197 1.378 . S
C199 C200 1.367 . S
C200 C199 1.367 . S
C200 C202 1.433 . S
C201 C197 1.350 . S
C201 C198 1.463 . S
C201 N205 1.427 . S
C202 H192 0.929 . S
C202 C200 1.433 . S
C202 N205 1.384 . S
C203 H194 0.929 . S
C203 C195 1.378 . S
C203 C198 1.350 . S
C204 H191 0.929 . S
C204 C196 1.433 . S
C204 N206 1.384 . S
N205 C201 1.427 . S
N205 C202 1.384 . S
N206 C198 1.427 . S
N206 C204 1.384 . S
H207 C213 0.930 . S
H208 C217 0.930 . S
H209 C222 0.929 . S
H210 C220 0.929 . S
H211 C215 0.929 . S
H212 C221 0.929 . S
C213 H207 0.930 . S
C213 C214 1.367 . S
C213 C221 1.378 . S
C214 C213 1.367 . S
C214 C222 1.433 . S
C215 H211 0.929 . S
C215 C217 1.378 . S
C215 C219 1.350 . S
C216 C219 1.463 . S
C216 C221 1.350 . S
C216 N224 1.427 . S
C217 H208 0.930 . S
C217 C215 1.378 . S
C217 C218 1.367 . S
C218 C217 1.367 . S
C218 C220 1.433 . S
C219 C215 1.350 . S
C219 C216 1.463 . S
C219 N223 1.427 . S
C220 H210 0.929 . S
C220 C218 1.433 . S
C220 N223 1.384 . S
C221 H212 0.929 . S
C221 C213 1.378 . S
C221 C216 1.350 . S
C222 H209 0.929 . S
C222 C214 1.433 . S
C222 N224 1.384 . S
N223 C219 1.427 . S
N223 C220 1.384 . S
N224 C216 1.427 . S
N224 C222 1.384 . S
H225 C231 0.930 . S
H226 C235 0.930 . S
H227 C240 0.929 . S
H228 C238 0.929 . S
H229 C233 0.929 . S
H230 C239 0.929 . S
C231 H225 0.930 . S
C231 C232 1.367 . S
C231 C239 1.378 . S
C232 C231 1.367 . S
C232 C240 1.433 . S
C233 H229 0.929 . S
C233 C235 1.378 . S
C233 C237 1.350 . S
C234 C237 1.463 . S
C234 C239 1.350 . S
C234 N242 1.427 . S
C235 H226 0.930 . S
C235 C233 1.378 . S
C235 C236 1.367 . S
C236 C235 1.367 . S
C236 C238 1.433 . S
C237 C233 1.350 . S
C237 C234 1.463 . S
C237 N241 1.427 . S
C238 H228 0.929 . S
C238 C236 1.433 . S
C238 N241 1.384 . S
C239 H230 0.929 . S
C239 C231 1.378 . S
C239 C234 1.350 . S
C240 H227 0.929 . S
C240 C232 1.433 . S
C240 N242 1.384 . S
N241 C237 1.427 . S
N241 C238 1.384 . S
N242 C234 1.427 . S
N242 C240 1.384 . S
H243 C249 0.930 . S
H244 C253 0.930 . S
H245 C258 0.929 . S
H246 C256 0.929 . S
H247 C251 0.929 . S
H248 C257 0.929 . S
C249 H243 0.930 . S
C249 C250 1.367 . S
C249 C257 1.378 . S
C250 C249 1.367 . S
C250 C258 1.433 . S
C251 H247 0.929 . S
C251 C253 1.378 . S
C251 C255 1.350 . S
C252 C255 1.463 . S
C252 C257 1.350 . S
C252 N260 1.427 . S
C253 H244 0.930 . S
C253 C251 1.378 . S
C253 C254 1.367 . S
C254 C253 1.367 . S
C254 C256 1.433 . S
C255 C251 1.350 . S
C255 C252 1.463 . S
C255 N259 1.427 . S
C256 H246 0.929 . S
C256 C254 1.433 . S
C256 N259 1.384 . S
C257 H248 0.929 . S
C257 C249 1.378 . S
C257 C252 1.350 . S
C258 H245 0.929 . S
C258 C250 1.433 . S
C258 N260 1.384 . S
N259 C255 1.427 . S
N259 C256 1.384 . S
N260 C252 1.427 . S
N260 C258 1.384 . S
H261 C267 0.930 . S
H262 C271 0.930 . S
H263 C276 0.929 . S
H264 C274 0.929 . S
H265 C269 0.929 . S
H266 C275 0.929 . S
C267 H261 0.930 . S
C267 C268 1.367 . S
C267 C275 1.378 . S
C268 C267 1.367 . S
C268 C276 1.433 . S
C269 H265 0.929 . S
C269 C271 1.378 . S
C269 C273 1.350 . S
C270 C273 1.463 . S
C270 C275 1.350 . S
C270 N278 1.427 . S
C271 H262 0.930 . S
C271 C269 1.378 . S
C271 C272 1.367 . S
C272 C271 1.367 . S
C272 C274 1.433 . S
C273 C269 1.350 . S
C273 C270 1.463 . S
C273 N277 1.427 . S
C274 H264 0.929 . S
C274 C272 1.433 . S
C274 N277 1.384 . S
C275 H266 0.929 . S
C275 C267 1.378 . S
C275 C270 1.350 . S
C276 H263 0.929 . S
C276 C268 1.433 . S
C276 N278 1.384 . S
N277 C273 1.427 . S
N277 C274 1.384 . S
N278 C270 1.427 . S
N278 C276 1.384 . S
H279 C285 0.930 . S
H280 C289 0.930 . S
H281 C294 0.929 . S
H282 C292 0.929 . S
H283 C287 0.929 . S
H284 C293 0.929 . S
C285 H279 0.930 . S
C285 C286 1.367 . S
C285 C293 1.378 . S
C286 C285 1.367 . S
C286 C294 1.433 . S
C287 H283 0.929 . S
C287 C289 1.378 . S
C287 C291 1.350 . S
C288 C291 1.463 . S
C288 C293 1.350 . S
C288 N296 1.427 . S
C289 H280 0.930 . S
C289 C287 1.378 . S
C289 C290 1.367 . S
C290 C289 1.367 . S
C290 C292 1.433 . S
C291 C287 1.350 . S
C291 C288 1.463 . S
C291 N295 1.427 . S
C292 H282 0.929 . S
C292 C290 1.433 . S
C292 N295 1.384 . S
C293 H284 0.929 . S
C293 C285 1.378 . S
C293 C288 1.350 . S
C294 H281 0.929 . S
C294 C286 1.433 . S
C294 N296 1.384 . S
N295 C291 1.427 . S
N295 C292 1.384 . S
N296 C288 1.427 . S
N296 C294 1.384 . S
H297 C303 0.930 . S
H298 C307 0.930 . S
H299 C312 0.929 . S
H300 C310 0.929 . S
H301 C305 0.929 . S
H302 C311 0.929 . S
C303 H297 0.930 . S
C303 C304 1.367 . S
C303 C311 1.378 . S
C304 C303 1.367 . S
C304 C312 1.433 . S
C305 H301 0.929 . S
C305 C307 1.378 . S
C305 C309 1.350 . S
C306 C309 1.463 . S
C306 C311 1.350 . S
C306 N314 1.427 . S
C307 H298 0.930 . S
C307 C305 1.378 . S
C307 C308 1.367 . S
C308 C307 1.367 . S
C308 C310 1.433 . S
C309 C305 1.350 . S
C309 C306 1.463 . S
C309 N313 1.427 . S
C310 H300 0.929 . S
C310 C308 1.433 . S
C310 N313 1.384 . S
C311 H302 0.929 . S
C311 C303 1.378 . S
C311 C306 1.350 . S
C312 H299 0.929 . S
C312 C304 1.433 . S
C312 N314 1.384 . S
N313 C309 1.427 . S
N313 C310 1.384 . S
N314 C306 1.427 . S
N314 C312 1.384 . S
H315 C321 0.930 . S
H316 C325 0.930 . S
H317 C330 0.929 . S
H318 C328 0.929 . S
H319 C323 0.929 . S
H320 C329 0.929 . S
C321 H315 0.930 . S
C321 C322 1.367 . S
C321 C329 1.378 . S
C322 C321 1.367 . S
C322 C330 1.433 . S
C323 H319 0.929 . S
C323 C325 1.378 . S
C323 C327 1.350 . S
C324 C327 1.463 . S
C324 C329 1.350 . S
C324 N332 1.427 . S
C325 H316 0.930 . S
C325 C323 1.378 . S
C325 C326 1.367 . S
C326 C325 1.367 . S
C326 C328 1.433 1_565 S
C327 C323 1.350 . S
C327 C324 1.463 . S
C327 N331 1.427 . S
C328 H318 0.929 . S
C328 C326 1.433 1_545 S
C328 N331 1.384 1_545 S
C329 H320 0.929 . S
C329 C321 1.378 . S
C329 C324 1.350 . S
C330 H317 0.929 . S
C330 C322 1.433 . S
C330 N332 1.384 . S
N331 C327 1.427 . S
N331 C328 1.384 1_565 S
N332 C324 1.427 . S
N332 C330 1.384 . S
H333 C339 0.930 . S
H334 C343 0.930 1_565 S
H335 C348 0.929 . S
H336 C346 0.929 . S
H337 C341 0.929 . S
H338 C347 0.929 . S
C339 H333 0.930 . S
C339 C340 1.367 . S
C339 C347 1.378 . S
C340 C339 1.367 . S
C340 C348 1.433 . S
C341 H337 0.929 . S
C341 C343 1.378 . S
C341 C345 1.350 . S
C342 C345 1.463 . S
C342 C347 1.350 . S
C342 N350 1.427 . S
C343 H334 0.930 1_545 S
C343 C341 1.378 . S
C343 C344 1.367 . S
C344 C343 1.367 . S
C344 C346 1.433 . S
C345 C341 1.350 . S
C345 C342 1.463 . S
C345 N349 1.427 . S
C346 H336 0.929 . S
C346 C344 1.433 . S
C346 N349 1.384 . S
C347 H338 0.929 . S
C347 C339 1.378 . S
C347 C342 1.350 . S
C348 H335 0.929 . S
C348 C340 1.433 . S
C348 N350 1.384 . S
N349 C345 1.427 . S
N349 C346 1.384 . S
N350 C342 1.427 . S
N350 C348 1.384 . S
H351 C357 0.930 1_455 S
H352 C361 0.930 . S
H353 C366 0.929 . S
H354 C364 0.929 . S
H355 C359 0.929 . S
H356 C365 0.929 . S
C357 H351 0.930 1_655 S
C357 C358 1.377 . S
C357 C365 1.379 . S
C358 C357 1.377 . S
C358 C366 1.435 . S
C359 H355 0.929 . S
C359 C361 1.378 . S
C359 C363 1.350 . S
C360 C363 1.463 . S
C360 C365 1.350 . S
C360 N368 1.427 . S
C361 H352 0.930 . S
C361 C359 1.378 . S
C361 C362 1.367 . S
C362 C361 1.367 . S
C362 C364 1.433 . S
C363 C359 1.350 . S
C363 C360 1.463 . S
C363 N367 1.427 . S
C364 H354 0.929 . S
C364 C362 1.433 . S
C364 N367 1.384 . S
C365 H356 0.929 . S
C365 C357 1.379 . S
C365 C360 1.350 . S
C366 H353 0.929 . S
C366 C358 1.435 . S
C366 N368 1.384 . S
N367 C363 1.427 . S
N367 C364 1.384 . S
N368 C360 1.427 . S
N368 C366 1.384 . S
H369 C375 0.930 . S
H370 C379 0.930 . S
H371 C384 0.929 . S
H372 C382 0.929 . S
H373 C377 0.929 . S
H374 C383 0.929 . S
C375 H369 0.930 . S
C375 C376 1.367 . S
C375 C383 1.378 . S
C376 C375 1.367 . S
C376 C384 1.433 . S
C377 H373 0.929 . S
C377 C379 1.378 . S
C377 C381 1.350 . S
C378 C381 1.463 . S
C378 C383 1.350 . S
C378 N386 1.427 . S
C379 H370 0.930 . S
C379 C377 1.378 . S
C379 C380 1.367 . S
C380 C379 1.367 . S
C380 C382 1.433 . S
C381 C377 1.350 . S
C381 C378 1.463 . S
C381 N385 1.427 . S
C382 H372 0.929 . S
C382 C380 1.433 . S
C382 N385 1.384 . S
C383 H374 0.929 . S
C383 C375 1.378 . S
C383 C378 1.350 . S
C384 H371 0.929 . S
C384 C376 1.433 . S
C384 N386 1.384 . S
N385 C381 1.427 . S
N385 C382 1.384 . S
N386 C378 1.427 . S
N386 C384 1.384 . S
H387 C393 0.930 . S
H388 C397 0.930 . S
H389 C402 0.929 . S
H390 C400 0.929 . S
H391 C395 0.929 . S
H392 C401 0.929 . S
C393 H387 0.930 . S
C393 C394 1.367 . S
C393 C401 1.378 . S
C394 C393 1.367 . S
C394 C402 1.433 . S
C395 H391 0.929 . S
C395 C397 1.378 . S
C395 C399 1.350 . S
C396 C399 1.463 . S
C396 C401 1.350 . S
C396 N404 1.427 . S
C397 H388 0.930 . S
C397 C395 1.378 . S
C397 C398 1.367 1_455 S
C398 C397 1.367 1_655 S
C398 C400 1.433 . S
C399 C395 1.350 . S
C399 C396 1.463 . S
C399 N403 1.427 1_455 S
C400 H390 0.929 . S
C400 C398 1.433 . S
C400 N403 1.384 . S
C401 H392 0.929 . S
C401 C393 1.378 . S
C401 C396 1.350 . S
C402 H389 0.929 . S
C402 C394 1.433 . S
C402 N404 1.384 . S
N403 C399 1.427 1_655 S
N403 C400 1.384 . S
N404 C396 1.427 . S
N404 C402 1.384 . S
H405 C411 0.930 . S
H406 C415 0.930 . S
H407 C420 0.929 . S
H408 C418 0.929 . S
H409 C413 0.929 . S
H410 C419 0.929 . S
C411 H405 0.930 . S
C411 C412 1.367 . S
C411 C419 1.378 . S
C412 C411 1.367 . S
C412 C420 1.433 . S
C413 H409 0.929 . S
C413 C415 1.378 . S
C413 C417 1.350 . S
C414 C417 1.463 . S
C414 C419 1.350 . S
C414 N422 1.427 . S
C415 H406 0.930 . S
C415 C413 1.378 . S
C415 C416 1.367 . S
C416 C415 1.367 . S
C416 C418 1.433 . S
C417 C413 1.350 . S
C417 C414 1.463 . S
C417 N421 1.427 . S
C418 H408 0.929 . S
C418 C416 1.433 . S
C418 N421 1.384 . S
C419 H410 0.929 . S
C419 C411 1.378 . S
C419 C414 1.350 . S
C420 H407 0.929 . S
C420 C412 1.433 . S
C420 N422 1.384 . S
N421 C417 1.427 . S
N421 C418 1.384 . S
N422 C414 1.427 . S
N422 C420 1.384 . S
H423 C429 0.930 . S
H424 C433 0.930 . S
H425 C438 0.929 . S
H426 C436 0.929 . S
H427 C431 0.929 . S
H428 C437 0.929 . S
C429 H423 0.930 . S
C429 C430 1.367 . S
C429 C437 1.378 . S
C430 C429 1.367 . S
C430 C438 1.433 . S
C431 H427 0.929 . S
C431 C433 1.378 . S
C431 C435 1.350 . S
C432 C435 1.463 1_565 S
C432 C437 1.350 . S
C432 N440 1.427 1_565 S
C433 H424 0.930 . S
C433 C431 1.378 . S
C433 C434 1.367 . S
C434 C433 1.367 . S
C434 C436 1.433 . S
C435 C431 1.350 . S
C435 C432 1.463 1_545 S
C435 N439 1.427 . S
C436 H426 0.929 . S
C436 C434 1.433 . S
C436 N439 1.384 . S
C437 H428 0.929 . S
C437 C429 1.378 . S
C437 C432 1.350 . S
C438 H425 0.929 . S
C438 C430 1.433 . S
C438 N440 1.384 1_565 S
N439 C435 1.427 . S
N439 C436 1.384 . S
N440 C432 1.427 1_545 S
N440 C438 1.384 1_545 S
C124 C31 0.959 . S
C128 C10 1.014 . S
C142 C18 0.975 . S
C146 C5 0.981 1_556 S
C160 C23 1.012 . S
C164 C36 1.024 . S
C178 C75 1.009 . S
C182 C49 0.995 . S
C196 C57 0.943 . S
C200 C44 0.924 . S
C214 C62 1.024 . S
C218 C70 0.956 . S
C232 C88 1.004 . S
C236 C109 0.936 . S
C250 C83 0.891 . S
C254 C96 0.918 . S
C268 C101 1.002 . S
C272 C114 1.000 . S
C286 C0 1.299 . S
C290 C91 1.303 . S
C304 C21 1.305 . S
C308 C112 1.301 . S
C322 C86 1.255 . S
C326 C26 1.244 . S
C340 C60 1.240 . S
C344 C34 1.261 . S
C358 C8 1.281 1_655 S
C362 C73 1.288 . S
C376 C39 1.290 . S
C380 C13 1.294 . S
C394 C99 1.272 . S
C398 C65 1.268 . S
C412 C47 1.306 . S
C416 C104 1.303 . S
C430 C78 1.317 . S
C434 C52 1.299 . S
