# Generated by pormake.
# Topology uoy, (4)-cn, num edge types: 1
# Building blocks:
#     Node 0, Type 0, BuildingBlock: ICAMEG_clean_sbu_1, # of connection points: 4
#     Node 1, Type 0, BuildingBlock: ICAMEG_clean_sbu_1, # of connection points: 4
#     Node 2, Type 0, BuildingBlock: ICAMEG_clean_sbu_1, # of connection points: 4
#     Node 3, Type 0, BuildingBlock: ICAMEG_clean_sbu_1, # of connection points: 4
#     Node 4, Type 0, BuildingBlock: ICAMEG_clean_sbu_1, # of connection points: 4
#     Node 5, Type 0, BuildingBlock: ICAMEG_clean_sbu_1, # of connection points: 4
#     Node 6, Type 0, BuildingBlock: ICAMEG_clean_sbu_1, # of connection points: 4
#     Node 7, Type 0, BuildingBlock: ICAMEG_clean_sbu_1, # of connection points: 4
#     Node 8, Type 0, BuildingBlock: ICAMEG_clean_sbu_1, # of connection points: 4
#     Node 9, Type 0, BuildingBlock: ICAMEG_clean_sbu_1, # of connection points: 4
#     Node 10, Type 0, BuildingBlock: ICAMEG_clean_sbu_1, # of connection points: 4
#     Node 11, Type 0, BuildingBlock: ICAMEG_clean_sbu_1, # of connection points: 4
#     Node 12, Type 0, BuildingBlock: ICAMEG_clean_sbu_1, # of connection points: 4
#     Node 13, Type 0, BuildingBlock: ICAMEG_clean_sbu_1, # of connection points: 4
#     Node 14, Type 0, BuildingBlock: ICAMEG_clean_sbu_1, # of connection points: 4
#     Node 15, Type 0, BuildingBlock: ICAMEG_clean_sbu_1, # of connection points: 4
#     Edge 16, Type (0, 0), BuildingBlock: XUDNAN_clean_linker_2, # of connection points: 2
#     Edge 17, Type (0, 0), BuildingBlock: XUDNAN_clean_linker_2, # of connection points: 2
#     Edge 18, Type (0, 0), BuildingBlock: XUDNAN_clean_linker_2, # of connection points: 2
#     Edge 19, Type (0, 0), BuildingBlock: XUDNAN_clean_linker_2, # of connection points: 2
#     Edge 20, Type (0, 0), BuildingBlock: XUDNAN_clean_linker_2, # of connection points: 2
#     Edge 21, Type (0, 0), BuildingBlock: XUDNAN_clean_linker_2, # of connection points: 2
#     Edge 22, Type (0, 0), BuildingBlock: XUDNAN_clean_linker_2, # of connection points: 2
#     Edge 23, Type (0, 0), BuildingBlock: XUDNAN_clean_linker_2, # of connection points: 2
#     Edge 24, Type (0, 0), BuildingBlock: XUDNAN_clean_linker_2, # of connection points: 2
#     Edge 25, Type (0, 0), BuildingBlock: XUDNAN_clean_linker_2, # of connection points: 2
#     Edge 26, Type (0, 0), BuildingBlock: XUDNAN_clean_linker_2, # of connection points: 2
#     Edge 27, Type (0, 0), BuildingBlock: XUDNAN_clean_linker_2, # of connection points: 2
#     Edge 28, Type (0, 0), BuildingBlock: XUDNAN_clean_linker_2, # of connection points: 2
#     Edge 29, Type (0, 0), BuildingBlock: XUDNAN_clean_linker_2, # of connection points: 2
#     Edge 30, Type (0, 0), BuildingBlock: XUDNAN_clean_linker_2, # of connection points: 2
#     Edge 31, Type (0, 0), BuildingBlock: XUDNAN_clean_linker_2, # of connection points: 2
#     Edge 32, Type (0, 0), BuildingBlock: XUDNAN_clean_linker_2, # of connection points: 2
#     Edge 33, Type (0, 0), BuildingBlock: XUDNAN_clean_linker_2, # of connection points: 2
#     Edge 34, Type (0, 0), BuildingBlock: XUDNAN_clean_linker_2, # of connection points: 2
#     Edge 35, Type (0, 0), BuildingBlock: XUDNAN_clean_linker_2, # of connection points: 2
#     Edge 36, Type (0, 0), BuildingBlock: XUDNAN_clean_linker_2, # of connection points: 2
#     Edge 37, Type (0, 0), BuildingBlock: XUDNAN_clean_linker_2, # of connection points: 2
#     Edge 38, Type (0, 0), BuildingBlock: XUDNAN_clean_linker_2, # of connection points: 2
#     Edge 39, Type (0, 0), BuildingBlock: XUDNAN_clean_linker_2, # of connection points: 2
#     Edge 40, Type (0, 0), BuildingBlock: XUDNAN_clean_linker_2, # of connection points: 2
#     Edge 41, Type (0, 0), BuildingBlock: XUDNAN_clean_linker_2, # of connection points: 2
#     Edge 42, Type (0, 0), BuildingBlock: XUDNAN_clean_linker_2, # of connection points: 2
#     Edge 43, Type (0, 0), BuildingBlock: XUDNAN_clean_linker_2, # of connection points: 2
#     Edge 44, Type (0, 0), BuildingBlock: XUDNAN_clean_linker_2, # of connection points: 2
#     Edge 45, Type (0, 0), BuildingBlock: XUDNAN_clean_linker_2, # of connection points: 2
#     Edge 46, Type (0, 0), BuildingBlock: XUDNAN_clean_linker_2, # of connection points: 2
#     Edge 47, Type (0, 0), BuildingBlock: XUDNAN_clean_linker_2, # of connection points: 2
# Relax obj value: 0.022
# Max RMSD: 0.075
# Mean RMSD: 0.075
data_MOF--net-uoy--node1-ICAMEG_clean_sbu_1--edge1-XUDNAN_clean_linker_2
_symmetry_space_group_name_H-M    P1
_symmetry_Int_Tables_number       1
_symmetry_cell_setting            triclinic
loop_
_symmetry_equiv_pos_as_xyz
'x, y, z'
_cell_length_a     28.940013
_cell_length_b     28.940395
_cell_length_c     116.43393
_cell_angle_alpha  89.95373
_cell_angle_beta   90.023581
_cell_angle_gamma 90.012473
loop_
_atom_site_label
_atom_site_type_symbol
_atom_site_fract_x
_atom_site_fract_y
_atom_site_fract_z
_atom_type_partial_charge
Co0 Co 0.28813 0.18515 0.19345 0.0
Co1 Co 0.26242 0.0799 0.2054 0.0
O2 O 0.24651 0.13174 0.19509 0.0
C3 C 0.26971 0.16512 0.16862 0.0
O4 O 0.27739 0.12104 0.1705 0.0
C5 C 0.15736 0.08816 0.20676 0.0
O6 O 0.15721 0.12643 0.20071 0.0
O7 O 0.26867 0.12353 0.21868 0.0
O8 O 0.3077 0.1801 0.20988 0.0
H9 H 0.35673 1.00166 0.23601 0.0
H10 H 0.19087 0.19598 0.18613 0.0
O11 O 0.27037 0.19371 0.17691 0.0
H12 H 0.21387 0.31228 0.21653 0.0
H13 H 0.33451 0.34368 0.17973 0.0
H14 H 0.38428 0.20447 0.20082 0.0
H15 H 0.27791 0.26163 0.21054 0.0
H16 H 0.28133 0.27793 0.18228 0.0
O17 O 0.19542 0.06867 0.20944 0.0
H18 H 0.33569 0.06492 0.22282 0.0
H19 H 0.22274 0.98629 0.2101 0.0
H20 H 0.43839 0.26969 0.19858 0.0
H21 H 0.12592 0.24631 0.19177 0.0
H22 H 0.41362 0.33991 0.18796 0.0
H23 H 0.13721 0.30489 0.2071 0.0
O24 O 0.33925 0.14316 0.1888 0.0
H25 H 0.18901 0.016 0.16951 0.0
H26 H 0.31938 1.00178 0.19653 0.0
H27 H 0.31465 0.94929 0.17995 0.0
H28 H 0.24895 0.95599 0.16632 0.0
H29 H 0.19543 0.0682 0.18608 0.0
H30 H 0.24229 0.9224 0.22325 0.0
H31 H 0.30986 0.92975 0.23628 0.0
O32 O 0.32991 0.08687 0.20179 0.0
C33 C 0.29398 0.15968 0.21897 0.0
C34 C 0.32725 0.998 0.23035 0.0
C35 C 0.26299 0.95355 0.22321 0.0
N36 N 0.27813 0.0293 0.21566 0.0
C37 C 0.31521 0.03369 0.22285 0.0
C38 C 0.25198 0.98995 0.21581 0.0
C39 C 0.30092 0.95769 0.23051 0.0
C40 C 0.19605 0.22153 0.19277 0.0
N41 N 0.23804 0.22569 0.19803 0.0
C42 C 0.15915 0.24987 0.19595 0.0
C43 C 0.1655 0.28269 0.20456 0.0
C44 C 0.20848 0.28681 0.20986 0.0
C45 C 0.24457 0.25785 0.20647 0.0
C46 C 0.34569 0.31331 0.18439 0.0
C47 C 0.37314 0.23501 0.19624 0.0
C48 C 0.31576 0.2759 0.18584 0.0
N49 N 0.3296 0.23743 0.19174 0.0
C50 C 0.40397 0.27179 0.19498 0.0
C51 C 0.39007 0.31117 0.18901 0.0
C52 C 0.35367 0.10735 0.19409 0.0
C53 C 0.2176 0.01246 0.17545 0.0
C54 C 0.29063 1.00501 0.19067 0.0
C55 C 0.28814 0.9751 0.18128 0.0
C56 C 0.25129 0.97888 0.17364 0.0
N57 N 0.25721 0.03765 0.19246 0.0
C58 C 0.22122 0.04177 0.18493 0.0
Co59 Co 0.8334 0.80903 0.44446 0.0
Co60 Co 0.94273 0.7622 0.44544 0.0
O61 O 0.87784 0.76007 0.44063 0.0
C62 C 0.8179 0.79863 0.41912 0.0
O63 O 0.8625 0.80296 0.41733 0.0
C64 C 0.9171 0.66804 0.45398 0.0
O65 O 0.88125 0.6856 0.45933 0.0
O66 O 0.92368 0.77234 0.46176 0.0
O67 O 0.86222 0.81881 0.45985 0.0
H68 H 0.07815 0.82786 0.46693 0.0
H69 H 0.80008 0.71719 0.43685 0.0
O70 O 0.80182 0.80019 0.42929 0.0
H71 H 0.73243 0.74024 0.47529 0.0
H72 H 0.67529 0.88172 0.4456 0.0
H73 H 0.83968 0.9009 0.45563 0.0
H74 H 0.78145 0.80034 0.46654 0.0
H75 H 0.73174 0.82058 0.44107 0.0
O76 O 0.94323 0.69381 0.44797 0.0
H77 H 0.99733 0.82502 0.46021 0.0
H78 H 0.02563 0.70271 0.44135 0.0
H79 H 0.78438 0.96272 0.46041 0.0
H80 H 0.75086 0.65631 0.44524 0.0
H81 H 0.70147 0.95334 0.45538 0.0
H82 H 0.71675 0.66762 0.46461 0.0
O83 O 0.87494 0.85718 0.43777 0.0
H84 H 0.9327 0.68572 0.40681 0.0
H85 H 0.01331 0.80376 0.42984 0.0
H86 H 0.03525 0.79237 0.40957 0.0
H87 H 0.99481 0.73293 0.39791 0.0
H88 H 0.91167 0.69858 0.4271 0.0
H89 H 0.10653 0.70388 0.44798 0.0
H90 H 0.13334 0.76693 0.46082 0.0
O91 O 0.94531 0.83032 0.44263 0.0
C92 C 0.89307 0.79926 0.46595 0.0
C93 C 0.06692 0.80029 0.46131 0.0
C94 C 0.08283 0.73066 0.45069 0.0
N95 N 0.00681 0.76389 0.45035 0.0
C96 C 0.02124 0.79857 0.45745 0.0
C97 C 0.03691 0.73008 0.447 0.0
C98 C 0.09785 0.76606 0.45789 0.0
C99 C 0.78505 0.7225 0.44524 0.0
N100 N 0.79348 0.76236 0.45116 0.0
C101 C 0.75734 0.68785 0.44997 0.0
C102 C 0.73826 0.69419 0.46084 0.0
C103 C 0.74706 0.73492 0.46684 0.0
C104 C 0.77495 0.76879 0.46184 0.0
C105 C 0.71132 0.88624 0.44782 0.0
C106 C 0.8037 0.89654 0.45341 0.0
C107 C 0.7435 0.85181 0.44523 0.0
N108 N 0.78903 0.85717 0.44807 0.0
C109 C 0.77253 0.93168 0.45614 0.0
C110 C 0.72603 0.9264 0.45332 0.0
C111 C 0.91865 0.86176 0.43876 0.0
C112 C 0.95053 0.71176 0.41179 0.0
C113 C 0.99533 0.77813 0.42479 0.0
C114 C 0.00803 0.77167 0.41333 0.0
C115 C 0.98536 0.73829 0.4068 0.0
N116 N 0.96101 0.75214 0.42961 0.0
C117 C 0.9388 0.71918 0.42328 0.0
Co118 Co 0.22252 0.32862 0.69268 0.0
Co119 Co 0.25038 0.43356 0.70463 0.0
O120 O 0.26537 0.38126 0.69434 0.0
C121 C 0.26296 0.34003 0.66855 0.0
O122 O 0.28511 0.37819 0.67114 0.0
C123 C 0.35569 0.42368 0.70589 0.0
O124 O 0.3556 0.38824 0.69887 0.0
O125 O 0.24249 0.3902 0.7179 0.0
O126 O 0.20279 0.33434 0.70908 0.0
H127 H 0.15666 0.514 0.73494 0.0
H128 H 0.32104 0.31603 0.68613 0.0
O129 O 0.23892 0.319 0.67607 0.0
H130 H 0.29119 0.1988 0.71593 0.0
H131 H 0.1717 0.17143 0.67899 0.0
H132 H 0.12581 0.31193 0.70003 0.0
H133 H 0.22926 0.25141 0.70961 0.0
H134 H 0.22669 0.23565 0.68153 0.0
O135 O 0.31776 0.44262 0.70897 0.0
H136 H 0.17646 0.45045 0.72175 0.0
H137 H 0.29272 0.52567 0.70961 0.0
H138 H 0.06993 0.24824 0.69781 0.0
H139 H 0.38381 0.26381 0.69208 0.0
H140 H 0.09274 0.17737 0.68721 0.0
H141 H 0.36912 0.20466 0.70712 0.0
O142 O 0.17278 0.37174 0.68787 0.0
H143 H 0.32695 0.49916 0.66923 0.0
H144 H 0.19473 0.51221 0.69568 0.0
H145 H 0.201 0.56589 0.67936 0.0
H146 H 0.26764 0.55981 0.66601 0.0
H147 H 0.31897 0.44585 0.68551 0.0
H148 H 0.2744 0.58984 0.72276 0.0
H149 H 0.20581 0.58434 0.73551 0.0
O150 O 0.18262 0.42819 0.7008 0.0
C151 C 0.21615 0.35485 0.71817 0.0
C152 C 0.18658 0.51686 0.72941 0.0
C153 C 0.2527 0.55938 0.72258 0.0
N154 N 0.23557 0.48438 0.71487 0.0
C155 C 0.19792 0.48101 0.7219 0.0
C156 C 0.26299 0.52285 0.71518 0.0
C157 C 0.21419 0.55629 0.72973 0.0
C158 C 0.31418 0.29019 0.69258 0.0
N159 N 0.27138 0.28672 0.69744 0.0
C160 C 0.34995 0.26079 0.69596 0.0
C161 C 0.34172 0.22767 0.70441 0.0
C162 C 0.29802 0.22439 0.70936 0.0
C163 C 0.26311 0.25441 0.70577 0.0
C164 C 0.16139 0.20206 0.68366 0.0
C165 C 0.13614 0.28107 0.69548 0.0
C166 C 0.19236 0.23861 0.68511 0.0
N167 N 0.17963 0.27742 0.69101 0.0
C168 C 0.10429 0.24517 0.69423 0.0
C169 C 0.11709 0.20543 0.68827 0.0
C170 C 0.15854 0.40759 0.69315 0.0
C171 C 0.29794 0.50242 0.67504 0.0
C172 C 0.22388 0.50916 0.68994 0.0
C173 C 0.22724 0.53978 0.6807 0.0
C174 C 0.26461 0.53636 0.67322 0.0
N175 N 0.25694 0.47614 0.69175 0.0
C176 C 0.29343 0.47242 0.68437 0.0
Co177 Co 0.67623 0.7121 0.94264 0.0
Co178 Co 0.57078 0.74187 0.95335 0.0
O179 O 0.6229 0.75345 0.94289 0.0
C180 C 0.65656 0.72019 0.91755 0.0
O181 O 0.6127 0.71258 0.91973 0.0
C182 C 0.5559 0.84018 0.9619 0.0
O183 O 0.56637 0.82833 0.97247 0.0
O184 O 0.61367 0.74377 0.96692 0.0
O185 O 0.66995 0.69995 0.95949 0.0
H186 H 0.49144 0.66819 0.98709 0.0
H187 H 0.68545 0.80656 0.93325 0.0
O188 O 0.68551 0.72286 0.92575 0.0
H189 H 0.80301 0.7957 0.96382 0.0
H190 H 0.83528 0.66004 0.93074 0.0
H191 H 0.69542 0.62016 0.95281 0.0
H192 H 0.7528 0.72924 0.95936 0.0
H193 H 0.76928 0.7138 0.93153 0.0
O194 O 0.55941 0.81084 0.95375 0.0
H195 H 0.55531 0.681 0.97347 0.0
H196 H 0.47558 0.78114 0.95561 0.0
H197 H 0.76087 0.56563 0.95237 0.0
H198 H 0.73526 0.87383 0.93735 0.0
H199 H 0.83142 0.58543 0.94126 0.0
H200 H 0.79452 0.86861 0.95274 0.0
O201 O 0.63423 0.65949 0.93924 0.0
H202 H 0.50728 0.79437 0.9153 0.0
H203 H 0.4964 0.67684 0.94586 0.0
H204 H 0.44578 0.67093 0.92891 0.0
H205 H 0.4509 0.73007 0.91348 0.0
H206 H 0.5577 0.79868 0.93233 0.0
H207 H 0.41085 0.76953 0.96906 0.0
H208 H 0.41852 0.71265 0.98494 0.0
O209 O 0.57942 0.6726 0.95247 0.0
C210 C 0.64903 0.71759 0.96808 0.0
C211 C 0.48766 0.69308 0.98021 0.0
C212 C 0.44246 0.74999 0.9701 0.0
N213 N 0.51933 0.73196 0.96377 0.0
C214 C 0.52374 0.70051 0.97247 0.0
C215 C 0.4793 0.75654 0.96253 0.0
C216 C 0.44678 0.71805 0.979 0.0
C217 C 0.71134 0.80403 0.93992 0.0
N218 N 0.71634 0.76402 0.94602 0.0
C219 C 0.73936 0.84222 0.94222 0.0
C220 C 0.77257 0.83929 0.95086 0.0
C221 C 0.77733 0.7984 0.95709 0.0
C222 C 0.7487 0.76092 0.95455 0.0
C223 C 0.80476 0.65105 0.93563 0.0
C224 C 0.7261 0.62915 0.94801 0.0
C225 C 0.76721 0.6813 0.93608 0.0
N226 N 0.7286 0.67025 0.94226 0.0
C227 C 0.76301 0.59809 0.94777 0.0
C228 C 0.80258 0.6092 0.94153 0.0
C229 C 0.59927 0.64656 0.94509 0.0
C230 C 0.5046 0.76848 0.92198 0.0
C231 C 0.49901 0.70265 0.93918 0.0
C232 C 0.47015 0.69917 0.9296 0.0
C233 C 0.47303 0.73236 0.92096 0.0
N234 N 0.52987 0.73824 0.94014 0.0
C235 C 0.53294 0.77084 0.93167 0.0
Co236 Co 0.28299 0.34504 0.06951 0.0
Co237 Co 0.2522 0.45704 0.06437 0.0
O238 O 0.23964 0.39697 0.07167 0.0
C239 C 0.27387 0.33631 0.09533 0.0
O240 O 0.29043 0.37815 0.09679 0.0
C241 C 0.1465 0.44953 0.06361 0.0
O242 O 0.14577 0.40735 0.06776 0.0
O243 O 0.25391 0.42622 0.04914 0.0
O244 O 0.29908 0.36596 0.05349 0.0
H245 H 0.33697 0.5623 0.03725 0.0
H246 H 0.1869 0.32556 0.07675 0.0
O247 O 0.26766 0.32042 0.08523 0.0
H248 H 0.2075 0.24034 0.04046 0.0
H249 H 0.3355 0.17955 0.07283 0.0
H250 H 0.3774 0.33631 0.05988 0.0
H251 H 0.27155 0.28568 0.04867 0.0
H252 H 0.28092 0.24426 0.07514 0.0
O253 O 0.18465 0.47058 0.06205 0.0
H254 H 0.31943 0.4883 0.04678 0.0
H255 H 0.21177 0.55199 0.06585 0.0
H256 H 0.43279 0.27246 0.05727 0.0
H257 H 0.12199 0.28022 0.0689 0.0
H258 H 0.41198 0.1934 0.06378 0.0
H259 H 0.13206 0.23729 0.0506 0.0
O260 O 0.33444 0.38327 0.07592 0.0
H261 H 0.18868 0.48614 0.10393 0.0
H262 H 0.31234 0.52526 0.07648 0.0
H263 H 0.31226 0.56116 0.09566 0.0
H264 H 0.24998 0.54183 0.10953 0.0
H265 H 0.19037 0.45068 0.08472 0.0
H266 H 0.22774 0.62653 0.05639 0.0
H267 H 0.29094 0.63212 0.04203 0.0
O268 O 0.32026 0.44824 0.06617 0.0
C269 C 0.27972 0.39255 0.04617 0.0
C270 C 0.30941 0.56035 0.04351 0.0
C271 C 0.24808 0.59638 0.05425 0.0
N272 N 0.26485 0.51582 0.05694 0.0
C273 C 0.29938 0.51854 0.04896 0.0
C274 C 0.23911 0.55401 0.05955 0.0
C275 C 0.28356 0.59949 0.04619 0.0
C276 C 0.19158 0.30682 0.06881 0.0
N277 N 0.23291 0.30841 0.06317 0.0
C278 C 0.15469 0.28127 0.0644 0.0
C279 C 0.16035 0.25722 0.05413 0.0
C280 C 0.20264 0.25895 0.04842 0.0
C281 C 0.23874 0.28487 0.0531 0.0
C282 C 0.34497 0.21384 0.06996 0.0
C283 C 0.36799 0.30198 0.06269 0.0
C284 C 0.31427 0.25068 0.07128 0.0
N285 N 0.32587 0.29404 0.06762 0.0
C286 C 0.39955 0.26597 0.06121 0.0
C287 C 0.38786 0.22163 0.06488 0.0
C288 C 0.34661 0.42303 0.07228 0.0
C289 C 0.21581 0.49512 0.09793 0.0
C290 C 0.28503 0.51668 0.08244 0.0
C291 C 0.28519 0.53715 0.0933 0.0
C292 C 0.25026 0.52628 0.10108 0.0
N293 N 0.25086 0.48644 0.07937 0.0
C294 C 0.21676 0.47533 0.087 0.0
Co295 Co 0.66515 0.81013 0.32153 0.0
Co296 Co 0.56376 0.77555 0.30934 0.0
O297 O 0.61576 0.76445 0.31988 0.0
C298 C 0.64512 0.79114 0.34624 0.0
O299 O 0.60092 0.79731 0.34418 0.0
C300 C 0.59099 0.67777 0.30501 0.0
O301 O 0.6341 0.69172 0.30443 0.0
O302 O 0.60761 0.78364 0.29618 0.0
O303 O 0.65914 0.82898 0.30503 0.0
H304 H 0.47965 0.85795 0.2776 0.0
H305 H 0.68295 0.71375 0.32871 0.0
O306 O 0.67419 0.79297 0.33806 0.0
H307 H 0.79928 0.74681 0.29888 0.0
H308 H 0.81844 0.87005 0.33564 0.0
H309 H 0.6766 0.9074 0.31406 0.0
H310 H 0.7434 0.80655 0.30477 0.0
H311 H 0.75747 0.81149 0.33301 0.0
O312 O 0.55883 0.70719 0.30642 0.0
H313 H 0.54361 0.84468 0.29119 0.0
H314 H 0.4743 0.72743 0.30483 0.0
H315 H 0.73698 0.96684 0.31635 0.0
H316 H 0.73855 0.65309 0.32317 0.0
H317 H 0.80851 0.94832 0.32722 0.0
H318 H 0.79716 0.66945 0.30813 0.0
O319 O 0.61843 0.8572 0.32602 0.0
H320 H 0.50247 0.69897 0.34497 0.0
H321 H 0.48281 0.82913 0.31805 0.0
H322 H 0.43047 0.82188 0.33465 0.0
H323 H 0.44004 0.75635 0.34824 0.0
H324 H 0.55442 0.70782 0.32834 0.0
H325 H 0.40972 0.73926 0.29132 0.0
H326 H 0.41206 0.80501 0.2776 0.0
O327 O 0.56568 0.84412 0.31227 0.0
C328 C 0.64089 0.81268 0.29591 0.0
C329 C 0.47817 0.82924 0.28355 0.0
C330 C 0.43896 0.76259 0.29124 0.0
N331 N 0.51263 0.78545 0.29884 0.0
C332 C 0.51426 0.82159 0.29129 0.0
C333 C 0.4757 0.75599 0.29885 0.0
C334 C 0.44028 0.7995 0.28355 0.0
C335 C 0.70864 0.72121 0.32223 0.0
N336 N 0.70998 0.76363 0.31709 0.0
C337 C 0.7399 0.6867 0.3191 0.0
C338 C 0.77273 0.69588 0.31064 0.0
C339 C 0.77391 0.73926 0.30544 0.0
C340 C 0.74206 0.7729 0.30878 0.0
C341 C 0.78747 0.87852 0.33087 0.0
C342 C 0.70774 0.89899 0.31874 0.0
C343 C 0.75275 0.84554 0.32938 0.0
N344 N 0.71358 0.85594 0.32334 0.0
C345 C 0.74177 0.93283 0.32003 0.0
C346 C 0.78187 0.92243 0.32614 0.0
C347 C 0.58272 0.86886 0.3203 0.0
C348 C 0.49786 0.72759 0.33909 0.0
C349 C 0.48732 0.80058 0.32394 0.0
C350 C 0.4575 0.79661 0.33331 0.0
C351 C 0.46287 0.75983 0.34093 0.0
N352 N 0.52154 0.76878 0.32219 0.0
C353 C 0.52706 0.73268 0.32963 0.0
Co354 Co 0.23581 0.15476 0.57142 0.0
Co355 Co 0.26612 0.05418 0.55822 0.0
O356 O 0.28013 0.10477 0.56893 0.0
C357 C 0.23291 0.1637 0.59675 0.0
O358 O 0.18884 0.15321 0.59603 0.0
C359 C 0.36291 0.08025 0.55211 0.0
O360 O 0.34918 0.12335 0.55121 0.0
O361 O 0.25613 0.09961 0.54546 0.0
O362 O 0.21297 0.15042 0.55518 0.0
H363 H 0.17596 0.97468 0.52708 0.0
H364 H 0.33423 0.17014 0.57717 0.0
O365 O 0.25825 0.16175 0.58777 0.0
H366 H 0.29651 0.289 0.54828 0.0
H367 H 0.1826 0.31004 0.58599 0.0
H368 H 0.13681 0.1675 0.56579 0.0
H369 H 0.23709 0.23407 0.55489 0.0
H370 H 0.23926 0.24791 0.58262 0.0
O371 O 0.33375 0.0487 0.55446 0.0
H372 H 0.19304 0.03697 0.54087 0.0
H373 H 0.31206 0.96476 0.55247 0.0
H374 H 0.0791 0.22885 0.56895 0.0
H375 H 0.39459 0.22481 0.5709 0.0
H376 H 0.10186 0.30074 0.57912 0.0
H377 H 0.37589 0.2847 0.55633 0.0
O378 O 0.18902 0.10801 0.57626 0.0
H379 H 0.34926 0.98686 0.59225 0.0
H380 H 0.21306 0.97299 0.56702 0.0
H381 H 0.22328 0.91793 0.58298 0.0
H382 H 0.29189 0.92454 0.5957 0.0
H383 H 0.33741 0.04158 0.57626 0.0
H384 H 0.29645 0.90186 0.53873 0.0
H385 H 0.22788 0.9065 0.52594 0.0
O386 O 0.19826 0.05679 0.562 0.0
C387 C 0.22746 0.13317 0.54575 0.0
C388 C 0.20589 0.9722 0.53262 0.0
C389 C 0.27355 0.93137 0.53915 0.0
N390 N 0.25336 1.00442 0.54752 0.0
C391 C 0.21569 0.00733 0.54047 0.0
C392 C 0.28228 0.96717 0.54689 0.0
C393 C 0.23505 0.93398 0.53198 0.0
C394 C 0.32572 0.19641 0.57091 0.0
N395 N 0.28211 0.19904 0.56646 0.0
C396 C 0.36009 0.22714 0.56736 0.0
C397 C 0.34959 0.26068 0.55917 0.0
C398 C 0.30507 0.26309 0.55465 0.0
C399 C 0.2716 0.23177 0.5584 0.0
C400 C 0.17226 0.27889 0.58154 0.0
C401 C 0.14701 0.19869 0.57022 0.0
C402 C 0.20418 0.24357 0.57961 0.0
N403 N 0.19138 0.20407 0.574 0.0
C404 C 0.11417 0.23331 0.57198 0.0
C405 C 0.12697 0.27364 0.57769 0.0
C406 C 0.1752 0.07349 0.57038 0.0
C407 C 0.31928 0.98356 0.58675 0.0
C408 C 0.24289 0.97628 0.57255 0.0
C409 C 0.24855 0.9449 0.58156 0.0
C410 C 0.28706 0.94862 0.58869 0.0
N411 N 0.27474 0.01037 0.57067 0.0
C412 C 0.31245 0.01436 0.57766 0.0
Co413 Co 0.83251 0.69557 0.81791 0.0
Co414 Co 0.94831 0.72344 0.81566 0.0
O415 O 0.88539 0.73662 0.82118 0.0
C416 C 0.82237 0.70489 0.84358 0.0
O417 O 0.86566 0.69257 0.84504 0.0
C418 C 0.93956 0.82847 0.81348 0.0
O419 O 0.89843 0.82979 0.81819 0.0
O420 O 0.92487 0.71585 0.79966 0.0
O421 O 0.85609 0.68178 0.80214 0.0
H422 H 0.06598 0.63174 0.79361 0.0
H423 H 0.81434 0.79049 0.82628 0.0
O424 O 0.8056 0.70841 0.8335 0.0
H425 H 0.73813 0.78155 0.78846 0.0
H426 H 0.6645 0.64992 0.81844 0.0
H427 H 0.8218 0.60372 0.80694 0.0
H428 H 0.77925 0.71412 0.79639 0.0
H429 H 0.73092 0.70099 0.82227 0.0
O430 O 0.96093 0.79039 0.8121 0.0
H431 H 0.98814 0.65031 0.80086 0.0
H432 H 0.04103 0.76804 0.81824 0.0
H433 H 0.75628 0.55186 0.80282 0.0
H434 H 0.77312 0.85865 0.81873 0.0
H435 H 0.67693 0.57483 0.8086 0.0
H436 H 0.73474 0.85446 0.79967 0.0
O437 O 0.86671 0.6409 0.82406 0.0
H438 H 0.95771 0.79736 0.85483 0.0
H439 H 0.01479 0.67121 0.83027 0.0
H440 H 0.04311 0.67769 0.85012 0.0
H441 H 0.01479 0.74133 0.86256 0.0
H442 H 0.92986 0.78917 0.83503 0.0
H443 H 0.1193 0.75115 0.811 0.0
H444 H 0.13222 0.68239 0.79866 0.0
O445 O 0.9396 0.65626 0.81874 0.0
C446 C 0.88943 0.69477 0.79577 0.0
C447 C 0.06081 0.66173 0.799 0.0
C448 C 0.09072 0.72879 0.80875 0.0
N449 N 0.01006 0.70999 0.81004 0.0
C450 C 0.01684 0.67234 0.80317 0.0
C451 C 0.04627 0.73828 0.81278 0.0
C452 C 0.09795 0.69019 0.80183 0.0
C453 C 0.79752 0.78834 0.81801 0.0
N454 N 0.79932 0.7484 0.81178 0.0
C455 C 0.77432 0.82707 0.81377 0.0
C456 C 0.75285 0.82471 0.80307 0.0
C457 C 0.75478 0.78384 0.79677 0.0
C458 C 0.77832 0.74581 0.80128 0.0
C459 C 0.69891 0.63951 0.81589 0.0
C460 C 0.78736 0.61407 0.80945 0.0
C461 C 0.7367 0.66821 0.81808 0.0
N462 N 0.78023 0.65542 0.81482 0.0
C463 C 0.7504 0.5845 0.80711 0.0
C464 C 0.7059 0.5974 0.81036 0.0
C465 C 0.9088 0.62897 0.82262 0.0
C466 C 0.97071 0.76976 0.84946 0.0
C467 C 1.00229 0.69909 0.83557 0.0
C468 C 0.0185 0.70257 0.84684 0.0
C469 C 1.00262 0.73825 0.85381 0.0
N470 N 0.97141 0.73048 0.83129 0.0
C471 C 0.95531 0.7652 0.83815 0.0
Co472 Co 0.80755 0.65019 0.69045 0.0
Co473 Co 0.75919 0.55065 0.70107 0.0
O474 O 0.75565 0.60651 0.69142 0.0
C475 C 0.76617 0.64969 0.66633 0.0
O476 O 0.73831 0.61529 0.66875 0.0
C477 C 0.66928 0.55473 0.71363 0.0
O478 O 0.69282 0.55751 0.72325 0.0
O479 O 0.77358 0.58968 0.71486 0.0
O480 O 0.82424 0.63845 0.70686 0.0
H481 H 0.82792 0.44902 0.73164 0.0
H482 H 0.71239 0.68016 0.68417 0.0
O483 O 0.7941 0.66516 0.67386 0.0
H484 H 0.76304 0.78793 0.71442 0.0
H485 H 0.88791 0.79686 0.6783 0.0
H486 H 0.90483 0.64793 0.69844 0.0
H487 H 0.81456 0.72563 0.70779 0.0
H488 H 0.82179 0.74363 0.68002 0.0
O489 O 0.69043 0.5552 0.70401 0.0
H490 H 0.82361 0.51749 0.71906 0.0
H491 H 0.70071 0.46596 0.70376 0.0
H492 H 0.97174 0.70034 0.69704 0.0
H493 H 0.66004 0.74228 0.69043 0.0
H494 H 0.96352 0.77545 0.6869 0.0
H495 H 0.68524 0.79675 0.70567 0.0
O496 O 0.84899 0.59908 0.68553 0.0
H497 H 0.67109 0.5072 0.66545 0.0
H498 H 0.80176 0.46638 0.69068 0.0
H499 H 0.78595 0.41911 0.67353 0.0
H500 H 0.72006 0.43928 0.6608 0.0
H501 H 0.6886 0.55404 0.68258 0.0
H502 H 0.70365 0.39701 0.71618 0.0
H503 H 0.76762 0.38819 0.73025 0.0
O504 O 0.82739 0.54359 0.69797 0.0
C505 C 0.80604 0.61943 0.71565 0.0
C506 C 0.79989 0.45246 0.72554 0.0
C507 C 0.73014 0.42327 0.71687 0.0
N508 N 0.76196 0.49579 0.71069 0.0
C509 C 0.79727 0.49116 0.71839 0.0
C510 C 0.72864 0.46243 0.70987 0.0
C511 C 0.76604 0.41835 0.72476 0.0
C512 C 0.72395 0.70401 0.69068 0.0
N513 N 0.76689 0.69968 0.69543 0.0
C514 C 0.69399 0.739 0.69425 0.0
C515 C 0.70811 0.7695 0.70281 0.0
C516 C 0.75175 0.76457 0.70772 0.0
C517 C 0.78076 0.72918 0.70394 0.0
C518 C 0.89191 0.76429 0.68277 0.0
C519 C 0.90089 0.68063 0.69409 0.0
C520 C 0.8546 0.73392 0.68375 0.0
N521 N 0.85933 0.69274 0.6894 0.0
C522 C 0.93894 0.71015 0.69329 0.0
C523 C 0.93432 0.75225 0.68759 0.0
C524 C 0.85558 0.5607 0.69067 0.0
C525 C 0.6999 0.49805 0.67093 0.0
C526 C 0.77334 0.47576 0.68512 0.0
C527 C 0.7644 0.44867 0.67545 0.0
C528 C 0.72741 0.45997 0.66832 0.0
N529 N 0.74625 0.51312 0.68762 0.0
C530 C 0.70992 0.52438 0.68067 0.0
Co531 Co 0.35088 0.29662 0.94211 0.0
Co532 Co 0.44632 0.25181 0.95549 0.0
O533 O 0.39569 0.24605 0.94402 0.0
C534 C 0.35769 0.25718 0.91758 0.0
O535 O 0.38361 0.22161 0.9203 0.0
C536 C 0.41589 0.15194 0.95665 0.0
O537 O 0.37402 0.16424 0.95362 0.0
O538 O 0.40004 0.26093 0.96808 0.0
O539 O 0.35463 0.31134 0.95888 0.0
H540 H 0.52727 0.32358 0.98926 0.0
H541 H 0.32486 0.20108 0.93462 0.0
O542 O 0.34439 0.28612 0.92512 0.0
H543 H 0.2035 0.24846 0.96176 0.0
H544 H 0.20851 0.37588 0.92676 0.0
H545 H 0.34764 0.39272 0.95086 0.0
H546 H 0.26789 0.30089 0.95721 0.0
H547 H 0.26244 0.31068 0.92926 0.0
O548 O 0.44695 0.18256 0.95814 0.0
H549 H 0.46621 0.31662 0.9746 0.0
H550 H 0.53172 0.19765 0.96077 0.0
H551 H 0.29441 0.45865 0.94868 0.0
H552 H 0.26069 0.14805 0.9387 0.0
H553 H 0.22424 0.45046 0.93656 0.0
H554 H 0.19933 0.17147 0.95241 0.0
O555 O 0.40274 0.33914 0.93868 0.0
H556 H 0.51032 0.17669 0.92 0.0
H557 H 0.53296 0.30054 0.94851 0.0
H558 H 0.5886 0.29197 0.93263 0.0
H559 H 0.57756 0.22959 0.91825 0.0
H560 H 0.45523 0.18678 0.93594 0.0
H561 H 0.59331 0.2032 0.97533 0.0
H562 H 0.59143 0.2666 0.98969 0.0
O563 O 0.45008 0.32108 0.9532 0.0
C564 C 0.36902 0.29235 0.9681 0.0
C565 C 0.52854 0.29587 0.98303 0.0
C566 C 0.56557 0.22827 0.97522 0.0
N567 N 0.49543 0.2569 0.96679 0.0
C568 C 0.49409 0.29179 0.97468 0.0
C569 C 0.5305 0.22525 0.96701 0.0
C570 C 0.5645 0.26386 0.98327 0.0
C571 C 0.29805 0.21215 0.94037 0.0
N572 N 0.30002 0.2546 0.94546 0.0
C573 C 0.26187 0.18167 0.94275 0.0
C574 C 0.22754 0.19476 0.95047 0.0
C575 C 0.22988 0.2379 0.95572 0.0
C576 C 0.26659 0.26744 0.95313 0.0
C577 C 0.23892 0.37985 0.93209 0.0
C578 C 0.31707 0.38879 0.94562 0.0
C579 C 0.26966 0.34308 0.93351 0.0
N580 N 0.308 0.34774 0.94028 0.0
C581 C 0.2871 0.42629 0.9444 0.0
C582 C 0.24776 0.42168 0.93759 0.0
C583 C 0.43732 0.34777 0.94507 0.0
C584 C 0.5156 0.2039 0.92623 0.0
C585 C 0.5278 0.27336 0.94228 0.0
C586 C 0.5595 0.26864 0.93331 0.0
C587 C 0.55329 0.23363 0.92525 0.0
N588 N 0.49098 0.24397 0.9432 0.0
C589 C 0.4846 0.20968 0.9353 0.0
Co590 Co 0.70697 0.86134 0.19334 0.0
Co591 Co 0.75394 0.97007 0.19773 0.0
O592 O 0.75537 0.90819 0.19089 0.0
C593 C 0.71217 0.86913 0.16802 0.0
O594 O 0.7112 0.9141 0.16948 0.0
C595 C 0.8486 0.94346 0.20634 0.0
O596 O 0.83123 0.90803 0.21192 0.0
O597 O 0.74312 0.94286 0.2133 0.0
O598 O 0.70196 0.87835 0.20994 0.0
H599 H 0.69008 0.0939 0.22343 0.0
H600 H 0.79591 0.83463 0.18263 0.0
O601 O 0.71097 0.84249 0.17673 0.0
H602 H 0.78358 0.73941 0.21764 0.0
H603 H 0.63359 0.70491 0.18821 0.0
H604 H 0.61827 0.85861 0.20606 0.0
H605 H 0.72173 0.79418 0.21247 0.0
H606 H 0.69382 0.76419 0.18542 0.0
O607 O 0.82266 0.96887 0.20016 0.0
H608 H 0.69199 0.01715 0.21423 0.0
H609 H 0.81405 0.05393 0.19615 0.0
H610 H 0.5575 0.8002 0.20919 0.0
H611 H 0.85842 0.77996 0.18744 0.0
H612 H 0.56494 0.7227 0.20022 0.0
H613 H 0.85249 0.73193 0.20507 0.0
O614 O 0.65699 0.90638 0.18947 0.0
H615 H 0.83114 0.98013 0.15919 0.0
H616 H 0.71183 0.04744 0.18434 0.0
H617 H 0.7233 0.07934 0.1649 0.0
H618 H 0.78336 0.04564 0.15218 0.0
H619 H 0.81817 0.94904 0.17866 0.0
H620 H 0.81377 0.1308 0.20525 0.0
H621 H 0.75132 0.1513 0.21896 0.0
O622 O 0.68593 0.97487 0.19509 0.0
C623 C 0.71939 0.9082 0.21674 0.0
C624 C 0.71739 0.08542 0.21744 0.0
C625 C 0.78685 0.10611 0.20725 0.0
N626 N 0.75293 0.03112 0.20462 0.0
C627 C 0.71858 0.04207 0.21219 0.0
C628 C 0.78691 0.06244 0.20216 0.0
C629 C 0.7518 0.1176 0.21494 0.0
C630 C 0.79296 0.8136 0.19027 0.0
N631 N 0.75512 0.81741 0.19722 0.0
C632 C 0.82851 0.78282 0.19297 0.0
C633 C 0.82519 0.75592 0.20287 0.0
C634 C 0.78654 0.76011 0.20993 0.0
C635 C 0.75168 0.79127 0.20697 0.0
C636 C 0.62998 0.73853 0.19218 0.0
C637 C 0.62188 0.82488 0.20219 0.0
C638 C 0.66391 0.77228 0.1906 0.0
N639 N 0.65969 0.81472 0.19563 0.0
C640 C 0.5873 0.79199 0.20396 0.0
C641 C 0.59148 0.74853 0.19892 0.0
C642 C 0.6532 0.94962 0.19134 0.0
C643 C 0.80487 0.99512 0.16465 0.0
C644 C 0.73783 0.03243 0.17883 0.0
C645 C 0.7443 0.05074 0.16784 0.0
C646 C 0.77802 0.03184 0.16072 0.0
N647 N 0.76416 0.99629 0.1826 0.0
C648 C 0.79745 0.97773 0.17569 0.0
Co649 Co 0.15667 0.22378 0.44424 0.0
Co650 Co 0.04559 0.25151 0.45166 0.0
O651 O 0.10303 0.26557 0.44338 0.0
C652 C 0.18048 0.21429 0.41937 0.0
O653 O 0.17267 0.16977 0.42036 0.0
C654 C 0.05399 0.3565 0.45293 0.0
O655 O 0.09553 0.35655 0.44843 0.0
O656 O 0.08108 0.24861 0.4662 0.0
O657 O 0.14237 0.20663 0.46074 0.0
H658 H 0.94989 0.16297 0.48019 0.0
H659 H 0.17185 0.32034 0.43659 0.0
O660 O 0.17322 0.2411 0.42791 0.0
H661 H 0.2693 0.30148 0.47103 0.0
H662 H 0.32207 0.17695 0.43726 0.0
H663 H 0.17151 0.12904 0.45313 0.0
H664 H 0.22242 0.23661 0.46382 0.0
H665 H 0.25515 0.22962 0.43657 0.0
O666 O 0.03239 0.31872 0.45458 0.0
H667 H 0.02045 0.18204 0.46932 0.0
H668 H 0.95023 0.29135 0.45231 0.0
H669 H 0.23761 0.07539 0.45407 0.0
H670 H 0.21871 0.38596 0.44343 0.0
H671 H 0.31355 0.09924 0.44609 0.0
H672 H 0.26779 0.3768 0.46079 0.0
O673 O 0.11739 0.17179 0.43863 0.0
H674 H 1.00291 0.31929 0.41329 0.0
H675 H 0.97409 0.19207 0.44054 0.0
H676 H 0.93181 0.19408 0.42218 0.0
H677 H 0.9459 0.25819 0.40842 0.0
H678 H 0.04487 0.31559 0.43167 0.0
H679 H 0.87909 0.27382 0.46311 0.0
H680 H 0.87853 0.20904 0.47712 0.0
O681 O 0.05434 0.18376 0.44928 0.0
C682 C 0.11656 0.22414 0.46853 0.0
C683 C 0.94966 0.19121 0.47409 0.0
C684 C 0.90994 0.25345 0.46451 0.0
N685 N 0.98943 0.23754 0.46012 0.0
C686 C 0.98949 0.20211 0.46788 0.0
C687 C 0.9504 0.2633 0.45845 0.0
C688 C 0.90965 0.21709 0.47236 0.0
C689 C 0.19332 0.31598 0.44411 0.0
N690 N 0.19425 0.27469 0.4498 0.0
C691 C 0.21969 0.35331 0.44796 0.0
C692 C 0.24717 0.34817 0.45771 0.0
C693 C 0.248 0.30594 0.46347 0.0
C694 C 0.22116 0.26938 0.45937 0.0
C695 C 0.28917 0.16616 0.44077 0.0
C696 C 0.20448 0.13971 0.44966 0.0
C697 C 0.25113 0.19581 0.44039 0.0
N698 N 0.20947 0.18245 0.44483 0.0
C699 C 0.24177 0.10917 0.45021 0.0
C700 C 0.28436 0.12257 0.44573 0.0
C701 C 0.07869 0.15855 0.44269 0.0
C702 C 0.99624 0.29134 0.41924 0.0
C703 C 0.98052 0.22008 0.43461 0.0
C704 C 0.9564 0.22105 0.42422 0.0
C705 C 0.96432 0.25701 0.41651 0.0
N706 N 0.01151 0.25412 0.43729 0.0
C707 C 0.01974 0.28922 0.42971 0.0
Co708 Co 0.80137 0.8506 0.57129 0.0
Co709 Co 0.78202 0.95623 0.55917 0.0
O710 O 0.76252 0.9059 0.56951 0.0
C711 C 0.8061 0.83703 0.59647 0.0
O712 O 0.85094 0.84269 0.59547 0.0
C713 C 0.67807 0.9496 0.55539 0.0
O714 O 0.67789 0.90531 0.5578 0.0
O715 O 0.78457 0.91192 0.54607 0.0
O716 O 0.82319 0.85509 0.55492 0.0
H717 H 0.87956 0.02666 0.52802 0.0
H718 H 0.70275 0.84408 0.57782 0.0
O719 O 0.78001 0.84338 0.58774 0.0
H720 H 0.72392 0.72794 0.54732 0.0
H721 H 0.83795 0.68796 0.58402 0.0
H722 H 0.89773 0.82772 0.56486 0.0
H723 H 0.78949 0.77547 0.55386 0.0
H724 H 0.78845 0.7566 0.58163 0.0
O725 O 0.71585 0.97229 0.55546 0.0
H726 H 0.85485 0.96537 0.54137 0.0
H727 H 0.74997 0.05282 0.55472 0.0
H728 H 0.94834 0.75976 0.56704 0.0
H729 H 0.63638 0.79672 0.57166 0.0
H730 H 0.91853 0.68923 0.57669 0.0
H731 H 0.64672 0.73825 0.55627 0.0
O732 O 0.85366 0.89084 0.57631 0.0
H733 H 0.71163 0.02761 0.59438 0.0
H734 H 0.84609 0.02832 0.56838 0.0
H735 H 0.84471 0.08115 0.58497 0.0
H736 H 0.77703 0.08117 0.59808 0.0
H737 H 0.71468 0.97492 0.57776 0.0
H738 H 0.77332 0.11494 0.54143 0.0
H739 H 0.83867 0.10212 0.52798 0.0
O740 O 0.84909 0.94426 0.56248 0.0
C741 C 0.8097 0.87566 0.5458 0.0
C742 C 0.85105 0.03269 0.53384 0.0
C743 C 0.79139 0.08221 0.54136 0.0
N744 N 0.80098 1.00544 0.54883 0.0
C745 C 0.83691 0.99811 0.54144 0.0
C746 C 0.77819 0.04681 0.54884 0.0
C747 C 0.82807 0.075 0.53382 0.0
C748 C 0.70763 0.8184 0.5712 0.0
N749 N 0.74998 0.81253 0.56624 0.0
C750 C 0.66987 0.79182 0.56771 0.0
C751 C 0.67568 0.75908 0.55906 0.0
C752 C 0.71897 0.75332 0.55403 0.0
C753 C 0.75593 0.78052 0.55773 0.0
C754 C 0.85134 0.71847 0.5798 0.0
C755 C 0.88446 0.79717 0.56906 0.0
C756 C 0.82348 0.75747 0.57842 0.0
N757 N 0.84016 0.79621 0.5731 0.0
C758 C 0.9133 0.75878 0.57027 0.0
C759 C 0.89655 0.71922 0.57568 0.0
C760 C 0.87079 0.92427 0.5706 0.0
C761 C 0.74124 0.02804 0.5887 0.0
C762 C 0.81656 0.02796 0.57406 0.0
C763 C 0.81595 0.05805 0.58343 0.0
C764 C 0.77797 0.05805 0.59078 0.0
N765 N 0.7803 0.99876 0.57205 0.0
C766 C 0.74307 0.9984 0.57925 0.0
Co767 Co 0.16317 0.29382 0.82059 0.0
Co768 Co 0.06614 0.22634 0.81586 0.0
O769 O 0.12723 0.23653 0.82287 0.0
C770 C 0.17968 0.26631 0.84562 0.0
O771 O 0.15193 0.23063 0.84485 0.0
C772 C 0.0781 0.13555 0.80441 0.0
O773 O 0.0726 0.15707 0.79458 0.0
O774 O 0.09227 0.24138 0.80043 0.0
O775 O 0.14382 0.29727 0.80408 0.0
H776 H 0.93593 0.26456 0.78892 0.0
H777 H 0.20777 0.20676 0.82906 0.0
O778 O 0.18552 0.29336 0.83706 0.0
H779 H 0.29741 0.25326 0.79502 0.0
H780 H 0.30029 0.39953 0.8254 0.0
H781 H 0.14464 0.38252 0.80869 0.0
H782 H 0.23116 0.29981 0.80145 0.0
H783 H 0.25649 0.32714 0.82792 0.0
O784 O 0.08066 0.15861 0.81374 0.0
H785 H 0.01127 0.27645 0.79837 0.0
H786 H 0.99156 0.15498 0.81824 0.0
H787 H 0.1874 0.45533 0.80589 0.0
H788 H 0.2741 0.15971 0.82304 0.0
H789 H 0.26584 0.46419 0.81428 0.0
H790 H 0.31956 0.18277 0.80588 0.0
O791 O 0.10897 0.33227 0.82523 0.0
H792 H 0.0658 0.14583 0.85411 0.0
H793 H 0.98271 0.25557 0.82921 0.0
H794 H 0.95202 0.23825 0.84847 0.0
H795 H 0.99357 0.18275 0.86106 0.0
H796 H 0.09571 0.16507 0.83487 0.0
H797 H 0.91633 0.14143 0.80894 0.0
H798 H 0.88795 0.19657 0.79417 0.0
O799 O 0.04886 0.29265 0.81806 0.0
C800 C 0.12014 0.2729 0.79713 0.0
C801 C 0.94794 0.24026 0.79533 0.0
C802 C 0.93694 0.17115 0.80655 0.0
N803 N 0.00603 0.21627 0.80881 0.0
C804 C 0.99057 0.24681 0.80072 0.0
C805 C 0.9797 0.17888 0.81177 0.0
C806 C 0.92103 0.2021 0.79828 0.0
C807 C 0.22764 0.21771 0.82174 0.0
N808 N 0.21602 0.25684 0.81584 0.0
C809 C 0.26508 0.19061 0.8183 0.0
C810 C 0.29051 0.20349 0.80866 0.0
C811 C 0.27811 0.24302 0.80256 0.0
C812 C 0.24049 0.26927 0.80626 0.0
C813 C 0.26617 0.39607 0.8217 0.0
C814 C 0.17885 0.38599 0.81232 0.0
C815 C 0.24112 0.35521 0.82313 0.0
N816 N 0.1981 0.35049 0.81841 0.0
C817 C 0.20285 0.42736 0.81072 0.0
C818 C 0.24683 0.43233 0.81545 0.0
C819 C 0.06636 0.32894 0.8225 0.0
C820 C 0.04745 0.17021 0.84873 0.0
C821 C 1.00152 0.23233 0.83472 0.0
C822 C 0.98372 0.22219 0.84558 0.0
C823 C 0.00697 0.19097 0.85263 0.0
N824 N 0.04139 0.21208 0.83097 0.0
C825 C 0.06419 0.1812 0.83781 0.0
Co826 Co 0.69365 0.67481 0.07049 0.0
Co827 Co 0.74026 0.56627 0.06829 0.0
O828 O 0.74251 0.62981 0.07407 0.0
C829 C 0.70201 0.68889 0.09608 0.0
O830 O 0.69457 0.64473 0.09793 0.0
C831 C 0.83664 0.59157 0.06122 0.0
O832 O 0.82077 0.62864 0.05603 0.0
O833 O 0.73374 0.59017 0.05227 0.0
O834 O 0.68343 0.64802 0.0548 0.0
H835 H 0.67679 0.4382 0.04384 0.0
H836 H 0.78584 0.70677 0.0782 0.0
O837 O 0.70294 0.70473 0.08587 0.0
H838 H 0.76172 0.77991 0.0404 0.0
H839 H 0.62092 0.83297 0.07049 0.0
H840 H 0.60126 0.66962 0.05955 0.0
H841 H 0.70168 0.73002 0.04886 0.0
H842 H 0.68225 0.7761 0.07453 0.0
O843 O 0.80921 0.56498 0.06662 0.0
H844 H 0.67966 0.517 0.05188 0.0
H845 H 0.79749 0.48128 0.07175 0.0
H846 H 0.53923 0.72539 0.05525 0.0
H847 H 0.84665 0.75686 0.0701 0.0
H848 H 0.54886 0.80777 0.06074 0.0
H849 H 0.83482 0.79372 0.05106 0.0
O850 O 0.64598 0.63233 0.07697 0.0
H851 H 0.80948 0.56434 0.10784 0.0
H852 H 0.69429 0.49265 0.08222 0.0
H853 H 0.70192 0.46474 0.10215 0.0
H854 H 0.75988 0.50067 0.11511 0.0
H855 H 0.80056 0.59125 0.08784 0.0
H856 H 0.79627 0.40235 0.06382 0.0
H857 H 0.73544 0.38028 0.0498 0.0
O858 O 0.67145 0.56407 0.07023 0.0
C859 C 0.70615 0.62076 0.04833 0.0
C860 C 0.70338 0.44736 0.04997 0.0
C861 C 0.77048 0.42725 0.06117 0.0
N862 N 0.73852 0.50368 0.06233 0.0
C863 C 0.70509 0.49187 0.05458 0.0
C864 C 0.7711 0.47208 0.0656 0.0
C865 C 0.73633 0.41489 0.05331 0.0
C866 C 0.78031 0.72297 0.06995 0.0
N867 N 0.7402 0.71555 0.06404 0.0
C868 C 0.81491 0.75118 0.06539 0.0
C869 C 0.80827 0.77182 0.0547 0.0
C870 C 0.76729 0.76407 0.04871 0.0
C871 C 0.73345 0.73566 0.05354 0.0
C872 C 0.61631 0.79718 0.06806 0.0
C873 C 0.60576 0.70539 0.06194 0.0
C874 C 0.65086 0.76477 0.07037 0.0
N875 N 0.6454 0.71955 0.06726 0.0
C876 C 0.57049 0.73682 0.05949 0.0
C877 C 0.57591 0.78302 0.06258 0.0
C878 C 0.64072 0.5893 0.07496 0.0
C879 C 0.7841 0.54841 0.10228 0.0
C880 C 0.71948 0.50855 0.08782 0.0
C881 C 0.72373 0.49253 0.09909 0.0
C882 C 0.75625 0.5127 0.10635 0.0
N883 N 0.74687 0.54363 0.08389 0.0
C884 C 0.77891 0.56349 0.09095 0.0
Co885 Co 0.34924 0.23637 0.32207 0.0
Co886 Co 0.4612 0.25986 0.31488 0.0
O887 O 0.4052 0.27482 0.32376 0.0
C888 C 0.35412 0.25988 0.34745 0.0
O889 O 0.39638 0.27544 0.34628 0.0
C890 C 0.45873 0.36364 0.31148 0.0
O891 O 0.41467 0.36222 0.30879 0.0
O892 O 0.42544 0.26733 0.30049 0.0
O893 O 0.36279 0.22592 0.30519 0.0
H894 H 0.54866 0.17993 0.28335 0.0
H895 H 0.34189 0.33119 0.33155 0.0
O896 O 0.33193 0.2445 0.3388 0.0
H897 H 0.23895 0.32926 0.29781 0.0
H898 H 0.18272 0.19249 0.32853 0.0
H899 H 0.32992 0.14755 0.31038 0.0
H900 H 0.28222 0.25943 0.30341 0.0
H901 H 0.25171 0.24194 0.33042 0.0
O902 O 0.47995 0.32683 0.31438 0.0
H903 H 0.48003 0.19898 0.29493 0.0
H904 H 0.55997 0.28997 0.31553 0.0
H905 H 0.2616 0.09741 0.30814 0.0
H906 H 0.29894 0.40168 0.32632 0.0
H907 H 0.18734 0.11977 0.31727 0.0
H908 H 0.24704 0.40102 0.30933 0.0
O909 O 0.38564 0.18085 0.32649 0.0
H910 H 0.51528 0.30797 0.35409 0.0
H911 H 0.52401 0.18702 0.32438 0.0
H912 H 0.56632 0.17669 0.34256 0.0
H913 H 0.56226 0.2375 0.35757 0.0
H914 H 0.47278 0.31653 0.33584 0.0
H915 H 0.62936 0.27235 0.30407 0.0
H916 H 0.62402 0.21678 0.28787 0.0
O917 O 0.44641 0.19203 0.315 0.0
C918 C 0.38896 0.24523 0.29774 0.0
C919 C 0.55144 0.20421 0.29038 0.0
C920 C 0.59671 0.25611 0.302 0.0
N921 N 0.51592 0.2456 0.30591 0.0
C922 C 0.51268 0.21511 0.29699 0.0
C923 C 0.55723 0.26613 0.30843 0.0
C924 C 0.5937 0.22491 0.29292 0.0
C925 C 0.31901 0.33044 0.32423 0.0
N926 N 0.31418 0.29104 0.3179 0.0
C927 C 0.29493 0.37055 0.32127 0.0
C928 C 0.26588 0.37018 0.31173 0.0
C929 C 0.26133 0.32994 0.30526 0.0
C930 C 0.28597 0.2905 0.30847 0.0
C931 C 0.21486 0.18241 0.3245 0.0
C932 C 0.29766 0.15768 0.31431 0.0
C933 C 0.25409 0.2102 0.32557 0.0
N934 N 0.29476 0.19779 0.32045 0.0
C935 C 0.25912 0.12908 0.31304 0.0
C936 C 0.21747 0.14162 0.31818 0.0
C937 C 0.42216 0.16655 0.32157 0.0
C938 C 0.5173 0.28121 0.34762 0.0
C939 C 0.52155 0.21342 0.33091 0.0
C940 C 0.54585 0.20749 0.34116 0.0
C941 C 0.54361 0.24164 0.34957 0.0
N942 N 0.49556 0.25221 0.32908 0.0
C943 C 0.49342 0.28594 0.33726 0.0
H944 H 0.2864 0.35425 0.11852 0.0
H945 H 0.24326 0.24688 0.09478 0.0
H946 H 0.23539 0.1923 0.11086 0.0
H947 H 0.3532 0.28232 0.13688 0.0
H948 H 0.33629 0.31081 0.14999 0.0
H949 H 0.33691 0.34244 0.13666 0.0
H950 H 0.25106 0.36485 0.13961 0.0
H951 H 0.25031 0.33336 0.15297 0.0
H952 H 0.20871 0.3201 0.14193 0.0
H953 H 0.23745 0.14713 0.12941 0.0
H954 H 0.24469 0.11693 0.14924 0.0
H955 H 0.28287 0.25391 0.16105 0.0
C956 C 0.27479 0.31944 0.11671 0.0
C957 C 0.26567 0.30506 0.10531 0.0
C958 C 0.25068 0.25899 0.10338 0.0
C959 C 0.24605 0.22755 0.11248 0.0
C960 C 0.25602 0.24255 0.12356 0.0
C961 C 0.26959 0.28754 0.12574 0.0
C962 C 0.27866 0.29453 0.13846 0.0
C963 C 0.32927 0.30833 0.14062 0.0
C964 C 0.24518 0.33033 0.14354 0.0
C965 C 0.26861 0.24642 0.14303 0.0
C966 C 0.25578 0.21685 0.13429 0.0
C967 C 0.24691 0.17013 0.13635 0.0
C968 C 0.2512 0.15321 0.14763 0.0
C969 C 0.2638 0.18303 0.15674 0.0
C970 C 0.27235 0.23029 0.15434 0.0
H971 H 0.83651 0.79888 0.39579 0.0
H972 H 0.72449 0.78559 0.4204 0.0
H973 H 0.66874 0.77881 0.40454 0.0
H974 H 0.77492 0.86778 0.37551 0.0
H975 H 0.8001 0.84077 0.36305 0.0
H976 H 0.83185 0.84272 0.37635 0.0
H977 H 0.84082 0.75365 0.37591 0.0
H978 H 0.80907 0.75148 0.3626 0.0
H979 H 0.79005 0.71783 0.37475 0.0
H980 H 0.62406 0.77707 0.38598 0.0
H981 H 0.59458 0.7799 0.36605 0.0
H982 H 0.73532 0.79268 0.35352 0.0
C983 C 0.80033 0.79419 0.39785 0.0
C984 C 0.78508 0.79286 0.40939 0.0
C985 C 0.73726 0.78686 0.41166 0.0
C986 C 0.70517 0.78286 0.4027 0.0
C987 C 0.72122 0.7847 0.39144 0.0
C988 C 0.76767 0.79007 0.38898 0.0
C989 C 0.77557 0.79201 0.37611 0.0
C990 C 0.79686 0.83859 0.37255 0.0
C991 C 0.80566 0.75131 0.37211 0.0
C992 C 0.72634 0.78736 0.37178 0.0
C993 C 0.69549 0.78312 0.38075 0.0
C994 C 0.64795 0.78 0.37887 0.0
C995 C 0.63149 0.78165 0.36752 0.0
C996 C 0.66249 0.78626 0.35818 0.0
C997 C 0.71057 0.78867 0.36042 0.0
H998 H 0.19148 0.1686 0.61791 0.0
H999 H 0.31197 0.21557 0.59904 0.0
H1000 H 0.33369 0.26561 0.61536 0.0
H1001 H 0.16246 0.27508 0.63026 0.0
H1002 H 0.14475 0.2516 0.64391 0.0
H1003 H 0.14049 0.21689 0.63114 0.0
H1004 H 0.1906 0.15318 0.64061 0.0
H1005 H 0.19449 0.18748 0.65349 0.0
H1006 H 0.24639 0.168 0.64644 0.0
H1007 H 0.33812 0.31637 0.6333 0.0
H1008 H 0.32911 0.35653 0.65198 0.0
H1009 H 0.20704 0.27422 0.65906 0.0
C1010 C 0.22295 0.18869 0.61728 0.0
C1011 C 0.25006 0.18791 0.60718 0.0
C1012 C 0.29082 0.21509 0.60671 0.0
C1013 C 0.30331 0.24392 0.61593 0.0
C1014 C 0.27504 0.24485 0.62562 0.0
C1015 C 0.23613 0.21728 0.62643 0.0
C1016 C 0.21108 0.22512 0.63768 0.0
C1017 C 0.16179 0.24326 0.63562 0.0
C1018 C 0.21064 0.18081 0.64499 0.0
C1019 C 0.24151 0.26187 0.64302 0.0
C1020 C 0.27814 0.27307 0.63594 0.0
C1021 C 0.30983 0.30743 0.63896 0.0
C1022 C 0.3043 0.33029 0.64955 0.0
C1023 C 0.26758 0.31843 0.65703 0.0
C1024 C 0.2358 0.28388 0.65361 0.0
H1025 H 0.843 0.70019 0.86685 0.0
H1026 H 0.7305 0.72663 0.84302 0.0
H1027 H 0.67682 0.73532 0.85922 0.0
H1028 H 0.7777 0.63409 0.88704 0.0
H1029 H 0.8059 0.65757 0.89955 0.0
H1030 H 0.83638 0.65468 0.88608 0.0
H1031 H 0.85246 0.74265 0.88708 0.0
H1032 H 0.82208 0.74572 0.90056 0.0
H1033 H 0.80482 0.7822 0.88876 0.0
H1034 H 0.63374 0.73693 0.87794 0.0
H1035 H 0.60564 0.73491 0.898 0.0
H1036 H 0.74579 0.71046 0.90984 0.0
C1037 C 0.80717 0.70815 0.86504 0.0
C1038 C 0.79119 0.71252 0.85359 0.0
C1039 C 0.74387 0.72293 0.85165 0.0
C1040 C 0.71292 0.72799 0.86083 0.0
C1041 C 0.72961 0.72297 0.87197 0.0
C1042 C 0.77567 0.71366 0.87414 0.0
C1043 C 0.78436 0.7096 0.88696 0.0
C1044 C 0.80213 0.6611 0.89009 0.0
C1045 C 0.81792 0.7473 0.89108 0.0
C1046 C 0.73597 0.71759 0.8916 0.0
C1047 C 0.70488 0.7251 0.8828 0.0
C1048 C 0.65785 0.73154 0.88492 0.0
C1049 C 0.64217 0.73024 0.89634 0.0
C1050 C 0.67344 0.72294 0.90551 0.0
C1051 C 0.72101 0.71679 0.90305 0.0
H1052 H 0.85003 0.8227 0.61707 0.0
H1053 H 0.72171 0.7946 0.59907 0.0
H1054 H 0.69686 0.74394 0.61501 0.0
H1055 H 0.868 0.71086 0.62772 0.0
H1056 H 0.89074 0.72885 0.64142 0.0
H1057 H 0.89701 0.76573 0.62906 0.0
H1058 H 0.85667 0.83265 0.63991 0.0
H1059 H 0.85085 0.79614 0.65237 0.0
H1060 H 0.80054 0.82324 0.6462 0.0
H1061 H 0.68932 0.69027 0.6323 0.0
H1062 H 0.6963 0.64517 0.6503 0.0
H1063 H 0.82863 0.71032 0.65705 0.0
C1064 C 0.81627 0.80667 0.61656 0.0
C1065 C 0.78779 0.81289 0.6068 0.0
C1066 C 0.74402 0.79087 0.60648 0.0
C1067 C 0.7297 0.76173 0.61548 0.0
C1068 C 0.75927 0.75529 0.62481 0.0
C1069 C 0.80131 0.77781 0.62549 0.0
C1070 C 0.82713 0.76445 0.63633 0.0
C1071 C 0.87345 0.74108 0.63345 0.0
C1072 C 0.83419 0.80663 0.64416 0.0
C1073 C 0.79341 0.73039 0.64156 0.0
C1074 C 0.75454 0.72532 0.63479 0.0
C1075 C 0.71941 0.69442 0.63772 0.0
C1076 C 0.72379 0.6687 0.64793 0.0
C1077 C 0.76287 0.67426 0.65514 0.0
C1078 C 0.79811 0.70543 0.6518 0.0
H1079 H 0.31329 0.19459 0.90356 0.0
H1080 H 0.36011 0.33662 0.90544 0.0
H1081 H 0.32143 0.35364 0.887 0.0
H1082 H 0.31941 0.18182 0.87192 0.0
H1083 H 0.26703 0.14823 0.87124 0.0
H1084 H 0.30297 0.14574 0.88387 0.0
H1085 H 0.23277 0.16889 0.89639 0.0
H1086 H 0.19678 0.17208 0.88379 0.0
H1087 H 0.20181 0.22138 0.89316 0.0
H1088 H 0.27529 0.35648 0.8689 0.0
H1089 H 0.22388 0.34523 0.85224 0.0
H1090 H 0.20182 0.20259 0.86244 0.0
C1091 C 0.31652 0.22878 0.89986 0.0
C1092 C 0.34064 0.26409 0.90573 0.0
C1093 C 0.34251 0.30899 0.90094 0.0
C1094 C 0.32053 0.31899 0.8905 0.0
C1095 C 0.29611 0.28385 0.88502 0.0
C1096 C 0.29387 0.23963 0.88951 0.0
C1097 C 0.26241 0.20929 0.88226 0.0
C1098 C 0.28958 0.16888 0.87701 0.0
C1099 C 0.22099 0.1919 0.88933 0.0
C1100 C 0.24721 0.24346 0.87309 0.0
C1101 C 0.26748 0.28611 0.87481 0.0
C1102 C 0.25921 0.32322 0.86746 0.0
C1103 C 0.22984 0.31651 0.85802 0.0
C1104 C 0.20847 0.27317 0.85605 0.0
C1105 C 0.21715 0.23629 0.86377 0.0
H1106 H 0.69482 0.67236 0.11953 0.0
H1107 H 0.7229 0.78064 0.09461 0.0
H1108 H 0.7299 0.83719 0.11023 0.0
H1109 H 0.62625 0.74142 0.13851 0.0
H1110 H 0.6484 0.71574 0.1515 0.0
H1111 H 0.64692 0.68266 0.13841 0.0
H1112 H 0.73474 0.66692 0.14018 0.0
H1113 H 0.73643 0.69987 0.1533 0.0
H1114 H 0.77411 0.71489 0.14155 0.0
H1115 H 0.73111 0.88322 0.12831 0.0
H1116 H 0.72836 0.91528 0.14792 0.0
H1117 H 0.70079 0.77815 0.16148 0.0
C1118 C 0.70277 0.70787 0.11737 0.0
C1119 C 0.70815 0.72184 0.10578 0.0
C1120 C 0.71839 0.76883 0.10337 0.0
C1121 C 0.72253 0.80138 0.1122 0.0
C1122 C 0.71656 0.78668 0.12348 0.0
C1123 C 0.70713 0.74107 0.12613 0.0
C1124 C 0.70173 0.73487 0.13902 0.0
C1125 C 0.65292 0.71766 0.14203 0.0
C1126 C 0.73898 0.7022 0.14379 0.0
C1127 C 0.70925 0.78413 0.14313 0.0
C1128 C 0.71774 0.81338 0.134 0.0
C1129 C 0.72473 0.86063 0.13555 0.0
C1130 C 0.72298 0.87855 0.14673 0.0
C1131 C 0.71444 0.84934 0.15627 0.0
C1132 C 0.70768 0.80141 0.15439 0.0
H1133 H 0.18523 0.17537 0.39781 0.0
H1134 H 0.2329 0.29271 0.41775 0.0
H1135 H 0.28141 0.31779 0.40146 0.0
H1136 H 0.29054 0.15025 0.38386 0.0
H1137 H 0.265 0.13596 0.37019 0.0
H1138 H 0.23238 0.12805 0.38321 0.0
H1139 H 0.16697 0.17989 0.37516 0.0
H1140 H 0.19925 0.18767 0.36206 0.0
H1141 H 0.18047 0.2373 0.37016 0.0
H1142 H 0.33081 0.32573 0.38367 0.0
H1143 H 0.37011 0.32133 0.36483 0.0
H1144 H 0.28621 0.20258 0.3558 0.0
C1145 C 0.20539 0.2067 0.39868 0.0
C1146 C 0.20517 0.23207 0.40908 0.0
C1147 C 0.2321 0.27287 0.40987 0.0
C1148 C 0.26001 0.28728 0.40067 0.0
C1149 C 0.2601 0.26104 0.39063 0.0
C1150 C 0.2328 0.22212 0.38949 0.0
C1151 C 0.23913 0.20025 0.37774 0.0
C1152 C 0.25788 0.1507 0.37882 0.0
C1153 C 0.19376 0.20136 0.37087 0.0
C1154 C 0.27491 0.23241 0.37255 0.0
C1155 C 0.28687 0.267 0.38017 0.0
C1156 C 0.32117 0.29924 0.37757 0.0
C1157 C 0.34349 0.29633 0.36687 0.0
C1158 C 0.33097 0.26192 0.35881 0.0
C1159 C 0.29606 0.22969 0.36172 0.0
H1160 H 0.27542 0.12996 0.24138 0.0
H1161 H 0.35118 0.23351 0.2219 0.0
H1162 H 0.38151 0.26604 0.23972 0.0
H1163 H 0.24525 0.20614 0.26524 0.0
H1164 H 0.25261 0.16227 0.27608 0.0
H1165 H 0.23556 0.14624 0.26174 0.0
H1166 H 0.30536 0.09048 0.26043 0.0
H1167 H 0.32252 0.10633 0.27477 0.0
H1168 H 0.36277 0.11225 0.26305 0.0
H1169 H 0.4066 0.28681 0.25926 0.0
H1170 H 0.42291 0.29598 0.27988 0.0
H1171 H 0.3303 0.1818 0.2875 0.0
C1172 C 0.29819 0.15959 0.24088 0.0
C1173 C 0.31064 0.17892 0.23012 0.0
C1174 C 0.34076 0.21772 0.22992 0.0
C1175 C 0.35838 0.23669 0.24004 0.0
C1176 C 0.34567 0.21689 0.25043 0.0
C1177 C 0.31615 0.1794 0.25101 0.0
C1178 C 0.30853 0.16514 0.26345 0.0
C1179 C 0.25745 0.17027 0.26682 0.0
C1180 C 0.32583 0.11561 0.26555 0.0
C1181 C 0.33856 0.20036 0.26966 0.0
C1182 C 0.35971 0.22968 0.26192 0.0
C1183 C 0.39005 0.26428 0.26543 0.0
C1184 C 0.39918 0.26915 0.27718 0.0
C1185 C 0.37783 0.23983 0.28535 0.0
C1186 C 0.34687 0.2051 0.28149 0.0
H1187 H 0.84073 0.86321 0.47751 0.0
H1188 H 0.9391 0.75199 0.48301 0.0
H1189 H 0.92876 0.76021 0.50399 0.0
H1190 H 0.87508 0.93307 0.50214 0.0
H1191 H 0.81674 0.95115 0.50515 0.0
H1192 H 0.83369 0.93789 0.49063 0.0
H1193 H 0.76704 0.87848 0.48917 0.0
H1194 H 0.75002 0.89118 0.5037 0.0
H1195 H 0.76313 0.83258 0.4996 0.0
H1196 H 0.90394 0.77731 0.52426 0.0
H1197 H 0.87109 0.80508 0.54244 0.0
H1198 H 0.78955 0.90654 0.5238 0.0
C1199 C 0.86058 0.8408 0.4831 0.0
C1200 C 0.8908 0.80684 0.47856 0.0
C1201 C 0.91597 0.77838 0.48623 0.0
C1202 C 0.91017 0.78269 0.49817 0.0
C1203 C 0.87937 0.81586 0.5023 0.0
C1204 C 0.85541 0.84478 0.495 0.0
C1205 C 0.82392 0.87717 0.50161 0.0
C1206 C 0.83823 0.92782 0.49977 0.0
C1207 C 0.77302 0.86937 0.49832 0.0
C1208 C 0.83349 0.86163 0.51382 0.0
C1209 C 0.86551 0.82616 0.514 0.0
C1210 C 0.87916 0.80531 0.52422 0.0
C1211 C 0.86006 0.82137 0.53452 0.0
C1212 C 0.82764 0.85823 0.53463 0.0
C1213 C 0.81422 0.87844 0.52407 0.0
H1214 H 0.23443 0.38484 0.74052 0.0
H1215 H 0.1547 0.28436 0.72107 0.0
H1216 H 0.12063 0.25514 0.73886 0.0
H1217 H 0.25863 0.30863 0.76457 0.0
H1218 H 0.25349 0.35331 0.77527 0.0
H1219 H 0.27183 0.36773 0.76092 0.0
H1220 H 0.20535 0.42735 0.75933 0.0
H1221 H 0.18679 0.41298 0.77366 0.0
H1222 H 0.1467 0.40897 0.76185 0.0
H1223 H 0.09351 0.23657 0.75853 0.0
H1224 H 0.07882 0.22701 0.77922 0.0
H1225 H 0.17673 0.33709 0.78651 0.0
C1226 C 0.2099 0.35666 0.74001 0.0
C1227 C 0.19742 0.33721 0.72928 0.0
C1228 C 0.16511 0.30022 0.72908 0.0
C1229 C 0.1453 0.28322 0.73918 0.0
C1230 C 0.15803 0.30318 0.74955 0.0
C1231 C 0.1898 0.33881 0.75011 0.0
C1232 C 0.19782 0.3531 0.76251 0.0
C1233 C 0.24845 0.34521 0.76602 0.0
C1234 C 0.18329 0.4036 0.76445 0.0
C1235 C 0.16566 0.3199 0.76874 0.0
C1236 C 0.14288 0.29167 0.76106 0.0
C1237 C 0.11131 0.25831 0.76466 0.0
C1238 C 0.1032 0.2531 0.77646 0.0
C1239 C 0.12683 0.28084 0.78459 0.0
C1240 C 0.15815 0.31504 0.78058 0.0
H1241 H 0.642 0.67308 0.03646 0.0
H1242 H 0.76181 0.58481 0.03154 0.0
H1243 H 0.76045 0.60232 0.01082 0.0
H1244 H 0.58416 0.64202 0.0096 0.0
H1245 H 0.56234 0.69951 1.00715 0.0
H1246 H 0.57179 0.67933 0.02161 0.0
H1247 H 0.62458 0.74977 0.02554 0.0
H1248 H 0.61572 0.77002 0.01107 0.0
H1249 H 0.67351 0.76034 0.01633 0.0
H1250 H 0.74946 0.63218 0.99108 0.0
H1251 H 0.72512 0.66557 0.97278 0.0
H1252 H 0.60978 0.73357 0.98973 0.0
C1253 C 0.6677 0.657 0.03101 0.0
C1254 C 0.70212 0.62744 0.03569 0.0
C1255 C 0.735 0.60725 0.02822 0.0
C1256 C 0.73466 0.61723 0.01643 0.0
C1257 C 0.70097 0.64716 0.01218 0.0
C1258 C 0.66762 0.66625 0.01917 0.0
C1259 C 0.63511 0.69706 0.01229 0.0
C1260 C 0.5854 0.67836 0.01269 0.0
C1261 C 0.63738 0.74728 0.01656 0.0
C1262 C 0.65567 0.69249 1.00033 0.0
C1263 C 0.69385 0.66376 1.00057 0.0
C1264 C 0.71939 0.65437 0.99076 0.0
C1265 C 0.70511 0.67382 0.98036 0.0
C1266 C 0.66516 0.7023 0.97967 0.0
C1267 C 0.64045 0.71216 0.9899 0.0
H1268 H 0.33856 0.32855 0.03632 0.0
H1269 H 0.2404 0.43704 0.02785 0.0
H1270 H 0.25249 0.42163 0.00727 0.0
H1271 H 0.41779 0.35164 0.01292 0.0
H1272 H 0.43096 0.29161 0.01044 0.0
H1273 H 0.41488 0.3108 0.0246 0.0
H1274 H 0.34879 0.25057 0.02508 0.0
H1275 H 0.36454 0.23118 0.0109 0.0
H1276 H 0.30634 0.25021 0.01374 0.0
H1277 H 0.27335 0.39448 0.98787 0.0
H1278 H 0.30399 0.35976 0.97037 0.0
H1279 H 0.39075 0.26837 0.99077 0.0
C1280 C 0.31962 0.34918 0.03015 0.0
C1281 C 0.28832 0.38405 0.03376 0.0
C1282 C 0.26448 0.41022 0.02536 0.0
C1283 C 0.27106 0.40165 0.01363 0.0
C1284 C 0.30177 0.36693 0.01039 0.0
C1285 C 0.32594 0.34124 0.01836 0.0
C1286 C 0.35716 0.3062 0.01247 0.0
C1287 C 0.40823 0.31564 0.01528 0.0
C1288 C 0.34337 0.2566 0.01575 0.0
C1289 C 0.3466 0.31623 0.99993 0.0
C1290 C 0.31439 0.35133 0.99902 0.0
C1291 C 0.29865 0.36704 0.98846 0.0
C1292 C 0.31643 0.34678 0.97852 0.0
C1293 C 0.35 0.31096 0.97907 0.0
C1294 C 0.36511 0.29543 0.99 0.0
H1295 H 0.6146 0.78957 0.27356 0.0
H1296 H 0.70672 0.87907 0.29295 0.0
H1297 H 0.73491 0.9133 0.27506 0.0
H1298 H 0.69457 0.76884 0.25006 0.0
H1299 H 0.65043 0.76935 0.23914 0.0
H1300 H 0.63642 0.75138 0.25354 0.0
H1301 H 0.57164 0.81308 0.2544 0.0
H1302 H 0.58559 0.83123 0.24001 0.0
H1303 H 0.58554 0.87271 0.25155 0.0
H1304 H 0.75288 0.93985 0.25526 0.0
H1305 H 0.76217 0.95364 0.23448 0.0
H1306 H 0.6609 0.84637 0.22746 0.0
C1307 C 0.64077 0.81624 0.27404 0.0
C1308 C 0.65814 0.83143 0.28477 0.0
C1309 C 0.69251 0.86653 0.28493 0.0
C1310 C 0.7089 0.88646 0.27478 0.0
C1311 C 0.69098 0.87101 0.2644 0.0
C1312 C 0.65797 0.83651 0.26389 0.0
C1313 C 0.6453 0.82612 0.2515 0.0
C1314 C 0.65741 0.77594 0.24838 0.0
C1315 C 0.59397 0.83641 0.24923 0.0
C1316 C 0.67634 0.86017 0.24521 0.0
C1317 C 0.70214 0.88588 0.25285 0.0
C1318 C 0.73297 0.91984 0.24916 0.0
C1319 C 0.73793 0.92752 0.23733 0.0
C1320 C 0.71245 0.90114 0.22927 0.0
C1321 C 0.68111 0.86711 0.23335 0.0
H1322 H 0.18195 0.1643 0.47773 0.0
H1323 H 0.07682 0.26442 0.48728 0.0
H1324 H 0.09514 0.252 0.50765 0.0
H1325 H 0.1602 0.0854 0.50134 0.0
H1326 H 0.22014 0.07065 0.50339 0.0
H1327 H 0.19967 0.08741 0.48937 0.0
H1328 H 0.26149 0.15196 0.48849 0.0
H1329 H 0.28219 0.13545 0.5025 0.0
H1330 H 0.26435 0.19417 0.49984 0.0
H1331 H 0.12447 0.23076 0.52677 0.0
H1332 H 0.16098 0.19941 0.54403 0.0
H1333 H 0.24702 0.11021 0.52292 0.0
C1334 C 0.16279 0.18362 0.4841 0.0
C1335 C 0.12788 0.2155 0.48082 0.0
C1336 C 0.1036 0.23983 0.48948 0.0
C1337 C 0.11381 0.23309 0.50112 0.0
C1338 C 0.14828 0.20166 0.50404 0.0
C1339 C 0.17231 0.17703 0.49584 0.0
C1340 C 0.20723 0.14482 0.50148 0.0
C1341 C 0.19613 0.09406 0.49873 0.0
C1342 C 0.25675 0.15736 0.49786 0.0
C1343 C 0.19902 0.15544 0.51412 0.0
C1344 C 0.16495 0.18855 0.5153 0.0
C1345 C 0.1511 0.20472 0.52598 0.0
C1346 C 0.1723 0.18652 0.53577 0.0
C1347 C 0.20711 0.15207 0.53495 0.0
C1348 C 0.22063 0.13642 0.5239 0.0
H1349 H 0.77084 0.6031 0.73759 0.0
H1350 H 0.88708 0.66458 0.71954 0.0
H1351 H 0.92131 0.68786 0.73787 0.0
H1352 H 0.76253 0.69136 0.75923 0.0
H1353 H 0.74811 0.65219 0.77073 0.0
H1354 H 0.73274 0.63806 0.75615 0.0
H1355 H 0.7768 0.56045 0.75789 0.0
H1356 H 0.79222 0.57438 0.77248 0.0
H1357 H 0.83665 0.56067 0.76219 0.0
H1358 H 0.9434 0.7062 0.75798 0.0
H1359 H 0.9505 0.71977 0.77881 0.0
H1360 H 0.82024 0.64819 0.78425 0.0
C1361 C 0.80361 0.62117 0.73751 0.0
C1362 C 0.82603 0.63189 0.72703 0.0
C1363 C 0.86882 0.65595 0.72736 0.0
C1364 C 0.88883 0.66934 0.73777 0.0
C1365 C 0.86582 0.65868 0.7479 0.0
C1366 C 0.82414 0.63527 0.74791 0.0
C1367 C 0.8063 0.62959 0.7601 0.0
C1368 C 0.75966 0.65428 0.76164 0.0
C1369 C 0.8028 0.57821 0.76335 0.0
C1370 C 0.84438 0.65361 0.76683 0.0
C1371 C 0.87845 0.66988 0.75961 0.0
C1372 C 0.91696 0.69358 0.76375 0.0
C1373 C 0.9207 0.70113 0.77562 0.0
C1374 C 0.886 0.68525 0.78324 0.0
C1375 C 0.84747 0.66092 0.77871 0.0
H1376 H 0.07107 0.10406 0.19743 0.0
H1377 H 0.14442 0.01424 0.22111 0.0
H1378 H 0.07396 0.9673 0.22359 0.0
H1379 H 0.95947 0.10038 0.21206 0.0
H1380 H 0.92703 0.09993 0.19884 0.0
H1381 H 0.98262 0.12789 0.19941 0.0
H1382 H 0.01069 0.07741 0.18242 0.0
H1383 H 0.95536 0.04902 0.18187 0.0
H1384 H 0.00733 0.01536 0.18352 0.0
H1385 H 0.99555 0.92805 0.22299 0.0
H1386 H 0.91508 0.90195 0.21981 0.0
H1387 H 0.8938 0.01651 0.19629 0.0
C1388 C 0.07216 0.075 0.20329 0.0
C1389 C 0.11342 0.0631 0.20911 0.0
C1390 C 0.11335 0.02424 0.21655 0.0
C1391 C 0.07344 0.99724 0.21802 0.0
C1392 C 0.03367 0.00934 0.21198 0.0
C1393 C 0.03264 0.04747 0.20481 0.0
C1394 C 0.98582 0.05226 0.19907 0.0
C1395 C 0.96235 0.09782 0.20256 0.0
C1396 C 0.99008 0.04826 0.18594 0.0
C1397 C 0.96081 0.0109 0.20411 0.0
C1398 C 0.9889 0.98655 0.21154 0.0
C1399 C 0.97321 0.94697 0.2172 0.0
C1400 C 0.92747 0.93228 0.21531 0.0
C1401 C 0.89788 0.95704 0.20781 0.0
C1402 C 0.91527 0.99666 0.2021 0.0
H1403 H 0.0749 0.44407 0.44505 0.0
H1404 H 0.97596 0.36813 0.46579 0.0
H1405 H 0.93044 0.43924 0.46849 0.0
H1406 H 0.06989 0.55193 0.46123 0.0
H1407 H 0.07418 0.58756 0.44857 0.0
H1408 H 0.10039 0.53111 0.44877 0.0
H1409 H 0.05426 0.50879 0.43051 0.0
H1410 H 0.02769 0.56505 0.43031 0.0
H1411 H 0.99217 0.51389 0.43054 0.0
H1412 H 0.89399 0.51859 0.4685 0.0
H1413 H 0.87072 0.60031 0.46599 0.0
H1414 H 0.99238 0.62359 0.44494 0.0
C1415 C 0.04406 0.44254 0.4503 0.0
C1416 C 0.02919 0.40044 0.45523 0.0
C1417 C 0.98815 0.39989 0.4619 0.0
C1418 C 0.96197 0.44015 0.4635 0.0
C1419 C 0.9771 0.48086 0.45836 0.0
C1420 C 0.01725 0.48243 0.45192 0.0
C1421 C 0.02501 0.53034 0.44703 0.0
C1422 C 0.07004 0.55148 0.45168 0.0
C1423 C 0.02475 0.52944 0.43382 0.0
C1424 C 0.98297 0.55528 0.4517 0.0
C1425 C 0.95579 0.52627 0.45824 0.0
C1426 C 0.91509 0.54169 0.46341 0.0
C1427 C 0.90207 0.58814 0.46192 0.0
C1428 C 0.92959 0.61853 0.45528 0.0
C1429 C 0.97042 0.60147 0.45008 0.0
H1430 H 0.43903 0.42142 0.69442 0.0
H1431 H 0.37237 0.47774 0.7247 0.0
H1432 H 0.44461 0.51847 0.72982 0.0
H1433 H 0.55312 0.40558 0.70666 0.0
H1434 H 0.58285 0.42321 0.69379 0.0
H1435 H 0.52661 0.39682 0.69282 0.0
H1436 H 0.49678 0.46752 0.68134 0.0
H1437 H 0.55286 0.49426 0.68237 0.0
H1438 H 0.50238 0.52456 0.6874 0.0
H1439 H 0.52532 0.55152 0.73194 0.0
H1440 H 0.60689 0.57666 0.73043 0.0
H1441 H 0.61923 0.50409 0.698 0.0
C1442 C 0.43983 0.44182 0.70221 0.0
C1443 C 0.40012 0.44583 0.70925 0.0
C1444 C 0.40236 0.47384 0.71922 0.0
C1445 C 0.44327 0.49717 0.72219 0.0
C1446 C 0.48162 0.49287 0.71502 0.0
C1447 C 0.48018 0.46613 0.70519 0.0
C1448 C 0.52573 0.46868 0.69874 0.0
C1449 C 0.54841 0.42072 0.69796 0.0
C1450 C 0.51901 0.49003 0.68675 0.0
C1451 C 0.55311 0.50068 0.70651 0.0
C1452 C 0.52717 0.51394 0.71591 0.0
C1453 C 0.54575 0.54173 0.72455 0.0
C1454 C 0.5921 0.55592 0.72362 0.0
C1455 C 0.61926 0.54303 0.71403 0.0
C1456 C 0.59912 0.51541 0.70532 0.0
H1457 H 0.48355 0.10819 0.96951 0.0
H1458 H 0.37923 0.08349 0.94345 0.0
H1459 H 0.40522 1.00251 0.9418 0.0
H1460 H 0.57255 0.03628 0.95793 0.0
H1461 H 0.5917 0.014 0.97159 0.0
H1462 H 0.56551 0.07038 0.97076 0.0
H1463 H 0.5045 0.04607 0.98585 0.0
H1464 H 0.53072 0.98972 0.9868 0.0
H1465 H 0.47015 0.99503 0.98342 0.0
H1466 H 0.44636 0.92645 0.94174 0.0
H1467 H 0.4916 0.85598 0.94533 0.0
H1468 H 0.56466 0.92515 0.97299 0.0
C1469 C 0.46598 0.08554 0.96353 0.0
C1470 C 0.42929 0.10226 0.95659 0.0
C1471 C 0.40708 0.07149 0.94891 0.0
C1472 C 0.42184 0.02547 0.94786 0.0
C1473 C 0.45831 0.01019 0.95471 0.0
C1474 C 0.47946 0.03889 0.9626 0.0
C1475 C 0.51665 0.01285 0.96923 0.0
C1476 C 0.56443 0.03469 0.96726 0.0
C1477 C 0.50478 0.0108 0.98209 0.0
C1478 C 0.51349 0.96526 0.96372 0.0
C1479 C 0.48007 0.96497 0.95523 0.0
C1480 C 0.4721 0.92607 0.94849 0.0
C1481 C 0.49826 0.88615 0.95057 0.0
C1482 C 0.53155 0.88464 0.95952 0.0
C1483 C 0.53919 0.92497 0.96617 0.0
H1484 H 0.05757 0.42889 0.07084 0.0
H1485 H 0.13707 0.52976 0.05152 0.0
H1486 H 0.06708 0.57676 0.04879 0.0
H1487 H 0.95192 0.43806 0.05385 0.0
H1488 H 0.91443 0.4324 0.06613 0.0
H1489 H 0.97054 0.40544 0.06621 0.0
H1490 H 0.99083 0.44851 0.08505 0.0
H1491 H 0.9349 0.47579 0.08499 0.0
H1492 H 0.98649 0.51062 0.08554 0.0
H1493 H 0.98864 0.61438 0.04848 0.0
H1494 H 0.90697 0.63848 0.05038 0.0
H1495 H 0.87862 0.51421 0.07009 0.0
C1496 C 0.06013 0.46055 0.06592 0.0
C1497 C 0.103 0.47545 0.06139 0.0
C1498 C 0.1048 0.5175 0.05512 0.0
C1499 C 0.06516 0.54455 0.0535 0.0
C1500 C 0.02367 0.52933 0.05821 0.0
C1501 C 0.02077 0.48826 0.06426 0.0
C1502 C 0.97201 0.48049 0.06864 0.0
C1503 C 0.95099 0.43649 0.06339 0.0
C1504 C 0.97102 0.47876 0.08184 0.0
C1505 C 0.94821 0.52357 0.06413 0.0
C1506 C 0.97856 0.55127 0.05811 0.0
C1507 C 0.96449 0.5929 0.05316 0.0
C1508 C 0.91803 0.60638 0.0543 0.0
C1509 C 0.88619 0.57839 0.06037 0.0
C1510 C 0.90188 0.53656 0.06538 0.0
H1511 H 0.50478 0.63682 0.30491 0.0
H1512 H 0.6514 0.60491 0.30569 0.0
H1513 H 0.63292 0.52191 0.30731 0.0
H1514 H 0.46914 0.55182 0.32528 0.0
H1515 H 0.41617 0.53746 0.31795 0.0
H1516 H 0.44055 0.59444 0.31649 0.0
H1517 H 0.44129 0.58547 0.29437 0.0
H1518 H 0.41667 0.52854 0.29575 0.0
H1519 H 0.47003 0.53649 0.28802 0.0
H1520 H 0.59907 0.44312 0.30982 0.0
H1521 H 0.55254 0.37268 0.31183 0.0
H1522 H 0.42684 0.45383 0.30888 0.0
C1523 C 0.53306 0.61237 0.30531 0.0
C1524 C 0.57969 0.62758 0.30514 0.0
C1525 C 0.6155 0.59431 0.30573 0.0
C1526 C 0.60532 0.54702 0.3067 0.0
C1527 C 0.55912 0.53333 0.30698 0.0
C1528 C 0.52352 0.5649 0.3062 0.0
C1529 C 0.47683 0.54082 0.30674 0.0
C1530 C 0.44904 0.55711 0.31724 0.0
C1531 C 0.4496 0.54827 0.29555 0.0
C1532 C 0.49178 0.49076 0.30804 0.0
C1533 C 0.53945 0.48746 0.30821 0.0
C1534 C 0.56174 0.44527 0.30962 0.0
C1535 C 0.53481 0.40532 0.3108 0.0
C1536 C 0.48581 0.40734 0.3105 0.0
C1537 C 0.46413 0.4509 0.30909 0.0
H1538 H 0.58773 0.91929 0.55826 0.0
H1539 H 0.66869 0.03837 0.54773 0.0
H1540 H 0.59738 0.08341 0.5452 0.0
H1541 H 0.49095 0.9392 0.53857 0.0
H1542 H 0.44797 0.9209 0.54881 0.0
H1543 H 0.50538 0.89689 0.54936 0.0
H1544 H 0.5128 0.9223 0.57061 0.0
H1545 H 0.45551 0.94648 0.57011 0.0
H1546 H 0.50371 0.98207 0.57434 0.0
H1547 H 0.51758 0.11735 0.54461 0.0
H1548 H 0.43457 0.13682 0.5457 0.0
H1549 H 0.40439 0.99619 0.55636 0.0
C1550 C 0.59043 0.95465 0.55529 0.0
C1551 C 0.63414 0.9751 0.55321 0.0
C1552 C 0.63591 0.02172 0.54944 0.0
C1553 C 0.59547 0.04773 0.54794 0.0
C1554 C 0.55312 0.02683 0.55021 0.0
C1555 C 0.55019 0.9813 0.55375 0.0
C1556 C 0.50019 0.96771 0.55586 0.0
C1557 C 0.48525 0.92887 0.54766 0.0
C1558 C 0.49263 0.95383 0.56848 0.0
C1559 C 0.47572 0.01277 0.55304 0.0
C1560 C 0.50692 0.04639 0.54978 0.0
C1561 C 0.49276 0.09118 0.54707 0.0
C1562 C 0.44548 0.10195 0.54772 0.0
C1563 C 0.41273 0.0681 0.55104 0.0
C1564 C 0.42834 0.02285 0.55368 0.0
H1565 H 0.0332 0.08664 0.82122 0.0
H1566 H 0.10079 0.07145 0.7882 0.0
H1567 H 0.07477 0.99006 0.78729 0.0
H1568 H 0.04877 0.96859 0.83205 0.0
H1569 H 0.99168 0.96658 0.83822 0.0
H1570 H 0.02171 0.02093 0.83707 0.0
H1571 H 0.95249 0.05507 0.8258 0.0
H1572 H 0.92246 1.0007 0.82676 0.0
H1573 H 0.93283 0.02668 0.81292 0.0
H1574 H 0.03924 0.91127 0.78972 0.0
H1575 H 0.99418 0.84164 0.79483 0.0
H1576 H 0.94108 0.91146 0.825 0.0
C1577 C 0.0434 0.06593 0.81392 0.0
C1578 C 0.06959 0.08515 0.80483 0.0
C1579 C 0.0813 0.05716 0.79531 0.0
C1580 C 0.06653 0.011 0.79471 0.0
C1581 C 0.0392 0.99367 0.80359 0.0
C1582 C 0.02751 0.02034 0.81299 0.0
C1583 C 0.99401 0.99499 0.82079 0.0
C1584 C 0.01533 0.98731 0.83274 0.0
C1585 C 0.94771 0.0209 0.82161 0.0
C1586 C 0.98872 0.9498 0.81433 0.0
C1587 C 0.01569 0.94956 0.80453 0.0
C1588 C 0.01778 0.91119 0.79733 0.0
C1589 C 0.992 0.8719 0.80028 0.0
C1590 C 0.96364 0.87155 0.81019 0.0
C1591 C 0.96172 0.9112 0.81725 0.0
H1592 H 0.56861 0.93557 0.2013 0.0
H1593 H 0.64 0.01784 0.17579 0.0
H1594 H 0.57012 0.0657 0.17309 0.0
H1595 H 0.45277 0.93999 0.18771 0.0
H1596 H 0.42343 0.94454 0.20132 0.0
H1597 H 0.47752 0.91391 0.20037 0.0
H1598 H 0.51152 0.96622 0.21632 0.0
H1599 H 0.45773 0.99721 0.21724 0.0
H1600 H 0.51069 0.02808 0.21449 0.0
H1601 H 0.49427 0.10789 0.17412 0.0
H1602 H 0.41727 0.14027 0.17852 0.0
H1603 H 0.39579 0.03148 0.2037 0.0
C1604 C 0.56889 0.96292 0.19495 0.0
C1605 C 0.60935 0.97307 0.18868 0.0
C1606 C 0.60922 0.00981 0.18067 0.0
C1607 C 0.56969 0.03702 0.17906 0.0
C1608 C 0.53057 0.02708 0.18557 0.0
C1609 C 0.52971 0.99075 0.19331 0.0
C1610 C 0.48414 0.98926 0.19972 0.0
C1611 C 0.45791 0.94425 0.19712 0.0
C1612 C 0.49148 0.99559 0.21271 0.0
C1613 C 0.45994 0.0307 0.19448 0.0
C1614 C 0.48712 0.05185 0.18628 0.0
C1615 C 0.47248 0.09139 0.18046 0.0
C1616 C 0.42872 0.10963 0.18304 0.0
C1617 C 0.40018 0.08847 0.19142 0.0
C1618 C 0.41638 0.0485 0.19719 0.0
H1619 H 0.90403 0.94648 0.44844 0.0
H1620 H 0.98493 0.8755 0.42264 0.0
H1621 H 0.03386 0.94477 0.42021 0.0
H1622 H 0.91064 0.06373 0.43515 0.0
H1623 H 0.91509 0.09158 0.44894 0.0
H1624 H 0.88327 0.03833 0.44755 0.0
H1625 H 0.93386 1.00183 0.46353 0.0
H1626 H 0.96625 0.05465 0.46483 0.0
H1627 H 0.99581 1.00112 0.4619 0.0
H1628 H 0.07889 0.01925 0.42209 0.0
H1629 H 0.11284 0.09507 0.42716 0.0
H1630 H 1.002 0.1168 0.45173 0.0
C1631 C 0.93097 0.94622 0.442 0.0
C1632 C 0.94068 0.9059 0.43566 0.0
C1633 C 0.9772 0.90611 0.42759 0.0
C1634 C 1.00505 0.94533 0.42614 0.0
C1635 C 0.9958 0.98411 0.43282 0.0
C1636 C 0.95923 0.98511 0.44048 0.0
C1637 C 0.95847 0.03002 0.44714 0.0
C1638 C 0.91424 0.05754 0.44453 0.0
C1639 C 0.96394 0.02136 0.46011 0.0
C1640 C 1.00072 0.05361 0.44218 0.0
C1641 C 0.02175 0.02678 0.43391 0.0
C1642 C 0.06236 0.04086 0.42846 0.0
C1643 C 0.08156 0.08387 0.43144 0.0
C1644 C 0.06012 0.11218 0.4398 0.0
C1645 C 0.01926 0.09639 0.44523 0.0
H1646 H 0.1137 0.48032 0.70351 0.0
H1647 H 0.09626 0.37554 0.67716 0.0
H1648 H 0.01794 0.40536 0.67314 0.0
H1649 H 0.99865 0.47561 0.71435 0.0
H1650 H 0.99497 0.53684 0.71702 0.0
H1651 H 0.05018 0.50825 0.71751 0.0
H1652 H 0.08212 0.56552 0.70236 0.0
H1653 H 0.02692 0.59424 0.70177 0.0
H1654 H 0.05261 0.57194 0.68882 0.0
H1655 H 0.94052 0.44603 0.6722 0.0
H1656 H 0.86971 0.49316 0.67488 0.0
H1657 H 0.93747 0.57003 0.70197 0.0
C1658 C 0.09364 0.46366 0.69684 0.0
C1659 C 0.11146 0.42558 0.69062 0.0
C1660 C 0.08363 0.40479 0.68203 0.0
C1661 C 0.03905 0.42154 0.67967 0.0
C1662 C 0.02267 0.45911 0.68596 0.0
C1663 C 0.04911 0.47983 0.69439 0.0
C1664 C 0.02307 0.51896 0.70012 0.0
C1665 C 0.01631 0.50931 0.71301 0.0
C1666 C 0.04765 0.56541 0.69815 0.0
C1667 C 0.97765 0.51683 0.69367 0.0
C1668 C 0.97819 0.48226 0.68547 0.0
C1669 C 0.93984 0.47331 0.67855 0.0
C1670 C 0.89989 0.50016 0.6801 0.0
C1671 C 0.8987 0.53531 0.68851 0.0
C1672 C 0.938 0.54377 0.69536 0.0
H1673 H 0.46312 0.41354 0.96075 0.0
H1674 H 0.47017 0.37835 0.92463 0.0
H1675 H 0.51569 0.44925 0.92087 0.0
H1676 H 0.44599 0.53572 0.95593 0.0
H1677 H 0.47893 0.55322 0.96833 0.0
H1678 H 0.44958 0.49833 0.96829 0.0
H1679 H 0.52679 0.45687 0.97286 0.0
H1680 H 0.55639 0.51165 0.97288 0.0
H1681 H 0.57592 0.46579 0.96361 0.0
H1682 H 0.56257 0.5225 0.9212 0.0
H1683 H 0.59929 0.59806 0.92504 0.0
H1684 H 0.5553 0.58996 0.96061 0.0
C1685 C 0.47456 0.42083 0.95208 0.0
C1686 C 0.4637 0.39054 0.94297 0.0
C1687 C 0.47831 0.40131 0.93169 0.0
C1688 C 0.50429 0.4413 0.9295 0.0
C1689 C 0.51449 0.47062 0.93866 0.0
C1690 C 0.4994 0.46137 0.94969 0.0
C1691 C 0.51249 0.50015 0.95783 0.0
C1692 C 0.46917 0.52322 0.96289 0.0
C1693 C 0.54483 0.48255 0.96736 0.0
C1694 C 0.53762 0.53242 0.94967 0.0
C1695 C 0.53902 0.51432 0.9387 0.0
C1696 C 0.56141 0.53716 0.92974 0.0
C1697 C 0.58237 0.57992 0.93202 0.0
C1698 C 0.58005 0.59985 0.9431 0.0
C1699 C 0.5574 0.57563 0.95203 0.0
H1700 H 0.55778 0.59695 0.06399 0.0
H1701 H 0.62636 0.52828 0.09229 0.0
H1702 H 0.55825 0.47778 0.09504 0.0
H1703 H 0.43948 0.5924 0.07636 0.0
H1704 H 0.41343 0.58259 0.06251 0.0
H1705 H 0.46602 0.61566 0.0636 0.0
H1706 H 0.50518 0.56011 0.04911 0.0
H1707 H 0.453 0.5265 0.04815 0.0
H1708 H 0.50655 0.49902 0.05214 0.0
H1709 H 0.48467 0.42989 0.09343 0.0
H1710 H 0.40921 0.39381 0.0887 0.0
H1711 H 0.38936 0.4955 0.06171 0.0
C1712 C 0.5577 0.57229 0.07098 0.0
C1713 C 0.59697 0.56648 0.07799 0.0
C1714 C 0.59647 0.53298 0.08684 0.0
C1715 C 0.55794 0.50425 0.08846 0.0
C1716 C 0.52011 0.5097 0.08118 0.0
C1717 C 0.51941 0.54344 0.07273 0.0
C1718 C 0.47534 0.54104 0.06577 0.0
C1719 C 0.44689 0.58557 0.06715 0.0
C1720 C 0.48566 0.53106 0.05304 0.0
C1721 C 0.4518 0.50036 0.07148 0.0
C1722 C 0.47799 0.48259 0.08035 0.0
C1723 C 0.46361 0.44388 0.08658 0.0
C1724 C 0.4209 0.4234 0.0838 0.0
C1725 C 0.39316 0.44183 0.07489 0.0
C1726 C 0.40934 0.48062 0.06865 0.0
H1727 H 0.45862 0.10758 0.3058 0.0
H1728 H 0.42452 0.11961 0.34191 0.0
H1729 H 0.4633 0.04469 0.34571 0.0
H1730 H 0.4398 0.98213 0.30408 0.0
H1731 H 0.48619 0.97421 0.29394 0.0
H1732 H 0.45462 0.02785 0.29421 0.0
H1733 H 0.53146 0.07255 0.29695 0.0
H1734 H 0.56322 0.01906 0.29686 0.0
H1735 H 0.56867 0.05809 0.30884 0.0
H1736 H 0.51326 0.97228 0.34568 0.0
H1737 H 0.55893 0.90178 0.3414 0.0
H1738 H 0.55367 0.93421 0.30509 0.0
C1739 C 0.45865 0.09394 0.31447 0.0
C1740 C 0.43857 0.11902 0.32358 0.0
C1741 C 0.43927 0.10043 0.33482 0.0
C1742 C 0.46153 0.0582 0.33705 0.0
C1743 C 0.48197 0.03474 0.3279 0.0
C1744 C 0.47963 0.05142 0.31678 0.0
C1745 C 0.50353 0.0193 0.30842 0.0
C1746 C 0.46897 0.99971 0.29965 0.0
C1747 C 0.54412 0.04372 0.30242 0.0
C1748 C 0.5204 0.98222 0.31658 0.0
C1749 C 0.5083 0.99204 0.3278 0.0
C1750 C 0.52231 0.96393 0.33691 0.0
C1751 C 0.5485 0.92428 0.33443 0.0
C1752 C 0.5595 0.91283 0.32295 0.0
C1753 C 0.54533 0.94221 0.31394 0.0
H1754 H 0.93517 0.95337 0.55522 0.0
H1755 H 0.91211 0.9338 0.59167 0.0
H1756 H 0.98761 0.97108 0.5958 0.0
H1757 H 0.05911 0.92907 0.55599 0.0
H1758 H 0.07186 0.97099 0.54498 0.0
H1759 H 0.01671 0.94211 0.54511 0.0
H1760 H 0.9753 0.02151 0.54536 0.0
H1761 H 0.03028 0.05065 0.54536 0.0
H1762 H 0.98883 0.06246 0.55652 0.0
H1763 H 0.06299 0.01761 0.59576 0.0
H1764 H 0.13657 0.05832 0.59153 0.0
H1765 H 0.112 0.04083 0.55507 0.0
C1766 C 0.94631 0.95645 0.56407 0.0
C1767 C 0.91797 0.94087 0.57315 0.0
C1768 C 0.93363 0.94524 0.58461 0.0
C1769 C 0.97623 0.96664 0.58702 0.0
C1770 C 1.00299 0.98254 0.57785 0.0
C1771 C 0.98901 0.97665 0.56659 0.0
C1772 C 0.02426 0.99577 0.55824 0.0
C1773 C 0.04417 0.95718 0.55064 0.0
C1774 C 1.00341 0.03492 0.55094 0.0
C1775 C 0.06012 0.01402 0.56654 0.0
C1776 C 0.04705 0.00673 0.57782 0.0
C1777 C 0.07381 0.02285 0.58696 0.0
C1778 C 0.11531 0.04617 0.58449 0.0
C1779 C 0.12995 0.05231 0.573 0.0
C1780 C 0.10183 0.03608 0.56395 0.0
H1781 H 0.99708 0.59535 0.8244 0.0
H1782 H 0.85333 0.55241 0.82535 0.0
H1783 H 0.87844 0.47087 0.82664 0.0
H1784 H 0.03836 0.50682 0.80708 0.0
H1785 H 0.09274 0.50014 0.81445 0.0
H1786 H 0.06367 0.55512 0.81456 0.0
H1787 H 0.06456 0.55548 0.8368 0.0
H1788 H 0.09407 0.50063 0.83677 0.0
H1789 H 0.04061 0.50712 0.84455 0.0
H1790 H 0.91918 0.39446 0.82524 0.0
H1791 H 0.97176 0.32857 0.82322 0.0
H1792 H 0.08968 0.42107 0.82484 0.0
C1793 C 0.97069 0.56906 0.82514 0.0
C1794 C 0.92308 0.5805 0.82482 0.0
C1795 C 0.88992 0.54468 0.82566 0.0
C1796 C 0.90389 0.49825 0.82637 0.0
C1797 C 0.95111 0.48833 0.82642 0.0
C1798 C 0.984 0.52279 0.82602 0.0
C1799 C 0.03254 0.50297 0.82585 0.0
C1800 C 0.05832 0.5171 0.81483 0.0
C1801 C 0.05953 0.5174 0.83664 0.0
C1802 C 0.02186 0.45173 0.82595 0.0
C1803 C 0.97467 0.44413 0.82622 0.0
C1804 C 0.95617 0.39994 0.82536 0.0
C1805 C 0.98655 0.36256 0.82424 0.0
C1806 C 0.03515 0.36916 0.82422 0.0
C1807 C 0.05286 0.41456 0.82515 0.0
loop_
_geom_bond_atom_site_label_1
_geom_bond_atom_site_label_2
_geom_bond_distance
_geom_bond_site_symmetry_2
_ccdc_geom_bond_type
Co0 O2 2.143 . S
Co0 O8 2.074 . S
Co0 O11 2.093 . S
Co0 O24 2.097 . S
Co0 N41 2.151 . S
Co0 N49 2.214 . S
Co1 O2 2.160 . S
Co1 O7 2.058 . S
Co1 O17 2.057 . S
Co1 O32 2.037 . S
Co1 N36 2.145 1_545 S
Co1 N57 2.257 . S
O2 Co0 2.143 . S
O2 Co1 2.160 . S
C3 O4 1.278 . S
C3 O11 1.224 . S
O4 C3 1.278 . S
C5 O6 1.245 . S
C5 O17 1.232 . S
O6 C5 1.245 . S
O7 Co1 2.058 . S
O7 C33 1.269 . S
O8 Co0 2.074 . S
O8 C33 1.257 . S
H9 C34 0.930 . S
H10 C40 0.930 . S
O11 Co0 2.093 . S
O11 C3 1.224 . S
H12 C44 0.929 . S
H13 C46 0.930 . S
H14 C47 0.930 . S
H15 C45 0.929 . S
H16 C48 0.928 . S
O17 Co1 2.057 . S
O17 C5 1.232 . S
H18 C37 0.929 1_545 S
H19 C38 0.929 . S
H20 C50 0.931 . S
H21 C42 0.929 . S
H22 C51 0.930 . S
H23 C43 0.931 . S
O24 Co0 2.097 . S
O24 C52 1.214 . S
H25 C53 0.929 . S
H26 C54 0.929 . S
H27 C55 0.930 . S
H28 C56 0.929 . S
H29 C58 0.930 . S
H30 C35 0.930 . S
H31 C39 0.930 . S
O32 Co1 2.037 . S
O32 C52 1.234 . S
C33 O7 1.269 . S
C33 O8 1.257 . S
C34 H9 0.930 . S
C34 C37 1.388 . S
C34 C39 1.418 . S
C35 H30 0.930 . S
C35 C38 1.404 . S
C35 C39 1.353 . S
N36 Co1 2.145 1_565 S
N36 C37 1.397 . S
N36 C38 1.334 . S
C37 H18 0.929 1_565 S
C37 C34 1.388 . S
C37 N36 1.397 . S
C38 H19 0.929 . S
C38 C35 1.404 . S
C38 N36 1.334 . S
C39 H31 0.930 . S
C39 C34 1.418 . S
C39 C35 1.353 . S
C40 H10 0.930 . S
C40 N41 1.330 . S
C40 C42 1.446 . S
N41 Co0 2.151 . S
N41 C40 1.330 . S
N41 C45 1.418 . S
C42 H21 0.929 . S
C42 C40 1.446 . S
C42 C43 1.332 . S
C43 H23 0.931 . S
C43 C42 1.332 . S
C43 C44 1.267 . S
C44 H12 0.929 . S
C44 C43 1.267 . S
C44 C45 1.251 . S
C45 H15 0.929 . S
C45 N41 1.418 . S
C45 C44 1.251 . S
C46 H13 0.930 . S
C46 C48 1.406 . S
C46 C51 1.261 . S
C47 H14 0.930 . S
C47 N49 1.325 . S
C47 C50 1.357 . S
C48 H16 0.928 . S
C48 C46 1.406 . S
C48 N49 1.261 . S
N49 Co0 2.214 . S
N49 C47 1.325 . S
N49 C48 1.261 . S
C50 H20 0.931 . S
C50 C47 1.357 . S
C50 C51 1.312 . S
C51 H22 0.930 . S
C51 C46 1.261 . S
C51 C50 1.312 . S
C52 O24 1.214 . S
C52 O32 1.234 . S
C53 H25 0.929 . S
C53 C56 1.391 1_545 S
C53 C58 1.391 . S
C54 H26 0.929 . S
C54 C55 1.390 . S
C54 N57 1.391 1_565 S
C55 H27 0.930 . S
C55 C54 1.390 . S
C55 C56 1.392 . S
C56 H28 0.929 . S
C56 C53 1.391 1_565 S
C56 C55 1.392 . S
N57 Co1 2.257 . S
N57 C54 1.391 1_545 S
N57 C58 1.388 . S
C58 H29 0.930 . S
C58 C53 1.391 . S
C58 N57 1.388 . S
Co59 O61 2.143 . S
Co59 O67 2.074 . S
Co59 O70 2.093 . S
Co59 O83 2.097 . S
Co59 N100 2.151 . S
Co59 N108 2.214 . S
Co60 O61 2.160 . S
Co60 O66 2.058 . S
Co60 O76 2.057 . S
Co60 O91 2.037 . S
Co60 N95 2.145 1_655 S
Co60 N116 2.257 . S
O61 Co59 2.143 . S
O61 Co60 2.160 . S
C62 O63 1.278 . S
C62 O70 1.224 . S
O63 C62 1.278 . S
C64 O65 1.245 . S
C64 O76 1.232 . S
O65 C64 1.245 . S
O66 Co60 2.058 . S
O66 C92 1.269 . S
O67 Co59 2.074 . S
O67 C92 1.257 . S
H68 C93 0.930 . S
H69 C99 0.930 . S
O70 Co59 2.093 . S
O70 C62 1.224 . S
H71 C103 0.929 . S
H72 C105 0.930 . S
H73 C106 0.930 . S
H74 C104 0.929 . S
H75 C107 0.928 . S
O76 Co60 2.057 . S
O76 C64 1.232 . S
H77 C96 0.929 1_655 S
H78 C97 0.929 . S
H79 C109 0.931 . S
H80 C101 0.929 . S
H81 C110 0.930 . S
H82 C102 0.931 . S
O83 Co59 2.097 . S
O83 C111 1.214 . S
H84 C112 0.929 . S
H85 C113 0.929 . S
H86 C114 0.930 . S
H87 C115 0.929 . S
H88 C117 0.930 . S
H89 C94 0.930 . S
H90 C98 0.930 . S
O91 Co60 2.037 . S
O91 C111 1.234 . S
C92 O66 1.269 . S
C92 O67 1.257 . S
C93 H68 0.930 . S
C93 C96 1.388 . S
C93 C98 1.418 . S
C94 H89 0.930 . S
C94 C97 1.404 . S
C94 C98 1.353 . S
N95 Co60 2.145 1_455 S
N95 C96 1.397 . S
N95 C97 1.334 . S
C96 H77 0.929 1_455 S
C96 C93 1.388 . S
C96 N95 1.397 . S
C97 H78 0.929 . S
C97 C94 1.404 . S
C97 N95 1.334 . S
C98 H90 0.930 . S
C98 C93 1.418 . S
C98 C94 1.353 . S
C99 H69 0.930 . S
C99 N100 1.330 . S
C99 C101 1.446 . S
N100 Co59 2.151 . S
N100 C99 1.330 . S
N100 C104 1.418 . S
C101 H80 0.929 . S
C101 C99 1.446 . S
C101 C102 1.332 . S
C102 H82 0.931 . S
C102 C101 1.332 . S
C102 C103 1.267 . S
C103 H71 0.929 . S
C103 C102 1.267 . S
C103 C104 1.251 . S
C104 H74 0.929 . S
C104 N100 1.418 . S
C104 C103 1.251 . S
C105 H72 0.930 . S
C105 C107 1.406 . S
C105 C110 1.261 . S
C106 H73 0.930 . S
C106 N108 1.325 . S
C106 C109 1.357 . S
C107 H75 0.928 . S
C107 C105 1.406 . S
C107 N108 1.261 . S
N108 Co59 2.214 . S
N108 C106 1.325 . S
N108 C107 1.261 . S
C109 H79 0.931 . S
C109 C106 1.357 . S
C109 C110 1.312 . S
C110 H81 0.930 . S
C110 C105 1.261 . S
C110 C109 1.312 . S
C111 O83 1.214 . S
C111 O91 1.234 . S
C112 H84 0.929 . S
C112 C115 1.391 1_655 S
C112 C117 1.391 . S
C113 H85 0.929 . S
C113 C114 1.390 . S
C113 N116 1.391 1_455 S
C114 H86 0.930 . S
C114 C113 1.390 . S
C114 C115 1.392 . S
C115 H87 0.929 . S
C115 C112 1.391 1_455 S
C115 C114 1.392 . S
N116 Co60 2.257 . S
N116 C113 1.391 1_655 S
N116 C117 1.388 . S
C117 H88 0.930 . S
C117 C112 1.391 . S
C117 N116 1.388 . S
Co118 O120 2.143 . S
Co118 O126 2.074 . S
Co118 O129 2.093 . S
Co118 O142 2.097 . S
Co118 N159 2.151 . S
Co118 N167 2.214 . S
Co119 O120 2.160 . S
Co119 O125 2.058 . S
Co119 O135 2.057 . S
Co119 O150 2.037 . S
Co119 N154 2.145 . S
Co119 N175 2.257 . S
O120 Co118 2.143 . S
O120 Co119 2.160 . S
C121 O122 1.278 . S
C121 O129 1.224 . S
O122 C121 1.278 . S
C123 O124 1.245 . S
C123 O135 1.232 . S
O124 C123 1.245 . S
O125 Co119 2.058 . S
O125 C151 1.269 . S
O126 Co118 2.074 . S
O126 C151 1.257 . S
H127 C152 0.930 . S
H128 C158 0.930 . S
O129 Co118 2.093 . S
O129 C121 1.224 . S
H130 C162 0.929 . S
H131 C164 0.930 . S
H132 C165 0.930 . S
H133 C163 0.929 . S
H134 C166 0.928 . S
O135 Co119 2.057 . S
O135 C123 1.232 . S
H136 C155 0.929 . S
H137 C156 0.929 . S
H138 C168 0.931 . S
H139 C160 0.929 . S
H140 C169 0.930 . S
H141 C161 0.931 . S
O142 Co118 2.097 . S
O142 C170 1.214 . S
H143 C171 0.929 . S
H144 C172 0.929 . S
H145 C173 0.930 . S
H146 C174 0.929 . S
H147 C176 0.930 . S
H148 C153 0.930 . S
H149 C157 0.930 . S
O150 Co119 2.037 . S
O150 C170 1.234 . S
C151 O125 1.269 . S
C151 O126 1.257 . S
C152 H127 0.930 . S
C152 C155 1.388 . S
C152 C157 1.418 . S
C153 H148 0.930 . S
C153 C156 1.404 . S
C153 C157 1.353 . S
N154 Co119 2.145 . S
N154 C155 1.397 . S
N154 C156 1.334 . S
C155 H136 0.929 . S
C155 C152 1.388 . S
C155 N154 1.397 . S
C156 H137 0.929 . S
C156 C153 1.404 . S
C156 N154 1.334 . S
C157 H149 0.930 . S
C157 C152 1.418 . S
C157 C153 1.353 . S
C158 H128 0.930 . S
C158 N159 1.330 . S
C158 C160 1.446 . S
N159 Co118 2.151 . S
N159 C158 1.330 . S
N159 C163 1.418 . S
C160 H139 0.929 . S
C160 C158 1.446 . S
C160 C161 1.332 . S
C161 H141 0.931 . S
C161 C160 1.332 . S
C161 C162 1.267 . S
C162 H130 0.929 . S
C162 C161 1.267 . S
C162 C163 1.251 . S
C163 H133 0.929 . S
C163 N159 1.418 . S
C163 C162 1.251 . S
C164 H131 0.930 . S
C164 C166 1.406 . S
C164 C169 1.261 . S
C165 H132 0.930 . S
C165 N167 1.325 . S
C165 C168 1.357 . S
C166 H134 0.928 . S
C166 C164 1.406 . S
C166 N167 1.261 . S
N167 Co118 2.214 . S
N167 C165 1.325 . S
N167 C166 1.261 . S
C168 H138 0.931 . S
C168 C165 1.357 . S
C168 C169 1.312 . S
C169 H140 0.930 . S
C169 C164 1.261 . S
C169 C168 1.312 . S
C170 O142 1.214 . S
C170 O150 1.234 . S
C171 H143 0.929 . S
C171 C174 1.391 . S
C171 C176 1.391 . S
C172 H144 0.929 . S
C172 C173 1.390 . S
C172 N175 1.391 . S
C173 H145 0.930 . S
C173 C172 1.390 . S
C173 C174 1.392 . S
C174 H146 0.929 . S
C174 C171 1.391 . S
C174 C173 1.392 . S
N175 Co119 2.257 . S
N175 C172 1.391 . S
N175 C176 1.388 . S
C176 H147 0.930 . S
C176 C171 1.391 . S
C176 N175 1.388 . S
Co177 O179 2.143 . S
Co177 O185 2.074 . S
Co177 O188 2.093 . S
Co177 O201 2.097 . S
Co177 N218 2.151 . S
Co177 N226 2.214 . S
Co178 O179 2.160 . S
Co178 O184 2.058 . S
Co178 O194 2.057 . S
Co178 O209 2.037 . S
Co178 N213 2.145 . S
Co178 N234 2.257 . S
O179 Co177 2.143 . S
O179 Co178 2.160 . S
C180 O181 1.278 . S
C180 O188 1.224 . S
O181 C180 1.278 . S
C182 O183 1.245 . S
C182 O194 1.232 . S
O183 C182 1.245 . S
O184 Co178 2.058 . S
O184 C210 1.269 . S
O185 Co177 2.074 . S
O185 C210 1.257 . S
H186 C211 0.930 . S
H187 C217 0.930 . S
O188 Co177 2.093 . S
O188 C180 1.224 . S
H189 C221 0.929 . S
H190 C223 0.930 . S
H191 C224 0.930 . S
H192 C222 0.929 . S
H193 C225 0.928 . S
O194 Co178 2.057 . S
O194 C182 1.232 . S
H195 C214 0.929 . S
H196 C215 0.929 . S
H197 C227 0.931 . S
H198 C219 0.929 . S
H199 C228 0.930 . S
H200 C220 0.931 . S
O201 Co177 2.097 . S
O201 C229 1.214 . S
H202 C230 0.929 . S
H203 C231 0.929 . S
H204 C232 0.930 . S
H205 C233 0.929 . S
H206 C235 0.930 . S
H207 C212 0.930 . S
H208 C216 0.930 . S
O209 Co178 2.037 . S
O209 C229 1.234 . S
C210 O184 1.269 . S
C210 O185 1.257 . S
C211 H186 0.930 . S
C211 C214 1.388 . S
C211 C216 1.418 . S
C212 H207 0.930 . S
C212 C215 1.404 . S
C212 C216 1.353 . S
N213 Co178 2.145 . S
N213 C214 1.397 . S
N213 C215 1.334 . S
C214 H195 0.929 . S
C214 C211 1.388 . S
C214 N213 1.397 . S
C215 H196 0.929 . S
C215 C212 1.404 . S
C215 N213 1.334 . S
C216 H208 0.930 . S
C216 C211 1.418 . S
C216 C212 1.353 . S
C217 H187 0.930 . S
C217 N218 1.330 . S
C217 C219 1.446 . S
N218 Co177 2.151 . S
N218 C217 1.330 . S
N218 C222 1.418 . S
C219 H198 0.929 . S
C219 C217 1.446 . S
C219 C220 1.332 . S
C220 H200 0.931 . S
C220 C219 1.332 . S
C220 C221 1.267 . S
C221 H189 0.929 . S
C221 C220 1.267 . S
C221 C222 1.251 . S
C222 H192 0.929 . S
C222 N218 1.418 . S
C222 C221 1.251 . S
C223 H190 0.930 . S
C223 C225 1.406 . S
C223 C228 1.261 . S
C224 H191 0.930 . S
C224 N226 1.325 . S
C224 C227 1.357 . S
C225 H193 0.928 . S
C225 C223 1.406 . S
C225 N226 1.261 . S
N226 Co177 2.214 . S
N226 C224 1.325 . S
N226 C225 1.261 . S
C227 H197 0.931 . S
C227 C224 1.357 . S
C227 C228 1.312 . S
C228 H199 0.930 . S
C228 C223 1.261 . S
C228 C227 1.312 . S
C229 O201 1.214 . S
C229 O209 1.234 . S
C230 H202 0.929 . S
C230 C233 1.391 . S
C230 C235 1.391 . S
C231 H203 0.929 . S
C231 C232 1.390 . S
C231 N234 1.391 . S
C232 H204 0.930 . S
C232 C231 1.390 . S
C232 C233 1.392 . S
C233 H205 0.929 . S
C233 C230 1.391 . S
C233 C232 1.392 . S
N234 Co178 2.257 . S
N234 C231 1.391 . S
N234 C235 1.388 . S
C235 H206 0.930 . S
C235 C230 1.391 . S
C235 N234 1.388 . S
Co236 O238 2.143 . S
Co236 O244 2.074 . S
Co236 O247 2.093 . S
Co236 O260 2.097 . S
Co236 N277 2.151 . S
Co236 N285 2.214 . S
Co237 O238 2.160 . S
Co237 O243 2.058 . S
Co237 O253 2.057 . S
Co237 O268 2.037 . S
Co237 N272 2.145 . S
Co237 N293 2.257 . S
O238 Co236 2.143 . S
O238 Co237 2.160 . S
C239 O240 1.278 . S
C239 O247 1.224 . S
O240 C239 1.278 . S
C241 O242 1.245 . S
C241 O253 1.232 . S
O242 C241 1.245 . S
O243 Co237 2.058 . S
O243 C269 1.269 . S
O244 Co236 2.074 . S
O244 C269 1.257 . S
H245 C270 0.930 . S
H246 C276 0.930 . S
O247 Co236 2.093 . S
O247 C239 1.224 . S
H248 C280 0.929 . S
H249 C282 0.930 . S
H250 C283 0.930 . S
H251 C281 0.929 . S
H252 C284 0.928 . S
O253 Co237 2.057 . S
O253 C241 1.232 . S
H254 C273 0.929 . S
H255 C274 0.929 . S
H256 C286 0.931 . S
H257 C278 0.929 . S
H258 C287 0.930 . S
H259 C279 0.931 . S
O260 Co236 2.097 . S
O260 C288 1.214 . S
H261 C289 0.929 . S
H262 C290 0.929 . S
H263 C291 0.930 . S
H264 C292 0.929 . S
H265 C294 0.930 . S
H266 C271 0.930 . S
H267 C275 0.930 . S
O268 Co237 2.037 . S
O268 C288 1.234 . S
C269 O243 1.269 . S
C269 O244 1.257 . S
C270 H245 0.930 . S
C270 C273 1.388 . S
C270 C275 1.418 . S
C271 H266 0.930 . S
C271 C274 1.404 . S
C271 C275 1.353 . S
N272 Co237 2.145 . S
N272 C273 1.397 . S
N272 C274 1.334 . S
C273 H254 0.929 . S
C273 C270 1.388 . S
C273 N272 1.397 . S
C274 H255 0.929 . S
C274 C271 1.404 . S
C274 N272 1.334 . S
C275 H267 0.930 . S
C275 C270 1.418 . S
C275 C271 1.353 . S
C276 H246 0.930 . S
C276 N277 1.330 . S
C276 C278 1.446 . S
N277 Co236 2.151 . S
N277 C276 1.330 . S
N277 C281 1.418 . S
C278 H257 0.929 . S
C278 C276 1.446 . S
C278 C279 1.332 . S
C279 H259 0.931 . S
C279 C278 1.332 . S
C279 C280 1.267 . S
C280 H248 0.929 . S
C280 C279 1.267 . S
C280 C281 1.251 . S
C281 H251 0.929 . S
C281 N277 1.418 . S
C281 C280 1.251 . S
C282 H249 0.930 . S
C282 C284 1.406 . S
C282 C287 1.261 . S
C283 H250 0.930 . S
C283 N285 1.325 . S
C283 C286 1.357 . S
C284 H252 0.928 . S
C284 C282 1.406 . S
C284 N285 1.261 . S
N285 Co236 2.214 . S
N285 C283 1.325 . S
N285 C284 1.261 . S
C286 H256 0.931 . S
C286 C283 1.357 . S
C286 C287 1.312 . S
C287 H258 0.930 . S
C287 C282 1.261 . S
C287 C286 1.312 . S
C288 O260 1.214 . S
C288 O268 1.234 . S
C289 H261 0.929 . S
C289 C292 1.391 . S
C289 C294 1.391 . S
C290 H262 0.929 . S
C290 C291 1.390 . S
C290 N293 1.391 . S
C291 H263 0.930 . S
C291 C290 1.390 . S
C291 C292 1.392 . S
C292 H264 0.929 . S
C292 C289 1.391 . S
C292 C291 1.392 . S
N293 Co237 2.257 . S
N293 C290 1.391 . S
N293 C294 1.388 . S
C294 H265 0.930 . S
C294 C289 1.391 . S
C294 N293 1.388 . S
Co295 O297 2.143 . S
Co295 O303 2.074 . S
Co295 O306 2.093 . S
Co295 O319 2.097 . S
Co295 N336 2.151 . S
Co295 N344 2.214 . S
Co296 O297 2.160 . S
Co296 O302 2.058 . S
Co296 O312 2.057 . S
Co296 O327 2.037 . S
Co296 N331 2.145 . S
Co296 N352 2.257 . S
O297 Co295 2.143 . S
O297 Co296 2.160 . S
C298 O299 1.278 . S
C298 O306 1.224 . S
O299 C298 1.278 . S
C300 O301 1.245 . S
C300 O312 1.232 . S
O301 C300 1.245 . S
O302 Co296 2.058 . S
O302 C328 1.269 . S
O303 Co295 2.074 . S
O303 C328 1.257 . S
H304 C329 0.930 . S
H305 C335 0.930 . S
O306 Co295 2.093 . S
O306 C298 1.224 . S
H307 C339 0.929 . S
H308 C341 0.930 . S
H309 C342 0.930 . S
H310 C340 0.929 . S
H311 C343 0.928 . S
O312 Co296 2.057 . S
O312 C300 1.232 . S
H313 C332 0.929 . S
H314 C333 0.929 . S
H315 C345 0.931 . S
H316 C337 0.929 . S
H317 C346 0.930 . S
H318 C338 0.931 . S
O319 Co295 2.097 . S
O319 C347 1.214 . S
H320 C348 0.929 . S
H321 C349 0.929 . S
H322 C350 0.930 . S
H323 C351 0.929 . S
H324 C353 0.930 . S
H325 C330 0.930 . S
H326 C334 0.930 . S
O327 Co296 2.037 . S
O327 C347 1.234 . S
C328 O302 1.269 . S
C328 O303 1.257 . S
C329 H304 0.930 . S
C329 C332 1.388 . S
C329 C334 1.418 . S
C330 H325 0.930 . S
C330 C333 1.404 . S
C330 C334 1.353 . S
N331 Co296 2.145 . S
N331 C332 1.397 . S
N331 C333 1.334 . S
C332 H313 0.929 . S
C332 C329 1.388 . S
C332 N331 1.397 . S
C333 H314 0.929 . S
C333 C330 1.404 . S
C333 N331 1.334 . S
C334 H326 0.930 . S
C334 C329 1.418 . S
C334 C330 1.353 . S
C335 H305 0.930 . S
C335 N336 1.330 . S
C335 C337 1.446 . S
N336 Co295 2.151 . S
N336 C335 1.330 . S
N336 C340 1.418 . S
C337 H316 0.929 . S
C337 C335 1.446 . S
C337 C338 1.332 . S
C338 H318 0.931 . S
C338 C337 1.332 . S
C338 C339 1.267 . S
C339 H307 0.929 . S
C339 C338 1.267 . S
C339 C340 1.251 . S
C340 H310 0.929 . S
C340 N336 1.418 . S
C340 C339 1.251 . S
C341 H308 0.930 . S
C341 C343 1.406 . S
C341 C346 1.261 . S
C342 H309 0.930 . S
C342 N344 1.325 . S
C342 C345 1.357 . S
C343 H311 0.928 . S
C343 C341 1.406 . S
C343 N344 1.261 . S
N344 Co295 2.214 . S
N344 C342 1.325 . S
N344 C343 1.261 . S
C345 H315 0.931 . S
C345 C342 1.357 . S
C345 C346 1.312 . S
C346 H317 0.930 . S
C346 C341 1.261 . S
C346 C345 1.312 . S
C347 O319 1.214 . S
C347 O327 1.234 . S
C348 H320 0.929 . S
C348 C351 1.391 . S
C348 C353 1.391 . S
C349 H321 0.929 . S
C349 C350 1.390 . S
C349 N352 1.391 . S
C350 H322 0.930 . S
C350 C349 1.390 . S
C350 C351 1.392 . S
C351 H323 0.929 . S
C351 C348 1.391 . S
C351 C350 1.392 . S
N352 Co296 2.257 . S
N352 C349 1.391 . S
N352 C353 1.388 . S
C353 H324 0.930 . S
C353 C348 1.391 . S
C353 N352 1.388 . S
Co354 O356 2.143 . S
Co354 O362 2.074 . S
Co354 O365 2.093 . S
Co354 O378 2.097 . S
Co354 N395 2.151 . S
Co354 N403 2.214 . S
Co355 O356 2.160 . S
Co355 O361 2.058 . S
Co355 O371 2.057 . S
Co355 O386 2.037 . S
Co355 N390 2.145 1_545 S
Co355 N411 2.257 . S
O356 Co354 2.143 . S
O356 Co355 2.160 . S
C357 O358 1.278 . S
C357 O365 1.224 . S
O358 C357 1.278 . S
C359 O360 1.245 . S
C359 O371 1.232 . S
O360 C359 1.245 . S
O361 Co355 2.058 . S
O361 C387 1.269 . S
O362 Co354 2.074 . S
O362 C387 1.257 . S
H363 C388 0.930 . S
H364 C394 0.930 . S
O365 Co354 2.093 . S
O365 C357 1.224 . S
H366 C398 0.929 . S
H367 C400 0.930 . S
H368 C401 0.930 . S
H369 C399 0.929 . S
H370 C402 0.928 . S
O371 Co355 2.057 . S
O371 C359 1.232 . S
H372 C391 0.929 1_545 S
H373 C392 0.929 . S
H374 C404 0.931 . S
H375 C396 0.929 . S
H376 C405 0.930 . S
H377 C397 0.931 . S
O378 Co354 2.097 . S
O378 C406 1.214 . S
H379 C407 0.929 . S
H380 C408 0.929 . S
H381 C409 0.930 . S
H382 C410 0.929 . S
H383 C412 0.930 . S
H384 C389 0.930 . S
H385 C393 0.930 . S
O386 Co355 2.037 . S
O386 C406 1.234 . S
C387 O361 1.269 . S
C387 O362 1.257 . S
C388 H363 0.930 . S
C388 C391 1.388 . S
C388 C393 1.418 . S
C389 H384 0.930 . S
C389 C392 1.404 . S
C389 C393 1.353 . S
N390 Co355 2.145 1_565 S
N390 C391 1.397 . S
N390 C392 1.334 . S
C391 H372 0.929 1_565 S
C391 C388 1.388 . S
C391 N390 1.397 . S
C392 H373 0.929 . S
C392 C389 1.404 . S
C392 N390 1.334 . S
C393 H385 0.930 . S
C393 C388 1.418 . S
C393 C389 1.353 . S
C394 H364 0.930 . S
C394 N395 1.330 . S
C394 C396 1.446 . S
N395 Co354 2.151 . S
N395 C394 1.330 . S
N395 C399 1.418 . S
C396 H375 0.929 . S
C396 C394 1.446 . S
C396 C397 1.332 . S
C397 H377 0.931 . S
C397 C396 1.332 . S
C397 C398 1.267 . S
C398 H366 0.929 . S
C398 C397 1.267 . S
C398 C399 1.251 . S
C399 H369 0.929 . S
C399 N395 1.418 . S
C399 C398 1.251 . S
C400 H367 0.930 . S
C400 C402 1.406 . S
C400 C405 1.261 . S
C401 H368 0.930 . S
C401 N403 1.325 . S
C401 C404 1.357 . S
C402 H370 0.928 . S
C402 C400 1.406 . S
C402 N403 1.261 . S
N403 Co354 2.214 . S
N403 C401 1.325 . S
N403 C402 1.261 . S
C404 H374 0.931 . S
C404 C401 1.357 . S
C404 C405 1.312 . S
C405 H376 0.930 . S
C405 C400 1.261 . S
C405 C404 1.312 . S
C406 O378 1.214 . S
C406 O386 1.234 . S
C407 H379 0.929 . S
C407 C410 1.391 1_545 S
C407 C412 1.391 . S
C408 H380 0.929 . S
C408 C409 1.390 . S
C408 N411 1.391 1_565 S
C409 H381 0.930 . S
C409 C408 1.390 . S
C409 C410 1.392 . S
C410 H382 0.929 . S
C410 C407 1.391 1_565 S
C410 C409 1.392 . S
N411 Co355 2.257 . S
N411 C408 1.391 1_545 S
N411 C412 1.388 . S
C412 H383 0.930 . S
C412 C407 1.391 . S
C412 N411 1.388 . S
Co413 O415 2.143 . S
Co413 O421 2.074 . S
Co413 O424 2.093 . S
Co413 O437 2.097 . S
Co413 N454 2.151 . S
Co413 N462 2.214 . S
Co414 O415 2.160 . S
Co414 O420 2.058 . S
Co414 O430 2.057 . S
Co414 O445 2.037 . S
Co414 N449 2.145 1_655 S
Co414 N470 2.257 . S
O415 Co413 2.143 . S
O415 Co414 2.160 . S
C416 O417 1.278 . S
C416 O424 1.224 . S
O417 C416 1.278 . S
C418 O419 1.245 . S
C418 O430 1.232 . S
O419 C418 1.245 . S
O420 Co414 2.058 . S
O420 C446 1.269 . S
O421 Co413 2.074 . S
O421 C446 1.257 . S
H422 C447 0.930 . S
H423 C453 0.930 . S
O424 Co413 2.093 . S
O424 C416 1.224 . S
H425 C457 0.929 . S
H426 C459 0.930 . S
H427 C460 0.930 . S
H428 C458 0.929 . S
H429 C461 0.928 . S
O430 Co414 2.057 . S
O430 C418 1.232 . S
H431 C450 0.929 1_655 S
H432 C451 0.929 . S
H433 C463 0.931 . S
H434 C455 0.929 . S
H435 C464 0.930 . S
H436 C456 0.931 . S
O437 Co413 2.097 . S
O437 C465 1.214 . S
H438 C466 0.929 . S
H439 C467 0.929 . S
H440 C468 0.930 . S
H441 C469 0.929 . S
H442 C471 0.930 . S
H443 C448 0.930 . S
H444 C452 0.930 . S
O445 Co414 2.037 . S
O445 C465 1.234 . S
C446 O420 1.269 . S
C446 O421 1.257 . S
C447 H422 0.930 . S
C447 C450 1.388 . S
C447 C452 1.418 . S
C448 H443 0.930 . S
C448 C451 1.404 . S
C448 C452 1.353 . S
N449 Co414 2.145 1_455 S
N449 C450 1.397 . S
N449 C451 1.334 . S
C450 H431 0.929 1_455 S
C450 C447 1.388 . S
C450 N449 1.397 . S
C451 H432 0.929 . S
C451 C448 1.404 . S
C451 N449 1.334 . S
C452 H444 0.930 . S
C452 C447 1.418 . S
C452 C448 1.353 . S
C453 H423 0.930 . S
C453 N454 1.330 . S
C453 C455 1.446 . S
N454 Co413 2.151 . S
N454 C453 1.330 . S
N454 C458 1.418 . S
C455 H434 0.929 . S
C455 C453 1.446 . S
C455 C456 1.332 . S
C456 H436 0.931 . S
C456 C455 1.332 . S
C456 C457 1.267 . S
C457 H425 0.929 . S
C457 C456 1.267 . S
C457 C458 1.251 . S
C458 H428 0.929 . S
C458 N454 1.418 . S
C458 C457 1.251 . S
C459 H426 0.930 . S
C459 C461 1.406 . S
C459 C464 1.261 . S
C460 H427 0.930 . S
C460 N462 1.325 . S
C460 C463 1.357 . S
C461 H429 0.928 . S
C461 C459 1.406 . S
C461 N462 1.261 . S
N462 Co413 2.214 . S
N462 C460 1.325 . S
N462 C461 1.261 . S
C463 H433 0.931 . S
C463 C460 1.357 . S
C463 C464 1.312 . S
C464 H435 0.930 . S
C464 C459 1.261 . S
C464 C463 1.312 . S
C465 O437 1.214 . S
C465 O445 1.234 . S
C466 H438 0.929 . S
C466 C469 1.391 1_655 S
C466 C471 1.391 . S
C467 H439 0.929 . S
C467 C468 1.390 . S
C467 N470 1.391 1_455 S
C468 H440 0.930 . S
C468 C467 1.390 . S
C468 C469 1.392 . S
C469 H441 0.929 . S
C469 C466 1.391 1_455 S
C469 C468 1.392 . S
N470 Co414 2.257 . S
N470 C467 1.391 1_655 S
N470 C471 1.388 . S
C471 H442 0.930 . S
C471 C466 1.391 . S
C471 N470 1.388 . S
Co472 O474 2.143 . S
Co472 O480 2.074 . S
Co472 O483 2.093 . S
Co472 O496 2.097 . S
Co472 N513 2.151 . S
Co472 N521 2.214 . S
Co473 O474 2.160 . S
Co473 O479 2.058 . S
Co473 O489 2.057 . S
Co473 O504 2.037 . S
Co473 N508 2.145 . S
Co473 N529 2.257 . S
O474 Co472 2.143 . S
O474 Co473 2.160 . S
C475 O476 1.278 . S
C475 O483 1.224 . S
O476 C475 1.278 . S
C477 O478 1.245 . S
C477 O489 1.232 . S
O478 C477 1.245 . S
O479 Co473 2.058 . S
O479 C505 1.269 . S
O480 Co472 2.074 . S
O480 C505 1.257 . S
H481 C506 0.930 . S
H482 C512 0.930 . S
O483 Co472 2.093 . S
O483 C475 1.224 . S
H484 C516 0.929 . S
H485 C518 0.930 . S
H486 C519 0.930 . S
H487 C517 0.929 . S
H488 C520 0.928 . S
O489 Co473 2.057 . S
O489 C477 1.232 . S
H490 C509 0.929 . S
H491 C510 0.929 . S
H492 C522 0.931 . S
H493 C514 0.929 . S
H494 C523 0.930 . S
H495 C515 0.931 . S
O496 Co472 2.097 . S
O496 C524 1.214 . S
H497 C525 0.929 . S
H498 C526 0.929 . S
H499 C527 0.930 . S
H500 C528 0.929 . S
H501 C530 0.930 . S
H502 C507 0.930 . S
H503 C511 0.930 . S
O504 Co473 2.037 . S
O504 C524 1.234 . S
C505 O479 1.269 . S
C505 O480 1.257 . S
C506 H481 0.930 . S
C506 C509 1.388 . S
C506 C511 1.418 . S
C507 H502 0.930 . S
C507 C510 1.404 . S
C507 C511 1.353 . S
N508 Co473 2.145 . S
N508 C509 1.397 . S
N508 C510 1.334 . S
C509 H490 0.929 . S
C509 C506 1.388 . S
C509 N508 1.397 . S
C510 H491 0.929 . S
C510 C507 1.404 . S
C510 N508 1.334 . S
C511 H503 0.930 . S
C511 C506 1.418 . S
C511 C507 1.353 . S
C512 H482 0.930 . S
C512 N513 1.330 . S
C512 C514 1.446 . S
N513 Co472 2.151 . S
N513 C512 1.330 . S
N513 C517 1.418 . S
C514 H493 0.929 . S
C514 C512 1.446 . S
C514 C515 1.332 . S
C515 H495 0.931 . S
C515 C514 1.332 . S
C515 C516 1.267 . S
C516 H484 0.929 . S
C516 C515 1.267 . S
C516 C517 1.251 . S
C517 H487 0.929 . S
C517 N513 1.418 . S
C517 C516 1.251 . S
C518 H485 0.930 . S
C518 C520 1.406 . S
C518 C523 1.261 . S
C519 H486 0.930 . S
C519 N521 1.325 . S
C519 C522 1.357 . S
C520 H488 0.928 . S
C520 C518 1.406 . S
C520 N521 1.261 . S
N521 Co472 2.214 . S
N521 C519 1.325 . S
N521 C520 1.261 . S
C522 H492 0.931 . S
C522 C519 1.357 . S
C522 C523 1.312 . S
C523 H494 0.930 . S
C523 C518 1.261 . S
C523 C522 1.312 . S
C524 O496 1.214 . S
C524 O504 1.234 . S
C525 H497 0.929 . S
C525 C528 1.391 . S
C525 C530 1.391 . S
C526 H498 0.929 . S
C526 C527 1.390 . S
C526 N529 1.391 . S
C527 H499 0.930 . S
C527 C526 1.390 . S
C527 C528 1.392 . S
C528 H500 0.929 . S
C528 C525 1.391 . S
C528 C527 1.392 . S
N529 Co473 2.257 . S
N529 C526 1.391 . S
N529 C530 1.388 . S
C530 H501 0.930 . S
C530 C525 1.391 . S
C530 N529 1.388 . S
Co531 O533 2.143 . S
Co531 O539 2.074 . S
Co531 O542 2.093 . S
Co531 O555 2.097 . S
Co531 N572 2.151 . S
Co531 N580 2.214 . S
Co532 O533 2.160 . S
Co532 O538 2.058 . S
Co532 O548 2.057 . S
Co532 O563 2.037 . S
Co532 N567 2.145 . S
Co532 N588 2.257 . S
O533 Co531 2.143 . S
O533 Co532 2.160 . S
C534 O535 1.278 . S
C534 O542 1.224 . S
O535 C534 1.278 . S
C536 O537 1.245 . S
C536 O548 1.232 . S
O537 C536 1.245 . S
O538 Co532 2.058 . S
O538 C564 1.269 . S
O539 Co531 2.074 . S
O539 C564 1.257 . S
H540 C565 0.930 . S
H541 C571 0.930 . S
O542 Co531 2.093 . S
O542 C534 1.224 . S
H543 C575 0.929 . S
H544 C577 0.930 . S
H545 C578 0.930 . S
H546 C576 0.929 . S
H547 C579 0.928 . S
O548 Co532 2.057 . S
O548 C536 1.232 . S
H549 C568 0.929 . S
H550 C569 0.929 . S
H551 C581 0.931 . S
H552 C573 0.929 . S
H553 C582 0.930 . S
H554 C574 0.931 . S
O555 Co531 2.097 . S
O555 C583 1.214 . S
H556 C584 0.929 . S
H557 C585 0.929 . S
H558 C586 0.930 . S
H559 C587 0.929 . S
H560 C589 0.930 . S
H561 C566 0.930 . S
H562 C570 0.930 . S
O563 Co532 2.037 . S
O563 C583 1.234 . S
C564 O538 1.269 . S
C564 O539 1.257 . S
C565 H540 0.930 . S
C565 C568 1.388 . S
C565 C570 1.418 . S
C566 H561 0.930 . S
C566 C569 1.404 . S
C566 C570 1.353 . S
N567 Co532 2.145 . S
N567 C568 1.397 . S
N567 C569 1.334 . S
C568 H549 0.929 . S
C568 C565 1.388 . S
C568 N567 1.397 . S
C569 H550 0.929 . S
C569 C566 1.404 . S
C569 N567 1.334 . S
C570 H562 0.930 . S
C570 C565 1.418 . S
C570 C566 1.353 . S
C571 H541 0.930 . S
C571 N572 1.330 . S
C571 C573 1.446 . S
N572 Co531 2.151 . S
N572 C571 1.330 . S
N572 C576 1.418 . S
C573 H552 0.929 . S
C573 C571 1.446 . S
C573 C574 1.332 . S
C574 H554 0.931 . S
C574 C573 1.332 . S
C574 C575 1.267 . S
C575 H543 0.929 . S
C575 C574 1.267 . S
C575 C576 1.251 . S
C576 H546 0.929 . S
C576 N572 1.418 . S
C576 C575 1.251 . S
C577 H544 0.930 . S
C577 C579 1.406 . S
C577 C582 1.261 . S
C578 H545 0.930 . S
C578 N580 1.325 . S
C578 C581 1.357 . S
C579 H547 0.928 . S
C579 C577 1.406 . S
C579 N580 1.261 . S
N580 Co531 2.214 . S
N580 C578 1.325 . S
N580 C579 1.261 . S
C581 H551 0.931 . S
C581 C578 1.357 . S
C581 C582 1.312 . S
C582 H553 0.930 . S
C582 C577 1.261 . S
C582 C581 1.312 . S
C583 O555 1.214 . S
C583 O563 1.234 . S
C584 H556 0.929 . S
C584 C587 1.391 . S
C584 C589 1.391 . S
C585 H557 0.929 . S
C585 C586 1.390 . S
C585 N588 1.391 . S
C586 H558 0.930 . S
C586 C585 1.390 . S
C586 C587 1.392 . S
C587 H559 0.929 . S
C587 C584 1.391 . S
C587 C586 1.392 . S
N588 Co532 2.257 . S
N588 C585 1.391 . S
N588 C589 1.388 . S
C589 H560 0.930 . S
C589 C584 1.391 . S
C589 N588 1.388 . S
Co590 O592 2.143 . S
Co590 O598 2.074 . S
Co590 O601 2.093 . S
Co590 O614 2.097 . S
Co590 N631 2.151 . S
Co590 N639 2.214 . S
Co591 O592 2.160 . S
Co591 O597 2.058 . S
Co591 O607 2.057 . S
Co591 O622 2.037 . S
Co591 N626 2.145 1_565 S
Co591 N647 2.257 . S
O592 Co590 2.143 . S
O592 Co591 2.160 . S
C593 O594 1.278 . S
C593 O601 1.224 . S
O594 C593 1.278 . S
C595 O596 1.245 . S
C595 O607 1.232 . S
O596 C595 1.245 . S
O597 Co591 2.058 . S
O597 C623 1.269 . S
O598 Co590 2.074 . S
O598 C623 1.257 . S
H599 C624 0.930 . S
H600 C630 0.930 . S
O601 Co590 2.093 . S
O601 C593 1.224 . S
H602 C634 0.929 . S
H603 C636 0.930 . S
H604 C637 0.930 . S
H605 C635 0.929 . S
H606 C638 0.928 . S
O607 Co591 2.057 . S
O607 C595 1.232 . S
H608 C627 0.929 1_565 S
H609 C628 0.929 . S
H610 C640 0.931 . S
H611 C632 0.929 . S
H612 C641 0.930 . S
H613 C633 0.931 . S
O614 Co590 2.097 . S
O614 C642 1.214 . S
H615 C643 0.929 . S
H616 C644 0.929 . S
H617 C645 0.930 . S
H618 C646 0.929 . S
H619 C648 0.930 . S
H620 C625 0.930 . S
H621 C629 0.930 . S
O622 Co591 2.037 . S
O622 C642 1.234 . S
C623 O597 1.269 . S
C623 O598 1.257 . S
C624 H599 0.930 . S
C624 C627 1.388 . S
C624 C629 1.418 . S
C625 H620 0.930 . S
C625 C628 1.404 . S
C625 C629 1.353 . S
N626 Co591 2.145 1_545 S
N626 C627 1.397 . S
N626 C628 1.334 . S
C627 H608 0.929 1_545 S
C627 C624 1.388 . S
C627 N626 1.397 . S
C628 H609 0.929 . S
C628 C625 1.404 . S
C628 N626 1.334 . S
C629 H621 0.930 . S
C629 C624 1.418 . S
C629 C625 1.353 . S
C630 H600 0.930 . S
C630 N631 1.330 . S
C630 C632 1.446 . S
N631 Co590 2.151 . S
N631 C630 1.330 . S
N631 C635 1.418 . S
C632 H611 0.929 . S
C632 C630 1.446 . S
C632 C633 1.332 . S
C633 H613 0.931 . S
C633 C632 1.332 . S
C633 C634 1.267 . S
C634 H602 0.929 . S
C634 C633 1.267 . S
C634 C635 1.251 . S
C635 H605 0.929 . S
C635 N631 1.418 . S
C635 C634 1.251 . S
C636 H603 0.930 . S
C636 C638 1.406 . S
C636 C641 1.261 . S
C637 H604 0.930 . S
C637 N639 1.325 . S
C637 C640 1.357 . S
C638 H606 0.928 . S
C638 C636 1.406 . S
C638 N639 1.261 . S
N639 Co590 2.214 . S
N639 C637 1.325 . S
N639 C638 1.261 . S
C640 H610 0.931 . S
C640 C637 1.357 . S
C640 C641 1.312 . S
C641 H612 0.930 . S
C641 C636 1.261 . S
C641 C640 1.312 . S
C642 O614 1.214 . S
C642 O622 1.234 . S
C643 H615 0.929 . S
C643 C646 1.391 1_565 S
C643 C648 1.391 . S
C644 H616 0.929 . S
C644 C645 1.390 . S
C644 N647 1.391 1_545 S
C645 H617 0.930 . S
C645 C644 1.390 . S
C645 C646 1.392 . S
C646 H618 0.929 . S
C646 C643 1.391 1_545 S
C646 C645 1.392 . S
N647 Co591 2.257 . S
N647 C644 1.391 1_565 S
N647 C648 1.388 . S
C648 H619 0.930 . S
C648 C643 1.391 . S
C648 N647 1.388 . S
Co649 O651 2.143 . S
Co649 O657 2.074 . S
Co649 O660 2.093 . S
Co649 O673 2.097 . S
Co649 N690 2.151 . S
Co649 N698 2.214 . S
Co650 O651 2.160 . S
Co650 O656 2.058 . S
Co650 O666 2.057 . S
Co650 O681 2.037 . S
Co650 N685 2.145 1_455 S
Co650 N706 2.257 . S
O651 Co649 2.143 . S
O651 Co650 2.160 . S
C652 O653 1.278 . S
C652 O660 1.224 . S
O653 C652 1.278 . S
C654 O655 1.245 . S
C654 O666 1.232 . S
O655 C654 1.245 . S
O656 Co650 2.058 . S
O656 C682 1.269 . S
O657 Co649 2.074 . S
O657 C682 1.257 . S
H658 C683 0.930 . S
H659 C689 0.930 . S
O660 Co649 2.093 . S
O660 C652 1.224 . S
H661 C693 0.929 . S
H662 C695 0.930 . S
H663 C696 0.930 . S
H664 C694 0.929 . S
H665 C697 0.928 . S
O666 Co650 2.057 . S
O666 C654 1.232 . S
H667 C686 0.929 1_455 S
H668 C687 0.929 . S
H669 C699 0.931 . S
H670 C691 0.929 . S
H671 C700 0.930 . S
H672 C692 0.931 . S
O673 Co649 2.097 . S
O673 C701 1.214 . S
H674 C702 0.929 . S
H675 C703 0.929 . S
H676 C704 0.930 . S
H677 C705 0.929 . S
H678 C707 0.930 . S
H679 C684 0.930 . S
H680 C688 0.930 . S
O681 Co650 2.037 . S
O681 C701 1.234 . S
C682 O656 1.269 . S
C682 O657 1.257 . S
C683 H658 0.930 . S
C683 C686 1.388 . S
C683 C688 1.418 . S
C684 H679 0.930 . S
C684 C687 1.404 . S
C684 C688 1.353 . S
N685 Co650 2.145 1_655 S
N685 C686 1.397 . S
N685 C687 1.334 . S
C686 H667 0.929 1_655 S
C686 C683 1.388 . S
C686 N685 1.397 . S
C687 H668 0.929 . S
C687 C684 1.404 . S
C687 N685 1.334 . S
C688 H680 0.930 . S
C688 C683 1.418 . S
C688 C684 1.353 . S
C689 H659 0.930 . S
C689 N690 1.330 . S
C689 C691 1.446 . S
N690 Co649 2.151 . S
N690 C689 1.330 . S
N690 C694 1.418 . S
C691 H670 0.929 . S
C691 C689 1.446 . S
C691 C692 1.332 . S
C692 H672 0.931 . S
C692 C691 1.332 . S
C692 C693 1.267 . S
C693 H661 0.929 . S
C693 C692 1.267 . S
C693 C694 1.251 . S
C694 H664 0.929 . S
C694 N690 1.418 . S
C694 C693 1.251 . S
C695 H662 0.930 . S
C695 C697 1.406 . S
C695 C700 1.261 . S
C696 H663 0.930 . S
C696 N698 1.325 . S
C696 C699 1.357 . S
C697 H665 0.928 . S
C697 C695 1.406 . S
C697 N698 1.261 . S
N698 Co649 2.214 . S
N698 C696 1.325 . S
N698 C697 1.261 . S
C699 H669 0.931 . S
C699 C696 1.357 . S
C699 C700 1.312 . S
C700 H671 0.930 . S
C700 C695 1.261 . S
C700 C699 1.312 . S
C701 O673 1.214 . S
C701 O681 1.234 . S
C702 H674 0.929 . S
C702 C705 1.391 1_455 S
C702 C707 1.391 . S
C703 H675 0.929 . S
C703 C704 1.390 . S
C703 N706 1.391 1_655 S
C704 H676 0.930 . S
C704 C703 1.390 . S
C704 C705 1.392 . S
C705 H677 0.929 . S
C705 C702 1.391 1_655 S
C705 C704 1.392 . S
N706 Co650 2.257 . S
N706 C703 1.391 1_455 S
N706 C707 1.388 . S
C707 H678 0.930 . S
C707 C702 1.391 . S
C707 N706 1.388 . S
Co708 O710 2.143 . S
Co708 O716 2.074 . S
Co708 O719 2.093 . S
Co708 O732 2.097 . S
Co708 N749 2.151 . S
Co708 N757 2.214 . S
Co709 O710 2.160 . S
Co709 O715 2.058 . S
Co709 O725 2.057 . S
Co709 O740 2.037 . S
Co709 N744 2.145 1_565 S
Co709 N765 2.257 . S
O710 Co708 2.143 . S
O710 Co709 2.160 . S
C711 O712 1.278 . S
C711 O719 1.224 . S
O712 C711 1.278 . S
C713 O714 1.245 . S
C713 O725 1.232 . S
O714 C713 1.245 . S
O715 Co709 2.058 . S
O715 C741 1.269 . S
O716 Co708 2.074 . S
O716 C741 1.257 . S
H717 C742 0.930 . S
H718 C748 0.930 . S
O719 Co708 2.093 . S
O719 C711 1.224 . S
H720 C752 0.929 . S
H721 C754 0.930 . S
H722 C755 0.930 . S
H723 C753 0.929 . S
H724 C756 0.928 . S
O725 Co709 2.057 . S
O725 C713 1.232 . S
H726 C745 0.929 1_565 S
H727 C746 0.929 . S
H728 C758 0.931 . S
H729 C750 0.929 . S
H730 C759 0.930 . S
H731 C751 0.931 . S
O732 Co708 2.097 . S
O732 C760 1.214 . S
H733 C761 0.929 . S
H734 C762 0.929 . S
H735 C763 0.930 . S
H736 C764 0.929 . S
H737 C766 0.930 . S
H738 C743 0.930 . S
H739 C747 0.930 . S
O740 Co709 2.037 . S
O740 C760 1.234 . S
C741 O715 1.269 . S
C741 O716 1.257 . S
C742 H717 0.930 . S
C742 C745 1.388 . S
C742 C747 1.418 . S
C743 H738 0.930 . S
C743 C746 1.404 . S
C743 C747 1.353 . S
N744 Co709 2.145 1_545 S
N744 C745 1.397 . S
N744 C746 1.334 . S
C745 H726 0.929 1_545 S
C745 C742 1.388 . S
C745 N744 1.397 . S
C746 H727 0.929 . S
C746 C743 1.404 . S
C746 N744 1.334 . S
C747 H739 0.930 . S
C747 C742 1.418 . S
C747 C743 1.353 . S
C748 H718 0.930 . S
C748 N749 1.330 . S
C748 C750 1.446 . S
N749 Co708 2.151 . S
N749 C748 1.330 . S
N749 C753 1.418 . S
C750 H729 0.929 . S
C750 C748 1.446 . S
C750 C751 1.332 . S
C751 H731 0.931 . S
C751 C750 1.332 . S
C751 C752 1.267 . S
C752 H720 0.929 . S
C752 C751 1.267 . S
C752 C753 1.251 . S
C753 H723 0.929 . S
C753 N749 1.418 . S
C753 C752 1.251 . S
C754 H721 0.930 . S
C754 C756 1.406 . S
C754 C759 1.261 . S
C755 H722 0.930 . S
C755 N757 1.325 . S
C755 C758 1.357 . S
C756 H724 0.928 . S
C756 C754 1.406 . S
C756 N757 1.261 . S
N757 Co708 2.214 . S
N757 C755 1.325 . S
N757 C756 1.261 . S
C758 H728 0.931 . S
C758 C755 1.357 . S
C758 C759 1.312 . S
C759 H730 0.930 . S
C759 C754 1.261 . S
C759 C758 1.312 . S
C760 O732 1.214 . S
C760 O740 1.234 . S
C761 H733 0.929 . S
C761 C764 1.391 1_565 S
C761 C766 1.391 . S
C762 H734 0.929 . S
C762 C763 1.390 . S
C762 N765 1.391 1_545 S
C763 H735 0.930 . S
C763 C762 1.390 . S
C763 C764 1.392 . S
C764 H736 0.929 . S
C764 C761 1.391 1_545 S
C764 C763 1.392 . S
N765 Co709 2.257 . S
N765 C762 1.391 1_565 S
N765 C766 1.388 . S
C766 H737 0.930 . S
C766 C761 1.391 . S
C766 N765 1.388 . S
Co767 O769 2.143 . S
Co767 O775 2.074 . S
Co767 O778 2.093 . S
Co767 O791 2.097 . S
Co767 N808 2.151 . S
Co767 N816 2.214 . S
Co768 O769 2.160 . S
Co768 O774 2.058 . S
Co768 O784 2.057 . S
Co768 O799 2.037 . S
Co768 N803 2.145 1_455 S
Co768 N824 2.257 . S
O769 Co767 2.143 . S
O769 Co768 2.160 . S
C770 O771 1.278 . S
C770 O778 1.224 . S
O771 C770 1.278 . S
C772 O773 1.245 . S
C772 O784 1.232 . S
O773 C772 1.245 . S
O774 Co768 2.058 . S
O774 C800 1.269 . S
O775 Co767 2.074 . S
O775 C800 1.257 . S
H776 C801 0.930 . S
H777 C807 0.930 . S
O778 Co767 2.093 . S
O778 C770 1.224 . S
H779 C811 0.929 . S
H780 C813 0.930 . S
H781 C814 0.930 . S
H782 C812 0.929 . S
H783 C815 0.928 . S
O784 Co768 2.057 . S
O784 C772 1.232 . S
H785 C804 0.929 1_455 S
H786 C805 0.929 . S
H787 C817 0.931 . S
H788 C809 0.929 . S
H789 C818 0.930 . S
H790 C810 0.931 . S
O791 Co767 2.097 . S
O791 C819 1.214 . S
H792 C820 0.929 . S
H793 C821 0.929 . S
H794 C822 0.930 . S
H795 C823 0.929 . S
H796 C825 0.930 . S
H797 C802 0.930 . S
H798 C806 0.930 . S
O799 Co768 2.037 . S
O799 C819 1.234 . S
C800 O774 1.269 . S
C800 O775 1.257 . S
C801 H776 0.930 . S
C801 C804 1.388 . S
C801 C806 1.418 . S
C802 H797 0.930 . S
C802 C805 1.404 . S
C802 C806 1.353 . S
N803 Co768 2.145 1_655 S
N803 C804 1.397 . S
N803 C805 1.334 . S
C804 H785 0.929 1_655 S
C804 C801 1.388 . S
C804 N803 1.397 . S
C805 H786 0.929 . S
C805 C802 1.404 . S
C805 N803 1.334 . S
C806 H798 0.930 . S
C806 C801 1.418 . S
C806 C802 1.353 . S
C807 H777 0.930 . S
C807 N808 1.330 . S
C807 C809 1.446 . S
N808 Co767 2.151 . S
N808 C807 1.330 . S
N808 C812 1.418 . S
C809 H788 0.929 . S
C809 C807 1.446 . S
C809 C810 1.332 . S
C810 H790 0.931 . S
C810 C809 1.332 . S
C810 C811 1.267 . S
C811 H779 0.929 . S
C811 C810 1.267 . S
C811 C812 1.251 . S
C812 H782 0.929 . S
C812 N808 1.418 . S
C812 C811 1.251 . S
C813 H780 0.930 . S
C813 C815 1.406 . S
C813 C818 1.261 . S
C814 H781 0.930 . S
C814 N816 1.325 . S
C814 C817 1.357 . S
C815 H783 0.928 . S
C815 C813 1.406 . S
C815 N816 1.261 . S
N816 Co767 2.214 . S
N816 C814 1.325 . S
N816 C815 1.261 . S
C817 H787 0.931 . S
C817 C814 1.357 . S
C817 C818 1.312 . S
C818 H789 0.930 . S
C818 C813 1.261 . S
C818 C817 1.312 . S
C819 O791 1.214 . S
C819 O799 1.234 . S
C820 H792 0.929 . S
C820 C823 1.391 1_455 S
C820 C825 1.391 . S
C821 H793 0.929 . S
C821 C822 1.390 . S
C821 N824 1.391 1_655 S
C822 H794 0.930 . S
C822 C821 1.390 . S
C822 C823 1.392 . S
C823 H795 0.929 . S
C823 C820 1.391 1_655 S
C823 C822 1.392 . S
N824 Co768 2.257 . S
N824 C821 1.391 1_455 S
N824 C825 1.388 . S
C825 H796 0.930 . S
C825 C820 1.391 . S
C825 N824 1.388 . S
Co826 O828 2.143 . S
Co826 O834 2.074 . S
Co826 O837 2.093 . S
Co826 O850 2.097 . S
Co826 N867 2.151 . S
Co826 N875 2.214 . S
Co827 O828 2.160 . S
Co827 O833 2.058 . S
Co827 O843 2.057 . S
Co827 O858 2.037 . S
Co827 N862 2.145 . S
Co827 N883 2.257 . S
O828 Co826 2.143 . S
O828 Co827 2.160 . S
C829 O830 1.278 . S
C829 O837 1.224 . S
O830 C829 1.278 . S
C831 O832 1.245 . S
C831 O843 1.232 . S
O832 C831 1.245 . S
O833 Co827 2.058 . S
O833 C859 1.269 . S
O834 Co826 2.074 . S
O834 C859 1.257 . S
H835 C860 0.930 . S
H836 C866 0.930 . S
O837 Co826 2.093 . S
O837 C829 1.224 . S
H838 C870 0.929 . S
H839 C872 0.930 . S
H840 C873 0.930 . S
H841 C871 0.929 . S
H842 C874 0.928 . S
O843 Co827 2.057 . S
O843 C831 1.232 . S
H844 C863 0.929 . S
H845 C864 0.929 . S
H846 C876 0.931 . S
H847 C868 0.929 . S
H848 C877 0.930 . S
H849 C869 0.931 . S
O850 Co826 2.097 . S
O850 C878 1.214 . S
H851 C879 0.929 . S
H852 C880 0.929 . S
H853 C881 0.930 . S
H854 C882 0.929 . S
H855 C884 0.930 . S
H856 C861 0.930 . S
H857 C865 0.930 . S
O858 Co827 2.037 . S
O858 C878 1.234 . S
C859 O833 1.269 . S
C859 O834 1.257 . S
C860 H835 0.930 . S
C860 C863 1.388 . S
C860 C865 1.418 . S
C861 H856 0.930 . S
C861 C864 1.404 . S
C861 C865 1.353 . S
N862 Co827 2.145 . S
N862 C863 1.397 . S
N862 C864 1.334 . S
C863 H844 0.929 . S
C863 C860 1.388 . S
C863 N862 1.397 . S
C864 H845 0.929 . S
C864 C861 1.404 . S
C864 N862 1.334 . S
C865 H857 0.930 . S
C865 C860 1.418 . S
C865 C861 1.353 . S
C866 H836 0.930 . S
C866 N867 1.330 . S
C866 C868 1.446 . S
N867 Co826 2.151 . S
N867 C866 1.330 . S
N867 C871 1.418 . S
C868 H847 0.929 . S
C868 C866 1.446 . S
C868 C869 1.332 . S
C869 H849 0.931 . S
C869 C868 1.332 . S
C869 C870 1.267 . S
C870 H838 0.929 . S
C870 C869 1.267 . S
C870 C871 1.251 . S
C871 H841 0.929 . S
C871 N867 1.418 . S
C871 C870 1.251 . S
C872 H839 0.930 . S
C872 C874 1.406 . S
C872 C877 1.261 . S
C873 H840 0.930 . S
C873 N875 1.325 . S
C873 C876 1.357 . S
C874 H842 0.928 . S
C874 C872 1.406 . S
C874 N875 1.261 . S
N875 Co826 2.214 . S
N875 C873 1.325 . S
N875 C874 1.261 . S
C876 H846 0.931 . S
C876 C873 1.357 . S
C876 C877 1.312 . S
C877 H848 0.930 . S
C877 C872 1.261 . S
C877 C876 1.312 . S
C878 O850 1.214 . S
C878 O858 1.234 . S
C879 H851 0.929 . S
C879 C882 1.391 . S
C879 C884 1.391 . S
C880 H852 0.929 . S
C880 C881 1.390 . S
C880 N883 1.391 . S
C881 H853 0.930 . S
C881 C880 1.390 . S
C881 C882 1.392 . S
C882 H854 0.929 . S
C882 C879 1.391 . S
C882 C881 1.392 . S
N883 Co827 2.257 . S
N883 C880 1.391 . S
N883 C884 1.388 . S
C884 H855 0.930 . S
C884 C879 1.391 . S
C884 N883 1.388 . S
Co885 O887 2.143 . S
Co885 O893 2.074 . S
Co885 O896 2.093 . S
Co885 O909 2.097 . S
Co885 N926 2.151 . S
Co885 N934 2.214 . S
Co886 O887 2.160 . S
Co886 O892 2.058 . S
Co886 O902 2.057 . S
Co886 O917 2.037 . S
Co886 N921 2.145 . S
Co886 N942 2.257 . S
O887 Co885 2.143 . S
O887 Co886 2.160 . S
C888 O889 1.278 . S
C888 O896 1.224 . S
O889 C888 1.278 . S
C890 O891 1.245 . S
C890 O902 1.232 . S
O891 C890 1.245 . S
O892 Co886 2.058 . S
O892 C918 1.269 . S
O893 Co885 2.074 . S
O893 C918 1.257 . S
H894 C919 0.930 . S
H895 C925 0.930 . S
O896 Co885 2.093 . S
O896 C888 1.224 . S
H897 C929 0.929 . S
H898 C931 0.930 . S
H899 C932 0.930 . S
H900 C930 0.929 . S
H901 C933 0.928 . S
O902 Co886 2.057 . S
O902 C890 1.232 . S
H903 C922 0.929 . S
H904 C923 0.929 . S
H905 C935 0.931 . S
H906 C927 0.929 . S
H907 C936 0.930 . S
H908 C928 0.931 . S
O909 Co885 2.097 . S
O909 C937 1.214 . S
H910 C938 0.929 . S
H911 C939 0.929 . S
H912 C940 0.930 . S
H913 C941 0.929 . S
H914 C943 0.930 . S
H915 C920 0.930 . S
H916 C924 0.930 . S
O917 Co886 2.037 . S
O917 C937 1.234 . S
C918 O892 1.269 . S
C918 O893 1.257 . S
C919 H894 0.930 . S
C919 C922 1.388 . S
C919 C924 1.418 . S
C920 H915 0.930 . S
C920 C923 1.404 . S
C920 C924 1.353 . S
N921 Co886 2.145 . S
N921 C922 1.397 . S
N921 C923 1.334 . S
C922 H903 0.929 . S
C922 C919 1.388 . S
C922 N921 1.397 . S
C923 H904 0.929 . S
C923 C920 1.404 . S
C923 N921 1.334 . S
C924 H916 0.930 . S
C924 C919 1.418 . S
C924 C920 1.353 . S
C925 H895 0.930 . S
C925 N926 1.330 . S
C925 C927 1.446 . S
N926 Co885 2.151 . S
N926 C925 1.330 . S
N926 C930 1.418 . S
C927 H906 0.929 . S
C927 C925 1.446 . S
C927 C928 1.332 . S
C928 H908 0.931 . S
C928 C927 1.332 . S
C928 C929 1.267 . S
C929 H897 0.929 . S
C929 C928 1.267 . S
C929 C930 1.251 . S
C930 H900 0.929 . S
C930 N926 1.418 . S
C930 C929 1.251 . S
C931 H898 0.930 . S
C931 C933 1.406 . S
C931 C936 1.261 . S
C932 H899 0.930 . S
C932 N934 1.325 . S
C932 C935 1.357 . S
C933 H901 0.928 . S
C933 C931 1.406 . S
C933 N934 1.261 . S
N934 Co885 2.214 . S
N934 C932 1.325 . S
N934 C933 1.261 . S
C935 H905 0.931 . S
C935 C932 1.357 . S
C935 C936 1.312 . S
C936 H907 0.930 . S
C936 C931 1.261 . S
C936 C935 1.312 . S
C937 O909 1.214 . S
C937 O917 1.234 . S
C938 H910 0.929 . S
C938 C941 1.391 . S
C938 C943 1.391 . S
C939 H911 0.929 . S
C939 C940 1.390 . S
C939 N942 1.391 . S
C940 H912 0.930 . S
C940 C939 1.390 . S
C940 C941 1.392 . S
C941 H913 0.929 . S
C941 C938 1.391 . S
C941 C940 1.392 . S
N942 Co886 2.257 . S
N942 C939 1.391 . S
N942 C943 1.388 . S
C943 H914 0.930 . S
C943 C938 1.391 . S
C943 N942 1.388 . S
H944 C956 0.930 . S
H945 C958 0.930 . S
H946 C959 0.930 . S
H947 C963 0.959 . S
H948 C963 0.959 . S
H949 C963 0.961 . S
H950 C964 0.960 . S
H951 C964 0.961 . S
H952 C964 0.959 . S
H953 C967 0.929 . S
H954 C968 0.931 . S
H955 C970 0.930 . S
C956 H944 0.930 . S
C956 C957 1.399 . S
C956 C961 1.399 . S
C957 C956 1.399 . S
C957 C958 1.376 . S
C958 H945 0.930 . S
C958 C957 1.376 . S
C958 C959 1.388 . S
C959 H946 0.930 . S
C959 C958 1.388 . S
C959 C960 1.390 . S
C960 C959 1.390 . S
C960 C961 1.394 . S
C960 C966 1.465 . S
C961 C956 1.399 . S
C961 C960 1.394 . S
C961 C962 1.516 . S
C962 C961 1.516 . S
C962 C963 1.502 . S
C962 C964 1.561 . S
C962 C965 1.526 . S
C963 H947 0.959 . S
C963 H948 0.959 . S
C963 H949 0.961 . S
C963 C962 1.502 . S
C964 H950 0.960 . S
C964 H951 0.961 . S
C964 H952 0.959 . S
C964 C962 1.561 . S
C965 C962 1.526 . S
C965 C966 1.396 . S
C965 C970 1.390 . S
C966 C960 1.465 . S
C966 C965 1.396 . S
C966 C967 1.399 . S
C967 H953 0.929 . S
C967 C966 1.399 . S
C967 C968 1.385 . S
C968 H954 0.931 . S
C968 C967 1.385 . S
C968 C969 1.389 . S
C969 C968 1.389 . S
C969 C970 1.387 . S
C970 H955 0.930 . S
C970 C965 1.390 . S
C970 C969 1.387 . S
H971 C983 0.930 . S
H972 C985 0.930 . S
H973 C986 0.930 . S
H974 C990 0.959 . S
H975 C990 0.959 . S
H976 C990 0.961 . S
H977 C991 0.960 . S
H978 C991 0.961 . S
H979 C991 0.959 . S
H980 C994 0.929 . S
H981 C995 0.931 . S
H982 C997 0.930 . S
C983 H971 0.930 . S
C983 C984 1.399 . S
C983 C988 1.399 . S
C984 C983 1.399 . S
C984 C985 1.376 . S
C985 H972 0.930 . S
C985 C984 1.376 . S
C985 C986 1.388 . S
C986 H973 0.930 . S
C986 C985 1.388 . S
C986 C987 1.390 . S
C987 C986 1.390 . S
C987 C988 1.394 . S
C987 C993 1.465 . S
C988 C983 1.399 . S
C988 C987 1.394 . S
C988 C989 1.516 . S
C989 C988 1.516 . S
C989 C990 1.502 . S
C989 C991 1.561 . S
C989 C992 1.526 . S
C990 H974 0.959 . S
C990 H975 0.959 . S
C990 H976 0.961 . S
C990 C989 1.502 . S
C991 H977 0.960 . S
C991 H978 0.961 . S
C991 H979 0.959 . S
C991 C989 1.561 . S
C992 C989 1.526 . S
C992 C993 1.396 . S
C992 C997 1.390 . S
C993 C987 1.465 . S
C993 C992 1.396 . S
C993 C994 1.399 . S
C994 H980 0.929 . S
C994 C993 1.399 . S
C994 C995 1.385 . S
C995 H981 0.931 . S
C995 C994 1.385 . S
C995 C996 1.389 . S
C996 C995 1.389 . S
C996 C997 1.387 . S
C997 H982 0.930 . S
C997 C992 1.390 . S
C997 C996 1.387 . S
H998 C1010 0.930 . S
H999 C1012 0.930 . S
H1000 C1013 0.930 . S
H1001 C1017 0.959 . S
H1002 C1017 0.959 . S
H1003 C1017 0.961 . S
H1004 C1018 0.960 . S
H1005 C1018 0.961 . S
H1006 C1018 0.959 . S
H1007 C1021 0.929 . S
H1008 C1022 0.931 . S
H1009 C1024 0.930 . S
C1010 H998 0.930 . S
C1010 C1011 1.399 . S
C1010 C1015 1.399 . S
C1011 C1010 1.399 . S
C1011 C1012 1.376 . S
C1012 H999 0.930 . S
C1012 C1011 1.376 . S
C1012 C1013 1.388 . S
C1013 H1000 0.930 . S
C1013 C1012 1.388 . S
C1013 C1014 1.390 . S
C1014 C1013 1.390 . S
C1014 C1015 1.394 . S
C1014 C1020 1.465 . S
C1015 C1010 1.399 . S
C1015 C1014 1.394 . S
C1015 C1016 1.516 . S
C1016 C1015 1.516 . S
C1016 C1017 1.502 . S
C1016 C1018 1.561 . S
C1016 C1019 1.526 . S
C1017 H1001 0.959 . S
C1017 H1002 0.959 . S
C1017 H1003 0.961 . S
C1017 C1016 1.502 . S
C1018 H1004 0.960 . S
C1018 H1005 0.961 . S
C1018 H1006 0.959 . S
C1018 C1016 1.561 . S
C1019 C1016 1.526 . S
C1019 C1020 1.396 . S
C1019 C1024 1.390 . S
C1020 C1014 1.465 . S
C1020 C1019 1.396 . S
C1020 C1021 1.399 . S
C1021 H1007 0.929 . S
C1021 C1020 1.399 . S
C1021 C1022 1.385 . S
C1022 H1008 0.931 . S
C1022 C1021 1.385 . S
C1022 C1023 1.389 . S
C1023 C1022 1.389 . S
C1023 C1024 1.387 . S
C1024 H1009 0.930 . S
C1024 C1019 1.390 . S
C1024 C1023 1.387 . S
H1025 C1037 0.930 . S
H1026 C1039 0.930 . S
H1027 C1040 0.930 . S
H1028 C1044 0.959 . S
H1029 C1044 0.959 . S
H1030 C1044 0.961 . S
H1031 C1045 0.960 . S
H1032 C1045 0.961 . S
H1033 C1045 0.959 . S
H1034 C1048 0.929 . S
H1035 C1049 0.931 . S
H1036 C1051 0.930 . S
C1037 H1025 0.930 . S
C1037 C1038 1.399 . S
C1037 C1042 1.399 . S
C1038 C1037 1.399 . S
C1038 C1039 1.376 . S
C1039 H1026 0.930 . S
C1039 C1038 1.376 . S
C1039 C1040 1.388 . S
C1040 H1027 0.930 . S
C1040 C1039 1.388 . S
C1040 C1041 1.390 . S
C1041 C1040 1.390 . S
C1041 C1042 1.394 . S
C1041 C1047 1.465 . S
C1042 C1037 1.399 . S
C1042 C1041 1.394 . S
C1042 C1043 1.516 . S
C1043 C1042 1.516 . S
C1043 C1044 1.502 . S
C1043 C1045 1.561 . S
C1043 C1046 1.526 . S
C1044 H1028 0.959 . S
C1044 H1029 0.959 . S
C1044 H1030 0.961 . S
C1044 C1043 1.502 . S
C1045 H1031 0.960 . S
C1045 H1032 0.961 . S
C1045 H1033 0.959 . S
C1045 C1043 1.561 . S
C1046 C1043 1.526 . S
C1046 C1047 1.396 . S
C1046 C1051 1.390 . S
C1047 C1041 1.465 . S
C1047 C1046 1.396 . S
C1047 C1048 1.399 . S
C1048 H1034 0.929 . S
C1048 C1047 1.399 . S
C1048 C1049 1.385 . S
C1049 H1035 0.931 . S
C1049 C1048 1.385 . S
C1049 C1050 1.389 . S
C1050 C1049 1.389 . S
C1050 C1051 1.387 . S
C1051 H1036 0.930 . S
C1051 C1046 1.390 . S
C1051 C1050 1.387 . S
H1052 C1064 0.930 . S
H1053 C1066 0.930 . S
H1054 C1067 0.930 . S
H1055 C1071 0.959 . S
H1056 C1071 0.959 . S
H1057 C1071 0.961 . S
H1058 C1072 0.960 . S
H1059 C1072 0.961 . S
H1060 C1072 0.959 . S
H1061 C1075 0.929 . S
H1062 C1076 0.931 . S
H1063 C1078 0.930 . S
C1064 H1052 0.930 . S
C1064 C1065 1.399 . S
C1064 C1069 1.399 . S
C1065 C1064 1.399 . S
C1065 C1066 1.376 . S
C1066 H1053 0.930 . S
C1066 C1065 1.376 . S
C1066 C1067 1.388 . S
C1067 H1054 0.930 . S
C1067 C1066 1.388 . S
C1067 C1068 1.390 . S
C1068 C1067 1.390 . S
C1068 C1069 1.394 . S
C1068 C1074 1.465 . S
C1069 C1064 1.399 . S
C1069 C1068 1.394 . S
C1069 C1070 1.516 . S
C1070 C1069 1.516 . S
C1070 C1071 1.502 . S
C1070 C1072 1.561 . S
C1070 C1073 1.526 . S
C1071 H1055 0.959 . S
C1071 H1056 0.959 . S
C1071 H1057 0.961 . S
C1071 C1070 1.502 . S
C1072 H1058 0.960 . S
C1072 H1059 0.961 . S
C1072 H1060 0.959 . S
C1072 C1070 1.561 . S
C1073 C1070 1.526 . S
C1073 C1074 1.396 . S
C1073 C1078 1.390 . S
C1074 C1068 1.465 . S
C1074 C1073 1.396 . S
C1074 C1075 1.399 . S
C1075 H1061 0.929 . S
C1075 C1074 1.399 . S
C1075 C1076 1.385 . S
C1076 H1062 0.931 . S
C1076 C1075 1.385 . S
C1076 C1077 1.389 . S
C1077 C1076 1.389 . S
C1077 C1078 1.387 . S
C1078 H1063 0.930 . S
C1078 C1073 1.390 . S
C1078 C1077 1.387 . S
H1079 C1091 0.930 . S
H1080 C1093 0.930 . S
H1081 C1094 0.930 . S
H1082 C1098 0.959 . S
H1083 C1098 0.959 . S
H1084 C1098 0.961 . S
H1085 C1099 0.960 . S
H1086 C1099 0.961 . S
H1087 C1099 0.959 . S
H1088 C1102 0.929 . S
H1089 C1103 0.931 . S
H1090 C1105 0.930 . S
C1091 H1079 0.930 . S
C1091 C1092 1.399 . S
C1091 C1096 1.399 . S
C1092 C1091 1.399 . S
C1092 C1093 1.376 . S
C1093 H1080 0.930 . S
C1093 C1092 1.376 . S
C1093 C1094 1.388 . S
C1094 H1081 0.930 . S
C1094 C1093 1.388 . S
C1094 C1095 1.390 . S
C1095 C1094 1.390 . S
C1095 C1096 1.394 . S
C1095 C1101 1.465 . S
C1096 C1091 1.399 . S
C1096 C1095 1.394 . S
C1096 C1097 1.516 . S
C1097 C1096 1.516 . S
C1097 C1098 1.502 . S
C1097 C1099 1.561 . S
C1097 C1100 1.526 . S
C1098 H1082 0.959 . S
C1098 H1083 0.959 . S
C1098 H1084 0.961 . S
C1098 C1097 1.502 . S
C1099 H1085 0.960 . S
C1099 H1086 0.961 . S
C1099 H1087 0.959 . S
C1099 C1097 1.561 . S
C1100 C1097 1.526 . S
C1100 C1101 1.396 . S
C1100 C1105 1.390 . S
C1101 C1095 1.465 . S
C1101 C1100 1.396 . S
C1101 C1102 1.399 . S
C1102 H1088 0.929 . S
C1102 C1101 1.399 . S
C1102 C1103 1.385 . S
C1103 H1089 0.931 . S
C1103 C1102 1.385 . S
C1103 C1104 1.389 . S
C1104 C1103 1.389 . S
C1104 C1105 1.387 . S
C1105 H1090 0.930 . S
C1105 C1100 1.390 . S
C1105 C1104 1.387 . S
H1106 C1118 0.930 . S
H1107 C1120 0.930 . S
H1108 C1121 0.930 . S
H1109 C1125 0.959 . S
H1110 C1125 0.959 . S
H1111 C1125 0.961 . S
H1112 C1126 0.960 . S
H1113 C1126 0.961 . S
H1114 C1126 0.959 . S
H1115 C1129 0.929 . S
H1116 C1130 0.931 . S
H1117 C1132 0.930 . S
C1118 H1106 0.930 . S
C1118 C1119 1.399 . S
C1118 C1123 1.399 . S
C1119 C1118 1.399 . S
C1119 C1120 1.376 . S
C1120 H1107 0.930 . S
C1120 C1119 1.376 . S
C1120 C1121 1.388 . S
C1121 H1108 0.930 . S
C1121 C1120 1.388 . S
C1121 C1122 1.390 . S
C1122 C1121 1.390 . S
C1122 C1123 1.394 . S
C1122 C1128 1.465 . S
C1123 C1118 1.399 . S
C1123 C1122 1.394 . S
C1123 C1124 1.516 . S
C1124 C1123 1.516 . S
C1124 C1125 1.502 . S
C1124 C1126 1.561 . S
C1124 C1127 1.526 . S
C1125 H1109 0.959 . S
C1125 H1110 0.959 . S
C1125 H1111 0.961 . S
C1125 C1124 1.502 . S
C1126 H1112 0.960 . S
C1126 H1113 0.961 . S
C1126 H1114 0.959 . S
C1126 C1124 1.561 . S
C1127 C1124 1.526 . S
C1127 C1128 1.396 . S
C1127 C1132 1.390 . S
C1128 C1122 1.465 . S
C1128 C1127 1.396 . S
C1128 C1129 1.399 . S
C1129 H1115 0.929 . S
C1129 C1128 1.399 . S
C1129 C1130 1.385 . S
C1130 H1116 0.931 . S
C1130 C1129 1.385 . S
C1130 C1131 1.389 . S
C1131 C1130 1.389 . S
C1131 C1132 1.387 . S
C1132 H1117 0.930 . S
C1132 C1127 1.390 . S
C1132 C1131 1.387 . S
H1133 C1145 0.930 . S
H1134 C1147 0.930 . S
H1135 C1148 0.930 . S
H1136 C1152 0.959 . S
H1137 C1152 0.959 . S
H1138 C1152 0.961 . S
H1139 C1153 0.960 . S
H1140 C1153 0.961 . S
H1141 C1153 0.959 . S
H1142 C1156 0.929 . S
H1143 C1157 0.931 . S
H1144 C1159 0.930 . S
C1145 H1133 0.930 . S
C1145 C1146 1.399 . S
C1145 C1150 1.399 . S
C1146 C1145 1.399 . S
C1146 C1147 1.376 . S
C1147 H1134 0.930 . S
C1147 C1146 1.376 . S
C1147 C1148 1.388 . S
C1148 H1135 0.930 . S
C1148 C1147 1.388 . S
C1148 C1149 1.390 . S
C1149 C1148 1.390 . S
C1149 C1150 1.394 . S
C1149 C1155 1.465 . S
C1150 C1145 1.399 . S
C1150 C1149 1.394 . S
C1150 C1151 1.516 . S
C1151 C1150 1.516 . S
C1151 C1152 1.502 . S
C1151 C1153 1.561 . S
C1151 C1154 1.526 . S
C1152 H1136 0.959 . S
C1152 H1137 0.959 . S
C1152 H1138 0.961 . S
C1152 C1151 1.502 . S
C1153 H1139 0.960 . S
C1153 H1140 0.961 . S
C1153 H1141 0.959 . S
C1153 C1151 1.561 . S
C1154 C1151 1.526 . S
C1154 C1155 1.396 . S
C1154 C1159 1.390 . S
C1155 C1149 1.465 . S
C1155 C1154 1.396 . S
C1155 C1156 1.399 . S
C1156 H1142 0.929 . S
C1156 C1155 1.399 . S
C1156 C1157 1.385 . S
C1157 H1143 0.931 . S
C1157 C1156 1.385 . S
C1157 C1158 1.389 . S
C1158 C1157 1.389 . S
C1158 C1159 1.387 . S
C1159 H1144 0.930 . S
C1159 C1154 1.390 . S
C1159 C1158 1.387 . S
H1160 C1172 0.930 . S
H1161 C1174 0.930 . S
H1162 C1175 0.930 . S
H1163 C1179 0.959 . S
H1164 C1179 0.959 . S
H1165 C1179 0.961 . S
H1166 C1180 0.960 . S
H1167 C1180 0.961 . S
H1168 C1180 0.959 . S
H1169 C1183 0.929 . S
H1170 C1184 0.931 . S
H1171 C1186 0.930 . S
C1172 H1160 0.930 . S
C1172 C1173 1.399 . S
C1172 C1177 1.399 . S
C1173 C1172 1.399 . S
C1173 C1174 1.376 . S
C1174 H1161 0.930 . S
C1174 C1173 1.376 . S
C1174 C1175 1.388 . S
C1175 H1162 0.930 . S
C1175 C1174 1.388 . S
C1175 C1176 1.390 . S
C1176 C1175 1.390 . S
C1176 C1177 1.394 . S
C1176 C1182 1.465 . S
C1177 C1172 1.399 . S
C1177 C1176 1.394 . S
C1177 C1178 1.516 . S
C1178 C1177 1.516 . S
C1178 C1179 1.502 . S
C1178 C1180 1.561 . S
C1178 C1181 1.526 . S
C1179 H1163 0.959 . S
C1179 H1164 0.959 . S
C1179 H1165 0.961 . S
C1179 C1178 1.502 . S
C1180 H1166 0.960 . S
C1180 H1167 0.961 . S
C1180 H1168 0.959 . S
C1180 C1178 1.561 . S
C1181 C1178 1.526 . S
C1181 C1182 1.396 . S
C1181 C1186 1.390 . S
C1182 C1176 1.465 . S
C1182 C1181 1.396 . S
C1182 C1183 1.399 . S
C1183 H1169 0.929 . S
C1183 C1182 1.399 . S
C1183 C1184 1.385 . S
C1184 H1170 0.931 . S
C1184 C1183 1.385 . S
C1184 C1185 1.389 . S
C1185 C1184 1.389 . S
C1185 C1186 1.387 . S
C1186 H1171 0.930 . S
C1186 C1181 1.390 . S
C1186 C1185 1.387 . S
H1187 C1199 0.930 . S
H1188 C1201 0.930 . S
H1189 C1202 0.930 . S
H1190 C1206 0.959 . S
H1191 C1206 0.959 . S
H1192 C1206 0.961 . S
H1193 C1207 0.960 . S
H1194 C1207 0.961 . S
H1195 C1207 0.959 . S
H1196 C1210 0.929 . S
H1197 C1211 0.931 . S
H1198 C1213 0.930 . S
C1199 H1187 0.930 . S
C1199 C1200 1.399 . S
C1199 C1204 1.399 . S
C1200 C1199 1.399 . S
C1200 C1201 1.376 . S
C1201 H1188 0.930 . S
C1201 C1200 1.376 . S
C1201 C1202 1.388 . S
C1202 H1189 0.930 . S
C1202 C1201 1.388 . S
C1202 C1203 1.390 . S
C1203 C1202 1.390 . S
C1203 C1204 1.394 . S
C1203 C1209 1.465 . S
C1204 C1199 1.399 . S
C1204 C1203 1.394 . S
C1204 C1205 1.516 . S
C1205 C1204 1.516 . S
C1205 C1206 1.502 . S
C1205 C1207 1.561 . S
C1205 C1208 1.526 . S
C1206 H1190 0.959 . S
C1206 H1191 0.959 . S
C1206 H1192 0.961 . S
C1206 C1205 1.502 . S
C1207 H1193 0.960 . S
C1207 H1194 0.961 . S
C1207 H1195 0.959 . S
C1207 C1205 1.561 . S
C1208 C1205 1.526 . S
C1208 C1209 1.396 . S
C1208 C1213 1.390 . S
C1209 C1203 1.465 . S
C1209 C1208 1.396 . S
C1209 C1210 1.399 . S
C1210 H1196 0.929 . S
C1210 C1209 1.399 . S
C1210 C1211 1.385 . S
C1211 H1197 0.931 . S
C1211 C1210 1.385 . S
C1211 C1212 1.389 . S
C1212 C1211 1.389 . S
C1212 C1213 1.387 . S
C1213 H1198 0.930 . S
C1213 C1208 1.390 . S
C1213 C1212 1.387 . S
H1214 C1226 0.930 . S
H1215 C1228 0.930 . S
H1216 C1229 0.930 . S
H1217 C1233 0.959 . S
H1218 C1233 0.959 . S
H1219 C1233 0.961 . S
H1220 C1234 0.960 . S
H1221 C1234 0.961 . S
H1222 C1234 0.959 . S
H1223 C1237 0.929 . S
H1224 C1238 0.931 . S
H1225 C1240 0.930 . S
C1226 H1214 0.930 . S
C1226 C1227 1.399 . S
C1226 C1231 1.399 . S
C1227 C1226 1.399 . S
C1227 C1228 1.376 . S
C1228 H1215 0.930 . S
C1228 C1227 1.376 . S
C1228 C1229 1.388 . S
C1229 H1216 0.930 . S
C1229 C1228 1.388 . S
C1229 C1230 1.390 . S
C1230 C1229 1.390 . S
C1230 C1231 1.394 . S
C1230 C1236 1.465 . S
C1231 C1226 1.399 . S
C1231 C1230 1.394 . S
C1231 C1232 1.516 . S
C1232 C1231 1.516 . S
C1232 C1233 1.502 . S
C1232 C1234 1.561 . S
C1232 C1235 1.526 . S
C1233 H1217 0.959 . S
C1233 H1218 0.959 . S
C1233 H1219 0.961 . S
C1233 C1232 1.502 . S
C1234 H1220 0.960 . S
C1234 H1221 0.961 . S
C1234 H1222 0.959 . S
C1234 C1232 1.561 . S
C1235 C1232 1.526 . S
C1235 C1236 1.396 . S
C1235 C1240 1.390 . S
C1236 C1230 1.465 . S
C1236 C1235 1.396 . S
C1236 C1237 1.399 . S
C1237 H1223 0.929 . S
C1237 C1236 1.399 . S
C1237 C1238 1.385 . S
C1238 H1224 0.931 . S
C1238 C1237 1.385 . S
C1238 C1239 1.389 . S
C1239 C1238 1.389 . S
C1239 C1240 1.387 . S
C1240 H1225 0.930 . S
C1240 C1235 1.390 . S
C1240 C1239 1.387 . S
H1241 C1253 0.930 . S
H1242 C1255 0.930 . S
H1243 C1256 0.930 . S
H1244 C1260 0.959 . S
H1245 C1260 0.959 . S
H1246 C1260 0.961 . S
H1247 C1261 0.960 . S
H1248 C1261 0.998 . S
H1249 C1261 0.959 . S
H1250 C1264 0.929 . S
H1251 C1265 0.931 . S
H1252 C1267 0.930 . S
C1253 H1241 0.930 . S
C1253 C1254 1.399 . S
C1253 C1258 1.399 . S
C1254 C1253 1.399 . S
C1254 C1255 1.376 . S
C1255 H1242 0.930 . S
C1255 C1254 1.376 . S
C1255 C1256 1.388 . S
C1256 H1243 0.930 . S
C1256 C1255 1.388 . S
C1256 C1257 1.390 . S
C1257 C1256 1.390 . S
C1257 C1258 1.394 . S
C1257 C1263 1.465 1_554 S
C1258 C1253 1.399 . S
C1258 C1257 1.394 . S
C1258 C1259 1.516 . S
C1259 C1258 1.516 . S
C1259 C1260 1.502 . S
C1259 C1261 1.561 . S
C1259 C1262 1.526 1_554 S
C1260 H1244 0.959 . S
C1260 H1245 0.959 . S
C1260 H1246 0.961 . S
C1260 C1259 1.502 . S
C1261 H1247 0.960 . S
C1261 H1248 0.998 . S
C1261 H1249 0.959 . S
C1261 C1259 1.561 . S
C1262 C1259 1.526 1_556 S
C1262 C1263 1.396 . S
C1262 C1267 1.390 . S
C1263 C1257 1.465 1_556 S
C1263 C1262 1.396 . S
C1263 C1264 1.399 . S
C1264 H1250 0.929 . S
C1264 C1263 1.399 . S
C1264 C1265 1.385 . S
C1265 H1251 0.931 . S
C1265 C1264 1.385 . S
C1265 C1266 1.389 . S
C1266 C1265 1.389 . S
C1266 C1267 1.387 . S
C1267 H1252 0.930 . S
C1267 C1262 1.390 . S
C1267 C1266 1.387 . S
H1268 C1280 0.930 . S
H1269 C1282 0.930 . S
H1270 C1283 0.930 . S
H1271 C1287 0.959 . S
H1272 C1287 0.959 . S
H1273 C1287 0.961 . S
H1274 C1288 0.960 . S
H1275 C1288 0.961 . S
H1276 C1288 0.959 . S
H1277 C1291 0.929 . S
H1278 C1292 0.931 . S
H1279 C1294 0.930 . S
C1280 H1268 0.930 . S
C1280 C1281 1.399 . S
C1280 C1285 1.399 . S
C1281 C1280 1.399 . S
C1281 C1282 1.376 . S
C1282 H1269 0.930 . S
C1282 C1281 1.376 . S
C1282 C1283 1.388 . S
C1283 H1270 0.930 . S
C1283 C1282 1.388 . S
C1283 C1284 1.390 . S
C1284 C1283 1.390 . S
C1284 C1285 1.394 . S
C1284 C1290 1.465 1_554 S
C1285 C1280 1.399 . S
C1285 C1284 1.394 . S
C1285 C1286 1.516 . S
C1286 C1285 1.516 . S
C1286 C1287 1.502 . S
C1286 C1288 1.561 . S
C1286 C1289 1.526 1_554 S
C1287 H1271 0.959 . S
C1287 H1272 0.959 . S
C1287 H1273 0.961 . S
C1287 C1286 1.502 . S
C1288 H1274 0.960 . S
C1288 H1275 0.961 . S
C1288 H1276 0.959 . S
C1288 C1286 1.561 . S
C1289 C1286 1.526 1_556 S
C1289 C1290 1.396 . S
C1289 C1294 1.390 . S
C1290 C1284 1.465 1_556 S
C1290 C1289 1.396 . S
C1290 C1291 1.399 . S
C1291 H1277 0.929 . S
C1291 C1290 1.399 . S
C1291 C1292 1.385 . S
C1292 H1278 0.931 . S
C1292 C1291 1.385 . S
C1292 C1293 1.389 . S
C1293 C1292 1.389 . S
C1293 C1294 1.387 . S
C1294 H1279 0.930 . S
C1294 C1289 1.390 . S
C1294 C1293 1.387 . S
H1295 C1307 0.930 . S
H1296 C1309 0.930 . S
H1297 C1310 0.930 . S
H1298 C1314 0.959 . S
H1299 C1314 0.959 . S
H1300 C1314 0.961 . S
H1301 C1315 0.960 . S
H1302 C1315 0.961 . S
H1303 C1315 0.959 . S
H1304 C1318 0.929 . S
H1305 C1319 0.931 . S
H1306 C1321 0.930 . S
C1307 H1295 0.930 . S
C1307 C1308 1.399 . S
C1307 C1312 1.399 . S
C1308 C1307 1.399 . S
C1308 C1309 1.376 . S
C1309 H1296 0.930 . S
C1309 C1308 1.376 . S
C1309 C1310 1.388 . S
C1310 H1297 0.930 . S
C1310 C1309 1.388 . S
C1310 C1311 1.390 . S
C1311 C1310 1.390 . S
C1311 C1312 1.394 . S
C1311 C1317 1.465 . S
C1312 C1307 1.399 . S
C1312 C1311 1.394 . S
C1312 C1313 1.516 . S
C1313 C1312 1.516 . S
C1313 C1314 1.502 . S
C1313 C1315 1.561 . S
C1313 C1316 1.526 . S
C1314 H1298 0.959 . S
C1314 H1299 0.959 . S
C1314 H1300 0.961 . S
C1314 C1313 1.502 . S
C1315 H1301 0.960 . S
C1315 H1302 0.961 . S
C1315 H1303 0.959 . S
C1315 C1313 1.561 . S
C1316 C1313 1.526 . S
C1316 C1317 1.396 . S
C1316 C1321 1.390 . S
C1317 C1311 1.465 . S
C1317 C1316 1.396 . S
C1317 C1318 1.399 . S
C1318 H1304 0.929 . S
C1318 C1317 1.399 . S
C1318 C1319 1.385 . S
C1319 H1305 0.931 . S
C1319 C1318 1.385 . S
C1319 C1320 1.389 . S
C1320 C1319 1.389 . S
C1320 C1321 1.387 . S
C1321 H1306 0.930 . S
C1321 C1316 1.390 . S
C1321 C1320 1.387 . S
H1322 C1334 0.930 . S
H1323 C1336 0.930 . S
H1324 C1337 0.930 . S
H1325 C1341 0.959 . S
H1326 C1341 0.959 . S
H1327 C1341 0.961 . S
H1328 C1342 0.960 . S
H1329 C1342 0.961 . S
H1330 C1342 0.959 . S
H1331 C1345 0.929 . S
H1332 C1346 0.931 . S
H1333 C1348 0.930 . S
C1334 H1322 0.930 . S
C1334 C1335 1.399 . S
C1334 C1339 1.399 . S
C1335 C1334 1.399 . S
C1335 C1336 1.376 . S
C1336 H1323 0.930 . S
C1336 C1335 1.376 . S
C1336 C1337 1.388 . S
C1337 H1324 0.930 . S
C1337 C1336 1.388 . S
C1337 C1338 1.390 . S
C1338 C1337 1.390 . S
C1338 C1339 1.394 . S
C1338 C1344 1.465 . S
C1339 C1334 1.399 . S
C1339 C1338 1.394 . S
C1339 C1340 1.516 . S
C1340 C1339 1.516 . S
C1340 C1341 1.502 . S
C1340 C1342 1.561 . S
C1340 C1343 1.526 . S
C1341 H1325 0.959 . S
C1341 H1326 0.959 . S
C1341 H1327 0.961 . S
C1341 C1340 1.502 . S
C1342 H1328 0.960 . S
C1342 H1329 0.961 . S
C1342 H1330 0.959 . S
C1342 C1340 1.561 . S
C1343 C1340 1.526 . S
C1343 C1344 1.396 . S
C1343 C1348 1.390 . S
C1344 C1338 1.465 . S
C1344 C1343 1.396 . S
C1344 C1345 1.399 . S
C1345 H1331 0.929 . S
C1345 C1344 1.399 . S
C1345 C1346 1.385 . S
C1346 H1332 0.931 . S
C1346 C1345 1.385 . S
C1346 C1347 1.389 . S
C1347 C1346 1.389 . S
C1347 C1348 1.387 . S
C1348 H1333 0.930 . S
C1348 C1343 1.390 . S
C1348 C1347 1.387 . S
H1349 C1361 0.930 . S
H1350 C1363 0.930 . S
H1351 C1364 0.930 . S
H1352 C1368 0.959 . S
H1353 C1368 0.959 . S
H1354 C1368 0.961 . S
H1355 C1369 0.960 . S
H1356 C1369 0.961 . S
H1357 C1369 0.959 . S
H1358 C1372 0.929 . S
H1359 C1373 0.931 . S
H1360 C1375 0.930 . S
C1361 H1349 0.930 . S
C1361 C1362 1.399 . S
C1361 C1366 1.399 . S
C1362 C1361 1.399 . S
C1362 C1363 1.376 . S
C1363 H1350 0.930 . S
C1363 C1362 1.376 . S
C1363 C1364 1.388 . S
C1364 H1351 0.930 . S
C1364 C1363 1.388 . S
C1364 C1365 1.390 . S
C1365 C1364 1.390 . S
C1365 C1366 1.394 . S
C1365 C1371 1.465 . S
C1366 C1361 1.399 . S
C1366 C1365 1.394 . S
C1366 C1367 1.516 . S
C1367 C1366 1.516 . S
C1367 C1368 1.502 . S
C1367 C1369 1.561 . S
C1367 C1370 1.526 . S
C1368 H1352 0.959 . S
C1368 H1353 0.959 . S
C1368 H1354 0.961 . S
C1368 C1367 1.502 . S
C1369 H1355 0.960 . S
C1369 H1356 0.961 . S
C1369 H1357 0.959 . S
C1369 C1367 1.561 . S
C1370 C1367 1.526 . S
C1370 C1371 1.396 . S
C1370 C1375 1.390 . S
C1371 C1365 1.465 . S
C1371 C1370 1.396 . S
C1371 C1372 1.399 . S
C1372 H1358 0.929 . S
C1372 C1371 1.399 . S
C1372 C1373 1.385 . S
C1373 H1359 0.931 . S
C1373 C1372 1.385 . S
C1373 C1374 1.389 . S
C1374 C1373 1.389 . S
C1374 C1375 1.387 . S
C1375 H1360 0.930 . S
C1375 C1370 1.390 . S
C1375 C1374 1.387 . S
H1376 C1388 0.930 . S
H1377 C1390 0.930 . S
H1378 C1391 0.930 . S
H1379 C1395 0.959 . S
H1380 C1395 0.959 . S
H1381 C1395 0.961 . S
H1382 C1396 0.960 1_545 S
H1383 C1396 0.961 1_655 S
H1384 C1396 0.959 . S
H1385 C1399 0.929 . S
H1386 C1400 0.931 . S
H1387 C1402 0.930 . S
C1388 H1376 0.930 . S
C1388 C1389 1.399 . S
C1388 C1393 1.399 . S
C1389 C1388 1.399 . S
C1389 C1390 1.376 . S
C1390 H1377 0.930 . S
C1390 C1389 1.376 . S
C1390 C1391 1.388 1_545 S
C1391 H1378 0.930 . S
C1391 C1390 1.388 1_565 S
C1391 C1392 1.390 . S
C1392 C1391 1.390 . S
C1392 C1393 1.394 1_565 S
C1392 C1398 1.465 1_455 S
C1393 C1388 1.399 . S
C1393 C1392 1.394 1_545 S
C1393 C1394 1.516 1_455 S
C1394 C1393 1.516 1_655 S
C1394 C1395 1.502 . S
C1394 C1396 1.561 1_645 S
C1394 C1397 1.526 1_545 S
C1395 H1379 0.959 . S
C1395 H1380 0.959 . S
C1395 H1381 0.961 . S
C1395 C1394 1.502 . S
C1396 H1382 0.960 1_565 S
C1396 H1383 0.961 1_455 S
C1396 H1384 0.959 . S
C1396 C1394 1.561 1_465 S
C1397 C1394 1.526 1_565 S
C1397 C1398 1.396 . S
C1397 C1402 1.390 . S
C1398 C1392 1.465 1_655 S
C1398 C1397 1.396 . S
C1398 C1399 1.399 . S
C1399 H1385 0.929 . S
C1399 C1398 1.399 . S
C1399 C1400 1.385 . S
C1400 H1386 0.931 . S
C1400 C1399 1.385 . S
C1400 C1401 1.389 . S
C1401 C1400 1.389 . S
C1401 C1402 1.387 . S
C1402 H1387 0.930 . S
C1402 C1397 1.390 . S
C1402 C1401 1.387 . S
H1403 C1415 0.930 . S
H1404 C1417 0.930 . S
H1405 C1418 0.930 1_655 S
H1406 C1422 0.959 . S
H1407 C1422 0.959 . S
H1408 C1422 0.961 . S
H1409 C1423 0.960 . S
H1410 C1423 0.961 . S
H1411 C1423 0.959 . S
H1412 C1426 0.929 . S
H1413 C1427 0.931 . S
H1414 C1429 0.930 . S
C1415 H1403 0.930 . S
C1415 C1416 1.399 . S
C1415 C1420 1.399 . S
C1416 C1415 1.399 . S
C1416 C1417 1.376 . S
C1417 H1404 0.930 . S
C1417 C1416 1.376 . S
C1417 C1418 1.388 . S
C1418 H1405 0.930 1_455 S
C1418 C1417 1.388 . S
C1418 C1419 1.390 . S
C1419 C1418 1.390 . S
C1419 C1420 1.394 . S
C1419 C1425 1.465 1_455 S
C1420 C1415 1.399 . S
C1420 C1419 1.394 . S
C1420 C1421 1.516 . S
C1421 C1420 1.516 . S
C1421 C1422 1.502 . S
C1421 C1423 1.561 1_455 S
C1421 C1424 1.526 1_455 S
C1422 H1406 0.959 . S
C1422 H1407 0.959 . S
C1422 H1408 0.961 . S
C1422 C1421 1.502 . S
C1423 H1409 0.960 . S
C1423 H1410 0.961 . S
C1423 H1411 0.959 . S
C1423 C1421 1.561 1_655 S
C1424 C1421 1.526 1_655 S
C1424 C1425 1.396 . S
C1424 C1429 1.390 . S
C1425 C1419 1.465 1_655 S
C1425 C1424 1.396 . S
C1425 C1426 1.399 . S
C1426 H1412 0.929 . S
C1426 C1425 1.399 . S
C1426 C1427 1.385 . S
C1427 H1413 0.931 . S
C1427 C1426 1.385 . S
C1427 C1428 1.389 . S
C1428 C1427 1.389 . S
C1428 C1429 1.387 . S
C1429 H1414 0.930 . S
C1429 C1424 1.390 . S
C1429 C1428 1.387 . S
H1430 C1442 0.930 . S
H1431 C1444 0.930 . S
H1432 C1445 0.930 . S
H1433 C1449 0.959 . S
H1434 C1449 0.959 . S
H1435 C1449 0.961 . S
H1436 C1450 0.960 . S
H1437 C1450 0.961 . S
H1438 C1450 0.959 . S
H1439 C1453 0.929 . S
H1440 C1454 0.931 . S
H1441 C1456 0.930 . S
C1442 H1430 0.930 . S
C1442 C1443 1.399 . S
C1442 C1447 1.399 . S
C1443 C1442 1.399 . S
C1443 C1444 1.376 . S
C1444 H1431 0.930 . S
C1444 C1443 1.376 . S
C1444 C1445 1.388 . S
C1445 H1432 0.930 . S
C1445 C1444 1.388 . S
C1445 C1446 1.390 . S
C1446 C1445 1.390 . S
C1446 C1447 1.394 . S
C1446 C1452 1.465 . S
C1447 C1442 1.399 . S
C1447 C1446 1.394 . S
C1447 C1448 1.516 . S
C1448 C1447 1.516 . S
C1448 C1449 1.502 . S
C1448 C1450 1.561 . S
C1448 C1451 1.526 . S
C1449 H1433 0.959 . S
C1449 H1434 0.959 . S
C1449 H1435 0.961 . S
C1449 C1448 1.502 . S
C1450 H1436 0.960 . S
C1450 H1437 0.961 . S
C1450 H1438 0.959 . S
C1450 C1448 1.561 . S
C1451 C1448 1.526 . S
C1451 C1452 1.396 . S
C1451 C1456 1.390 . S
C1452 C1446 1.465 . S
C1452 C1451 1.396 . S
C1452 C1453 1.399 . S
C1453 H1439 0.929 . S
C1453 C1452 1.399 . S
C1453 C1454 1.385 . S
C1454 H1440 0.931 . S
C1454 C1453 1.385 . S
C1454 C1455 1.389 . S
C1455 C1454 1.389 . S
C1455 C1456 1.387 . S
C1456 H1441 0.930 . S
C1456 C1451 1.390 . S
C1456 C1455 1.387 . S
H1457 C1469 0.930 . S
H1458 C1471 0.930 . S
H1459 C1472 0.930 . S
H1460 C1476 0.959 . S
H1461 C1476 0.959 . S
H1462 C1476 0.961 . S
H1463 C1477 0.960 1_545 S
H1464 C1477 0.961 . S
H1465 C1477 0.959 . S
H1466 C1480 0.929 . S
H1467 C1481 0.931 . S
H1468 C1483 0.930 . S
C1469 H1457 0.930 . S
C1469 C1470 1.399 . S
C1469 C1474 1.399 . S
C1470 C1469 1.399 . S
C1470 C1471 1.376 . S
C1471 H1458 0.930 . S
C1471 C1470 1.376 . S
C1471 C1472 1.388 . S
C1472 H1459 0.930 . S
C1472 C1471 1.388 . S
C1472 C1473 1.390 . S
C1473 C1472 1.390 . S
C1473 C1474 1.394 . S
C1473 C1479 1.465 1_545 S
C1474 C1469 1.399 . S
C1474 C1473 1.394 . S
C1474 C1475 1.516 . S
C1475 C1474 1.516 . S
C1475 C1476 1.502 . S
C1475 C1477 1.561 1_545 S
C1475 C1478 1.526 1_545 S
C1476 H1460 0.959 . S
C1476 H1461 0.959 . S
C1476 H1462 0.961 . S
C1476 C1475 1.502 . S
C1477 H1463 0.960 1_565 S
C1477 H1464 0.961 . S
C1477 H1465 0.959 . S
C1477 C1475 1.561 1_565 S
C1478 C1475 1.526 1_565 S
C1478 C1479 1.396 . S
C1478 C1483 1.390 . S
C1479 C1473 1.465 1_565 S
C1479 C1478 1.396 . S
C1479 C1480 1.399 . S
C1480 H1466 0.929 . S
C1480 C1479 1.399 . S
C1480 C1481 1.385 . S
C1481 H1467 0.931 . S
C1481 C1480 1.385 . S
C1481 C1482 1.389 . S
C1482 C1481 1.389 . S
C1482 C1483 1.387 . S
C1483 H1468 0.930 . S
C1483 C1478 1.390 . S
C1483 C1482 1.387 . S
H1484 C1496 0.930 . S
H1485 C1498 0.930 . S
H1486 C1499 0.930 . S
H1487 C1503 0.959 . S
H1488 C1503 0.959 . S
H1489 C1503 0.961 . S
H1490 C1504 0.960 . S
H1491 C1504 0.961 1_655 S
H1492 C1504 0.959 . S
H1493 C1507 0.929 . S
H1494 C1508 0.931 . S
H1495 C1510 0.930 . S
C1496 H1484 0.930 . S
C1496 C1497 1.399 . S
C1496 C1501 1.399 . S
C1497 C1496 1.399 . S
C1497 C1498 1.376 . S
C1498 H1485 0.930 . S
C1498 C1497 1.376 . S
C1498 C1499 1.388 . S
C1499 H1486 0.930 . S
C1499 C1498 1.388 . S
C1499 C1500 1.390 . S
C1500 C1499 1.390 . S
C1500 C1501 1.394 . S
C1500 C1506 1.465 1_455 S
C1501 C1496 1.399 . S
C1501 C1500 1.394 . S
C1501 C1502 1.516 1_455 S
C1502 C1501 1.516 1_655 S
C1502 C1503 1.502 . S
C1502 C1504 1.561 1_655 S
C1502 C1505 1.526 . S
C1503 H1487 0.959 . S
C1503 H1488 0.959 . S
C1503 H1489 0.961 . S
C1503 C1502 1.502 . S
C1504 H1490 0.960 . S
C1504 H1491 0.961 1_455 S
C1504 H1492 0.959 . S
C1504 C1502 1.561 1_455 S
C1505 C1502 1.526 . S
C1505 C1506 1.396 . S
C1505 C1510 1.390 . S
C1506 C1500 1.465 1_655 S
C1506 C1505 1.396 . S
C1506 C1507 1.399 . S
C1507 H1493 0.929 . S
C1507 C1506 1.399 . S
C1507 C1508 1.385 . S
C1508 H1494 0.931 . S
C1508 C1507 1.385 . S
C1508 C1509 1.389 . S
C1509 C1508 1.389 . S
C1509 C1510 1.387 . S
C1510 H1495 0.930 . S
C1510 C1505 1.390 . S
C1510 C1509 1.387 . S
H1511 C1523 0.930 . S
H1512 C1525 0.930 . S
H1513 C1526 0.930 . S
H1514 C1530 0.959 . S
H1515 C1530 0.959 . S
H1516 C1530 0.961 . S
H1517 C1531 0.960 . S
H1518 C1531 0.961 . S
H1519 C1531 0.959 . S
H1520 C1534 0.929 . S
H1521 C1535 0.931 . S
H1522 C1537 0.930 . S
C1523 H1511 0.930 . S
C1523 C1524 1.399 . S
C1523 C1528 1.399 . S
C1524 C1523 1.399 . S
C1524 C1525 1.376 . S
C1525 H1512 0.930 . S
C1525 C1524 1.376 . S
C1525 C1526 1.388 . S
C1526 H1513 0.930 . S
C1526 C1525 1.388 . S
C1526 C1527 1.390 . S
C1527 C1526 1.390 . S
C1527 C1528 1.394 . S
C1527 C1533 1.465 . S
C1528 C1523 1.399 . S
C1528 C1527 1.394 . S
C1528 C1529 1.516 . S
C1529 C1528 1.516 . S
C1529 C1530 1.502 . S
C1529 C1531 1.561 . S
C1529 C1532 1.526 . S
C1530 H1514 0.959 . S
C1530 H1515 0.959 . S
C1530 H1516 0.961 . S
C1530 C1529 1.502 . S
C1531 H1517 0.960 . S
C1531 H1518 0.961 . S
C1531 H1519 0.959 . S
C1531 C1529 1.561 . S
C1532 C1529 1.526 . S
C1532 C1533 1.396 . S
C1532 C1537 1.390 . S
C1533 C1527 1.465 . S
C1533 C1532 1.396 . S
C1533 C1534 1.399 . S
C1534 H1520 0.929 . S
C1534 C1533 1.399 . S
C1534 C1535 1.385 . S
C1535 H1521 0.931 . S
C1535 C1534 1.385 . S
C1535 C1536 1.389 . S
C1536 C1535 1.389 . S
C1536 C1537 1.387 . S
C1537 H1522 0.930 . S
C1537 C1532 1.390 . S
C1537 C1536 1.387 . S
H1538 C1550 0.930 . S
H1539 C1552 0.930 . S
H1540 C1553 0.930 . S
H1541 C1557 0.959 . S
H1542 C1557 0.959 . S
H1543 C1557 0.961 . S
H1544 C1558 0.960 . S
H1545 C1558 0.961 . S
H1546 C1558 0.959 . S
H1547 C1561 0.934 . S
H1548 C1562 0.931 . S
H1549 C1564 0.930 . S
C1550 H1538 0.930 . S
C1550 C1551 1.399 . S
C1550 C1555 1.399 . S
C1551 C1550 1.399 . S
C1551 C1552 1.376 . S
C1552 H1539 0.930 . S
C1552 C1551 1.376 . S
C1552 C1553 1.388 . S
C1553 H1540 0.930 . S
C1553 C1552 1.388 . S
C1553 C1554 1.390 . S
C1554 C1553 1.390 . S
C1554 C1555 1.394 . S
C1554 C1560 1.465 1_565 S
C1555 C1550 1.399 . S
C1555 C1554 1.394 . S
C1555 C1556 1.516 1_565 S
C1556 C1555 1.516 1_545 S
C1556 C1557 1.502 . S
C1556 C1558 1.561 1_545 S
C1556 C1559 1.526 . S
C1557 H1541 0.959 . S
C1557 H1542 0.959 . S
C1557 H1543 0.961 . S
C1557 C1556 1.502 . S
C1558 H1544 0.960 . S
C1558 H1545 0.961 . S
C1558 H1546 0.959 . S
C1558 C1556 1.561 1_565 S
C1559 C1556 1.526 . S
C1559 C1560 1.396 . S
C1559 C1564 1.390 . S
C1560 C1554 1.465 1_545 S
C1560 C1559 1.396 . S
C1560 C1561 1.399 . S
C1561 H1547 0.934 . S
C1561 C1560 1.399 . S
C1561 C1562 1.385 . S
C1562 H1548 0.931 . S
C1562 C1561 1.385 . S
C1562 C1563 1.389 . S
C1563 C1562 1.389 . S
C1563 C1564 1.387 . S
C1564 H1549 0.930 . S
C1564 C1559 1.390 . S
C1564 C1563 1.387 . S
H1565 C1577 0.930 . S
H1566 C1579 0.930 . S
H1567 C1580 0.930 . S
H1568 C1584 0.959 . S
H1569 C1584 0.959 . S
H1570 C1584 0.961 1_545 S
H1571 C1585 0.960 . S
H1572 C1585 0.961 1_565 S
H1573 C1585 0.959 . S
H1574 C1588 0.929 . S
H1575 C1589 0.931 . S
H1576 C1591 0.930 . S
C1577 H1565 0.930 . S
C1577 C1578 1.399 . S
C1577 C1582 1.399 . S
C1578 C1577 1.399 . S
C1578 C1579 1.376 . S
C1579 H1566 0.930 . S
C1579 C1578 1.376 . S
C1579 C1580 1.388 . S
C1580 H1567 0.930 . S
C1580 C1579 1.388 . S
C1580 C1581 1.390 . S
C1581 C1580 1.390 . S
C1581 C1582 1.394 . S
C1581 C1587 1.465 1_445 S
C1582 C1577 1.399 . S
C1582 C1581 1.394 . S
C1582 C1583 1.516 1_445 S
C1583 C1582 1.516 1_665 S
C1583 C1584 1.499 1_655 S
C1583 C1585 1.564 1_565 S
C1583 C1586 1.526 . S
C1584 H1568 0.959 . S
C1584 H1569 0.959 . S
C1584 H1570 0.961 1_565 S
C1584 C1583 1.499 1_455 S
C1585 H1571 0.960 . S
C1585 H1572 0.961 1_545 S
C1585 H1573 0.959 . S
C1585 C1583 1.564 1_545 S
C1586 C1583 1.526 . S
C1586 C1587 1.396 . S
C1586 C1591 1.390 . S
C1587 C1581 1.465 1_665 S
C1587 C1586 1.396 . S
C1587 C1588 1.399 . S
C1588 H1574 0.929 . S
C1588 C1587 1.399 . S
C1588 C1589 1.385 . S
C1589 H1575 0.931 . S
C1589 C1588 1.385 . S
C1589 C1590 1.389 . S
C1590 C1589 1.389 . S
C1590 C1591 1.387 . S
C1591 H1576 0.930 . S
C1591 C1586 1.390 . S
C1591 C1590 1.387 . S
H1592 C1604 0.930 . S
H1593 C1606 0.930 . S
H1594 C1607 0.930 1_545 S
H1595 C1611 0.959 . S
H1596 C1611 0.959 . S
H1597 C1611 0.961 . S
H1598 C1612 0.960 . S
H1599 C1612 0.961 . S
H1600 C1612 0.959 . S
H1601 C1615 0.929 . S
H1602 C1616 0.931 . S
H1603 C1618 0.930 . S
C1604 H1592 0.930 . S
C1604 C1605 1.399 . S
C1604 C1609 1.399 . S
C1605 C1604 1.399 . S
C1605 C1606 1.376 . S
C1606 H1593 0.930 . S
C1606 C1605 1.376 . S
C1606 C1607 1.388 . S
C1607 H1594 0.930 1_565 S
C1607 C1606 1.388 . S
C1607 C1608 1.390 . S
C1608 C1607 1.390 . S
C1608 C1609 1.394 . S
C1608 C1614 1.465 1_565 S
C1609 C1604 1.399 . S
C1609 C1608 1.394 . S
C1609 C1610 1.516 . S
C1610 C1609 1.516 . S
C1610 C1611 1.502 . S
C1610 C1612 1.561 1_565 S
C1610 C1613 1.526 1_565 S
C1611 H1595 0.959 . S
C1611 H1596 0.959 . S
C1611 H1597 0.961 . S
C1611 C1610 1.502 . S
C1612 H1598 0.960 . S
C1612 H1599 0.961 . S
C1612 H1600 0.959 . S
C1612 C1610 1.561 1_545 S
C1613 C1610 1.526 1_545 S
C1613 C1614 1.396 . S
C1613 C1618 1.390 . S
C1614 C1608 1.465 1_545 S
C1614 C1613 1.396 . S
C1614 C1615 1.399 . S
C1615 H1601 0.929 . S
C1615 C1614 1.399 . S
C1615 C1616 1.385 . S
C1616 H1602 0.931 . S
C1616 C1615 1.385 . S
C1616 C1617 1.389 . S
C1617 C1616 1.389 . S
C1617 C1618 1.387 . S
C1618 H1603 0.930 . S
C1618 C1613 1.390 . S
C1618 C1617 1.387 . S
H1619 C1631 0.930 . S
H1620 C1633 0.930 . S
H1621 C1634 0.930 . S
H1622 C1638 0.959 . S
H1623 C1638 0.959 . S
H1624 C1638 0.961 . S
H1625 C1639 0.960 1_655 S
H1626 C1639 0.961 1_545 S
H1627 C1639 0.959 . S
H1628 C1642 0.929 . S
H1629 C1643 0.931 . S
H1630 C1645 0.930 . S
C1631 H1619 0.930 . S
C1631 C1632 1.399 . S
C1631 C1636 1.399 . S
C1632 C1631 1.399 . S
C1632 C1633 1.376 . S
C1633 H1620 0.930 . S
C1633 C1632 1.376 . S
C1633 C1634 1.388 1_655 S
C1634 H1621 0.930 . S
C1634 C1633 1.388 1_455 S
C1634 C1635 1.390 . S
C1635 C1634 1.390 . S
C1635 C1636 1.394 1_455 S
C1635 C1641 1.465 1_565 S
C1636 C1631 1.399 . S
C1636 C1635 1.394 1_655 S
C1636 C1637 1.516 1_565 S
C1637 C1636 1.516 1_545 S
C1637 C1638 1.502 . S
C1637 C1639 1.561 1_645 S
C1637 C1640 1.526 1_655 S
C1638 H1622 0.959 . S
C1638 H1623 0.959 . S
C1638 H1624 0.961 . S
C1638 C1637 1.502 . S
C1639 H1625 0.960 1_455 S
C1639 H1626 0.961 1_565 S
C1639 H1627 0.959 . S
C1639 C1637 1.561 1_465 S
C1640 C1637 1.526 1_455 S
C1640 C1641 1.396 . S
C1640 C1645 1.390 . S
C1641 C1635 1.465 1_545 S
C1641 C1640 1.396 . S
C1641 C1642 1.399 . S
C1642 H1628 0.929 . S
C1642 C1641 1.399 . S
C1642 C1643 1.385 . S
C1643 H1629 0.931 . S
C1643 C1642 1.385 . S
C1643 C1644 1.389 . S
C1644 C1643 1.389 . S
C1644 C1645 1.387 . S
C1645 H1630 0.930 . S
C1645 C1640 1.390 . S
C1645 C1644 1.387 . S
H1646 C1658 0.930 . S
H1647 C1660 0.930 . S
H1648 C1661 0.930 . S
H1649 C1665 0.959 . S
H1650 C1665 0.961 1_655 S
H1651 C1665 0.961 . S
H1652 C1666 0.960 1_455 S
H1653 C1666 0.961 . S
H1654 C1666 0.959 . S
H1655 C1669 0.929 . S
H1656 C1670 0.931 . S
H1657 C1672 0.930 . S
C1658 H1646 0.930 . S
C1658 C1659 1.399 . S
C1658 C1663 1.399 . S
C1659 C1658 1.399 . S
C1659 C1660 1.376 . S
C1660 H1647 0.930 . S
C1660 C1659 1.376 . S
C1660 C1661 1.388 . S
C1661 H1648 0.930 . S
C1661 C1660 1.388 . S
C1661 C1662 1.390 . S
C1662 C1661 1.390 . S
C1662 C1663 1.394 . S
C1662 C1668 1.465 1_455 S
C1663 C1658 1.399 . S
C1663 C1662 1.394 . S
C1663 C1664 1.516 . S
C1664 C1663 1.516 . S
C1664 C1665 1.502 . S
C1664 C1666 1.561 1_455 S
C1664 C1667 1.526 1_455 S
C1665 H1649 0.959 . S
C1665 H1650 0.961 1_455 S
C1665 H1651 0.961 . S
C1665 C1664 1.502 . S
C1666 H1652 0.960 1_655 S
C1666 H1653 0.961 . S
C1666 H1654 0.959 . S
C1666 C1664 1.561 1_655 S
C1667 C1664 1.526 1_655 S
C1667 C1668 1.396 . S
C1667 C1672 1.390 . S
C1668 C1662 1.465 1_655 S
C1668 C1667 1.396 . S
C1668 C1669 1.399 . S
C1669 H1655 0.929 . S
C1669 C1668 1.399 . S
C1669 C1670 1.385 . S
C1670 H1656 0.931 . S
C1670 C1669 1.385 . S
C1670 C1671 1.389 . S
C1671 C1670 1.389 . S
C1671 C1672 1.387 . S
C1672 H1657 0.930 . S
C1672 C1667 1.390 . S
C1672 C1671 1.387 . S
H1673 C1685 0.930 . S
H1674 C1687 0.930 . S
H1675 C1688 0.930 . S
H1676 C1692 0.959 . S
H1677 C1692 0.959 . S
H1678 C1692 0.961 . S
H1679 C1693 0.960 . S
H1680 C1693 0.961 . S
H1681 C1693 0.959 . S
H1682 C1696 0.929 . S
H1683 C1697 0.931 . S
H1684 C1699 0.930 . S
C1685 H1673 0.930 . S
C1685 C1686 1.399 . S
C1685 C1690 1.399 . S
C1686 C1685 1.399 . S
C1686 C1687 1.376 . S
C1687 H1674 0.930 . S
C1687 C1686 1.376 . S
C1687 C1688 1.388 . S
C1688 H1675 0.930 . S
C1688 C1687 1.388 . S
C1688 C1689 1.390 . S
C1689 C1688 1.390 . S
C1689 C1690 1.394 . S
C1689 C1695 1.465 . S
C1690 C1685 1.399 . S
C1690 C1689 1.394 . S
C1690 C1691 1.516 . S
C1691 C1690 1.516 . S
C1691 C1692 1.502 . S
C1691 C1693 1.561 . S
C1691 C1694 1.526 . S
C1692 H1676 0.959 . S
C1692 H1677 0.959 . S
C1692 H1678 0.961 . S
C1692 C1691 1.502 . S
C1693 H1679 0.960 . S
C1693 H1680 0.961 . S
C1693 H1681 0.959 . S
C1693 C1691 1.561 . S
C1694 C1691 1.526 . S
C1694 C1695 1.396 . S
C1694 C1699 1.390 . S
C1695 C1689 1.465 . S
C1695 C1694 1.396 . S
C1695 C1696 1.399 . S
C1696 H1682 0.929 . S
C1696 C1695 1.399 . S
C1696 C1697 1.385 . S
C1697 H1683 0.931 . S
C1697 C1696 1.385 . S
C1697 C1698 1.389 . S
C1698 C1697 1.389 . S
C1698 C1699 1.387 . S
C1699 H1684 0.930 . S
C1699 C1694 1.390 . S
C1699 C1698 1.387 . S
H1700 C1712 0.930 . S
H1701 C1714 0.930 . S
H1702 C1715 0.930 . S
H1703 C1719 0.959 . S
H1704 C1719 0.959 . S
H1705 C1719 0.961 . S
H1706 C1720 0.960 . S
H1707 C1720 0.961 . S
H1708 C1720 0.959 . S
H1709 C1723 0.929 . S
H1710 C1724 0.931 . S
H1711 C1726 0.930 . S
C1712 H1700 0.930 . S
C1712 C1713 1.399 . S
C1712 C1717 1.399 . S
C1713 C1712 1.399 . S
C1713 C1714 1.376 . S
C1714 H1701 0.930 . S
C1714 C1713 1.376 . S
C1714 C1715 1.388 . S
C1715 H1702 0.930 . S
C1715 C1714 1.388 . S
C1715 C1716 1.390 . S
C1716 C1715 1.390 . S
C1716 C1717 1.394 . S
C1716 C1722 1.465 . S
C1717 C1712 1.399 . S
C1717 C1716 1.394 . S
C1717 C1718 1.516 . S
C1718 C1717 1.516 . S
C1718 C1719 1.502 . S
C1718 C1720 1.561 . S
C1718 C1721 1.526 . S
C1719 H1703 0.959 . S
C1719 H1704 0.959 . S
C1719 H1705 0.961 . S
C1719 C1718 1.502 . S
C1720 H1706 0.960 . S
C1720 H1707 0.961 . S
C1720 H1708 0.959 . S
C1720 C1718 1.561 . S
C1721 C1718 1.526 . S
C1721 C1722 1.396 . S
C1721 C1726 1.390 . S
C1722 C1716 1.465 . S
C1722 C1721 1.396 . S
C1722 C1723 1.399 . S
C1723 H1709 0.929 . S
C1723 C1722 1.399 . S
C1723 C1724 1.385 . S
C1724 H1710 0.931 . S
C1724 C1723 1.385 . S
C1724 C1725 1.389 . S
C1725 C1724 1.389 . S
C1725 C1726 1.387 . S
C1726 H1711 0.930 . S
C1726 C1721 1.390 . S
C1726 C1725 1.387 . S
H1727 C1739 0.930 . S
H1728 C1741 0.930 . S
H1729 C1742 0.930 . S
H1730 C1746 0.959 . S
H1731 C1746 0.959 . S
H1732 C1746 0.961 . S
H1733 C1747 0.960 . S
H1734 C1747 0.961 1_565 S
H1735 C1747 0.959 . S
H1736 C1750 0.929 . S
H1737 C1751 0.931 . S
H1738 C1753 0.930 . S
C1739 H1727 0.930 . S
C1739 C1740 1.399 . S
C1739 C1744 1.399 . S
C1740 C1739 1.399 . S
C1740 C1741 1.376 . S
C1741 H1728 0.930 . S
C1741 C1740 1.376 . S
C1741 C1742 1.388 . S
C1742 H1729 0.930 . S
C1742 C1741 1.388 . S
C1742 C1743 1.390 . S
C1743 C1742 1.390 . S
C1743 C1744 1.394 . S
C1743 C1749 1.465 1_545 S
C1744 C1739 1.399 . S
C1744 C1743 1.394 . S
C1744 C1745 1.516 1_545 S
C1745 C1744 1.516 1_565 S
C1745 C1746 1.502 . S
C1745 C1747 1.561 1_565 S
C1745 C1748 1.526 . S
C1746 H1730 0.959 . S
C1746 H1731 0.959 . S
C1746 H1732 0.961 . S
C1746 C1745 1.502 . S
C1747 H1733 0.960 . S
C1747 H1734 0.961 1_545 S
C1747 H1735 0.959 . S
C1747 C1745 1.561 1_545 S
C1748 C1745 1.526 . S
C1748 C1749 1.396 . S
C1748 C1753 1.390 . S
C1749 C1743 1.465 1_565 S
C1749 C1748 1.396 . S
C1749 C1750 1.399 . S
C1750 H1736 0.929 . S
C1750 C1749 1.399 . S
C1750 C1751 1.385 . S
C1751 H1737 0.931 . S
C1751 C1750 1.385 . S
C1751 C1752 1.389 . S
C1752 C1751 1.389 . S
C1752 C1753 1.387 . S
C1753 H1738 0.930 . S
C1753 C1748 1.390 . S
C1753 C1752 1.387 . S
H1754 C1766 0.930 . S
H1755 C1768 0.930 . S
H1756 C1769 0.930 . S
H1757 C1773 0.959 . S
H1758 C1773 0.959 . S
H1759 C1773 0.961 . S
H1760 C1774 0.960 1_655 S
H1761 C1774 0.961 1_545 S
H1762 C1774 0.959 . S
H1763 C1777 0.929 . S
H1764 C1778 0.931 . S
H1765 C1780 0.930 . S
C1766 H1754 0.930 . S
C1766 C1767 1.399 . S
C1766 C1771 1.399 . S
C1767 C1766 1.399 . S
C1767 C1768 1.376 . S
C1768 H1755 0.930 . S
C1768 C1767 1.376 . S
C1768 C1769 1.388 . S
C1769 H1756 0.930 . S
C1769 C1768 1.388 . S
C1769 C1770 1.390 . S
C1770 C1769 1.390 . S
C1770 C1771 1.394 . S
C1770 C1776 1.465 1_655 S
C1771 C1766 1.399 . S
C1771 C1770 1.394 . S
C1771 C1772 1.516 1_565 S
C1772 C1771 1.516 1_545 S
C1772 C1773 1.502 . S
C1772 C1774 1.561 1_645 S
C1772 C1775 1.526 1_655 S
C1773 H1757 0.959 . S
C1773 H1758 0.959 . S
C1773 H1759 0.961 . S
C1773 C1772 1.502 . S
C1774 H1760 0.960 1_455 S
C1774 H1761 0.961 1_565 S
C1774 H1762 0.959 . S
C1774 C1772 1.561 1_465 S
C1775 C1772 1.526 1_455 S
C1775 C1776 1.396 1_545 S
C1775 C1780 1.390 . S
C1776 C1770 1.465 1_455 S
C1776 C1775 1.396 1_565 S
C1776 C1777 1.399 . S
C1777 H1763 0.929 . S
C1777 C1776 1.399 . S
C1777 C1778 1.385 1_565 S
C1778 H1764 0.931 . S
C1778 C1777 1.385 1_545 S
C1778 C1779 1.389 . S
C1779 C1778 1.389 . S
C1779 C1780 1.387 . S
C1780 H1765 0.930 . S
C1780 C1775 1.390 . S
C1780 C1779 1.387 . S
H1781 C1793 0.930 . S
H1782 C1795 0.930 . S
H1783 C1796 0.930 . S
H1784 C1800 0.959 . S
H1785 C1800 0.959 . S
H1786 C1800 0.961 . S
H1787 C1801 0.960 . S
H1788 C1801 0.961 . S
H1789 C1801 0.959 . S
H1790 C1804 0.929 . S
H1791 C1805 0.931 . S
H1792 C1807 0.930 . S
C1793 H1781 0.930 . S
C1793 C1794 1.399 . S
C1793 C1798 1.399 . S
C1794 C1793 1.399 . S
C1794 C1795 1.376 . S
C1795 H1782 0.930 . S
C1795 C1794 1.376 . S
C1795 C1796 1.388 . S
C1796 H1783 0.930 . S
C1796 C1795 1.388 . S
C1796 C1797 1.390 . S
C1797 C1796 1.390 . S
C1797 C1798 1.394 . S
C1797 C1803 1.465 1_655 S
C1798 C1793 1.399 . S
C1798 C1797 1.394 . S
C1798 C1799 1.516 . S
C1799 C1798 1.516 . S
C1799 C1800 1.502 1_655 S
C1799 C1801 1.561 . S
C1799 C1802 1.526 1_655 S
C1800 H1784 0.959 . S
C1800 H1785 0.959 . S
C1800 H1786 0.961 . S
C1800 C1799 1.502 1_455 S
C1801 H1787 0.960 . S
C1801 H1788 0.961 . S
C1801 H1789 0.959 . S
C1801 C1799 1.561 . S
C1802 C1799 1.526 1_455 S
C1802 C1803 1.396 . S
C1802 C1807 1.390 . S
C1803 C1797 1.465 1_455 S
C1803 C1802 1.396 . S
C1803 C1804 1.399 . S
C1804 H1790 0.929 . S
C1804 C1803 1.399 . S
C1804 C1805 1.385 . S
C1805 H1791 0.931 . S
C1805 C1804 1.385 . S
C1805 C1806 1.389 . S
C1806 C1805 1.389 . S
C1806 C1807 1.387 . S
C1807 H1792 0.930 . S
C1807 C1802 1.390 . S
C1807 C1806 1.387 . S
C957 C239 1.549 . S
C969 C3 1.544 . S
C984 C62 1.525 . S
C996 C298 1.522 . S
C1011 C357 1.551 . S
C1023 C121 1.550 . S
C1038 C416 1.530 . S
C1050 C180 1.525 . S
C1065 C711 1.546 . S
C1077 C475 1.540 . S
C1092 C534 1.525 . S
C1104 C770 1.522 . S
C1119 C829 1.549 . S
C1131 C593 1.545 . S
C1146 C652 1.549 . S
C1158 C888 1.551 . S
C1173 C33 1.558 . S
C1185 C918 1.568 . S
C1200 C92 1.566 . S
C1212 C741 1.563 . S
C1227 C151 1.553 . S
C1239 C800 1.568 . S
C1254 C859 1.567 . S
C1266 C210 1.551 . S
C1281 C269 1.568 . S
C1293 C564 1.552 . S
C1308 C328 1.554 . S
C1320 C623 1.554 . S
C1335 C682 1.566 . S
C1347 C387 1.563 . S
C1362 C505 1.550 . S
C1374 C446 1.564 . S
C1389 C5 1.629 . S
C1401 C595 1.641 . S
C1416 C654 1.630 . S
C1428 C64 1.639 . S
C1443 C123 1.630 . S
C1455 C477 1.639 . S
C1470 C536 1.643 . S
C1482 C182 1.634 . S
C1497 C241 1.630 . S
C1509 C831 1.640 . S
C1524 C300 1.645 . S
C1536 C890 1.628 . S
C1551 C713 1.643 . S
C1563 C359 1.635 . S
C1578 C772 1.631 . S
C1590 C418 1.638 . S
C1605 C642 1.444 . S
C1617 C52 1.456 . S
C1632 C111 1.442 . S
C1644 C701 1.459 . S
C1659 C170 1.465 . S
C1671 C524 1.455 . S
C1686 C583 1.443 . S
C1698 C229 1.459 . S
C1713 C878 1.443 . S
C1725 C288 1.459 . S
C1740 C937 1.444 . S
C1752 C347 1.458 . S
C1767 C760 1.466 . S
C1779 C406 1.450 . S
C1794 C465 1.463 . S
C1806 C819 1.457 . S
