# Generated by pormake.
# Topology vbx, (6)-cn, num edge types: 1
# Building blocks:
#     Node 0, Type 0, BuildingBlock: IZENUY_clean_sbu_0, # of connection points: 6
#     Node 1, Type 0, BuildingBlock: IZENUY_clean_sbu_0, # of connection points: 6
#     Node 2, Type 0, BuildingBlock: IZENUY_clean_sbu_0, # of connection points: 6
#     Node 3, Type 0, BuildingBlock: IZENUY_clean_sbu_0, # of connection points: 6
#     Node 4, Type 0, BuildingBlock: IZENUY_clean_sbu_0, # of connection points: 6
#     Node 5, Type 0, BuildingBlock: IZENUY_clean_sbu_0, # of connection points: 6
#     Node 6, Type 0, BuildingBlock: IZENUY_clean_sbu_0, # of connection points: 6
#     Node 7, Type 0, BuildingBlock: IZENUY_clean_sbu_0, # of connection points: 6
#     Node 8, Type 0, BuildingBlock: IZENUY_clean_sbu_0, # of connection points: 6
#     Node 9, Type 0, BuildingBlock: IZENUY_clean_sbu_0, # of connection points: 6
#     Node 10, Type 0, BuildingBlock: IZENUY_clean_sbu_0, # of connection points: 6
#     Node 11, Type 0, BuildingBlock: IZENUY_clean_sbu_0, # of connection points: 6
#     Node 12, Type 0, BuildingBlock: IZENUY_clean_sbu_0, # of connection points: 6
#     Node 13, Type 0, BuildingBlock: IZENUY_clean_sbu_0, # of connection points: 6
#     Node 14, Type 0, BuildingBlock: IZENUY_clean_sbu_0, # of connection points: 6
#     Node 15, Type 0, BuildingBlock: IZENUY_clean_sbu_0, # of connection points: 6
#     Edge 16, Type (0, 0), None
#     Edge 17, Type (0, 0), None
#     Edge 18, Type (0, 0), None
#     Edge 19, Type (0, 0), None
#     Edge 20, Type (0, 0), None
#     Edge 21, Type (0, 0), None
#     Edge 22, Type (0, 0), None
#     Edge 23, Type (0, 0), None
#     Edge 24, Type (0, 0), None
#     Edge 25, Type (0, 0), None
#     Edge 26, Type (0, 0), None
#     Edge 27, Type (0, 0), None
#     Edge 28, Type (0, 0), None
#     Edge 29, Type (0, 0), None
#     Edge 30, Type (0, 0), None
#     Edge 31, Type (0, 0), None
#     Edge 32, Type (0, 0), None
#     Edge 33, Type (0, 0), None
#     Edge 34, Type (0, 0), None
#     Edge 35, Type (0, 0), None
#     Edge 36, Type (0, 0), None
#     Edge 37, Type (0, 0), None
#     Edge 38, Type (0, 0), None
#     Edge 39, Type (0, 0), None
#     Edge 40, Type (0, 0), None
#     Edge 41, Type (0, 0), None
#     Edge 42, Type (0, 0), None
#     Edge 43, Type (0, 0), None
#     Edge 44, Type (0, 0), None
#     Edge 45, Type (0, 0), None
#     Edge 46, Type (0, 0), None
#     Edge 47, Type (0, 0), None
#     Edge 48, Type (0, 0), None
#     Edge 49, Type (0, 0), None
#     Edge 50, Type (0, 0), None
#     Edge 51, Type (0, 0), None
#     Edge 52, Type (0, 0), None
#     Edge 53, Type (0, 0), None
#     Edge 54, Type (0, 0), None
#     Edge 55, Type (0, 0), None
#     Edge 56, Type (0, 0), None
#     Edge 57, Type (0, 0), None
#     Edge 58, Type (0, 0), None
#     Edge 59, Type (0, 0), None
#     Edge 60, Type (0, 0), None
#     Edge 61, Type (0, 0), None
#     Edge 62, Type (0, 0), None
#     Edge 63, Type (0, 0), None
# Relax obj value: 0.241
# Max RMSD: 0.244
# Mean RMSD: 0.243
data_MOF--net-vbx--node1-IZENUY_clean_sbu_0--edge1-none
_symmetry_space_group_name_H-M    P1
_symmetry_Int_Tables_number       1
_symmetry_cell_setting            triclinic
loop_
_symmetry_equiv_pos_as_xyz
'x, y, z'
_cell_length_a     22.032768
_cell_length_b     12.64067
_cell_length_c     25.659462
_cell_angle_alpha  90.0
_cell_angle_beta   90.0
_cell_angle_gamma 90.000047
loop_
_atom_site_label
_atom_site_type_symbol
_atom_site_fract_x
_atom_site_fract_y
_atom_site_fract_z
_atom_type_partial_charge
Fe0 Fe 0.38993 0.53118 0.15952 0.0
Fe1 Fe 0.40112 0.32506 0.09728 0.0
O2 O 0.3577 0.41095 0.13865 0.0
Fe3 Fe 0.28379 0.37673 0.15933 0.0
O4 O 0.24827 0.49894 0.13626 0.0
O5 O 0.31807 0.60283 0.16844 0.0
O6 O 0.3922 0.5772 0.09203 0.0
C7 C 0.41899 0.52767 0.05565 0.0
C8 C 0.34176 0.45652 0.25044 0.0
O9 O 0.43979 0.43519 0.06339 0.0
C10 C 0.3283 0.17952 0.15593 0.0
O11 O 0.46777 0.48316 0.15611 0.0
O12 O 0.46173 0.31144 0.14551 0.0
O13 O 0.294 0.4293 0.22596 0.0
O14 O 0.38858 0.48886 0.22681 0.0
C15 C 0.29122 0.31634 0.05194 0.0
O16 O 0.36538 0.19855 0.11932 0.0
O17 O 0.31176 0.25376 0.18487 0.0
C18 C 0.49169 0.39221 0.15915 0.0
O19 O 0.34658 0.33451 0.04689 0.0
O20 O 0.26408 0.31845 0.09575 0.0
C21 C 0.26431 0.58834 0.15273 0.0
Fe22 Fe 0.66037 0.56868 0.65952 0.0
Fe23 Fe 0.64918 0.7748 0.59728 0.0
O24 O 0.6926 0.68891 0.63865 0.0
Fe25 Fe 0.76651 0.72313 0.65933 0.0
O26 O 0.80203 0.60092 0.63626 0.0
O27 O 0.73223 0.49703 0.66844 0.0
O28 O 0.6581 0.52266 0.59203 0.0
C29 C 0.63131 0.57219 0.55565 0.0
C30 C 0.70854 0.64334 0.75044 0.0
O31 O 0.61051 0.66467 0.56339 0.0
C32 C 0.722 0.92035 0.65593 0.0
O33 O 0.58253 0.6167 0.65611 0.0
O34 O 0.58857 0.78843 0.64551 0.0
O35 O 0.7563 0.67056 0.72596 0.0
O36 O 0.66171 0.611 0.72681 0.0
C37 C 0.75908 0.78352 0.55194 0.0
O38 O 0.68492 0.90131 0.61932 0.0
O39 O 0.73854 0.8461 0.68487 0.0
C40 C 0.55861 0.70766 0.65915 0.0
O41 O 0.70372 0.76535 0.54689 0.0
O42 O 0.78622 0.78142 0.59575 0.0
C43 C 0.78599 0.51152 0.65273 0.0
Fe44 Fe 0.28379 0.72313 0.89872 0.0
Fe45 Fe 0.38993 0.56868 0.89853 0.0
O46 O 0.3577 0.68891 0.9194 0.0
Fe47 Fe 0.40112 0.7748 0.96077 0.0
O48 O 0.34658 0.76535 1.01116 0.0
O49 O 0.26408 0.78142 0.9623 0.0
O50 O 0.24827 0.60092 0.92179 0.0
C51 C 0.26431 0.51153 0.90532 0.0
C52 C 0.3283 0.92035 0.90212 0.0
O53 O 0.31807 0.49703 0.88961 0.0
C54 C 0.49169 0.70766 0.8989 0.0
O55 O 0.294 0.67056 0.83209 0.0
O56 O 0.38858 0.611 0.83124 0.0
O57 O 0.36538 0.90131 0.93873 0.0
O58 O 0.31176 0.8461 0.87318 0.0
C59 C 0.41899 0.57219 1.0024 0.0
O60 O 0.46777 0.6167 0.90194 0.0
O61 O 0.46173 0.78843 0.91254 0.0
C62 C 0.34176 0.64334 0.80761 0.0
O63 O 0.3922 0.52266 0.96602 0.0
O64 O 0.43979 0.66467 0.99466 0.0
C65 C 0.29122 0.78352 1.00611 0.0
Fe66 Fe 0.66037 0.53118 0.39853 0.0
Fe67 Fe 0.64918 0.32506 0.46077 0.0
O68 O 0.6926 0.41095 0.4194 0.0
Fe69 Fe 0.76651 0.37673 0.39872 0.0
O70 O 0.80203 0.49894 0.42179 0.0
O71 O 0.73223 0.60283 0.38961 0.0
O72 O 0.6581 0.57721 0.46602 0.0
C73 C 0.63131 0.52767 0.5024 0.0
C74 C 0.70854 0.45652 0.30761 0.0
O75 O 0.61051 0.43519 0.49466 0.0
C76 C 0.722 0.17952 0.40212 0.0
O77 O 0.58253 0.48316 0.40194 0.0
O78 O 0.58857 0.31144 0.41254 0.0
O79 O 0.7563 0.4293 0.33209 0.0
O80 O 0.66171 0.48886 0.33124 0.0
C81 C 0.75908 0.31634 0.50611 0.0
O82 O 0.68492 0.19855 0.43873 0.0
O83 O 0.73854 0.25376 0.37318 0.0
C84 C 0.55861 0.39221 0.3989 0.0
O85 O 0.70372 0.33451 0.51116 0.0
O86 O 0.78622 0.31845 0.4623 0.0
C87 C 0.78599 0.58834 0.40532 0.0
Fe88 Fe 0.64916 0.7748 0.96078 0.0
Fe89 Fe 0.66036 0.56867 0.89853 0.0
O90 O 0.69258 0.68891 0.9194 0.0
Fe91 Fe 0.7665 0.72313 0.89873 0.0
O92 O 0.78621 0.78142 0.96231 0.0
O93 O 0.7037 0.76535 1.01116 0.0
O94 O 0.61049 0.66467 0.99466 0.0
C95 C 0.6313 0.57219 1.0024 0.0
C96 C 0.72197 0.92036 0.90212 0.0
O97 O 0.65809 0.52265 0.96602 0.0
C98 C 0.70854 0.64335 0.80762 0.0
O99 O 0.58854 0.78842 0.91255 0.0
O100 O 0.58252 0.61667 0.90193 0.0
O101 O 0.73854 0.84611 0.87319 0.0
O102 O 0.6849 0.9013 0.93873 0.0
C103 C 0.78597 0.51152 0.90533 0.0
O104 O 0.66171 0.61099 0.83124 0.0
O105 O 0.7563 0.67057 0.8321 0.0
C106 C 0.55861 0.70763 0.89891 0.0
O107 O 0.73222 0.49703 0.88961 0.0
O108 O 0.80201 0.60092 0.9218 0.0
C109 C 0.75906 0.78353 1.00612 0.0
Fe110 Fe 0.40114 0.32506 0.46078 0.0
Fe111 Fe 0.38994 0.53119 0.39853 0.0
O112 O 0.35772 0.41095 0.4194 0.0
Fe113 Fe 0.2838 0.37673 0.39873 0.0
O114 O 0.26409 0.31844 0.46231 0.0
O115 O 0.3466 0.33451 0.51116 0.0
O116 O 0.43981 0.4352 0.49466 0.0
C117 C 0.419 0.52767 0.5024 0.0
C118 C 0.32833 0.1795 0.40212 0.0
O119 O 0.39221 0.57721 0.46602 0.0
C120 C 0.34176 0.45652 0.30762 0.0
O121 O 0.46176 0.31144 0.41255 0.0
O122 O 0.46778 0.48319 0.40193 0.0
O123 O 0.31176 0.25375 0.37319 0.0
O124 O 0.3654 0.19856 0.43873 0.0
C125 C 0.26433 0.58834 0.40533 0.0
O126 O 0.38859 0.48887 0.33124 0.0
O127 O 0.294 0.4293 0.3321 0.0
C128 C 0.49169 0.39223 0.39891 0.0
O129 O 0.31808 0.60283 0.38961 0.0
O130 O 0.24829 0.49894 0.4218 0.0
C131 C 0.29124 0.31633 0.50612 0.0
Fe132 Fe 0.66036 0.53119 0.15952 0.0
Fe133 Fe 0.7665 0.37673 0.15932 0.0
O134 O 0.69258 0.41095 0.13865 0.0
Fe135 Fe 0.64916 0.32506 0.09727 0.0
O136 O 0.61049 0.4352 0.06339 0.0
O137 O 0.65809 0.57721 0.09204 0.0
O138 O 0.73222 0.60283 0.16844 0.0
C139 C 0.78597 0.58834 0.15272 0.0
C140 C 0.5586 0.39223 0.15914 0.0
O141 O 0.80201 0.49894 0.13625 0.0
C142 C 0.72197 0.1795 0.15593 0.0
O143 O 0.66171 0.48887 0.22681 0.0
O144 O 0.7563 0.4293 0.22595 0.0
O145 O 0.58854 0.31144 0.1455 0.0
O146 O 0.58252 0.48319 0.15612 0.0
C147 C 0.75906 0.31633 0.05193 0.0
O148 O 0.73854 0.25375 0.18486 0.0
O149 O 0.6849 0.19856 0.11932 0.0
C150 C 0.70854 0.45651 0.25043 0.0
O151 O 0.78621 0.31844 0.09574 0.0
O152 O 0.7037 0.33451 0.04689 0.0
C153 C 0.6313 0.52768 0.05565 0.0
Fe154 Fe 0.2838 0.72313 0.65932 0.0
Fe155 Fe 0.40114 0.7748 0.59727 0.0
O156 O 0.35772 0.68891 0.63865 0.0
Fe157 Fe 0.38994 0.56867 0.65952 0.0
O158 O 0.31808 0.49703 0.66844 0.0
O159 O 0.24829 0.60092 0.63625 0.0
O160 O 0.26409 0.78142 0.59574 0.0
C161 C 0.29124 0.78353 0.55193 0.0
C162 C 0.34176 0.64335 0.75043 0.0
O163 O 0.3466 0.76535 0.54689 0.0
C164 C 0.49169 0.70763 0.65914 0.0
O165 O 0.31176 0.84611 0.68486 0.0
O166 O 0.3654 0.9013 0.61932 0.0
O167 O 0.38859 0.61099 0.72681 0.0
O168 O 0.294 0.67057 0.72595 0.0
C169 C 0.419 0.57218 0.55565 0.0
O170 O 0.46176 0.78842 0.6455 0.0
O171 O 0.46778 0.61667 0.65612 0.0
C172 C 0.32833 0.92036 0.65593 0.0
O173 O 0.43981 0.66467 0.56339 0.0
O174 O 0.39221 0.52265 0.59204 0.0
C175 C 0.26433 0.51152 0.65272 0.0
Fe176 Fe 0.88993 1.03116 0.15952 0.0
Fe177 Fe 0.90111 0.82505 0.09727 0.0
O178 O 0.8577 0.91093 0.13865 0.0
Fe179 Fe 0.78379 0.87672 0.15933 0.0
O180 O 0.74828 0.99893 0.13626 0.0
O181 O 0.81807 0.10282 0.16845 0.0
O182 O 0.8922 0.07719 0.09204 0.0
C183 C 0.91898 1.02766 0.05565 0.0
C184 C 0.84176 0.9565 0.25044 0.0
O185 O 0.93978 0.93518 0.06338 0.0
C186 C 0.82832 0.67952 0.15594 0.0
O187 O 0.96777 0.98313 0.15611 0.0
O188 O 0.96173 0.81141 0.14549 0.0
O189 O 0.794 0.92929 0.22596 0.0
O190 O 0.88859 0.98883 0.22681 0.0
C191 C 0.7912 0.81636 0.05194 0.0
O192 O 0.86537 0.69854 0.11931 0.0
O193 O 0.81174 0.75374 0.18488 0.0
C194 C 0.99169 0.89217 0.15914 0.0
O195 O 0.84657 0.83451 0.04689 0.0
O196 O 0.76407 0.81843 0.09575 0.0
C197 C 0.76432 0.08833 0.15273 0.0
Fe198 Fe 0.16037 0.06871 0.65952 0.0
Fe199 Fe 0.14919 0.27482 0.59727 0.0
O200 O 0.1926 0.18893 0.63865 0.0
Fe201 Fe 0.26651 0.22314 0.65933 0.0
O202 O 0.30202 0.10093 0.63626 0.0
O203 O 0.23223 0.99705 0.66845 0.0
O204 O 0.1581 1.02267 0.59204 0.0
C205 C 0.13132 0.0722 0.55565 0.0
C206 C 0.20854 0.14336 0.75044 0.0
O207 O 0.11051 0.16469 0.56338 0.0
C208 C 0.22198 0.42034 0.65594 0.0
O209 O 0.08253 0.11673 0.65611 0.0
O210 O 0.08857 0.28846 0.64549 0.0
O211 O 0.2563 0.17057 0.72596 0.0
O212 O 0.16171 0.11103 0.72681 0.0
C213 C 0.2591 0.2835 0.55194 0.0
O214 O 0.18493 0.40133 0.61931 0.0
O215 O 0.23856 0.34612 0.68488 0.0
C216 C 0.05861 0.20769 0.65914 0.0
O217 O 0.20373 0.26535 0.54689 0.0
O218 O 0.28623 0.28143 0.59575 0.0
C219 C 0.28598 1.01154 0.65273 0.0
Fe220 Fe 0.90111 0.27482 0.96078 0.0
Fe221 Fe 0.78379 0.22314 0.89872 0.0
O222 O 0.8577 0.18893 0.9194 0.0
Fe223 Fe 0.88993 0.06871 0.89853 0.0
O224 O 0.8922 1.02267 0.96601 0.0
O225 O 0.93978 0.16469 0.99467 0.0
O226 O 0.84657 0.26535 1.01116 0.0
C227 C 0.7912 0.2835 1.00611 0.0
C228 C 0.99169 0.20769 0.89892 0.0
O229 O 0.76407 0.28143 0.9623 0.0
C230 C 0.84176 0.14337 0.80761 0.0
O231 O 0.86537 0.40133 0.93874 0.0
O232 O 0.81174 0.34612 0.87317 0.0
O233 O 0.96777 0.11673 0.90194 0.0
O234 O 0.96173 0.28846 0.91256 0.0
C235 C 0.76432 1.01154 0.90532 0.0
O236 O 0.79399 0.17057 0.83209 0.0
O237 O 0.88859 0.11104 0.83124 0.0
C238 C 0.82832 0.42034 0.90211 0.0
O239 O 0.74828 0.10093 0.92179 0.0
O240 O 0.81807 0.99705 0.8896 0.0
C241 C 0.91898 0.0722 1.0024 0.0
Fe242 Fe 0.16037 1.03115 0.39853 0.0
Fe243 Fe 0.14919 0.82505 0.46078 0.0
O244 O 0.1926 0.91093 0.4194 0.0
Fe245 Fe 0.26651 0.87672 0.39872 0.0
O246 O 0.30202 0.99893 0.42179 0.0
O247 O 0.23223 0.10282 0.3896 0.0
O248 O 0.1581 0.07719 0.46601 0.0
C249 C 0.13132 1.02767 0.5024 0.0
C250 C 0.20854 0.9565 0.30761 0.0
O251 O 0.11052 0.93518 0.49467 0.0
C252 C 0.22198 0.67952 0.40211 0.0
O253 O 0.08253 0.98313 0.40194 0.0
O254 O 0.08857 0.81141 0.41256 0.0
O255 O 0.2563 0.92929 0.33209 0.0
O256 O 0.16171 0.98882 0.33124 0.0
C257 C 0.2591 0.81636 0.50611 0.0
O258 O 0.18493 0.69854 0.43874 0.0
O259 O 0.23856 0.75374 0.37317 0.0
C260 C 0.05861 0.89217 0.39892 0.0
O261 O 0.20373 0.83451 0.51116 0.0
O262 O 0.28623 0.81843 0.4623 0.0
C263 C 0.28598 0.08833 0.40532 0.0
Fe264 Fe 0.14917 0.27481 0.96078 0.0
Fe265 Fe 0.16036 0.0687 0.89853 0.0
O266 O 0.19259 0.18893 0.9194 0.0
Fe267 Fe 0.2665 0.22314 0.89873 0.0
O268 O 0.28621 0.28143 0.96231 0.0
O269 O 0.20372 0.26535 1.01116 0.0
O270 O 0.1105 0.16468 0.99467 0.0
C271 C 0.13131 0.0722 1.0024 0.0
C272 C 0.22196 0.42035 0.90211 0.0
O273 O 0.15809 1.02266 0.96601 0.0
C274 C 0.20854 0.14337 0.80762 0.0
O275 O 0.08854 0.28845 0.91256 0.0
O276 O 0.08252 0.1167 0.90193 0.0
O277 O 0.23856 0.34613 0.87318 0.0
O278 O 0.18491 0.40132 0.93874 0.0
C279 C 0.28597 1.01153 0.90533 0.0
O280 O 0.16171 0.11103 0.83124 0.0
O281 O 0.2563 0.17057 0.8321 0.0
C282 C 0.05861 0.20766 0.89892 0.0
O283 O 0.23222 0.99705 0.8896 0.0
O284 O 0.30201 0.10093 0.9218 0.0
C285 C 0.25908 0.28351 1.00612 0.0
Fe286 Fe 0.90113 0.82505 0.46078 0.0
Fe287 Fe 0.88994 1.03116 0.39853 0.0
O288 O 0.85771 0.91093 0.4194 0.0
Fe289 Fe 0.7838 0.87672 0.39873 0.0
O290 O 0.76409 0.81843 0.46231 0.0
O291 O 0.84658 0.83451 0.51116 0.0
O292 O 0.9398 0.93518 0.49467 0.0
C293 C 0.91899 1.02767 0.5024 0.0
C294 C 0.82834 0.67951 0.40211 0.0
O295 O 0.89221 0.0772 0.46601 0.0
C296 C 0.84176 0.95649 0.30762 0.0
O297 O 0.96176 0.81141 0.41256 0.0
O298 O 0.96778 0.98316 0.40193 0.0
O299 O 0.81174 0.75373 0.37318 0.0
O300 O 0.86539 0.69854 0.43874 0.0
C301 C 0.76433 0.08833 0.40533 0.0
O302 O 0.88859 0.98884 0.33124 0.0
O303 O 0.794 0.92929 0.3321 0.0
C304 C 0.99169 0.8922 0.39892 0.0
O305 O 0.81808 0.10281 0.3896 0.0
O306 O 0.74829 0.99894 0.4218 0.0
C307 C 0.79122 0.81635 0.50612 0.0
Fe308 Fe 0.2665 0.87672 0.15932 0.0
Fe309 Fe 0.14917 0.82505 0.09727 0.0
O310 O 0.19259 0.91093 0.13865 0.0
Fe311 Fe 0.16036 1.03116 0.15952 0.0
O312 O 0.23222 0.10281 0.16845 0.0
O313 O 0.30201 0.99894 0.13625 0.0
O314 O 0.28621 0.81843 0.09574 0.0
C315 C 0.25908 0.81635 0.05193 0.0
C316 C 0.20854 0.95649 0.25043 0.0
O317 O 0.20372 0.83451 0.04689 0.0
C318 C 0.0586 0.8922 0.15913 0.0
O319 O 0.23856 0.75373 0.18487 0.0
O320 O 0.18491 0.69855 0.11931 0.0
O321 O 0.1617 0.98883 0.22681 0.0
O322 O 0.2563 0.92929 0.22595 0.0
C323 C 0.1313 1.02767 0.05565 0.0
O324 O 0.08854 0.81141 0.14549 0.0
O325 O 0.08252 0.98316 0.15612 0.0
C326 C 0.22196 0.67951 0.15594 0.0
O327 O 0.1105 0.93518 0.06338 0.0
O328 O 0.15809 0.0772 0.09204 0.0
C329 C 0.28597 0.08833 0.15273 0.0
Fe330 Fe 0.7838 0.22314 0.65932 0.0
Fe331 Fe 0.90113 0.27481 0.59727 0.0
O332 O 0.85771 0.18893 0.63865 0.0
Fe333 Fe 0.88994 0.0687 0.65952 0.0
O334 O 0.81808 0.99705 0.66845 0.0
O335 O 0.74829 0.10093 0.63625 0.0
O336 O 0.76409 0.28143 0.59574 0.0
C337 C 0.79122 0.28351 0.55193 0.0
C338 C 0.84176 0.14337 0.75043 0.0
O339 O 0.84658 0.26535 0.54689 0.0
C340 C 0.99169 0.20766 0.65913 0.0
O341 O 0.81174 0.34613 0.68487 0.0
O342 O 0.86539 0.40132 0.61931 0.0
O343 O 0.88859 0.11103 0.72681 0.0
O344 O 0.794 0.17057 0.72595 0.0
C345 C 0.919 0.07219 0.55565 0.0
O346 O 0.96176 0.28845 0.64549 0.0
O347 O 0.96778 0.1167 0.65612 0.0
C348 C 0.82834 0.42035 0.65594 0.0
O349 O 0.9398 0.16468 0.56338 0.0
O350 O 0.89221 1.02266 0.59204 0.0
C351 C 0.76433 1.01153 0.65273 0.0
loop_
_geom_bond_atom_site_label_1
_geom_bond_atom_site_label_2
_geom_bond_distance
_geom_bond_site_symmetry_2
_ccdc_geom_bond_type
Fe0 O2 1.918 . S
Fe0 O5 1.997 . S
Fe0 O6 2.002 . S
Fe0 O11 1.976 . S
Fe0 O14 1.996 . S
Fe1 O2 1.918 . S
Fe1 O9 1.997 . S
Fe1 O12 1.996 . S
Fe1 O16 1.976 . S
Fe1 O19 2.002 . S
O2 Fe0 1.918 . S
O2 Fe1 1.918 . S
O2 Fe3 1.918 . S
Fe3 O2 1.918 . S
Fe3 O4 2.002 . S
Fe3 O13 1.976 . S
Fe3 O17 1.996 . S
Fe3 O20 1.997 . S
O4 Fe3 2.002 . S
O4 C21 1.295 . S
O5 Fe0 1.997 . S
O5 C21 1.235 . S
O6 Fe0 2.002 . S
O6 C7 1.295 . S
C7 O6 1.295 . S
C7 O9 1.235 . S
C8 O13 1.287 . S
C8 O14 1.255 . S
O9 Fe1 1.997 . S
O9 C7 1.235 . S
C10 O16 1.287 . S
C10 O17 1.255 . S
O11 Fe0 1.976 . S
O11 C18 1.287 . S
O12 Fe1 1.996 . S
O12 C18 1.255 . S
O13 Fe3 1.976 . S
O13 C8 1.287 . S
O14 Fe0 1.996 . S
O14 C8 1.255 . S
C15 O19 1.295 . S
C15 O20 1.235 . S
O16 Fe1 1.976 . S
O16 C10 1.287 . S
O17 Fe3 1.996 . S
O17 C10 1.255 . S
C18 O11 1.287 . S
C18 O12 1.255 . S
O19 Fe1 2.002 . S
O19 C15 1.295 . S
O20 Fe3 1.997 . S
O20 C15 1.235 . S
C21 O4 1.295 . S
C21 O5 1.235 . S
Fe22 O24 1.918 . S
Fe22 O27 1.997 . S
Fe22 O28 2.002 . S
Fe22 O33 1.976 . S
Fe22 O36 1.996 . S
Fe23 O24 1.918 . S
Fe23 O31 1.997 . S
Fe23 O34 1.996 . S
Fe23 O38 1.976 . S
Fe23 O41 2.002 . S
O24 Fe22 1.918 . S
O24 Fe23 1.918 . S
O24 Fe25 1.918 . S
Fe25 O24 1.918 . S
Fe25 O26 2.002 . S
Fe25 O35 1.976 . S
Fe25 O39 1.996 . S
Fe25 O42 1.997 . S
O26 Fe25 2.002 . S
O26 C43 1.295 . S
O27 Fe22 1.997 . S
O27 C43 1.235 . S
O28 Fe22 2.002 . S
O28 C29 1.295 . S
C29 O28 1.295 . S
C29 O31 1.235 . S
C30 O35 1.287 . S
C30 O36 1.255 . S
O31 Fe23 1.997 . S
O31 C29 1.235 . S
C32 O38 1.287 . S
C32 O39 1.255 . S
O33 Fe22 1.976 . S
O33 C40 1.287 . S
O34 Fe23 1.996 . S
O34 C40 1.255 . S
O35 Fe25 1.976 . S
O35 C30 1.287 . S
O36 Fe22 1.996 . S
O36 C30 1.255 . S
C37 O41 1.295 . S
C37 O42 1.235 . S
O38 Fe23 1.976 . S
O38 C32 1.287 . S
O39 Fe25 1.996 . S
O39 C32 1.255 . S
C40 O33 1.287 . S
C40 O34 1.255 . S
O41 Fe23 2.002 . S
O41 C37 1.295 . S
O42 Fe25 1.997 . S
O42 C37 1.235 . S
C43 O26 1.295 . S
C43 O27 1.235 . S
Fe44 O46 1.918 . S
Fe44 O49 1.997 . S
Fe44 O50 2.002 . S
Fe44 O55 1.976 . S
Fe44 O58 1.996 . S
Fe45 O46 1.918 . S
Fe45 O53 1.997 . S
Fe45 O56 1.996 . S
Fe45 O60 1.976 . S
Fe45 O63 2.002 . S
O46 Fe44 1.918 . S
O46 Fe45 1.918 . S
O46 Fe47 1.918 . S
Fe47 O46 1.918 . S
Fe47 O48 2.002 . S
Fe47 O57 1.976 . S
Fe47 O61 1.996 . S
Fe47 O64 1.997 . S
O48 Fe47 2.002 . S
O48 C65 1.295 . S
O49 Fe44 1.997 . S
O49 C65 1.235 . S
O50 Fe44 2.002 . S
O50 C51 1.295 . S
C51 O50 1.295 . S
C51 O53 1.235 . S
C52 O57 1.287 . S
C52 O58 1.255 . S
O53 Fe45 1.997 . S
O53 C51 1.235 . S
C54 O60 1.287 . S
C54 O61 1.255 . S
O55 Fe44 1.976 . S
O55 C62 1.287 . S
O56 Fe45 1.996 . S
O56 C62 1.255 . S
O57 Fe47 1.976 . S
O57 C52 1.287 . S
O58 Fe44 1.996 . S
O58 C52 1.255 . S
C59 O63 1.295 . S
C59 O64 1.235 . S
O60 Fe45 1.976 . S
O60 C54 1.287 . S
O61 Fe47 1.996 . S
O61 C54 1.255 . S
C62 O55 1.287 . S
C62 O56 1.255 . S
O63 Fe45 2.002 . S
O63 C59 1.295 . S
O64 Fe47 1.997 . S
O64 C59 1.235 . S
C65 O48 1.295 . S
C65 O49 1.235 . S
Fe66 O68 1.918 . S
Fe66 O71 1.997 . S
Fe66 O72 2.002 . S
Fe66 O77 1.976 . S
Fe66 O80 1.996 . S
Fe67 O68 1.918 . S
Fe67 O75 1.997 . S
Fe67 O78 1.996 . S
Fe67 O82 1.976 . S
Fe67 O85 2.002 . S
O68 Fe66 1.918 . S
O68 Fe67 1.918 . S
O68 Fe69 1.918 . S
Fe69 O68 1.918 . S
Fe69 O70 2.002 . S
Fe69 O79 1.976 . S
Fe69 O83 1.996 . S
Fe69 O86 1.997 . S
O70 Fe69 2.002 . S
O70 C87 1.295 . S
O71 Fe66 1.997 . S
O71 C87 1.235 . S
O72 Fe66 2.002 . S
O72 C73 1.295 . S
C73 O72 1.295 . S
C73 O75 1.235 . S
C74 O79 1.287 . S
C74 O80 1.255 . S
O75 Fe67 1.997 . S
O75 C73 1.235 . S
C76 O82 1.287 . S
C76 O83 1.255 . S
O77 Fe66 1.976 . S
O77 C84 1.287 . S
O78 Fe67 1.996 . S
O78 C84 1.255 . S
O79 Fe69 1.976 . S
O79 C74 1.287 . S
O80 Fe66 1.996 . S
O80 C74 1.255 . S
C81 O85 1.295 . S
C81 O86 1.235 . S
O82 Fe67 1.976 . S
O82 C76 1.287 . S
O83 Fe69 1.996 . S
O83 C76 1.255 . S
C84 O77 1.287 . S
C84 O78 1.255 . S
O85 Fe67 2.002 . S
O85 C81 1.295 . S
O86 Fe69 1.997 . S
O86 C81 1.235 . S
C87 O70 1.295 . S
C87 O71 1.235 . S
Fe88 O90 1.918 . S
Fe88 O93 1.997 . S
Fe88 O94 2.002 . S
Fe88 O99 1.976 . S
Fe88 O102 1.996 . S
Fe89 O90 1.918 . S
Fe89 O97 1.997 . S
Fe89 O100 1.996 . S
Fe89 O104 1.976 . S
Fe89 O107 2.002 . S
O90 Fe88 1.918 . S
O90 Fe89 1.918 . S
O90 Fe91 1.918 . S
Fe91 O90 1.918 . S
Fe91 O92 2.002 . S
Fe91 O101 1.976 . S
Fe91 O105 1.996 . S
Fe91 O108 1.997 . S
O92 Fe91 2.002 . S
O92 C109 1.295 . S
O93 Fe88 1.997 . S
O93 C109 1.235 . S
O94 Fe88 2.002 . S
O94 C95 1.295 . S
C95 O94 1.295 . S
C95 O97 1.235 . S
C96 O101 1.287 . S
C96 O102 1.255 . S
O97 Fe89 1.997 . S
O97 C95 1.235 . S
C98 O104 1.287 . S
C98 O105 1.255 . S
O99 Fe88 1.976 . S
O99 C106 1.287 . S
O100 Fe89 1.996 . S
O100 C106 1.255 . S
O101 Fe91 1.976 . S
O101 C96 1.287 . S
O102 Fe88 1.996 . S
O102 C96 1.255 . S
C103 O107 1.295 . S
C103 O108 1.235 . S
O104 Fe89 1.976 . S
O104 C98 1.287 . S
O105 Fe91 1.996 . S
O105 C98 1.255 . S
C106 O99 1.287 . S
C106 O100 1.255 . S
O107 Fe89 2.002 . S
O107 C103 1.295 . S
O108 Fe91 1.997 . S
O108 C103 1.235 . S
C109 O92 1.295 . S
C109 O93 1.235 . S
Fe110 O112 1.918 . S
Fe110 O115 1.997 . S
Fe110 O116 2.002 . S
Fe110 O121 1.976 . S
Fe110 O124 1.996 . S
Fe111 O112 1.918 . S
Fe111 O119 1.997 . S
Fe111 O122 1.996 . S
Fe111 O126 1.976 . S
Fe111 O129 2.002 . S
O112 Fe110 1.918 . S
O112 Fe111 1.918 . S
O112 Fe113 1.918 . S
Fe113 O112 1.918 . S
Fe113 O114 2.002 . S
Fe113 O123 1.976 . S
Fe113 O127 1.996 . S
Fe113 O130 1.997 . S
O114 Fe113 2.002 . S
O114 C131 1.295 . S
O115 Fe110 1.997 . S
O115 C131 1.235 . S
O116 Fe110 2.002 . S
O116 C117 1.295 . S
C117 O116 1.295 . S
C117 O119 1.235 . S
C118 O123 1.287 . S
C118 O124 1.255 . S
O119 Fe111 1.997 . S
O119 C117 1.235 . S
C120 O126 1.287 . S
C120 O127 1.255 . S
O121 Fe110 1.976 . S
O121 C128 1.287 . S
O122 Fe111 1.996 . S
O122 C128 1.255 . S
O123 Fe113 1.976 . S
O123 C118 1.287 . S
O124 Fe110 1.996 . S
O124 C118 1.255 . S
C125 O129 1.295 . S
C125 O130 1.235 . S
O126 Fe111 1.976 . S
O126 C120 1.287 . S
O127 Fe113 1.996 . S
O127 C120 1.255 . S
C128 O121 1.287 . S
C128 O122 1.255 . S
O129 Fe111 2.002 . S
O129 C125 1.295 . S
O130 Fe113 1.997 . S
O130 C125 1.235 . S
C131 O114 1.295 . S
C131 O115 1.235 . S
Fe132 O134 1.918 . S
Fe132 O137 1.997 . S
Fe132 O138 2.002 . S
Fe132 O143 1.976 . S
Fe132 O146 1.996 . S
Fe133 O134 1.918 . S
Fe133 O141 1.997 . S
Fe133 O144 1.996 . S
Fe133 O148 1.976 . S
Fe133 O151 2.002 . S
O134 Fe132 1.918 . S
O134 Fe133 1.918 . S
O134 Fe135 1.918 . S
Fe135 O134 1.918 . S
Fe135 O136 2.002 . S
Fe135 O145 1.976 . S
Fe135 O149 1.996 . S
Fe135 O152 1.997 . S
O136 Fe135 2.002 . S
O136 C153 1.295 . S
O137 Fe132 1.997 . S
O137 C153 1.235 . S
O138 Fe132 2.002 . S
O138 C139 1.295 . S
C139 O138 1.295 . S
C139 O141 1.235 . S
C140 O145 1.287 . S
C140 O146 1.255 . S
O141 Fe133 1.997 . S
O141 C139 1.235 . S
C142 O148 1.287 . S
C142 O149 1.255 . S
O143 Fe132 1.976 . S
O143 C150 1.287 . S
O144 Fe133 1.996 . S
O144 C150 1.255 . S
O145 Fe135 1.976 . S
O145 C140 1.287 . S
O146 Fe132 1.996 . S
O146 C140 1.255 . S
C147 O151 1.295 . S
C147 O152 1.235 . S
O148 Fe133 1.976 . S
O148 C142 1.287 . S
O149 Fe135 1.996 . S
O149 C142 1.255 . S
C150 O143 1.287 . S
C150 O144 1.255 . S
O151 Fe133 2.002 . S
O151 C147 1.295 . S
O152 Fe135 1.997 . S
O152 C147 1.235 . S
C153 O136 1.295 . S
C153 O137 1.235 . S
Fe154 O156 1.918 . S
Fe154 O159 1.997 . S
Fe154 O160 2.002 . S
Fe154 O165 1.976 . S
Fe154 O168 1.996 . S
Fe155 O156 1.918 . S
Fe155 O163 1.997 . S
Fe155 O166 1.996 . S
Fe155 O170 1.976 . S
Fe155 O173 2.002 . S
O156 Fe154 1.918 . S
O156 Fe155 1.918 . S
O156 Fe157 1.918 . S
Fe157 O156 1.918 . S
Fe157 O158 2.002 . S
Fe157 O167 1.976 . S
Fe157 O171 1.996 . S
Fe157 O174 1.997 . S
O158 Fe157 2.002 . S
O158 C175 1.295 . S
O159 Fe154 1.997 . S
O159 C175 1.235 . S
O160 Fe154 2.002 . S
O160 C161 1.295 . S
C161 O160 1.295 . S
C161 O163 1.235 . S
C162 O167 1.287 . S
C162 O168 1.255 . S
O163 Fe155 1.997 . S
O163 C161 1.235 . S
C164 O170 1.287 . S
C164 O171 1.255 . S
O165 Fe154 1.976 . S
O165 C172 1.287 . S
O166 Fe155 1.996 . S
O166 C172 1.255 . S
O167 Fe157 1.976 . S
O167 C162 1.287 . S
O168 Fe154 1.996 . S
O168 C162 1.255 . S
C169 O173 1.295 . S
C169 O174 1.235 . S
O170 Fe155 1.976 . S
O170 C164 1.287 . S
O171 Fe157 1.996 . S
O171 C164 1.255 . S
C172 O165 1.287 . S
C172 O166 1.255 . S
O173 Fe155 2.002 . S
O173 C169 1.295 . S
O174 Fe157 1.997 . S
O174 C169 1.235 . S
C175 O158 1.295 . S
C175 O159 1.235 . S
Fe176 O178 1.918 . S
Fe176 O181 1.997 1_565 S
Fe176 O182 2.002 . S
Fe176 O187 1.976 . S
Fe176 O190 1.996 . S
Fe177 O178 1.918 . S
Fe177 O185 1.997 . S
Fe177 O188 1.996 . S
Fe177 O192 1.976 . S
Fe177 O195 2.002 . S
O178 Fe176 1.918 . S
O178 Fe177 1.918 . S
O178 Fe179 1.918 . S
Fe179 O178 1.918 . S
Fe179 O180 2.002 . S
Fe179 O189 1.976 . S
Fe179 O193 1.996 . S
Fe179 O196 1.997 . S
O180 Fe179 2.002 . S
O180 C197 1.295 1_565 S
O181 Fe176 1.997 1_545 S
O181 C197 1.235 . S
O182 Fe176 2.002 . S
O182 C183 1.295 . S
C183 O182 1.295 . S
C183 O185 1.235 . S
C184 O189 1.287 . S
C184 O190 1.255 . S
O185 Fe177 1.997 . S
O185 C183 1.235 . S
C186 O192 1.287 . S
C186 O193 1.255 . S
O187 Fe176 1.976 . S
O187 C194 1.287 . S
O188 Fe177 1.996 . S
O188 C194 1.255 . S
O189 Fe179 1.976 . S
O189 C184 1.287 . S
O190 Fe176 1.996 . S
O190 C184 1.255 . S
C191 O195 1.295 . S
C191 O196 1.235 . S
O192 Fe177 1.976 . S
O192 C186 1.287 . S
O193 Fe179 1.996 . S
O193 C186 1.255 . S
C194 O187 1.287 . S
C194 O188 1.255 . S
O195 Fe177 2.002 . S
O195 C191 1.295 . S
O196 Fe179 1.997 . S
O196 C191 1.235 . S
C197 O180 1.295 1_545 S
C197 O181 1.235 . S
Fe198 O200 1.918 . S
Fe198 O203 1.997 1_545 S
Fe198 O204 2.002 . S
Fe198 O209 1.976 . S
Fe198 O212 1.996 . S
Fe199 O200 1.918 . S
Fe199 O207 1.997 . S
Fe199 O210 1.996 . S
Fe199 O214 1.976 . S
Fe199 O217 2.002 . S
O200 Fe198 1.918 . S
O200 Fe199 1.918 . S
O200 Fe201 1.918 . S
Fe201 O200 1.918 . S
Fe201 O202 2.002 . S
Fe201 O211 1.976 . S
Fe201 O215 1.996 . S
Fe201 O218 1.997 . S
O202 Fe201 2.002 . S
O202 C219 1.295 1_545 S
O203 Fe198 1.997 1_565 S
O203 C219 1.235 . S
O204 Fe198 2.002 . S
O204 C205 1.295 . S
C205 O204 1.295 . S
C205 O207 1.235 . S
C206 O211 1.287 . S
C206 O212 1.255 . S
O207 Fe199 1.997 . S
O207 C205 1.235 . S
C208 O214 1.287 . S
C208 O215 1.255 . S
O209 Fe198 1.976 . S
O209 C216 1.287 . S
O210 Fe199 1.996 . S
O210 C216 1.255 . S
O211 Fe201 1.976 . S
O211 C206 1.287 . S
O212 Fe198 1.996 . S
O212 C206 1.255 . S
C213 O217 1.295 . S
C213 O218 1.235 . S
O214 Fe199 1.976 . S
O214 C208 1.287 . S
O215 Fe201 1.996 . S
O215 C208 1.255 . S
C216 O209 1.287 . S
C216 O210 1.255 . S
O217 Fe199 2.002 . S
O217 C213 1.295 . S
O218 Fe201 1.997 . S
O218 C213 1.235 . S
C219 O202 1.295 1_565 S
C219 O203 1.235 . S
Fe220 O222 1.918 . S
Fe220 O225 1.997 . S
Fe220 O226 2.002 . S
Fe220 O231 1.976 . S
Fe220 O234 1.996 . S
Fe221 O222 1.918 . S
Fe221 O229 1.997 . S
Fe221 O232 1.996 . S
Fe221 O236 1.976 . S
Fe221 O239 2.002 . S
O222 Fe220 1.918 . S
O222 Fe221 1.918 . S
O222 Fe223 1.918 . S
Fe223 O222 1.918 . S
Fe223 O224 2.002 . S
Fe223 O233 1.976 . S
Fe223 O237 1.996 . S
Fe223 O240 1.997 1_545 S
O224 Fe223 2.002 . S
O224 C241 1.295 . S
O225 Fe220 1.997 . S
O225 C241 1.235 . S
O226 Fe220 2.002 . S
O226 C227 1.295 . S
C227 O226 1.295 . S
C227 O229 1.235 . S
C228 O233 1.287 . S
C228 O234 1.255 . S
O229 Fe221 1.997 . S
O229 C227 1.235 . S
C230 O236 1.287 . S
C230 O237 1.255 . S
O231 Fe220 1.976 . S
O231 C238 1.287 . S
O232 Fe221 1.996 . S
O232 C238 1.255 . S
O233 Fe223 1.976 . S
O233 C228 1.287 . S
O234 Fe220 1.996 . S
O234 C228 1.255 . S
C235 O239 1.295 1_565 S
C235 O240 1.235 . S
O236 Fe221 1.976 . S
O236 C230 1.287 . S
O237 Fe223 1.996 . S
O237 C230 1.255 . S
C238 O231 1.287 . S
C238 O232 1.255 . S
O239 Fe221 2.002 . S
O239 C235 1.295 1_545 S
O240 Fe223 1.997 1_565 S
O240 C235 1.235 . S
C241 O224 1.295 . S
C241 O225 1.235 . S
Fe242 O244 1.918 . S
Fe242 O247 1.997 1_565 S
Fe242 O248 2.002 . S
Fe242 O253 1.976 . S
Fe242 O256 1.996 . S
Fe243 O244 1.918 . S
Fe243 O251 1.997 . S
Fe243 O254 1.996 . S
Fe243 O258 1.976 . S
Fe243 O261 2.002 . S
O244 Fe242 1.918 . S
O244 Fe243 1.918 . S
O244 Fe245 1.918 . S
Fe245 O244 1.918 . S
Fe245 O246 2.002 . S
Fe245 O255 1.976 . S
Fe245 O259 1.996 . S
Fe245 O262 1.997 . S
O246 Fe245 2.002 . S
O246 C263 1.295 1_565 S
O247 Fe242 1.997 1_545 S
O247 C263 1.235 . S
O248 Fe242 2.002 . S
O248 C249 1.295 . S
C249 O248 1.295 . S
C249 O251 1.235 . S
C250 O255 1.287 . S
C250 O256 1.255 . S
O251 Fe243 1.997 . S
O251 C249 1.235 . S
C252 O258 1.287 . S
C252 O259 1.255 . S
O253 Fe242 1.976 . S
O253 C260 1.287 . S
O254 Fe243 1.996 . S
O254 C260 1.255 . S
O255 Fe245 1.976 . S
O255 C250 1.287 . S
O256 Fe242 1.996 . S
O256 C250 1.255 . S
C257 O261 1.295 . S
C257 O262 1.235 . S
O258 Fe243 1.976 . S
O258 C252 1.287 . S
O259 Fe245 1.996 . S
O259 C252 1.255 . S
C260 O253 1.287 . S
C260 O254 1.255 . S
O261 Fe243 2.002 . S
O261 C257 1.295 . S
O262 Fe245 1.997 . S
O262 C257 1.235 . S
C263 O246 1.295 1_545 S
C263 O247 1.235 . S
Fe264 O266 1.918 . S
Fe264 O269 1.997 . S
Fe264 O270 2.002 . S
Fe264 O275 1.976 . S
Fe264 O278 1.996 . S
Fe265 O266 1.918 . S
Fe265 O273 1.997 . S
Fe265 O276 1.996 . S
Fe265 O280 1.976 . S
Fe265 O283 2.002 1_545 S
O266 Fe264 1.918 . S
O266 Fe265 1.918 . S
O266 Fe267 1.918 . S
Fe267 O266 1.918 . S
Fe267 O268 2.002 . S
Fe267 O277 1.976 . S
Fe267 O281 1.996 . S
Fe267 O284 1.997 . S
O268 Fe267 2.002 . S
O268 C285 1.295 . S
O269 Fe264 1.997 . S
O269 C285 1.235 . S
O270 Fe264 2.002 . S
O270 C271 1.295 . S
C271 O270 1.295 . S
C271 O273 1.235 . S
C272 O277 1.287 . S
C272 O278 1.255 . S
O273 Fe265 1.997 . S
O273 C271 1.235 . S
C274 O280 1.287 . S
C274 O281 1.255 . S
O275 Fe264 1.976 . S
O275 C282 1.287 . S
O276 Fe265 1.996 . S
O276 C282 1.255 . S
O277 Fe267 1.976 . S
O277 C272 1.287 . S
O278 Fe264 1.996 . S
O278 C272 1.255 . S
C279 O283 1.295 . S
C279 O284 1.235 1_565 S
O280 Fe265 1.976 . S
O280 C274 1.287 . S
O281 Fe267 1.996 . S
O281 C274 1.255 . S
C282 O275 1.287 . S
C282 O276 1.255 . S
O283 Fe265 2.002 1_565 S
O283 C279 1.295 . S
O284 Fe267 1.997 . S
O284 C279 1.235 1_545 S
C285 O268 1.295 . S
C285 O269 1.235 . S
Fe286 O288 1.918 . S
Fe286 O291 1.997 . S
Fe286 O292 2.002 . S
Fe286 O297 1.976 . S
Fe286 O300 1.996 . S
Fe287 O288 1.918 . S
Fe287 O295 1.997 . S
Fe287 O298 1.996 . S
Fe287 O302 1.976 . S
Fe287 O305 2.002 1_565 S
O288 Fe286 1.918 . S
O288 Fe287 1.918 . S
O288 Fe289 1.918 . S
Fe289 O288 1.918 . S
Fe289 O290 2.002 . S
Fe289 O299 1.976 . S
Fe289 O303 1.996 . S
Fe289 O306 1.997 . S
O290 Fe289 2.002 . S
O290 C307 1.295 . S
O291 Fe286 1.997 . S
O291 C307 1.235 . S
O292 Fe286 2.002 . S
O292 C293 1.295 . S
C293 O292 1.295 . S
C293 O295 1.235 . S
C294 O299 1.287 . S
C294 O300 1.255 . S
O295 Fe287 1.997 . S
O295 C293 1.235 . S
C296 O302 1.287 . S
C296 O303 1.255 . S
O297 Fe286 1.976 . S
O297 C304 1.287 . S
O298 Fe287 1.996 . S
O298 C304 1.255 . S
O299 Fe289 1.976 . S
O299 C294 1.287 . S
O300 Fe286 1.996 . S
O300 C294 1.255 . S
C301 O305 1.295 . S
C301 O306 1.235 1_545 S
O302 Fe287 1.976 . S
O302 C296 1.287 . S
O303 Fe289 1.996 . S
O303 C296 1.255 . S
C304 O297 1.287 . S
C304 O298 1.255 . S
O305 Fe287 2.002 1_545 S
O305 C301 1.295 . S
O306 Fe289 1.997 . S
O306 C301 1.235 1_565 S
C307 O290 1.295 . S
C307 O291 1.235 . S
Fe308 O310 1.918 . S
Fe308 O313 1.997 . S
Fe308 O314 2.002 . S
Fe308 O319 1.976 . S
Fe308 O322 1.996 . S
Fe309 O310 1.918 . S
Fe309 O317 1.997 . S
Fe309 O320 1.996 . S
Fe309 O324 1.976 . S
Fe309 O327 2.002 . S
O310 Fe308 1.918 . S
O310 Fe309 1.918 . S
O310 Fe311 1.918 . S
Fe311 O310 1.918 . S
Fe311 O312 2.002 1_565 S
Fe311 O321 1.976 . S
Fe311 O325 1.996 . S
Fe311 O328 1.997 . S
O312 Fe311 2.002 1_545 S
O312 C329 1.295 . S
O313 Fe308 1.997 . S
O313 C329 1.235 1_565 S
O314 Fe308 2.002 . S
O314 C315 1.295 . S
C315 O314 1.295 . S
C315 O317 1.235 . S
C316 O321 1.287 . S
C316 O322 1.255 . S
O317 Fe309 1.997 . S
O317 C315 1.235 . S
C318 O324 1.287 . S
C318 O325 1.255 . S
O319 Fe308 1.976 . S
O319 C326 1.287 . S
O320 Fe309 1.996 . S
O320 C326 1.255 . S
O321 Fe311 1.976 . S
O321 C316 1.287 . S
O322 Fe308 1.996 . S
O322 C316 1.255 . S
C323 O327 1.295 . S
C323 O328 1.235 . S
O324 Fe309 1.976 . S
O324 C318 1.287 . S
O325 Fe311 1.996 . S
O325 C318 1.255 . S
C326 O319 1.287 . S
C326 O320 1.255 . S
O327 Fe309 2.002 . S
O327 C323 1.295 . S
O328 Fe311 1.997 . S
O328 C323 1.235 . S
C329 O312 1.295 . S
C329 O313 1.235 1_545 S
Fe330 O332 1.918 . S
Fe330 O335 1.997 . S
Fe330 O336 2.002 . S
Fe330 O341 1.976 . S
Fe330 O344 1.996 . S
Fe331 O332 1.918 . S
Fe331 O339 1.997 . S
Fe331 O342 1.996 . S
Fe331 O346 1.976 . S
Fe331 O349 2.002 . S
O332 Fe330 1.918 . S
O332 Fe331 1.918 . S
O332 Fe333 1.918 . S
Fe333 O332 1.918 . S
Fe333 O334 2.002 1_545 S
Fe333 O343 1.976 . S
Fe333 O347 1.996 . S
Fe333 O350 1.997 . S
O334 Fe333 2.002 1_565 S
O334 C351 1.295 . S
O335 Fe330 1.997 . S
O335 C351 1.235 1_545 S
O336 Fe330 2.002 . S
O336 C337 1.295 . S
C337 O336 1.295 . S
C337 O339 1.235 . S
C338 O343 1.287 . S
C338 O344 1.255 . S
O339 Fe331 1.997 . S
O339 C337 1.235 . S
C340 O346 1.287 . S
C340 O347 1.255 . S
O341 Fe330 1.976 . S
O341 C348 1.287 . S
O342 Fe331 1.996 . S
O342 C348 1.255 . S
O343 Fe333 1.976 . S
O343 C338 1.287 . S
O344 Fe330 1.996 . S
O344 C338 1.255 . S
C345 O349 1.295 . S
C345 O350 1.235 . S
O346 Fe331 1.976 . S
O346 C340 1.287 . S
O347 Fe333 1.996 . S
O347 C340 1.255 . S
C348 O341 1.287 . S
C348 O342 1.255 . S
O349 Fe331 2.002 . S
O349 C345 1.295 . S
O350 Fe333 1.997 . S
O350 C345 1.235 . S
C351 O334 1.295 . S
C351 O335 1.235 1_565 S
C10 C329 1.854 . S
C32 C351 1.854 . S
C52 C279 1.854 . S
C301 C76 1.854 . S
C235 C96 1.885 . S
C263 C118 1.885 . S
C197 C142 1.885 . S
C219 C172 1.885 . S
C186 C139 1.854 . S
C175 C208 1.854 . S
C103 C238 1.854 . S
C125 C252 1.854 . S
C51 C272 1.885 . S
C294 C87 1.885 . S
C21 C326 1.885 . S
C348 C43 1.885 . S
C7 C59 1.601 1_554 S
C73 C29 1.601 . S
C153 C95 1.624 1_554 S
C169 C117 1.624 . S
C241 C183 1.601 1_546 S
C249 C205 1.601 1_565 S
C323 C271 1.624 1_564 S
C293 C345 1.624 1_565 S
C18 C140 1.530 . S
C40 C164 1.530 . S
C106 C54 1.530 . S
C84 C128 1.530 . S
C194 C318 1.530 1_655 S
C340 C216 1.530 1_655 S
C282 C228 1.530 1_455 S
C260 C304 1.530 1_455 S
C15 C285 1.711 1_554 S
C307 C37 1.711 . S
C315 C65 1.711 1_554 S
C337 C81 1.711 . S
C191 C109 1.711 1_554 S
C213 C131 1.711 . S
C147 C227 1.711 1_554 S
C257 C161 1.711 . S
C8 C120 1.444 . S
C98 C30 1.444 . S
C62 C162 1.444 . S
C150 C74 1.444 . S
C184 C296 1.444 . S
C274 C206 1.444 . S
C338 C230 1.444 . S
C250 C316 1.444 . S
