# Generated by pormake.
# Topology dmp, (4)-cn, num edge types: 1
# Building blocks:
#     Node 0, Type 0, BuildingBlock: UXUYUI_clean_sbu_0, # of connection points: 4
#     Node 1, Type 0, BuildingBlock: UXUYUI_clean_sbu_0, # of connection points: 4
#     Node 2, Type 0, BuildingBlock: UXUYUI_clean_sbu_0, # of connection points: 4
#     Node 3, Type 0, BuildingBlock: UXUYUI_clean_sbu_0, # of connection points: 4
#     Edge 4, Type (0, 0), BuildingBlock: XUDNAN_clean_linker_2, # of connection points: 2
#     Edge 5, Type (0, 0), BuildingBlock: XUDNAN_clean_linker_2, # of connection points: 2
#     Edge 6, Type (0, 0), BuildingBlock: XUDNAN_clean_linker_2, # of connection points: 2
#     Edge 7, Type (0, 0), BuildingBlock: XUDNAN_clean_linker_2, # of connection points: 2
#     Edge 8, Type (0, 0), BuildingBlock: XUDNAN_clean_linker_2, # of connection points: 2
#     Edge 9, Type (0, 0), BuildingBlock: XUDNAN_clean_linker_2, # of connection points: 2
#     Edge 10, Type (0, 0), BuildingBlock: XUDNAN_clean_linker_2, # of connection points: 2
#     Edge 11, Type (0, 0), BuildingBlock: XUDNAN_clean_linker_2, # of connection points: 2
# Relax obj value: 0.351
# Max RMSD: 0.312
# Mean RMSD: 0.312
data_MOF--net-dmp--node1-UXUYUI_clean_sbu_0--edge1-XUDNAN_clean_linker_2
_symmetry_space_group_name_H-M    P1
_symmetry_Int_Tables_number       1
_symmetry_cell_setting            triclinic
loop_
_symmetry_equiv_pos_as_xyz
'x, y, z'
_cell_length_a     56.321274
_cell_length_b     24.05181
_cell_length_c     29.141864
_cell_angle_alpha  89.988344
_cell_angle_beta   89.920917
_cell_angle_gamma 89.957137
loop_
_atom_site_label
_atom_site_type_symbol
_atom_site_fract_x
_atom_site_fract_y
_atom_site_fract_z
_atom_type_partial_charge
Li0 Li 0.10428 0.2748 0.22196 0.0
Li1 Li 0.10865 0.19558 0.26999 0.0
Li2 Li 0.07494 0.20242 0.21919 0.0
Li3 Li 0.07907 0.26537 0.28891 0.0
C4 C 0.11683 0.18829 0.15904 0.0
N5 N 0.13371 0.17063 0.07107 0.0
C6 C 0.14011 0.16968 0.15207 0.0
C7 C 0.10209 0.19718 0.1212 0.0
C8 C 0.14833 0.16123 0.10736 0.0
C9 C 0.11096 0.18821 0.07703 0.0
C10 C 0.13739 0.28446 0.29347 0.0
C11 C 0.16942 0.32596 0.33641 0.0
N12 N 0.18523 0.30617 0.30511 0.0
C13 C 0.15402 0.26439 0.26187 0.0
C14 C 0.14518 0.31539 0.33116 0.0
C15 C 0.17808 0.27587 0.26826 0.0
C16 C 0.12122 0.38006 0.21802 0.0
N17 N 0.1221 0.33248 0.19296 0.0
C18 C 0.15806 0.36172 0.15679 0.0
C19 C 0.13923 0.32412 0.1607 0.0
C20 C 0.15897 0.40766 0.18643 0.0
C21 C 0.13948 0.4187 0.21497 0.0
H22 H 0.10787 0.38485 0.24439 0.0
H23 H 0.13982 0.28582 0.14157 0.0
C24 C 0.13817 0.10436 0.26338 0.0
N25 N 0.13189 0.14545 0.2929 0.0
C26 C 0.16009 0.07822 0.26786 0.0
C27 C 0.16732 0.13215 0.33649 0.0
C28 C 0.14516 0.15742 0.33061 0.0
C29 C 0.17548 0.09457 0.30319 0.0
H30 H 0.12714 0.0956 0.23391 0.0
H31 H 0.13966 0.19029 0.35361 0.0
C32 C 0.06537 0.33336 0.20248 0.0
N33 N 0.05828 0.43324 0.1575 0.0
C34 C 0.05807 0.38041 0.22691 0.0
C35 C 0.06869 0.337 0.15503 0.0
C36 C 0.05467 0.43054 0.2036 0.0
C37 C 0.06514 0.38789 0.13296 0.0
C38 C 0.07855 0.14308 0.3188 0.0
C39 C 0.07904 0.08704 0.30621 0.0
C40 C 0.08316 0.15826 0.36419 0.0
C41 C 0.08424 0.04694 0.3394 0.0
C42 C 0.08829 0.1169 0.39637 0.0
N43 N 0.08873 0.06257 0.3834 0.0
C44 C 0.05898 0.10852 0.17195 0.0
C45 C 0.03348 0.18689 0.16727 0.0
C46 C 0.04375 0.0776 0.14423 0.0
N47 N 0.05356 0.16196 0.1828 0.0
C48 C 0.01775 0.15754 0.13942 0.0
C49 C 0.02281 0.10212 0.12757 0.0
H50 H 0.07523 0.09015 0.18466 0.0
H51 H 0.02983 0.22969 0.17626 0.0
C52 C 0.07601 0.35215 0.34995 0.0
N53 N 0.06371 0.30731 0.33473 0.0
C54 C 0.06544 0.38983 0.37988 0.0
C55 C 0.02971 0.33409 0.37855 0.0
C56 C 0.04109 0.29713 0.34864 0.0
C57 C 0.04182 0.38175 0.39384 0.0
H58 H 0.09374 0.3598 0.33734 0.0
H59 H 0.03167 0.26145 0.33531 0.0
O60 O 0.10847 0.19621 0.20273 0.0
O61 O 0.11365 0.27368 0.28791 0.0
O62 O 0.06896 0.28399 0.22489 0.0
O63 O 0.0742 0.1831 0.28662 0.0
H64 H 0.15181 0.16214 0.18079 0.0
H65 H 0.08393 0.21039 0.12575 0.0
H66 H 0.16633 0.14717 0.10152 0.0
H67 H 0.09972 0.19504 0.04749 0.0
H68 H 0.17566 0.34988 0.36541 0.0
H69 H 0.14843 0.24008 0.23276 0.0
H70 H 0.13269 0.3308 0.35635 0.0
H71 H 0.19108 0.2606 0.24396 0.0
H72 H 0.1729 0.35179 0.13455 0.0
H73 H 0.13957 0.45387 0.2382 0.0
H74 H 0.16575 0.04882 0.24188 0.0
H75 H 0.17877 0.1457 0.36413 0.0
H76 H 0.05504 0.37839 0.26347 0.0
H77 H 0.07416 0.30119 0.13543 0.0
H78 H 0.04915 0.4673 0.22215 0.0
H79 H 0.06784 0.39132 0.09631 0.0
H80 H 0.07563 0.07473 0.27112 0.0
H81 H 0.08302 0.20156 0.37432 0.0
H82 H 0.08477 0.0034 0.33016 0.0
H83 H 0.09199 0.128 0.43161 0.0
H84 H 0.04821 0.03486 0.13628 0.0
H85 H 0.00201 0.17831 0.12672 0.0
H86 H 0.07557 0.42548 0.39131 0.0
H87 H 0.01141 0.32658 0.38813 0.0
Li88 Li 0.40952 0.773 0.20901 0.0
Li89 Li 0.40956 0.70995 0.28009 0.0
Li90 Li 0.37671 0.71247 0.22868 0.0
Li91 Li 0.38329 0.79293 0.27484 0.0
C92 C 0.40657 0.64951 0.18152 0.0
N93 N 0.39886 0.56701 0.11727 0.0
C94 C 0.41372 0.59493 0.19047 0.0
C95 C 0.39577 0.66225 0.13966 0.0
C96 C 0.40961 0.55377 0.1576 0.0
C97 C 0.39194 0.61994 0.1077 0.0
C98 C 0.42418 0.82779 0.30795 0.0
C99 C 0.42287 0.85427 0.3877 0.0
N100 N 0.43292 0.90395 0.37677 0.0
C101 C 0.43455 0.879 0.29748 0.0
C102 C 0.41832 0.81516 0.35339 0.0
C103 C 0.43881 0.917 0.33278 0.0
C104 C 0.4267 0.86354 0.16007 0.0
N105 N 0.42681 0.80709 0.16153 0.0
C106 C 0.44797 0.80229 0.09067 0.0
C107 C 0.43736 0.77619 0.12821 0.0
C108 C 0.44794 0.86055 0.08805 0.0
C109 C 0.43745 0.89137 0.12357 0.0
H110 H 0.41775 0.88679 0.18675 0.0
H111 H 0.43715 0.73135 0.13033 0.0
C112 C 0.42014 0.60902 0.3191 0.0
N113 N 0.42779 0.66246 0.31728 0.0
C114 C 0.4325 0.56974 0.34472 0.0
C115 C 0.46049 0.64135 0.36632 0.0
C116 C 0.44754 0.67938 0.34007 0.0
C117 C 0.45302 0.58564 0.36861 0.0
H118 H 0.40441 0.59694 0.30036 0.0
H119 H 0.45331 0.72214 0.33756 0.0
C120 C 0.35992 0.81435 0.18078 0.0
N121 N 0.32781 0.86457 0.12229 0.0
C122 C 0.33888 0.83715 0.19807 0.0
C123 C 0.3647 0.81755 0.13377 0.0
C124 C 0.32286 0.86228 0.16794 0.0
C125 C 0.34821 0.84292 0.10475 0.0
C126 C 0.35539 0.69233 0.31044 0.0
C127 C 0.33351 0.71278 0.29529 0.0
C128 C 0.35601 0.64535 0.33866 0.0
C129 C 0.31266 0.68532 0.30792 0.0
C130 C 0.33476 0.6191 0.35063 0.0
N131 N 0.31372 0.63943 0.3351 0.0
C132 C 0.354 0.61091 0.223 0.0
C133 C 0.33358 0.68065 0.18118 0.0
C134 C 0.33484 0.57486 0.21879 0.0
N135 N 0.35266 0.66344 0.20603 0.0
C136 C 0.31395 0.64572 0.176 0.0
C137 C 0.31411 0.59313 0.19685 0.0
H138 H 0.36928 0.59851 0.24296 0.0
H139 H 0.33281 0.72251 0.16806 0.0
C140 C 0.37253 0.90468 0.28524 0.0
N141 N 0.36807 0.85388 0.30358 0.0
C142 C 0.35661 0.94824 0.29218 0.0
C143 C 0.33271 0.88729 0.33926 0.0
C144 C 0.34951 0.84536 0.33253 0.0
C145 C 0.33543 0.93857 0.31659 0.0
H146 H 0.38728 0.90998 0.26184 0.0
H147 H 0.34648 0.80459 0.34689 0.0
O148 O 0.41013 0.69028 0.21352 0.0
O149 O 0.41941 0.79043 0.27387 0.0
O150 O 0.37605 0.79046 0.2098 0.0
O151 O 0.37608 0.71802 0.29768 0.0
H152 H 0.42239 0.58441 0.2224 0.0
H153 H 0.39014 0.70425 0.13221 0.0
H154 H 0.41496 0.51131 0.16415 0.0
H155 H 0.38343 0.62917 0.07532 0.0
H156 H 0.41836 0.84517 0.42301 0.0
H157 H 0.4392 0.88935 0.26247 0.0
H158 H 0.41016 0.77575 0.36196 0.0
H159 H 0.44677 0.95687 0.3252 0.0
H160 H 0.45606 0.77732 0.06395 0.0
H161 H 0.43691 0.93637 0.12237 0.0
H162 H 0.42593 0.52747 0.34611 0.0
H163 H 0.47635 0.65512 0.38395 0.0
H164 H 0.33491 0.83564 0.23432 0.0
H165 H 0.38101 0.80086 0.1198 0.0
H166 H 0.30652 0.88006 0.18089 0.0
H167 H 0.35167 0.84557 0.06829 0.0
H168 H 0.33269 0.74893 0.27335 0.0
H169 H 0.3727 0.62939 0.35136 0.0
H170 H 0.29566 0.70037 0.29597 0.0
H171 H 0.33501 0.58258 0.3723 0.0
H172 H 0.33564 0.5344 0.23507 0.0
H173 H 0.29817 0.66128 0.15906 0.0
H174 H 0.35991 0.98759 0.2753 0.0
H175 H 0.31677 0.87753 0.35842 0.0
Li176 Li 0.87465 0.77187 0.72631 0.0
Li177 Li 0.9045 0.77038 0.78386 0.0
Li178 Li 0.9043 0.70179 0.71998 0.0
Li179 Li 0.87337 0.70011 0.78126 0.0
C180 C 0.91066 0.82163 0.68329 0.0
N181 N 0.91323 0.90008 0.61418 0.0
C182 C 0.90628 0.87763 0.69292 0.0
C183 C 0.91652 0.80556 0.63858 0.0
C184 C 0.90758 0.91663 0.65747 0.0
C185 C 0.91772 0.84586 0.60411 0.0
C186 C 0.86676 0.78915 0.83898 0.0
C187 C 0.87355 0.76367 0.91803 0.0
N188 N 0.86059 0.80837 0.93181 0.0
C189 C 0.85357 0.83495 0.85403 0.0
C190 C 0.87692 0.7533 0.87132 0.0
C191 C 0.85063 0.8439 0.90105 0.0
C192 C 0.83511 0.83847 0.72117 0.0
N193 N 0.85302 0.81963 0.69409 0.0
C194 C 0.83638 0.86619 0.62894 0.0
C195 C 0.85386 0.83229 0.64853 0.0
C196 C 0.81811 0.88724 0.65672 0.0
C197 C 0.81754 0.87267 0.70328 0.0
H198 H 0.83421 0.82618 0.7567 0.0
H199 H 0.86781 0.81564 0.62717 0.0
C200 C 0.94018 0.79431 0.85066 0.0
N201 N 0.92239 0.81503 0.82421 0.0
C202 C 0.94999 0.82693 0.88553 0.0
C203 C 0.92335 0.90149 0.86413 0.0
C204 C 0.91424 0.86777 0.82963 0.0
C205 C 0.94107 0.88071 0.89323 0.0
H206 H 0.94603 0.75188 0.8459 0.0
H207 H 0.89978 0.88265 0.8086 0.0
C208 C 0.85444 0.69375 0.67796 0.0
N209 N 0.82334 0.70051 0.60489 0.0
C210 C 0.82993 0.6934 0.68564 0.0
C211 C 0.86312 0.69724 0.6331 0.0
C212 C 0.81451 0.69702 0.64825 0.0
C213 C 0.84711 0.70059 0.59662 0.0
C214 C 0.91378 0.63274 0.79603 0.0
C215 C 0.90339 0.59139 0.76901 0.0
C216 C 0.92984 0.61783 0.83042 0.0
C217 C 0.9093 0.53576 0.77676 0.0
C218 C 0.93525 0.56172 0.83719 0.0
N219 N 0.92498 0.5222 0.81042 0.0
C220 C 0.9469 0.67736 0.67567 0.0
C221 C 0.91539 0.61682 0.65538 0.0
C222 C 0.96187 0.65195 0.6438 0.0
N223 N 0.92406 0.66014 0.68019 0.0
C224 C 0.9298 0.58988 0.62336 0.0
C225 C 0.95323 0.60814 0.61671 0.0
H226 H 0.95324 0.71195 0.69595 0.0
H227 H 0.8971 0.60413 0.65958 0.0
C228 C 0.82921 0.68652 0.81624 0.0
N229 N 0.85032 0.65924 0.81542 0.0
C230 C 0.80925 0.66182 0.83541 0.0
C231 C 0.8331 0.5815 0.85433 0.0
C232 C 0.85285 0.60838 0.83531 0.0
C233 C 0.81077 0.60773 0.85318 0.0
H234 H 0.8277 0.72708 0.80051 0.0
H235 H 0.86986 0.58777 0.8353 0.0
O236 O 0.90964 0.78287 0.71757 0.0
O237 O 0.8703 0.78095 0.79288 0.0
O238 O 0.86984 0.69111 0.71417 0.0
O239 O 0.90876 0.68767 0.78848 0.0
H240 H 0.90171 0.89077 0.72727 0.0
H241 H 0.91994 0.76244 0.63042 0.0
H242 H 0.90408 0.96006 0.66437 0.0
H243 H 0.92214 0.83399 0.56933 0.0
H244 H 0.88131 0.73624 0.94333 0.0
H245 H 0.84588 0.86371 0.82966 0.0
H246 H 0.88737 0.71792 0.8607 0.0
H247 H 0.84049 0.87924 0.9131 0.0
H248 H 0.83724 0.87618 0.59273 0.0
H249 H 0.80336 0.88683 0.72557 0.0
H250 H 0.96357 0.80945 0.90754 0.0
H251 H 0.91619 0.94294 0.86872 0.0
H252 H 0.82288 0.69066 0.72005 0.0
H253 H 0.88201 0.69839 0.6265 0.0
H254 H 0.79551 0.69709 0.65372 0.0
H255 H 0.8536 0.70367 0.56175 0.0
H256 H 0.89064 0.60191 0.74278 0.0
H257 H 0.93806 0.64929 0.85165 0.0
H258 H 0.90135 0.50337 0.75615 0.0
H259 H 0.94766 0.54961 0.86369 0.0
H260 H 0.97992 0.66678 0.64003 0.0
H261 H 0.92244 0.55654 0.60285 0.0
H262 H 0.79255 0.68419 0.83476 0.0
H263 H 0.83508 0.53974 0.86767 0.0
Li264 Li 0.61328 0.20497 0.7156 0.0
Li265 Li 0.58182 0.20467 0.77639 0.0
Li266 Li 0.5803 0.27005 0.7102 0.0
Li267 Li 0.60941 0.27851 0.76827 0.0
C268 C 0.5751 0.13125 0.70217 0.0
N269 N 0.56715 0.01883 0.68995 0.0
C270 C 0.58513 0.09257 0.73233 0.0
C271 C 0.56111 0.11266 0.66571 0.0
C272 C 0.58086 0.03596 0.72563 0.0
C273 C 0.55731 0.05567 0.6601 0.0
C274 C 0.63209 0.2059 0.81863 0.0
C275 C 0.63978 0.22266 0.89887 0.0
N276 N 0.66352 0.22109 0.8903 0.0
C277 C 0.65655 0.20411 0.81069 0.0
C278 C 0.62361 0.21514 0.8631 0.0
C279 C 0.67215 0.21207 0.84733 0.0
C280 C 0.65802 0.19181 0.68078 0.0
N281 N 0.63685 0.16483 0.68214 0.0
C282 C 0.65359 0.0869 0.64272 0.0
C283 C 0.63409 0.11407 0.66226 0.0
C284 C 0.67599 0.11263 0.64329 0.0
C285 C 0.67785 0.16658 0.66128 0.0
H286 H 0.65963 0.23257 0.69614 0.0
H287 H 0.61704 0.0938 0.66242 0.0
C288 C 0.53875 0.16043 0.80545 0.0
N289 N 0.56242 0.16008 0.81441 0.0
C290 C 0.52346 0.12596 0.83015 0.0
C291 C 0.55719 0.09242 0.87345 0.0
C292 C 0.57187 0.12681 0.84738 0.0
C293 C 0.53272 0.09152 0.86462 0.0
H294 H 0.53187 0.1869 0.77855 0.0
H295 H 0.59084 0.12593 0.85271 0.0
C296 C 0.61801 0.29207 0.65534 0.0
N297 N 0.6252 0.30697 0.56225 0.0
C298 C 0.63118 0.33739 0.63939 0.0
C299 C 0.60841 0.25444 0.6238 0.0
C300 C 0.63465 0.34416 0.59224 0.0
C301 C 0.61227 0.26267 0.57694 0.0
C302 C 0.57153 0.32631 0.80697 0.0
C303 C 0.57527 0.38148 0.79383 0.0
C304 C 0.56462 0.31413 0.85193 0.0
C305 C 0.57239 0.42372 0.82627 0.0
C306 C 0.56186 0.35758 0.88332 0.0
N307 N 0.5658 0.41099 0.86996 0.0
C308 C 0.54235 0.27848 0.64821 0.0
C309 C 0.56574 0.35992 0.65599 0.0
C310 C 0.52932 0.30289 0.61288 0.0
N311 N 0.56037 0.30692 0.66831 0.0
C312 C 0.55317 0.38597 0.62086 0.0
C313 C 0.53496 0.35699 0.5983 0.0
H314 H 0.53853 0.23639 0.65889 0.0
H315 H 0.58038 0.38117 0.67236 0.0
C316 C 0.64838 0.34612 0.77346 0.0
N317 N 0.62967 0.33006 0.79972 0.0
C318 C 0.66595 0.38017 0.79145 0.0
C319 C 0.64523 0.37996 0.86413 0.0
C320 C 0.62774 0.34631 0.84438 0.0
C321 C 0.66455 0.39735 0.83732 0.0
H322 H 0.65006 0.33117 0.73871 0.0
H323 H 0.61313 0.3319 0.86517 0.0
O324 O 0.57852 0.18706 0.70854 0.0
O325 O 0.61651 0.19897 0.78306 0.0
O326 O 0.61426 0.28566 0.70153 0.0
O327 O 0.57407 0.28442 0.77572 0.0
H328 H 0.5963 0.10591 0.76034 0.0
H329 H 0.55327 0.14194 0.64194 0.0
H330 H 0.58851 0.00563 0.74871 0.0
H331 H 0.54651 0.04073 0.63202 0.0
H332 H 0.63346 0.23028 0.93337 0.0
H333 H 0.66346 0.1968 0.77662 0.0
H334 H 0.60475 0.21784 0.86978 0.0
H335 H 0.69113 0.21105 0.84161 0.0
H336 H 0.65134 0.04526 0.62931 0.0
H337 H 0.69464 0.18851 0.66155 0.0
H338 H 0.50465 0.12627 0.82253 0.0
H339 H 0.56495 0.06565 0.89931 0.0
H340 H 0.63855 0.36729 0.66318 0.0
H341 H 0.59806 0.21927 0.63514 0.0
H342 H 0.6448 0.37907 0.57949 0.0
H343 H 0.60495 0.23386 0.55223 0.0
H344 H 0.58056 0.39148 0.75908 0.0
H345 H 0.56152 0.27159 0.86248 0.0
H346 H 0.57539 0.46661 0.81673 0.0
H347 H 0.55662 0.34883 0.91831 0.0
H348 H 0.51518 0.27946 0.59679 0.0
H349 H 0.55826 0.42747 0.61032 0.0
H350 H 0.68088 0.39171 0.77 0.0
H351 H 0.64373 0.39214 0.8998 0.0
H352 H 0.29955 0.9622 0.37921 0.0
H353 H 0.32351 -0.00113 0.2405 0.0
H354 H 0.28689 0.05045 0.22619 0.0
H355 H 0.24154 0.93212 0.3486 0.0
H356 H 0.22758 0.96215 0.39849 0.0
H357 H 0.25752 0.93636 0.40206 0.0
H358 H 0.272 0.0323 0.43104 0.0
H359 H 0.24201 0.05831 0.42808 0.0
H360 H 0.26552 0.09381 0.39798 0.0
H361 H 0.2463 0.08634 0.22186 0.0
H362 H 0.20389 0.10943 0.22962 0.0
H363 H 0.20435 0.04856 0.36979 0.0
C364 C 0.29734 0.982 0.34614 0.0
C365 C 0.31485 0.977 0.3114 0.0
C366 C 0.31099 0.00337 0.26846 0.0
C367 C 0.29002 0.03248 0.25968 0.0
C368 C 0.27292 0.03498 0.29402 0.0
C369 C 0.27631 0.01098 0.33656 0.0
C370 C 0.25408 0.0159 0.36583 0.0
C371 C 0.24463 0.9582 0.37953 0.0
C372 C 0.25868 0.05226 0.40824 0.0
C373 C 0.23751 0.04465 0.33237 0.0
C374 C 0.24893 0.05558 0.29134 0.0
C375 C 0.2372 0.0787 0.25396 0.0
C376 C 0.21309 0.09111 0.25855 0.0
C377 C 0.20093 0.08028 0.30013 0.0
C378 C 0.21335 0.05741 0.33776 0.0
H379 H 0.18984 0.45599 0.12408 0.0
H380 H 0.17971 0.42137 0.26899 0.0
H381 H 0.2186 0.46259 0.28615 0.0
H382 H 0.25273 0.42848 0.12053 0.0
H383 H 0.25954 0.48468 0.08176 0.0
H384 H 0.23078 0.45199 0.07993 0.0
H385 H 0.21049 0.54761 0.092 0.0
H386 H 0.23918 0.58062 0.09358 0.0
H387 H 0.21874 0.58969 0.14063 0.0
H388 H 0.25835 0.50387 0.28824 0.0
H389 H 0.29647 0.5515 0.27604 0.0
H390 H 0.28136 0.56468 0.1304 0.0
C391 C 0.19586 0.45755 0.15933 0.0
C392 C 0.18173 0.43609 0.19531 0.0
C393 C 0.19011 0.43847 0.24107 0.0
C394 C 0.21224 0.46139 0.25114 0.0
C395 C 0.22575 0.48217 0.21511 0.0
C396 C 0.2179 0.48123 0.17019 0.0
C397 C 0.23596 0.50792 0.1384 0.0
C398 C 0.2453 0.46574 0.10307 0.0
C399 C 0.22546 0.55953 0.11477 0.0
C400 C 0.25508 0.52375 0.17261 0.0
C401 C 0.24882 0.50776 0.21652 0.0
C402 C 0.26351 0.51675 0.25408 0.0
C403 C 0.28517 0.54348 0.24675 0.0
C404 C 0.29186 0.56134 0.20228 0.0
C405 C 0.27661 0.55136 0.16471 0.0
H406 H 0.71858 0.11263 0.68718 0.0
H407 H 0.68214 0.04042 0.57048 0.0
H408 H 0.71743 0.98206 0.55432 0.0
H409 H 0.77924 0.11214 0.63668 0.0
H410 H 0.79239 0.09493 0.69123 0.0
H411 H 0.76562 0.13598 0.68913 0.0
H412 H 0.74468 0.06513 0.74265 0.0
H413 H 0.77124 0.02385 0.74477 0.0
H414 H 0.74373 0.99283 0.72638 0.0
H415 H 0.75531 0.9244 0.55673 0.0
H416 H 0.79111 0.87102 0.5795 0.0
H417 H 0.80213 0.98393 0.69334 0.0
C418 C 0.71824 0.0861 0.65718 0.0
C419 C 0.69769 0.08161 0.62976 0.0
C420 C 0.6977 0.04452 0.59198 0.0
C421 C 0.71772 0.01158 0.58233 0.0
C422 C 0.73758 0.01659 0.61061 0.0
C423 C 0.73794 0.05324 0.64714 0.0
C424 C 0.76034 0.0474 0.67515 0.0
C425 C 0.77528 0.10079 0.67289 0.0
C426 C 0.75464 0.03132 0.72516 0.0
C427 C 0.77223 0.00035 0.64974 0.0
C428 C 0.75913 0.98354 0.61213 0.0
C429 C 0.76591 0.93787 0.5856 0.0
C430 C 0.78627 0.90794 0.59863 0.0
C431 C 0.79928 0.92358 0.63808 0.0
C432 C 0.79248 0.97123 0.66297 0.0
H433 H 0.76879 0.60987 0.80741 0.0
H434 H 0.80321 0.53501 0.92535 0.0
H435 H 0.76677 0.48026 0.94089 0.0
H436 H 0.70833 0.61727 0.85653 0.0
H437 H 0.69498 0.60112 0.80196 0.0
H438 H 0.72267 0.63857 0.80405 0.0
H439 H 0.74217 0.56434 0.75155 0.0
H440 H 0.71465 0.52677 0.74929 0.0
H441 H 0.74127 0.49223 0.7684 0.0
H442 H 0.72741 0.42759 0.93844 0.0
H443 H 0.69043 0.37894 0.91553 0.0
H444 H 0.68269 0.49156 0.80049 0.0
C445 C 0.76852 0.58344 0.83749 0.0
C446 C 0.78874 0.57739 0.86559 0.0
C447 C 0.78789 0.54036 0.90339 0.0
C448 C 0.76722 0.50951 0.91268 0.0
C449 C 0.74761 0.5165 0.88398 0.0
C450 C 0.74818 0.55275 0.8472 0.0
C451 C 0.7258 0.5496 0.8189 0.0
C452 C 0.71214 0.60493 0.82048 0.0
C453 C 0.73132 0.53217 0.76913 0.0
C454 C 0.71273 0.50456 0.84452 0.0
C455 C 0.7253 0.48639 0.88243 0.0
C456 C 0.71727 0.44215 0.9093 0.0
C457 C 0.69625 0.41496 0.89624 0.0
C458 C 0.68381 0.43186 0.85643 0.0
C459 C 0.69185 0.47814 0.83123 0.0
H460 H 0.03437 0.03089 0.05736 0.0
H461 H 0.9742 0.1015 0.13028 0.0
H462 H 0.94686 0.05066 0.07924 0.0
H463 H 0.00925 0.03614 0.94586 0.0
H464 H 0.02184 0.971 0.92728 0.0
H465 H 0.03675 0.01177 0.97028 0.0
H466 H 0.03624 0.92753 0.02575 0.0
H467 H 0.02136 0.88643 0.98286 0.0
H468 H 0.00842 0.89418 0.0391 0.0
H469 H 0.92616 -0.00523 0.01935 0.0
H470 H 0.91325 0.93635 0.9544 0.0
H471 H 0.98682 0.90039 0.9213 0.0
C472 C 0.01545 0.03506 0.06304 0.0
C473 C 0.00641 0.07026 0.09777 0.0
C474 C 0.98152 0.07536 0.10351 0.0
C475 C 0.96586 0.04637 0.07492 0.0
C476 C 0.97538 0.0123 0.04092 0.0
C477 C -0.00043 0.00633 0.03492 0.0
C478 C 0.00516 0.96787 -0.00482 0.0
C479 C 0.01907 -0.00145 0.95742 0.0
C480 C 0.01858 0.91592 0.01173 0.0
C481 C 0.9803 0.95352 0.97957 0.0
C482 C 0.9634 0.97959 0.00648 0.0
C483 C 0.9392 0.974 -0.0019 0.0
C484 C 0.93207 0.94105 0.96103 0.0
C485 C 0.94907 0.91415 0.93286 0.0
C486 C 0.97348 0.92012 0.94257 0.0
H487 H 0.52967 0.08008 0.95761 0.0
H488 H 0.50069 0.01777 0.82982 0.0
H489 H 0.47564 0.9514 0.87315 0.0
H490 H 0.53228 0.95069 0.01704 0.0
H491 H 0.5235 0.97937 0.07164 0.0
H492 H 0.5389 0.02216 0.03056 0.0
H493 H 0.50471 0.09431 0.03346 0.0
H494 H 0.48924 0.05183 0.07469 0.0
H495 H 0.47472 0.0721 0.0222 0.0
H496 H 0.45543 0.88894 0.9303 0.0
H497 H 0.43897 0.83957 -0.00223 0.0
H498 H 0.47997 0.94571 0.08809 0.0
C499 C 0.51802 0.05241 0.93888 0.0
C500 C 0.51706 0.05363 0.89053 0.0
C501 C 0.50148 0.01745 0.86696 0.0
C502 C 0.48732 0.97958 0.89122 0.0
C503 C 0.4888 0.97909 0.93894 0.0
C504 C 0.50354 0.01499 0.96255 0.0
C505 C 0.50155 0.00668 0.01387 0.0
C506 C 0.52548 0.98864 0.03447 0.0
C507 C 0.49198 0.05936 0.03743 0.0
C508 C 0.4836 0.95999 0.01544 0.0
C509 C 0.47658 0.94441 0.97187 0.0
C510 C 0.46065 0.90101 0.9646 0.0
C511 C 0.45152 0.87308 0.00297 0.0
C512 C 0.4582 0.88913 0.04785 0.0
C513 C 0.47442 0.93312 0.05406 0.0
H514 H 0.95932 0.49755 0.59618 0.0
H515 H 0.98068 0.66344 0.55454 0.0
H516 H 0.00516 0.62336 0.49251 0.0
H517 H 0.01573 0.43185 0.57552 0.0
H518 H 0.00296 0.36806 0.55452 0.0
H519 H 0.98693 0.40978 0.59548 0.0
H520 H 0.95098 0.41407 0.54016 0.0
H521 H 0.96694 0.37251 0.49896 0.0
H522 H 0.95519 0.43931 0.48246 0.0
H523 H 0.0266 0.56609 0.43465 0.0
H524 H 0.04525 0.49471 0.38592 0.0
H525 H 0.01092 0.3653 0.46602 0.0
C526 C 0.96908 0.52536 0.57385 0.0
C527 C 0.9682 0.58357 0.58018 0.0
C528 C 0.98138 0.61869 0.55062 0.0
C529 C -0.00481 0.59636 0.51514 0.0
C530 C -0.00434 0.53886 0.5098 0.0
C531 C 0.98308 0.50375 0.5384 0.0
C532 C 0.98704 0.44339 0.52558 0.0
C533 C -0.00113 0.4114 0.56513 0.0
C534 C 0.96364 0.4157 0.51091 0.0
C535 C 0.00378 0.45015 0.48527 0.0
C536 C 0.00841 0.5056 0.4767 0.0
C537 C 0.02328 0.52249 0.4412 0.0
C538 C 0.03391 0.48157 0.41393 0.0
C539 C 0.02979 0.42433 0.42246 0.0
C540 C 0.01433 0.40864 0.45846 0.0
H541 H 0.47222 0.59829 0.45451 0.0
H542 H 0.46384 0.47885 0.34404 0.0
H543 H 0.48398 0.40752 0.3908 0.0
H544 H 0.53085 0.55161 0.49067 0.0
H545 H 0.52477 0.56302 0.55067 0.0
H546 H 0.51026 0.60512 0.50794 0.0
H547 H 0.46928 0.57721 0.54129 0.0
H548 H 0.48365 0.53477 0.58392 0.0
H549 H 0.46176 0.50462 0.54636 0.0
H550 H 0.50386 0.34864 0.45001 0.0
H551 H 0.52349 0.30657 0.51725 0.0
H552 H 0.519 0.46433 0.58915 0.0
C553 C 0.47494 0.55738 0.43991 0.0
C554 C 0.46639 0.54401 0.39573 0.0
C555 C 0.46997 0.48974 0.37808 0.0
C556 C 0.48149 0.44905 0.40425 0.0
C557 C 0.48938 0.46337 0.4479 0.0
C558 C 0.4864 0.51625 0.46556 0.0
C559 C 0.49623 0.52046 0.51375 0.0
C560 C 0.51675 0.56254 0.51586 0.0
C561 C 0.47655 0.53512 0.54836 0.0
C562 C 0.50504 0.46158 0.5205 0.0
C563 C 0.50092 0.42936 0.48209 0.0
C564 C 0.50721 0.37342 0.4803 0.0
C565 C 0.51817 0.34981 0.51877 0.0
C566 C 0.52269 0.38213 0.55845 0.0
C567 C 0.51598 0.43873 0.55916 0.0
loop_
_geom_bond_atom_site_label_1
_geom_bond_atom_site_label_2
_geom_bond_distance
_geom_bond_site_symmetry_2
_ccdc_geom_bond_type
Li0 N17 1.990 . S
Li0 O60 1.956 . S
Li0 O61 1.970 . S
Li0 O62 1.961 . S
Li1 N25 1.990 . S
Li1 O60 1.970 . S
Li1 O61 1.956 . S
Li1 O63 1.961 . S
Li2 N47 1.990 . S
Li2 O60 1.961 . S
Li2 O62 1.956 . S
Li2 O63 1.970 . S
Li3 N53 1.990 . S
Li3 O61 1.961 . S
Li3 O62 1.970 . S
Li3 O63 1.956 . S
C4 C6 1.348 . S
C4 C7 1.356 . S
C4 O60 1.325 . S
N5 C8 1.314 . S
N5 C9 1.279 . S
C6 C4 1.348 . S
C6 C8 1.353 . S
C6 H64 0.929 . S
C7 C4 1.356 . S
C7 C9 1.358 . S
C7 H65 0.930 . S
C8 N5 1.314 . S
C8 C6 1.353 . S
C8 H66 0.930 . S
C9 N5 1.279 . S
C9 C7 1.358 . S
C9 H67 0.930 . S
C10 C13 1.348 . S
C10 C14 1.356 . S
C10 O61 1.325 . S
C11 N12 1.279 . S
C11 C14 1.358 . S
C11 H68 0.930 . S
N12 C11 1.279 . S
N12 C15 1.314 . S
C13 C10 1.348 . S
C13 C15 1.353 . S
C13 H69 0.929 . S
C14 C10 1.356 . S
C14 C11 1.358 . S
C14 H70 0.930 . S
C15 N12 1.314 . S
C15 C13 1.353 . S
C15 H71 0.930 . S
C16 N17 1.314 . S
C16 C21 1.353 . S
C16 H22 0.930 . S
N17 Li0 1.990 . S
N17 C16 1.314 . S
N17 C19 1.279 . S
C18 C19 1.358 . S
C18 C20 1.356 . S
C18 H72 0.930 . S
C19 N17 1.279 . S
C19 C18 1.358 . S
C19 H23 0.930 . S
C20 C18 1.356 . S
C20 C21 1.348 . S
C21 C16 1.353 . S
C21 C20 1.348 . S
C21 H73 0.929 . S
H22 C16 0.930 . S
H23 C19 0.930 . S
C24 N25 1.314 . S
C24 C26 1.353 . S
C24 H30 0.930 . S
N25 Li1 1.990 . S
N25 C24 1.314 . S
N25 C28 1.279 . S
C26 C24 1.353 . S
C26 C29 1.348 . S
C26 H74 0.929 . S
C27 C28 1.358 . S
C27 C29 1.356 . S
C27 H75 0.930 . S
C28 N25 1.279 . S
C28 C27 1.358 . S
C28 H31 0.930 . S
C29 C26 1.348 . S
C29 C27 1.356 . S
H30 C24 0.930 . S
H31 C28 0.930 . S
C32 C34 1.348 . S
C32 C35 1.356 . S
C32 O62 1.325 . S
N33 C36 1.314 . S
N33 C37 1.279 . S
C34 C32 1.348 . S
C34 C36 1.353 . S
C34 H76 0.929 . S
C35 C32 1.356 . S
C35 C37 1.358 . S
C35 H77 0.930 . S
C36 N33 1.314 . S
C36 C34 1.353 . S
C36 H78 0.930 . S
C37 N33 1.279 . S
C37 C35 1.358 . S
C37 H79 0.930 . S
C38 C39 1.348 . S
C38 C40 1.356 . S
C38 O63 1.325 . S
C39 C38 1.348 . S
C39 C41 1.353 . S
C39 H80 0.929 . S
C40 C38 1.356 . S
C40 C42 1.358 . S
C40 H81 0.930 . S
C41 C39 1.353 . S
C41 N43 1.314 . S
C41 H82 0.930 . S
C42 C40 1.358 . S
C42 N43 1.279 . S
C42 H83 0.930 . S
N43 C41 1.314 . S
N43 C42 1.279 . S
C44 C46 1.353 . S
C44 N47 1.314 . S
C44 H50 0.930 . S
C45 N47 1.279 . S
C45 C48 1.358 . S
C45 H51 0.930 . S
C46 C44 1.353 . S
C46 C49 1.348 . S
C46 H84 0.929 . S
N47 Li2 1.990 . S
N47 C44 1.314 . S
N47 C45 1.279 . S
C48 C45 1.358 . S
C48 C49 1.356 . S
C48 H85 0.930 . S
C49 C46 1.348 . S
C49 C48 1.356 . S
H50 C44 0.930 . S
H51 C45 0.930 . S
C52 N53 1.314 . S
C52 C54 1.353 . S
C52 H58 0.930 . S
N53 Li3 1.990 . S
N53 C52 1.314 . S
N53 C56 1.279 . S
C54 C52 1.353 . S
C54 C57 1.348 . S
C54 H86 0.929 . S
C55 C56 1.358 . S
C55 C57 1.356 . S
C55 H87 0.930 . S
C56 N53 1.279 . S
C56 C55 1.358 . S
C56 H59 0.930 . S
C57 C54 1.348 . S
C57 C55 1.356 . S
H58 C52 0.930 . S
H59 C56 0.930 . S
O60 Li0 1.956 . S
O60 Li1 1.970 . S
O60 Li2 1.961 . S
O60 C4 1.325 . S
O61 Li0 1.970 . S
O61 Li1 1.956 . S
O61 Li3 1.961 . S
O61 C10 1.325 . S
O62 Li0 1.961 . S
O62 Li2 1.956 . S
O62 Li3 1.970 . S
O62 C32 1.325 . S
O63 Li1 1.961 . S
O63 Li2 1.970 . S
O63 Li3 1.956 . S
O63 C38 1.325 . S
H64 C6 0.929 . S
H65 C7 0.930 . S
H66 C8 0.930 . S
H67 C9 0.930 . S
H68 C11 0.930 . S
H69 C13 0.929 . S
H70 C14 0.930 . S
H71 C15 0.930 . S
H72 C18 0.930 . S
H73 C21 0.929 . S
H74 C26 0.929 . S
H75 C27 0.930 . S
H76 C34 0.929 . S
H77 C35 0.930 . S
H78 C36 0.930 . S
H79 C37 0.930 . S
H80 C39 0.929 . S
H81 C40 0.930 . S
H82 C41 0.930 . S
H83 C42 0.930 . S
H84 C46 0.929 . S
H85 C48 0.930 . S
H86 C54 0.929 . S
H87 C55 0.930 . S
Li88 N105 1.990 . S
Li88 O148 1.956 . S
Li88 O149 1.970 . S
Li88 O150 1.961 . S
Li89 N113 1.990 . S
Li89 O148 1.970 . S
Li89 O149 1.956 . S
Li89 O151 1.961 . S
Li90 N135 1.990 . S
Li90 O148 1.961 . S
Li90 O150 1.956 . S
Li90 O151 1.970 . S
Li91 N141 1.990 . S
Li91 O149 1.961 . S
Li91 O150 1.970 . S
Li91 O151 1.956 . S
C92 C94 1.348 . S
C92 C95 1.356 . S
C92 O148 1.325 . S
N93 C96 1.314 . S
N93 C97 1.279 . S
C94 C92 1.348 . S
C94 C96 1.353 . S
C94 H152 0.929 . S
C95 C92 1.356 . S
C95 C97 1.358 . S
C95 H153 0.930 . S
C96 N93 1.314 . S
C96 C94 1.353 . S
C96 H154 0.930 . S
C97 N93 1.279 . S
C97 C95 1.358 . S
C97 H155 0.930 . S
C98 C101 1.348 . S
C98 C102 1.356 . S
C98 O149 1.325 . S
C99 N100 1.279 . S
C99 C102 1.358 . S
C99 H156 0.930 . S
N100 C99 1.279 . S
N100 C103 1.314 . S
C101 C98 1.348 . S
C101 C103 1.353 . S
C101 H157 0.929 . S
C102 C98 1.356 . S
C102 C99 1.358 . S
C102 H158 0.930 . S
C103 N100 1.314 . S
C103 C101 1.353 . S
C103 H159 0.930 . S
C104 N105 1.314 . S
C104 C109 1.353 . S
C104 H110 0.930 . S
N105 Li88 1.990 . S
N105 C104 1.314 . S
N105 C107 1.279 . S
C106 C107 1.358 . S
C106 C108 1.356 . S
C106 H160 0.930 . S
C107 N105 1.279 . S
C107 C106 1.358 . S
C107 H111 0.930 . S
C108 C106 1.356 . S
C108 C109 1.348 . S
C109 C104 1.353 . S
C109 C108 1.348 . S
C109 H161 0.929 . S
H110 C104 0.930 . S
H111 C107 0.930 . S
C112 N113 1.314 . S
C112 C114 1.353 . S
C112 H118 0.930 . S
N113 Li89 1.990 . S
N113 C112 1.314 . S
N113 C116 1.279 . S
C114 C112 1.353 . S
C114 C117 1.348 . S
C114 H162 0.929 . S
C115 C116 1.358 . S
C115 C117 1.356 . S
C115 H163 0.930 . S
C116 N113 1.279 . S
C116 C115 1.358 . S
C116 H119 0.930 . S
C117 C114 1.348 . S
C117 C115 1.356 . S
H118 C112 0.930 . S
H119 C116 0.930 . S
C120 C122 1.348 . S
C120 C123 1.356 . S
C120 O150 1.325 . S
N121 C124 1.314 . S
N121 C125 1.279 . S
C122 C120 1.348 . S
C122 C124 1.353 . S
C122 H164 0.929 . S
C123 C120 1.356 . S
C123 C125 1.358 . S
C123 H165 0.930 . S
C124 N121 1.314 . S
C124 C122 1.353 . S
C124 H166 0.930 . S
C125 N121 1.279 . S
C125 C123 1.358 . S
C125 H167 0.930 . S
C126 C127 1.348 . S
C126 C128 1.356 . S
C126 O151 1.325 . S
C127 C126 1.348 . S
C127 C129 1.353 . S
C127 H168 0.929 . S
C128 C126 1.356 . S
C128 C130 1.358 . S
C128 H169 0.930 . S
C129 C127 1.353 . S
C129 N131 1.314 . S
C129 H170 0.930 . S
C130 C128 1.358 . S
C130 N131 1.279 . S
C130 H171 0.930 . S
N131 C129 1.314 . S
N131 C130 1.279 . S
C132 C134 1.353 . S
C132 N135 1.314 . S
C132 H138 0.930 . S
C133 N135 1.279 . S
C133 C136 1.358 . S
C133 H139 0.930 . S
C134 C132 1.353 . S
C134 C137 1.348 . S
C134 H172 0.929 . S
N135 Li90 1.990 . S
N135 C132 1.314 . S
N135 C133 1.279 . S
C136 C133 1.358 . S
C136 C137 1.356 . S
C136 H173 0.930 . S
C137 C134 1.348 . S
C137 C136 1.356 . S
H138 C132 0.930 . S
H139 C133 0.930 . S
C140 N141 1.314 . S
C140 C142 1.353 . S
C140 H146 0.930 . S
N141 Li91 1.990 . S
N141 C140 1.314 . S
N141 C144 1.279 . S
C142 C140 1.353 . S
C142 C145 1.348 . S
C142 H174 0.929 . S
C143 C144 1.358 . S
C143 C145 1.356 . S
C143 H175 0.930 . S
C144 N141 1.279 . S
C144 C143 1.358 . S
C144 H147 0.930 . S
C145 C142 1.348 . S
C145 C143 1.356 . S
H146 C140 0.930 . S
H147 C144 0.930 . S
O148 Li88 1.956 . S
O148 Li89 1.970 . S
O148 Li90 1.961 . S
O148 C92 1.325 . S
O149 Li88 1.970 . S
O149 Li89 1.956 . S
O149 Li91 1.961 . S
O149 C98 1.325 . S
O150 Li88 1.961 . S
O150 Li90 1.956 . S
O150 Li91 1.970 . S
O150 C120 1.325 . S
O151 Li89 1.961 . S
O151 Li90 1.970 . S
O151 Li91 1.956 . S
O151 C126 1.325 . S
H152 C94 0.929 . S
H153 C95 0.930 . S
H154 C96 0.930 . S
H155 C97 0.930 . S
H156 C99 0.930 . S
H157 C101 0.929 . S
H158 C102 0.930 . S
H159 C103 0.930 . S
H160 C106 0.930 . S
H161 C109 0.929 . S
H162 C114 0.929 . S
H163 C115 0.930 . S
H164 C122 0.929 . S
H165 C123 0.930 . S
H166 C124 0.930 . S
H167 C125 0.930 . S
H168 C127 0.929 . S
H169 C128 0.930 . S
H170 C129 0.930 . S
H171 C130 0.930 . S
H172 C134 0.929 . S
H173 C136 0.930 . S
H174 C142 0.929 . S
H175 C143 0.930 . S
Li176 N193 1.990 . S
Li176 O236 1.956 . S
Li176 O237 1.970 . S
Li176 O238 1.961 . S
Li177 N201 1.990 . S
Li177 O236 1.970 . S
Li177 O237 1.956 . S
Li177 O239 1.961 . S
Li178 N223 1.990 . S
Li178 O236 1.961 . S
Li178 O238 1.956 . S
Li178 O239 1.970 . S
Li179 N229 1.990 . S
Li179 O237 1.961 . S
Li179 O238 1.970 . S
Li179 O239 1.956 . S
C180 C182 1.348 . S
C180 C183 1.356 . S
C180 O236 1.325 . S
N181 C184 1.314 . S
N181 C185 1.279 . S
C182 C180 1.348 . S
C182 C184 1.353 . S
C182 H240 0.929 . S
C183 C180 1.356 . S
C183 C185 1.358 . S
C183 H241 0.930 . S
C184 N181 1.314 . S
C184 C182 1.353 . S
C184 H242 0.930 . S
C185 N181 1.279 . S
C185 C183 1.358 . S
C185 H243 0.930 . S
C186 C189 1.348 . S
C186 C190 1.356 . S
C186 O237 1.325 . S
C187 N188 1.279 . S
C187 C190 1.358 . S
C187 H244 0.930 . S
N188 C187 1.279 . S
N188 C191 1.314 . S
C189 C186 1.348 . S
C189 C191 1.353 . S
C189 H245 0.929 . S
C190 C186 1.356 . S
C190 C187 1.358 . S
C190 H246 0.930 . S
C191 N188 1.314 . S
C191 C189 1.353 . S
C191 H247 0.930 . S
C192 N193 1.314 . S
C192 C197 1.353 . S
C192 H198 0.930 . S
N193 Li176 1.990 . S
N193 C192 1.314 . S
N193 C195 1.279 . S
C194 C195 1.358 . S
C194 C196 1.356 . S
C194 H248 0.930 . S
C195 N193 1.279 . S
C195 C194 1.358 . S
C195 H199 0.930 . S
C196 C194 1.356 . S
C196 C197 1.348 . S
C197 C192 1.353 . S
C197 C196 1.348 . S
C197 H249 0.929 . S
H198 C192 0.930 . S
H199 C195 0.930 . S
C200 N201 1.314 . S
C200 C202 1.353 . S
C200 H206 0.930 . S
N201 Li177 1.990 . S
N201 C200 1.314 . S
N201 C204 1.279 . S
C202 C200 1.353 . S
C202 C205 1.348 . S
C202 H250 0.929 . S
C203 C204 1.358 . S
C203 C205 1.356 . S
C203 H251 0.930 . S
C204 N201 1.279 . S
C204 C203 1.358 . S
C204 H207 0.930 . S
C205 C202 1.348 . S
C205 C203 1.356 . S
H206 C200 0.930 . S
H207 C204 0.930 . S
C208 C210 1.348 . S
C208 C211 1.356 . S
C208 O238 1.325 . S
N209 C212 1.314 . S
N209 C213 1.279 . S
C210 C208 1.348 . S
C210 C212 1.353 . S
C210 H252 0.929 . S
C211 C208 1.356 . S
C211 C213 1.358 . S
C211 H253 0.930 . S
C212 N209 1.314 . S
C212 C210 1.353 . S
C212 H254 0.930 . S
C213 N209 1.279 . S
C213 C211 1.358 . S
C213 H255 0.930 . S
C214 C215 1.348 . S
C214 C216 1.356 . S
C214 O239 1.325 . S
C215 C214 1.348 . S
C215 C217 1.353 . S
C215 H256 0.929 . S
C216 C214 1.356 . S
C216 C218 1.358 . S
C216 H257 0.930 . S
C217 C215 1.353 . S
C217 N219 1.314 . S
C217 H258 0.930 . S
C218 C216 1.358 . S
C218 N219 1.279 . S
C218 H259 0.930 . S
N219 C217 1.314 . S
N219 C218 1.279 . S
C220 C222 1.353 . S
C220 N223 1.314 . S
C220 H226 0.930 . S
C221 N223 1.279 . S
C221 C224 1.358 . S
C221 H227 0.930 . S
C222 C220 1.353 . S
C222 C225 1.348 . S
C222 H260 0.929 . S
N223 Li178 1.990 . S
N223 C220 1.314 . S
N223 C221 1.279 . S
C224 C221 1.358 . S
C224 C225 1.356 . S
C224 H261 0.930 . S
C225 C222 1.348 . S
C225 C224 1.356 . S
H226 C220 0.930 . S
H227 C221 0.930 . S
C228 N229 1.314 . S
C228 C230 1.353 . S
C228 H234 0.930 . S
N229 Li179 1.990 . S
N229 C228 1.314 . S
N229 C232 1.279 . S
C230 C228 1.353 . S
C230 C233 1.348 . S
C230 H262 0.929 . S
C231 C232 1.358 . S
C231 C233 1.356 . S
C231 H263 0.930 . S
C232 N229 1.279 . S
C232 C231 1.358 . S
C232 H235 0.930 . S
C233 C230 1.348 . S
C233 C231 1.356 . S
H234 C228 0.930 . S
H235 C232 0.930 . S
O236 Li176 1.956 . S
O236 Li177 1.970 . S
O236 Li178 1.961 . S
O236 C180 1.325 . S
O237 Li176 1.970 . S
O237 Li177 1.956 . S
O237 Li179 1.961 . S
O237 C186 1.325 . S
O238 Li176 1.961 . S
O238 Li178 1.956 . S
O238 Li179 1.970 . S
O238 C208 1.325 . S
O239 Li177 1.961 . S
O239 Li178 1.970 . S
O239 Li179 1.956 . S
O239 C214 1.325 . S
H240 C182 0.929 . S
H241 C183 0.930 . S
H242 C184 0.930 . S
H243 C185 0.930 . S
H244 C187 0.930 . S
H245 C189 0.929 . S
H246 C190 0.930 . S
H247 C191 0.930 . S
H248 C194 0.930 . S
H249 C197 0.929 . S
H250 C202 0.929 . S
H251 C203 0.930 . S
H252 C210 0.929 . S
H253 C211 0.930 . S
H254 C212 0.930 . S
H255 C213 0.930 . S
H256 C215 0.929 . S
H257 C216 0.930 . S
H258 C217 0.930 . S
H259 C218 0.930 . S
H260 C222 0.929 . S
H261 C224 0.930 . S
H262 C230 0.929 . S
H263 C231 0.930 . S
Li264 N281 1.990 . S
Li264 O324 1.956 . S
Li264 O325 1.970 . S
Li264 O326 1.961 . S
Li265 N289 1.990 . S
Li265 O324 1.970 . S
Li265 O325 1.956 . S
Li265 O327 1.961 . S
Li266 N311 1.990 . S
Li266 O324 1.961 . S
Li266 O326 1.956 . S
Li266 O327 1.970 . S
Li267 N317 1.990 . S
Li267 O325 1.961 . S
Li267 O326 1.970 . S
Li267 O327 1.956 . S
C268 C270 1.348 . S
C268 C271 1.356 . S
C268 O324 1.325 . S
N269 C272 1.314 . S
N269 C273 1.279 . S
C270 C268 1.348 . S
C270 C272 1.353 . S
C270 H328 0.929 . S
C271 C268 1.356 . S
C271 C273 1.358 . S
C271 H329 0.930 . S
C272 N269 1.314 . S
C272 C270 1.353 . S
C272 H330 0.930 . S
C273 N269 1.279 . S
C273 C271 1.358 . S
C273 H331 0.930 . S
C274 C277 1.348 . S
C274 C278 1.356 . S
C274 O325 1.325 . S
C275 N276 1.279 . S
C275 C278 1.358 . S
C275 H332 0.930 . S
N276 C275 1.279 . S
N276 C279 1.314 . S
C277 C274 1.348 . S
C277 C279 1.353 . S
C277 H333 0.929 . S
C278 C274 1.356 . S
C278 C275 1.358 . S
C278 H334 0.930 . S
C279 N276 1.314 . S
C279 C277 1.353 . S
C279 H335 0.930 . S
C280 N281 1.314 . S
C280 C285 1.353 . S
C280 H286 0.930 . S
N281 Li264 1.990 . S
N281 C280 1.314 . S
N281 C283 1.279 . S
C282 C283 1.358 . S
C282 C284 1.356 . S
C282 H336 0.930 . S
C283 N281 1.279 . S
C283 C282 1.358 . S
C283 H287 0.930 . S
C284 C282 1.356 . S
C284 C285 1.348 . S
C285 C280 1.353 . S
C285 C284 1.348 . S
C285 H337 0.929 . S
H286 C280 0.930 . S
H287 C283 0.930 . S
C288 N289 1.314 . S
C288 C290 1.353 . S
C288 H294 0.930 . S
N289 Li265 1.990 . S
N289 C288 1.314 . S
N289 C292 1.279 . S
C290 C288 1.353 . S
C290 C293 1.348 . S
C290 H338 0.929 . S
C291 C292 1.358 . S
C291 C293 1.356 . S
C291 H339 0.930 . S
C292 N289 1.279 . S
C292 C291 1.358 . S
C292 H295 0.930 . S
C293 C290 1.348 . S
C293 C291 1.356 . S
H294 C288 0.930 . S
H295 C292 0.930 . S
C296 C298 1.348 . S
C296 C299 1.356 . S
C296 O326 1.325 . S
N297 C300 1.314 . S
N297 C301 1.279 . S
C298 C296 1.348 . S
C298 C300 1.353 . S
C298 H340 0.929 . S
C299 C296 1.356 . S
C299 C301 1.358 . S
C299 H341 0.930 . S
C300 N297 1.314 . S
C300 C298 1.353 . S
C300 H342 0.930 . S
C301 N297 1.279 . S
C301 C299 1.358 . S
C301 H343 0.930 . S
C302 C303 1.348 . S
C302 C304 1.356 . S
C302 O327 1.325 . S
C303 C302 1.348 . S
C303 C305 1.353 . S
C303 H344 0.929 . S
C304 C302 1.356 . S
C304 C306 1.358 . S
C304 H345 0.930 . S
C305 C303 1.353 . S
C305 N307 1.314 . S
C305 H346 0.930 . S
C306 C304 1.358 . S
C306 N307 1.279 . S
C306 H347 0.930 . S
N307 C305 1.314 . S
N307 C306 1.279 . S
C308 C310 1.353 . S
C308 N311 1.314 . S
C308 H314 0.930 . S
C309 N311 1.279 . S
C309 C312 1.358 . S
C309 H315 0.930 . S
C310 C308 1.353 . S
C310 C313 1.348 . S
C310 H348 0.929 . S
N311 Li266 1.990 . S
N311 C308 1.314 . S
N311 C309 1.279 . S
C312 C309 1.358 . S
C312 C313 1.356 . S
C312 H349 0.930 . S
C313 C310 1.348 . S
C313 C312 1.356 . S
H314 C308 0.930 . S
H315 C309 0.930 . S
C316 N317 1.314 . S
C316 C318 1.353 . S
C316 H322 0.930 . S
N317 Li267 1.990 . S
N317 C316 1.314 . S
N317 C320 1.279 . S
C318 C316 1.353 . S
C318 C321 1.348 . S
C318 H350 0.929 . S
C319 C320 1.358 . S
C319 C321 1.356 . S
C319 H351 0.930 . S
C320 N317 1.279 . S
C320 C319 1.358 . S
C320 H323 0.930 . S
C321 C318 1.348 . S
C321 C319 1.356 . S
H322 C316 0.930 . S
H323 C320 0.930 . S
O324 Li264 1.956 . S
O324 Li265 1.970 . S
O324 Li266 1.961 . S
O324 C268 1.325 . S
O325 Li264 1.970 . S
O325 Li265 1.956 . S
O325 Li267 1.961 . S
O325 C274 1.325 . S
O326 Li264 1.961 . S
O326 Li266 1.956 . S
O326 Li267 1.970 . S
O326 C296 1.325 . S
O327 Li265 1.961 . S
O327 Li266 1.970 . S
O327 Li267 1.956 . S
O327 C302 1.325 . S
H328 C270 0.929 . S
H329 C271 0.930 . S
H330 C272 0.930 . S
H331 C273 0.930 . S
H332 C275 0.930 . S
H333 C277 0.929 . S
H334 C278 0.930 . S
H335 C279 0.930 . S
H336 C282 0.930 . S
H337 C285 0.929 . S
H338 C290 0.929 . S
H339 C291 0.930 . S
H340 C298 0.929 . S
H341 C299 0.930 . S
H342 C300 0.930 . S
H343 C301 0.930 . S
H344 C303 0.929 . S
H345 C304 0.930 . S
H346 C305 0.930 . S
H347 C306 0.930 . S
H348 C310 0.929 . S
H349 C312 0.930 . S
H350 C318 0.929 . S
H351 C319 0.930 . S
H352 C364 0.930 . S
H353 C366 0.930 . S
H354 C367 0.930 . S
H355 C371 0.959 . S
H356 C371 0.959 . S
H357 C371 0.961 . S
H358 C372 0.961 . S
H359 C372 0.961 . S
H360 C372 0.955 1_545 S
H361 C375 0.929 . S
H362 C376 0.931 . S
H363 C378 0.930 . S
C364 H352 0.930 . S
C364 C365 1.399 . S
C364 C369 1.399 . S
C365 C364 1.399 . S
C365 C366 1.376 1_565 S
C366 H353 0.930 . S
C366 C365 1.376 1_545 S
C366 C367 1.388 . S
C367 H354 0.930 . S
C367 C366 1.388 . S
C367 C368 1.390 . S
C368 C367 1.390 . S
C368 C369 1.394 1_545 S
C368 C374 1.465 . S
C369 C364 1.399 . S
C369 C368 1.394 1_565 S
C369 C370 1.516 . S
C370 C369 1.516 . S
C370 C371 1.502 . S
C370 C372 1.563 . S
C370 C373 1.526 . S
C371 H355 0.959 . S
C371 H356 0.959 . S
C371 H357 0.961 . S
C371 C370 1.502 . S
C372 H358 0.961 . S
C372 H359 0.961 . S
C372 H360 0.955 1_565 S
C372 C370 1.563 . S
C373 C370 1.526 . S
C373 C374 1.396 1_565 S
C373 C378 1.390 . S
C374 C368 1.465 . S
C374 C373 1.396 1_545 S
C374 C375 1.399 . S
C375 H361 0.929 . S
C375 C374 1.399 . S
C375 C376 1.385 . S
C376 H362 0.931 . S
C376 C375 1.385 . S
C376 C377 1.389 . S
C377 C376 1.389 . S
C377 C378 1.387 1_545 S
C378 H363 0.930 . S
C378 C373 1.390 . S
C378 C377 1.387 1_565 S
H379 C391 0.930 . S
H380 C393 0.930 . S
H381 C394 0.930 . S
H382 C398 0.959 . S
H383 C398 0.959 . S
H384 C398 0.961 . S
H385 C399 0.960 . S
H386 C399 0.961 . S
H387 C399 0.959 . S
H388 C402 0.929 . S
H389 C403 0.931 . S
H390 C405 0.930 . S
C391 H379 0.930 . S
C391 C392 1.399 . S
C391 C396 1.399 . S
C392 C391 1.399 . S
C392 C393 1.376 . S
C393 H380 0.930 . S
C393 C392 1.376 . S
C393 C394 1.388 . S
C394 H381 0.930 . S
C394 C393 1.388 . S
C394 C395 1.390 . S
C395 C394 1.390 . S
C395 C396 1.394 . S
C395 C401 1.465 . S
C396 C391 1.399 . S
C396 C395 1.394 . S
C396 C397 1.516 . S
C397 C396 1.516 . S
C397 C398 1.502 . S
C397 C399 1.561 . S
C397 C400 1.526 . S
C398 H382 0.959 . S
C398 H383 0.959 . S
C398 H384 0.961 . S
C398 C397 1.502 . S
C399 H385 0.960 . S
C399 H386 0.961 . S
C399 H387 0.959 . S
C399 C397 1.561 . S
C400 C397 1.526 . S
C400 C401 1.396 . S
C400 C405 1.390 . S
C401 C395 1.465 . S
C401 C400 1.396 . S
C401 C402 1.399 . S
C402 H388 0.929 . S
C402 C401 1.399 . S
C402 C403 1.385 . S
C403 H389 0.931 . S
C403 C402 1.385 . S
C403 C404 1.389 . S
C404 C403 1.389 . S
C404 C405 1.387 . S
C405 H390 0.930 . S
C405 C400 1.390 . S
C405 C404 1.387 . S
H406 C418 0.930 . S
H407 C420 0.930 . S
H408 C421 0.930 . S
H409 C425 0.959 . S
H410 C425 0.959 . S
H411 C425 0.961 . S
H412 C426 0.960 . S
H413 C426 0.961 . S
H414 C426 0.959 . S
H415 C429 0.929 . S
H416 C430 0.931 . S
H417 C432 0.932 . S
C418 H406 0.930 . S
C418 C419 1.399 . S
C418 C423 1.399 . S
C419 C418 1.399 . S
C419 C420 1.376 1_545 S
C420 H407 0.930 . S
C420 C419 1.376 1_565 S
C420 C421 1.388 . S
C421 H408 0.930 . S
C421 C420 1.388 . S
C421 C422 1.390 . S
C422 C421 1.390 . S
C422 C423 1.394 1_565 S
C422 C428 1.465 . S
C423 C418 1.399 . S
C423 C422 1.394 1_545 S
C423 C424 1.516 . S
C424 C423 1.516 . S
C424 C425 1.502 . S
C424 C426 1.561 1_545 S
C424 C427 1.526 . S
C425 H409 0.959 . S
C425 H410 0.959 . S
C425 H411 0.961 . S
C425 C424 1.502 . S
C426 H412 0.960 . S
C426 H413 0.961 . S
C426 H414 0.959 . S
C426 C424 1.561 1_565 S
C427 C424 1.526 . S
C427 C428 1.396 1_545 S
C427 C432 1.390 . S
C428 C422 1.465 . S
C428 C427 1.396 1_565 S
C428 C429 1.399 . S
C429 H415 0.929 . S
C429 C428 1.399 . S
C429 C430 1.385 . S
C430 H416 0.931 . S
C430 C429 1.385 . S
C430 C431 1.389 . S
C431 C430 1.389 . S
C431 C432 1.384 1_565 S
C432 H417 0.932 . S
C432 C427 1.390 . S
C432 C431 1.384 1_545 S
H433 C445 0.930 . S
H434 C447 0.930 . S
H435 C448 0.930 . S
H436 C452 0.959 . S
H437 C452 0.959 . S
H438 C452 0.961 . S
H439 C453 0.960 . S
H440 C453 0.961 . S
H441 C453 0.959 . S
H442 C456 0.929 . S
H443 C457 0.931 . S
H444 C459 0.930 . S
C445 H433 0.930 . S
C445 C446 1.399 . S
C445 C450 1.399 . S
C446 C445 1.399 . S
C446 C447 1.376 . S
C447 H434 0.930 . S
C447 C446 1.376 . S
C447 C448 1.388 . S
C448 H435 0.930 . S
C448 C447 1.388 . S
C448 C449 1.390 . S
C449 C448 1.390 . S
C449 C450 1.394 . S
C449 C455 1.465 . S
C450 C445 1.399 . S
C450 C449 1.394 . S
C450 C451 1.516 . S
C451 C450 1.516 . S
C451 C452 1.502 . S
C451 C453 1.561 . S
C451 C454 1.526 . S
C452 H436 0.959 . S
C452 H437 0.959 . S
C452 H438 0.961 . S
C452 C451 1.502 . S
C453 H439 0.960 . S
C453 H440 0.961 . S
C453 H441 0.959 . S
C453 C451 1.561 . S
C454 C451 1.526 . S
C454 C455 1.396 . S
C454 C459 1.390 . S
C455 C449 1.465 . S
C455 C454 1.396 . S
C455 C456 1.399 . S
C456 H442 0.929 . S
C456 C455 1.399 . S
C456 C457 1.385 . S
C457 H443 0.931 . S
C457 C456 1.385 . S
C457 C458 1.389 . S
C458 C457 1.389 . S
C458 C459 1.387 . S
C459 H444 0.930 . S
C459 C454 1.390 . S
C459 C458 1.387 . S
H460 C472 0.930 1_556 S
H461 C474 0.930 . S
H462 C475 0.961 . S
H463 C479 0.959 1_655 S
H464 C479 0.959 . S
H465 C479 0.961 . S
H466 C480 0.960 . S
H467 C480 0.961 . S
H468 C480 0.959 . S
H469 C483 0.929 . S
H470 C484 0.931 . S
H471 C486 0.930 . S
C472 H460 0.930 1_554 S
C472 C473 1.399 . S
C472 C477 1.399 1_554 S
C473 C472 1.399 . S
C473 C474 1.376 . S
C474 H461 0.930 . S
C474 C473 1.376 . S
C474 C475 1.363 1_455 S
C475 H462 0.961 . S
C475 C474 1.363 1_655 S
C475 C476 1.386 1_655 S
C476 C475 1.386 1_455 S
C476 C477 1.394 1_554 S
C476 C482 1.465 1_445 S
C477 C472 1.399 1_556 S
C477 C476 1.394 1_556 S
C477 C478 1.516 . S
C478 C477 1.516 . S
C478 C479 1.502 . S
C478 C480 1.561 1_545 S
C478 C481 1.526 1_445 S
C479 H463 0.959 1_455 S
C479 H464 0.959 . S
C479 H465 0.961 . S
C479 C478 1.502 . S
C480 H466 0.960 . S
C480 H467 0.961 . S
C480 H468 0.959 . S
C480 C478 1.561 1_565 S
C481 C478 1.526 1_665 S
C481 C482 1.396 1_556 S
C481 C486 1.390 . S
C482 C476 1.465 1_665 S
C482 C481 1.396 1_554 S
C482 C483 1.399 . S
C483 H469 0.929 . S
C483 C482 1.399 . S
C483 C484 1.385 . S
C484 H470 0.931 . S
C484 C483 1.385 . S
C484 C485 1.389 1_554 S
C485 C484 1.389 1_556 S
C485 C486 1.387 . S
C486 H471 0.930 . S
C486 C481 1.390 . S
C486 C485 1.387 . S
H487 C499 0.930 1_554 S
H488 C501 0.930 . S
H489 C502 0.930 . S
H490 C506 0.959 . S
H491 C506 0.959 . S
H492 C506 0.961 . S
H493 C507 0.960 . S
H494 C507 0.961 . S
H495 C507 0.959 . S
H496 C510 0.929 . S
H497 C511 0.931 . S
H498 C513 0.930 . S
C499 H487 0.930 1_556 S
C499 C500 1.399 . S
C499 C504 1.399 1_556 S
C500 C499 1.399 . S
C500 C501 1.376 . S
C501 H488 0.930 . S
C501 C500 1.376 . S
C501 C502 1.388 . S
C502 H489 0.930 . S
C502 C501 1.388 . S
C502 C503 1.390 . S
C503 C502 1.390 . S
C503 C504 1.394 1_556 S
C503 C509 1.465 1_545 S
C504 C499 1.399 1_554 S
C504 C503 1.394 1_554 S
C504 C505 1.516 . S
C505 C504 1.516 . S
C505 C506 1.502 . S
C505 C507 1.561 . S
C505 C508 1.526 1_545 S
C506 H490 0.959 . S
C506 H491 0.959 . S
C506 H492 0.961 . S
C506 C505 1.502 . S
C507 H493 0.960 . S
C507 H494 0.961 . S
C507 H495 0.959 . S
C507 C505 1.561 . S
C508 C505 1.526 1_565 S
C508 C509 1.396 1_554 S
C508 C513 1.390 . S
C509 C503 1.465 1_565 S
C509 C508 1.396 1_556 S
C509 C510 1.399 . S
C510 H496 0.929 . S
C510 C509 1.399 . S
C510 C511 1.385 . S
C511 H497 0.931 . S
C511 C510 1.385 . S
C511 C512 1.389 1_556 S
C512 C511 1.389 1_554 S
C512 C513 1.387 . S
C513 H498 0.930 . S
C513 C508 1.390 . S
C513 C512 1.387 . S
H514 C526 0.930 . S
H515 C528 0.930 . S
H516 C529 0.930 . S
H517 C533 0.959 . S
H518 C533 0.959 . S
H519 C533 0.961 . S
H520 C534 0.960 . S
H521 C534 0.961 . S
H522 C534 0.959 . S
H523 C537 0.929 . S
H524 C538 0.931 . S
H525 C540 0.930 . S
C526 H514 0.930 . S
C526 C527 1.399 . S
C526 C531 1.399 . S
C527 C526 1.399 . S
C527 C528 1.376 . S
C528 H515 0.930 . S
C528 C527 1.376 . S
C528 C529 1.388 . S
C529 H516 0.930 . S
C529 C528 1.388 . S
C529 C530 1.390 . S
C530 C529 1.390 . S
C530 C531 1.394 . S
C530 C536 1.465 1_655 S
C531 C526 1.399 . S
C531 C530 1.394 . S
C531 C532 1.527 . S
C532 C531 1.527 . S
C532 C533 1.482 1_655 S
C532 C534 1.583 . S
C532 C535 1.516 1_655 S
C533 H517 0.959 . S
C533 H518 0.959 . S
C533 H519 0.961 . S
C533 C532 1.482 1_455 S
C534 H520 0.960 . S
C534 H521 0.961 . S
C534 H522 0.959 . S
C534 C532 1.583 . S
C535 C532 1.516 1_455 S
C535 C536 1.396 . S
C535 C540 1.390 . S
C536 C530 1.465 1_455 S
C536 C535 1.396 . S
C536 C537 1.399 . S
C537 H523 0.929 . S
C537 C536 1.399 . S
C537 C538 1.385 . S
C538 H524 0.931 . S
C538 C537 1.385 . S
C538 C539 1.389 . S
C539 C538 1.389 . S
C539 C540 1.387 . S
C540 H525 0.930 . S
C540 C535 1.390 . S
C540 C539 1.387 . S
H541 C553 0.930 . S
H542 C555 0.930 . S
H543 C556 0.930 . S
H544 C560 0.959 . S
H545 C560 0.959 . S
H546 C560 0.961 . S
H547 C561 0.960 . S
H548 C561 0.961 . S
H549 C561 0.959 . S
H550 C564 0.929 . S
H551 C565 0.931 . S
H552 C567 0.930 . S
C553 H541 0.930 . S
C553 C554 1.399 . S
C553 C558 1.399 . S
C554 C553 1.399 . S
C554 C555 1.376 . S
C555 H542 0.930 . S
C555 C554 1.376 . S
C555 C556 1.388 . S
C556 H543 0.930 . S
C556 C555 1.388 . S
C556 C557 1.390 . S
C557 C556 1.390 . S
C557 C558 1.394 . S
C557 C563 1.465 . S
C558 C553 1.399 . S
C558 C557 1.394 . S
C558 C559 1.516 . S
C559 C558 1.516 . S
C559 C560 1.502 . S
C559 C561 1.561 . S
C559 C562 1.526 . S
C560 H544 0.959 . S
C560 H545 0.959 . S
C560 H546 0.961 . S
C560 C559 1.502 . S
C561 H547 0.960 . S
C561 H548 0.961 . S
C561 H549 0.959 . S
C561 C559 1.561 . S
C562 C559 1.526 . S
C562 C563 1.396 . S
C562 C567 1.390 . S
C563 C557 1.465 . S
C563 C562 1.396 . S
C563 C564 1.399 . S
C564 H550 0.929 . S
C564 C563 1.399 . S
C564 C565 1.385 . S
C565 H551 0.931 . S
C565 C564 1.385 . S
C565 C566 1.389 . S
C566 C565 1.389 . S
C566 C567 1.387 . S
C567 H552 0.930 . S
C567 C562 1.390 . S
C567 C566 1.387 . S
C365 C145 0.843 . S
C377 C29 0.687 . S
C392 C20 0.800 . S
C404 C137 0.724 . S
C419 C284 0.878 . S
C431 C196 0.765 . S
C446 C233 0.877 . S
C458 C321 0.715 . S
C473 C49 1.839 . S
C485 C205 1.881 . S
C500 C293 1.842 . S
C512 C108 1.894 . S
C527 C225 1.881 . S
C539 C57 1.840 . S
C554 C117 1.835 . S
C566 C313 1.896 . S
