# Generated by pormake.
# Topology upd, (4)-cn, num edge types: 1
# Building blocks:
#     Node 0, Type 0, BuildingBlock: MUDLON_clean_sbu_0, # of connection points: 4
#     Node 1, Type 0, BuildingBlock: MUDLON_clean_sbu_0, # of connection points: 4
#     Node 2, Type 0, BuildingBlock: MUDLON_clean_sbu_0, # of connection points: 4
#     Node 3, Type 0, BuildingBlock: MUDLON_clean_sbu_0, # of connection points: 4
#     Node 4, Type 0, BuildingBlock: MUDLON_clean_sbu_0, # of connection points: 4
#     Node 5, Type 0, BuildingBlock: MUDLON_clean_sbu_0, # of connection points: 4
#     Node 6, Type 0, BuildingBlock: MUDLON_clean_sbu_0, # of connection points: 4
#     Node 7, Type 0, BuildingBlock: MUDLON_clean_sbu_0, # of connection points: 4
#     Node 8, Type 0, BuildingBlock: MUDLON_clean_sbu_0, # of connection points: 4
#     Node 9, Type 0, BuildingBlock: MUDLON_clean_sbu_0, # of connection points: 4
#     Node 10, Type 0, BuildingBlock: MUDLON_clean_sbu_0, # of connection points: 4
#     Node 11, Type 0, BuildingBlock: MUDLON_clean_sbu_0, # of connection points: 4
#     Node 12, Type 0, BuildingBlock: MUDLON_clean_sbu_0, # of connection points: 4
#     Node 13, Type 0, BuildingBlock: MUDLON_clean_sbu_0, # of connection points: 4
#     Node 14, Type 0, BuildingBlock: MUDLON_clean_sbu_0, # of connection points: 4
#     Node 15, Type 0, BuildingBlock: MUDLON_clean_sbu_0, # of connection points: 4
#     Node 16, Type 0, BuildingBlock: MUDLON_clean_sbu_0, # of connection points: 4
#     Node 17, Type 0, BuildingBlock: MUDLON_clean_sbu_0, # of connection points: 4
#     Node 18, Type 0, BuildingBlock: MUDLON_clean_sbu_0, # of connection points: 4
#     Node 19, Type 0, BuildingBlock: MUDLON_clean_sbu_0, # of connection points: 4
#     Node 20, Type 0, BuildingBlock: MUDLON_clean_sbu_0, # of connection points: 4
#     Node 21, Type 0, BuildingBlock: MUDLON_clean_sbu_0, # of connection points: 4
#     Node 22, Type 0, BuildingBlock: MUDLON_clean_sbu_0, # of connection points: 4
#     Node 23, Type 0, BuildingBlock: MUDLON_clean_sbu_0, # of connection points: 4
#     Node 24, Type 0, BuildingBlock: MUDLON_clean_sbu_0, # of connection points: 4
#     Node 25, Type 0, BuildingBlock: MUDLON_clean_sbu_0, # of connection points: 4
#     Node 26, Type 0, BuildingBlock: MUDLON_clean_sbu_0, # of connection points: 4
#     Node 27, Type 0, BuildingBlock: MUDLON_clean_sbu_0, # of connection points: 4
#     Node 28, Type 0, BuildingBlock: MUDLON_clean_sbu_0, # of connection points: 4
#     Node 29, Type 0, BuildingBlock: MUDLON_clean_sbu_0, # of connection points: 4
#     Node 30, Type 0, BuildingBlock: MUDLON_clean_sbu_0, # of connection points: 4
#     Node 31, Type 0, BuildingBlock: MUDLON_clean_sbu_0, # of connection points: 4
#     Edge 32, Type (0, 0), BuildingBlock: ZUJKAS_clean_linker_0, # of connection points: 2
#     Edge 33, Type (0, 0), BuildingBlock: ZUJKAS_clean_linker_0, # of connection points: 2
#     Edge 34, Type (0, 0), BuildingBlock: ZUJKAS_clean_linker_0, # of connection points: 2
#     Edge 35, Type (0, 0), BuildingBlock: ZUJKAS_clean_linker_0, # of connection points: 2
#     Edge 36, Type (0, 0), BuildingBlock: ZUJKAS_clean_linker_0, # of connection points: 2
#     Edge 37, Type (0, 0), BuildingBlock: ZUJKAS_clean_linker_0, # of connection points: 2
#     Edge 38, Type (0, 0), BuildingBlock: ZUJKAS_clean_linker_0, # of connection points: 2
#     Edge 39, Type (0, 0), BuildingBlock: ZUJKAS_clean_linker_0, # of connection points: 2
#     Edge 40, Type (0, 0), BuildingBlock: ZUJKAS_clean_linker_0, # of connection points: 2
#     Edge 41, Type (0, 0), BuildingBlock: ZUJKAS_clean_linker_0, # of connection points: 2
#     Edge 42, Type (0, 0), BuildingBlock: ZUJKAS_clean_linker_0, # of connection points: 2
#     Edge 43, Type (0, 0), BuildingBlock: ZUJKAS_clean_linker_0, # of connection points: 2
#     Edge 44, Type (0, 0), BuildingBlock: ZUJKAS_clean_linker_0, # of connection points: 2
#     Edge 45, Type (0, 0), BuildingBlock: ZUJKAS_clean_linker_0, # of connection points: 2
#     Edge 46, Type (0, 0), BuildingBlock: ZUJKAS_clean_linker_0, # of connection points: 2
#     Edge 47, Type (0, 0), BuildingBlock: ZUJKAS_clean_linker_0, # of connection points: 2
#     Edge 48, Type (0, 0), BuildingBlock: ZUJKAS_clean_linker_0, # of connection points: 2
#     Edge 49, Type (0, 0), BuildingBlock: ZUJKAS_clean_linker_0, # of connection points: 2
#     Edge 50, Type (0, 0), BuildingBlock: ZUJKAS_clean_linker_0, # of connection points: 2
#     Edge 51, Type (0, 0), BuildingBlock: ZUJKAS_clean_linker_0, # of connection points: 2
#     Edge 52, Type (0, 0), BuildingBlock: ZUJKAS_clean_linker_0, # of connection points: 2
#     Edge 53, Type (0, 0), BuildingBlock: ZUJKAS_clean_linker_0, # of connection points: 2
#     Edge 54, Type (0, 0), BuildingBlock: ZUJKAS_clean_linker_0, # of connection points: 2
#     Edge 55, Type (0, 0), BuildingBlock: ZUJKAS_clean_linker_0, # of connection points: 2
#     Edge 56, Type (0, 0), BuildingBlock: ZUJKAS_clean_linker_0, # of connection points: 2
#     Edge 57, Type (0, 0), BuildingBlock: ZUJKAS_clean_linker_0, # of connection points: 2
#     Edge 58, Type (0, 0), BuildingBlock: ZUJKAS_clean_linker_0, # of connection points: 2
#     Edge 59, Type (0, 0), BuildingBlock: ZUJKAS_clean_linker_0, # of connection points: 2
#     Edge 60, Type (0, 0), BuildingBlock: ZUJKAS_clean_linker_0, # of connection points: 2
#     Edge 61, Type (0, 0), BuildingBlock: ZUJKAS_clean_linker_0, # of connection points: 2
#     Edge 62, Type (0, 0), BuildingBlock: ZUJKAS_clean_linker_0, # of connection points: 2
#     Edge 63, Type (0, 0), BuildingBlock: ZUJKAS_clean_linker_0, # of connection points: 2
#     Edge 64, Type (0, 0), BuildingBlock: ZUJKAS_clean_linker_0, # of connection points: 2
#     Edge 65, Type (0, 0), BuildingBlock: ZUJKAS_clean_linker_0, # of connection points: 2
#     Edge 66, Type (0, 0), BuildingBlock: ZUJKAS_clean_linker_0, # of connection points: 2
#     Edge 67, Type (0, 0), BuildingBlock: ZUJKAS_clean_linker_0, # of connection points: 2
#     Edge 68, Type (0, 0), BuildingBlock: ZUJKAS_clean_linker_0, # of connection points: 2
#     Edge 69, Type (0, 0), BuildingBlock: ZUJKAS_clean_linker_0, # of connection points: 2
#     Edge 70, Type (0, 0), BuildingBlock: ZUJKAS_clean_linker_0, # of connection points: 2
#     Edge 71, Type (0, 0), BuildingBlock: ZUJKAS_clean_linker_0, # of connection points: 2
#     Edge 72, Type (0, 0), BuildingBlock: ZUJKAS_clean_linker_0, # of connection points: 2
#     Edge 73, Type (0, 0), BuildingBlock: ZUJKAS_clean_linker_0, # of connection points: 2
#     Edge 74, Type (0, 0), BuildingBlock: ZUJKAS_clean_linker_0, # of connection points: 2
#     Edge 75, Type (0, 0), BuildingBlock: ZUJKAS_clean_linker_0, # of connection points: 2
#     Edge 76, Type (0, 0), BuildingBlock: ZUJKAS_clean_linker_0, # of connection points: 2
#     Edge 77, Type (0, 0), BuildingBlock: ZUJKAS_clean_linker_0, # of connection points: 2
#     Edge 78, Type (0, 0), BuildingBlock: ZUJKAS_clean_linker_0, # of connection points: 2
#     Edge 79, Type (0, 0), BuildingBlock: ZUJKAS_clean_linker_0, # of connection points: 2
#     Edge 80, Type (0, 0), BuildingBlock: ZUJKAS_clean_linker_0, # of connection points: 2
#     Edge 81, Type (0, 0), BuildingBlock: ZUJKAS_clean_linker_0, # of connection points: 2
#     Edge 82, Type (0, 0), BuildingBlock: ZUJKAS_clean_linker_0, # of connection points: 2
#     Edge 83, Type (0, 0), BuildingBlock: ZUJKAS_clean_linker_0, # of connection points: 2
#     Edge 84, Type (0, 0), BuildingBlock: ZUJKAS_clean_linker_0, # of connection points: 2
#     Edge 85, Type (0, 0), BuildingBlock: ZUJKAS_clean_linker_0, # of connection points: 2
#     Edge 86, Type (0, 0), BuildingBlock: ZUJKAS_clean_linker_0, # of connection points: 2
#     Edge 87, Type (0, 0), BuildingBlock: ZUJKAS_clean_linker_0, # of connection points: 2
#     Edge 88, Type (0, 0), BuildingBlock: ZUJKAS_clean_linker_0, # of connection points: 2
#     Edge 89, Type (0, 0), BuildingBlock: ZUJKAS_clean_linker_0, # of connection points: 2
#     Edge 90, Type (0, 0), BuildingBlock: ZUJKAS_clean_linker_0, # of connection points: 2
#     Edge 91, Type (0, 0), BuildingBlock: ZUJKAS_clean_linker_0, # of connection points: 2
#     Edge 92, Type (0, 0), BuildingBlock: ZUJKAS_clean_linker_0, # of connection points: 2
#     Edge 93, Type (0, 0), BuildingBlock: ZUJKAS_clean_linker_0, # of connection points: 2
#     Edge 94, Type (0, 0), BuildingBlock: ZUJKAS_clean_linker_0, # of connection points: 2
#     Edge 95, Type (0, 0), BuildingBlock: ZUJKAS_clean_linker_0, # of connection points: 2
# Relax obj value: 0.065
# Max RMSD: 0.095
# Mean RMSD: 0.095
data_MOF--net-upd--node1-MUDLON_clean_sbu_0--edge1-ZUJKAS_clean_linker_0
_symmetry_space_group_name_H-M    P1
_symmetry_Int_Tables_number       1
_symmetry_cell_setting            triclinic
loop_
_symmetry_equiv_pos_as_xyz
'x, y, z'
_cell_length_a     58.530339
_cell_length_b     58.369917
_cell_length_c     88.124845
_cell_angle_alpha  89.909574
_cell_angle_beta   90.070759
_cell_angle_gamma 89.984204
loop_
_atom_site_label
_atom_site_type_symbol
_atom_site_fract_x
_atom_site_fract_y
_atom_site_fract_z
_atom_type_partial_charge
Mg0 Mg 0.15021 0.16324 0.31255 0.0
C1 C 0.10597 0.14267 0.3197 0.0
O2 O 0.12101 0.12656 0.32268 0.0
C3 C 0.18087 0.18336 0.28853 0.0
O4 O 0.18786 0.16198 0.28848 0.0
C5 C 0.15103 0.12309 0.29287 0.0
O6 O 0.13595 0.13709 0.28683 0.0
O7 O 0.16137 0.1294 0.30488 0.0
O8 O 0.11304 0.16149 0.3141 0.0
O9 O 0.15926 0.17448 0.33538 0.0
C10 C 0.15433 0.19558 0.33706 0.0
O11 O 0.14651 0.20693 0.32526 0.0
O12 O 0.16425 0.18895 0.29705 0.0
Mg13 Mg 0.11651 0.89392 0.56568 0.0
C14 C 0.11065 0.83947 0.56481 0.0
O15 O 0.0909 0.84177 0.55788 0.0
C16 C 0.09178 0.92905 0.54934 0.0
O17 O 0.10736 0.93956 0.55752 0.0
C18 C 0.15841 0.89495 0.54794 0.0
O19 O 0.14744 0.87645 0.54358 0.0
O20 O 0.1494 0.90745 0.55815 0.0
O21 O 0.12243 0.85712 0.56799 0.0
O22 O 0.10426 0.90324 0.58824 0.0
C23 C 0.08743 0.89052 0.59183 0.0
O24 O 0.08014 0.87551 0.58185 0.0
O25 O 0.09093 0.90725 0.54993 0.0
Mg26 Mg 0.35844 0.86561 0.81562 0.0
C27 C 0.40665 0.85078 0.82287 0.0
O28 O 0.39545 0.83341 0.82876 0.0
C29 C 0.34711 0.82383 0.79464 0.0
O30 O 0.36706 0.81559 0.79878 0.0
C31 C 0.36142 0.91702 0.81091 0.0
O32 O 0.38103 0.91378 0.81786 0.0
O33 O 0.34784 0.90017 0.8094 0.0
O34 O 0.39565 0.86557 0.81517 0.0
O35 O 0.35024 0.8551 0.83884 0.0
C36 C 0.34357 0.83456 0.84087 0.0
O37 O 0.33926 0.82188 0.82892 0.0
O38 O 0.34075 0.84326 0.7996 0.0
Mg39 Mg 0.40901 0.12801 0.05998 0.0
C40 C 0.38822 0.17301 0.06473 0.0
O41 O 0.37195 0.1583 0.06799 0.0
C42 C 0.43149 0.09016 0.04429 0.0
O43 O 0.41369 0.08089 0.05098 0.0
C44 C 0.37231 0.12212 0.03822 0.0
O45 O 0.38806 0.13447 0.03143 0.0
O46 O 0.37601 0.1156 0.0518 0.0
O47 O 0.4069 0.16533 0.05939 0.0
O48 O 0.41913 0.1212 0.08347 0.0
C49 C 0.43479 0.13503 0.08762 0.0
O50 O 0.44225 0.15014 0.07774 0.0
O51 O 0.43468 0.11163 0.04575 0.0
Mg52 Mg 0.14805 0.86301 0.20153 0.0
C53 C 0.10544 0.88221 0.1907 0.0
O54 O 0.12165 0.89644 0.1865 0.0
C55 C 0.18016 0.84355 0.22467 0.0
O56 O 0.18796 0.86452 0.22311 0.0
C57 C 0.14723 0.90437 0.22023 0.0
O58 O 0.13082 0.89135 0.22564 0.0
O59 O 0.15878 0.89703 0.20901 0.0
O60 O 0.11102 0.86485 0.19867 0.0
O61 O 0.15848 0.85186 0.17901 0.0
C62 C 0.15593 0.83034 0.1774 0.0
O63 O 0.14966 0.8182 0.18926 0.0
O64 O 0.16214 0.83784 0.21749 0.0
Mg65 Mg 0.41023 0.90068 0.45058 0.0
C66 C 0.39735 0.84977 0.45311 0.0
O67 O 0.37956 0.85777 0.46046 0.0
C68 C 0.43143 0.93881 0.46726 0.0
O69 O 0.41342 0.94813 0.46081 0.0
C70 C 0.3734 0.90719 0.47292 0.0
O71 O 0.39055 0.89929 0.48102 0.0
O72 O 0.37629 0.91009 0.45873 0.0
O73 O 0.41316 0.86348 0.44916 0.0
O74 O 0.41911 0.91146 0.42768 0.0
C75 C 0.41515 0.89804 0.41661 0.0
O76 O 0.40214 0.88002 0.4189 0.0
O77 O 0.43501 0.9175 0.4653 0.0
Mg78 Mg 0.36518 0.16053 0.70115 0.0
C79 C 0.41279 0.17665 0.69302 0.0
O80 O 0.40121 0.19436 0.68793 0.0
C81 C 0.34173 0.20428 0.71108 0.0
O82 O 0.34595 0.20971 0.69688 0.0
C83 C 0.36665 0.12189 0.722 0.0
O84 O 0.38121 0.13695 0.72741 0.0
O85 O 0.35604 0.12673 0.70979 0.0
O86 O 0.40228 0.16126 0.70047 0.0
O87 O 0.35503 0.16916 0.67802 0.0
C88 C 0.3675 0.16352 0.6668 0.0
O89 O 0.38422 0.14886 0.66899 0.0
O90 O 0.34912 0.1853 0.71623 0.0
Mg91 Mg 0.11284 0.11156 0.9503 0.0
C92 C 0.09941 0.1601 0.94341 0.0
O93 O 0.08193 0.14916 0.93749 0.0
C94 C 0.06854 0.0931 0.9654 0.0
O95 O 0.05793 0.10487 0.9548 0.0
C96 C 0.16436 0.113 0.95394 0.0
O97 O 0.16149 0.13228 0.94646 0.0
O98 O 0.14718 0.10008 0.95614 0.0
O99 O 0.11384 0.1488 0.95121 0.0
O100 O 0.10186 0.10528 0.927 0.0
C101 C 0.08769 0.08984 0.92315 0.0
O102 O 0.08171 0.07425 0.93315 0.0
O103 O 0.09021 0.09416 0.9663 0.0
Mg104 Mg 0.86562 0.86774 0.69925 0.0
C105 C 0.91448 0.88445 0.7008 0.0
O106 O 0.90398 0.90346 0.70462 0.0
C107 C 0.83075 0.8335 0.70888 0.0
O108 O 0.82449 0.83826 0.69491 0.0
C109 C 0.8396 0.90576 0.71532 0.0
O110 O 0.82757 0.88818 0.7201 0.0
O111 O 0.85554 0.9024 0.70577 0.0
O112 O 0.90282 0.86617 0.69935 0.0
O113 O 0.85762 0.85731 0.67609 0.0
C114 C 0.87049 0.8625 0.66498 0.0
O115 O 0.88705 0.87736 0.66707 0.0
O116 O 0.84851 0.8432 0.71423 0.0
Mg117 Mg 0.91106 0.11389 0.4544 0.0
C118 C 0.94044 0.09941 0.4287 0.0
O119 O 0.95381 0.09587 0.44044 0.0
C120 C 0.87248 0.11214 0.47526 0.0
O121 O 0.88793 0.12478 0.48212 0.0
C122 C 0.93216 0.0752 0.47059 0.0
O123 O 0.91491 0.06609 0.4632 0.0
O124 O 0.93534 0.09674 0.4695 0.0
O125 O 0.91981 0.1053 0.43105 0.0
O126 O 0.91174 0.15131 0.4535 0.0
C127 C 0.89295 0.1604 0.44934 0.0
O128 O 0.87501 0.14712 0.44768 0.0
O129 O 0.87721 0.10391 0.46228 0.0
Mg130 Mg 0.64961 0.15641 0.19991 0.0
C131 C 0.60075 0.14104 0.20156 0.0
O132 O 0.61131 0.12146 0.20381 0.0
C133 C 0.66682 0.18951 0.22556 0.0
O134 O 0.64943 0.18209 0.2336 0.0
C135 C 0.66957 0.11914 0.21984 0.0
O136 O 0.67558 0.13732 0.22763 0.0
O137 O 0.65942 0.12189 0.20717 0.0
O138 O 0.61252 0.15938 0.20133 0.0
O139 O 0.65418 0.16369 0.17584 0.0
C140 C 0.66752 0.17965 0.17157 0.0
O141 O 0.68169 0.18858 0.1815 0.0
O142 O 0.66969 0.18205 0.21215 0.0
Mg143 Mg 0.60683 0.89915 0.95077 0.0
C144 C 0.58014 0.91828 0.92414 0.0
O145 O 0.56975 0.92914 0.9352 0.0
C146 C 0.65959 0.90337 0.95241 0.0
O147 O 0.65931 0.89141 0.9398 0.0
C148 C 0.58736 0.93763 0.9682 0.0
O149 O 0.60624 0.94616 0.96246 0.0
O150 O 0.58253 0.91675 0.9655 0.0
O151 O 0.59795 0.90663 0.92719 0.0
O152 O 0.60491 0.86187 0.95067 0.0
C153 C 0.62077 0.84898 0.95566 0.0
O154 O 0.63728 0.85805 0.96378 0.0
O155 O 0.64078 0.90929 0.95844 0.0
Mg156 Mg 0.86605 0.15419 0.81581 0.0
C157 C 0.91447 0.13641 0.81452 0.0
O158 O 0.9035 0.11793 0.81016 0.0
C159 C 0.8322 0.18989 0.80633 0.0
O160 O 0.82633 0.18602 0.82048 0.0
C161 C 0.83993 0.1168 0.79915 0.0
O162 O 0.82859 0.13466 0.79407 0.0
O163 O 0.85544 0.11978 0.80909 0.0
O164 O 0.90334 0.15504 0.81591 0.0
O165 O 0.85842 0.16415 0.83913 0.0
C166 C 0.87258 0.15955 0.84968 0.0
O167 O 0.88946 0.14536 0.84682 0.0
O168 O 0.84932 0.17921 0.8009 0.0
Mg169 Mg 0.61041 0.12388 0.5631 0.0
C170 C 0.58247 0.10576 0.58936 0.0
O171 O 0.57187 0.09531 0.57821 0.0
C172 C 0.65286 0.1248 0.54554 0.0
O173 O 0.64072 0.14182 0.54 0.0
C174 C 0.59025 0.08655 0.54491 0.0
O175 O 0.60881 0.07728 0.55066 0.0
O176 O 0.586 0.10747 0.54787 0.0
O177 O 0.60072 0.11676 0.5865 0.0
O178 O 0.61115 0.16115 0.56297 0.0
C179 C 0.5968 0.17217 0.57095 0.0
O180 O 0.5794 0.16105 0.57682 0.0
O181 O 0.64452 0.113 0.55634 0.0
Mg182 Mg 0.65035 0.86216 0.31523 0.0
C183 C 0.60226 0.87922 0.3161 0.0
O184 O 0.61381 0.89849 0.31568 0.0
C185 C 0.68977 0.84258 0.29888 0.0
O186 O 0.69782 0.86152 0.30489 0.0
C187 C 0.65641 0.89983 0.29349 0.0
O188 O 0.64741 0.88316 0.28546 0.0
O189 O 0.66039 0.89627 0.30751 0.0
O190 O 0.61308 0.86041 0.31464 0.0
O191 O 0.65674 0.85382 0.33903 0.0
C192 C 0.66838 0.83618 0.34256 0.0
O193 O 0.67975 0.82548 0.33186 0.0
O194 O 0.66882 0.83764 0.30102 0.0
Mg195 Mg 0.90639 0.89188 0.05853 0.0
C196 C 0.92662 0.91597 0.08662 0.0
O197 O 0.93314 0.93154 0.07676 0.0
C198 C 0.87016 0.89866 0.03595 0.0
O199 O 0.88805 0.89215 0.02805 0.0
C200 C 0.9514 0.91265 0.04555 0.0
O201 O 0.96158 0.90137 0.05656 0.0
O202 O 0.92992 0.91058 0.04379 0.0
O203 O 0.91371 0.89975 0.08223 0.0
O204 O 0.90961 0.8546 0.05894 0.0
C205 C 0.89204 0.84204 0.0571 0.0
O206 O 0.87303 0.85154 0.05227 0.0
O207 O 0.87228 0.90065 0.05027 0.0
Mg208 Mg 0.64963 0.66236 0.81461 0.0
C209 C 0.60529 0.64326 0.82293 0.0
O210 O 0.6202 0.6272 0.8263 0.0
C211 C 0.6819 0.68165 0.79157 0.0
O212 O 0.68959 0.66063 0.79305 0.0
C213 C 0.649 0.62145 0.79537 0.0
O214 O 0.63312 0.63485 0.78965 0.0
O215 O 0.66006 0.62836 0.80694 0.0
O216 O 0.61248 0.66152 0.81663 0.0
O217 O 0.65995 0.67261 0.83738 0.0
C218 C 0.65885 0.69419 0.83933 0.0
O219 O 0.65382 0.70718 0.8276 0.0
O220 O 0.66408 0.68751 0.79887 0.0
Mg221 Mg 0.60566 0.40279 0.06566 0.0
C222 C 0.59147 0.35414 0.07274 0.0
O223 O 0.5737 0.36498 0.07834 0.0
C224 C 0.58081 0.44131 0.05222 0.0
O225 O 0.59601 0.45082 0.06121 0.0
C226 C 0.65673 0.40208 0.06052 0.0
O227 O 0.65474 0.38359 0.06895 0.0
O228 O 0.63912 0.41432 0.05809 0.0
O229 O 0.60621 0.36553 0.06529 0.0
O230 O 0.59645 0.41149 0.08887 0.0
C231 C 0.60244 0.39897 0.10002 0.0
O232 O 0.61744 0.38258 0.09777 0.0
O233 O 0.58036 0.41955 0.05129 0.0
Mg234 Mg 0.87034 0.35827 0.3132 0.0
C235 C 0.91883 0.34475 0.32053 0.0
O236 O 0.90806 0.32712 0.32643 0.0
C237 C 0.83134 0.33824 0.29681 0.0
O238 O 0.82262 0.35575 0.30417 0.0
C239 C 0.8613 0.39637 0.29226 0.0
O240 O 0.86785 0.37945 0.28345 0.0
O241 O 0.85992 0.39273 0.30648 0.0
O242 O 0.90752 0.35906 0.31263 0.0
O243 O 0.86338 0.34812 0.33665 0.0
C244 C 0.85626 0.32779 0.3389 0.0
O245 O 0.85054 0.3153 0.32711 0.0
O246 O 0.8527 0.33445 0.29802 0.0
Mg247 Mg 0.9076 0.63016 0.56211 0.0
C248 C 0.89764 0.68143 0.56002 0.0
O249 O 0.87953 0.67425 0.5526 0.0
C250 C 0.92811 0.60089 0.53659 0.0
O251 O 0.90728 0.60248 0.53113 0.0
C252 C 0.86387 0.60498 0.55137 0.0
O253 O 0.87498 0.58637 0.55537 0.0
O254 O 0.87314 0.62444 0.5534 0.0
O255 O 0.91297 0.66702 0.56377 0.0
O256 O 0.91266 0.62086 0.58581 0.0
C257 C 0.92805 0.60659 0.58964 0.0
O258 O 0.93797 0.5943 0.57905 0.0
O259 O 0.93315 0.61171 0.54867 0.0
Mg260 Mg 0.65031 0.364 0.70224 0.0
C261 C 0.60379 0.38291 0.69739 0.0
O262 O 0.61678 0.40119 0.69639 0.0
C263 C 0.68439 0.34313 0.72343 0.0
O264 O 0.69231 0.36405 0.72181 0.0
C265 C 0.65175 0.4027 0.72351 0.0
O266 O 0.63787 0.3879 0.72994 0.0
O267 O 0.66065 0.39753 0.7108 0.0
O268 O 0.61303 0.36389 0.701 0.0
O269 O 0.65878 0.35638 0.67872 0.0
C270 C 0.67016 0.33847 0.67552 0.0
O271 O 0.68037 0.32729 0.68656 0.0
O272 O 0.66585 0.33775 0.71675 0.0
Mg273 Mg 0.90161 0.3948 0.95379 0.0
C274 C 0.91865 0.34746 0.94636 0.0
O275 O 0.9353 0.35977 0.94057 0.0
C276 C 0.9249 0.43492 0.96689 0.0
O277 O 0.91101 0.44375 0.95671 0.0
C278 C 0.86408 0.39668 0.97529 0.0
O279 O 0.88053 0.3854 0.98219 0.0
O280 O 0.86757 0.4037 0.96181 0.0
O281 O 0.90331 0.35752 0.95409 0.0
O282 O 0.90948 0.40285 0.9301 0.0
C283 C 0.92942 0.41024 0.92705 0.0
O284 O 0.94342 0.41492 0.93827 0.0
O285 O 0.92522 0.41326 0.96863 0.0
Mg286 Mg 0.8689 0.65756 0.2026 0.0
C287 C 0.91877 0.64429 0.20588 0.0
O288 O 0.9095 0.62559 0.21144 0.0
C289 C 0.85449 0.69819 0.22389 0.0
O290 O 0.87595 0.70475 0.22332 0.0
C291 C 0.85744 0.61967 0.22351 0.0
O292 O 0.85871 0.63763 0.23243 0.0
O293 O 0.86048 0.62251 0.20932 0.0
O294 O 0.90597 0.66141 0.20304 0.0
O295 O 0.8614 0.6673 0.1792 0.0
C296 C 0.86539 0.68852 0.1771 0.0
O297 O 0.87184 0.70086 0.1888 0.0
O298 O 0.84835 0.68023 0.21684 0.0
Mg299 Mg 0.60986 0.6187 0.45284 0.0
C300 C 0.59544 0.66678 0.44563 0.0
O301 O 0.57869 0.6553 0.43924 0.0
C302 C 0.56507 0.59701 0.46478 0.0
O303 O 0.55594 0.60656 0.4527 0.0
C304 C 0.64833 0.61407 0.47371 0.0
O305 O 0.63214 0.6241 0.4816 0.0
O306 O 0.64415 0.60878 0.45997 0.0
O307 O 0.6096 0.65594 0.45393 0.0
O308 O 0.6013 0.61311 0.42905 0.0
C309 C 0.58946 0.59672 0.42373 0.0
O310 O 0.58455 0.5792 0.4325 0.0
O311 O 0.58609 0.60047 0.46769 0.0
Mg312 Mg 0.36959 0.37081 0.20243 0.0
C313 C 0.41832 0.38634 0.20237 0.0
O314 O 0.40758 0.4061 0.20255 0.0
C315 C 0.33112 0.34069 0.21167 0.0
O316 O 0.32428 0.34884 0.19852 0.0
C317 C 0.34247 0.40997 0.21657 0.0
O318 O 0.3286 0.39309 0.22005 0.0
O319 O 0.35999 0.4058 0.20849 0.0
O320 O 0.40669 0.36804 0.20377 0.0
O321 O 0.36382 0.36015 0.17902 0.0
C322 C 0.36772 0.3388 0.17759 0.0
O323 O 0.37327 0.32699 0.18975 0.0
O324 O 0.35049 0.34694 0.2168 0.0
Mg325 Mg 0.40224 0.62644 0.95546 0.0
C326 C 0.43485 0.61449 0.93153 0.0
O327 O 0.44741 0.61637 0.94382 0.0
C328 C 0.34946 0.62255 0.95683 0.0
O329 O 0.34982 0.63598 0.94485 0.0
C330 C 0.42442 0.58842 0.97138 0.0
O331 O 0.4092 0.57873 0.96248 0.0
O332 O 0.42577 0.61019 0.97143 0.0
O333 O 0.41325 0.61636 0.93277 0.0
O334 O 0.4037 0.6636 0.95351 0.0
C335 C 0.38841 0.67735 0.9582 0.0
O336 O 0.37224 0.66966 0.96719 0.0
O337 O 0.36822 0.61574 0.96255 0.0
Mg338 Mg 0.15104 0.65366 0.7006 0.0
C339 C 0.10663 0.63701 0.69227 0.0
O340 O 0.12149 0.62089 0.68897 0.0
C341 C 0.18883 0.67504 0.71747 0.0
O342 O 0.19706 0.65522 0.71301 0.0
C343 C 0.17215 0.60525 0.70787 0.0
O344 O 0.18512 0.60796 0.69584 0.0
O345 O 0.158 0.62082 0.71148 0.0
O346 O 0.11392 0.65507 0.69877 0.0
O347 O 0.16042 0.65774 0.67681 0.0
C348 C 0.17153 0.67538 0.67262 0.0
O349 O 0.18086 0.68847 0.68303 0.0
O350 O 0.16825 0.67997 0.71407 0.0
Mg351 Mg 0.10593 0.40129 0.45371 0.0
C352 C 0.08199 0.42087 0.42619 0.0
O353 O 0.07044 0.43143 0.43687 0.0
C354 C 0.15845 0.4071 0.45635 0.0
O355 O 0.1588 0.39758 0.44285 0.0
C356 C 0.08529 0.43413 0.47632 0.0
O357 O 0.10713 0.43847 0.47819 0.0
O358 O 0.07944 0.41824 0.46722 0.0
O359 O 0.09965 0.40945 0.42991 0.0
O360 O 0.10384 0.364 0.45255 0.0
C361 C 0.12028 0.35095 0.45641 0.0
O362 O 0.13743 0.35962 0.46411 0.0
O363 O 0.13934 0.41097 0.46269 0.0
Mg364 Mg 0.36401 0.65785 0.31743 0.0
C365 C 0.41024 0.63666 0.32004 0.0
O366 O 0.39687 0.61862 0.31949 0.0
C367 C 0.33029 0.69246 0.30697 0.0
O368 O 0.32322 0.68726 0.32068 0.0
C369 C 0.33751 0.62122 0.30021 0.0
O370 O 0.32778 0.63939 0.29422 0.0
O371 O 0.35189 0.62386 0.31091 0.0
O372 O 0.40137 0.65639 0.3181 0.0
O373 O 0.35557 0.66932 0.34025 0.0
C374 C 0.36688 0.66348 0.35196 0.0
O375 O 0.38216 0.64708 0.35086 0.0
O376 O 0.34843 0.68297 0.30202 0.0
Mg377 Mg 0.10221 0.62409 0.06179 0.0
C378 C 0.07234 0.61674 0.08738 0.0
O379 O 0.05933 0.62304 0.07595 0.0
C380 C 0.1382 0.61885 0.03877 0.0
O381 O 0.12083 0.62776 0.03135 0.0
C382 C 0.08129 0.58887 0.04113 0.0
O383 O 0.10216 0.58085 0.04249 0.0
O384 O 0.07617 0.60769 0.0476 0.0
O385 O 0.09366 0.61424 0.08502 0.0
O386 O 0.10075 0.66144 0.06342 0.0
C387 C 0.11847 0.67356 0.06102 0.0
O388 O 0.13672 0.66375 0.05533 0.0
O389 O 0.13579 0.61458 0.05286 0.0
Mg390 Mg 0.14651 0.35882 0.81409 0.0
C391 C 0.10357 0.37677 0.82469 0.0
O392 O 0.11973 0.39009 0.83013 0.0
C393 C 0.17075 0.33889 0.78669 0.0
O394 O 0.16981 0.36045 0.78248 0.0
C395 C 0.14476 0.40182 0.7964 0.0
O396 O 0.12594 0.39106 0.79249 0.0
O397 O 0.15783 0.39252 0.80619 0.0
O398 O 0.10939 0.36038 0.81599 0.0
O399 O 0.15561 0.34932 0.83727 0.0
C400 C 0.16712 0.33122 0.83981 0.0
O401 O 0.17701 0.32087 0.82834 0.0
O402 O 0.16088 0.33289 0.79894 0.0
Mg403 Mg 0.40786 0.39159 0.55835 0.0
C404 C 0.43128 0.38336 0.58741 0.0
O405 O 0.43665 0.36567 0.57896 0.0
C406 C 0.37107 0.40118 0.53689 0.0
O407 O 0.38784 0.39274 0.52872 0.0
C408 C 0.44978 0.4187 0.54827 0.0
O409 O 0.45473 0.41675 0.56275 0.0
O410 O 0.43214 0.40855 0.54313 0.0
O411 O 0.41825 0.39873 0.58182 0.0
O412 O 0.40646 0.35414 0.55754 0.0
C413 C 0.3874 0.34489 0.56086 0.0
O414 O 0.36928 0.35804 0.56207 0.0
O415 O 0.37425 0.40368 0.55109 0.0
H416 H 0.15406 0.31906 0.46087 0.0
H417 H 0.16228 0.28563 0.44505 0.0
H418 H 0.10105 0.29837 0.41912 0.0
H419 H 0.0924 0.33139 0.43506 0.0
H420 H 0.10956 0.25196 0.42291 0.0
H421 H 0.18714 0.29784 0.4027 0.0
H422 H 0.18596 0.29243 0.42275 0.0
H423 H 0.16568 0.31161 0.41416 0.0
C424 C 0.14206 0.31446 0.45202 0.0
C425 C 0.12274 0.32816 0.4491 0.0
C426 C 0.14688 0.29541 0.44292 0.0
C427 C 0.13261 0.28986 0.43064 0.0
C428 C 0.11241 0.30242 0.42846 0.0
H429 H 0.15115 0.24118 0.3424 0.0
H430 H 0.14821 0.26066 0.36668 0.0
C431 C 0.10749 0.32134 0.43761 0.0
C432 C 0.13955 0.27251 0.41919 0.0
H433 H 0.17854 0.26287 0.39107 0.0
C434 C 0.12483 0.2541 0.41609 0.0
C435 C 0.15939 0.27548 0.4102 0.0
C436 C 0.1754 0.29548 0.41248 0.0
C437 C 0.12896 0.23908 0.40391 0.0
C438 C 0.1485 0.24242 0.39473 0.0
C439 C 0.16369 0.26024 0.39822 0.0
C440 C 0.15176 0.22992 0.38021 0.0
C441 C 0.11172 0.22061 0.40042 0.0
C442 C 0.15526 0.2061 0.37971 0.0
C443 C 0.157 0.19477 0.3657 0.0
C444 C 0.1552 0.20715 0.35203 0.0
C445 C 0.15247 0.23106 0.35268 0.0
C446 C 0.15082 0.24228 0.36658 0.0
H447 H 0.09593 0.22239 0.4073 0.0
H448 H 0.107 0.22101 0.38821 0.0
H449 H 0.11936 0.2036 0.40287 0.0
H450 H 0.15639 0.19626 0.39011 0.0
H451 H 0.15909 0.17633 0.36557 0.0
H452 H 0.08762 0.92599 0.61253 0.0
H453 H 0.06523 0.92829 0.63617 0.0
H454 H 0.03891 0.86041 0.62807 0.0
H455 H 0.06087 0.85801 0.60473 0.0
H456 H 0.01631 0.92379 0.63719 0.0
H457 H 0.05811 0.85814 0.67304 0.0
H458 H 0.07214 0.87132 0.65698 0.0
H459 H 0.0523 0.84817 0.65416 0.0
C460 C 0.07732 0.91147 0.61597 0.0
C461 C 0.07593 0.89187 0.60675 0.0
C462 C 0.06456 0.9128 0.62943 0.0
C463 C 0.05069 0.89436 0.63398 0.0
C464 C 0.04984 0.87464 0.62496 0.0
H465 H 0.93795 0.85135 0.68528 0.0
H466 H 0.97385 0.85599 0.67151 0.0
C467 C 0.06227 0.87341 0.61153 0.0
C468 C 0.03524 0.89609 0.64726 0.0
H469 H 0.01882 0.86686 0.67903 0.0
C470 C 0.01712 0.91178 0.64657 0.0
C471 C 0.0363 0.88027 0.65941 0.0
C472 C 0.0559 0.86366 0.66105 0.0
C473 C 0.99914 0.91099 0.65711 0.0
C474 C 0.99962 0.89438 0.66886 0.0
C475 C 0.01842 0.87953 0.67001 0.0
C476 C 0.97976 0.89075 0.67907 0.0
C477 C 0.97906 0.92691 0.65493 0.0
C478 C 0.97165 0.90838 0.68844 0.0
C479 C 0.95102 0.90583 0.69627 0.0
C480 C 0.93824 0.88549 0.695 0.0
C481 C 0.9473 0.86725 0.6865 0.0
C482 C 0.96784 0.86989 0.6786 0.0
H483 H 0.97926 0.93534 0.64362 0.0
H484 H 0.96268 0.9175 0.65618 0.0
H485 H 0.97961 0.94052 0.6637 0.0
H486 H 0.98086 0.92442 0.68927 0.0
H487 H 0.94465 0.92014 0.70283 0.0
H488 H 0.35881 0.71222 0.96541 0.0
H489 H 0.35033 0.74635 0.95017 0.0
H490 H 0.40283 0.72705 0.91834 0.0
H491 H 0.41206 0.69371 0.93378 0.0
H492 H 0.4016 0.77208 0.92114 0.0
H493 H 0.31311 0.74009 0.91236 0.0
H494 H 0.32033 0.74608 0.93174 0.0
H495 H 0.33465 0.72329 0.92185 0.0
C496 C 0.36885 0.71552 0.95533 0.0
C497 C 0.38591 0.70004 0.95072 0.0
C498 C 0.36383 0.73493 0.94654 0.0
C499 C 0.37544 0.73892 0.93283 0.0
C500 C 0.39349 0.72431 0.9288 0.0
H501 H 0.33484 0.79 0.84783 0.0
H502 H 0.34129 0.77044 0.87181 0.0
C503 C 0.39875 0.70517 0.93767 0.0
C504 C 0.36802 0.75714 0.92203 0.0
H505 H 0.32351 0.77342 0.89931 0.0
C506 C 0.38445 0.77256 0.91647 0.0
C507 C 0.34566 0.75764 0.91584 0.0
C508 C 0.32745 0.74079 0.92063 0.0
C509 C 0.37951 0.78767 0.90446 0.0
C510 C 0.35724 0.78792 0.89814 0.0
C511 C 0.34052 0.77331 0.90421 0.0
C512 C 0.35169 0.80086 0.88403 0.0
C513 C 0.39858 0.80215 0.89806 0.0
C514 C 0.35474 0.8247 0.88292 0.0
C515 C 0.3513 0.83601 0.86904 0.0
C516 C 0.34442 0.82369 0.8561 0.0
C517 C 0.34021 0.80006 0.85751 0.0
C518 C 0.34387 0.78881 0.87127 0.0
H519 H 0.41564 0.79631 0.90205 0.0
H520 H 0.39842 0.80179 0.88547 0.0
H521 H 0.39627 0.82016 0.90176 0.0
H522 H 0.36018 0.8345 0.8927 0.0
H523 H 0.35457 0.85424 0.86836 0.0
H524 H 0.46102 0.16781 0.10064 0.0
H525 H 0.48183 0.16597 0.12453 0.0
H526 H 0.45354 0.0991 0.13344 0.0
H527 H 0.43253 0.10073 0.10922 0.0
H528 H 0.46735 0.15923 0.15523 0.0
H529 H 0.5238 0.08932 0.13409 0.0
H530 H 0.50592 0.1059 0.1215 0.0
H531 H 0.49347 0.08445 0.13353 0.0
C532 C 0.45904 0.15271 0.10768 0.0
C533 C 0.44533 0.13427 0.10292 0.0
C534 C 0.47089 0.15177 0.1214 0.0
C535 C 0.46946 0.13233 0.13068 0.0
C536 C 0.45508 0.11417 0.12633 0.0
H537 H 0.57048 0.10542 0.20174 0.0
H538 H 0.5348 0.10253 0.18743 0.0
C539 C 0.44303 0.11516 0.11254 0.0
C540 C 0.48429 0.13094 0.14434 0.0
H541 H 0.53326 0.10595 0.15737 0.0
C542 C 0.48156 0.14733 0.15585 0.0
C543 C 0.50282 0.11542 0.14513 0.0
C544 C 0.50691 0.09782 0.1329 0.0
C545 C 0.49726 0.14908 0.16789 0.0
C546 C 0.51647 0.13436 0.16824 0.0
C547 C 0.51856 0.11726 0.15711 0.0
C548 C 0.53565 0.13744 0.17917 0.0
C549 C 0.49322 0.16685 0.17999 0.0
C550 C 0.54772 0.15824 0.17969 0.0
C551 C 0.56806 0.16001 0.18798 0.0
C552 C 0.57694 0.14089 0.19573 0.0
C553 C 0.56417 0.12047 0.19588 0.0
C554 C 0.54376 0.11876 0.18767 0.0
H555 H 0.47472 0.1707 0.1812 0.0
H556 H 0.49999 0.16118 0.19116 0.0
H557 H 0.50196 0.18299 0.17672 0.0
H558 H 0.54216 0.17276 0.17297 0.0
H559 H 0.57753 0.17594 0.18751 0.0
H560 H 0.15833 0.78475 0.17183 0.0
H561 H 0.15493 0.7653 0.14756 0.0
H562 H 0.15212 0.83047 0.1245 0.0
H563 H 0.15529 0.85029 0.14903 0.0
H564 H 0.11714 0.80051 0.11591 0.0
H565 H 0.20047 0.75636 0.11331 0.0
H566 H 0.18669 0.75157 0.1312 0.0
H567 H 0.19522 0.78014 0.12593 0.0
C568 C 0.15737 0.79504 0.16161 0.0
C569 C 0.15712 0.81909 0.16237 0.0
C570 C 0.15555 0.78385 0.1477 0.0
C571 C 0.15356 0.7964 0.13418 0.0
C572 C 0.15381 0.82046 0.1348 0.0
H573 H 0.15163 0.70542 0.0556 0.0
H574 H 0.15947 0.74 0.0703 0.0
C575 C 0.15575 0.83175 0.1488 0.0
C576 C 0.14958 0.78402 0.11972 0.0
H577 H 0.16966 0.73889 0.09915 0.0
C578 C 0.12882 0.78736 0.11201 0.0
C579 C 0.16496 0.76713 0.11446 0.0
C580 C 0.18819 0.76375 0.12157 0.0
C581 C 0.12237 0.77317 0.09985 0.0
C582 C 0.13688 0.75492 0.0955 0.0
C583 C 0.15833 0.75266 0.10255 0.0
C584 C 0.12966 0.73679 0.08465 0.0
C585 C 0.09993 0.77768 0.09198 0.0
C586 C 0.10988 0.72381 0.08745 0.0
C587 C 0.1052 0.70415 0.07893 0.0
C588 C 0.12046 0.69683 0.06762 0.0
C589 C 0.13956 0.71054 0.06426 0.0
C590 C 0.1441 0.73032 0.07268 0.0
H591 H 0.09534 0.79614 0.09252 0.0
H592 H 0.10044 0.77233 0.0799 0.0
H593 H 0.08621 0.76794 0.09781 0.0
H594 H 0.09874 0.72805 0.09684 0.0
H595 H 0.09044 0.6939 0.08191 0.0
H596 H 0.4496 0.92833 0.41022 0.0
H597 H 0.47722 0.92588 0.3895 0.0
H598 H 0.44065 0.86837 0.3708 0.0
H599 H 0.41288 0.87067 0.39145 0.0
H600 H 0.50348 0.88502 0.38548 0.0
H601 H 0.45593 0.90884 0.33313 0.0
H602 H 0.4466 0.91721 0.35186 0.0
H603 H 0.44219 0.88841 0.3454 0.0
C604 C 0.44705 0.91552 0.4015 0.0
C605 C 0.42907 0.89961 0.40257 0.0
C606 C 0.46291 0.91411 0.38968 0.0
C607 C 0.46096 0.89698 0.37859 0.0
C608 C 0.44232 0.88191 0.37912 0.0
H609 H 0.57671 0.84346 0.3272 0.0
H610 H 0.54035 0.84625 0.34086 0.0
C611 C 0.42649 0.88322 0.39098 0.0
C612 C 0.47978 0.89328 0.3676 0.0
H613 H 0.49333 0.89389 0.32987 0.0
C614 C 0.50126 0.88695 0.37332 0.0
C615 C 0.4768 0.8958 0.35176 0.0
C616 C 0.4542 0.9031 0.3451 0.0
C617 C 0.51988 0.8831 0.36365 0.0
C618 C 0.5169 0.8854 0.34779 0.0
C619 C 0.49545 0.89183 0.34203 0.0
C620 C 0.53645 0.88271 0.33725 0.0
C621 C 0.54277 0.8771 0.3705 0.0
C622 C 0.54567 0.90206 0.33009 0.0
C623 C 0.5664 0.90053 0.32229 0.0
C624 C 0.57824 0.87958 0.32144 0.0
C625 C 0.56806 0.85985 0.32764 0.0
C626 C 0.54735 0.86143 0.33552 0.0
H627 H 0.54315 0.88 0.38296 0.0
H628 H 0.5465 0.85875 0.36837 0.0
H629 H 0.55657 0.8874 0.36519 0.0
H630 H 0.53749 0.91862 0.33125 0.0
H631 H 0.57368 0.91603 0.31756 0.0
H632 H 0.33957 0.19985 0.66018 0.0
H633 H 0.34284 0.22632 0.63877 0.0
H634 H 0.39708 0.1853 0.61999 0.0
H635 H 0.39406 0.15869 0.6414 0.0
H636 H 0.38656 0.24946 0.63267 0.0
H637 H 0.35306 0.20069 0.58317 0.0
H638 H 0.345 0.19403 0.60248 0.0
H639 H 0.37275 0.18617 0.59564 0.0
C640 C 0.35186 0.19611 0.65135 0.0
C641 C 0.36658 0.17713 0.65256 0.0
C642 C 0.35373 0.21132 0.63913 0.0
C643 C 0.37014 0.20772 0.62778 0.0
C644 C 0.38413 0.18823 0.62854 0.0
H645 H 0.42298 0.31711 0.56956 0.0
H646 H 0.42027 0.28152 0.58426 0.0
C647 C 0.38236 0.17306 0.64081 0.0
C648 C 0.37406 0.22555 0.61606 0.0
H649 H 0.36856 0.23738 0.57823 0.0
C650 C 0.38273 0.2468 0.62075 0.0
C651 C 0.36902 0.22199 0.60055 0.0
C652 C 0.35931 0.19956 0.59506 0.0
C653 C 0.38634 0.26468 0.61037 0.0
C654 C 0.3813 0.26117 0.59484 0.0
C655 C 0.37266 0.2399 0.59011 0.0
C656 C 0.38335 0.28013 0.58369 0.0
C657 C 0.39493 0.28745 0.61614 0.0
C658 C 0.36355 0.29051 0.57793 0.0
C659 C 0.36503 0.31083 0.56956 0.0
C660 C 0.38636 0.32107 0.56672 0.0
C661 C 0.40629 0.30968 0.57153 0.0
C662 C 0.40478 0.2894 0.58 0.0
H663 H 0.39445 0.28849 0.62873 0.0
H664 H 0.41287 0.28994 0.61243 0.0
H665 H 0.38459 0.30171 0.61138 0.0
H666 H 0.34686 0.2836 0.58063 0.0
H667 H 0.34936 0.31909 0.56596 0.0
H668 H 0.05212 0.06353 0.91301 0.0
H669 H 0.02686 0.07144 0.89151 0.0
H670 H 0.06785 0.13005 0.87948 0.0
H671 H 0.0933 0.12225 0.9009 0.0
H672 H 1.00233 0.11285 0.88904 0.0
H673 H 0.05654 0.09809 0.83827 0.0
H674 H 0.06347 0.0865 0.85674 0.0
H675 H 0.06885 0.11615 0.85263 0.0
C676 C 0.0561 0.07781 0.90561 0.0
C677 C 0.07474 0.09227 0.90873 0.0
C678 C 0.04159 0.08234 0.89334 0.0
C679 C 0.04552 0.10127 0.88385 0.0
C680 C 0.06467 0.11515 0.88651 0.0
H681 H 0.93815 0.16818 0.83124 0.0
H682 H 0.97204 0.16123 0.84688 0.0
C683 C 0.07918 0.11068 0.89881 0.0
C684 C 0.02836 0.10771 0.87216 0.0
H685 H 0.02023 0.11518 0.83404 0.0
C686 C 1.00624 0.11335 0.87702 0.0
C687 C 0.03351 0.10831 0.85648 0.0
C688 C 0.05682 0.10177 0.85064 0.0
C689 C 0.98912 0.1196 0.86665 0.0
C690 C 0.99431 0.12052 0.85098 0.0
C691 C 0.0164 0.11474 0.84608 0.0
C692 C 0.97648 0.12615 0.83958 0.0
C693 C 0.96543 0.12468 0.87252 0.0
C694 C 0.96852 0.10914 0.82968 0.0
C695 C 0.94921 0.11306 0.82067 0.0
C696 C 0.93755 0.13413 0.82136 0.0
C697 C 0.94665 0.15174 0.83044 0.0
C698 C 0.96594 0.14776 0.83947 0.0
H699 H 0.96311 0.11872 0.8844 0.0
H700 H 0.96246 0.14345 0.87224 0.0
H701 H 0.95226 0.11642 0.86529 0.0
H702 H 0.97648 0.09238 0.82954 0.0
H703 H 0.94275 0.09917 0.81376 0.0
H704 H 0.87236 0.71873 0.5514 0.0
H705 H 0.86843 0.75513 0.56492 0.0
H706 H 0.91752 0.73211 0.59819 0.0
H707 H 0.92237 0.69641 0.58434 0.0
H708 H 0.85176 0.76194 0.59121 0.0
H709 H 0.9396 0.79537 0.59344 0.0
H710 H 0.93183 0.77181 0.58126 0.0
H711 H 0.93923 0.76682 0.60088 0.0
C712 C 0.88278 0.72173 0.56136 0.0
C713 C 0.89778 0.70472 0.56673 0.0
C714 C 0.88045 0.74252 0.56914 0.0
C715 C 0.89288 0.74665 0.58252 0.0
C716 C 0.90826 0.72983 0.58766 0.0
H717 H 0.84972 0.82114 0.66068 0.0
H718 H 0.85379 0.79554 0.63908 0.0
C719 C 0.91093 0.70926 0.57974 0.0
C720 C 0.8882 0.76736 0.59193 0.0
H721 H 0.91425 0.80836 0.61345 0.0
C722 C 0.86544 0.77234 0.59583 0.0
C723 C 0.90586 0.78141 0.59778 0.0
C724 C 0.93044 0.77871 0.59296 0.0
C725 C 0.86001 0.79008 0.60596 0.0
C726 C 0.87785 0.80267 0.61292 0.0
C727 C 0.9005 0.79852 0.6084 0.0
C728 C 0.87363 0.81925 0.62549 0.0
C729 C 0.83514 0.79508 0.60902 0.0
C730 C 0.88375 0.8411 0.62532 0.0
C731 C 0.88192 0.85562 0.6379 0.0
C732 C 0.86975 0.84869 0.65087 0.0
C733 C 0.85893 0.82719 0.6508 0.0
C734 C 0.86113 0.81253 0.63836 0.0
H735 H 0.82443 0.79089 0.59898 0.0
H736 H 0.82917 0.7842 0.61856 0.0
H737 H 0.83235 0.81334 0.612 0.0
H738 H 0.89356 0.84672 0.61559 0.0
H739 H 0.89052 0.87205 0.63762 0.0
H740 H 0.0726 0.17553 0.32326 0.0
H741 H 0.03613 0.17089 0.33668 0.0
H742 H 0.04963 0.09869 0.34201 0.0
H743 H 0.08558 0.10304 0.32845 0.0
H744 H 1.00324 0.10818 0.337 0.0
H745 H 0.04063 0.16237 0.38277 0.0
H746 H 0.03825 0.17526 0.3643 0.0
H747 H 0.05756 0.15174 0.36722 0.0
C748 C 0.0675 0.15859 0.32697 0.0
C749 C 0.08215 0.13972 0.32503 0.0
C750 C 0.04673 0.15599 0.3347 0.0
C751 C 0.0404 0.13452 0.34061 0.0
C752 C 0.05419 0.11542 0.33761 0.0
H753 H 0.98212 0.08383 0.41997 0.0
H754 H 1.00257 0.09305 0.39666 0.0
C755 C 0.07483 0.11799 0.32992 0.0
C756 C 0.0211 0.132 0.3514 0.0
H757 H 1.00625 0.14373 0.38804 0.0
C758 C 1.00358 0.11632 0.34805 0.0
C759 C 0.02178 0.14243 0.3659 0.0
C760 C 0.0406 0.15877 0.37039 0.0
C761 C 0.98725 0.11014 0.35903 0.0
C762 C 0.98855 0.11991 0.37364 0.0
C763 C 1.00536 0.13635 0.37676 0.0
C764 C 0.97448 0.11155 0.38644 0.0
C765 C 0.9695 0.09232 0.3553 0.0
C766 C 0.95164 0.11834 0.38818 0.0
C767 C 0.93979 0.11304 0.40157 0.0
C768 C 0.95075 0.10104 0.41339 0.0
C769 C 0.9732 0.09319 0.41115 0.0
C770 C 0.98494 0.09844 0.39783 0.0
H771 H 0.97107 0.08594 0.34348 0.0
H772 H 0.97114 0.0776 0.36323 0.0
H773 H 0.95217 0.09969 0.35684 0.0
H774 H 0.94335 0.1286 0.37953 0.0
H775 H 0.92255 0.11943 0.40298 0.0
H776 H 0.56664 0.32704 0.09197 0.0
H777 H 0.57981 0.29266 0.10521 0.0
H778 H 0.64276 0.29436 0.07992 0.0
H779 H 0.62973 0.3287 0.06649 0.0
H780 H 0.62356 0.2482 0.0858 0.0
H781 H 0.63196 0.30308 0.13704 0.0
H782 H 0.6043 0.30329 0.12816 0.0
H783 H 0.62848 0.31484 0.11822 0.0
C784 C 0.58306 0.31983 0.08893 0.0
C785 C 0.59724 0.33083 0.07829 0.0
C786 C 0.59059 0.30021 0.09656 0.0
C787 C 0.6124 0.29123 0.09371 0.0
C788 C 0.62589 0.30109 0.08231 0.0
H789 H 0.69187 0.21509 0.15938 0.0
H790 H 0.68023 0.2402 0.13858 0.0
C791 C 0.6184 0.32074 0.07465 0.0
C792 C 0.62205 0.27319 0.10371 0.0
H793 H 0.63942 0.26364 0.14015 0.0
C794 C 0.62706 0.2515 0.09768 0.0
C795 C 0.62694 0.27772 0.11914 0.0
C796 C 0.62286 0.30103 0.12605 0.0
C797 C 0.63644 0.23405 0.10682 0.0
C798 C 0.64079 0.23846 0.12234 0.0
C799 C 0.63607 0.26027 0.12825 0.0
C800 C 0.64992 0.22081 0.1329 0.0
C801 C 0.64192 0.21119 0.09977 0.0
C802 C 0.63715 0.20111 0.13631 0.0
C803 C 0.64382 0.18662 0.1482 0.0
C804 C 0.66326 0.19172 0.15699 0.0
C805 C 0.67677 0.21067 0.1529 0.0
C806 C 0.67012 0.22509 0.14102 0.0
H807 H 0.6432 0.2124 0.08722 0.0
H808 H 0.65822 0.20423 0.10432 0.0
H809 H 0.62811 0.19886 0.10254 0.0
H810 H 0.62132 0.19764 0.13037 0.0
H811 H 0.63295 0.17224 0.15106 0.0
H812 H 0.54238 0.94102 0.9139 0.0
H813 H 0.5177 0.93009 0.89274 0.0
H814 H 0.56522 0.87702 0.88017 0.0
H815 H 0.5902 0.88792 0.90129 0.0
H816 H 0.54219 0.90174 0.85459 0.0
H817 H 0.48346 0.86746 0.89863 0.0
H818 H 0.49163 0.8969 0.90111 0.0
H819 H 0.51282 0.87474 0.90263 0.0
C820 C 0.5479 0.92737 0.90644 0.0
C821 C 0.56813 0.91514 0.90944 0.0
C822 C 0.53373 0.92112 0.89436 0.0
C823 C 0.53945 0.90249 0.88508 0.0
C824 C 0.56047 0.8914 0.88725 0.0
H825 H 0.43501 0.823 0.83931 0.0
H826 H 0.47015 0.83402 0.85237 0.0
C827 C 0.57474 0.89768 0.89933 0.0
C828 C 0.52235 0.89307 0.87433 0.0
H829 H 0.46995 0.86751 0.87338 0.0
C830 C 0.52641 0.89416 0.85864 0.0
C831 C 0.502 0.88282 0.87968 0.0
C832 C 0.4972 0.88017 0.89643 0.0
C833 C 0.51027 0.88582 0.84815 0.0
C834 C 0.48952 0.87634 0.85353 0.0
C835 C 0.48581 0.8748 0.86923 0.0
C836 C 0.47093 0.86846 0.84327 0.0
C837 C 0.51564 0.88702 0.83144 0.0
C838 C 0.46003 0.8839 0.83339 0.0
C839 C 0.43995 0.87759 0.82581 0.0
C840 C 0.43024 0.8558 0.82812 0.0
C841 C 0.44195 0.83994 0.8373 0.0
C842 C 0.46205 0.84622 0.84481 0.0
H843 H 0.53433 0.88824 0.82941 0.0
H844 H 0.5089 0.8718 0.82536 0.0
H845 H 0.5075 0.90253 0.82653 0.0
H846 H 0.46625 0.90128 0.83223 0.0
H847 H 0.43134 0.89028 0.81888 0.0
H848 H 0.88153 0.31961 0.95117 0.0
H849 H 0.87283 0.28361 0.93822 0.0
H850 H 0.9387 0.28541 0.91641 0.0
H851 H 0.94744 0.3215 0.92912 0.0
H852 H 0.90288 0.2821 0.89629 0.0
H853 H 0.89408 0.21684 0.9418 0.0
H854 H 0.87777 0.24254 0.94474 0.0
H855 H 0.90844 0.24388 0.94473 0.0
C856 C 0.89442 0.31206 0.94392 0.0
C857 C 0.91514 0.32356 0.9411 0.0
C858 C 0.88943 0.2914 0.93656 0.0
C859 C 0.90514 0.28175 0.92638 0.0
C860 C 0.92633 0.29253 0.92422 0.0
H861 H 0.90372 0.15789 0.87285 0.0
H862 H 0.90951 0.18647 0.89274 0.0
C863 C 0.93131 0.31317 0.93153 0.0
C864 C 0.89858 0.26206 0.91662 0.0
H865 H 0.88186 0.20592 0.91705 0.0
C866 C 0.89833 0.26544 0.90085 0.0
C867 C 0.8927 0.24032 0.92257 0.0
C868 C 0.89342 0.23552 0.93938 0.0
C869 C 0.89233 0.24776 0.89086 0.0
C870 C 0.886 0.22613 0.89679 0.0
C871 C 0.88641 0.22262 0.91256 0.0
C872 C 0.88005 0.20683 0.88658 0.0
C873 C 0.89328 0.25224 0.87399 0.0
C874 C 0.86096 0.20825 0.87695 0.0
C875 C 0.85759 0.19195 0.86554 0.0
C876 C 0.87325 0.1739 0.86357 0.0
C877 C 0.89138 0.17161 0.87398 0.0
C878 C 0.89473 0.18793 0.88538 0.0
H879 H 0.90308 0.26802 0.87127 0.0
H880 H 0.90121 0.23758 0.86795 0.0
H881 H 0.87565 0.25444 0.86957 0.0
H882 H 0.84924 0.22255 0.87784 0.0
H883 H 0.84337 0.19418 0.8578 0.0
H884 H 0.4385 0.20326 0.67396 0.0
H885 H 0.4722 0.19138 0.65962 0.0
H886 H 0.47248 0.12657 0.68313 0.0
H887 H 0.43902 0.13839 0.69773 0.0
H888 H 0.5171 0.1443 0.67698 0.0
H889 H 0.46099 0.14348 0.62607 0.0
H890 H 0.46221 0.17048 0.63578 0.0
H891 H 0.44986 0.14601 0.64507 0.0
C892 C 0.44602 0.18669 0.67637 0.0
C893 C 0.43582 0.17165 0.68684 0.0
C894 C 0.46523 0.17989 0.66809 0.0
C895 C 0.47449 0.1579 0.67008 0.0
C896 C 0.46549 0.14356 0.68136 0.0
H897 H 0.54501 0.08295 0.5999 0.0
H898 H 0.52068 0.09384 0.6212 0.0
C899 C 0.44633 0.15036 0.68969 0.0
C900 C 0.49194 0.149 0.65941 0.0
H901 H 0.50002 0.13538 0.62216 0.0
C902 C 0.51344 0.14235 0.66499 0.0
C903 C 0.48692 0.14605 0.64383 0.0
C904 C 0.4637 0.15166 0.6373 0.0
C905 C 0.53021 0.13316 0.6553 0.0
C906 C 0.52535 0.13079 0.63965 0.0
C907 C 0.50375 0.13724 0.63416 0.0
C908 C 0.54223 0.12182 0.62858 0.0
C909 C 0.55277 0.12568 0.66195 0.0
C910 C 0.56284 0.13346 0.62591 0.0
C911 C 0.57691 0.12713 0.61379 0.0
C912 C 0.57046 0.10924 0.60398 0.0
C913 C 0.55046 0.09684 0.6072 0.0
C914 C 0.5365 0.10307 0.61936 0.0
H915 H 0.55152 0.12271 0.67438 0.0
H916 H 0.55897 0.10975 0.65645 0.0
H917 H 0.56565 0.13932 0.66001 0.0
H918 H 0.56743 0.14824 0.63268 0.0
H919 H 0.5921 0.13719 0.61156 0.0
H920 H 0.63638 0.84598 0.36437 0.0
H921 H 0.62557 0.82176 0.38587 0.0
H922 H 0.68132 0.77596 0.37578 0.0
H923 H 0.69201 0.79983 0.35415 0.0
H924 H 0.64011 0.75441 0.37628 0.0
H925 H 0.65012 0.80705 0.42822 0.0
H926 H 0.63395 0.82068 0.4134 0.0
H927 H 0.66367 0.81435 0.41045 0.0
C928 C 0.64676 0.83112 0.36698 0.0
C929 C 0.66496 0.82474 0.35744 0.0
C930 C 0.64059 0.81731 0.37934 0.0
C931 C 0.65267 0.79705 0.38248 0.0
C932 C 0.67174 0.79151 0.37357 0.0
H933 H 0.63414 0.69205 0.45117 0.0
H934 H 0.64695 0.72593 0.43715 0.0
C935 C 0.67785 0.8052 0.3612 0.0
C936 C 0.64375 0.78012 0.39362 0.0
H937 H 0.62918 0.77213 0.43084 0.0
C938 C 0.63784 0.7583 0.38822 0.0
C939 C 0.64082 0.78515 0.40921 0.0
C940 C 0.64765 0.80801 0.41573 0.0
C941 C 0.62895 0.74144 0.3979 0.0
C942 C 0.62542 0.74662 0.4134 0.0
C943 C 0.63161 0.76832 0.41891 0.0
C944 C 0.61595 0.72922 0.42396 0.0
C945 C 0.6237 0.71805 0.39147 0.0
C946 C 0.59384 0.72056 0.42172 0.0
C947 C 0.58648 0.70117 0.42966 0.0
C948 C 0.60107 0.69012 0.44005 0.0
C949 C 0.62248 0.70005 0.44321 0.0
C950 C 0.62986 0.71943 0.43521 0.0
H951 H 0.63212 0.7153 0.38032 0.0
H952 H 0.62929 0.70432 0.39938 0.0
H953 H 0.60498 0.71639 0.3898 0.0
H954 H 0.58271 0.72809 0.41323 0.0
H955 H 0.56982 0.69413 0.42703 0.0
H956 H 0.06868 0.85263 0.19199 0.0
H957 H 0.03167 0.85718 0.1791 0.0
H958 H 0.05267 0.92353 0.16265 0.0
H959 H 0.08911 0.91941 0.17566 0.0
H960 H 1.00768 0.92329 0.17163 0.0
H961 H 0.02628 0.84993 0.13326 0.0
H962 H 0.02615 0.84356 0.15321 0.0
H963 H 0.04772 0.86214 0.14553 0.0
C964 C 0.06523 0.86831 0.18581 0.0
C965 C 0.08196 0.88553 0.18471 0.0
C966 C 0.04415 0.87083 0.17836 0.0
C967 C 0.03957 0.89052 0.16965 0.0
C968 C 0.05582 0.90815 0.16923 0.0
H969 H 0.95777 0.94558 0.099 0.0
H970 H 0.9816 0.93918 0.12138 0.0
C971 C 0.07674 0.90569 0.17665 0.0
C972 C 0.01862 0.89262 0.16017 0.0
H973 H 0.99294 0.8709 0.12847 0.0
C974 C 1.00428 0.91166 0.16231 0.0
C975 C 0.01419 0.87748 0.14798 0.0
C976 C 0.02944 0.85721 0.14471 0.0
C977 C 0.98606 0.91632 0.15235 0.0
C978 C 0.98223 0.90169 0.13983 0.0
C979 C 0.9959 0.8821 0.13809 0.0
C980 C 0.96544 0.90721 0.1277 0.0
C981 C 0.97127 0.93702 0.1552 0.0
C982 C 0.94823 0.89151 0.12385 0.0
C983 C 0.93456 0.89512 0.11103 0.0
C984 C 0.93801 0.91439 0.10167 0.0
C985 C 0.95456 0.93061 0.10596 0.0
C986 C 0.96817 0.92702 0.11882 0.0
H987 H 0.97175 0.9422 0.16732 0.0
H988 H 0.9777 0.9516 0.14833 0.0
H989 H 0.95326 0.93371 0.15189 0.0
H990 H 0.9459 0.87606 0.1305 0.0
H991 H 0.92202 0.88223 0.10808 0.0
H992 H 0.66307 0.73939 0.84585 0.0
H993 H 0.66027 0.75783 0.87049 0.0
H994 H 0.6547 0.69181 0.89221 0.0
H995 H 0.65719 0.67302 0.8673 0.0
H996 H 0.62117 0.72183 0.90141 0.0
H997 H 0.70503 0.76447 0.90517 0.0
H998 H 0.69163 0.77062 0.88733 0.0
H999 H 0.69945 0.74156 0.89192 0.0
C1000 C 0.66163 0.72868 0.85586 0.0
C1001 C 0.66037 0.70471 0.8546 0.0
C1002 C 0.6602 0.73929 0.86998 0.0
C1003 C 0.65762 0.72623 0.88324 0.0
C1004 C 0.65688 0.70221 0.88213 0.0
H1005 H 0.65422 0.81746 0.96201 0.0
H1006 H 0.66288 0.78259 0.94776 0.0
C1007 C 0.65841 0.69151 0.86791 0.0
C1008 C 0.6538 0.7381 0.89793 0.0
H1009 H 0.67409 0.78256 0.91907 0.0
C1010 C 0.63297 0.73476 0.90551 0.0
C1011 C 0.66933 0.75463 0.90351 0.0
C1012 C 0.69271 0.75784 0.89664 0.0
C1013 C 0.62653 0.74875 0.91775 0.0
C1014 C 0.64109 0.76686 0.92231 0.0
C1015 C 0.66269 0.76895 0.9155 0.0
C1016 C 0.63355 0.78525 0.93287 0.0
C1017 C 0.60396 0.74426 0.92544 0.0
C1018 C 0.61383 0.79805 0.92958 0.0
C1019 C 0.60871 0.81785 0.9378 0.0
C1020 C 0.62344 0.82557 0.94934 0.0
C1021 C 0.64251 0.81206 0.95319 0.0
C1022 C 0.64753 0.79212 0.94502 0.0
H1023 H 0.59954 0.72576 0.92501 0.0
H1024 H 0.60419 0.74983 0.93748 0.0
H1025 H 0.59028 0.75377 0.91939 0.0
H1026 H 0.60305 0.79354 0.92005 0.0
H1027 H 0.59394 0.82785 0.93445 0.0
H1028 H 0.60637 0.37066 0.12475 0.0
H1029 H 0.57966 0.36727 0.14603 0.0
H1030 H 0.54094 0.42438 0.12865 0.0
H1031 H 0.56749 0.42804 0.1074 0.0
H1032 H 0.56011 0.40517 0.16857 0.0
H1033 H 0.49928 0.36249 0.1291 0.0
H1034 H 0.52968 0.36341 0.12562 0.0
H1035 H 0.51257 0.38847 0.12249 0.0
C1036 C 0.59249 0.38286 0.12563 0.0
C1037 C 0.58899 0.39953 0.11428 0.0
C1038 C 0.57726 0.38087 0.1378 0.0
C1039 C 0.55829 0.39546 0.1388 0.0
C1040 C 0.55547 0.41292 0.12801 0.0
H1041 H 0.44791 0.42214 0.19919 0.0
H1042 H 0.48448 0.42208 0.18595 0.0
C1043 C 0.5707 0.41499 0.11588 0.0
C1044 C 0.54024 0.39123 0.15022 0.0
H1045 H 0.48547 0.3719 0.15346 0.0
C1046 C 0.54384 0.39774 0.16535 0.0
C1047 C 0.51922 0.3812 0.14599 0.0
C1048 C 0.51485 0.3733 0.12995 0.0
C1049 C 0.5265 0.39522 0.17629 0.0
C1050 C 0.50506 0.38614 0.17188 0.0
C1051 C 0.50188 0.37886 0.15685 0.0
C1052 C 0.48508 0.38545 0.18225 0.0
C1053 C 0.53124 0.40236 0.19242 0.0
C1054 C 0.47331 0.36482 0.18479 0.0
C1055 C 0.45227 0.36479 0.19233 0.0
C1056 C 0.44248 0.38547 0.19732 0.0
C1057 C 0.45494 0.40591 0.1955 0.0
C1058 C 0.47597 0.4059 0.18801 0.0
H1059 H 0.54983 0.4021 0.19496 0.0
H1060 H 0.52502 0.42013 0.19413 0.0
H1061 H 0.5223 0.39102 0.20062 0.0
H1062 H 0.47997 0.34885 0.18037 0.0
H1063 H 0.44312 0.34876 0.19349 0.0
H1064 H 0.92839 0.18947 0.44222 0.0
H1065 H 0.9256 0.22581 0.42829 0.0
H1066 H 0.85208 0.22101 0.42924 0.0
H1067 H 0.85471 0.18521 0.44329 0.0
H1068 H 0.90757 0.2282 0.40038 0.0
H1069 H 0.86025 0.28839 0.43691 0.0
H1070 H 0.87354 0.26274 0.4443 0.0
H1071 H 0.84562 0.26149 0.43569 0.0
C1072 C 0.91164 0.19656 0.43989 0.0
C1073 C 0.89177 0.18437 0.44379 0.0
C1074 C 0.91007 0.2173 0.43189 0.0
C1075 C 0.88862 0.22632 0.42783 0.0
C1076 C 0.86881 0.21478 0.43251 0.0
H1077 H 0.84012 0.28598 0.34734 0.0
H1078 H 0.84952 0.26442 0.37024 0.0
C1079 C 0.87037 0.19412 0.44045 0.0
C1080 C 0.8867 0.24564 0.41686 0.0
H1081 H 0.85694 0.29493 0.40964 0.0
C1082 C 0.89694 0.24305 0.40256 0.0
C1083 C 0.87293 0.26515 0.41966 0.0
C1084 C 0.86267 0.26973 0.43504 0.0
C1085 C 0.89257 0.25857 0.39074 0.0
C1086 C 0.87738 0.27702 0.3932 0.0
C1087 C 0.86831 0.28055 0.40773 0.0
C1088 C 0.8695 0.29152 0.3804 0.0
C1089 C 0.90364 0.25468 0.3755 0.0
C1090 C 0.87687 0.31428 0.37882 0.0
C1091 C 0.87148 0.32676 0.36567 0.0
C1092 C 0.85861 0.31662 0.35395 0.0
C1093 C 0.85019 0.29428 0.35606 0.0
C1094 C 0.85557 0.28188 0.36914 0.0
H1095 H 0.91882 0.24333 0.37641 0.0
H1096 H 0.89113 0.2464 0.36778 0.0
H1097 H 0.90892 0.27118 0.3703 0.0
H1098 H 0.88758 0.32201 0.38744 0.0
H1099 H 0.87829 0.3439 0.36438 0.0
H1100 H 0.08767 0.60001 0.67855 0.0
H1101 H 0.05061 0.59722 0.66629 0.0
H1102 H 0.03382 0.66546 0.68133 0.0
H1103 H 0.0716 0.66872 0.69335 0.0
H1104 H 1.00671 0.59964 0.6755 0.0
H1105 H 0.02625 0.67146 0.63591 0.0
H1106 H 0.04765 0.65911 0.64816 0.0
H1107 H 0.0267 0.67847 0.65574 0.0
C1108 C 0.07612 0.61446 0.67939 0.0
C1109 C 0.08278 0.63475 0.68676 0.0
C1110 C 0.05482 0.61276 0.67239 0.0
C1111 C 0.03955 0.63126 0.67261 0.0
C1112 C 0.04554 0.65114 0.6807 0.0
H1113 H 0.92102 0.63912 0.61155 0.0
H1114 H 0.94407 0.64544 0.63435 0.0
C1115 C 0.06706 0.65293 0.68767 0.0
C1116 C 0.01816 0.62974 0.66353 0.0
H1117 H 0.99234 0.65121 0.63175 0.0
C1118 C 1.00339 0.61113 0.66606 0.0
C1119 C 0.01381 0.6447 0.65119 0.0
C1120 C 0.02947 0.66447 0.64745 0.0
C1121 C 0.985 0.60656 0.65626 0.0
C1122 C 0.9813 0.62093 0.64359 0.0
C1123 C 0.99523 0.64025 0.64152 0.0
C1124 C 0.96474 0.61507 0.63143 0.0
C1125 C 0.97 0.58607 0.65932 0.0
C1126 C 0.96839 0.59561 0.62241 0.0
C1127 C 0.95537 0.59201 0.60932 0.0
C1128 C 0.93842 0.6078 0.60499 0.0
C1129 C 0.93386 0.62655 0.61457 0.0
C1130 C 0.94706 0.63025 0.62759 0.0
H1131 H 0.97079 0.58078 0.67142 0.0
H1132 H 0.95194 0.58973 0.65626 0.0
H1133 H 0.97594 0.57146 0.65231 0.0
H1134 H 0.98218 0.58386 0.62503 0.0
H1135 H 0.95934 0.57743 0.6022 0.0
H1136 H 0.57034 0.20042 0.58829 0.0
H1137 H 0.5827 0.23458 0.60201 0.0
H1138 H 0.649 0.23 0.58093 0.0
H1139 H 0.63663 0.19615 0.56691 0.0
H1140 H 0.61649 0.23212 0.62255 0.0
H1141 H 0.63827 0.29862 0.58006 0.0
H1142 H 0.62107 0.27387 0.57549 0.0
H1143 H 0.65169 0.27154 0.57637 0.0
C1144 C 0.58734 0.20705 0.58622 0.0
C1145 C 0.60254 0.19542 0.57658 0.0
C1146 C 0.5944 0.22659 0.5941 0.0
C1147 C 0.61677 0.23494 0.59249 0.0
C1148 C 0.63153 0.22419 0.58217 0.0
H1149 H 0.69162 0.30011 0.66497 0.0
H1150 H 0.68022 0.27669 0.64328 0.0
C1151 C 0.62444 0.20472 0.5742 0.0
C1152 C 0.62552 0.25264 0.60313 0.0
H1153 H 0.65271 0.30442 0.60527 0.0
C1154 C 0.62422 0.248 0.61874 0.0
C1155 C 0.63558 0.27341 0.59819 0.0
C1156 C 0.63656 0.2798 0.58162 0.0
C1157 C 0.63299 0.26329 0.62952 0.0
C1158 C 0.64382 0.28364 0.62458 0.0
C1159 C 0.64471 0.28863 0.609 0.0
C1160 C 0.65379 0.29993 0.63566 0.0
C1161 C 0.6304 0.2576 0.64615 0.0
C1162 C 0.64364 0.3214 0.638 0.0
C1163 C 0.65022 0.33495 0.65036 0.0
C1164 C 0.66704 0.32717 0.66059 0.0
C1165 C 0.67846 0.30652 0.65742 0.0
C1166 C 0.67193 0.29306 0.64505 0.0
H1167 H 0.61716 0.24427 0.64808 0.0
H1168 H 0.64688 0.25097 0.65058 0.0
H1169 H 0.62577 0.27309 0.65277 0.0
H1170 H 0.62968 0.32705 0.63083 0.0
H1171 H 0.64111 0.35079 0.65242 0.0
H1172 H 0.08733 0.4115 0.84202 0.0
H1173 H 0.04962 0.41542 0.85318 0.0
H1174 H 0.02745 0.3541 0.83022 0.0
H1175 H 0.06577 0.34968 0.81917 0.0
H1176 H 1.00641 0.41996 0.84151 0.0
H1177 H 0.01476 0.33876 0.87446 0.0
H1178 H 0.03867 0.35141 0.86466 0.0
H1179 H 0.01687 0.33663 0.85418 0.0
C1180 C 0.07448 0.39885 0.83921 0.0
C1181 C 0.07969 0.38009 0.82985 0.0
C1182 C 0.05282 0.4012 0.84557 0.0
C1183 C 0.03577 0.38489 0.84274 0.0
C1184 C 0.04049 0.36667 0.8328 0.0
H1185 H 0.91617 0.38246 0.90357 0.0
H1186 H 0.93701 0.37606 0.87975 0.0
C1187 C 0.06233 0.36424 0.82642 0.0
C1188 C 0.01377 0.38675 0.85106 0.0
H1189 H 0.98414 0.36276 0.88043 0.0
C1190 C 1.00126 0.40723 0.84981 0.0
C1191 C 1.00697 0.37011 0.86186 0.0
C1192 C 0.02002 0.34803 0.86402 0.0
C1193 C 0.98307 0.4121 0.85967 0.0
C1194 C 0.9773 0.39614 0.8711 0.0
C1195 C 0.98862 0.37495 0.87162 0.0
C1196 C 0.96226 0.40235 0.88399 0.0
C1197 C 0.97076 0.43468 0.85817 0.0
C1198 C 0.96934 0.41947 0.89411 0.0
C1199 C 0.95768 0.42298 0.90771 0.0
C1200 C 0.93858 0.40954 0.91143 0.0
C1201 C 0.93067 0.39327 0.90091 0.0
C1202 C 0.9426 0.38952 0.88734 0.0
H1203 H 0.97196 0.44153 0.84643 0.0
H1204 H 0.95246 0.43298 0.86129 0.0
H1205 H 0.97875 0.44733 0.86592 0.0
H1206 H 0.9847 0.42927 0.8919 0.0
H1207 H 0.96421 0.43556 0.91563 0.0
H1208 H 0.92284 0.82209 0.07648 0.0
H1209 H 0.91667 0.78814 0.09209 0.0
H1210 H 0.85301 0.77529 0.0689 0.0
H1211 H 0.85877 0.80968 0.05352 0.0
H1212 H 0.84635 0.77734 0.0982 0.0
H1213 H 0.91975 0.71988 0.08872 0.0
H1214 H 0.92939 0.74826 0.09307 0.0
H1215 H 0.9131 0.74327 0.07601 0.0
C1216 C 0.90786 0.81167 0.07435 0.0
C1217 C 0.8912 0.81873 0.06382 0.0
C1218 C 0.9044 0.79211 0.08326 0.0
C1219 C 0.88443 0.77897 0.08164 0.0
C1220 C 0.86856 0.78511 0.07037 0.0
H1221 H 0.8632 0.6677 0.14902 0.0
H1222 H 0.86512 0.68665 0.12405 0.0
C1223 C 0.8719 0.80478 0.06156 0.0
C1224 C 0.87857 0.76116 0.09312 0.0
H1225 H 0.90075 0.7162 0.11321 0.0
C1226 C 0.85805 0.76366 0.10121 0.0
C1227 C 0.8936 0.74305 0.09702 0.0
C1228 C 0.91506 0.73831 0.08811 0.0
C1229 C 0.85291 0.74961 0.11368 0.0
C1230 C 0.86887 0.73286 0.11839 0.0
C1231 C 0.88864 0.72925 0.1097 0.0
C1232 C 0.86656 0.72099 0.13322 0.0
C1233 C 0.83069 0.75332 0.12199 0.0
C1234 C 0.86679 0.73399 0.14657 0.0
C1235 C 0.86573 0.72331 0.16071 0.0
C1236 C 0.8645 0.69932 0.16188 0.0
C1237 C 0.86396 0.68622 0.14848 0.0
C1238 C 0.86516 0.697 0.13424 0.0
H1239 H 0.81752 0.76094 0.11441 0.0
H1240 H 0.82399 0.73701 0.12671 0.0
H1241 H 0.83357 0.7654 0.13151 0.0
H1242 H 0.86828 0.75248 0.14608 0.0
H1243 H 0.86624 0.73395 0.17077 0.0
H1244 H 0.59105 0.63396 0.40481 0.0
H1245 H 0.56594 0.64219 0.3833 0.0
H1246 H 0.53481 0.57568 0.388 0.0
H1247 H 0.55981 0.56721 0.40962 0.0
H1248 H 0.54539 0.59391 0.35568 0.0
H1249 H 0.49509 0.65181 0.39319 0.0
H1250 H 0.52564 0.65534 0.39279 0.0
H1251 H 0.51357 0.62975 0.40072 0.0
C1252 C 0.57921 0.62084 0.40112 0.0
C1253 C 0.57733 0.59995 0.40906 0.0
C1254 C 0.56483 0.62564 0.38883 0.0
C1255 C 0.5484 0.60964 0.38419 0.0
C1256 C 0.5474 0.58825 0.39145 0.0
H1257 H 0.43285 0.59684 0.32594 0.0
H1258 H 0.46875 0.592 0.33946 0.0
C1259 C 0.5617 0.58345 0.4038 0.0
C1260 C 0.53096 0.61594 0.37271 0.0
H1261 H 0.4821 0.64717 0.36823 0.0
C1262 C 0.53162 0.60567 0.35834 0.0
C1263 C 0.51317 0.63145 0.3762 0.0
C1264 C 0.51159 0.64271 0.39157 0.0
C1265 C 0.51472 0.61032 0.34739 0.0
C1266 C 0.49636 0.62513 0.35109 0.0
C1267 C 0.49615 0.63588 0.36534 0.0
C1268 C 0.47617 0.62825 0.341 0.0
C1269 C 0.51682 0.59938 0.33196 0.0
C1270 C 0.46814 0.6503 0.33733 0.0
C1271 C 0.44728 0.65317 0.32971 0.0
C1272 C 0.434 0.63402 0.3257 0.0
C1273 C 0.44261 0.61199 0.3288 0.0
C1274 C 0.46333 0.60916 0.33645 0.0
H1275 H 0.53498 0.59596 0.32908 0.0
H1276 H 0.50774 0.58269 0.33203 0.0
H1277 H 0.50926 0.61034 0.32295 0.0
H1278 H 0.47766 0.66532 0.3408 0.0
H1279 H 0.44112 0.67037 0.32757 0.0
H1280 H 0.42099 0.20691 0.0649 0.0
H1281 H 0.41919 0.24338 0.07865 0.0
H1282 H 0.3495 0.22895 0.09135 0.0
H1283 H 0.35086 0.19321 0.07725 0.0
H1284 H 0.35572 0.27441 0.0868 0.0
H1285 H 0.42415 0.23945 0.12422 0.0
H1286 H 0.43179 0.24314 0.10465 0.0
H1287 H 0.41052 0.22233 0.10983 0.0
C1288 C 0.40512 0.21181 0.0703 0.0
C1289 C 0.38621 0.19693 0.07022 0.0
C1290 C 0.40416 0.23257 0.07826 0.0
C1291 C 0.38441 0.2386 0.08641 0.0
C1292 C 0.36499 0.22464 0.08526 0.0
H1293 H 0.36284 0.29341 0.17253 0.0
H1294 H 0.36729 0.27284 0.14873 0.0
C1295 C 0.36585 0.20409 0.07722 0.0
C1296 C 0.38437 0.25777 0.0975 0.0
H1297 H 0.40677 0.27352 0.13172 0.0
C1298 C 0.36711 0.27449 0.09651 0.0
C1299 C 0.39912 0.2577 0.11026 0.0
C1300 C 0.41733 0.23964 0.11244 0.0
C1301 C 0.36351 0.29039 0.10826 0.0
C1302 C 0.37781 0.28977 0.1212 0.0
C1303 C 0.39583 0.27393 0.12177 0.0
C1304 C 0.37288 0.3032 0.13511 0.0
C1305 C 0.34364 0.30678 0.10719 0.0
C1306 C 0.37394 0.32727 0.13534 0.0
C1307 C 0.37113 0.33921 0.14905 0.0
C1308 C 0.36755 0.32717 0.16268 0.0
C1309 C 0.36576 0.30319 0.16225 0.0
C1310 C 0.36833 0.29138 0.14864 0.0
H1311 H 0.33212 0.30264 0.09755 0.0
H1312 H 0.33355 0.30652 0.11785 0.0
H1313 H 0.3502 0.32444 0.10554 0.0
H1314 H 0.37772 0.33674 0.12508 0.0
H1315 H 0.37276 0.35769 0.14908 0.0
H1316 H 0.41752 0.6267 0.90356 0.0
H1317 H 0.43958 0.63276 0.88014 0.0
H1318 H 0.50022 0.60795 0.9026 0.0
H1319 H 0.47856 0.60198 0.92586 0.0
H1320 H 0.50227 0.65416 0.88938 0.0
H1321 H 0.47189 0.58709 0.8492 0.0
H1322 H 0.45125 0.60334 0.85989 0.0
H1323 H 0.4696 0.58348 0.86951 0.0
C1324 C 0.43542 0.62198 0.90335 0.0
C1325 C 0.44635 0.61401 0.91658 0.0
C1326 C 0.44798 0.62549 0.88999 0.0
C1327 C 0.47153 0.62087 0.88969 0.0
C1328 C 0.48208 0.6117 0.90262 0.0
H1329 H 0.5852 0.60505 0.83443 0.0
H1330 H 0.54894 0.60237 0.84778 0.0
C1331 C 0.46965 0.60828 0.91591 0.0
C1332 C 0.48599 0.62741 0.87658 0.0
H1333 H 0.50299 0.60981 0.84144 0.0
C1334 C 0.5022 0.6448 0.87875 0.0
C1335 C 0.48578 0.61509 0.86281 0.0
C1336 C 0.46879 0.59612 0.86009 0.0
C1337 C 0.51908 0.64938 0.86788 0.0
C1338 C 0.51948 0.63647 0.85428 0.0
C1339 C 0.50252 0.61982 0.85179 0.0
C1340 C 0.53928 0.63764 0.84378 0.0
C1341 C 0.53725 0.66691 0.87152 0.0
C1342 C 0.54556 0.65817 0.83652 0.0
C1343 C 0.56655 0.65984 0.82892 0.0
C1344 C 0.58147 0.64096 0.82843 0.0
C1345 C 0.57428 0.62002 0.83475 0.0
C1346 C 0.55344 0.6184 0.84233 0.0
H1347 H 0.5366 0.67249 0.88356 0.0
H1348 H 0.55453 0.65991 0.8692 0.0
H1349 H 0.53474 0.68225 0.86426 0.0
H1350 H 0.53468 0.67313 0.83726 0.0
H1351 H 0.57152 0.67615 0.82408 0.0
H1352 H 0.14153 0.66138 0.65056 0.0
H1353 H 0.13218 0.68167 0.62701 0.0
H1354 H 0.186 0.73026 0.63589 0.0
H1355 H 0.19546 0.71015 0.65938 0.0
H1356 H 0.11781 0.72755 0.62796 0.0
H1357 H 0.19268 0.71833 0.59017 0.0
H1358 H 0.18723 0.69906 0.60583 0.0
H1359 H 0.20022 0.72652 0.60916 0.0
C1360 C 0.15186 0.67596 0.64727 0.0
C1361 C 0.1692 0.68421 0.6569 0.0
C1362 C 0.14641 0.68758 0.63382 0.0
C1363 C 0.15847 0.70739 0.62963 0.0
C1364 C 0.17671 0.71479 0.63874 0.0
H1365 H 0.15026 0.82984 0.57985 0.0
H1366 H 0.16038 0.79478 0.59321 0.0
C1367 C 0.18204 0.70332 0.65223 0.0
C1368 C 0.1502 0.72215 0.61702 0.0
H1369 H 0.16784 0.75034 0.58515 0.0
C1370 C 0.12851 0.73219 0.61839 0.0
C1371 C 0.16424 0.72822 0.60462 0.0
C1372 C 0.18731 0.71731 0.60224 0.0
C1373 C 0.12107 0.74926 0.60827 0.0
C1374 C 0.13551 0.75606 0.59618 0.0
C1375 C 0.15676 0.74515 0.59439 0.0
C1376 C 0.13007 0.77619 0.58645 0.0
C1377 C 0.09847 0.7609 0.61123 0.0
C1378 C 0.10995 0.77725 0.57774 0.0
C1379 C 0.10393 0.79751 0.57013 0.0
C1380 C 0.11805 0.81696 0.571 0.0
C1381 C 0.13882 0.8153 0.57901 0.0
C1382 C 0.14472 0.79519 0.58664 0.0
H1383 H 0.09172 0.75691 0.62271 0.0
H1384 H 0.10011 0.77978 0.61014 0.0
H1385 H 0.08574 0.75495 0.60277 0.0
H1386 H 0.09862 0.76261 0.57714 0.0
H1387 H 0.08791 0.79813 0.56398 0.0
H1388 H 0.0442 0.44222 0.41467 0.0
H1389 H 0.02155 0.43026 0.39276 0.0
H1390 H 0.07204 0.37916 0.38182 0.0
H1391 H 0.095 0.3911 0.40367 0.0
H1392 H 0.04981 0.40251 0.35549 0.0
H1393 H 0.98955 0.36639 0.39795 0.0
H1394 H 0.99627 0.3962 0.40042 0.0
H1395 H 0.01826 0.375 0.4028 0.0
C1396 C 0.05082 0.42881 0.40741 0.0
C1397 C 0.07127 0.41739 0.41108 0.0
C1398 C 0.0378 0.42197 0.3949 0.0
C1399 C 0.04492 0.40356 0.38586 0.0
C1400 C 0.06621 0.39336 0.38871 0.0
H1401 H 0.94749 0.31853 0.33785 0.0
H1402 H 0.98126 0.33141 0.35172 0.0
C1403 C 0.07931 0.40023 0.40121 0.0
C1404 C 0.02898 0.39331 0.37466 0.0
H1405 H 0.97794 0.36531 0.37231 0.0
C1406 C 0.03411 0.3943 0.35912 0.0
C1407 C 0.00875 0.38223 0.37947 0.0
C1408 C 1.00288 0.37965 0.39607 0.0
C1409 C 0.01915 0.385 0.34821 0.0
C1410 C 0.9985 0.37464 0.35302 0.0
C1411 C 0.99373 0.37325 0.3686 0.0
C1412 C 0.98107 0.36565 0.34227 0.0
C1413 C 0.02566 0.38614 0.33168 0.0
C1414 C 0.97016 0.38034 0.33192 0.0
C1415 C 0.95088 0.37296 0.32387 0.0
C1416 C 0.94196 0.35083 0.32618 0.0
C1417 C 0.95381 0.33571 0.33583 0.0
C1418 C 0.97313 0.34306 0.34379 0.0
H1419 H 0.0444 0.38822 0.33022 0.0
H1420 H 0.0201 0.37049 0.32554 0.0
H1421 H 0.01716 0.40114 0.32636 0.0
H1422 H 0.97566 0.39797 0.33074 0.0
H1423 H 0.94214 0.38511 0.31659 0.0
H1424 H 0.34879 0.70638 0.35451 0.0
H1425 H 0.35369 0.7332 0.37539 0.0
H1426 H 0.3879 0.68089 0.40157 0.0
H1427 H 0.38412 0.65419 0.38028 0.0
H1428 H 0.34105 0.73628 0.40344 0.0
H1429 H 0.43563 0.72925 0.4026 0.0
H1430 H 0.41786 0.71597 0.38842 0.0
H1431 H 0.42143 0.70277 0.40675 0.0
C1432 C 0.35716 0.70044 0.36476 0.0
C1433 C 0.36632 0.6782 0.36565 0.0
C1434 C 0.35997 0.71585 0.37672 0.0
C1435 C 0.37174 0.70934 0.38995 0.0
C1436 C 0.37948 0.68662 0.3913 0.0
H1437 H 0.37168 0.8133 0.4627 0.0
H1438 H 0.36642 0.7766 0.44971 0.0
C1439 C 0.37707 0.67128 0.37919 0.0
C1440 C 0.37649 0.72676 0.40188 0.0
H1441 H 0.41969 0.7539 0.42082 0.0
C1442 C 0.35824 0.74005 0.40731 0.0
C1443 C 0.39898 0.7319 0.40681 0.0
C1444 C 0.41963 0.71939 0.40075 0.0
C1445 C 0.36185 0.75875 0.41704 0.0
C1446 C 0.38431 0.76376 0.42208 0.0
C1447 C 0.40247 0.74998 0.41708 0.0
C1448 C 0.38963 0.78447 0.4313 0.0
C1449 C 0.34166 0.77366 0.42106 0.0
C1450 C 0.40566 0.80045 0.42593 0.0
C1451 C 0.40924 0.82108 0.4336 0.0
C1452 C 0.39662 0.82633 0.4467 0.0
C1453 C 0.38147 0.80984 0.45254 0.0
C1454 C 0.37826 0.78895 0.44502 0.0
H1455 H 0.32712 0.77108 0.41313 0.0
H1456 H 0.33566 0.7692 0.43263 0.0
H1457 H 0.34637 0.79208 0.4209 0.0
H1458 H 0.41478 0.7974 0.41544 0.0
H1459 H 0.421 0.83341 0.42876 0.0
H1460 H 0.09386 0.61688 0.11529 0.0
H1461 H 0.07537 0.61831 0.14038 0.0
H1462 H 0.00926 0.6148 0.11886 0.0
H1463 H 0.02735 0.61313 0.09409 0.0
H1464 H 0.04473 0.65188 0.15063 0.0
H1465 H 1.0037 0.56681 0.15212 0.0
H1466 H 0.02663 0.57359 0.13917 0.0
H1467 H 0.99762 0.58136 0.13464 0.0
C1468 C 0.07541 0.61593 0.11598 0.0
C1469 C 0.06207 0.61485 0.1027 0.0
C1470 C 0.06488 0.61687 0.13029 0.0
C1471 C 0.04093 0.61636 0.13151 0.0
C1472 C 0.02774 0.61474 0.11826 0.0
H1473 H 0.93869 0.67405 0.18582 0.0
H1474 H 0.97293 0.66731 0.17079 0.0
C1475 C 0.03816 0.61393 0.10406 0.0
C1476 C 0.0292 0.61907 0.14634 0.0
H1477 H 0.98555 0.59641 0.16709 0.0
C1478 C 0.03214 0.63954 0.15447 0.0
C1479 C 0.01308 0.60281 0.15154 0.0
C1480 C 0.01025 0.57981 0.14399 0.0
C1481 C 0.01818 0.6449 0.16696 0.0
C1482 C 1.00054 0.62959 0.17122 0.0
C1483 C 0.99882 0.60838 0.16378 0.0
C1484 C 0.98234 0.63584 0.18228 0.0
C1485 C 0.02226 0.66711 0.17525 0.0
C1486 C 0.97616 0.62059 0.19392 0.0
C1487 C 0.95629 0.62423 0.2024 0.0
C1488 C 0.94217 0.64323 0.19944 0.0
C1489 C 0.94922 0.65932 0.1885 0.0
C1490 C 0.96896 0.65554 0.17992 0.0
H1491 H 0.04057 0.67207 0.17476 0.0
H1492 H 0.01226 0.68094 0.1697 0.0
H1493 H 0.01701 0.66592 0.18733 0.0
H1494 H 0.98614 0.60526 0.19597 0.0
H1495 H 0.9514 0.61153 0.21076 0.0
H1496 H 0.18908 0.29225 0.84896 0.0
H1497 H 0.179 0.26763 0.87039 0.0
H1498 H 0.12904 0.31707 0.88509 0.0
H1499 H 0.13916 0.34201 0.86377 0.0
H1500 H 0.15377 0.29349 0.90959 0.0
H1501 H 0.11603 0.23485 0.86676 0.0
H1502 H 0.14552 0.2419 0.86362 0.0
H1503 H 0.12413 0.26392 0.86232 0.0
C1504 C 0.17632 0.29819 0.85693 0.0
C1505 C 0.1647 0.31897 0.8545 0.0
C1506 C 0.17053 0.28404 0.86916 0.0
C1507 C 0.15296 0.29033 0.87913 0.0
C1508 C 0.14258 0.31186 0.87747 0.0
H1509 H 0.07227 0.1892 0.92711 0.0
H1510 H 0.08416 0.22368 0.91352 0.0
C1511 C 0.14841 0.32609 0.86526 0.0
C1512 C 0.14382 0.27347 0.89019 0.0
H1513 H 0.1169 0.2217 0.89209 0.0
C1514 C 0.14565 0.2778 0.90581 0.0
C1515 C 0.13283 0.25324 0.88521 0.0
C1516 C 0.12927 0.2482 0.86857 0.0
C1517 C 0.13727 0.26208 0.9166 0.0
C1518 C 0.127 0.24147 0.91159 0.0
C1519 C 0.1248 0.23746 0.89596 0.0
C1520 C 0.11878 0.22339 0.92217 0.0
C1521 C 0.13924 0.26779 0.93324 0.0
C1522 C 0.13405 0.21214 0.93197 0.0
C1523 C 0.12723 0.19246 0.93987 0.0
C1524 C 0.10509 0.18347 0.93794 0.0
C1525 C 0.08946 0.19558 0.92883 0.0
C1526 C 0.09624 0.2153 0.92102 0.0
H1527 H 0.14121 0.28651 0.93506 0.0
H1528 H 0.12403 0.26173 0.93961 0.0
H1529 H 0.15455 0.25916 0.938 0.0
H1530 H 0.15163 0.21775 0.93285 0.0
H1531 H 0.13976 0.18351 0.94672 0.0
H1532 H 0.43575 0.42201 0.60516 0.0
H1533 H 0.45855 0.42567 0.62852 0.0
H1534 H 0.47427 0.35354 0.62683 0.0
H1535 H 0.45151 0.34971 0.60384 0.0
H1536 H 0.46557 0.36971 0.65652 0.0
H1537 H 0.52883 0.42355 0.62555 0.0
H1538 H 0.49982 0.43366 0.62575 0.0
H1539 H 0.50677 0.40773 0.61583 0.0
C1540 C 0.44375 0.4069 0.60995 0.0
C1541 C 0.44208 0.38565 0.60255 0.0
C1542 C 0.45686 0.40903 0.62322 0.0
C1543 C 0.46841 0.38993 0.62926 0.0
C1544 C 0.4656 0.36851 0.62236 0.0
H1545 H 0.57636 0.34755 0.68796 0.0
H1546 H 0.54053 0.35078 0.67379 0.0
C1547 C 0.45265 0.3664 0.60914 0.0
C1548 C 0.48492 0.39215 0.64198 0.0
H1549 H 0.53808 0.4126 0.65032 0.0
C1550 C 0.4813 0.37935 0.65529 0.0
C1551 C 0.50547 0.40465 0.64032 0.0
C1552 C 0.51067 0.41808 0.62608 0.0
C1553 C 0.49789 0.37836 0.66683 0.0
C1554 C 0.51882 0.39012 0.66488 0.0
C1555 C 0.52203 0.40359 0.65183 0.0
C1556 C 0.5383 0.38771 0.67564 0.0
C1557 C 0.49287 0.36462 0.68095 0.0
C1558 C 0.54893 0.40732 0.68154 0.0
C1559 C 0.56953 0.40552 0.68948 0.0
C1560 C 0.57998 0.38407 0.69169 0.0
C1561 C 0.56866 0.3643 0.68657 0.0
C1562 C 0.54809 0.36613 0.6785 0.0
H1563 H 0.47418 0.36328 0.68298 0.0
H1564 H 0.49963 0.347 0.67951 0.0
H1565 H 0.50104 0.37235 0.6911 0.0
H1566 H 0.54174 0.42415 0.67947 0.0
H1567 H 0.57777 0.42109 0.69333 0.0
H1568 H 0.33412 0.32775 0.24163 0.0
H1569 H 0.30805 0.30244 0.25557 0.0
H1570 H 0.26859 0.2921 0.21477 0.0
H1571 H 0.29398 0.31783 0.20099 0.0
H1572 H 0.24121 0.29983 0.23817 0.0
H1573 H 0.30491 0.23374 0.25435 0.0
H1574 H 0.31202 0.26193 0.2609 0.0
H1575 H 0.31117 0.25613 0.24086 0.0
C1576 C 0.31996 0.31996 0.23564 0.0
C1577 C 0.31616 0.32475 0.2202 0.0
C1578 C 0.30512 0.30541 0.24359 0.0
C1579 C 0.2865 0.29507 0.23617 0.0
C1580 C 0.28279 0.29985 0.22076 0.0
H1581 H 0.21067 0.1762 0.26532 0.0
H1582 H 0.23501 0.2043 0.25269 0.0
C1583 C 0.29739 0.31455 0.21288 0.0
C1584 C 0.27054 0.27954 0.24437 0.0
H1585 H 0.26781 0.22973 0.26466 0.0
C1586 C 0.24703 0.28449 0.24397 0.0
C1587 C 0.27808 0.25938 0.25179 0.0
C1588 C 0.30288 0.25231 0.2519 0.0
C1589 C 0.23088 0.26979 0.25064 0.0
C1590 C 0.23847 0.24989 0.25833 0.0
C1591 C 0.26198 0.24505 0.25884 0.0
C1592 C 0.22237 0.23331 0.26544 0.0
C1593 C 0.20583 0.27538 0.24891 0.0
C1594 C 0.20688 0.24024 0.27672 0.0
C1595 C 0.19262 0.22419 0.28381 0.0
C1596 C 0.19393 0.20086 0.27996 0.0
C1597 C 0.20925 0.19404 0.26856 0.0
C1598 C 0.22325 0.21008 0.26136 0.0
H1599 H 0.20273 0.28719 0.23922 0.0
H1600 H 0.19555 0.25962 0.24716 0.0
H1601 H 0.19971 0.28396 0.25936 0.0
H1602 H 0.20623 0.25794 0.28034 0.0
H1603 H 0.1812 0.22994 0.29269 0.0
H1604 H 0.05438 0.91432 0.53293 0.0
H1605 H 0.02705 0.93821 0.51874 0.0
H1606 H 0.06473 0.99872 0.53136 0.0
H1607 H 0.09199 0.97524 0.5453 0.0
H1608 H 0.99965 0.9745 0.53019 0.0
H1609 H 0.05828 1.00581 0.48536 0.0
H1610 H 0.06484 0.98132 0.49713 0.0
H1611 H 0.06902 0.00988 0.50425 0.0
C1612 C 0.05693 0.93269 0.53254 0.0
C1613 C 0.07544 0.94283 0.54021 0.0
C1614 C 0.0413 0.94631 0.52447 0.0
C1615 C 0.04406 0.97022 0.5238 0.0
C1616 C 0.06251 0.98029 0.53144 0.0
H1617 H 0.97096 0.08731 0.48637 0.0
H1618 H 0.99752 0.06168 0.49973 0.0
C1619 C 0.07803 0.96678 0.5395 0.0
C1620 C 0.02731 0.98495 0.51568 0.0
H1621 H 0.02278 0.02544 0.48777 0.0
C1622 C 1.00463 0.98547 0.52081 0.0
C1623 C 0.03388 0.99941 0.50353 0.0
C1624 C 0.05778 0.99898 0.49713 0.0
C1625 C 0.98848 1.00048 0.51439 0.0
C1626 C 0.9951 0.01506 0.50231 0.0
C1627 C 0.01775 0.01439 0.4971 0.0
C1628 C 0.97867 0.03072 0.49465 0.0
C1629 C 0.96464 1.00102 0.52088 0.0
C1630 C 0.95938 0.02184 0.48728 0.0
C1631 C 0.9442 0.03639 0.47971 0.0
C1632 C 0.94805 0.06019 0.47921 0.0
C1633 C 0.96743 0.0691 0.48658 0.0
C1634 C 0.98264 0.05447 0.49419 0.0
H1635 H 0.96413 0.99387 0.53257 0.0
H1636 H 0.95781 0.01877 0.52113 0.0
H1637 H 0.9532 0.99048 0.51367 0.0
H1638 H 0.95622 1.00356 0.48716 0.0
H1639 H 0.92956 0.02888 0.47408 0.0
H1640 H 0.17943 0.71926 0.72646 0.0
H1641 H 0.2057 0.74635 0.73877 0.0
H1642 H 0.25845 0.69478 0.73908 0.0
H1643 H 0.23264 0.66788 0.72675 0.0
H1644 H 0.22935 0.74261 0.76666 0.0
H1645 H 0.28994 0.74915 0.71856 0.0
H1646 H 0.26165 0.73721 0.71653 0.0
H1647 H 0.28442 0.72019 0.72437 0.0
C1648 C 0.19662 0.71372 0.72916 0.0
C1649 C 0.20396 0.69145 0.72551 0.0
C1650 C 0.21161 0.72921 0.73618 0.0
C1651 C 0.23418 0.72272 0.73955 0.0
C1652 C 0.2413 0.70035 0.73624 0.0
H1653 H 0.35314 0.78012 0.78386 0.0
H1654 H 0.32528 0.7564 0.7703 0.0
C1655 C 0.22642 0.68493 0.72926 0.0
C1656 C 0.25034 0.73905 0.74677 0.0
H1657 H 0.30267 0.76413 0.74227 0.0
C1658 C 0.24527 0.74753 0.76128 0.0
C1659 C 0.27114 0.74539 0.73974 0.0
C1660 C 0.27706 0.7377 0.72388 0.0
C1661 C 0.26078 0.76158 0.76914 0.0
C1662 C 0.28174 0.76761 0.76219 0.0
C1663 C 0.28665 0.7594 0.7476 0.0
C1664 C 0.29886 0.78233 0.76994 0.0
C1665 C 0.25491 0.76926 0.78501 0.0
C1666 C 0.29345 0.80494 0.77391 0.0
C1667 C 0.30931 0.81853 0.78163 0.0
C1668 C 0.331 0.80983 0.7855 0.0
C1669 C 0.33661 0.78736 0.78111 0.0
C1670 C 0.3207 0.77377 0.77336 0.0
H1671 H 0.24102 0.75874 0.79004 0.0
H1672 H 0.2701 0.76833 0.79254 0.0
H1673 H 0.24903 0.78732 0.78466 0.0
H1674 H 0.27689 0.81207 0.77109 0.0
H1675 H 0.30442 0.8358 0.78473 0.0
H1676 H 0.47282 0.10186 0.03154 0.0
H1677 H 0.49976 0.07637 0.01852 0.0
H1678 H 0.45339 0.01973 0.0247 0.0
H1679 H 0.4267 0.04482 0.03785 0.0
H1680 H 0.49736 1.00893 0.03283 0.0
H1681 H 0.49563 0.04969 0.97586 0.0
H1682 H 0.50257 0.06884 0.99112 0.0
H1683 H 0.47468 0.05601 0.99028 0.0
C1684 C 0.46831 0.08402 0.03001 0.0
C1685 C 0.4476 0.07541 0.03573 0.0
C1686 C 0.48367 0.06949 0.02251 0.0
C1687 C 0.47848 0.04617 0.02048 0.0
C1688 C 0.45776 0.03764 0.02611 0.0
H1689 H 0.5453 0.92706 0.98024 0.0
H1690 H 0.51889 0.95304 0.99328 0.0
C1691 C 0.44249 0.05207 0.03362 0.0
C1692 C 0.49481 0.03034 0.01297 0.0
H1693 H 0.52271 0.02002 0.97965 0.0
C1694 C 0.50286 0.01131 0.02118 0.0
C1695 C 0.50194 0.03345 0.99778 0.0
C1696 C 0.49314 0.05297 0.98817 0.0
C1697 C 0.51806 0.9955 0.01469 0.0
C1698 C 0.52517 0.99861 0.9995 0.0
C1699 C 0.5172 0.01766 0.9913 0.0
C1700 C 0.54121 0.98254 0.99196 0.0
C1701 C 0.52676 0.97586 0.02424 0.0
C1702 C 0.56237 0.99055 0.98673 0.0
C1703 C 0.57741 0.9758 0.97926 0.0
C1704 C 0.57157 0.95272 0.97676 0.0
C1705 C 0.55038 0.94468 0.98206 0.0
C1706 C 0.53531 0.95949 0.98956 0.0
H1707 H 0.52405 0.97894 0.03654 0.0
H1708 H 0.51744 0.96001 0.0211 0.0
H1709 H 0.54525 0.97292 0.02223 0.0
H1710 H 0.56725 1.00826 0.98842 0.0
H1711 H 0.59356 0.98262 0.97533 0.0
H1712 H 0.29658 0.72114 0.31632 0.0
H1713 H 0.2712 0.74459 0.30084 0.0
H1714 H 0.30585 0.72194 0.26039 0.0
H1715 H 0.3319 0.69868 0.27597 0.0
H1716 H 0.29684 0.7672 0.25926 0.0
H1717 H 0.21816 0.72161 0.27615 0.0
H1718 H 0.2334 0.73205 0.29238 0.0
H1719 H 0.24629 0.71068 0.28039 0.0
C1720 C 0.29889 0.72112 0.30413 0.0
C1721 C 0.31618 0.70787 0.29737 0.0
C1722 C 0.28419 0.73442 0.29527 0.0
C1723 C 0.28612 0.73453 0.27941 0.0
C1724 C 0.30384 0.72192 0.27261 0.0
H1725 H 0.17744 0.79654 0.22367 0.0
H1726 H 0.20325 0.76894 0.23588 0.0
C1727 C 0.31877 0.70869 0.28152 0.0
C1728 C 0.26984 0.74823 0.27009 0.0
H1729 H 0.2129 0.75872 0.26479 0.0
C1730 C 0.27849 0.76517 0.26035 0.0
C1731 C 0.24586 0.7453 0.2712 0.0
C1732 C 0.23539 0.72625 0.28047 0.0
C1733 C 0.26387 0.7799 0.25226 0.0
C1734 C 0.23991 0.77808 0.25427 0.0
C1735 C 0.23124 0.76044 0.26345 0.0
C1736 C 0.22364 0.79466 0.24727 0.0
C1737 C 0.2743 0.79719 0.24157 0.0
C1738 C 0.22597 0.81822 0.25001 0.0
C1739 C 0.21138 0.83397 0.243 0.0
C1740 C 0.19382 0.82651 0.23329 0.0
C1741 C 0.19077 0.80284 0.2311 0.0
C1742 C 0.20557 0.78706 0.23803 0.0
H1743 H 0.29136 0.79149 0.23753 0.0
H1744 H 0.26318 0.80025 0.23155 0.0
H1745 H 0.27667 0.81367 0.24764 0.0
H1746 H 0.23924 0.8245 0.2575 0.0
H1747 H 0.21405 0.85206 0.24507 0.0
H1748 H 0.47272 0.92671 0.47989 0.0
H1749 H 0.49973 0.95173 0.49321 0.0
H1750 H 0.45349 1.00867 0.48775 0.0
H1751 H 0.42665 0.98401 0.47429 0.0
H1752 H 0.49762 0.01946 0.47971 0.0
H1753 H 0.49581 0.97725 0.53619 0.0
H1754 H 0.50249 0.95835 0.52076 0.0
H1755 H 0.47475 0.97149 0.52171 0.0
C1756 C 0.46823 0.94451 0.48164 0.0
C1757 C 0.4475 0.95333 0.47603 0.0
C1758 C 0.48364 0.95877 0.48932 0.0
C1759 C 0.47851 0.98203 0.49164 0.0
C1760 C 0.45779 0.99079 0.48612 0.0
H1761 H 0.54841 0.09865 0.53311 0.0
H1762 H 0.52118 0.07379 0.51982 0.0
C1763 C 0.44244 0.97661 0.47844 0.0
C1764 C 0.49498 0.99754 0.49932 0.0
H1765 H 0.52357 1.00636 0.53261 0.0
C1766 C 0.50323 0.01666 0.4913 0.0
C1767 C 0.50226 0.99388 0.51444 0.0
C1768 C 0.49324 0.97426 0.52386 0.0
C1769 C 0.51885 0.03197 0.49791 0.0
C1770 C 0.52617 0.02826 0.51301 0.0
C1771 C 0.51792 1.00917 0.52103 0.0
C1772 C 0.54276 0.04368 0.52063 0.0
C1773 C 0.52779 0.05169 0.48855 0.0
C1774 C 0.56378 0.03497 0.52564 0.0
C1775 C 0.57929 0.04906 0.53325 0.0
C1776 C 0.57406 0.0722 0.53611 0.0
C1777 C 0.55302 0.08097 0.53101 0.0
C1778 C 0.53748 0.0668 0.52337 0.0
H1779 H 0.52477 0.04905 0.47623 0.0
H1780 H 0.5189 0.06765 0.49197 0.0
H1781 H 0.54639 0.05414 0.49046 0.0
H1782 H 0.56818 0.01719 0.52368 0.0
H1783 H 0.5953 0.0417 0.53703 0.0
H1784 H 0.19253 0.34606 0.75974 0.0
H1785 H 0.22109 0.32169 0.74766 0.0
H1786 H 0.21285 0.27141 0.78314 0.0
H1787 H 0.18393 0.29557 0.79522 0.0
H1788 H 0.26199 0.30858 0.76043 0.0
H1789 H 0.21065 0.23204 0.74504 0.0
H1790 H 0.19773 0.259 0.7502 0.0
H1791 H 0.20873 0.2402 0.76464 0.0
C1792 C 0.19648 0.32965 0.76487 0.0
C1793 C 0.1859 0.32277 0.77846 0.0
C1794 C 0.21288 0.31576 0.75795 0.0
C1795 C 0.21903 0.29465 0.76442 0.0
C1796 C 0.2081 0.28743 0.77778 0.0
H1797 H 0.3235 0.19469 0.73904 0.0
H1798 H 0.29481 0.21689 0.75291 0.0
C1799 C 0.19159 0.3013 0.7847 0.0
C1800 C 0.23787 0.28102 0.75764 0.0
H1801 H 0.25073 0.22933 0.74162 0.0
C1802 C 0.2595 0.29126 0.75629 0.0
C1803 C 0.23467 0.25838 0.75234 0.0
C1804 C 0.21166 0.24677 0.75298 0.0
C1805 C 0.27799 0.2795 0.74979 0.0
C1806 C 0.2747 0.25699 0.74431 0.0
C1807 C 0.2532 0.24659 0.74587 0.0
C1808 C 0.29312 0.24427 0.73639 0.0
C1809 C 0.30094 0.29118 0.74896 0.0
C1810 C 0.30177 0.25237 0.72254 0.0
C1811 C 0.31813 0.23974 0.71458 0.0
C1812 C 0.32615 0.21871 0.72029 0.0
C1813 C 0.31779 0.21087 0.73434 0.0
C1814 C 0.30133 0.22348 0.74227 0.0
H1815 H 0.30217 0.30566 0.75709 0.0
H1816 H 0.31499 0.27889 0.75135 0.0
H1817 H 0.30346 0.29813 0.73735 0.0
H1818 H 0.29542 0.26821 0.71768 0.0
H1819 H 0.3241 0.24625 0.70377 0.0
H1820 H 0.02287 0.08263 0.96446 0.0
H1821 H 1.00294 0.05245 0.97854 0.0
H1822 H 0.06566 0.03487 1.00147 0.0
H1823 H 0.08564 0.0651 0.98764 0.0
H1824 H 0.0129 1.0057 0.97778 0.0
H1825 H 0.02035 0.039 0.0365 0.0
H1826 H 0.0253 0.0567 0.02001 0.0
H1827 H 0.04706 0.0373 0.02657 0.0
C1828 C 0.03236 0.07259 0.97267 0.0
C1829 C 0.05587 0.07637 0.97493 0.0
C1830 C 0.02095 0.05529 0.98067 0.0
C1831 C 0.03274 0.04154 0.99118 0.0
C1832 C 0.0561 0.04553 0.99365 0.0
H1833 H 0.99685 0.92394 0.04736 0.0
H1834 H 0.01691 0.9543 0.03354 0.0
C1835 C 0.06752 0.06279 0.98566 0.0
C1836 C 0.02095 0.02224 0.99893 0.0
H1837 H 1.00737 1.00065 0.03384 0.0
C1838 C 0.01156 1.00465 0.99003 0.0
C1839 C 0.01936 0.0208 0.01493 0.0
C1840 C 0.02836 0.03954 0.02508 0.0
C1841 C 1.00096 0.98551 0.99668 0.0
C1842 C 0.99931 0.9841 0.01268 0.0
C1843 C 0.00872 1.00168 0.02159 0.0
C1844 C 0.98743 0.96483 0.02043 0.0
C1845 C 0.99209 0.96673 0.98651 0.0
C1846 C 0.96419 0.96059 0.01765 0.0
C1847 C 0.95271 0.94319 0.02547 0.0
C1848 C 0.96416 0.92975 0.03636 0.0
C1849 C 0.98751 0.93387 0.03902 0.0
C1850 C 0.999 0.95128 0.03116 0.0
H1851 H 1.00042 0.96712 0.97519 0.0
H1852 H 0.99487 0.94959 0.99167 0.0
H1853 H 0.97346 0.96913 0.98477 0.0
H1854 H 0.95475 0.97111 0.00968 0.0
H1855 H 0.9347 0.94064 0.0232 0.0
H1856 H 0.83146 0.82727 0.73984 0.0
H1857 H 0.80582 0.80309 0.75498 0.0
H1858 H 0.77239 0.78031 0.71404 0.0
H1859 H 0.79736 0.80478 0.69898 0.0
H1860 H 0.74174 0.79173 0.73517 0.0
H1861 H 0.80718 0.73458 0.7607 0.0
H1862 H 0.81172 0.76445 0.76444 0.0
H1863 H 0.8136 0.75393 0.74531 0.0
C1864 C 0.81877 0.81693 0.73409 0.0
C1865 C 0.81649 0.81791 0.71821 0.0
C1866 C 0.80417 0.80305 0.74274 0.0
C1867 C 0.7873 0.78964 0.73565 0.0
C1868 C 0.78521 0.79049 0.71979 0.0
H1869 H 0.7151 0.67271 0.77081 0.0
H1870 H 0.73946 0.70005 0.75751 0.0
C1871 C 0.79958 0.80448 0.71119 0.0
C1872 C 0.77137 0.77504 0.74458 0.0
H1873 H 0.76918 0.72987 0.76922 0.0
C1874 C 0.74774 0.77822 0.74264 0.0
C1875 C 0.77919 0.75727 0.75422 0.0
C1876 C 0.80429 0.75215 0.75622 0.0
C1877 C 0.73173 0.76397 0.74988 0.0
C1878 C 0.73955 0.7464 0.75967 0.0
C1879 C 0.76318 0.74342 0.76178 0.0
C1880 C 0.72367 0.73012 0.76729 0.0
C1881 C 0.70668 0.76739 0.74651 0.0
C1882 C 0.70644 0.73787 0.77713 0.0
C1883 C 0.6922 0.72221 0.78463 0.0
C1884 C 0.69522 0.6985 0.7826 0.0
C1885 C 0.71233 0.69085 0.77264 0.0
C1886 C 0.72634 0.70647 0.76506 0.0
H1887 H 0.70399 0.77721 0.73584 0.0
H1888 H 0.69768 0.75071 0.74552 0.0
H1889 H 0.69874 0.7772 0.7559 0.0
H1890 H 0.70433 0.756 0.77931 0.0
H1891 H 0.67936 0.72864 0.79237 0.0
H1892 H 0.70447 0.20795 0.21183 0.0
H1893 H 0.73384 0.23227 0.22315 0.0
H1894 H 0.69778 0.23114 0.26577 0.0
H1895 H 0.66837 0.20651 0.25459 0.0
H1896 H 0.7302 0.27512 0.2361 0.0
H1897 H 0.76254 0.21196 0.27804 0.0
H1898 H 0.74421 0.20401 0.26242 0.0
H1899 H 0.73231 0.2169 0.27916 0.0
C1900 C 0.70273 0.21283 0.22363 0.0
C1901 C 0.68407 0.20515 0.23232 0.0
C1902 C 0.71958 0.22676 0.23008 0.0
C1903 C 0.71824 0.23321 0.24538 0.0
C1904 C 0.69944 0.22596 0.25403 0.0
H1905 H 0.78591 0.34401 0.29132 0.0
H1906 H 0.75992 0.31832 0.27805 0.0
C1907 C 0.68253 0.21202 0.24758 0.0
C1908 C 0.73632 0.24793 0.25214 0.0
H1909 H 0.77601 0.25027 0.28059 0.0
C1910 C 0.74029 0.26963 0.24578 0.0
C1911 C 0.74978 0.24062 0.2646 0.0
C1912 C 0.74721 0.21702 0.27139 0.0
C1913 C 0.75685 0.28448 0.25182 0.0
C1914 C 0.76959 0.27758 0.2647 0.0
C1915 C 0.76612 0.25561 0.27078 0.0
C1916 C 0.78582 0.29331 0.27242 0.0
C1917 C 0.76063 0.30741 0.2443 0.0
C1918 C 0.80906 0.28763 0.27394 0.0
C1919 C 0.82409 0.30235 0.28161 0.0
C1920 C 0.81605 0.32287 0.28803 0.0
C1921 C 0.79276 0.32842 0.28647 0.0
C1922 C 0.77784 0.31379 0.2788 0.0
H1923 H 0.75464 0.30738 0.23233 0.0
H1924 H 0.75083 0.32071 0.25049 0.0
H1925 H 0.77897 0.31226 0.24452 0.0
H1926 H 0.81555 0.27182 0.26918 0.0
H1927 H 0.84188 0.29751 0.28268 0.0
H1928 H 0.8321 0.19476 0.77526 0.0
H1929 H 0.80667 0.21898 0.75995 0.0
H1930 H 0.7752 0.24458 0.80078 0.0
H1931 H 0.79997 0.22009 0.81604 0.0
H1932 H 0.74355 0.23313 0.78023 0.0
H1933 H 0.80977 0.28712 0.75279 0.0
H1934 H 0.81335 0.25696 0.74962 0.0
H1935 H 0.81612 0.26832 0.7685 0.0
C1936 C 0.8199 0.20572 0.78096 0.0
C1937 C 0.81812 0.20553 0.79687 0.0
C1938 C 0.80542 0.21962 0.77219 0.0
C1939 C 0.78915 0.23384 0.7792 0.0
C1940 C 0.78756 0.23377 0.79509 0.0
H1941 H 0.71919 0.35149 0.74315 0.0
H1942 H 0.74339 0.32378 0.75627 0.0
C1943 C 0.80181 0.21978 0.80381 0.0
C1944 C 0.77335 0.2485 0.77015 0.0
H1945 H 0.77167 0.29259 0.74464 0.0
C1946 C 0.7497 0.24612 0.77242 0.0
C1947 C 0.78136 0.26558 0.76006 0.0
C1948 C 0.80653 0.26986 0.75767 0.0
C1949 C 0.73388 0.2605 0.76508 0.0
C1950 C 0.74187 0.2774 0.75484 0.0
C1951 C 0.76551 0.27956 0.75241 0.0
C1952 C 0.72623 0.29394 0.7472 0.0
C1953 C 0.70884 0.25799 0.76881 0.0
C1954 C 0.70831 0.28647 0.73777 0.0
C1955 C 0.69416 0.30238 0.73038 0.0
C1956 C 0.69794 0.32603 0.73208 0.0
C1957 C 0.71582 0.3334 0.74157 0.0
C1958 C 0.72974 0.31756 0.74905 0.0
H1959 H 0.70621 0.24862 0.77965 0.0
H1960 H 0.7004 0.27497 0.76966 0.0
H1961 H 0.7003 0.24812 0.75967 0.0
H1962 H 0.70554 0.26837 0.73588 0.0
H1963 H 0.68071 0.29616 0.72301 0.0
H1964 H 0.68026 0.80058 0.28607 0.0
H1965 H 0.70727 0.77451 0.27353 0.0
H1966 H 0.76156 0.82327 0.28052 0.0
H1967 H 0.73497 0.8492 0.29303 0.0
H1968 H 0.73584 0.78239 0.24756 0.0
H1969 H 0.78702 0.76374 0.29914 0.0
H1970 H 0.75888 0.77637 0.29996 0.0
H1971 H 0.78328 0.79376 0.29538 0.0
C1972 C 0.69794 0.80574 0.28491 0.0
C1973 C 0.70546 0.82692 0.29066 0.0
C1974 C 0.71335 0.79083 0.27775 0.0
C1975 C 0.73652 0.79678 0.27635 0.0
C1976 C 0.74388 0.81811 0.28177 0.0
H1977 H 0.86044 0.73924 0.23856 0.0
H1978 H 0.83124 0.76256 0.25112 0.0
C1979 C 0.72857 0.83298 0.28886 0.0
C1980 C 0.75312 0.78096 0.2691 0.0
H1981 H 0.80294 0.75197 0.27558 0.0
C1982 C 0.75039 0.77553 0.2537 0.0
C1983 C 0.77214 0.77212 0.27713 0.0
C1984 C 0.77546 0.77659 0.29385 0.0
C1985 C 0.76658 0.76208 0.24599 0.0
C1986 C 0.78577 0.75347 0.25398 0.0
C1987 C 0.7883 0.75866 0.26944 0.0
C1988 C 0.80347 0.73911 0.24651 0.0
C1989 C 0.76336 0.75783 0.22924 0.0
C1990 C 0.79766 0.71798 0.24 0.0
C1991 C 0.81428 0.70464 0.23281 0.0
C1992 C 0.83714 0.71207 0.23206 0.0
C1993 C 0.84301 0.73302 0.23889 0.0
C1994 C 0.82634 0.74638 0.24607 0.0
H1995 H 0.75136 0.77036 0.22405 0.0
H1996 H 0.77991 0.75877 0.22312 0.0
H1997 H 0.75617 0.74043 0.22756 0.0
H1998 H 0.78025 0.71175 0.24051 0.0
H1999 H 0.80914 0.68852 0.22778 0.0
H2000 H 0.57869 0.48794 0.05206 0.0
H2001 H 0.55174 0.51248 0.03855 0.0
H2002 H 0.51922 0.4529 0.01936 0.0
H2003 H 0.5461 0.42802 0.03304 0.0
H2004 H 0.54395 0.51616 0.0074 0.0
H2005 H 0.46559 0.4886 0.0379 0.0
H2006 H 0.49396 0.4822 0.04478 0.0
H2007 H 0.48185 0.46578 0.02953 0.0
C2008 C 0.5658 0.47996 0.045 0.0
C2009 C 0.5645 0.45596 0.0437 0.0
C2010 C 0.55041 0.49406 0.03727 0.0
C2011 C 0.53328 0.48454 0.02811 0.0
C2012 C 0.53205 0.4606 0.0266 0.0
H2013 H 0.42552 0.5418 0.97266 0.0
H2014 H 0.45222 0.51744 0.98651 0.0
C2015 C 0.5475 0.44642 0.03435 0.0
C2016 C 0.51702 0.49984 0.02003 0.0
H2017 H 0.46054 0.51397 0.01718 0.0
C2018 C 0.52571 0.51574 0.00955 0.0
C2019 C 0.49325 0.49928 0.0229 0.0
C2020 C 0.48305 0.48321 0.03448 0.0
C2021 C 0.51123 0.53083 1.00165 0.0
C2022 C 0.48746 0.5303 1.00453 0.0
C2023 C 0.47878 0.5144 0.01502 0.0
C2024 C 0.47117 0.54552 0.99639 0.0
C2025 C 0.52146 0.54678 0.99 0.0
C2026 C 0.4727 0.56949 0.9975 0.0
C2027 C 0.45742 0.58358 0.98953 0.0
C2028 C 0.44025 0.5739 0.98038 0.0
C2029 C 0.43854 0.54988 0.97956 0.0
C2030 C 0.4538 0.53588 0.98749 0.0
H2031 H 0.5388 0.54117 0.98648 0.0
H2032 H 0.51044 0.54792 0.97976 0.0
H2033 H 0.52297 0.56418 0.99495 0.0
H2034 H 0.48568 0.57731 1.00456 0.0
H2035 H 0.45913 0.602 0.99046 0.0
H2036 H 0.09242 0.46637 0.49819 0.0
H2037 H 0.06497 0.49367 0.50853 0.0
H2038 H 0.01187 0.46435 0.48071 0.0
H2039 H 0.0392 0.43659 0.4705 0.0
H2040 H 0.04156 0.52628 0.49314 0.0
H2041 H 0.98048 0.4676 0.52153 0.0
H2042 H 0.00827 0.45831 0.51516 0.0
H2043 H 0.98508 0.46112 0.50187 0.0
C2044 C 0.07483 0.46548 0.4944 0.0
C2045 C 0.06801 0.44922 0.48354 0.0
C2046 C 0.05915 0.48117 0.50032 0.0
C2047 C 0.03627 0.48099 0.49553 0.0
C2048 C 0.02929 0.46455 0.48484 0.0
H2049 H 0.92089 0.57136 0.51298 0.0
H2050 H 0.94736 0.54294 0.50267 0.0
C2051 C 0.04497 0.44872 0.47896 0.0
C2052 C 0.02018 0.4988 0.50118 0.0
H2053 H 0.96942 0.50668 0.51961 0.0
C2054 C 0.02584 0.52197 0.49899 0.0
C2055 C 0.99962 0.49321 0.50879 0.0
C2056 C 0.99305 0.46872 0.51212 0.0
C2057 C 0.01146 0.53965 0.50406 0.0
C2058 C 0.99094 0.53406 0.51165 0.0
C2059 C 0.98516 0.51092 0.51376 0.0
C2060 C 0.97529 0.55197 0.51758 0.0
C2061 C 0.01813 0.5642 0.50104 0.0
C2062 C 0.98222 0.56654 0.52939 0.0
C2063 C 0.96712 0.58281 0.53535 0.0
C2064 C 0.94476 0.58483 0.5296 0.0
C2065 C 0.938 0.57039 0.51763 0.0
C2066 C 0.95307 0.55405 0.51175 0.0
H2067 H 0.03158 0.56554 0.4922 0.0
H2068 H 1.00308 0.57441 0.49739 0.0
H2069 H 0.02488 0.57189 0.51165 0.0
H2070 H 0.9992 0.56502 0.53419 0.0
H2071 H 0.97285 0.59355 0.54461 0.0
H2072 H 0.03538 0.58685 0.04692 0.0
H2073 H 1.00764 0.56004 0.03599 0.0
H2074 H 0.05992 0.53336 1.00637 0.0
H2075 H 0.08786 0.55912 0.01788 0.0
H2076 H 0.98997 0.55327 0.00983 0.0
H2077 H 0.03839 0.47493 0.02377 0.0
H2078 H 0.04668 0.50268 0.03082 0.0
H2079 H 0.0553 0.4935 0.01214 0.0
C2080 C 0.04087 0.5753 0.03803 0.0
C2081 C 0.0638 0.57489 0.03334 0.0
C2082 C 0.02504 0.55992 0.03182 0.0
C2083 C 0.03179 0.54408 0.02066 0.0
C2084 C 0.05443 0.54466 0.0154 0.0
H2085 H 0.94094 0.4764 0.95798 0.0
H2086 H 0.96616 0.50221 0.9718 0.0
C2087 C 0.07035 0.5596 0.02185 0.0
C2088 C 0.01517 0.52722 0.01435 0.0
H2089 H 0.00882 0.47075 1.00504 0.0
C2090 C 0.99402 0.53519 0.00894 0.0
C2091 C 0.02002 0.50344 0.01355 0.0
C2092 C 0.04122 0.49313 0.02055 0.0
C2093 C 0.97807 0.52029 1.00227 0.0
C2094 C 0.98378 0.49687 1.0003 0.0
C2095 C 1.00453 0.48874 1.00624 0.0
C2096 C 0.9688 0.48069 0.99178 0.0
C2097 C 0.95512 0.52988 0.99767 0.0
C2098 C 0.96282 0.45925 0.99796 0.0
C2099 C 0.94892 0.44404 0.9898 0.0
C2100 C 0.94051 0.45014 0.97541 0.0
C2101 C 0.94681 0.47138 0.96917 0.0
C2102 C 0.96108 0.48629 0.97714 0.0
H2103 H 0.95038 0.5448 1.00482 0.0
H2104 H 0.956 0.53595 0.98575 0.0
H2105 H 0.94141 0.51681 0.99859 0.0
H2106 H 0.96872 0.45436 0.00916 0.0
H2107 H 0.94435 0.42776 0.99487 0.0
H2108 H 0.578 0.57569 0.49116 0.0
H2109 H 0.55775 0.54534 0.50483 0.0
H2110 H 0.50234 0.54933 0.47267 0.0
H2111 H 0.52244 0.57969 0.45889 0.0
H2112 H 0.51191 0.54574 0.51777 0.0
H2113 H 0.52253 0.48065 0.4723 0.0
H2114 H 0.53965 0.50636 0.47317 0.0
H2115 H 0.51068 0.50774 0.46654 0.0
C2116 C 0.56143 0.57025 0.48703 0.0
C2117 C 0.55191 0.58009 0.47387 0.0
C2118 C 0.5499 0.55288 0.49486 0.0
C2119 C 0.52872 0.54483 0.48963 0.0
C2120 C 0.51884 0.55503 0.47676 0.0
H2121 H 0.4388 0.43464 0.51984 0.0
H2122 H 0.45792 0.4651 0.50554 0.0
C2123 C 0.5303 0.57251 0.46896 0.0
C2124 C 0.51709 0.52569 0.49761 0.0
H2125 H 0.50067 0.46982 0.49363 0.0
C2126 C 0.50947 0.52912 0.51252 0.0
C2127 C 0.51383 0.50407 0.4907 0.0
C2128 C 0.52222 0.49929 0.47483 0.0
C2129 C 0.49843 0.5116 0.52066 0.0
C2130 C 0.4955 0.48981 0.51385 0.0
C2131 C 0.50298 0.48645 0.49888 0.0
C2132 C 0.48474 0.47033 0.5221 0.0
C2133 C 0.48955 0.51682 0.53635 0.0
C2134 C 0.49386 0.46254 0.53592 0.0
C2135 C 0.48292 0.44522 0.54416 0.0
C2136 C 0.46276 0.43506 0.53865 0.0
C2137 C 0.45428 0.44208 0.52443 0.0
C2138 C 0.46517 0.45955 0.51625 0.0
H2139 H 0.48708 0.53552 0.53805 0.0
H2140 H 0.47306 0.50801 0.53849 0.0
H2141 H 0.50213 0.5108 0.5449 0.0
H2142 H 0.50932 0.47008 0.54047 0.0
H2143 H 0.49006 0.4401 0.55499 0.0
H2144 H 0.12636 0.1033 0.27031 0.0
H2145 H 0.13216 0.06615 0.25848 0.0
H2146 H 0.19112 0.05445 0.28688 0.0
H2147 H 0.18497 0.09169 0.29919 0.0
H2148 H 0.16724 0.04953 0.24225 0.0
H2149 H 0.15469 0.99668 0.29414 0.0
H2150 H 0.14812 0.02686 0.29359 0.0
H2151 H 0.17726 0.01745 0.29524 0.0
C2152 C 0.14057 0.09287 0.27411 0.0
C2153 C 0.15514 0.10044 0.28577 0.0
C2154 C 0.1439 0.0716 0.26728 0.0
C2155 C 0.16193 0.05734 0.27186 0.0
C2156 C 0.17681 0.06494 0.28335 0.0
H2157 H 0.18419 0.93289 0.21602 0.0
H2158 H 0.19153 0.96969 0.2286 0.0
C2159 C 0.17334 0.08626 0.29034 0.0
C2160 C 0.16464 0.03456 0.26452 0.0
H2161 H 0.16164 0.97703 0.27137 0.0
C2162 C 0.16624 0.03365 0.24862 0.0
C2163 C 0.16321 0.01385 0.27284 0.0
C2164 C 0.16053 0.01362 0.28988 0.0
C2165 C 0.16549 0.01272 0.24077 0.0
C2166 C 0.16372 0.99203 0.24908 0.0
C2167 C 0.16308 0.99289 0.26501 0.0
C2168 C 0.16008 0.96954 0.24152 0.0
C2169 C 0.16535 0.01309 0.22364 0.0
C2170 C 0.14028 0.95696 0.24483 0.0
C2171 C 0.13623 0.93592 0.23785 0.0
C2172 C 0.15184 0.92693 0.22731 0.0
C2173 C 0.17174 0.93947 0.22398 0.0
C2174 C 0.1759 0.96054 0.23112 0.0
H2175 H 0.1617 0.03046 0.21908 0.0
H2176 H 0.18236 1.00772 0.2194 0.0
H2177 H 0.15239 1.00102 0.21909 0.0
H2178 H 0.12778 0.96354 0.25278 0.0
H2179 H 0.12071 0.92676 0.24068 0.0
H2180 H 0.18091 0.93647 0.54741 0.0
H2181 H 0.21626 0.94569 0.5336 0.0
H2182 H 0.22121 0.87543 0.51884 0.0
H2183 H 0.18591 0.86639 0.53207 0.0
H2184 H 0.25925 0.93068 0.53577 0.0
H2185 H 0.22701 0.9078 0.47902 0.0
H2186 H 0.20832 0.91075 0.49517 0.0
H2187 H 0.22326 0.88421 0.49179 0.0
C2188 C 0.18959 0.92305 0.5412 0.0
C2189 C 0.18047 0.90078 0.54067 0.0
C2190 C 0.20973 0.92833 0.53329 0.0
C2191 C 0.22104 0.91141 0.52478 0.0
C2192 C 0.21238 0.889 0.52482 0.0
H2193 H 0.35994 0.89323 0.50096 0.0
H2194 H 0.32292 0.89837 0.51298 0.0
C2195 C 0.19225 0.88381 0.53252 0.0
C2196 C 0.24229 0.91661 0.51618 0.0
H2197 H 0.26815 0.90683 0.48209 0.0
C2198 C 0.26109 0.92584 0.52395 0.0
C2199 C 0.24462 0.91098 0.50063 0.0
C2200 C 0.22461 0.90315 0.49114 0.0
C2201 C 0.2825 0.92809 0.51689 0.0
C2202 C 0.28538 0.92019 0.50181 0.0
C2203 C 0.26618 0.91247 0.49374 0.0
C2204 C 0.30829 0.91817 0.49457 0.0
C2205 C 0.3018 0.93879 0.52576 0.0
C2206 C 0.31231 0.92679 0.4799 0.0
C2207 C 0.33346 0.92336 0.47278 0.0
C2208 C 0.351 0.91134 0.48026 0.0
C2209 C 0.34692 0.90282 0.49494 0.0
C2210 C 0.32577 0.90596 0.50192 0.0
H2211 H 0.29522 0.95149 0.53405 0.0
H2212 H 0.31084 0.92526 0.53228 0.0
H2213 H 0.31426 0.94745 0.51819 0.0
H2214 H 0.29903 0.93606 0.4739 0.0
H2215 H 0.33607 0.93012 0.46146 0.0
H2216 H 0.38982 0.10639 0.74672 0.0
H2217 H 0.38339 0.07143 0.76116 0.0
H2218 H 0.32793 0.05325 0.73125 0.0
H2219 H 0.33456 0.08832 0.71643 0.0
H2220 H 0.34477 0.05823 0.77668 0.0
H2221 H 0.36647 0.99489 0.73181 0.0
H2222 H 0.37339 0.02491 0.73008 0.0
H2223 H 0.34461 0.01528 0.72701 0.0
C2224 C 0.37629 0.09496 0.7431 0.0
C2225 C 0.36272 0.10016 0.73036 0.0
C2226 C 0.37262 0.07496 0.75143 0.0
C2227 C 0.35532 0.0596 0.74725 0.0
C2228 C 0.34165 0.06466 0.73454 0.0
H2229 H 0.32696 0.92694 0.7908 0.0
H2230 H 0.32217 0.96197 0.77577 0.0
C2231 C 0.34539 0.08474 0.72611 0.0
C2232 C 0.35167 0.03862 0.75651 0.0
H2233 H 0.35588 0.98024 0.75569 0.0
C2234 C 0.34703 0.04117 0.77206 0.0
C2235 C 0.35452 0.01635 0.75046 0.0
C2236 C 0.3602 0.01256 0.73396 0.0
C2237 C 0.34571 0.02213 0.78178 0.0
C2238 C 0.34936 0.99996 0.77584 0.0
C2239 C 0.3531 0.99729 0.7602 0.0
C2240 C 0.351 0.97949 0.7858 0.0
C2241 C 0.34062 0.02593 0.79836 0.0
C2242 C 0.36871 0.97779 0.7965 0.0
C2243 C 0.37155 0.95782 0.80507 0.0
C2244 C 0.35674 0.93909 0.80311 0.0
C2245 C 0.33861 0.94108 0.79267 0.0
C2246 C 0.33588 0.96104 0.78402 0.0
H2247 H 0.33202 0.04264 0.80029 0.0
H2248 H 0.32965 0.01203 0.80295 0.0
H2249 H 0.3569 0.02596 0.80483 0.0
H2250 H 0.38081 0.99168 0.79789 0.0
H2251 H 0.38573 0.95685 0.81295 0.0
H2252 H 0.33609 0.09552 0.0478 0.0
H2253 H 0.30069 0.08725 0.03377 0.0
H2254 H 0.32448 0.12879 0.9965 0.0
H2255 H 0.3597 0.13668 0.01013 0.0
H2256 H 0.26788 0.11679 0.02343 0.0
H2257 H 0.30557 0.07133 0.97455 0.0
H2258 H 0.3214 0.07669 0.99178 0.0
H2259 H 0.31895 0.09859 0.97743 0.0
C2260 C 0.33381 0.1027 0.03656 0.0
C2261 C 0.35082 0.11662 0.03006 0.0
C2262 C 0.3136 0.09797 0.02856 0.0
C2263 C 0.31014 0.10697 0.01392 0.0
C2264 C 0.327 0.12106 0.00755 0.0
H2265 H 0.20495 0.13545 0.95024 0.0
H2266 H 0.23998 0.13063 0.96509 0.0
C2267 C 0.34712 0.12571 0.01546 0.0
C2268 C 0.28852 0.10285 1.00546 0.0
H2269 H 0.26798 0.08742 0.97061 0.0
C2270 C 0.26783 0.10993 0.012 0.0
C2271 C 0.28843 0.09383 0.99054 0.0
C2272 C 0.30976 0.08445 0.98324 0.0
C2273 C 0.24729 0.10943 1.0037 0.0
C2274 C 0.24748 0.10155 0.98854 0.0
C2275 C 0.26796 0.09361 0.98221 0.0
C2276 C 0.22685 0.10286 0.9788 0.0
C2277 C 0.2257 0.11831 0.01094 0.0
C2278 C 0.2081 0.08839 0.98133 0.0
C2279 C 0.18808 0.09097 0.97278 0.0
C2280 C 0.18644 0.10818 0.96161 0.0
C2281 C 0.2056 0.12208 0.95877 0.0
C2282 C 0.22564 0.11936 0.96724 0.0
H2283 H 0.22895 0.12631 0.02217 0.0
H2284 H 0.21739 0.13114 1.00342 0.0
H2285 H 0.21352 0.10394 0.01253 0.0
H2286 H 0.20881 0.07542 0.99012 0.0
H2287 H 0.17365 0.07998 0.97527 0.0
H2288 H 0.80636 0.1039 0.77932 0.0
H2289 H 0.80316 0.06775 0.76551 0.0
H2290 H 0.86361 0.0426 0.78808 0.0
H2291 H 0.86659 0.07845 0.80223 0.0
H2292 H 0.8326 0.05007 0.74556 0.0
H2293 H 0.82156 0.98863 0.79289 0.0
H2294 H 0.8189 0.01918 0.79544 0.0
H2295 H 0.84667 1.00592 0.79506 0.0
C2296 C 0.81877 0.09053 0.78154 0.0
C2297 C 0.83668 0.09406 0.79194 0.0
C2298 C 0.81695 0.06988 0.77359 0.0
C2299 C 0.83298 0.0523 0.77585 0.0
C2300 C 0.8507 0.05565 0.78639 0.0
H2301 H 0.86729 0.94345 0.71292 0.0
H2302 H 0.86444 0.97935 0.72702 0.0
C2303 C 0.85244 0.07623 0.79444 0.0
C2304 C 0.83193 0.03107 0.76653 0.0
H2305 H 0.83113 0.97264 0.76876 0.0
C2306 C 0.83209 0.03314 0.75064 0.0
C2307 C 0.83096 1.00896 0.77312 0.0
C2308 C 0.82927 1.0055 0.79006 0.0
C2309 C 0.83182 0.01377 0.74119 0.0
C2310 C 0.83196 0.99165 0.74779 0.0
C2311 C 0.83126 0.98958 0.76368 0.0
C2312 C 0.83299 0.97039 0.7385 0.0
C2313 C 0.83107 0.01726 0.72422 0.0
C2314 C 0.81645 0.95319 0.74036 0.0
C2315 C 0.81819 0.93251 0.73244 0.0
C2316 C 0.83653 0.92856 0.72247 0.0
C2317 C 0.85281 0.946 0.72037 0.0
C2318 C 0.85115 0.96662 0.72839 0.0
H2319 H 0.8239 0.0343 0.72121 0.0
H2320 H 0.8487 0.01641 0.71964 0.0
H2321 H 0.82067 1.00382 0.71859 0.0
H2322 H 0.80231 0.95566 0.74811 0.0
H2323 H 0.80537 0.91945 0.73435 0.0
H2324 H 0.67876 0.08573 0.54879 0.0
H2325 H 0.71555 0.07728 0.53665 0.0
H2326 H 0.71494 0.14403 0.51555 0.0
H2327 H 0.67812 0.15221 0.52716 0.0
H2328 H 0.72653 0.11173 0.4956 0.0
H2329 H 0.77781 0.10092 0.54825 0.0
H2330 H 0.75376 0.08201 0.54662 0.0
H2331 H 0.74919 0.11234 0.54844 0.0
C2332 C 0.68658 0.09861 0.54163 0.0
C2333 C 0.67556 0.11965 0.53896 0.0
C2334 C 0.70764 0.09381 0.53474 0.0
C2335 C 0.71817 0.11013 0.5253 0.0
C2336 C 0.70717 0.13114 0.52274 0.0
H2337 H 0.85528 0.13485 0.4996 0.0
H2338 H 0.81771 0.13091 0.51108 0.0
C2339 C 0.68611 0.13582 0.52943 0.0
C2340 C 0.7405 0.10563 0.51786 0.0
H2341 H 0.79706 0.09615 0.52505 0.0
C2342 C 0.74195 0.10815 0.50202 0.0
C2343 C 0.76062 0.10105 0.52626 0.0
C2344 C 0.76042 0.0991 0.54334 0.0
C2345 C 0.76301 0.10718 0.49443 0.0
C2346 C 0.78317 0.10283 0.50284 0.0
C2347 C 0.7816 0.09938 0.5186 0.0
C2348 C 0.80625 0.10419 0.49586 0.0
C2349 C 0.76355 0.11208 0.4776 0.0
C2350 C 0.81252 0.09032 0.48351 0.0
C2351 C 0.83404 0.09279 0.47672 0.0
C2352 C 0.84977 0.10888 0.48236 0.0
C2353 C 0.84362 0.12227 0.49496 0.0
C2354 C 0.82211 0.12 0.50158 0.0
H2355 H 0.74749 0.12028 0.4736 0.0
H2356 H 0.77808 0.12346 0.47467 0.0
H2357 H 0.76565 0.09574 0.47134 0.0
H2358 H 0.80078 0.07763 0.47911 0.0
H2359 H 0.83838 0.08208 0.46712 0.0
H2360 H 0.6896 0.10815 0.24689 0.0
H2361 H 0.69105 0.07071 0.25927 0.0
H2362 H 0.65684 0.04035 0.22091 0.0
H2363 H 0.6554 0.07778 0.20834 0.0
H2364 H 0.65277 0.04431 0.26704 0.0
H2365 H 0.71068 0.99648 0.22862 0.0
H2366 H 0.70882 0.02737 0.22857 0.0
H2367 H 0.68728 0.01055 0.21924 0.0
C2368 C 0.68264 0.09348 0.24095 0.0
C2369 C 0.67238 0.096 0.22659 0.0
C2370 C 0.68347 0.07209 0.24808 0.0
C2371 C 0.67424 0.0527 0.24097 0.0
C2372 C 0.66443 0.05501 0.22649 0.0
H2373 H 0.64638 0.91261 0.2645 0.0
H2374 H 0.6519 0.94991 0.25261 0.0
C2375 C 0.66355 0.07644 0.21934 0.0
C2376 C 0.67356 0.03044 0.24914 0.0
H2377 H 0.69065 0.97459 0.24709 0.0
C2378 C 0.66121 0.02909 0.26276 0.0
C2379 C 0.68456 0.01063 0.24352 0.0
C2380 C 0.69877 0.01127 0.22926 0.0
C2381 C 0.65893 1.0083 0.27068 0.0
C2382 C 0.66975 0.98839 0.26498 0.0
C2383 C 0.6824 0.98985 0.25147 0.0
C2384 C 0.66711 0.96565 0.2724 0.0
C2385 C 0.64424 1.00767 0.28474 0.0
C2386 C 0.67411 0.96192 0.28747 0.0
C2387 C 0.67082 0.94052 0.29439 0.0
C2388 C 0.66068 0.92243 0.2863 0.0
C2389 C 0.65419 0.92614 0.27111 0.0
C2390 C 0.65738 0.94748 0.26425 0.0
H2391 H 0.63279 0.02281 0.28545 0.0
H2392 H 0.63362 0.99192 0.28503 0.0
H2393 H 0.6554 1.00769 0.29492 0.0
H2394 H 0.68212 0.97554 0.29388 0.0
H2395 H 0.67616 0.93819 0.30606 0.0
H2396 H 0.6653 0.92262 0.98046 0.0
H2397 H 0.70062 0.92583 0.99514 0.0
H2398 H 0.73837 0.89599 0.95814 0.0
H2399 H 0.70311 0.89266 0.94333 0.0
H2400 H 0.7293 0.88775 1.00319 0.0
H2401 H 0.7759 0.95375 0.96999 0.0
H2402 H 0.74536 0.94974 0.96855 0.0
H2403 H 0.76448 0.93049 0.959 0.0
C2404 C 0.68114 0.91701 0.97533 0.0
C2405 C 0.68134 0.90737 0.96069 0.0
C2406 C 0.7013 0.91882 0.98377 0.0
C2407 C 0.72212 0.91132 0.97769 0.0
C2408 C 0.72252 0.90219 0.96296 0.0
H2409 H 0.86063 0.89193 1.00605 0.0
H2410 H 0.82416 0.89631 0.99305 0.0
C2411 C 0.70233 0.90023 0.95453 0.0
C2412 C 0.74318 0.91174 0.98709 0.0
H2413 H 0.79722 0.93359 0.9887 0.0
C2414 C 0.74411 0.89793 1.00013 0.0
C2415 C 0.76241 0.92503 0.98305 0.0
C2416 C 0.76204 0.94077 0.96946 0.0
C2417 C 0.7641 0.89635 0.00893 0.0
C2418 C 0.78351 0.90939 1.00477 0.0
C2419 C 0.78235 0.92361 0.9919 0.0
C2420 C 0.80565 0.90739 0.01296 0.0
C2421 C 0.76453 0.87998 0.02221 0.0
C2422 C 0.80754 0.91243 0.02852 0.0
C2423 C 0.82848 0.90976 0.03608 0.0
C2424 C 0.84794 0.90224 0.02817 0.0
C2425 C 0.84603 0.89772 0.01254 0.0
C2426 C 0.82516 0.90026 1.00505 0.0
H2427 H 0.75035 0.86736 0.02165 0.0
H2428 H 0.78097 0.8705 0.02268 0.0
H2429 H 0.76268 0.88981 0.0329 0.0
H2430 H 0.79284 0.91844 0.03481 0.0
H2431 H 0.82941 0.91354 0.04809 0.0
H2432 H 0.6841 0.43507 0.71619 0.0
H2433 H 0.69084 0.47193 0.72883 0.0
H2434 H 0.63542 0.45786 0.75969 0.0
H2435 H 0.62913 0.421 0.74754 0.0
H2436 H 0.66436 0.50819 0.73148 0.0
H2437 H 0.68331 0.47721 0.78925 0.0
H2438 H 0.68242 0.45821 0.77312 0.0
H2439 H 0.6565 0.46592 0.7829 0.0
C2440 C 0.67351 0.43979 0.72576 0.0
C2441 C 0.65619 0.42503 0.73093 0.0
C2442 C 0.67739 0.46083 0.73299 0.0
C2443 C 0.66401 0.46747 0.74548 0.0
C2444 C 0.64652 0.45285 0.75045 0.0
H2445 H 0.62279 0.59945 0.77452 0.0
H2446 H 0.6299 0.56275 0.76237 0.0
C2447 C 0.6428 0.43181 0.74337 0.0
C2448 C 0.66715 0.49022 0.75278 0.0
H2449 H 0.66969 0.51638 0.7874 0.0
C2450 C 0.66593 0.50996 0.74368 0.0
C2451 C 0.66978 0.49267 0.76868 0.0
C2452 C 0.67335 0.47234 0.77901 0.0
C2453 C 0.6658 0.53195 0.75012 0.0
C2454 C 0.66619 0.53428 0.76612 0.0
C2455 C 0.66892 0.51464 0.77515 0.0
C2456 C 0.6622 0.55669 0.77368 0.0
C2457 C 0.66506 0.55244 0.73967 0.0
C2458 C 0.67747 0.56515 0.78466 0.0
C2459 C 0.6732 0.5861 0.79191 0.0
C2460 C 0.65359 0.59892 0.78827 0.0
C2461 C 0.63821 0.59019 0.77746 0.0
C2462 C 0.64236 0.56925 0.77037 0.0
H2463 H 0.67317 0.5485 0.72858 0.0
H2464 H 0.64699 0.55709 0.73741 0.0
H2465 H 0.67384 0.56746 0.74473 0.0
H2466 H 0.69276 0.55563 0.78754 0.0
H2467 H 0.68534 0.59236 0.80021 0.0
H2468 H 0.82679 0.42168 0.96563 0.0
H2469 H 0.79115 0.42866 0.97962 0.0
H2470 H 0.8164 0.38788 0.01687 0.0
H2471 H 0.85188 0.38119 1.00324 0.0
H2472 H 0.75928 0.39787 0.99022 0.0
H2473 H 0.7963 0.44547 0.03853 0.0
H2474 H 0.81193 0.44041 0.02121 0.0
H2475 H 0.81045 0.41859 0.03565 0.0
C2476 C 0.82475 0.41432 0.97684 0.0
C2477 C 0.84226 0.40101 0.98335 0.0
C2478 C 0.80441 0.41834 0.98481 0.0
C2479 C 0.80132 0.40923 0.99945 0.0
C2480 C 0.81863 0.39565 1.00581 0.0
H2481 H 0.69802 0.38103 0.06449 0.0
H2482 H 0.7326 0.38589 0.04925 0.0
C2483 C 0.83889 0.3917 0.99791 0.0
C2484 C 0.77971 0.41286 0.00795 0.0
H2485 H 0.75912 0.42883 0.04264 0.0
C2486 C 0.75915 0.40504 1.00157 0.0
C2487 C 0.77953 0.4223 0.02275 0.0
C2488 C 0.80071 0.43239 0.02987 0.0
C2489 C 0.73869 0.40525 0.00991 0.0
C2490 C 0.73881 0.41363 0.02496 0.0
C2491 C 0.75914 0.42226 0.03113 0.0
C2492 C 0.71831 0.41219 0.03477 0.0
C2493 C 0.71729 0.39556 1.00286 0.0
C2494 C 0.69904 0.42582 0.03191 0.0
C2495 C 0.67926 0.42321 0.04067 0.0
C2496 C 0.67841 0.40682 0.05239 0.0
C2497 C 0.69806 0.39375 0.05552 0.0
C2498 C 0.71784 0.39649 0.04683 0.0
H2499 H 0.72073 0.38698 0.99185 0.0
H2500 H 0.70918 0.38303 0.01067 0.0
H2501 H 0.70487 0.40961 1.00086 0.0
H2502 H 0.69918 0.4382 0.02274 0.0
H2503 H 0.66445 0.43356 0.03795 0.0
H2504 H 0.85253 0.43696 0.30702 0.0
H2505 H 0.84806 0.47507 0.29556 0.0
H2506 H 0.85657 0.44576 0.25105 0.0
H2507 H 0.86077 0.40783 0.26229 0.0
H2508 H 0.88039 0.49769 0.27774 0.0
H2509 H 0.80004 0.48571 0.24536 0.0
H2510 H 0.80889 0.4664 0.26028 0.0
H2511 H 0.8211 0.46409 0.24162 0.0
C2512 C 0.85313 0.43861 0.29479 0.0
C2513 C 0.85699 0.41933 0.28558 0.0
C2514 C 0.85061 0.46039 0.28826 0.0
C2515 C 0.85165 0.46322 0.27243 0.0
C2516 C 0.85519 0.44396 0.26325 0.0
H2517 H 0.85964 0.57771 0.20934 0.0
H2518 H 0.85743 0.53976 0.22133 0.0
C2519 C 0.85776 0.42226 0.26974 0.0
C2520 C 0.85062 0.48642 0.26549 0.0
H2521 H 0.82221 0.51877 0.23916 0.0
C2522 C 0.86753 0.50239 0.26943 0.0
C2523 C 0.83394 0.49245 0.25454 0.0
C2524 C 0.81483 0.47635 0.25028 0.0
C2525 C 0.86855 0.52402 0.26246 0.0
C2526 C 0.85196 0.53001 0.25144 0.0
C2527 C 0.83495 0.51411 0.24756 0.0
C2528 C 0.85191 0.55285 0.24399 0.0
C2529 C 0.88777 0.54005 0.26665 0.0
C2530 C 0.84893 0.57272 0.25268 0.0
C2531 C 0.8502 0.59432 0.2459 0.0
C2532 C 0.85434 0.59656 0.23024 0.0
C2533 C 0.85648 0.57659 0.22143 0.0
C2534 C 0.85523 0.55491 0.22826 0.0
H2535 H 0.90214 0.53083 0.27222 0.0
H2536 H 0.89441 0.5491 0.25648 0.0
H2537 H 0.88131 0.5531 0.27472 0.0
H2538 H 0.84587 0.57152 0.26478 0.0
H2539 H 0.84825 0.6093 0.25303 0.0
H2540 H 0.68653 0.59414 0.46107 0.0
H2541 H 0.72383 0.58794 0.47325 0.0
H2542 H 0.69846 0.61856 0.51442 0.0
H2543 H 0.66137 0.62444 0.50255 0.0
H2544 H 0.75348 0.61977 0.48516 0.0
H2545 H 0.72647 0.55966 0.53025 0.0
H2546 H 0.70868 0.56626 0.51407 0.0
H2547 H 0.70954 0.58527 0.53013 0.0
C2548 C 0.68888 0.59936 0.47276 0.0
C2549 C 0.67091 0.60968 0.48084 0.0
C2550 C 0.71018 0.59582 0.4797 0.0
C2551 C 0.71381 0.60238 0.49486 0.0
C2552 C 0.69593 0.61279 0.50287 0.0
H2553 H 0.83621 0.64017 0.54221 0.0
H2554 H 0.80059 0.63777 0.52786 0.0
C2555 C 0.67472 0.6163 0.49598 0.0
C2556 C 0.73652 0.59953 0.50221 0.0
H2557 H 0.76238 0.57878 0.53419 0.0
C2558 C 0.7555 0.61056 0.49578 0.0
C2559 C 0.73927 0.58721 0.51594 0.0
C2560 C 0.71995 0.57372 0.52292 0.0
C2561 C 0.77686 0.6105 0.50307 0.0
C2562 C 0.7792 0.5995 0.51733 0.0
C2563 C 0.76051 0.58753 0.52339 0.0
C2564 C 0.80068 0.60077 0.52632 0.0
C2565 C 0.79671 0.62228 0.49544 0.0
C2566 C 0.81216 0.58073 0.53077 0.0
C2567 C 0.83247 0.58202 0.53915 0.0
C2568 C 0.84163 0.6034 0.5433 0.0
C2569 C 0.82976 0.62342 0.53912 0.0
C2570 C 0.80946 0.62209 0.5308 0.0
H2571 H 0.79415 0.62348 0.48297 0.0
H2572 H 0.79828 0.63997 0.49992 0.0
H2573 H 0.813 0.6131 0.49768 0.0
H2574 H 0.80558 0.56407 0.52757 0.0
H2575 H 0.84115 0.56627 0.54219 0.0
H2576 H 0.36229 0.58208 0.30519 0.0
H2577 H 0.36067 0.54639 0.29074 0.0
H2578 H 0.3043 0.57297 0.26452 0.0
H2579 H 0.30619 0.60896 0.27864 0.0
H2580 H 0.32828 0.5141 0.28614 0.0
H2581 H 0.34932 0.55649 0.23155 0.0
H2582 H 0.35153 0.57102 0.24954 0.0
H2583 H 0.32418 0.56781 0.24044 0.0
C2584 C 0.34939 0.58027 0.29645 0.0
C2585 C 0.33451 0.59849 0.29297 0.0
C2586 C 0.34852 0.55985 0.28817 0.0
C2587 C 0.33274 0.5572 0.27628 0.0
C2588 C 0.31706 0.57487 0.27334 0.0
H2589 H 0.30565 0.42545 0.23265 0.0
H2590 H 0.30223 0.46145 0.24662 0.0
C2591 C 0.31804 0.59537 0.28152 0.0
C2592 C 0.33308 0.53614 0.2668 0.0
H2593 H 0.33942 0.51716 0.23037 0.0
C2594 C 0.3307 0.51476 0.27394 0.0
C2595 C 0.33664 0.53699 0.25091 0.0
C2596 C 0.3408 0.55928 0.24265 0.0
C2597 C 0.33162 0.49424 0.26565 0.0
C2598 C 0.33443 0.49513 0.24969 0.0
C2599 C 0.33697 0.5165 0.24256 0.0
C2600 C 0.33566 0.47404 0.24027 0.0
C2601 C 0.33024 0.47181 0.27414 0.0
C2602 C 0.35508 0.46963 0.2314 0.0
C2603 C 0.35694 0.44922 0.22318 0.0
C2604 C 0.3394 0.43276 0.22371 0.0
C2605 C 0.31957 0.43765 0.23211 0.0
C2606 C 0.31766 0.45815 0.24022 0.0
H2607 H 0.33444 0.47394 0.28635 0.0
H2608 H 0.31257 0.46503 0.27336 0.0
H2609 H 0.34204 0.45891 0.26922 0.0
H2610 H 0.36912 0.48172 0.23116 0.0
H2611 H 0.37245 0.44603 0.21683 0.0
H2612 H 0.3061 0.63542 0.94857 0.0
H2613 H 0.27081 0.63036 0.96314 0.0
H2614 H 0.30814 0.59385 0.99774 0.0
H2615 H 0.34347 0.59878 0.98333 0.0
H2616 H 0.24949 0.58787 0.97493 0.0
H2617 H 0.27659 0.64873 0.02008 0.0
H2618 H 0.28991 0.64808 1.00161 0.0
H2619 H 0.29637 0.62627 0.01534 0.0
C2620 C 0.30679 0.62613 0.95921 0.0
C2621 C 0.32767 0.61765 0.96481 0.0
C2622 C 0.28661 0.62326 0.96752 0.0
C2623 C 0.28696 0.61202 0.98161 0.0
C2624 C 0.30758 0.60286 0.98699 0.0
H2625 H 0.17866 0.60209 0.05034 0.0
H2626 H 0.2151 0.59759 0.03686 0.0
C2627 C 0.32774 0.60562 0.97868 0.0
C2628 C 0.26586 0.61046 0.99086 0.0
H2629 H 0.24087 0.63082 0.02314 0.0
C2630 C 0.2476 0.59718 0.9855 0.0
C2631 C 0.26356 0.62247 1.0047 0.0
C2632 C 0.28254 0.63734 0.0108 0.0
C2633 C 0.22698 0.5957 0.99359 0.0
C2634 C 0.22437 0.60832 1.0072 0.0
C2635 C 0.24287 0.62115 0.01273 0.0
C2636 C 0.20213 0.60976 0.01529 0.0
C2637 C 0.20824 0.5805 0.98752 0.0
C2638 C 0.18283 0.61828 0.00771 0.0
C2639 C 0.1621 0.62079 0.01533 0.0
C2640 C 0.16019 0.61509 0.03079 0.0
C2641 C 0.17953 0.60655 0.03842 0.0
C2642 C 0.20035 0.60399 0.03074 0.0
H2643 H 0.21527 0.56659 0.98031 0.0
H2644 H 0.19818 0.57268 0.99686 0.0
H2645 H 0.19653 0.59089 0.98038 0.0
H2646 H 0.1839 0.62345 0.99592 0.0
H2647 H 0.14764 0.62756 0.00909 0.0
H2648 H 0.11802 0.42724 0.77757 0.0
H2649 H 0.12857 0.46105 0.76296 0.0
H2650 H 0.1963 0.45904 0.78222 0.0
H2651 H 0.18572 0.42507 0.79717 0.0
H2652 H 0.17794 0.50304 0.78117 0.0
H2653 H 0.1689 0.46083 0.72535 0.0
H2654 H 0.1437 0.45774 0.73673 0.0
H2655 H 0.17011 0.44492 0.74291 0.0
C2656 C 0.13518 0.43393 0.77876 0.0
C2657 C 0.1511 0.42331 0.78845 0.0
C2658 C 0.14123 0.45321 0.7703 0.0
C2659 C 0.16339 0.46223 0.77119 0.0
C2660 C 0.17917 0.45219 0.78123 0.0
H2661 H 0.20025 0.5679 0.70402 0.0
H2662 H 0.20202 0.53322 0.71975 0.0
C2663 C 0.17309 0.43284 0.78979 0.0
C2664 C 0.16967 0.48234 0.76172 0.0
H2665 H 0.16841 0.50203 0.72521 0.0
C2666 C 0.1762 0.50275 0.76892 0.0
C2667 C 0.16787 0.48186 0.7457 0.0
C2668 C 0.16251 0.46008 0.7372 0.0
C2669 C 0.17964 0.52301 0.76059 0.0
C2670 C 0.17605 0.52293 0.74469 0.0
C2671 C 0.17086 0.5022 0.73741 0.0
C2672 C 0.17601 0.54435 0.73555 0.0
C2673 C 0.18685 0.54437 0.76893 0.0
C2674 C 0.16062 0.56198 0.73907 0.0
C2675 C 0.15957 0.58173 0.73013 0.0
C2676 C 0.17375 0.58426 0.71735 0.0
C2677 C 0.18913 0.56654 0.71379 0.0
C2678 C 0.19018 0.54672 0.72278 0.0
H2679 H 0.19613 0.54009 0.77957 0.0
H2680 H 0.19798 0.55535 0.76178 0.0
H2681 H 0.17143 0.55435 0.77206 0.0
H2682 H 0.14907 0.5603 0.7486 0.0
H2683 H 0.14741 0.59492 0.7332 0.0
H2684 H 0.20237 0.39909 0.44694 0.0
H2685 H 0.23749 0.40248 0.46192 0.0
H2686 H 0.19854 0.42704 0.50005 0.0
H2687 H 0.16334 0.42365 0.48524 0.0
H2688 H 0.25678 0.44167 0.47754 0.0
H2689 H 0.2337 0.37067 0.51684 0.0
H2690 H 0.21945 0.37498 0.49887 0.0
H2691 H 0.21287 0.39309 0.51473 0.0
C2692 C 0.20126 0.40537 0.45848 0.0
C2693 C 0.17999 0.41094 0.46491 0.0
C2694 C 0.22136 0.40729 0.46702 0.0
C2695 C 0.22057 0.41467 0.48216 0.0
C2696 C 0.19948 0.42095 0.48846 0.0
H2697 H 0.33077 0.41495 0.55026 0.0
H2698 H 0.29375 0.42116 0.53771 0.0
C2699 C 0.17939 0.41909 0.47993 0.0
C2700 C 0.24177 0.41533 0.49142 0.0
H2701 H 0.2685 0.38964 0.52145 0.0
C2702 C 0.25933 0.43038 0.48718 0.0
C2703 C 0.24496 0.4007 0.50407 0.0
C2704 C 0.22686 0.38379 0.5089 0.0
C2705 C 0.28011 0.43105 0.49517 0.0
C2706 C 0.28361 0.41589 0.50753 0.0
C2707 C 0.2658 0.40128 0.51201 0.0
C2708 C 0.30618 0.4136 0.51515 0.0
C2709 C 0.2981 0.44805 0.49032 0.0
C2710 C 0.32539 0.40716 0.50667 0.0
C2711 C 0.34644 0.40365 0.51376 0.0
C2712 C 0.34879 0.40629 0.52956 0.0
C2713 C 0.32957 0.41288 0.53807 0.0
C2714 C 0.30841 0.4164 0.53093 0.0
H2715 H 0.29036 0.463 0.48441 0.0
H2716 H 0.30811 0.45433 0.50018 0.0
H2717 H 0.31 0.43964 0.48228 0.0
H2718 H 0.32401 0.40431 0.49456 0.0
H2719 H 0.3608 0.39848 0.50683 0.0
loop_
_geom_bond_atom_site_label_1
_geom_bond_atom_site_label_2
_geom_bond_distance
_geom_bond_site_symmetry_2
_ccdc_geom_bond_type
Mg0 O7 2.141 . S
Mg0 O8 2.048 . S
Mg0 O9 2.048 . S
Mg0 O12 2.141 . S
C1 O2 1.313 . S
C1 O8 1.195 . S
O2 C1 1.313 . S
C3 O4 1.245 . S
C3 O12 1.289 . S
O4 C3 1.245 . S
C5 O6 1.245 . S
C5 O7 1.289 . S
O6 C5 1.245 . S
O7 Mg0 2.141 . S
O7 C5 1.289 . S
O8 Mg0 2.048 . S
O8 C1 1.195 . S
O9 Mg0 2.048 . S
O9 C10 1.195 . S
C10 O9 1.195 . S
C10 O11 1.313 . S
O11 C10 1.313 . S
O12 Mg0 2.141 . S
O12 C3 1.289 . S
Mg13 O20 2.141 . S
Mg13 O21 2.048 . S
Mg13 O22 2.048 . S
Mg13 O25 2.141 . S
C14 O15 1.313 . S
C14 O21 1.195 . S
O15 C14 1.313 . S
C16 O17 1.245 . S
C16 O25 1.289 . S
O17 C16 1.245 . S
C18 O19 1.245 . S
C18 O20 1.289 . S
O19 C18 1.245 . S
O20 Mg13 2.141 . S
O20 C18 1.289 . S
O21 Mg13 2.048 . S
O21 C14 1.195 . S
O22 Mg13 2.048 . S
O22 C23 1.195 . S
C23 O22 1.195 . S
C23 O24 1.313 . S
O24 C23 1.313 . S
O25 Mg13 2.141 . S
O25 C16 1.289 . S
Mg26 O33 2.141 . S
Mg26 O34 2.048 . S
Mg26 O35 2.048 . S
Mg26 O38 2.141 . S
C27 O28 1.313 . S
C27 O34 1.195 . S
O28 C27 1.313 . S
C29 O30 1.245 . S
C29 O38 1.289 . S
O30 C29 1.245 . S
C31 O32 1.245 . S
C31 O33 1.289 . S
O32 C31 1.245 . S
O33 Mg26 2.141 . S
O33 C31 1.289 . S
O34 Mg26 2.048 . S
O34 C27 1.195 . S
O35 Mg26 2.048 . S
O35 C36 1.195 . S
C36 O35 1.195 . S
C36 O37 1.313 . S
O37 C36 1.313 . S
O38 Mg26 2.141 . S
O38 C29 1.289 . S
Mg39 O46 2.141 . S
Mg39 O47 2.048 . S
Mg39 O48 2.048 . S
Mg39 O51 2.141 . S
C40 O41 1.313 . S
C40 O47 1.195 . S
O41 C40 1.313 . S
C42 O43 1.245 . S
C42 O51 1.289 . S
O43 C42 1.245 . S
C44 O45 1.245 . S
C44 O46 1.289 . S
O45 C44 1.245 . S
O46 Mg39 2.141 . S
O46 C44 1.289 . S
O47 Mg39 2.048 . S
O47 C40 1.195 . S
O48 Mg39 2.048 . S
O48 C49 1.195 . S
C49 O48 1.195 . S
C49 O50 1.313 . S
O50 C49 1.313 . S
O51 Mg39 2.141 . S
O51 C42 1.289 . S
Mg52 O59 2.141 . S
Mg52 O60 2.048 . S
Mg52 O61 2.048 . S
Mg52 O64 2.141 . S
C53 O54 1.313 . S
C53 O60 1.195 . S
O54 C53 1.313 . S
C55 O56 1.245 . S
C55 O64 1.289 . S
O56 C55 1.245 . S
C57 O58 1.245 . S
C57 O59 1.289 . S
O58 C57 1.245 . S
O59 Mg52 2.141 . S
O59 C57 1.289 . S
O60 Mg52 2.048 . S
O60 C53 1.195 . S
O61 Mg52 2.048 . S
O61 C62 1.195 . S
C62 O61 1.195 . S
C62 O63 1.313 . S
O63 C62 1.313 . S
O64 Mg52 2.141 . S
O64 C55 1.289 . S
Mg65 O72 2.141 . S
Mg65 O73 2.048 . S
Mg65 O74 2.048 . S
Mg65 O77 2.141 . S
C66 O67 1.313 . S
C66 O73 1.195 . S
O67 C66 1.313 . S
C68 O69 1.245 . S
C68 O77 1.289 . S
O69 C68 1.245 . S
C70 O71 1.245 . S
C70 O72 1.289 . S
O71 C70 1.245 . S
O72 Mg65 2.141 . S
O72 C70 1.289 . S
O73 Mg65 2.048 . S
O73 C66 1.195 . S
O74 Mg65 2.048 . S
O74 C75 1.195 . S
C75 O74 1.195 . S
C75 O76 1.313 . S
O76 C75 1.313 . S
O77 Mg65 2.141 . S
O77 C68 1.289 . S
Mg78 O85 2.141 . S
Mg78 O86 2.048 . S
Mg78 O87 2.048 . S
Mg78 O90 2.141 . S
C79 O80 1.313 . S
C79 O86 1.195 . S
O80 C79 1.313 . S
C81 O82 1.245 . S
C81 O90 1.289 . S
O82 C81 1.245 . S
C83 O84 1.245 . S
C83 O85 1.289 . S
O84 C83 1.245 . S
O85 Mg78 2.141 . S
O85 C83 1.289 . S
O86 Mg78 2.048 . S
O86 C79 1.195 . S
O87 Mg78 2.048 . S
O87 C88 1.195 . S
C88 O87 1.195 . S
C88 O89 1.313 . S
O89 C88 1.313 . S
O90 Mg78 2.141 . S
O90 C81 1.289 . S
Mg91 O98 2.141 . S
Mg91 O99 2.048 . S
Mg91 O100 2.048 . S
Mg91 O103 2.141 . S
C92 O93 1.313 . S
C92 O99 1.195 . S
O93 C92 1.313 . S
C94 O95 1.245 . S
C94 O103 1.289 . S
O95 C94 1.245 . S
C96 O97 1.245 . S
C96 O98 1.289 . S
O97 C96 1.245 . S
O98 Mg91 2.141 . S
O98 C96 1.289 . S
O99 Mg91 2.048 . S
O99 C92 1.195 . S
O100 Mg91 2.048 . S
O100 C101 1.195 . S
C101 O100 1.195 . S
C101 O102 1.313 . S
O102 C101 1.313 . S
O103 Mg91 2.141 . S
O103 C94 1.289 . S
Mg104 O111 2.141 . S
Mg104 O112 2.048 . S
Mg104 O113 2.048 . S
Mg104 O116 2.141 . S
C105 O106 1.313 . S
C105 O112 1.195 . S
O106 C105 1.313 . S
C107 O108 1.245 . S
C107 O116 1.289 . S
O108 C107 1.245 . S
C109 O110 1.245 . S
C109 O111 1.289 . S
O110 C109 1.245 . S
O111 Mg104 2.141 . S
O111 C109 1.289 . S
O112 Mg104 2.048 . S
O112 C105 1.195 . S
O113 Mg104 2.048 . S
O113 C114 1.195 . S
C114 O113 1.195 . S
C114 O115 1.313 . S
O115 C114 1.313 . S
O116 Mg104 2.141 . S
O116 C107 1.289 . S
Mg117 O124 2.141 . S
Mg117 O125 2.048 . S
Mg117 O126 2.048 . S
Mg117 O129 2.141 . S
C118 O119 1.313 . S
C118 O125 1.195 . S
O119 C118 1.313 . S
C120 O121 1.245 . S
C120 O129 1.289 . S
O121 C120 1.245 . S
C122 O123 1.245 . S
C122 O124 1.289 . S
O123 C122 1.245 . S
O124 Mg117 2.141 . S
O124 C122 1.289 . S
O125 Mg117 2.048 . S
O125 C118 1.195 . S
O126 Mg117 2.048 . S
O126 C127 1.195 . S
C127 O126 1.195 . S
C127 O128 1.313 . S
O128 C127 1.313 . S
O129 Mg117 2.141 . S
O129 C120 1.289 . S
Mg130 O137 2.141 . S
Mg130 O138 2.048 . S
Mg130 O139 2.048 . S
Mg130 O142 2.141 . S
C131 O132 1.313 . S
C131 O138 1.195 . S
O132 C131 1.313 . S
C133 O134 1.245 . S
C133 O142 1.289 . S
O134 C133 1.245 . S
C135 O136 1.245 . S
C135 O137 1.289 . S
O136 C135 1.245 . S
O137 Mg130 2.141 . S
O137 C135 1.289 . S
O138 Mg130 2.048 . S
O138 C131 1.195 . S
O139 Mg130 2.048 . S
O139 C140 1.195 . S
C140 O139 1.195 . S
C140 O141 1.313 . S
O141 C140 1.313 . S
O142 Mg130 2.141 . S
O142 C133 1.289 . S
Mg143 O150 2.141 . S
Mg143 O151 2.048 . S
Mg143 O152 2.048 . S
Mg143 O155 2.141 . S
C144 O145 1.313 . S
C144 O151 1.195 . S
O145 C144 1.313 . S
C146 O147 1.245 . S
C146 O155 1.289 . S
O147 C146 1.245 . S
C148 O149 1.245 . S
C148 O150 1.289 . S
O149 C148 1.245 . S
O150 Mg143 2.141 . S
O150 C148 1.289 . S
O151 Mg143 2.048 . S
O151 C144 1.195 . S
O152 Mg143 2.048 . S
O152 C153 1.195 . S
C153 O152 1.195 . S
C153 O154 1.313 . S
O154 C153 1.313 . S
O155 Mg143 2.141 . S
O155 C146 1.289 . S
Mg156 O163 2.141 . S
Mg156 O164 2.048 . S
Mg156 O165 2.048 . S
Mg156 O168 2.141 . S
C157 O158 1.313 . S
C157 O164 1.195 . S
O158 C157 1.313 . S
C159 O160 1.245 . S
C159 O168 1.289 . S
O160 C159 1.245 . S
C161 O162 1.245 . S
C161 O163 1.289 . S
O162 C161 1.245 . S
O163 Mg156 2.141 . S
O163 C161 1.289 . S
O164 Mg156 2.048 . S
O164 C157 1.195 . S
O165 Mg156 2.048 . S
O165 C166 1.195 . S
C166 O165 1.195 . S
C166 O167 1.313 . S
O167 C166 1.313 . S
O168 Mg156 2.141 . S
O168 C159 1.289 . S
Mg169 O176 2.141 . S
Mg169 O177 2.048 . S
Mg169 O178 2.048 . S
Mg169 O181 2.141 . S
C170 O171 1.313 . S
C170 O177 1.195 . S
O171 C170 1.313 . S
C172 O173 1.245 . S
C172 O181 1.289 . S
O173 C172 1.245 . S
C174 O175 1.245 . S
C174 O176 1.289 . S
O175 C174 1.245 . S
O176 Mg169 2.141 . S
O176 C174 1.289 . S
O177 Mg169 2.048 . S
O177 C170 1.195 . S
O178 Mg169 2.048 . S
O178 C179 1.195 . S
C179 O178 1.195 . S
C179 O180 1.313 . S
O180 C179 1.313 . S
O181 Mg169 2.141 . S
O181 C172 1.289 . S
Mg182 O189 2.141 . S
Mg182 O190 2.048 . S
Mg182 O191 2.048 . S
Mg182 O194 2.141 . S
C183 O184 1.313 . S
C183 O190 1.195 . S
O184 C183 1.313 . S
C185 O186 1.245 . S
C185 O194 1.289 . S
O186 C185 1.245 . S
C187 O188 1.245 . S
C187 O189 1.289 . S
O188 C187 1.245 . S
O189 Mg182 2.141 . S
O189 C187 1.289 . S
O190 Mg182 2.048 . S
O190 C183 1.195 . S
O191 Mg182 2.048 . S
O191 C192 1.195 . S
C192 O191 1.195 . S
C192 O193 1.313 . S
O193 C192 1.313 . S
O194 Mg182 2.141 . S
O194 C185 1.289 . S
Mg195 O202 2.141 . S
Mg195 O203 2.048 . S
Mg195 O204 2.048 . S
Mg195 O207 2.141 . S
C196 O197 1.313 . S
C196 O203 1.195 . S
O197 C196 1.313 . S
C198 O199 1.245 . S
C198 O207 1.289 . S
O199 C198 1.245 . S
C200 O201 1.245 . S
C200 O202 1.289 . S
O201 C200 1.245 . S
O202 Mg195 2.141 . S
O202 C200 1.289 . S
O203 Mg195 2.048 . S
O203 C196 1.195 . S
O204 Mg195 2.048 . S
O204 C205 1.195 . S
C205 O204 1.195 . S
C205 O206 1.313 . S
O206 C205 1.313 . S
O207 Mg195 2.141 . S
O207 C198 1.289 . S
Mg208 O215 2.141 . S
Mg208 O216 2.048 . S
Mg208 O217 2.048 . S
Mg208 O220 2.141 . S
C209 O210 1.313 . S
C209 O216 1.195 . S
O210 C209 1.313 . S
C211 O212 1.245 . S
C211 O220 1.289 . S
O212 C211 1.245 . S
C213 O214 1.245 . S
C213 O215 1.289 . S
O214 C213 1.245 . S
O215 Mg208 2.141 . S
O215 C213 1.289 . S
O216 Mg208 2.048 . S
O216 C209 1.195 . S
O217 Mg208 2.048 . S
O217 C218 1.195 . S
C218 O217 1.195 . S
C218 O219 1.313 . S
O219 C218 1.313 . S
O220 Mg208 2.141 . S
O220 C211 1.289 . S
Mg221 O228 2.141 . S
Mg221 O229 2.048 . S
Mg221 O230 2.048 . S
Mg221 O233 2.141 . S
C222 O223 1.313 . S
C222 O229 1.195 . S
O223 C222 1.313 . S
C224 O225 1.245 . S
C224 O233 1.289 . S
O225 C224 1.245 . S
C226 O227 1.245 . S
C226 O228 1.289 . S
O227 C226 1.245 . S
O228 Mg221 2.141 . S
O228 C226 1.289 . S
O229 Mg221 2.048 . S
O229 C222 1.195 . S
O230 Mg221 2.048 . S
O230 C231 1.195 . S
C231 O230 1.195 . S
C231 O232 1.313 . S
O232 C231 1.313 . S
O233 Mg221 2.141 . S
O233 C224 1.289 . S
Mg234 O241 2.141 . S
Mg234 O242 2.048 . S
Mg234 O243 2.048 . S
Mg234 O246 2.141 . S
C235 O236 1.313 . S
C235 O242 1.195 . S
O236 C235 1.313 . S
C237 O238 1.245 . S
C237 O246 1.289 . S
O238 C237 1.245 . S
C239 O240 1.245 . S
C239 O241 1.289 . S
O240 C239 1.245 . S
O241 Mg234 2.141 . S
O241 C239 1.289 . S
O242 Mg234 2.048 . S
O242 C235 1.195 . S
O243 Mg234 2.048 . S
O243 C244 1.195 . S
C244 O243 1.195 . S
C244 O245 1.313 . S
O245 C244 1.313 . S
O246 Mg234 2.141 . S
O246 C237 1.289 . S
Mg247 O254 2.141 . S
Mg247 O255 2.048 . S
Mg247 O256 2.048 . S
Mg247 O259 2.141 . S
C248 O249 1.313 . S
C248 O255 1.195 . S
O249 C248 1.313 . S
C250 O251 1.245 . S
C250 O259 1.289 . S
O251 C250 1.245 . S
C252 O253 1.245 . S
C252 O254 1.289 . S
O253 C252 1.245 . S
O254 Mg247 2.141 . S
O254 C252 1.289 . S
O255 Mg247 2.048 . S
O255 C248 1.195 . S
O256 Mg247 2.048 . S
O256 C257 1.195 . S
C257 O256 1.195 . S
C257 O258 1.313 . S
O258 C257 1.313 . S
O259 Mg247 2.141 . S
O259 C250 1.289 . S
Mg260 O267 2.141 . S
Mg260 O268 2.048 . S
Mg260 O269 2.048 . S
Mg260 O272 2.141 . S
C261 O262 1.313 . S
C261 O268 1.195 . S
O262 C261 1.313 . S
C263 O264 1.245 . S
C263 O272 1.289 . S
O264 C263 1.245 . S
C265 O266 1.245 . S
C265 O267 1.289 . S
O266 C265 1.245 . S
O267 Mg260 2.141 . S
O267 C265 1.289 . S
O268 Mg260 2.048 . S
O268 C261 1.195 . S
O269 Mg260 2.048 . S
O269 C270 1.195 . S
C270 O269 1.195 . S
C270 O271 1.313 . S
O271 C270 1.313 . S
O272 Mg260 2.141 . S
O272 C263 1.289 . S
Mg273 O280 2.141 . S
Mg273 O281 2.048 . S
Mg273 O282 2.048 . S
Mg273 O285 2.141 . S
C274 O275 1.313 . S
C274 O281 1.195 . S
O275 C274 1.313 . S
C276 O277 1.245 . S
C276 O285 1.289 . S
O277 C276 1.245 . S
C278 O279 1.245 . S
C278 O280 1.289 . S
O279 C278 1.245 . S
O280 Mg273 2.141 . S
O280 C278 1.289 . S
O281 Mg273 2.048 . S
O281 C274 1.195 . S
O282 Mg273 2.048 . S
O282 C283 1.195 . S
C283 O282 1.195 . S
C283 O284 1.313 . S
O284 C283 1.313 . S
O285 Mg273 2.141 . S
O285 C276 1.289 . S
Mg286 O293 2.141 . S
Mg286 O294 2.048 . S
Mg286 O295 2.048 . S
Mg286 O298 2.141 . S
C287 O288 1.313 . S
C287 O294 1.195 . S
O288 C287 1.313 . S
C289 O290 1.245 . S
C289 O298 1.289 . S
O290 C289 1.245 . S
C291 O292 1.245 . S
C291 O293 1.289 . S
O292 C291 1.245 . S
O293 Mg286 2.141 . S
O293 C291 1.289 . S
O294 Mg286 2.048 . S
O294 C287 1.195 . S
O295 Mg286 2.048 . S
O295 C296 1.195 . S
C296 O295 1.195 . S
C296 O297 1.313 . S
O297 C296 1.313 . S
O298 Mg286 2.141 . S
O298 C289 1.289 . S
Mg299 O306 2.141 . S
Mg299 O307 2.048 . S
Mg299 O308 2.048 . S
Mg299 O311 2.141 . S
C300 O301 1.313 . S
C300 O307 1.195 . S
O301 C300 1.313 . S
C302 O303 1.245 . S
C302 O311 1.289 . S
O303 C302 1.245 . S
C304 O305 1.245 . S
C304 O306 1.289 . S
O305 C304 1.245 . S
O306 Mg299 2.141 . S
O306 C304 1.289 . S
O307 Mg299 2.048 . S
O307 C300 1.195 . S
O308 Mg299 2.048 . S
O308 C309 1.195 . S
C309 O308 1.195 . S
C309 O310 1.313 . S
O310 C309 1.313 . S
O311 Mg299 2.141 . S
O311 C302 1.289 . S
Mg312 O319 2.141 . S
Mg312 O320 2.048 . S
Mg312 O321 2.048 . S
Mg312 O324 2.141 . S
C313 O314 1.313 . S
C313 O320 1.195 . S
O314 C313 1.313 . S
C315 O316 1.245 . S
C315 O324 1.289 . S
O316 C315 1.245 . S
C317 O318 1.245 . S
C317 O319 1.289 . S
O318 C317 1.245 . S
O319 Mg312 2.141 . S
O319 C317 1.289 . S
O320 Mg312 2.048 . S
O320 C313 1.195 . S
O321 Mg312 2.048 . S
O321 C322 1.195 . S
C322 O321 1.195 . S
C322 O323 1.313 . S
O323 C322 1.313 . S
O324 Mg312 2.141 . S
O324 C315 1.289 . S
Mg325 O332 2.141 . S
Mg325 O333 2.048 . S
Mg325 O334 2.048 . S
Mg325 O337 2.141 . S
C326 O327 1.313 . S
C326 O333 1.195 . S
O327 C326 1.313 . S
C328 O329 1.245 . S
C328 O337 1.289 . S
O329 C328 1.245 . S
C330 O331 1.245 . S
C330 O332 1.289 . S
O331 C330 1.245 . S
O332 Mg325 2.141 . S
O332 C330 1.289 . S
O333 Mg325 2.048 . S
O333 C326 1.195 . S
O334 Mg325 2.048 . S
O334 C335 1.195 . S
C335 O334 1.195 . S
C335 O336 1.313 . S
O336 C335 1.313 . S
O337 Mg325 2.141 . S
O337 C328 1.289 . S
Mg338 O345 2.141 . S
Mg338 O346 2.048 . S
Mg338 O347 2.048 . S
Mg338 O350 2.141 . S
C339 O340 1.313 . S
C339 O346 1.195 . S
O340 C339 1.313 . S
C341 O342 1.245 . S
C341 O350 1.289 . S
O342 C341 1.245 . S
C343 O344 1.245 . S
C343 O345 1.289 . S
O344 C343 1.245 . S
O345 Mg338 2.141 . S
O345 C343 1.289 . S
O346 Mg338 2.048 . S
O346 C339 1.195 . S
O347 Mg338 2.048 . S
O347 C348 1.195 . S
C348 O347 1.195 . S
C348 O349 1.313 . S
O349 C348 1.313 . S
O350 Mg338 2.141 . S
O350 C341 1.289 . S
Mg351 O358 2.141 . S
Mg351 O359 2.048 . S
Mg351 O360 2.048 . S
Mg351 O363 2.141 . S
C352 O353 1.313 . S
C352 O359 1.195 . S
O353 C352 1.313 . S
C354 O355 1.245 . S
C354 O363 1.289 . S
O355 C354 1.245 . S
C356 O357 1.245 . S
C356 O358 1.289 . S
O357 C356 1.245 . S
O358 Mg351 2.141 . S
O358 C356 1.289 . S
O359 Mg351 2.048 . S
O359 C352 1.195 . S
O360 Mg351 2.048 . S
O360 C361 1.195 . S
C361 O360 1.195 . S
C361 O362 1.313 . S
O362 C361 1.313 . S
O363 Mg351 2.141 . S
O363 C354 1.289 . S
Mg364 O371 2.141 . S
Mg364 O372 2.048 . S
Mg364 O373 2.048 . S
Mg364 O376 2.141 . S
C365 O366 1.313 . S
C365 O372 1.195 . S
O366 C365 1.313 . S
C367 O368 1.245 . S
C367 O376 1.289 . S
O368 C367 1.245 . S
C369 O370 1.245 . S
C369 O371 1.289 . S
O370 C369 1.245 . S
O371 Mg364 2.141 . S
O371 C369 1.289 . S
O372 Mg364 2.048 . S
O372 C365 1.195 . S
O373 Mg364 2.048 . S
O373 C374 1.195 . S
C374 O373 1.195 . S
C374 O375 1.313 . S
O375 C374 1.313 . S
O376 Mg364 2.141 . S
O376 C367 1.289 . S
Mg377 O384 2.141 . S
Mg377 O385 2.048 . S
Mg377 O386 2.048 . S
Mg377 O389 2.141 . S
C378 O379 1.313 . S
C378 O385 1.195 . S
O379 C378 1.313 . S
C380 O381 1.245 . S
C380 O389 1.289 . S
O381 C380 1.245 . S
C382 O383 1.245 . S
C382 O384 1.289 . S
O383 C382 1.245 . S
O384 Mg377 2.141 . S
O384 C382 1.289 . S
O385 Mg377 2.048 . S
O385 C378 1.195 . S
O386 Mg377 2.048 . S
O386 C387 1.195 . S
C387 O386 1.195 . S
C387 O388 1.313 . S
O388 C387 1.313 . S
O389 Mg377 2.141 . S
O389 C380 1.289 . S
Mg390 O397 2.141 . S
Mg390 O398 2.048 . S
Mg390 O399 2.048 . S
Mg390 O402 2.141 . S
C391 O392 1.313 . S
C391 O398 1.195 . S
O392 C391 1.313 . S
C393 O394 1.245 . S
C393 O402 1.289 . S
O394 C393 1.245 . S
C395 O396 1.245 . S
C395 O397 1.289 . S
O396 C395 1.245 . S
O397 Mg390 2.141 . S
O397 C395 1.289 . S
O398 Mg390 2.048 . S
O398 C391 1.195 . S
O399 Mg390 2.048 . S
O399 C400 1.195 . S
C400 O399 1.195 . S
C400 O401 1.313 . S
O401 C400 1.313 . S
O402 Mg390 2.141 . S
O402 C393 1.289 . S
Mg403 O410 2.141 . S
Mg403 O411 2.048 . S
Mg403 O412 2.048 . S
Mg403 O415 2.141 . S
C404 O405 1.313 . S
C404 O411 1.195 . S
O405 C404 1.313 . S
C406 O407 1.245 . S
C406 O415 1.289 . S
O407 C406 1.245 . S
C408 O409 1.245 . S
C408 O410 1.289 . S
O409 C408 1.245 . S
O410 Mg403 2.141 . S
O410 C408 1.289 . S
O411 Mg403 2.048 . S
O411 C404 1.195 . S
O412 Mg403 2.048 . S
O412 C413 1.195 . S
C413 O412 1.195 . S
C413 O414 1.313 . S
O414 C413 1.313 . S
O415 Mg403 2.141 . S
O415 C406 1.289 . S
H416 C424 0.929 . S
H417 C426 0.930 . S
H418 C428 0.930 . S
H419 C431 0.929 . S
H420 C434 0.930 . S
H421 C436 0.960 . S
H422 C436 0.960 . S
H423 C436 0.960 . S
C424 H416 0.929 . S
C424 C425 1.377 . S
C424 C426 1.384 . S
C425 C424 1.377 . S
C425 C431 1.390 . S
C426 H417 0.930 . S
C426 C424 1.384 . S
C426 C427 1.372 . S
C427 C426 1.372 . S
C427 C428 1.400 . S
C427 C432 1.490 . S
C428 H418 0.930 . S
C428 C427 1.400 . S
C428 C431 1.386 . S
H429 C445 0.930 . S
H430 C446 0.931 . S
C431 H419 0.929 . S
C431 C425 1.390 . S
C431 C428 1.386 . S
C432 C427 1.490 . S
C432 C434 1.395 . S
C432 C435 1.403 . S
H433 C439 0.930 . S
C434 H420 0.930 . S
C434 C432 1.395 . S
C434 C437 1.403 . S
C435 C432 1.403 . S
C435 C436 1.524 . S
C435 C439 1.400 . S
C436 H421 0.960 . S
C436 H422 0.960 . S
C436 H423 0.960 . S
C436 C435 1.524 . S
C437 C434 1.403 . S
C437 C438 1.392 . S
C437 C441 1.495 . S
C438 C437 1.392 . S
C438 C439 1.385 . S
C438 C440 1.478 . S
C439 H433 0.930 . S
C439 C435 1.400 . S
C439 C438 1.385 . S
C440 C438 1.478 . S
C440 C442 1.381 . S
C440 C446 1.383 . S
C441 C437 1.495 . S
C441 H447 0.959 . S
C441 H448 0.961 . S
C441 H449 0.960 . S
C442 C440 1.381 . S
C442 C443 1.394 . S
C442 H450 0.930 . S
C443 C442 1.394 . S
C443 C444 1.383 . S
C443 H451 0.929 . S
C444 C443 1.383 . S
C444 C445 1.377 . S
C445 H429 0.930 . S
C445 C444 1.377 . S
C445 C446 1.379 . S
C446 H430 0.931 . S
C446 C440 1.383 . S
C446 C445 1.379 . S
H447 C441 0.959 . S
H448 C441 0.961 . S
H449 C441 0.960 . S
H450 C442 0.930 . S
H451 C443 0.929 . S
H452 C460 0.929 . S
H453 C462 0.930 . S
H454 C464 0.930 . S
H455 C467 0.929 . S
H456 C470 0.930 . S
H457 C472 0.960 . S
H458 C472 0.960 1_455 S
H459 C472 0.960 1_455 S
C460 H452 0.929 . S
C460 C461 1.377 . S
C460 C462 1.384 . S
C461 C460 1.377 . S
C461 C467 1.390 . S
C462 H453 0.930 . S
C462 C460 1.384 . S
C462 C463 1.372 . S
C463 C462 1.372 . S
C463 C464 1.400 . S
C463 C468 1.490 1_455 S
C464 H454 0.930 . S
C464 C463 1.400 . S
C464 C467 1.386 . S
H465 C481 0.930 . S
H466 C482 0.931 . S
C467 H455 0.929 . S
C467 C461 1.390 . S
C467 C464 1.386 . S
C468 C463 1.490 1_655 S
C468 C470 1.395 . S
C468 C471 1.403 . S
H469 C475 0.930 . S
C470 H456 0.930 . S
C470 C468 1.395 . S
C470 C473 1.403 . S
C471 C468 1.403 . S
C471 C472 1.524 . S
C471 C475 1.400 . S
C472 H457 0.960 . S
C472 H458 0.960 1_655 S
C472 H459 0.960 1_655 S
C472 C471 1.524 . S
C473 C470 1.403 . S
C473 C474 1.392 . S
C473 C477 1.495 . S
C474 C473 1.392 . S
C474 C475 1.385 . S
C474 C476 1.478 . S
C475 H469 0.930 . S
C475 C471 1.400 . S
C475 C474 1.385 . S
C476 C474 1.478 . S
C476 C478 1.381 . S
C476 C482 1.383 . S
C477 C473 1.495 . S
C477 H483 0.959 . S
C477 H484 0.961 . S
C477 H485 0.960 . S
C478 C476 1.381 . S
C478 C479 1.394 . S
C478 H486 0.930 . S
C479 C478 1.394 . S
C479 C480 1.383 . S
C479 H487 0.929 . S
C480 C479 1.383 . S
C480 C481 1.377 . S
C481 H465 0.930 . S
C481 C480 1.377 . S
C481 C482 1.379 . S
C482 H466 0.931 . S
C482 C476 1.383 . S
C482 C481 1.379 . S
H483 C477 0.959 . S
H484 C477 0.961 . S
H485 C477 0.960 . S
H486 C478 0.930 . S
H487 C479 0.929 . S
H488 C496 0.929 . S
H489 C498 0.930 . S
H490 C500 0.930 . S
H491 C503 0.929 . S
H492 C506 0.930 . S
H493 C508 0.960 . S
H494 C508 0.960 . S
H495 C508 0.960 . S
C496 H488 0.929 . S
C496 C497 1.377 . S
C496 C498 1.384 . S
C497 C496 1.377 . S
C497 C503 1.390 . S
C498 H489 0.930 . S
C498 C496 1.384 . S
C498 C499 1.372 . S
C499 C498 1.372 . S
C499 C500 1.400 . S
C499 C504 1.490 . S
C500 H490 0.930 . S
C500 C499 1.400 . S
C500 C503 1.386 . S
H501 C517 0.930 . S
H502 C518 0.931 . S
C503 H491 0.929 . S
C503 C497 1.390 . S
C503 C500 1.386 . S
C504 C499 1.490 . S
C504 C506 1.395 . S
C504 C507 1.403 . S
H505 C511 0.930 . S
C506 H492 0.930 . S
C506 C504 1.395 . S
C506 C509 1.403 . S
C507 C504 1.403 . S
C507 C508 1.524 . S
C507 C511 1.400 . S
C508 H493 0.960 . S
C508 H494 0.960 . S
C508 H495 0.960 . S
C508 C507 1.524 . S
C509 C506 1.403 . S
C509 C510 1.392 . S
C509 C513 1.495 . S
C510 C509 1.392 . S
C510 C511 1.385 . S
C510 C512 1.478 . S
C511 H505 0.930 . S
C511 C507 1.400 . S
C511 C510 1.385 . S
C512 C510 1.478 . S
C512 C514 1.381 . S
C512 C518 1.383 . S
C513 C509 1.495 . S
C513 H519 0.959 . S
C513 H520 0.961 . S
C513 H521 0.960 . S
C514 C512 1.381 . S
C514 C515 1.394 . S
C514 H522 0.930 . S
C515 C514 1.394 . S
C515 C516 1.383 . S
C515 H523 0.929 . S
C516 C515 1.383 . S
C516 C517 1.377 . S
C517 H501 0.930 . S
C517 C516 1.377 . S
C517 C518 1.379 . S
C518 H502 0.931 . S
C518 C512 1.383 . S
C518 C517 1.379 . S
H519 C513 0.959 . S
H520 C513 0.961 . S
H521 C513 0.960 . S
H522 C514 0.930 . S
H523 C515 0.929 . S
H524 C532 0.929 . S
H525 C534 0.930 . S
H526 C536 0.930 . S
H527 C539 0.929 . S
H528 C542 0.930 . S
H529 C544 0.960 . S
H530 C544 0.960 . S
H531 C544 0.960 . S
C532 H524 0.929 . S
C532 C533 1.377 . S
C532 C534 1.384 . S
C533 C532 1.377 . S
C533 C539 1.390 . S
C534 H525 0.930 . S
C534 C532 1.384 . S
C534 C535 1.372 . S
C535 C534 1.372 . S
C535 C536 1.400 . S
C535 C540 1.490 . S
C536 H526 0.930 . S
C536 C535 1.400 . S
C536 C539 1.386 . S
H537 C553 0.930 . S
H538 C554 0.931 . S
C539 H527 0.929 . S
C539 C533 1.390 . S
C539 C536 1.386 . S
C540 C535 1.490 . S
C540 C542 1.395 . S
C540 C543 1.403 . S
H541 C547 0.930 . S
C542 H528 0.930 . S
C542 C540 1.395 . S
C542 C545 1.403 . S
C543 C540 1.403 . S
C543 C544 1.524 . S
C543 C547 1.400 . S
C544 H529 0.960 . S
C544 H530 0.960 . S
C544 H531 0.960 . S
C544 C543 1.524 . S
C545 C542 1.403 . S
C545 C546 1.392 . S
C545 C549 1.495 . S
C546 C545 1.392 . S
C546 C547 1.385 . S
C546 C548 1.478 . S
C547 H541 0.930 . S
C547 C543 1.400 . S
C547 C546 1.385 . S
C548 C546 1.478 . S
C548 C550 1.381 . S
C548 C554 1.383 . S
C549 C545 1.495 . S
C549 H555 0.959 . S
C549 H556 0.961 . S
C549 H557 0.960 . S
C550 C548 1.381 . S
C550 C551 1.394 . S
C550 H558 0.930 . S
C551 C550 1.394 . S
C551 C552 1.383 . S
C551 H559 0.929 . S
C552 C551 1.383 . S
C552 C553 1.377 . S
C553 H537 0.930 . S
C553 C552 1.377 . S
C553 C554 1.379 . S
C554 H538 0.931 . S
C554 C548 1.383 . S
C554 C553 1.379 . S
H555 C549 0.959 . S
H556 C549 0.961 . S
H557 C549 0.960 . S
H558 C550 0.930 . S
H559 C551 0.929 . S
H560 C568 0.929 . S
H561 C570 0.930 . S
H562 C572 0.930 . S
H563 C575 0.929 . S
H564 C578 0.930 . S
H565 C580 0.960 . S
H566 C580 0.960 . S
H567 C580 0.960 . S
C568 H560 0.929 . S
C568 C569 1.377 . S
C568 C570 1.384 . S
C569 C568 1.377 . S
C569 C575 1.390 . S
C570 H561 0.930 . S
C570 C568 1.384 . S
C570 C571 1.372 . S
C571 C570 1.372 . S
C571 C572 1.400 . S
C571 C576 1.490 . S
C572 H562 0.930 . S
C572 C571 1.400 . S
C572 C575 1.386 . S
H573 C589 0.930 . S
H574 C590 0.931 . S
C575 H563 0.929 . S
C575 C569 1.390 . S
C575 C572 1.386 . S
C576 C571 1.490 . S
C576 C578 1.395 . S
C576 C579 1.403 . S
H577 C583 0.930 . S
C578 H564 0.930 . S
C578 C576 1.395 . S
C578 C581 1.403 . S
C579 C576 1.403 . S
C579 C580 1.524 . S
C579 C583 1.400 . S
C580 H565 0.960 . S
C580 H566 0.960 . S
C580 H567 0.960 . S
C580 C579 1.524 . S
C581 C578 1.403 . S
C581 C582 1.392 . S
C581 C585 1.495 . S
C582 C581 1.392 . S
C582 C583 1.385 . S
C582 C584 1.478 . S
C583 H577 0.930 . S
C583 C579 1.400 . S
C583 C582 1.385 . S
C584 C582 1.478 . S
C584 C586 1.381 . S
C584 C590 1.383 . S
C585 C581 1.495 . S
C585 H591 0.959 . S
C585 H592 0.961 . S
C585 H593 0.960 . S
C586 C584 1.381 . S
C586 C587 1.394 . S
C586 H594 0.930 . S
C587 C586 1.394 . S
C587 C588 1.383 . S
C587 H595 0.929 . S
C588 C587 1.383 . S
C588 C589 1.377 . S
C589 H573 0.930 . S
C589 C588 1.377 . S
C589 C590 1.379 . S
C590 H574 0.931 . S
C590 C584 1.383 . S
C590 C589 1.379 . S
H591 C585 0.959 . S
H592 C585 0.961 . S
H593 C585 0.960 . S
H594 C586 0.930 . S
H595 C587 0.929 . S
H596 C604 0.929 . S
H597 C606 0.930 . S
H598 C608 0.930 . S
H599 C611 0.929 . S
H600 C614 0.930 . S
H601 C616 0.960 . S
H602 C616 0.960 . S
H603 C616 0.960 . S
C604 H596 0.929 . S
C604 C605 1.377 . S
C604 C606 1.384 . S
C605 C604 1.377 . S
C605 C611 1.390 . S
C606 H597 0.930 . S
C606 C604 1.384 . S
C606 C607 1.372 . S
C607 C606 1.372 . S
C607 C608 1.400 . S
C607 C612 1.490 . S
C608 H598 0.930 . S
C608 C607 1.400 . S
C608 C611 1.386 . S
H609 C625 0.930 . S
H610 C626 0.931 . S
C611 H599 0.929 . S
C611 C605 1.390 . S
C611 C608 1.386 . S
C612 C607 1.490 . S
C612 C614 1.395 . S
C612 C615 1.403 . S
H613 C619 0.930 . S
C614 H600 0.930 . S
C614 C612 1.395 . S
C614 C617 1.403 . S
C615 C612 1.403 . S
C615 C616 1.524 . S
C615 C619 1.400 . S
C616 H601 0.960 . S
C616 H602 0.960 . S
C616 H603 0.960 . S
C616 C615 1.524 . S
C617 C614 1.403 . S
C617 C618 1.392 . S
C617 C621 1.495 . S
C618 C617 1.392 . S
C618 C619 1.385 . S
C618 C620 1.478 . S
C619 H613 0.930 . S
C619 C615 1.400 . S
C619 C618 1.385 . S
C620 C618 1.478 . S
C620 C622 1.381 . S
C620 C626 1.383 . S
C621 C617 1.495 . S
C621 H627 0.959 . S
C621 H628 0.961 . S
C621 H629 0.960 . S
C622 C620 1.381 . S
C622 C623 1.394 . S
C622 H630 0.930 . S
C623 C622 1.394 . S
C623 C624 1.383 . S
C623 H631 0.929 . S
C624 C623 1.383 . S
C624 C625 1.377 . S
C625 H609 0.930 . S
C625 C624 1.377 . S
C625 C626 1.379 . S
C626 H610 0.931 . S
C626 C620 1.383 . S
C626 C625 1.379 . S
H627 C621 0.959 . S
H628 C621 0.961 . S
H629 C621 0.960 . S
H630 C622 0.930 . S
H631 C623 0.929 . S
H632 C640 0.929 . S
H633 C642 0.930 . S
H634 C644 0.930 . S
H635 C647 0.929 . S
H636 C650 0.930 . S
H637 C652 0.960 . S
H638 C652 0.960 . S
H639 C652 0.960 . S
C640 H632 0.929 . S
C640 C641 1.377 . S
C640 C642 1.384 . S
C641 C640 1.377 . S
C641 C647 1.390 . S
C642 H633 0.930 . S
C642 C640 1.384 . S
C642 C643 1.372 . S
C643 C642 1.372 . S
C643 C644 1.400 . S
C643 C648 1.490 . S
C644 H634 0.930 . S
C644 C643 1.400 . S
C644 C647 1.386 . S
H645 C661 0.930 . S
H646 C662 0.931 . S
C647 H635 0.929 . S
C647 C641 1.390 . S
C647 C644 1.386 . S
C648 C643 1.490 . S
C648 C650 1.395 . S
C648 C651 1.403 . S
H649 C655 0.930 . S
C650 H636 0.930 . S
C650 C648 1.395 . S
C650 C653 1.403 . S
C651 C648 1.403 . S
C651 C652 1.524 . S
C651 C655 1.400 . S
C652 H637 0.960 . S
C652 H638 0.960 . S
C652 H639 0.960 . S
C652 C651 1.524 . S
C653 C650 1.403 . S
C653 C654 1.392 . S
C653 C657 1.495 . S
C654 C653 1.392 . S
C654 C655 1.385 . S
C654 C656 1.478 . S
C655 H649 0.930 . S
C655 C651 1.400 . S
C655 C654 1.385 . S
C656 C654 1.478 . S
C656 C658 1.381 . S
C656 C662 1.383 . S
C657 C653 1.495 . S
C657 H663 0.959 . S
C657 H664 0.961 . S
C657 H665 0.960 . S
C658 C656 1.381 . S
C658 C659 1.394 . S
C658 H666 0.930 . S
C659 C658 1.394 . S
C659 C660 1.383 . S
C659 H667 0.929 . S
C660 C659 1.383 . S
C660 C661 1.377 . S
C661 H645 0.930 . S
C661 C660 1.377 . S
C661 C662 1.379 . S
C662 H646 0.931 . S
C662 C656 1.383 . S
C662 C661 1.379 . S
H663 C657 0.959 . S
H664 C657 0.961 . S
H665 C657 0.960 . S
H666 C658 0.930 . S
H667 C659 0.929 . S
H668 C676 0.929 . S
H669 C678 0.930 1_655 S
H670 C680 0.930 . S
H671 C683 0.929 . S
H672 C686 0.930 . S
H673 C688 0.960 . S
H674 C688 0.957 1_455 S
H675 C688 0.960 1_455 S
C676 H668 0.929 . S
C676 C677 1.377 . S
C676 C678 1.384 . S
C677 C676 1.377 . S
C677 C683 1.390 . S
C678 H669 0.930 1_455 S
C678 C676 1.384 . S
C678 C679 1.372 . S
C679 C678 1.372 . S
C679 C680 1.400 . S
C679 C684 1.490 1_455 S
C680 H670 0.930 . S
C680 C679 1.400 . S
C680 C683 1.386 . S
H681 C697 0.930 . S
H682 C698 0.931 . S
C683 H671 0.929 . S
C683 C677 1.390 . S
C683 C680 1.386 . S
C684 C679 1.490 1_655 S
C684 C686 1.395 . S
C684 C687 1.403 . S
H685 C691 0.930 . S
C686 H672 0.930 . S
C686 C684 1.395 . S
C686 C689 1.403 . S
C687 C684 1.403 . S
C687 C688 1.524 . S
C687 C691 1.400 . S
C688 H673 0.960 . S
C688 H674 0.957 1_655 S
C688 H675 0.960 1_655 S
C688 C687 1.524 . S
C689 C686 1.403 . S
C689 C690 1.392 . S
C689 C693 1.495 . S
C690 C689 1.392 . S
C690 C691 1.385 . S
C690 C692 1.478 . S
C691 H685 0.930 . S
C691 C687 1.400 . S
C691 C690 1.385 . S
C692 C690 1.478 . S
C692 C694 1.381 . S
C692 C698 1.383 . S
C693 C689 1.495 . S
C693 H699 0.959 . S
C693 H700 0.961 . S
C693 H701 0.960 . S
C694 C692 1.381 . S
C694 C695 1.394 . S
C694 H702 0.930 . S
C695 C694 1.394 . S
C695 C696 1.383 . S
C695 H703 0.929 . S
C696 C695 1.383 . S
C696 C697 1.377 . S
C697 H681 0.930 . S
C697 C696 1.377 . S
C697 C698 1.379 . S
C698 H682 0.931 . S
C698 C692 1.383 . S
C698 C697 1.379 . S
H699 C693 0.959 . S
H700 C693 0.961 . S
H701 C693 0.960 . S
H702 C694 0.930 . S
H703 C695 0.929 . S
H704 C712 0.929 . S
H705 C714 0.930 . S
H706 C716 0.930 . S
H707 C719 0.929 . S
H708 C722 0.930 . S
H709 C724 0.960 . S
H710 C724 0.960 . S
H711 C724 0.960 . S
C712 H704 0.929 . S
C712 C713 1.377 . S
C712 C714 1.384 . S
C713 C712 1.377 . S
C713 C719 1.390 . S
C714 H705 0.930 . S
C714 C712 1.384 . S
C714 C715 1.372 . S
C715 C714 1.372 . S
C715 C716 1.400 . S
C715 C720 1.490 . S
C716 H706 0.930 . S
C716 C715 1.400 . S
C716 C719 1.386 . S
H717 C733 0.930 . S
H718 C734 0.931 . S
C719 H707 0.929 . S
C719 C713 1.390 . S
C719 C716 1.386 . S
C720 C715 1.490 . S
C720 C722 1.395 . S
C720 C723 1.403 . S
H721 C727 0.930 . S
C722 H708 0.930 . S
C722 C720 1.395 . S
C722 C725 1.403 . S
C723 C720 1.403 . S
C723 C724 1.524 . S
C723 C727 1.400 . S
C724 H709 0.960 . S
C724 H710 0.960 . S
C724 H711 0.960 . S
C724 C723 1.524 . S
C725 C722 1.403 . S
C725 C726 1.392 . S
C725 C729 1.495 . S
C726 C725 1.392 . S
C726 C727 1.385 . S
C726 C728 1.478 . S
C727 H721 0.930 . S
C727 C723 1.400 . S
C727 C726 1.385 . S
C728 C726 1.478 . S
C728 C730 1.381 . S
C728 C734 1.383 . S
C729 C725 1.495 . S
C729 H735 0.959 . S
C729 H736 0.961 . S
C729 H737 0.960 . S
C730 C728 1.381 . S
C730 C731 1.394 . S
C730 H738 0.930 . S
C731 C730 1.394 . S
C731 C732 1.383 . S
C731 H739 0.929 . S
C732 C731 1.383 . S
C732 C733 1.377 . S
C733 H717 0.930 . S
C733 C732 1.377 . S
C733 C734 1.379 . S
C734 H718 0.931 . S
C734 C728 1.383 . S
C734 C733 1.379 . S
H735 C729 0.959 . S
H736 C729 0.961 . S
H737 C729 0.960 . S
H738 C730 0.930 . S
H739 C731 0.929 . S
H740 C748 0.929 . S
H741 C750 0.930 . S
H742 C752 0.930 . S
H743 C755 0.929 . S
H744 C758 0.930 . S
H745 C760 0.960 . S
H746 C760 0.960 . S
H747 C760 0.960 . S
C748 H740 0.929 . S
C748 C749 1.377 . S
C748 C750 1.384 . S
C749 C748 1.377 . S
C749 C755 1.390 . S
C750 H741 0.930 . S
C750 C748 1.384 . S
C750 C751 1.372 . S
C751 C750 1.372 . S
C751 C752 1.400 . S
C751 C756 1.490 . S
C752 H742 0.930 . S
C752 C751 1.400 . S
C752 C755 1.386 . S
H753 C769 0.930 . S
H754 C770 0.946 . S
C755 H743 0.929 . S
C755 C749 1.390 . S
C755 C752 1.386 . S
C756 C751 1.490 . S
C756 C758 1.395 . S
C756 C759 1.403 . S
H757 C763 0.930 . S
C758 H744 0.930 . S
C758 C756 1.395 . S
C758 C761 1.403 . S
C759 C756 1.403 . S
C759 C760 1.524 . S
C759 C763 1.400 . S
C760 H745 0.960 . S
C760 H746 0.960 . S
C760 H747 0.960 . S
C760 C759 1.524 . S
C761 C758 1.403 . S
C761 C762 1.392 . S
C761 C765 1.495 . S
C762 C761 1.392 . S
C762 C763 1.385 . S
C762 C764 1.478 1_455 S
C763 H757 0.930 . S
C763 C759 1.400 . S
C763 C762 1.385 . S
C764 C762 1.478 1_655 S
C764 C766 1.381 . S
C764 C770 1.383 . S
C765 C761 1.495 . S
C765 H771 0.959 . S
C765 H772 0.961 . S
C765 H773 0.960 . S
C766 C764 1.381 . S
C766 C767 1.394 . S
C766 H774 0.930 . S
C767 C766 1.394 . S
C767 C768 1.383 . S
C767 H775 0.929 . S
C768 C767 1.383 . S
C768 C769 1.377 . S
C769 H753 0.930 . S
C769 C768 1.377 . S
C769 C770 1.379 . S
C770 H754 0.946 . S
C770 C764 1.383 . S
C770 C769 1.379 . S
H771 C765 0.959 . S
H772 C765 0.961 . S
H773 C765 0.960 . S
H774 C766 0.930 . S
H775 C767 0.929 . S
H776 C784 0.929 . S
H777 C786 0.930 . S
H778 C788 0.930 . S
H779 C791 0.929 . S
H780 C794 0.930 . S
H781 C796 0.960 . S
H782 C796 0.960 . S
H783 C796 0.960 . S
C784 H776 0.929 . S
C784 C785 1.377 . S
C784 C786 1.384 . S
C785 C784 1.377 . S
C785 C791 1.390 . S
C786 H777 0.930 . S
C786 C784 1.384 . S
C786 C787 1.372 . S
C787 C786 1.372 . S
C787 C788 1.400 . S
C787 C792 1.490 . S
C788 H778 0.930 . S
C788 C787 1.400 . S
C788 C791 1.386 . S
H789 C805 0.930 . S
H790 C806 0.931 . S
C791 H779 0.929 . S
C791 C785 1.390 . S
C791 C788 1.386 . S
C792 C787 1.490 . S
C792 C794 1.395 . S
C792 C795 1.403 . S
H793 C799 0.930 . S
C794 H780 0.930 . S
C794 C792 1.395 . S
C794 C797 1.403 . S
C795 C792 1.403 . S
C795 C796 1.524 . S
C795 C799 1.400 . S
C796 H781 0.960 . S
C796 H782 0.960 . S
C796 H783 0.960 . S
C796 C795 1.524 . S
C797 C794 1.403 . S
C797 C798 1.392 . S
C797 C801 1.495 . S
C798 C797 1.392 . S
C798 C799 1.385 . S
C798 C800 1.478 . S
C799 H793 0.930 . S
C799 C795 1.400 . S
C799 C798 1.385 . S
C800 C798 1.478 . S
C800 C802 1.381 . S
C800 C806 1.383 . S
C801 C797 1.495 . S
C801 H807 0.959 . S
C801 H808 0.961 . S
C801 H809 0.960 . S
C802 C800 1.381 . S
C802 C803 1.394 . S
C802 H810 0.930 . S
C803 C802 1.394 . S
C803 C804 1.383 . S
C803 H811 0.929 . S
C804 C803 1.383 . S
C804 C805 1.377 . S
C805 H789 0.930 . S
C805 C804 1.377 . S
C805 C806 1.379 . S
C806 H790 0.931 . S
C806 C800 1.383 . S
C806 C805 1.379 . S
H807 C801 0.959 . S
H808 C801 0.961 . S
H809 C801 0.960 . S
H810 C802 0.930 . S
H811 C803 0.929 . S
H812 C820 0.929 . S
H813 C822 0.930 . S
H814 C824 0.930 . S
H815 C827 0.929 . S
H816 C830 0.930 . S
H817 C832 0.960 . S
H818 C832 0.960 . S
H819 C832 0.960 . S
C820 H812 0.929 . S
C820 C821 1.377 . S
C820 C822 1.384 . S
C821 C820 1.377 . S
C821 C827 1.390 . S
C822 H813 0.930 . S
C822 C820 1.384 . S
C822 C823 1.372 . S
C823 C822 1.372 . S
C823 C824 1.400 . S
C823 C828 1.490 . S
C824 H814 0.930 . S
C824 C823 1.400 . S
C824 C827 1.386 . S
H825 C841 0.930 . S
H826 C842 0.931 . S
C827 H815 0.929 . S
C827 C821 1.390 . S
C827 C824 1.386 . S
C828 C823 1.490 . S
C828 C830 1.395 . S
C828 C831 1.403 . S
H829 C835 0.930 . S
C830 H816 0.930 . S
C830 C828 1.395 . S
C830 C833 1.403 . S
C831 C828 1.403 . S
C831 C832 1.524 . S
C831 C835 1.400 . S
C832 H817 0.960 . S
C832 H818 0.960 . S
C832 H819 0.960 . S
C832 C831 1.524 . S
C833 C830 1.403 . S
C833 C834 1.392 . S
C833 C837 1.495 . S
C834 C833 1.392 . S
C834 C835 1.385 . S
C834 C836 1.478 . S
C835 H829 0.930 . S
C835 C831 1.400 . S
C835 C834 1.385 . S
C836 C834 1.478 . S
C836 C838 1.381 . S
C836 C842 1.383 . S
C837 C833 1.495 . S
C837 H843 0.959 . S
C837 H844 0.961 . S
C837 H845 0.960 . S
C838 C836 1.381 . S
C838 C839 1.394 . S
C838 H846 0.930 . S
C839 C838 1.394 . S
C839 C840 1.383 . S
C839 H847 0.929 . S
C840 C839 1.383 . S
C840 C841 1.377 . S
C841 H825 0.930 . S
C841 C840 1.377 . S
C841 C842 1.379 . S
C842 H826 0.931 . S
C842 C836 1.383 . S
C842 C841 1.379 . S
H843 C837 0.959 . S
H844 C837 0.961 . S
H845 C837 0.960 . S
H846 C838 0.930 . S
H847 C839 0.929 . S
H848 C856 0.929 . S
H849 C858 0.930 . S
H850 C860 0.930 . S
H851 C863 0.929 . S
H852 C866 0.930 . S
H853 C868 0.960 . S
H854 C868 0.960 . S
H855 C868 0.960 . S
C856 H848 0.929 . S
C856 C857 1.377 . S
C856 C858 1.384 . S
C857 C856 1.377 . S
C857 C863 1.390 . S
C858 H849 0.930 . S
C858 C856 1.384 . S
C858 C859 1.372 . S
C859 C858 1.372 . S
C859 C860 1.400 . S
C859 C864 1.490 . S
C860 H850 0.930 . S
C860 C859 1.400 . S
C860 C863 1.386 . S
H861 C877 0.930 . S
H862 C878 0.931 . S
C863 H851 0.929 . S
C863 C857 1.390 . S
C863 C860 1.386 . S
C864 C859 1.490 . S
C864 C866 1.395 . S
C864 C867 1.403 . S
H865 C871 0.930 . S
C866 H852 0.930 . S
C866 C864 1.395 . S
C866 C869 1.403 . S
C867 C864 1.403 . S
C867 C868 1.524 . S
C867 C871 1.400 . S
C868 H853 0.960 . S
C868 H854 0.960 . S
C868 H855 0.960 . S
C868 C867 1.524 . S
C869 C866 1.403 . S
C869 C870 1.392 . S
C869 C873 1.495 . S
C870 C869 1.392 . S
C870 C871 1.385 . S
C870 C872 1.478 . S
C871 H865 0.930 . S
C871 C867 1.400 . S
C871 C870 1.385 . S
C872 C870 1.478 . S
C872 C874 1.381 . S
C872 C878 1.383 . S
C873 C869 1.495 . S
C873 H879 0.959 . S
C873 H880 0.961 . S
C873 H881 0.960 . S
C874 C872 1.381 . S
C874 C875 1.394 . S
C874 H882 0.930 . S
C875 C874 1.394 . S
C875 C876 1.383 . S
C875 H883 0.929 . S
C876 C875 1.383 . S
C876 C877 1.377 . S
C877 H861 0.930 . S
C877 C876 1.377 . S
C877 C878 1.379 . S
C878 H862 0.931 . S
C878 C872 1.383 . S
C878 C877 1.379 . S
H879 C873 0.959 . S
H880 C873 0.961 . S
H881 C873 0.960 . S
H882 C874 0.930 . S
H883 C875 0.929 . S
H884 C892 0.929 . S
H885 C894 0.930 . S
H886 C896 0.930 . S
H887 C899 0.929 . S
H888 C902 0.930 . S
H889 C904 0.960 . S
H890 C904 0.960 . S
H891 C904 0.960 . S
C892 H884 0.929 . S
C892 C893 1.377 . S
C892 C894 1.384 . S
C893 C892 1.377 . S
C893 C899 1.390 . S
C894 H885 0.930 . S
C894 C892 1.384 . S
C894 C895 1.372 . S
C895 C894 1.372 . S
C895 C896 1.400 . S
C895 C900 1.490 . S
C896 H886 0.930 . S
C896 C895 1.400 . S
C896 C899 1.386 . S
H897 C913 0.930 . S
H898 C914 0.931 . S
C899 H887 0.929 . S
C899 C893 1.390 . S
C899 C896 1.386 . S
C900 C895 1.490 . S
C900 C902 1.395 . S
C900 C903 1.403 . S
H901 C907 0.930 . S
C902 H888 0.930 . S
C902 C900 1.395 . S
C902 C905 1.403 . S
C903 C900 1.403 . S
C903 C904 1.524 . S
C903 C907 1.400 . S
C904 H889 0.960 . S
C904 H890 0.960 . S
C904 H891 0.960 . S
C904 C903 1.524 . S
C905 C902 1.403 . S
C905 C906 1.392 . S
C905 C909 1.495 . S
C906 C905 1.392 . S
C906 C907 1.385 . S
C906 C908 1.478 . S
C907 H901 0.930 . S
C907 C903 1.400 . S
C907 C906 1.385 . S
C908 C906 1.478 . S
C908 C910 1.381 . S
C908 C914 1.383 . S
C909 C905 1.495 . S
C909 H915 0.959 . S
C909 H916 0.961 . S
C909 H917 0.960 . S
C910 C908 1.381 . S
C910 C911 1.394 . S
C910 H918 0.930 . S
C911 C910 1.394 . S
C911 C912 1.383 . S
C911 H919 0.929 . S
C912 C911 1.383 . S
C912 C913 1.377 . S
C913 H897 0.930 . S
C913 C912 1.377 . S
C913 C914 1.379 . S
C914 H898 0.931 . S
C914 C908 1.383 . S
C914 C913 1.379 . S
H915 C909 0.959 . S
H916 C909 0.961 . S
H917 C909 0.960 . S
H918 C910 0.930 . S
H919 C911 0.929 . S
H920 C928 0.929 . S
H921 C930 0.930 . S
H922 C932 0.930 . S
H923 C935 0.929 . S
H924 C938 0.930 . S
H925 C940 0.960 . S
H926 C940 0.960 . S
H927 C940 0.960 . S
C928 H920 0.929 . S
C928 C929 1.377 . S
C928 C930 1.384 . S
C929 C928 1.377 . S
C929 C935 1.390 . S
C930 H921 0.930 . S
C930 C928 1.384 . S
C930 C931 1.372 . S
C931 C930 1.372 . S
C931 C932 1.400 . S
C931 C936 1.490 . S
C932 H922 0.930 . S
C932 C931 1.400 . S
C932 C935 1.386 . S
H933 C949 0.930 . S
H934 C950 0.931 . S
C935 H923 0.929 . S
C935 C929 1.390 . S
C935 C932 1.386 . S
C936 C931 1.490 . S
C936 C938 1.395 . S
C936 C939 1.403 . S
H937 C943 0.930 . S
C938 H924 0.930 . S
C938 C936 1.395 . S
C938 C941 1.403 . S
C939 C936 1.403 . S
C939 C940 1.524 . S
C939 C943 1.400 . S
C940 H925 0.960 . S
C940 H926 0.960 . S
C940 H927 0.960 . S
C940 C939 1.524 . S
C941 C938 1.403 . S
C941 C942 1.392 . S
C941 C945 1.495 . S
C942 C941 1.392 . S
C942 C943 1.385 . S
C942 C944 1.478 . S
C943 H937 0.930 . S
C943 C939 1.400 . S
C943 C942 1.385 . S
C944 C942 1.478 . S
C944 C946 1.381 . S
C944 C950 1.383 . S
C945 C941 1.495 . S
C945 H951 0.959 . S
C945 H952 0.961 . S
C945 H953 0.960 . S
C946 C944 1.381 . S
C946 C947 1.394 . S
C946 H954 0.930 . S
C947 C946 1.394 . S
C947 C948 1.383 . S
C947 H955 0.929 . S
C948 C947 1.383 . S
C948 C949 1.377 . S
C949 H933 0.930 . S
C949 C948 1.377 . S
C949 C950 1.379 . S
C950 H934 0.931 . S
C950 C944 1.383 . S
C950 C949 1.379 . S
H951 C945 0.959 . S
H952 C945 0.961 . S
H953 C945 0.960 . S
H954 C946 0.930 . S
H955 C947 0.929 . S
H956 C964 0.929 . S
H957 C966 0.930 . S
H958 C968 0.930 . S
H959 C971 0.929 . S
H960 C974 0.930 . S
H961 C976 0.960 . S
H962 C976 0.960 . S
H963 C976 0.960 . S
C964 H956 0.929 . S
C964 C965 1.377 . S
C964 C966 1.384 . S
C965 C964 1.377 . S
C965 C971 1.390 . S
C966 H957 0.930 . S
C966 C964 1.384 . S
C966 C967 1.372 . S
C967 C966 1.372 . S
C967 C968 1.400 . S
C967 C972 1.490 . S
C968 H958 0.930 . S
C968 C967 1.400 . S
C968 C971 1.386 . S
H969 C985 0.930 . S
H970 C986 0.931 . S
C971 H959 0.929 . S
C971 C965 1.390 . S
C971 C968 1.386 . S
C972 C967 1.490 . S
C972 C974 1.395 . S
C972 C975 1.403 . S
H973 C979 0.930 . S
C974 H960 0.930 . S
C974 C972 1.395 . S
C974 C977 1.403 . S
C975 C972 1.403 . S
C975 C976 1.524 . S
C975 C979 1.400 . S
C976 H961 0.960 . S
C976 H962 0.960 . S
C976 H963 0.960 . S
C976 C975 1.524 . S
C977 C974 1.403 . S
C977 C978 1.392 . S
C977 C981 1.495 . S
C978 C977 1.392 . S
C978 C979 1.385 . S
C978 C980 1.478 1_455 S
C979 H973 0.930 . S
C979 C975 1.400 . S
C979 C978 1.385 . S
C980 C978 1.478 1_655 S
C980 C982 1.381 . S
C980 C986 1.383 . S
C981 C977 1.495 . S
C981 H987 0.959 . S
C981 H988 0.961 . S
C981 H989 0.960 . S
C982 C980 1.381 . S
C982 C983 1.394 . S
C982 H990 0.930 . S
C983 C982 1.394 . S
C983 C984 1.383 . S
C983 H991 0.929 . S
C984 C983 1.383 . S
C984 C985 1.377 . S
C985 H969 0.930 . S
C985 C984 1.377 . S
C985 C986 1.379 . S
C986 H970 0.931 . S
C986 C980 1.383 . S
C986 C985 1.379 . S
H987 C981 0.959 . S
H988 C981 0.961 . S
H989 C981 0.960 . S
H990 C982 0.930 . S
H991 C983 0.929 . S
H992 C1000 0.929 . S
H993 C1002 0.930 . S
H994 C1004 0.930 . S
H995 C1007 0.929 . S
H996 C1010 0.930 . S
H997 C1012 0.960 . S
H998 C1012 0.960 . S
H999 C1012 0.960 . S
C1000 H992 0.929 . S
C1000 C1001 1.377 . S
C1000 C1002 1.384 . S
C1001 C1000 1.377 . S
C1001 C1007 1.390 . S
C1002 H993 0.930 . S
C1002 C1000 1.384 . S
C1002 C1003 1.372 . S
C1003 C1002 1.372 . S
C1003 C1004 1.400 . S
C1003 C1008 1.490 . S
C1004 H994 0.930 . S
C1004 C1003 1.400 . S
C1004 C1007 1.386 . S
H1005 C1021 0.930 . S
H1006 C1022 0.931 . S
C1007 H995 0.929 . S
C1007 C1001 1.390 . S
C1007 C1004 1.386 . S
C1008 C1003 1.490 . S
C1008 C1010 1.395 . S
C1008 C1011 1.403 . S
H1009 C1015 0.930 . S
C1010 H996 0.930 . S
C1010 C1008 1.395 . S
C1010 C1013 1.403 . S
C1011 C1008 1.403 . S
C1011 C1012 1.524 . S
C1011 C1015 1.400 . S
C1012 H997 0.960 . S
C1012 H998 0.960 . S
C1012 H999 0.960 . S
C1012 C1011 1.524 . S
C1013 C1010 1.403 . S
C1013 C1014 1.392 . S
C1013 C1017 1.495 . S
C1014 C1013 1.392 . S
C1014 C1015 1.385 . S
C1014 C1016 1.478 . S
C1015 H1009 0.930 . S
C1015 C1011 1.400 . S
C1015 C1014 1.385 . S
C1016 C1014 1.478 . S
C1016 C1018 1.381 . S
C1016 C1022 1.383 . S
C1017 C1013 1.495 . S
C1017 H1023 0.959 . S
C1017 H1024 0.961 . S
C1017 H1025 0.960 . S
C1018 C1016 1.381 . S
C1018 C1019 1.394 . S
C1018 H1026 0.930 . S
C1019 C1018 1.394 . S
C1019 C1020 1.383 . S
C1019 H1027 0.929 . S
C1020 C1019 1.383 . S
C1020 C1021 1.377 . S
C1021 H1005 0.930 . S
C1021 C1020 1.377 . S
C1021 C1022 1.379 . S
C1022 H1006 0.931 . S
C1022 C1016 1.383 . S
C1022 C1021 1.379 . S
H1023 C1017 0.959 . S
H1024 C1017 0.961 . S
H1025 C1017 0.960 . S
H1026 C1018 0.930 . S
H1027 C1019 0.929 . S
H1028 C1036 0.929 . S
H1029 C1038 0.930 . S
H1030 C1040 0.930 . S
H1031 C1043 0.929 . S
H1032 C1046 0.930 . S
H1033 C1048 0.960 . S
H1034 C1048 0.960 . S
H1035 C1048 0.960 . S
C1036 H1028 0.929 . S
C1036 C1037 1.377 . S
C1036 C1038 1.384 . S
C1037 C1036 1.377 . S
C1037 C1043 1.390 . S
C1038 H1029 0.930 . S
C1038 C1036 1.384 . S
C1038 C1039 1.372 . S
C1039 C1038 1.372 . S
C1039 C1040 1.400 . S
C1039 C1044 1.490 . S
C1040 H1030 0.930 . S
C1040 C1039 1.400 . S
C1040 C1043 1.386 . S
H1041 C1057 0.930 . S
H1042 C1058 0.931 . S
C1043 H1031 0.929 . S
C1043 C1037 1.390 . S
C1043 C1040 1.386 . S
C1044 C1039 1.490 . S
C1044 C1046 1.395 . S
C1044 C1047 1.403 . S
H1045 C1051 0.930 . S
C1046 H1032 0.930 . S
C1046 C1044 1.395 . S
C1046 C1049 1.403 . S
C1047 C1044 1.403 . S
C1047 C1048 1.524 . S
C1047 C1051 1.400 . S
C1048 H1033 0.960 . S
C1048 H1034 0.960 . S
C1048 H1035 0.960 . S
C1048 C1047 1.524 . S
C1049 C1046 1.403 . S
C1049 C1050 1.392 . S
C1049 C1053 1.495 . S
C1050 C1049 1.392 . S
C1050 C1051 1.385 . S
C1050 C1052 1.478 . S
C1051 H1045 0.930 . S
C1051 C1047 1.400 . S
C1051 C1050 1.385 . S
C1052 C1050 1.478 . S
C1052 C1054 1.381 . S
C1052 C1058 1.383 . S
C1053 C1049 1.495 . S
C1053 H1059 0.959 . S
C1053 H1060 0.961 . S
C1053 H1061 0.960 . S
C1054 C1052 1.381 . S
C1054 C1055 1.394 . S
C1054 H1062 0.930 . S
C1055 C1054 1.394 . S
C1055 C1056 1.383 . S
C1055 H1063 0.929 . S
C1056 C1055 1.383 . S
C1056 C1057 1.377 . S
C1057 H1041 0.930 . S
C1057 C1056 1.377 . S
C1057 C1058 1.379 . S
C1058 H1042 0.931 . S
C1058 C1052 1.383 . S
C1058 C1057 1.379 . S
H1059 C1053 0.959 . S
H1060 C1053 0.961 . S
H1061 C1053 0.960 . S
H1062 C1054 0.930 . S
H1063 C1055 0.929 . S
H1064 C1072 0.929 . S
H1065 C1074 0.930 . S
H1066 C1076 0.930 . S
H1067 C1079 0.929 . S
H1068 C1082 0.930 . S
H1069 C1084 0.960 . S
H1070 C1084 0.960 . S
H1071 C1084 0.960 . S
C1072 H1064 0.929 . S
C1072 C1073 1.377 . S
C1072 C1074 1.384 . S
C1073 C1072 1.377 . S
C1073 C1079 1.390 . S
C1074 H1065 0.930 . S
C1074 C1072 1.384 . S
C1074 C1075 1.372 . S
C1075 C1074 1.372 . S
C1075 C1076 1.400 . S
C1075 C1080 1.490 . S
C1076 H1066 0.930 . S
C1076 C1075 1.400 . S
C1076 C1079 1.386 . S
H1077 C1093 0.930 . S
H1078 C1094 0.931 . S
C1079 H1067 0.929 . S
C1079 C1073 1.390 . S
C1079 C1076 1.386 . S
C1080 C1075 1.490 . S
C1080 C1082 1.395 . S
C1080 C1083 1.403 . S
H1081 C1087 0.930 . S
C1082 H1068 0.930 . S
C1082 C1080 1.395 . S
C1082 C1085 1.403 . S
C1083 C1080 1.403 . S
C1083 C1084 1.524 . S
C1083 C1087 1.400 . S
C1084 H1069 0.960 . S
C1084 H1070 0.960 . S
C1084 H1071 0.960 . S
C1084 C1083 1.524 . S
C1085 C1082 1.403 . S
C1085 C1086 1.392 . S
C1085 C1089 1.495 . S
C1086 C1085 1.392 . S
C1086 C1087 1.385 . S
C1086 C1088 1.478 . S
C1087 H1081 0.930 . S
C1087 C1083 1.400 . S
C1087 C1086 1.385 . S
C1088 C1086 1.478 . S
C1088 C1090 1.381 . S
C1088 C1094 1.383 . S
C1089 C1085 1.495 . S
C1089 H1095 0.959 . S
C1089 H1096 0.961 . S
C1089 H1097 0.960 . S
C1090 C1088 1.381 . S
C1090 C1091 1.394 . S
C1090 H1098 0.930 . S
C1091 C1090 1.394 . S
C1091 C1092 1.383 . S
C1091 H1099 0.929 . S
C1092 C1091 1.383 . S
C1092 C1093 1.377 . S
C1093 H1077 0.930 . S
C1093 C1092 1.377 . S
C1093 C1094 1.379 . S
C1094 H1078 0.931 . S
C1094 C1088 1.383 . S
C1094 C1093 1.379 . S
H1095 C1089 0.959 . S
H1096 C1089 0.961 . S
H1097 C1089 0.960 . S
H1098 C1090 0.930 . S
H1099 C1091 0.929 . S
H1100 C1108 0.929 . S
H1101 C1110 0.930 . S
H1102 C1112 0.930 . S
H1103 C1115 0.929 . S
H1104 C1118 0.930 . S
H1105 C1120 0.960 . S
H1106 C1120 0.960 . S
H1107 C1120 0.960 . S
C1108 H1100 0.929 . S
C1108 C1109 1.377 . S
C1108 C1110 1.384 . S
C1109 C1108 1.377 . S
C1109 C1115 1.390 . S
C1110 H1101 0.930 . S
C1110 C1108 1.384 . S
C1110 C1111 1.372 . S
C1111 C1110 1.372 . S
C1111 C1112 1.400 . S
C1111 C1116 1.490 . S
C1112 H1102 0.930 . S
C1112 C1111 1.400 . S
C1112 C1115 1.386 . S
H1113 C1129 0.930 . S
H1114 C1130 0.931 . S
C1115 H1103 0.929 . S
C1115 C1109 1.390 . S
C1115 C1112 1.386 . S
C1116 C1111 1.490 . S
C1116 C1118 1.395 . S
C1116 C1119 1.403 . S
H1117 C1123 0.930 . S
C1118 H1104 0.930 . S
C1118 C1116 1.395 . S
C1118 C1121 1.403 . S
C1119 C1116 1.403 . S
C1119 C1120 1.524 . S
C1119 C1123 1.400 . S
C1120 H1105 0.960 . S
C1120 H1106 0.960 . S
C1120 H1107 0.960 . S
C1120 C1119 1.524 . S
C1121 C1118 1.403 . S
C1121 C1122 1.392 . S
C1121 C1125 1.495 . S
C1122 C1121 1.392 . S
C1122 C1123 1.385 . S
C1122 C1124 1.478 1_455 S
C1123 H1117 0.930 . S
C1123 C1119 1.400 . S
C1123 C1122 1.385 . S
C1124 C1122 1.478 1_655 S
C1124 C1126 1.381 . S
C1124 C1130 1.383 . S
C1125 C1121 1.495 . S
C1125 H1131 0.959 . S
C1125 H1132 0.961 . S
C1125 H1133 0.960 . S
C1126 C1124 1.381 . S
C1126 C1127 1.394 . S
C1126 H1134 0.930 1_655 S
C1127 C1126 1.394 . S
C1127 C1128 1.383 . S
C1127 H1135 0.929 . S
C1128 C1127 1.383 . S
C1128 C1129 1.377 . S
C1129 H1113 0.930 . S
C1129 C1128 1.377 . S
C1129 C1130 1.379 . S
C1130 H1114 0.931 . S
C1130 C1124 1.383 . S
C1130 C1129 1.379 . S
H1131 C1125 0.959 . S
H1132 C1125 0.961 . S
H1133 C1125 0.960 . S
H1134 C1126 0.930 1_455 S
H1135 C1127 0.929 . S
H1136 C1144 0.929 . S
H1137 C1146 0.930 . S
H1138 C1148 0.930 . S
H1139 C1151 0.929 . S
H1140 C1154 0.930 . S
H1141 C1156 0.960 . S
H1142 C1156 0.960 . S
H1143 C1156 0.960 . S
C1144 H1136 0.929 . S
C1144 C1145 1.377 . S
C1144 C1146 1.384 . S
C1145 C1144 1.377 . S
C1145 C1151 1.390 . S
C1146 H1137 0.930 . S
C1146 C1144 1.384 . S
C1146 C1147 1.372 . S
C1147 C1146 1.372 . S
C1147 C1148 1.400 . S
C1147 C1152 1.490 . S
C1148 H1138 0.930 . S
C1148 C1147 1.400 . S
C1148 C1151 1.386 . S
H1149 C1165 0.930 . S
H1150 C1166 0.931 . S
C1151 H1139 0.929 . S
C1151 C1145 1.390 . S
C1151 C1148 1.386 . S
C1152 C1147 1.490 . S
C1152 C1154 1.395 . S
C1152 C1155 1.403 . S
H1153 C1159 0.930 . S
C1154 H1140 0.930 . S
C1154 C1152 1.395 . S
C1154 C1157 1.403 . S
C1155 C1152 1.403 . S
C1155 C1156 1.524 . S
C1155 C1159 1.400 . S
C1156 H1141 0.960 . S
C1156 H1142 0.960 . S
C1156 H1143 0.960 . S
C1156 C1155 1.524 . S
C1157 C1154 1.403 . S
C1157 C1158 1.392 . S
C1157 C1161 1.495 . S
C1158 C1157 1.392 . S
C1158 C1159 1.385 . S
C1158 C1160 1.478 . S
C1159 H1153 0.930 . S
C1159 C1155 1.400 . S
C1159 C1158 1.385 . S
C1160 C1158 1.478 . S
C1160 C1162 1.381 . S
C1160 C1166 1.383 . S
C1161 C1157 1.495 . S
C1161 H1167 0.959 . S
C1161 H1168 0.961 . S
C1161 H1169 0.960 . S
C1162 C1160 1.381 . S
C1162 C1163 1.394 . S
C1162 H1170 0.930 . S
C1163 C1162 1.394 . S
C1163 C1164 1.383 . S
C1163 H1171 0.929 . S
C1164 C1163 1.383 . S
C1164 C1165 1.377 . S
C1165 H1149 0.930 . S
C1165 C1164 1.377 . S
C1165 C1166 1.379 . S
C1166 H1150 0.931 . S
C1166 C1160 1.383 . S
C1166 C1165 1.379 . S
H1167 C1161 0.959 . S
H1168 C1161 0.961 . S
H1169 C1161 0.960 . S
H1170 C1162 0.930 . S
H1171 C1163 0.929 . S
H1172 C1180 0.929 . S
H1173 C1182 0.930 . S
H1174 C1184 0.930 . S
H1175 C1187 0.929 . S
H1176 C1190 0.930 . S
H1177 C1192 0.960 . S
H1178 C1192 0.960 . S
H1179 C1192 0.960 . S
C1180 H1172 0.929 . S
C1180 C1181 1.377 . S
C1180 C1182 1.384 . S
C1181 C1180 1.377 . S
C1181 C1187 1.390 . S
C1182 H1173 0.930 . S
C1182 C1180 1.384 . S
C1182 C1183 1.372 . S
C1183 C1182 1.372 . S
C1183 C1184 1.400 . S
C1183 C1188 1.490 . S
C1184 H1174 0.930 . S
C1184 C1183 1.400 . S
C1184 C1187 1.386 . S
H1185 C1201 0.930 . S
H1186 C1202 0.931 . S
C1187 H1175 0.929 . S
C1187 C1181 1.390 . S
C1187 C1184 1.386 . S
C1188 C1183 1.490 . S
C1188 C1190 1.395 . S
C1188 C1191 1.403 . S
H1189 C1195 0.930 . S
C1190 H1176 0.930 . S
C1190 C1188 1.395 . S
C1190 C1193 1.403 . S
C1191 C1188 1.403 . S
C1191 C1192 1.524 . S
C1191 C1195 1.400 . S
C1192 H1177 0.960 . S
C1192 H1178 0.960 . S
C1192 H1179 0.960 . S
C1192 C1191 1.524 . S
C1193 C1190 1.403 . S
C1193 C1194 1.392 . S
C1193 C1197 1.495 . S
C1194 C1193 1.392 . S
C1194 C1195 1.385 . S
C1194 C1196 1.478 1_455 S
C1195 H1189 0.930 . S
C1195 C1191 1.400 . S
C1195 C1194 1.385 . S
C1196 C1194 1.478 1_655 S
C1196 C1198 1.381 . S
C1196 C1202 1.383 . S
C1197 C1193 1.495 . S
C1197 H1203 0.959 . S
C1197 H1204 0.961 . S
C1197 H1205 0.960 . S
C1198 C1196 1.381 . S
C1198 C1199 1.394 . S
C1198 H1206 0.930 . S
C1199 C1198 1.394 . S
C1199 C1200 1.383 . S
C1199 H1207 0.929 . S
C1200 C1199 1.383 . S
C1200 C1201 1.377 . S
C1201 H1185 0.930 . S
C1201 C1200 1.377 . S
C1201 C1202 1.379 . S
C1202 H1186 0.931 . S
C1202 C1196 1.383 . S
C1202 C1201 1.379 . S
H1203 C1197 0.959 . S
H1204 C1197 0.961 . S
H1205 C1197 0.960 . S
H1206 C1198 0.930 . S
H1207 C1199 0.929 . S
H1208 C1216 0.929 . S
H1209 C1218 0.930 . S
H1210 C1220 0.930 . S
H1211 C1223 0.929 . S
H1212 C1226 0.930 . S
H1213 C1228 0.960 . S
H1214 C1228 0.960 . S
H1215 C1228 0.960 . S
C1216 H1208 0.929 . S
C1216 C1217 1.377 . S
C1216 C1218 1.384 . S
C1217 C1216 1.377 . S
C1217 C1223 1.390 . S
C1218 H1209 0.930 . S
C1218 C1216 1.384 . S
C1218 C1219 1.372 . S
C1219 C1218 1.372 . S
C1219 C1220 1.400 . S
C1219 C1224 1.490 . S
C1220 H1210 0.930 . S
C1220 C1219 1.400 . S
C1220 C1223 1.386 . S
H1221 C1237 0.930 . S
H1222 C1238 0.931 . S
C1223 H1211 0.929 . S
C1223 C1217 1.390 . S
C1223 C1220 1.386 . S
C1224 C1219 1.490 . S
C1224 C1226 1.395 . S
C1224 C1227 1.403 . S
H1225 C1231 0.930 . S
C1226 H1212 0.930 . S
C1226 C1224 1.395 . S
C1226 C1229 1.403 . S
C1227 C1224 1.403 . S
C1227 C1228 1.524 . S
C1227 C1231 1.400 . S
C1228 H1213 0.960 . S
C1228 H1214 0.960 . S
C1228 H1215 0.960 . S
C1228 C1227 1.524 . S
C1229 C1226 1.403 . S
C1229 C1230 1.392 . S
C1229 C1233 1.495 . S
C1230 C1229 1.392 . S
C1230 C1231 1.385 . S
C1230 C1232 1.478 . S
C1231 H1225 0.930 . S
C1231 C1227 1.400 . S
C1231 C1230 1.385 . S
C1232 C1230 1.478 . S
C1232 C1234 1.381 . S
C1232 C1238 1.383 . S
C1233 C1229 1.495 . S
C1233 H1239 0.959 . S
C1233 H1240 0.961 . S
C1233 H1241 0.960 . S
C1234 C1232 1.381 . S
C1234 C1235 1.394 . S
C1234 H1242 0.930 . S
C1235 C1234 1.394 . S
C1235 C1236 1.383 . S
C1235 H1243 0.929 . S
C1236 C1235 1.383 . S
C1236 C1237 1.377 . S
C1237 H1221 0.930 . S
C1237 C1236 1.377 . S
C1237 C1238 1.379 . S
C1238 H1222 0.931 . S
C1238 C1232 1.383 . S
C1238 C1237 1.379 . S
H1239 C1233 0.959 . S
H1240 C1233 0.961 . S
H1241 C1233 0.960 . S
H1242 C1234 0.930 . S
H1243 C1235 0.929 . S
H1244 C1252 0.929 . S
H1245 C1254 0.930 . S
H1246 C1256 0.930 . S
H1247 C1259 0.929 . S
H1248 C1262 0.930 . S
H1249 C1264 0.960 . S
H1250 C1264 0.960 . S
H1251 C1264 0.960 . S
C1252 H1244 0.929 . S
C1252 C1253 1.377 . S
C1252 C1254 1.384 . S
C1253 C1252 1.377 . S
C1253 C1259 1.390 . S
C1254 H1245 0.930 . S
C1254 C1252 1.384 . S
C1254 C1255 1.372 . S
C1255 C1254 1.372 . S
C1255 C1256 1.400 . S
C1255 C1260 1.490 . S
C1256 H1246 0.930 . S
C1256 C1255 1.400 . S
C1256 C1259 1.386 . S
H1257 C1273 0.930 . S
H1258 C1274 0.931 . S
C1259 H1247 0.929 . S
C1259 C1253 1.390 . S
C1259 C1256 1.386 . S
C1260 C1255 1.490 . S
C1260 C1262 1.395 . S
C1260 C1263 1.403 . S
H1261 C1267 0.930 . S
C1262 H1248 0.930 . S
C1262 C1260 1.395 . S
C1262 C1265 1.403 . S
C1263 C1260 1.403 . S
C1263 C1264 1.524 . S
C1263 C1267 1.400 . S
C1264 H1249 0.960 . S
C1264 H1250 0.960 . S
C1264 H1251 0.960 . S
C1264 C1263 1.524 . S
C1265 C1262 1.403 . S
C1265 C1266 1.392 . S
C1265 C1269 1.495 . S
C1266 C1265 1.392 . S
C1266 C1267 1.385 . S
C1266 C1268 1.478 . S
C1267 H1261 0.930 . S
C1267 C1263 1.400 . S
C1267 C1266 1.385 . S
C1268 C1266 1.478 . S
C1268 C1270 1.381 . S
C1268 C1274 1.383 . S
C1269 C1265 1.495 . S
C1269 H1275 0.959 . S
C1269 H1276 0.961 . S
C1269 H1277 0.960 . S
C1270 C1268 1.381 . S
C1270 C1271 1.394 . S
C1270 H1278 0.930 . S
C1271 C1270 1.394 . S
C1271 C1272 1.383 . S
C1271 H1279 0.929 . S
C1272 C1271 1.383 . S
C1272 C1273 1.377 . S
C1273 H1257 0.930 . S
C1273 C1272 1.377 . S
C1273 C1274 1.379 . S
C1274 H1258 0.931 . S
C1274 C1268 1.383 . S
C1274 C1273 1.379 . S
H1275 C1269 0.959 . S
H1276 C1269 0.961 . S
H1277 C1269 0.960 . S
H1278 C1270 0.930 . S
H1279 C1271 0.929 . S
H1280 C1288 0.929 . S
H1281 C1290 0.930 . S
H1282 C1292 0.930 . S
H1283 C1295 0.929 . S
H1284 C1298 0.930 . S
H1285 C1300 0.960 . S
H1286 C1300 0.960 . S
H1287 C1300 0.960 . S
C1288 H1280 0.929 . S
C1288 C1289 1.377 . S
C1288 C1290 1.384 . S
C1289 C1288 1.377 . S
C1289 C1295 1.390 . S
C1290 H1281 0.930 . S
C1290 C1288 1.384 . S
C1290 C1291 1.372 . S
C1291 C1290 1.372 . S
C1291 C1292 1.400 . S
C1291 C1296 1.490 . S
C1292 H1282 0.930 . S
C1292 C1291 1.400 . S
C1292 C1295 1.386 . S
H1293 C1309 0.930 . S
H1294 C1310 0.931 . S
C1295 H1283 0.929 . S
C1295 C1289 1.390 . S
C1295 C1292 1.386 . S
C1296 C1291 1.490 . S
C1296 C1298 1.395 . S
C1296 C1299 1.403 . S
H1297 C1303 0.930 . S
C1298 H1284 0.930 . S
C1298 C1296 1.395 . S
C1298 C1301 1.403 . S
C1299 C1296 1.403 . S
C1299 C1300 1.524 . S
C1299 C1303 1.400 . S
C1300 H1285 0.960 . S
C1300 H1286 0.960 . S
C1300 H1287 0.960 . S
C1300 C1299 1.524 . S
C1301 C1298 1.403 . S
C1301 C1302 1.392 . S
C1301 C1305 1.495 . S
C1302 C1301 1.392 . S
C1302 C1303 1.385 . S
C1302 C1304 1.478 . S
C1303 H1297 0.930 . S
C1303 C1299 1.400 . S
C1303 C1302 1.385 . S
C1304 C1302 1.478 . S
C1304 C1306 1.381 . S
C1304 C1310 1.383 . S
C1305 C1301 1.495 . S
C1305 H1311 0.959 . S
C1305 H1312 0.961 . S
C1305 H1313 0.960 . S
C1306 C1304 1.381 . S
C1306 C1307 1.394 . S
C1306 H1314 0.930 . S
C1307 C1306 1.394 . S
C1307 C1308 1.383 . S
C1307 H1315 0.929 . S
C1308 C1307 1.383 . S
C1308 C1309 1.377 . S
C1309 H1293 0.930 . S
C1309 C1308 1.377 . S
C1309 C1310 1.379 . S
C1310 H1294 0.931 . S
C1310 C1304 1.383 . S
C1310 C1309 1.379 . S
H1311 C1305 0.959 . S
H1312 C1305 0.961 . S
H1313 C1305 0.960 . S
H1314 C1306 0.930 . S
H1315 C1307 0.929 . S
H1316 C1324 0.929 . S
H1317 C1326 0.930 . S
H1318 C1328 0.930 . S
H1319 C1331 0.929 . S
H1320 C1334 0.930 . S
H1321 C1336 0.960 . S
H1322 C1336 0.960 . S
H1323 C1336 0.960 . S
C1324 H1316 0.929 . S
C1324 C1325 1.377 . S
C1324 C1326 1.384 . S
C1325 C1324 1.377 . S
C1325 C1331 1.390 . S
C1326 H1317 0.930 . S
C1326 C1324 1.384 . S
C1326 C1327 1.372 . S
C1327 C1326 1.372 . S
C1327 C1328 1.400 . S
C1327 C1332 1.490 . S
C1328 H1318 0.930 . S
C1328 C1327 1.400 . S
C1328 C1331 1.386 . S
H1329 C1345 0.930 . S
H1330 C1346 0.931 . S
C1331 H1319 0.929 . S
C1331 C1325 1.390 . S
C1331 C1328 1.386 . S
C1332 C1327 1.490 . S
C1332 C1334 1.395 . S
C1332 C1335 1.403 . S
H1333 C1339 0.930 . S
C1334 H1320 0.930 . S
C1334 C1332 1.395 . S
C1334 C1337 1.403 . S
C1335 C1332 1.403 . S
C1335 C1336 1.524 . S
C1335 C1339 1.400 . S
C1336 H1321 0.960 . S
C1336 H1322 0.960 . S
C1336 H1323 0.960 . S
C1336 C1335 1.524 . S
C1337 C1334 1.403 . S
C1337 C1338 1.392 . S
C1337 C1341 1.495 . S
C1338 C1337 1.392 . S
C1338 C1339 1.385 . S
C1338 C1340 1.478 . S
C1339 H1333 0.930 . S
C1339 C1335 1.400 . S
C1339 C1338 1.385 . S
C1340 C1338 1.478 . S
C1340 C1342 1.381 . S
C1340 C1346 1.383 . S
C1341 C1337 1.495 . S
C1341 H1347 0.959 . S
C1341 H1348 0.961 . S
C1341 H1349 0.960 . S
C1342 C1340 1.381 . S
C1342 C1343 1.394 . S
C1342 H1350 0.930 . S
C1343 C1342 1.394 . S
C1343 C1344 1.383 . S
C1343 H1351 0.929 . S
C1344 C1343 1.383 . S
C1344 C1345 1.377 . S
C1345 H1329 0.930 . S
C1345 C1344 1.377 . S
C1345 C1346 1.379 . S
C1346 H1330 0.931 . S
C1346 C1340 1.383 . S
C1346 C1345 1.379 . S
H1347 C1341 0.959 . S
H1348 C1341 0.961 . S
H1349 C1341 0.960 . S
H1350 C1342 0.930 . S
H1351 C1343 0.929 . S
H1352 C1360 0.929 . S
H1353 C1362 0.930 . S
H1354 C1364 0.930 . S
H1355 C1367 0.929 . S
H1356 C1370 0.930 . S
H1357 C1372 0.960 . S
H1358 C1372 0.960 . S
H1359 C1372 0.960 . S
C1360 H1352 0.929 . S
C1360 C1361 1.377 . S
C1360 C1362 1.384 . S
C1361 C1360 1.377 . S
C1361 C1367 1.390 . S
C1362 H1353 0.930 . S
C1362 C1360 1.384 . S
C1362 C1363 1.372 . S
C1363 C1362 1.372 . S
C1363 C1364 1.400 . S
C1363 C1368 1.490 . S
C1364 H1354 0.930 . S
C1364 C1363 1.400 . S
C1364 C1367 1.386 . S
H1365 C1381 0.930 . S
H1366 C1382 0.931 . S
C1367 H1355 0.929 . S
C1367 C1361 1.390 . S
C1367 C1364 1.386 . S
C1368 C1363 1.490 . S
C1368 C1370 1.395 . S
C1368 C1371 1.403 . S
H1369 C1375 0.930 . S
C1370 H1356 0.930 . S
C1370 C1368 1.395 . S
C1370 C1373 1.403 . S
C1371 C1368 1.403 . S
C1371 C1372 1.524 . S
C1371 C1375 1.400 . S
C1372 H1357 0.960 . S
C1372 H1358 0.960 . S
C1372 H1359 0.960 . S
C1372 C1371 1.524 . S
C1373 C1370 1.403 . S
C1373 C1374 1.392 . S
C1373 C1377 1.495 . S
C1374 C1373 1.392 . S
C1374 C1375 1.385 . S
C1374 C1376 1.478 . S
C1375 H1369 0.930 . S
C1375 C1371 1.400 . S
C1375 C1374 1.385 . S
C1376 C1374 1.478 . S
C1376 C1378 1.381 . S
C1376 C1382 1.383 . S
C1377 C1373 1.495 . S
C1377 H1383 0.959 . S
C1377 H1384 0.961 . S
C1377 H1385 0.960 . S
C1378 C1376 1.381 . S
C1378 C1379 1.394 . S
C1378 H1386 0.930 . S
C1379 C1378 1.394 . S
C1379 C1380 1.383 . S
C1379 H1387 0.929 . S
C1380 C1379 1.383 . S
C1380 C1381 1.377 . S
C1381 H1365 0.930 . S
C1381 C1380 1.377 . S
C1381 C1382 1.379 . S
C1382 H1366 0.931 . S
C1382 C1376 1.383 . S
C1382 C1381 1.379 . S
H1383 C1377 0.959 . S
H1384 C1377 0.961 . S
H1385 C1377 0.960 . S
H1386 C1378 0.930 . S
H1387 C1379 0.929 . S
H1388 C1396 0.929 . S
H1389 C1398 0.930 1_655 S
H1390 C1400 0.930 . S
H1391 C1403 0.929 . S
H1392 C1406 0.930 . S
H1393 C1408 0.960 . S
H1394 C1408 0.960 . S
H1395 C1408 0.960 . S
C1396 H1388 0.929 . S
C1396 C1397 1.377 . S
C1396 C1398 1.384 . S
C1397 C1396 1.377 . S
C1397 C1403 1.390 . S
C1398 H1389 0.930 1_455 S
C1398 C1396 1.384 . S
C1398 C1399 1.372 . S
C1399 C1398 1.372 . S
C1399 C1400 1.400 . S
C1399 C1404 1.490 1_455 S
C1400 H1390 0.930 . S
C1400 C1399 1.400 . S
C1400 C1403 1.386 . S
H1401 C1417 0.930 . S
H1402 C1418 0.931 . S
C1403 H1391 0.929 . S
C1403 C1397 1.390 . S
C1403 C1400 1.386 . S
C1404 C1399 1.490 1_655 S
C1404 C1406 1.395 . S
C1404 C1407 1.403 . S
H1405 C1411 0.930 . S
C1406 H1392 0.930 . S
C1406 C1404 1.395 . S
C1406 C1409 1.403 . S
C1407 C1404 1.403 . S
C1407 C1408 1.524 . S
C1407 C1411 1.400 . S
C1408 H1393 0.960 . S
C1408 H1394 0.960 . S
C1408 H1395 0.960 . S
C1408 C1407 1.524 . S
C1409 C1406 1.403 . S
C1409 C1410 1.392 . S
C1409 C1413 1.495 . S
C1410 C1409 1.392 . S
C1410 C1411 1.385 . S
C1410 C1412 1.478 . S
C1411 H1405 0.930 . S
C1411 C1407 1.400 . S
C1411 C1410 1.385 . S
C1412 C1410 1.478 . S
C1412 C1414 1.381 . S
C1412 C1418 1.383 . S
C1413 C1409 1.495 . S
C1413 H1419 0.959 . S
C1413 H1420 0.961 . S
C1413 H1421 0.960 . S
C1414 C1412 1.381 . S
C1414 C1415 1.394 . S
C1414 H1422 0.930 . S
C1415 C1414 1.394 . S
C1415 C1416 1.383 . S
C1415 H1423 0.929 . S
C1416 C1415 1.383 . S
C1416 C1417 1.377 . S
C1417 H1401 0.930 . S
C1417 C1416 1.377 . S
C1417 C1418 1.379 . S
C1418 H1402 0.931 . S
C1418 C1412 1.383 . S
C1418 C1417 1.379 . S
H1419 C1413 0.959 . S
H1420 C1413 0.961 . S
H1421 C1413 0.960 . S
H1422 C1414 0.930 . S
H1423 C1415 0.929 . S
H1424 C1432 0.929 . S
H1425 C1434 0.930 . S
H1426 C1436 0.930 . S
H1427 C1439 0.929 . S
H1428 C1442 0.930 . S
H1429 C1444 0.960 . S
H1430 C1444 0.960 . S
H1431 C1444 0.960 . S
C1432 H1424 0.929 . S
C1432 C1433 1.377 . S
C1432 C1434 1.384 . S
C1433 C1432 1.377 . S
C1433 C1439 1.390 . S
C1434 H1425 0.930 . S
C1434 C1432 1.384 . S
C1434 C1435 1.372 . S
C1435 C1434 1.372 . S
C1435 C1436 1.400 . S
C1435 C1440 1.490 . S
C1436 H1426 0.930 . S
C1436 C1435 1.400 . S
C1436 C1439 1.386 . S
H1437 C1453 0.930 . S
H1438 C1454 0.931 . S
C1439 H1427 0.929 . S
C1439 C1433 1.390 . S
C1439 C1436 1.386 . S
C1440 C1435 1.490 . S
C1440 C1442 1.395 . S
C1440 C1443 1.403 . S
H1441 C1447 0.930 . S
C1442 H1428 0.930 . S
C1442 C1440 1.395 . S
C1442 C1445 1.403 . S
C1443 C1440 1.403 . S
C1443 C1444 1.524 . S
C1443 C1447 1.400 . S
C1444 H1429 0.960 . S
C1444 H1430 0.960 . S
C1444 H1431 0.960 . S
C1444 C1443 1.524 . S
C1445 C1442 1.403 . S
C1445 C1446 1.392 . S
C1445 C1449 1.495 . S
C1446 C1445 1.392 . S
C1446 C1447 1.385 . S
C1446 C1448 1.478 . S
C1447 H1441 0.930 . S
C1447 C1443 1.400 . S
C1447 C1446 1.385 . S
C1448 C1446 1.478 . S
C1448 C1450 1.381 . S
C1448 C1454 1.383 . S
C1449 C1445 1.495 . S
C1449 H1455 0.959 . S
C1449 H1456 0.961 . S
C1449 H1457 0.960 . S
C1450 C1448 1.381 . S
C1450 C1451 1.394 . S
C1450 H1458 0.930 . S
C1451 C1450 1.394 . S
C1451 C1452 1.383 . S
C1451 H1459 0.929 . S
C1452 C1451 1.383 . S
C1452 C1453 1.377 . S
C1453 H1437 0.930 . S
C1453 C1452 1.377 . S
C1453 C1454 1.379 . S
C1454 H1438 0.931 . S
C1454 C1448 1.383 . S
C1454 C1453 1.379 . S
H1455 C1449 0.959 . S
H1456 C1449 0.961 . S
H1457 C1449 0.960 . S
H1458 C1450 0.930 . S
H1459 C1451 0.929 . S
H1460 C1468 0.929 . S
H1461 C1470 0.930 . S
H1462 C1472 0.930 1_655 S
H1463 C1475 0.929 . S
H1464 C1478 0.930 . S
H1465 C1480 0.960 . S
H1466 C1480 0.960 . S
H1467 C1480 0.960 . S
C1468 H1460 0.929 . S
C1468 C1469 1.377 . S
C1468 C1470 1.384 . S
C1469 C1468 1.377 . S
C1469 C1475 1.390 . S
C1470 H1461 0.930 . S
C1470 C1468 1.384 . S
C1470 C1471 1.372 . S
C1471 C1470 1.372 . S
C1471 C1472 1.400 . S
C1471 C1476 1.490 1_455 S
C1472 H1462 0.930 1_455 S
C1472 C1471 1.400 . S
C1472 C1475 1.386 . S
H1473 C1489 0.930 . S
H1474 C1490 0.931 . S
C1475 H1463 0.929 . S
C1475 C1469 1.390 . S
C1475 C1472 1.386 . S
C1476 C1471 1.490 1_655 S
C1476 C1478 1.395 . S
C1476 C1479 1.403 . S
H1477 C1483 0.930 . S
C1478 H1464 0.930 . S
C1478 C1476 1.395 . S
C1478 C1481 1.403 . S
C1479 C1476 1.403 . S
C1479 C1480 1.524 . S
C1479 C1483 1.400 . S
C1480 H1465 0.960 . S
C1480 H1466 0.960 . S
C1480 H1467 0.960 . S
C1480 C1479 1.524 . S
C1481 C1478 1.403 . S
C1481 C1482 1.392 . S
C1481 C1485 1.495 . S
C1482 C1481 1.392 . S
C1482 C1483 1.385 . S
C1482 C1484 1.478 . S
C1483 H1477 0.930 . S
C1483 C1479 1.400 . S
C1483 C1482 1.385 . S
C1484 C1482 1.478 . S
C1484 C1486 1.381 . S
C1484 C1490 1.383 . S
C1485 C1481 1.495 . S
C1485 H1491 0.959 . S
C1485 H1492 0.961 . S
C1485 H1493 0.960 . S
C1486 C1484 1.381 . S
C1486 C1487 1.394 . S
C1486 H1494 0.930 . S
C1487 C1486 1.394 . S
C1487 C1488 1.383 . S
C1487 H1495 0.929 . S
C1488 C1487 1.383 . S
C1488 C1489 1.377 . S
C1489 H1473 0.930 . S
C1489 C1488 1.377 . S
C1489 C1490 1.379 . S
C1490 H1474 0.931 . S
C1490 C1484 1.383 . S
C1490 C1489 1.379 . S
H1491 C1485 0.959 . S
H1492 C1485 0.961 . S
H1493 C1485 0.960 . S
H1494 C1486 0.930 . S
H1495 C1487 0.929 . S
H1496 C1504 0.929 . S
H1497 C1506 0.930 . S
H1498 C1508 0.930 . S
H1499 C1511 0.929 . S
H1500 C1514 0.930 . S
H1501 C1516 0.960 . S
H1502 C1516 0.960 . S
H1503 C1516 0.960 . S
C1504 H1496 0.929 . S
C1504 C1505 1.377 . S
C1504 C1506 1.384 . S
C1505 C1504 1.377 . S
C1505 C1511 1.390 . S
C1506 H1497 0.930 . S
C1506 C1504 1.384 . S
C1506 C1507 1.372 . S
C1507 C1506 1.372 . S
C1507 C1508 1.400 . S
C1507 C1512 1.490 . S
C1508 H1498 0.930 . S
C1508 C1507 1.400 . S
C1508 C1511 1.386 . S
H1509 C1525 0.930 . S
H1510 C1526 0.931 . S
C1511 H1499 0.929 . S
C1511 C1505 1.390 . S
C1511 C1508 1.386 . S
C1512 C1507 1.490 . S
C1512 C1514 1.395 . S
C1512 C1515 1.403 . S
H1513 C1519 0.930 . S
C1514 H1500 0.930 . S
C1514 C1512 1.395 . S
C1514 C1517 1.403 . S
C1515 C1512 1.403 . S
C1515 C1516 1.524 . S
C1515 C1519 1.400 . S
C1516 H1501 0.960 . S
C1516 H1502 0.960 . S
C1516 H1503 0.960 . S
C1516 C1515 1.524 . S
C1517 C1514 1.403 . S
C1517 C1518 1.392 . S
C1517 C1521 1.495 . S
C1518 C1517 1.392 . S
C1518 C1519 1.385 . S
C1518 C1520 1.478 . S
C1519 H1513 0.930 . S
C1519 C1515 1.400 . S
C1519 C1518 1.385 . S
C1520 C1518 1.478 . S
C1520 C1522 1.381 . S
C1520 C1526 1.383 . S
C1521 C1517 1.495 . S
C1521 H1527 0.959 . S
C1521 H1528 0.961 . S
C1521 H1529 0.960 . S
C1522 C1520 1.381 . S
C1522 C1523 1.394 . S
C1522 H1530 0.930 . S
C1523 C1522 1.394 . S
C1523 C1524 1.383 . S
C1523 H1531 0.929 . S
C1524 C1523 1.383 . S
C1524 C1525 1.377 . S
C1525 H1509 0.930 . S
C1525 C1524 1.377 . S
C1525 C1526 1.379 . S
C1526 H1510 0.931 . S
C1526 C1520 1.383 . S
C1526 C1525 1.379 . S
H1527 C1521 0.959 . S
H1528 C1521 0.961 . S
H1529 C1521 0.960 . S
H1530 C1522 0.930 . S
H1531 C1523 0.929 . S
H1532 C1540 0.929 . S
H1533 C1542 0.930 . S
H1534 C1544 0.930 . S
H1535 C1547 0.929 . S
H1536 C1550 0.930 . S
H1537 C1552 0.960 . S
H1538 C1552 0.960 . S
H1539 C1552 0.960 . S
C1540 H1532 0.929 . S
C1540 C1541 1.377 . S
C1540 C1542 1.384 . S
C1541 C1540 1.377 . S
C1541 C1547 1.390 . S
C1542 H1533 0.930 . S
C1542 C1540 1.384 . S
C1542 C1543 1.372 . S
C1543 C1542 1.372 . S
C1543 C1544 1.400 . S
C1543 C1548 1.490 . S
C1544 H1534 0.930 . S
C1544 C1543 1.400 . S
C1544 C1547 1.386 . S
H1545 C1561 0.930 . S
H1546 C1562 0.931 . S
C1547 H1535 0.929 . S
C1547 C1541 1.390 . S
C1547 C1544 1.386 . S
C1548 C1543 1.490 . S
C1548 C1550 1.395 . S
C1548 C1551 1.403 . S
H1549 C1555 0.930 . S
C1550 H1536 0.930 . S
C1550 C1548 1.395 . S
C1550 C1553 1.403 . S
C1551 C1548 1.403 . S
C1551 C1552 1.524 . S
C1551 C1555 1.400 . S
C1552 H1537 0.960 . S
C1552 H1538 0.960 . S
C1552 H1539 0.960 . S
C1552 C1551 1.524 . S
C1553 C1550 1.403 . S
C1553 C1554 1.392 . S
C1553 C1557 1.495 . S
C1554 C1553 1.392 . S
C1554 C1555 1.385 . S
C1554 C1556 1.478 . S
C1555 H1549 0.930 . S
C1555 C1551 1.400 . S
C1555 C1554 1.385 . S
C1556 C1554 1.478 . S
C1556 C1558 1.381 . S
C1556 C1562 1.383 . S
C1557 C1553 1.495 . S
C1557 H1563 0.959 . S
C1557 H1564 0.961 . S
C1557 H1565 0.960 . S
C1558 C1556 1.381 . S
C1558 C1559 1.394 . S
C1558 H1566 0.930 . S
C1559 C1558 1.394 . S
C1559 C1560 1.383 . S
C1559 H1567 0.929 . S
C1560 C1559 1.383 . S
C1560 C1561 1.377 . S
C1561 H1545 0.930 . S
C1561 C1560 1.377 . S
C1561 C1562 1.379 . S
C1562 H1546 0.931 . S
C1562 C1556 1.383 . S
C1562 C1561 1.379 . S
H1563 C1557 0.959 . S
H1564 C1557 0.961 . S
H1565 C1557 0.960 . S
H1566 C1558 0.930 . S
H1567 C1559 0.929 . S
H1568 C1576 0.929 . S
H1569 C1578 0.930 . S
H1570 C1580 0.930 . S
H1571 C1583 0.929 . S
H1572 C1586 0.930 . S
H1573 C1588 0.960 . S
H1574 C1588 0.960 . S
H1575 C1588 0.960 . S
C1576 H1568 0.929 . S
C1576 C1577 1.377 . S
C1576 C1578 1.384 . S
C1577 C1576 1.377 . S
C1577 C1583 1.390 . S
C1578 H1569 0.930 . S
C1578 C1576 1.384 . S
C1578 C1579 1.372 . S
C1579 C1578 1.372 . S
C1579 C1580 1.400 . S
C1579 C1584 1.490 . S
C1580 H1570 0.930 . S
C1580 C1579 1.400 . S
C1580 C1583 1.386 . S
H1581 C1597 0.930 . S
H1582 C1598 0.931 . S
C1583 H1571 0.929 . S
C1583 C1577 1.390 . S
C1583 C1580 1.386 . S
C1584 C1579 1.490 . S
C1584 C1586 1.395 . S
C1584 C1587 1.403 . S
H1585 C1591 0.930 . S
C1586 H1572 0.930 . S
C1586 C1584 1.395 . S
C1586 C1589 1.403 . S
C1587 C1584 1.403 . S
C1587 C1588 1.524 . S
C1587 C1591 1.400 . S
C1588 H1573 0.960 . S
C1588 H1574 0.960 . S
C1588 H1575 0.960 . S
C1588 C1587 1.524 . S
C1589 C1586 1.403 . S
C1589 C1590 1.392 . S
C1589 C1593 1.495 . S
C1590 C1589 1.392 . S
C1590 C1591 1.385 . S
C1590 C1592 1.478 . S
C1591 H1585 0.930 . S
C1591 C1587 1.400 . S
C1591 C1590 1.385 . S
C1592 C1590 1.478 . S
C1592 C1594 1.381 . S
C1592 C1598 1.383 . S
C1593 C1589 1.495 . S
C1593 H1599 0.959 . S
C1593 H1600 0.961 . S
C1593 H1601 0.960 . S
C1594 C1592 1.381 . S
C1594 C1595 1.394 . S
C1594 H1602 0.930 . S
C1595 C1594 1.394 . S
C1595 C1596 1.383 . S
C1595 H1603 0.929 . S
C1596 C1595 1.383 . S
C1596 C1597 1.377 . S
C1597 H1581 0.930 . S
C1597 C1596 1.377 . S
C1597 C1598 1.379 . S
C1598 H1582 0.931 . S
C1598 C1592 1.383 . S
C1598 C1597 1.379 . S
H1599 C1593 0.959 . S
H1600 C1593 0.961 . S
H1601 C1593 0.960 . S
H1602 C1594 0.930 . S
H1603 C1595 0.929 . S
H1604 C1612 0.929 1_545 S
H1605 C1614 0.930 . S
H1606 C1616 0.930 . S
H1607 C1619 0.929 . S
H1608 C1622 0.930 . S
H1609 C1624 0.960 . S
H1610 C1624 0.960 . S
H1611 C1624 0.960 . S
C1612 H1604 0.929 1_565 S
C1612 C1613 1.377 . S
C1612 C1614 1.384 1_565 S
C1613 C1612 1.377 . S
C1613 C1619 1.390 . S
C1614 H1605 0.930 . S
C1614 C1612 1.384 1_545 S
C1614 C1615 1.372 1_545 S
C1615 C1614 1.372 1_565 S
C1615 C1616 1.400 . S
C1615 C1620 1.490 . S
C1616 H1606 0.930 . S
C1616 C1615 1.400 . S
C1616 C1619 1.386 . S
H1617 C1633 0.930 1_565 S
H1618 C1634 0.950 . S
C1619 H1607 0.929 . S
C1619 C1613 1.390 . S
C1619 C1616 1.386 . S
C1620 C1615 1.490 . S
C1620 C1622 1.395 1_565 S
C1620 C1623 1.403 1_455 S
H1621 C1627 0.930 . S
C1622 H1608 0.930 . S
C1622 C1620 1.395 1_545 S
C1622 C1625 1.403 . S
C1623 C1620 1.403 1_655 S
C1623 C1624 1.524 . S
C1623 C1627 1.400 . S
C1624 H1609 0.960 . S
C1624 H1610 0.960 . S
C1624 H1611 0.960 . S
C1624 C1623 1.524 . S
C1625 C1622 1.403 . S
C1625 C1626 1.392 1_455 S
C1625 C1629 1.495 . S
C1626 C1625 1.392 1_655 S
C1626 C1627 1.385 1_545 S
C1626 C1628 1.478 . S
C1627 H1621 0.930 . S
C1627 C1623 1.400 . S
C1627 C1626 1.385 1_565 S
C1628 C1626 1.478 . S
C1628 C1630 1.381 . S
C1628 C1634 1.368 1_545 S
C1629 C1625 1.495 . S
C1629 H1635 0.959 . S
C1629 H1636 0.961 . S
C1629 H1637 0.960 . S
C1630 C1628 1.381 . S
C1630 C1631 1.394 . S
C1630 H1638 0.930 . S
C1631 C1630 1.394 . S
C1631 C1632 1.383 . S
C1631 H1639 0.929 . S
C1632 C1631 1.383 . S
C1632 C1633 1.377 . S
C1633 H1617 0.930 1_545 S
C1633 C1632 1.377 . S
C1633 C1634 1.375 1_545 S
C1634 H1618 0.950 . S
C1634 C1628 1.368 1_565 S
C1634 C1633 1.375 1_565 S
H1635 C1629 0.959 . S
H1636 C1629 0.961 . S
H1637 C1629 0.960 . S
H1638 C1630 0.930 . S
H1639 C1631 0.929 . S
H1640 C1648 0.929 . S
H1641 C1650 0.930 . S
H1642 C1652 0.930 . S
H1643 C1655 0.929 . S
H1644 C1658 0.930 . S
H1645 C1660 0.960 . S
H1646 C1660 0.960 . S
H1647 C1660 0.960 . S
C1648 H1640 0.929 . S
C1648 C1649 1.377 . S
C1648 C1650 1.384 . S
C1649 C1648 1.377 . S
C1649 C1655 1.390 . S
C1650 H1641 0.930 . S
C1650 C1648 1.384 . S
C1650 C1651 1.372 . S
C1651 C1650 1.372 . S
C1651 C1652 1.400 . S
C1651 C1656 1.490 . S
C1652 H1642 0.930 . S
C1652 C1651 1.400 . S
C1652 C1655 1.386 . S
H1653 C1669 0.930 . S
H1654 C1670 0.931 . S
C1655 H1643 0.929 . S
C1655 C1649 1.390 . S
C1655 C1652 1.386 . S
C1656 C1651 1.490 . S
C1656 C1658 1.395 . S
C1656 C1659 1.403 . S
H1657 C1663 0.930 . S
C1658 H1644 0.930 . S
C1658 C1656 1.395 . S
C1658 C1661 1.403 . S
C1659 C1656 1.403 . S
C1659 C1660 1.524 . S
C1659 C1663 1.400 . S
C1660 H1645 0.960 . S
C1660 H1646 0.960 . S
C1660 H1647 0.960 . S
C1660 C1659 1.524 . S
C1661 C1658 1.403 . S
C1661 C1662 1.392 . S
C1661 C1665 1.495 . S
C1662 C1661 1.392 . S
C1662 C1663 1.385 . S
C1662 C1664 1.478 . S
C1663 H1657 0.930 . S
C1663 C1659 1.400 . S
C1663 C1662 1.385 . S
C1664 C1662 1.478 . S
C1664 C1666 1.381 . S
C1664 C1670 1.383 . S
C1665 C1661 1.495 . S
C1665 H1671 0.959 . S
C1665 H1672 0.961 . S
C1665 H1673 0.960 . S
C1666 C1664 1.381 . S
C1666 C1667 1.394 . S
C1666 H1674 0.930 . S
C1667 C1666 1.394 . S
C1667 C1668 1.383 . S
C1667 H1675 0.929 . S
C1668 C1667 1.383 . S
C1668 C1669 1.377 . S
C1669 H1653 0.930 . S
C1669 C1668 1.377 . S
C1669 C1670 1.379 . S
C1670 H1654 0.931 . S
C1670 C1664 1.383 . S
C1670 C1669 1.379 . S
H1671 C1665 0.959 . S
H1672 C1665 0.961 . S
H1673 C1665 0.960 . S
H1674 C1666 0.930 . S
H1675 C1667 0.929 . S
H1676 C1684 0.929 . S
H1677 C1686 0.925 1_565 S
H1678 C1688 0.930 . S
H1679 C1691 0.929 . S
H1680 C1694 0.930 . S
H1681 C1696 0.960 1_556 S
H1682 C1696 0.960 . S
H1683 C1696 0.960 . S
C1684 H1676 0.929 . S
C1684 C1685 1.377 . S
C1684 C1686 1.384 . S
C1685 C1684 1.377 . S
C1685 C1691 1.390 . S
C1686 H1677 0.925 1_545 S
C1686 C1684 1.384 . S
C1686 C1687 1.372 . S
C1687 C1686 1.372 . S
C1687 C1688 1.400 . S
C1687 C1692 1.490 . S
C1688 H1678 0.930 . S
C1688 C1687 1.400 . S
C1688 C1691 1.386 . S
H1689 C1705 0.930 . S
H1690 C1706 0.931 . S
C1691 H1679 0.929 . S
C1691 C1685 1.390 . S
C1691 C1688 1.386 . S
C1692 C1687 1.490 . S
C1692 C1694 1.395 1_545 S
C1692 C1695 1.403 . S
H1693 C1699 0.930 . S
C1694 H1680 0.930 . S
C1694 C1692 1.395 1_565 S
C1694 C1697 1.366 1_554 S
C1695 C1692 1.403 . S
C1695 C1696 1.524 . S
C1695 C1699 1.400 1_554 S
C1696 H1681 0.960 1_554 S
C1696 H1682 0.960 . S
C1696 H1683 0.960 . S
C1696 C1695 1.524 . S
C1697 C1694 1.366 1_556 S
C1697 C1698 1.426 . S
C1697 C1701 1.501 . S
C1698 C1697 1.426 . S
C1698 C1699 1.385 1_565 S
C1698 C1700 1.478 . S
C1699 H1693 0.930 . S
C1699 C1695 1.400 1_556 S
C1699 C1698 1.385 1_545 S
C1700 C1698 1.478 . S
C1700 C1702 1.381 . S
C1700 C1706 1.383 . S
C1701 C1697 1.501 . S
C1701 H1707 0.959 1_556 S
C1701 H1708 0.961 . S
C1701 H1709 0.958 . S
C1702 C1700 1.381 . S
C1702 C1703 1.394 . S
C1702 H1710 0.930 . S
C1703 C1702 1.394 . S
C1703 C1704 1.383 . S
C1703 H1711 0.929 . S
C1704 C1703 1.383 . S
C1704 C1705 1.377 . S
C1705 H1689 0.930 . S
C1705 C1704 1.377 . S
C1705 C1706 1.379 . S
C1706 H1690 0.931 . S
C1706 C1700 1.383 . S
C1706 C1705 1.379 . S
H1707 C1701 0.959 1_554 S
H1708 C1701 0.961 . S
H1709 C1701 0.958 . S
H1710 C1702 0.930 . S
H1711 C1703 0.929 . S
H1712 C1720 0.929 . S
H1713 C1722 0.930 . S
H1714 C1724 0.930 . S
H1715 C1727 0.929 . S
H1716 C1730 0.930 . S
H1717 C1732 0.960 . S
H1718 C1732 0.960 . S
H1719 C1732 0.960 . S
C1720 H1712 0.929 . S
C1720 C1721 1.377 . S
C1720 C1722 1.384 . S
C1721 C1720 1.377 . S
C1721 C1727 1.390 . S
C1722 H1713 0.930 . S
C1722 C1720 1.384 . S
C1722 C1723 1.372 . S
C1723 C1722 1.372 . S
C1723 C1724 1.400 . S
C1723 C1728 1.490 . S
C1724 H1714 0.930 . S
C1724 C1723 1.400 . S
C1724 C1727 1.386 . S
H1725 C1741 0.930 . S
H1726 C1742 0.931 . S
C1727 H1715 0.929 . S
C1727 C1721 1.390 . S
C1727 C1724 1.386 . S
C1728 C1723 1.490 . S
C1728 C1730 1.395 . S
C1728 C1731 1.403 . S
H1729 C1735 0.930 . S
C1730 H1716 0.930 . S
C1730 C1728 1.395 . S
C1730 C1733 1.403 . S
C1731 C1728 1.403 . S
C1731 C1732 1.524 . S
C1731 C1735 1.400 . S
C1732 H1717 0.960 . S
C1732 H1718 0.960 . S
C1732 H1719 0.960 . S
C1732 C1731 1.524 . S
C1733 C1730 1.403 . S
C1733 C1734 1.392 . S
C1733 C1737 1.495 . S
C1734 C1733 1.392 . S
C1734 C1735 1.385 . S
C1734 C1736 1.478 . S
C1735 H1729 0.930 . S
C1735 C1731 1.400 . S
C1735 C1734 1.385 . S
C1736 C1734 1.478 . S
C1736 C1738 1.381 . S
C1736 C1742 1.383 . S
C1737 C1733 1.495 . S
C1737 H1743 0.959 . S
C1737 H1744 0.961 . S
C1737 H1745 0.960 . S
C1738 C1736 1.381 . S
C1738 C1739 1.394 . S
C1738 H1746 0.930 . S
C1739 C1738 1.394 . S
C1739 C1740 1.383 . S
C1739 H1747 0.929 . S
C1740 C1739 1.383 . S
C1740 C1741 1.377 . S
C1741 H1725 0.930 . S
C1741 C1740 1.377 . S
C1741 C1742 1.379 . S
C1742 H1726 0.931 . S
C1742 C1736 1.383 . S
C1742 C1741 1.379 . S
H1743 C1737 0.959 . S
H1744 C1737 0.961 . S
H1745 C1737 0.960 . S
H1746 C1738 0.930 . S
H1747 C1739 0.929 . S
H1748 C1756 0.929 . S
H1749 C1758 0.930 1_545 S
H1750 C1760 0.930 . S
H1751 C1763 0.929 . S
H1752 C1766 0.930 . S
H1753 C1768 0.960 . S
H1754 C1768 0.960 . S
H1755 C1768 0.960 . S
C1756 H1748 0.929 . S
C1756 C1757 1.377 . S
C1756 C1758 1.384 . S
C1757 C1756 1.377 . S
C1757 C1763 1.390 . S
C1758 H1749 0.930 1_565 S
C1758 C1756 1.384 . S
C1758 C1759 1.372 . S
C1759 C1758 1.372 . S
C1759 C1760 1.400 . S
C1759 C1764 1.490 . S
C1760 H1750 0.930 . S
C1760 C1759 1.400 . S
C1760 C1763 1.386 . S
H1761 C1777 0.930 . S
H1762 C1778 0.911 1_565 S
C1763 H1751 0.929 . S
C1763 C1757 1.390 . S
C1763 C1760 1.386 . S
C1764 C1759 1.490 . S
C1764 C1766 1.395 1_565 S
C1764 C1767 1.403 . S
H1765 C1771 0.930 . S
C1766 H1752 0.930 . S
C1766 C1764 1.395 1_545 S
C1766 C1769 1.403 . S
C1767 C1764 1.403 . S
C1767 C1768 1.524 . S
C1767 C1771 1.400 . S
C1768 H1753 0.960 . S
C1768 H1754 0.960 . S
C1768 H1755 0.960 . S
C1768 C1767 1.524 . S
C1769 C1766 1.403 . S
C1769 C1770 1.392 . S
C1769 C1773 1.495 . S
C1770 C1769 1.392 . S
C1770 C1771 1.385 1_545 S
C1770 C1772 1.478 . S
C1771 H1765 0.930 . S
C1771 C1767 1.400 . S
C1771 C1770 1.385 1_565 S
C1772 C1770 1.478 . S
C1772 C1774 1.381 . S
C1772 C1778 1.383 . S
C1773 C1769 1.495 . S
C1773 H1779 0.959 . S
C1773 H1780 0.961 . S
C1773 H1781 0.960 . S
C1774 C1772 1.381 . S
C1774 C1775 1.394 . S
C1774 H1782 0.930 . S
C1775 C1774 1.394 . S
C1775 C1776 1.383 . S
C1775 H1783 0.929 . S
C1776 C1775 1.383 . S
C1776 C1777 1.377 . S
C1777 H1761 0.930 . S
C1777 C1776 1.377 . S
C1777 C1778 1.379 . S
C1778 H1762 0.911 1_545 S
C1778 C1772 1.383 . S
C1778 C1777 1.379 . S
H1779 C1773 0.959 . S
H1780 C1773 0.961 . S
H1781 C1773 0.960 . S
H1782 C1774 0.930 . S
H1783 C1775 0.929 . S
H1784 C1792 0.929 . S
H1785 C1794 0.930 . S
H1786 C1796 0.930 . S
H1787 C1799 0.929 . S
H1788 C1802 0.930 . S
H1789 C1804 0.960 . S
H1790 C1804 0.960 . S
H1791 C1804 0.960 . S
C1792 H1784 0.929 . S
C1792 C1793 1.377 . S
C1792 C1794 1.384 . S
C1793 C1792 1.377 . S
C1793 C1799 1.390 . S
C1794 H1785 0.930 . S
C1794 C1792 1.384 . S
C1794 C1795 1.372 . S
C1795 C1794 1.372 . S
C1795 C1796 1.400 . S
C1795 C1800 1.490 . S
C1796 H1786 0.930 . S
C1796 C1795 1.400 . S
C1796 C1799 1.386 . S
H1797 C1813 0.930 . S
H1798 C1814 0.931 . S
C1799 H1787 0.929 . S
C1799 C1793 1.390 . S
C1799 C1796 1.386 . S
C1800 C1795 1.490 . S
C1800 C1802 1.395 . S
C1800 C1803 1.403 . S
H1801 C1807 0.930 . S
C1802 H1788 0.930 . S
C1802 C1800 1.395 . S
C1802 C1805 1.403 . S
C1803 C1800 1.403 . S
C1803 C1804 1.524 . S
C1803 C1807 1.400 . S
C1804 H1789 0.960 . S
C1804 H1790 0.960 . S
C1804 H1791 0.960 . S
C1804 C1803 1.524 . S
C1805 C1802 1.403 . S
C1805 C1806 1.392 . S
C1805 C1809 1.495 . S
C1806 C1805 1.392 . S
C1806 C1807 1.385 . S
C1806 C1808 1.478 . S
C1807 H1801 0.930 . S
C1807 C1803 1.400 . S
C1807 C1806 1.385 . S
C1808 C1806 1.478 . S
C1808 C1810 1.381 . S
C1808 C1814 1.383 . S
C1809 C1805 1.495 . S
C1809 H1815 0.959 . S
C1809 H1816 0.961 . S
C1809 H1817 0.960 . S
C1810 C1808 1.381 . S
C1810 C1811 1.394 . S
C1810 H1818 0.930 . S
C1811 C1810 1.394 . S
C1811 C1812 1.383 . S
C1811 H1819 0.929 . S
C1812 C1811 1.383 . S
C1812 C1813 1.377 . S
C1813 H1797 0.930 . S
C1813 C1812 1.377 . S
C1813 C1814 1.379 . S
C1814 H1798 0.931 . S
C1814 C1808 1.383 . S
C1814 C1813 1.379 . S
H1815 C1809 0.959 . S
H1816 C1809 0.961 . S
H1817 C1809 0.960 . S
H1818 C1810 0.930 . S
H1819 C1811 0.929 . S
H1820 C1828 0.929 . S
H1821 C1830 0.930 . S
H1822 C1832 0.930 . S
H1823 C1835 0.929 1_565 S
H1824 C1838 0.930 . S
H1825 C1840 0.960 . S
H1826 C1840 0.960 . S
H1827 C1840 0.960 1_556 S
C1828 H1820 0.929 . S
C1828 C1829 1.377 . S
C1828 C1830 1.384 . S
C1829 C1828 1.377 . S
C1829 C1835 1.390 . S
C1830 H1821 0.930 . S
C1830 C1828 1.384 . S
C1830 C1831 1.372 . S
C1831 C1830 1.372 . S
C1831 C1832 1.400 1_545 S
C1831 C1836 1.490 . S
C1832 H1822 0.930 . S
C1832 C1831 1.400 1_565 S
C1832 C1835 1.386 1_565 S
H1833 C1849 0.930 . S
H1834 C1850 0.931 . S
C1835 H1823 0.929 1_545 S
C1835 C1829 1.390 . S
C1835 C1832 1.386 1_545 S
C1836 C1831 1.490 . S
C1836 C1838 1.395 1_455 S
C1836 C1839 1.405 1_546 S
H1837 C1843 0.930 . S
C1838 H1824 0.930 . S
C1838 C1836 1.395 1_655 S
C1838 C1841 1.399 . S
C1839 C1836 1.405 1_564 S
C1839 C1840 1.523 . S
C1839 C1843 1.397 . S
C1840 H1825 0.960 . S
C1840 H1826 0.960 . S
C1840 H1827 0.960 1_554 S
C1840 C1839 1.523 . S
C1841 C1838 1.399 . S
C1841 C1842 1.397 1_546 S
C1841 C1845 1.494 . S
C1842 C1841 1.397 1_564 S
C1842 C1843 1.385 1_655 S
C1842 C1844 1.478 . S
C1843 H1837 0.930 . S
C1843 C1839 1.397 . S
C1843 C1842 1.385 1_455 S
C1844 C1842 1.478 . S
C1844 C1846 1.381 1_565 S
C1844 C1850 1.383 . S
C1845 C1841 1.494 . S
C1845 H1851 0.990 . S
C1845 H1852 0.971 . S
C1845 H1853 0.922 1_556 S
C1846 C1844 1.381 1_545 S
C1846 C1847 1.394 1_545 S
C1846 H1854 0.930 . S
C1847 C1846 1.394 1_565 S
C1847 C1848 1.383 . S
C1847 H1855 0.929 1_565 S
C1848 C1847 1.383 . S
C1848 C1849 1.377 . S
C1849 H1833 0.930 . S
C1849 C1848 1.377 . S
C1849 C1850 1.379 . S
C1850 H1834 0.931 . S
C1850 C1844 1.383 . S
C1850 C1849 1.379 . S
H1851 C1845 0.990 . S
H1852 C1845 0.971 . S
H1853 C1845 0.922 1_554 S
H1854 C1846 0.930 . S
H1855 C1847 0.929 1_545 S
H1856 C1864 0.929 . S
H1857 C1866 0.930 . S
H1858 C1868 0.930 . S
H1859 C1871 0.929 . S
H1860 C1874 0.930 . S
H1861 C1876 0.960 . S
H1862 C1876 0.960 . S
H1863 C1876 0.960 . S
C1864 H1856 0.929 . S
C1864 C1865 1.377 . S
C1864 C1866 1.384 . S
C1865 C1864 1.377 . S
C1865 C1871 1.390 . S
C1866 H1857 0.930 . S
C1866 C1864 1.384 . S
C1866 C1867 1.372 . S
C1867 C1866 1.372 . S
C1867 C1868 1.400 . S
C1867 C1872 1.490 . S
C1868 H1858 0.930 . S
C1868 C1867 1.400 . S
C1868 C1871 1.386 . S
H1869 C1885 0.930 . S
H1870 C1886 0.931 . S
C1871 H1859 0.929 . S
C1871 C1865 1.390 . S
C1871 C1868 1.386 . S
C1872 C1867 1.490 . S
C1872 C1874 1.395 . S
C1872 C1875 1.403 . S
H1873 C1879 0.930 . S
C1874 H1860 0.930 . S
C1874 C1872 1.395 . S
C1874 C1877 1.403 . S
C1875 C1872 1.403 . S
C1875 C1876 1.524 . S
C1875 C1879 1.400 . S
C1876 H1861 0.960 . S
C1876 H1862 0.960 . S
C1876 H1863 0.960 . S
C1876 C1875 1.524 . S
C1877 C1874 1.403 . S
C1877 C1878 1.392 . S
C1877 C1881 1.495 . S
C1878 C1877 1.392 . S
C1878 C1879 1.385 . S
C1878 C1880 1.478 . S
C1879 H1873 0.930 . S
C1879 C1875 1.400 . S
C1879 C1878 1.385 . S
C1880 C1878 1.478 . S
C1880 C1882 1.381 . S
C1880 C1886 1.383 . S
C1881 C1877 1.495 . S
C1881 H1887 0.959 . S
C1881 H1888 0.961 . S
C1881 H1889 0.960 . S
C1882 C1880 1.381 . S
C1882 C1883 1.394 . S
C1882 H1890 0.930 . S
C1883 C1882 1.394 . S
C1883 C1884 1.383 . S
C1883 H1891 0.929 . S
C1884 C1883 1.383 . S
C1884 C1885 1.377 . S
C1885 H1869 0.930 . S
C1885 C1884 1.377 . S
C1885 C1886 1.379 . S
C1886 H1870 0.931 . S
C1886 C1880 1.383 . S
C1886 C1885 1.379 . S
H1887 C1881 0.959 . S
H1888 C1881 0.961 . S
H1889 C1881 0.960 . S
H1890 C1882 0.930 . S
H1891 C1883 0.929 . S
H1892 C1900 0.929 . S
H1893 C1902 0.930 . S
H1894 C1904 0.930 . S
H1895 C1907 0.929 . S
H1896 C1910 0.930 . S
H1897 C1912 0.960 . S
H1898 C1912 0.960 . S
H1899 C1912 0.960 . S
C1900 H1892 0.929 . S
C1900 C1901 1.377 . S
C1900 C1902 1.384 . S
C1901 C1900 1.377 . S
C1901 C1907 1.390 . S
C1902 H1893 0.930 . S
C1902 C1900 1.384 . S
C1902 C1903 1.372 . S
C1903 C1902 1.372 . S
C1903 C1904 1.400 . S
C1903 C1908 1.490 . S
C1904 H1894 0.930 . S
C1904 C1903 1.400 . S
C1904 C1907 1.386 . S
H1905 C1921 0.930 . S
H1906 C1922 0.931 . S
C1907 H1895 0.929 . S
C1907 C1901 1.390 . S
C1907 C1904 1.386 . S
C1908 C1903 1.490 . S
C1908 C1910 1.395 . S
C1908 C1911 1.403 . S
H1909 C1915 0.930 . S
C1910 H1896 0.930 . S
C1910 C1908 1.395 . S
C1910 C1913 1.403 . S
C1911 C1908 1.403 . S
C1911 C1912 1.524 . S
C1911 C1915 1.400 . S
C1912 H1897 0.960 . S
C1912 H1898 0.960 . S
C1912 H1899 0.960 . S
C1912 C1911 1.524 . S
C1913 C1910 1.403 . S
C1913 C1914 1.392 . S
C1913 C1917 1.495 . S
C1914 C1913 1.392 . S
C1914 C1915 1.385 . S
C1914 C1916 1.478 . S
C1915 H1909 0.930 . S
C1915 C1911 1.400 . S
C1915 C1914 1.385 . S
C1916 C1914 1.478 . S
C1916 C1918 1.381 . S
C1916 C1922 1.383 . S
C1917 C1913 1.495 . S
C1917 H1923 0.959 . S
C1917 H1924 0.961 . S
C1917 H1925 0.960 . S
C1918 C1916 1.381 . S
C1918 C1919 1.394 . S
C1918 H1926 0.930 . S
C1919 C1918 1.394 . S
C1919 C1920 1.383 . S
C1919 H1927 0.929 . S
C1920 C1919 1.383 . S
C1920 C1921 1.377 . S
C1921 H1905 0.930 . S
C1921 C1920 1.377 . S
C1921 C1922 1.379 . S
C1922 H1906 0.931 . S
C1922 C1916 1.383 . S
C1922 C1921 1.379 . S
H1923 C1917 0.959 . S
H1924 C1917 0.961 . S
H1925 C1917 0.960 . S
H1926 C1918 0.930 . S
H1927 C1919 0.929 . S
H1928 C1936 0.929 . S
H1929 C1938 0.930 . S
H1930 C1940 0.930 . S
H1931 C1943 0.929 . S
H1932 C1946 0.930 . S
H1933 C1948 0.960 . S
H1934 C1948 0.960 . S
H1935 C1948 0.960 . S
C1936 H1928 0.929 . S
C1936 C1937 1.377 . S
C1936 C1938 1.384 . S
C1937 C1936 1.377 . S
C1937 C1943 1.390 . S
C1938 H1929 0.930 . S
C1938 C1936 1.384 . S
C1938 C1939 1.372 . S
C1939 C1938 1.372 . S
C1939 C1940 1.400 . S
C1939 C1944 1.490 . S
C1940 H1930 0.930 . S
C1940 C1939 1.400 . S
C1940 C1943 1.386 . S
H1941 C1957 0.930 . S
H1942 C1958 0.931 . S
C1943 H1931 0.929 . S
C1943 C1937 1.390 . S
C1943 C1940 1.386 . S
C1944 C1939 1.490 . S
C1944 C1946 1.395 . S
C1944 C1947 1.403 . S
H1945 C1951 0.930 . S
C1946 H1932 0.930 . S
C1946 C1944 1.395 . S
C1946 C1949 1.403 . S
C1947 C1944 1.403 . S
C1947 C1948 1.524 . S
C1947 C1951 1.400 . S
C1948 H1933 0.960 . S
C1948 H1934 0.960 . S
C1948 H1935 0.960 . S
C1948 C1947 1.524 . S
C1949 C1946 1.403 . S
C1949 C1950 1.392 . S
C1949 C1953 1.495 . S
C1950 C1949 1.392 . S
C1950 C1951 1.385 . S
C1950 C1952 1.478 . S
C1951 H1945 0.930 . S
C1951 C1947 1.400 . S
C1951 C1950 1.385 . S
C1952 C1950 1.478 . S
C1952 C1954 1.381 . S
C1952 C1958 1.383 . S
C1953 C1949 1.495 . S
C1953 H1959 0.959 . S
C1953 H1960 0.961 . S
C1953 H1961 0.960 . S
C1954 C1952 1.381 . S
C1954 C1955 1.394 . S
C1954 H1962 0.930 . S
C1955 C1954 1.394 . S
C1955 C1956 1.383 . S
C1955 H1963 0.929 . S
C1956 C1955 1.383 . S
C1956 C1957 1.377 . S
C1957 H1941 0.930 . S
C1957 C1956 1.377 . S
C1957 C1958 1.379 . S
C1958 H1942 0.931 . S
C1958 C1952 1.383 . S
C1958 C1957 1.379 . S
H1959 C1953 0.959 . S
H1960 C1953 0.961 . S
H1961 C1953 0.960 . S
H1962 C1954 0.930 . S
H1963 C1955 0.929 . S
H1964 C1972 0.929 . S
H1965 C1974 0.930 . S
H1966 C1976 0.930 . S
H1967 C1979 0.929 . S
H1968 C1982 0.930 . S
H1969 C1984 0.960 . S
H1970 C1984 0.960 . S
H1971 C1984 0.960 . S
C1972 H1964 0.929 . S
C1972 C1973 1.377 . S
C1972 C1974 1.384 . S
C1973 C1972 1.377 . S
C1973 C1979 1.390 . S
C1974 H1965 0.930 . S
C1974 C1972 1.384 . S
C1974 C1975 1.372 . S
C1975 C1974 1.372 . S
C1975 C1976 1.400 . S
C1975 C1980 1.490 . S
C1976 H1966 0.930 . S
C1976 C1975 1.400 . S
C1976 C1979 1.386 . S
H1977 C1993 0.930 . S
H1978 C1994 0.931 . S
C1979 H1967 0.929 . S
C1979 C1973 1.390 . S
C1979 C1976 1.386 . S
C1980 C1975 1.490 . S
C1980 C1982 1.395 . S
C1980 C1983 1.403 . S
H1981 C1987 0.930 . S
C1982 H1968 0.930 . S
C1982 C1980 1.395 . S
C1982 C1985 1.403 . S
C1983 C1980 1.403 . S
C1983 C1984 1.524 . S
C1983 C1987 1.400 . S
C1984 H1969 0.960 . S
C1984 H1970 0.960 . S
C1984 H1971 0.960 . S
C1984 C1983 1.524 . S
C1985 C1982 1.403 . S
C1985 C1986 1.392 . S
C1985 C1989 1.495 . S
C1986 C1985 1.392 . S
C1986 C1987 1.385 . S
C1986 C1988 1.478 . S
C1987 H1981 0.930 . S
C1987 C1983 1.400 . S
C1987 C1986 1.385 . S
C1988 C1986 1.478 . S
C1988 C1990 1.381 . S
C1988 C1994 1.383 . S
C1989 C1985 1.495 . S
C1989 H1995 0.959 . S
C1989 H1996 0.961 . S
C1989 H1997 0.960 . S
C1990 C1988 1.381 . S
C1990 C1991 1.394 . S
C1990 H1998 0.930 . S
C1991 C1990 1.394 . S
C1991 C1992 1.383 . S
C1991 H1999 0.929 . S
C1992 C1991 1.383 . S
C1992 C1993 1.377 . S
C1993 H1977 0.930 . S
C1993 C1992 1.377 . S
C1993 C1994 1.379 . S
C1994 H1978 0.931 . S
C1994 C1988 1.383 . S
C1994 C1993 1.379 . S
H1995 C1989 0.959 . S
H1996 C1989 0.961 . S
H1997 C1989 0.960 . S
H1998 C1990 0.930 . S
H1999 C1991 0.929 . S
H2000 C2008 0.929 . S
H2001 C2010 0.930 . S
H2002 C2012 0.930 . S
H2003 C2015 0.929 . S
H2004 C2018 0.930 . S
H2005 C2020 0.960 . S
H2006 C2020 0.960 . S
H2007 C2020 0.960 . S
C2008 H2000 0.929 . S
C2008 C2009 1.377 . S
C2008 C2010 1.384 . S
C2009 C2008 1.377 . S
C2009 C2015 1.390 . S
C2010 H2001 0.930 . S
C2010 C2008 1.384 . S
C2010 C2011 1.372 . S
C2011 C2010 1.372 . S
C2011 C2012 1.400 . S
C2011 C2016 1.490 . S
C2012 H2002 0.930 . S
C2012 C2011 1.400 . S
C2012 C2015 1.386 . S
H2013 C2029 0.930 . S
H2014 C2030 0.931 . S
C2015 H2003 0.929 . S
C2015 C2009 1.390 . S
C2015 C2012 1.386 . S
C2016 C2011 1.490 . S
C2016 C2018 1.395 . S
C2016 C2019 1.403 1_554 S
H2017 C2023 0.930 . S
C2018 H2004 0.930 . S
C2018 C2016 1.395 . S
C2018 C2021 1.403 . S
C2019 C2016 1.403 1_556 S
C2019 C2020 1.524 . S
C2019 C2023 1.400 . S
C2020 H2005 0.960 . S
C2020 H2006 0.960 . S
C2020 H2007 0.960 . S
C2020 C2019 1.524 . S
C2021 C2018 1.403 . S
C2021 C2022 1.392 1_554 S
C2021 C2025 1.495 . S
C2022 C2021 1.392 1_556 S
C2022 C2023 1.385 . S
C2022 C2024 1.478 . S
C2023 H2017 0.930 . S
C2023 C2019 1.400 . S
C2023 C2022 1.385 . S
C2024 C2022 1.478 . S
C2024 C2026 1.381 . S
C2024 C2030 1.383 . S
C2025 C2021 1.495 . S
C2025 H2031 0.959 . S
C2025 H2032 0.961 . S
C2025 H2033 0.960 . S
C2026 C2024 1.381 . S
C2026 C2027 1.394 . S
C2026 H2034 0.930 . S
C2027 C2026 1.394 . S
C2027 C2028 1.383 . S
C2027 H2035 0.929 . S
C2028 C2027 1.383 . S
C2028 C2029 1.377 . S
C2029 H2013 0.930 . S
C2029 C2028 1.377 . S
C2029 C2030 1.379 . S
C2030 H2014 0.931 . S
C2030 C2024 1.383 . S
C2030 C2029 1.379 . S
H2031 C2025 0.959 . S
H2032 C2025 0.961 . S
H2033 C2025 0.960 . S
H2034 C2026 0.930 . S
H2035 C2027 0.929 . S
H2036 C2044 0.929 . S
H2037 C2046 0.930 . S
H2038 C2048 0.930 . S
H2039 C2051 0.929 . S
H2040 C2054 0.930 . S
H2041 C2056 0.960 . S
H2042 C2056 0.960 . S
H2043 C2056 0.960 . S
C2044 H2036 0.929 . S
C2044 C2045 1.377 . S
C2044 C2046 1.384 . S
C2045 C2044 1.377 . S
C2045 C2051 1.390 . S
C2046 H2037 0.930 . S
C2046 C2044 1.384 . S
C2046 C2047 1.372 . S
C2047 C2046 1.372 . S
C2047 C2048 1.400 . S
C2047 C2052 1.490 . S
C2048 H2038 0.930 . S
C2048 C2047 1.400 . S
C2048 C2051 1.386 . S
H2049 C2065 0.930 . S
H2050 C2066 0.931 . S
C2051 H2039 0.929 . S
C2051 C2045 1.390 . S
C2051 C2048 1.386 . S
C2052 C2047 1.490 . S
C2052 C2054 1.395 . S
C2052 C2055 1.403 1_455 S
H2053 C2059 0.930 . S
C2054 H2040 0.930 . S
C2054 C2052 1.395 . S
C2054 C2057 1.403 . S
C2055 C2052 1.403 1_655 S
C2055 C2056 1.524 . S
C2055 C2059 1.400 . S
C2056 H2041 0.960 . S
C2056 H2042 0.960 . S
C2056 H2043 0.960 . S
C2056 C2055 1.524 . S
C2057 C2054 1.403 . S
C2057 C2058 1.392 1_455 S
C2057 C2061 1.495 . S
C2058 C2057 1.392 1_655 S
C2058 C2059 1.385 . S
C2058 C2060 1.478 . S
C2059 H2053 0.930 . S
C2059 C2055 1.400 . S
C2059 C2058 1.385 . S
C2060 C2058 1.478 . S
C2060 C2062 1.381 . S
C2060 C2066 1.383 . S
C2061 C2057 1.495 . S
C2061 H2067 0.959 . S
C2061 H2068 0.961 . S
C2061 H2069 0.960 . S
C2062 C2060 1.381 . S
C2062 C2063 1.394 . S
C2062 H2070 0.930 . S
C2063 C2062 1.394 . S
C2063 C2064 1.383 . S
C2063 H2071 0.929 . S
C2064 C2063 1.383 . S
C2064 C2065 1.377 . S
C2065 H2049 0.930 . S
C2065 C2064 1.377 . S
C2065 C2066 1.379 . S
C2066 H2050 0.931 . S
C2066 C2060 1.383 . S
C2066 C2065 1.379 . S
H2067 C2061 0.959 . S
H2068 C2061 0.961 . S
H2069 C2061 0.960 . S
H2070 C2062 0.930 . S
H2071 C2063 0.929 . S
H2072 C2080 0.929 . S
H2073 C2082 0.930 . S
H2074 C2084 0.930 . S
H2075 C2087 0.929 . S
H2076 C2090 0.930 . S
H2077 C2092 0.960 . S
H2078 C2092 0.960 . S
H2079 C2092 0.960 . S
C2080 H2072 0.929 . S
C2080 C2081 1.377 . S
C2080 C2082 1.384 . S
C2081 C2080 1.377 . S
C2081 C2087 1.390 . S
C2082 H2073 0.930 . S
C2082 C2080 1.384 . S
C2082 C2083 1.372 . S
C2083 C2082 1.372 . S
C2083 C2084 1.400 . S
C2083 C2088 1.490 . S
C2084 H2074 0.930 . S
C2084 C2083 1.400 . S
C2084 C2087 1.386 . S
H2085 C2101 0.930 . S
H2086 C2102 0.931 . S
C2087 H2075 0.929 . S
C2087 C2081 1.390 . S
C2087 C2084 1.386 . S
C2088 C2083 1.490 . S
C2088 C2090 1.395 1_455 S
C2088 C2091 1.403 . S
H2089 C2095 0.930 . S
C2090 H2076 0.930 . S
C2090 C2088 1.395 1_655 S
C2090 C2093 1.403 1_554 S
C2091 C2088 1.403 . S
C2091 C2092 1.524 . S
C2091 C2095 1.400 1_454 S
C2092 H2077 0.960 . S
C2092 H2078 0.960 . S
C2092 H2079 0.960 . S
C2092 C2091 1.524 . S
C2093 C2090 1.403 1_556 S
C2093 C2094 1.392 . S
C2093 C2097 1.495 . S
C2094 C2093 1.392 . S
C2094 C2095 1.385 . S
C2094 C2096 1.478 . S
C2095 H2089 0.930 . S
C2095 C2091 1.400 1_656 S
C2095 C2094 1.385 . S
C2096 C2094 1.478 . S
C2096 C2098 1.381 . S
C2096 C2102 1.383 . S
C2097 C2093 1.495 . S
C2097 H2103 0.955 1_556 S
C2097 H2104 0.961 . S
C2097 H2105 0.960 . S
C2098 C2096 1.381 . S
C2098 C2099 1.394 . S
C2098 H2106 0.930 . S
C2099 C2098 1.394 . S
C2099 C2100 1.383 . S
C2099 H2107 0.929 . S
C2100 C2099 1.383 . S
C2100 C2101 1.377 . S
C2101 H2085 0.930 . S
C2101 C2100 1.377 . S
C2101 C2102 1.379 . S
C2102 H2086 0.931 . S
C2102 C2096 1.383 . S
C2102 C2101 1.379 . S
H2103 C2097 0.955 1_554 S
H2104 C2097 0.961 . S
H2105 C2097 0.960 . S
H2106 C2098 0.930 . S
H2107 C2099 0.929 . S
H2108 C2116 0.929 . S
H2109 C2118 0.930 . S
H2110 C2120 0.930 . S
H2111 C2123 0.929 . S
H2112 C2126 0.930 . S
H2113 C2128 0.960 . S
H2114 C2128 0.960 . S
H2115 C2128 0.960 . S
C2116 H2108 0.929 . S
C2116 C2117 1.377 . S
C2116 C2118 1.384 . S
C2117 C2116 1.377 . S
C2117 C2123 1.390 . S
C2118 H2109 0.930 . S
C2118 C2116 1.384 . S
C2118 C2119 1.372 . S
C2119 C2118 1.372 . S
C2119 C2120 1.400 . S
C2119 C2124 1.490 . S
C2120 H2110 0.930 . S
C2120 C2119 1.400 . S
C2120 C2123 1.386 . S
H2121 C2137 0.930 . S
H2122 C2138 0.931 . S
C2123 H2111 0.929 . S
C2123 C2117 1.390 . S
C2123 C2120 1.386 . S
C2124 C2119 1.490 . S
C2124 C2126 1.395 . S
C2124 C2127 1.403 . S
H2125 C2131 0.930 . S
C2126 H2112 0.930 . S
C2126 C2124 1.395 . S
C2126 C2129 1.403 . S
C2127 C2124 1.403 . S
C2127 C2128 1.524 . S
C2127 C2131 1.400 . S
C2128 H2113 0.960 . S
C2128 H2114 0.960 . S
C2128 H2115 0.960 . S
C2128 C2127 1.524 . S
C2129 C2126 1.403 . S
C2129 C2130 1.392 . S
C2129 C2133 1.495 . S
C2130 C2129 1.392 . S
C2130 C2131 1.385 . S
C2130 C2132 1.478 . S
C2131 H2125 0.930 . S
C2131 C2127 1.400 . S
C2131 C2130 1.385 . S
C2132 C2130 1.478 . S
C2132 C2134 1.381 . S
C2132 C2138 1.383 . S
C2133 C2129 1.495 . S
C2133 H2139 0.959 . S
C2133 H2140 0.961 . S
C2133 H2141 0.960 . S
C2134 C2132 1.381 . S
C2134 C2135 1.394 . S
C2134 H2142 0.930 . S
C2135 C2134 1.394 . S
C2135 C2136 1.383 . S
C2135 H2143 0.929 . S
C2136 C2135 1.383 . S
C2136 C2137 1.377 . S
C2137 H2121 0.930 . S
C2137 C2136 1.377 . S
C2137 C2138 1.379 . S
C2138 H2122 0.931 . S
C2138 C2132 1.383 . S
C2138 C2137 1.379 . S
H2139 C2133 0.959 . S
H2140 C2133 0.961 . S
H2141 C2133 0.960 . S
H2142 C2134 0.930 . S
H2143 C2135 0.929 . S
H2144 C2152 0.929 . S
H2145 C2154 0.930 . S
H2146 C2156 0.930 . S
H2147 C2159 0.929 . S
H2148 C2162 0.930 . S
H2149 C2164 0.960 . S
H2150 C2164 0.960 1_545 S
H2151 C2164 0.960 . S
C2152 H2144 0.929 . S
C2152 C2153 1.377 . S
C2152 C2154 1.384 . S
C2153 C2152 1.377 . S
C2153 C2159 1.390 . S
C2154 H2145 0.930 . S
C2154 C2152 1.384 . S
C2154 C2155 1.372 . S
C2155 C2154 1.372 . S
C2155 C2156 1.400 . S
C2155 C2160 1.490 . S
C2156 H2146 0.930 . S
C2156 C2155 1.400 . S
C2156 C2159 1.386 . S
H2157 C2173 0.930 . S
H2158 C2174 0.931 . S
C2159 H2147 0.929 . S
C2159 C2153 1.390 . S
C2159 C2156 1.386 . S
C2160 C2155 1.490 . S
C2160 C2162 1.395 . S
C2160 C2163 1.403 1_545 S
H2161 C2167 0.930 . S
C2162 H2148 0.930 . S
C2162 C2160 1.395 . S
C2162 C2165 1.403 . S
C2163 C2160 1.403 1_565 S
C2163 C2164 1.524 . S
C2163 C2167 1.400 . S
C2164 H2149 0.960 . S
C2164 H2150 0.960 1_565 S
C2164 H2151 0.960 . S
C2164 C2163 1.524 . S
C2165 C2162 1.403 . S
C2165 C2166 1.392 1_545 S
C2165 C2169 1.495 . S
C2166 C2165 1.392 1_565 S
C2166 C2167 1.385 . S
C2166 C2168 1.478 . S
C2167 H2161 0.930 . S
C2167 C2163 1.400 . S
C2167 C2166 1.385 . S
C2168 C2166 1.478 . S
C2168 C2170 1.381 . S
C2168 C2174 1.383 . S
C2169 C2165 1.495 . S
C2169 H2175 0.959 . S
C2169 H2176 0.961 . S
C2169 H2177 0.960 . S
C2170 C2168 1.381 . S
C2170 C2171 1.394 . S
C2170 H2178 0.930 . S
C2171 C2170 1.394 . S
C2171 C2172 1.383 . S
C2171 H2179 0.929 . S
C2172 C2171 1.383 . S
C2172 C2173 1.377 . S
C2173 H2157 0.930 . S
C2173 C2172 1.377 . S
C2173 C2174 1.379 . S
C2174 H2158 0.931 . S
C2174 C2168 1.383 . S
C2174 C2173 1.379 . S
H2175 C2169 0.959 . S
H2176 C2169 0.961 . S
H2177 C2169 0.960 . S
H2178 C2170 0.930 . S
H2179 C2171 0.929 . S
H2180 C2188 0.929 . S
H2181 C2190 0.930 . S
H2182 C2192 0.930 . S
H2183 C2195 0.929 . S
H2184 C2198 0.930 . S
H2185 C2200 0.960 . S
H2186 C2200 0.960 . S
H2187 C2200 0.960 . S
C2188 H2180 0.929 . S
C2188 C2189 1.377 . S
C2188 C2190 1.384 . S
C2189 C2188 1.377 . S
C2189 C2195 1.390 . S
C2190 H2181 0.930 . S
C2190 C2188 1.384 . S
C2190 C2191 1.372 . S
C2191 C2190 1.372 . S
C2191 C2192 1.400 . S
C2191 C2196 1.490 . S
C2192 H2182 0.930 . S
C2192 C2191 1.400 . S
C2192 C2195 1.386 . S
H2193 C2209 0.930 . S
H2194 C2210 0.931 . S
C2195 H2183 0.929 . S
C2195 C2189 1.390 . S
C2195 C2192 1.386 . S
C2196 C2191 1.490 . S
C2196 C2198 1.395 . S
C2196 C2199 1.403 . S
H2197 C2203 0.930 . S
C2198 H2184 0.930 . S
C2198 C2196 1.395 . S
C2198 C2201 1.403 . S
C2199 C2196 1.403 . S
C2199 C2200 1.524 . S
C2199 C2203 1.400 . S
C2200 H2185 0.960 . S
C2200 H2186 0.960 . S
C2200 H2187 0.960 . S
C2200 C2199 1.524 . S
C2201 C2198 1.403 . S
C2201 C2202 1.392 . S
C2201 C2205 1.495 . S
C2202 C2201 1.392 . S
C2202 C2203 1.385 . S
C2202 C2204 1.478 . S
C2203 H2197 0.930 . S
C2203 C2199 1.400 . S
C2203 C2202 1.385 . S
C2204 C2202 1.478 . S
C2204 C2206 1.381 . S
C2204 C2210 1.383 . S
C2205 C2201 1.495 . S
C2205 H2211 0.959 . S
C2205 H2212 0.961 . S
C2205 H2213 0.960 . S
C2206 C2204 1.381 . S
C2206 C2207 1.394 . S
C2206 H2214 0.930 . S
C2207 C2206 1.394 . S
C2207 C2208 1.383 . S
C2207 H2215 0.929 . S
C2208 C2207 1.383 . S
C2208 C2209 1.377 . S
C2209 H2193 0.930 . S
C2209 C2208 1.377 . S
C2209 C2210 1.379 . S
C2210 H2194 0.931 . S
C2210 C2204 1.383 . S
C2210 C2209 1.379 . S
H2211 C2205 0.959 . S
H2212 C2205 0.961 . S
H2213 C2205 0.960 . S
H2214 C2206 0.930 . S
H2215 C2207 0.929 . S
H2216 C2224 0.929 . S
H2217 C2226 0.930 . S
H2218 C2228 0.930 . S
H2219 C2231 0.929 . S
H2220 C2234 0.930 . S
H2221 C2236 0.960 . S
H2222 C2236 0.960 . S
H2223 C2236 0.960 . S
C2224 H2216 0.929 . S
C2224 C2225 1.377 . S
C2224 C2226 1.384 . S
C2225 C2224 1.377 . S
C2225 C2231 1.390 . S
C2226 H2217 0.930 . S
C2226 C2224 1.384 . S
C2226 C2227 1.372 . S
C2227 C2226 1.372 . S
C2227 C2228 1.400 . S
C2227 C2232 1.490 . S
C2228 H2218 0.930 . S
C2228 C2227 1.400 . S
C2228 C2231 1.386 . S
H2229 C2245 0.930 . S
H2230 C2246 0.931 . S
C2231 H2219 0.929 . S
C2231 C2225 1.390 . S
C2231 C2228 1.386 . S
C2232 C2227 1.490 . S
C2232 C2234 1.395 . S
C2232 C2235 1.403 1_545 S
H2233 C2239 0.930 . S
C2234 H2220 0.930 . S
C2234 C2232 1.395 . S
C2234 C2237 1.403 . S
C2235 C2232 1.403 1_565 S
C2235 C2236 1.524 . S
C2235 C2239 1.400 . S
C2236 H2221 0.960 . S
C2236 H2222 0.960 . S
C2236 H2223 0.960 . S
C2236 C2235 1.524 . S
C2237 C2234 1.403 . S
C2237 C2238 1.392 1_545 S
C2237 C2241 1.495 . S
C2238 C2237 1.392 1_565 S
C2238 C2239 1.385 . S
C2238 C2240 1.478 . S
C2239 H2233 0.930 . S
C2239 C2235 1.400 . S
C2239 C2238 1.385 . S
C2240 C2238 1.478 . S
C2240 C2242 1.381 . S
C2240 C2246 1.383 . S
C2241 C2237 1.495 . S
C2241 H2247 0.959 . S
C2241 H2248 0.961 . S
C2241 H2249 0.960 . S
C2242 C2240 1.381 . S
C2242 C2243 1.394 . S
C2242 H2250 0.930 . S
C2243 C2242 1.394 . S
C2243 C2244 1.383 . S
C2243 H2251 0.929 . S
C2244 C2243 1.383 . S
C2244 C2245 1.377 . S
C2245 H2229 0.930 . S
C2245 C2244 1.377 . S
C2245 C2246 1.379 . S
C2246 H2230 0.931 . S
C2246 C2240 1.383 . S
C2246 C2245 1.379 . S
H2247 C2241 0.959 . S
H2248 C2241 0.961 . S
H2249 C2241 0.960 . S
H2250 C2242 0.930 . S
H2251 C2243 0.929 . S
H2252 C2260 0.929 . S
H2253 C2262 0.930 . S
H2254 C2264 0.930 . S
H2255 C2267 0.929 . S
H2256 C2270 0.930 . S
H2257 C2272 0.960 . S
H2258 C2272 0.960 . S
H2259 C2272 0.960 . S
C2260 H2252 0.929 . S
C2260 C2261 1.377 . S
C2260 C2262 1.384 . S
C2261 C2260 1.377 . S
C2261 C2267 1.390 . S
C2262 H2253 0.930 . S
C2262 C2260 1.384 . S
C2262 C2263 1.372 . S
C2263 C2262 1.372 . S
C2263 C2264 1.400 . S
C2263 C2268 1.490 . S
C2264 H2254 0.930 . S
C2264 C2263 1.400 . S
C2264 C2267 1.386 . S
H2265 C2281 0.930 . S
H2266 C2282 0.931 . S
C2267 H2255 0.929 . S
C2267 C2261 1.390 . S
C2267 C2264 1.386 . S
C2268 C2263 1.490 . S
C2268 C2270 1.395 . S
C2268 C2271 1.403 1_554 S
H2269 C2275 0.930 . S
C2270 H2256 0.930 . S
C2270 C2268 1.395 . S
C2270 C2273 1.403 . S
C2271 C2268 1.403 1_556 S
C2271 C2272 1.524 . S
C2271 C2275 1.400 . S
C2272 H2257 0.960 . S
C2272 H2258 0.960 . S
C2272 H2259 0.960 . S
C2272 C2271 1.524 . S
C2273 C2270 1.403 . S
C2273 C2274 1.392 1_554 S
C2273 C2277 1.495 . S
C2274 C2273 1.392 1_556 S
C2274 C2275 1.385 . S
C2274 C2276 1.478 . S
C2275 H2269 0.930 . S
C2275 C2271 1.400 . S
C2275 C2274 1.385 . S
C2276 C2274 1.478 . S
C2276 C2278 1.381 . S
C2276 C2282 1.383 . S
C2277 C2273 1.495 . S
C2277 H2283 0.959 . S
C2277 H2284 0.961 . S
C2277 H2285 0.960 . S
C2278 C2276 1.381 . S
C2278 C2279 1.394 . S
C2278 H2286 0.930 . S
C2279 C2278 1.394 . S
C2279 C2280 1.383 . S
C2279 H2287 0.929 . S
C2280 C2279 1.383 . S
C2280 C2281 1.377 . S
C2281 H2265 0.930 . S
C2281 C2280 1.377 . S
C2281 C2282 1.379 . S
C2282 H2266 0.931 . S
C2282 C2276 1.383 . S
C2282 C2281 1.379 . S
H2283 C2277 0.959 . S
H2284 C2277 0.961 . S
H2285 C2277 0.960 . S
H2286 C2278 0.930 . S
H2287 C2279 0.929 . S
H2288 C2296 0.929 . S
H2289 C2298 0.930 . S
H2290 C2300 0.930 . S
H2291 C2303 0.929 . S
H2292 C2306 0.930 . S
H2293 C2308 0.960 . S
H2294 C2308 0.960 . S
H2295 C2308 0.960 . S
C2296 H2288 0.929 . S
C2296 C2297 1.377 . S
C2296 C2298 1.384 . S
C2297 C2296 1.377 . S
C2297 C2303 1.390 . S
C2298 H2289 0.930 . S
C2298 C2296 1.384 . S
C2298 C2299 1.372 . S
C2299 C2298 1.372 . S
C2299 C2300 1.400 . S
C2299 C2304 1.490 . S
C2300 H2290 0.930 . S
C2300 C2299 1.400 . S
C2300 C2303 1.386 . S
H2301 C2317 0.930 . S
H2302 C2318 0.931 . S
C2303 H2291 0.929 . S
C2303 C2297 1.390 . S
C2303 C2300 1.386 . S
C2304 C2299 1.490 . S
C2304 C2306 1.395 . S
C2304 C2307 1.403 1_545 S
H2305 C2311 0.930 . S
C2306 H2292 0.930 . S
C2306 C2304 1.395 . S
C2306 C2309 1.403 . S
C2307 C2304 1.403 1_565 S
C2307 C2308 1.524 . S
C2307 C2311 1.400 . S
C2308 H2293 0.960 . S
C2308 H2294 0.960 . S
C2308 H2295 0.960 . S
C2308 C2307 1.524 . S
C2309 C2306 1.403 . S
C2309 C2310 1.392 1_545 S
C2309 C2313 1.495 . S
C2310 C2309 1.392 1_565 S
C2310 C2311 1.385 . S
C2310 C2312 1.478 . S
C2311 H2305 0.930 . S
C2311 C2307 1.400 . S
C2311 C2310 1.385 . S
C2312 C2310 1.478 . S
C2312 C2314 1.381 . S
C2312 C2318 1.383 . S
C2313 C2309 1.495 . S
C2313 H2319 0.959 . S
C2313 H2320 0.961 . S
C2313 H2321 0.960 . S
C2314 C2312 1.381 . S
C2314 C2315 1.394 . S
C2314 H2322 0.930 . S
C2315 C2314 1.394 . S
C2315 C2316 1.383 . S
C2315 H2323 0.929 . S
C2316 C2315 1.383 . S
C2316 C2317 1.377 . S
C2317 H2301 0.930 . S
C2317 C2316 1.377 . S
C2317 C2318 1.379 . S
C2318 H2302 0.931 . S
C2318 C2312 1.383 . S
C2318 C2317 1.379 . S
H2319 C2313 0.959 . S
H2320 C2313 0.961 . S
H2321 C2313 0.960 . S
H2322 C2314 0.930 . S
H2323 C2315 0.929 . S
H2324 C2332 0.929 . S
H2325 C2334 0.930 . S
H2326 C2336 0.930 . S
H2327 C2339 0.929 . S
H2328 C2342 0.930 . S
H2329 C2344 0.960 . S
H2330 C2344 0.960 . S
H2331 C2344 0.960 . S
C2332 H2324 0.929 . S
C2332 C2333 1.377 . S
C2332 C2334 1.384 . S
C2333 C2332 1.377 . S
C2333 C2339 1.390 . S
C2334 H2325 0.930 . S
C2334 C2332 1.384 . S
C2334 C2335 1.372 . S
C2335 C2334 1.372 . S
C2335 C2336 1.400 . S
C2335 C2340 1.490 . S
C2336 H2326 0.930 . S
C2336 C2335 1.400 . S
C2336 C2339 1.386 . S
H2337 C2353 0.930 . S
H2338 C2354 0.931 . S
C2339 H2327 0.929 . S
C2339 C2333 1.390 . S
C2339 C2336 1.386 . S
C2340 C2335 1.490 . S
C2340 C2342 1.395 . S
C2340 C2343 1.403 . S
H2341 C2347 0.930 . S
C2342 H2328 0.930 . S
C2342 C2340 1.395 . S
C2342 C2345 1.403 . S
C2343 C2340 1.403 . S
C2343 C2344 1.524 . S
C2343 C2347 1.400 . S
C2344 H2329 0.960 . S
C2344 H2330 0.960 . S
C2344 H2331 0.960 . S
C2344 C2343 1.524 . S
C2345 C2342 1.403 . S
C2345 C2346 1.392 . S
C2345 C2349 1.495 . S
C2346 C2345 1.392 . S
C2346 C2347 1.385 . S
C2346 C2348 1.478 . S
C2347 H2341 0.930 . S
C2347 C2343 1.400 . S
C2347 C2346 1.385 . S
C2348 C2346 1.478 . S
C2348 C2350 1.381 . S
C2348 C2354 1.383 . S
C2349 C2345 1.495 . S
C2349 H2355 0.959 . S
C2349 H2356 0.961 . S
C2349 H2357 0.960 . S
C2350 C2348 1.381 . S
C2350 C2351 1.394 . S
C2350 H2358 0.930 . S
C2351 C2350 1.394 . S
C2351 C2352 1.383 . S
C2351 H2359 0.929 . S
C2352 C2351 1.383 . S
C2352 C2353 1.377 . S
C2353 H2337 0.930 . S
C2353 C2352 1.377 . S
C2353 C2354 1.379 . S
C2354 H2338 0.931 . S
C2354 C2348 1.383 . S
C2354 C2353 1.379 . S
H2355 C2349 0.959 . S
H2356 C2349 0.961 . S
H2357 C2349 0.960 . S
H2358 C2350 0.930 . S
H2359 C2351 0.929 . S
H2360 C2368 0.929 . S
H2361 C2370 0.930 . S
H2362 C2372 0.930 . S
H2363 C2375 0.929 . S
H2364 C2378 0.930 . S
H2365 C2380 0.958 1_565 S
H2366 C2380 0.960 . S
H2367 C2380 0.960 . S
C2368 H2360 0.929 . S
C2368 C2369 1.377 . S
C2368 C2370 1.384 . S
C2369 C2368 1.377 . S
C2369 C2375 1.390 . S
C2370 H2361 0.930 . S
C2370 C2368 1.384 . S
C2370 C2371 1.372 . S
C2371 C2370 1.372 . S
C2371 C2372 1.400 . S
C2371 C2376 1.490 . S
C2372 H2362 0.930 . S
C2372 C2371 1.400 . S
C2372 C2375 1.386 . S
H2373 C2389 0.930 . S
H2374 C2390 0.931 . S
C2375 H2363 0.929 . S
C2375 C2369 1.390 . S
C2375 C2372 1.386 . S
C2376 C2371 1.490 . S
C2376 C2378 1.395 . S
C2376 C2379 1.403 . S
H2377 C2383 0.930 . S
C2378 H2364 0.930 . S
C2378 C2376 1.395 . S
C2378 C2381 1.403 1_545 S
C2379 C2376 1.403 . S
C2379 C2380 1.524 . S
C2379 C2383 1.400 1_545 S
C2380 H2365 0.958 1_545 S
C2380 H2366 0.960 . S
C2380 H2367 0.960 . S
C2380 C2379 1.524 . S
C2381 C2378 1.403 1_565 S
C2381 C2382 1.392 . S
C2381 C2385 1.495 . S
C2382 C2381 1.392 . S
C2382 C2383 1.385 . S
C2382 C2384 1.478 . S
C2383 H2377 0.930 . S
C2383 C2379 1.400 1_565 S
C2383 C2382 1.385 . S
C2384 C2382 1.478 . S
C2384 C2386 1.381 . S
C2384 C2390 1.383 . S
C2385 C2381 1.495 . S
C2385 H2391 0.959 . S
C2385 H2392 0.961 . S
C2385 H2393 0.960 . S
C2386 C2384 1.381 . S
C2386 C2387 1.394 . S
C2386 H2394 0.930 . S
C2387 C2386 1.394 . S
C2387 C2388 1.383 . S
C2387 H2395 0.929 . S
C2388 C2387 1.383 . S
C2388 C2389 1.377 . S
C2389 H2373 0.930 . S
C2389 C2388 1.377 . S
C2389 C2390 1.379 . S
C2390 H2374 0.931 . S
C2390 C2384 1.383 . S
C2390 C2389 1.379 . S
H2391 C2385 0.959 . S
H2392 C2385 0.961 . S
H2393 C2385 0.960 . S
H2394 C2386 0.930 . S
H2395 C2387 0.929 . S
H2396 C2404 0.929 . S
H2397 C2406 0.930 . S
H2398 C2408 0.930 . S
H2399 C2411 0.929 . S
H2400 C2414 0.930 . S
H2401 C2416 0.960 . S
H2402 C2416 0.960 . S
H2403 C2416 0.960 . S
C2404 H2396 0.929 . S
C2404 C2405 1.377 . S
C2404 C2406 1.384 . S
C2405 C2404 1.377 . S
C2405 C2411 1.390 . S
C2406 H2397 0.930 . S
C2406 C2404 1.384 . S
C2406 C2407 1.372 . S
C2407 C2406 1.372 . S
C2407 C2408 1.400 . S
C2407 C2412 1.490 . S
C2408 H2398 0.930 . S
C2408 C2407 1.400 . S
C2408 C2411 1.386 . S
H2409 C2425 0.930 . S
H2410 C2426 0.931 . S
C2411 H2399 0.929 . S
C2411 C2405 1.390 . S
C2411 C2408 1.386 . S
C2412 C2407 1.490 . S
C2412 C2414 1.395 1_556 S
C2412 C2415 1.403 . S
H2413 C2419 0.930 . S
C2414 H2400 0.930 . S
C2414 C2412 1.395 1_554 S
C2414 C2417 1.403 . S
C2415 C2412 1.403 . S
C2415 C2416 1.524 . S
C2415 C2419 1.400 . S
C2416 H2401 0.960 . S
C2416 H2402 0.960 . S
C2416 H2403 0.960 . S
C2416 C2415 1.524 . S
C2417 C2414 1.403 . S
C2417 C2418 1.392 . S
C2417 C2421 1.495 . S
C2418 C2417 1.392 . S
C2418 C2419 1.385 1_554 S
C2418 C2420 1.478 . S
C2419 H2413 0.930 . S
C2419 C2415 1.400 . S
C2419 C2418 1.385 1_556 S
C2420 C2418 1.478 . S
C2420 C2422 1.381 . S
C2420 C2426 1.383 . S
C2421 C2417 1.495 . S
C2421 H2427 0.959 . S
C2421 H2428 0.961 . S
C2421 H2429 0.960 . S
C2422 C2420 1.381 . S
C2422 C2423 1.394 . S
C2422 H2430 0.930 . S
C2423 C2422 1.394 . S
C2423 C2424 1.383 . S
C2423 H2431 0.929 . S
C2424 C2423 1.383 . S
C2424 C2425 1.377 . S
C2425 H2409 0.930 . S
C2425 C2424 1.377 . S
C2425 C2426 1.379 . S
C2426 H2410 0.931 . S
C2426 C2420 1.383 . S
C2426 C2425 1.379 . S
H2427 C2421 0.959 . S
H2428 C2421 0.961 . S
H2429 C2421 0.960 . S
H2430 C2422 0.930 . S
H2431 C2423 0.929 . S
H2432 C2440 0.929 . S
H2433 C2442 0.930 . S
H2434 C2444 0.930 . S
H2435 C2447 0.929 . S
H2436 C2450 0.930 . S
H2437 C2452 0.960 . S
H2438 C2452 0.960 . S
H2439 C2452 0.960 . S
C2440 H2432 0.929 . S
C2440 C2441 1.377 . S
C2440 C2442 1.384 . S
C2441 C2440 1.377 . S
C2441 C2447 1.390 . S
C2442 H2433 0.930 . S
C2442 C2440 1.384 . S
C2442 C2443 1.372 . S
C2443 C2442 1.372 . S
C2443 C2444 1.400 . S
C2443 C2448 1.490 . S
C2444 H2434 0.930 . S
C2444 C2443 1.400 . S
C2444 C2447 1.386 . S
H2445 C2461 0.930 . S
H2446 C2462 0.931 . S
C2447 H2435 0.929 . S
C2447 C2441 1.390 . S
C2447 C2444 1.386 . S
C2448 C2443 1.490 . S
C2448 C2450 1.395 . S
C2448 C2451 1.403 . S
H2449 C2455 0.930 . S
C2450 H2436 0.930 . S
C2450 C2448 1.395 . S
C2450 C2453 1.403 . S
C2451 C2448 1.403 . S
C2451 C2452 1.524 . S
C2451 C2455 1.400 . S
C2452 H2437 0.960 . S
C2452 H2438 0.960 . S
C2452 H2439 0.960 . S
C2452 C2451 1.524 . S
C2453 C2450 1.403 . S
C2453 C2454 1.392 . S
C2453 C2457 1.495 . S
C2454 C2453 1.392 . S
C2454 C2455 1.385 . S
C2454 C2456 1.478 . S
C2455 H2449 0.930 . S
C2455 C2451 1.400 . S
C2455 C2454 1.385 . S
C2456 C2454 1.478 . S
C2456 C2458 1.381 . S
C2456 C2462 1.383 . S
C2457 C2453 1.495 . S
C2457 H2463 0.959 . S
C2457 H2464 0.961 . S
C2457 H2465 0.960 . S
C2458 C2456 1.381 . S
C2458 C2459 1.394 . S
C2458 H2466 0.930 . S
C2459 C2458 1.394 . S
C2459 C2460 1.383 . S
C2459 H2467 0.929 . S
C2460 C2459 1.383 . S
C2460 C2461 1.377 . S
C2461 H2445 0.930 . S
C2461 C2460 1.377 . S
C2461 C2462 1.379 . S
C2462 H2446 0.931 . S
C2462 C2456 1.383 . S
C2462 C2461 1.379 . S
H2463 C2457 0.959 . S
H2464 C2457 0.961 . S
H2465 C2457 0.960 . S
H2466 C2458 0.930 . S
H2467 C2459 0.929 . S
H2468 C2476 0.929 . S
H2469 C2478 0.930 . S
H2470 C2480 0.930 . S
H2471 C2483 0.929 . S
H2472 C2486 0.930 . S
H2473 C2488 0.960 . S
H2474 C2488 0.960 . S
H2475 C2488 0.960 . S
C2476 H2468 0.929 . S
C2476 C2477 1.377 . S
C2476 C2478 1.384 . S
C2477 C2476 1.377 . S
C2477 C2483 1.390 . S
C2478 H2469 0.930 . S
C2478 C2476 1.384 . S
C2478 C2479 1.372 . S
C2479 C2478 1.372 . S
C2479 C2480 1.400 . S
C2479 C2484 1.490 . S
C2480 H2470 0.930 . S
C2480 C2479 1.400 . S
C2480 C2483 1.386 . S
H2481 C2497 0.930 . S
H2482 C2498 0.931 . S
C2483 H2471 0.929 . S
C2483 C2477 1.390 . S
C2483 C2480 1.386 . S
C2484 C2479 1.490 . S
C2484 C2486 1.395 . S
C2484 C2487 1.403 1_556 S
H2485 C2491 0.930 . S
C2486 H2472 0.930 . S
C2486 C2484 1.395 . S
C2486 C2489 1.403 . S
C2487 C2484 1.403 1_554 S
C2487 C2488 1.524 . S
C2487 C2491 1.400 . S
C2488 H2473 0.960 . S
C2488 H2474 0.960 . S
C2488 H2475 0.960 . S
C2488 C2487 1.524 . S
C2489 C2486 1.403 . S
C2489 C2490 1.392 1_556 S
C2489 C2493 1.495 . S
C2490 C2489 1.392 1_554 S
C2490 C2491 1.385 . S
C2490 C2492 1.478 . S
C2491 H2485 0.930 . S
C2491 C2487 1.400 . S
C2491 C2490 1.385 . S
C2492 C2490 1.478 . S
C2492 C2494 1.381 . S
C2492 C2498 1.383 . S
C2493 C2489 1.495 . S
C2493 H2499 0.959 . S
C2493 H2500 0.961 . S
C2493 H2501 0.960 . S
C2494 C2492 1.381 . S
C2494 C2495 1.394 . S
C2494 H2502 0.930 . S
C2495 C2494 1.394 . S
C2495 C2496 1.383 . S
C2495 H2503 0.929 . S
C2496 C2495 1.383 . S
C2496 C2497 1.377 . S
C2497 H2481 0.930 . S
C2497 C2496 1.377 . S
C2497 C2498 1.379 . S
C2498 H2482 0.931 . S
C2498 C2492 1.383 . S
C2498 C2497 1.379 . S
H2499 C2493 0.959 . S
H2500 C2493 0.961 . S
H2501 C2493 0.960 . S
H2502 C2494 0.930 . S
H2503 C2495 0.929 . S
H2504 C2512 0.929 . S
H2505 C2514 0.930 . S
H2506 C2516 0.930 . S
H2507 C2519 0.929 . S
H2508 C2522 0.930 . S
H2509 C2524 0.960 . S
H2510 C2524 0.960 . S
H2511 C2524 0.960 . S
C2512 H2504 0.929 . S
C2512 C2513 1.377 . S
C2512 C2514 1.384 . S
C2513 C2512 1.377 . S
C2513 C2519 1.390 . S
C2514 H2505 0.930 . S
C2514 C2512 1.384 . S
C2514 C2515 1.372 . S
C2515 C2514 1.372 . S
C2515 C2516 1.400 . S
C2515 C2520 1.490 . S
C2516 H2506 0.930 . S
C2516 C2515 1.400 . S
C2516 C2519 1.386 . S
H2517 C2533 0.930 . S
H2518 C2534 0.931 . S
C2519 H2507 0.929 . S
C2519 C2513 1.390 . S
C2519 C2516 1.386 . S
C2520 C2515 1.490 . S
C2520 C2522 1.395 . S
C2520 C2523 1.403 . S
H2521 C2527 0.930 . S
C2522 H2508 0.930 . S
C2522 C2520 1.395 . S
C2522 C2525 1.403 . S
C2523 C2520 1.403 . S
C2523 C2524 1.524 . S
C2523 C2527 1.400 . S
C2524 H2509 0.960 . S
C2524 H2510 0.960 . S
C2524 H2511 0.960 . S
C2524 C2523 1.524 . S
C2525 C2522 1.403 . S
C2525 C2526 1.392 . S
C2525 C2529 1.495 . S
C2526 C2525 1.392 . S
C2526 C2527 1.385 . S
C2526 C2528 1.478 . S
C2527 H2521 0.930 . S
C2527 C2523 1.400 . S
C2527 C2526 1.385 . S
C2528 C2526 1.478 . S
C2528 C2530 1.381 . S
C2528 C2534 1.383 . S
C2529 C2525 1.495 . S
C2529 H2535 0.959 . S
C2529 H2536 0.961 . S
C2529 H2537 0.960 . S
C2530 C2528 1.381 . S
C2530 C2531 1.394 . S
C2530 H2538 0.930 . S
C2531 C2530 1.394 . S
C2531 C2532 1.383 . S
C2531 H2539 0.929 . S
C2532 C2531 1.383 . S
C2532 C2533 1.377 . S
C2533 H2517 0.930 . S
C2533 C2532 1.377 . S
C2533 C2534 1.379 . S
C2534 H2518 0.931 . S
C2534 C2528 1.383 . S
C2534 C2533 1.379 . S
H2535 C2529 0.959 . S
H2536 C2529 0.961 . S
H2537 C2529 0.960 . S
H2538 C2530 0.930 . S
H2539 C2531 0.929 . S
H2540 C2548 0.929 . S
H2541 C2550 0.930 . S
H2542 C2552 0.930 . S
H2543 C2555 0.929 . S
H2544 C2558 0.930 . S
H2545 C2560 0.960 . S
H2546 C2560 0.960 . S
H2547 C2560 0.960 . S
C2548 H2540 0.929 . S
C2548 C2549 1.377 . S
C2548 C2550 1.384 . S
C2549 C2548 1.377 . S
C2549 C2555 1.390 . S
C2550 H2541 0.930 . S
C2550 C2548 1.384 . S
C2550 C2551 1.372 . S
C2551 C2550 1.372 . S
C2551 C2552 1.400 . S
C2551 C2556 1.490 . S
C2552 H2542 0.930 . S
C2552 C2551 1.400 . S
C2552 C2555 1.386 . S
H2553 C2569 0.930 . S
H2554 C2570 0.931 . S
C2555 H2543 0.929 . S
C2555 C2549 1.390 . S
C2555 C2552 1.386 . S
C2556 C2551 1.490 . S
C2556 C2558 1.395 . S
C2556 C2559 1.403 . S
H2557 C2563 0.930 . S
C2558 H2544 0.930 . S
C2558 C2556 1.395 . S
C2558 C2561 1.403 . S
C2559 C2556 1.403 . S
C2559 C2560 1.524 . S
C2559 C2563 1.400 . S
C2560 H2545 0.960 . S
C2560 H2546 0.960 . S
C2560 H2547 0.960 . S
C2560 C2559 1.524 . S
C2561 C2558 1.403 . S
C2561 C2562 1.392 . S
C2561 C2565 1.495 . S
C2562 C2561 1.392 . S
C2562 C2563 1.385 . S
C2562 C2564 1.478 . S
C2563 H2557 0.930 . S
C2563 C2559 1.400 . S
C2563 C2562 1.385 . S
C2564 C2562 1.478 . S
C2564 C2566 1.381 . S
C2564 C2570 1.383 . S
C2565 C2561 1.495 . S
C2565 H2571 0.959 . S
C2565 H2572 0.961 . S
C2565 H2573 0.960 . S
C2566 C2564 1.381 . S
C2566 C2567 1.394 . S
C2566 H2574 0.930 . S
C2567 C2566 1.394 . S
C2567 C2568 1.383 . S
C2567 H2575 0.929 . S
C2568 C2567 1.383 . S
C2568 C2569 1.377 . S
C2569 H2553 0.930 . S
C2569 C2568 1.377 . S
C2569 C2570 1.379 . S
C2570 H2554 0.931 . S
C2570 C2564 1.383 . S
C2570 C2569 1.379 . S
H2571 C2565 0.959 . S
H2572 C2565 0.961 . S
H2573 C2565 0.960 . S
H2574 C2566 0.930 . S
H2575 C2567 0.929 . S
H2576 C2584 0.929 . S
H2577 C2586 0.930 . S
H2578 C2588 0.930 . S
H2579 C2591 0.929 . S
H2580 C2594 0.930 . S
H2581 C2596 0.960 . S
H2582 C2596 0.960 . S
H2583 C2596 0.960 . S
C2584 H2576 0.929 . S
C2584 C2585 1.377 . S
C2584 C2586 1.384 . S
C2585 C2584 1.377 . S
C2585 C2591 1.390 . S
C2586 H2577 0.930 . S
C2586 C2584 1.384 . S
C2586 C2587 1.372 . S
C2587 C2586 1.372 . S
C2587 C2588 1.400 . S
C2587 C2592 1.490 . S
C2588 H2578 0.930 . S
C2588 C2587 1.400 . S
C2588 C2591 1.386 . S
H2589 C2605 0.930 . S
H2590 C2606 0.931 . S
C2591 H2579 0.929 . S
C2591 C2585 1.390 . S
C2591 C2588 1.386 . S
C2592 C2587 1.490 . S
C2592 C2594 1.395 . S
C2592 C2595 1.403 . S
H2593 C2599 0.930 . S
C2594 H2580 0.930 . S
C2594 C2592 1.395 . S
C2594 C2597 1.403 . S
C2595 C2592 1.403 . S
C2595 C2596 1.524 . S
C2595 C2599 1.400 . S
C2596 H2581 0.960 . S
C2596 H2582 0.960 . S
C2596 H2583 0.960 . S
C2596 C2595 1.524 . S
C2597 C2594 1.403 . S
C2597 C2598 1.392 . S
C2597 C2601 1.495 . S
C2598 C2597 1.392 . S
C2598 C2599 1.385 . S
C2598 C2600 1.478 . S
C2599 H2593 0.930 . S
C2599 C2595 1.400 . S
C2599 C2598 1.385 . S
C2600 C2598 1.478 . S
C2600 C2602 1.381 . S
C2600 C2606 1.383 . S
C2601 C2597 1.495 . S
C2601 H2607 0.959 . S
C2601 H2608 0.961 . S
C2601 H2609 0.960 . S
C2602 C2600 1.381 . S
C2602 C2603 1.394 . S
C2602 H2610 0.930 . S
C2603 C2602 1.394 . S
C2603 C2604 1.383 . S
C2603 H2611 0.929 . S
C2604 C2603 1.383 . S
C2604 C2605 1.377 . S
C2605 H2589 0.930 . S
C2605 C2604 1.377 . S
C2605 C2606 1.379 . S
C2606 H2590 0.931 . S
C2606 C2600 1.383 . S
C2606 C2605 1.379 . S
H2607 C2601 0.959 . S
H2608 C2601 0.961 . S
H2609 C2601 0.960 . S
H2610 C2602 0.930 . S
H2611 C2603 0.929 . S
H2612 C2620 0.929 . S
H2613 C2622 0.930 . S
H2614 C2624 0.930 . S
H2615 C2627 0.929 . S
H2616 C2630 0.930 . S
H2617 C2632 0.960 . S
H2618 C2632 0.960 . S
H2619 C2632 0.960 . S
C2620 H2612 0.929 . S
C2620 C2621 1.377 . S
C2620 C2622 1.384 . S
C2621 C2620 1.377 . S
C2621 C2627 1.390 . S
C2622 H2613 0.930 . S
C2622 C2620 1.384 . S
C2622 C2623 1.372 . S
C2623 C2622 1.372 . S
C2623 C2624 1.400 . S
C2623 C2628 1.490 . S
C2624 H2614 0.930 . S
C2624 C2623 1.400 . S
C2624 C2627 1.386 . S
H2625 C2641 0.930 . S
H2626 C2642 0.931 . S
C2627 H2615 0.929 . S
C2627 C2621 1.390 . S
C2627 C2624 1.386 . S
C2628 C2623 1.490 . S
C2628 C2630 1.395 . S
C2628 C2631 1.403 1_556 S
H2629 C2635 0.930 . S
C2630 H2616 0.930 . S
C2630 C2628 1.395 . S
C2630 C2633 1.403 . S
C2631 C2628 1.403 1_554 S
C2631 C2632 1.524 . S
C2631 C2635 1.400 . S
C2632 H2617 0.960 . S
C2632 H2618 0.960 . S
C2632 H2619 0.960 . S
C2632 C2631 1.524 . S
C2633 C2630 1.403 . S
C2633 C2634 1.392 1_556 S
C2633 C2637 1.495 . S
C2634 C2633 1.392 1_554 S
C2634 C2635 1.385 . S
C2634 C2636 1.478 . S
C2635 H2629 0.930 . S
C2635 C2631 1.400 . S
C2635 C2634 1.385 . S
C2636 C2634 1.478 . S
C2636 C2638 1.381 . S
C2636 C2642 1.383 . S
C2637 C2633 1.495 . S
C2637 H2643 0.959 . S
C2637 H2644 0.961 . S
C2637 H2645 0.960 . S
C2638 C2636 1.381 . S
C2638 C2639 1.394 . S
C2638 H2646 0.930 . S
C2639 C2638 1.394 . S
C2639 C2640 1.383 . S
C2639 H2647 0.929 . S
C2640 C2639 1.383 . S
C2640 C2641 1.377 . S
C2641 H2625 0.930 . S
C2641 C2640 1.377 . S
C2641 C2642 1.379 . S
C2642 H2626 0.931 . S
C2642 C2636 1.383 . S
C2642 C2641 1.379 . S
H2643 C2637 0.959 . S
H2644 C2637 0.961 . S
H2645 C2637 0.960 . S
H2646 C2638 0.930 . S
H2647 C2639 0.929 . S
H2648 C2656 0.929 . S
H2649 C2658 0.930 . S
H2650 C2660 0.930 . S
H2651 C2663 0.929 . S
H2652 C2666 0.930 . S
H2653 C2668 0.960 . S
H2654 C2668 0.960 . S
H2655 C2668 0.960 . S
C2656 H2648 0.929 . S
C2656 C2657 1.377 . S
C2656 C2658 1.384 . S
C2657 C2656 1.377 . S
C2657 C2663 1.390 . S
C2658 H2649 0.930 . S
C2658 C2656 1.384 . S
C2658 C2659 1.372 . S
C2659 C2658 1.372 . S
C2659 C2660 1.400 . S
C2659 C2664 1.490 . S
C2660 H2650 0.930 . S
C2660 C2659 1.400 . S
C2660 C2663 1.386 . S
H2661 C2677 0.930 . S
H2662 C2678 0.931 . S
C2663 H2651 0.929 . S
C2663 C2657 1.390 . S
C2663 C2660 1.386 . S
C2664 C2659 1.490 . S
C2664 C2666 1.395 . S
C2664 C2667 1.403 . S
H2665 C2671 0.930 . S
C2666 H2652 0.930 . S
C2666 C2664 1.395 . S
C2666 C2669 1.403 . S
C2667 C2664 1.403 . S
C2667 C2668 1.524 . S
C2667 C2671 1.400 . S
C2668 H2653 0.960 . S
C2668 H2654 0.960 . S
C2668 H2655 0.960 . S
C2668 C2667 1.524 . S
C2669 C2666 1.403 . S
C2669 C2670 1.392 . S
C2669 C2673 1.495 . S
C2670 C2669 1.392 . S
C2670 C2671 1.385 . S
C2670 C2672 1.478 . S
C2671 H2665 0.930 . S
C2671 C2667 1.400 . S
C2671 C2670 1.385 . S
C2672 C2670 1.478 . S
C2672 C2674 1.381 . S
C2672 C2678 1.383 . S
C2673 C2669 1.495 . S
C2673 H2679 0.959 . S
C2673 H2680 0.961 . S
C2673 H2681 0.960 . S
C2674 C2672 1.381 . S
C2674 C2675 1.394 . S
C2674 H2682 0.930 . S
C2675 C2674 1.394 . S
C2675 C2676 1.383 . S
C2675 H2683 0.929 . S
C2676 C2675 1.383 . S
C2676 C2677 1.377 . S
C2677 H2661 0.930 . S
C2677 C2676 1.377 . S
C2677 C2678 1.379 . S
C2678 H2662 0.931 . S
C2678 C2672 1.383 . S
C2678 C2677 1.379 . S
H2679 C2673 0.959 . S
H2680 C2673 0.961 . S
H2681 C2673 0.960 . S
H2682 C2674 0.930 . S
H2683 C2675 0.929 . S
H2684 C2692 0.929 . S
H2685 C2694 0.930 . S
H2686 C2696 0.930 . S
H2687 C2699 0.929 . S
H2688 C2702 0.930 . S
H2689 C2704 0.960 . S
H2690 C2704 0.960 . S
H2691 C2704 0.960 . S
C2692 H2684 0.929 . S
C2692 C2693 1.377 . S
C2692 C2694 1.384 . S
C2693 C2692 1.377 . S
C2693 C2699 1.390 . S
C2694 H2685 0.930 . S
C2694 C2692 1.384 . S
C2694 C2695 1.372 . S
C2695 C2694 1.372 . S
C2695 C2696 1.400 . S
C2695 C2700 1.490 . S
C2696 H2686 0.930 . S
C2696 C2695 1.400 . S
C2696 C2699 1.386 . S
H2697 C2713 0.930 . S
H2698 C2714 0.931 . S
C2699 H2687 0.929 . S
C2699 C2693 1.390 . S
C2699 C2696 1.386 . S
C2700 C2695 1.490 . S
C2700 C2702 1.395 . S
C2700 C2703 1.403 . S
H2701 C2707 0.930 . S
C2702 H2688 0.930 . S
C2702 C2700 1.395 . S
C2702 C2705 1.403 . S
C2703 C2700 1.403 . S
C2703 C2704 1.524 . S
C2703 C2707 1.400 . S
C2704 H2689 0.960 . S
C2704 H2690 0.960 . S
C2704 H2691 0.960 . S
C2704 C2703 1.524 . S
C2705 C2702 1.403 . S
C2705 C2706 1.392 . S
C2705 C2709 1.495 . S
C2706 C2705 1.392 . S
C2706 C2707 1.385 . S
C2706 C2708 1.478 . S
C2707 H2701 0.930 . S
C2707 C2703 1.400 . S
C2707 C2706 1.385 . S
C2708 C2706 1.478 . S
C2708 C2710 1.381 . S
C2708 C2714 1.383 . S
C2709 C2705 1.495 . S
C2709 H2715 0.959 . S
C2709 H2716 0.961 . S
C2709 H2717 0.960 . S
C2710 C2708 1.381 . S
C2710 C2711 1.394 . S
C2710 H2718 0.930 . S
C2711 C2710 1.394 . S
C2711 C2712 1.383 . S
C2711 H2719 0.929 . S
C2712 C2711 1.383 . S
C2712 C2713 1.377 . S
C2713 H2697 0.930 . S
C2713 C2712 1.377 . S
C2713 C2714 1.379 . S
C2714 H2698 0.931 . S
C2714 C2708 1.383 . S
C2714 C2713 1.379 . S
H2715 C2709 0.959 . S
H2716 C2709 0.961 . S
H2717 C2709 0.960 . S
H2718 C2710 0.930 . S
H2719 C2711 0.929 . S
C425 C361 1.436 . S
C444 C10 1.468 . S
C461 C23 1.484 . S
C480 C105 1.495 . S
C497 C335 1.437 . S
C516 C36 1.472 . S
C533 C49 1.477 . S
C552 C131 1.477 . S
C569 C62 1.479 . S
C588 C387 1.406 . S
C605 C75 1.484 . S
C624 C183 1.491 . S
C641 C88 1.484 . S
C660 C413 1.453 . S
C677 C101 1.484 . S
C696 C157 1.486 . S
C713 C248 1.430 . S
C732 C114 1.501 . S
C749 C1 1.432 . S
C768 C118 1.482 . S
C785 C222 1.434 . S
C804 C140 1.500 . S
C821 C144 1.478 . S
C840 C27 1.452 . S
C857 C274 1.441 . S
C876 C166 1.501 . S
C893 C79 1.430 . S
C912 C170 1.495 . S
C929 C192 1.504 . S
C948 C300 1.431 . S
C965 C53 1.433 . S
C984 C196 1.478 . S
C1001 C218 1.479 . S
C1020 C153 1.406 . S
C1037 C231 1.477 . S
C1056 C313 1.480 . S
C1073 C127 1.442 . S
C1092 C244 1.492 . S
C1109 C339 1.484 . S
C1128 C257 1.478 . S
C1145 C179 1.432 . S
C1164 C270 1.461 . S
C1181 C391 1.484 . S
C1200 C283 1.469 . S
C1217 C205 1.432 . S
C1236 C296 1.475 . S
C1253 C309 1.480 . S
C1272 C365 1.494 . S
C1289 C40 1.440 . S
C1308 C322 1.500 . S
C1325 C326 1.482 . S
C1344 C209 1.415 . S
C1361 C348 1.504 . S
C1380 C14 1.405 . S
C1397 C352 1.478 . S
C1416 C235 1.451 . S
C1433 C374 1.504 . S
C1452 C66 1.463 . S
C1469 C378 1.484 . S
C1488 C287 1.403 . S
C1505 C400 1.504 . S
C1524 C92 1.433 . S
C1541 C404 1.483 . S
C1560 C261 1.409 . S
C1577 C315 1.717 . S
C1596 C3 1.598 . S
C1613 C16 1.633 . S
C1632 C122 1.612 . S
C1649 C341 1.716 . S
C1668 C29 1.636 . S
C1685 C42 1.627 . S
C1704 C148 1.597 . S
C1721 C367 1.720 . S
C1740 C55 1.648 . S
C1757 C68 1.629 . S
C1776 C174 1.599 . S
C1793 C393 1.718 . S
C1812 C81 1.597 . S
C1829 C94 1.628 . S
C1848 C200 1.647 . S
C1865 C107 1.717 . S
C1884 C211 1.599 . S
C1901 C133 1.718 . S
C1920 C237 1.656 . S
C1937 C159 1.716 . S
C1956 C263 1.616 . S
C1973 C185 1.716 . S
C1992 C289 1.624 . S
C2009 C224 1.625 . S
C2028 C330 1.627 . S
C2045 C356 1.624 . S
C2064 C250 1.614 . S
C2081 C382 1.635 . S
C2100 C276 1.655 . S
C2117 C302 1.635 . S
C2136 C408 1.619 . S
C2153 C5 2.094 . S
C2172 C57 2.106 . S
C2189 C18 2.094 . S
C2208 C70 2.083 . S
C2225 C83 2.094 . S
C2244 C31 2.105 . S
C2261 C44 2.096 . S
C2280 C96 2.078 . S
C2297 C161 2.132 . S
C2316 C109 2.130 . S
C2333 C172 2.098 . S
C2352 C120 2.106 . S
C2369 C135 2.133 . S
C2388 C187 2.124 . S
C2405 C146 2.098 . S
C2424 C198 2.101 . S
C2441 C265 2.095 . S
C2460 C213 2.083 . S
C2477 C278 2.097 . S
C2496 C226 2.077 . S
C2513 C239 2.098 . S
C2532 C291 2.077 . S
C2549 C304 2.098 . S
C2568 C252 2.077 . S
C2585 C369 2.133 . S
C2604 C317 2.131 . S
C2621 C328 2.093 . S
C2640 C380 2.082 . S
C2657 C395 2.133 . S
C2676 C343 2.124 . S
C2693 C354 2.093 . S
C2712 C406 2.083 . S
