# Generated by pormake.
# Topology pcb, (4)-cn, num edge types: 1
# Building blocks:
#     Node 0, Type 0, BuildingBlock: QUQFOY_clean_sbu_3, # of connection points: 4
#     Node 1, Type 0, BuildingBlock: QUQFOY_clean_sbu_3, # of connection points: 4
#     Node 2, Type 0, BuildingBlock: QUQFOY_clean_sbu_3, # of connection points: 4
#     Node 3, Type 0, BuildingBlock: QUQFOY_clean_sbu_3, # of connection points: 4
#     Node 4, Type 0, BuildingBlock: QUQFOY_clean_sbu_3, # of connection points: 4
#     Node 5, Type 0, BuildingBlock: QUQFOY_clean_sbu_3, # of connection points: 4
#     Node 6, Type 0, BuildingBlock: QUQFOY_clean_sbu_3, # of connection points: 4
#     Node 7, Type 0, BuildingBlock: QUQFOY_clean_sbu_3, # of connection points: 4
#     Node 8, Type 0, BuildingBlock: QUQFOY_clean_sbu_3, # of connection points: 4
#     Node 9, Type 0, BuildingBlock: QUQFOY_clean_sbu_3, # of connection points: 4
#     Node 10, Type 0, BuildingBlock: QUQFOY_clean_sbu_3, # of connection points: 4
#     Node 11, Type 0, BuildingBlock: QUQFOY_clean_sbu_3, # of connection points: 4
#     Node 12, Type 0, BuildingBlock: QUQFOY_clean_sbu_3, # of connection points: 4
#     Node 13, Type 0, BuildingBlock: QUQFOY_clean_sbu_3, # of connection points: 4
#     Node 14, Type 0, BuildingBlock: QUQFOY_clean_sbu_3, # of connection points: 4
#     Node 15, Type 0, BuildingBlock: QUQFOY_clean_sbu_3, # of connection points: 4
#     Edge 16, Type (0, 0), BuildingBlock: XIVTED_clean_linker_0, # of connection points: 2
#     Edge 17, Type (0, 0), BuildingBlock: XIVTED_clean_linker_0, # of connection points: 2
#     Edge 18, Type (0, 0), BuildingBlock: XIVTED_clean_linker_0, # of connection points: 2
#     Edge 19, Type (0, 0), BuildingBlock: XIVTED_clean_linker_0, # of connection points: 2
#     Edge 20, Type (0, 0), BuildingBlock: XIVTED_clean_linker_0, # of connection points: 2
#     Edge 21, Type (0, 0), BuildingBlock: XIVTED_clean_linker_0, # of connection points: 2
#     Edge 22, Type (0, 0), BuildingBlock: XIVTED_clean_linker_0, # of connection points: 2
#     Edge 23, Type (0, 0), BuildingBlock: XIVTED_clean_linker_0, # of connection points: 2
#     Edge 24, Type (0, 0), BuildingBlock: XIVTED_clean_linker_0, # of connection points: 2
#     Edge 25, Type (0, 0), BuildingBlock: XIVTED_clean_linker_0, # of connection points: 2
#     Edge 26, Type (0, 0), BuildingBlock: XIVTED_clean_linker_0, # of connection points: 2
#     Edge 27, Type (0, 0), BuildingBlock: XIVTED_clean_linker_0, # of connection points: 2
#     Edge 28, Type (0, 0), BuildingBlock: XIVTED_clean_linker_0, # of connection points: 2
#     Edge 29, Type (0, 0), BuildingBlock: XIVTED_clean_linker_0, # of connection points: 2
#     Edge 30, Type (0, 0), BuildingBlock: XIVTED_clean_linker_0, # of connection points: 2
#     Edge 31, Type (0, 0), BuildingBlock: XIVTED_clean_linker_0, # of connection points: 2
#     Edge 32, Type (0, 0), BuildingBlock: XIVTED_clean_linker_0, # of connection points: 2
#     Edge 33, Type (0, 0), BuildingBlock: XIVTED_clean_linker_0, # of connection points: 2
#     Edge 34, Type (0, 0), BuildingBlock: XIVTED_clean_linker_0, # of connection points: 2
#     Edge 35, Type (0, 0), BuildingBlock: XIVTED_clean_linker_0, # of connection points: 2
#     Edge 36, Type (0, 0), BuildingBlock: XIVTED_clean_linker_0, # of connection points: 2
#     Edge 37, Type (0, 0), BuildingBlock: XIVTED_clean_linker_0, # of connection points: 2
#     Edge 38, Type (0, 0), BuildingBlock: XIVTED_clean_linker_0, # of connection points: 2
#     Edge 39, Type (0, 0), BuildingBlock: XIVTED_clean_linker_0, # of connection points: 2
#     Edge 40, Type (0, 0), BuildingBlock: XIVTED_clean_linker_0, # of connection points: 2
#     Edge 41, Type (0, 0), BuildingBlock: XIVTED_clean_linker_0, # of connection points: 2
#     Edge 42, Type (0, 0), BuildingBlock: XIVTED_clean_linker_0, # of connection points: 2
#     Edge 43, Type (0, 0), BuildingBlock: XIVTED_clean_linker_0, # of connection points: 2
#     Edge 44, Type (0, 0), BuildingBlock: XIVTED_clean_linker_0, # of connection points: 2
#     Edge 45, Type (0, 0), BuildingBlock: XIVTED_clean_linker_0, # of connection points: 2
#     Edge 46, Type (0, 0), BuildingBlock: XIVTED_clean_linker_0, # of connection points: 2
#     Edge 47, Type (0, 0), BuildingBlock: XIVTED_clean_linker_0, # of connection points: 2
# Relax obj value: 0.313
# Max RMSD: 0.170
# Mean RMSD: 0.170
data_MOF--net-pcb--node1-QUQFOY_clean_sbu_3--edge1-XIVTED_clean_linker_0
_symmetry_space_group_name_H-M    P1
_symmetry_Int_Tables_number       1
_symmetry_cell_setting            triclinic
loop_
_symmetry_equiv_pos_as_xyz
'x, y, z'
_cell_length_a     40.790873
_cell_length_b     49.842477
_cell_length_c     49.797915
_cell_angle_alpha  89.887598
_cell_angle_beta   89.998194
_cell_angle_gamma 89.879273
loop_
_atom_site_label
_atom_site_type_symbol
_atom_site_fract_x
_atom_site_fract_y
_atom_site_fract_z
_atom_type_partial_charge
C0 C 0.06361 0.08076 0.17718 0.0
O1 O 0.07651 0.06017 0.16648 0.0
Cd2 Cd 0.13368 0.04926 0.16552 0.0
O3 O 0.08124 0.09761 0.18984 0.0
Cd4 Cd 0.14054 0.10192 0.20036 0.0
C5 C 0.16086 0.10649 0.13479 0.0
O6 O 0.1553 0.05595 0.20937 0.0
O7 O 0.1958 0.08165 0.19972 0.0
O8 O 0.13704 0.11701 0.24688 0.0
C9 C 0.18601 0.05862 0.20697 0.0
O10 O 0.15835 0.08103 0.13368 0.0
C11 C 0.14825 0.14021 0.24177 0.0
O12 O 0.1533 0.1192 0.15604 0.0
O13 O 0.15479 0.14563 0.21745 0.0
C14 C 0.84996 0.12194 0.09104 0.0
O15 O 0.84638 0.1083 0.06973 0.0
Cd16 Cd 0.80121 0.11155 0.03979 0.0
O17 O 0.8286 0.13942 0.0978 0.0
Cd18 Cd 0.77508 0.1554 0.07883 0.0
C19 C 0.74429 0.09312 0.08628 0.0
O20 O 0.79374 0.15882 0.03325 0.0
O21 O 0.74141 0.15802 0.03724 0.0
O22 O 0.7864 0.19909 0.09913 0.0
C23 C 0.7661 0.16156 0.0222 0.0
O24 O 0.75796 0.08727 0.06403 0.0
C25 C 0.75714 0.20258 0.10716 0.0
O26 O 0.74849 0.11604 0.09683 0.0
O27 O 0.73659 0.18429 0.10179 0.0
C28 C 0.88185 0.91072 0.16906 0.0
O29 O 0.87131 0.93195 0.15782 0.0
Cd30 Cd 0.8149 0.94457 0.15214 0.0
O31 O 0.86198 0.89426 0.17994 0.0
Cd32 Cd 0.80174 0.89052 0.18595 0.0
C33 C 0.79186 0.88784 0.11844 0.0
O34 O 0.78663 0.9366 0.19321 0.0
O35 O 0.74693 0.91089 0.18164 0.0
O36 O 0.80122 0.87321 0.23192 0.0
C37 C 0.75632 0.93419 0.18827 0.0
O38 O 0.79515 0.91327 0.11778 0.0
C39 C 0.78997 0.85046 0.22509 0.0
O40 O 0.79543 0.87482 0.14025 0.0
O41 O 0.78467 0.8466 0.20029 0.0
C42 C 0.10652 0.85983 0.10825 0.0
O43 O 0.11542 0.8724 0.08728 0.0
Cd44 Cd 0.16846 0.87006 0.06699 0.0
O45 O 0.12616 0.84372 0.12003 0.0
Cd46 Cd 0.18395 0.82879 0.11341 0.0
C47 C 0.21143 0.8922 0.12138 0.0
O48 O 0.18418 0.82392 0.06549 0.0
O49 O 0.23203 0.82771 0.083 0.0
O50 O 0.17564 0.78182 0.12617 0.0
C51 C 0.21489 0.8235 0.06218 0.0
O52 O 0.20316 0.89657 0.09708 0.0
C53 C 0.19353 0.78337 0.14699 0.0
O54 O 0.2051 0.86986 0.13259 0.0
O55 O 0.20687 0.80581 0.15184 0.0
C56 C 0.1299 0.89246 0.82523 0.0
O57 O 0.12858 0.91627 0.83417 0.0
Cd58 Cd 0.17618 0.94244 0.84423 0.0
O59 O 0.15707 0.88202 0.8181 0.0
Cd60 Cd 0.21518 0.89593 0.81285 0.0
C61 C 0.21928 0.89456 0.88022 0.0
O62 O 0.20866 0.94308 0.80471 0.0
O63 O 0.25629 0.93176 0.81917 0.0
O64 O 0.22042 0.87895 0.76721 0.0
C65 C 0.23724 0.95033 0.81128 0.0
O66 O 0.20457 0.91718 0.88012 0.0
C67 C 0.2418 0.8614 0.77333 0.0
O68 O 0.22439 0.8818 0.85853 0.0
O69 O 0.25129 0.86056 0.7976 0.0
C70 C 0.10504 0.18095 0.88553 0.0
O71 O 0.10042 0.16921 0.90785 0.0
Cd72 Cd 0.14266 0.15695 0.93884 0.0
O73 O 0.13336 0.18956 0.87895 0.0
Cd74 Cd 0.1882 0.19262 0.90116 0.0
C75 C 0.19449 0.12571 0.89411 0.0
O76 O 0.17206 0.19705 0.94772 0.0
O77 O 0.2215 0.18359 0.9414 0.0
O78 O 0.19787 0.23888 0.88633 0.0
C79 C 0.19943 0.19065 0.95786 0.0
O80 O 0.17669 0.12347 0.91505 0.0
C81 C 0.22531 0.23337 0.87552 0.0
O82 O 0.20035 0.14855 0.88381 0.0
O83 O 0.2349 0.20916 0.87672 0.0
C84 C 0.91786 0.10727 0.79496 0.0
O85 O 0.91931 0.08379 0.80483 0.0
Cd86 Cd 0.87313 0.05507 0.81176 0.0
O87 O 0.89124 0.11635 0.78504 0.0
Cd88 Cd 0.83546 0.09832 0.77522 0.0
C89 C 0.82063 0.10115 0.84118 0.0
O90 O 0.84598 0.05082 0.77016 0.0
O91 O 0.79644 0.06125 0.78018 0.0
O92 O 0.83704 0.11469 0.72905 0.0
C93 C 0.81712 0.04294 0.7751 0.0
O94 O 0.83656 0.07915 0.84286 0.0
C95 C 0.8097 0.12685 0.73065 0.0
O96 O 0.81868 0.11403 0.81914 0.0
O97 O 0.79481 0.12589 0.75302 0.0
C98 C 0.92382 0.82021 0.8901 0.0
O99 O 0.9214 0.8318 0.9127 0.0
Cd100 Cd 0.87015 0.84318 0.93341 0.0
O101 O 0.89852 0.81129 0.87809 0.0
Cd102 Cd 0.83897 0.80733 0.88725 0.0
C103 C 0.83485 0.87429 0.879 0.0
O104 O 0.83869 0.80293 0.93545 0.0
O105 O 0.7929 0.81553 0.91798 0.0
O106 O 0.83362 0.76087 0.87233 0.0
C107 C 0.80871 0.80866 0.93882 0.0
O108 O 0.84546 0.87688 0.90295 0.0
C109 C 0.81418 0.76683 0.85325 0.0
O110 O 0.83221 0.85129 0.86831 0.0
O111 O 0.8064 0.79134 0.85046 0.0
C112 C 0.6171 0.59355 0.67419 0.0
O113 O 0.61802 0.56913 0.66699 0.0
Cd114 Cd 0.66842 0.54617 0.65665 0.0
O115 O 0.64336 0.60613 0.67975 0.0
Cd116 Cd 0.7028 0.59712 0.68376 0.0
C117 C 0.70219 0.59535 0.61632 0.0
O118 O 0.70492 0.54974 0.69368 0.0
O119 O 0.74892 0.56672 0.6768 0.0
O120 O 0.70872 0.61508 0.72879 0.0
C121 C 0.73436 0.54628 0.6862 0.0
O122 O 0.69067 0.57165 0.61831 0.0
C123 C 0.72762 0.634 0.72158 0.0
O124 O 0.70709 0.6097 0.63703 0.0
O125 O 0.73474 0.63565 0.6968 0.0
C126 C 0.41052 0.66474 0.60324 0.0
O127 O 0.40945 0.65698 0.57899 0.0
Cd128 Cd 0.35869 0.6482 0.55626 0.0
O129 O 0.38454 0.67188 0.61549 0.0
Cd130 Cd 0.32561 0.6791 0.60591 0.0
C131 C 0.32096 0.61197 0.60698 0.0
O132 O 0.32534 0.68717 0.55829 0.0
O133 O 0.27966 0.6731 0.57467 0.0
O134 O 0.32449 0.72535 0.62106 0.0
C135 C 0.29568 0.68086 0.55424 0.0
O136 O 0.3332 0.61254 0.5834 0.0
C137 C 0.30537 0.72085 0.64067 0.0
O138 O 0.3172 0.63337 0.62056 0.0
O139 O 0.29541 0.69691 0.6439 0.0
C140 C 0.4228 0.36852 0.68734 0.0
O141 O 0.41016 0.36063 0.70915 0.0
Cd142 Cd 0.35458 0.37364 0.69211 0.0
O143 O 0.40344 0.37822 0.67007 0.0
Cd144 Cd 0.34395 0.37505 0.68976 0.0
C145 C 0.32832 0.34705 0.64011 0.0
O146 O 0.34815 0.42261 0.69448 0.0
O147 O 0.305 0.40918 0.67333 0.0
O148 O 0.32276 0.37379 0.73656 0.0
C149 C 0.32197 0.42866 0.68211 0.0
O150 O 0.35625 0.35699 0.64419 0.0
C151 C 0.33274 0.35035 0.74224 0.0
O152 O 0.30792 0.34911 0.65899 0.0
O153 O 0.34892 0.33818 0.72424 0.0
C154 C 0.64609 0.32708 0.61677 0.0
O155 O 0.66073 0.30513 0.62065 0.0
Cd156 Cd 0.70582 0.31697 0.58753 0.0
O157 O 0.65935 0.34277 0.6002 0.0
Cd158 Cd 0.71152 0.31721 0.58619 0.0
C159 C 0.73623 0.36739 0.60839 0.0
O160 O 0.69261 0.31073 0.5406 0.0
O161 O 0.73654 0.3345 0.54373 0.0
O162 O 0.70036 0.26954 0.60018 0.0
C163 C 0.71477 0.32403 0.52876 0.0
O164 O 0.71644 0.36702 0.58893 0.0
C165 C 0.73047 0.26373 0.60325 0.0
O166 O 0.7443 0.34493 0.61802 0.0
O167 O 0.75113 0.28195 0.5978 0.0
C168 C 0.57565 0.37772 0.28804 0.0
O169 O 0.57476 0.40208 0.29544 0.0
Cd170 Cd 0.62229 0.42898 0.30381 0.0
O171 O 0.60266 0.36662 0.28147 0.0
Cd172 Cd 0.66093 0.37971 0.2747 0.0
C173 C 0.66609 0.38274 0.34194 0.0
O174 O 0.65533 0.42684 0.26497 0.0
O175 O 0.70322 0.41453 0.27793 0.0
O176 O 0.66052 0.35936 0.2305 0.0
C177 C 0.68438 0.43353 0.27086 0.0
O178 O 0.65165 0.40541 0.34011 0.0
C179 C 0.68586 0.34504 0.23452 0.0
O180 O 0.67054 0.36798 0.32139 0.0
O181 O 0.69959 0.34687 0.25735 0.0
C182 C 0.58155 0.6633 0.37429 0.0
O183 O 0.58085 0.65158 0.39694 0.0
Cd184 Cd 0.62881 0.6371 0.42067 0.0
O185 O 0.60861 0.67078 0.36396 0.0
Cd186 Cd 0.66716 0.67145 0.37805 0.0
C187 C 0.66761 0.60495 0.36852 0.0
O188 O 0.66304 0.67531 0.42638 0.0
O189 O 0.70844 0.65885 0.41167 0.0
O190 O 0.67712 0.71809 0.36542 0.0
C191 C 0.69184 0.66725 0.43148 0.0
O192 O 0.65447 0.60281 0.39166 0.0
C193 C 0.69959 0.71226 0.34872 0.0
O194 O 0.67279 0.62782 0.35806 0.0
O195 O 0.70653 0.68761 0.3458 0.0
C196 C 0.37248 0.60094 0.3112 0.0
O197 O 0.37412 0.57727 0.32058 0.0
Cd198 Cd 0.32726 0.55238 0.33537 0.0
O199 O 0.34487 0.61177 0.306 0.0
Cd200 Cd 0.28605 0.59864 0.30595 0.0
C201 C 0.29078 0.60218 0.37316 0.0
O202 O 0.28934 0.5509 0.29926 0.0
O203 O 0.24487 0.56454 0.31789 0.0
O204 O 0.27483 0.61519 0.26066 0.0
C205 C 0.2616 0.54501 0.30897 0.0
O206 O 0.30434 0.57909 0.37268 0.0
C207 C 0.25414 0.63263 0.26844 0.0
O208 O 0.28363 0.6145 0.35156 0.0
O209 O 0.24794 0.63359 0.2934 0.0
C210 C 0.38355 0.31026 0.37635 0.0
O211 O 0.38938 0.32129 0.3988 0.0
Cd212 Cd 0.34912 0.33194 0.43181 0.0
O213 O 0.35479 0.30224 0.37034 0.0
Cd214 Cd 0.30101 0.30001 0.39441 0.0
C215 C 0.29641 0.36765 0.39212 0.0
O216 O 0.32155 0.29029 0.43854 0.0
O217 O 0.27133 0.30311 0.43801 0.0
O218 O 0.28722 0.25554 0.37732 0.0
C219 C 0.29531 0.29401 0.45146 0.0
O220 O 0.31572 0.36845 0.41221 0.0
C221 C 0.26043 0.26325 0.36675 0.0
O222 O 0.28897 0.34545 0.38131 0.0
O223 O 0.25299 0.28786 0.36905 0.0
H224 H 0.26183 0.20834 0.36673 0.0
H225 H 0.15324 0.19447 0.23782 0.0
H226 H 0.21073 0.27627 0.33263 0.0
H227 H 0.16313 0.12894 0.294 0.0
H228 H 0.17566 0.22493 0.27153 0.0
H229 H 0.22796 0.17839 0.33937 0.0
C230 C 0.24338 0.21691 0.3536 0.0
C231 C 0.2392 0.24477 0.35171 0.0
C232 C 0.17241 0.20396 0.27663 0.0
C233 C 0.20077 0.21084 0.32045 0.0
C234 C 0.15969 0.18662 0.25743 0.0
C235 C 0.15654 0.15923 0.2632 0.0
C236 C 0.1828 0.19366 0.30146 0.0
C237 C 0.16516 0.14999 0.28886 0.0
C238 C 0.22396 0.19985 0.33818 0.0
C239 C 0.21481 0.25489 0.33458 0.0
N240 N 0.17854 0.16712 0.30697 0.0
N241 N 0.19679 0.23793 0.31931 0.0
H242 H 0.7454 0.3198 0.23282 0.0
H243 H 0.69544 0.2218 0.11524 0.0
H244 H 0.65448 0.32825 0.18921 0.0
H245 H 0.79671 0.23683 0.13516 0.0
H246 H 0.67915 0.25898 0.14425 0.0
H247 H 0.76424 0.2874 0.19925 0.0
C248 C 0.72948 0.31491 0.21613 0.0
C249 C 0.69827 0.32656 0.21382 0.0
C250 C 0.70496 0.25431 0.14207 0.0
C251 C 0.71951 0.28952 0.17565 0.0
C252 C 0.71425 0.23306 0.12562 0.0
C253 C 0.74744 0.22624 0.12294 0.0
C254 C 0.72898 0.26847 0.15633 0.0
C255 C 0.77086 0.24152 0.1367 0.0
C256 C 0.7403 0.29656 0.19695 0.0
C257 C 0.67869 0.31968 0.19175 0.0
N258 N 0.76114 0.26178 0.15312 0.0
N259 N 0.6895 0.30136 0.17365 0.0
H260 H 0.78333 0.79699 0.21632 0.0
H261 H 0.69752 0.76681 0.35536 0.0
H262 H 0.77783 0.85674 0.27878 0.0
H263 H 0.74009 0.70475 0.30595 0.0
H264 H 0.72407 0.80068 0.32702 0.0
H265 H 0.76496 0.7631 0.24833 0.0
C266 C 0.77846 0.8029 0.23687 0.0
C267 C 0.78191 0.82965 0.24496 0.0
C268 C 0.72778 0.77963 0.3226 0.0
C269 C 0.76051 0.79113 0.28153 0.0
C270 C 0.71254 0.76034 0.33863 0.0
C271 C 0.71645 0.73299 0.33283 0.0
C272 C 0.74656 0.77142 0.30045 0.0
C273 C 0.73632 0.72564 0.31106 0.0
C274 C 0.76809 0.78356 0.25513 0.0
C275 C 0.77548 0.83627 0.27181 0.0
N276 N 0.75036 0.74476 0.29549 0.0
N277 N 0.76461 0.81715 0.28914 0.0
H278 H 0.25381 0.6315 0.21336 0.0
H279 H 0.21047 0.78454 0.19967 0.0
H280 H 0.22249 0.67898 0.28113 0.0
H281 H 0.18847 0.72991 0.13504 0.0
H282 H 0.2208 0.74625 0.22917 0.0
H283 H 0.23487 0.66735 0.18317 0.0
C284 C 0.24267 0.64932 0.22184 0.0
C285 C 0.23986 0.6524 0.24975 0.0
C286 C 0.21347 0.74265 0.20858 0.0
C287 C 0.21884 0.69332 0.21558 0.0
C288 C 0.20778 0.76444 0.19173 0.0
C289 C 0.19868 0.76028 0.16494 0.0
C290 C 0.21077 0.71653 0.19841 0.0
C291 C 0.19536 0.73387 0.15565 0.0
C292 C 0.23183 0.66965 0.20465 0.0
C293 C 0.22517 0.67581 0.25974 0.0
N294 N 0.20184 0.71287 0.17232 0.0
N295 N 0.21564 0.69556 0.24267 0.0
H296 H 0.30603 0.77496 0.63179 0.0
H297 H 0.27075 0.8132 0.7834 0.0
H298 H 0.28369 0.71543 0.6921 0.0
H299 H 0.23923 0.86468 0.71849 0.0
H300 H 0.28663 0.77914 0.75056 0.0
H301 H 0.29152 0.81032 0.66396 0.0
C302 C 0.29808 0.76937 0.65179 0.0
C303 C 0.29594 0.74232 0.65938 0.0
C304 C 0.27633 0.79795 0.74357 0.0
C305 C 0.28007 0.78239 0.69609 0.0
C306 C 0.26749 0.81743 0.76222 0.0
C307 C 0.25359 0.8417 0.75358 0.0
C308 C 0.27182 0.80302 0.71612 0.0
C309 C 0.24973 0.84613 0.72592 0.0
C310 C 0.28976 0.78949 0.67001 0.0
C311 C 0.28547 0.73607 0.68545 0.0
N312 N 0.25896 0.82695 0.70807 0.0
N313 N 0.27819 0.756 0.703 0.0
H314 H 0.2098 0.28614 0.8658 0.0
H315 H 0.35691 0.30341 0.76231 0.0
H316 H 0.2854 0.22686 0.85261 0.0
H317 H 0.28664 0.36608 0.77895 0.0
H318 H 0.33486 0.27749 0.79968 0.0
H319 H 0.24078 0.31792 0.83817 0.0
C320 C 0.23304 0.2799 0.85732 0.0
C321 C 0.24483 0.25372 0.86116 0.0
C322 C 0.32447 0.29705 0.79542 0.0
C323 C 0.28029 0.28983 0.82962 0.0
C324 C 0.3371 0.31187 0.77409 0.0
C325 C 0.32327 0.33673 0.76734 0.0
C326 C 0.29751 0.30701 0.80989 0.0
C327 C 0.29786 0.34687 0.7834 0.0
C328 C 0.25074 0.29804 0.8416 0.0
C329 C 0.27517 0.24674 0.84989 0.0
N330 N 0.28542 0.33177 0.80372 0.0
N331 N 0.29168 0.26459 0.83443 0.0
H332 H 0.74733 0.14565 0.72476 0.0
H333 H 0.7924 0.24301 0.60567 0.0
H334 H 0.84115 0.1427 0.68477 0.0
H335 H 0.6925 0.22666 0.62899 0.0
H336 H 0.81056 0.20478 0.63264 0.0
H337 H 0.72631 0.17404 0.68865 0.0
C338 C 0.76344 0.15085 0.70826 0.0
C339 C 0.79613 0.14212 0.70786 0.0
C340 C 0.78461 0.20927 0.63149 0.0
C341 C 0.77232 0.17468 0.6666 0.0
C342 C 0.77424 0.2311 0.61613 0.0
C343 C 0.74096 0.23817 0.61541 0.0
C344 C 0.76157 0.19476 0.64656 0.0
C345 C 0.71842 0.22197 0.62915 0.0
C346 C 0.75137 0.16692 0.68758 0.0
C347 C 0.81584 0.14917 0.68589 0.0
N348 N 0.72921 0.20127 0.64457 0.0
N349 N 0.80375 0.16539 0.66629 0.0
H350 H 0.81205 0.71231 0.86023 0.0
H351 H 0.75368 0.68313 0.71113 0.0
H352 H 0.78784 0.77523 0.80387 0.0
H353 H 0.73141 0.62872 0.77615 0.0
H354 H 0.77513 0.71524 0.74369 0.0
H355 H 0.79081 0.67914 0.82824 0.0
C356 C 0.80233 0.7191 0.84114 0.0
C357 C 0.8016 0.74647 0.83462 0.0
C358 C 0.7655 0.69627 0.75079 0.0
C359 C 0.77788 0.70893 0.79815 0.0
C360 C 0.75341 0.67793 0.73226 0.0
C361 C 0.7407 0.65334 0.74105 0.0
C362 C 0.7654 0.68974 0.7782 0.0
C363 C 0.74084 0.64759 0.76864 0.0
C364 C 0.79015 0.70025 0.82302 0.0
C365 C 0.7887 0.7543 0.8097 0.0
N366 N 0.75322 0.66564 0.78632 0.0
N367 N 0.77755 0.73559 0.79227 0.0
H368 H 0.24112 0.15454 0.98142 0.0
H369 H 0.15159 0.15972 0.12388 0.0
H370 H 0.16162 0.209 -0.00095 0.0
H371 H 0.19514 0.08772 0.09142 0.0
H372 H 0.16695 0.1838 0.08289 0.0
H373 H 0.23665 0.1362 0.02694 0.0
C374 C 0.22325 0.16307 -0.00494 0.0
C375 C 0.20146 0.18314 0.98645 0.0
C376 C 0.17335 0.16279 0.08491 0.0
C377 C 0.19631 0.16229 0.03829 0.0
C378 C 0.16467 0.14904 0.10825 0.0
C379 C 0.1718 0.1216 0.1109 0.0
C380 C 0.18974 0.14911 0.0643 0.0
C381 C 0.18881 0.10878 0.09005 0.0
C382 C 0.22057 0.15245 0.02091 0.0
C383 C 0.17867 0.19336 0.00488 0.0
N384 N 0.1972 0.12266 0.06757 0.0
N385 N 0.17655 0.18272 0.02995 0.0
H386 H 0.79415 0.07343 0.88307 0.0
H387 H 0.80161 0.1886 0.98504 0.0
H388 H 0.81163 0.15383 0.85426 0.0
H389 H 0.72725 0.12784 -0.00662 0.0
H390 H 0.80755 0.17669 0.93753 0.0
H391 H 0.77178 0.09212 0.92473 0.0
C392 C 0.79306 0.09501 0.88549 0.0
C393 C 0.80493 0.11216 0.86541 0.0
C394 C 0.78932 0.16648 0.9496 0.0
C395 C 0.77986 0.13351 0.91286 0.0
C396 C 0.78591 0.17327 0.97659 0.0
C397 C 0.76384 0.15922 0.9929 0.0
C398 C 0.77139 0.14484 0.93928 0.0
C399 C 0.7443 0.13927 0.98127 0.0
C400 C 0.78005 0.10563 0.90908 0.0
C401 C 0.80273 0.13998 0.86935 0.0
N402 N 0.74912 0.13216 0.95523 0.0
N403 N 0.79105 0.14984 0.89292 0.0
H404 H 0.76053 0.84432 0.95265 0.0
H405 H 0.80045 0.83425 0.10929 0.0
H406 H 0.82989 0.78815 0.98643 0.0
H407 H 0.76988 0.90761 0.07027 0.0
H408 H 0.79643 0.81096 0.06627 0.0
H409 H 0.74882 0.86098 -0.00205 0.0
C410 C 0.77267 0.83504 0.96965 0.0
C411 C 0.79649 0.81505 0.96588 0.0
C412 C 0.79022 0.83207 0.06726 0.0
C413 C 0.78318 0.83391 0.01741 0.0
C414 C 0.79244 0.84539 0.09177 0.0
C415 C 0.78594 0.87302 0.09326 0.0
C416 C 0.78104 0.8464 0.04419 0.0
C417 C 0.77557 0.88639 0.06992 0.0
C418 C 0.76614 0.84468 -0.0046 0.0
C419 C 0.81161 0.8038 0.98854 0.0
N420 N 0.7736 0.87296 0.04626 0.0
N421 N 0.80487 0.81351 0.01338 0.0
H422 H 0.25995 0.86093 0.04726 0.0
H423 H 0.22686 0.84122 0.8908 0.0
H424 H 0.19787 0.79846 0.01596 0.0
H425 H 0.23228 0.91917 0.92817 0.0
H426 H 0.23573 0.82027 0.93475 0.0
H427 H 0.26983 0.87669 0.0012 0.0
C428 C 0.24943 0.84994 0.03062 0.0
C429 C 0.22806 0.82841 0.0352 0.0
C430 C 0.23552 0.84195 0.93314 0.0
C431 C 0.2392 0.84621 0.98298 0.0
C432 C 0.23052 0.85393 0.90816 0.0
C433 C 0.22842 0.88197 0.90597 0.0
C434 C 0.23914 0.85814 0.95591 0.0
C435 C 0.23329 0.89748 0.9291 0.0
C436 C 0.25481 0.85909 0.00448 0.0
C437 C 0.21448 0.81514 0.01309 0.0
N438 N 0.23833 0.88533 0.95321 0.0
N439 N 0.22013 0.82435 0.98785 0.0
H440 H 0.02939 0.12731 0.18721 0.0
H441 H 0.8715 0.15025 0.13522 0.0
H442 H 0.0182 0.04772 0.15442 0.0
H443 H 0.89427 0.08133 0.08616 0.0
H444 H 0.92027 0.1408 0.16239 0.0
H445 H 0.97477 0.13878 0.17071 0.0
C446 C 0.01514 0.11204 0.17712 0.0
C447 C 0.0286 0.08659 0.17194 0.0
C448 C 0.9148 0.12793 0.14553 0.0
C449 C 0.96587 0.0995 0.1531 0.0
C450 C 0.88681 0.13323 0.13009 0.0
C451 C 0.87899 0.11678 0.10814 0.0
C452 C 0.93495 0.10597 0.13891 0.0
C453 C 0.89946 0.09481 0.10263 0.0
C454 C 0.9838 0.1186 0.16773 0.0
C455 C 0.00906 0.06768 0.15864 0.0
N456 N 0.92638 0.0901 0.11788 0.0
N457 N 0.97895 0.07465 0.1494 0.0
H458 H 0.76072 0.98484 0.20811 0.0
H459 H 0.72489 0.04319 0.0695 0.0
H460 H 0.71061 0.93776 0.14831 0.0
H461 H 0.72809 0.09405 0.13953 0.0
H462 H 0.71243 0.00496 0.09848 0.0
H463 H 0.74218 0.02569 0.18553 0.0
C464 C 0.74496 0.98317 0.19068 0.0
C465 C 0.73754 0.958 0.17983 0.0
C466 C 0.71496 0.02463 0.10743 0.0
C467 C 0.71718 0.00446 0.1534 0.0
C468 C 0.72218 0.04646 0.09088 0.0
C469 C 0.72837 0.07171 0.10217 0.0
C470 C 0.71472 0.02803 0.13543 0.0
C471 C 0.72408 0.07485 0.12998 0.0
C472 C 0.73437 0.00646 0.17777 0.0
C473 C 0.71702 0.95683 0.15723 0.0
N474 N 0.71842 0.0531 0.14576 0.0
N475 N 0.70833 0.97978 0.14426 0.0
H476 H 0.91311 0.86463 0.18571 0.0
H477 H 0.07717 0.83641 0.15225 0.0
H478 H 0.93045 0.93994 0.14515 0.0
H479 H 0.06153 0.89669 0.09114 0.0
H480 H 0.0242 0.84821 0.17208 0.0
H481 H 0.96856 0.85032 0.17399 0.0
C482 C 0.9288 0.87841 0.17486 0.0
C483 C 0.91695 0.9035 0.16629 0.0
C484 C 0.0321 0.85856 0.15411 0.0
C485 C 0.98063 0.88729 0.15287 0.0
C486 C 0.06246 0.8519 0.14283 0.0
C487 C 0.07377 0.86542 0.11985 0.0
C488 C 0.01301 0.87893 0.14231 0.0
C489 C 0.05382 0.88555 0.10871 0.0
C490 C 0.9606 0.87023 0.16823 0.0
C491 C 0.93836 0.92039 0.15212 0.0
N492 N 0.02458 0.89173 0.12011 0.0
N493 N 0.96893 0.91183 0.14559 0.0
H494 H 0.23735 0.05299 0.17213 0.0
H495 H 0.21689 0.89456 0.17608 0.0
H496 H 0.17973 0.00959 0.23035 0.0
H497 H 0.23501 0.94078 0.10417 0.0
H498 H 0.22562 0.93491 0.20288 0.0
H499 H 0.25853 0.01026 0.15507 0.0
C500 C 0.23012 0.03453 0.18199 0.0
C501 C 0.20631 0.03464 0.20234 0.0
C502 C 0.22847 0.936 0.18128 0.0
C503 C 0.23031 0.98605 0.18296 0.0
C504 C 0.22353 0.913 0.16593 0.0
C505 C 0.22429 0.9145 0.13777 0.0
C506 C 0.23446 0.96053 0.16838 0.0
C507 C 0.23339 0.93888 0.12579 0.0
C508 C 0.24205 0.0102 0.17213 0.0
C509 C 0.19768 0.01022 0.21435 0.0
N510 N 0.2376 0.9611 0.14115 0.0
N511 N 0.20931 0.98682 0.2042 0.0
H512 H 0.9851 0.81392 0.91125 0.0
H513 H 0.0674 0.9067 0.81206 0.0
H514 H 0.93408 0.83019 0.83711 0.0
H515 H 0.12519 0.84098 0.84289 0.0
H516 H 0.01738 0.88142 0.82252 0.0
H517 H 0.03706 0.82516 0.88903 0.0
C518 C 0.985 0.81924 0.89014 0.0
C519 C 0.95544 0.82115 0.87592 0.0
C520 C 0.04107 0.87233 0.82637 0.0
C521 C 0.01416 0.83482 0.85089 0.0
C522 C 0.06947 0.88672 0.8205 0.0
C523 C 0.10025 0.87579 0.82661 0.0
C524 C 0.0436 0.84741 0.83936 0.0
C525 C 0.1018 0.84993 0.83773 0.0
C526 C 0.01453 0.82557 0.87751 0.0
C527 C 0.95646 0.82832 0.84866 0.0
N528 N 0.07377 0.83683 0.84445 0.0
N529 N 0.98531 0.83565 0.83717 0.0
H530 H 0.26939 0.96782 0.85595 0.0
H531 H 0.20999 0.1195 0.84123 0.0
H532 H 0.21473 -0.00423 0.78718 0.0
H533 H 0.20879 0.07699 0.91683 0.0
H534 H 0.22857 0.07839 0.81893 0.0
H535 H 0.26502 0.01272 0.87575 0.0
C536 C 0.25748 0.98365 0.84461 0.0
C537 C 0.24235 0.97822 0.81991 0.0
C538 C 0.22456 0.07825 0.84043 0.0
C539 C 0.23726 0.0292 0.84241 0.0
C540 C 0.21403 0.10161 0.85318 0.0
C541 C 0.20757 0.10151 0.88087 0.0
C542 C 0.2294 0.05487 0.8556 0.0
C543 C 0.21313 0.07779 0.89539 0.0
C544 C 0.25469 0.00909 0.85605 0.0
C545 C 0.22668 -0.00074 0.80627 0.0
N546 N 0.2238 0.05536 0.88257 0.0
N547 N 0.2244 0.02389 0.81776 0.0
H548 H 0.04054 0.19162 0.89464 0.0
H549 H 0.98231 0.09466 0.7883 0.0
H550 H 0.10834 0.16865 0.83236 0.0
H551 H 0.91795 0.15956 0.81077 0.0
H552 H 0.02928 0.1211 0.80366 0.0
H553 H 0.99481 0.18087 0.86461 0.0
C554 C 0.04571 0.185 0.87436 0.0
C555 C 0.0781 0.18096 0.86587 0.0
C556 C 0.00497 0.12984 0.80454 0.0
C557 C 0.02622 0.16778 0.83196 0.0
C558 C 0.97823 0.11476 0.79587 0.0
C559 C 0.94636 0.12501 0.79836 0.0
C560 C -0.00043 0.15484 0.81669 0.0
C561 C 0.94224 0.15107 0.80842 0.0
C562 C 0.0197 0.17892 0.85726 0.0
C563 C 0.08364 0.17215 0.83952 0.0
N564 N 0.96851 0.16486 0.81796 0.0
N565 N 0.0579 0.16509 0.82369 0.0
H566 H 0.81656 0.92433 0.89632 0.0
H567 H 0.8481 -0.00302 0.75976 0.0
H568 H 0.83553 0.87846 0.82452 0.0
H569 H 0.77595 0.02739 0.81536 0.0
H570 H 0.8476 0.95397 0.7838 0.0
H571 H 0.8059 0.96395 0.86824 0.0
C572 C 0.81836 0.9226 0.87469 0.0
C573 C 0.82699 0.89817 0.8627 0.0
C574 C 0.83143 0.96993 0.79036 0.0
C575 C 0.81528 0.94318 0.83071 0.0
C576 C 0.83165 -0.00564 0.77664 0.0
C577 C 0.812 0.01563 0.78557 0.0
C578 C 0.81218 0.96718 0.81356 0.0
C579 C 0.79131 0.01139 0.80771 0.0
C580 C 0.81207 0.94508 0.85872 0.0
C581 C 0.82885 0.89692 0.83456 0.0
N582 N 0.79243 0.98778 0.82132 0.0
N583 N 0.82351 0.91923 0.81951 0.0
H584 H 0.6711 0.69138 0.47744 0.0
H585 H 0.71373 0.56895 0.56911 0.0
H586 H 0.73298 0.62737 0.44847 0.0
H587 H 0.70315 0.64835 0.60255 0.0
H588 H 0.71821 0.58892 0.52425 0.0
H589 H 0.68007 0.67555 0.52347 0.0
C590 C 0.68698 0.67426 0.48086 0.0
C591 C 0.70125 0.66059 0.45924 0.0
C592 C 0.71537 0.60193 0.5415 0.0
C593 C 0.7109 0.64207 0.51149 0.0
C594 C 0.71262 0.59057 0.56702 0.0
C595 C 0.70788 0.60703 0.5895 0.0
C596 C 0.71254 0.62985 0.53845 0.0
C597 C 0.7068 0.63494 0.58572 0.0
C598 C 0.69212 0.66528 0.50705 0.0
C599 C 0.72161 0.6385 0.46464 0.0
N600 N 0.70855 0.64547 0.5606 0.0
N601 N 0.72534 0.62957 0.49025 0.0
H602 H 0.25419 0.64047 0.5398 0.0
H603 H 0.28664 0.65589 0.38282 0.0
H604 H 0.31431 0.70365 0.50693 0.0
H605 H 0.28097 0.57886 0.42231 0.0
H606 H 0.28033 0.67791 0.42647 0.0
H607 H 0.24673 0.6225 0.49442 0.0
C608 C 0.26502 0.651 0.52295 0.0
C609 C 0.28505 0.67349 0.52701 0.0
C610 C 0.28011 0.6562 0.42544 0.0
C611 C 0.27655 0.65311 0.47543 0.0
C612 C 0.28364 0.64362 0.40063 0.0
C613 C 0.28464 0.61551 0.39907 0.0
C614 C 0.27684 0.64056 0.44868 0.0
C615 C 0.28071 0.60058 0.42274 0.0
C616 C 0.26099 0.6406 0.49719 0.0
C617 C 0.29883 0.68619 0.50456 0.0
N618 N 0.27694 0.61331 0.44665 0.0
N619 N 0.29443 0.67575 0.47966 0.0
H620 H 0.344 0.27619 0.48418 0.0
H621 H 0.26757 0.33758 0.61843 0.0
H622 H 0.24807 0.31291 0.48612 0.0
H623 H 0.371 0.32697 0.60352 0.0
H624 H 0.25591 0.31876 0.5738 0.0
H625 H 0.3493 0.28384 0.53225 0.0
C626 C 0.32383 0.28557 0.4948 0.0
C627 C 0.29581 0.29442 0.48106 0.0
C628 C 0.28108 0.32037 0.58051 0.0
C629 C 0.30186 0.30336 0.53609 0.0
C630 C 0.28774 0.33101 0.60589 0.0
C631 C 0.3203 0.33405 0.61444 0.0
C632 C 0.30719 0.31234 0.56398 0.0
C633 C 0.34557 0.32526 0.59754 0.0
C634 C 0.32694 0.28998 0.52222 0.0
C635 C 0.27025 0.30607 0.49593 0.0
N636 N 0.33848 0.31484 0.57312 0.0
N637 N 0.27404 0.31054 0.5227 0.0
H638 H 0.68397 0.41312 0.385 0.0
H639 H 0.68204 0.29577 0.49023 0.0
H640 H 0.67373 0.33097 0.35914 0.0
H641 H 0.74298 0.3655 0.50157 0.0
H642 H 0.67411 0.30884 0.44315 0.0
H643 H 0.7007 0.39709 0.42947 0.0
C644 C 0.6853 0.39172 0.3887 0.0
C645 C 0.67738 0.37331 0.36846 0.0
C646 C 0.68956 0.32103 0.45591 0.0
C647 C 0.69606 0.35495 0.41917 0.0
C648 C 0.69404 0.31364 0.4827 0.0
C649 C 0.71312 0.32964 0.49974 0.0
C650 C 0.70357 0.34491 0.44639 0.0
C651 C 0.72815 0.35259 0.48905 0.0
C652 C 0.69504 0.38262 0.41396 0.0
C653 C 0.67972 0.34579 0.37422 0.0
N654 N 0.72261 0.35981 0.46313 0.0
N655 N 0.68843 0.33741 0.39921 0.0
H656 H 0.55475 0.57526 0.68283 0.0
H657 H 0.47302 0.67315 0.58546 0.0
H658 H 0.60905 0.64544 0.65859 0.0
H659 H 0.41772 0.64802 0.65489 0.0
H660 H 0.52382 0.66056 0.60885 0.0
H661 H 0.50364 0.59837 0.67047 0.0
C662 C 0.55581 0.59569 0.67541 0.0
C663 C 0.58604 0.60851 0.67172 0.0
C664 C 0.50054 0.65835 0.61909 0.0
C665 C 0.52822 0.63448 0.65685 0.0
C666 C 0.47168 0.66544 0.60578 0.0
C667 C 0.44131 0.66165 0.61835 0.0
C668 C 0.49876 0.64651 0.64463 0.0
C669 C 0.44075 0.65144 0.64464 0.0
C670 C 0.52676 0.60883 0.66845 0.0
C671 C 0.58619 0.63495 0.6619 0.0
N672 N 0.46907 0.64358 0.65673 0.0
N673 N 0.55773 0.64686 0.65415 0.0
H674 H 0.30568 0.56494 0.58187 0.0
H675 H 0.34475 0.47435 0.70588 0.0
H676 H 0.31936 0.59966 0.6604 0.0
H677 H 0.28162 0.44651 0.64226 0.0
H678 H 0.33762 0.52039 0.68952 0.0
H679 H 0.29872 0.52087 0.60291 0.0
C680 C 0.30691 0.5633 0.60355 0.0
C681 C 0.3133 0.58588 0.61944 0.0
C682 C 0.3249 0.50422 0.67946 0.0
C683 C 0.30587 0.53568 0.64349 0.0
C684 C 0.329 0.478 0.68873 0.0
C685 C 0.31391 0.45666 0.67527 0.0
C686 C 0.30627 0.50893 0.65622 0.0
C687 C 0.29371 0.46243 0.65319 0.0
C688 C 0.30277 0.53823 0.61552 0.0
C689 C 0.31446 0.58273 0.64744 0.0
N690 N 0.29096 0.488 0.64401 0.0
N691 N 0.31137 0.55796 0.65858 0.0
H692 H 0.61258 0.29845 0.65522 0.0
H693 H 0.45767 0.39574 0.64983 0.0
H694 H 0.60905 0.37198 0.60937 0.0
H695 H 0.46758 0.33389 0.71003 0.0
H696 H 0.51367 0.38715 0.63536 0.0
H697 H 0.55996 0.31047 0.67597 0.0
C698 C 0.60081 0.31713 0.6496 0.0
C699 C 0.61506 0.33414 0.63038 0.0
C700 C 0.50384 0.37558 0.65192 0.0
C701 C 0.5551 0.34795 0.65395 0.0
C702 C 0.47182 0.38048 0.66019 0.0
C703 C 0.45796 0.36541 0.68108 0.0
C704 C 0.52213 0.35512 0.6643 0.0
C705 C 0.47744 0.34598 0.69387 0.0
C706 C 0.57089 0.32402 0.66152 0.0
C707 C 0.59889 0.35817 0.62395 0.0
N708 N 0.5085 0.34112 0.68504 0.0
N709 N 0.56973 0.36424 0.63555 0.0
H710 H 0.71805 0.4993 0.71093 0.0
H711 H 0.74403 0.41582 0.58388 0.0
H712 H 0.7763 0.53157 0.64618 0.0
H713 H 0.7513 0.37644 0.66087 0.0
H714 H 0.75403 0.45896 0.60589 0.0
H715 H 0.72838 0.45398 0.69375 0.0
C716 C 0.73362 0.49676 0.69349 0.0
C717 C 0.74616 0.51911 0.67983 0.0
C718 C 0.75408 0.44079 0.61785 0.0
C719 C 0.75721 0.46776 0.6598 0.0
C720 C 0.74822 0.41628 0.60536 0.0
C721 C 0.74674 0.39272 0.62067 0.0
C722 C 0.75738 0.44173 0.64589 0.0
C723 C 0.75235 0.39425 0.64842 0.0
C724 C 0.73954 0.47098 0.68375 0.0
C725 C 0.76616 0.51484 0.6573 0.0
N726 N 0.75668 0.4185 0.66031 0.0
N727 N 0.7704 0.48965 0.64754 0.0
H728 H 0.44673 0.29471 0.38373 0.0
H729 H 0.51219 0.39377 0.28113 0.0
H730 H 0.38043 0.32634 0.32413 0.0
H731 H 0.5712 0.32499 0.30226 0.0
H732 H 0.46313 0.3693 0.29533 0.0
H733 H 0.49286 0.30428 0.35375 0.0
C734 C 0.44192 0.303 0.36399 0.0
C735 C 0.40994 0.30979 0.35627 0.0
C736 C 0.48672 0.35932 0.29617 0.0
C737 C 0.46237 0.32166 0.32245 0.0
C738 C 0.51468 0.37329 0.28818 0.0
C739 C 0.54572 0.36142 0.29077 0.0
C740 C 0.49004 0.33371 0.30762 0.0
C741 C 0.54768 0.33484 0.29998 0.0
C742 C 0.46816 0.30842 0.3469 0.0
C743 C 0.40483 0.3207 0.33064 0.0
N744 N 0.52027 0.32209 0.3088 0.0
N745 N 0.43093 0.32704 0.31486 0.0
H746 H 0.6573 0.48001 0.2522 0.0
H747 H 0.68262 0.55488 0.38759 0.0
H748 H 0.72457 0.4492 0.31167 0.0
H749 H 0.67109 0.60001 0.31412 0.0
H750 H 0.69395 0.51458 0.36092 0.0
H751 H 0.65875 0.52381 0.27458 0.0
C752 C 0.67296 0.48268 0.26957 0.0
C753 C 0.69082 0.46105 0.28012 0.0
C754 C 0.68929 0.53342 0.35072 0.0
C755 C 0.69166 0.51046 0.30618 0.0
C756 C 0.68259 0.5563 0.36588 0.0
C757 C 0.67582 0.58071 0.353 0.0
C758 C 0.68835 0.53491 0.32257 0.0
C759 C 0.67627 0.58155 0.32481 0.0
C760 C 0.6737 0.50757 0.28233 0.0
C761 C 0.71055 0.46542 0.3028 0.0
N762 N 0.68191 0.55885 0.31049 0.0
N763 N 0.70988 0.48951 0.31546 0.0
H764 H 0.57432 0.65157 0.32132 0.0
H765 H 0.37914 0.65329 0.3255 0.0
H766 H 0.51992 0.67574 0.3915 0.0
H767 H 0.43417 0.58508 0.29697 0.0
H768 H 0.43093 0.67645 0.33514 0.0
H769 H 0.5223 0.64236 0.29818 0.0
C770 C 0.55142 0.65587 0.33148 0.0
C771 C 0.5512 0.66427 0.35834 0.0
C772 C 0.43149 0.65674 0.32601 0.0
C773 C 0.49222 0.65424 0.33202 0.0
C774 C 0.40209 0.6436 0.32036 0.0
C775 C 0.40256 0.61721 0.31062 0.0
C776 C 0.46132 0.64361 0.32115 0.0
C777 C 0.4329 0.60537 0.30465 0.0
C778 C 0.52191 0.65047 0.31835 0.0
C779 C 0.52097 0.66915 0.37081 0.0
N780 N 0.46118 0.61862 0.31016 0.0
N781 N 0.49258 0.66394 0.35757 0.0
H782 H 0.27589 0.37508 0.34061 0.0
H783 H 0.23379 0.5302 0.35656 0.0
H784 H 0.28924 0.41719 0.41549 0.0
H785 H 0.2786 0.49797 0.28505 0.0
H786 H 0.23638 0.48551 0.37722 0.0
H787 H 0.25974 0.41731 0.31923 0.0
C788 C 0.27499 0.39314 0.35266 0.0
C789 C 0.28417 0.39272 0.37984 0.0
C790 C 0.24499 0.48821 0.35681 0.0
C791 C 0.26522 0.4408 0.35555 0.0
C792 C 0.24321 0.51355 0.34491 0.0
C793 C 0.25602 0.51764 0.31907 0.0
C794 C 0.25899 0.46688 0.34251 0.0
C795 C 0.2685 0.49554 0.30502 0.0
C796 C 0.26586 0.41716 0.3404 0.0
C797 C 0.28265 0.41673 0.39444 0.0
N798 N 0.26975 0.47103 0.31695 0.0
N799 N 0.27332 0.43988 0.38209 0.0
loop_
_geom_bond_atom_site_label_1
_geom_bond_atom_site_label_2
_geom_bond_distance
_geom_bond_site_symmetry_2
_ccdc_geom_bond_type
C0 O1 1.306 . S
C0 O3 1.160 . S
O1 C0 1.306 . S
O1 Cd2 2.228 . S
Cd2 O1 2.228 . S
Cd2 O6 2.273 . S
Cd2 O10 2.277 . S
O3 C0 1.160 . S
O3 Cd4 2.203 . S
Cd4 O3 2.203 . S
Cd4 O6 2.411 . S
Cd4 O7 2.333 . S
Cd4 O8 2.352 . S
Cd4 O12 2.277 . S
Cd4 O13 2.356 . S
C5 O10 1.209 . S
C5 O12 1.226 . S
O6 Cd2 2.273 . S
O6 Cd4 2.411 . S
O6 C9 1.320 . S
O7 Cd4 2.333 . S
O7 C9 1.214 . S
O8 Cd4 2.352 . S
O8 C11 1.258 . S
C9 O6 1.320 . S
C9 O7 1.214 . S
O10 Cd2 2.277 . S
O10 C5 1.209 . S
C11 O8 1.258 . S
C11 O13 1.282 . S
O12 Cd4 2.277 . S
O12 C5 1.226 . S
O13 Cd4 2.356 . S
O13 C11 1.282 . S
C14 O15 1.306 . S
C14 O17 1.160 . S
O15 C14 1.306 . S
O15 Cd16 2.228 . S
Cd16 O15 2.228 . S
Cd16 O20 2.273 . S
Cd16 O24 2.277 . S
O17 C14 1.160 . S
O17 Cd18 2.203 . S
Cd18 O17 2.203 . S
Cd18 O20 2.411 . S
Cd18 O21 2.333 . S
Cd18 O22 2.352 . S
Cd18 O26 2.277 . S
Cd18 O27 2.356 . S
C19 O24 1.209 . S
C19 O26 1.226 . S
O20 Cd16 2.273 . S
O20 Cd18 2.411 . S
O20 C23 1.320 . S
O21 Cd18 2.333 . S
O21 C23 1.214 . S
O22 Cd18 2.352 . S
O22 C25 1.258 . S
C23 O20 1.320 . S
C23 O21 1.214 . S
O24 Cd16 2.277 . S
O24 C19 1.209 . S
C25 O22 1.258 . S
C25 O27 1.282 . S
O26 Cd18 2.277 . S
O26 C19 1.226 . S
O27 Cd18 2.356 . S
O27 C25 1.282 . S
C28 O29 1.306 . S
C28 O31 1.160 . S
O29 C28 1.306 . S
O29 Cd30 2.228 . S
Cd30 O29 2.228 . S
Cd30 O34 2.273 . S
Cd30 O38 2.277 . S
O31 C28 1.160 . S
O31 Cd32 2.203 . S
Cd32 O31 2.203 . S
Cd32 O34 2.411 . S
Cd32 O35 2.333 . S
Cd32 O36 2.352 . S
Cd32 O40 2.277 . S
Cd32 O41 2.356 . S
C33 O38 1.209 . S
C33 O40 1.226 . S
O34 Cd30 2.273 . S
O34 Cd32 2.411 . S
O34 C37 1.320 . S
O35 Cd32 2.333 . S
O35 C37 1.214 . S
O36 Cd32 2.352 . S
O36 C39 1.258 . S
C37 O34 1.320 . S
C37 O35 1.214 . S
O38 Cd30 2.277 . S
O38 C33 1.209 . S
C39 O36 1.258 . S
C39 O41 1.282 . S
O40 Cd32 2.277 . S
O40 C33 1.226 . S
O41 Cd32 2.356 . S
O41 C39 1.282 . S
C42 O43 1.306 . S
C42 O45 1.160 . S
O43 C42 1.306 . S
O43 Cd44 2.228 . S
Cd44 O43 2.228 . S
Cd44 O48 2.273 . S
Cd44 O52 2.277 . S
O45 C42 1.160 . S
O45 Cd46 2.203 . S
Cd46 O45 2.203 . S
Cd46 O48 2.411 . S
Cd46 O49 2.333 . S
Cd46 O50 2.352 . S
Cd46 O54 2.277 . S
Cd46 O55 2.356 . S
C47 O52 1.209 . S
C47 O54 1.226 . S
O48 Cd44 2.273 . S
O48 Cd46 2.411 . S
O48 C51 1.320 . S
O49 Cd46 2.333 . S
O49 C51 1.214 . S
O50 Cd46 2.352 . S
O50 C53 1.258 . S
C51 O48 1.320 . S
C51 O49 1.214 . S
O52 Cd44 2.277 . S
O52 C47 1.209 . S
C53 O50 1.258 . S
C53 O55 1.282 . S
O54 Cd46 2.277 . S
O54 C47 1.226 . S
O55 Cd46 2.356 . S
O55 C53 1.282 . S
C56 O57 1.306 . S
C56 O59 1.160 . S
O57 C56 1.306 . S
O57 Cd58 2.228 . S
Cd58 O57 2.228 . S
Cd58 O62 2.273 . S
Cd58 O66 2.277 . S
O59 C56 1.160 . S
O59 Cd60 2.203 . S
Cd60 O59 2.203 . S
Cd60 O62 2.411 . S
Cd60 O63 2.333 . S
Cd60 O64 2.352 . S
Cd60 O68 2.277 . S
Cd60 O69 2.356 . S
C61 O66 1.209 . S
C61 O68 1.226 . S
O62 Cd58 2.273 . S
O62 Cd60 2.411 . S
O62 C65 1.320 . S
O63 Cd60 2.333 . S
O63 C65 1.214 . S
O64 Cd60 2.352 . S
O64 C67 1.258 . S
C65 O62 1.320 . S
C65 O63 1.214 . S
O66 Cd58 2.277 . S
O66 C61 1.209 . S
C67 O64 1.258 . S
C67 O69 1.282 . S
O68 Cd60 2.277 . S
O68 C61 1.226 . S
O69 Cd60 2.356 . S
O69 C67 1.282 . S
C70 O71 1.306 . S
C70 O73 1.160 . S
O71 C70 1.306 . S
O71 Cd72 2.228 . S
Cd72 O71 2.228 . S
Cd72 O76 2.273 . S
Cd72 O80 2.277 . S
O73 C70 1.160 . S
O73 Cd74 2.203 . S
Cd74 O73 2.203 . S
Cd74 O76 2.411 . S
Cd74 O77 2.333 . S
Cd74 O78 2.352 . S
Cd74 O82 2.277 . S
Cd74 O83 2.356 . S
C75 O80 1.209 . S
C75 O82 1.226 . S
O76 Cd72 2.273 . S
O76 Cd74 2.411 . S
O76 C79 1.320 . S
O77 Cd74 2.333 . S
O77 C79 1.214 . S
O78 Cd74 2.352 . S
O78 C81 1.258 . S
C79 O76 1.320 . S
C79 O77 1.214 . S
O80 Cd72 2.277 . S
O80 C75 1.209 . S
C81 O78 1.258 . S
C81 O83 1.282 . S
O82 Cd74 2.277 . S
O82 C75 1.226 . S
O83 Cd74 2.356 . S
O83 C81 1.282 . S
C84 O85 1.306 . S
C84 O87 1.160 . S
O85 C84 1.306 . S
O85 Cd86 2.228 . S
Cd86 O85 2.228 . S
Cd86 O90 2.273 . S
Cd86 O94 2.277 . S
O87 C84 1.160 . S
O87 Cd88 2.203 . S
Cd88 O87 2.203 . S
Cd88 O90 2.411 . S
Cd88 O91 2.333 . S
Cd88 O92 2.352 . S
Cd88 O96 2.277 . S
Cd88 O97 2.356 . S
C89 O94 1.209 . S
C89 O96 1.226 . S
O90 Cd86 2.273 . S
O90 Cd88 2.411 . S
O90 C93 1.320 . S
O91 Cd88 2.333 . S
O91 C93 1.214 . S
O92 Cd88 2.352 . S
O92 C95 1.258 . S
C93 O90 1.320 . S
C93 O91 1.214 . S
O94 Cd86 2.277 . S
O94 C89 1.209 . S
C95 O92 1.258 . S
C95 O97 1.282 . S
O96 Cd88 2.277 . S
O96 C89 1.226 . S
O97 Cd88 2.356 . S
O97 C95 1.282 . S
C98 O99 1.306 . S
C98 O101 1.160 . S
O99 C98 1.306 . S
O99 Cd100 2.228 . S
Cd100 O99 2.228 . S
Cd100 O104 2.273 . S
Cd100 O108 2.277 . S
O101 C98 1.160 . S
O101 Cd102 2.203 . S
Cd102 O101 2.203 . S
Cd102 O104 2.411 . S
Cd102 O105 2.333 . S
Cd102 O106 2.352 . S
Cd102 O110 2.277 . S
Cd102 O111 2.356 . S
C103 O108 1.209 . S
C103 O110 1.226 . S
O104 Cd100 2.273 . S
O104 Cd102 2.411 . S
O104 C107 1.320 . S
O105 Cd102 2.333 . S
O105 C107 1.214 . S
O106 Cd102 2.352 . S
O106 C109 1.258 . S
C107 O104 1.320 . S
C107 O105 1.214 . S
O108 Cd100 2.277 . S
O108 C103 1.209 . S
C109 O106 1.258 . S
C109 O111 1.282 . S
O110 Cd102 2.277 . S
O110 C103 1.226 . S
O111 Cd102 2.356 . S
O111 C109 1.282 . S
C112 O113 1.306 . S
C112 O115 1.160 . S
O113 C112 1.306 . S
O113 Cd114 2.228 . S
Cd114 O113 2.228 . S
Cd114 O118 2.273 . S
Cd114 O122 2.277 . S
O115 C112 1.160 . S
O115 Cd116 2.203 . S
Cd116 O115 2.203 . S
Cd116 O118 2.411 . S
Cd116 O119 2.333 . S
Cd116 O120 2.352 . S
Cd116 O124 2.277 . S
Cd116 O125 2.356 . S
C117 O122 1.209 . S
C117 O124 1.226 . S
O118 Cd114 2.273 . S
O118 Cd116 2.411 . S
O118 C121 1.320 . S
O119 Cd116 2.333 . S
O119 C121 1.214 . S
O120 Cd116 2.352 . S
O120 C123 1.258 . S
C121 O118 1.320 . S
C121 O119 1.214 . S
O122 Cd114 2.277 . S
O122 C117 1.209 . S
C123 O120 1.258 . S
C123 O125 1.282 . S
O124 Cd116 2.277 . S
O124 C117 1.226 . S
O125 Cd116 2.356 . S
O125 C123 1.282 . S
C126 O127 1.306 . S
C126 O129 1.160 . S
O127 C126 1.306 . S
O127 Cd128 2.228 . S
Cd128 O127 2.228 . S
Cd128 O132 2.273 . S
Cd128 O136 2.277 . S
O129 C126 1.160 . S
O129 Cd130 2.203 . S
Cd130 O129 2.203 . S
Cd130 O132 2.411 . S
Cd130 O133 2.333 . S
Cd130 O134 2.352 . S
Cd130 O138 2.277 . S
Cd130 O139 2.356 . S
C131 O136 1.209 . S
C131 O138 1.226 . S
O132 Cd128 2.273 . S
O132 Cd130 2.411 . S
O132 C135 1.320 . S
O133 Cd130 2.333 . S
O133 C135 1.214 . S
O134 Cd130 2.352 . S
O134 C137 1.258 . S
C135 O132 1.320 . S
C135 O133 1.214 . S
O136 Cd128 2.277 . S
O136 C131 1.209 . S
C137 O134 1.258 . S
C137 O139 1.282 . S
O138 Cd130 2.277 . S
O138 C131 1.226 . S
O139 Cd130 2.356 . S
O139 C137 1.282 . S
C140 O141 1.306 . S
C140 O143 1.160 . S
O141 C140 1.306 . S
O141 Cd142 2.228 . S
Cd142 O141 2.228 . S
Cd142 O146 2.273 . S
Cd142 O150 2.277 . S
O143 C140 1.160 . S
O143 Cd144 2.203 . S
Cd144 O143 2.203 . S
Cd144 O146 2.411 . S
Cd144 O147 2.333 . S
Cd144 O148 2.352 . S
Cd144 O152 2.277 . S
Cd144 O153 2.356 . S
C145 O150 1.209 . S
C145 O152 1.226 . S
O146 Cd142 2.273 . S
O146 Cd144 2.411 . S
O146 C149 1.320 . S
O147 Cd144 2.333 . S
O147 C149 1.214 . S
O148 Cd144 2.352 . S
O148 C151 1.258 . S
C149 O146 1.320 . S
C149 O147 1.214 . S
O150 Cd142 2.277 . S
O150 C145 1.209 . S
C151 O148 1.258 . S
C151 O153 1.282 . S
O152 Cd144 2.277 . S
O152 C145 1.226 . S
O153 Cd144 2.356 . S
O153 C151 1.282 . S
C154 O155 1.306 . S
C154 O157 1.160 . S
O155 C154 1.306 . S
O155 Cd156 2.228 . S
Cd156 O155 2.228 . S
Cd156 O160 2.273 . S
Cd156 O164 2.277 . S
O157 C154 1.160 . S
O157 Cd158 2.203 . S
Cd158 O157 2.203 . S
Cd158 O160 2.411 . S
Cd158 O161 2.333 . S
Cd158 O162 2.352 . S
Cd158 O166 2.277 . S
Cd158 O167 2.356 . S
C159 O164 1.209 . S
C159 O166 1.226 . S
O160 Cd156 2.273 . S
O160 Cd158 2.411 . S
O160 C163 1.320 . S
O161 Cd158 2.333 . S
O161 C163 1.214 . S
O162 Cd158 2.352 . S
O162 C165 1.258 . S
C163 O160 1.320 . S
C163 O161 1.214 . S
O164 Cd156 2.277 . S
O164 C159 1.209 . S
C165 O162 1.258 . S
C165 O167 1.282 . S
O166 Cd158 2.277 . S
O166 C159 1.226 . S
O167 Cd158 2.356 . S
O167 C165 1.282 . S
C168 O169 1.306 . S
C168 O171 1.160 . S
O169 C168 1.306 . S
O169 Cd170 2.228 . S
Cd170 O169 2.228 . S
Cd170 O174 2.273 . S
Cd170 O178 2.277 . S
O171 C168 1.160 . S
O171 Cd172 2.203 . S
Cd172 O171 2.203 . S
Cd172 O174 2.411 . S
Cd172 O175 2.333 . S
Cd172 O176 2.352 . S
Cd172 O180 2.277 . S
Cd172 O181 2.356 . S
C173 O178 1.209 . S
C173 O180 1.226 . S
O174 Cd170 2.273 . S
O174 Cd172 2.411 . S
O174 C177 1.320 . S
O175 Cd172 2.333 . S
O175 C177 1.214 . S
O176 Cd172 2.352 . S
O176 C179 1.258 . S
C177 O174 1.320 . S
C177 O175 1.214 . S
O178 Cd170 2.277 . S
O178 C173 1.209 . S
C179 O176 1.258 . S
C179 O181 1.282 . S
O180 Cd172 2.277 . S
O180 C173 1.226 . S
O181 Cd172 2.356 . S
O181 C179 1.282 . S
C182 O183 1.306 . S
C182 O185 1.160 . S
O183 C182 1.306 . S
O183 Cd184 2.228 . S
Cd184 O183 2.228 . S
Cd184 O188 2.273 . S
Cd184 O192 2.277 . S
O185 C182 1.160 . S
O185 Cd186 2.203 . S
Cd186 O185 2.203 . S
Cd186 O188 2.411 . S
Cd186 O189 2.333 . S
Cd186 O190 2.352 . S
Cd186 O194 2.277 . S
Cd186 O195 2.356 . S
C187 O192 1.209 . S
C187 O194 1.226 . S
O188 Cd184 2.273 . S
O188 Cd186 2.411 . S
O188 C191 1.320 . S
O189 Cd186 2.333 . S
O189 C191 1.214 . S
O190 Cd186 2.352 . S
O190 C193 1.258 . S
C191 O188 1.320 . S
C191 O189 1.214 . S
O192 Cd184 2.277 . S
O192 C187 1.209 . S
C193 O190 1.258 . S
C193 O195 1.282 . S
O194 Cd186 2.277 . S
O194 C187 1.226 . S
O195 Cd186 2.356 . S
O195 C193 1.282 . S
C196 O197 1.306 . S
C196 O199 1.160 . S
O197 C196 1.306 . S
O197 Cd198 2.228 . S
Cd198 O197 2.228 . S
Cd198 O202 2.273 . S
Cd198 O206 2.277 . S
O199 C196 1.160 . S
O199 Cd200 2.203 . S
Cd200 O199 2.203 . S
Cd200 O202 2.411 . S
Cd200 O203 2.333 . S
Cd200 O204 2.352 . S
Cd200 O208 2.277 . S
Cd200 O209 2.356 . S
C201 O206 1.209 . S
C201 O208 1.226 . S
O202 Cd198 2.273 . S
O202 Cd200 2.411 . S
O202 C205 1.320 . S
O203 Cd200 2.333 . S
O203 C205 1.214 . S
O204 Cd200 2.352 . S
O204 C207 1.258 . S
C205 O202 1.320 . S
C205 O203 1.214 . S
O206 Cd198 2.277 . S
O206 C201 1.209 . S
C207 O204 1.258 . S
C207 O209 1.282 . S
O208 Cd200 2.277 . S
O208 C201 1.226 . S
O209 Cd200 2.356 . S
O209 C207 1.282 . S
C210 O211 1.306 . S
C210 O213 1.160 . S
O211 C210 1.306 . S
O211 Cd212 2.228 . S
Cd212 O211 2.228 . S
Cd212 O216 2.273 . S
Cd212 O220 2.277 . S
O213 C210 1.160 . S
O213 Cd214 2.203 . S
Cd214 O213 2.203 . S
Cd214 O216 2.411 . S
Cd214 O217 2.333 . S
Cd214 O218 2.352 . S
Cd214 O222 2.277 . S
Cd214 O223 2.356 . S
C215 O220 1.209 . S
C215 O222 1.226 . S
O216 Cd212 2.273 . S
O216 Cd214 2.411 . S
O216 C219 1.320 . S
O217 Cd214 2.333 . S
O217 C219 1.214 . S
O218 Cd214 2.352 . S
O218 C221 1.258 . S
C219 O216 1.320 . S
C219 O217 1.214 . S
O220 Cd212 2.277 . S
O220 C215 1.209 . S
C221 O218 1.258 . S
C221 O223 1.282 . S
O222 Cd214 2.277 . S
O222 C215 1.226 . S
O223 Cd214 2.356 . S
O223 C221 1.282 . S
H224 C230 0.930 . S
H225 C234 0.930 . S
H226 C239 0.929 . S
H227 C237 0.929 . S
H228 C232 0.929 . S
H229 C238 0.929 . S
C230 H224 0.930 . S
C230 C231 1.367 . S
C230 C238 1.378 . S
C231 C230 1.367 . S
C231 C239 1.433 . S
C232 H228 0.929 . S
C232 C234 1.378 . S
C232 C236 1.350 . S
C233 C236 1.463 . S
C233 C238 1.350 . S
C233 N241 1.427 . S
C234 H225 0.930 . S
C234 C232 1.378 . S
C234 C235 1.367 . S
C235 C234 1.367 . S
C235 C237 1.433 . S
C236 C232 1.350 . S
C236 C233 1.463 . S
C236 N240 1.427 . S
C237 H227 0.929 . S
C237 C235 1.433 . S
C237 N240 1.384 . S
C238 H229 0.929 . S
C238 C230 1.378 . S
C238 C233 1.350 . S
C239 H226 0.929 . S
C239 C231 1.433 . S
C239 N241 1.384 . S
N240 C236 1.427 . S
N240 C237 1.384 . S
N241 C233 1.427 . S
N241 C239 1.384 . S
H242 C248 0.930 . S
H243 C252 0.930 . S
H244 C257 0.929 . S
H245 C255 0.929 . S
H246 C250 0.929 . S
H247 C256 0.929 . S
C248 H242 0.930 . S
C248 C249 1.367 . S
C248 C256 1.378 . S
C249 C248 1.367 . S
C249 C257 1.433 . S
C250 H246 0.929 . S
C250 C252 1.378 . S
C250 C254 1.350 . S
C251 C254 1.463 . S
C251 C256 1.350 . S
C251 N259 1.427 . S
C252 H243 0.930 . S
C252 C250 1.378 . S
C252 C253 1.367 . S
C253 C252 1.367 . S
C253 C255 1.433 . S
C254 C250 1.350 . S
C254 C251 1.463 . S
C254 N258 1.427 . S
C255 H245 0.929 . S
C255 C253 1.433 . S
C255 N258 1.384 . S
C256 H247 0.929 . S
C256 C248 1.378 . S
C256 C251 1.350 . S
C257 H244 0.929 . S
C257 C249 1.433 . S
C257 N259 1.384 . S
N258 C254 1.427 . S
N258 C255 1.384 . S
N259 C251 1.427 . S
N259 C257 1.384 . S
H260 C266 0.930 . S
H261 C270 0.930 . S
H262 C275 0.929 . S
H263 C273 0.929 . S
H264 C268 0.929 . S
H265 C274 0.929 . S
C266 H260 0.930 . S
C266 C267 1.367 . S
C266 C274 1.378 . S
C267 C266 1.367 . S
C267 C275 1.433 . S
C268 H264 0.929 . S
C268 C270 1.378 . S
C268 C272 1.350 . S
C269 C272 1.463 . S
C269 C274 1.350 . S
C269 N277 1.427 . S
C270 H261 0.930 . S
C270 C268 1.378 . S
C270 C271 1.367 . S
C271 C270 1.367 . S
C271 C273 1.433 . S
C272 C268 1.350 . S
C272 C269 1.463 . S
C272 N276 1.427 . S
C273 H263 0.929 . S
C273 C271 1.433 . S
C273 N276 1.384 . S
C274 H265 0.929 . S
C274 C266 1.378 . S
C274 C269 1.350 . S
C275 H262 0.929 . S
C275 C267 1.433 . S
C275 N277 1.384 . S
N276 C272 1.427 . S
N276 C273 1.384 . S
N277 C269 1.427 . S
N277 C275 1.384 . S
H278 C284 0.930 . S
H279 C288 0.930 . S
H280 C293 0.929 . S
H281 C291 0.929 . S
H282 C286 0.929 . S
H283 C292 0.929 . S
C284 H278 0.930 . S
C284 C285 1.367 . S
C284 C292 1.378 . S
C285 C284 1.367 . S
C285 C293 1.433 . S
C286 H282 0.929 . S
C286 C288 1.378 . S
C286 C290 1.350 . S
C287 C290 1.463 . S
C287 C292 1.350 . S
C287 N295 1.427 . S
C288 H279 0.930 . S
C288 C286 1.378 . S
C288 C289 1.367 . S
C289 C288 1.367 . S
C289 C291 1.433 . S
C290 C286 1.350 . S
C290 C287 1.463 . S
C290 N294 1.427 . S
C291 H281 0.929 . S
C291 C289 1.433 . S
C291 N294 1.384 . S
C292 H283 0.929 . S
C292 C284 1.378 . S
C292 C287 1.350 . S
C293 H280 0.929 . S
C293 C285 1.433 . S
C293 N295 1.384 . S
N294 C290 1.427 . S
N294 C291 1.384 . S
N295 C287 1.427 . S
N295 C293 1.384 . S
H296 C302 0.930 . S
H297 C306 0.930 . S
H298 C311 0.929 . S
H299 C309 0.929 . S
H300 C304 0.929 . S
H301 C310 0.929 . S
C302 H296 0.930 . S
C302 C303 1.367 . S
C302 C310 1.378 . S
C303 C302 1.367 . S
C303 C311 1.433 . S
C304 H300 0.929 . S
C304 C306 1.378 . S
C304 C308 1.350 . S
C305 C308 1.463 . S
C305 C310 1.350 . S
C305 N313 1.427 . S
C306 H297 0.930 . S
C306 C304 1.378 . S
C306 C307 1.367 . S
C307 C306 1.367 . S
C307 C309 1.433 . S
C308 C304 1.350 . S
C308 C305 1.463 . S
C308 N312 1.427 . S
C309 H299 0.929 . S
C309 C307 1.433 . S
C309 N312 1.384 . S
C310 H301 0.929 . S
C310 C302 1.378 . S
C310 C305 1.350 . S
C311 H298 0.929 . S
C311 C303 1.433 . S
C311 N313 1.384 . S
N312 C308 1.427 . S
N312 C309 1.384 . S
N313 C305 1.427 . S
N313 C311 1.384 . S
H314 C320 0.930 . S
H315 C324 0.930 . S
H316 C329 0.929 . S
H317 C327 0.929 . S
H318 C322 0.929 . S
H319 C328 0.929 . S
C320 H314 0.930 . S
C320 C321 1.367 . S
C320 C328 1.378 . S
C321 C320 1.367 . S
C321 C329 1.433 . S
C322 H318 0.929 . S
C322 C324 1.378 . S
C322 C326 1.350 . S
C323 C326 1.463 . S
C323 C328 1.350 . S
C323 N331 1.427 . S
C324 H315 0.930 . S
C324 C322 1.378 . S
C324 C325 1.367 . S
C325 C324 1.367 . S
C325 C327 1.433 . S
C326 C322 1.350 . S
C326 C323 1.463 . S
C326 N330 1.427 . S
C327 H317 0.929 . S
C327 C325 1.433 . S
C327 N330 1.384 . S
C328 H319 0.929 . S
C328 C320 1.378 . S
C328 C323 1.350 . S
C329 H316 0.929 . S
C329 C321 1.433 . S
C329 N331 1.384 . S
N330 C326 1.427 . S
N330 C327 1.384 . S
N331 C323 1.427 . S
N331 C329 1.384 . S
H332 C338 0.930 . S
H333 C342 0.930 . S
H334 C347 0.929 . S
H335 C345 0.929 . S
H336 C340 0.929 . S
H337 C346 0.929 . S
C338 H332 0.930 . S
C338 C339 1.367 . S
C338 C346 1.378 . S
C339 C338 1.367 . S
C339 C347 1.433 . S
C340 H336 0.929 . S
C340 C342 1.378 . S
C340 C344 1.350 . S
C341 C344 1.463 . S
C341 C346 1.350 . S
C341 N349 1.427 . S
C342 H333 0.930 . S
C342 C340 1.378 . S
C342 C343 1.367 . S
C343 C342 1.367 . S
C343 C345 1.433 . S
C344 C340 1.350 . S
C344 C341 1.463 . S
C344 N348 1.427 . S
C345 H335 0.929 . S
C345 C343 1.433 . S
C345 N348 1.384 . S
C346 H337 0.929 . S
C346 C338 1.378 . S
C346 C341 1.350 . S
C347 H334 0.929 . S
C347 C339 1.433 . S
C347 N349 1.384 . S
N348 C344 1.427 . S
N348 C345 1.384 . S
N349 C341 1.427 . S
N349 C347 1.384 . S
H350 C356 0.930 . S
H351 C360 0.930 . S
H352 C365 0.929 . S
H353 C363 0.929 . S
H354 C358 0.929 . S
H355 C364 0.929 . S
C356 H350 0.930 . S
C356 C357 1.367 . S
C356 C364 1.378 . S
C357 C356 1.367 . S
C357 C365 1.433 . S
C358 H354 0.929 . S
C358 C360 1.378 . S
C358 C362 1.350 . S
C359 C362 1.463 . S
C359 C364 1.350 . S
C359 N367 1.427 . S
C360 H351 0.930 . S
C360 C358 1.378 . S
C360 C361 1.367 . S
C361 C360 1.367 . S
C361 C363 1.433 . S
C362 C358 1.350 . S
C362 C359 1.463 . S
C362 N366 1.427 . S
C363 H353 0.929 . S
C363 C361 1.433 . S
C363 N366 1.384 . S
C364 H355 0.929 . S
C364 C356 1.378 . S
C364 C359 1.350 . S
C365 H352 0.929 . S
C365 C357 1.433 . S
C365 N367 1.384 . S
N366 C362 1.427 . S
N366 C363 1.384 . S
N367 C359 1.427 . S
N367 C365 1.384 . S
H368 C374 0.930 . S
H369 C378 0.930 . S
H370 C383 0.929 . S
H371 C381 0.929 . S
H372 C376 0.929 . S
H373 C382 0.929 . S
C374 H368 0.930 . S
C374 C375 1.367 . S
C374 C382 1.378 . S
C375 C374 1.367 . S
C375 C383 1.433 . S
C376 H372 0.929 . S
C376 C378 1.378 . S
C376 C380 1.350 . S
C377 C380 1.463 1_556 S
C377 C382 1.350 . S
C377 N385 1.427 . S
C378 H369 0.930 . S
C378 C376 1.378 . S
C378 C379 1.367 . S
C379 C378 1.367 . S
C379 C381 1.433 . S
C380 C376 1.350 . S
C380 C377 1.463 1_554 S
C380 N384 1.427 . S
C381 H371 0.929 . S
C381 C379 1.433 . S
C381 N384 1.384 . S
C382 H373 0.929 . S
C382 C374 1.378 . S
C382 C377 1.350 . S
C383 H370 0.929 . S
C383 C375 1.433 . S
C383 N385 1.384 . S
N384 C380 1.427 . S
N384 C381 1.384 . S
N385 C377 1.427 . S
N385 C383 1.384 . S
H386 C392 0.930 . S
H387 C396 0.930 . S
H388 C401 0.929 . S
H389 C399 0.929 . S
H390 C394 0.929 . S
H391 C400 0.929 . S
C392 H386 0.930 . S
C392 C393 1.367 . S
C392 C400 1.378 . S
C393 C392 1.367 . S
C393 C401 1.433 . S
C394 H390 0.929 . S
C394 C396 1.378 . S
C394 C398 1.350 . S
C395 C398 1.463 1_556 S
C395 C400 1.350 . S
C395 N403 1.427 . S
C396 H387 0.930 . S
C396 C394 1.378 . S
C396 C397 1.367 . S
C397 C396 1.367 . S
C397 C399 1.433 . S
C398 C394 1.350 . S
C398 C395 1.463 1_554 S
C398 N402 1.427 . S
C399 H389 0.929 . S
C399 C397 1.433 . S
C399 N402 1.384 . S
C400 H391 0.929 . S
C400 C392 1.378 . S
C400 C395 1.350 . S
C401 H388 0.929 . S
C401 C393 1.433 . S
C401 N403 1.384 . S
N402 C398 1.427 . S
N402 C399 1.384 . S
N403 C395 1.427 . S
N403 C401 1.384 . S
H404 C410 0.930 . S
H405 C414 0.930 . S
H406 C419 0.929 . S
H407 C417 0.929 . S
H408 C412 0.929 . S
H409 C418 0.929 . S
C410 H404 0.930 . S
C410 C411 1.367 . S
C410 C418 1.378 . S
C411 C410 1.367 . S
C411 C419 1.433 . S
C412 H408 0.929 . S
C412 C414 1.378 . S
C412 C416 1.350 . S
C413 C416 1.463 1_556 S
C413 C418 1.350 . S
C413 N421 1.427 . S
C414 H405 0.930 . S
C414 C412 1.378 . S
C414 C415 1.367 . S
C415 C414 1.367 . S
C415 C417 1.433 . S
C416 C412 1.350 . S
C416 C413 1.463 1_554 S
C416 N420 1.427 . S
C417 H407 0.929 . S
C417 C415 1.433 . S
C417 N420 1.384 . S
C418 H409 0.929 . S
C418 C410 1.378 . S
C418 C413 1.350 . S
C419 H406 0.929 . S
C419 C411 1.433 . S
C419 N421 1.384 . S
N420 C416 1.427 . S
N420 C417 1.384 . S
N421 C413 1.427 . S
N421 C419 1.384 . S
H422 C428 0.930 . S
H423 C432 0.930 . S
H424 C437 0.929 . S
H425 C435 0.929 . S
H426 C430 0.929 . S
H427 C436 0.929 . S
C428 H422 0.930 . S
C428 C429 1.367 . S
C428 C436 1.378 . S
C429 C428 1.367 . S
C429 C437 1.433 . S
C430 H426 0.929 . S
C430 C432 1.378 . S
C430 C434 1.350 . S
C431 C434 1.463 1_554 S
C431 C436 1.350 . S
C431 N439 1.427 . S
C432 H423 0.930 . S
C432 C430 1.378 . S
C432 C433 1.367 . S
C433 C432 1.367 . S
C433 C435 1.433 . S
C434 C430 1.350 . S
C434 C431 1.463 1_556 S
C434 N438 1.427 . S
C435 H425 0.929 . S
C435 C433 1.433 . S
C435 N438 1.384 . S
C436 H427 0.929 . S
C436 C428 1.378 . S
C436 C431 1.350 . S
C437 H424 0.929 . S
C437 C429 1.433 . S
C437 N439 1.384 . S
N438 C434 1.427 . S
N438 C435 1.384 . S
N439 C431 1.427 . S
N439 C437 1.384 . S
H440 C446 0.930 . S
H441 C450 0.930 . S
H442 C455 0.929 . S
H443 C453 0.929 . S
H444 C448 0.929 . S
H445 C454 0.929 . S
C446 H440 0.930 . S
C446 C447 1.367 . S
C446 C454 1.378 . S
C447 C446 1.367 . S
C447 C455 1.433 . S
C448 H444 0.929 . S
C448 C450 1.378 . S
C448 C452 1.350 . S
C449 C452 1.463 1_455 S
C449 C454 1.350 . S
C449 N457 1.427 . S
C450 H441 0.930 . S
C450 C448 1.378 . S
C450 C451 1.367 . S
C451 C450 1.367 . S
C451 C453 1.433 . S
C452 C448 1.350 . S
C452 C449 1.463 1_655 S
C452 N456 1.427 . S
C453 H443 0.929 . S
C453 C451 1.433 . S
C453 N456 1.384 . S
C454 H445 0.929 . S
C454 C446 1.378 . S
C454 C449 1.350 . S
C455 H442 0.929 . S
C455 C447 1.433 . S
C455 N457 1.384 . S
N456 C452 1.427 . S
N456 C453 1.384 . S
N457 C449 1.427 . S
N457 C455 1.384 . S
H458 C464 0.930 . S
H459 C468 0.930 . S
H460 C473 0.929 . S
H461 C471 0.929 . S
H462 C466 0.929 . S
H463 C472 0.929 . S
C464 H458 0.930 . S
C464 C465 1.367 . S
C464 C472 1.378 . S
C465 C464 1.367 . S
C465 C473 1.433 . S
C466 H462 0.929 . S
C466 C468 1.378 . S
C466 C470 1.350 . S
C467 C470 1.463 1_565 S
C467 C472 1.350 . S
C467 N475 1.427 . S
C468 H459 0.930 . S
C468 C466 1.378 . S
C468 C469 1.367 . S
C469 C468 1.367 . S
C469 C471 1.433 . S
C470 C466 1.350 . S
C470 C467 1.463 1_545 S
C470 N474 1.427 . S
C471 H461 0.929 . S
C471 C469 1.433 . S
C471 N474 1.384 . S
C472 H463 0.929 . S
C472 C464 1.378 . S
C472 C467 1.350 . S
C473 H460 0.929 . S
C473 C465 1.433 . S
C473 N475 1.384 . S
N474 C470 1.427 . S
N474 C471 1.384 . S
N475 C467 1.427 . S
N475 C473 1.384 . S
H476 C482 0.930 . S
H477 C486 0.930 . S
H478 C491 0.929 . S
H479 C489 0.929 . S
H480 C484 0.929 . S
H481 C490 0.929 . S
C482 H476 0.930 . S
C482 C483 1.367 . S
C482 C490 1.378 . S
C483 C482 1.367 . S
C483 C491 1.433 . S
C484 H480 0.929 . S
C484 C486 1.378 . S
C484 C488 1.350 . S
C485 C488 1.463 1_655 S
C485 C490 1.350 . S
C485 N493 1.427 . S
C486 H477 0.930 . S
C486 C484 1.378 . S
C486 C487 1.367 . S
C487 C486 1.367 . S
C487 C489 1.433 . S
C488 C484 1.350 . S
C488 C485 1.463 1_455 S
C488 N492 1.427 . S
C489 H479 0.929 . S
C489 C487 1.433 . S
C489 N492 1.384 . S
C490 H481 0.929 . S
C490 C482 1.378 . S
C490 C485 1.350 . S
C491 H478 0.929 . S
C491 C483 1.433 . S
C491 N493 1.384 . S
N492 C488 1.427 . S
N492 C489 1.384 . S
N493 C485 1.427 . S
N493 C491 1.384 . S
H494 C500 0.930 . S
H495 C504 0.930 . S
H496 C509 0.929 . S
H497 C507 0.929 . S
H498 C502 0.929 . S
H499 C508 0.929 . S
C500 H494 0.930 . S
C500 C501 1.367 . S
C500 C508 1.378 . S
C501 C500 1.367 . S
C501 C509 1.433 . S
C502 H498 0.929 . S
C502 C504 1.378 . S
C502 C506 1.350 . S
C503 C506 1.463 1_545 S
C503 C508 1.350 . S
C503 N511 1.427 . S
C504 H495 0.930 . S
C504 C502 1.378 . S
C504 C505 1.367 . S
C505 C504 1.367 . S
C505 C507 1.433 . S
C506 C502 1.350 . S
C506 C503 1.463 1_565 S
C506 N510 1.427 . S
C507 H497 0.929 . S
C507 C505 1.433 . S
C507 N510 1.384 . S
C508 H499 0.929 . S
C508 C500 1.378 . S
C508 C503 1.350 . S
C509 H496 0.929 . S
C509 C501 1.433 . S
C509 N511 1.384 . S
N510 C506 1.427 . S
N510 C507 1.384 . S
N511 C503 1.427 . S
N511 C509 1.384 . S
H512 C518 0.930 . S
H513 C522 0.930 . S
H514 C527 0.929 . S
H515 C525 0.929 . S
H516 C520 0.929 . S
H517 C526 0.929 . S
C518 H512 0.930 . S
C518 C519 1.367 . S
C518 C526 1.378 . S
C519 C518 1.367 . S
C519 C527 1.433 . S
C520 H516 0.929 . S
C520 C522 1.378 . S
C520 C524 1.350 . S
C521 C524 1.463 1_655 S
C521 C526 1.350 . S
C521 N529 1.427 . S
C522 H513 0.930 . S
C522 C520 1.378 . S
C522 C523 1.367 . S
C523 C522 1.367 . S
C523 C525 1.433 . S
C524 C520 1.350 . S
C524 C521 1.463 1_455 S
C524 N528 1.427 . S
C525 H515 0.929 . S
C525 C523 1.433 . S
C525 N528 1.384 . S
C526 H517 0.929 . S
C526 C518 1.378 . S
C526 C521 1.350 . S
C527 H514 0.929 . S
C527 C519 1.433 . S
C527 N529 1.384 . S
N528 C524 1.427 . S
N528 C525 1.384 . S
N529 C521 1.427 . S
N529 C527 1.384 . S
H530 C536 0.930 . S
H531 C540 0.930 . S
H532 C545 0.929 . S
H533 C543 0.929 . S
H534 C538 0.929 . S
H535 C544 0.929 . S
C536 H530 0.930 . S
C536 C537 1.367 . S
C536 C544 1.378 . S
C537 C536 1.367 . S
C537 C545 1.433 . S
C538 H534 0.929 . S
C538 C540 1.378 . S
C538 C542 1.350 . S
C539 C542 1.463 1_565 S
C539 C544 1.350 . S
C539 N547 1.427 . S
C540 H531 0.930 . S
C540 C538 1.378 . S
C540 C541 1.367 . S
C541 C540 1.367 . S
C541 C543 1.433 . S
C542 C538 1.350 . S
C542 C539 1.463 1_545 S
C542 N546 1.427 . S
C543 H533 0.929 . S
C543 C541 1.433 . S
C543 N546 1.384 . S
C544 H535 0.929 . S
C544 C536 1.378 . S
C544 C539 1.350 . S
C545 H532 0.929 . S
C545 C537 1.433 . S
C545 N547 1.384 . S
N546 C542 1.427 . S
N546 C543 1.384 . S
N547 C539 1.427 . S
N547 C545 1.384 . S
H548 C554 0.930 . S
H549 C558 0.930 . S
H550 C563 0.929 . S
H551 C561 0.929 . S
H552 C556 0.929 . S
H553 C562 0.929 . S
C554 H548 0.930 . S
C554 C555 1.367 . S
C554 C562 1.378 . S
C555 C554 1.367 . S
C555 C563 1.433 . S
C556 H552 0.929 . S
C556 C558 1.378 . S
C556 C560 1.350 . S
C557 C560 1.463 1_455 S
C557 C562 1.350 . S
C557 N565 1.427 . S
C558 H549 0.930 . S
C558 C556 1.378 . S
C558 C559 1.367 . S
C559 C558 1.367 . S
C559 C561 1.433 . S
C560 C556 1.350 . S
C560 C557 1.463 1_655 S
C560 N564 1.427 . S
C561 H551 0.929 . S
C561 C559 1.433 . S
C561 N564 1.384 . S
C562 H553 0.929 . S
C562 C554 1.378 . S
C562 C557 1.350 . S
C563 H550 0.929 . S
C563 C555 1.433 . S
C563 N565 1.384 . S
N564 C560 1.427 . S
N564 C561 1.384 . S
N565 C557 1.427 . S
N565 C563 1.384 . S
H566 C572 0.930 . S
H567 C576 0.930 . S
H568 C581 0.929 . S
H569 C579 0.929 . S
H570 C574 0.929 . S
H571 C580 0.929 . S
C572 H566 0.930 . S
C572 C573 1.367 . S
C572 C580 1.378 . S
C573 C572 1.367 . S
C573 C581 1.433 . S
C574 H570 0.929 . S
C574 C576 1.378 . S
C574 C578 1.350 . S
C575 C578 1.463 1_565 S
C575 C580 1.350 . S
C575 N583 1.427 . S
C576 H567 0.930 . S
C576 C574 1.378 . S
C576 C577 1.367 . S
C577 C576 1.367 . S
C577 C579 1.433 . S
C578 C574 1.350 . S
C578 C575 1.463 1_545 S
C578 N582 1.427 . S
C579 H569 0.929 . S
C579 C577 1.433 . S
C579 N582 1.384 . S
C580 H571 0.929 . S
C580 C572 1.378 . S
C580 C575 1.350 . S
C581 H568 0.929 . S
C581 C573 1.433 . S
C581 N583 1.384 . S
N582 C578 1.427 . S
N582 C579 1.384 . S
N583 C575 1.427 . S
N583 C581 1.384 . S
H584 C590 0.930 . S
H585 C594 0.930 . S
H586 C599 0.929 . S
H587 C597 0.929 . S
H588 C592 0.929 . S
H589 C598 0.929 . S
C590 H584 0.930 . S
C590 C591 1.367 . S
C590 C598 1.378 . S
C591 C590 1.367 . S
C591 C599 1.433 . S
C592 H588 0.929 . S
C592 C594 1.378 . S
C592 C596 1.350 . S
C593 C596 1.463 . S
C593 C598 1.350 . S
C593 N601 1.427 . S
C594 H585 0.930 . S
C594 C592 1.378 . S
C594 C595 1.367 . S
C595 C594 1.367 . S
C595 C597 1.433 . S
C596 C592 1.350 . S
C596 C593 1.463 . S
C596 N600 1.427 . S
C597 H587 0.929 . S
C597 C595 1.433 . S
C597 N600 1.384 . S
C598 H589 0.929 . S
C598 C590 1.378 . S
C598 C593 1.350 . S
C599 H586 0.929 . S
C599 C591 1.433 . S
C599 N601 1.384 . S
N600 C596 1.427 . S
N600 C597 1.384 . S
N601 C593 1.427 . S
N601 C599 1.384 . S
H602 C608 0.930 . S
H603 C612 0.930 . S
H604 C617 0.929 . S
H605 C615 0.929 . S
H606 C610 0.929 . S
H607 C616 0.929 . S
C608 H602 0.930 . S
C608 C609 1.367 . S
C608 C616 1.378 . S
C609 C608 1.367 . S
C609 C617 1.433 . S
C610 H606 0.929 . S
C610 C612 1.378 . S
C610 C614 1.350 . S
C611 C614 1.463 . S
C611 C616 1.350 . S
C611 N619 1.427 . S
C612 H603 0.930 . S
C612 C610 1.378 . S
C612 C613 1.367 . S
C613 C612 1.367 . S
C613 C615 1.433 . S
C614 C610 1.350 . S
C614 C611 1.463 . S
C614 N618 1.427 . S
C615 H605 0.929 . S
C615 C613 1.433 . S
C615 N618 1.384 . S
C616 H607 0.929 . S
C616 C608 1.378 . S
C616 C611 1.350 . S
C617 H604 0.929 . S
C617 C609 1.433 . S
C617 N619 1.384 . S
N618 C614 1.427 . S
N618 C615 1.384 . S
N619 C611 1.427 . S
N619 C617 1.384 . S
H620 C626 0.930 . S
H621 C630 0.930 . S
H622 C635 0.929 . S
H623 C633 0.929 . S
H624 C628 0.929 . S
H625 C634 0.929 . S
C626 H620 0.930 . S
C626 C627 1.367 . S
C626 C634 1.378 . S
C627 C626 1.367 . S
C627 C635 1.433 . S
C628 H624 0.929 . S
C628 C630 1.378 . S
C628 C632 1.350 . S
C629 C632 1.463 . S
C629 C634 1.350 . S
C629 N637 1.427 . S
C630 H621 0.930 . S
C630 C628 1.378 . S
C630 C631 1.367 . S
C631 C630 1.367 . S
C631 C633 1.433 . S
C632 C628 1.350 . S
C632 C629 1.463 . S
C632 N636 1.427 . S
C633 H623 0.929 . S
C633 C631 1.433 . S
C633 N636 1.384 . S
C634 H625 0.929 . S
C634 C626 1.378 . S
C634 C629 1.350 . S
C635 H622 0.929 . S
C635 C627 1.433 . S
C635 N637 1.384 . S
N636 C632 1.427 . S
N636 C633 1.384 . S
N637 C629 1.427 . S
N637 C635 1.384 . S
H638 C644 0.930 . S
H639 C648 0.930 . S
H640 C653 0.929 . S
H641 C651 0.929 . S
H642 C646 0.929 . S
H643 C652 0.929 . S
C644 H638 0.930 . S
C644 C645 1.367 . S
C644 C652 1.378 . S
C645 C644 1.367 . S
C645 C653 1.433 . S
C646 H642 0.929 . S
C646 C648 1.378 . S
C646 C650 1.350 . S
C647 C650 1.463 . S
C647 C652 1.350 . S
C647 N655 1.427 . S
C648 H639 0.930 . S
C648 C646 1.378 . S
C648 C649 1.367 . S
C649 C648 1.367 . S
C649 C651 1.433 . S
C650 C646 1.350 . S
C650 C647 1.463 . S
C650 N654 1.427 . S
C651 H641 0.929 . S
C651 C649 1.433 . S
C651 N654 1.384 . S
C652 H643 0.929 . S
C652 C644 1.378 . S
C652 C647 1.350 . S
C653 H640 0.929 . S
C653 C645 1.433 . S
C653 N655 1.384 . S
N654 C650 1.427 . S
N654 C651 1.384 . S
N655 C647 1.427 . S
N655 C653 1.384 . S
H656 C662 0.930 . S
H657 C666 0.930 . S
H658 C671 0.929 . S
H659 C669 0.929 . S
H660 C664 0.929 . S
H661 C670 0.929 . S
C662 H656 0.930 . S
C662 C663 1.367 . S
C662 C670 1.378 . S
C663 C662 1.367 . S
C663 C671 1.433 . S
C664 H660 0.929 . S
C664 C666 1.378 . S
C664 C668 1.350 . S
C665 C668 1.463 . S
C665 C670 1.350 . S
C665 N673 1.427 . S
C666 H657 0.930 . S
C666 C664 1.378 . S
C666 C667 1.367 . S
C667 C666 1.367 . S
C667 C669 1.433 . S
C668 C664 1.350 . S
C668 C665 1.463 . S
C668 N672 1.427 . S
C669 H659 0.929 . S
C669 C667 1.433 . S
C669 N672 1.384 . S
C670 H661 0.929 . S
C670 C662 1.378 . S
C670 C665 1.350 . S
C671 H658 0.929 . S
C671 C663 1.433 . S
C671 N673 1.384 . S
N672 C668 1.427 . S
N672 C669 1.384 . S
N673 C665 1.427 . S
N673 C671 1.384 . S
H674 C680 0.930 . S
H675 C684 0.930 . S
H676 C689 0.929 . S
H677 C687 0.929 . S
H678 C682 0.929 . S
H679 C688 0.929 . S
C680 H674 0.930 . S
C680 C681 1.367 . S
C680 C688 1.378 . S
C681 C680 1.367 . S
C681 C689 1.433 . S
C682 H678 0.929 . S
C682 C684 1.378 . S
C682 C686 1.350 . S
C683 C686 1.463 . S
C683 C688 1.350 . S
C683 N691 1.427 . S
C684 H675 0.930 . S
C684 C682 1.378 . S
C684 C685 1.367 . S
C685 C684 1.367 . S
C685 C687 1.433 . S
C686 C682 1.350 . S
C686 C683 1.463 . S
C686 N690 1.427 . S
C687 H677 0.929 . S
C687 C685 1.433 . S
C687 N690 1.384 . S
C688 H679 0.929 . S
C688 C680 1.378 . S
C688 C683 1.350 . S
C689 H676 0.929 . S
C689 C681 1.433 . S
C689 N691 1.384 . S
N690 C686 1.427 . S
N690 C687 1.384 . S
N691 C683 1.427 . S
N691 C689 1.384 . S
H692 C698 0.930 . S
H693 C702 0.930 . S
H694 C707 0.929 . S
H695 C705 0.929 . S
H696 C700 0.929 . S
H697 C706 0.929 . S
C698 H692 0.930 . S
C698 C699 1.367 . S
C698 C706 1.378 . S
C699 C698 1.367 . S
C699 C707 1.433 . S
C700 H696 0.929 . S
C700 C702 1.378 . S
C700 C704 1.350 . S
C701 C704 1.463 . S
C701 C706 1.350 . S
C701 N709 1.427 . S
C702 H693 0.930 . S
C702 C700 1.378 . S
C702 C703 1.367 . S
C703 C702 1.367 . S
C703 C705 1.433 . S
C704 C700 1.350 . S
C704 C701 1.463 . S
C704 N708 1.427 . S
C705 H695 0.929 . S
C705 C703 1.433 . S
C705 N708 1.384 . S
C706 H697 0.929 . S
C706 C698 1.378 . S
C706 C701 1.350 . S
C707 H694 0.929 . S
C707 C699 1.433 . S
C707 N709 1.384 . S
N708 C704 1.427 . S
N708 C705 1.384 . S
N709 C701 1.427 . S
N709 C707 1.384 . S
H710 C716 0.930 . S
H711 C720 0.930 . S
H712 C725 0.929 . S
H713 C723 0.929 . S
H714 C718 0.929 . S
H715 C724 0.929 . S
C716 H710 0.930 . S
C716 C717 1.367 . S
C716 C724 1.378 . S
C717 C716 1.367 . S
C717 C725 1.433 . S
C718 H714 0.929 . S
C718 C720 1.378 . S
C718 C722 1.350 . S
C719 C722 1.463 . S
C719 C724 1.350 . S
C719 N727 1.427 . S
C720 H711 0.930 . S
C720 C718 1.378 . S
C720 C721 1.367 . S
C721 C720 1.367 . S
C721 C723 1.433 . S
C722 C718 1.350 . S
C722 C719 1.463 . S
C722 N726 1.427 . S
C723 H713 0.929 . S
C723 C721 1.433 . S
C723 N726 1.384 . S
C724 H715 0.929 . S
C724 C716 1.378 . S
C724 C719 1.350 . S
C725 H712 0.929 . S
C725 C717 1.433 . S
C725 N727 1.384 . S
N726 C722 1.427 . S
N726 C723 1.384 . S
N727 C719 1.427 . S
N727 C725 1.384 . S
H728 C734 0.930 . S
H729 C738 0.930 . S
H730 C743 0.929 . S
H731 C741 0.929 . S
H732 C736 0.929 . S
H733 C742 0.929 . S
C734 H728 0.930 . S
C734 C735 1.367 . S
C734 C742 1.378 . S
C735 C734 1.367 . S
C735 C743 1.433 . S
C736 H732 0.929 . S
C736 C738 1.378 . S
C736 C740 1.350 . S
C737 C740 1.463 . S
C737 C742 1.350 . S
C737 N745 1.427 . S
C738 H729 0.930 . S
C738 C736 1.378 . S
C738 C739 1.367 . S
C739 C738 1.367 . S
C739 C741 1.433 . S
C740 C736 1.350 . S
C740 C737 1.463 . S
C740 N744 1.427 . S
C741 H731 0.929 . S
C741 C739 1.433 . S
C741 N744 1.384 . S
C742 H733 0.929 . S
C742 C734 1.378 . S
C742 C737 1.350 . S
C743 H730 0.929 . S
C743 C735 1.433 . S
C743 N745 1.384 . S
N744 C740 1.427 . S
N744 C741 1.384 . S
N745 C737 1.427 . S
N745 C743 1.384 . S
H746 C752 0.930 . S
H747 C756 0.930 . S
H748 C761 0.929 . S
H749 C759 0.929 . S
H750 C754 0.929 . S
H751 C760 0.929 . S
C752 H746 0.930 . S
C752 C753 1.367 . S
C752 C760 1.378 . S
C753 C752 1.367 . S
C753 C761 1.433 . S
C754 H750 0.929 . S
C754 C756 1.378 . S
C754 C758 1.350 . S
C755 C758 1.463 . S
C755 C760 1.350 . S
C755 N763 1.427 . S
C756 H747 0.930 . S
C756 C754 1.378 . S
C756 C757 1.367 . S
C757 C756 1.367 . S
C757 C759 1.433 . S
C758 C754 1.350 . S
C758 C755 1.463 . S
C758 N762 1.427 . S
C759 H749 0.929 . S
C759 C757 1.433 . S
C759 N762 1.384 . S
C760 H751 0.929 . S
C760 C752 1.378 . S
C760 C755 1.350 . S
C761 H748 0.929 . S
C761 C753 1.433 . S
C761 N763 1.384 . S
N762 C758 1.427 . S
N762 C759 1.384 . S
N763 C755 1.427 . S
N763 C761 1.384 . S
H764 C770 0.930 . S
H765 C774 0.930 . S
H766 C779 0.929 . S
H767 C777 0.929 . S
H768 C772 0.929 . S
H769 C778 0.929 . S
C770 H764 0.930 . S
C770 C771 1.367 . S
C770 C778 1.378 . S
C771 C770 1.367 . S
C771 C779 1.433 . S
C772 H768 0.929 . S
C772 C774 1.378 . S
C772 C776 1.350 . S
C773 C776 1.463 . S
C773 C778 1.350 . S
C773 N781 1.427 . S
C774 H765 0.930 . S
C774 C772 1.378 . S
C774 C775 1.367 . S
C775 C774 1.367 . S
C775 C777 1.433 . S
C776 C772 1.350 . S
C776 C773 1.463 . S
C776 N780 1.427 . S
C777 H767 0.929 . S
C777 C775 1.433 . S
C777 N780 1.384 . S
C778 H769 0.929 . S
C778 C770 1.378 . S
C778 C773 1.350 . S
C779 H766 0.929 . S
C779 C771 1.433 . S
C779 N781 1.384 . S
N780 C776 1.427 . S
N780 C777 1.384 . S
N781 C773 1.427 . S
N781 C779 1.384 . S
H782 C788 0.930 . S
H783 C792 0.930 . S
H784 C797 0.929 . S
H785 C795 0.929 . S
H786 C790 0.929 . S
H787 C796 0.929 . S
C788 H782 0.930 . S
C788 C789 1.367 . S
C788 C796 1.378 . S
C789 C788 1.367 . S
C789 C797 1.433 . S
C790 H786 0.929 . S
C790 C792 1.378 . S
C790 C794 1.350 . S
C791 C794 1.463 . S
C791 C796 1.350 . S
C791 N799 1.427 . S
C792 H783 0.930 . S
C792 C790 1.378 . S
C792 C793 1.367 . S
C793 C792 1.367 . S
C793 C795 1.433 . S
C794 C790 1.350 . S
C794 C791 1.463 . S
C794 N798 1.427 . S
C795 H785 0.929 . S
C795 C793 1.433 . S
C795 N798 1.384 . S
C796 H787 0.929 . S
C796 C788 1.378 . S
C796 C791 1.350 . S
C797 H784 0.929 . S
C797 C789 1.433 . S
C797 N799 1.384 . S
N798 C794 1.427 . S
N798 C795 1.384 . S
N799 C791 1.427 . S
N799 C797 1.384 . S
C231 C221 1.048 . S
C235 C11 1.040 . S
C249 C179 1.045 . S
C253 C25 1.045 . S
C267 C39 1.039 . S
C271 C193 1.047 . S
C285 C207 1.048 . S
C289 C53 1.041 . S
C303 C137 1.047 . S
C307 C67 1.039 . S
C321 C81 1.048 . S
C325 C151 1.040 . S
C339 C95 1.047 . S
C343 C165 1.043 . S
C357 C109 1.046 . S
C361 C123 1.039 . S
C375 C79 1.455 . S
C379 C5 1.483 . S
C393 C89 1.483 . S
C397 C23 1.459 . S
C411 C107 1.449 . S
C415 C33 1.484 . S
C429 C51 1.453 . S
C433 C61 1.483 . S
C447 C0 1.536 . S
C451 C14 1.527 . S
C465 C37 1.452 . S
C469 C19 1.484 . S
C483 C28 1.536 . S
C487 C42 1.525 . S
C501 C9 1.448 . S
C505 C47 1.484 . S
C519 C98 1.525 . S
C523 C56 1.529 . S
C537 C65 1.449 . S
C541 C75 1.484 . S
C555 C70 1.527 . S
C559 C84 1.527 . S
C573 C103 1.483 . S
C577 C93 1.457 . S
C591 C191 1.452 . S
C595 C117 1.484 . S
C609 C135 1.454 . S
C613 C201 1.483 . S
C627 C219 1.448 . S
C631 C145 1.484 . S
C645 C173 1.483 . S
C649 C163 1.459 . S
C663 C112 1.525 . S
C667 C126 1.530 . S
C681 C131 1.483 . S
C685 C149 1.459 . S
C699 C154 1.536 . S
C703 C140 1.525 . S
C717 C121 1.452 . S
C721 C159 1.484 . S
C735 C210 1.532 . S
C739 C168 1.524 . S
C753 C177 1.456 . S
C757 C187 1.484 . S
C771 C182 1.536 . S
C775 C196 1.526 . S
C789 C215 1.483 . S
C793 C205 1.452 . S
