# Generated by pormake.
# Topology bcu, (8)-cn, num edge types: 1
# Building blocks:
#     Node 0, Type 0, BuildingBlock: TAGTUT_clean_sbu_3, # of connection points: 8
#     Node 1, Type 0, BuildingBlock: TAGTUT_clean_sbu_3, # of connection points: 8
#     Edge 2, Type (0, 0), BuildingBlock: TEMPAE_clean_linker_10, # of connection points: 2
#     Edge 3, Type (0, 0), BuildingBlock: TEMPAE_clean_linker_10, # of connection points: 2
#     Edge 4, Type (0, 0), BuildingBlock: TEMPAE_clean_linker_10, # of connection points: 2
#     Edge 5, Type (0, 0), BuildingBlock: TEMPAE_clean_linker_10, # of connection points: 2
#     Edge 6, Type (0, 0), BuildingBlock: TEMPAE_clean_linker_10, # of connection points: 2
#     Edge 7, Type (0, 0), BuildingBlock: TEMPAE_clean_linker_10, # of connection points: 2
#     Edge 8, Type (0, 0), BuildingBlock: TEMPAE_clean_linker_10, # of connection points: 2
#     Edge 9, Type (0, 0), BuildingBlock: TEMPAE_clean_linker_10, # of connection points: 2
# Relax obj value: 0.012
# Max RMSD: 0.062
# Mean RMSD: 0.062
data_MOF--net-bcu--node1-TAGTUT_clean_sbu_3--edge1-TEMPAE_clean_linker_10
_symmetry_space_group_name_H-M    P1
_symmetry_Int_Tables_number       1
_symmetry_cell_setting            triclinic
loop_
_symmetry_equiv_pos_as_xyz
'x, y, z'
_cell_length_a     19.582608
_cell_length_b     19.632241
_cell_length_c     21.054803
_cell_angle_alpha  91.847411
_cell_angle_beta   88.095129
_cell_angle_gamma 108.18979
loop_
_atom_site_label
_atom_site_type_symbol
_atom_site_fract_x
_atom_site_fract_y
_atom_site_fract_z
_atom_type_partial_charge
C0 C 0.16905 0.09205 0.02362 0.0
C1 C 0.19155 0.84325 0.03929 0.0
C2 C 0.04587 0.78191 0.88089 0.0
Mg3 Mg 0.04165 0.15023 0.98058 0.0
Mg4 Mg 0.8724 0.05318 -0.00541 0.0
O5 O 0.96353 0.05806 0.96221 0.0
Mg6 Mg 0.0123 0.98643 0.98392 0.0
O7 O 0.06971 0.92157 0.00277 0.0
Mg8 Mg 0.14664 0.94791 0.93489 0.0
Mg9 Mg 0.03008 0.82397 0.01933 0.0
C10 C 0.84645 0.89159 0.94736 0.0
O11 O 0.95354 0.95545 0.07972 0.0
O12 O 0.97413 0.20627 0.92704 0.0
O13 O 0.95203 0.83986 0.08854 0.0
O14 O 0.98598 0.17525 0.07434 0.0
O15 O 0.8588 0.13636 0.93619 0.0
O16 O 0.87994 0.09217 0.09086 0.0
O17 O 0.07484 0.00723 0.88871 0.0
O18 O 0.09168 0.12539 0.88753 0.0
C19 C 0.09914 0.06803 0.86221 0.0
C20 C 0.90716 0.19217 0.91524 0.0
O21 O 0.91421 0.89879 0.94253 0.0
O22 O 0.20963 0.89114 -0.00372 0.0
O23 O 0.82201 0.94099 0.97062 0.0
O24 O 0.09508 0.84266 0.87755 0.0
O25 O 0.12605 0.81084 0.05508 0.0
O26 O 0.00702 0.76352 0.93115 0.0
O27 O 0.101 0.08022 0.02763 0.0
O28 O 0.196 0.04945 -0.00762 0.0
C29 C 0.92865 0.14909 0.10815 0.0
C30 C 0.93428 0.89496 0.10779 0.0
C31 C 0.57439 0.59743 0.61123 0.0
C32 C 0.69386 0.39785 0.5761 0.0
C33 C 0.6601 0.41054 0.37971 0.0
Mg34 Mg 0.45819 0.6414 0.52934 0.0
Mg35 Mg 0.33418 0.51891 0.44993 0.0
O36 O 0.43229 0.56003 0.46563 0.0
Mg37 Mg 0.49483 0.50319 0.49169 0.0
O38 O 0.56407 0.45438 0.52007 0.0
Mg39 Mg 0.65825 0.52977 0.50093 0.0
Mg40 Mg 0.55827 0.36173 0.4917 0.0
C41 C 0.40294 0.41209 0.37416 0.0
O42 O 0.40382 0.4097 0.53472 0.0
O43 O 0.40396 0.69916 0.46023 0.0
O44 O 0.44405 0.31516 0.51145 0.0
O45 O 0.35133 0.59631 0.58654 0.0
O46 O 0.32383 0.61151 0.40478 0.0
O47 O 0.27187 0.50482 0.53751 0.0
O48 O 0.59159 0.58693 0.44694 0.0
O49 O 0.56269 0.68535 0.47368 0.0
C50 C 0.6056 0.65502 0.44736 0.0
C51 C 0.35702 0.67783 0.41655 0.0
O52 O 0.46519 0.43761 0.39895 0.0
O53 O 0.7102 0.46401 0.56108 0.0
O54 O 0.34763 0.43063 0.39172 0.0
O55 O 0.68558 0.46909 0.4117 0.0
O56 O 0.63793 0.34949 0.55528 0.0
O57 O 0.60202 0.36326 0.39697 0.0
O58 O 0.51423 0.57211 0.5836 0.0
O59 O 0.63185 0.58651 0.58945 0.0
C60 C 0.29005 0.54771 0.58519 0.0
C61 C 0.39471 0.34172 0.53134 0.0
C62 C 0.28623 0.14492 0.07619 0.0
C63 C 0.21736 0.14842 0.06368 0.0
C64 C 0.32876 0.18967 0.12237 0.0
C65 C 0.3022 0.23986 0.15591 0.0
C66 C 0.23508 0.24734 0.14031 0.0
C67 C 0.19303 0.20095 0.09458 0.0
C68 C 0.39956 0.17949 0.13836 0.0
C69 C 0.20586 0.30156 0.17444 0.0
C70 C 0.34663 0.29274 0.32668 0.0
C71 C 0.39357 0.36226 0.32018 0.0
C72 C 0.3204 0.25009 0.27297 0.0
C73 C 0.34042 0.27905 0.21188 0.0
C74 C 0.39171 0.3477 0.20527 0.0
C75 C 0.41818 0.38865 0.25999 0.0
C76 C 0.2673 0.17621 0.28176 0.0
C77 C 0.414 0.38019 0.14088 0.0
H78 H 0.30556 0.10436 0.05255 0.0
H79 H 0.14024 0.20428 0.08459 0.0
H80 H 0.44231 0.23191 0.14289 0.0
H81 H 0.39389 0.15296 0.18486 0.0
H82 H 0.41715 0.14577 0.10203 0.0
H83 H 0.15684 0.30584 0.152 0.0
H84 H 0.19215 0.28579 0.22455 0.0
H85 H 0.24712 0.35522 0.1751 0.0
H86 H 0.32749 0.27332 0.37374 0.0
H87 H 0.45366 0.44324 0.25569 0.0
H88 H 0.28251 0.13625 0.25073 0.0
H89 H 0.21312 0.17613 0.26783 0.0
H90 H 0.26387 0.15889 0.33181 0.0
H91 H 0.42674 0.34102 0.10718 0.0
H92 H 0.46147 0.42921 0.14353 0.0
H93 H 0.36875 0.39481 0.12111 0.0
C94 C 0.92036 0.26813 0.14315 0.0
C95 C 0.90815 0.1957 0.15673 0.0
C96 C 0.8847 0.30966 0.17794 0.0
C97 C 0.83783 0.27885 0.22921 0.0
C98 C 0.82977 0.20737 0.24626 0.0
C99 C 0.86373 0.16609 0.20887 0.0
C100 C 0.89306 0.38466 0.15671 0.0
C101 C 0.78281 0.17343 0.30231 0.0
C102 C 0.78024 0.40133 0.34841 0.0
C103 C 0.70791 0.38832 0.33335 0.0
C104 C 0.82341 0.36666 0.31464 0.0
C105 C 0.7944 0.31994 0.2629 0.0
C106 C 0.72276 0.31038 0.24482 0.0
C107 C 0.67981 0.34338 0.28121 0.0
C108 C 0.89842 0.37641 0.33704 0.0
C109 C 0.69066 0.26335 0.18833 0.0
H110 H 0.95328 0.29082 0.10192 0.0
H111 H 0.85368 0.10996 0.21909 0.0
H112 H 0.84118 0.38642 0.13832 0.0
H113 H 0.90686 0.42346 0.19731 0.0
H114 H 0.93513 0.40244 0.11875 0.0
H115 H 0.78961 0.12122 0.31416 0.0
H116 H 0.7954 0.2098 0.34474 0.0
H117 H 0.72554 0.16425 0.29151 0.0
H118 H 0.80171 0.43463 0.38971 0.0
H119 H 0.62377 0.33274 0.26988 0.0
H120 H 0.93817 0.39222 0.29718 0.0
H121 H 0.90127 0.32467 0.35459 0.0
H122 H 0.91432 0.41749 0.37589 0.0
H123 H 0.72741 0.27771 0.14618 0.0
H124 H 0.63752 0.26804 0.17627 0.0
H125 H 0.68362 0.20649 0.19866 0.0
C126 C 0.92797 0.87851 0.2228 0.0
C127 C 0.89425 0.88811 0.16783 0.0
C128 C 0.88751 0.85197 0.27759 0.0
C129 C 0.81182 0.83343 0.27611 0.0
C130 C 0.77819 0.84901 0.22223 0.0
C131 C 0.82027 0.87658 0.16828 0.0
C132 C 0.92525 0.8376 0.33466 0.0
C133 C 0.69745 0.83013 0.21926 0.0
C134 C 0.69931 0.66902 0.36202 0.0
C135 C 0.66794 0.69977 0.41105 0.0
C136 C 0.74861 0.71235 0.319 0.0
C137 C 0.76746 0.78794 0.32611 0.0
C138 C 0.74027 0.81916 0.37839 0.0
C139 C 0.69032 0.77456 0.4202 0.0
C140 C 0.77711 0.6772 0.26381 0.0
C141 C 0.76085 0.8995 0.38824 0.0
H142 H 0.98555 0.88748 0.22156 0.0
H143 H 0.79487 0.88365 0.12504 0.0
H144 H 0.90153 0.8527 0.37942 0.0
H145 H 0.91857 0.77943 0.33617 0.0
H146 H 0.98373 0.86731 0.33279 0.0
H147 H 0.68067 0.85347 0.17739 0.0
H148 H 0.67329 0.77094 0.21625 0.0
H149 H 0.67524 0.84924 0.26297 0.0
H150 H 0.68222 0.61126 0.35494 0.0
H151 H 0.66683 0.79846 0.45874 0.0
H152 H 0.83671 0.69725 0.26173 0.0
H153 H 0.75784 0.69124 0.21855 0.0
H154 H 0.75974 0.61783 0.26699 0.0
H155 H 0.81984 0.92448 0.38232 0.0
H156 H 0.74376 0.91466 0.43605 0.0
H157 H 0.73499 0.92231 0.35194 0.0
C158 C 0.24876 0.76576 0.09348 0.0
C159 C 0.24613 0.83453 0.0817 0.0
C160 C 0.28212 0.75271 0.14767 0.0
C161 C 0.31055 0.8093 0.19239 0.0
C162 C 0.31276 0.87999 0.17812 0.0
C163 C 0.28119 0.89189 0.12228 0.0
C164 C 0.28112 0.677 0.15975 0.0
C165 C 0.34139 0.94171 0.22463 0.0
C166 C 0.28154 0.73359 0.3575 0.0
C167 C 0.34959 0.72909 0.37 0.0
C168 C 0.26989 0.76611 0.30228 0.0
C169 C 0.32708 0.79168 0.25726 0.0
C170 C 0.397 0.79107 0.27169 0.0
C171 C 0.40758 0.76045 0.3285 0.0
C172 C 0.195 0.76806 0.28991 0.0
C173 C 0.45914 0.81632 0.22475 0.0
H174 H 0.2209 0.72142 0.0623 0.0
H175 H 0.27772 0.9449 0.11368 0.0
H176 H 0.33389 0.67662 0.1771 0.0
H177 H 0.2399 0.6535 0.1971 0.0
H178 H 0.26825 0.64222 0.1163 0.0
H179 H 0.35249 0.99437 0.20164 0.0
H180 H 0.30084 0.93832 0.26349 0.0
H181 H 0.3913 0.93934 0.24651 0.0
H182 H 0.23671 0.70856 0.38942 0.0
H183 H 0.45996 0.75544 0.33773 0.0
H184 H 0.1704 0.72755 0.25248 0.0
H185 H 0.19687 0.82138 0.2725 0.0
H186 H 0.15972 0.75633 0.33322 0.0
H187 H 0.45334 0.77525 0.18611 0.0
H188 H 0.51169 0.82479 0.2474 0.0
H189 H 0.45947 0.86689 0.20257 0.0
C190 C 0.03113 0.6552 0.84597 0.0
C191 C 0.04577 0.72751 0.83043 0.0
C192 C 0.0545 0.60794 0.80562 0.0
C193 C 0.09264 0.63372 0.74849 0.0
C194 C 0.09893 0.70389 0.72902 0.0
C195 C 0.0757 0.75003 0.77037 0.0
C196 C 0.0451 0.53308 0.82751 0.0
C197 C 0.13719 0.73298 0.66752 0.0
C198 C 0.25842 0.58804 0.69235 0.0
C199 C 0.23572 0.55081 0.63505 0.0
C200 C 0.21039 0.60981 0.73269 0.0
C201 C 0.13771 0.59417 0.71526 0.0
C202 C 0.11274 0.55002 0.66098 0.0
C203 C 0.16216 0.52869 0.62141 0.0
C204 C 0.23917 0.65529 0.79099 0.0
C205 C 0.03553 0.53066 0.64126 0.0
H206 H 0.00768 0.63715 0.89222 0.0
H207 H 0.08605 0.80551 0.75768 0.0
H208 H 0.03659 0.49429 0.7868 0.0
H209 H 0.09449 0.53253 0.85154 0.0
H210 H 0.99913 0.51492 0.8619 0.0
H211 H 0.12924 0.78462 0.65542 0.0
H212 H 0.19571 0.74192 0.67175 0.0
H213 H 0.11788 0.69389 0.62779 0.0
H214 H 0.31493 0.60428 0.70373 0.0
H215 H 0.14393 0.4996 0.57733 0.0
H216 H 0.20387 0.63524 0.83307 0.0
H217 H 0.23996 0.71126 0.78355 0.0
H218 H 0.2946 0.65599 0.80156 0.0
H219 H 0.99822 0.5252 0.68297 0.0
H220 H 0.01967 0.47983 0.61268 0.0
H221 H 0.02922 0.57374 0.61138 0.0
C222 C 0.28928 0.31448 0.60653 0.0
C223 C 0.32873 0.29122 0.5587 0.0
C224 C 0.23992 0.26479 0.64531 0.0
C225 C 0.22986 0.19056 0.6353 0.0
C226 C 0.26253 0.16679 0.58197 0.0
C227 C 0.31193 0.21758 0.54424 0.0
C228 C 0.20431 0.29216 0.70085 0.0
C229 C 0.25082 0.08808 0.5683 0.0
C230 C 0.20665 0.09948 0.79267 0.0
C231 C 0.13192 0.07406 0.79876 0.0
C232 C 0.23967 0.13238 0.73677 0.0
C233 C 0.1963 0.14024 0.6866 0.0
C234 C 0.12088 0.10814 0.69045 0.0
C235 C 0.08939 0.0756 0.74705 0.0
C236 C 0.32048 0.1651 0.73413 0.0
C237 C 0.07285 0.11424 0.63778 0.0
H238 H 0.30124 0.37134 0.61724 0.0
H239 H 0.34086 0.19937 0.50596 0.0
H240 H 0.14618 0.26182 0.70406 0.0
H241 H 0.22881 0.28413 0.74567 0.0
H242 H 0.21047 0.35013 0.69725 0.0
H243 H 0.26692 0.07815 0.51863 0.0
H244 H 0.2836 0.06844 0.60085 0.0
H245 H 0.19367 0.05625 0.57659 0.0
H246 H 0.23893 0.09921 0.83351 0.0
H247 H 0.03128 0.05696 0.75279 0.0
H248 H 0.33471 0.22445 0.73625 0.0
H249 H 0.34298 0.14998 0.68877 0.0
H250 H 0.34648 0.14802 0.77414 0.0
H251 H 0.06241 0.16658 0.64268 0.0
H252 H 0.02025 0.07114 0.64009 0.0
H253 H 0.09847 0.1118 0.59033 0.0
C254 C 0.93365 0.27365 0.82301 0.0
C255 C 0.88568 0.23821 0.87114 0.0
C256 C 0.91067 0.30838 0.77476 0.0
C257 C 0.83843 0.30853 0.77553 0.0
C258 C 0.79133 0.27728 0.82658 0.0
C259 C 0.81531 0.24167 0.87342 0.0
C260 C 0.96237 0.34033 0.72086 0.0
C261 C 0.71449 0.27829 0.83004 0.0
C262 C 0.77554 0.42749 0.66841 0.0
C263 C 0.73826 0.37741 0.62258 0.0
C264 C 0.81078 0.40661 0.71757 0.0
C265 C 0.8095 0.33429 0.72011 0.0
C266 C 0.7755 0.28457 0.6718 0.0
C267 C 0.73954 0.30657 0.62398 0.0
C268 C 0.84592 0.46102 0.76845 0.0
C269 C 0.77482 0.20742 0.67189 0.0
H270 H 0.98809 0.27078 0.82091 0.0
H271 H 0.77843 0.21505 0.91107 0.0
H272 H 0.95648 0.39198 0.70656 0.0
H273 H 0.01916 0.34925 0.73363 0.0
H274 H 0.95017 0.30315 0.67897 0.0
H275 H 0.68757 0.2591 0.87631 0.0
H276 H 0.71248 0.33337 0.82283 0.0
H277 H 0.68356 0.24336 0.79156 0.0
H278 H 0.77437 0.48232 0.66764 0.0
H279 H 0.71149 0.268 0.58814 0.0
H280 H 0.89933 0.45685 0.77963 0.0
H281 H 0.81226 0.45001 0.81267 0.0
H282 H 0.85258 0.5168 0.75427 0.0
H283 H 0.83021 0.20486 0.67679 0.0
H284 H 0.75193 0.17746 0.62786 0.0
H285 H 0.74231 0.18002 0.71321 0.0
C286 C 0.57514 0.59392 0.72743 0.0
C287 C 0.57922 0.63409 0.67293 0.0
C288 C 0.60731 0.62682 0.78372 0.0
C289 C 0.64443 0.70125 0.7846 0.0
C290 C 0.64231 0.74286 0.73131 0.0
C291 C 0.60997 0.70845 0.6757 0.0
C292 C 0.60767 0.5807 0.8396 0.0
C293 C 0.68032 0.82266 0.73075 0.0
C294 C 0.7199 0.81745 0.92743 0.0
C295 C 0.79388 0.82866 0.91736 0.0
C296 C 0.66925 0.77088 0.88769 0.0
C297 C 0.69332 0.73473 0.83698 0.0
C298 C 0.76702 0.73954 0.83108 0.0
C299 C 0.8166 0.78655 0.87155 0.0
C300 C 0.59094 0.76554 0.89656 0.0
C301 C 0.79449 0.70006 0.77849 0.0
H302 H 0.55259 0.53597 0.72434 0.0
H303 H 0.61419 0.73881 0.63279 0.0
H304 H 0.65919 0.56824 0.8391 0.0
H305 H 0.60321 0.60889 0.88531 0.0
H306 H 0.56311 0.5292 0.83744 0.0
H307 H 0.66692 0.84805 0.68849 0.0
H308 H 0.66591 0.8491 0.77421 0.0
H309 H 0.73934 0.83271 0.73036 0.0
H310 H 0.70166 0.84849 0.96389 0.0
H311 H 0.87351 0.79409 0.86406 0.0
H312 H 0.55593 0.70942 0.88948 0.0
H313 H 0.57658 0.79852 0.86059 0.0
H314 H 0.57928 0.78514 0.94452 0.0
H315 H 0.76086 0.64299 0.77577 0.0
H316 H 0.85126 0.70248 0.78522 0.0
H317 H 0.7911 0.72424 0.73223 0.0
loop_
_geom_bond_atom_site_label_1
_geom_bond_atom_site_label_2
_geom_bond_distance
_geom_bond_site_symmetry_2
_ccdc_geom_bond_type
C0 O27 1.312 . S
C0 O28 1.208 . S
C1 O22 1.331 . S
C1 O25 1.244 . S
C2 O24 1.264 . S
C2 O26 1.273 . S
Mg3 O5 1.936 . S
Mg3 O12 2.081 . S
Mg3 O14 2.023 1_556 S
Mg3 O18 2.031 1_655 S
Mg3 O27 2.291 1_656 S
Mg4 O5 1.963 . S
Mg4 O15 1.942 . S
Mg4 O16 1.955 1_556 S
Mg4 O23 1.986 1_545 S
O5 Mg3 1.936 . S
O5 Mg4 1.963 . S
O5 Mg6 1.915 1_546 S
Mg6 O5 1.915 1_564 S
Mg6 O7 1.915 1_655 S
Mg6 O11 2.013 . S
Mg6 O17 2.114 1_664 S
Mg6 O21 2.013 1_554 S
Mg6 O27 2.114 1_665 S
O7 Mg6 1.915 1_455 S
O7 Mg8 1.936 . S
O7 Mg9 1.963 . S
Mg8 O7 1.936 . S
Mg8 O17 2.291 1_564 S
Mg8 O22 2.081 . S
Mg8 O24 2.023 1_554 S
Mg8 O28 2.031 1_565 S
Mg9 O7 1.963 . S
Mg9 O13 1.986 1_455 S
Mg9 O25 1.942 . S
Mg9 O26 1.955 1_554 S
C10 O21 1.191 . S
C10 O23 1.307 . S
O11 Mg6 2.013 . S
O11 C30 1.191 . S
O12 Mg3 2.081 . S
O12 C20 1.331 . S
O13 Mg9 1.986 1_655 S
O13 C30 1.307 . S
O14 Mg3 2.023 1_554 S
O14 C29 1.264 . S
O15 Mg4 1.942 . S
O15 C20 1.244 . S
O16 Mg4 1.955 1_554 S
O16 C29 1.273 . S
O17 Mg6 2.114 1_446 S
O17 Mg8 2.291 1_546 S
O17 C19 1.312 . S
O18 Mg3 2.031 1_455 S
O18 C19 1.208 . S
C19 O17 1.312 . S
C19 O18 1.208 . S
C20 O12 1.331 . S
C20 O15 1.244 . S
O21 Mg6 2.013 1_556 S
O21 C10 1.191 . S
O22 C1 1.331 . S
O22 Mg8 2.081 . S
O23 Mg4 1.986 1_565 S
O23 C10 1.307 . S
O24 C2 1.264 . S
O24 Mg8 2.023 1_556 S
O25 C1 1.244 . S
O25 Mg9 1.942 . S
O26 C2 1.273 . S
O26 Mg9 1.955 1_556 S
O27 C0 1.312 . S
O27 Mg3 2.291 1_454 S
O27 Mg6 2.114 1_445 S
O28 C0 1.208 . S
O28 Mg8 2.031 1_545 S
C29 O14 1.264 . S
C29 O16 1.273 . S
C30 O11 1.191 . S
C30 O13 1.307 . S
C31 O58 1.312 . S
C31 O59 1.208 . S
C32 O53 1.331 . S
C32 O56 1.244 . S
C33 O55 1.264 . S
C33 O57 1.273 . S
Mg34 O36 1.936 . S
Mg34 O43 2.081 . S
Mg34 O45 2.023 . S
Mg34 O49 2.031 . S
Mg34 O58 2.291 . S
Mg35 O36 1.963 . S
Mg35 O46 1.942 . S
Mg35 O47 1.955 . S
Mg35 O54 1.986 . S
O36 Mg34 1.936 . S
O36 Mg35 1.963 . S
O36 Mg37 1.915 . S
Mg37 O36 1.915 . S
Mg37 O38 1.915 . S
Mg37 O42 2.013 . S
Mg37 O48 2.114 . S
Mg37 O52 2.013 . S
Mg37 O58 2.114 . S
O38 Mg37 1.915 . S
O38 Mg39 1.936 . S
O38 Mg40 1.963 . S
Mg39 O38 1.936 . S
Mg39 O48 2.291 . S
Mg39 O53 2.081 . S
Mg39 O55 2.023 . S
Mg39 O59 2.031 . S
Mg40 O38 1.963 . S
Mg40 O44 1.986 . S
Mg40 O56 1.942 . S
Mg40 O57 1.955 . S
C41 O52 1.191 . S
C41 O54 1.307 . S
O42 Mg37 2.013 . S
O42 C61 1.191 . S
O43 Mg34 2.081 . S
O43 C51 1.331 . S
O44 Mg40 1.986 . S
O44 C61 1.307 . S
O45 Mg34 2.023 . S
O45 C60 1.264 . S
O46 Mg35 1.942 . S
O46 C51 1.244 . S
O47 Mg35 1.955 . S
O47 C60 1.273 . S
O48 Mg37 2.114 . S
O48 Mg39 2.291 . S
O48 C50 1.312 . S
O49 Mg34 2.031 . S
O49 C50 1.208 . S
C50 O48 1.312 . S
C50 O49 1.208 . S
C51 O43 1.331 . S
C51 O46 1.244 . S
O52 Mg37 2.013 . S
O52 C41 1.191 . S
O53 C32 1.331 . S
O53 Mg39 2.081 . S
O54 Mg35 1.986 . S
O54 C41 1.307 . S
O55 C33 1.264 . S
O55 Mg39 2.023 . S
O56 C32 1.244 . S
O56 Mg40 1.942 . S
O57 C33 1.273 . S
O57 Mg40 1.955 . S
O58 C31 1.312 . S
O58 Mg34 2.291 . S
O58 Mg37 2.114 . S
O59 C31 1.208 . S
O59 Mg39 2.031 . S
C60 O45 1.264 . S
C60 O47 1.273 . S
C61 O42 1.191 . S
C61 O44 1.307 . S
C62 C63 1.391 . S
C62 C64 1.394 . S
C62 H78 0.931 . S
C63 C62 1.391 . S
C63 C67 1.376 . S
C64 C62 1.394 . S
C64 C65 1.369 . S
C64 C68 1.531 . S
C65 C64 1.369 . S
C65 C66 1.410 . S
C65 C73 1.503 . S
C66 C65 1.410 . S
C66 C67 1.392 . S
C66 C69 1.511 . S
C67 C63 1.376 . S
C67 C66 1.392 . S
C67 H79 0.929 . S
C68 C64 1.531 . S
C68 H80 0.960 . S
C68 H81 0.962 . S
C68 H82 0.960 . S
C69 C66 1.511 . S
C69 H83 0.961 . S
C69 H84 0.961 . S
C69 H85 0.961 . S
C70 C71 1.370 . S
C70 C72 1.363 . S
C70 H86 0.931 . S
C71 C70 1.370 . S
C71 C75 1.408 . S
C72 C70 1.363 . S
C72 C73 1.370 . S
C72 C76 1.524 . S
C73 C65 1.503 . S
C73 C72 1.370 . S
C73 C74 1.403 . S
C74 C73 1.403 . S
C74 C75 1.404 . S
C74 C77 1.539 . S
C75 C71 1.408 . S
C75 C74 1.404 . S
C75 H87 0.930 . S
C76 C72 1.524 . S
C76 H88 0.956 . S
C76 H89 0.961 . S
C76 H90 0.961 . S
C77 C74 1.539 . S
C77 H91 0.958 . S
C77 H92 0.961 . S
C77 H93 0.960 . S
H78 C62 0.931 . S
H79 C67 0.929 . S
H80 C68 0.960 . S
H81 C68 0.962 . S
H82 C68 0.960 . S
H83 C69 0.961 . S
H84 C69 0.961 . S
H85 C69 0.961 . S
H86 C70 0.931 . S
H87 C75 0.930 . S
H88 C76 0.956 . S
H89 C76 0.961 . S
H90 C76 0.961 . S
H91 C77 0.958 . S
H92 C77 0.961 . S
H93 C77 0.960 . S
C94 C95 1.391 . S
C94 C96 1.394 . S
C94 H110 0.931 . S
C95 C94 1.391 . S
C95 C99 1.376 . S
C96 C94 1.394 . S
C96 C97 1.369 . S
C96 C100 1.531 . S
C97 C96 1.369 . S
C97 C98 1.410 . S
C97 C105 1.503 . S
C98 C97 1.410 . S
C98 C99 1.392 . S
C98 C101 1.511 . S
C99 C95 1.376 . S
C99 C98 1.392 . S
C99 H111 0.929 . S
C100 C96 1.531 . S
C100 H112 0.960 . S
C100 H113 0.962 . S
C100 H114 0.960 . S
C101 C98 1.511 . S
C101 H115 0.961 . S
C101 H116 0.961 . S
C101 H117 0.961 . S
C102 C103 1.370 . S
C102 C104 1.363 . S
C102 H118 0.931 . S
C103 C102 1.370 . S
C103 C107 1.408 . S
C104 C102 1.363 . S
C104 C105 1.370 . S
C104 C108 1.524 . S
C105 C97 1.503 . S
C105 C104 1.370 . S
C105 C106 1.403 . S
C106 C105 1.403 . S
C106 C107 1.404 . S
C106 C109 1.539 . S
C107 C103 1.408 . S
C107 C106 1.404 . S
C107 H119 0.930 . S
C108 C104 1.524 . S
C108 H120 0.956 . S
C108 H121 0.961 . S
C108 H122 0.961 . S
C109 C106 1.539 . S
C109 H123 0.958 . S
C109 H124 0.961 . S
C109 H125 0.960 . S
H110 C94 0.931 . S
H111 C99 0.929 . S
H112 C100 0.960 . S
H113 C100 0.962 . S
H114 C100 0.960 . S
H115 C101 0.961 . S
H116 C101 0.961 . S
H117 C101 0.961 . S
H118 C102 0.931 . S
H119 C107 0.930 . S
H120 C108 0.956 . S
H121 C108 0.961 . S
H122 C108 0.961 . S
H123 C109 0.958 . S
H124 C109 0.961 . S
H125 C109 0.960 . S
C126 C127 1.391 . S
C126 C128 1.394 . S
C126 H142 0.931 . S
C127 C126 1.391 . S
C127 C131 1.376 . S
C128 C126 1.394 . S
C128 C129 1.369 . S
C128 C132 1.531 . S
C129 C128 1.369 . S
C129 C130 1.410 . S
C129 C137 1.503 . S
C130 C129 1.410 . S
C130 C131 1.392 . S
C130 C133 1.511 . S
C131 C127 1.376 . S
C131 C130 1.392 . S
C131 H143 0.929 . S
C132 C128 1.531 . S
C132 H144 0.960 . S
C132 H145 0.962 . S
C132 H146 0.960 . S
C133 C130 1.511 . S
C133 H147 0.961 . S
C133 H148 0.961 . S
C133 H149 0.961 . S
C134 C135 1.370 . S
C134 C136 1.363 . S
C134 H150 0.931 . S
C135 C134 1.370 . S
C135 C139 1.408 . S
C136 C134 1.363 . S
C136 C137 1.370 . S
C136 C140 1.524 . S
C137 C129 1.503 . S
C137 C136 1.370 . S
C137 C138 1.403 . S
C138 C137 1.403 . S
C138 C139 1.404 . S
C138 C141 1.539 . S
C139 C135 1.408 . S
C139 C138 1.404 . S
C139 H151 0.930 . S
C140 C136 1.524 . S
C140 H152 0.956 . S
C140 H153 0.961 . S
C140 H154 0.961 . S
C141 C138 1.539 . S
C141 H155 0.958 . S
C141 H156 0.961 . S
C141 H157 0.960 . S
H142 C126 0.931 . S
H143 C131 0.929 . S
H144 C132 0.960 . S
H145 C132 0.962 . S
H146 C132 0.960 . S
H147 C133 0.961 . S
H148 C133 0.961 . S
H149 C133 0.961 . S
H150 C134 0.931 . S
H151 C139 0.930 . S
H152 C140 0.956 . S
H153 C140 0.961 . S
H154 C140 0.961 . S
H155 C141 0.958 . S
H156 C141 0.961 . S
H157 C141 0.960 . S
C158 C159 1.391 . S
C158 C160 1.394 . S
C158 H174 0.931 . S
C159 C158 1.391 . S
C159 C163 1.376 . S
C160 C158 1.394 . S
C160 C161 1.369 . S
C160 C164 1.531 . S
C161 C160 1.369 . S
C161 C162 1.410 . S
C161 C169 1.503 . S
C162 C161 1.410 . S
C162 C163 1.392 . S
C162 C165 1.511 . S
C163 C159 1.376 . S
C163 C162 1.392 . S
C163 H175 0.929 . S
C164 C160 1.531 . S
C164 H176 0.960 . S
C164 H177 0.962 . S
C164 H178 0.960 . S
C165 C162 1.511 . S
C165 H179 0.961 . S
C165 H180 0.961 . S
C165 H181 0.961 . S
C166 C167 1.370 . S
C166 C168 1.363 . S
C166 H182 0.931 . S
C167 C166 1.370 . S
C167 C171 1.408 . S
C168 C166 1.363 . S
C168 C169 1.370 . S
C168 C172 1.524 . S
C169 C161 1.503 . S
C169 C168 1.370 . S
C169 C170 1.403 . S
C170 C169 1.403 . S
C170 C171 1.404 . S
C170 C173 1.539 . S
C171 C167 1.408 . S
C171 C170 1.404 . S
C171 H183 0.930 . S
C172 C168 1.524 . S
C172 H184 0.956 . S
C172 H185 0.961 . S
C172 H186 0.961 . S
C173 C170 1.539 . S
C173 H187 0.958 . S
C173 H188 0.961 . S
C173 H189 0.960 . S
H174 C158 0.931 . S
H175 C163 0.929 . S
H176 C164 0.960 . S
H177 C164 0.962 . S
H178 C164 0.960 . S
H179 C165 0.961 . S
H180 C165 0.961 . S
H181 C165 0.961 . S
H182 C166 0.931 . S
H183 C171 0.930 . S
H184 C172 0.956 . S
H185 C172 0.961 . S
H186 C172 0.961 . S
H187 C173 0.958 . S
H188 C173 0.961 . S
H189 C173 0.960 . S
C190 C191 1.391 . S
C190 C192 1.394 . S
C190 H206 0.931 . S
C191 C190 1.391 . S
C191 C195 1.376 . S
C192 C190 1.394 . S
C192 C193 1.369 . S
C192 C196 1.531 . S
C193 C192 1.369 . S
C193 C194 1.410 . S
C193 C201 1.503 . S
C194 C193 1.410 . S
C194 C195 1.392 . S
C194 C197 1.511 . S
C195 C191 1.376 . S
C195 C194 1.392 . S
C195 H207 0.929 . S
C196 C192 1.531 . S
C196 H208 0.960 . S
C196 H209 0.962 . S
C196 H210 0.960 . S
C197 C194 1.511 . S
C197 H211 0.961 . S
C197 H212 0.961 . S
C197 H213 0.961 . S
C198 C199 1.370 . S
C198 C200 1.363 . S
C198 H214 0.931 . S
C199 C198 1.370 . S
C199 C203 1.408 . S
C200 C198 1.363 . S
C200 C201 1.370 . S
C200 C204 1.524 . S
C201 C193 1.503 . S
C201 C200 1.370 . S
C201 C202 1.403 . S
C202 C201 1.403 . S
C202 C203 1.404 . S
C202 C205 1.539 . S
C203 C199 1.408 . S
C203 C202 1.404 . S
C203 H215 0.930 . S
C204 C200 1.524 . S
C204 H216 0.956 . S
C204 H217 0.961 . S
C204 H218 0.961 . S
C205 C202 1.539 . S
C205 H219 0.958 . S
C205 H220 0.961 . S
C205 H221 0.960 . S
H206 C190 0.931 . S
H207 C195 0.929 . S
H208 C196 0.960 . S
H209 C196 0.962 . S
H210 C196 0.960 . S
H211 C197 0.961 . S
H212 C197 0.961 . S
H213 C197 0.961 . S
H214 C198 0.931 . S
H215 C203 0.930 . S
H216 C204 0.956 . S
H217 C204 0.961 . S
H218 C204 0.961 . S
H219 C205 0.958 . S
H220 C205 0.961 . S
H221 C205 0.960 . S
C222 C223 1.391 . S
C222 C224 1.394 . S
C222 H238 0.931 . S
C223 C222 1.391 . S
C223 C227 1.376 . S
C224 C222 1.394 . S
C224 C225 1.369 . S
C224 C228 1.531 . S
C225 C224 1.369 . S
C225 C226 1.410 . S
C225 C233 1.503 . S
C226 C225 1.410 . S
C226 C227 1.392 . S
C226 C229 1.511 . S
C227 C223 1.376 . S
C227 C226 1.392 . S
C227 H239 0.929 . S
C228 C224 1.531 . S
C228 H240 0.960 . S
C228 H241 0.962 . S
C228 H242 0.960 . S
C229 C226 1.511 . S
C229 H243 0.961 . S
C229 H244 0.961 . S
C229 H245 0.961 . S
C230 C231 1.370 . S
C230 C232 1.363 . S
C230 H246 0.931 . S
C231 C230 1.370 . S
C231 C235 1.408 . S
C232 C230 1.363 . S
C232 C233 1.370 . S
C232 C236 1.524 . S
C233 C225 1.503 . S
C233 C232 1.370 . S
C233 C234 1.403 . S
C234 C233 1.403 . S
C234 C235 1.404 . S
C234 C237 1.539 . S
C235 C231 1.408 . S
C235 C234 1.404 . S
C235 H247 0.930 . S
C236 C232 1.524 . S
C236 H248 0.956 . S
C236 H249 0.961 . S
C236 H250 0.961 . S
C237 C234 1.539 . S
C237 H251 0.958 . S
C237 H252 0.961 . S
C237 H253 0.960 . S
H238 C222 0.931 . S
H239 C227 0.929 . S
H240 C228 0.960 . S
H241 C228 0.962 . S
H242 C228 0.960 . S
H243 C229 0.961 . S
H244 C229 0.961 . S
H245 C229 0.961 . S
H246 C230 0.931 . S
H247 C235 0.930 . S
H248 C236 0.956 . S
H249 C236 0.961 . S
H250 C236 0.961 . S
H251 C237 0.958 . S
H252 C237 0.961 . S
H253 C237 0.960 . S
C254 C255 1.391 . S
C254 C256 1.394 . S
C254 H270 0.931 . S
C255 C254 1.391 . S
C255 C259 1.376 . S
C256 C254 1.394 . S
C256 C257 1.369 . S
C256 C260 1.531 . S
C257 C256 1.369 . S
C257 C258 1.410 . S
C257 C265 1.503 . S
C258 C257 1.410 . S
C258 C259 1.392 . S
C258 C261 1.511 . S
C259 C255 1.376 . S
C259 C258 1.392 . S
C259 H271 0.929 . S
C260 C256 1.531 . S
C260 H272 0.960 . S
C260 H273 0.962 . S
C260 H274 0.960 . S
C261 C258 1.511 . S
C261 H275 0.961 . S
C261 H276 0.961 . S
C261 H277 0.961 . S
C262 C263 1.370 . S
C262 C264 1.363 . S
C262 H278 0.931 . S
C263 C262 1.370 . S
C263 C267 1.408 . S
C264 C262 1.363 . S
C264 C265 1.370 . S
C264 C268 1.524 . S
C265 C257 1.503 . S
C265 C264 1.370 . S
C265 C266 1.403 . S
C266 C265 1.403 . S
C266 C267 1.404 . S
C266 C269 1.539 . S
C267 C263 1.408 . S
C267 C266 1.404 . S
C267 H279 0.930 . S
C268 C264 1.524 . S
C268 H280 0.956 . S
C268 H281 0.961 . S
C268 H282 0.961 . S
C269 C266 1.539 . S
C269 H283 0.958 . S
C269 H284 0.961 . S
C269 H285 0.960 . S
H270 C254 0.931 . S
H271 C259 0.929 . S
H272 C260 0.960 . S
H273 C260 0.962 . S
H274 C260 0.960 . S
H275 C261 0.961 . S
H276 C261 0.961 . S
H277 C261 0.961 . S
H278 C262 0.931 . S
H279 C267 0.930 . S
H280 C268 0.956 . S
H281 C268 0.961 . S
H282 C268 0.961 . S
H283 C269 0.958 . S
H284 C269 0.961 . S
H285 C269 0.960 . S
C286 C287 1.391 . S
C286 C288 1.394 . S
C286 H302 0.931 . S
C287 C286 1.391 . S
C287 C291 1.376 . S
C288 C286 1.394 . S
C288 C289 1.369 . S
C288 C292 1.531 . S
C289 C288 1.369 . S
C289 C290 1.410 . S
C289 C297 1.503 . S
C290 C289 1.410 . S
C290 C291 1.392 . S
C290 C293 1.511 . S
C291 C287 1.376 . S
C291 C290 1.392 . S
C291 H303 0.929 . S
C292 C288 1.531 . S
C292 H304 0.960 . S
C292 H305 0.962 . S
C292 H306 0.960 . S
C293 C290 1.511 . S
C293 H307 0.961 . S
C293 H308 0.961 . S
C293 H309 0.961 . S
C294 C295 1.370 . S
C294 C296 1.363 . S
C294 H310 0.931 . S
C295 C294 1.370 . S
C295 C299 1.408 . S
C296 C294 1.363 . S
C296 C297 1.370 . S
C296 C300 1.524 . S
C297 C289 1.503 . S
C297 C296 1.370 . S
C297 C298 1.403 . S
C298 C297 1.403 . S
C298 C299 1.404 . S
C298 C301 1.539 . S
C299 C295 1.408 . S
C299 C298 1.404 . S
C299 H311 0.930 . S
C300 C296 1.524 . S
C300 H312 0.956 . S
C300 H313 0.961 . S
C300 H314 0.961 . S
C301 C298 1.539 . S
C301 H315 0.958 . S
C301 H316 0.961 . S
C301 H317 0.960 . S
H302 C286 0.931 . S
H303 C291 0.929 . S
H304 C292 0.960 . S
H305 C292 0.962 . S
H306 C292 0.960 . S
H307 C293 0.961 . S
H308 C293 0.961 . S
H309 C293 0.961 . S
H310 C294 0.931 . S
H311 C299 0.930 . S
H312 C300 0.956 . S
H313 C300 0.961 . S
H314 C300 0.961 . S
H315 C301 0.958 . S
H316 C301 0.961 . S
H317 C301 0.960 . S
C63 C0 1.200 . S
C71 C41 1.259 . S
C95 C29 1.679 . S
C103 C33 1.713 . S
C127 C30 1.272 . S
C135 C50 1.214 . S
C159 C1 1.575 . S
C167 C51 1.566 . S
C191 C2 1.700 . S
C199 C60 1.708 . S
C223 C61 1.274 . S
C231 C19 1.221 . S
C255 C20 1.573 . S
C263 C32 1.561 . S
C287 C31 1.190 . S
C295 C10 1.266 . S
