# Generated by pormake.
# Topology unp, (4)-cn, num edge types: 1
# Building blocks:
#     Node 0, Type 0, BuildingBlock: UXUYUI_clean_sbu_0, # of connection points: 4
#     Node 1, Type 0, BuildingBlock: UXUYUI_clean_sbu_0, # of connection points: 4
#     Node 2, Type 0, BuildingBlock: UXUYUI_clean_sbu_0, # of connection points: 4
#     Node 3, Type 0, BuildingBlock: UXUYUI_clean_sbu_0, # of connection points: 4
#     Node 4, Type 0, BuildingBlock: UXUYUI_clean_sbu_0, # of connection points: 4
#     Node 5, Type 0, BuildingBlock: UXUYUI_clean_sbu_0, # of connection points: 4
#     Node 6, Type 0, BuildingBlock: UXUYUI_clean_sbu_0, # of connection points: 4
#     Node 7, Type 0, BuildingBlock: UXUYUI_clean_sbu_0, # of connection points: 4
#     Node 8, Type 0, BuildingBlock: UXUYUI_clean_sbu_0, # of connection points: 4
#     Node 9, Type 0, BuildingBlock: UXUYUI_clean_sbu_0, # of connection points: 4
#     Node 10, Type 0, BuildingBlock: UXUYUI_clean_sbu_0, # of connection points: 4
#     Node 11, Type 0, BuildingBlock: UXUYUI_clean_sbu_0, # of connection points: 4
#     Node 12, Type 0, BuildingBlock: UXUYUI_clean_sbu_0, # of connection points: 4
#     Node 13, Type 0, BuildingBlock: UXUYUI_clean_sbu_0, # of connection points: 4
#     Node 14, Type 0, BuildingBlock: UXUYUI_clean_sbu_0, # of connection points: 4
#     Node 15, Type 0, BuildingBlock: UXUYUI_clean_sbu_0, # of connection points: 4
#     Node 16, Type 0, BuildingBlock: UXUYUI_clean_sbu_0, # of connection points: 4
#     Node 17, Type 0, BuildingBlock: UXUYUI_clean_sbu_0, # of connection points: 4
#     Edge 18, Type (0, 0), BuildingBlock: UVAHIK_clean_linker_0, # of connection points: 2
#     Edge 19, Type (0, 0), BuildingBlock: UVAHIK_clean_linker_0, # of connection points: 2
#     Edge 20, Type (0, 0), BuildingBlock: UVAHIK_clean_linker_0, # of connection points: 2
#     Edge 21, Type (0, 0), BuildingBlock: UVAHIK_clean_linker_0, # of connection points: 2
#     Edge 22, Type (0, 0), BuildingBlock: UVAHIK_clean_linker_0, # of connection points: 2
#     Edge 23, Type (0, 0), BuildingBlock: UVAHIK_clean_linker_0, # of connection points: 2
#     Edge 24, Type (0, 0), BuildingBlock: UVAHIK_clean_linker_0, # of connection points: 2
#     Edge 25, Type (0, 0), BuildingBlock: UVAHIK_clean_linker_0, # of connection points: 2
#     Edge 26, Type (0, 0), BuildingBlock: UVAHIK_clean_linker_0, # of connection points: 2
#     Edge 27, Type (0, 0), BuildingBlock: UVAHIK_clean_linker_0, # of connection points: 2
#     Edge 28, Type (0, 0), BuildingBlock: UVAHIK_clean_linker_0, # of connection points: 2
#     Edge 29, Type (0, 0), BuildingBlock: UVAHIK_clean_linker_0, # of connection points: 2
#     Edge 30, Type (0, 0), BuildingBlock: UVAHIK_clean_linker_0, # of connection points: 2
#     Edge 31, Type (0, 0), BuildingBlock: UVAHIK_clean_linker_0, # of connection points: 2
#     Edge 32, Type (0, 0), BuildingBlock: UVAHIK_clean_linker_0, # of connection points: 2
#     Edge 33, Type (0, 0), BuildingBlock: UVAHIK_clean_linker_0, # of connection points: 2
#     Edge 34, Type (0, 0), BuildingBlock: UVAHIK_clean_linker_0, # of connection points: 2
#     Edge 35, Type (0, 0), BuildingBlock: UVAHIK_clean_linker_0, # of connection points: 2
#     Edge 36, Type (0, 0), BuildingBlock: UVAHIK_clean_linker_0, # of connection points: 2
#     Edge 37, Type (0, 0), BuildingBlock: UVAHIK_clean_linker_0, # of connection points: 2
#     Edge 38, Type (0, 0), BuildingBlock: UVAHIK_clean_linker_0, # of connection points: 2
#     Edge 39, Type (0, 0), BuildingBlock: UVAHIK_clean_linker_0, # of connection points: 2
#     Edge 40, Type (0, 0), BuildingBlock: UVAHIK_clean_linker_0, # of connection points: 2
#     Edge 41, Type (0, 0), BuildingBlock: UVAHIK_clean_linker_0, # of connection points: 2
#     Edge 42, Type (0, 0), BuildingBlock: UVAHIK_clean_linker_0, # of connection points: 2
#     Edge 43, Type (0, 0), BuildingBlock: UVAHIK_clean_linker_0, # of connection points: 2
#     Edge 44, Type (0, 0), BuildingBlock: UVAHIK_clean_linker_0, # of connection points: 2
#     Edge 45, Type (0, 0), BuildingBlock: UVAHIK_clean_linker_0, # of connection points: 2
#     Edge 46, Type (0, 0), BuildingBlock: UVAHIK_clean_linker_0, # of connection points: 2
#     Edge 47, Type (0, 0), BuildingBlock: UVAHIK_clean_linker_0, # of connection points: 2
#     Edge 48, Type (0, 0), BuildingBlock: UVAHIK_clean_linker_0, # of connection points: 2
#     Edge 49, Type (0, 0), BuildingBlock: UVAHIK_clean_linker_0, # of connection points: 2
#     Edge 50, Type (0, 0), BuildingBlock: UVAHIK_clean_linker_0, # of connection points: 2
#     Edge 51, Type (0, 0), BuildingBlock: UVAHIK_clean_linker_0, # of connection points: 2
#     Edge 52, Type (0, 0), BuildingBlock: UVAHIK_clean_linker_0, # of connection points: 2
#     Edge 53, Type (0, 0), BuildingBlock: UVAHIK_clean_linker_0, # of connection points: 2
# Relax obj value: 0.501
# Max RMSD: 0.229
# Mean RMSD: 0.224
data_MOF--net-unp--node1-UXUYUI_clean_sbu_0--edge1-UVAHIK_clean_linker_0
_symmetry_space_group_name_H-M    P1
_symmetry_Int_Tables_number       1
_symmetry_cell_setting            triclinic
loop_
_symmetry_equiv_pos_as_xyz
'x, y, z'
_cell_length_a     74.875475
_cell_length_b     74.859999
_cell_length_c     123.84197
_cell_angle_alpha  90.227482
_cell_angle_beta   89.762594
_cell_angle_gamma 120.53526
loop_
_atom_site_label
_atom_site_type_symbol
_atom_site_fract_x
_atom_site_fract_y
_atom_site_fract_z
_atom_type_partial_charge
Li0 Li 0.18349 0.2199 0.09129 0.0
Li1 Li 0.19347 0.23035 0.11042 0.0
Li2 Li 0.17505 0.19378 0.10573 0.0
Li3 Li 0.15841 0.21495 0.10522 0.0
C4 C 0.21244 0.20646 0.09569 0.0
N5 N 0.2319 0.18775 0.08578 0.0
C6 C 0.23225 0.21133 0.09896 0.0
C7 C 0.20246 0.19197 0.08742 0.0
C8 C 0.24185 0.20174 0.09384 0.0
C9 C 0.21257 0.18272 0.08251 0.0
C10 C 0.17464 0.25461 0.09768 0.0
C11 C 0.16238 0.27716 0.10379 0.0
N12 N 0.15937 0.28059 0.09336 0.0
C13 C 0.17173 0.25863 0.08701 0.0
C14 C 0.17022 0.2642 0.10613 0.0
C15 C 0.16389 0.27171 0.085 0.0
C16 C 0.17552 0.21913 0.06923 0.0
N17 N 0.1911 0.22516 0.07648 0.0
C18 C 0.21576 0.23349 0.06225 0.0
C19 C 0.21106 0.23284 0.07323 0.0
C20 C 0.19974 0.22629 0.05459 0.0
C21 C 0.1795 0.21965 0.0582 0.0
H22 H 0.15991 0.21356 0.07205 0.0
H23 H 0.2232 0.23763 0.07918 0.0
C24 C 0.22527 0.24266 0.12535 0.0
N25 N 0.21477 0.2497 0.11954 0.0
C26 C 0.24068 0.25581 0.13255 0.0
C27 C 0.23469 0.28345 0.12734 0.0
C28 C 0.2192 0.26966 0.12031 0.0
C29 C 0.24549 0.27647 0.13363 0.0
H30 H 0.2215 0.22674 0.12445 0.0
H31 H 0.21071 0.27486 0.1155 0.0
C32 C 0.13627 0.17906 0.09423 0.0
N33 N 0.09462 0.14905 0.09457 0.0
C34 C 0.12739 0.16705 0.10348 0.0
C35 C 0.12389 0.1758 0.08516 0.0
C36 C 0.10634 0.15196 0.10349 0.0
C37 C 0.1029 0.16055 0.08549 0.0
C38 C 0.17192 0.21412 0.12836 0.0
C39 C 0.18045 0.20679 0.13594 0.0
C40 C 0.16665 0.2288 0.13151 0.0
C41 C 0.18402 0.21464 0.14646 0.0
C42 C 0.17044 0.23627 0.14211 0.0
N43 N 0.17901 0.22913 0.1493 0.0
C44 C 0.18448 0.16595 0.11621 0.0
C45 C 0.16174 0.15165 0.1013 0.0
C46 C 0.18376 0.14716 0.11794 0.0
N47 N 0.17322 0.16771 0.10814 0.0
C48 C 0.16056 0.13262 0.10274 0.0
C49 C 0.17157 0.13012 0.11119 0.0
H50 H 0.19431 0.17925 0.12118 0.0
H51 H 0.15362 0.15362 0.09466 0.0
C52 C 0.12377 0.21863 0.09918 0.0
N53 N 0.13197 0.21266 0.10718 0.0
C54 C 0.10312 0.21361 0.09967 0.0
C55 C 0.09953 0.19605 0.11656 0.0
C56 C 0.12042 0.2019 0.11588 0.0
C57 C 0.09041 0.20151 0.10826 0.0
H58 H 0.1329 0.22633 0.09211 0.0
H59 H 0.12703 0.19663 0.12194 0.0
O60 O 0.20271 0.21549 0.10073 0.0
O61 O 0.18239 0.24189 0.09978 0.0
O62 O 0.15674 0.19441 0.09424 0.0
O63 O 0.16879 0.20703 0.11793 0.0
H64 H 0.24011 0.22241 0.1054 0.0
H65 H 0.18703 0.18787 0.08485 0.0
H66 H 0.2572 0.20539 0.09627 0.0
H67 H 0.20504 0.1715 0.0761 0.0
H68 H 0.15876 0.28455 0.11027 0.0
H69 H 0.17542 0.25172 0.08035 0.0
H70 H 0.17289 0.26178 0.11442 0.0
H71 H 0.16142 0.27482 0.07678 0.0
H72 H 0.23157 0.23866 0.05984 0.0
H73 H 0.16677 0.21448 0.05257 0.0
H74 H 0.24889 0.24994 0.13713 0.0
H75 H 0.23796 0.29926 0.12798 0.0
H76 H 0.13659 0.16953 0.11065 0.0
H77 H 0.13033 0.18493 0.07794 0.0
H78 H 0.09929 0.14264 0.11062 0.0
H79 H 0.09316 0.15789 0.07854 0.0
H80 H 0.18443 0.19528 0.13372 0.0
H81 H 0.15961 0.23429 0.12585 0.0
H82 H 0.19079 0.20922 0.15237 0.0
H83 H 0.16652 0.24772 0.14462 0.0
H84 H 0.19288 0.14607 0.1244 0.0
H85 H 0.1509 0.11992 0.09735 0.0
H86 H 0.09704 0.21852 0.09315 0.0
H87 H 0.09044 0.18631 0.12322 0.0
Li88 Li 0.81131 0.99827 0.10285 0.0
Li89 Li 0.79327 0.96168 0.10449 0.0
Li90 Li 0.78625 0.97616 0.08834 0.0
Li91 Li 0.77385 0.97782 0.10677 0.0
C92 C 0.82546 0.97057 0.09174 0.0
N93 N 0.84985 0.95266 0.09035 0.0
C94 C 0.8451 0.98026 0.0965 0.0
C95 C 0.81825 0.95177 0.08627 0.0
C96 C 0.8572 0.97098 0.09569 0.0
C97 C 0.83079 0.94294 0.08567 0.0
C98 C 0.80219 0.9754 0.12492 0.0
C99 C 0.7925 0.95065 0.13938 0.0
N100 N 0.81231 0.9612 0.14312 0.0
C101 C 0.82242 0.98609 0.12894 0.0
C102 C 0.78705 0.95763 0.13022 0.0
C103 C 0.82723 0.97863 0.13814 0.0
C104 C 0.84018 0.03608 0.11353 0.0
N105 N 0.8361 0.02424 0.1045 0.0
C106 C 0.86812 0.04944 0.0965 0.0
C107 C 0.84944 0.03066 0.09601 0.0
C108 C 0.87307 0.06195 0.10578 0.0
C109 C 0.85872 0.05511 0.11435 0.0
H110 H 0.82905 0.03072 0.12008 0.0
H111 H 0.84561 0.02102 0.08888 0.0
C112 C 0.78208 0.91943 0.10572 0.0
N113 N 0.79655 0.93896 0.10884 0.0
C114 C 0.78553 0.90295 0.10734 0.0
C115 C 0.81823 0.92686 0.11577 0.0
C116 C 0.81425 0.94284 0.1139 0.0
C117 C 0.80399 0.90667 0.11226 0.0
H118 H 0.76828 0.9168 0.10156 0.0
H119 H 0.82585 0.95852 0.11598 0.0
C120 C 0.79546 0.02093 0.09633 0.0
N121 N 0.81223 0.06337 0.09728 0.0
C122 C 0.79245 0.03005 0.1055 0.0
C123 C 0.80698 0.03338 0.08765 0.0
C124 C 0.80105 0.05154 0.10582 0.0
C125 C 0.81535 0.05481 0.08828 0.0
C126 C 0.74534 0.94221 0.09843 0.0
C127 C 0.73322 0.9431 0.09014 0.0
C128 C 0.73578 0.93064 0.10771 0.0
C129 C 0.71168 0.93263 0.09134 0.0
C130 C 0.71419 0.92042 0.10861 0.0
N131 N 0.7027 0.92163 0.10048 0.0
C132 C 0.78421 0.96426 0.0662 0.0
C133 C 0.77342 0.98834 0.07022 0.0
C134 C 0.78142 0.96581 0.05517 0.0
N135 N 0.78049 0.9757 0.07343 0.0
C136 C 0.77062 0.99052 0.05929 0.0
C137 C 0.77495 0.97941 0.0516 0.0
H138 H 0.78978 0.95431 0.06896 0.0
H139 H 0.77034 0.99707 0.07616 0.0
C140 C 0.74953 0.97763 0.1245 0.0
N141 N 0.75172 0.97873 0.1136 0.0
C142 C 0.734 0.97999 0.12938 0.0
C143 C 0.72308 0.98407 0.11166 0.0
C144 C 0.7389 0.98181 0.10715 0.0
C145 C 0.7207 0.98355 0.12293 0.0
H146 H 0.76021 0.97556 0.12943 0.0
H147 H 0.74126 0.98292 0.0985 0.0
O148 O 0.81326 0.97928 0.09259 0.0
O149 O 0.79718 0.98253 0.11595 0.0
O150 O 0.78776 1e-05 0.09601 0.0
O151 O 0.76647 0.95266 0.0975 0.0
H152 H 0.85083 0.99462 0.10093 0.0
H153 H 0.80291 0.94377 0.08278 0.0
H154 H 0.87238 0.97826 0.09937 0.0
H155 H 0.8253 0.92829 0.08156 0.0
H156 H 0.78097 0.93684 0.14352 0.0
H157 H 0.83434 -0.00016 0.12493 0.0
H158 H 0.77132 0.94922 0.12724 0.0
H159 H 0.84285 0.98666 0.14131 0.0
H160 H 0.87878 0.05383 0.08976 0.0
H161 H 0.86174 0.06435 0.12159 0.0
H162 H 0.77416 0.88759 0.10452 0.0
H163 H 0.83288 0.93053 0.11935 0.0
H164 H 0.78378 0.02066 0.11235 0.0
H165 H 0.80967 0.02657 0.08055 0.0
H166 H 0.79891 0.05882 0.11288 0.0
H167 H 0.82439 0.06466 0.08165 0.0
H168 H 0.74037 0.95193 0.08289 0.0
H169 H 0.74493 0.92965 0.11415 0.0
H170 H 0.70211 0.9333 0.08502 0.0
H171 H 0.70659 0.91152 0.11578 0.0
H172 H 0.78506 0.95709 0.04947 0.0
H173 H 0.76535 0.00097 0.05686 0.0
H174 H 0.73301 0.97988 0.1381 0.0
H175 H 0.71307 0.98657 0.10637 0.0
Li176 Li 0.00076 0.82802 0.10724 0.0
Li177 Li 0.03869 0.8473 0.10959 0.0
Li178 Li 0.0229 0.82255 0.09482 0.0
Li179 Li 0.01872 0.81105 0.11285 0.0
C180 C 0.02394 0.86737 0.09701 0.0
N181 N 0.02769 0.90605 0.09681 0.0
C182 C 0.01878 0.87477 0.10619 0.0
C183 C 0.03101 0.87965 0.08774 0.0
C184 C 0.02078 0.89436 0.10592 0.0
C185 C 0.03279 0.89916 0.08779 0.0
C186 C 0.02087 0.82925 0.13096 0.0
C187 C 0.04491 0.83076 0.14437 0.0
N188 N 0.02881 0.81952 0.15123 0.0
C189 C 0.00456 0.8177 0.13815 0.0
C190 C 0.04122 0.8358 0.13409 0.0
C191 C 0.00889 0.81294 0.14835 0.0
C192 C 0.9628 0.8197 0.11669 0.0
N193 N 0.9757 0.82882 0.10814 0.0
C194 C 0.95212 0.83784 0.10043 0.0
C195 C 0.97067 0.8377 0.10005 0.0
C196 C 0.93863 0.82879 0.10924 0.0
C197 C 0.94415 0.81965 0.11746 0.0
H198 H 0.9669 0.81231 0.12286 0.0
H199 H 0.98099 0.8446 0.09324 0.0
C200 C 0.07839 0.88212 0.10659 0.0
N201 N 0.06143 0.87374 0.11311 0.0
C202 C 0.09411 0.90273 0.108 0.0
C203 C 0.07482 0.90539 0.12301 0.0
C204 C 0.05954 0.88473 0.12134 0.0
C205 C 0.09221 0.91481 0.11615 0.0
H206 H 0.07932 0.873 0.10005 0.0
H207 H 0.0457 0.87772 0.12629 0.0
C208 C 0.98065 0.79322 0.09462 0.0
N209 N 0.9481 0.77674 0.08013 0.0
C210 C 0.96465 0.7726 0.09557 0.0
C211 C 0.98009 0.80545 0.08627 0.0
C212 C 0.94834 0.76456 0.08817 0.0
C213 C 0.96351 0.79684 0.07903 0.0
C214 C 0.05206 0.81298 0.10155 0.0
C215 C 0.03784 0.79235 0.09889 0.0
C216 C 0.0733 0.82023 0.10089 0.0
C217 C 0.04512 0.77931 0.09562 0.0
C218 C 0.07997 0.8067 0.09758 0.0
N219 N 0.06586 0.78669 0.09503 0.0
C220 C 0.03946 0.83374 0.0739 0.0
C221 C 0.01602 0.79773 0.0761 0.0
C222 C 0.04136 0.83094 0.0629 0.0
N223 N 0.02663 0.8173 0.08019 0.0
C224 C 0.01731 0.79423 0.06514 0.0
C225 C 0.02984 0.81102 0.05832 0.0
H226 H 0.04791 0.84909 0.07742 0.0
H227 H 0.00604 0.78486 0.08129 0.0
C228 C 0.99558 0.77324 0.123 0.0
N229 N 0.01544 0.78885 0.1216 0.0
C230 C 0.99143 0.75531 0.12846 0.0
C231 C 0.02826 0.77022 0.13135 0.0
C232 C 0.03172 0.7879 0.12576 0.0
C233 C 0.0079 0.7535 0.13254 0.0
H234 H 0.98299 0.77463 0.11972 0.0
H235 H 0.04737 0.80064 0.12454 0.0
O236 O 0.02247 0.84839 0.09713 0.0
O237 O 0.01698 0.83359 0.12081 0.0
O238 O 0.99662 0.80125 0.10189 0.0
O239 O 0.04542 0.82615 0.10479 0.0
H240 H 0.01336 0.86554 0.11345 0.0
H241 H 0.0351 0.87417 0.08058 0.0
H242 H 0.01687 0.90029 0.11296 0.0
H243 H 0.03825 0.90883 0.08067 0.0
H244 H 0.06058 0.83567 0.14687 0.0
H245 H 0.98871 0.81228 0.13587 0.0
H246 H 0.05402 0.84437 0.12858 0.0
H247 H 0.99641 0.80397 0.15397 0.0
H248 H 0.94854 0.84523 0.09398 0.0
H249 H 0.93404 0.81231 0.12432 0.0
H250 H 0.10734 0.90928 0.1026 0.0
H251 H 0.07248 0.91415 0.12927 0.0
H252 H 0.96484 0.76288 0.10196 0.0
H253 H 0.99233 0.82138 0.08532 0.0
H254 H 0.93586 0.74862 0.08883 0.0
H255 H 0.9629 0.80614 0.07254 0.0
H256 H 0.02135 0.7864 0.09939 0.0
H257 H 0.08451 0.83616 0.10293 0.0
H258 H 0.03427 0.76331 0.09355 0.0
H259 H 0.09637 0.81211 0.09704 0.0
H260 H 0.05153 0.84428 0.058 0.0
H261 H 0.00796 0.77864 0.06199 0.0
H262 H 0.97549 0.74293 0.12941 0.0
H263 H 0.04135 0.76938 0.13439 0.0
Li264 Li 0.22815 0.1952 0.8863 0.0
Li265 Li 0.21655 0.18364 0.90525 0.0
Li266 Li 0.20688 0.15837 0.89013 0.0
Li267 Li 0.19264 0.18049 0.89144 0.0
C268 C 0.25469 0.18387 0.89833 0.0
N269 N 0.2953 0.19635 0.90337 0.0
C270 C 0.26614 0.20105 0.90503 0.0
C271 C 0.26386 0.17301 0.89422 0.0
C272 C 0.28666 0.20712 0.90748 0.0
C273 C 0.28443 0.17959 0.89684 0.0
C274 C 0.20781 0.21815 0.89844 0.0
C275 C 0.18608 0.22716 0.90873 0.0
N276 N 0.18787 0.24047 0.90079 0.0
C277 C 0.20952 0.23199 0.8904 0.0
C278 C 0.19606 0.21575 0.9077 0.0
C279 C 0.19929 0.24311 0.89173 0.0
C280 C 0.24239 0.22242 0.86906 0.0
N281 N 0.24933 0.21527 0.87713 0.0
C282 C 0.28438 0.23693 0.87124 0.0
C283 C 0.26987 0.22208 0.87828 0.0
C284 C 0.27766 0.24477 0.8629 0.0
C285 C 0.25632 0.23724 0.86184 0.0
H286 H 0.22596 0.21661 0.86827 0.0
H287 H 0.27515 0.21608 0.8846 0.0
C288 C 0.21721 0.17221 0.92679 0.0
N289 N 0.22279 0.18859 0.92013 0.0
C290 C 0.21902 0.17514 0.93797 0.0
C291 C 0.233 0.21184 0.93513 0.0
C292 C 0.23095 0.2082 0.92403 0.0
C293 C 0.22654 0.19512 0.94228 0.0
H294 H 0.21072 0.15678 0.92343 0.0
H295 H 0.23515 0.22091 0.91851 0.0
C296 C 0.20937 0.16975 0.86868 0.0
N297 N 0.2216 0.16085 0.84929 0.0
C298 C 0.19788 0.16695 0.85932 0.0
C299 C 0.2271 0.16803 0.86818 0.0
C300 C 0.2043 0.16246 0.84959 0.0
C301 C 0.23302 0.16353 0.85831 0.0
C302 C 0.17031 0.1412 0.90166 0.0
C303 C 0.15898 0.1348 0.89205 0.0
C304 C 0.16236 0.12907 0.91093 0.0
C305 C 0.13986 0.11633 0.89189 0.0
C306 C 0.14317 0.11069 0.91044 0.0
N307 N 0.13242 0.10475 0.90101 0.0
C308 C 0.21038 0.1229 0.89282 0.0
C309 C 0.18807 0.1204 0.87863 0.0
C310 C 0.20546 0.10245 0.89105 0.0
N311 N 0.20152 0.13133 0.8867 0.0
C312 C 0.18257 0.09989 0.87664 0.0
C313 C 0.19109 0.09052 0.88298 0.0
H314 H 0.22095 0.13195 0.89922 0.0
H315 H 0.18107 0.12739 0.87394 0.0
C316 C 0.16513 0.18874 0.87969 0.0
N317 N 0.16819 0.18193 0.88927 0.0
C318 C 0.14682 0.18892 0.87785 0.0
C319 C 0.13532 0.17524 0.89581 0.0
C320 C 0.15392 0.17558 0.89734 0.0
C321 C 0.13141 0.18178 0.88592 0.0
H322 H 0.17687 0.19387 0.87345 0.0
H323 H 0.15684 0.17041 0.90492 0.0
O324 O 0.23451 0.17748 0.89592 0.0
O325 O 0.21724 0.20669 0.89715 0.0
O326 O 0.20317 0.17417 0.87823 0.0
O327 O 0.18916 0.15916 0.90202 0.0
H328 H 0.2594 0.20981 0.90815 0.0
H329 H 0.2552 0.15966 0.88903 0.0
H330 H 0.29574 0.22043 0.91262 0.0
H331 H 0.29174 0.17136 0.8937 0.0
H332 H 0.1768 0.22533 0.91581 0.0
H333 H 0.21855 0.23405 0.88319 0.0
H334 H 0.19435 0.2049 0.91394 0.0
H335 H 0.2004 0.25381 0.88555 0.0
H336 H 0.30066 0.24211 0.87226 0.0
H337 H 0.25044 0.24302 0.85562 0.0
H338 H 0.21412 0.16185 0.94318 0.0
H339 H 0.23862 0.22744 0.93808 0.0
H340 H 0.18411 0.16824 0.85958 0.0
H341 H 0.23621 0.17016 0.87532 0.0
H342 H 0.19554 0.16024 0.84228 0.0
H343 H 0.24671 0.16217 0.85781 0.0
H344 H 0.16488 0.14397 0.88478 0.0
H345 H 0.17094 0.1338 0.91843 0.0
H346 H 0.13095 0.11119 0.8845 0.0
H347 H 0.13683 0.10114 0.91756 0.0
H348 H 0.21261 0.09599 0.89605 0.0
H349 H 0.17114 0.09126 0.87048 0.0
H350 H 0.14471 0.19444 0.87016 0.0
H351 H 0.12388 0.16928 0.90222 0.0
Li352 Li 0.81176 0.02175 0.8841 0.0
Li353 Li 0.82106 0.02461 0.90243 0.0
Li354 Li 0.84769 0.04231 0.88777 0.0
Li355 Li 0.82844 0.00384 0.88983 0.0
C356 C 0.8158 0.05814 0.89118 0.0
N357 N 0.79517 0.0794 0.88762 0.0
C358 C 0.79554 0.05015 0.89497 0.0
C359 C 0.82566 0.07704 0.88568 0.0
C360 C 0.78534 0.0611 0.89305 0.0
C361 C 0.81494 0.08754 0.88394 0.0
C362 C 0.79323 0.98272 0.90196 0.0
C363 C 0.79732 0.96599 0.91763 0.0
N364 N 0.77736 0.95027 0.91655 0.0
C365 C 0.77277 0.96636 0.90105 0.0
C366 C 0.80564 0.98252 0.91034 0.0
C367 C 0.76504 0.95012 0.90848 0.0
C368 C 0.77274 -0.00045 0.87492 0.0
N369 N 0.78984 0.01882 0.87495 0.0
C370 C 0.77322 0.03126 0.86323 0.0
C371 C 0.79058 0.03448 0.86904 0.0
C372 C 0.75504 0.0117 0.86349 0.0
C373 C 0.7551 0.99563 0.86926 0.0
H374 H 0.77278 0.9872 0.87935 0.0
H375 H 0.80451 0.04955 0.86893 0.0
C376 C 0.82828 0.03529 0.92463 0.0
N377 N 0.8135 0.0263 0.91688 0.0
C378 C 0.82255 0.03358 0.9355 0.0
C379 C 0.78655 0.01413 0.93011 0.0
C380 C 0.79296 0.01637 0.91937 0.0
C381 C 0.80145 0.02238 0.93834 0.0
H382 H 0.84448 0.04306 0.92241 0.0
H383 H 0.78154 0.00933 0.91303 0.0
C384 C 0.83043 0.02373 0.86611 0.0
N385 N 0.82084 0.02997 0.84544 0.0
C386 C 0.81736 0.00679 0.85959 0.0
C387 C 0.83856 0.04386 0.86211 0.0
C388 C 0.81269 0.01027 0.84917 0.0
C389 C 0.83358 0.04668 0.85164 0.0
C390 C 0.86731 0.02771 0.90073 0.0
C391 C 0.87543 0.02301 0.89169 0.0
C392 C 0.87919 0.03508 0.91012 0.0
C393 C 0.89531 0.02577 0.8922 0.0
C394 C 0.89901 0.03762 0.91032 0.0
N395 N 0.9066 0.03296 0.90142 0.0
C396 C 0.88198 0.08281 0.89091 0.0
C397 C 0.88569 0.06351 0.87677 0.0
C398 C 0.90247 0.09887 0.88951 0.0
N399 N 0.87418 0.06551 0.88466 0.0
C400 C 0.90622 0.07908 0.87512 0.0
C401 C 0.91502 0.09695 0.88164 0.0
H402 H 0.87246 0.08385 0.8972 0.0
H403 H 0.87915 0.04944 0.87201 0.0
C404 C 0.8207 0.96552 0.88079 0.0
N405 N 0.83001 0.9791 0.88907 0.0
C406 C 0.8208 0.94689 0.88043 0.0
C407 C 0.8398 0.95646 0.89722 0.0
C408 C 0.83936 0.97484 0.89723 0.0
C409 C 0.83039 0.94215 0.88876 0.0
H410 H 0.8129 0.96897 0.87455 0.0
H411 H 0.84628 0.98556 0.90388 0.0
O412 O 0.82607 0.04768 0.89296 0.0
O413 O 0.80078 0.99868 0.89464 0.0
O414 O 0.83492 0.02071 0.87642 0.0
O415 O 0.84797 0.02544 0.90037 0.0
H416 H 0.78769 0.03551 0.89921 0.0
H417 H 0.84137 0.08343 0.88273 0.0
H418 H 0.7696 0.05502 0.89585 0.0
H419 H 0.82233 0.10213 0.87964 0.0
H420 H 0.80673 0.96568 0.92415 0.0
H421 H 0.76286 0.9662 0.89469 0.0
H422 H 0.82145 0.99499 0.91132 0.0
H423 H 0.74921 0.93742 0.90784 0.0
H424 H 0.77386 0.04403 0.85882 0.0
H425 H 0.74162 0.98015 0.8694 0.0
H426 H 0.8345 0.04004 0.94163 0.0
H427 H 0.77014 0.00557 0.93197 0.0
H428 H 0.81066 0.99114 0.86256 0.0
H429 H 0.8483 0.05719 0.86709 0.0
H430 H 0.80253 0.99729 0.84407 0.0
H431 H 0.8397 0.06217 0.84847 0.0
H432 H 0.8665 0.01732 0.88434 0.0
H433 H 0.8732 0.03882 0.9172 0.0
H434 H 0.90178 0.02221 0.88526 0.0
H435 H 0.90838 0.04332 0.91753 0.0
H436 H 0.90853 0.11243 0.89465 0.0
H437 H 0.91534 0.07667 0.86911 0.0
H438 H 0.81315 0.93617 0.87383 0.0
H439 H 0.84759 0.95358 0.90375 0.0
Li440 Li -0.00208 0.81124 0.894 0.0
Li441 Li 0.9604 0.79163 0.8943 0.0
Li442 Li 0.98006 0.78643 0.90839 0.0
Li443 Li 0.97928 0.77423 0.88946 0.0
C444 C 0.97785 0.82948 0.90461 0.0
N445 N 0.97462 0.8646 0.90319 0.0
C446 C 0.98095 0.83961 0.89471 0.0
C447 C 0.97315 0.83727 0.91378 0.0
C448 C 0.97924 0.85732 0.89416 0.0
C449 C 0.97158 0.85503 0.9129 0.0
C450 C 0.96886 0.79097 0.87197 0.0
C451 C 0.93913 0.76664 0.86158 0.0
N452 N 0.94823 0.77784 0.8525 0.0
C453 C 0.97789 0.8023 0.86255 0.0
C454 C 0.94931 0.77305 0.87149 0.0
C455 C 0.96722 0.79538 0.85278 0.0
C456 C 0.0324 0.83956 0.88141 0.0
N457 N 0.02244 0.83692 0.89099 0.0
C458 C 0.04765 0.87116 0.89661 0.0
C459 C 0.02978 0.85216 0.89858 0.0
C460 C 0.05829 0.87451 0.88676 0.0
C461 C 0.05047 0.85833 0.87911 0.0
H462 H 0.0263 0.82705 0.87558 0.0
H463 H 0.02167 0.8496 0.90618 0.0
C464 C 0.92025 0.78528 0.89893 0.0
N465 N 0.93631 0.79374 0.89181 0.0
C466 C 0.90403 0.78929 0.89804 0.0
C467 C 0.92113 0.81065 0.88248 0.0
C468 C 0.93681 0.80593 0.88357 0.0
C469 C 0.90461 0.80264 0.88991 0.0
H470 H 0.92042 0.77616 0.90559 0.0
H471 H 0.94995 0.81297 0.87815 0.0
C472 C 0.02244 0.79849 0.9041 0.0
N473 N 0.06092 0.81682 0.91381 0.0
C474 C 0.0373 0.79376 0.90054 0.0
C475 C 0.02716 0.81259 0.91257 0.0
C476 C 0.05666 0.80318 0.90557 0.0
C477 C 0.0467 0.82168 0.91738 0.0
C478 C 0.9374 0.74889 0.90266 0.0
C479 C 0.92921 0.74788 0.91296 0.0
C480 C 0.92625 0.7328 0.8953 0.0
C481 C 0.90976 0.73106 0.91562 0.0
C482 C 0.90685 0.71623 0.89827 0.0
N483 N 0.89906 0.71572 0.90828 0.0
C484 C 0.9739 0.7895 0.93035 0.0
C485 C 0.99183 0.77166 0.92654 0.0
C486 C 0.97737 0.78921 0.94138 0.0
N487 N 0.98151 0.78123 0.92321 0.0
C488 C 0.99581 0.77114 0.93752 0.0
C489 C 0.98901 0.7805 0.94507 0.0
H490 H 0.96564 0.79688 0.92744 0.0
H491 H 0.99783 0.76534 0.92064 0.0
C492 C 0.98535 0.75626 0.87069 0.0
N493 N 0.97942 0.75301 0.88122 0.0
C494 C 0.98543 0.74056 0.86464 0.0
C495 C 0.97408 0.71873 0.88051 0.0
C496 C 0.97387 0.73476 0.88621 0.0
C497 C 0.97984 0.72157 0.86957 0.0
H498 H 0.99026 0.7711 0.867 0.0
H499 H 0.96943 0.73274 0.89464 0.0
O500 O 0.97922 0.81196 0.90535 0.0
O501 O 0.97919 0.79756 0.88157 0.0
O502 O 0.00345 0.78948 0.89921 0.0
O503 O 0.95663 0.76503 0.89999 0.0
H504 H 0.98458 0.83388 0.88751 0.0
H505 H 0.97072 0.82969 0.92151 0.0
H506 H 0.98156 0.86526 0.88655 0.0
H507 H 0.96793 0.8612 0.91993 0.0
H508 H 0.92397 0.7528 0.8611 0.0
H509 H 0.993 0.81626 0.8628 0.0
H510 H 0.94202 0.76434 0.87872 0.0
H511 H 0.97404 0.80396 0.84543 0.0
H512 H 0.05281 0.88323 0.90267 0.0
H513 H 0.05828 0.8601 0.87147 0.0
H514 H 0.89155 0.78254 0.90389 0.0
H515 H 0.92264 0.8214 0.87623 0.0
H516 H 0.03388 0.78292 0.89397 0.0
H517 H 0.0159 0.81654 0.91537 0.0
H518 H 0.06832 0.79965 0.90291 0.0
H519 H 0.05056 0.83262 0.92394 0.0
H520 H 0.93768 0.76007 0.9188 0.0
H521 H 0.93254 0.73296 0.8874 0.0
H522 H 0.90317 0.73019 0.92353 0.0
H523 H 0.89803 0.70372 0.89264 0.0
H524 H 0.97146 0.7962 0.94693 0.0
H525 H 0.00496 0.76439 0.94 0.0
H526 H 0.99037 0.74342 0.85627 0.0
H527 H 0.96977 0.7043 0.88457 0.0
Li528 Li 0.85283 0.55219 0.4458 0.0
Li529 Li 0.84562 0.54457 0.42606 0.0
Li530 Li 0.81721 0.53346 0.43963 0.0
Li531 Li 0.83802 0.51744 0.43902 0.0
C532 C 0.8457 0.58258 0.4353 0.0
N533 N 0.85967 0.62456 0.43462 0.0
C534 C 0.86258 0.59569 0.42876 0.0
C535 C 0.83569 0.59076 0.44134 0.0
C536 C 0.86947 0.61688 0.42857 0.0
C537 C 0.84306 0.61204 0.44094 0.0
C538 C 0.87733 0.53293 0.43479 0.0
C539 C 0.88891 0.51258 0.42515 0.0
N540 N 0.89999 0.51315 0.43395 0.0
C541 C 0.8889 0.5334 0.44373 0.0
C542 C 0.87737 0.52252 0.4254 0.0
C543 C 0.90024 0.52328 0.44315 0.0
C544 C 0.87389 0.56187 0.4653 0.0
N545 N 0.87213 0.57079 0.45614 0.0
C546 C 0.90016 0.60385 0.46166 0.0
C547 C 0.8848 0.59139 0.45422 0.0
C548 C 0.9026 0.59492 0.47107 0.0
C549 C 0.88897 0.5737 0.47293 0.0
H550 H 0.86402 0.54536 0.46652 0.0
H551 H 0.88358 0.59807 0.44678 0.0
C552 C 0.84075 0.54923 0.40386 0.0
N553 N 0.8548 0.5533 0.4118 0.0
C554 C 0.84708 0.5527 0.39307 0.0
C555 C 0.88228 0.56513 0.39891 0.0
C556 C 0.87529 0.56153 0.40958 0.0
C557 C 0.86802 0.56023 0.39049 0.0
H558 H 0.82453 0.54253 0.4059 0.0
H559 H 0.88608 0.56458 0.41608 0.0
C560 C 0.82212 0.5291 0.46159 0.0
N561 N 0.80696 0.53433 0.48098 0.0
C562 C 0.81378 0.51314 0.46921 0.0
C563 C 0.82279 0.54773 0.46384 0.0
C564 C 0.80617 0.51607 0.47896 0.0
C565 C 0.81505 0.55009 0.47369 0.0
C566 C 0.80129 0.49904 0.4263 0.0
C567 C 0.79256 0.48555 0.43505 0.0
C568 C 0.79089 0.494 0.41641 0.0
C569 C 0.77355 0.46721 0.43376 0.0
C570 C 0.7719 0.4755 0.41545 0.0
N571 N 0.76369 0.46261 0.42407 0.0
C572 C 0.78377 0.5401 0.43589 0.0
C573 C 0.77681 0.51335 0.44834 0.0
C574 C 0.76322 0.53552 0.43653 0.0
N575 N 0.79003 0.52885 0.44165 0.0
C576 C 0.75618 0.50817 0.44918 0.0
C577 C 0.74901 0.5191 0.44312 0.0
H578 H 0.79463 0.5523 0.4306 0.0
H579 H 0.78207 0.50446 0.45274 0.0
C580 C 0.84413 0.48848 0.45046 0.0
N581 N 0.83834 0.49237 0.44078 0.0
C582 C 0.84457 0.47025 0.45201 0.0
C583 C 0.83296 0.46037 0.43361 0.0
C584 C 0.83307 0.47893 0.43237 0.0
C585 C 0.8387 0.45573 0.44356 0.0
H586 H 0.84848 0.49963 0.45696 0.0
H587 H 0.82877 0.48255 0.42472 0.0
O588 O 0.8385 0.56173 0.43547 0.0
O589 O 0.86567 0.54224 0.43531 0.0
O590 O 0.82936 0.52629 0.45196 0.0
O591 O 0.8198 0.51722 0.42737 0.0
H592 H 0.87046 0.58963 0.424 0.0
H593 H 0.82227 0.58078 0.44624 0.0
H594 H 0.88263 0.62724 0.42362 0.0
H595 H 0.83552 0.6186 0.44561 0.0
H596 H 0.88896 0.50433 0.41797 0.0
H597 H 0.88899 0.54134 0.45106 0.0
H598 H 0.86831 0.52182 0.41846 0.0
H599 H 0.90919 0.52342 0.45002 0.0
H600 H 0.91056 0.62008 0.45983 0.0
H601 H 0.89021 0.56621 0.48013 0.0
H602 H 0.83557 0.54853 0.3868 0.0
H603 H 0.89858 0.57117 0.39726 0.0
H604 H 0.81312 0.4986 0.46756 0.0
H605 H 0.82931 0.56024 0.45807 0.0
H606 H 0.79963 0.50383 0.48492 0.0
H607 H 0.81549 0.56444 0.47555 0.0
H608 H 0.80032 0.48921 0.44278 0.0
H609 H 0.79742 0.50428 0.40955 0.0
H610 H 0.76661 0.45666 0.44048 0.0
H611 H 0.76368 0.47141 0.40784 0.0
H612 H 0.75844 0.54449 0.43179 0.0
H613 H 0.74578 0.49512 0.45418 0.0
H614 H 0.8495 0.46761 0.45975 0.0
H615 H 0.82796 0.4496 0.4269 0.0
Li616 Li 0.46988 0.31643 0.43844 0.0
Li617 Li 0.45145 0.27787 0.44046 0.0
Li618 Li 0.44265 0.29452 0.42533 0.0
Li619 Li 0.43417 0.29643 0.44331 0.0
C620 C 0.48725 0.29468 0.42804 0.0
N621 N 0.52289 0.29226 0.42803 0.0
C622 C 0.49957 0.29998 0.4373 0.0
C623 C 0.49311 0.28819 0.41877 0.0
C624 C 0.51751 0.29865 0.43714 0.0
C625 C 0.51117 0.28706 0.41893 0.0
C626 C 0.45323 0.30142 0.46194 0.0
C627 C 0.44262 0.28819 0.48001 0.0
N628 N 0.44227 0.30563 0.48274 0.0
C629 C 0.45276 0.31921 0.46493 0.0
C630 C 0.44809 0.28575 0.46953 0.0
C631 C 0.44717 0.32104 0.47548 0.0
C632 C 0.50144 0.35345 0.44869 0.0
N633 N 0.49619 0.34164 0.43959 0.0
C634 C 0.52837 0.3659 0.43125 0.0
C635 C 0.50929 0.34747 0.43097 0.0
C636 C 0.53413 0.37854 0.44049 0.0
C637 C 0.5204 0.37207 0.44931 0.0
H638 H 0.49097 0.34851 0.45548 0.0
H639 H 0.50497 0.33778 0.42386 0.0
C640 C 0.44817 0.2389 0.43739 0.0
N641 N 0.4561 0.25592 0.44386 0.0
C642 C 0.45424 0.22421 0.43876 0.0
C643 C 0.47592 0.24458 0.45365 0.0
C644 C 0.46944 0.25882 0.45199 0.0
C645 C 0.46867 0.22721 0.44683 0.0
H646 H 0.43779 0.23719 0.43089 0.0
H647 H 0.47592 0.27278 0.45683 0.0
C648 C 0.45545 0.33653 0.42618 0.0
N649 N 0.47288 0.37043 0.41251 0.0
C650 C 0.45218 0.35311 0.42798 0.0
C651 C 0.46778 0.33735 0.41746 0.0
C652 C 0.46108 0.37007 0.42098 0.0
C653 C 0.47638 0.35456 0.41063 0.0
C654 C 0.40402 0.2595 0.43761 0.0
C655 C 0.3895 0.26387 0.43321 0.0
C656 C 0.39771 0.24364 0.4452 0.0
C657 C 0.36888 0.25248 0.43664 0.0
C658 C 0.37693 0.23257 0.44841 0.0
N659 N 0.36308 0.2372 0.44411 0.0
C660 C 0.44138 0.2838 0.40331 0.0
C661 C 0.42345 0.30143 0.40769 0.0
C662 C 0.43834 0.28524 0.39231 0.0
N663 N 0.43443 0.29235 0.41069 0.0
C664 C 0.42028 0.30344 0.39678 0.0
C665 C 0.42822 0.29572 0.38894 0.0
H666 H 0.45 0.27663 0.40596 0.0
H667 H 0.41805 0.30803 0.41377 0.0
C668 C 0.40369 0.28455 0.46039 0.0
N669 N 0.41291 0.2971 0.45173 0.0
C670 C 0.39014 0.28743 0.46696 0.0
C671 C 0.39472 0.31507 0.45514 0.0
C672 C 0.40818 0.31169 0.44884 0.0
C673 C 0.38598 0.30327 0.46451 0.0
H674 H 0.40743 0.27282 0.46245 0.0
H675 H 0.41526 0.32107 0.44176 0.0
O676 O 0.46942 0.29555 0.42806 0.0
O677 O 0.45868 0.29932 0.45164 0.0
O678 O 0.4469 0.31991 0.43307 0.0
O679 O 0.42431 0.27062 0.43446 0.0
H680 H 0.49529 0.30499 0.44456 0.0
H681 H 0.4838 0.28403 0.41153 0.0
H682 H 0.52713 0.30265 0.44426 0.0
H683 H 0.51587 0.28204 0.41182 0.0
H684 H 0.43856 0.27616 0.48596 0.0
H685 H 0.45605 0.3312 0.45908 0.0
H686 H 0.44807 0.27175 0.46735 0.0
H687 H 0.44655 0.33463 0.47786 0.0
H688 H 0.53864 0.37 0.42435 0.0
H689 H 0.52415 0.38136 0.45658 0.0
H690 H 0.44816 0.21098 0.43337 0.0
H691 H 0.48739 0.2478 0.45982 0.0
H692 H 0.44295 0.35297 0.43476 0.0
H693 H 0.47078 0.32489 0.41596 0.0
H694 H 0.45864 0.38297 0.42229 0.0
H695 H 0.4859 0.35532 0.40385 0.0
H696 H 0.39419 0.27609 0.42731 0.0
H697 H 0.4088 0.24008 0.44866 0.0
H698 H 0.35749 0.25579 0.43338 0.0
H699 H 0.37183 0.22034 0.45433 0.0
H700 H 0.44479 0.27919 0.38649 0.0
H701 H 0.41222 0.31144 0.39449 0.0
H702 H 0.38377 0.27801 0.47413 0.0
H703 H 0.39153 0.3271 0.45281 0.0
Li704 Li 0.67254 0.15338 0.43493 0.0
Li705 Li 0.71142 0.17422 0.43577 0.0
Li706 Li 0.69172 0.14682 0.42138 0.0
Li707 Li 0.6923 0.13731 0.43966 0.0
C708 C 0.68257 0.18416 0.42196 0.0
N709 N 0.66131 0.20485 0.41843 0.0
C710 C 0.68851 0.20283 0.42731 0.0
C711 C 0.66594 0.1761 0.41475 0.0
C712 C 0.67754 0.21304 0.42543 0.0
C713 C 0.65535 0.18676 0.41309 0.0
C714 C 0.69215 0.15583 0.45792 0.0
C715 C 0.71169 0.1563 0.47345 0.0
N716 N 0.6937 0.14515 0.47907 0.0
C717 C 0.67385 0.14451 0.46385 0.0
C718 C 0.71125 0.16188 0.46274 0.0
C719 C 0.67496 0.13921 0.47454 0.0
C720 C 0.63013 0.14242 0.43344 0.0
N721 N 0.6487 0.15527 0.43818 0.0
C722 C 0.63447 0.17314 0.44758 0.0
C723 C 0.65109 0.17026 0.44524 0.0
C724 C 0.6152 0.16048 0.44257 0.0
C725 C 0.61312 0.14482 0.43548 0.0
H726 H 0.62857 0.1305 0.42795 0.0
H727 H 0.66602 0.18015 0.44895 0.0
C728 C 0.75133 0.2097 0.43263 0.0
N729 N 0.73412 0.20075 0.43898 0.0
C730 C 0.76702 0.23017 0.43455 0.0
C731 C 0.74699 0.23152 0.44958 0.0
C732 C 0.73183 0.21104 0.44742 0.0
C733 C 0.76477 0.24151 0.44301 0.0
H734 H 0.75263 0.2011 0.42594 0.0
H735 H 0.7178 0.20358 0.45222 0.0
C736 C 0.65749 0.10981 0.42332 0.0
N737 N 0.63693 0.0767 0.40928 0.0
C738 C 0.65878 0.09195 0.42463 0.0
C739 C 0.64574 0.1108 0.41484 0.0
C740 C 0.64825 0.07537 0.41746 0.0
C741 C 0.63548 0.09392 0.40783 0.0
C742 C 0.72938 0.14471 0.4314 0.0
C743 C 0.72318 0.12454 0.42804 0.0
C744 C 0.74873 0.15686 0.43627 0.0
C745 C 0.73644 0.11679 0.42967 0.0
C746 C 0.76156 0.14856 0.43774 0.0
N747 N 0.75519 0.12886 0.43444 0.0
C748 C 0.69416 0.15543 0.39923 0.0
C749 C 0.68983 0.12244 0.40302 0.0
C750 C 0.6924 0.15124 0.38818 0.0
N751 N 0.69231 0.14088 0.40641 0.0
C752 C 0.68749 0.11741 0.39205 0.0
C753 C 0.68847 0.13182 0.38453 0.0
H754 H 0.6965 0.17011 0.40211 0.0
H755 H 0.68888 0.11128 0.40882 0.0
C756 C 0.67118 0.10288 0.45246 0.0
N757 N 0.6909 0.11699 0.44948 0.0
C758 C 0.66746 0.08801 0.46024 0.0
C759 C 0.70445 0.10226 0.46177 0.0
C760 C 0.70748 0.11714 0.45407 0.0
C761 C 0.68421 0.08763 0.46499 0.0
H762 H 0.65831 0.10348 0.44894 0.0
H763 H 0.72304 0.1291 0.45204 0.0
O764 O 0.69262 0.17354 0.424 0.0
O765 O 0.69135 0.16057 0.44735 0.0
O766 O 0.66766 0.12621 0.43028 0.0
O767 O 0.71673 0.15268 0.42981 0.0
H768 H 0.70129 0.20926 0.43293 0.0
H769 H 0.6611 0.16165 0.41056 0.0
H770 H 0.68188 0.22744 0.42956 0.0
H771 H 0.64236 0.18062 0.4076 0.0
H772 H 0.72634 0.16074 0.47727 0.0
H773 H 0.65896 0.13965 0.4602 0.0
H774 H 0.72553 0.17053 0.45821 0.0
H775 H 0.66092 0.13031 0.47921 0.0
H776 H 0.63673 0.18516 0.45324 0.0
H777 H 0.59866 0.13484 0.43135 0.0
H778 H 0.78053 0.23714 0.42935 0.0
H779 H 0.7443 0.23968 0.45603 0.0
H780 H 0.66804 0.09095 0.43101 0.0
H781 H 0.64488 0.1246 0.41354 0.0
H782 H 0.64917 0.0615 0.41837 0.0
H783 H 0.62648 0.09456 0.40119 0.0
H784 H 0.70817 0.11488 0.42438 0.0
H785 H 0.75374 0.1725 0.43893 0.0
H786 H 0.73179 0.10116 0.42718 0.0
H787 H 0.77656 0.15775 0.44151 0.0
H788 H 0.69324 0.16272 0.38257 0.0
H789 H 0.68466 0.10234 0.38948 0.0
H790 H 0.65163 0.07694 0.46253 0.0
H791 H 0.71772 0.10257 0.46543 0.0
Li792 Li 0.88506 0.52492 0.22248 0.0
Li793 Li 0.87646 0.51633 0.24174 0.0
Li794 Li 0.86515 0.48929 0.22795 0.0
Li795 Li 0.85019 0.51069 0.22887 0.0
C796 C 0.9144 0.5214 0.23537 0.0
N797 N 0.9552 0.54513 0.2419 0.0
C798 C 0.92272 0.54238 0.23788 0.0
C799 C 0.92682 0.51249 0.2362 0.0
C800 C 0.94338 0.55412 0.24116 0.0
C801 C 0.94742 0.52475 0.2395 0.0
C802 C 0.86605 0.54924 0.23523 0.0
C803 C 0.84597 0.55828 0.24692 0.0
N804 N 0.84697 0.57192 0.23938 0.0
C805 C 0.86696 0.56342 0.22762 0.0
C806 C 0.85552 0.54668 0.24497 0.0
C807 C 0.85719 0.57472 0.22986 0.0
C808 C 0.89478 0.5506 0.2051 0.0
N809 N 0.90387 0.54362 0.21203 0.0
C810 C 0.93661 0.56397 0.20321 0.0
C811 C 0.92427 0.54954 0.21107 0.0
C812 C 0.92764 0.57179 0.19614 0.0
C813 C 0.9064 0.56472 0.19705 0.0
H814 H 0.87841 0.54519 0.20588 0.0
H815 H 0.93105 0.54317 0.21634 0.0
C816 C 0.88058 0.50915 0.26367 0.0
N817 N 0.88505 0.52413 0.25622 0.0
C818 C 0.88435 0.51433 0.27461 0.0
C819 C 0.89783 0.55028 0.26989 0.0
C820 C 0.89394 0.54444 0.25906 0.0
C821 C 0.89262 0.53508 0.27783 0.0
H822 H 0.87341 0.49312 0.26115 0.0
H823 H 0.8973 0.55602 0.25296 0.0
C824 C 0.86452 0.49722 0.20617 0.0
N825 N 0.87492 0.48625 0.18683 0.0
C826 C 0.85228 0.49365 0.19703 0.0
C827 C 0.8821 0.49525 0.20548 0.0
C828 C 0.85778 0.48811 0.18732 0.0
C829 C 0.88708 0.48968 0.19563 0.0
C830 C 0.83004 0.47334 0.24073 0.0
C831 C 0.8172 0.46575 0.23167 0.0
C832 C 0.82366 0.46238 0.25044 0.0
C833 C 0.79817 0.44726 0.23248 0.0
C834 C 0.80452 0.44395 0.25093 0.0
N835 N 0.79228 0.43683 0.24201 0.0
C836 C 0.86888 0.45365 0.23089 0.0
C837 C 0.84468 0.4504 0.21762 0.0
C838 C 0.86369 0.43306 0.2292 0.0
N839 N 0.85925 0.46178 0.22516 0.0
C840 C 0.83906 0.42988 0.21566 0.0
C841 C 0.84848 0.42086 0.22152 0.0
H842 H 0.88037 0.46306 0.23687 0.0
H843 H 0.83704 0.45709 0.21326 0.0
C844 C 0.82124 0.51716 0.21746 0.0
N845 N 0.82555 0.51189 0.22719 0.0
C846 C 0.80312 0.51791 0.21608 0.0
C847 C 0.79447 0.5081 0.23479 0.0
C848 C 0.81269 0.50751 0.2358 0.0
C849 C 0.7894 0.51323 0.22481 0.0
H850 H 0.83188 0.52072 0.21078 0.0
H851 H 0.81657 0.50347 0.24346 0.0
O852 O 0.89411 0.5094 0.23233 0.0
O853 O 0.8751 0.53767 0.23308 0.0
O854 O 0.85928 0.50277 0.2157 0.0
O855 O 0.84883 0.49135 0.24016 0.0
H856 H 0.91346 0.54963 0.23716 0.0
H857 H 0.92058 0.49624 0.23432 0.0
H858 H 0.95003 0.57038 0.24309 0.0
H859 H 0.95721 0.51805 0.24018 0.0
H860 H 0.83764 0.55633 0.25439 0.0
H861 H 0.87509 0.56569 0.22006 0.0
H862 H 0.85437 0.53555 0.25089 0.0
H863 H 0.85772 0.5857 0.22403 0.0
H864 H 0.95291 0.56889 0.20263 0.0
H865 H 0.89894 0.57048 0.19177 0.0
H866 H 0.87995 0.50214 0.28051 0.0
H867 H 0.90442 0.56647 0.27204 0.0
H868 H 0.83865 0.49515 0.19743 0.0
H869 H 0.89181 0.49797 0.21244 0.0
H870 H 0.84843 0.48528 0.18018 0.0
H871 H 0.90062 0.4881 0.19497 0.0
H872 H 0.82186 0.47398 0.22408 0.0
H873 H 0.83342 0.46805 0.25753 0.0
H874 H 0.7881 0.4412 0.22553 0.0
H875 H 0.79939 0.43529 0.25839 0.0
H876 H 0.87139 0.42675 0.23387 0.0
H877 H 0.82693 0.42097 0.20985 0.0
H878 H 0.7999 0.52211 0.20828 0.0
H879 H 0.78421 0.50407 0.2417 0.0
Li880 Li 0.47108 0.36428 0.22185 0.0
Li881 Li 0.48037 0.36069 0.24067 0.0
Li882 Li 0.50598 0.37715 0.22605 0.0
Li883 Li 0.48394 0.34048 0.22548 0.0
C884 C 0.47925 0.39849 0.23196 0.0
N885 N 0.46032 0.42182 0.23017 0.0
C886 C 0.46471 0.39661 0.23967 0.0
C887 C 0.48434 0.41239 0.2234 0.0
C888 C 0.45527 0.40851 0.23861 0.0
C889 C 0.47454 0.424 0.22262 0.0
C890 C 0.44383 0.31935 0.22954 0.0
C891 C 0.42578 0.28362 0.23525 0.0
N892 N 0.4156 0.278 0.22564 0.0
C893 C 0.43322 0.31323 0.21972 0.0
C894 C 0.44011 0.30445 0.23737 0.0
C895 C 0.41898 0.29224 0.21791 0.0
C896 C 0.45282 0.37041 0.20322 0.0
N897 N 0.45087 0.36695 0.21404 0.0
C898 C 0.41716 0.36297 0.214 0.0
C899 C 0.43362 0.36347 0.2195 0.0
C900 C 0.41837 0.36578 0.20275 0.0
C901 C 0.43668 0.36996 0.19739 0.0
H902 H 0.46653 0.37271 0.19906 0.0
H903 H 0.43241 0.36044 0.22808 0.0
C904 C 0.48672 0.36916 0.26327 0.0
N905 N 0.47256 0.35869 0.25539 0.0
C906 C 0.48082 0.36551 0.27413 0.0
C907 C 0.44578 0.34102 0.2685 0.0
C908 C 0.45231 0.34527 0.25778 0.0
C909 C 0.46021 0.35087 0.27683 0.0
H910 H 0.50266 0.37992 0.26114 0.0
H911 H 0.4413 0.33745 0.25135 0.0
C912 C 0.50469 0.3676 0.20511 0.0
N913 N 0.53361 0.38384 0.18864 0.0
C914 C 0.51348 0.35636 0.20101 0.0
C915 C 0.51044 0.387 0.20075 0.0
C916 C 0.5281 0.36486 0.1927 0.0
C917 C 0.52515 0.39498 0.19246 0.0
C918 C 0.52385 0.36128 0.23847 0.0
C919 C 0.5321 0.35126 0.23249 0.0
C920 C 0.53642 0.37672 0.24587 0.0
C921 C 0.55276 0.35678 0.23405 0.0
C922 C 0.55701 0.38183 0.24718 0.0
N923 N 0.56468 0.37183 0.2413 0.0
C924 C 0.5397 0.41867 0.22707 0.0
C925 C 0.54776 0.39509 0.21872 0.0
C926 C 0.56027 0.43478 0.22597 0.0
N927 N 0.5339 0.39925 0.22351 0.0
C928 C 0.56838 0.41066 0.21745 0.0
C929 C 0.57495 0.43081 0.22116 0.0
H930 H 0.52844 0.42157 0.23093 0.0
H931 H 0.54297 0.37955 0.2161 0.0
C932 C 0.47369 0.3045 0.21284 0.0
N933 N 0.48044 0.31395 0.22259 0.0
C934 C 0.47185 0.28523 0.21091 0.0
C935 C 0.48346 0.28568 0.22915 0.0
C936 C 0.48481 0.30476 0.23076 0.0
C937 C 0.47713 0.2757 0.21907 0.0
H938 H 0.46991 0.31203 0.20656 0.0
H939 H 0.48984 0.31254 0.23848 0.0
O940 O 0.48839 0.38671 0.23275 0.0
O941 O 0.45832 0.33974 0.23132 0.0
O942 O 0.49033 0.35951 0.21324 0.0
O943 O 0.50364 0.35609 0.23705 0.0
H944 H 0.46062 0.38593 0.24635 0.0
H945 H 0.49566 0.41412 0.21741 0.0
H946 H 0.44389 0.40712 0.24447 0.0
H947 H 0.47823 0.43473 0.21601 0.0
H948 H 0.42283 0.27191 0.24121 0.0
H949 H 0.43611 0.32451 0.2135 0.0
H950 H 0.44844 0.3089 0.24495 0.0
H951 H 0.41069 0.28727 0.21034 0.0
H952 H 0.40343 0.35989 0.21848 0.0
H953 H 0.43813 0.37185 0.1887 0.0
H954 H 0.49242 0.37338 0.28033 0.0
H955 H 0.42968 0.32989 0.27026 0.0
H956 H 0.50926 0.34136 0.20431 0.0
H957 H 0.50379 0.39589 0.20382 0.0
H958 H 0.53513 0.3564 0.1895 0.0
H959 H 0.52986 0.41004 0.18907 0.0
H960 H 0.52285 0.33966 0.22653 0.0
H961 H 0.53045 0.38489 0.25044 0.0
H962 H 0.55935 0.34921 0.22943 0.0
H963 H 0.56692 0.39381 0.25285 0.0
H964 H 0.56465 0.45011 0.22891 0.0
H965 H 0.5792 0.40672 0.21392 0.0
H966 H 0.46653 0.27798 0.20308 0.0
H967 H 0.48801 0.27923 0.23566 0.0
Li968 Li 0.60999 0.12775 0.22375 0.0
Li969 Li 0.64678 0.14369 0.22434 0.0
Li970 Li 0.62608 0.10882 0.21771 0.0
Li971 Li 0.62633 0.11668 0.23708 0.0
C972 C 0.61861 0.1295 0.20183 0.0
N973 N 0.59723 0.11941 0.18252 0.0
C974 C 0.62748 0.142 0.19275 0.0
C975 C 0.59887 0.11183 0.20109 0.0
C976 C 0.61642 0.13665 0.18306 0.0
C977 C 0.58831 0.10701 0.19126 0.0
C978 C 0.62875 0.16231 0.23692 0.0
C979 C 0.62372 0.1863 0.24771 0.0
N980 N 0.62876 0.19908 0.23903 0.0
C981 C 0.63389 0.17568 0.22811 0.0
C982 C 0.62362 0.16764 0.2468 0.0
C983 C 0.6338 0.19419 0.22934 0.0
C984 C 0.56992 0.12258 0.22694 0.0
N985 N 0.58798 0.133 0.2213 0.0
C986 C 0.57588 0.15284 0.21216 0.0
C987 C 0.59113 0.14782 0.21399 0.0
C988 C 0.55711 0.14255 0.21791 0.0
C989 C 0.55417 0.12715 0.22537 0.0
H990 H 0.56788 0.1109 0.23273 0.0
H991 H 0.60567 0.15605 0.20968 0.0
C992 C 0.68307 0.1725 0.21311 0.0
N993 N 0.67272 0.16874 0.22264 0.0
C994 C 0.70207 0.19082 0.21166 0.0
C995 C 0.69935 0.2009 0.22989 0.0
C996 C 0.68059 0.18233 0.23102 0.0
C997 C 0.71036 0.20547 0.22009 0.0
H998 H 0.67654 0.16123 0.20664 0.0
H999 H 0.6722 0.1788 0.23857 0.0
C1000 C 0.59354 0.07852 0.23067 0.0
N1001 N 0.57724 0.03764 0.23675 0.0
C1002 C 0.60667 0.07069 0.23258 0.0
C1003 C 0.57212 0.06557 0.23187 0.0
C1004 C 0.59813 0.04998 0.23564 0.0
C1005 C 0.56418 0.04494 0.23494 0.0
C1006 C 0.67 0.12843 0.23016 0.0
C1007 C 0.68337 0.12722 0.22268 0.0
C1008 C 0.67801 0.13959 0.23975 0.0
C1009 C 0.7046 0.13734 0.22488 0.0
C1010 C 0.69933 0.14949 0.24165 0.0
N1011 N 0.71207 0.14818 0.23424 0.0
C1012 C 0.64216 0.0997 0.20007 0.0
C1013 C 0.61035 0.07048 0.20555 0.0
C1014 C 0.644 0.08845 0.1916 0.0
N1015 N 0.62573 0.09055 0.20692 0.0
C1016 C 0.61171 0.05853 0.19725 0.0
C1017 C 0.62874 0.06755 0.19018 0.0
H1018 H 0.65381 0.11585 0.20118 0.0
H1019 H 0.59695 0.06374 0.21078 0.0
C1020 C 0.61583 0.11167 0.25924 0.0
N1021 N 0.62623 0.10787 0.2514 0.0
C1022 C 0.61849 0.10845 0.27008 0.0
C1023 C 0.64184 0.09674 0.26447 0.0
C1024 C 0.63855 0.09995 0.25376 0.0
C1025 C 0.63217 0.10153 0.27278 0.0
H1026 H 0.60624 0.11809 0.2571 0.0
H1027 H 0.64664 0.09707 0.24737 0.0
O1028 O 0.62941 0.13455 0.21132 0.0
O1029 O 0.62857 0.144 0.23592 0.0
O1030 O 0.60144 0.09882 0.22781 0.0
O1031 O 0.64922 0.11904 0.22805 0.0
H1032 H 0.64277 0.1557 0.19319 0.0
H1033 H 0.59174 0.10191 0.208 0.0
H1034 H 0.6231 0.1462 0.17597 0.0
H1035 H 0.57304 0.09339 0.19057 0.0
H1036 H 0.61978 0.19062 0.25532 0.0
H1037 H 0.63788 0.17182 0.22039 0.0
H1038 H 0.61961 0.15745 0.2537 0.0
H1039 H 0.63773 0.20467 0.22259 0.0
H1040 H 0.57905 0.16513 0.20652 0.0
H1041 H 0.5399 0.11879 0.22995 0.0
H1042 H 0.71012 0.19345 0.20403 0.0
H1043 H 0.70486 0.21176 0.23657 0.0
H1044 H 0.62325 0.08037 0.23159 0.0
H1045 H 0.56175 0.07141 0.23045 0.0
H1046 H 0.60811 0.04371 0.23712 0.0
H1047 H 0.54763 0.03473 0.23589 0.0
H1048 H 0.67746 0.11858 0.21525 0.0
H1049 H 0.66793 0.14094 0.24556 0.0
H1050 H 0.71513 0.13658 0.21915 0.0
H1051 H 0.70575 0.15831 0.24899 0.0
H1052 H 0.65743 0.09594 0.18635 0.0
H1053 H 0.5995 0.04251 0.19629 0.0
H1054 H 0.6109 0.11247 0.27629 0.0
H1055 H 0.6524 0.09126 0.26626 0.0
Li1056 Li 0.51594 0.87534 0.75573 0.0
Li1057 Li 0.52488 0.88626 0.77469 0.0
Li1058 Li 0.50954 0.85051 0.76963 0.0
Li1059 Li 0.48911 0.86656 0.76938 0.0
C1060 C 0.54773 0.86434 0.76314 0.0
N1061 N 0.56906 0.84361 0.75981 0.0
C1062 C 0.56224 0.86591 0.77071 0.0
C1063 C 0.54412 0.8523 0.75385 0.0
C1064 C 0.57285 0.85529 0.76889 0.0
C1065 C 0.55505 0.84193 0.75232 0.0
C1066 C 0.52231 0.91449 0.76043 0.0
C1067 C 0.52658 0.94714 0.75457 0.0
N1068 N 0.54694 0.95418 0.75248 0.0
C1069 C 0.54327 0.92205 0.75821 0.0
C1070 C 0.51387 0.92711 0.75858 0.0
C1071 C 0.55547 0.94215 0.7542 0.0
C1072 C 0.50928 0.87673 0.73341 0.0
N1073 N 0.52401 0.88203 0.74111 0.0
C1074 C 0.55053 0.89293 0.72772 0.0
C1075 C 0.54437 0.89041 0.7385 0.0
C1076 C 0.53559 0.88681 0.71955 0.0
C1077 C 0.51478 0.87909 0.72249 0.0
H1078 H 0.49319 0.86999 0.73574 0.0
H1079 H 0.55576 0.89441 0.7448 0.0
C1080 C 0.55096 0.89729 0.79192 0.0
N1081 N 0.54414 0.90597 0.78462 0.0
C1082 C 0.56554 0.90953 0.79965 0.0
C1083 C 0.56564 0.93953 0.7924 0.0
C1084 C 0.5507 0.92658 0.78489 0.0
C1085 C 0.57327 0.93097 0.79984 0.0
H1086 H 0.54507 0.88077 0.79166 0.0
H1087 H 0.54447 0.93306 0.77933 0.0
C1088 C 0.47214 0.82981 0.75791 0.0
N1089 N 0.43498 0.79254 0.75763 0.0
C1090 C 0.4642 0.8184 0.76742 0.0
C1091 C 0.46118 0.82225 0.74826 0.0
C1092 C 0.4454 0.7996 0.76711 0.0
C1093 C 0.44242 0.80338 0.74829 0.0
C1094 C 0.49722 0.86854 0.79133 0.0
C1095 C 0.49363 0.85752 0.80095 0.0
C1096 C 0.49581 0.88647 0.7912 0.0
C1097 C 0.4886 0.86458 0.81029 0.0
C1098 C 0.49075 0.89302 0.80071 0.0
N1099 N 0.48728 0.88203 0.80998 0.0
C1100 C 0.5155 0.82304 0.78258 0.0
C1101 C 0.50452 0.81125 0.7647 0.0
C1102 C 0.51547 0.80483 0.78505 0.0
N1103 N 0.50988 0.82576 0.77258 0.0
C1104 C 0.50424 0.79283 0.76681 0.0
C1105 C 0.50958 0.78933 0.77713 0.0
H1106 H 0.51988 0.83499 0.78865 0.0
H1107 H 0.50027 0.81391 0.75678 0.0
C1108 C 0.45378 0.87006 0.76502 0.0
N1109 N 0.46181 0.86165 0.77176 0.0
C1110 C 0.43317 0.86513 0.76623 0.0
C1111 C 0.4298 0.84341 0.78141 0.0
C1112 C 0.45033 0.84866 0.77988 0.0
C1113 C 0.42086 0.85149 0.77447 0.0
H1114 H 0.46324 0.88022 0.75858 0.0
H1115 H 0.45689 0.84183 0.78501 0.0
O1116 O 0.53683 0.87425 0.76488 0.0
O1117 O 0.50986 0.89472 0.76415 0.0
O1118 O 0.49045 0.84835 0.75799 0.0
O1119 O 0.5023 0.8618 0.78217 0.0
H1120 H 0.56529 0.87519 0.77792 0.0
H1121 H 0.5327 0.85063 0.74798 0.0
H1122 H 0.58409 0.85632 0.7747 0.0
H1123 H 0.55231 0.83244 0.74521 0.0
H1124 H 0.52026 0.95707 0.7531 0.0
H1125 H 0.55015 0.91263 0.7597 0.0
H1126 H 0.49764 0.92145 0.76021 0.0
H1127 H 0.57173 0.94821 0.75248 0.0
H1128 H 0.56675 0.89914 0.72578 0.0
H1129 H 0.50277 0.87403 0.71642 0.0
H1130 H 0.57115 0.9024 0.80524 0.0
H1131 H 0.57111 0.95599 0.79242 0.0
H1132 H 0.47244 0.82399 0.77497 0.0
H1133 H 0.4671 0.8309 0.74084 0.0
H1134 H 0.43908 0.79064 0.77441 0.0
H1135 H 0.43376 0.79735 0.74088 0.0
H1136 H 0.49471 0.84365 0.80119 0.0
H1137 H 0.49858 0.89526 0.78385 0.0
H1138 H 0.48577 0.85619 0.81779 0.0
H1139 H 0.4896 0.90685 0.80072 0.0
H1140 H 0.51994 0.80289 0.79307 0.0
H1141 H 0.49931 0.78122 0.7605 0.0
H1142 H 0.42689 0.87173 0.76072 0.0
H1143 H 0.42078 0.83248 0.78771 0.0
Li1144 Li 0.14423 0.64715 0.77219 0.0
Li1145 Li 0.12391 0.60907 0.77172 0.0
Li1146 Li 0.11651 0.62821 0.75856 0.0
Li1147 Li 0.10825 0.62719 0.77813 0.0
C1148 C 0.15895 0.62501 0.75915 0.0
N1149 N 0.19076 0.61661 0.75719 0.0
C1150 C 0.17059 0.62605 0.7682 0.0
C1151 C 0.16359 0.61979 0.7491 0.0
C1152 C 0.18657 0.62172 0.76704 0.0
C1153 C 0.17973 0.6156 0.74827 0.0
C1154 C 0.12951 0.6271 0.79535 0.0
C1155 C 0.10892 0.60978 0.8111 0.0
N1156 N 0.12196 0.6264 0.81727 0.0
C1157 C 0.14288 0.64386 0.80188 0.0
C1158 C 0.11257 0.60978 0.80003 0.0
C1159 C 0.13875 0.64326 0.81293 0.0
C1160 C 0.17173 0.68648 0.78145 0.0
N1161 N 0.17004 0.67256 0.77384 0.0
C1162 C 0.20437 0.69597 0.76752 0.0
C1163 C 0.18576 0.67715 0.76679 0.0
C1164 C 0.2068 0.71048 0.77546 0.0
C1165 C 0.19013 0.70557 0.78248 0.0
H1166 H 0.15863 0.68289 0.78661 0.0
H1167 H 0.18383 0.66639 0.76045 0.0
C1168 C 0.12768 0.57576 0.7639 0.0
N1169 N 0.12701 0.58544 0.77307 0.0
C1170 C 0.1346 0.56165 0.76424 0.0
C1171 C 0.13863 0.56662 0.78357 0.0
C1172 C 0.1318 0.58079 0.78284 0.0
C1173 C 0.14082 0.55745 0.77413 0.0
H1174 H 0.12415 0.58004 0.75621 0.0
H1175 H 0.13159 0.58904 0.78997 0.0
C1176 C 0.12911 0.67066 0.76386 0.0
N1177 N 0.14578 0.70973 0.75496 0.0
C1178 C 0.1244 0.68498 0.76829 0.0
C1179 C 0.14239 0.67624 0.75494 0.0
C1180 C 0.13295 0.70465 0.76365 0.0
C1181 C 0.15064 0.69605 0.75055 0.0
C1182 C 0.08579 0.58331 0.7657 0.0
C1183 C 0.08351 0.57543 0.75522 0.0
C1184 C 0.07747 0.56962 0.7744 0.0
C1185 C 0.07333 0.55398 0.75364 0.0
C1186 C 0.06741 0.54827 0.77249 0.0
N1187 N 0.06559 0.54096 0.76224 0.0
C1188 C 0.11422 0.62142 0.73617 0.0
C1189 C 0.09981 0.64159 0.74211 0.0
C1190 C 0.11091 0.62435 0.72542 0.0
N1191 N 0.10893 0.63024 0.74423 0.0
C1192 C 0.09655 0.64525 0.73145 0.0
C1193 C 0.10236 0.63675 0.72297 0.0
H1194 H 0.12134 0.6124 0.73812 0.0
H1195 H 0.09566 0.64833 0.74869 0.0
C1196 C 0.0965 0.64452 0.79475 0.0
N1197 N 0.08929 0.62807 0.78792 0.0
C1198 C 0.08314 0.64588 0.80213 0.0
C1199 C 0.05504 0.61364 0.79506 0.0
C1200 C 0.06904 0.61275 0.78791 0.0
C1201 C 0.06211 0.63034 0.8023 0.0
H1202 H 0.11265 0.65661 0.79443 0.0
H1203 H 0.06375 0.59996 0.7823 0.0
O1204 O 0.14266 0.62835 0.76024 0.0
O1205 O 0.13316 0.62752 0.78448 0.0
O1206 O 0.12115 0.65147 0.76841 0.0
O1207 O 0.09595 0.60429 0.7674 0.0
H1208 H 0.1672 0.62999 0.77606 0.0
H1209 H 0.15481 0.6189 0.74201 0.0
H1210 H 0.1956 0.62235 0.77398 0.0
H1211 H 0.18345 0.61149 0.74055 0.0
H1212 H 0.09573 0.59656 0.81479 0.0
H1213 H 0.15641 0.65712 0.79849 0.0
H1214 H 0.10225 0.59656 0.79514 0.0
H1215 H 0.14892 0.65619 0.81806 0.0
H1216 H 0.2168 0.69902 0.76196 0.0
H1217 H 0.19117 0.71648 0.78857 0.0
H1218 H 0.13603 0.55484 0.75678 0.0
H1219 H 0.14356 0.56403 0.79133 0.0
H1220 H 0.11426 0.68093 0.77524 0.0
H1221 H 0.14641 0.66542 0.7515 0.0
H1222 H 0.12942 0.71589 0.76698 0.0
H1223 H 0.16094 0.70058 0.74366 0.0
H1224 H 0.08962 0.58573 0.74838 0.0
H1225 H 0.07872 0.57537 0.78253 0.0
H1226 H 0.0716 0.54769 0.74558 0.0
H1227 H 0.06102 0.53752 0.77917 0.0
H1228 H 0.11573 0.61768 0.71908 0.0
H1229 H 0.08981 0.65479 0.72984 0.0
H1230 H 0.08908 0.65918 0.80747 0.0
H1231 H 0.03891 0.6014 0.79497 0.0
Li1232 Li 0.3444 0.48239 0.77373 0.0
Li1233 Li 0.3817 0.50527 0.77271 0.0
Li1234 Li 0.36344 0.4797 0.75826 0.0
Li1235 Li 0.36873 0.46991 0.77587 0.0
C1236 C 0.34735 0.50581 0.75586 0.0
N1237 N 0.32104 0.51043 0.74209 0.0
C1238 C 0.35188 0.52559 0.75273 0.0
C1239 C 0.3294 0.48836 0.75201 0.0
C1240 C 0.33839 0.52761 0.74575 0.0
C1241 C 0.31631 0.49102 0.74504 0.0
C1242 C 0.3741 0.50245 0.79374 0.0
C1243 C 0.40386 0.52293 0.80507 0.0
N1244 N 0.39323 0.53065 0.81032 0.0
C1245 C 0.36339 0.51037 0.79935 0.0
C1246 C 0.39441 0.50857 0.79672 0.0
C1247 C 0.37336 0.52468 0.80767 0.0
C1248 C 0.30015 0.46543 0.777 0.0
N1249 N 0.31959 0.48233 0.77748 0.0
C1250 C 0.30586 0.50434 0.7813 0.0
C1251 C 0.32266 0.50151 0.77959 0.0
C1252 C 0.28556 0.48724 0.7808 0.0
C1253 C 0.28284 0.46753 0.77873 0.0
H1254 H 0.2979 0.45041 0.77495 0.0
H1255 H 0.33824 0.51477 0.77959 0.0
C1256 C 0.42287 0.54057 0.77411 0.0
N1257 N 0.40227 0.53315 0.77556 0.0
C1258 C 0.43725 0.56137 0.77637 0.0
C1259 C 0.40882 0.56618 0.78169 0.0
C1260 C 0.39506 0.54548 0.77917 0.0
C1261 C 0.4302 0.57437 0.78028 0.0
H1262 H 0.42811 0.53037 0.77117 0.0
H1263 H 0.37856 0.53915 0.78011 0.0
C1264 C 0.32718 0.43945 0.77224 0.0
N1265 N 0.29658 0.4041 0.78231 0.0
C1266 C 0.32534 0.43872 0.78351 0.0
C1267 C 0.3134 0.42217 0.76612 0.0
C1268 C 0.3098 0.42071 0.78844 0.0
C1269 C 0.29804 0.40447 0.77136 0.0
C1270 C 0.4021 0.47843 0.76486 0.0
C1271 C 0.39899 0.46411 0.75675 0.0
C1272 C 0.41702 0.48299 0.77282 0.0
C1273 C 0.41065 0.4543 0.75683 0.0
C1274 C 0.42834 0.47283 0.77263 0.0
N1275 N 0.42493 0.4588 0.76472 0.0
C1276 C 0.36908 0.49075 0.73624 0.0
C1277 C 0.3497 0.45461 0.73971 0.0
C1278 C 0.36498 0.48726 0.72521 0.0
N1279 N 0.36108 0.47453 0.74322 0.0
C1280 C 0.34526 0.45039 0.72875 0.0
C1281 C 0.35256 0.46686 0.72136 0.0
H1282 H 0.37804 0.50643 0.7393 0.0
H1283 H 0.34358 0.44206 0.74547 0.0
C1284 C 0.37607 0.45147 0.79394 0.0
N1285 N 0.3724 0.44972 0.78315 0.0
C1286 C 0.37595 0.43533 0.79961 0.0
C1287 C 0.36901 0.41624 0.78286 0.0
C1288 C 0.36908 0.43267 0.77754 0.0
C1289 C 0.37196 0.41722 0.79409 0.0
H1290 H 0.37813 0.46495 0.79825 0.0
H1291 H 0.36574 0.43152 0.769 0.0
O1292 O 0.3604 0.50366 0.76273 0.0
O1293 O 0.36472 0.4887 0.78542 0.0
O1294 O 0.34249 0.45676 0.76719 0.0
O1295 O 0.3906 0.48795 0.76501 0.0
H1296 H 0.36568 0.53925 0.75568 0.0
H1297 H 0.32558 0.47292 0.75437 0.0
H1298 H 0.3417 0.54283 0.74326 0.0
H1299 H 0.30239 0.47767 0.742 0.0
H1300 H 0.41965 0.52796 0.80737 0.0
H1301 H 0.34753 0.5055 0.79733 0.0
H1302 H 0.40288 0.50249 0.79252 0.0
H1303 H 0.36528 0.53102 0.81204 0.0
H1304 H 0.30877 0.51991 0.78258 0.0
H1305 H 0.26749 0.4539 0.77828 0.0
H1306 H 0.45363 0.56721 0.77516 0.0
H1307 H 0.40277 0.57581 0.78449 0.0
H1308 H 0.33573 0.45186 0.78843 0.0
H1309 H 0.31451 0.42244 0.75741 0.0
H1310 H 0.30825 0.41994 0.79714 0.0
H1311 H 0.28727 0.39101 0.76671 0.0
H1312 H 0.38756 0.46044 0.75051 0.0
H1313 H 0.41979 0.49418 0.77909 0.0
H1314 H 0.4083 0.44307 0.75065 0.0
H1315 H 0.43984 0.47611 0.77878 0.0
H1316 H 0.37115 0.50038 0.71978 0.0
H1317 H 0.33548 0.43446 0.72615 0.0
H1318 H 0.37787 0.43663 0.80829 0.0
H1319 H 0.36606 0.40268 0.77826 0.0
Li1320 Li 0.55252 0.85059 0.5518 0.0
Li1321 Li 0.54418 0.84037 0.57096 0.0
Li1322 Li 0.53391 0.81439 0.55603 0.0
Li1323 Li 0.51744 0.83472 0.55788 0.0
C1324 C 0.58324 0.84606 0.55988 0.0
N1325 N 0.62576 0.86899 0.55709 0.0
C1326 C 0.59515 0.86419 0.56585 0.0
C1327 C 0.59302 0.83939 0.55262 0.0
C1328 C 0.61661 0.87563 0.56429 0.0
C1329 C 0.61452 0.85124 0.55129 0.0
C1330 C 0.5327 0.8733 0.56374 0.0
C1331 C 0.51342 0.88543 0.57394 0.0
N1332 N 0.5137 0.89663 0.56525 0.0
C1333 C 0.53283 0.88494 0.55491 0.0
C1334 C 0.52296 0.87355 0.57334 0.0
C1335 C 0.52313 0.89664 0.55584 0.0
C1336 C 0.57731 0.87274 0.53293 0.0
N1337 N 0.57334 0.87327 0.54362 0.0
C1338 C 0.5975 0.90972 0.54433 0.0
C1339 C 0.5834 0.89122 0.54937 0.0
C1340 C 0.60121 0.90984 0.53321 0.0
C1341 C 0.59131 0.89096 0.52754 0.0
H1342 H 0.56921 0.85848 0.52843 0.0
H1343 H 0.58 0.89128 0.55785 0.0
C1344 C 0.54813 0.83276 0.59295 0.0
N1345 N 0.55231 0.84761 0.58547 0.0
C1346 C 0.55168 0.83802 0.60389 0.0
C1347 C 0.56437 0.87381 0.59909 0.0
C1348 C 0.56069 0.86788 0.58828 0.0
C1349 C 0.55943 0.85872 0.60707 0.0
H1350 H 0.54138 0.81675 0.59045 0.0
H1351 H 0.56387 0.87934 0.58212 0.0
C1352 C 0.53162 0.82443 0.53417 0.0
N1353 N 0.53978 0.81575 0.51363 0.0
C1354 C 0.52145 0.82654 0.52526 0.0
C1355 C 0.54585 0.81781 0.53263 0.0
C1356 C 0.52583 0.82214 0.51494 0.0
C1357 C 0.54977 0.8135 0.5222 0.0
C1358 C 0.49894 0.79618 0.56916 0.0
C1359 C 0.48525 0.78883 0.56042 0.0
C1360 C 0.49419 0.7842 0.57851 0.0
C1361 C 0.46703 0.76956 0.56119 0.0
C1362 C 0.47581 0.76501 0.57896 0.0
N1363 N 0.46273 0.75814 0.57036 0.0
C1364 C 0.5402 0.78047 0.55842 0.0
C1365 C 0.51323 0.77466 0.54638 0.0
C1366 C 0.53533 0.75989 0.5573 0.0
N1367 N 0.52893 0.78727 0.55313 0.0
C1368 C 0.50767 0.75395 0.54513 0.0
C1369 C 0.51853 0.74616 0.55077 0.0
H1370 H 0.55264 0.7909 0.56372 0.0
H1371 H 0.50456 0.7805 0.54225 0.0
C1372 C 0.48766 0.8411 0.54734 0.0
N1373 N 0.49236 0.83527 0.55678 0.0
C1374 C 0.46948 0.84188 0.54644 0.0
C1375 C 0.46155 0.83093 0.56506 0.0
C1376 C 0.47985 0.83036 0.56559 0.0
C1377 C 0.4561 0.83665 0.55537 0.0
H1378 H 0.49813 0.8453 0.54055 0.0
H1379 H 0.48413 0.826 0.57303 0.0
O1380 O 0.56216 0.83491 0.56115 0.0
O1381 O 0.54161 0.86131 0.56289 0.0
O1382 O 0.52716 0.82834 0.54434 0.0
O1383 O 0.51697 0.81494 0.56858 0.0
H1384 H 0.58789 0.86957 0.57152 0.0
H1385 H 0.58419 0.82515 0.54811 0.0
H1386 H 0.62597 0.88981 0.56878 0.0
H1387 H 0.62226 0.8463 0.54567 0.0
H1388 H 0.5057 0.88567 0.5813 0.0
H1389 H 0.54014 0.88475 0.54738 0.0
H1390 H 0.52246 0.86439 0.5802 0.0
H1391 H 0.52303 0.90566 0.54906 0.0
H1392 H 0.60501 0.92389 0.54904 0.0
H1393 H 0.59357 0.8904 0.51893 0.0
H1394 H 0.54752 0.82592 0.60981 0.0
H1395 H 0.57058 0.88995 0.60121 0.0
H1396 H 0.51027 0.8315 0.52629 0.0
H1397 H 0.55386 0.81614 0.53941 0.0
H1398 H 0.51811 0.82375 0.50796 0.0
H1399 H 0.56079 0.8084 0.5209 0.0
H1400 H 0.48873 0.7978 0.55309 0.0
H1401 H 0.50461 0.78966 0.58534 0.0
H1402 H 0.45634 0.76366 0.55447 0.0
H1403 H 0.47195 0.75556 0.58614 0.0
H1404 H 0.54437 0.75471 0.56167 0.0
H1405 H 0.49441 0.744 0.54014 0.0
H1406 H 0.46602 0.84664 0.53887 0.0
H1407 H 0.45157 0.82654 0.5721 0.0
Li1408 Li 0.15124 0.67209 0.56012 0.0
Li1409 Li 0.17446 0.70864 0.55911 0.0
Li1410 Li 0.14824 0.69284 0.57444 0.0
Li1411 Li 0.13842 0.69493 0.55532 0.0
C1412 C 0.18244 0.67959 0.57396 0.0
N1413 N 0.20221 0.65845 0.57994 0.0
C1414 C 0.19288 0.67458 0.56624 0.0
C1415 C 0.18204 0.67381 0.58472 0.0
C1416 C 0.20276 0.66387 0.56942 0.0
C1417 C 0.19214 0.66316 0.58758 0.0
C1418 C 0.17066 0.69809 0.53842 0.0
C1419 C 0.18624 0.72468 0.52479 0.0
N1420 N 0.19708 0.71588 0.52102 0.0
C1421 C 0.18186 0.68923 0.53435 0.0
C1422 C 0.17276 0.71588 0.53356 0.0
C1423 C 0.19517 0.69849 0.52557 0.0
C1424 C 0.14561 0.63784 0.54748 0.0
N1425 N 0.1474 0.64503 0.55775 0.0
C1426 C 0.14518 0.6143 0.5648 0.0
C1427 C 0.1465 0.63339 0.56636 0.0
C1428 C 0.14434 0.60686 0.55426 0.0
C1429 C 0.14409 0.61871 0.54554 0.0
H1430 H 0.14554 0.64704 0.5408 0.0
H1431 H 0.14726 0.63913 0.57446 0.0
C1432 C 0.20796 0.75026 0.55875 0.0
N1433 N 0.20211 0.73038 0.55607 0.0
C1434 C 0.22852 0.76618 0.5573 0.0
C1435 C 0.23647 0.74092 0.55016 0.0
C1436 C 0.21589 0.72555 0.55184 0.0
C1437 C 0.24309 0.76153 0.55302 0.0
H1438 H 0.19678 0.7537 0.56224 0.0
H1439 H 0.2111 0.7097 0.54993 0.0
C1440 C 0.11124 0.65106 0.56448 0.0
N1441 N 0.0827 0.60935 0.56195 0.0
C1442 C 0.10204 0.64336 0.55443 0.0
C1443 C 0.10589 0.63757 0.57325 0.0
C1444 C 0.08765 0.62222 0.55331 0.0
C1445 C 0.09143 0.61653 0.5718 0.0
C1446 C 0.14894 0.73155 0.56497 0.0
C1447 C 0.13647 0.73206 0.57325 0.0
C1448 C 0.15398 0.74489 0.55615 0.0
C1449 C 0.12888 0.74563 0.57247 0.0
C1450 C 0.14607 0.75822 0.55566 0.0
N1451 N 0.13377 0.7583 0.56375 0.0
C1452 C 0.15655 0.70265 0.59672 0.0
C1453 C 0.12113 0.6823 0.59181 0.0
C1454 C 0.1512 0.70054 0.60766 0.0
N1455 N 0.14155 0.69315 0.58912 0.0
C1456 C 0.11509 0.67971 0.60261 0.0
C1457 C 0.13025 0.68848 0.61071 0.0
H1458 H 0.17268 0.71122 0.59431 0.0
H1459 H 0.10955 0.67516 0.58555 0.0
C1460 C 0.11648 0.69327 0.53646 0.0
N1461 N 0.11791 0.69672 0.54728 0.0
C1462 C 0.0996 0.6914 0.53074 0.0
C1463 C 0.08642 0.69748 0.54735 0.0
C1464 C 0.10336 0.69887 0.55277 0.0
C1465 C 0.08403 0.69311 0.53622 0.0
H1466 H 0.12787 0.69086 0.53236 0.0
H1467 H 0.10445 0.7008 0.56143 0.0
O1468 O 0.17253 0.68995 0.57102 0.0
O1469 O 0.15766 0.68937 0.54708 0.0
O1470 O 0.12579 0.6716 0.56564 0.0
O1471 O 0.1564 0.71826 0.56557 0.0
H1472 H 0.19279 0.67829 0.55784 0.0
H1473 H 0.17391 0.67741 0.59079 0.0
H1474 H 0.21073 0.65973 0.56351 0.0
H1475 H 0.19194 0.65858 0.59588 0.0
H1476 H 0.18806 0.7385 0.52099 0.0
H1477 H 0.18058 0.67557 0.53804 0.0
H1478 H 0.16406 0.72281 0.53652 0.0
H1479 H 0.20405 0.69189 0.5224 0.0
H1480 H 0.14555 0.60585 0.57178 0.0
H1481 H 0.14293 0.61338 0.53729 0.0
H1482 H 0.23301 0.78188 0.55961 0.0
H1483 H 0.24725 0.73655 0.54705 0.0
H1484 H 0.10616 0.65356 0.54753 0.0
H1485 H 0.11306 0.64324 0.58105 0.0
H1486 H 0.08047 0.61602 0.54557 0.0
H1487 H 0.08723 0.60589 0.5785 0.0
H1488 H 0.13253 0.72196 0.58017 0.0
H1489 H 0.16392 0.74498 0.54977 0.0
H1490 H 0.11908 0.74607 0.57878 0.0
H1491 H 0.14976 0.76855 0.54885 0.0
H1492 H 0.16335 0.70743 0.61367 0.0
H1493 H 0.09877 0.67056 0.60463 0.0
H1494 H 0.09824 0.68753 0.52223 0.0
H1495 H 0.07496 0.69911 0.55191 0.0
Li1496 Li 0.27652 0.45806 0.55722 0.0
Li1497 Li 0.31305 0.47305 0.55844 0.0
Li1498 Li 0.28982 0.43618 0.55403 0.0
Li1499 Li 0.29003 0.44841 0.5728 0.0
C1500 C 0.28925 0.46694 0.53683 0.0
N1501 N 0.27524 0.47954 0.51951 0.0
C1502 C 0.30071 0.48737 0.53313 0.0
C1503 C 0.27078 0.45287 0.53166 0.0
C1504 C 0.29334 0.49345 0.52437 0.0
C1505 C 0.26392 0.45956 0.52294 0.0
C1506 C 0.28976 0.4911 0.57025 0.0
C1507 C 0.26602 0.5013 0.5771 0.0
N1508 N 0.27769 0.52024 0.57245 0.0
C1509 C 0.3015 0.51068 0.56552 0.0
C1510 C 0.27188 0.48638 0.5761 0.0
C1511 C 0.29516 0.5252 0.56674 0.0
C1512 C 0.23513 0.44986 0.55591 0.0
N1513 N 0.25518 0.46394 0.55343 0.0
C1514 C 0.24546 0.488 0.54726 0.0
C1515 C 0.26047 0.48263 0.54907 0.0
C1516 C 0.22467 0.47402 0.54996 0.0
C1517 C 0.21953 0.4546 0.55423 0.0
H1518 H 0.23132 0.43517 0.55946 0.0
H1519 H 0.2765 0.49375 0.54735 0.0
C1520 C 0.35037 0.50001 0.54703 0.0
N1521 N 0.34002 0.49643 0.55655 0.0
C1522 C 0.37002 0.51761 0.54579 0.0
C1523 C 0.36818 0.52695 0.56431 0.0
C1524 C 0.34863 0.50922 0.56518 0.0
C1525 C 0.37907 0.53149 0.55448 0.0
H1526 H 0.34327 0.48929 0.54037 0.0
H1527 H 0.34009 0.50579 0.57269 0.0
C1528 C 0.25386 0.40932 0.56276 0.0
N1529 N 0.23062 0.36669 0.56078 0.0
C1530 C 0.25405 0.39668 0.57098 0.0
C1531 C 0.24168 0.40031 0.5536 0.0
C1532 C 0.24223 0.37514 0.56981 0.0
C1533 C 0.23009 0.37872 0.55272 0.0
C1534 C 0.3331 0.45392 0.56375 0.0
C1535 C 0.34061 0.45007 0.55421 0.0
C1536 C 0.34681 0.46472 0.57218 0.0
C1537 C 0.36176 0.45705 0.55326 0.0
C1538 C 0.36785 0.47147 0.57091 0.0
N1539 N 0.37483 0.46752 0.56155 0.0
C1540 C 0.28888 0.414 0.53531 0.0
C1541 C 0.28959 0.3987 0.5519 0.0
C1542 C 0.2909 0.39906 0.52954 0.0
N1543 N 0.28855 0.41368 0.54627 0.0
C1544 C 0.29141 0.38334 0.54647 0.0
C1545 C 0.29263 0.38369 0.53513 0.0
H1546 H 0.28859 0.4264 0.53105 0.0
H1547 H 0.28977 0.39913 0.56063 0.0
C1548 C 0.27616 0.44493 0.59448 0.0
N1549 N 0.28895 0.44227 0.58771 0.0
C1550 C 0.27726 0.44278 0.60561 0.0
C1551 C 0.30392 0.43418 0.60252 0.0
C1552 C 0.30226 0.43644 0.59146 0.0
C1553 C 0.29165 0.43783 0.60979 0.0
H1554 H 0.26544 0.44915 0.59127 0.0
H1555 H 0.31203 0.43413 0.58587 0.0
O1556 O 0.29622 0.4607 0.5454 0.0
O1557 O 0.29564 0.47661 0.56907 0.0
O1558 O 0.26556 0.43043 0.56368 0.0
O1559 O 0.31256 0.44783 0.5647 0.0
H1560 H 0.31497 0.4985 0.53706 0.0
H1561 H 0.26176 0.43701 0.53441 0.0
H1562 H 0.30196 0.50924 0.52146 0.0
H1563 H 0.24958 0.44888 0.51891 0.0
H1564 H 0.25213 0.49778 0.58153 0.0
H1565 H 0.31515 0.51454 0.56078 0.0
H1566 H 0.26236 0.47121 0.57961 0.0
H1567 H 0.30404 0.54036 0.56308 0.0
H1568 H 0.25028 0.50333 0.54419 0.0
H1569 H 0.20369 0.4433 0.55637 0.0
H1570 H 0.378 0.52036 0.53812 0.0
H1571 H 0.37438 0.53731 0.57118 0.0
H1572 H 0.26337 0.4034 0.57813 0.0
H1573 H 0.24125 0.40989 0.54721 0.0
H1574 H 0.24232 0.36515 0.57607 0.0
H1575 H 0.22069 0.37152 0.54565 0.0
H1576 H 0.3303 0.44203 0.54754 0.0
H1577 H 0.34133 0.46817 0.57955 0.0
H1578 H 0.36779 0.45423 0.5459 0.0
H1579 H 0.37866 0.47994 0.57733 0.0
H1580 H 0.2922 0.40026 0.52083 0.0
H1581 H 0.29249 0.3717 0.55111 0.0
H1582 H 0.2672 0.44532 0.61091 0.0
H1583 H 0.31532 0.43047 0.60536 0.0
C1584 C 0.3802 0.3459 0.19919 0.0
C1585 C 0.40001 0.36247 0.19654 0.0
C1586 C 0.3631 0.34136 0.19281 0.0
C1587 C 0.35016 0.3465 0.16499 0.0
H1588 H 0.29484 0.32336 0.17699 0.0
C1589 C 0.27722 0.31058 0.13802 0.0
C1590 C 0.26185 0.29059 0.14125 0.0
C1591 C 0.29353 0.32322 0.14497 0.0
C1592 C 0.3102 0.32985 0.17353 0.0
H1593 H 0.4172 0.38784 0.18536 0.0
H1594 H 0.3872 0.37985 0.17416 0.0
H1595 H 0.32482 0.33925 0.18898 0.0
H1596 H 0.25089 0.26852 0.15442 0.0
H1597 H 0.27935 0.29048 0.16653 0.0
H1598 H 0.33548 0.33655 0.14958 0.0
C1599 C 0.38502 0.37025 0.18113 0.0
C1600 C 0.32736 0.33892 0.18038 0.0
C1601 C 0.40218 0.37481 0.18754 0.0
C1602 C 0.26266 0.28378 0.15169 0.0
C1603 C 0.27882 0.29645 0.15866 0.0
C1604 C 0.33299 0.3375 0.15813 0.0
C1605 C 0.36535 0.35326 0.18361 0.0
C1606 C 0.34749 0.34677 0.17623 0.0
C1607 C 0.29461 0.31617 0.15532 0.0
C1608 C 0.31281 0.32853 0.16237 0.0
H1609 H 0.37801 0.33582 0.20594 0.0
H1610 H 0.34827 0.32791 0.19484 0.0
H1611 H 0.36542 0.3522 0.16153 0.0
H1612 H 0.27701 0.31617 0.12999 0.0
H1613 H 0.30544 0.33839 0.14221 0.0
C1614 C 0.70286 0.00419 0.12372 0.0
C1615 C 0.70557 0.98834 0.12797 0.0
C1616 C 0.6903 0.01024 0.12901 0.0
C1617 C 0.65055 0.99587 0.15043 0.0
H1618 H 0.6767 0.05549 0.15375 0.0
C1619 C 0.62918 0.03597 0.18389 0.0
C1620 C 0.63118 0.05524 0.18154 0.0
C1621 C 0.63444 0.02578 0.17614 0.0
C1622 C 0.66891 0.03882 0.15274 0.0
H1623 H 0.69627 0.96565 0.14081 0.0
H1624 H 0.67476 0.97666 0.15023 0.0
H1625 H 0.69289 0.04126 0.14238 0.0
H1626 H 0.63854 0.07818 0.16907 0.0
H1627 H 0.64737 0.06026 0.15546 0.0
H1628 H 0.6268 0.99355 0.16107 0.0
C1629 C 0.6822 0.98424 0.14273 0.0
C1630 C 0.67823 0.03064 0.14622 0.0
C1631 C 0.69474 0.97812 0.13741 0.0
C1632 C 0.63723 0.06351 0.17112 0.0
C1633 C 0.64232 0.05327 0.16336 0.0
C1634 C 0.64117 0.00408 0.15698 0.0
C1635 C 0.68026 0.0007 0.13872 0.0
C1636 C 0.66929 0.00909 0.14506 0.0
C1637 C 0.64166 0.03465 0.16589 0.0
C1638 C 0.65038 0.02566 0.15828 0.0
H1639 H 0.7111 0.01256 0.11654 0.0
H1640 H 0.68887 0.02279 0.12564 0.0
H1641 H 0.64321 0.97919 0.14962 0.0
H1642 H 0.62464 0.02933 0.19189 0.0
H1643 H 0.63392 0.01155 0.17838 0.0
C1644 C 0.95853 0.60604 0.19132 0.0
C1645 C 0.94033 0.58796 0.18813 0.0
C1646 C 0.96866 0.62275 0.18421 0.0
C1647 C 0.95588 0.64459 0.16109 0.0
H1648 H 0.01513 0.68338 0.15995 0.0
C1649 C 0.98932 0.71483 0.13314 0.0
C1650 C 0.00364 0.73397 0.13779 0.0
C1651 C 0.9839 0.69633 0.1384 0.0
C1652 C -0.00145 0.6727 0.16023 0.0
H1653 H 0.9194 0.57237 0.17479 0.0
H1654 H 0.93731 0.60131 0.16229 0.0
H1655 H 0.00171 0.65154 0.17056 0.0
H1656 H 0.02418 0.74879 0.15137 0.0
H1657 H 0.01451 0.71631 0.16068 0.0
H1658 H 0.95258 0.66574 0.15098 0.0
C1659 C 0.94344 0.60289 0.17036 0.0
C1660 C 0.99087 0.65449 0.16629 0.0
C1661 C 0.93323 0.5863 0.17749 0.0
C1662 C 0.01313 0.73423 0.1476 0.0
C1663 C 0.00764 0.71566 0.1529 0.0
C1664 C 0.96353 0.66268 0.15504 0.0
C1665 C 0.96082 0.62158 0.17376 0.0
C1666 C 0.96942 0.64028 0.16682 0.0
C1667 C 0.99263 0.69654 0.14845 0.0
C1668 C 0.98492 0.67698 0.15457 0.0
H1669 H 0.96423 0.60773 0.1995 0.0
H1670 H 0.98192 0.63696 0.18711 0.0
H1671 H 0.93924 0.63429 0.16154 0.0
H1672 H 0.98212 0.71416 0.12546 0.0
H1673 H 0.97262 0.68183 0.13466 0.0
C1674 C 0.38077 0.40104 0.80942 0.0
C1675 C 0.36889 0.39879 0.80019 0.0
C1676 C 0.37598 0.38392 0.8159 0.0
C1677 C 0.34563 0.32646 0.81691 0.0
H1678 H 0.33783 0.33484 0.84709 0.0
C1679 C 0.28827 0.26057 0.84448 0.0
C1680 C 0.29275 0.26109 0.85552 0.0
C1681 C 0.30164 0.27676 0.83768 0.0
C1682 C 0.34033 0.33225 0.83875 0.0
H1683 H 0.34305 0.37655 0.79039 0.0
H1684 H 0.33497 0.34681 0.80157 0.0
H1685 H 0.35469 0.36454 0.83506 0.0
H1686 H 0.31518 0.2787 0.86801 0.0
H1687 H 0.33876 0.30679 0.85609 0.0
H1688 H 0.33071 0.29407 0.82055 0.0
C1689 C 0.34811 0.36176 0.80374 0.0
C1690 C 0.35001 0.3493 0.83185 0.0
C1691 C 0.35278 0.37886 0.79732 0.0
C1692 C 0.31133 0.27778 0.85953 0.0
C1693 C 0.32474 0.29397 0.85272 0.0
C1694 C 0.33603 0.3094 0.82383 0.0
C1695 C 0.35932 0.36418 0.81324 0.0
C1696 C 0.35222 0.34652 0.8208 0.0
C1697 C 0.31986 0.29383 0.84176 0.0
C1698 C 0.33273 0.31204 0.83476 0.0
H1699 H 0.3935 0.41612 0.81176 0.0
H1700 H 0.38503 0.38618 0.82312 0.0
H1701 H 0.3474 0.3239 0.80846 0.0
H1702 H 0.27424 0.24778 0.8411 0.0
H1703 H 0.29727 0.27624 0.82931 0.0
C1704 C 0.73677 0.01526 0.84737 0.0
C1705 C 0.73595 0.00787 0.85789 0.0
C1706 C 0.71847 0.01003 0.84186 0.0
C1707 C 0.66427 0.9686 0.84111 0.0
H1708 H 0.65613 0.00582 0.82284 0.0
C1709 C 0.58818 0.93861 0.81841 0.0
C1710 C 0.58992 0.9442 0.8075 0.0
C1711 C 0.60506 0.94914 0.82534 0.0
C1712 C 0.65823 0.99523 0.82787 0.0
H1713 H 0.71547 0.99048 0.87114 0.0
H1714 H 0.68364 0.98129 0.86151 0.0
H1715 H 0.68799 0.01929 0.83342 0.0
H1716 H 0.6102 0.96572 0.79532 0.0
H1717 H 0.63997 0.98388 0.80734 0.0
H1718 H 0.63507 0.94442 0.83538 0.0
C1719 C 0.69835 0.99076 0.85745 0.0
C1720 C 0.67645 0.00295 0.83392 0.0
C1721 C 0.71657 0.99598 0.86295 0.0
C1722 C 0.60847 0.96122 0.80374 0.0
C1723 C 0.62548 0.97163 0.81064 0.0
C1724 C 0.64621 0.96089 0.83504 0.0
C1725 C 0.69908 0.99734 0.84677 0.0
C1726 C 0.67962 0.98966 0.84058 0.0
C1727 C 0.62414 0.96528 0.82144 0.0
C1728 C 0.64295 0.97407 0.82832 0.0
H1729 H 0.75148 0.02437 0.84326 0.0
H1730 H 0.71947 0.01519 0.8336 0.0
H1731 H 0.66647 0.9579 0.84599 0.0
H1732 H 0.57391 0.92569 0.82152 0.0
H1733 H 0.60333 0.94421 0.83367 0.0
C1734 C 0.02904 0.63007 0.80576 0.0
C1735 C 0.04758 0.6322 0.80971 0.0
C1736 C 0.01653 0.63427 0.81245 0.0
C1737 C 0.00586 0.64162 0.84072 0.0
H1738 H 0.99621 0.68387 0.82891 0.0
C1739 C 0.99265 0.69679 0.86746 0.0
C1740 C 0.98116 0.70534 0.86341 0.0
C1741 C 0.99614 0.68343 0.86109 0.0
C1742 C -0.00178 0.67169 0.8323 0.0
H1743 H 0.067 0.63909 0.82384 0.0
H1744 H 0.04508 0.64632 0.83556 0.0
H1745 H 0.01027 0.66764 0.8174 0.0
H1746 H 0.96307 0.70564 0.8499 0.0
H1747 H 0.96847 0.68168 0.83886 0.0
H1748 H 0.99403 0.64581 0.85567 0.0
C1749 C 0.04023 0.64146 0.82731 0.0
C1750 C 0.00636 0.66244 0.82568 0.0
C1751 C 0.05285 0.63752 0.82059 0.0
C1752 C 0.97223 0.69942 0.85312 0.0
C1753 C 0.97542 0.68579 0.84681 0.0
C1754 C 0.99743 0.65069 0.84733 0.0
C1755 C 0.02223 0.64039 0.82323 0.0
C1756 C 0.01075 0.64772 0.82989 0.0
C1757 C 0.98795 0.67812 0.85058 0.0
C1758 C 0.99405 0.66626 0.84327 0.0
H1759 H 0.02468 0.62608 0.79738 0.0
H1760 H 0.00268 0.63326 0.80913 0.0
H1761 H 0.00893 0.63014 0.84412 0.0
H1762 H -0.00017 0.70127 0.87535 0.0
H1763 H 0.00611 0.67812 0.86423 0.0
C1764 C 0.93146 0.59862 0.48271 0.0
C1765 C 0.92007 0.60723 0.47856 0.0
C1766 C 0.9481 0.61005 0.48964 0.0
C1767 C 0.9863 0.66322 0.49793 0.0
H1768 H 0.99423 0.63447 0.52173 0.0
C1769 C 0.06466 0.69321 0.51965 0.0
C1770 C 0.06452 0.68822 0.5306 0.0
C1771 C 0.04607 0.68603 0.51403 0.0
C1772 C 0.99214 0.64291 0.51525 0.0
H1773 H 0.91722 0.63464 0.4784 0.0
H1774 H 0.94642 0.65471 0.49062 0.0
H1775 H 0.96325 0.61646 0.51076 0.0
H1776 H 0.04449 0.67256 0.54434 0.0
H1777 H 0.01232 0.66096 0.53471 0.0
H1778 H 0.01526 0.68975 0.50251 0.0
C1779 C 0.94249 0.63912 0.48841 0.0
C1780 C 0.97448 0.63245 0.50886 0.0
C1781 C 0.92579 0.62764 0.48144 0.0
C1782 C 0.04533 0.67693 0.53595 0.0
C1783 C 0.02679 0.66997 0.53037 0.0
C1784 C 0.00401 0.67375 0.50438 0.0
C1785 C 0.95376 0.63039 0.49262 0.0
C1786 C 0.97156 0.64232 0.49999 0.0
C1787 C 0.02692 0.67383 0.51927 0.0
C1788 C 0.00728 0.66359 0.51301 0.0
H1789 H 0.92778 0.58312 0.48044 0.0
H1790 H 0.95676 0.60304 0.49252 0.0
H1791 H 0.98453 0.67122 0.49113 0.0
H1792 H 0.07915 0.70219 0.51532 0.0
H1793 H 0.04677 0.68924 0.50547 0.0
C1794 C 0.28958 0.36195 0.5189 0.0
C1795 C 0.29779 0.36956 0.52921 0.0
C1796 C 0.29672 0.35111 0.51275 0.0
C1797 C 0.3437 0.34785 0.50985 0.0
H1798 H 0.31063 0.30363 0.48959 0.0
C1799 C 0.38084 0.32945 0.47442 0.0
C1800 C 0.37391 0.30856 0.47206 0.0
C1801 C 0.37022 0.33473 0.48182 0.0
C1802 C 0.32001 0.31582 0.49529 0.0
H1803 H 0.31927 0.37079 0.54134 0.0
H1804 H 0.33113 0.35136 0.5308 0.0
H1805 H 0.29353 0.31539 0.50227 0.0
H1806 H 0.35019 0.2768 0.47552 0.0
H1807 H 0.33161 0.2861 0.48861 0.0
H1808 H 0.37014 0.34838 0.50292 0.0
C1809 C 0.31947 0.35413 0.52737 0.0
C1810 C 0.31026 0.32267 0.50248 0.0
C1811 C 0.31243 0.36504 0.53348 0.0
C1812 C 0.35596 0.29303 0.47723 0.0
C1813 C 0.34524 0.29834 0.48464 0.0
C1814 C 0.35341 0.34104 0.50269 0.0
C1815 C 0.31218 0.3476 0.51681 0.0
C1816 C 0.32205 0.33894 0.50976 0.0
C1817 C 0.35242 0.31927 0.48709 0.0
C1818 C 0.34173 0.32521 0.49521 0.0
H1819 H 0.27804 0.36486 0.51544 0.0
H1820 H 0.29084 0.34637 0.50464 0.0
H1821 H 0.3533 0.36059 0.51523 0.0
H1822 H 0.39478 0.34179 0.47071 0.0
H1823 H 0.37597 0.351 0.48342 0.0
C1824 C 0.66723 0.06962 0.48211 0.0
C1825 C 0.6803 0.07213 0.47339 0.0
C1826 C 0.66152 0.05354 0.48945 0.0
C1827 C 0.67279 0.01318 0.49878 0.0
H1828 H 0.61452 0.98484 0.50658 0.0
C1829 C 0.62748 0.9318 0.5191 0.0
C1830 C 0.61373 0.92975 0.52742 0.0
C1831 C 0.63785 0.95015 0.51312 0.0
C1832 C 0.63087 0.99272 0.50458 0.0
H1833 H 0.69841 0.06052 0.46568 0.0
H1834 H 0.68798 0.03189 0.47839 0.0
H1835 H 0.62872 0.01528 0.49513 0.0
H1836 H 0.60032 0.94541 0.5361 0.0
H1837 H 0.6185 0.97733 0.52576 0.0
H1838 H 0.67458 0.99002 0.5081 0.0
C1839 C 0.68241 0.04255 0.47967 0.0
C1840 C 0.63906 0.01023 0.49804 0.0
C1841 C 0.68834 0.05886 0.47238 0.0
C1842 C 0.61099 0.94656 0.52983 0.0
C1843 C 0.62123 0.96478 0.52384 0.0
C1844 C 0.66451 0.99548 0.50529 0.0
C1845 C 0.6685 0.03942 0.48813 0.0
C1846 C 0.66014 0.0208 0.49513 0.0
C1847 C 0.63445 0.96663 0.5153 0.0
C1848 C 0.6435 0.98522 0.50831 0.0
H1849 H 0.66113 0.07992 0.48313 0.0
H1850 H 0.65125 0.05192 0.49604 0.0
H1851 H 0.68911 0.02104 0.49672 0.0
H1852 H 0.63 0.91914 0.51713 0.0
H1853 H 0.64791 0.95117 0.50654 0.0
C1854 C 0.05593 0.18837 0.11765 0.0
C1855 C 0.06752 0.19285 0.10803 0.0
C1856 C 0.03424 0.1777 0.1174 0.0
C1857 C 0.99114 0.14257 0.09923 0.0
H1858 H 0.95689 0.14747 0.12125 0.0
C1859 C 0.90263 0.09385 0.0974 0.0
C1860 C 0.89352 0.08144 0.10658 0.0
C1861 C 0.92301 0.11044 0.0977 0.0
C1862 C 0.96632 0.14603 0.11505 0.0
H1863 H 0.06495 0.19034 0.09053 0.0
H1864 H 0.02762 0.17335 0.0901 0.0
H1865 H 0.99438 0.17163 0.12124 0.0
H1866 H 0.8984 0.07766 0.12349 0.0
H1867 H 0.93391 0.10701 0.12405 0.0
H1868 H 0.96308 0.11714 0.093 0.0
C1869 C 0.03519 0.17727 0.09789 0.0
C1870 C 0.9878 0.15975 0.11506 0.0
C1871 C 0.0568 0.18749 0.09814 0.0
C1872 C 0.90484 0.08694 0.11629 0.0
C1873 C 0.9252 0.10373 0.11662 0.0
C1874 C 0.96973 0.12916 0.09912 0.0
C1875 C 0.02356 0.17157 0.10752 0.0
C1876 C 0.00053 0.15806 0.1072 0.0
C1877 C 0.93466 0.1152 0.10724 0.0
C1878 C 0.95714 0.1306 0.10707 0.0
H1879 H 0.06355 0.19263 0.12543 0.0
H1880 H 0.02592 0.17357 0.125 0.0
H1881 H 0.00034 0.14028 0.09322 0.0
H1882 H 0.89419 0.09041 0.08987 0.0
H1883 H 0.92989 0.11925 0.0904 0.0
C1884 C 0.8196 0.88854 0.12194 0.0
C1885 C 0.80958 0.89033 0.11279 0.0
C1886 C 0.82818 0.87577 0.12174 0.0
C1887 C 0.85135 0.85712 0.10215 0.0
H1888 H 0.85604 0.82776 0.12669 0.0
C1889 C 0.90661 0.82519 0.10077 0.0
C1890 C 0.91918 0.82943 0.10992 0.0
C1891 C 0.88929 0.82758 0.10113 0.0
C1892 C 0.85491 0.83594 0.11978 0.0
H1893 H 0.7996 0.87918 0.09648 0.0
H1894 H 0.81435 0.85666 0.09616 0.0
H1895 H 0.83179 0.84052 0.12742 0.0
H1896 H 0.92314 0.83886 0.12672 0.0
H1897 H 0.89318 0.84345 0.12733 0.0
H1898 H 0.87501 0.85346 0.09466 0.0
C1899 C 0.81576 0.86531 0.10346 0.0
C1900 C 0.84099 0.84319 0.12019 0.0
C1901 C 0.80712 0.87805 0.10368 0.0
C1902 C 0.91364 0.83533 0.11956 0.0
C1903 C 0.8964 0.83788 0.11991 0.0
C1904 C 0.86529 0.84997 0.10176 0.0
C1905 C 0.82697 0.86457 0.11236 0.0
C1906 C 0.83938 0.85423 0.11146 0.0
C1907 C 0.88426 0.83444 0.11064 0.0
C1908 C 0.86758 0.83968 0.11065 0.0
H1909 H 0.82153 0.89767 0.12912 0.0
H1910 H 0.83682 0.87565 0.1287 0.0
H1911 H 0.85076 0.86588 0.09536 0.0
H1912 H 0.91031 0.82025 0.09327 0.0
H1913 H 0.88005 0.82441 0.09391 0.0
C1914 C 0.16942 0.09761 0.10414 0.0
C1915 C 0.17 0.10975 0.11297 0.0
C1916 C 0.16601 0.07765 0.10572 0.0
C1917 C 0.14143 0.03481 0.12511 0.0
H1918 H 0.16453 0.01001 0.10632 0.0
C1919 C 0.11283 0.94754 0.127 0.0
C1920 C 0.10718 0.93748 0.11691 0.0
C1921 C 0.12477 0.96917 0.12762 0.0
C1922 C 0.15798 0.01674 0.11164 0.0
H1923 H 0.1683 0.11073 0.13043 0.0
H1924 H 0.16277 0.07602 0.13321 0.0
H1925 H 0.17804 0.04733 0.10551 0.0
H1926 H 0.1103 0.94233 0.09957 0.0
H1927 H 0.13121 0.9799 0.10067 0.0
H1928 H 0.12101 0.00419 0.13103 0.0
C1929 C 0.16463 0.08184 0.12504 0.0
C1930 C 0.16568 0.03809 0.11117 0.0
C1931 C 0.16801 0.10182 0.12346 0.0
C1932 C 0.1146 0.9495 0.10748 0.0
C1933 C 0.1266 0.97109 0.1081 0.0
C1934 C 0.1338 0.01349 0.12561 0.0
C1935 C 0.16318 0.06937 0.11618 0.0
C1936 C 0.15712 0.04729 0.1177 0.0
C1937 C 0.1314 0.98119 0.11817 0.0
C1938 C 0.14163 0.00414 0.11869 0.0
H1939 H 0.17125 0.10339 0.09596 0.0
H1940 H 0.1648 0.06844 0.0987 0.0
H1941 H 0.13427 0.04129 0.13015 0.0
H1942 H 0.10766 0.93873 0.13442 0.0
H1943 H 0.12847 0.97652 0.13549 0.0
C1944 C 0.0803 0.9039 0.8741 0.0
C1945 C 0.07699 0.89501 0.88443 0.0
C1946 C 0.09668 0.92406 0.87224 0.0
C1947 C 0.14472 0.96759 0.88467 0.0
H1948 H 0.12947 0.0017 0.86815 0.0
C1949 C 0.18041 0.05553 0.89075 0.0
C1950 C 0.18381 0.06807 0.88165 0.0
C1951 C 0.17125 0.03407 0.88966 0.0
C1952 C 0.13415 0.99234 0.87262 0.0
H1953 H 0.08925 0.89991 0.90071 0.0
H1954 H 0.1171 0.93523 0.89763 0.0
H1955 H 0.10609 0.9644 0.86876 0.0
H1956 H 0.18148 0.06789 0.86417 0.0
H1957 H 0.16499 0.03029 0.86234 0.0
H1958 H 0.17231 0.99591 0.889 0.0
C1959 C 0.10728 0.92661 0.89089 0.0
C1960 C 0.12076 0.9709 0.87295 0.0
C1961 C 0.09104 0.90641 0.89271 0.0
C1962 C 0.17868 0.05867 0.87138 0.0
C1963 C 0.16934 0.03717 0.87031 0.0
C1964 C 0.15802 0.98909 0.88443 0.0
C1965 C 0.11005 0.93589 0.88069 0.0
C1966 C 0.12564 0.95827 0.87918 0.0
C1967 C 0.16513 0.02462 0.87947 0.0
C1968 C 0.15264 0.00171 0.87858 0.0
H1969 H 0.06976 0.89562 0.86753 0.0
H1970 H 0.09855 0.93056 0.86423 0.0
H1971 H 0.14919 0.95832 0.88937 0.0
H1972 H 0.18385 0.06213 0.8988 0.0
H1973 H 0.16797 0.02476 0.89688 0.0
C1974 C 0.10147 0.17382 0.87369 0.0
C1975 C 0.11093 0.17994 0.88389 0.0
C1976 C 0.08128 0.16978 0.87211 0.0
C1977 C 0.03826 0.17397 0.88513 0.0
H1978 H 0.00383 0.1245 0.8682 0.0
C1979 C 0.94952 0.12134 0.89009 0.0
C1980 C 0.93753 0.11254 0.88075 0.0
C1981 C 0.97109 0.13374 0.88939 0.0
C1982 C 0.01327 0.13856 0.8728 0.0
H1983 H 0.10692 0.18803 0.90021 0.0
H1984 H 0.07147 0.17994 0.89763 0.0
H1985 H 0.04098 0.13847 0.86889 0.0
H1986 H 0.93876 0.11121 0.86327 0.0
H1987 H 0.97647 0.13247 0.86209 0.0
H1988 H 0.01007 0.17316 0.88947 0.0
C1989 C 0.07971 0.17856 0.89077 0.0
C1990 C 0.03465 0.14665 0.87318 0.0
C1991 C 0.1 0.18287 0.89231 0.0
C1992 C 0.94755 0.11735 0.87065 0.0
C1993 C 0.96913 0.12959 0.86996 0.0
C1994 C 0.01678 0.16568 0.88485 0.0
C1995 C 0.06989 0.17147 0.88072 0.0
C1996 C 0.04743 0.16429 0.87948 0.0
C1997 C 0.98114 0.13747 0.87934 0.0
C1998 C 0.00406 0.14773 0.8788 0.0
H1999 H 0.10928 0.17127 0.86701 0.0
H2000 H 0.07442 0.16481 0.86419 0.0
H2001 H 0.04761 0.18778 0.8899 0.0
H2002 H 0.9424 0.11779 0.89802 0.0
H2003 H 0.97998 0.13944 0.89677 0.0
C2004 C 0.88229 0.81377 0.89958 0.0
C2005 C 0.88946 0.80998 0.88981 0.0
C2006 C 0.87059 0.82351 0.89962 0.0
C2007 C 0.84308 0.84229 0.88199 0.0
H2008 H 0.8613 0.88499 0.90399 0.0
C2009 C 0.8354 0.91542 0.87911 0.0
C2010 C 0.83093 0.9226 0.88867 0.0
C2011 C 0.83816 0.89829 0.87931 0.0
C2012 C 0.85575 0.87292 0.8979 0.0
H2013 H 0.88841 0.81202 0.87237 0.0
H2014 H 0.86897 0.82997 0.87247 0.0
H2015 H 0.87384 0.86087 0.90431 0.0
H2016 H 0.82425 0.91649 0.90576 0.0
H2017 H 0.82928 0.88677 0.90613 0.0
H2018 H 0.82571 0.85525 0.87533 0.0
C2019 C 0.87213 0.82515 0.88011 0.0
C2020 C 0.86289 0.85899 0.89809 0.0
C2021 C 0.88358 0.81512 0.88006 0.0
C2022 C 0.82819 0.91164 0.89831 0.0
C2023 C 0.83099 0.89459 0.89852 0.0
C2024 C 0.83606 0.85642 0.88174 0.0
C2025 C 0.86604 0.83005 0.88991 0.0
C2026 C 0.85682 0.84359 0.8901 0.0
C2027 C 0.83654 0.88807 0.88908 0.0
C2028 C 0.84248 0.87198 0.88965 0.0
H2029 H 0.88655 0.81023 0.90728 0.0
H2030 H 0.86573 0.82657 0.90731 0.0
H2031 H 0.83789 0.83048 0.87577 0.0
H2032 H 0.83772 0.9236 0.87156 0.0
H2033 H 0.84259 0.89371 0.87193 0.0
C2034 C 0.71454 0.50426 0.4525 0.0
C2035 C 0.72653 0.51215 0.44306 0.0
C2036 C 0.69295 0.49456 0.45209 0.0
C2037 C 0.65089 0.46615 0.43255 0.0
H2038 H 0.61614 0.46326 0.45658 0.0
C2039 C 0.56268 0.41076 0.43179 0.0
C2040 C 0.55459 0.39805 0.44096 0.0
C2041 C 0.58262 0.42815 0.43194 0.0
C2042 C 0.62567 0.46396 0.4498 0.0
H2043 H 0.72521 0.5173 0.42592 0.0
H2044 H 0.68767 0.50117 0.4253 0.0
H2045 H 0.65327 0.48867 0.45692 0.0
H2046 H 0.56093 0.39411 0.45759 0.0
H2047 H 0.59569 0.42454 0.45785 0.0
H2048 H 0.62343 0.44123 0.42553 0.0
C2049 C 0.69493 0.50194 0.43297 0.0
C2050 C 0.64693 0.47847 0.45 0.0
C2051 C 0.71651 0.51147 0.43336 0.0
C2052 C 0.56658 0.40366 0.45042 0.0
C2053 C 0.58651 0.42112 0.45058 0.0
C2054 C 0.62967 0.45179 0.43233 0.0
C2055 C 0.68283 0.49271 0.44225 0.0
C2056 C 0.65988 0.47941 0.44148 0.0
C2057 C 0.59489 0.4333 0.44127 0.0
C2058 C 0.6169 0.45023 0.44105 0.0
H2059 H 0.72178 0.5049 0.46016 0.0
H2060 H 0.6842 0.48758 0.45939 0.0
H2061 H 0.66037 0.46611 0.42594 0.0
H2062 H 0.55367 0.40714 0.42445 0.0
H2063 H 0.58858 0.43743 0.42469 0.0
C2064 C 0.48349 0.20728 0.43808 0.0
C2065 C 0.47777 0.21363 0.44753 0.0
C2066 C 0.49487 0.19723 0.43867 0.0
C2067 C 0.51385 0.17009 0.44225 0.0
H2068 H 0.56145 0.19812 0.4612 0.0
C2069 C 0.57707 0.14726 0.44512 0.0
C2070 C 0.59759 0.16402 0.44448 0.0
C2071 C 0.56055 0.15076 0.44655 0.0
C2072 C 0.5482 0.19009 0.4559 0.0
H2073 H 0.47821 0.213 0.46503 0.0
H2074 H 0.49824 0.19556 0.46606 0.0
H2075 H 0.53478 0.20761 0.46168 0.0
H2076 H 0.61671 0.1976 0.44473 0.0
H2077 H 0.58799 0.20362 0.44739 0.0
H2078 H 0.52776 0.15311 0.4362 0.0
C2079 C 0.49415 0.19866 0.45819 0.0
C2080 C 0.5328 0.19536 0.45625 0.0
C2081 C 0.4827 0.20865 0.4576 0.0
C2082 C 0.60118 0.18431 0.44541 0.0
C2083 C 0.58471 0.18778 0.44692 0.0
C2084 C 0.52922 0.16472 0.44194 0.0
C2085 C 0.50085 0.19336 0.44873 0.0
C2086 C 0.51567 0.18573 0.44927 0.0
C2087 C 0.56421 0.17106 0.44745 0.0
C2088 C 0.54679 0.17503 0.44859 0.0
H2089 H 0.4802 0.2111 0.43019 0.0
H2090 H 0.49999 0.19356 0.43123 0.0
H2091 H 0.50074 0.1623 0.43684 0.0
H2092 H 0.57376 0.13142 0.44458 0.0
H2093 H 0.54491 0.13758 0.44701 0.0
C2094 C 0.83133 0.42514 0.45513 0.0
C2095 C 0.83771 0.43552 0.44517 0.0
C2096 C 0.82857 0.40534 0.45635 0.0
C2097 C 0.83707 0.36549 0.44265 0.0
H2098 H 0.78769 0.32737 0.45871 0.0
C2099 C 0.78833 0.27708 0.43543 0.0
C2100 C 0.77982 0.26404 0.44446 0.0
C2101 C 0.79995 0.2986 0.43671 0.0
C2102 C 0.80174 0.33787 0.45436 0.0
H2103 H 0.84746 0.43357 0.42888 0.0
H2104 H 0.84145 0.39871 0.4308 0.0
H2105 H 0.79932 0.36409 0.45879 0.0
H2106 H 0.77839 0.26344 0.46198 0.0
H2107 H 0.7982 0.30107 0.46415 0.0
H2108 H 0.83852 0.33874 0.43771 0.0
C2109 C 0.83896 0.40596 0.43777 0.0
C2110 C 0.8085 0.359 0.45442 0.0
C2111 C 0.84205 0.4259 0.4366 0.0
C2112 C 0.78427 0.27302 0.45483 0.0
C2113 C 0.7957 0.29455 0.4561 0.0
C2114 C 0.83011 0.34425 0.44246 0.0
C2115 C 0.83176 0.39523 0.44759 0.0
C2116 C 0.82606 0.37309 0.44842 0.0
C2117 C 0.80317 0.30754 0.44703 0.0
C2118 C 0.81219 0.33023 0.44819 0.0
H2119 H 0.8277 0.43191 0.46191 0.0
H2120 H 0.82346 0.39778 0.46411 0.0
H2121 H 0.85089 0.37588 0.43811 0.0
H2122 H 0.78505 0.27079 0.42732 0.0
H2123 H 0.80536 0.30827 0.42957 0.0
C2124 C 0.74348 0.2356 0.22724 0.0
C2125 C 0.72978 0.22582 0.21857 0.0
C2126 C 0.76027 0.2558 0.22621 0.0
C2127 C 0.77608 0.30278 0.20998 0.0
H2128 H 0.82677 0.32461 0.22659 0.0
C2129 C 0.83617 0.38951 0.20967 0.0
C2130 C 0.84137 0.39853 0.22002 0.0
C2131 C 0.82641 0.36804 0.2084 0.0
C2132 C 0.81271 0.31868 0.22188 0.0
H2133 H 0.7239 0.22936 0.20178 0.0
H2134 H 0.75368 0.26408 0.19985 0.0
H2135 H 0.80255 0.28718 0.22601 0.0
H2136 H 0.84154 0.39209 0.23707 0.0
H2137 H 0.82467 0.35457 0.23482 0.0
H2138 H 0.7861 0.33423 0.20595 0.0
C2139 C 0.75106 0.25639 0.20757 0.0
C2140 C 0.79878 0.29727 0.22158 0.0
C2141 C 0.7341 0.23629 0.20864 0.0
C2142 C 0.83788 0.38568 0.22899 0.0
C2143 C 0.8282 0.36417 0.2277 0.0
C2144 C 0.79007 0.32409 0.21018 0.0
C2145 C 0.76398 0.26666 0.21644 0.0
C2146 C 0.78007 0.28908 0.21579 0.0
C2147 C 0.82177 0.35511 0.21743 0.0
C2148 C 0.80834 0.33231 0.2163 0.0
H2149 H 0.74096 0.22785 0.23493 0.0
H2150 H 0.76977 0.26317 0.23325 0.0
H2151 H 0.76169 0.2972 0.20562 0.0
H2152 H 0.83907 0.39903 0.20258 0.0
H2153 H 0.82192 0.36149 0.20037 0.0
C2154 C 0.75718 0.50355 0.21425 0.0
C2155 C 0.7694 0.51265 0.22348 0.0
C2156 C 0.73729 0.50076 0.21356 0.0
C2157 C 0.69483 0.49272 0.23131 0.0
H2158 H 0.66926 0.49542 0.20467 0.0
C2159 C 0.60713 0.46026 0.22939 0.0
C2160 C 0.59724 0.44705 0.22056 0.0
C2161 C 0.62865 0.47348 0.22942 0.0
C2162 C 0.67617 0.49457 0.21217 0.0
H2163 H 0.77092 0.52733 0.23886 0.0
H2164 H 0.73614 0.52235 0.23766 0.0
H2165 H 0.70667 0.5093 0.20526 0.0
H2166 H 0.602 0.43855 0.2045 0.0
H2167 H 0.63948 0.46105 0.20467 0.0
H2168 H 0.66441 0.47719 0.23813 0.0
C2169 C 0.74182 0.51706 0.23105 0.0
C2170 C 0.69759 0.50253 0.2125 0.0
C2171 C 0.76171 0.51987 0.23174 0.0
C2172 C 0.6092 0.44827 0.21151 0.0
C2173 C 0.63069 0.4614 0.21155 0.0
C2174 C 0.67346 0.48469 0.23097 0.0
C2175 C 0.7292 0.50702 0.22207 0.0
C2176 C 0.70707 0.50126 0.22201 0.0
C2177 C 0.64075 0.47373 0.22063 0.0
C2178 C 0.66378 0.48506 0.22133 0.0
H2179 H 0.76254 0.49763 0.20779 0.0
H2180 H 0.72788 0.49274 0.20659 0.0
H2181 H 0.70159 0.49121 0.23872 0.0
H2182 H 0.59841 0.45968 0.23651 0.0
H2183 H 0.63588 0.48303 0.23648 0.0
C2184 C 0.47283 0.24174 0.22527 0.0
C2185 C 0.47747 0.25626 0.21697 0.0
C2186 C 0.47626 0.2252 0.22383 0.0
C2187 C 0.50908 0.21197 0.20732 0.0
H2188 H 0.47998 0.16008 0.22303 0.0
C2189 C 0.53775 0.15427 0.2062 0.0
C2190 C 0.5414 0.14888 0.21649 0.0
C2191 C 0.52555 0.16333 0.20503 0.0
C2192 C 0.48818 0.17448 0.21857 0.0
H2193 H 0.48793 0.26374 0.20035 0.0
H2194 H 0.49282 0.23436 0.19766 0.0
H2195 H 0.46596 0.18331 0.22279 0.0
H2196 H 0.53398 0.14759 0.23352 0.0
H2197 H 0.51246 0.16323 0.23144 0.0
H2198 H 0.53137 0.20327 0.2032 0.0
C2199 C 0.48725 0.23618 0.20544 0.0
C2200 C 0.48023 0.18784 0.21846 0.0
C2201 C 0.48413 0.25291 0.20693 0.0
C2202 C 0.53137 0.15143 0.22548 0.0
C2203 C 0.51905 0.1604 0.2243 0.0
C2204 C 0.51685 0.19853 0.20733 0.0
C2205 C 0.4841 0.22255 0.21399 0.0
C2206 C 0.49084 0.20699 0.21302 0.0
C2207 C 0.51659 0.16706 0.2141 0.0
C2208 C 0.50673 0.17986 0.21312 0.0
H2209 H 0.46717 0.24349 0.23303 0.0
H2210 H 0.47371 0.21513 0.23063 0.0
H2211 H 0.51799 0.22671 0.20324 0.0
H2212 H 0.54487 0.15208 0.19908 0.0
H2213 H 0.52363 0.16803 0.19706 0.0
C2214 C 0.23553 0.73832 0.7866 0.0
C2215 C 0.22676 0.73042 0.77642 0.0
C2216 C 0.25535 0.75586 0.78742 0.0
C2217 C 0.29732 0.79944 0.77158 0.0
H2218 H 0.33338 0.79299 0.79155 0.0
C2219 C 0.38586 0.83856 0.76619 0.0
C2220 C 0.39844 0.84434 0.77543 0.0
C2221 C 0.36431 0.82886 0.76717 0.0
C2222 C 0.32349 0.79531 0.78608 0.0
H2223 H 0.23134 0.73559 0.75915 0.0
H2224 H 0.26603 0.76569 0.76057 0.0
H2225 H 0.29639 0.76819 0.79183 0.0
H2226 H 0.3984 0.84601 0.79292 0.0
H2227 H 0.36077 0.82903 0.79463 0.0
H2228 H 0.32474 0.82613 0.76555 0.0
C2229 C 0.25761 0.75852 0.76793 0.0
C2230 C 0.30222 0.78107 0.78625 0.0
C2231 C 0.23781 0.74105 0.76711 0.0
C2232 C 0.38909 0.84136 0.78565 0.0
C2233 C 0.36756 0.83165 0.78664 0.0
C2234 C 0.31865 0.81366 0.77139 0.0
C2235 C 0.26683 0.76586 0.77809 0.0
C2236 C 0.28892 0.78267 0.77884 0.0
C2237 C 0.35489 0.82474 0.77742 0.0
C2238 C 0.33202 0.81148 0.77849 0.0
H2239 H 0.22745 0.73048 0.79392 0.0
H2240 H 0.26187 0.76129 0.79537 0.0
H2241 H 0.28746 0.80133 0.76589 0.0
H2242 H 0.39254 0.84044 0.75821 0.0
H2243 H 0.35499 0.82353 0.75992 0.0
C2244 C 0.25017 0.47955 0.77501 0.0
C2245 C 0.26752 0.49035 0.78179 0.0
C2246 C 0.2343 0.48422 0.77509 0.0
C2247 C 0.22732 0.52809 0.77986 0.0
H2248 H 0.1683 0.48807 0.77916 0.0
C2249 C 0.16835 0.55103 0.76713 0.0
C2250 C 0.15205 0.5459 0.77444 0.0
C2251 C 0.18084 0.54229 0.76815 0.0
C2252 C 0.18474 0.49936 0.77938 0.0
H2253 H 0.28103 0.51355 0.79447 0.0
H2254 H 0.25357 0.522 0.79439 0.0
H2255 H 0.1931 0.47607 0.78148 0.0
H2256 H 0.13547 0.52696 0.78826 0.0
H2257 H 0.1573 0.51136 0.78997 0.0
H2258 H 0.21913 0.55133 0.77759 0.0
C2259 C 0.2524 0.51005 0.78897 0.0
C2260 C 0.19888 0.49252 0.78066 0.0
C2261 C 0.26814 0.50526 0.78897 0.0
C2262 C 0.14796 0.53119 0.78254 0.0
C2263 C 0.16036 0.52222 0.78348 0.0
C2264 C 0.21326 0.53486 0.77843 0.0
C2265 C 0.23556 0.4999 0.78186 0.0
C2266 C 0.22031 0.50685 0.78092 0.0
C2267 C 0.17721 0.5281 0.77645 0.0
C2268 C 0.19185 0.52059 0.77813 0.0
H2269 H 0.24926 0.46815 0.76928 0.0
H2270 H 0.22156 0.47628 0.76947 0.0
H2271 H 0.24375 0.53945 0.77991 0.0
H2272 H 0.17205 0.56253 0.7609 0.0
H2273 H 0.19365 0.54694 0.76258 0.0
C2274 C 0.49917 0.75925 0.78959 0.0
C2275 C 0.50783 0.76913 0.77972 0.0
C2276 C 0.4952 0.73919 0.79153 0.0
C2277 C 0.50492 0.69794 0.78151 0.0
H2278 H 0.44932 0.66134 0.79233 0.0
C2279 C 0.4593 0.60923 0.77463 0.0
C2280 C 0.44472 0.59664 0.78245 0.0
C2281 C 0.47065 0.63077 0.77594 0.0
C2282 C 0.46506 0.67133 0.78952 0.0
H2283 H 0.52044 0.76622 0.76445 0.0
H2284 H 0.513 0.73099 0.76772 0.0
H2285 H 0.46276 0.69837 0.79172 0.0
H2286 H 0.43181 0.59638 0.79817 0.0
H2287 H 0.45191 0.63391 0.8006 0.0
H2288 H 0.50688 0.67062 0.77902 0.0
C2289 C 0.50941 0.7388 0.774 0.0
C2290 C 0.47278 0.69263 0.78917 0.0
C2291 C 0.51342 0.75889 0.77206 0.0
C2292 C 0.44272 0.6058 0.79194 0.0
C2293 C 0.45417 0.62728 0.7933 0.0
C2294 C 0.49718 0.67655 0.78188 0.0
C2295 C 0.49975 0.72852 0.78364 0.0
C2296 C 0.49267 0.70618 0.78501 0.0
C2297 C 0.46771 0.64009 0.78515 0.0
C2298 C 0.47703 0.66297 0.78574 0.0
H2299 H 0.49457 0.76662 0.79565 0.0
H2300 H 0.48802 0.73179 0.79911 0.0
H2301 H 0.52039 0.70801 0.77837 0.0
H2302 H 0.46105 0.60253 0.76721 0.0
H2303 H 0.48081 0.64016 0.76946 0.0
C2304 C 0.5115 0.71324 0.55988 0.0
C2305 C 0.51123 0.72358 0.55047 0.0
C2306 C 0.50215 0.69166 0.56002 0.0
C2307 C 0.47742 0.64419 0.54257 0.0
H2308 H 0.44388 0.61936 0.56815 0.0
C2309 C 0.40336 0.56317 0.54379 0.0
C2310 C 0.39914 0.55123 0.55321 0.0
C2311 C 0.42089 0.58301 0.54317 0.0
C2312 C 0.45344 0.62597 0.56102 0.0
H2313 H 0.50223 0.71927 0.53359 0.0
H2314 H 0.48507 0.68167 0.53398 0.0
H2315 H 0.46778 0.65649 0.56765 0.0
H2316 H 0.41091 0.55014 0.56903 0.0
H2317 H 0.44134 0.5849 0.56799 0.0
H2318 H 0.46205 0.61353 0.53579 0.0
C2319 C 0.49276 0.69022 0.54123 0.0
C2320 C 0.46723 0.64732 0.56073 0.0
C2321 C 0.50235 0.71183 0.54105 0.0
C2322 C 0.41346 0.55912 0.56175 0.0
C2323 C 0.43092 0.57899 0.56115 0.0
C2324 C 0.46342 0.62279 0.54282 0.0
C2325 C 0.49203 0.67982 0.5508 0.0
C2326 C 0.47917 0.65679 0.55144 0.0
C2327 C 0.43451 0.59136 0.55197 0.0
C2328 C 0.45107 0.61353 0.552 0.0
H2329 H 0.51806 0.72167 0.56731 0.0
H2330 H 0.50229 0.68423 0.56747 0.0
H2331 H 0.4866 0.65088 0.53534 0.0
H2332 H 0.39257 0.55766 0.5371 0.0
H2333 H 0.42313 0.59225 0.53603 0.0
C2334 C 0.27554 0.79114 0.56086 0.0
C2335 C 0.26539 0.77754 0.5522 0.0
C2336 C 0.29713 0.80382 0.56085 0.0
C2337 C 0.34451 0.82292 0.54379 0.0
H2338 H 0.36887 0.81752 0.57025 0.0
C2339 C 0.4237 0.82804 0.54528 0.0
C2340 C 0.43617 0.83636 0.5545 0.0
C2341 C 0.40413 0.82605 0.54483 0.0
C2342 C 0.36245 0.81962 0.56287 0.0
H2343 H 0.2697 0.76778 0.53638 0.0
H2344 H 0.30731 0.78958 0.53643 0.0
H2345 H 0.33201 0.80536 0.56968 0.0
H2346 H 0.43839 0.85025 0.57021 0.0
H2347 H 0.40416 0.84674 0.56942 0.0
H2348 H 0.37492 0.83648 0.53689 0.0
C2349 C 0.29868 0.79058 0.54322 0.0
C2350 C 0.34127 0.81265 0.56254 0.0
C2351 C 0.27713 0.7779 0.54323 0.0
C2352 C 0.42897 0.84341 0.56308 0.0
C2353 C 0.4094 0.84144 0.56262 0.0
C2354 C 0.36573 0.82991 0.54412 0.0
C2355 C 0.30899 0.80319 0.55218 0.0
C2356 C 0.33194 0.8137 0.55292 0.0
C2357 C 0.39659 0.83236 0.55357 0.0
C2358 C 0.37482 0.82782 0.55359 0.0
H2359 H 0.26694 0.79117 0.5679 0.0
H2360 H 0.30461 0.81358 0.56781 0.0
H2361 H 0.33784 0.82424 0.53631 0.0
H2362 H 0.42867 0.82223 0.53859 0.0
H2363 H 0.39455 0.81869 0.53781 0.0
C2364 C 0.19424 0.47584 0.55722 0.0
C2365 C 0.20894 0.48044 0.54899 0.0
C2366 C 0.18136 0.48432 0.55703 0.0
C2367 C 0.16443 0.51397 0.5398 0.0
H2368 H 0.16189 0.53781 0.56722 0.0
C2369 C 0.15699 0.58649 0.54391 0.0
C2370 C 0.14507 0.58757 0.55242 0.0
C2371 C 0.15964 0.5694 0.54285 0.0
C2372 C 0.16207 0.53093 0.55953 0.0
H2373 H 0.22053 0.4963 0.5337 0.0
H2374 H 0.1987 0.51164 0.53355 0.0
H2375 H 0.1757 0.51465 0.56653 0.0
H2376 H 0.12552 0.57081 0.56609 0.0
H2377 H 0.13059 0.54118 0.56436 0.0
H2378 H 0.15177 0.53127 0.53277 0.0
C2379 C 0.19687 0.50132 0.54011 0.0
C2380 C 0.16996 0.51758 0.55913 0.0
C2381 C 0.20964 0.49275 0.54027 0.0
C2382 C 0.13516 0.57071 0.55958 0.0
C2383 C 0.13797 0.55368 0.55857 0.0
C2384 C 0.15669 0.52748 0.5402 0.0
C2385 C 0.18295 0.49767 0.54864 0.0
C2386 C 0.17173 0.50933 0.54922 0.0
C2387 C 0.15057 0.55305 0.55032 0.0
C2388 C 0.15589 0.53647 0.55004 0.0
H2389 H 0.19333 0.4665 0.56409 0.0
H2390 H 0.17057 0.4809 0.56364 0.0
H2391 H 0.16517 0.50758 0.53207 0.0
H2392 H 0.16511 0.59928 0.53834 0.0
H2393 H 0.16968 0.56949 0.5365 0.0
C2394 C 0.18956 0.20691 0.03706 0.0
C2395 C 0.20375 0.22447 0.04299 0.0
C2396 C 0.19316 0.20482 0.02621 0.0
C2397 C 0.23416 0.22215 0.00566 0.0
H2398 H 0.18778 0.20109 0.98584 0.0
C2399 C 0.24191 0.21611 0.95921 0.0
C2400 C 0.22602 0.1983 0.95411 0.0
C2401 C 0.24032 0.21992 0.97014 0.0
C2402 C 0.20085 0.20677 0.99129 0.0
H2403 H 0.23296 0.25361 0.04213 0.0
H2404 H 0.23931 0.24989 0.02307 0.0
H2405 H 0.18289 0.20717 0.00465 0.0
H2406 H 0.19617 0.17037 0.95658 0.0
H2407 H 0.19368 0.17674 0.97563 0.0
H2408 H 0.25207 0.22159 0.99224 0.0
C2409 C 0.22543 0.2377 0.02691 0.0
C2410 C 0.19805 0.2103 0.00206 0.0
C2411 C 0.22179 0.23983 0.03781 0.0
C2412 C 0.20881 0.18412 0.96026 0.0
C2413 C 0.20724 0.18792 0.97116 0.0
C2414 C 0.23696 0.2186 0.99485 0.0
C2415 C 0.21108 0.2202 0.02099 0.0
C2416 C 0.21459 0.21777 0.0094 0.0
C2417 C 0.22278 0.20603 0.97618 0.0
C2418 C 0.22024 0.2106 0.98758 0.0
H2419 H 0.17578 0.19452 0.04086 0.0
H2420 H 0.18202 0.19094 0.02193 0.0
H2421 H 0.24715 0.22777 0.01115 0.0
H2422 H 0.25546 0.22724 0.95472 0.0
H2423 H 0.25254 0.23404 0.97377 0.0
C2424 C 0.8042 0.03351 0.9577 0.0
C2425 C 0.79508 0.0179 0.94981 0.0
C2426 C 0.79909 0.0288 0.9686 0.0
C2427 C 0.78172 0.98597 0.9875 0.0
H2428 H 0.77084 0.02033 0.00677 0.0
C2429 C 0.76459 0.96618 0.03267 0.0
C2430 C 0.77388 0.98291 0.03992 0.0
C2431 C 0.76456 0.9697 0.02159 0.0
C2432 C 0.77404 0.01068 0.00152 0.0
H2433 H 0.77341 0.98517 0.9471 0.0
H2434 H 0.76457 0.97695 0.96614 0.0
H2435 H 0.77592 0.02829 0.9875 0.0
H2436 H 0.79046 0.01642 0.04131 0.0
H2437 H 0.7909 0.02263 0.02203 0.0
H2438 H 0.78067 0.96881 0.00146 0.0
C2439 C 0.77559 0.99282 0.96389 0.0
C2440 C 0.77688 0.01522 0.99049 0.0
C2441 C 0.78051 0.99757 0.953 0.0
C2442 C 0.78291 0.00322 0.03592 0.0
C2443 C 0.78309 0.00675 0.02485 0.0
C2444 C 0.77912 0.98156 -0.00147 0.0
C2445 C 0.78498 0.00834 0.9718 0.0
C2446 C 0.78089 0.003 0.9834 0.0
C2447 C 0.77406 0.99006 0.01753 0.0
C2448 C 0.77543 0.99396 0.0057 0.0
H2449 H 0.8154 0.04931 0.95545 0.0
H2450 H 0.80667 0.04102 0.97455 0.0
H2451 H 0.78506 0.97645 0.98223 0.0
H2452 H 0.75732 0.95036 0.03557 0.0
H2453 H 0.75714 0.95646 0.01622 0.0
C2454 C 0.00139 0.80119 0.96214 0.0
C2455 C 0.99519 0.78252 0.95659 0.0
C2456 C 0.00754 0.80349 0.97291 0.0
C2457 C 0.00279 0.7738 0.99741 0.0
H2458 H 0.0475 0.82708 0.00735 0.0
C2459 C 0.02845 0.78979 0.04216 0.0
C2460 C 0.02984 0.8079 0.04645 0.0
C2461 C 0.02669 0.78617 0.03102 0.0
C2462 C 0.03498 0.81212 0.00469 0.0
H2463 H 0.99067 0.75163 0.95803 0.0
H2464 H 0.00175 0.75577 0.97688 0.0
H2465 H 0.03969 0.82135 0.98812 0.0
H2466 H 0.03069 0.83648 0.04231 0.0
H2467 H 0.02806 0.83034 0.02294 0.0
H2468 H -0.00204 0.76472 0.01405 0.0
C2469 C 0.00162 0.76854 0.97288 0.0
C2470 C 0.03046 0.80885 0.99369 0.0
C2471 C 0.99543 0.76623 0.96207 0.0
C2472 C 0.03006 0.82256 0.03931 0.0
C2473 C 0.02849 0.81902 0.02819 0.0
C2474 C 0.0074 0.77705 0.00843 0.0
C2475 C 0.00778 0.78723 0.97841 0.0
C2476 C 0.01399 0.78983 0.98995 0.0
C2477 C 0.02651 0.80068 0.02394 0.0
C2478 C 0.02323 0.79641 0.01219 0.0
H2479 H 0.00174 0.81419 0.95813 0.0
H2480 H 0.01187 0.81798 0.97696 0.0
H2481 H 0.9899 0.75904 0.99481 0.0
H2482 H 0.02857 0.77831 0.04741 0.0
H2483 H 0.0254 0.77199 0.02795 0.0
C2484 C 0.90222 0.53236 0.29691 0.0
C2485 C 0.8943 0.54062 0.28944 0.0
C2486 C 0.90256 0.53669 0.30793 0.0
C2487 C 0.89688 0.57163 0.32743 0.0
H2488 H 0.88087 0.52587 0.34719 0.0
C2489 C 0.8673 0.56911 0.37101 0.0
C2490 C 0.8746 0.5613 0.37908 0.0
C2491 C 0.87234 0.56859 0.36017 0.0
C2492 C 0.88563 0.53888 0.34179 0.0
H2493 H 0.88052 0.55984 0.28761 0.0
H2494 H 0.88069 0.56704 0.30678 0.0
H2495 H 0.88501 0.52119 0.32807 0.0
H2496 H 0.89306 0.54701 0.38215 0.0
H2497 H 0.90185 0.54614 0.36325 0.0
H2498 H 0.89673 0.58903 0.34119 0.0
C2499 C 0.88718 0.5577 0.30417 0.0
C2500 C 0.88808 0.53624 0.33083 0.0
C2501 C 0.88702 0.55353 0.29317 0.0
C2502 C 0.88738 0.55336 0.37613 0.0
C2503 C 0.89226 0.55267 0.3653 0.0
C2504 C 0.89423 0.5742 0.33839 0.0
C2505 C 0.89476 0.54918 0.31171 0.0
C2506 C 0.89356 0.55252 0.32349 0.0
C2507 C 0.88459 0.56004 0.3572 0.0
C2508 C 0.88844 0.5578 0.34567 0.0
H2509 H 0.90811 0.52253 0.29424 0.0
H2510 H 0.90883 0.53016 0.31349 0.0
H2511 H 0.90146 0.58462 0.32204 0.0
H2512 H 0.85752 0.57541 0.37306 0.0
H2513 H 0.8661 0.57424 0.35408 0.0
C2514 C 0.44235 0.32382 0.29105 0.0
C2515 C 0.45407 0.34489 0.28823 0.0
C2516 C 0.43744 0.31793 0.30183 0.0
C2517 C 0.43195 0.33587 0.32853 0.0
H2518 H 0.44397 0.29447 0.33921 0.0
C2519 C 0.43363 0.32032 0.37399 0.0
C2520 C 0.42753 0.3001 0.37734 0.0
C2521 C 0.43483 0.32505 0.36303 0.0
C2522 C 0.44012 0.30575 0.33635 0.0
H2523 H 0.46939 0.37633 0.29444 0.0
H2524 H 0.46065 0.366 0.31336 0.0
H2525 H 0.44977 0.30423 0.32025 0.0
H2526 H 0.41711 0.26879 0.37191 0.0
H2527 H 0.4186 0.27685 0.35272 0.0
H2528 H 0.42209 0.33728 0.34459 0.0
C2529 C 0.4553 0.35408 0.30719 0.0
C2530 C 0.44356 0.31141 0.32548 0.0
C2531 C 0.46042 0.35999 0.2964 0.0
C2532 C 0.42204 0.28455 0.36953 0.0
C2533 C 0.42301 0.28922 0.35854 0.0
C2534 C 0.42828 0.33004 0.33939 0.0
C2535 C 0.44398 0.33299 0.31001 0.0
C2536 C 0.43966 0.32663 0.32148 0.0
C2537 C 0.42977 0.30962 0.35515 0.0
C2538 C 0.43249 0.31503 0.34346 0.0
H2539 H 0.43742 0.31184 0.28494 0.0
H2540 H 0.42858 0.30157 0.30378 0.0
H2541 H 0.42861 0.34749 0.32562 0.0
H2542 H 0.43826 0.33268 0.37985 0.0
H2543 H 0.44045 0.34099 0.36074 0.0
C2544 C 0.69825 0.139 0.36506 0.0
C2545 C 0.68419 0.12628 0.37301 0.0
C2546 C 0.69341 0.13456 0.35413 0.0
C2547 C 0.65565 0.09376 0.3352 0.0
H2548 H 0.67398 0.141 0.31618 0.0
C2549 C 0.6229 0.09212 0.29227 0.0
C2550 C 0.63804 0.10145 0.28416 0.0
C2551 C 0.62878 0.09342 0.30309 0.0
C2552 C 0.66888 0.12768 0.32141 0.0
H2553 H 0.65421 0.09899 0.37592 0.0
H2554 H 0.64525 0.09168 0.35688 0.0
H2555 H 0.68392 0.14671 0.33511 0.0
H2556 H 0.67107 0.1194 0.28093 0.0
H2557 H 0.68128 0.12202 0.29985 0.0
H2558 H 0.63977 0.0749 0.32141 0.0
C2559 C 0.66032 0.10467 0.35897 0.0
C2560 C 0.67469 0.13089 0.33224 0.0
C2561 C 0.66537 0.10888 0.36989 0.0
C2562 C 0.65911 0.11188 0.28702 0.0
C2563 C 0.66495 0.11349 0.29782 0.0
C2564 C 0.64949 0.09059 0.32438 0.0
C2565 C 0.67418 0.1176 0.35093 0.0
C2566 C 0.66825 0.11399 0.3393 0.0
C2567 C 0.64985 0.10444 0.30594 0.0
C2568 C 0.65615 0.10754 0.3174 0.0
H2569 H 0.71293 0.15242 0.36731 0.0
H2570 H 0.70473 0.14458 0.34821 0.0
H2571 H 0.65063 0.08034 0.34031 0.0
H2572 H 0.60657 0.084 0.29024 0.0
H2573 H 0.61689 0.08642 0.30926 0.0
C2574 C 0.56902 0.85646 0.62622 0.0
C2575 C 0.56085 0.86431 0.61865 0.0
C2576 C 0.56921 0.86092 0.63721 0.0
C2577 C 0.56272 0.89576 0.65639 0.0
H2578 H 0.54755 0.85063 0.67648 0.0
C2579 C 0.53352 0.89406 0.69995 0.0
C2580 C 0.54145 0.88702 0.70809 0.0
C2581 C 0.53824 0.89308 0.68911 0.0
C2582 C 0.55205 0.86346 0.67098 0.0
H2583 H 0.5464 0.88289 0.61664 0.0
H2584 H 0.54633 0.89032 0.63575 0.0
H2585 H 0.55175 0.84561 0.65741 0.0
H2586 H 0.56056 0.8735 0.71128 0.0
H2587 H 0.56875 0.87178 0.69236 0.0
H2588 H 0.56228 0.91331 0.67001 0.0
C2589 C 0.55313 0.88121 0.63324 0.0
C2590 C 0.55454 0.86063 0.66005 0.0
C2591 C 0.55312 0.87691 0.62227 0.0
C2592 C 0.5544 0.87925 0.70519 0.0
C2593 C 0.55895 0.87809 0.69436 0.0
C2594 C 0.56003 0.89851 0.66732 0.0
C2595 C 0.56102 0.87314 0.64086 0.0
C2596 C 0.55974 0.87668 0.6526 0.0
C2597 C 0.55076 0.88482 0.68621 0.0
C2598 C 0.55453 0.88234 0.6747 0.0
H2599 H 0.57526 0.84687 0.62363 0.0
H2600 H 0.57571 0.85473 0.64284 0.0
H2601 H 0.56709 0.90857 0.65091 0.0
H2602 H 0.52359 0.90021 0.70197 0.0
H2603 H 0.53161 0.89824 0.68297 0.0
C2604 C 0.13324 0.69923 0.63018 0.0
C2605 C 0.12433 0.68371 0.62222 0.0
C2606 C 0.1284 0.69424 0.64109 0.0
C2607 C 0.11241 0.65104 0.6596 0.0
H2608 H 0.09886 0.68271 0.6794 0.0
C2609 C 0.09234 0.62597 0.70376 0.0
C2610 C 0.10076 0.64171 0.71159 0.0
C2611 C 0.09275 0.63089 0.69286 0.0
C2612 C 0.10282 0.67382 0.674 0.0
H2613 H 0.10334 0.65087 0.61942 0.0
H2614 H 0.09499 0.6422 0.63843 0.0
H2615 H 0.10482 0.69224 0.6603 0.0
H2616 H 0.11579 0.67485 0.71427 0.0
H2617 H 0.11709 0.68357 0.69522 0.0
H2618 H 0.11121 0.63307 0.6732 0.0
C2619 C 0.10563 0.6582 0.63624 0.0
C2620 C 0.10617 0.67927 0.66307 0.0
C2621 C 0.11028 0.6632 0.62536 0.0
C2622 C 0.10901 0.66242 0.70839 0.0
C2623 C 0.10969 0.66738 0.69747 0.0
C2624 C 0.1093 0.64575 0.67051 0.0
C2625 C 0.11481 0.67361 0.64422 0.0
C2626 C 0.11097 0.6679 0.65578 0.0
C2627 C 0.10191 0.65169 0.68955 0.0
C2628 C 0.10445 0.65704 0.67786 0.0
H2629 H 0.14403 0.71518 0.62798 0.0
H2630 H 0.13578 0.70639 0.6471 0.0
H2631 H 0.11642 0.64222 0.65418 0.0
H2632 H 0.08566 0.60987 0.70606 0.0
H2633 H 0.08615 0.61837 0.68703 0.0
C2634 C 0.29904 0.42332 0.62636 0.0
C2635 C 0.29488 0.43787 0.62162 0.0
C2636 C 0.30375 0.42453 0.63735 0.0
C2637 C 0.30041 0.44766 0.66322 0.0
H2638 H 0.34765 0.44263 0.67131 0.0
C2639 C 0.34023 0.47544 0.70446 0.0
C2640 C 0.34624 0.46285 0.70985 0.0
C2641 C 0.33326 0.47114 0.6938 0.0
C2642 C 0.33426 0.44381 0.66921 0.0
H2643 H 0.2923 0.46501 0.62477 0.0
H2644 H 0.30035 0.46701 0.64389 0.0
H2645 H 0.33585 0.43665 0.65261 0.0
H2646 H 0.34999 0.43608 0.70821 0.0
H2647 H 0.33756 0.42842 0.68961 0.0
H2648 H 0.29895 0.45505 0.67978 0.0
C2649 C 0.2997 0.4545 0.63916 0.0
C2650 C 0.32747 0.44035 0.6585 0.0
C2651 C 0.29504 0.45332 0.62819 0.0
C2652 C 0.34533 0.44598 0.7043 0.0
C2653 C 0.33837 0.4417 0.69362 0.0
C2654 C 0.30718 0.45111 0.67392 0.0
C2655 C 0.30436 0.44028 0.64384 0.0
C2656 C 0.31063 0.44248 0.65536 0.0
C2657 C 0.33211 0.45415 0.68828 0.0
C2658 C 0.32434 0.44948 0.67701 0.0
H2659 H 0.29876 0.41106 0.62157 0.0
H2660 H 0.30698 0.41317 0.64077 0.0
H2661 H 0.28717 0.44909 0.66109 0.0
H2662 H 0.34049 0.48839 0.70854 0.0
H2663 H 0.32882 0.4812 0.68987 0.0
loop_
_geom_bond_atom_site_label_1
_geom_bond_atom_site_label_2
_geom_bond_distance
_geom_bond_site_symmetry_2
_ccdc_geom_bond_type
Li0 N17 1.990 . S
Li0 O60 1.956 . S
Li0 O61 1.970 . S
Li0 O62 1.961 . S
Li1 N25 1.990 . S
Li1 O60 1.970 . S
Li1 O61 1.956 . S
Li1 O63 1.961 . S
Li2 N47 1.990 . S
Li2 O60 1.961 . S
Li2 O62 1.956 . S
Li2 O63 1.970 . S
Li3 N53 1.990 . S
Li3 O61 1.961 . S
Li3 O62 1.970 . S
Li3 O63 1.956 . S
C4 C6 1.348 . S
C4 C7 1.356 . S
C4 O60 1.325 . S
N5 C8 1.314 . S
N5 C9 1.279 . S
C6 C4 1.348 . S
C6 C8 1.353 . S
C6 H64 0.929 . S
C7 C4 1.356 . S
C7 C9 1.358 . S
C7 H65 0.930 . S
C8 N5 1.314 . S
C8 C6 1.353 . S
C8 H66 0.930 . S
C9 N5 1.279 . S
C9 C7 1.358 . S
C9 H67 0.930 . S
C10 C13 1.348 . S
C10 C14 1.356 . S
C10 O61 1.325 . S
C11 N12 1.279 . S
C11 C14 1.358 . S
C11 H68 0.930 . S
N12 C11 1.279 . S
N12 C15 1.314 . S
C13 C10 1.348 . S
C13 C15 1.353 . S
C13 H69 0.929 . S
C14 C10 1.356 . S
C14 C11 1.358 . S
C14 H70 0.930 . S
C15 N12 1.314 . S
C15 C13 1.353 . S
C15 H71 0.930 . S
C16 N17 1.314 . S
C16 C21 1.353 . S
C16 H22 0.930 . S
N17 Li0 1.990 . S
N17 C16 1.314 . S
N17 C19 1.279 . S
C18 C19 1.358 . S
C18 C20 1.356 . S
C18 H72 0.930 . S
C19 N17 1.279 . S
C19 C18 1.358 . S
C19 H23 0.930 . S
C20 C18 1.356 . S
C20 C21 1.348 . S
C21 C16 1.353 . S
C21 C20 1.348 . S
C21 H73 0.929 . S
H22 C16 0.930 . S
H23 C19 0.930 . S
C24 N25 1.314 . S
C24 C26 1.353 . S
C24 H30 0.930 . S
N25 Li1 1.990 . S
N25 C24 1.314 . S
N25 C28 1.279 . S
C26 C24 1.353 . S
C26 C29 1.348 . S
C26 H74 0.929 . S
C27 C28 1.358 . S
C27 C29 1.356 . S
C27 H75 0.930 . S
C28 N25 1.279 . S
C28 C27 1.358 . S
C28 H31 0.930 . S
C29 C26 1.348 . S
C29 C27 1.356 . S
H30 C24 0.930 . S
H31 C28 0.930 . S
C32 C34 1.348 . S
C32 C35 1.356 . S
C32 O62 1.325 . S
N33 C36 1.314 . S
N33 C37 1.279 . S
C34 C32 1.348 . S
C34 C36 1.353 . S
C34 H76 0.929 . S
C35 C32 1.356 . S
C35 C37 1.358 . S
C35 H77 0.930 . S
C36 N33 1.314 . S
C36 C34 1.353 . S
C36 H78 0.930 . S
C37 N33 1.279 . S
C37 C35 1.358 . S
C37 H79 0.930 . S
C38 C39 1.348 . S
C38 C40 1.356 . S
C38 O63 1.325 . S
C39 C38 1.348 . S
C39 C41 1.353 . S
C39 H80 0.929 . S
C40 C38 1.356 . S
C40 C42 1.358 . S
C40 H81 0.930 . S
C41 C39 1.353 . S
C41 N43 1.314 . S
C41 H82 0.930 . S
C42 C40 1.358 . S
C42 N43 1.279 . S
C42 H83 0.930 . S
N43 C41 1.314 . S
N43 C42 1.279 . S
C44 C46 1.353 . S
C44 N47 1.314 . S
C44 H50 0.930 . S
C45 N47 1.279 . S
C45 C48 1.358 . S
C45 H51 0.930 . S
C46 C44 1.353 . S
C46 C49 1.348 . S
C46 H84 0.929 . S
N47 Li2 1.990 . S
N47 C44 1.314 . S
N47 C45 1.279 . S
C48 C45 1.358 . S
C48 C49 1.356 . S
C48 H85 0.930 . S
C49 C46 1.348 . S
C49 C48 1.356 . S
H50 C44 0.930 . S
H51 C45 0.930 . S
C52 N53 1.314 . S
C52 C54 1.353 . S
C52 H58 0.930 . S
N53 Li3 1.990 . S
N53 C52 1.314 . S
N53 C56 1.279 . S
C54 C52 1.353 . S
C54 C57 1.348 . S
C54 H86 0.929 . S
C55 C56 1.358 . S
C55 C57 1.356 . S
C55 H87 0.930 . S
C56 N53 1.279 . S
C56 C55 1.358 . S
C56 H59 0.930 . S
C57 C54 1.348 . S
C57 C55 1.356 . S
H58 C52 0.930 . S
H59 C56 0.930 . S
O60 Li0 1.956 . S
O60 Li1 1.970 . S
O60 Li2 1.961 . S
O60 C4 1.325 . S
O61 Li0 1.970 . S
O61 Li1 1.956 . S
O61 Li3 1.961 . S
O61 C10 1.325 . S
O62 Li0 1.961 . S
O62 Li2 1.956 . S
O62 Li3 1.970 . S
O62 C32 1.325 . S
O63 Li1 1.961 . S
O63 Li2 1.970 . S
O63 Li3 1.956 . S
O63 C38 1.325 . S
H64 C6 0.929 . S
H65 C7 0.930 . S
H66 C8 0.930 . S
H67 C9 0.930 . S
H68 C11 0.930 . S
H69 C13 0.929 . S
H70 C14 0.930 . S
H71 C15 0.930 . S
H72 C18 0.930 . S
H73 C21 0.929 . S
H74 C26 0.929 . S
H75 C27 0.930 . S
H76 C34 0.929 . S
H77 C35 0.930 . S
H78 C36 0.930 . S
H79 C37 0.930 . S
H80 C39 0.929 . S
H81 C40 0.930 . S
H82 C41 0.930 . S
H83 C42 0.930 . S
H84 C46 0.929 . S
H85 C48 0.930 . S
H86 C54 0.929 . S
H87 C55 0.930 . S
Li88 N105 1.990 . S
Li88 O148 1.956 1_545 S
Li88 O149 1.970 . S
Li88 O150 1.961 . S
Li89 N113 1.990 . S
Li89 O148 1.970 . S
Li89 O149 1.956 1_565 S
Li89 O151 1.961 . S
Li90 N135 1.991 . S
Li90 O148 1.966 . S
Li90 O150 1.949 1_565 S
Li90 O151 1.974 . S
Li91 N141 1.990 . S
Li91 O149 1.961 . S
Li91 O150 1.970 . S
Li91 O151 1.956 1_545 S
C92 C94 1.348 . S
C92 C95 1.356 1_565 S
C92 O148 1.325 . S
N93 C96 1.314 . S
N93 C97 1.279 1_565 S
C94 C92 1.348 . S
C94 C96 1.353 . S
C94 H152 0.929 . S
C95 C92 1.356 1_545 S
C95 C97 1.358 . S
C95 H153 0.930 . S
C96 N93 1.314 . S
C96 C94 1.353 . S
C96 H154 0.930 . S
C97 N93 1.279 1_545 S
C97 C95 1.358 . S
C97 H155 0.930 . S
C98 C101 1.348 . S
C98 C102 1.356 1_545 S
C98 O149 1.325 . S
C99 N100 1.279 1_565 S
C99 C102 1.358 . S
C99 H156 0.930 . S
N100 C99 1.279 1_545 S
N100 C103 1.314 . S
C101 C98 1.348 . S
C101 C103 1.353 . S
C101 H157 0.929 . S
C102 C98 1.356 1_565 S
C102 C99 1.358 . S
C102 H158 0.930 . S
C103 N100 1.314 . S
C103 C101 1.353 . S
C103 H159 0.930 . S
C104 N105 1.314 . S
C104 C109 1.353 . S
C104 H110 0.930 . S
N105 Li88 1.990 . S
N105 C104 1.314 . S
N105 C107 1.279 . S
C106 C107 1.358 . S
C106 C108 1.356 . S
C106 H160 0.930 . S
C107 N105 1.279 . S
C107 C106 1.358 . S
C107 H111 0.930 . S
C108 C106 1.356 . S
C108 C109 1.348 . S
C109 C104 1.353 . S
C109 C108 1.348 . S
C109 H161 0.929 . S
H110 C104 0.930 . S
H111 C107 0.930 . S
C112 N113 1.314 . S
C112 C114 1.353 . S
C112 H118 0.930 . S
N113 Li89 1.990 . S
N113 C112 1.314 . S
N113 C116 1.279 . S
C114 C112 1.353 . S
C114 C117 1.348 . S
C114 H162 0.929 . S
C115 C116 1.358 . S
C115 C117 1.356 . S
C115 H163 0.930 . S
C116 N113 1.279 . S
C116 C115 1.358 . S
C116 H119 0.930 . S
C117 C114 1.348 . S
C117 C115 1.356 . S
H118 C112 0.930 . S
H119 C116 0.930 . S
C120 C122 1.348 . S
C120 C123 1.356 . S
C120 O150 1.325 . S
N121 C124 1.314 . S
N121 C125 1.279 . S
C122 C120 1.348 . S
C122 C124 1.353 . S
C122 H164 0.929 . S
C123 C120 1.356 . S
C123 C125 1.358 . S
C123 H165 0.930 . S
C124 N121 1.314 . S
C124 C122 1.353 . S
C124 H166 0.930 . S
C125 N121 1.279 . S
C125 C123 1.358 . S
C125 H167 0.930 . S
C126 C127 1.348 . S
C126 C128 1.356 . S
C126 O151 1.325 . S
C127 C126 1.348 . S
C127 C129 1.353 . S
C127 H168 0.929 . S
C128 C126 1.356 . S
C128 C130 1.358 . S
C128 H169 0.930 . S
C129 C127 1.353 . S
C129 N131 1.314 . S
C129 H170 0.930 . S
C130 C128 1.358 . S
C130 N131 1.279 . S
C130 H171 0.930 . S
N131 C129 1.314 . S
N131 C130 1.279 . S
C132 C134 1.353 . S
C132 N135 1.324 . S
C132 H138 0.930 . S
C133 N135 1.268 1_545 S
C133 C136 1.358 . S
C133 H139 0.930 . S
C134 C132 1.353 . S
C134 C137 1.348 . S
C134 H172 0.929 . S
N135 Li90 1.991 . S
N135 C132 1.324 . S
N135 C133 1.268 1_565 S
C136 C133 1.358 . S
C136 C137 1.356 1_545 S
C136 H173 0.930 . S
C137 C134 1.348 . S
C137 C136 1.356 1_565 S
H138 C132 0.930 . S
H139 C133 0.930 . S
C140 N141 1.314 . S
C140 C142 1.353 . S
C140 H146 0.930 . S
N141 Li91 1.990 . S
N141 C140 1.314 . S
N141 C144 1.279 1_545 S
C142 C140 1.353 . S
C142 C145 1.348 . S
C142 H174 0.929 . S
C143 C144 1.370 . S
C143 C145 1.343 1_565 S
C143 H175 0.931 . S
C144 N141 1.279 1_565 S
C144 C143 1.370 . S
C144 H147 0.930 . S
C145 C142 1.348 . S
C145 C143 1.343 1_545 S
H146 C140 0.930 . S
H147 C144 0.930 . S
O148 Li88 1.956 1_565 S
O148 Li89 1.970 . S
O148 Li90 1.966 . S
O148 C92 1.325 . S
O149 Li88 1.970 . S
O149 Li89 1.956 1_545 S
O149 Li91 1.961 . S
O149 C98 1.325 . S
O150 Li88 1.961 . S
O150 Li90 1.949 1_545 S
O150 Li91 1.970 . S
O150 C120 1.325 . S
O151 Li89 1.961 . S
O151 Li90 1.974 . S
O151 Li91 1.956 1_565 S
O151 C126 1.325 . S
H152 C94 0.929 . S
H153 C95 0.930 . S
H154 C96 0.930 . S
H155 C97 0.930 . S
H156 C99 0.930 . S
H157 C101 0.929 . S
H158 C102 0.930 . S
H159 C103 0.930 . S
H160 C106 0.930 . S
H161 C109 0.929 . S
H162 C114 0.929 . S
H163 C115 0.930 . S
H164 C122 0.929 . S
H165 C123 0.930 . S
H166 C124 0.930 . S
H167 C125 0.930 . S
H168 C127 0.929 . S
H169 C128 0.930 . S
H170 C129 0.930 . S
H171 C130 0.930 . S
H172 C134 0.929 . S
H173 C136 0.930 . S
H174 C142 0.929 . S
H175 C143 0.931 . S
Li176 N193 1.990 . S
Li176 O236 1.956 1_655 S
Li176 O237 1.970 . S
Li176 O238 1.961 . S
Li177 N201 1.990 . S
Li177 O236 1.970 . S
Li177 O237 1.956 1_455 S
Li177 O239 1.961 . S
Li178 N223 1.990 . S
Li178 O236 1.959 . S
Li178 O238 1.952 1_455 S
Li178 O239 1.975 . S
Li179 N229 1.990 . S
Li179 O237 1.961 . S
Li179 O238 1.970 . S
Li179 O239 1.956 1_655 S
C180 C182 1.348 . S
C180 C183 1.356 1_455 S
C180 O236 1.325 . S
N181 C184 1.314 . S
N181 C185 1.279 1_455 S
C182 C180 1.348 . S
C182 C184 1.353 . S
C182 H240 0.929 . S
C183 C180 1.356 1_655 S
C183 C185 1.358 . S
C183 H241 0.930 . S
C184 N181 1.314 . S
C184 C182 1.353 . S
C184 H242 0.930 . S
C185 N181 1.279 1_655 S
C185 C183 1.358 . S
C185 H243 0.930 . S
C186 C189 1.348 . S
C186 C190 1.356 1_655 S
C186 O237 1.325 . S
C187 N188 1.279 1_455 S
C187 C190 1.358 . S
C187 H244 0.930 . S
N188 C187 1.279 1_655 S
N188 C191 1.314 . S
C189 C186 1.348 . S
C189 C191 1.353 . S
C189 H245 0.929 . S
C190 C186 1.356 1_455 S
C190 C187 1.358 . S
C190 H246 0.930 . S
C191 N188 1.314 . S
C191 C189 1.353 . S
C191 H247 0.930 . S
C192 N193 1.314 . S
C192 C197 1.353 . S
C192 H198 0.930 . S
N193 Li176 1.990 . S
N193 C192 1.314 . S
N193 C195 1.279 . S
C194 C195 1.358 . S
C194 C196 1.356 . S
C194 H248 0.930 . S
C195 N193 1.279 . S
C195 C194 1.358 . S
C195 H199 0.930 . S
C196 C194 1.356 . S
C196 C197 1.348 . S
C197 C192 1.353 . S
C197 C196 1.348 . S
C197 H249 0.929 . S
H198 C192 0.930 . S
H199 C195 0.930 . S
C200 N201 1.314 . S
C200 C202 1.353 . S
C200 H206 0.930 . S
N201 Li177 1.990 . S
N201 C200 1.314 . S
N201 C204 1.279 . S
C202 C200 1.353 . S
C202 C205 1.348 . S
C202 H250 0.929 . S
C203 C204 1.358 . S
C203 C205 1.356 . S
C203 H251 0.930 . S
C204 N201 1.279 . S
C204 C203 1.358 . S
C204 H207 0.930 . S
C205 C202 1.348 . S
C205 C203 1.356 . S
H206 C200 0.930 . S
H207 C204 0.930 . S
C208 C210 1.348 . S
C208 C211 1.356 . S
C208 O238 1.325 . S
N209 C212 1.314 . S
N209 C213 1.279 . S
C210 C208 1.348 . S
C210 C212 1.353 . S
C210 H252 0.929 . S
C211 C208 1.356 . S
C211 C213 1.358 . S
C211 H253 0.930 . S
C212 N209 1.314 . S
C212 C210 1.353 . S
C212 H254 0.930 . S
C213 N209 1.279 . S
C213 C211 1.358 . S
C213 H255 0.930 . S
C214 C215 1.348 . S
C214 C216 1.356 . S
C214 O239 1.325 . S
C215 C214 1.348 . S
C215 C217 1.353 . S
C215 H256 0.929 . S
C216 C214 1.356 . S
C216 C218 1.358 . S
C216 H257 0.930 . S
C217 C215 1.353 . S
C217 N219 1.314 . S
C217 H258 0.930 . S
C218 C216 1.358 . S
C218 N219 1.279 . S
C218 H259 0.930 . S
N219 C217 1.314 . S
N219 C218 1.279 . S
C220 C222 1.353 . S
C220 N223 1.318 . S
C220 H226 0.930 . S
C221 N223 1.278 1_655 S
C221 C224 1.358 . S
C221 H227 0.930 . S
C222 C220 1.353 . S
C222 C225 1.348 . S
C222 H260 0.929 . S
N223 Li178 1.990 . S
N223 C220 1.318 . S
N223 C221 1.278 1_455 S
C224 C221 1.358 . S
C224 C225 1.356 1_655 S
C224 H261 0.930 . S
C225 C222 1.348 . S
C225 C224 1.356 1_455 S
H226 C220 0.930 . S
H227 C221 0.930 . S
C228 N229 1.314 . S
C228 C230 1.353 . S
C228 H234 0.930 . S
N229 Li179 1.990 . S
N229 C228 1.314 . S
N229 C232 1.279 1_655 S
C230 C228 1.353 . S
C230 C233 1.348 . S
C230 H262 0.929 . S
C231 C232 1.363 1_655 S
C231 C233 1.367 . S
C231 H263 0.914 1_655 S
C232 N229 1.279 1_455 S
C232 C231 1.363 1_455 S
C232 H235 0.930 . S
C233 C230 1.348 . S
C233 C231 1.367 . S
H234 C228 0.930 . S
H235 C232 0.930 . S
O236 Li176 1.956 1_455 S
O236 Li177 1.970 . S
O236 Li178 1.959 . S
O236 C180 1.325 . S
O237 Li176 1.970 . S
O237 Li177 1.956 1_655 S
O237 Li179 1.961 . S
O237 C186 1.325 . S
O238 Li176 1.961 . S
O238 Li178 1.952 1_655 S
O238 Li179 1.970 . S
O238 C208 1.325 . S
O239 Li177 1.961 . S
O239 Li178 1.975 . S
O239 Li179 1.956 1_455 S
O239 C214 1.325 . S
H240 C182 0.929 . S
H241 C183 0.930 . S
H242 C184 0.930 . S
H243 C185 0.930 . S
H244 C187 0.930 . S
H245 C189 0.929 . S
H246 C190 0.930 . S
H247 C191 0.930 . S
H248 C194 0.930 . S
H249 C197 0.929 . S
H250 C202 0.929 . S
H251 C203 0.930 . S
H252 C210 0.929 . S
H253 C211 0.930 . S
H254 C212 0.930 . S
H255 C213 0.930 . S
H256 C215 0.929 . S
H257 C216 0.930 . S
H258 C217 0.930 . S
H259 C218 0.930 . S
H260 C222 0.929 . S
H261 C224 0.930 . S
H262 C230 0.929 . S
H263 C231 0.914 1_455 S
Li264 N281 1.990 . S
Li264 O324 1.956 . S
Li264 O325 1.970 . S
Li264 O326 1.961 . S
Li265 N289 1.990 . S
Li265 O324 1.970 . S
Li265 O325 1.956 . S
Li265 O327 1.961 . S
Li266 N311 1.990 . S
Li266 O324 1.961 . S
Li266 O326 1.956 . S
Li266 O327 1.970 . S
Li267 N317 1.990 . S
Li267 O325 1.961 . S
Li267 O326 1.970 . S
Li267 O327 1.956 . S
C268 C270 1.348 . S
C268 C271 1.356 . S
C268 O324 1.325 . S
N269 C272 1.314 . S
N269 C273 1.279 . S
C270 C268 1.348 . S
C270 C272 1.353 . S
C270 H328 0.929 . S
C271 C268 1.356 . S
C271 C273 1.358 . S
C271 H329 0.930 . S
C272 N269 1.314 . S
C272 C270 1.353 . S
C272 H330 0.930 . S
C273 N269 1.279 . S
C273 C271 1.358 . S
C273 H331 0.930 . S
C274 C277 1.348 . S
C274 C278 1.356 . S
C274 O325 1.325 . S
C275 N276 1.279 . S
C275 C278 1.358 . S
C275 H332 0.930 . S
N276 C275 1.279 . S
N276 C279 1.314 . S
C277 C274 1.348 . S
C277 C279 1.353 . S
C277 H333 0.929 . S
C278 C274 1.356 . S
C278 C275 1.358 . S
C278 H334 0.930 . S
C279 N276 1.314 . S
C279 C277 1.353 . S
C279 H335 0.930 . S
C280 N281 1.314 . S
C280 C285 1.353 . S
C280 H286 0.930 . S
N281 Li264 1.990 . S
N281 C280 1.314 . S
N281 C283 1.279 . S
C282 C283 1.358 . S
C282 C284 1.356 . S
C282 H336 0.930 . S
C283 N281 1.279 . S
C283 C282 1.358 . S
C283 H287 0.930 . S
C284 C282 1.356 . S
C284 C285 1.348 . S
C285 C280 1.353 . S
C285 C284 1.348 . S
C285 H337 0.929 . S
H286 C280 0.930 . S
H287 C283 0.930 . S
C288 N289 1.314 . S
C288 C290 1.353 . S
C288 H294 0.930 . S
N289 Li265 1.990 . S
N289 C288 1.314 . S
N289 C292 1.279 . S
C290 C288 1.353 . S
C290 C293 1.348 . S
C290 H338 0.929 . S
C291 C292 1.358 . S
C291 C293 1.356 . S
C291 H339 0.930 . S
C292 N289 1.279 . S
C292 C291 1.358 . S
C292 H295 0.930 . S
C293 C290 1.348 . S
C293 C291 1.356 . S
H294 C288 0.930 . S
H295 C292 0.930 . S
C296 C298 1.348 . S
C296 C299 1.356 . S
C296 O326 1.325 . S
N297 C300 1.314 . S
N297 C301 1.279 . S
C298 C296 1.348 . S
C298 C300 1.353 . S
C298 H340 0.929 . S
C299 C296 1.356 . S
C299 C301 1.358 . S
C299 H341 0.930 . S
C300 N297 1.314 . S
C300 C298 1.353 . S
C300 H342 0.930 . S
C301 N297 1.279 . S
C301 C299 1.358 . S
C301 H343 0.930 . S
C302 C303 1.348 . S
C302 C304 1.356 . S
C302 O327 1.325 . S
C303 C302 1.348 . S
C303 C305 1.353 . S
C303 H344 0.929 . S
C304 C302 1.356 . S
C304 C306 1.358 . S
C304 H345 0.930 . S
C305 C303 1.353 . S
C305 N307 1.314 . S
C305 H346 0.930 . S
C306 C304 1.358 . S
C306 N307 1.279 . S
C306 H347 0.930 . S
N307 C305 1.314 . S
N307 C306 1.279 . S
C308 C310 1.353 . S
C308 N311 1.314 . S
C308 H314 0.930 . S
C309 N311 1.279 . S
C309 C312 1.358 . S
C309 H315 0.930 . S
C310 C308 1.353 . S
C310 C313 1.348 . S
C310 H348 0.929 . S
N311 Li266 1.990 . S
N311 C308 1.314 . S
N311 C309 1.279 . S
C312 C309 1.358 . S
C312 C313 1.356 . S
C312 H349 0.930 . S
C313 C310 1.348 . S
C313 C312 1.356 . S
H314 C308 0.930 . S
H315 C309 0.930 . S
C316 N317 1.314 . S
C316 C318 1.353 . S
C316 H322 0.930 . S
N317 Li267 1.990 . S
N317 C316 1.314 . S
N317 C320 1.279 . S
C318 C316 1.353 . S
C318 C321 1.348 . S
C318 H350 0.929 . S
C319 C320 1.358 . S
C319 C321 1.356 . S
C319 H351 0.930 . S
C320 N317 1.279 . S
C320 C319 1.358 . S
C320 H323 0.930 . S
C321 C318 1.348 . S
C321 C319 1.356 . S
H322 C316 0.930 . S
H323 C320 0.930 . S
O324 Li264 1.956 . S
O324 Li265 1.970 . S
O324 Li266 1.961 . S
O324 C268 1.325 . S
O325 Li264 1.970 . S
O325 Li265 1.956 . S
O325 Li267 1.961 . S
O325 C274 1.325 . S
O326 Li264 1.961 . S
O326 Li266 1.956 . S
O326 Li267 1.970 . S
O326 C296 1.325 . S
O327 Li265 1.961 . S
O327 Li266 1.970 . S
O327 Li267 1.956 . S
O327 C302 1.325 . S
H328 C270 0.929 . S
H329 C271 0.930 . S
H330 C272 0.930 . S
H331 C273 0.930 . S
H332 C275 0.930 . S
H333 C277 0.929 . S
H334 C278 0.930 . S
H335 C279 0.930 . S
H336 C282 0.930 . S
H337 C285 0.929 . S
H338 C290 0.929 . S
H339 C291 0.930 . S
H340 C298 0.929 . S
H341 C299 0.930 . S
H342 C300 0.930 . S
H343 C301 0.930 . S
H344 C303 0.929 . S
H345 C304 0.930 . S
H346 C305 0.930 . S
H347 C306 0.930 . S
H348 C310 0.929 . S
H349 C312 0.930 . S
H350 C318 0.929 . S
H351 C319 0.930 . S
Li352 N369 1.990 . S
Li352 O412 1.956 1_565 S
Li352 O413 1.970 . S
Li352 O414 1.961 . S
Li353 N377 1.990 . S
Li353 O412 1.975 . S
Li353 O413 1.952 1_545 S
Li353 O415 1.959 . S
Li354 N399 1.990 . S
Li354 O412 1.961 . S
Li354 O414 1.956 1_545 S
Li354 O415 1.970 . S
Li355 N405 1.990 . S
Li355 O413 1.961 . S
Li355 O414 1.970 . S
Li355 O415 1.956 1_565 S
C356 C358 1.348 . S
C356 C359 1.356 . S
C356 O412 1.325 . S
N357 C360 1.314 . S
N357 C361 1.279 . S
C358 C356 1.348 . S
C358 C360 1.353 . S
C358 H416 0.929 . S
C359 C356 1.356 . S
C359 C361 1.358 . S
C359 H417 0.930 . S
C360 N357 1.314 . S
C360 C358 1.353 . S
C360 H418 0.930 . S
C361 N357 1.279 . S
C361 C359 1.358 . S
C361 H419 0.930 . S
C362 C365 1.348 . S
C362 C366 1.356 . S
C362 O413 1.325 . S
C363 N364 1.279 . S
C363 C366 1.358 . S
C363 H420 0.930 . S
N364 C363 1.279 . S
N364 C367 1.314 . S
C365 C362 1.348 . S
C365 C367 1.353 . S
C365 H421 0.929 . S
C366 C362 1.356 . S
C366 C363 1.358 . S
C366 H422 0.930 . S
C367 N364 1.314 . S
C367 C365 1.353 . S
C367 H423 0.930 . S
C368 N369 1.314 . S
C368 C373 1.353 . S
C368 H374 0.930 . S
N369 Li352 1.990 . S
N369 C368 1.314 . S
N369 C371 1.279 1_565 S
C370 C371 1.363 1_565 S
C370 C372 1.367 . S
C370 H424 0.914 1_565 S
C371 N369 1.279 1_545 S
C371 C370 1.363 1_545 S
C371 H375 0.930 . S
C372 C370 1.367 . S
C372 C373 1.348 . S
C373 C368 1.353 . S
C373 C372 1.348 . S
C373 H425 0.929 . S
H374 C368 0.930 . S
H375 C371 0.930 . S
C376 N377 1.318 . S
C376 C378 1.353 . S
C376 H382 0.930 . S
N377 Li353 1.990 . S
N377 C376 1.318 . S
N377 C380 1.278 1_545 S
C378 C376 1.353 . S
C378 C381 1.348 . S
C378 H426 0.929 . S
C379 C380 1.358 . S
C379 C381 1.356 1_565 S
C379 H427 0.930 . S
C380 N377 1.278 1_565 S
C380 C379 1.358 . S
C380 H383 0.930 . S
C381 C378 1.348 . S
C381 C379 1.356 1_545 S
H382 C376 0.930 . S
H383 C380 0.930 . S
C384 C386 1.348 . S
C384 C387 1.356 1_565 S
C384 O414 1.325 . S
N385 C388 1.314 . S
N385 C389 1.279 1_565 S
C386 C384 1.348 . S
C386 C388 1.353 . S
C386 H428 0.929 . S
C387 C384 1.356 1_545 S
C387 C389 1.358 . S
C387 H429 0.930 . S
C388 N385 1.314 . S
C388 C386 1.353 . S
C388 H430 0.930 . S
C389 N385 1.279 1_545 S
C389 C387 1.358 . S
C389 H431 0.930 . S
C390 C391 1.348 . S
C390 C392 1.356 1_545 S
C390 O415 1.325 . S
C391 C390 1.348 . S
C391 C393 1.353 . S
C391 H432 0.929 . S
C392 C390 1.356 1_565 S
C392 C394 1.358 . S
C392 H433 0.930 . S
C393 C391 1.353 . S
C393 N395 1.314 . S
C393 H434 0.930 . S
C394 C392 1.358 . S
C394 N395 1.279 1_565 S
C394 H435 0.930 . S
N395 C393 1.314 . S
N395 C394 1.279 1_545 S
C396 C398 1.353 . S
C396 N399 1.314 . S
C396 H402 0.930 . S
C397 N399 1.279 . S
C397 C400 1.358 . S
C397 H403 0.930 . S
C398 C396 1.353 . S
C398 C401 1.348 . S
C398 H436 0.929 . S
N399 Li354 1.990 . S
N399 C396 1.314 . S
N399 C397 1.279 . S
C400 C397 1.358 . S
C400 C401 1.356 . S
C400 H437 0.930 . S
C401 C398 1.348 . S
C401 C400 1.356 . S
H402 C396 0.930 . S
H403 C397 0.930 . S
C404 N405 1.314 . S
C404 C406 1.353 . S
C404 H410 0.930 . S
N405 Li355 1.990 . S
N405 C404 1.314 . S
N405 C408 1.279 . S
C406 C404 1.353 . S
C406 C409 1.348 . S
C406 H438 0.929 . S
C407 C408 1.358 . S
C407 C409 1.356 . S
C407 H439 0.930 . S
C408 N405 1.279 . S
C408 C407 1.358 . S
C408 H411 0.930 . S
C409 C406 1.348 . S
C409 C407 1.356 . S
H410 C404 0.930 . S
H411 C408 0.930 . S
O412 Li352 1.956 1_545 S
O412 Li353 1.975 . S
O412 Li354 1.961 . S
O412 C356 1.325 . S
O413 Li352 1.970 . S
O413 Li353 1.952 1_565 S
O413 Li355 1.961 . S
O413 C362 1.325 . S
O414 Li352 1.961 . S
O414 Li354 1.956 1_565 S
O414 Li355 1.970 . S
O414 C384 1.325 . S
O415 Li353 1.959 . S
O415 Li354 1.970 . S
O415 Li355 1.956 1_545 S
O415 C390 1.325 . S
H416 C358 0.929 . S
H417 C359 0.930 . S
H418 C360 0.930 . S
H419 C361 0.930 . S
H420 C363 0.930 . S
H421 C365 0.929 . S
H422 C366 0.930 . S
H423 C367 0.930 . S
H424 C370 0.914 1_545 S
H425 C373 0.929 . S
H426 C378 0.929 . S
H427 C379 0.930 . S
H428 C386 0.929 . S
H429 C387 0.930 . S
H430 C388 0.930 . S
H431 C389 0.930 . S
H432 C391 0.929 . S
H433 C392 0.930 . S
H434 C393 0.930 . S
H435 C394 0.930 . S
H436 C398 0.929 . S
H437 C400 0.930 . S
H438 C406 0.929 . S
H439 C407 0.930 . S
Li440 N457 1.990 . S
Li440 O500 1.956 1_455 S
Li440 O501 1.970 . S
Li440 O502 1.961 . S
Li441 N465 1.990 . S
Li441 O500 1.970 . S
Li441 O501 1.956 1_655 S
Li441 O503 1.961 . S
Li442 N487 1.991 . S
Li442 O500 1.966 . S
Li442 O502 1.949 1_655 S
Li442 O503 1.974 . S
Li443 N493 1.990 . S
Li443 O501 1.961 . S
Li443 O502 1.970 . S
Li443 O503 1.956 1_455 S
C444 C446 1.348 . S
C444 C447 1.356 1_655 S
C444 O500 1.325 . S
N445 C448 1.314 . S
N445 C449 1.279 1_655 S
C446 C444 1.348 . S
C446 C448 1.353 . S
C446 H504 0.929 . S
C447 C444 1.356 1_455 S
C447 C449 1.358 . S
C447 H505 0.930 . S
C448 N445 1.314 . S
C448 C446 1.353 . S
C448 H506 0.930 . S
C449 N445 1.279 1_455 S
C449 C447 1.358 . S
C449 H507 0.930 . S
C450 C453 1.348 . S
C450 C454 1.356 1_455 S
C450 O501 1.325 . S
C451 N452 1.279 1_655 S
C451 C454 1.358 . S
C451 H508 0.930 . S
N452 C451 1.279 1_455 S
N452 C455 1.314 . S
C453 C450 1.348 . S
C453 C455 1.353 . S
C453 H509 0.929 . S
C454 C450 1.356 1_655 S
C454 C451 1.358 . S
C454 H510 0.930 . S
C455 N452 1.314 . S
C455 C453 1.353 . S
C455 H511 0.930 . S
C456 N457 1.314 . S
C456 C461 1.353 . S
C456 H462 0.930 . S
N457 Li440 1.990 . S
N457 C456 1.314 . S
N457 C459 1.279 . S
C458 C459 1.358 . S
C458 C460 1.356 . S
C458 H512 0.930 . S
C459 N457 1.279 . S
C459 C458 1.358 . S
C459 H463 0.930 . S
C460 C458 1.356 . S
C460 C461 1.348 . S
C461 C456 1.353 . S
C461 C460 1.348 . S
C461 H513 0.929 . S
H462 C456 0.930 . S
H463 C459 0.930 . S
C464 N465 1.314 . S
C464 C466 1.353 . S
C464 H470 0.930 . S
N465 Li441 1.990 . S
N465 C464 1.314 . S
N465 C468 1.279 . S
C466 C464 1.353 . S
C466 C469 1.348 . S
C466 H514 0.929 . S
C467 C468 1.358 . S
C467 C469 1.356 . S
C467 H515 0.930 . S
C468 N465 1.279 . S
C468 C467 1.358 . S
C468 H471 0.930 . S
C469 C466 1.348 . S
C469 C467 1.356 . S
H470 C464 0.930 . S
H471 C468 0.930 . S
C472 C474 1.348 . S
C472 C475 1.356 . S
C472 O502 1.325 . S
N473 C476 1.314 . S
N473 C477 1.279 . S
C474 C472 1.348 . S
C474 C476 1.353 . S
C474 H516 0.929 . S
C475 C472 1.356 . S
C475 C477 1.358 . S
C475 H517 0.930 . S
C476 N473 1.314 . S
C476 C474 1.353 . S
C476 H518 0.930 . S
C477 N473 1.279 . S
C477 C475 1.358 . S
C477 H519 0.930 . S
C478 C479 1.348 . S
C478 C480 1.356 . S
C478 O503 1.325 . S
C479 C478 1.348 . S
C479 C481 1.353 . S
C479 H520 0.929 . S
C480 C478 1.356 . S
C480 C482 1.358 . S
C480 H521 0.930 . S
C481 C479 1.353 . S
C481 N483 1.314 . S
C481 H522 0.930 . S
C482 C480 1.358 . S
C482 N483 1.279 . S
C482 H523 0.930 . S
N483 C481 1.314 . S
N483 C482 1.279 . S
C484 C486 1.353 . S
C484 N487 1.324 . S
C484 H490 0.930 . S
C485 N487 1.268 1_455 S
C485 C488 1.358 . S
C485 H491 0.930 . S
C486 C484 1.353 . S
C486 C489 1.348 . S
C486 H524 0.929 . S
N487 Li442 1.991 . S
N487 C484 1.324 . S
N487 C485 1.268 1_655 S
C488 C485 1.358 . S
C488 C489 1.356 1_455 S
C488 H525 0.930 . S
C489 C486 1.348 . S
C489 C488 1.356 1_655 S
H490 C484 0.930 . S
H491 C485 0.930 . S
C492 N493 1.314 . S
C492 C494 1.353 . S
C492 H498 0.930 . S
N493 Li443 1.990 . S
N493 C492 1.314 . S
N493 C496 1.279 1_455 S
C494 C492 1.353 . S
C494 C497 1.348 . S
C494 H526 0.929 . S
C495 C496 1.370 . S
C495 C497 1.343 1_655 S
C495 H527 0.931 . S
C496 N493 1.279 1_655 S
C496 C495 1.370 . S
C496 H499 0.930 . S
C497 C494 1.348 . S
C497 C495 1.343 1_455 S
H498 C492 0.930 . S
H499 C496 0.930 . S
O500 Li440 1.956 1_655 S
O500 Li441 1.970 . S
O500 Li442 1.966 . S
O500 C444 1.325 . S
O501 Li440 1.970 . S
O501 Li441 1.956 1_455 S
O501 Li443 1.961 . S
O501 C450 1.325 . S
O502 Li440 1.961 . S
O502 Li442 1.949 1_455 S
O502 Li443 1.970 . S
O502 C472 1.325 . S
O503 Li441 1.961 . S
O503 Li442 1.974 . S
O503 Li443 1.956 1_655 S
O503 C478 1.325 . S
H504 C446 0.929 . S
H505 C447 0.930 . S
H506 C448 0.930 . S
H507 C449 0.930 . S
H508 C451 0.930 . S
H509 C453 0.929 . S
H510 C454 0.930 . S
H511 C455 0.930 . S
H512 C458 0.930 . S
H513 C461 0.929 . S
H514 C466 0.929 . S
H515 C467 0.930 . S
H516 C474 0.929 . S
H517 C475 0.930 . S
H518 C476 0.930 . S
H519 C477 0.930 . S
H520 C479 0.929 . S
H521 C480 0.930 . S
H522 C481 0.930 . S
H523 C482 0.930 . S
H524 C486 0.929 . S
H525 C488 0.930 . S
H526 C494 0.929 . S
H527 C495 0.931 . S
Li528 N545 1.990 . S
Li528 O588 1.956 . S
Li528 O589 1.970 . S
Li528 O590 1.961 . S
Li529 N553 1.990 . S
Li529 O588 1.970 . S
Li529 O589 1.956 . S
Li529 O591 1.961 . S
Li530 N575 1.990 . S
Li530 O588 1.961 . S
Li530 O590 1.956 . S
Li530 O591 1.970 . S
Li531 N581 1.990 . S
Li531 O589 1.961 . S
Li531 O590 1.970 . S
Li531 O591 1.956 . S
C532 C534 1.348 . S
C532 C535 1.356 . S
C532 O588 1.325 . S
N533 C536 1.314 . S
N533 C537 1.279 . S
C534 C532 1.348 . S
C534 C536 1.353 . S
C534 H592 0.929 . S
C535 C532 1.356 . S
C535 C537 1.358 . S
C535 H593 0.930 . S
C536 N533 1.314 . S
C536 C534 1.353 . S
C536 H594 0.930 . S
C537 N533 1.279 . S
C537 C535 1.358 . S
C537 H595 0.930 . S
C538 C541 1.348 . S
C538 C542 1.356 . S
C538 O589 1.325 . S
C539 N540 1.279 . S
C539 C542 1.358 . S
C539 H596 0.930 . S
N540 C539 1.279 . S
N540 C543 1.314 . S
C541 C538 1.348 . S
C541 C543 1.353 . S
C541 H597 0.929 . S
C542 C538 1.356 . S
C542 C539 1.358 . S
C542 H598 0.930 . S
C543 N540 1.314 . S
C543 C541 1.353 . S
C543 H599 0.930 . S
C544 N545 1.314 . S
C544 C549 1.353 . S
C544 H550 0.930 . S
N545 Li528 1.990 . S
N545 C544 1.314 . S
N545 C547 1.279 . S
C546 C547 1.358 . S
C546 C548 1.356 . S
C546 H600 0.930 . S
C547 N545 1.279 . S
C547 C546 1.358 . S
C547 H551 0.930 . S
C548 C546 1.356 . S
C548 C549 1.348 . S
C549 C544 1.353 . S
C549 C548 1.348 . S
C549 H601 0.929 . S
H550 C544 0.930 . S
H551 C547 0.930 . S
C552 N553 1.314 . S
C552 C554 1.353 . S
C552 H558 0.930 . S
N553 Li529 1.990 . S
N553 C552 1.314 . S
N553 C556 1.279 . S
C554 C552 1.353 . S
C554 C557 1.348 . S
C554 H602 0.929 . S
C555 C556 1.358 . S
C555 C557 1.356 . S
C555 H603 0.930 . S
C556 N553 1.279 . S
C556 C555 1.358 . S
C556 H559 0.930 . S
C557 C554 1.348 . S
C557 C555 1.356 . S
H558 C552 0.930 . S
H559 C556 0.930 . S
C560 C562 1.348 . S
C560 C563 1.356 . S
C560 O590 1.325 . S
N561 C564 1.314 . S
N561 C565 1.279 . S
C562 C560 1.348 . S
C562 C564 1.353 . S
C562 H604 0.929 . S
C563 C560 1.356 . S
C563 C565 1.358 . S
C563 H605 0.930 . S
C564 N561 1.314 . S
C564 C562 1.353 . S
C564 H606 0.930 . S
C565 N561 1.279 . S
C565 C563 1.358 . S
C565 H607 0.930 . S
C566 C567 1.348 . S
C566 C568 1.356 . S
C566 O591 1.325 . S
C567 C566 1.348 . S
C567 C569 1.353 . S
C567 H608 0.929 . S
C568 C566 1.356 . S
C568 C570 1.358 . S
C568 H609 0.930 . S
C569 C567 1.353 . S
C569 N571 1.314 . S
C569 H610 0.930 . S
C570 C568 1.358 . S
C570 N571 1.279 . S
C570 H611 0.930 . S
N571 C569 1.314 . S
N571 C570 1.279 . S
C572 C574 1.353 . S
C572 N575 1.314 . S
C572 H578 0.930 . S
C573 N575 1.279 . S
C573 C576 1.358 . S
C573 H579 0.930 . S
C574 C572 1.353 . S
C574 C577 1.348 . S
C574 H612 0.929 . S
N575 Li530 1.990 . S
N575 C572 1.314 . S
N575 C573 1.279 . S
C576 C573 1.358 . S
C576 C577 1.356 . S
C576 H613 0.930 . S
C577 C574 1.348 . S
C577 C576 1.356 . S
H578 C572 0.930 . S
H579 C573 0.930 . S
C580 N581 1.314 . S
C580 C582 1.353 . S
C580 H586 0.930 . S
N581 Li531 1.990 . S
N581 C580 1.314 . S
N581 C584 1.279 . S
C582 C580 1.353 . S
C582 C585 1.348 . S
C582 H614 0.929 . S
C583 C584 1.358 . S
C583 C585 1.356 . S
C583 H615 0.930 . S
C584 N581 1.279 . S
C584 C583 1.358 . S
C584 H587 0.930 . S
C585 C582 1.348 . S
C585 C583 1.356 . S
H586 C580 0.930 . S
H587 C584 0.930 . S
O588 Li528 1.956 . S
O588 Li529 1.970 . S
O588 Li530 1.961 . S
O588 C532 1.325 . S
O589 Li528 1.970 . S
O589 Li529 1.956 . S
O589 Li531 1.961 . S
O589 C538 1.325 . S
O590 Li528 1.961 . S
O590 Li530 1.956 . S
O590 Li531 1.970 . S
O590 C560 1.325 . S
O591 Li529 1.961 . S
O591 Li530 1.970 . S
O591 Li531 1.956 . S
O591 C566 1.325 . S
H592 C534 0.929 . S
H593 C535 0.930 . S
H594 C536 0.930 . S
H595 C537 0.930 . S
H596 C539 0.930 . S
H597 C541 0.929 . S
H598 C542 0.930 . S
H599 C543 0.930 . S
H600 C546 0.930 . S
H601 C549 0.929 . S
H602 C554 0.929 . S
H603 C555 0.930 . S
H604 C562 0.929 . S
H605 C563 0.930 . S
H606 C564 0.930 . S
H607 C565 0.930 . S
H608 C567 0.929 . S
H609 C568 0.930 . S
H610 C569 0.930 . S
H611 C570 0.930 . S
H612 C574 0.929 . S
H613 C576 0.930 . S
H614 C582 0.929 . S
H615 C583 0.930 . S
Li616 N633 1.990 . S
Li616 O676 1.956 . S
Li616 O677 1.970 . S
Li616 O678 1.961 . S
Li617 N641 1.990 . S
Li617 O676 1.970 . S
Li617 O677 1.956 . S
Li617 O679 1.961 . S
Li618 N663 1.990 . S
Li618 O676 1.961 . S
Li618 O678 1.956 . S
Li618 O679 1.970 . S
Li619 N669 1.990 . S
Li619 O677 1.961 . S
Li619 O678 1.970 . S
Li619 O679 1.956 . S
C620 C622 1.348 . S
C620 C623 1.356 . S
C620 O676 1.325 . S
N621 C624 1.314 . S
N621 C625 1.279 . S
C622 C620 1.348 . S
C622 C624 1.353 . S
C622 H680 0.929 . S
C623 C620 1.356 . S
C623 C625 1.358 . S
C623 H681 0.930 . S
C624 N621 1.314 . S
C624 C622 1.353 . S
C624 H682 0.930 . S
C625 N621 1.279 . S
C625 C623 1.358 . S
C625 H683 0.930 . S
C626 C629 1.348 . S
C626 C630 1.356 . S
C626 O677 1.325 . S
C627 N628 1.279 . S
C627 C630 1.358 . S
C627 H684 0.930 . S
N628 C627 1.279 . S
N628 C631 1.314 . S
C629 C626 1.348 . S
C629 C631 1.353 . S
C629 H685 0.929 . S
C630 C626 1.356 . S
C630 C627 1.358 . S
C630 H686 0.930 . S
C631 N628 1.314 . S
C631 C629 1.353 . S
C631 H687 0.930 . S
C632 N633 1.314 . S
C632 C637 1.353 . S
C632 H638 0.930 . S
N633 Li616 1.990 . S
N633 C632 1.314 . S
N633 C635 1.279 . S
C634 C635 1.358 . S
C634 C636 1.356 . S
C634 H688 0.930 . S
C635 N633 1.279 . S
C635 C634 1.358 . S
C635 H639 0.930 . S
C636 C634 1.356 . S
C636 C637 1.348 . S
C637 C632 1.353 . S
C637 C636 1.348 . S
C637 H689 0.929 . S
H638 C632 0.930 . S
H639 C635 0.930 . S
C640 N641 1.314 . S
C640 C642 1.353 . S
C640 H646 0.930 . S
N641 Li617 1.990 . S
N641 C640 1.314 . S
N641 C644 1.279 . S
C642 C640 1.353 . S
C642 C645 1.348 . S
C642 H690 0.929 . S
C643 C644 1.358 . S
C643 C645 1.356 . S
C643 H691 0.930 . S
C644 N641 1.279 . S
C644 C643 1.358 . S
C644 H647 0.930 . S
C645 C642 1.348 . S
C645 C643 1.356 . S
H646 C640 0.930 . S
H647 C644 0.930 . S
C648 C650 1.348 . S
C648 C651 1.356 . S
C648 O678 1.325 . S
N649 C652 1.314 . S
N649 C653 1.279 . S
C650 C648 1.348 . S
C650 C652 1.353 . S
C650 H692 0.929 . S
C651 C648 1.356 . S
C651 C653 1.358 . S
C651 H693 0.930 . S
C652 N649 1.314 . S
C652 C650 1.353 . S
C652 H694 0.930 . S
C653 N649 1.279 . S
C653 C651 1.358 . S
C653 H695 0.930 . S
C654 C655 1.348 . S
C654 C656 1.356 . S
C654 O679 1.325 . S
C655 C654 1.348 . S
C655 C657 1.353 . S
C655 H696 0.929 . S
C656 C654 1.356 . S
C656 C658 1.358 . S
C656 H697 0.930 . S
C657 C655 1.353 . S
C657 N659 1.314 . S
C657 H698 0.930 . S
C658 C656 1.358 . S
C658 N659 1.279 . S
C658 H699 0.930 . S
N659 C657 1.314 . S
N659 C658 1.279 . S
C660 C662 1.353 . S
C660 N663 1.314 . S
C660 H666 0.930 . S
C661 N663 1.279 . S
C661 C664 1.358 . S
C661 H667 0.930 . S
C662 C660 1.353 . S
C662 C665 1.348 . S
C662 H700 0.929 . S
N663 Li618 1.990 . S
N663 C660 1.314 . S
N663 C661 1.279 . S
C664 C661 1.358 . S
C664 C665 1.356 . S
C664 H701 0.930 . S
C665 C662 1.348 . S
C665 C664 1.356 . S
H666 C660 0.930 . S
H667 C661 0.930 . S
C668 N669 1.314 . S
C668 C670 1.353 . S
C668 H674 0.930 . S
N669 Li619 1.990 . S
N669 C668 1.314 . S
N669 C672 1.279 . S
C670 C668 1.353 . S
C670 C673 1.348 . S
C670 H702 0.929 . S
C671 C672 1.358 . S
C671 C673 1.356 . S
C671 H703 0.930 . S
C672 N669 1.279 . S
C672 C671 1.358 . S
C672 H675 0.930 . S
C673 C670 1.348 . S
C673 C671 1.356 . S
H674 C668 0.930 . S
H675 C672 0.930 . S
O676 Li616 1.956 . S
O676 Li617 1.970 . S
O676 Li618 1.961 . S
O676 C620 1.325 . S
O677 Li616 1.970 . S
O677 Li617 1.956 . S
O677 Li619 1.961 . S
O677 C626 1.325 . S
O678 Li616 1.961 . S
O678 Li618 1.956 . S
O678 Li619 1.970 . S
O678 C648 1.325 . S
O679 Li617 1.961 . S
O679 Li618 1.970 . S
O679 Li619 1.956 . S
O679 C654 1.325 . S
H680 C622 0.929 . S
H681 C623 0.930 . S
H682 C624 0.930 . S
H683 C625 0.930 . S
H684 C627 0.930 . S
H685 C629 0.929 . S
H686 C630 0.930 . S
H687 C631 0.930 . S
H688 C634 0.930 . S
H689 C637 0.929 . S
H690 C642 0.929 . S
H691 C643 0.930 . S
H692 C650 0.929 . S
H693 C651 0.930 . S
H694 C652 0.930 . S
H695 C653 0.930 . S
H696 C655 0.929 . S
H697 C656 0.930 . S
H698 C657 0.930 . S
H699 C658 0.930 . S
H700 C662 0.929 . S
H701 C664 0.930 . S
H702 C670 0.929 . S
H703 C671 0.930 . S
Li704 N721 1.990 . S
Li704 O764 1.956 . S
Li704 O765 1.970 . S
Li704 O766 1.961 . S
Li705 N729 1.990 . S
Li705 O764 1.970 . S
Li705 O765 1.956 . S
Li705 O767 1.961 . S
Li706 N751 1.990 . S
Li706 O764 1.961 . S
Li706 O766 1.956 . S
Li706 O767 1.970 . S
Li707 N757 1.990 . S
Li707 O765 1.961 . S
Li707 O766 1.970 . S
Li707 O767 1.956 . S
C708 C710 1.348 . S
C708 C711 1.356 . S
C708 O764 1.325 . S
N709 C712 1.314 . S
N709 C713 1.279 . S
C710 C708 1.348 . S
C710 C712 1.353 . S
C710 H768 0.929 . S
C711 C708 1.356 . S
C711 C713 1.358 . S
C711 H769 0.930 . S
C712 N709 1.314 . S
C712 C710 1.353 . S
C712 H770 0.930 . S
C713 N709 1.279 . S
C713 C711 1.358 . S
C713 H771 0.930 . S
C714 C717 1.348 . S
C714 C718 1.356 . S
C714 O765 1.325 . S
C715 N716 1.279 . S
C715 C718 1.358 . S
C715 H772 0.930 . S
N716 C715 1.279 . S
N716 C719 1.314 . S
C717 C714 1.348 . S
C717 C719 1.353 . S
C717 H773 0.929 . S
C718 C714 1.356 . S
C718 C715 1.358 . S
C718 H774 0.930 . S
C719 N716 1.314 . S
C719 C717 1.353 . S
C719 H775 0.930 . S
C720 N721 1.314 . S
C720 C725 1.353 . S
C720 H726 0.930 . S
N721 Li704 1.990 . S
N721 C720 1.314 . S
N721 C723 1.279 . S
C722 C723 1.358 . S
C722 C724 1.356 . S
C722 H776 0.930 . S
C723 N721 1.279 . S
C723 C722 1.358 . S
C723 H727 0.930 . S
C724 C722 1.356 . S
C724 C725 1.348 . S
C725 C720 1.353 . S
C725 C724 1.348 . S
C725 H777 0.929 . S
H726 C720 0.930 . S
H727 C723 0.930 . S
C728 N729 1.314 . S
C728 C730 1.353 . S
C728 H734 0.930 . S
N729 Li705 1.990 . S
N729 C728 1.314 . S
N729 C732 1.279 . S
C730 C728 1.353 . S
C730 C733 1.348 . S
C730 H778 0.929 . S
C731 C732 1.358 . S
C731 C733 1.356 . S
C731 H779 0.930 . S
C732 N729 1.279 . S
C732 C731 1.358 . S
C732 H735 0.930 . S
C733 C730 1.348 . S
C733 C731 1.356 . S
H734 C728 0.930 . S
H735 C732 0.930 . S
C736 C738 1.348 . S
C736 C739 1.356 . S
C736 O766 1.325 . S
N737 C740 1.314 . S
N737 C741 1.279 . S
C738 C736 1.348 . S
C738 C740 1.353 . S
C738 H780 0.929 . S
C739 C736 1.356 . S
C739 C741 1.358 . S
C739 H781 0.930 . S
C740 N737 1.314 . S
C740 C738 1.353 . S
C740 H782 0.930 . S
C741 N737 1.279 . S
C741 C739 1.358 . S
C741 H783 0.930 . S
C742 C743 1.348 . S
C742 C744 1.356 . S
C742 O767 1.325 . S
C743 C742 1.348 . S
C743 C745 1.353 . S
C743 H784 0.929 . S
C744 C742 1.356 . S
C744 C746 1.358 . S
C744 H785 0.930 . S
C745 C743 1.353 . S
C745 N747 1.314 . S
C745 H786 0.930 . S
C746 C744 1.358 . S
C746 N747 1.279 . S
C746 H787 0.930 . S
N747 C745 1.314 . S
N747 C746 1.279 . S
C748 C750 1.353 . S
C748 N751 1.314 . S
C748 H754 0.930 . S
C749 N751 1.279 . S
C749 C752 1.358 . S
C749 H755 0.930 . S
C750 C748 1.353 . S
C750 C753 1.348 . S
C750 H788 0.929 . S
N751 Li706 1.990 . S
N751 C748 1.314 . S
N751 C749 1.279 . S
C752 C749 1.358 . S
C752 C753 1.356 . S
C752 H789 0.930 . S
C753 C750 1.348 . S
C753 C752 1.356 . S
H754 C748 0.930 . S
H755 C749 0.930 . S
C756 N757 1.314 . S
C756 C758 1.353 . S
C756 H762 0.930 . S
N757 Li707 1.990 . S
N757 C756 1.314 . S
N757 C760 1.279 . S
C758 C756 1.353 . S
C758 C761 1.348 . S
C758 H790 0.929 . S
C759 C760 1.358 . S
C759 C761 1.356 . S
C759 H791 0.930 . S
C760 N757 1.279 . S
C760 C759 1.358 . S
C760 H763 0.930 . S
C761 C758 1.348 . S
C761 C759 1.356 . S
H762 C756 0.930 . S
H763 C760 0.930 . S
O764 Li704 1.956 . S
O764 Li705 1.970 . S
O764 Li706 1.961 . S
O764 C708 1.325 . S
O765 Li704 1.970 . S
O765 Li705 1.956 . S
O765 Li707 1.961 . S
O765 C714 1.325 . S
O766 Li704 1.961 . S
O766 Li706 1.956 . S
O766 Li707 1.970 . S
O766 C736 1.325 . S
O767 Li705 1.961 . S
O767 Li706 1.970 . S
O767 Li707 1.956 . S
O767 C742 1.325 . S
H768 C710 0.929 . S
H769 C711 0.930 . S
H770 C712 0.930 . S
H771 C713 0.930 . S
H772 C715 0.930 . S
H773 C717 0.929 . S
H774 C718 0.930 . S
H775 C719 0.930 . S
H776 C722 0.930 . S
H777 C725 0.929 . S
H778 C730 0.929 . S
H779 C731 0.930 . S
H780 C738 0.929 . S
H781 C739 0.930 . S
H782 C740 0.930 . S
H783 C741 0.930 . S
H784 C743 0.929 . S
H785 C744 0.930 . S
H786 C745 0.930 . S
H787 C746 0.930 . S
H788 C750 0.929 . S
H789 C752 0.930 . S
H790 C758 0.929 . S
H791 C759 0.930 . S
Li792 N809 1.990 . S
Li792 O852 1.956 . S
Li792 O853 1.970 . S
Li792 O854 1.961 . S
Li793 N817 1.990 . S
Li793 O852 1.970 . S
Li793 O853 1.956 . S
Li793 O855 1.961 . S
Li794 N839 1.990 . S
Li794 O852 1.961 . S
Li794 O854 1.956 . S
Li794 O855 1.970 . S
Li795 N845 1.990 . S
Li795 O853 1.961 . S
Li795 O854 1.970 . S
Li795 O855 1.956 . S
C796 C798 1.348 . S
C796 C799 1.356 . S
C796 O852 1.325 . S
N797 C800 1.314 . S
N797 C801 1.279 . S
C798 C796 1.348 . S
C798 C800 1.353 . S
C798 H856 0.929 . S
C799 C796 1.356 . S
C799 C801 1.358 . S
C799 H857 0.930 . S
C800 N797 1.314 . S
C800 C798 1.353 . S
C800 H858 0.930 . S
C801 N797 1.279 . S
C801 C799 1.358 . S
C801 H859 0.930 . S
C802 C805 1.348 . S
C802 C806 1.356 . S
C802 O853 1.325 . S
C803 N804 1.279 . S
C803 C806 1.358 . S
C803 H860 0.930 . S
N804 C803 1.279 . S
N804 C807 1.314 . S
C805 C802 1.348 . S
C805 C807 1.353 . S
C805 H861 0.929 . S
C806 C802 1.356 . S
C806 C803 1.358 . S
C806 H862 0.930 . S
C807 N804 1.314 . S
C807 C805 1.353 . S
C807 H863 0.930 . S
C808 N809 1.314 . S
C808 C813 1.353 . S
C808 H814 0.930 . S
N809 Li792 1.990 . S
N809 C808 1.314 . S
N809 C811 1.279 . S
C810 C811 1.358 . S
C810 C812 1.356 . S
C810 H864 0.930 . S
C811 N809 1.279 . S
C811 C810 1.358 . S
C811 H815 0.930 . S
C812 C810 1.356 . S
C812 C813 1.348 . S
C813 C808 1.353 . S
C813 C812 1.348 . S
C813 H865 0.929 . S
H814 C808 0.930 . S
H815 C811 0.930 . S
C816 N817 1.314 . S
C816 C818 1.353 . S
C816 H822 0.930 . S
N817 Li793 1.990 . S
N817 C816 1.314 . S
N817 C820 1.279 . S
C818 C816 1.353 . S
C818 C821 1.348 . S
C818 H866 0.929 . S
C819 C820 1.358 . S
C819 C821 1.356 . S
C819 H867 0.930 . S
C820 N817 1.279 . S
C820 C819 1.358 . S
C820 H823 0.930 . S
C821 C818 1.348 . S
C821 C819 1.356 . S
H822 C816 0.930 . S
H823 C820 0.930 . S
C824 C826 1.348 . S
C824 C827 1.356 . S
C824 O854 1.325 . S
N825 C828 1.314 . S
N825 C829 1.279 . S
C826 C824 1.348 . S
C826 C828 1.353 . S
C826 H868 0.929 . S
C827 C824 1.356 . S
C827 C829 1.358 . S
C827 H869 0.930 . S
C828 N825 1.314 . S
C828 C826 1.353 . S
C828 H870 0.930 . S
C829 N825 1.279 . S
C829 C827 1.358 . S
C829 H871 0.930 . S
C830 C831 1.348 . S
C830 C832 1.356 . S
C830 O855 1.325 . S
C831 C830 1.348 . S
C831 C833 1.353 . S
C831 H872 0.929 . S
C832 C830 1.356 . S
C832 C834 1.358 . S
C832 H873 0.930 . S
C833 C831 1.353 . S
C833 N835 1.314 . S
C833 H874 0.930 . S
C834 C832 1.358 . S
C834 N835 1.279 . S
C834 H875 0.930 . S
N835 C833 1.314 . S
N835 C834 1.279 . S
C836 C838 1.353 . S
C836 N839 1.314 . S
C836 H842 0.930 . S
C837 N839 1.279 . S
C837 C840 1.358 . S
C837 H843 0.930 . S
C838 C836 1.353 . S
C838 C841 1.348 . S
C838 H876 0.929 . S
N839 Li794 1.990 . S
N839 C836 1.314 . S
N839 C837 1.279 . S
C840 C837 1.358 . S
C840 C841 1.356 . S
C840 H877 0.930 . S
C841 C838 1.348 . S
C841 C840 1.356 . S
H842 C836 0.930 . S
H843 C837 0.930 . S
C844 N845 1.314 . S
C844 C846 1.353 . S
C844 H850 0.930 . S
N845 Li795 1.990 . S
N845 C844 1.314 . S
N845 C848 1.279 . S
C846 C844 1.353 . S
C846 C849 1.348 . S
C846 H878 0.929 . S
C847 C848 1.358 . S
C847 C849 1.356 . S
C847 H879 0.930 . S
C848 N845 1.279 . S
C848 C847 1.358 . S
C848 H851 0.930 . S
C849 C846 1.348 . S
C849 C847 1.356 . S
H850 C844 0.930 . S
H851 C848 0.930 . S
O852 Li792 1.956 . S
O852 Li793 1.970 . S
O852 Li794 1.961 . S
O852 C796 1.325 . S
O853 Li792 1.970 . S
O853 Li793 1.956 . S
O853 Li795 1.961 . S
O853 C802 1.325 . S
O854 Li792 1.961 . S
O854 Li794 1.956 . S
O854 Li795 1.970 . S
O854 C824 1.325 . S
O855 Li793 1.961 . S
O855 Li794 1.970 . S
O855 Li795 1.956 . S
O855 C830 1.325 . S
H856 C798 0.929 . S
H857 C799 0.930 . S
H858 C800 0.930 . S
H859 C801 0.930 . S
H860 C803 0.930 . S
H861 C805 0.929 . S
H862 C806 0.930 . S
H863 C807 0.930 . S
H864 C810 0.930 . S
H865 C813 0.929 . S
H866 C818 0.929 . S
H867 C819 0.930 . S
H868 C826 0.929 . S
H869 C827 0.930 . S
H870 C828 0.930 . S
H871 C829 0.930 . S
H872 C831 0.929 . S
H873 C832 0.930 . S
H874 C833 0.930 . S
H875 C834 0.930 . S
H876 C838 0.929 . S
H877 C840 0.930 . S
H878 C846 0.929 . S
H879 C847 0.930 . S
Li880 N897 1.990 . S
Li880 O940 1.956 . S
Li880 O941 1.970 . S
Li880 O942 1.961 . S
Li881 N905 1.990 . S
Li881 O940 1.970 . S
Li881 O941 1.956 . S
Li881 O943 1.961 . S
Li882 N927 1.990 . S
Li882 O940 1.961 . S
Li882 O942 1.956 . S
Li882 O943 1.970 . S
Li883 N933 1.990 . S
Li883 O941 1.961 . S
Li883 O942 1.970 . S
Li883 O943 1.956 . S
C884 C886 1.348 . S
C884 C887 1.356 . S
C884 O940 1.325 . S
N885 C888 1.314 . S
N885 C889 1.279 . S
C886 C884 1.348 . S
C886 C888 1.353 . S
C886 H944 0.929 . S
C887 C884 1.356 . S
C887 C889 1.358 . S
C887 H945 0.930 . S
C888 N885 1.314 . S
C888 C886 1.353 . S
C888 H946 0.930 . S
C889 N885 1.279 . S
C889 C887 1.358 . S
C889 H947 0.930 . S
C890 C893 1.348 . S
C890 C894 1.356 . S
C890 O941 1.325 . S
C891 N892 1.279 . S
C891 C894 1.358 . S
C891 H948 0.930 . S
N892 C891 1.279 . S
N892 C895 1.314 . S
C893 C890 1.348 . S
C893 C895 1.353 . S
C893 H949 0.929 . S
C894 C890 1.356 . S
C894 C891 1.358 . S
C894 H950 0.930 . S
C895 N892 1.314 . S
C895 C893 1.353 . S
C895 H951 0.930 . S
C896 N897 1.314 . S
C896 C901 1.353 . S
C896 H902 0.930 . S
N897 Li880 1.990 . S
N897 C896 1.314 . S
N897 C899 1.279 . S
C898 C899 1.358 . S
C898 C900 1.356 . S
C898 H952 0.930 . S
C899 N897 1.279 . S
C899 C898 1.358 . S
C899 H903 0.930 . S
C900 C898 1.356 . S
C900 C901 1.348 . S
C901 C896 1.353 . S
C901 C900 1.348 . S
C901 H953 0.929 . S
H902 C896 0.930 . S
H903 C899 0.930 . S
C904 N905 1.314 . S
C904 C906 1.353 . S
C904 H910 0.930 . S
N905 Li881 1.990 . S
N905 C904 1.314 . S
N905 C908 1.279 . S
C906 C904 1.353 . S
C906 C909 1.348 . S
C906 H954 0.929 . S
C907 C908 1.358 . S
C907 C909 1.356 . S
C907 H955 0.930 . S
C908 N905 1.279 . S
C908 C907 1.358 . S
C908 H911 0.930 . S
C909 C906 1.348 . S
C909 C907 1.356 . S
H910 C904 0.930 . S
H911 C908 0.930 . S
C912 C914 1.348 . S
C912 C915 1.356 . S
C912 O942 1.325 . S
N913 C916 1.314 . S
N913 C917 1.279 . S
C914 C912 1.348 . S
C914 C916 1.353 . S
C914 H956 0.929 . S
C915 C912 1.356 . S
C915 C917 1.358 . S
C915 H957 0.930 . S
C916 N913 1.314 . S
C916 C914 1.353 . S
C916 H958 0.930 . S
C917 N913 1.279 . S
C917 C915 1.358 . S
C917 H959 0.930 . S
C918 C919 1.348 . S
C918 C920 1.356 . S
C918 O943 1.325 . S
C919 C918 1.348 . S
C919 C921 1.353 . S
C919 H960 0.929 . S
C920 C918 1.356 . S
C920 C922 1.358 . S
C920 H961 0.930 . S
C921 C919 1.353 . S
C921 N923 1.314 . S
C921 H962 0.930 . S
C922 C920 1.358 . S
C922 N923 1.279 . S
C922 H963 0.930 . S
N923 C921 1.314 . S
N923 C922 1.279 . S
C924 C926 1.353 . S
C924 N927 1.314 . S
C924 H930 0.930 . S
C925 N927 1.279 . S
C925 C928 1.358 . S
C925 H931 0.930 . S
C926 C924 1.353 . S
C926 C929 1.348 . S
C926 H964 0.929 . S
N927 Li882 1.990 . S
N927 C924 1.314 . S
N927 C925 1.279 . S
C928 C925 1.358 . S
C928 C929 1.356 . S
C928 H965 0.930 . S
C929 C926 1.348 . S
C929 C928 1.356 . S
H930 C924 0.930 . S
H931 C925 0.930 . S
C932 N933 1.314 . S
C932 C934 1.353 . S
C932 H938 0.930 . S
N933 Li883 1.990 . S
N933 C932 1.314 . S
N933 C936 1.279 . S
C934 C932 1.353 . S
C934 C937 1.348 . S
C934 H966 0.929 . S
C935 C936 1.358 . S
C935 C937 1.356 . S
C935 H967 0.930 . S
C936 N933 1.279 . S
C936 C935 1.358 . S
C936 H939 0.930 . S
C937 C934 1.348 . S
C937 C935 1.356 . S
H938 C932 0.930 . S
H939 C936 0.930 . S
O940 Li880 1.956 . S
O940 Li881 1.970 . S
O940 Li882 1.961 . S
O940 C884 1.325 . S
O941 Li880 1.970 . S
O941 Li881 1.956 . S
O941 Li883 1.961 . S
O941 C890 1.325 . S
O942 Li880 1.961 . S
O942 Li882 1.956 . S
O942 Li883 1.970 . S
O942 C912 1.325 . S
O943 Li881 1.961 . S
O943 Li882 1.970 . S
O943 Li883 1.956 . S
O943 C918 1.325 . S
H944 C886 0.929 . S
H945 C887 0.930 . S
H946 C888 0.930 . S
H947 C889 0.930 . S
H948 C891 0.930 . S
H949 C893 0.929 . S
H950 C894 0.930 . S
H951 C895 0.930 . S
H952 C898 0.930 . S
H953 C901 0.929 . S
H954 C906 0.929 . S
H955 C907 0.930 . S
H956 C914 0.929 . S
H957 C915 0.930 . S
H958 C916 0.930 . S
H959 C917 0.930 . S
H960 C919 0.929 . S
H961 C920 0.930 . S
H962 C921 0.930 . S
H963 C922 0.930 . S
H964 C926 0.929 . S
H965 C928 0.930 . S
H966 C934 0.929 . S
H967 C935 0.930 . S
Li968 N985 1.990 . S
Li968 O1028 1.956 . S
Li968 O1029 1.970 . S
Li968 O1030 1.961 . S
Li969 N993 1.990 . S
Li969 O1028 1.970 . S
Li969 O1029 1.956 . S
Li969 O1031 1.961 . S
Li970 N1015 1.990 . S
Li970 O1028 1.961 . S
Li970 O1030 1.956 . S
Li970 O1031 1.970 . S
Li971 N1021 1.990 . S
Li971 O1029 1.961 . S
Li971 O1030 1.970 . S
Li971 O1031 1.956 . S
C972 C974 1.348 . S
C972 C975 1.356 . S
C972 O1028 1.325 . S
N973 C976 1.314 . S
N973 C977 1.279 . S
C974 C972 1.348 . S
C974 C976 1.353 . S
C974 H1032 0.929 . S
C975 C972 1.356 . S
C975 C977 1.358 . S
C975 H1033 0.930 . S
C976 N973 1.314 . S
C976 C974 1.353 . S
C976 H1034 0.930 . S
C977 N973 1.279 . S
C977 C975 1.358 . S
C977 H1035 0.930 . S
C978 C981 1.348 . S
C978 C982 1.356 . S
C978 O1029 1.325 . S
C979 N980 1.279 . S
C979 C982 1.358 . S
C979 H1036 0.930 . S
N980 C979 1.279 . S
N980 C983 1.314 . S
C981 C978 1.348 . S
C981 C983 1.353 . S
C981 H1037 0.929 . S
C982 C978 1.356 . S
C982 C979 1.358 . S
C982 H1038 0.930 . S
C983 N980 1.314 . S
C983 C981 1.353 . S
C983 H1039 0.930 . S
C984 N985 1.314 . S
C984 C989 1.353 . S
C984 H990 0.930 . S
N985 Li968 1.990 . S
N985 C984 1.314 . S
N985 C987 1.279 . S
C986 C987 1.358 . S
C986 C988 1.356 . S
C986 H1040 0.930 . S
C987 N985 1.279 . S
C987 C986 1.358 . S
C987 H991 0.930 . S
C988 C986 1.356 . S
C988 C989 1.348 . S
C989 C984 1.353 . S
C989 C988 1.348 . S
C989 H1041 0.929 . S
H990 C984 0.930 . S
H991 C987 0.930 . S
C992 N993 1.314 . S
C992 C994 1.353 . S
C992 H998 0.930 . S
N993 Li969 1.990 . S
N993 C992 1.314 . S
N993 C996 1.279 . S
C994 C992 1.353 . S
C994 C997 1.348 . S
C994 H1042 0.929 . S
C995 C996 1.358 . S
C995 C997 1.356 . S
C995 H1043 0.930 . S
C996 N993 1.279 . S
C996 C995 1.358 . S
C996 H999 0.930 . S
C997 C994 1.348 . S
C997 C995 1.356 . S
H998 C992 0.930 . S
H999 C996 0.930 . S
C1000 C1002 1.348 . S
C1000 C1003 1.356 . S
C1000 O1030 1.325 . S
N1001 C1004 1.314 . S
N1001 C1005 1.279 . S
C1002 C1000 1.348 . S
C1002 C1004 1.353 . S
C1002 H1044 0.929 . S
C1003 C1000 1.356 . S
C1003 C1005 1.358 . S
C1003 H1045 0.930 . S
C1004 N1001 1.314 . S
C1004 C1002 1.353 . S
C1004 H1046 0.930 . S
C1005 N1001 1.279 . S
C1005 C1003 1.358 . S
C1005 H1047 0.930 . S
C1006 C1007 1.348 . S
C1006 C1008 1.356 . S
C1006 O1031 1.325 . S
C1007 C1006 1.348 . S
C1007 C1009 1.353 . S
C1007 H1048 0.929 . S
C1008 C1006 1.356 . S
C1008 C1010 1.358 . S
C1008 H1049 0.930 . S
C1009 C1007 1.353 . S
C1009 N1011 1.314 . S
C1009 H1050 0.930 . S
C1010 C1008 1.358 . S
C1010 N1011 1.279 . S
C1010 H1051 0.930 . S
N1011 C1009 1.314 . S
N1011 C1010 1.279 . S
C1012 C1014 1.353 . S
C1012 N1015 1.314 . S
C1012 H1018 0.930 . S
C1013 N1015 1.279 . S
C1013 C1016 1.358 . S
C1013 H1019 0.930 . S
C1014 C1012 1.353 . S
C1014 C1017 1.348 . S
C1014 H1052 0.929 . S
N1015 Li970 1.990 . S
N1015 C1012 1.314 . S
N1015 C1013 1.279 . S
C1016 C1013 1.358 . S
C1016 C1017 1.356 . S
C1016 H1053 0.930 . S
C1017 C1014 1.348 . S
C1017 C1016 1.356 . S
H1018 C1012 0.930 . S
H1019 C1013 0.930 . S
C1020 N1021 1.314 . S
C1020 C1022 1.353 . S
C1020 H1026 0.930 . S
N1021 Li971 1.990 . S
N1021 C1020 1.314 . S
N1021 C1024 1.279 . S
C1022 C1020 1.353 . S
C1022 C1025 1.348 . S
C1022 H1054 0.929 . S
C1023 C1024 1.358 . S
C1023 C1025 1.356 . S
C1023 H1055 0.930 . S
C1024 N1021 1.279 . S
C1024 C1023 1.358 . S
C1024 H1027 0.930 . S
C1025 C1022 1.348 . S
C1025 C1023 1.356 . S
H1026 C1020 0.930 . S
H1027 C1024 0.930 . S
O1028 Li968 1.956 . S
O1028 Li969 1.970 . S
O1028 Li970 1.961 . S
O1028 C972 1.325 . S
O1029 Li968 1.970 . S
O1029 Li969 1.956 . S
O1029 Li971 1.961 . S
O1029 C978 1.325 . S
O1030 Li968 1.961 . S
O1030 Li970 1.956 . S
O1030 Li971 1.970 . S
O1030 C1000 1.325 . S
O1031 Li969 1.961 . S
O1031 Li970 1.970 . S
O1031 Li971 1.956 . S
O1031 C1006 1.325 . S
H1032 C974 0.929 . S
H1033 C975 0.930 . S
H1034 C976 0.930 . S
H1035 C977 0.930 . S
H1036 C979 0.930 . S
H1037 C981 0.929 . S
H1038 C982 0.930 . S
H1039 C983 0.930 . S
H1040 C986 0.930 . S
H1041 C989 0.929 . S
H1042 C994 0.929 . S
H1043 C995 0.930 . S
H1044 C1002 0.929 . S
H1045 C1003 0.930 . S
H1046 C1004 0.930 . S
H1047 C1005 0.930 . S
H1048 C1007 0.929 . S
H1049 C1008 0.930 . S
H1050 C1009 0.930 . S
H1051 C1010 0.930 . S
H1052 C1014 0.929 . S
H1053 C1016 0.930 . S
H1054 C1022 0.929 . S
H1055 C1023 0.930 . S
Li1056 N1073 1.990 . S
Li1056 O1116 1.956 . S
Li1056 O1117 1.970 . S
Li1056 O1118 1.961 . S
Li1057 N1081 1.990 . S
Li1057 O1116 1.970 . S
Li1057 O1117 1.956 . S
Li1057 O1119 1.961 . S
Li1058 N1103 1.990 . S
Li1058 O1116 1.961 . S
Li1058 O1118 1.956 . S
Li1058 O1119 1.970 . S
Li1059 N1109 1.990 . S
Li1059 O1117 1.961 . S
Li1059 O1118 1.970 . S
Li1059 O1119 1.956 . S
C1060 C1062 1.348 . S
C1060 C1063 1.356 . S
C1060 O1116 1.325 . S
N1061 C1064 1.314 . S
N1061 C1065 1.279 . S
C1062 C1060 1.348 . S
C1062 C1064 1.353 . S
C1062 H1120 0.929 . S
C1063 C1060 1.356 . S
C1063 C1065 1.358 . S
C1063 H1121 0.930 . S
C1064 N1061 1.314 . S
C1064 C1062 1.353 . S
C1064 H1122 0.930 . S
C1065 N1061 1.279 . S
C1065 C1063 1.358 . S
C1065 H1123 0.930 . S
C1066 C1069 1.348 . S
C1066 C1070 1.356 . S
C1066 O1117 1.325 . S
C1067 N1068 1.279 . S
C1067 C1070 1.358 . S
C1067 H1124 0.930 . S
N1068 C1067 1.279 . S
N1068 C1071 1.314 . S
C1069 C1066 1.348 . S
C1069 C1071 1.353 . S
C1069 H1125 0.929 . S
C1070 C1066 1.356 . S
C1070 C1067 1.358 . S
C1070 H1126 0.930 . S
C1071 N1068 1.314 . S
C1071 C1069 1.353 . S
C1071 H1127 0.930 . S
C1072 N1073 1.314 . S
C1072 C1077 1.353 . S
C1072 H1078 0.930 . S
N1073 Li1056 1.990 . S
N1073 C1072 1.314 . S
N1073 C1075 1.279 . S
C1074 C1075 1.358 . S
C1074 C1076 1.356 . S
C1074 H1128 0.930 . S
C1075 N1073 1.279 . S
C1075 C1074 1.358 . S
C1075 H1079 0.930 . S
C1076 C1074 1.356 . S
C1076 C1077 1.348 . S
C1077 C1072 1.353 . S
C1077 C1076 1.348 . S
C1077 H1129 0.929 . S
H1078 C1072 0.930 . S
H1079 C1075 0.930 . S
C1080 N1081 1.314 . S
C1080 C1082 1.353 . S
C1080 H1086 0.930 . S
N1081 Li1057 1.990 . S
N1081 C1080 1.314 . S
N1081 C1084 1.279 . S
C1082 C1080 1.353 . S
C1082 C1085 1.348 . S
C1082 H1130 0.929 . S
C1083 C1084 1.358 . S
C1083 C1085 1.356 . S
C1083 H1131 0.930 . S
C1084 N1081 1.279 . S
C1084 C1083 1.358 . S
C1084 H1087 0.930 . S
C1085 C1082 1.348 . S
C1085 C1083 1.356 . S
H1086 C1080 0.930 . S
H1087 C1084 0.930 . S
C1088 C1090 1.348 . S
C1088 C1091 1.356 . S
C1088 O1118 1.325 . S
N1089 C1092 1.314 . S
N1089 C1093 1.279 . S
C1090 C1088 1.348 . S
C1090 C1092 1.353 . S
C1090 H1132 0.929 . S
C1091 C1088 1.356 . S
C1091 C1093 1.358 . S
C1091 H1133 0.930 . S
C1092 N1089 1.314 . S
C1092 C1090 1.353 . S
C1092 H1134 0.930 . S
C1093 N1089 1.279 . S
C1093 C1091 1.358 . S
C1093 H1135 0.930 . S
C1094 C1095 1.348 . S
C1094 C1096 1.356 . S
C1094 O1119 1.325 . S
C1095 C1094 1.348 . S
C1095 C1097 1.353 . S
C1095 H1136 0.929 . S
C1096 C1094 1.356 . S
C1096 C1098 1.358 . S
C1096 H1137 0.930 . S
C1097 C1095 1.353 . S
C1097 N1099 1.314 . S
C1097 H1138 0.930 . S
C1098 C1096 1.358 . S
C1098 N1099 1.279 . S
C1098 H1139 0.930 . S
N1099 C1097 1.314 . S
N1099 C1098 1.279 . S
C1100 C1102 1.353 . S
C1100 N1103 1.314 . S
C1100 H1106 0.930 . S
C1101 N1103 1.279 . S
C1101 C1104 1.358 . S
C1101 H1107 0.930 . S
C1102 C1100 1.353 . S
C1102 C1105 1.348 . S
C1102 H1140 0.929 . S
N1103 Li1058 1.990 . S
N1103 C1100 1.314 . S
N1103 C1101 1.279 . S
C1104 C1101 1.358 . S
C1104 C1105 1.356 . S
C1104 H1141 0.930 . S
C1105 C1102 1.348 . S
C1105 C1104 1.356 . S
H1106 C1100 0.930 . S
H1107 C1101 0.930 . S
C1108 N1109 1.314 . S
C1108 C1110 1.353 . S
C1108 H1114 0.930 . S
N1109 Li1059 1.990 . S
N1109 C1108 1.314 . S
N1109 C1112 1.279 . S
C1110 C1108 1.353 . S
C1110 C1113 1.348 . S
C1110 H1142 0.929 . S
C1111 C1112 1.358 . S
C1111 C1113 1.356 . S
C1111 H1143 0.930 . S
C1112 N1109 1.279 . S
C1112 C1111 1.358 . S
C1112 H1115 0.930 . S
C1113 C1110 1.348 . S
C1113 C1111 1.356 . S
H1114 C1108 0.930 . S
H1115 C1112 0.930 . S
O1116 Li1056 1.956 . S
O1116 Li1057 1.970 . S
O1116 Li1058 1.961 . S
O1116 C1060 1.325 . S
O1117 Li1056 1.970 . S
O1117 Li1057 1.956 . S
O1117 Li1059 1.961 . S
O1117 C1066 1.325 . S
O1118 Li1056 1.961 . S
O1118 Li1058 1.956 . S
O1118 Li1059 1.970 . S
O1118 C1088 1.325 . S
O1119 Li1057 1.961 . S
O1119 Li1058 1.970 . S
O1119 Li1059 1.956 . S
O1119 C1094 1.325 . S
H1120 C1062 0.929 . S
H1121 C1063 0.930 . S
H1122 C1064 0.930 . S
H1123 C1065 0.930 . S
H1124 C1067 0.930 . S
H1125 C1069 0.929 . S
H1126 C1070 0.930 . S
H1127 C1071 0.930 . S
H1128 C1074 0.930 . S
H1129 C1077 0.929 . S
H1130 C1082 0.929 . S
H1131 C1083 0.930 . S
H1132 C1090 0.929 . S
H1133 C1091 0.930 . S
H1134 C1092 0.930 . S
H1135 C1093 0.930 . S
H1136 C1095 0.929 . S
H1137 C1096 0.930 . S
H1138 C1097 0.930 . S
H1139 C1098 0.930 . S
H1140 C1102 0.929 . S
H1141 C1104 0.930 . S
H1142 C1110 0.929 . S
H1143 C1111 0.930 . S
Li1144 N1161 1.990 . S
Li1144 O1204 1.956 . S
Li1144 O1205 1.970 . S
Li1144 O1206 1.961 . S
Li1145 N1169 1.990 . S
Li1145 O1204 1.970 . S
Li1145 O1205 1.956 . S
Li1145 O1207 1.961 . S
Li1146 N1191 1.990 . S
Li1146 O1204 1.961 . S
Li1146 O1206 1.956 . S
Li1146 O1207 1.970 . S
Li1147 N1197 1.990 . S
Li1147 O1205 1.961 . S
Li1147 O1206 1.970 . S
Li1147 O1207 1.956 . S
C1148 C1150 1.348 . S
C1148 C1151 1.356 . S
C1148 O1204 1.325 . S
N1149 C1152 1.314 . S
N1149 C1153 1.279 . S
C1150 C1148 1.348 . S
C1150 C1152 1.353 . S
C1150 H1208 0.929 . S
C1151 C1148 1.356 . S
C1151 C1153 1.358 . S
C1151 H1209 0.930 . S
C1152 N1149 1.314 . S
C1152 C1150 1.353 . S
C1152 H1210 0.930 . S
C1153 N1149 1.279 . S
C1153 C1151 1.358 . S
C1153 H1211 0.930 . S
C1154 C1157 1.348 . S
C1154 C1158 1.356 . S
C1154 O1205 1.325 . S
C1155 N1156 1.279 . S
C1155 C1158 1.358 . S
C1155 H1212 0.930 . S
N1156 C1155 1.279 . S
N1156 C1159 1.314 . S
C1157 C1154 1.348 . S
C1157 C1159 1.353 . S
C1157 H1213 0.929 . S
C1158 C1154 1.356 . S
C1158 C1155 1.358 . S
C1158 H1214 0.930 . S
C1159 N1156 1.314 . S
C1159 C1157 1.353 . S
C1159 H1215 0.930 . S
C1160 N1161 1.314 . S
C1160 C1165 1.353 . S
C1160 H1166 0.930 . S
N1161 Li1144 1.990 . S
N1161 C1160 1.314 . S
N1161 C1163 1.279 . S
C1162 C1163 1.358 . S
C1162 C1164 1.356 . S
C1162 H1216 0.930 . S
C1163 N1161 1.279 . S
C1163 C1162 1.358 . S
C1163 H1167 0.930 . S
C1164 C1162 1.356 . S
C1164 C1165 1.348 . S
C1165 C1160 1.353 . S
C1165 C1164 1.348 . S
C1165 H1217 0.929 . S
H1166 C1160 0.930 . S
H1167 C1163 0.930 . S
C1168 N1169 1.314 . S
C1168 C1170 1.353 . S
C1168 H1174 0.930 . S
N1169 Li1145 1.990 . S
N1169 C1168 1.314 . S
N1169 C1172 1.279 . S
C1170 C1168 1.353 . S
C1170 C1173 1.348 . S
C1170 H1218 0.929 . S
C1171 C1172 1.358 . S
C1171 C1173 1.356 . S
C1171 H1219 0.930 . S
C1172 N1169 1.279 . S
C1172 C1171 1.358 . S
C1172 H1175 0.930 . S
C1173 C1170 1.348 . S
C1173 C1171 1.356 . S
H1174 C1168 0.930 . S
H1175 C1172 0.930 . S
C1176 C1178 1.348 . S
C1176 C1179 1.356 . S
C1176 O1206 1.325 . S
N1177 C1180 1.314 . S
N1177 C1181 1.279 . S
C1178 C1176 1.348 . S
C1178 C1180 1.353 . S
C1178 H1220 0.929 . S
C1179 C1176 1.356 . S
C1179 C1181 1.358 . S
C1179 H1221 0.930 . S
C1180 N1177 1.314 . S
C1180 C1178 1.353 . S
C1180 H1222 0.930 . S
C1181 N1177 1.279 . S
C1181 C1179 1.358 . S
C1181 H1223 0.930 . S
C1182 C1183 1.348 . S
C1182 C1184 1.356 . S
C1182 O1207 1.325 . S
C1183 C1182 1.348 . S
C1183 C1185 1.353 . S
C1183 H1224 0.929 . S
C1184 C1182 1.356 . S
C1184 C1186 1.358 . S
C1184 H1225 0.930 . S
C1185 C1183 1.353 . S
C1185 N1187 1.314 . S
C1185 H1226 0.930 . S
C1186 C1184 1.358 . S
C1186 N1187 1.279 . S
C1186 H1227 0.930 . S
N1187 C1185 1.314 . S
N1187 C1186 1.279 . S
C1188 C1190 1.353 . S
C1188 N1191 1.314 . S
C1188 H1194 0.930 . S
C1189 N1191 1.279 . S
C1189 C1192 1.358 . S
C1189 H1195 0.930 . S
C1190 C1188 1.353 . S
C1190 C1193 1.348 . S
C1190 H1228 0.929 . S
N1191 Li1146 1.990 . S
N1191 C1188 1.314 . S
N1191 C1189 1.279 . S
C1192 C1189 1.358 . S
C1192 C1193 1.356 . S
C1192 H1229 0.930 . S
C1193 C1190 1.348 . S
C1193 C1192 1.356 . S
H1194 C1188 0.930 . S
H1195 C1189 0.930 . S
C1196 N1197 1.314 . S
C1196 C1198 1.353 . S
C1196 H1202 0.930 . S
N1197 Li1147 1.990 . S
N1197 C1196 1.314 . S
N1197 C1200 1.279 . S
C1198 C1196 1.353 . S
C1198 C1201 1.348 . S
C1198 H1230 0.929 . S
C1199 C1200 1.358 . S
C1199 C1201 1.356 . S
C1199 H1231 0.930 . S
C1200 N1197 1.279 . S
C1200 C1199 1.358 . S
C1200 H1203 0.930 . S
C1201 C1198 1.348 . S
C1201 C1199 1.356 . S
H1202 C1196 0.930 . S
H1203 C1200 0.930 . S
O1204 Li1144 1.956 . S
O1204 Li1145 1.970 . S
O1204 Li1146 1.961 . S
O1204 C1148 1.325 . S
O1205 Li1144 1.970 . S
O1205 Li1145 1.956 . S
O1205 Li1147 1.961 . S
O1205 C1154 1.325 . S
O1206 Li1144 1.961 . S
O1206 Li1146 1.956 . S
O1206 Li1147 1.970 . S
O1206 C1176 1.325 . S
O1207 Li1145 1.961 . S
O1207 Li1146 1.970 . S
O1207 Li1147 1.956 . S
O1207 C1182 1.325 . S
H1208 C1150 0.929 . S
H1209 C1151 0.930 . S
H1210 C1152 0.930 . S
H1211 C1153 0.930 . S
H1212 C1155 0.930 . S
H1213 C1157 0.929 . S
H1214 C1158 0.930 . S
H1215 C1159 0.930 . S
H1216 C1162 0.930 . S
H1217 C1165 0.929 . S
H1218 C1170 0.929 . S
H1219 C1171 0.930 . S
H1220 C1178 0.929 . S
H1221 C1179 0.930 . S
H1222 C1180 0.930 . S
H1223 C1181 0.930 . S
H1224 C1183 0.929 . S
H1225 C1184 0.930 . S
H1226 C1185 0.930 . S
H1227 C1186 0.930 . S
H1228 C1190 0.929 . S
H1229 C1192 0.930 . S
H1230 C1198 0.929 . S
H1231 C1199 0.930 . S
Li1232 N1249 1.990 . S
Li1232 O1292 1.956 . S
Li1232 O1293 1.970 . S
Li1232 O1294 1.961 . S
Li1233 N1257 1.990 . S
Li1233 O1292 1.970 . S
Li1233 O1293 1.956 . S
Li1233 O1295 1.961 . S
Li1234 N1279 1.990 . S
Li1234 O1292 1.961 . S
Li1234 O1294 1.956 . S
Li1234 O1295 1.970 . S
Li1235 N1285 1.990 . S
Li1235 O1293 1.961 . S
Li1235 O1294 1.970 . S
Li1235 O1295 1.956 . S
C1236 C1238 1.348 . S
C1236 C1239 1.356 . S
C1236 O1292 1.325 . S
N1237 C1240 1.314 . S
N1237 C1241 1.279 . S
C1238 C1236 1.348 . S
C1238 C1240 1.353 . S
C1238 H1296 0.929 . S
C1239 C1236 1.356 . S
C1239 C1241 1.358 . S
C1239 H1297 0.930 . S
C1240 N1237 1.314 . S
C1240 C1238 1.353 . S
C1240 H1298 0.930 . S
C1241 N1237 1.279 . S
C1241 C1239 1.358 . S
C1241 H1299 0.930 . S
C1242 C1245 1.348 . S
C1242 C1246 1.356 . S
C1242 O1293 1.325 . S
C1243 N1244 1.279 . S
C1243 C1246 1.358 . S
C1243 H1300 0.930 . S
N1244 C1243 1.279 . S
N1244 C1247 1.314 . S
C1245 C1242 1.348 . S
C1245 C1247 1.353 . S
C1245 H1301 0.929 . S
C1246 C1242 1.356 . S
C1246 C1243 1.358 . S
C1246 H1302 0.930 . S
C1247 N1244 1.314 . S
C1247 C1245 1.353 . S
C1247 H1303 0.930 . S
C1248 N1249 1.314 . S
C1248 C1253 1.353 . S
C1248 H1254 0.930 . S
N1249 Li1232 1.990 . S
N1249 C1248 1.314 . S
N1249 C1251 1.279 . S
C1250 C1251 1.358 . S
C1250 C1252 1.356 . S
C1250 H1304 0.930 . S
C1251 N1249 1.279 . S
C1251 C1250 1.358 . S
C1251 H1255 0.930 . S
C1252 C1250 1.356 . S
C1252 C1253 1.348 . S
C1253 C1248 1.353 . S
C1253 C1252 1.348 . S
C1253 H1305 0.929 . S
H1254 C1248 0.930 . S
H1255 C1251 0.930 . S
C1256 N1257 1.314 . S
C1256 C1258 1.353 . S
C1256 H1262 0.930 . S
N1257 Li1233 1.990 . S
N1257 C1256 1.314 . S
N1257 C1260 1.279 . S
C1258 C1256 1.353 . S
C1258 C1261 1.348 . S
C1258 H1306 0.929 . S
C1259 C1260 1.358 . S
C1259 C1261 1.356 . S
C1259 H1307 0.930 . S
C1260 N1257 1.279 . S
C1260 C1259 1.358 . S
C1260 H1263 0.930 . S
C1261 C1258 1.348 . S
C1261 C1259 1.356 . S
H1262 C1256 0.930 . S
H1263 C1260 0.930 . S
C1264 C1266 1.348 . S
C1264 C1267 1.356 . S
C1264 O1294 1.325 . S
N1265 C1268 1.314 . S
N1265 C1269 1.279 . S
C1266 C1264 1.348 . S
C1266 C1268 1.353 . S
C1266 H1308 0.929 . S
C1267 C1264 1.356 . S
C1267 C1269 1.358 . S
C1267 H1309 0.930 . S
C1268 N1265 1.314 . S
C1268 C1266 1.353 . S
C1268 H1310 0.930 . S
C1269 N1265 1.279 . S
C1269 C1267 1.358 . S
C1269 H1311 0.930 . S
C1270 C1271 1.348 . S
C1270 C1272 1.356 . S
C1270 O1295 1.325 . S
C1271 C1270 1.348 . S
C1271 C1273 1.353 . S
C1271 H1312 0.929 . S
C1272 C1270 1.356 . S
C1272 C1274 1.358 . S
C1272 H1313 0.930 . S
C1273 C1271 1.353 . S
C1273 N1275 1.314 . S
C1273 H1314 0.930 . S
C1274 C1272 1.358 . S
C1274 N1275 1.279 . S
C1274 H1315 0.930 . S
N1275 C1273 1.314 . S
N1275 C1274 1.279 . S
C1276 C1278 1.353 . S
C1276 N1279 1.314 . S
C1276 H1282 0.930 . S
C1277 N1279 1.279 . S
C1277 C1280 1.358 . S
C1277 H1283 0.930 . S
C1278 C1276 1.353 . S
C1278 C1281 1.348 . S
C1278 H1316 0.929 . S
N1279 Li1234 1.990 . S
N1279 C1276 1.314 . S
N1279 C1277 1.279 . S
C1280 C1277 1.358 . S
C1280 C1281 1.356 . S
C1280 H1317 0.930 . S
C1281 C1278 1.348 . S
C1281 C1280 1.356 . S
H1282 C1276 0.930 . S
H1283 C1277 0.930 . S
C1284 N1285 1.314 . S
C1284 C1286 1.353 . S
C1284 H1290 0.930 . S
N1285 Li1235 1.990 . S
N1285 C1284 1.314 . S
N1285 C1288 1.279 . S
C1286 C1284 1.353 . S
C1286 C1289 1.348 . S
C1286 H1318 0.929 . S
C1287 C1288 1.358 . S
C1287 C1289 1.356 . S
C1287 H1319 0.930 . S
C1288 N1285 1.279 . S
C1288 C1287 1.358 . S
C1288 H1291 0.930 . S
C1289 C1286 1.348 . S
C1289 C1287 1.356 . S
H1290 C1284 0.930 . S
H1291 C1288 0.930 . S
O1292 Li1232 1.956 . S
O1292 Li1233 1.970 . S
O1292 Li1234 1.961 . S
O1292 C1236 1.325 . S
O1293 Li1232 1.970 . S
O1293 Li1233 1.956 . S
O1293 Li1235 1.961 . S
O1293 C1242 1.325 . S
O1294 Li1232 1.961 . S
O1294 Li1234 1.956 . S
O1294 Li1235 1.970 . S
O1294 C1264 1.325 . S
O1295 Li1233 1.961 . S
O1295 Li1234 1.970 . S
O1295 Li1235 1.956 . S
O1295 C1270 1.325 . S
H1296 C1238 0.929 . S
H1297 C1239 0.930 . S
H1298 C1240 0.930 . S
H1299 C1241 0.930 . S
H1300 C1243 0.930 . S
H1301 C1245 0.929 . S
H1302 C1246 0.930 . S
H1303 C1247 0.930 . S
H1304 C1250 0.930 . S
H1305 C1253 0.929 . S
H1306 C1258 0.929 . S
H1307 C1259 0.930 . S
H1308 C1266 0.929 . S
H1309 C1267 0.930 . S
H1310 C1268 0.930 . S
H1311 C1269 0.930 . S
H1312 C1271 0.929 . S
H1313 C1272 0.930 . S
H1314 C1273 0.930 . S
H1315 C1274 0.930 . S
H1316 C1278 0.929 . S
H1317 C1280 0.930 . S
H1318 C1286 0.929 . S
H1319 C1287 0.930 . S
Li1320 N1337 1.990 . S
Li1320 O1380 1.956 . S
Li1320 O1381 1.970 . S
Li1320 O1382 1.961 . S
Li1321 N1345 1.990 . S
Li1321 O1380 1.970 . S
Li1321 O1381 1.956 . S
Li1321 O1383 1.961 . S
Li1322 N1367 1.990 . S
Li1322 O1380 1.961 . S
Li1322 O1382 1.956 . S
Li1322 O1383 1.970 . S
Li1323 N1373 1.990 . S
Li1323 O1381 1.961 . S
Li1323 O1382 1.970 . S
Li1323 O1383 1.956 . S
C1324 C1326 1.348 . S
C1324 C1327 1.356 . S
C1324 O1380 1.325 . S
N1325 C1328 1.314 . S
N1325 C1329 1.279 . S
C1326 C1324 1.348 . S
C1326 C1328 1.353 . S
C1326 H1384 0.929 . S
C1327 C1324 1.356 . S
C1327 C1329 1.358 . S
C1327 H1385 0.930 . S
C1328 N1325 1.314 . S
C1328 C1326 1.353 . S
C1328 H1386 0.930 . S
C1329 N1325 1.279 . S
C1329 C1327 1.358 . S
C1329 H1387 0.930 . S
C1330 C1333 1.348 . S
C1330 C1334 1.356 . S
C1330 O1381 1.325 . S
C1331 N1332 1.279 . S
C1331 C1334 1.358 . S
C1331 H1388 0.930 . S
N1332 C1331 1.279 . S
N1332 C1335 1.314 . S
C1333 C1330 1.348 . S
C1333 C1335 1.353 . S
C1333 H1389 0.929 . S
C1334 C1330 1.356 . S
C1334 C1331 1.358 . S
C1334 H1390 0.930 . S
C1335 N1332 1.314 . S
C1335 C1333 1.353 . S
C1335 H1391 0.930 . S
C1336 N1337 1.314 . S
C1336 C1341 1.353 . S
C1336 H1342 0.930 . S
N1337 Li1320 1.990 . S
N1337 C1336 1.314 . S
N1337 C1339 1.279 . S
C1338 C1339 1.358 . S
C1338 C1340 1.356 . S
C1338 H1392 0.930 . S
C1339 N1337 1.279 . S
C1339 C1338 1.358 . S
C1339 H1343 0.930 . S
C1340 C1338 1.356 . S
C1340 C1341 1.348 . S
C1341 C1336 1.353 . S
C1341 C1340 1.348 . S
C1341 H1393 0.929 . S
H1342 C1336 0.930 . S
H1343 C1339 0.930 . S
C1344 N1345 1.314 . S
C1344 C1346 1.353 . S
C1344 H1350 0.930 . S
N1345 Li1321 1.990 . S
N1345 C1344 1.314 . S
N1345 C1348 1.279 . S
C1346 C1344 1.353 . S
C1346 C1349 1.348 . S
C1346 H1394 0.929 . S
C1347 C1348 1.358 . S
C1347 C1349 1.356 . S
C1347 H1395 0.930 . S
C1348 N1345 1.279 . S
C1348 C1347 1.358 . S
C1348 H1351 0.930 . S
C1349 C1346 1.348 . S
C1349 C1347 1.356 . S
H1350 C1344 0.930 . S
H1351 C1348 0.930 . S
C1352 C1354 1.348 . S
C1352 C1355 1.356 . S
C1352 O1382 1.325 . S
N1353 C1356 1.314 . S
N1353 C1357 1.279 . S
C1354 C1352 1.348 . S
C1354 C1356 1.353 . S
C1354 H1396 0.929 . S
C1355 C1352 1.356 . S
C1355 C1357 1.358 . S
C1355 H1397 0.930 . S
C1356 N1353 1.314 . S
C1356 C1354 1.353 . S
C1356 H1398 0.930 . S
C1357 N1353 1.279 . S
C1357 C1355 1.358 . S
C1357 H1399 0.930 . S
C1358 C1359 1.348 . S
C1358 C1360 1.356 . S
C1358 O1383 1.325 . S
C1359 C1358 1.348 . S
C1359 C1361 1.353 . S
C1359 H1400 0.929 . S
C1360 C1358 1.356 . S
C1360 C1362 1.358 . S
C1360 H1401 0.930 . S
C1361 C1359 1.353 . S
C1361 N1363 1.314 . S
C1361 H1402 0.930 . S
C1362 C1360 1.358 . S
C1362 N1363 1.279 . S
C1362 H1403 0.930 . S
N1363 C1361 1.314 . S
N1363 C1362 1.279 . S
C1364 C1366 1.353 . S
C1364 N1367 1.314 . S
C1364 H1370 0.930 . S
C1365 N1367 1.279 . S
C1365 C1368 1.358 . S
C1365 H1371 0.930 . S
C1366 C1364 1.353 . S
C1366 C1369 1.348 . S
C1366 H1404 0.929 . S
N1367 Li1322 1.990 . S
N1367 C1364 1.314 . S
N1367 C1365 1.279 . S
C1368 C1365 1.358 . S
C1368 C1369 1.356 . S
C1368 H1405 0.930 . S
C1369 C1366 1.348 . S
C1369 C1368 1.356 . S
H1370 C1364 0.930 . S
H1371 C1365 0.930 . S
C1372 N1373 1.314 . S
C1372 C1374 1.353 . S
C1372 H1378 0.930 . S
N1373 Li1323 1.990 . S
N1373 C1372 1.314 . S
N1373 C1376 1.279 . S
C1374 C1372 1.353 . S
C1374 C1377 1.348 . S
C1374 H1406 0.929 . S
C1375 C1376 1.358 . S
C1375 C1377 1.356 . S
C1375 H1407 0.930 . S
C1376 N1373 1.279 . S
C1376 C1375 1.358 . S
C1376 H1379 0.930 . S
C1377 C1374 1.348 . S
C1377 C1375 1.356 . S
H1378 C1372 0.930 . S
H1379 C1376 0.930 . S
O1380 Li1320 1.956 . S
O1380 Li1321 1.970 . S
O1380 Li1322 1.961 . S
O1380 C1324 1.325 . S
O1381 Li1320 1.970 . S
O1381 Li1321 1.956 . S
O1381 Li1323 1.961 . S
O1381 C1330 1.325 . S
O1382 Li1320 1.961 . S
O1382 Li1322 1.956 . S
O1382 Li1323 1.970 . S
O1382 C1352 1.325 . S
O1383 Li1321 1.961 . S
O1383 Li1322 1.970 . S
O1383 Li1323 1.956 . S
O1383 C1358 1.325 . S
H1384 C1326 0.929 . S
H1385 C1327 0.930 . S
H1386 C1328 0.930 . S
H1387 C1329 0.930 . S
H1388 C1331 0.930 . S
H1389 C1333 0.929 . S
H1390 C1334 0.930 . S
H1391 C1335 0.930 . S
H1392 C1338 0.930 . S
H1393 C1341 0.929 . S
H1394 C1346 0.929 . S
H1395 C1347 0.930 . S
H1396 C1354 0.929 . S
H1397 C1355 0.930 . S
H1398 C1356 0.930 . S
H1399 C1357 0.930 . S
H1400 C1359 0.929 . S
H1401 C1360 0.930 . S
H1402 C1361 0.930 . S
H1403 C1362 0.930 . S
H1404 C1366 0.929 . S
H1405 C1368 0.930 . S
H1406 C1374 0.929 . S
H1407 C1375 0.930 . S
Li1408 N1425 1.990 . S
Li1408 O1468 1.956 . S
Li1408 O1469 1.970 . S
Li1408 O1470 1.961 . S
Li1409 N1433 1.990 . S
Li1409 O1468 1.970 . S
Li1409 O1469 1.956 . S
Li1409 O1471 1.961 . S
Li1410 N1455 1.990 . S
Li1410 O1468 1.961 . S
Li1410 O1470 1.956 . S
Li1410 O1471 1.970 . S
Li1411 N1461 1.990 . S
Li1411 O1469 1.961 . S
Li1411 O1470 1.970 . S
Li1411 O1471 1.956 . S
C1412 C1414 1.348 . S
C1412 C1415 1.356 . S
C1412 O1468 1.325 . S
N1413 C1416 1.314 . S
N1413 C1417 1.279 . S
C1414 C1412 1.348 . S
C1414 C1416 1.353 . S
C1414 H1472 0.929 . S
C1415 C1412 1.356 . S
C1415 C1417 1.358 . S
C1415 H1473 0.930 . S
C1416 N1413 1.314 . S
C1416 C1414 1.353 . S
C1416 H1474 0.930 . S
C1417 N1413 1.279 . S
C1417 C1415 1.358 . S
C1417 H1475 0.930 . S
C1418 C1421 1.348 . S
C1418 C1422 1.356 . S
C1418 O1469 1.325 . S
C1419 N1420 1.279 . S
C1419 C1422 1.358 . S
C1419 H1476 0.930 . S
N1420 C1419 1.279 . S
N1420 C1423 1.314 . S
C1421 C1418 1.348 . S
C1421 C1423 1.353 . S
C1421 H1477 0.929 . S
C1422 C1418 1.356 . S
C1422 C1419 1.358 . S
C1422 H1478 0.930 . S
C1423 N1420 1.314 . S
C1423 C1421 1.353 . S
C1423 H1479 0.930 . S
C1424 N1425 1.314 . S
C1424 C1429 1.353 . S
C1424 H1430 0.930 . S
N1425 Li1408 1.990 . S
N1425 C1424 1.314 . S
N1425 C1427 1.279 . S
C1426 C1427 1.358 . S
C1426 C1428 1.356 . S
C1426 H1480 0.930 . S
C1427 N1425 1.279 . S
C1427 C1426 1.358 . S
C1427 H1431 0.930 . S
C1428 C1426 1.356 . S
C1428 C1429 1.348 . S
C1429 C1424 1.353 . S
C1429 C1428 1.348 . S
C1429 H1481 0.929 . S
H1430 C1424 0.930 . S
H1431 C1427 0.930 . S
C1432 N1433 1.314 . S
C1432 C1434 1.353 . S
C1432 H1438 0.930 . S
N1433 Li1409 1.990 . S
N1433 C1432 1.314 . S
N1433 C1436 1.279 . S
C1434 C1432 1.353 . S
C1434 C1437 1.348 . S
C1434 H1482 0.929 . S
C1435 C1436 1.358 . S
C1435 C1437 1.356 . S
C1435 H1483 0.930 . S
C1436 N1433 1.279 . S
C1436 C1435 1.358 . S
C1436 H1439 0.930 . S
C1437 C1434 1.348 . S
C1437 C1435 1.356 . S
H1438 C1432 0.930 . S
H1439 C1436 0.930 . S
C1440 C1442 1.348 . S
C1440 C1443 1.356 . S
C1440 O1470 1.325 . S
N1441 C1444 1.314 . S
N1441 C1445 1.279 . S
C1442 C1440 1.348 . S
C1442 C1444 1.353 . S
C1442 H1484 0.929 . S
C1443 C1440 1.356 . S
C1443 C1445 1.358 . S
C1443 H1485 0.930 . S
C1444 N1441 1.314 . S
C1444 C1442 1.353 . S
C1444 H1486 0.930 . S
C1445 N1441 1.279 . S
C1445 C1443 1.358 . S
C1445 H1487 0.930 . S
C1446 C1447 1.348 . S
C1446 C1448 1.356 . S
C1446 O1471 1.325 . S
C1447 C1446 1.348 . S
C1447 C1449 1.353 . S
C1447 H1488 0.929 . S
C1448 C1446 1.356 . S
C1448 C1450 1.358 . S
C1448 H1489 0.930 . S
C1449 C1447 1.353 . S
C1449 N1451 1.314 . S
C1449 H1490 0.930 . S
C1450 C1448 1.358 . S
C1450 N1451 1.279 . S
C1450 H1491 0.930 . S
N1451 C1449 1.314 . S
N1451 C1450 1.279 . S
C1452 C1454 1.353 . S
C1452 N1455 1.314 . S
C1452 H1458 0.930 . S
C1453 N1455 1.279 . S
C1453 C1456 1.358 . S
C1453 H1459 0.930 . S
C1454 C1452 1.353 . S
C1454 C1457 1.348 . S
C1454 H1492 0.929 . S
N1455 Li1410 1.990 . S
N1455 C1452 1.314 . S
N1455 C1453 1.279 . S
C1456 C1453 1.358 . S
C1456 C1457 1.356 . S
C1456 H1493 0.930 . S
C1457 C1454 1.348 . S
C1457 C1456 1.356 . S
H1458 C1452 0.930 . S
H1459 C1453 0.930 . S
C1460 N1461 1.314 . S
C1460 C1462 1.353 . S
C1460 H1466 0.930 . S
N1461 Li1411 1.990 . S
N1461 C1460 1.314 . S
N1461 C1464 1.279 . S
C1462 C1460 1.353 . S
C1462 C1465 1.348 . S
C1462 H1494 0.929 . S
C1463 C1464 1.358 . S
C1463 C1465 1.356 . S
C1463 H1495 0.930 . S
C1464 N1461 1.279 . S
C1464 C1463 1.358 . S
C1464 H1467 0.930 . S
C1465 C1462 1.348 . S
C1465 C1463 1.356 . S
H1466 C1460 0.930 . S
H1467 C1464 0.930 . S
O1468 Li1408 1.956 . S
O1468 Li1409 1.970 . S
O1468 Li1410 1.961 . S
O1468 C1412 1.325 . S
O1469 Li1408 1.970 . S
O1469 Li1409 1.956 . S
O1469 Li1411 1.961 . S
O1469 C1418 1.325 . S
O1470 Li1408 1.961 . S
O1470 Li1410 1.956 . S
O1470 Li1411 1.970 . S
O1470 C1440 1.325 . S
O1471 Li1409 1.961 . S
O1471 Li1410 1.970 . S
O1471 Li1411 1.956 . S
O1471 C1446 1.325 . S
H1472 C1414 0.929 . S
H1473 C1415 0.930 . S
H1474 C1416 0.930 . S
H1475 C1417 0.930 . S
H1476 C1419 0.930 . S
H1477 C1421 0.929 . S
H1478 C1422 0.930 . S
H1479 C1423 0.930 . S
H1480 C1426 0.930 . S
H1481 C1429 0.929 . S
H1482 C1434 0.929 . S
H1483 C1435 0.930 . S
H1484 C1442 0.929 . S
H1485 C1443 0.930 . S
H1486 C1444 0.930 . S
H1487 C1445 0.930 . S
H1488 C1447 0.929 . S
H1489 C1448 0.930 . S
H1490 C1449 0.930 . S
H1491 C1450 0.930 . S
H1492 C1454 0.929 . S
H1493 C1456 0.930 . S
H1494 C1462 0.929 . S
H1495 C1463 0.930 . S
Li1496 N1513 1.990 . S
Li1496 O1556 1.956 . S
Li1496 O1557 1.970 . S
Li1496 O1558 1.961 . S
Li1497 N1521 1.990 . S
Li1497 O1556 1.970 . S
Li1497 O1557 1.956 . S
Li1497 O1559 1.961 . S
Li1498 N1543 1.990 . S
Li1498 O1556 1.961 . S
Li1498 O1558 1.956 . S
Li1498 O1559 1.970 . S
Li1499 N1549 1.990 . S
Li1499 O1557 1.961 . S
Li1499 O1558 1.970 . S
Li1499 O1559 1.956 . S
C1500 C1502 1.348 . S
C1500 C1503 1.356 . S
C1500 O1556 1.325 . S
N1501 C1504 1.314 . S
N1501 C1505 1.279 . S
C1502 C1500 1.348 . S
C1502 C1504 1.353 . S
C1502 H1560 0.929 . S
C1503 C1500 1.356 . S
C1503 C1505 1.358 . S
C1503 H1561 0.930 . S
C1504 N1501 1.314 . S
C1504 C1502 1.353 . S
C1504 H1562 0.930 . S
C1505 N1501 1.279 . S
C1505 C1503 1.358 . S
C1505 H1563 0.930 . S
C1506 C1509 1.348 . S
C1506 C1510 1.356 . S
C1506 O1557 1.325 . S
C1507 N1508 1.279 . S
C1507 C1510 1.358 . S
C1507 H1564 0.930 . S
N1508 C1507 1.279 . S
N1508 C1511 1.314 . S
C1509 C1506 1.348 . S
C1509 C1511 1.353 . S
C1509 H1565 0.929 . S
C1510 C1506 1.356 . S
C1510 C1507 1.358 . S
C1510 H1566 0.930 . S
C1511 N1508 1.314 . S
C1511 C1509 1.353 . S
C1511 H1567 0.930 . S
C1512 N1513 1.314 . S
C1512 C1517 1.353 . S
C1512 H1518 0.930 . S
N1513 Li1496 1.990 . S
N1513 C1512 1.314 . S
N1513 C1515 1.279 . S
C1514 C1515 1.358 . S
C1514 C1516 1.356 . S
C1514 H1568 0.930 . S
C1515 N1513 1.279 . S
C1515 C1514 1.358 . S
C1515 H1519 0.930 . S
C1516 C1514 1.356 . S
C1516 C1517 1.348 . S
C1517 C1512 1.353 . S
C1517 C1516 1.348 . S
C1517 H1569 0.929 . S
H1518 C1512 0.930 . S
H1519 C1515 0.930 . S
C1520 N1521 1.314 . S
C1520 C1522 1.353 . S
C1520 H1526 0.930 . S
N1521 Li1497 1.990 . S
N1521 C1520 1.314 . S
N1521 C1524 1.279 . S
C1522 C1520 1.353 . S
C1522 C1525 1.348 . S
C1522 H1570 0.929 . S
C1523 C1524 1.358 . S
C1523 C1525 1.356 . S
C1523 H1571 0.930 . S
C1524 N1521 1.279 . S
C1524 C1523 1.358 . S
C1524 H1527 0.930 . S
C1525 C1522 1.348 . S
C1525 C1523 1.356 . S
H1526 C1520 0.930 . S
H1527 C1524 0.930 . S
C1528 C1530 1.348 . S
C1528 C1531 1.356 . S
C1528 O1558 1.325 . S
N1529 C1532 1.314 . S
N1529 C1533 1.279 . S
C1530 C1528 1.348 . S
C1530 C1532 1.353 . S
C1530 H1572 0.929 . S
C1531 C1528 1.356 . S
C1531 C1533 1.358 . S
C1531 H1573 0.930 . S
C1532 N1529 1.314 . S
C1532 C1530 1.353 . S
C1532 H1574 0.930 . S
C1533 N1529 1.279 . S
C1533 C1531 1.358 . S
C1533 H1575 0.930 . S
C1534 C1535 1.348 . S
C1534 C1536 1.356 . S
C1534 O1559 1.325 . S
C1535 C1534 1.348 . S
C1535 C1537 1.353 . S
C1535 H1576 0.929 . S
C1536 C1534 1.356 . S
C1536 C1538 1.358 . S
C1536 H1577 0.930 . S
C1537 C1535 1.353 . S
C1537 N1539 1.314 . S
C1537 H1578 0.930 . S
C1538 C1536 1.358 . S
C1538 N1539 1.279 . S
C1538 H1579 0.930 . S
N1539 C1537 1.314 . S
N1539 C1538 1.279 . S
C1540 C1542 1.353 . S
C1540 N1543 1.314 . S
C1540 H1546 0.930 . S
C1541 N1543 1.279 . S
C1541 C1544 1.358 . S
C1541 H1547 0.930 . S
C1542 C1540 1.353 . S
C1542 C1545 1.348 . S
C1542 H1580 0.929 . S
N1543 Li1498 1.990 . S
N1543 C1540 1.314 . S
N1543 C1541 1.279 . S
C1544 C1541 1.358 . S
C1544 C1545 1.356 . S
C1544 H1581 0.930 . S
C1545 C1542 1.348 . S
C1545 C1544 1.356 . S
H1546 C1540 0.930 . S
H1547 C1541 0.930 . S
C1548 N1549 1.314 . S
C1548 C1550 1.353 . S
C1548 H1554 0.930 . S
N1549 Li1499 1.990 . S
N1549 C1548 1.314 . S
N1549 C1552 1.279 . S
C1550 C1548 1.353 . S
C1550 C1553 1.348 . S
C1550 H1582 0.929 . S
C1551 C1552 1.358 . S
C1551 C1553 1.356 . S
C1551 H1583 0.930 . S
C1552 N1549 1.279 . S
C1552 C1551 1.358 . S
C1552 H1555 0.930 . S
C1553 C1550 1.348 . S
C1553 C1551 1.356 . S
H1554 C1548 0.930 . S
H1555 C1552 0.930 . S
O1556 Li1496 1.956 . S
O1556 Li1497 1.970 . S
O1556 Li1498 1.961 . S
O1556 C1500 1.325 . S
O1557 Li1496 1.970 . S
O1557 Li1497 1.956 . S
O1557 Li1499 1.961 . S
O1557 C1506 1.325 . S
O1558 Li1496 1.961 . S
O1558 Li1498 1.956 . S
O1558 Li1499 1.970 . S
O1558 C1528 1.325 . S
O1559 Li1497 1.961 . S
O1559 Li1498 1.970 . S
O1559 Li1499 1.956 . S
O1559 C1534 1.325 . S
H1560 C1502 0.929 . S
H1561 C1503 0.930 . S
H1562 C1504 0.930 . S
H1563 C1505 0.930 . S
H1564 C1507 0.930 . S
H1565 C1509 0.929 . S
H1566 C1510 0.930 . S
H1567 C1511 0.930 . S
H1568 C1514 0.930 . S
H1569 C1517 0.929 . S
H1570 C1522 0.929 . S
H1571 C1523 0.930 . S
H1572 C1530 0.929 . S
H1573 C1531 0.930 . S
H1574 C1532 0.930 . S
H1575 C1533 0.930 . S
H1576 C1535 0.929 . S
H1577 C1536 0.930 . S
H1578 C1537 0.930 . S
H1579 C1538 0.930 . S
H1580 C1542 0.929 . S
H1581 C1544 0.930 . S
H1582 C1550 0.929 . S
H1583 C1551 0.930 . S
C1584 C1585 1.349 . S
C1584 C1586 1.327 . S
C1584 H1609 0.950 . S
C1585 C1584 1.349 . S
C1585 C1601 1.349 . S
C1586 C1584 1.327 . S
C1586 C1605 1.429 . S
C1586 H1610 0.950 . S
C1587 C1604 1.574 . S
C1587 C1606 1.368 . S
C1587 H1611 0.949 . S
H1588 C1592 0.949 . S
C1589 C1590 1.349 . S
C1589 C1591 1.327 . S
C1589 H1612 0.950 . S
C1590 C1589 1.349 . S
C1590 C1602 1.349 . S
C1591 C1589 1.327 . S
C1591 C1607 1.429 . S
C1591 H1613 0.950 . S
C1592 H1588 0.949 . S
C1592 C1600 1.574 . S
C1592 C1608 1.368 . S
H1593 C1601 0.950 . S
H1594 C1599 0.950 . S
H1595 C1600 0.949 . S
H1596 C1602 0.950 . S
H1597 C1603 0.950 . S
H1598 C1604 0.949 . S
C1599 H1594 0.950 . S
C1599 C1601 1.327 . S
C1599 C1605 1.429 . S
C1600 C1592 1.574 . S
C1600 H1595 0.949 . S
C1600 C1606 1.368 . S
C1601 C1585 1.349 . S
C1601 H1593 0.950 . S
C1601 C1599 1.327 . S
C1602 C1590 1.349 . S
C1602 H1596 0.950 . S
C1602 C1603 1.327 . S
C1603 H1597 0.950 . S
C1603 C1602 1.327 . S
C1603 C1607 1.429 . S
C1604 C1587 1.574 . S
C1604 H1598 0.949 . S
C1604 C1608 1.368 . S
C1605 C1586 1.429 . S
C1605 C1599 1.429 . S
C1605 C1606 1.523 . S
C1606 C1587 1.368 . S
C1606 C1600 1.368 . S
C1606 C1605 1.523 . S
C1607 C1591 1.429 . S
C1607 C1603 1.429 . S
C1607 C1608 1.523 . S
C1608 C1592 1.368 . S
C1608 C1604 1.368 . S
C1608 C1607 1.523 . S
H1609 C1584 0.950 . S
H1610 C1586 0.950 . S
H1611 C1587 0.949 . S
H1612 C1589 0.950 . S
H1613 C1591 0.950 . S
C1614 C1615 1.349 . S
C1614 C1616 1.327 . S
C1614 H1639 0.950 . S
C1615 C1614 1.349 . S
C1615 C1631 1.349 . S
C1616 C1614 1.327 . S
C1616 C1635 1.429 . S
C1616 H1640 0.950 . S
C1617 C1634 1.574 . S
C1617 C1636 1.368 . S
C1617 H1641 0.949 . S
H1618 C1622 0.949 . S
C1619 C1620 1.349 . S
C1619 C1621 1.327 . S
C1619 H1642 0.950 . S
C1620 C1619 1.349 . S
C1620 C1632 1.349 . S
C1621 C1619 1.327 . S
C1621 C1637 1.429 . S
C1621 H1643 0.950 . S
C1622 H1618 0.949 . S
C1622 C1630 1.574 . S
C1622 C1638 1.368 . S
H1623 C1631 0.950 1_565 S
H1624 C1629 0.950 . S
H1625 C1630 0.949 . S
H1626 C1632 0.950 . S
H1627 C1633 0.950 . S
H1628 C1634 0.949 . S
C1629 H1624 0.950 . S
C1629 C1631 1.327 . S
C1629 C1635 1.429 . S
C1630 C1622 1.574 . S
C1630 H1625 0.949 . S
C1630 C1636 1.368 . S
C1631 C1615 1.349 . S
C1631 H1623 0.950 1_545 S
C1631 C1629 1.327 . S
C1632 C1620 1.349 . S
C1632 H1626 0.950 . S
C1632 C1633 1.327 . S
C1633 H1627 0.950 . S
C1633 C1632 1.327 . S
C1633 C1637 1.429 . S
C1634 C1617 1.574 . S
C1634 H1628 0.949 . S
C1634 C1638 1.368 . S
C1635 C1616 1.429 . S
C1635 C1629 1.429 . S
C1635 C1636 1.523 . S
C1636 C1617 1.368 . S
C1636 C1630 1.368 . S
C1636 C1635 1.523 . S
C1637 C1621 1.429 . S
C1637 C1633 1.429 . S
C1637 C1638 1.523 . S
C1638 C1622 1.368 . S
C1638 C1634 1.368 . S
C1638 C1637 1.523 . S
H1639 C1614 0.950 . S
H1640 C1616 0.950 . S
H1641 C1617 0.949 . S
H1642 C1619 0.950 . S
H1643 C1621 0.950 . S
C1644 C1645 1.349 . S
C1644 C1646 1.327 . S
C1644 H1669 0.950 . S
C1645 C1644 1.349 . S
C1645 C1661 1.349 . S
C1646 C1644 1.327 . S
C1646 C1665 1.429 . S
C1646 H1670 0.950 . S
C1647 C1664 1.574 . S
C1647 C1666 1.368 . S
C1647 H1671 0.949 . S
H1648 C1652 0.949 . S
C1649 C1650 1.349 . S
C1649 C1651 1.327 . S
C1649 H1672 0.950 . S
C1650 C1649 1.349 . S
C1650 C1662 1.349 . S
C1651 C1649 1.327 . S
C1651 C1667 1.429 . S
C1651 H1673 0.950 . S
C1652 H1648 0.949 . S
C1652 C1660 1.574 . S
C1652 C1668 1.368 . S
H1653 C1661 0.950 . S
H1654 C1659 0.950 . S
H1655 C1660 0.949 . S
H1656 C1662 0.950 1_455 S
H1657 C1663 0.950 . S
H1658 C1664 0.949 . S
C1659 H1654 0.950 . S
C1659 C1661 1.327 . S
C1659 C1665 1.429 . S
C1660 C1652 1.574 . S
C1660 H1655 0.949 . S
C1660 C1666 1.368 . S
C1661 C1645 1.349 . S
C1661 H1653 0.950 . S
C1661 C1659 1.327 . S
C1662 C1650 1.349 . S
C1662 H1656 0.950 1_655 S
C1662 C1663 1.327 . S
C1663 H1657 0.950 . S
C1663 C1662 1.327 . S
C1663 C1667 1.429 . S
C1664 C1647 1.574 . S
C1664 H1658 0.949 . S
C1664 C1668 1.368 . S
C1665 C1646 1.429 . S
C1665 C1659 1.429 . S
C1665 C1666 1.523 . S
C1666 C1647 1.368 . S
C1666 C1660 1.368 . S
C1666 C1665 1.523 . S
C1667 C1651 1.429 . S
C1667 C1663 1.429 . S
C1667 C1668 1.523 . S
C1668 C1652 1.368 . S
C1668 C1664 1.368 . S
C1668 C1667 1.523 . S
H1669 C1644 0.950 . S
H1670 C1646 0.950 . S
H1671 C1647 0.949 . S
H1672 C1649 0.950 . S
H1673 C1651 0.950 . S
C1674 C1675 1.349 . S
C1674 C1676 1.327 . S
C1674 H1699 0.950 . S
C1675 C1674 1.349 . S
C1675 C1691 1.349 . S
C1676 C1674 1.327 . S
C1676 C1695 1.429 . S
C1676 H1700 0.950 . S
C1677 C1694 1.574 . S
C1677 C1696 1.368 . S
C1677 H1701 0.949 . S
H1678 C1682 0.949 . S
C1679 C1680 1.349 . S
C1679 C1681 1.327 . S
C1679 H1702 0.950 . S
C1680 C1679 1.349 . S
C1680 C1692 1.349 . S
C1681 C1679 1.327 . S
C1681 C1697 1.429 . S
C1681 H1703 0.950 . S
C1682 H1678 0.949 . S
C1682 C1690 1.574 . S
C1682 C1698 1.368 . S
H1683 C1691 0.950 . S
H1684 C1689 0.950 . S
H1685 C1690 0.949 . S
H1686 C1692 0.950 . S
H1687 C1693 0.950 . S
H1688 C1694 0.949 . S
C1689 H1684 0.950 . S
C1689 C1691 1.327 . S
C1689 C1695 1.429 . S
C1690 C1682 1.574 . S
C1690 H1685 0.949 . S
C1690 C1696 1.368 . S
C1691 C1675 1.349 . S
C1691 H1683 0.950 . S
C1691 C1689 1.327 . S
C1692 C1680 1.349 . S
C1692 H1686 0.950 . S
C1692 C1693 1.327 . S
C1693 H1687 0.950 . S
C1693 C1692 1.327 . S
C1693 C1697 1.429 . S
C1694 C1677 1.574 . S
C1694 H1688 0.949 . S
C1694 C1698 1.368 . S
C1695 C1676 1.429 . S
C1695 C1689 1.429 . S
C1695 C1696 1.523 . S
C1696 C1677 1.368 . S
C1696 C1690 1.368 . S
C1696 C1695 1.523 . S
C1697 C1681 1.429 . S
C1697 C1693 1.429 . S
C1697 C1698 1.523 . S
C1698 C1682 1.368 . S
C1698 C1694 1.368 . S
C1698 C1697 1.523 . S
H1699 C1674 0.950 . S
H1700 C1676 0.950 . S
H1701 C1677 0.949 . S
H1702 C1679 0.950 . S
H1703 C1681 0.950 . S
C1704 C1705 1.349 . S
C1704 C1706 1.327 . S
C1704 H1729 0.950 1_565 S
C1705 C1704 1.349 . S
C1705 C1721 1.349 . S
C1706 C1704 1.327 . S
C1706 C1725 1.429 . S
C1706 H1730 0.950 . S
C1707 C1724 1.574 . S
C1707 C1726 1.368 . S
C1707 H1731 0.949 . S
H1708 C1712 0.949 . S
C1709 C1710 1.349 . S
C1709 C1711 1.327 . S
C1709 H1732 0.950 . S
C1710 C1709 1.349 . S
C1710 C1722 1.349 . S
C1711 C1709 1.327 . S
C1711 C1727 1.429 . S
C1711 H1733 0.950 . S
C1712 H1708 0.949 . S
C1712 C1720 1.574 . S
C1712 C1728 1.368 . S
H1713 C1721 0.950 . S
H1714 C1719 0.950 . S
H1715 C1720 0.949 . S
H1716 C1722 0.950 . S
H1717 C1723 0.950 . S
H1718 C1724 0.949 . S
C1719 H1714 0.950 . S
C1719 C1721 1.327 . S
C1719 C1725 1.429 . S
C1720 C1712 1.574 . S
C1720 H1715 0.949 . S
C1720 C1726 1.368 . S
C1721 C1705 1.349 . S
C1721 H1713 0.950 . S
C1721 C1719 1.327 . S
C1722 C1710 1.349 . S
C1722 H1716 0.950 . S
C1722 C1723 1.327 . S
C1723 H1717 0.950 . S
C1723 C1722 1.327 . S
C1723 C1727 1.429 . S
C1724 C1707 1.574 . S
C1724 H1718 0.949 . S
C1724 C1728 1.368 . S
C1725 C1706 1.429 . S
C1725 C1719 1.429 . S
C1725 C1726 1.523 . S
C1726 C1707 1.368 . S
C1726 C1720 1.368 . S
C1726 C1725 1.523 . S
C1727 C1711 1.429 . S
C1727 C1723 1.429 . S
C1727 C1728 1.523 . S
C1728 C1712 1.368 . S
C1728 C1724 1.368 . S
C1728 C1727 1.523 . S
H1729 C1704 0.950 1_545 S
H1730 C1706 0.950 . S
H1731 C1707 0.949 . S
H1732 C1709 0.950 . S
H1733 C1711 0.950 . S
C1734 C1735 1.349 . S
C1734 C1736 1.327 . S
C1734 H1759 0.950 . S
C1735 C1734 1.349 . S
C1735 C1751 1.349 . S
C1736 C1734 1.327 . S
C1736 C1755 1.429 . S
C1736 H1760 0.950 . S
C1737 C1754 1.574 . S
C1737 C1756 1.368 . S
C1737 H1761 0.949 . S
H1738 C1742 0.949 . S
C1739 C1740 1.349 . S
C1739 C1741 1.327 . S
C1739 H1762 0.950 . S
C1740 C1739 1.349 . S
C1740 C1752 1.349 . S
C1741 C1739 1.327 . S
C1741 C1757 1.429 . S
C1741 H1763 0.950 . S
C1742 H1738 0.949 . S
C1742 C1750 1.574 . S
C1742 C1758 1.368 . S
H1743 C1751 0.950 . S
H1744 C1749 0.950 . S
H1745 C1750 0.949 . S
H1746 C1752 0.950 . S
H1747 C1753 0.950 . S
H1748 C1754 0.949 . S
C1749 H1744 0.950 . S
C1749 C1751 1.327 . S
C1749 C1755 1.429 . S
C1750 C1742 1.574 . S
C1750 H1745 0.949 . S
C1750 C1756 1.368 . S
C1751 C1735 1.349 . S
C1751 H1743 0.950 . S
C1751 C1749 1.327 . S
C1752 C1740 1.349 . S
C1752 H1746 0.950 . S
C1752 C1753 1.327 . S
C1753 H1747 0.950 . S
C1753 C1752 1.327 . S
C1753 C1757 1.429 . S
C1754 C1737 1.574 . S
C1754 H1748 0.949 . S
C1754 C1758 1.368 . S
C1755 C1736 1.429 . S
C1755 C1749 1.429 . S
C1755 C1756 1.523 . S
C1756 C1737 1.368 . S
C1756 C1750 1.368 . S
C1756 C1755 1.523 . S
C1757 C1741 1.429 . S
C1757 C1753 1.429 . S
C1757 C1758 1.523 . S
C1758 C1742 1.368 . S
C1758 C1754 1.368 . S
C1758 C1757 1.523 . S
H1759 C1734 0.950 . S
H1760 C1736 0.950 . S
H1761 C1737 0.949 . S
H1762 C1739 0.950 . S
H1763 C1741 0.950 . S
C1764 C1765 1.349 . S
C1764 C1766 1.327 . S
C1764 H1789 0.950 . S
C1765 C1764 1.349 . S
C1765 C1781 1.349 . S
C1766 C1764 1.327 . S
C1766 C1785 1.429 . S
C1766 H1790 0.950 . S
C1767 C1784 1.574 1_655 S
C1767 C1786 1.368 . S
C1767 H1791 0.949 . S
H1768 C1772 0.949 . S
C1769 C1770 1.349 . S
C1769 C1771 1.327 . S
C1769 H1792 0.950 . S
C1770 C1769 1.349 . S
C1770 C1782 1.349 . S
C1771 C1769 1.327 . S
C1771 C1787 1.429 . S
C1771 H1793 0.950 . S
C1772 H1768 0.949 . S
C1772 C1780 1.574 1_455 S
C1772 C1788 1.368 . S
H1773 C1781 0.950 . S
H1774 C1779 0.950 . S
H1775 C1780 0.949 . S
H1776 C1782 0.950 . S
H1777 C1783 0.950 . S
H1778 C1784 0.949 . S
C1779 H1774 0.950 . S
C1779 C1781 1.327 . S
C1779 C1785 1.429 . S
C1780 C1772 1.574 1_655 S
C1780 H1775 0.949 . S
C1780 C1786 1.368 . S
C1781 C1765 1.349 . S
C1781 H1773 0.950 . S
C1781 C1779 1.327 . S
C1782 C1770 1.349 . S
C1782 H1776 0.950 . S
C1782 C1783 1.327 . S
C1783 H1777 0.950 . S
C1783 C1782 1.327 . S
C1783 C1787 1.429 . S
C1784 C1767 1.574 1_455 S
C1784 H1778 0.949 . S
C1784 C1788 1.368 . S
C1785 C1766 1.429 . S
C1785 C1779 1.429 . S
C1785 C1786 1.523 . S
C1786 C1767 1.368 . S
C1786 C1780 1.368 . S
C1786 C1785 1.523 . S
C1787 C1771 1.429 . S
C1787 C1783 1.429 . S
C1787 C1788 1.523 . S
C1788 C1772 1.368 . S
C1788 C1784 1.368 . S
C1788 C1787 1.523 . S
H1789 C1764 0.950 . S
H1790 C1766 0.950 . S
H1791 C1767 0.949 . S
H1792 C1769 0.950 . S
H1793 C1771 0.950 . S
C1794 C1795 1.349 . S
C1794 C1796 1.327 . S
C1794 H1819 0.950 . S
C1795 C1794 1.349 . S
C1795 C1811 1.349 . S
C1796 C1794 1.327 . S
C1796 C1815 1.429 . S
C1796 H1820 0.950 . S
C1797 C1814 1.574 . S
C1797 C1816 1.368 . S
C1797 H1821 0.949 . S
H1798 C1802 0.949 . S
C1799 C1800 1.349 . S
C1799 C1801 1.327 . S
C1799 H1822 0.950 . S
C1800 C1799 1.349 . S
C1800 C1812 1.349 . S
C1801 C1799 1.327 . S
C1801 C1817 1.429 . S
C1801 H1823 0.950 . S
C1802 H1798 0.949 . S
C1802 C1810 1.574 . S
C1802 C1818 1.368 . S
H1803 C1811 0.950 . S
H1804 C1809 0.950 . S
H1805 C1810 0.949 . S
H1806 C1812 0.950 . S
H1807 C1813 0.950 . S
H1808 C1814 0.949 . S
C1809 H1804 0.950 . S
C1809 C1811 1.327 . S
C1809 C1815 1.429 . S
C1810 C1802 1.574 . S
C1810 H1805 0.949 . S
C1810 C1816 1.368 . S
C1811 C1795 1.349 . S
C1811 H1803 0.950 . S
C1811 C1809 1.327 . S
C1812 C1800 1.349 . S
C1812 H1806 0.950 . S
C1812 C1813 1.327 . S
C1813 H1807 0.950 . S
C1813 C1812 1.327 . S
C1813 C1817 1.429 . S
C1814 C1797 1.574 . S
C1814 H1808 0.949 . S
C1814 C1818 1.368 . S
C1815 C1796 1.429 . S
C1815 C1809 1.429 . S
C1815 C1816 1.523 . S
C1816 C1797 1.368 . S
C1816 C1810 1.368 . S
C1816 C1815 1.523 . S
C1817 C1801 1.429 . S
C1817 C1813 1.429 . S
C1817 C1818 1.523 . S
C1818 C1802 1.368 . S
C1818 C1814 1.368 . S
C1818 C1817 1.523 . S
H1819 C1794 0.950 . S
H1820 C1796 0.950 . S
H1821 C1797 0.949 . S
H1822 C1799 0.950 . S
H1823 C1801 0.950 . S
C1824 C1825 1.349 . S
C1824 C1826 1.327 . S
C1824 H1849 0.950 . S
C1825 C1824 1.349 . S
C1825 C1841 1.349 . S
C1826 C1824 1.327 . S
C1826 C1845 1.429 . S
C1826 H1850 0.950 . S
C1827 C1844 1.573 . S
C1827 C1846 1.369 1_565 S
C1827 H1851 0.949 1_565 S
H1828 C1832 0.949 . S
C1829 C1830 1.349 . S
C1829 C1831 1.327 . S
C1829 H1852 0.950 . S
C1830 C1829 1.349 . S
C1830 C1842 1.349 . S
C1831 C1829 1.327 . S
C1831 C1847 1.429 . S
C1831 H1853 0.950 . S
C1832 H1828 0.949 . S
C1832 C1840 1.574 1_565 S
C1832 C1848 1.368 . S
H1833 C1841 0.950 . S
H1834 C1839 0.950 . S
H1835 C1840 0.949 . S
H1836 C1842 0.950 . S
H1837 C1843 0.950 . S
H1838 C1844 0.949 . S
C1839 H1834 0.950 . S
C1839 C1841 1.327 . S
C1839 C1845 1.429 . S
C1840 C1832 1.574 1_545 S
C1840 H1835 0.949 . S
C1840 C1846 1.368 . S
C1841 C1825 1.349 . S
C1841 H1833 0.950 . S
C1841 C1839 1.327 . S
C1842 C1830 1.349 . S
C1842 H1836 0.950 . S
C1842 C1843 1.327 . S
C1843 H1837 0.950 . S
C1843 C1842 1.327 . S
C1843 C1847 1.429 . S
C1844 C1827 1.573 . S
C1844 H1838 0.949 . S
C1844 C1848 1.368 . S
C1845 C1826 1.429 . S
C1845 C1839 1.429 . S
C1845 C1846 1.523 . S
C1846 C1827 1.369 1_545 S
C1846 C1840 1.368 . S
C1846 C1845 1.523 . S
C1847 C1831 1.429 . S
C1847 C1843 1.429 . S
C1847 C1848 1.523 . S
C1848 C1832 1.368 . S
C1848 C1844 1.368 . S
C1848 C1847 1.523 . S
H1849 C1824 0.950 . S
H1850 C1826 0.950 . S
H1851 C1827 0.949 1_545 S
H1852 C1829 0.950 . S
H1853 C1831 0.950 . S
C1854 C1855 1.349 . S
C1854 C1856 1.327 . S
C1854 H1879 0.950 . S
C1855 C1854 1.349 . S
C1855 C1871 1.349 . S
C1856 C1854 1.327 . S
C1856 C1875 1.429 . S
C1856 H1880 0.950 . S
C1857 C1874 1.574 1_455 S
C1857 C1876 1.368 . S
C1857 H1881 0.949 . S
H1858 C1862 0.949 . S
C1859 C1860 1.349 . S
C1859 C1861 1.327 . S
C1859 H1882 0.950 . S
C1860 C1859 1.349 . S
C1860 C1872 1.349 . S
C1861 C1859 1.327 . S
C1861 C1877 1.429 . S
C1861 H1883 0.950 . S
C1862 H1858 0.949 . S
C1862 C1870 1.574 1_655 S
C1862 C1878 1.368 . S
H1863 C1871 0.950 . S
H1864 C1869 0.950 . S
H1865 C1870 0.949 . S
H1866 C1872 0.950 . S
H1867 C1873 0.950 . S
H1868 C1874 0.949 . S
C1869 H1864 0.950 . S
C1869 C1871 1.327 . S
C1869 C1875 1.429 . S
C1870 C1862 1.574 1_455 S
C1870 H1865 0.949 . S
C1870 C1876 1.368 . S
C1871 C1855 1.349 . S
C1871 H1863 0.950 . S
C1871 C1869 1.327 . S
C1872 C1860 1.349 . S
C1872 H1866 0.950 . S
C1872 C1873 1.327 . S
C1873 H1867 0.950 . S
C1873 C1872 1.327 . S
C1873 C1877 1.429 . S
C1874 C1857 1.574 1_655 S
C1874 H1868 0.949 . S
C1874 C1878 1.368 . S
C1875 C1856 1.429 . S
C1875 C1869 1.429 . S
C1875 C1876 1.523 . S
C1876 C1857 1.368 . S
C1876 C1870 1.368 . S
C1876 C1875 1.523 . S
C1877 C1861 1.429 . S
C1877 C1873 1.429 . S
C1877 C1878 1.523 . S
C1878 C1862 1.368 . S
C1878 C1874 1.368 . S
C1878 C1877 1.523 . S
H1879 C1854 0.950 . S
H1880 C1856 0.950 . S
H1881 C1857 0.949 . S
H1882 C1859 0.950 . S
H1883 C1861 0.950 . S
C1884 C1885 1.349 . S
C1884 C1886 1.327 . S
C1884 H1909 0.950 . S
C1885 C1884 1.349 . S
C1885 C1901 1.349 . S
C1886 C1884 1.327 . S
C1886 C1905 1.429 . S
C1886 H1910 0.950 . S
C1887 C1904 1.574 . S
C1887 C1906 1.368 . S
C1887 H1911 0.949 . S
H1888 C1892 0.949 . S
C1889 C1890 1.349 . S
C1889 C1891 1.327 . S
C1889 H1912 0.950 . S
C1890 C1889 1.349 . S
C1890 C1902 1.349 . S
C1891 C1889 1.327 . S
C1891 C1907 1.429 . S
C1891 H1913 0.950 . S
C1892 H1888 0.949 . S
C1892 C1900 1.574 . S
C1892 C1908 1.368 . S
H1893 C1901 0.950 . S
H1894 C1899 0.950 . S
H1895 C1900 0.949 . S
H1896 C1902 0.950 . S
H1897 C1903 0.950 . S
H1898 C1904 0.949 . S
C1899 H1894 0.950 . S
C1899 C1901 1.327 . S
C1899 C1905 1.429 . S
C1900 C1892 1.574 . S
C1900 H1895 0.949 . S
C1900 C1906 1.368 . S
C1901 C1885 1.349 . S
C1901 H1893 0.950 . S
C1901 C1899 1.327 . S
C1902 C1890 1.349 . S
C1902 H1896 0.950 . S
C1902 C1903 1.327 . S
C1903 H1897 0.950 . S
C1903 C1902 1.327 . S
C1903 C1907 1.429 . S
C1904 C1887 1.574 . S
C1904 H1898 0.949 . S
C1904 C1908 1.368 . S
C1905 C1886 1.429 . S
C1905 C1899 1.429 . S
C1905 C1906 1.523 . S
C1906 C1887 1.368 . S
C1906 C1900 1.368 . S
C1906 C1905 1.523 . S
C1907 C1891 1.429 . S
C1907 C1903 1.429 . S
C1907 C1908 1.523 . S
C1908 C1892 1.368 . S
C1908 C1904 1.368 . S
C1908 C1907 1.523 . S
H1909 C1884 0.950 . S
H1910 C1886 0.950 . S
H1911 C1887 0.949 . S
H1912 C1889 0.950 . S
H1913 C1891 0.950 . S
C1914 C1915 1.349 . S
C1914 C1916 1.327 . S
C1914 H1939 0.950 . S
C1915 C1914 1.349 . S
C1915 C1931 1.349 . S
C1916 C1914 1.327 . S
C1916 C1935 1.429 . S
C1916 H1940 0.950 . S
C1917 C1934 1.574 1_545 S
C1917 C1936 1.368 . S
C1917 H1941 0.949 . S
H1918 C1922 0.949 . S
C1919 C1920 1.349 . S
C1919 C1921 1.327 . S
C1919 H1942 0.950 . S
C1920 C1919 1.349 . S
C1920 C1932 1.349 . S
C1921 C1919 1.327 . S
C1921 C1937 1.429 . S
C1921 H1943 0.950 . S
C1922 H1918 0.949 . S
C1922 C1930 1.574 1_565 S
C1922 C1938 1.368 . S
H1923 C1931 0.950 . S
H1924 C1929 0.950 . S
H1925 C1930 0.949 . S
H1926 C1932 0.950 . S
H1927 C1933 0.950 . S
H1928 C1934 0.949 . S
C1929 H1924 0.950 . S
C1929 C1931 1.327 . S
C1929 C1935 1.429 . S
C1930 C1922 1.574 1_545 S
C1930 H1925 0.949 . S
C1930 C1936 1.368 . S
C1931 C1915 1.349 . S
C1931 H1923 0.950 . S
C1931 C1929 1.327 . S
C1932 C1920 1.349 . S
C1932 H1926 0.950 . S
C1932 C1933 1.327 . S
C1933 H1927 0.950 . S
C1933 C1932 1.327 . S
C1933 C1937 1.429 . S
C1934 C1917 1.574 1_565 S
C1934 H1928 0.949 . S
C1934 C1938 1.368 . S
C1935 C1916 1.429 . S
C1935 C1929 1.429 . S
C1935 C1936 1.523 . S
C1936 C1917 1.368 . S
C1936 C1930 1.368 . S
C1936 C1935 1.523 . S
C1937 C1921 1.429 . S
C1937 C1933 1.429 . S
C1937 C1938 1.523 . S
C1938 C1922 1.368 . S
C1938 C1934 1.368 . S
C1938 C1937 1.523 . S
H1939 C1914 0.950 . S
H1940 C1916 0.950 . S
H1941 C1917 0.949 . S
H1942 C1919 0.950 . S
H1943 C1921 0.950 . S
C1944 C1945 1.349 . S
C1944 C1946 1.327 . S
C1944 H1969 0.950 . S
C1945 C1944 1.349 . S
C1945 C1961 1.349 . S
C1946 C1944 1.327 . S
C1946 C1965 1.429 . S
C1946 H1970 0.950 . S
C1947 C1964 1.574 1_565 S
C1947 C1966 1.368 . S
C1947 H1971 0.949 . S
H1948 C1952 0.949 . S
C1949 C1950 1.349 . S
C1949 C1951 1.327 . S
C1949 H1972 0.950 . S
C1950 C1949 1.349 . S
C1950 C1962 1.349 . S
C1951 C1949 1.327 . S
C1951 C1967 1.429 . S
C1951 H1973 0.950 . S
C1952 H1948 0.949 . S
C1952 C1960 1.574 1_545 S
C1952 C1968 1.368 . S
H1953 C1961 0.950 . S
H1954 C1959 0.950 . S
H1955 C1960 0.949 . S
H1956 C1962 0.950 . S
H1957 C1963 0.950 . S
H1958 C1964 0.949 . S
C1959 H1954 0.950 . S
C1959 C1961 1.327 . S
C1959 C1965 1.429 . S
C1960 C1952 1.574 1_565 S
C1960 H1955 0.949 . S
C1960 C1966 1.368 . S
C1961 C1945 1.349 . S
C1961 H1953 0.950 . S
C1961 C1959 1.327 . S
C1962 C1950 1.349 . S
C1962 H1956 0.950 . S
C1962 C1963 1.327 . S
C1963 H1957 0.950 . S
C1963 C1962 1.327 . S
C1963 C1967 1.429 . S
C1964 C1947 1.574 1_545 S
C1964 H1958 0.949 . S
C1964 C1968 1.368 . S
C1965 C1946 1.429 . S
C1965 C1959 1.429 . S
C1965 C1966 1.523 . S
C1966 C1947 1.368 . S
C1966 C1960 1.368 . S
C1966 C1965 1.523 . S
C1967 C1951 1.429 . S
C1967 C1963 1.429 . S
C1967 C1968 1.523 . S
C1968 C1952 1.368 . S
C1968 C1964 1.368 . S
C1968 C1967 1.523 . S
H1969 C1944 0.950 . S
H1970 C1946 0.950 . S
H1971 C1947 0.949 . S
H1972 C1949 0.950 . S
H1973 C1951 0.950 . S
C1974 C1975 1.349 . S
C1974 C1976 1.327 . S
C1974 H1999 0.950 . S
C1975 C1974 1.349 . S
C1975 C1991 1.349 . S
C1976 C1974 1.327 . S
C1976 C1995 1.429 . S
C1976 H2000 0.950 . S
C1977 C1994 1.574 1_455 S
C1977 C1996 1.368 . S
C1977 H2001 0.949 . S
H1978 C1982 0.949 . S
C1979 C1980 1.349 . S
C1979 C1981 1.327 . S
C1979 H2002 0.950 . S
C1980 C1979 1.349 . S
C1980 C1992 1.349 . S
C1981 C1979 1.327 . S
C1981 C1997 1.429 . S
C1981 H2003 0.950 . S
C1982 H1978 0.949 . S
C1982 C1990 1.574 1_655 S
C1982 C1998 1.368 . S
H1983 C1991 0.950 . S
H1984 C1989 0.950 . S
H1985 C1990 0.949 . S
H1986 C1992 0.950 . S
H1987 C1993 0.950 . S
H1988 C1994 0.949 . S
C1989 H1984 0.950 . S
C1989 C1991 1.327 . S
C1989 C1995 1.429 . S
C1990 C1982 1.574 1_455 S
C1990 H1985 0.949 . S
C1990 C1996 1.368 . S
C1991 C1975 1.349 . S
C1991 H1983 0.950 . S
C1991 C1989 1.327 . S
C1992 C1980 1.349 . S
C1992 H1986 0.950 . S
C1992 C1993 1.327 . S
C1993 H1987 0.950 . S
C1993 C1992 1.327 . S
C1993 C1997 1.429 . S
C1994 C1977 1.574 1_655 S
C1994 H1988 0.949 . S
C1994 C1998 1.368 . S
C1995 C1976 1.429 . S
C1995 C1989 1.429 . S
C1995 C1996 1.523 . S
C1996 C1977 1.368 . S
C1996 C1990 1.368 . S
C1996 C1995 1.523 . S
C1997 C1981 1.429 . S
C1997 C1993 1.429 . S
C1997 C1998 1.523 . S
C1998 C1982 1.368 . S
C1998 C1994 1.368 . S
C1998 C1997 1.523 . S
H1999 C1974 0.950 . S
H2000 C1976 0.950 . S
H2001 C1977 0.949 . S
H2002 C1979 0.950 . S
H2003 C1981 0.950 . S
C2004 C2005 1.349 . S
C2004 C2006 1.327 . S
C2004 H2029 0.950 . S
C2005 C2004 1.349 . S
C2005 C2021 1.349 . S
C2006 C2004 1.327 . S
C2006 C2025 1.429 . S
C2006 H2030 0.950 . S
C2007 C2024 1.574 . S
C2007 C2026 1.368 . S
C2007 H2031 0.949 . S
H2008 C2012 0.949 . S
C2009 C2010 1.349 . S
C2009 C2011 1.327 . S
C2009 H2032 0.950 . S
C2010 C2009 1.349 . S
C2010 C2022 1.349 . S
C2011 C2009 1.327 . S
C2011 C2027 1.429 . S
C2011 H2033 0.950 . S
C2012 H2008 0.949 . S
C2012 C2020 1.574 . S
C2012 C2028 1.368 . S
H2013 C2021 0.950 . S
H2014 C2019 0.950 . S
H2015 C2020 0.949 . S
H2016 C2022 0.950 . S
H2017 C2023 0.950 . S
H2018 C2024 0.949 . S
C2019 H2014 0.950 . S
C2019 C2021 1.327 . S
C2019 C2025 1.429 . S
C2020 C2012 1.574 . S
C2020 H2015 0.949 . S
C2020 C2026 1.368 . S
C2021 C2005 1.349 . S
C2021 H2013 0.950 . S
C2021 C2019 1.327 . S
C2022 C2010 1.349 . S
C2022 H2016 0.950 . S
C2022 C2023 1.327 . S
C2023 H2017 0.950 . S
C2023 C2022 1.327 . S
C2023 C2027 1.429 . S
C2024 C2007 1.574 . S
C2024 H2018 0.949 . S
C2024 C2028 1.368 . S
C2025 C2006 1.429 . S
C2025 C2019 1.429 . S
C2025 C2026 1.523 . S
C2026 C2007 1.368 . S
C2026 C2020 1.368 . S
C2026 C2025 1.523 . S
C2027 C2011 1.429 . S
C2027 C2023 1.429 . S
C2027 C2028 1.523 . S
C2028 C2012 1.368 . S
C2028 C2024 1.368 . S
C2028 C2027 1.523 . S
H2029 C2004 0.950 . S
H2030 C2006 0.950 . S
H2031 C2007 0.949 . S
H2032 C2009 0.950 . S
H2033 C2011 0.950 . S
C2034 C2035 1.349 . S
C2034 C2036 1.327 . S
C2034 H2059 0.950 . S
C2035 C2034 1.349 . S
C2035 C2051 1.349 . S
C2036 C2034 1.327 . S
C2036 C2055 1.429 . S
C2036 H2060 0.950 . S
C2037 C2054 1.574 . S
C2037 C2056 1.368 . S
C2037 H2061 0.949 . S
H2038 C2042 0.949 . S
C2039 C2040 1.349 . S
C2039 C2041 1.327 . S
C2039 H2062 0.950 . S
C2040 C2039 1.349 . S
C2040 C2052 1.349 . S
C2041 C2039 1.327 . S
C2041 C2057 1.429 . S
C2041 H2063 0.950 . S
C2042 H2038 0.949 . S
C2042 C2050 1.574 . S
C2042 C2058 1.368 . S
H2043 C2051 0.950 . S
H2044 C2049 0.950 . S
H2045 C2050 0.949 . S
H2046 C2052 0.950 . S
H2047 C2053 0.950 . S
H2048 C2054 0.949 . S
C2049 H2044 0.950 . S
C2049 C2051 1.327 . S
C2049 C2055 1.429 . S
C2050 C2042 1.574 . S
C2050 H2045 0.949 . S
C2050 C2056 1.368 . S
C2051 C2035 1.349 . S
C2051 H2043 0.950 . S
C2051 C2049 1.327 . S
C2052 C2040 1.349 . S
C2052 H2046 0.950 . S
C2052 C2053 1.327 . S
C2053 H2047 0.950 . S
C2053 C2052 1.327 . S
C2053 C2057 1.429 . S
C2054 C2037 1.574 . S
C2054 H2048 0.949 . S
C2054 C2058 1.368 . S
C2055 C2036 1.429 . S
C2055 C2049 1.429 . S
C2055 C2056 1.523 . S
C2056 C2037 1.368 . S
C2056 C2050 1.368 . S
C2056 C2055 1.523 . S
C2057 C2041 1.429 . S
C2057 C2053 1.429 . S
C2057 C2058 1.523 . S
C2058 C2042 1.368 . S
C2058 C2054 1.368 . S
C2058 C2057 1.523 . S
H2059 C2034 0.950 . S
H2060 C2036 0.950 . S
H2061 C2037 0.949 . S
H2062 C2039 0.950 . S
H2063 C2041 0.950 . S
C2064 C2065 1.349 . S
C2064 C2066 1.327 . S
C2064 H2089 0.950 . S
C2065 C2064 1.349 . S
C2065 C2081 1.349 . S
C2066 C2064 1.327 . S
C2066 C2085 1.429 . S
C2066 H2090 0.950 . S
C2067 C2084 1.574 . S
C2067 C2086 1.368 . S
C2067 H2091 0.949 . S
H2068 C2072 0.949 . S
C2069 C2070 1.349 . S
C2069 C2071 1.327 . S
C2069 H2092 0.950 . S
C2070 C2069 1.349 . S
C2070 C2082 1.349 . S
C2071 C2069 1.327 . S
C2071 C2087 1.429 . S
C2071 H2093 0.950 . S
C2072 H2068 0.949 . S
C2072 C2080 1.574 . S
C2072 C2088 1.368 . S
H2073 C2081 0.950 . S
H2074 C2079 0.950 . S
H2075 C2080 0.949 . S
H2076 C2082 0.950 . S
H2077 C2083 0.950 . S
H2078 C2084 0.949 . S
C2079 H2074 0.950 . S
C2079 C2081 1.327 . S
C2079 C2085 1.429 . S
C2080 C2072 1.574 . S
C2080 H2075 0.949 . S
C2080 C2086 1.368 . S
C2081 C2065 1.349 . S
C2081 H2073 0.950 . S
C2081 C2079 1.327 . S
C2082 C2070 1.349 . S
C2082 H2076 0.950 . S
C2082 C2083 1.327 . S
C2083 H2077 0.950 . S
C2083 C2082 1.327 . S
C2083 C2087 1.429 . S
C2084 C2067 1.574 . S
C2084 H2078 0.949 . S
C2084 C2088 1.368 . S
C2085 C2066 1.429 . S
C2085 C2079 1.429 . S
C2085 C2086 1.523 . S
C2086 C2067 1.368 . S
C2086 C2080 1.368 . S
C2086 C2085 1.523 . S
C2087 C2071 1.429 . S
C2087 C2083 1.429 . S
C2087 C2088 1.523 . S
C2088 C2072 1.368 . S
C2088 C2084 1.368 . S
C2088 C2087 1.523 . S
H2089 C2064 0.950 . S
H2090 C2066 0.950 . S
H2091 C2067 0.949 . S
H2092 C2069 0.950 . S
H2093 C2071 0.950 . S
C2094 C2095 1.349 . S
C2094 C2096 1.327 . S
C2094 H2119 0.950 . S
C2095 C2094 1.349 . S
C2095 C2111 1.349 . S
C2096 C2094 1.327 . S
C2096 C2115 1.429 . S
C2096 H2120 0.950 . S
C2097 C2114 1.574 . S
C2097 C2116 1.368 . S
C2097 H2121 0.949 . S
H2098 C2102 0.949 . S
C2099 C2100 1.349 . S
C2099 C2101 1.327 . S
C2099 H2122 0.950 . S
C2100 C2099 1.349 . S
C2100 C2112 1.349 . S
C2101 C2099 1.327 . S
C2101 C2117 1.429 . S
C2101 H2123 0.950 . S
C2102 H2098 0.949 . S
C2102 C2110 1.574 . S
C2102 C2118 1.368 . S
H2103 C2111 0.950 . S
H2104 C2109 0.950 . S
H2105 C2110 0.949 . S
H2106 C2112 0.950 . S
H2107 C2113 0.950 . S
H2108 C2114 0.949 . S
C2109 H2104 0.950 . S
C2109 C2111 1.327 . S
C2109 C2115 1.429 . S
C2110 C2102 1.574 . S
C2110 H2105 0.949 . S
C2110 C2116 1.368 . S
C2111 C2095 1.349 . S
C2111 H2103 0.950 . S
C2111 C2109 1.327 . S
C2112 C2100 1.349 . S
C2112 H2106 0.950 . S
C2112 C2113 1.327 . S
C2113 H2107 0.950 . S
C2113 C2112 1.327 . S
C2113 C2117 1.429 . S
C2114 C2097 1.574 . S
C2114 H2108 0.949 . S
C2114 C2118 1.368 . S
C2115 C2096 1.429 . S
C2115 C2109 1.429 . S
C2115 C2116 1.523 . S
C2116 C2097 1.368 . S
C2116 C2110 1.368 . S
C2116 C2115 1.523 . S
C2117 C2101 1.429 . S
C2117 C2113 1.429 . S
C2117 C2118 1.523 . S
C2118 C2102 1.368 . S
C2118 C2114 1.368 . S
C2118 C2117 1.523 . S
H2119 C2094 0.950 . S
H2120 C2096 0.950 . S
H2121 C2097 0.949 . S
H2122 C2099 0.950 . S
H2123 C2101 0.950 . S
C2124 C2125 1.349 . S
C2124 C2126 1.327 . S
C2124 H2149 0.950 . S
C2125 C2124 1.349 . S
C2125 C2141 1.349 . S
C2126 C2124 1.327 . S
C2126 C2145 1.429 . S
C2126 H2150 0.950 . S
C2127 C2144 1.574 . S
C2127 C2146 1.368 . S
C2127 H2151 0.949 . S
H2128 C2132 0.949 . S
C2129 C2130 1.349 . S
C2129 C2131 1.327 . S
C2129 H2152 0.950 . S
C2130 C2129 1.349 . S
C2130 C2142 1.349 . S
C2131 C2129 1.327 . S
C2131 C2147 1.429 . S
C2131 H2153 0.950 . S
C2132 H2128 0.949 . S
C2132 C2140 1.574 . S
C2132 C2148 1.368 . S
H2133 C2141 0.950 . S
H2134 C2139 0.950 . S
H2135 C2140 0.949 . S
H2136 C2142 0.950 . S
H2137 C2143 0.950 . S
H2138 C2144 0.949 . S
C2139 H2134 0.950 . S
C2139 C2141 1.327 . S
C2139 C2145 1.429 . S
C2140 C2132 1.574 . S
C2140 H2135 0.949 . S
C2140 C2146 1.368 . S
C2141 C2125 1.349 . S
C2141 H2133 0.950 . S
C2141 C2139 1.327 . S
C2142 C2130 1.349 . S
C2142 H2136 0.950 . S
C2142 C2143 1.327 . S
C2143 H2137 0.950 . S
C2143 C2142 1.327 . S
C2143 C2147 1.429 . S
C2144 C2127 1.574 . S
C2144 H2138 0.949 . S
C2144 C2148 1.368 . S
C2145 C2126 1.429 . S
C2145 C2139 1.429 . S
C2145 C2146 1.523 . S
C2146 C2127 1.368 . S
C2146 C2140 1.368 . S
C2146 C2145 1.523 . S
C2147 C2131 1.429 . S
C2147 C2143 1.429 . S
C2147 C2148 1.523 . S
C2148 C2132 1.368 . S
C2148 C2144 1.368 . S
C2148 C2147 1.523 . S
H2149 C2124 0.950 . S
H2150 C2126 0.950 . S
H2151 C2127 0.949 . S
H2152 C2129 0.950 . S
H2153 C2131 0.950 . S
C2154 C2155 1.349 . S
C2154 C2156 1.327 . S
C2154 H2179 0.950 . S
C2155 C2154 1.349 . S
C2155 C2171 1.349 . S
C2156 C2154 1.327 . S
C2156 C2175 1.429 . S
C2156 H2180 0.950 . S
C2157 C2174 1.574 . S
C2157 C2176 1.368 . S
C2157 H2181 0.949 . S
H2158 C2162 0.949 . S
C2159 C2160 1.349 . S
C2159 C2161 1.327 . S
C2159 H2182 0.950 . S
C2160 C2159 1.349 . S
C2160 C2172 1.349 . S
C2161 C2159 1.327 . S
C2161 C2177 1.429 . S
C2161 H2183 0.950 . S
C2162 H2158 0.949 . S
C2162 C2170 1.574 . S
C2162 C2178 1.368 . S
H2163 C2171 0.950 . S
H2164 C2169 0.950 . S
H2165 C2170 0.949 . S
H2166 C2172 0.950 . S
H2167 C2173 0.950 . S
H2168 C2174 0.949 . S
C2169 H2164 0.950 . S
C2169 C2171 1.327 . S
C2169 C2175 1.429 . S
C2170 C2162 1.574 . S
C2170 H2165 0.949 . S
C2170 C2176 1.368 . S
C2171 C2155 1.349 . S
C2171 H2163 0.950 . S
C2171 C2169 1.327 . S
C2172 C2160 1.349 . S
C2172 H2166 0.950 . S
C2172 C2173 1.327 . S
C2173 H2167 0.950 . S
C2173 C2172 1.327 . S
C2173 C2177 1.429 . S
C2174 C2157 1.574 . S
C2174 H2168 0.949 . S
C2174 C2178 1.368 . S
C2175 C2156 1.429 . S
C2175 C2169 1.429 . S
C2175 C2176 1.523 . S
C2176 C2157 1.368 . S
C2176 C2170 1.368 . S
C2176 C2175 1.523 . S
C2177 C2161 1.429 . S
C2177 C2173 1.429 . S
C2177 C2178 1.523 . S
C2178 C2162 1.368 . S
C2178 C2174 1.368 . S
C2178 C2177 1.523 . S
H2179 C2154 0.950 . S
H2180 C2156 0.950 . S
H2181 C2157 0.949 . S
H2182 C2159 0.950 . S
H2183 C2161 0.950 . S
C2184 C2185 1.349 . S
C2184 C2186 1.327 . S
C2184 H2209 0.950 . S
C2185 C2184 1.349 . S
C2185 C2201 1.349 . S
C2186 C2184 1.327 . S
C2186 C2205 1.429 . S
C2186 H2210 0.950 . S
C2187 C2204 1.574 . S
C2187 C2206 1.368 . S
C2187 H2211 0.949 . S
H2188 C2192 0.949 . S
C2189 C2190 1.349 . S
C2189 C2191 1.327 . S
C2189 H2212 0.950 . S
C2190 C2189 1.349 . S
C2190 C2202 1.349 . S
C2191 C2189 1.327 . S
C2191 C2207 1.429 . S
C2191 H2213 0.950 . S
C2192 H2188 0.949 . S
C2192 C2200 1.574 . S
C2192 C2208 1.368 . S
H2193 C2201 0.950 . S
H2194 C2199 0.950 . S
H2195 C2200 0.949 . S
H2196 C2202 0.950 . S
H2197 C2203 0.950 . S
H2198 C2204 0.949 . S
C2199 H2194 0.950 . S
C2199 C2201 1.327 . S
C2199 C2205 1.429 . S
C2200 C2192 1.574 . S
C2200 H2195 0.949 . S
C2200 C2206 1.368 . S
C2201 C2185 1.349 . S
C2201 H2193 0.950 . S
C2201 C2199 1.327 . S
C2202 C2190 1.349 . S
C2202 H2196 0.950 . S
C2202 C2203 1.327 . S
C2203 H2197 0.950 . S
C2203 C2202 1.327 . S
C2203 C2207 1.429 . S
C2204 C2187 1.574 . S
C2204 H2198 0.949 . S
C2204 C2208 1.368 . S
C2205 C2186 1.429 . S
C2205 C2199 1.429 . S
C2205 C2206 1.523 . S
C2206 C2187 1.368 . S
C2206 C2200 1.368 . S
C2206 C2205 1.523 . S
C2207 C2191 1.429 . S
C2207 C2203 1.429 . S
C2207 C2208 1.523 . S
C2208 C2192 1.368 . S
C2208 C2204 1.368 . S
C2208 C2207 1.523 . S
H2209 C2184 0.950 . S
H2210 C2186 0.950 . S
H2211 C2187 0.949 . S
H2212 C2189 0.950 . S
H2213 C2191 0.950 . S
C2214 C2215 1.349 . S
C2214 C2216 1.327 . S
C2214 H2239 0.950 . S
C2215 C2214 1.349 . S
C2215 C2231 1.349 . S
C2216 C2214 1.327 . S
C2216 C2235 1.429 . S
C2216 H2240 0.950 . S
C2217 C2234 1.574 . S
C2217 C2236 1.368 . S
C2217 H2241 0.949 . S
H2218 C2222 0.949 . S
C2219 C2220 1.349 . S
C2219 C2221 1.327 . S
C2219 H2242 0.950 . S
C2220 C2219 1.349 . S
C2220 C2232 1.349 . S
C2221 C2219 1.327 . S
C2221 C2237 1.429 . S
C2221 H2243 0.950 . S
C2222 H2218 0.949 . S
C2222 C2230 1.574 . S
C2222 C2238 1.368 . S
H2223 C2231 0.950 . S
H2224 C2229 0.950 . S
H2225 C2230 0.949 . S
H2226 C2232 0.950 . S
H2227 C2233 0.950 . S
H2228 C2234 0.949 . S
C2229 H2224 0.950 . S
C2229 C2231 1.327 . S
C2229 C2235 1.429 . S
C2230 C2222 1.574 . S
C2230 H2225 0.949 . S
C2230 C2236 1.368 . S
C2231 C2215 1.349 . S
C2231 H2223 0.950 . S
C2231 C2229 1.327 . S
C2232 C2220 1.349 . S
C2232 H2226 0.950 . S
C2232 C2233 1.327 . S
C2233 H2227 0.950 . S
C2233 C2232 1.327 . S
C2233 C2237 1.429 . S
C2234 C2217 1.574 . S
C2234 H2228 0.949 . S
C2234 C2238 1.368 . S
C2235 C2216 1.429 . S
C2235 C2229 1.429 . S
C2235 C2236 1.523 . S
C2236 C2217 1.368 . S
C2236 C2230 1.368 . S
C2236 C2235 1.523 . S
C2237 C2221 1.429 . S
C2237 C2233 1.429 . S
C2237 C2238 1.523 . S
C2238 C2222 1.368 . S
C2238 C2234 1.368 . S
C2238 C2237 1.523 . S
H2239 C2214 0.950 . S
H2240 C2216 0.950 . S
H2241 C2217 0.949 . S
H2242 C2219 0.950 . S
H2243 C2221 0.950 . S
C2244 C2245 1.349 . S
C2244 C2246 1.327 . S
C2244 H2269 0.950 . S
C2245 C2244 1.349 . S
C2245 C2261 1.349 . S
C2246 C2244 1.327 . S
C2246 C2265 1.429 . S
C2246 H2270 0.950 . S
C2247 C2264 1.574 . S
C2247 C2266 1.368 . S
C2247 H2271 0.949 . S
H2248 C2252 0.949 . S
C2249 C2250 1.349 . S
C2249 C2251 1.327 . S
C2249 H2272 0.950 . S
C2250 C2249 1.349 . S
C2250 C2262 1.349 . S
C2251 C2249 1.327 . S
C2251 C2267 1.429 . S
C2251 H2273 0.950 . S
C2252 H2248 0.949 . S
C2252 C2260 1.574 . S
C2252 C2268 1.368 . S
H2253 C2261 0.950 . S
H2254 C2259 0.950 . S
H2255 C2260 0.949 . S
H2256 C2262 0.950 . S
H2257 C2263 0.950 . S
H2258 C2264 0.949 . S
C2259 H2254 0.950 . S
C2259 C2261 1.327 . S
C2259 C2265 1.429 . S
C2260 C2252 1.574 . S
C2260 H2255 0.949 . S
C2260 C2266 1.368 . S
C2261 C2245 1.349 . S
C2261 H2253 0.950 . S
C2261 C2259 1.327 . S
C2262 C2250 1.349 . S
C2262 H2256 0.950 . S
C2262 C2263 1.327 . S
C2263 H2257 0.950 . S
C2263 C2262 1.327 . S
C2263 C2267 1.429 . S
C2264 C2247 1.574 . S
C2264 H2258 0.949 . S
C2264 C2268 1.368 . S
C2265 C2246 1.429 . S
C2265 C2259 1.429 . S
C2265 C2266 1.523 . S
C2266 C2247 1.368 . S
C2266 C2260 1.368 . S
C2266 C2265 1.523 . S
C2267 C2251 1.429 . S
C2267 C2263 1.429 . S
C2267 C2268 1.523 . S
C2268 C2252 1.368 . S
C2268 C2264 1.368 . S
C2268 C2267 1.523 . S
H2269 C2244 0.950 . S
H2270 C2246 0.950 . S
H2271 C2247 0.949 . S
H2272 C2249 0.950 . S
H2273 C2251 0.950 . S
C2274 C2275 1.349 . S
C2274 C2276 1.327 . S
C2274 H2299 0.950 . S
C2275 C2274 1.349 . S
C2275 C2291 1.349 . S
C2276 C2274 1.327 . S
C2276 C2295 1.429 . S
C2276 H2300 0.950 . S
C2277 C2294 1.574 . S
C2277 C2296 1.368 . S
C2277 H2301 0.949 . S
H2278 C2282 0.949 . S
C2279 C2280 1.349 . S
C2279 C2281 1.327 . S
C2279 H2302 0.950 . S
C2280 C2279 1.349 . S
C2280 C2292 1.349 . S
C2281 C2279 1.327 . S
C2281 C2297 1.429 . S
C2281 H2303 0.950 . S
C2282 H2278 0.949 . S
C2282 C2290 1.574 . S
C2282 C2298 1.368 . S
H2283 C2291 0.950 . S
H2284 C2289 0.950 . S
H2285 C2290 0.949 . S
H2286 C2292 0.950 . S
H2287 C2293 0.950 . S
H2288 C2294 0.949 . S
C2289 H2284 0.950 . S
C2289 C2291 1.327 . S
C2289 C2295 1.429 . S
C2290 C2282 1.574 . S
C2290 H2285 0.949 . S
C2290 C2296 1.368 . S
C2291 C2275 1.349 . S
C2291 H2283 0.950 . S
C2291 C2289 1.327 . S
C2292 C2280 1.349 . S
C2292 H2286 0.950 . S
C2292 C2293 1.327 . S
C2293 H2287 0.950 . S
C2293 C2292 1.327 . S
C2293 C2297 1.429 . S
C2294 C2277 1.574 . S
C2294 H2288 0.949 . S
C2294 C2298 1.368 . S
C2295 C2276 1.429 . S
C2295 C2289 1.429 . S
C2295 C2296 1.523 . S
C2296 C2277 1.368 . S
C2296 C2290 1.368 . S
C2296 C2295 1.523 . S
C2297 C2281 1.429 . S
C2297 C2293 1.429 . S
C2297 C2298 1.523 . S
C2298 C2282 1.368 . S
C2298 C2294 1.368 . S
C2298 C2297 1.523 . S
H2299 C2274 0.950 . S
H2300 C2276 0.950 . S
H2301 C2277 0.949 . S
H2302 C2279 0.950 . S
H2303 C2281 0.950 . S
C2304 C2305 1.349 . S
C2304 C2306 1.327 . S
C2304 H2329 0.950 . S
C2305 C2304 1.349 . S
C2305 C2321 1.349 . S
C2306 C2304 1.327 . S
C2306 C2325 1.429 . S
C2306 H2330 0.950 . S
C2307 C2324 1.574 . S
C2307 C2326 1.368 . S
C2307 H2331 0.949 . S
H2308 C2312 0.949 . S
C2309 C2310 1.349 . S
C2309 C2311 1.327 . S
C2309 H2332 0.950 . S
C2310 C2309 1.349 . S
C2310 C2322 1.349 . S
C2311 C2309 1.327 . S
C2311 C2327 1.429 . S
C2311 H2333 0.950 . S
C2312 H2308 0.949 . S
C2312 C2320 1.574 . S
C2312 C2328 1.368 . S
H2313 C2321 0.950 . S
H2314 C2319 0.950 . S
H2315 C2320 0.949 . S
H2316 C2322 0.950 . S
H2317 C2323 0.950 . S
H2318 C2324 0.949 . S
C2319 H2314 0.950 . S
C2319 C2321 1.327 . S
C2319 C2325 1.429 . S
C2320 C2312 1.574 . S
C2320 H2315 0.949 . S
C2320 C2326 1.368 . S
C2321 C2305 1.349 . S
C2321 H2313 0.950 . S
C2321 C2319 1.327 . S
C2322 C2310 1.349 . S
C2322 H2316 0.950 . S
C2322 C2323 1.327 . S
C2323 H2317 0.950 . S
C2323 C2322 1.327 . S
C2323 C2327 1.429 . S
C2324 C2307 1.574 . S
C2324 H2318 0.949 . S
C2324 C2328 1.368 . S
C2325 C2306 1.429 . S
C2325 C2319 1.429 . S
C2325 C2326 1.523 . S
C2326 C2307 1.368 . S
C2326 C2320 1.368 . S
C2326 C2325 1.523 . S
C2327 C2311 1.429 . S
C2327 C2323 1.429 . S
C2327 C2328 1.523 . S
C2328 C2312 1.368 . S
C2328 C2324 1.368 . S
C2328 C2327 1.523 . S
H2329 C2304 0.950 . S
H2330 C2306 0.950 . S
H2331 C2307 0.949 . S
H2332 C2309 0.950 . S
H2333 C2311 0.950 . S
C2334 C2335 1.349 . S
C2334 C2336 1.327 . S
C2334 H2359 0.950 . S
C2335 C2334 1.349 . S
C2335 C2351 1.349 . S
C2336 C2334 1.327 . S
C2336 C2355 1.429 . S
C2336 H2360 0.950 . S
C2337 C2354 1.574 . S
C2337 C2356 1.368 . S
C2337 H2361 0.949 . S
H2338 C2342 0.949 . S
C2339 C2340 1.349 . S
C2339 C2341 1.327 . S
C2339 H2362 0.950 . S
C2340 C2339 1.349 . S
C2340 C2352 1.349 . S
C2341 C2339 1.327 . S
C2341 C2357 1.429 . S
C2341 H2363 0.950 . S
C2342 H2338 0.949 . S
C2342 C2350 1.574 . S
C2342 C2358 1.368 . S
H2343 C2351 0.950 . S
H2344 C2349 0.950 . S
H2345 C2350 0.949 . S
H2346 C2352 0.950 . S
H2347 C2353 0.950 . S
H2348 C2354 0.949 . S
C2349 H2344 0.950 . S
C2349 C2351 1.327 . S
C2349 C2355 1.429 . S
C2350 C2342 1.574 . S
C2350 H2345 0.949 . S
C2350 C2356 1.368 . S
C2351 C2335 1.349 . S
C2351 H2343 0.950 . S
C2351 C2349 1.327 . S
C2352 C2340 1.349 . S
C2352 H2346 0.950 . S
C2352 C2353 1.327 . S
C2353 H2347 0.950 . S
C2353 C2352 1.327 . S
C2353 C2357 1.429 . S
C2354 C2337 1.574 . S
C2354 H2348 0.949 . S
C2354 C2358 1.368 . S
C2355 C2336 1.429 . S
C2355 C2349 1.429 . S
C2355 C2356 1.523 . S
C2356 C2337 1.368 . S
C2356 C2350 1.368 . S
C2356 C2355 1.523 . S
C2357 C2341 1.429 . S
C2357 C2353 1.429 . S
C2357 C2358 1.523 . S
C2358 C2342 1.368 . S
C2358 C2354 1.368 . S
C2358 C2357 1.523 . S
H2359 C2334 0.950 . S
H2360 C2336 0.950 . S
H2361 C2337 0.949 . S
H2362 C2339 0.950 . S
H2363 C2341 0.950 . S
C2364 C2365 1.349 . S
C2364 C2366 1.327 . S
C2364 H2389 0.950 . S
C2365 C2364 1.349 . S
C2365 C2381 1.349 . S
C2366 C2364 1.327 . S
C2366 C2385 1.429 . S
C2366 H2390 0.950 . S
C2367 C2384 1.574 . S
C2367 C2386 1.368 . S
C2367 H2391 0.949 . S
H2368 C2372 0.949 . S
C2369 C2370 1.349 . S
C2369 C2371 1.327 . S
C2369 H2392 0.950 . S
C2370 C2369 1.349 . S
C2370 C2382 1.349 . S
C2371 C2369 1.327 . S
C2371 C2387 1.429 . S
C2371 H2393 0.950 . S
C2372 H2368 0.949 . S
C2372 C2380 1.574 . S
C2372 C2388 1.368 . S
H2373 C2381 0.950 . S
H2374 C2379 0.950 . S
H2375 C2380 0.949 . S
H2376 C2382 0.950 . S
H2377 C2383 0.950 . S
H2378 C2384 0.949 . S
C2379 H2374 0.950 . S
C2379 C2381 1.327 . S
C2379 C2385 1.429 . S
C2380 C2372 1.574 . S
C2380 H2375 0.949 . S
C2380 C2386 1.368 . S
C2381 C2365 1.349 . S
C2381 H2373 0.950 . S
C2381 C2379 1.327 . S
C2382 C2370 1.349 . S
C2382 H2376 0.950 . S
C2382 C2383 1.327 . S
C2383 H2377 0.950 . S
C2383 C2382 1.327 . S
C2383 C2387 1.429 . S
C2384 C2367 1.574 . S
C2384 H2378 0.949 . S
C2384 C2388 1.368 . S
C2385 C2366 1.429 . S
C2385 C2379 1.429 . S
C2385 C2386 1.523 . S
C2386 C2367 1.368 . S
C2386 C2380 1.368 . S
C2386 C2385 1.523 . S
C2387 C2371 1.429 . S
C2387 C2383 1.429 . S
C2387 C2388 1.523 . S
C2388 C2372 1.368 . S
C2388 C2384 1.368 . S
C2388 C2387 1.523 . S
H2389 C2364 0.950 . S
H2390 C2366 0.950 . S
H2391 C2367 0.949 . S
H2392 C2369 0.950 . S
H2393 C2371 0.950 . S
C2394 C2395 1.349 . S
C2394 C2396 1.327 . S
C2394 H2419 0.950 . S
C2395 C2394 1.349 . S
C2395 C2411 1.349 . S
C2396 C2394 1.327 . S
C2396 C2415 1.429 . S
C2396 H2420 0.950 . S
C2397 C2414 1.574 1_554 S
C2397 C2416 1.368 . S
C2397 H2421 0.949 . S
H2398 C2402 0.949 . S
C2399 C2400 1.349 . S
C2399 C2401 1.327 . S
C2399 H2422 0.950 . S
C2400 C2399 1.349 . S
C2400 C2412 1.349 . S
C2401 C2399 1.327 . S
C2401 C2417 1.429 . S
C2401 H2423 0.950 . S
C2402 H2398 0.949 . S
C2402 C2410 1.574 1_556 S
C2402 C2418 1.368 . S
H2403 C2411 0.950 . S
H2404 C2409 0.950 . S
H2405 C2410 0.949 . S
H2406 C2412 0.950 . S
H2407 C2413 0.950 . S
H2408 C2414 0.949 . S
C2409 H2404 0.950 . S
C2409 C2411 1.327 . S
C2409 C2415 1.429 . S
C2410 C2402 1.574 1_554 S
C2410 H2405 0.949 . S
C2410 C2416 1.368 . S
C2411 C2395 1.349 . S
C2411 H2403 0.950 . S
C2411 C2409 1.327 . S
C2412 C2400 1.349 . S
C2412 H2406 0.950 . S
C2412 C2413 1.327 . S
C2413 H2407 0.950 . S
C2413 C2412 1.327 . S
C2413 C2417 1.429 . S
C2414 C2397 1.574 1_556 S
C2414 H2408 0.949 . S
C2414 C2418 1.368 . S
C2415 C2396 1.429 . S
C2415 C2409 1.429 . S
C2415 C2416 1.523 . S
C2416 C2397 1.368 . S
C2416 C2410 1.368 . S
C2416 C2415 1.523 . S
C2417 C2401 1.429 . S
C2417 C2413 1.429 . S
C2417 C2418 1.523 . S
C2418 C2402 1.368 . S
C2418 C2414 1.368 . S
C2418 C2417 1.523 . S
H2419 C2394 0.950 . S
H2420 C2396 0.950 . S
H2421 C2397 0.949 . S
H2422 C2399 0.950 . S
H2423 C2401 0.950 . S
C2424 C2425 1.349 . S
C2424 C2426 1.327 . S
C2424 H2449 0.950 . S
C2425 C2424 1.349 . S
C2425 C2441 1.349 1_545 S
C2426 C2424 1.327 . S
C2426 C2445 1.429 . S
C2426 H2450 0.950 . S
C2427 C2444 1.574 1_556 S
C2427 C2446 1.368 1_565 S
C2427 H2451 0.949 . S
H2428 C2432 0.949 . S
C2429 C2430 1.349 . S
C2429 C2431 1.327 . S
C2429 H2452 0.950 . S
C2430 C2429 1.349 . S
C2430 C2442 1.349 1_565 S
C2431 C2429 1.327 . S
C2431 C2447 1.429 . S
C2431 H2453 0.950 . S
C2432 H2428 0.949 . S
C2432 C2440 1.574 1_554 S
C2432 C2448 1.368 1_545 S
H2433 C2441 0.950 . S
H2434 C2439 0.950 . S
H2435 C2440 0.949 . S
H2436 C2442 0.950 . S
H2437 C2443 0.950 . S
H2438 C2444 0.949 . S
C2439 H2434 0.950 . S
C2439 C2441 1.327 . S
C2439 C2445 1.429 1_565 S
C2440 C2432 1.574 1_556 S
C2440 H2435 0.949 . S
C2440 C2446 1.368 . S
C2441 C2425 1.349 1_565 S
C2441 H2433 0.950 . S
C2441 C2439 1.327 . S
C2442 C2430 1.349 1_545 S
C2442 H2436 0.950 . S
C2442 C2443 1.327 . S
C2443 H2437 0.950 . S
C2443 C2442 1.327 . S
C2443 C2447 1.429 1_545 S
C2444 C2427 1.574 1_554 S
C2444 H2438 0.949 . S
C2444 C2448 1.368 . S
C2445 C2426 1.429 . S
C2445 C2439 1.429 1_545 S
C2445 C2446 1.523 . S
C2446 C2427 1.368 1_545 S
C2446 C2440 1.368 . S
C2446 C2445 1.523 . S
C2447 C2431 1.429 . S
C2447 C2443 1.429 1_565 S
C2447 C2448 1.523 . S
C2448 C2432 1.368 1_565 S
C2448 C2444 1.368 . S
C2448 C2447 1.523 . S
H2449 C2424 0.950 . S
H2450 C2426 0.950 . S
H2451 C2427 0.949 . S
H2452 C2429 0.950 . S
H2453 C2431 0.950 . S
C2454 C2455 1.349 . S
C2454 C2456 1.327 . S
C2454 H2479 0.950 . S
C2455 C2454 1.349 . S
C2455 C2471 1.349 . S
C2456 C2454 1.327 . S
C2456 C2475 1.429 . S
C2456 H2480 0.950 . S
C2457 C2474 1.575 1_556 S
C2457 C2476 1.348 1_455 S
C2457 H2481 0.938 . S
H2458 C2462 0.938 . S
C2459 C2460 1.349 . S
C2459 C2461 1.327 . S
C2459 H2482 0.950 . S
C2460 C2459 1.349 . S
C2460 C2472 1.349 . S
C2461 C2459 1.327 . S
C2461 C2477 1.429 . S
C2461 H2483 0.950 . S
C2462 H2458 0.938 . S
C2462 C2470 1.575 1_554 S
C2462 C2478 1.351 1_655 S
H2463 C2471 0.950 . S
H2464 C2469 0.976 . S
H2465 C2470 0.949 . S
H2466 C2472 0.950 . S
H2467 C2473 0.979 . S
H2468 C2474 0.949 . S
C2469 H2464 0.976 . S
C2469 C2471 1.327 . S
C2469 C2475 1.429 . S
C2470 C2462 1.575 1_556 S
C2470 H2465 0.949 . S
C2470 C2476 1.368 . S
C2471 C2455 1.349 . S
C2471 H2463 0.950 . S
C2471 C2469 1.327 . S
C2472 C2460 1.349 . S
C2472 H2466 0.950 . S
C2472 C2473 1.327 . S
C2473 H2467 0.979 . S
C2473 C2472 1.327 . S
C2473 C2477 1.429 . S
C2474 C2457 1.575 1_554 S
C2474 H2468 0.949 . S
C2474 C2478 1.368 . S
C2475 C2456 1.429 . S
C2475 C2469 1.429 . S
C2475 C2476 1.523 . S
C2476 C2457 1.348 1_655 S
C2476 C2470 1.368 . S
C2476 C2475 1.523 . S
C2477 C2461 1.429 . S
C2477 C2473 1.429 . S
C2477 C2478 1.523 . S
C2478 C2462 1.351 1_455 S
C2478 C2474 1.368 . S
C2478 C2477 1.523 . S
H2479 C2454 0.950 . S
H2480 C2456 0.950 . S
H2481 C2457 0.938 . S
H2482 C2459 0.950 . S
H2483 C2461 0.950 . S
C2484 C2485 1.349 . S
C2484 C2486 1.327 . S
C2484 H2509 0.950 . S
C2485 C2484 1.349 . S
C2485 C2501 1.349 . S
C2486 C2484 1.327 . S
C2486 C2505 1.429 . S
C2486 H2510 0.950 . S
C2487 C2504 1.574 . S
C2487 C2506 1.368 . S
C2487 H2511 0.949 . S
H2488 C2492 0.949 . S
C2489 C2490 1.349 . S
C2489 C2491 1.327 . S
C2489 H2512 0.950 . S
C2490 C2489 1.349 . S
C2490 C2502 1.349 . S
C2491 C2489 1.327 . S
C2491 C2507 1.429 . S
C2491 H2513 0.950 . S
C2492 H2488 0.949 . S
C2492 C2500 1.574 . S
C2492 C2508 1.368 . S
H2493 C2501 0.950 . S
H2494 C2499 0.950 . S
H2495 C2500 0.949 . S
H2496 C2502 0.950 . S
H2497 C2503 0.950 . S
H2498 C2504 0.949 . S
C2499 H2494 0.950 . S
C2499 C2501 1.327 . S
C2499 C2505 1.429 . S
C2500 C2492 1.574 . S
C2500 H2495 0.949 . S
C2500 C2506 1.368 . S
C2501 C2485 1.349 . S
C2501 H2493 0.950 . S
C2501 C2499 1.327 . S
C2502 C2490 1.349 . S
C2502 H2496 0.950 . S
C2502 C2503 1.327 . S
C2503 H2497 0.950 . S
C2503 C2502 1.327 . S
C2503 C2507 1.429 . S
C2504 C2487 1.574 . S
C2504 H2498 0.949 . S
C2504 C2508 1.368 . S
C2505 C2486 1.429 . S
C2505 C2499 1.429 . S
C2505 C2506 1.523 . S
C2506 C2487 1.368 . S
C2506 C2500 1.368 . S
C2506 C2505 1.523 . S
C2507 C2491 1.429 . S
C2507 C2503 1.429 . S
C2507 C2508 1.523 . S
C2508 C2492 1.368 . S
C2508 C2504 1.368 . S
C2508 C2507 1.523 . S
H2509 C2484 0.950 . S
H2510 C2486 0.950 . S
H2511 C2487 0.949 . S
H2512 C2489 0.950 . S
H2513 C2491 0.950 . S
C2514 C2515 1.349 . S
C2514 C2516 1.327 . S
C2514 H2539 0.950 . S
C2515 C2514 1.349 . S
C2515 C2531 1.349 . S
C2516 C2514 1.327 . S
C2516 C2535 1.429 . S
C2516 H2540 0.950 . S
C2517 C2534 1.574 . S
C2517 C2536 1.368 . S
C2517 H2541 0.949 . S
H2518 C2522 0.949 . S
C2519 C2520 1.349 . S
C2519 C2521 1.327 . S
C2519 H2542 0.950 . S
C2520 C2519 1.349 . S
C2520 C2532 1.349 . S
C2521 C2519 1.327 . S
C2521 C2537 1.429 . S
C2521 H2543 0.950 . S
C2522 H2518 0.949 . S
C2522 C2530 1.574 . S
C2522 C2538 1.368 . S
H2523 C2531 0.950 . S
H2524 C2529 0.950 . S
H2525 C2530 0.949 . S
H2526 C2532 0.950 . S
H2527 C2533 0.950 . S
H2528 C2534 0.949 . S
C2529 H2524 0.950 . S
C2529 C2531 1.327 . S
C2529 C2535 1.429 . S
C2530 C2522 1.574 . S
C2530 H2525 0.949 . S
C2530 C2536 1.368 . S
C2531 C2515 1.349 . S
C2531 H2523 0.950 . S
C2531 C2529 1.327 . S
C2532 C2520 1.349 . S
C2532 H2526 0.950 . S
C2532 C2533 1.327 . S
C2533 H2527 0.950 . S
C2533 C2532 1.327 . S
C2533 C2537 1.429 . S
C2534 C2517 1.574 . S
C2534 H2528 0.949 . S
C2534 C2538 1.368 . S
C2535 C2516 1.429 . S
C2535 C2529 1.429 . S
C2535 C2536 1.523 . S
C2536 C2517 1.368 . S
C2536 C2530 1.368 . S
C2536 C2535 1.523 . S
C2537 C2521 1.429 . S
C2537 C2533 1.429 . S
C2537 C2538 1.523 . S
C2538 C2522 1.368 . S
C2538 C2534 1.368 . S
C2538 C2537 1.523 . S
H2539 C2514 0.950 . S
H2540 C2516 0.950 . S
H2541 C2517 0.949 . S
H2542 C2519 0.950 . S
H2543 C2521 0.950 . S
C2544 C2545 1.349 . S
C2544 C2546 1.327 . S
C2544 H2569 0.950 . S
C2545 C2544 1.349 . S
C2545 C2561 1.349 . S
C2546 C2544 1.327 . S
C2546 C2565 1.429 . S
C2546 H2570 0.950 . S
C2547 C2564 1.574 . S
C2547 C2566 1.368 . S
C2547 H2571 0.949 . S
H2548 C2552 0.949 . S
C2549 C2550 1.349 . S
C2549 C2551 1.327 . S
C2549 H2572 0.950 . S
C2550 C2549 1.349 . S
C2550 C2562 1.349 . S
C2551 C2549 1.327 . S
C2551 C2567 1.429 . S
C2551 H2573 0.950 . S
C2552 H2548 0.949 . S
C2552 C2560 1.574 . S
C2552 C2568 1.368 . S
H2553 C2561 0.950 . S
H2554 C2559 0.950 . S
H2555 C2560 0.949 . S
H2556 C2562 0.950 . S
H2557 C2563 0.950 . S
H2558 C2564 0.949 . S
C2559 H2554 0.950 . S
C2559 C2561 1.327 . S
C2559 C2565 1.429 . S
C2560 C2552 1.574 . S
C2560 H2555 0.949 . S
C2560 C2566 1.368 . S
C2561 C2545 1.349 . S
C2561 H2553 0.950 . S
C2561 C2559 1.327 . S
C2562 C2550 1.349 . S
C2562 H2556 0.950 . S
C2562 C2563 1.327 . S
C2563 H2557 0.950 . S
C2563 C2562 1.327 . S
C2563 C2567 1.429 . S
C2564 C2547 1.574 . S
C2564 H2558 0.949 . S
C2564 C2568 1.368 . S
C2565 C2546 1.429 . S
C2565 C2559 1.429 . S
C2565 C2566 1.523 . S
C2566 C2547 1.368 . S
C2566 C2560 1.368 . S
C2566 C2565 1.523 . S
C2567 C2551 1.429 . S
C2567 C2563 1.429 . S
C2567 C2568 1.523 . S
C2568 C2552 1.368 . S
C2568 C2564 1.368 . S
C2568 C2567 1.523 . S
H2569 C2544 0.950 . S
H2570 C2546 0.950 . S
H2571 C2547 0.949 . S
H2572 C2549 0.950 . S
H2573 C2551 0.950 . S
C2574 C2575 1.349 . S
C2574 C2576 1.327 . S
C2574 H2599 0.950 . S
C2575 C2574 1.349 . S
C2575 C2591 1.349 . S
C2576 C2574 1.327 . S
C2576 C2595 1.429 . S
C2576 H2600 0.950 . S
C2577 C2594 1.574 . S
C2577 C2596 1.368 . S
C2577 H2601 0.949 . S
H2578 C2582 0.949 . S
C2579 C2580 1.349 . S
C2579 C2581 1.327 . S
C2579 H2602 0.950 . S
C2580 C2579 1.349 . S
C2580 C2592 1.349 . S
C2581 C2579 1.327 . S
C2581 C2597 1.429 . S
C2581 H2603 0.950 . S
C2582 H2578 0.949 . S
C2582 C2590 1.574 . S
C2582 C2598 1.368 . S
H2583 C2591 0.950 . S
H2584 C2589 0.950 . S
H2585 C2590 0.949 . S
H2586 C2592 0.950 . S
H2587 C2593 0.950 . S
H2588 C2594 0.949 . S
C2589 H2584 0.950 . S
C2589 C2591 1.327 . S
C2589 C2595 1.429 . S
C2590 C2582 1.574 . S
C2590 H2585 0.949 . S
C2590 C2596 1.368 . S
C2591 C2575 1.349 . S
C2591 H2583 0.950 . S
C2591 C2589 1.327 . S
C2592 C2580 1.349 . S
C2592 H2586 0.950 . S
C2592 C2593 1.327 . S
C2593 H2587 0.950 . S
C2593 C2592 1.327 . S
C2593 C2597 1.429 . S
C2594 C2577 1.574 . S
C2594 H2588 0.949 . S
C2594 C2598 1.368 . S
C2595 C2576 1.429 . S
C2595 C2589 1.429 . S
C2595 C2596 1.523 . S
C2596 C2577 1.368 . S
C2596 C2590 1.368 . S
C2596 C2595 1.523 . S
C2597 C2581 1.429 . S
C2597 C2593 1.429 . S
C2597 C2598 1.523 . S
C2598 C2582 1.368 . S
C2598 C2594 1.368 . S
C2598 C2597 1.523 . S
H2599 C2574 0.950 . S
H2600 C2576 0.950 . S
H2601 C2577 0.949 . S
H2602 C2579 0.950 . S
H2603 C2581 0.950 . S
C2604 C2605 1.349 . S
C2604 C2606 1.327 . S
C2604 H2629 0.950 . S
C2605 C2604 1.349 . S
C2605 C2621 1.349 . S
C2606 C2604 1.327 . S
C2606 C2625 1.429 . S
C2606 H2630 0.950 . S
C2607 C2624 1.574 . S
C2607 C2626 1.368 . S
C2607 H2631 0.949 . S
H2608 C2612 0.949 . S
C2609 C2610 1.349 . S
C2609 C2611 1.327 . S
C2609 H2632 0.950 . S
C2610 C2609 1.349 . S
C2610 C2622 1.349 . S
C2611 C2609 1.327 . S
C2611 C2627 1.429 . S
C2611 H2633 0.950 . S
C2612 H2608 0.949 . S
C2612 C2620 1.574 . S
C2612 C2628 1.368 . S
H2613 C2621 0.950 . S
H2614 C2619 0.950 . S
H2615 C2620 0.949 . S
H2616 C2622 0.950 . S
H2617 C2623 0.950 . S
H2618 C2624 0.949 . S
C2619 H2614 0.950 . S
C2619 C2621 1.327 . S
C2619 C2625 1.429 . S
C2620 C2612 1.574 . S
C2620 H2615 0.949 . S
C2620 C2626 1.368 . S
C2621 C2605 1.349 . S
C2621 H2613 0.950 . S
C2621 C2619 1.327 . S
C2622 C2610 1.349 . S
C2622 H2616 0.950 . S
C2622 C2623 1.327 . S
C2623 H2617 0.950 . S
C2623 C2622 1.327 . S
C2623 C2627 1.429 . S
C2624 C2607 1.574 . S
C2624 H2618 0.949 . S
C2624 C2628 1.368 . S
C2625 C2606 1.429 . S
C2625 C2619 1.429 . S
C2625 C2626 1.523 . S
C2626 C2607 1.368 . S
C2626 C2620 1.368 . S
C2626 C2625 1.523 . S
C2627 C2611 1.429 . S
C2627 C2623 1.429 . S
C2627 C2628 1.523 . S
C2628 C2612 1.368 . S
C2628 C2624 1.368 . S
C2628 C2627 1.523 . S
H2629 C2604 0.950 . S
H2630 C2606 0.950 . S
H2631 C2607 0.949 . S
H2632 C2609 0.950 . S
H2633 C2611 0.950 . S
C2634 C2635 1.349 . S
C2634 C2636 1.327 . S
C2634 H2659 0.950 . S
C2635 C2634 1.349 . S
C2635 C2651 1.349 . S
C2636 C2634 1.327 . S
C2636 C2655 1.429 . S
C2636 H2660 0.950 . S
C2637 C2654 1.574 . S
C2637 C2656 1.368 . S
C2637 H2661 0.949 . S
H2638 C2642 0.949 . S
C2639 C2640 1.349 . S
C2639 C2641 1.327 . S
C2639 H2662 0.950 . S
C2640 C2639 1.349 . S
C2640 C2652 1.349 . S
C2641 C2639 1.327 . S
C2641 C2657 1.429 . S
C2641 H2663 0.950 . S
C2642 H2638 0.949 . S
C2642 C2650 1.574 . S
C2642 C2658 1.368 . S
H2643 C2651 0.950 . S
H2644 C2649 0.950 . S
H2645 C2650 0.949 . S
H2646 C2652 0.950 . S
H2647 C2653 0.950 . S
H2648 C2654 0.949 . S
C2649 H2644 0.950 . S
C2649 C2651 1.327 . S
C2649 C2655 1.429 . S
C2650 C2642 1.574 . S
C2650 H2645 0.949 . S
C2650 C2656 1.368 . S
C2651 C2635 1.349 . S
C2651 H2643 0.950 . S
C2651 C2649 1.327 . S
C2652 C2640 1.349 . S
C2652 H2646 0.950 . S
C2652 C2653 1.327 . S
C2653 H2647 0.950 . S
C2653 C2652 1.327 . S
C2653 C2657 1.429 . S
C2654 C2637 1.574 . S
C2654 H2648 0.949 . S
C2654 C2658 1.368 . S
C2655 C2636 1.429 . S
C2655 C2649 1.429 . S
C2655 C2656 1.523 . S
C2656 C2637 1.368 . S
C2656 C2650 1.368 . S
C2656 C2655 1.523 . S
C2657 C2641 1.429 . S
C2657 C2653 1.429 . S
C2657 C2658 1.523 . S
C2658 C2642 1.368 . S
C2658 C2654 1.368 . S
C2658 C2657 1.523 . S
H2659 C2634 0.950 . S
H2660 C2636 0.950 . S
H2661 C2637 0.949 . S
H2662 C2639 0.950 . S
H2663 C2641 0.950 . S
C1585 C900 0.595 . S
C1590 C29 0.597 . S
C1615 C145 0.565 . S
C1620 C1017 0.563 . S
C1645 C812 0.571 . S
C1650 C233 0.567 . S
C1675 C1289 0.595 . S
C1680 C284 0.597 . S
C1705 C372 0.565 . S
C1710 C1085 0.568 . S
C1735 C1201 0.569 . S
C1740 C497 0.561 . S
C1765 C548 0.630 . S
C1770 C1465 0.629 . S
C1795 C1545 0.606 . S
C1800 C673 0.606 . S
C1825 C761 0.629 . S
C1830 C1340 0.630 . S
C1855 C57 0.743 . S
C1860 C108 0.737 . S
C1885 C117 0.712 . S
C1890 C196 0.696 . S
C1915 C49 0.766 . S
C1920 C205 0.765 . S
C1945 C460 0.739 . S
C1950 C313 0.747 . S
C1975 C321 0.766 . S
C1980 C401 0.765 . S
C2005 C469 0.712 . S
C2010 C409 0.696 . S
C2035 C577 0.779 . S
C2040 C636 0.791 . S
C2065 C645 0.754 . S
C2070 C724 0.756 . S
C2095 C585 0.757 . S
C2100 C733 0.755 . S
C2125 C997 0.807 . S
C2130 C841 0.791 . S
C2155 C849 0.734 . S
C2160 C929 0.739 . S
C2185 C937 0.753 . S
C2190 C988 0.752 . S
C2215 C1164 0.807 . S
C2220 C1113 0.791 . S
C2245 C1252 0.753 . S
C2250 C1173 0.752 . S
C2275 C1105 0.734 . S
C2280 C1261 0.739 . S
C2305 C1369 0.779 . S
C2310 C1525 0.791 . S
C2335 C1437 0.755 . S
C2340 C1377 0.757 . S
C2365 C1516 0.754 . S
C2370 C1428 0.756 . S
C2395 C20 1.544 . S
C2400 C293 1.544 . S
C2425 C381 1.492 . S
C2430 C137 1.485 . S
C2455 C489 1.486 . S
C2460 C225 1.493 . S
C2485 C821 1.544 . S
C2490 C557 1.545 . S
C2515 C909 1.518 . S
C2520 C665 1.519 . S
C2545 C753 1.544 . S
C2550 C1025 1.544 . S
C2575 C1349 1.545 . S
C2580 C1076 1.544 . S
C2605 C1457 1.544 . S
C2610 C1193 1.544 . S
C2635 C1553 1.519 . S
C2640 C1281 1.518 . S
