# Generated by pormake.
# Topology upa, (4)-cn, num edge types: 1
# Building blocks:
#     Node 0, Type 0, BuildingBlock: AZAVOO_clean_sbu_0, # of connection points: 4
#     Node 1, Type 0, BuildingBlock: AZAVOO_clean_sbu_0, # of connection points: 4
#     Node 2, Type 0, BuildingBlock: AZAVOO_clean_sbu_0, # of connection points: 4
#     Node 3, Type 0, BuildingBlock: AZAVOO_clean_sbu_0, # of connection points: 4
#     Node 4, Type 0, BuildingBlock: AZAVOO_clean_sbu_0, # of connection points: 4
#     Node 5, Type 0, BuildingBlock: AZAVOO_clean_sbu_0, # of connection points: 4
#     Node 6, Type 0, BuildingBlock: AZAVOO_clean_sbu_0, # of connection points: 4
#     Node 7, Type 0, BuildingBlock: AZAVOO_clean_sbu_0, # of connection points: 4
#     Edge 8, Type (0, 0), BuildingBlock: FUNLAD_clean_linker_0, # of connection points: 2
#     Edge 9, Type (0, 0), BuildingBlock: FUNLAD_clean_linker_0, # of connection points: 2
#     Edge 10, Type (0, 0), BuildingBlock: FUNLAD_clean_linker_0, # of connection points: 2
#     Edge 11, Type (0, 0), BuildingBlock: FUNLAD_clean_linker_0, # of connection points: 2
#     Edge 12, Type (0, 0), BuildingBlock: FUNLAD_clean_linker_0, # of connection points: 2
#     Edge 13, Type (0, 0), BuildingBlock: FUNLAD_clean_linker_0, # of connection points: 2
#     Edge 14, Type (0, 0), BuildingBlock: FUNLAD_clean_linker_0, # of connection points: 2
#     Edge 15, Type (0, 0), BuildingBlock: FUNLAD_clean_linker_0, # of connection points: 2
#     Edge 16, Type (0, 0), BuildingBlock: FUNLAD_clean_linker_0, # of connection points: 2
#     Edge 17, Type (0, 0), BuildingBlock: FUNLAD_clean_linker_0, # of connection points: 2
#     Edge 18, Type (0, 0), BuildingBlock: FUNLAD_clean_linker_0, # of connection points: 2
#     Edge 19, Type (0, 0), BuildingBlock: FUNLAD_clean_linker_0, # of connection points: 2
#     Edge 20, Type (0, 0), BuildingBlock: FUNLAD_clean_linker_0, # of connection points: 2
#     Edge 21, Type (0, 0), BuildingBlock: FUNLAD_clean_linker_0, # of connection points: 2
#     Edge 22, Type (0, 0), BuildingBlock: FUNLAD_clean_linker_0, # of connection points: 2
#     Edge 23, Type (0, 0), BuildingBlock: FUNLAD_clean_linker_0, # of connection points: 2
# Relax obj value: 0.210
# Max RMSD: 0.200
# Mean RMSD: 0.200
data_MOF--net-upa--node1-AZAVOO_clean_sbu_0--edge1-FUNLAD_clean_linker_0
_symmetry_space_group_name_H-M    P1
_symmetry_Int_Tables_number       1
_symmetry_cell_setting            triclinic
loop_
_symmetry_equiv_pos_as_xyz
'x, y, z'
_cell_length_a     31.357073
_cell_length_b     31.41766
_cell_length_c     49.516455
_cell_angle_alpha  90.03047
_cell_angle_beta   89.991247
_cell_angle_gamma 89.855747
loop_
_atom_site_label
_atom_site_type_symbol
_atom_site_fract_x
_atom_site_fract_y
_atom_site_fract_z
_atom_type_partial_charge
Mg0 Mg 0.12133 0.25518 0.33357 0.0
O1 O 0.09512 0.18752 0.33675 0.0
O2 O 0.14338 0.14389 0.35483 0.0
Mg3 Mg 0.20268 0.18433 0.36264 0.0
C4 C 0.10644 0.15075 0.34494 0.0
C5 C 0.02712 0.26472 0.32072 0.0
O6 O 0.02802 0.24934 0.34537 0.0
O7 O 0.162 0.2364 0.29685 0.0
O8 O 0.21074 0.1953 0.31726 0.0
O9 O 0.10082 0.26861 0.37593 0.0
O10 O 0.16407 0.2429 0.3649 0.0
C11 C 0.19561 0.21321 0.29616 0.0
C12 C 0.13743 0.25371 0.38343 0.0
O13 O 0.06229 0.2718 0.30867 0.0
Mg14 Mg 0.26617 0.64843 0.82576 0.0
O15 O 0.3347 0.62409 0.82903 0.0
O16 O 0.37763 0.67554 0.84378 0.0
Mg17 Mg 0.33648 0.73506 0.84819 0.0
C18 C 0.37143 0.63728 0.83617 0.0
C19 C 0.23324 0.55615 0.81714 0.0
O20 O 0.2199 0.56353 0.84185 0.0
O21 O 0.28135 0.68408 0.78645 0.0
O22 O 0.32373 0.73528 0.80284 0.0
O23 O 0.25713 0.63378 0.86956 0.0
O24 O 0.27906 0.69592 0.85416 0.0
C25 C 0.30473 0.71699 0.78323 0.0
C26 C 0.27135 0.67163 0.87444 0.0
O27 O 0.25116 0.58603 0.80406 0.0
Mg28 Mg 0.86987 0.72383 0.3362 0.0
O29 O 0.89054 0.79337 0.33508 0.0
O30 O 0.83992 0.83431 0.35323 0.0
Mg31 Mg 0.78557 0.79009 0.36616 0.0
C32 C 0.8764 0.82979 0.34215 0.0
C33 C 0.95191 0.67933 0.31821 0.0
O34 O 0.94037 0.65662 0.33924 0.0
O35 O 0.82369 0.73432 0.30061 0.0
O36 O 0.77234 0.76989 0.32273 0.0
O37 O 0.89676 0.71839 0.37792 0.0
O38 O 0.83011 0.73628 0.36896 0.0
C39 C 0.7868 0.75179 0.30153 0.0
C40 C 0.85982 0.7309 0.3865 0.0
O41 O 0.92714 0.70857 0.3098 0.0
Mg42 Mg 0.76122 0.35785 0.82969 0.0
O43 O 0.69179 0.3773 0.8345 0.0
O44 O 0.65371 0.32742 0.85539 0.0
Mg45 Mg 0.69992 0.27161 0.86133 0.0
C46 C 0.65677 0.36397 0.84437 0.0
C47 C 0.78891 0.4489 0.81539 0.0
O48 O 0.80796 0.44252 0.83866 0.0
O49 O 0.74368 0.31542 0.7935 0.0
O50 O 0.70654 0.26549 0.81559 0.0
O51 O 0.77287 0.38016 0.87198 0.0
O52 O 0.75544 0.31418 0.86119 0.0
C53 C 0.72163 0.28118 0.79381 0.0
C54 C 0.763 0.34205 0.87951 0.0
O55 O 0.76904 0.41815 0.80442 0.0
Mg56 Mg 0.6218 0.24712 0.15715 0.0
O57 O 0.6008 0.31678 0.15545 0.0
O58 O 0.65088 0.35659 0.13581 0.0
Mg59 Mg 0.70803 0.3127 0.12897 0.0
C60 C 0.6142 0.35242 0.14661 0.0
C61 C 0.52656 0.242 0.17044 0.0
O62 O 0.52708 0.25874 0.14614 0.0
O63 O 0.66311 0.26167 0.19431 0.0
O64 O 0.71317 0.30169 0.17445 0.0
O65 O 0.6006 0.23879 0.11419 0.0
O66 O 0.66565 0.25753 0.12638 0.0
C67 C 0.69707 0.28414 0.19536 0.0
C68 C 0.63845 0.25114 0.10745 0.0
O69 O 0.56188 0.23308 0.18182 0.0
Mg70 Mg 0.2479 0.14481 0.66495 0.0
O71 O 0.17838 0.12369 0.66173 0.0
O72 O 0.13866 0.17452 0.64279 0.0
Mg73 Mg 0.18305 0.23086 0.63576 0.0
C74 C 0.14265 0.13748 0.65302 0.0
C75 C 0.28304 0.05638 0.67839 0.0
O76 O 0.30291 0.06608 0.65587 0.0
O77 O 0.23193 0.1865 0.7017 0.0
O78 O 0.19276 0.23698 0.68141 0.0
O79 O 0.25859 0.12254 0.62286 0.0
O80 O 0.23861 0.18799 0.63328 0.0
C81 C 0.2097 0.22068 0.70247 0.0
C82 C 0.24633 0.15985 0.61502 0.0
O83 O 0.25976 0.08453 0.68962 0.0
Mg84 Mg 0.35601 0.75922 0.16181 0.0
O85 O 0.3788 0.69145 0.15312 0.0
O86 O 0.32974 0.6548 0.1303 0.0
Mg87 Mg 0.27126 0.69809 0.12826 0.0
C88 C 0.36654 0.65777 0.14108 0.0
C89 C 0.45139 0.76054 0.17517 0.0
O90 O 0.45068 0.75039 0.14943 0.0
O91 O 0.31587 0.73492 0.19736 0.0
O92 O 0.26671 0.69825 0.17429 0.0
O93 O 0.3763 0.77816 0.12019 0.0
O94 O 0.31188 0.75491 0.13042 0.0
C95 C 0.28268 0.71133 0.19651 0.0
C96 C 0.33892 0.76604 0.11228 0.0
O97 O 0.4162 0.76753 0.18727 0.0
Mg98 Mg 0.74738 0.86002 0.66357 0.0
O99 O 0.81634 0.88353 0.66097 0.0
O100 O 0.85774 0.8333 0.64275 0.0
Mg101 Mg 0.81549 0.77549 0.63565 0.0
C102 C 0.85259 0.87045 0.65264 0.0
C103 C 0.70329 0.94398 0.67826 0.0
O104 O 0.68067 0.93071 0.65758 0.0
O105 O 0.7636 0.81952 0.70079 0.0
O106 O 0.80489 0.77004 0.68116 0.0
O107 O 0.73718 0.88139 0.62122 0.0
O108 O 0.75897 0.81681 0.63245 0.0
C109 C 0.78695 0.78613 0.70195 0.0
C110 C 0.75109 0.84435 0.61387 0.0
O111 O 0.73228 0.91984 0.68769 0.0
C112 C 0.08706 0.07382 0.35098 0.0
C113 C 0.07547 0.11526 0.34313 0.0
C114 C 0.05762 0.04055 0.34956 0.0
C115 C 0.01589 0.04794 0.34012 0.0
C116 C 0.00422 0.08939 0.33254 0.0
C117 C 0.03367 0.12263 0.33387 0.0
C118 C 0.98326 0.0137 0.33905 0.0
C119 C 0.99318 0.97213 0.33652 0.0
C120 C 0.9611 0.93731 0.33643 0.0
C121 C 0.973 0.89749 0.32597 0.0
C122 C 0.94505 0.86299 0.32709 0.0
C123 C 0.90448 0.86739 0.3389 0.0
H124 H 0.91006 0.97174 0.35681 0.0
C125 C 0.89219 0.90745 0.34897 0.0
C126 C 0.92021 0.942 0.34785 0.0
H127 H 0.86134 0.91194 0.35839 0.0
H128 H 0.11883 0.06704 0.35843 0.0
H129 H 0.06751 0.00939 0.35646 0.0
H130 H 0.97221 0.09609 0.32546 0.0
H131 H 0.02348 0.15417 0.32778 0.0
H132 H 0.95005 0.02351 0.33936 0.0
H133 H 0.02628 0.96295 0.33365 0.0
H134 H 0.00431 0.89284 0.31718 0.0
H135 H 0.95569 0.83264 0.31914 0.0
C136 C 0.40145 0.56403 0.82903 0.0
C137 C 0.40764 0.6069 0.83623 0.0
C138 C 0.43539 0.53515 0.82963 0.0
C139 C 0.47632 0.5485 0.83759 0.0
C140 C 0.4826 0.59142 0.84435 0.0
C141 C 0.44867 0.62028 0.8438 0.0
C142 C 0.51353 0.51917 0.83816 0.0
C143 C 0.51028 0.47657 0.84063 0.0
C144 C 0.54805 0.44791 0.84116 0.0
C145 C 0.54501 0.40828 0.85411 0.0
C146 C 0.58014 0.38078 0.85515 0.0
C147 C 0.61899 0.3923 0.84304 0.0
H148 H 0.58985 0.48841 0.81738 0.0
C149 C 0.62166 0.4316 0.82955 0.0
C150 C 0.58661 0.45895 0.82849 0.0
H151 H 0.65085 0.44135 0.81966 0.0
H152 H 0.37032 0.55265 0.82289 0.0
H153 H 0.42946 0.5027 0.82341 0.0
H154 H 0.51388 0.60267 0.85028 0.0
H155 H 0.45468 0.65304 0.84938 0.0
H156 H 0.54489 0.53374 0.83778 0.0
H157 H 0.47924 0.46215 0.8437 0.0
H158 H 0.51551 0.39876 0.86375 0.0
H159 H 0.5769 0.35065 0.86558 0.0
C160 C 0.58998 0.42413 0.13072 0.0
C161 C 0.58593 0.3899 0.14879 0.0
C162 C 0.56227 0.45895 0.13235 0.0
C163 C 0.53051 0.46042 0.15238 0.0
C164 C 0.52718 0.42678 0.17083 0.0
C165 C 0.55421 0.39152 0.16883 0.0
C166 C 0.50119 0.49716 0.15482 0.0
C167 C 0.48457 0.51686 0.13313 0.0
C168 C 0.45426 0.55282 0.13565 0.0
C169 C 0.4206 0.5566 0.11715 0.0
C170 C 0.39155 0.59028 0.11916 0.0
C171 C 0.39638 0.6214 0.13932 0.0
H172 H 0.48538 0.58232 0.17001 0.0
C173 C 0.43063 0.61801 0.15753 0.0
C174 C 0.45913 0.5839 0.15583 0.0
H175 H 0.43532 0.64161 0.1732 0.0
H176 H 0.61413 0.42372 0.11508 0.0
H177 H 0.56608 0.48494 0.1182 0.0
H178 H 0.50315 0.42745 0.18655 0.0
H179 H 0.55054 0.36571 0.18314 0.0
H180 H 0.49085 0.50636 0.17496 0.0
H181 H 0.4913 0.50468 0.11302 0.0
H182 H 0.4165 0.53317 0.1013 0.0
H183 H 0.36575 0.59229 0.10468 0.0
C184 C 0.10842 0.06835 0.66582 0.0
C185 C 0.10492 0.10927 0.65451 0.0
C186 C 0.07316 0.04132 0.66676 0.0
C187 C 0.03361 0.05448 0.6562 0.0
C188 C 0.02988 0.09567 0.64548 0.0
C189 C 0.06515 0.12273 0.64452 0.0
C190 C 0.99548 0.02651 0.65648 0.0
C191 C 0.99798 0.98368 0.6567 0.0
C192 C 0.96007 0.95544 0.65605 0.0
C193 C 0.96489 0.91376 0.64631 0.0
C194 C 0.9301 0.88615 0.64524 0.0
C195 C 0.88965 0.89952 0.65416 0.0
H196 H 0.91499 3e-05 0.67394 0.0
C197 C 0.88496 0.94103 0.66441 0.0
C198 C 0.91978 0.96866 0.66543 0.0
H199 H 0.85437 0.9523 0.67169 0.0
H200 H 0.13841 0.05707 0.67399 0.0
H201 H 0.07705 0.01043 0.67609 0.0
H202 H -0.00031 0.10679 0.63747 0.0
H203 H 0.06121 0.15412 0.6358 0.0
H204 H 0.96455 0.04187 0.65482 0.0
H205 H 0.02902 0.96836 0.65571 0.0
H206 H 0.99564 0.90259 0.6392 0.0
H207 H 0.93498 0.85435 0.63735 0.0
C208 C 0.18858 0.23281 0.41959 0.0
C209 C 0.14751 0.24629 0.41212 0.0
C210 C 0.19835 0.22479 0.44654 0.0
C211 C 0.16718 0.2301 0.46666 0.0
C212 C 0.12647 0.24476 0.45935 0.0
C213 C 0.11659 0.25257 0.43227 0.0
C214 C 0.17687 0.22194 0.49544 0.0
C215 C 0.20554 0.19251 0.50333 0.0
C216 C 0.21615 0.18485 0.53202 0.0
C217 C 0.22961 0.14416 0.54003 0.0
C218 C 0.23977 0.13599 0.567 0.0
C219 C 0.23713 0.1686 0.58635 0.0
H220 H 0.20589 0.24987 0.54556 0.0
C221 C 0.225 0.20966 0.57813 0.0
C222 C 0.21454 0.21773 0.55125 0.0
H223 H 0.22372 0.23574 0.59239 0.0
H224 H 0.21347 0.22872 0.40465 0.0
H225 H 0.23055 0.21516 0.45156 0.0
H226 H 0.10212 0.24964 0.47458 0.0
H227 H 0.08475 0.26328 0.42714 0.0
H228 H 0.15858 0.23938 0.51046 0.0
H229 H 0.22046 0.17193 0.48841 0.0
H230 H 0.23168 0.11848 0.52547 0.0
H231 H 0.24933 0.10408 0.57268 0.0
C232 C 0.28079 0.65692 0.92382 0.0
C233 C 0.28294 0.68533 0.90198 0.0
C234 C 0.29313 0.67002 0.94963 0.0
C235 C 0.30794 0.71172 0.95396 0.0
C236 C 0.31032 0.7399 0.93215 0.0
C237 C 0.29739 0.72707 0.9065 0.0
C238 C 0.32113 0.72673 0.98097 0.0
C239 C 0.30051 0.71479 0.00345 0.0
C240 C 0.31112 0.73161 0.0305 0.0
C241 C 0.27845 0.73496 0.04965 0.0
C242 C 0.28736 0.74842 0.07583 0.0
C243 C 0.32937 0.75789 0.0836 0.0
H244 H 0.37908 0.7397 0.02365 0.0
C245 C 0.36206 0.75573 0.06426 0.0
C246 C 0.35303 0.74266 0.03787 0.0
H247 H 0.39477 0.76259 0.06973 0.0
H248 H 0.26996 0.62453 0.92094 0.0
H249 H 0.29171 0.64732 0.96606 0.0
H250 H 0.3215 0.7722 0.93506 0.0
H251 H 0.29868 0.75005 0.89027 0.0
H252 H 0.34585 0.75085 0.98207 0.0
H253 H 0.27288 0.6941 0.00181 0.0
H254 H 0.24591 0.72685 0.0444 0.0
H255 H 0.26133 0.75049 0.09014 0.0
C256 C 0.77601 0.79432 0.5781 0.0
C257 C 0.76227 0.83527 0.58553 0.0
C258 C 0.78871 0.78582 0.5517 0.0
C259 C 0.78754 0.81805 0.53207 0.0
C260 C 0.77246 0.85861 0.53919 0.0
C261 C 0.76024 0.86731 0.56578 0.0
C262 C 0.79925 0.80911 0.50374 0.0
C263 C 0.82937 0.78044 0.49696 0.0
C264 C 0.83728 0.76803 0.46861 0.0
C265 C 0.87841 0.75591 0.46043 0.0
C266 C 0.88606 0.74355 0.4337 0.0
C267 C 0.85244 0.74252 0.41496 0.0
H268 H 0.77119 0.77345 0.45596 0.0
C269 C 0.81109 0.75327 0.42352 0.0
C270 C 0.80359 0.76602 0.45 0.0
H271 H 0.78424 0.75158 0.40985 0.0
H272 H 0.77677 0.76859 0.59261 0.0
H273 H 0.79852 0.75374 0.5466 0.0
H274 H 0.77059 0.8837 0.52424 0.0
H275 H 0.74948 0.8991 0.57087 0.0
H276 H 0.78279 0.82694 0.48807 0.0
H277 H 0.84901 0.76588 0.51251 0.0
H278 H 0.9047 0.75653 0.47462 0.0
H279 H 0.91821 0.73508 0.42772 0.0
C280 C 0.73812 0.36155 0.92587 0.0
C281 C 0.75501 0.33135 0.90791 0.0
C282 C 0.72634 0.34938 0.95199 0.0
C283 C 0.73213 0.30705 0.96051 0.0
C284 C 0.7507 0.27749 0.94287 0.0
C285 C 0.76144 0.28935 0.91666 0.0
C286 C 0.72007 0.29287 0.98784 0.0
C287 C 0.68454 0.30647 0.0004 0.0
C288 C 0.67267 0.29095 0.02759 0.0
C289 C 0.62948 0.28688 0.03464 0.0
C290 C 0.61791 0.27251 0.06038 0.0
C291 C 0.64949 0.26284 0.07953 0.0
H292 H 0.73767 0.28485 0.04232 0.0
C293 C 0.69262 0.267 0.07241 0.0
C294 C 0.70411 0.28098 0.04679 0.0
H295 H 0.71768 0.25984 0.08678 0.0
H296 H 0.73274 0.39409 0.91946 0.0
H297 H 0.71293 0.37301 0.96549 0.0
H298 H 0.75585 0.24484 0.94916 0.0
H299 H 0.77455 0.26555 0.90313 0.0
H300 H 0.73948 0.26807 -0.003 0.0
H301 H 0.66263 0.32774 0.99 0.0
H302 H 0.60472 0.29468 0.0202 0.0
H303 H 0.58442 0.26998 0.06547 0.0
C304 C 0.44673 0.24143 0.17033 0.0
C305 C 0.48532 0.23337 0.1839 0.0
C306 C 0.40759 0.23316 0.18276 0.0
C307 C 0.40617 0.21692 0.20922 0.0
C308 C 0.44481 0.20854 0.22264 0.0
C309 C 0.48394 0.21672 0.21018 0.0
C310 C 0.36549 0.20768 0.22354 0.0
C311 C 0.32693 0.22321 0.21632 0.0
C312 C 0.28828 0.21635 0.23315 0.0
C313 C 0.2569 0.2483 0.23454 0.0
C314 C 0.22394 0.24575 0.25358 0.0
C315 C 0.22194 0.21108 0.27144 0.0
H316 H 0.30581 0.15342 0.24764 0.0
C317 C 0.25086 0.17722 0.26815 0.0
C318 C 0.28349 0.17966 0.24909 0.0
H319 H 0.24958 0.14969 0.2813 0.0
H320 H 0.44664 0.25392 0.14994 0.0
H321 H 0.37881 0.23906 0.17134 0.0
H322 H 0.44478 0.1958 0.24297 0.0
H323 H 0.51306 0.21002 0.22116 0.0
H324 H 0.36812 0.18926 0.24203 0.0
H325 H 0.32409 0.24486 0.19936 0.0
H326 H 0.2594 0.27654 0.22209 0.0
H327 H 0.20206 0.27229 0.25562 0.0
C328 C 0.26638 0.75292 0.74576 0.0
C329 C 0.30509 0.73984 0.75735 0.0
C330 C 0.2656 0.78711 0.72765 0.0
C331 C 0.30365 0.8081 0.72069 0.0
C332 C 0.34264 0.79154 0.7298 0.0
C333 C 0.34333 0.75808 0.74832 0.0
C334 C 0.3036 0.84974 0.70663 0.0
C335 C 0.2748 0.88024 0.71269 0.0
C336 C 0.27824 0.92528 0.70363 0.0
C337 C 0.25609 0.95685 0.71811 0.0
C338 C 0.25855 -0.00036 0.7105 0.0
C339 C 0.28313 0.01179 0.68809 0.0
H340 H 0.31958 0.91425 0.66901 0.0
C341 C 0.30541 0.98024 0.67363 0.0
C342 C 0.30286 0.93748 0.68119 0.0
H343 H 0.32422 0.98839 0.65604 0.0
H344 H 0.23646 0.73957 0.75264 0.0
H345 H 0.23513 0.79858 0.72032 0.0
H346 H 0.37239 0.80687 0.72445 0.0
H347 H 0.37353 0.7486 0.75713 0.0
H348 H 0.33133 0.85732 0.69446 0.0
H349 H 0.2496 0.87294 0.72703 0.0
H350 H 0.23679 0.94842 0.73545 0.0
H351 H 0.24069 0.02306 0.72193 0.0
C352 C 0.71788 0.72488 0.28542 0.0
C353 C 0.75621 0.74569 0.27944 0.0
C354 C 0.68423 0.72537 0.26712 0.0
C355 C 0.68784 0.74759 0.24261 0.0
C356 C 0.72732 0.7659 0.23576 0.0
C357 C 0.76141 0.76512 0.25416 0.0
C358 C 0.65033 0.75273 0.22453 0.0
C359 C 0.6104 0.75613 0.23458 0.0
C360 C 0.57081 0.75971 0.21818 0.0
C361 C 0.53273 0.77118 0.23133 0.0
C362 C 0.49403 0.77221 0.21736 0.0
C363 C 0.49251 0.76164 0.18984 0.0
H364 H 0.59762 0.73975 0.17966 0.0
C365 C 0.53065 0.75074 0.17652 0.0
C366 C 0.56937 0.74964 0.19051 0.0
H367 H 0.53058 0.74222 0.15532 0.0
H368 H 0.71342 0.7094 0.30477 0.0
H369 H 0.65504 0.70917 0.27257 0.0
H370 H 0.73111 0.78257 0.21677 0.0
H371 H 0.79074 0.78156 0.24929 0.0
H372 H 0.65613 0.75583 0.20303 0.0
H373 H 0.60622 0.75699 0.25636 0.0
H374 H 0.53276 0.7789 0.25267 0.0
H375 H 0.46527 0.78073 0.22822 0.0
C376 C 0.68046 0.22949 0.76655 0.0
C377 C 0.71684 0.25508 0.76925 0.0
C378 C 0.67998 0.19559 0.7484 0.0
C379 C 0.71606 0.18649 0.73247 0.0
C380 C 0.75109 0.21436 0.73358 0.0
C381 C 0.75139 0.24863 0.75171 0.0
C382 C 0.72062 0.14522 0.71795 0.0
C383 C 0.68748 0.11972 0.71186 0.0
C384 C 0.69277 0.0749 0.70293 0.0
C385 C 0.6607 0.056 0.68727 0.0
C386 C 0.66378 0.01328 0.67961 0.0
C387 C 0.69864 0.98831 0.68793 0.0
H388 H 0.752 0.06285 0.72445 0.0
C389 C 0.73027 0.00693 0.70416 0.0
C390 C 0.72743 0.04979 0.71155 0.0
H391 H 0.75756 0.98857 0.71088 0.0
H392 H 0.65338 0.23384 0.77988 0.0
H393 H 0.65251 0.17489 0.74867 0.0
H394 H 0.77932 0.20812 0.72158 0.0
H395 H 0.77999 0.26767 0.75358 0.0
H396 H 0.75282 0.13447 0.71348 0.0
H397 H 0.65508 0.13158 0.71369 0.0
H398 H 0.63331 0.07443 0.68077 0.0
H399 H 0.63884 -0.00015 0.66712 0.0
C400 C 0.94741 0.26517 0.32155 0.0
C401 C 0.98562 0.273 0.30752 0.0
C402 C 0.90796 0.27243 0.30929 0.0
C403 C 0.90582 0.28743 0.28258 0.0
C404 C 0.94403 0.29583 0.26872 0.0
C405 C 0.98353 0.28859 0.281 0.0
C406 C 0.8647 0.29533 0.2685 0.0
C407 C 0.82707 0.27792 0.27576 0.0
C408 C 0.78808 0.28341 0.25908 0.0
C409 C 0.7588 0.24977 0.25689 0.0
C410 C 0.72607 0.25132 0.23764 0.0
C411 C 0.72231 0.28664 0.22043 0.0
H412 H 0.80188 0.34789 0.24596 0.0
C413 C 0.74887 0.32197 0.2246 0.0
C414 C 0.78121 0.32054 0.24386 0.0
H415 H 0.74609 0.34995 0.21192 0.0
H416 H 0.94787 0.25348 0.34212 0.0
H417 H 0.87944 0.26672 0.321 0.0
H418 H 0.94337 0.3077 0.24818 0.0
H419 H 0.01234 0.29507 0.26968 0.0
H420 H 0.86629 0.31415 0.25012 0.0
H421 H 0.82554 0.2557 0.29249 0.0
H422 H 0.76295 0.22112 0.26878 0.0
H423 H 0.70599 0.22366 0.23485 0.0
C424 C 0.24447 0.25666 0.74149 0.0
C425 C 0.20713 0.246 0.72743 0.0
C426 C 0.24419 0.29045 0.75994 0.0
C427 C 0.20637 0.31341 0.76485 0.0
C428 C 0.1683 0.29976 0.75285 0.0
C429 C 0.16878 0.26677 0.73395 0.0
C430 C 0.20633 0.35394 0.78017 0.0
C431 C 0.23685 0.38341 0.77627 0.0
C432 C 0.23427 0.42757 0.78694 0.0
C433 C 0.25564 0.46009 0.77302 0.0
C434 C 0.25421 0.50207 0.78232 0.0
C435 C 0.23183 0.51239 0.80602 0.0
H436 H 0.19548 0.41357 0.82219 0.0
C437 C 0.21042 0.47985 0.82 0.0
C438 C 0.21157 0.43788 0.81057 0.0
H439 H 0.19319 0.48666 0.83847 0.0
H440 H 0.27447 0.2413 0.73662 0.0
H441 H 0.27385 0.29983 0.76941 0.0
H442 H 0.13872 0.31672 0.75652 0.0
H443 H 0.13962 0.2591 0.72328 0.0
H444 H 0.17781 0.36202 0.79153 0.0
H445 H 0.26292 0.37623 0.7625 0.0
H446 H 0.27346 0.45302 0.7548 0.0
H447 H 0.27139 0.52626 0.77119 0.0
C448 C 0.23218 0.66623 0.22225 0.0
C449 C 0.25775 0.70281 0.22117 0.0
C450 C 0.19933 0.66299 0.24109 0.0
C451 C 0.1913 0.69643 0.25934 0.0
C452 C 0.21927 0.73137 0.25974 0.0
C453 C 0.25248 0.73443 0.24093 0.0
C454 C 0.15081 0.6989 0.27493 0.0
C455 C 0.12541 0.66517 0.27963 0.0
C456 C 0.08106 0.66962 0.28969 0.0
C457 C 0.06298 0.6366 0.30489 0.0
C458 C 0.02074 0.63938 0.31378 0.0
C459 C 0.99545 0.67485 0.30709 0.0
H460 H 0.06801 0.73018 0.27014 0.0
C461 C 0.01318 0.70734 0.2912 0.0
C462 C 0.05557 0.70484 0.28265 0.0
H463 H 0.99455 0.73512 0.28574 0.0
H464 H 0.23566 0.64133 0.20725 0.0
H465 H 0.17847 0.63574 0.23967 0.0
H466 H 0.21384 0.75759 0.27355 0.0
H467 H 0.27155 0.76312 0.24041 0.0
H468 H 0.14038 0.7303 0.28142 0.0
H469 H 0.13694 0.63315 0.27577 0.0
H470 H 0.08173 0.6088 0.31015 0.0
H471 H 0.00795 0.61378 0.32596 0.0
C472 C 0.80649 0.5265 0.81741 0.0
C473 C 0.78619 0.49251 0.80416 0.0
C474 C 0.80144 0.56827 0.80823 0.0
C475 C 0.77615 0.57699 0.78542 0.0
C476 C 0.7559 0.54301 0.7722 0.0
C477 C 0.76097 0.50121 0.78137 0.0
C478 C 0.76996 0.62088 0.77484 0.0
C479 C 0.79783 0.65284 0.77895 0.0
C480 C 0.79473 0.69349 0.7639 0.0
C481 C 0.83211 0.71117 0.75323 0.0
C482 C 0.82979 0.74441 0.73461 0.0
C483 C 0.79012 0.76141 0.72705 0.0
H484 H 0.72596 0.70033 0.76651 0.0
C485 C 0.753 0.74679 0.73982 0.0
C486 C 0.75522 0.71276 0.75802 0.0
H487 H 0.72204 0.75918 0.73406 0.0
H488 H 0.82575 0.52101 0.83523 0.0
H489 H 0.81671 0.59353 0.81946 0.0
H490 H 0.73612 0.54879 0.75463 0.0
H491 H 0.74457 0.47584 0.77084 0.0
H492 H 0.74342 0.62596 0.76107 0.0
H493 H 0.82678 0.64718 0.79042 0.0
H494 H 0.86292 0.69713 0.75768 0.0
H495 H 0.85879 0.75511 0.72486 0.0
loop_
_geom_bond_atom_site_label_1
_geom_bond_atom_site_label_2
_geom_bond_distance
_geom_bond_site_symmetry_2
_ccdc_geom_bond_type
Mg0 O1 2.028 . S
Mg0 O7 1.986 . S
Mg0 O9 2.114 . S
Mg0 O10 2.251 . S
Mg0 O13 2.010 . S
O1 Mg0 2.028 . S
O1 C4 1.250 . S
O2 Mg3 2.028 . S
O2 C4 1.248 . S
Mg3 O2 2.028 . S
Mg3 O8 2.032 . S
Mg3 O10 2.079 . S
C4 O1 1.250 . S
C4 O2 1.248 . S
C5 O6 1.264 1_455 S
C5 O13 1.249 . S
O6 C5 1.264 1_655 S
O7 Mg0 1.986 . S
O7 C11 1.246 . S
O8 Mg3 2.032 . S
O8 C11 1.259 . S
O9 Mg0 2.114 . S
O9 C12 1.252 . S
O10 Mg0 2.251 . S
O10 Mg3 2.079 . S
O10 C12 1.273 . S
C11 O7 1.246 . S
C11 O8 1.259 . S
C12 O9 1.252 . S
C12 O10 1.273 . S
O13 Mg0 2.010 . S
O13 C5 1.249 . S
Mg14 O15 2.028 . S
Mg14 O21 1.986 . S
Mg14 O23 2.114 . S
Mg14 O24 2.251 . S
Mg14 O27 2.010 . S
O15 Mg14 2.028 . S
O15 C18 1.250 . S
O16 Mg17 2.028 . S
O16 C18 1.248 . S
Mg17 O16 2.028 . S
Mg17 O22 2.032 . S
Mg17 O24 2.079 . S
C18 O15 1.250 . S
C18 O16 1.248 . S
C19 O20 1.264 . S
C19 O27 1.249 . S
O20 C19 1.264 . S
O21 Mg14 1.986 . S
O21 C25 1.246 . S
O22 Mg17 2.032 . S
O22 C25 1.259 . S
O23 Mg14 2.114 . S
O23 C26 1.252 . S
O24 Mg14 2.251 . S
O24 Mg17 2.079 . S
O24 C26 1.273 . S
C25 O21 1.246 . S
C25 O22 1.259 . S
C26 O23 1.252 . S
C26 O24 1.273 . S
O27 Mg14 2.010 . S
O27 C19 1.249 . S
Mg28 O29 2.028 . S
Mg28 O35 1.986 . S
Mg28 O37 2.114 . S
Mg28 O38 2.251 . S
Mg28 O41 2.010 . S
O29 Mg28 2.028 . S
O29 C32 1.250 . S
O30 Mg31 2.028 . S
O30 C32 1.248 . S
Mg31 O30 2.028 . S
Mg31 O36 2.032 . S
Mg31 O38 2.079 . S
C32 O29 1.250 . S
C32 O30 1.248 . S
C33 O34 1.264 1_655 S
C33 O41 1.249 . S
O34 C33 1.264 1_455 S
O35 Mg28 1.986 . S
O35 C39 1.246 . S
O36 Mg31 2.032 . S
O36 C39 1.259 . S
O37 Mg28 2.114 . S
O37 C40 1.252 . S
O38 Mg28 2.251 . S
O38 Mg31 2.079 . S
O38 C40 1.273 . S
C39 O35 1.246 . S
C39 O36 1.259 . S
C40 O37 1.252 . S
C40 O38 1.273 . S
O41 Mg28 2.010 . S
O41 C33 1.249 . S
Mg42 O43 2.028 . S
Mg42 O49 1.986 . S
Mg42 O51 2.114 . S
Mg42 O52 2.251 . S
Mg42 O55 2.010 . S
O43 Mg42 2.028 . S
O43 C46 1.250 . S
O44 Mg45 2.028 . S
O44 C46 1.248 . S
Mg45 O44 2.028 . S
Mg45 O50 2.032 . S
Mg45 O52 2.079 . S
C46 O43 1.250 . S
C46 O44 1.248 . S
C47 O48 1.264 . S
C47 O55 1.249 . S
O48 C47 1.264 . S
O49 Mg42 1.986 . S
O49 C53 1.246 . S
O50 Mg45 2.032 . S
O50 C53 1.259 . S
O51 Mg42 2.114 . S
O51 C54 1.252 . S
O52 Mg42 2.251 . S
O52 Mg45 2.079 . S
O52 C54 1.273 . S
C53 O49 1.246 . S
C53 O50 1.259 . S
C54 O51 1.252 . S
C54 O52 1.273 . S
O55 Mg42 2.010 . S
O55 C47 1.249 . S
Mg56 O57 2.028 . S
Mg56 O63 1.986 . S
Mg56 O65 2.114 . S
Mg56 O66 2.251 . S
Mg56 O69 2.010 . S
O57 Mg56 2.028 . S
O57 C60 1.250 . S
O58 Mg59 2.028 . S
O58 C60 1.248 . S
Mg59 O58 2.028 . S
Mg59 O64 2.032 . S
Mg59 O66 2.079 . S
C60 O57 1.250 . S
C60 O58 1.248 . S
C61 O62 1.264 . S
C61 O69 1.249 . S
O62 C61 1.264 . S
O63 Mg56 1.986 . S
O63 C67 1.246 . S
O64 Mg59 2.032 . S
O64 C67 1.259 . S
O65 Mg56 2.114 . S
O65 C68 1.252 . S
O66 Mg56 2.251 . S
O66 Mg59 2.079 . S
O66 C68 1.273 . S
C67 O63 1.246 . S
C67 O64 1.259 . S
C68 O65 1.252 . S
C68 O66 1.273 . S
O69 Mg56 2.010 . S
O69 C61 1.249 . S
Mg70 O71 2.028 . S
Mg70 O77 1.986 . S
Mg70 O79 2.114 . S
Mg70 O80 2.251 . S
Mg70 O83 2.010 . S
O71 Mg70 2.028 . S
O71 C74 1.250 . S
O72 Mg73 2.028 . S
O72 C74 1.248 . S
Mg73 O72 2.028 . S
Mg73 O78 2.032 . S
Mg73 O80 2.079 . S
C74 O71 1.250 . S
C74 O72 1.248 . S
C75 O76 1.264 1_545 S
C75 O83 1.249 . S
O76 C75 1.264 1_565 S
O77 Mg70 1.986 . S
O77 C81 1.246 . S
O78 Mg73 2.032 . S
O78 C81 1.259 . S
O79 Mg70 2.114 . S
O79 C82 1.252 . S
O80 Mg70 2.251 . S
O80 Mg73 2.079 . S
O80 C82 1.273 . S
C81 O77 1.246 . S
C81 O78 1.259 . S
C82 O79 1.252 . S
C82 O80 1.273 . S
O83 Mg70 2.010 . S
O83 C75 1.249 . S
Mg84 O85 2.028 . S
Mg84 O91 1.986 . S
Mg84 O93 2.114 . S
Mg84 O94 2.251 . S
Mg84 O97 2.010 . S
O85 Mg84 2.028 . S
O85 C88 1.250 . S
O86 Mg87 2.028 . S
O86 C88 1.248 . S
Mg87 O86 2.028 . S
Mg87 O92 2.032 . S
Mg87 O94 2.079 . S
C88 O85 1.250 . S
C88 O86 1.248 . S
C89 O90 1.264 . S
C89 O97 1.249 . S
O90 C89 1.264 . S
O91 Mg84 1.986 . S
O91 C95 1.246 . S
O92 Mg87 2.032 . S
O92 C95 1.259 . S
O93 Mg84 2.114 . S
O93 C96 1.252 . S
O94 Mg84 2.251 . S
O94 Mg87 2.079 . S
O94 C96 1.273 . S
C95 O91 1.246 . S
C95 O92 1.259 . S
C96 O93 1.252 . S
C96 O94 1.273 . S
O97 Mg84 2.010 . S
O97 C89 1.249 . S
Mg98 O99 2.028 . S
Mg98 O105 1.986 . S
Mg98 O107 2.114 . S
Mg98 O108 2.251 . S
Mg98 O111 2.010 . S
O99 Mg98 2.028 . S
O99 C102 1.250 . S
O100 Mg101 2.028 . S
O100 C102 1.248 . S
Mg101 O100 2.028 . S
Mg101 O106 2.032 . S
Mg101 O108 2.079 . S
C102 O99 1.250 . S
C102 O100 1.248 . S
C103 O104 1.264 1_565 S
C103 O111 1.249 . S
O104 C103 1.264 1_545 S
O105 Mg98 1.986 . S
O105 C109 1.246 . S
O106 Mg101 2.032 . S
O106 C109 1.259 . S
O107 Mg98 2.114 . S
O107 C110 1.252 . S
O108 Mg98 2.251 . S
O108 Mg101 2.079 . S
O108 C110 1.273 . S
C109 O105 1.246 . S
C109 O106 1.259 . S
C110 O107 1.252 . S
C110 O108 1.273 . S
O111 Mg98 2.010 . S
O111 C103 1.249 . S
C112 C113 1.386 . S
C112 C114 1.383 . S
C112 H128 0.951 . S
C113 C112 1.386 . S
C113 C117 1.383 . S
C114 C112 1.383 . S
C114 C115 1.402 . S
C114 H129 0.951 . S
C115 C114 1.402 . S
C115 C116 1.375 . S
C115 C118 1.481 . S
C116 C115 1.375 . S
C116 C117 1.367 . S
C116 H130 0.951 . S
C117 C113 1.383 . S
C117 C116 1.367 . S
C117 H131 0.950 . S
C118 C115 1.481 . S
C118 C119 1.297 1_545 S
C118 H132 0.950 1_455 S
C119 C118 1.297 1_565 S
C119 C120 1.479 1_455 S
C119 H133 0.950 . S
C120 C119 1.479 1_655 S
C120 C121 1.375 . S
C120 C126 1.404 . S
C121 C120 1.375 . S
C121 C122 1.369 . S
C121 H134 0.950 1_655 S
C122 C121 1.369 . S
C122 C123 1.392 . S
C122 H135 0.951 . S
C123 C122 1.392 . S
C123 C125 1.384 . S
H124 C126 0.949 . S
C125 C123 1.384 . S
C125 C126 1.385 . S
C125 H127 0.950 . S
C126 C120 1.404 . S
C126 H124 0.949 . S
C126 C125 1.385 . S
H127 C125 0.950 . S
H128 C112 0.951 . S
H129 C114 0.951 . S
H130 C116 0.951 . S
H131 C117 0.950 . S
H132 C118 0.950 1_655 S
H133 C119 0.950 . S
H134 C121 0.950 1_455 S
H135 C122 0.951 . S
C136 C137 1.386 . S
C136 C138 1.383 . S
C136 H152 0.951 . S
C137 C136 1.386 . S
C137 C141 1.383 . S
C138 C136 1.383 . S
C138 C139 1.402 . S
C138 H153 0.951 . S
C139 C138 1.402 . S
C139 C140 1.375 . S
C139 C142 1.481 . S
C140 C139 1.375 . S
C140 C141 1.367 . S
C140 H154 0.951 . S
C141 C137 1.383 . S
C141 C140 1.367 . S
C141 H155 0.950 . S
C142 C139 1.481 . S
C142 C143 1.297 . S
C142 H156 0.950 . S
C143 C142 1.297 . S
C143 C144 1.479 . S
C143 H157 0.950 . S
C144 C143 1.479 . S
C144 C145 1.375 . S
C144 C150 1.404 . S
C145 C144 1.375 . S
C145 C146 1.369 . S
C145 H158 0.950 . S
C146 C145 1.369 . S
C146 C147 1.392 . S
C146 H159 0.951 . S
C147 C146 1.392 . S
C147 C149 1.384 . S
H148 C150 0.949 . S
C149 C147 1.384 . S
C149 C150 1.385 . S
C149 H151 0.950 . S
C150 C144 1.404 . S
C150 H148 0.949 . S
C150 C149 1.385 . S
H151 C149 0.950 . S
H152 C136 0.951 . S
H153 C138 0.951 . S
H154 C140 0.951 . S
H155 C141 0.950 . S
H156 C142 0.950 . S
H157 C143 0.950 . S
H158 C145 0.950 . S
H159 C146 0.951 . S
C160 C161 1.386 . S
C160 C162 1.383 . S
C160 H176 0.951 . S
C161 C160 1.386 . S
C161 C165 1.383 . S
C162 C160 1.383 . S
C162 C163 1.402 . S
C162 H177 0.951 . S
C163 C162 1.402 . S
C163 C164 1.375 . S
C163 C166 1.481 . S
C164 C163 1.375 . S
C164 C165 1.367 . S
C164 H178 0.951 . S
C165 C161 1.383 . S
C165 C164 1.367 . S
C165 H179 0.950 . S
C166 C163 1.481 . S
C166 C167 1.297 . S
C166 H180 0.950 . S
C167 C166 1.297 . S
C167 C168 1.479 . S
C167 H181 0.950 . S
C168 C167 1.479 . S
C168 C169 1.375 . S
C168 C174 1.404 . S
C169 C168 1.375 . S
C169 C170 1.369 . S
C169 H182 0.950 . S
C170 C169 1.369 . S
C170 C171 1.392 . S
C170 H183 0.951 . S
C171 C170 1.392 . S
C171 C173 1.384 . S
H172 C174 0.949 . S
C173 C171 1.384 . S
C173 C174 1.385 . S
C173 H175 0.950 . S
C174 C168 1.404 . S
C174 H172 0.949 . S
C174 C173 1.385 . S
H175 C173 0.950 . S
H176 C160 0.951 . S
H177 C162 0.951 . S
H178 C164 0.951 . S
H179 C165 0.950 . S
H180 C166 0.950 . S
H181 C167 0.950 . S
H182 C169 0.950 . S
H183 C170 0.951 . S
C184 C185 1.386 . S
C184 C186 1.383 . S
C184 H200 0.951 . S
C185 C184 1.386 . S
C185 C189 1.383 . S
C186 C184 1.383 . S
C186 C187 1.402 . S
C186 H201 0.951 1_545 S
C187 C186 1.402 . S
C187 C188 1.375 . S
C187 C190 1.481 . S
C188 C187 1.375 . S
C188 C189 1.367 . S
C188 H202 0.951 . S
C189 C185 1.383 . S
C189 C188 1.367 . S
C189 H203 0.950 . S
C190 C187 1.481 . S
C190 C191 1.297 1_445 S
C190 H204 0.950 1_455 S
C191 C190 1.297 1_665 S
C191 C192 1.479 . S
C191 H205 0.950 1_655 S
C192 C191 1.479 . S
C192 C193 1.375 . S
C192 C198 1.404 . S
C193 C192 1.375 . S
C193 C194 1.369 . S
C193 H206 0.950 . S
C194 C193 1.369 . S
C194 C195 1.392 . S
C194 H207 0.951 . S
C195 C194 1.392 . S
C195 C197 1.384 . S
H196 C198 0.949 1_545 S
C197 C195 1.384 . S
C197 C198 1.385 . S
C197 H199 0.950 . S
C198 C192 1.404 . S
C198 H196 0.949 1_565 S
C198 C197 1.385 . S
H199 C197 0.950 . S
H200 C184 0.951 . S
H201 C186 0.951 1_565 S
H202 C188 0.951 . S
H203 C189 0.950 . S
H204 C190 0.950 1_655 S
H205 C191 0.950 1_455 S
H206 C193 0.950 . S
H207 C194 0.951 . S
C208 C209 1.386 . S
C208 C210 1.383 . S
C208 H224 0.951 . S
C209 C208 1.386 . S
C209 C213 1.383 . S
C210 C208 1.383 . S
C210 C211 1.402 . S
C210 H225 0.951 . S
C211 C210 1.402 . S
C211 C212 1.375 . S
C211 C214 1.481 . S
C212 C211 1.375 . S
C212 C213 1.367 . S
C212 H226 0.951 . S
C213 C209 1.383 . S
C213 C212 1.367 . S
C213 H227 0.950 . S
C214 C211 1.481 . S
C214 C215 1.297 . S
C214 H228 0.950 . S
C215 C214 1.297 . S
C215 C216 1.479 . S
C215 H229 0.950 . S
C216 C215 1.479 . S
C216 C217 1.375 . S
C216 C222 1.404 . S
C217 C216 1.375 . S
C217 C218 1.369 . S
C217 H230 0.950 . S
C218 C217 1.369 . S
C218 C219 1.392 . S
C218 H231 0.951 . S
C219 C218 1.392 . S
C219 C221 1.384 . S
H220 C222 0.949 . S
C221 C219 1.384 . S
C221 C222 1.385 . S
C221 H223 0.950 . S
C222 C216 1.404 . S
C222 H220 0.949 . S
C222 C221 1.385 . S
H223 C221 0.950 . S
H224 C208 0.951 . S
H225 C210 0.951 . S
H226 C212 0.951 . S
H227 C213 0.950 . S
H228 C214 0.950 . S
H229 C215 0.950 . S
H230 C217 0.950 . S
H231 C218 0.951 . S
C232 C233 1.386 . S
C232 C234 1.383 . S
C232 H248 0.951 . S
C233 C232 1.386 . S
C233 C237 1.383 . S
C234 C232 1.383 . S
C234 C235 1.402 . S
C234 H249 0.951 . S
C235 C234 1.402 . S
C235 C236 1.375 . S
C235 C238 1.481 . S
C236 C235 1.375 . S
C236 C237 1.367 . S
C236 H250 0.951 . S
C237 C233 1.383 . S
C237 C236 1.367 . S
C237 H251 0.950 . S
C238 C235 1.481 . S
C238 C239 1.297 1_556 S
C238 H252 0.950 . S
C239 C238 1.297 1_554 S
C239 C240 1.479 . S
C239 H253 0.950 . S
C240 C239 1.479 . S
C240 C241 1.375 . S
C240 C246 1.404 . S
C241 C240 1.375 . S
C241 C242 1.369 . S
C241 H254 0.950 . S
C242 C241 1.369 . S
C242 C243 1.392 . S
C242 H255 0.951 . S
C243 C242 1.392 . S
C243 C245 1.384 . S
H244 C246 0.949 . S
C245 C243 1.384 . S
C245 C246 1.385 . S
C245 H247 0.950 . S
C246 C240 1.404 . S
C246 H244 0.949 . S
C246 C245 1.385 . S
H247 C245 0.950 . S
H248 C232 0.951 . S
H249 C234 0.951 . S
H250 C236 0.951 . S
H251 C237 0.950 . S
H252 C238 0.950 . S
H253 C239 0.950 . S
H254 C241 0.950 . S
H255 C242 0.951 . S
C256 C257 1.386 . S
C256 C258 1.383 . S
C256 H272 0.951 . S
C257 C256 1.386 . S
C257 C261 1.383 . S
C258 C256 1.383 . S
C258 C259 1.402 . S
C258 H273 0.951 . S
C259 C258 1.402 . S
C259 C260 1.375 . S
C259 C262 1.481 . S
C260 C259 1.375 . S
C260 C261 1.367 . S
C260 H274 0.951 . S
C261 C257 1.383 . S
C261 C260 1.367 . S
C261 H275 0.950 . S
C262 C259 1.481 . S
C262 C263 1.297 . S
C262 H276 0.950 . S
C263 C262 1.297 . S
C263 C264 1.479 . S
C263 H277 0.950 . S
C264 C263 1.479 . S
C264 C265 1.375 . S
C264 C270 1.404 . S
C265 C264 1.375 . S
C265 C266 1.369 . S
C265 H278 0.950 . S
C266 C265 1.369 . S
C266 C267 1.392 . S
C266 H279 0.951 . S
C267 C266 1.392 . S
C267 C269 1.384 . S
H268 C270 0.949 . S
C269 C267 1.384 . S
C269 C270 1.385 . S
C269 H271 0.950 . S
C270 C264 1.404 . S
C270 H268 0.949 . S
C270 C269 1.385 . S
H271 C269 0.950 . S
H272 C256 0.951 . S
H273 C258 0.951 . S
H274 C260 0.951 . S
H275 C261 0.950 . S
H276 C262 0.950 . S
H277 C263 0.950 . S
H278 C265 0.950 . S
H279 C266 0.951 . S
C280 C281 1.386 . S
C280 C282 1.383 . S
C280 H296 0.951 . S
C281 C280 1.386 . S
C281 C285 1.383 . S
C282 C280 1.383 . S
C282 C283 1.402 . S
C282 H297 0.951 . S
C283 C282 1.402 . S
C283 C284 1.375 . S
C283 C286 1.481 . S
C284 C283 1.375 . S
C284 C285 1.367 . S
C284 H298 0.951 . S
C285 C281 1.383 . S
C285 C284 1.367 . S
C285 H299 0.950 . S
C286 C283 1.481 . S
C286 C287 1.297 1_556 S
C286 H300 0.950 . S
C287 C286 1.297 1_554 S
C287 C288 1.479 . S
C287 H301 0.940 1_554 S
C288 C287 1.479 . S
C288 C289 1.375 . S
C288 C294 1.404 . S
C289 C288 1.375 . S
C289 C290 1.369 . S
C289 H302 0.950 . S
C290 C289 1.369 . S
C290 C291 1.392 . S
C290 H303 0.951 . S
C291 C290 1.392 . S
C291 C293 1.384 . S
H292 C294 0.949 . S
C293 C291 1.384 . S
C293 C294 1.385 . S
C293 H295 0.950 . S
C294 C288 1.404 . S
C294 H292 0.949 . S
C294 C293 1.385 . S
H295 C293 0.950 . S
H296 C280 0.951 . S
H297 C282 0.951 . S
H298 C284 0.951 . S
H299 C285 0.950 . S
H300 C286 0.950 . S
H301 C287 0.940 1_556 S
H302 C289 0.950 . S
H303 C290 0.951 . S
C304 C305 1.386 . S
C304 C306 1.383 . S
C304 H320 0.951 . S
C305 C304 1.386 . S
C305 C309 1.383 . S
C306 C304 1.383 . S
C306 C307 1.402 . S
C306 H321 0.951 . S
C307 C306 1.402 . S
C307 C308 1.375 . S
C307 C310 1.481 . S
C308 C307 1.375 . S
C308 C309 1.367 . S
C308 H322 0.951 . S
C309 C305 1.383 . S
C309 C308 1.367 . S
C309 H323 0.950 . S
C310 C307 1.481 . S
C310 C311 1.297 . S
C310 H324 0.950 . S
C311 C310 1.297 . S
C311 C312 1.479 . S
C311 H325 0.950 . S
C312 C311 1.479 . S
C312 C313 1.375 . S
C312 C318 1.404 . S
C313 C312 1.375 . S
C313 C314 1.369 . S
C313 H326 0.950 . S
C314 C313 1.369 . S
C314 C315 1.392 . S
C314 H327 0.951 . S
C315 C314 1.392 . S
C315 C317 1.384 . S
H316 C318 0.949 . S
C317 C315 1.384 . S
C317 C318 1.385 . S
C317 H319 0.950 . S
C318 C312 1.404 . S
C318 H316 0.949 . S
C318 C317 1.385 . S
H319 C317 0.950 . S
H320 C304 0.951 . S
H321 C306 0.951 . S
H322 C308 0.951 . S
H323 C309 0.950 . S
H324 C310 0.950 . S
H325 C311 0.950 . S
H326 C313 0.950 . S
H327 C314 0.951 . S
C328 C329 1.386 . S
C328 C330 1.383 . S
C328 H344 0.951 . S
C329 C328 1.386 . S
C329 C333 1.383 . S
C330 C328 1.383 . S
C330 C331 1.402 . S
C330 H345 0.951 . S
C331 C330 1.402 . S
C331 C332 1.375 . S
C331 C334 1.481 . S
C332 C331 1.375 . S
C332 C333 1.367 . S
C332 H346 0.951 . S
C333 C329 1.383 . S
C333 C332 1.367 . S
C333 H347 0.950 . S
C334 C331 1.481 . S
C334 C335 1.297 . S
C334 H348 0.950 . S
C335 C334 1.297 . S
C335 C336 1.479 . S
C335 H349 0.950 . S
C336 C335 1.479 . S
C336 C337 1.375 . S
C336 C342 1.404 . S
C337 C336 1.375 . S
C337 C338 1.369 . S
C337 H350 0.950 . S
C338 C337 1.369 . S
C338 C339 1.392 . S
C338 H351 0.951 . S
C339 C338 1.392 . S
C339 C341 1.384 . S
H340 C342 0.949 . S
C341 C339 1.384 . S
C341 C342 1.385 . S
C341 H343 0.950 . S
C342 C336 1.404 . S
C342 H340 0.949 . S
C342 C341 1.385 . S
H343 C341 0.950 . S
H344 C328 0.951 . S
H345 C330 0.951 . S
H346 C332 0.951 . S
H347 C333 0.950 . S
H348 C334 0.950 . S
H349 C335 0.950 . S
H350 C337 0.950 . S
H351 C338 0.951 . S
C352 C353 1.386 . S
C352 C354 1.383 . S
C352 H368 0.951 . S
C353 C352 1.386 . S
C353 C357 1.383 . S
C354 C352 1.383 . S
C354 C355 1.402 . S
C354 H369 0.951 . S
C355 C354 1.402 . S
C355 C356 1.375 . S
C355 C358 1.481 . S
C356 C355 1.375 . S
C356 C357 1.367 . S
C356 H370 0.951 . S
C357 C353 1.383 . S
C357 C356 1.367 . S
C357 H371 0.950 . S
C358 C355 1.481 . S
C358 C359 1.297 . S
C358 H372 0.950 . S
C359 C358 1.297 . S
C359 C360 1.479 . S
C359 H373 0.950 . S
C360 C359 1.479 . S
C360 C361 1.375 . S
C360 C366 1.404 . S
C361 C360 1.375 . S
C361 C362 1.369 . S
C361 H374 0.950 . S
C362 C361 1.369 . S
C362 C363 1.392 . S
C362 H375 0.951 . S
C363 C362 1.392 . S
C363 C365 1.384 . S
H364 C366 0.949 . S
C365 C363 1.384 . S
C365 C366 1.385 . S
C365 H367 0.950 . S
C366 C360 1.404 . S
C366 H364 0.949 . S
C366 C365 1.385 . S
H367 C365 0.950 . S
H368 C352 0.951 . S
H369 C354 0.951 . S
H370 C356 0.951 . S
H371 C357 0.950 . S
H372 C358 0.950 . S
H373 C359 0.950 . S
H374 C361 0.950 . S
H375 C362 0.951 . S
C376 C377 1.386 . S
C376 C378 1.383 . S
C376 H392 0.951 . S
C377 C376 1.386 . S
C377 C381 1.383 . S
C378 C376 1.383 . S
C378 C379 1.402 . S
C378 H393 0.951 . S
C379 C378 1.402 . S
C379 C380 1.375 . S
C379 C382 1.481 . S
C380 C379 1.375 . S
C380 C381 1.367 . S
C380 H394 0.951 . S
C381 C377 1.383 . S
C381 C380 1.367 . S
C381 H395 0.950 . S
C382 C379 1.481 . S
C382 C383 1.297 . S
C382 H396 0.950 . S
C383 C382 1.297 . S
C383 C384 1.479 . S
C383 H397 0.950 . S
C384 C383 1.479 . S
C384 C385 1.375 . S
C384 C390 1.404 . S
C385 C384 1.375 . S
C385 C386 1.369 . S
C385 H398 0.950 . S
C386 C385 1.369 . S
C386 C387 1.392 . S
C386 H399 0.951 . S
C387 C386 1.392 . S
C387 C389 1.384 . S
H388 C390 0.949 . S
C389 C387 1.384 . S
C389 C390 1.385 . S
C389 H391 0.950 . S
C390 C384 1.404 . S
C390 H388 0.949 . S
C390 C389 1.385 . S
H391 C389 0.950 . S
H392 C376 0.951 . S
H393 C378 0.951 . S
H394 C380 0.951 . S
H395 C381 0.950 . S
H396 C382 0.950 . S
H397 C383 0.950 . S
H398 C385 0.950 . S
H399 C386 0.951 . S
C400 C401 1.386 . S
C400 C402 1.383 . S
C400 H416 0.951 . S
C401 C400 1.386 . S
C401 C405 1.383 . S
C402 C400 1.383 . S
C402 C403 1.402 . S
C402 H417 0.951 . S
C403 C402 1.402 . S
C403 C404 1.375 . S
C403 C406 1.481 . S
C404 C403 1.375 . S
C404 C405 1.367 . S
C404 H418 0.951 . S
C405 C401 1.383 . S
C405 C404 1.367 . S
C405 H419 0.950 . S
C406 C403 1.481 . S
C406 C407 1.297 . S
C406 H420 0.950 . S
C407 C406 1.297 . S
C407 C408 1.479 . S
C407 H421 0.950 . S
C408 C407 1.479 . S
C408 C409 1.375 . S
C408 C414 1.404 . S
C409 C408 1.375 . S
C409 C410 1.369 . S
C409 H422 0.950 . S
C410 C409 1.369 . S
C410 C411 1.392 . S
C410 H423 0.951 . S
C411 C410 1.392 . S
C411 C413 1.384 . S
H412 C414 0.949 . S
C413 C411 1.384 . S
C413 C414 1.385 . S
C413 H415 0.950 . S
C414 C408 1.404 . S
C414 H412 0.949 . S
C414 C413 1.385 . S
H415 C413 0.950 . S
H416 C400 0.951 . S
H417 C402 0.951 . S
H418 C404 0.951 . S
H419 C405 0.950 . S
H420 C406 0.950 . S
H421 C407 0.950 . S
H422 C409 0.950 . S
H423 C410 0.951 . S
C424 C425 1.386 . S
C424 C426 1.383 . S
C424 H440 0.951 . S
C425 C424 1.386 . S
C425 C429 1.383 . S
C426 C424 1.383 . S
C426 C427 1.402 . S
C426 H441 0.951 . S
C427 C426 1.402 . S
C427 C428 1.375 . S
C427 C430 1.481 . S
C428 C427 1.375 . S
C428 C429 1.367 . S
C428 H442 0.951 . S
C429 C425 1.383 . S
C429 C428 1.367 . S
C429 H443 0.950 . S
C430 C427 1.481 . S
C430 C431 1.297 . S
C430 H444 0.950 . S
C431 C430 1.297 . S
C431 C432 1.479 . S
C431 H445 0.950 . S
C432 C431 1.479 . S
C432 C433 1.375 . S
C432 C438 1.404 . S
C433 C432 1.375 . S
C433 C434 1.369 . S
C433 H446 0.950 . S
C434 C433 1.369 . S
C434 C435 1.392 . S
C434 H447 0.951 . S
C435 C434 1.392 . S
C435 C437 1.384 . S
H436 C438 0.949 . S
C437 C435 1.384 . S
C437 C438 1.385 . S
C437 H439 0.950 . S
C438 C432 1.404 . S
C438 H436 0.949 . S
C438 C437 1.385 . S
H439 C437 0.950 . S
H440 C424 0.951 . S
H441 C426 0.951 . S
H442 C428 0.951 . S
H443 C429 0.950 . S
H444 C430 0.950 . S
H445 C431 0.950 . S
H446 C433 0.950 . S
H447 C434 0.951 . S
C448 C449 1.386 . S
C448 C450 1.383 . S
C448 H464 0.951 . S
C449 C448 1.386 . S
C449 C453 1.383 . S
C450 C448 1.383 . S
C450 C451 1.402 . S
C450 H465 0.951 . S
C451 C450 1.402 . S
C451 C452 1.375 . S
C451 C454 1.481 . S
C452 C451 1.375 . S
C452 C453 1.367 . S
C452 H466 0.951 . S
C453 C449 1.383 . S
C453 C452 1.367 . S
C453 H467 0.950 . S
C454 C451 1.481 . S
C454 C455 1.297 . S
C454 H468 0.950 . S
C455 C454 1.297 . S
C455 C456 1.479 . S
C455 H469 0.950 . S
C456 C455 1.479 . S
C456 C457 1.375 . S
C456 C462 1.404 . S
C457 C456 1.375 . S
C457 C458 1.369 . S
C457 H470 0.950 . S
C458 C457 1.369 . S
C458 C459 1.392 . S
C458 H471 0.951 . S
C459 C458 1.392 . S
C459 C461 1.384 . S
H460 C462 0.949 . S
C461 C459 1.384 . S
C461 C462 1.385 . S
C461 H463 0.950 . S
C462 C456 1.404 . S
C462 H460 0.949 . S
C462 C461 1.385 . S
H463 C461 0.950 . S
H464 C448 0.951 . S
H465 C450 0.951 . S
H466 C452 0.951 . S
H467 C453 0.950 . S
H468 C454 0.950 . S
H469 C455 0.950 . S
H470 C457 0.950 . S
H471 C458 0.951 . S
C472 C473 1.386 . S
C472 C474 1.383 . S
C472 H488 0.951 . S
C473 C472 1.386 . S
C473 C477 1.383 . S
C474 C472 1.383 . S
C474 C475 1.402 . S
C474 H489 0.951 . S
C475 C474 1.402 . S
C475 C476 1.375 . S
C475 C478 1.481 . S
C476 C475 1.375 . S
C476 C477 1.367 . S
C476 H490 0.951 . S
C477 C473 1.383 . S
C477 C476 1.367 . S
C477 H491 0.950 . S
C478 C475 1.481 . S
C478 C479 1.297 . S
C478 H492 0.950 . S
C479 C478 1.297 . S
C479 C480 1.479 . S
C479 H493 0.950 . S
C480 C479 1.479 . S
C480 C481 1.375 . S
C480 C486 1.404 . S
C481 C480 1.375 . S
C481 C482 1.369 . S
C481 H494 0.950 . S
C482 C481 1.369 . S
C482 C483 1.392 . S
C482 H495 0.951 . S
C483 C482 1.392 . S
C483 C485 1.384 . S
H484 C486 0.949 . S
C485 C483 1.384 . S
C485 C486 1.385 . S
C485 H487 0.950 . S
C486 C480 1.404 . S
C486 H484 0.949 . S
C486 C485 1.385 . S
H487 C485 0.950 . S
H488 C472 0.951 . S
H489 C474 0.951 . S
H490 C476 0.951 . S
H491 C477 0.950 . S
H492 C478 0.950 . S
H493 C479 0.950 . S
H494 C481 0.950 . S
H495 C482 0.951 . S
C113 C4 0.139 . S
C123 C32 0.312 . S
C137 C18 0.262 . S
C147 C46 0.431 . S
C161 C60 0.354 . S
C171 C88 0.302 . S
C185 C74 0.297 . S
C195 C102 0.420 . S
C209 C12 1.531 . S
C219 C82 1.530 . S
C233 C26 1.490 . S
C243 C96 1.481 . S
C257 C110 1.532 . S
C267 C40 1.526 . S
C281 C54 1.499 . S
C291 C68 1.527 . S
C305 C61 1.376 . S
C315 C11 1.453 . S
C329 C25 1.426 . S
C339 C75 1.442 1_565 S
C353 C39 1.444 . S
C363 C89 1.346 . S
C377 C53 1.476 . S
C387 C103 1.388 1_545 S
C401 C5 1.376 1_655 S
C411 C67 1.453 . S
C425 C81 1.428 . S
C435 C19 1.445 . S
C449 C95 1.475 . S
C459 C33 1.376 1_455 S
C473 C47 1.447 . S
C483 C109 1.426 . S
