# Generated by pormake.
# Topology wse, (4)-cn, num edge types: 1
# Building blocks:
#     Node 0, Type 0, BuildingBlock: CEKHIL_clean_sbu_0, # of connection points: 4
#     Node 1, Type 0, BuildingBlock: CEKHIL_clean_sbu_0, # of connection points: 4
#     Node 2, Type 0, BuildingBlock: CEKHIL_clean_sbu_0, # of connection points: 4
#     Node 3, Type 0, BuildingBlock: CEKHIL_clean_sbu_0, # of connection points: 4
#     Node 4, Type 0, BuildingBlock: CEKHIL_clean_sbu_0, # of connection points: 4
#     Node 5, Type 0, BuildingBlock: CEKHIL_clean_sbu_0, # of connection points: 4
#     Node 6, Type 0, BuildingBlock: CEKHIL_clean_sbu_0, # of connection points: 4
#     Node 7, Type 0, BuildingBlock: CEKHIL_clean_sbu_0, # of connection points: 4
#     Node 8, Type 0, BuildingBlock: CEKHIL_clean_sbu_0, # of connection points: 4
#     Node 9, Type 0, BuildingBlock: CEKHIL_clean_sbu_0, # of connection points: 4
#     Node 10, Type 0, BuildingBlock: CEKHIL_clean_sbu_0, # of connection points: 4
#     Node 11, Type 0, BuildingBlock: CEKHIL_clean_sbu_0, # of connection points: 4
#     Node 12, Type 0, BuildingBlock: CEKHIL_clean_sbu_0, # of connection points: 4
#     Node 13, Type 0, BuildingBlock: CEKHIL_clean_sbu_0, # of connection points: 4
#     Node 14, Type 0, BuildingBlock: CEKHIL_clean_sbu_0, # of connection points: 4
#     Node 15, Type 0, BuildingBlock: CEKHIL_clean_sbu_0, # of connection points: 4
#     Node 16, Type 0, BuildingBlock: CEKHIL_clean_sbu_0, # of connection points: 4
#     Node 17, Type 0, BuildingBlock: CEKHIL_clean_sbu_0, # of connection points: 4
#     Node 18, Type 0, BuildingBlock: CEKHIL_clean_sbu_0, # of connection points: 4
#     Node 19, Type 0, BuildingBlock: CEKHIL_clean_sbu_0, # of connection points: 4
#     Node 20, Type 0, BuildingBlock: CEKHIL_clean_sbu_0, # of connection points: 4
#     Node 21, Type 0, BuildingBlock: CEKHIL_clean_sbu_0, # of connection points: 4
#     Node 22, Type 0, BuildingBlock: CEKHIL_clean_sbu_0, # of connection points: 4
#     Node 23, Type 0, BuildingBlock: CEKHIL_clean_sbu_0, # of connection points: 4
#     Node 24, Type 0, BuildingBlock: CEKHIL_clean_sbu_0, # of connection points: 4
#     Node 25, Type 0, BuildingBlock: CEKHIL_clean_sbu_0, # of connection points: 4
#     Node 26, Type 0, BuildingBlock: CEKHIL_clean_sbu_0, # of connection points: 4
#     Node 27, Type 0, BuildingBlock: CEKHIL_clean_sbu_0, # of connection points: 4
#     Node 28, Type 0, BuildingBlock: CEKHIL_clean_sbu_0, # of connection points: 4
#     Node 29, Type 0, BuildingBlock: CEKHIL_clean_sbu_0, # of connection points: 4
#     Node 30, Type 0, BuildingBlock: CEKHIL_clean_sbu_0, # of connection points: 4
#     Node 31, Type 0, BuildingBlock: CEKHIL_clean_sbu_0, # of connection points: 4
#     Node 32, Type 0, BuildingBlock: CEKHIL_clean_sbu_0, # of connection points: 4
#     Node 33, Type 0, BuildingBlock: CEKHIL_clean_sbu_0, # of connection points: 4
#     Node 34, Type 0, BuildingBlock: CEKHIL_clean_sbu_0, # of connection points: 4
#     Node 35, Type 0, BuildingBlock: CEKHIL_clean_sbu_0, # of connection points: 4
#     Node 36, Type 0, BuildingBlock: CEKHIL_clean_sbu_0, # of connection points: 4
#     Node 37, Type 0, BuildingBlock: CEKHIL_clean_sbu_0, # of connection points: 4
#     Node 38, Type 0, BuildingBlock: CEKHIL_clean_sbu_0, # of connection points: 4
#     Node 39, Type 0, BuildingBlock: CEKHIL_clean_sbu_0, # of connection points: 4
#     Node 40, Type 0, BuildingBlock: CEKHIL_clean_sbu_0, # of connection points: 4
#     Node 41, Type 0, BuildingBlock: CEKHIL_clean_sbu_0, # of connection points: 4
#     Node 42, Type 0, BuildingBlock: CEKHIL_clean_sbu_0, # of connection points: 4
#     Node 43, Type 0, BuildingBlock: CEKHIL_clean_sbu_0, # of connection points: 4
#     Node 44, Type 0, BuildingBlock: CEKHIL_clean_sbu_0, # of connection points: 4
#     Node 45, Type 0, BuildingBlock: CEKHIL_clean_sbu_0, # of connection points: 4
#     Node 46, Type 0, BuildingBlock: CEKHIL_clean_sbu_0, # of connection points: 4
#     Node 47, Type 0, BuildingBlock: CEKHIL_clean_sbu_0, # of connection points: 4
#     Node 48, Type 0, BuildingBlock: CEKHIL_clean_sbu_0, # of connection points: 4
#     Node 49, Type 0, BuildingBlock: CEKHIL_clean_sbu_0, # of connection points: 4
#     Node 50, Type 0, BuildingBlock: CEKHIL_clean_sbu_0, # of connection points: 4
#     Node 51, Type 0, BuildingBlock: CEKHIL_clean_sbu_0, # of connection points: 4
#     Node 52, Type 0, BuildingBlock: CEKHIL_clean_sbu_0, # of connection points: 4
#     Node 53, Type 0, BuildingBlock: CEKHIL_clean_sbu_0, # of connection points: 4
#     Node 54, Type 0, BuildingBlock: CEKHIL_clean_sbu_0, # of connection points: 4
#     Node 55, Type 0, BuildingBlock: CEKHIL_clean_sbu_0, # of connection points: 4
#     Node 56, Type 0, BuildingBlock: CEKHIL_clean_sbu_0, # of connection points: 4
#     Node 57, Type 0, BuildingBlock: CEKHIL_clean_sbu_0, # of connection points: 4
#     Node 58, Type 0, BuildingBlock: CEKHIL_clean_sbu_0, # of connection points: 4
#     Node 59, Type 0, BuildingBlock: CEKHIL_clean_sbu_0, # of connection points: 4
#     Node 60, Type 0, BuildingBlock: CEKHIL_clean_sbu_0, # of connection points: 4
#     Node 61, Type 0, BuildingBlock: CEKHIL_clean_sbu_0, # of connection points: 4
#     Node 62, Type 0, BuildingBlock: CEKHIL_clean_sbu_0, # of connection points: 4
#     Node 63, Type 0, BuildingBlock: CEKHIL_clean_sbu_0, # of connection points: 4
#     Node 64, Type 0, BuildingBlock: CEKHIL_clean_sbu_0, # of connection points: 4
#     Node 65, Type 0, BuildingBlock: CEKHIL_clean_sbu_0, # of connection points: 4
#     Node 66, Type 0, BuildingBlock: CEKHIL_clean_sbu_0, # of connection points: 4
#     Node 67, Type 0, BuildingBlock: CEKHIL_clean_sbu_0, # of connection points: 4
#     Node 68, Type 0, BuildingBlock: CEKHIL_clean_sbu_0, # of connection points: 4
#     Node 69, Type 0, BuildingBlock: CEKHIL_clean_sbu_0, # of connection points: 4
#     Node 70, Type 0, BuildingBlock: CEKHIL_clean_sbu_0, # of connection points: 4
#     Node 71, Type 0, BuildingBlock: CEKHIL_clean_sbu_0, # of connection points: 4
#     Node 72, Type 0, BuildingBlock: CEKHIL_clean_sbu_0, # of connection points: 4
#     Node 73, Type 0, BuildingBlock: CEKHIL_clean_sbu_0, # of connection points: 4
#     Node 74, Type 0, BuildingBlock: CEKHIL_clean_sbu_0, # of connection points: 4
#     Node 75, Type 0, BuildingBlock: CEKHIL_clean_sbu_0, # of connection points: 4
#     Node 76, Type 0, BuildingBlock: CEKHIL_clean_sbu_0, # of connection points: 4
#     Node 77, Type 0, BuildingBlock: CEKHIL_clean_sbu_0, # of connection points: 4
#     Node 78, Type 0, BuildingBlock: CEKHIL_clean_sbu_0, # of connection points: 4
#     Node 79, Type 0, BuildingBlock: CEKHIL_clean_sbu_0, # of connection points: 4
#     Node 80, Type 0, BuildingBlock: CEKHIL_clean_sbu_0, # of connection points: 4
#     Node 81, Type 0, BuildingBlock: CEKHIL_clean_sbu_0, # of connection points: 4
#     Node 82, Type 0, BuildingBlock: CEKHIL_clean_sbu_0, # of connection points: 4
#     Node 83, Type 0, BuildingBlock: CEKHIL_clean_sbu_0, # of connection points: 4
#     Node 84, Type 0, BuildingBlock: CEKHIL_clean_sbu_0, # of connection points: 4
#     Node 85, Type 0, BuildingBlock: CEKHIL_clean_sbu_0, # of connection points: 4
#     Node 86, Type 0, BuildingBlock: CEKHIL_clean_sbu_0, # of connection points: 4
#     Node 87, Type 0, BuildingBlock: CEKHIL_clean_sbu_0, # of connection points: 4
#     Node 88, Type 0, BuildingBlock: CEKHIL_clean_sbu_0, # of connection points: 4
#     Node 89, Type 0, BuildingBlock: CEKHIL_clean_sbu_0, # of connection points: 4
#     Node 90, Type 0, BuildingBlock: CEKHIL_clean_sbu_0, # of connection points: 4
#     Node 91, Type 0, BuildingBlock: CEKHIL_clean_sbu_0, # of connection points: 4
#     Node 92, Type 0, BuildingBlock: CEKHIL_clean_sbu_0, # of connection points: 4
#     Node 93, Type 0, BuildingBlock: CEKHIL_clean_sbu_0, # of connection points: 4
#     Node 94, Type 0, BuildingBlock: CEKHIL_clean_sbu_0, # of connection points: 4
#     Node 95, Type 0, BuildingBlock: CEKHIL_clean_sbu_0, # of connection points: 4
#     Edge 96, Type (0, 0), BuildingBlock: XIVTED_clean_linker_0, # of connection points: 2
#     Edge 97, Type (0, 0), BuildingBlock: XIVTED_clean_linker_0, # of connection points: 2
#     Edge 98, Type (0, 0), BuildingBlock: XIVTED_clean_linker_0, # of connection points: 2
#     Edge 99, Type (0, 0), BuildingBlock: XIVTED_clean_linker_0, # of connection points: 2
#     Edge 100, Type (0, 0), BuildingBlock: XIVTED_clean_linker_0, # of connection points: 2
#     Edge 101, Type (0, 0), BuildingBlock: XIVTED_clean_linker_0, # of connection points: 2
#     Edge 102, Type (0, 0), BuildingBlock: XIVTED_clean_linker_0, # of connection points: 2
#     Edge 103, Type (0, 0), BuildingBlock: XIVTED_clean_linker_0, # of connection points: 2
#     Edge 104, Type (0, 0), BuildingBlock: XIVTED_clean_linker_0, # of connection points: 2
#     Edge 105, Type (0, 0), BuildingBlock: XIVTED_clean_linker_0, # of connection points: 2
#     Edge 106, Type (0, 0), BuildingBlock: XIVTED_clean_linker_0, # of connection points: 2
#     Edge 107, Type (0, 0), BuildingBlock: XIVTED_clean_linker_0, # of connection points: 2
#     Edge 108, Type (0, 0), BuildingBlock: XIVTED_clean_linker_0, # of connection points: 2
#     Edge 109, Type (0, 0), BuildingBlock: XIVTED_clean_linker_0, # of connection points: 2
#     Edge 110, Type (0, 0), BuildingBlock: XIVTED_clean_linker_0, # of connection points: 2
#     Edge 111, Type (0, 0), BuildingBlock: XIVTED_clean_linker_0, # of connection points: 2
#     Edge 112, Type (0, 0), BuildingBlock: XIVTED_clean_linker_0, # of connection points: 2
#     Edge 113, Type (0, 0), BuildingBlock: XIVTED_clean_linker_0, # of connection points: 2
#     Edge 114, Type (0, 0), BuildingBlock: XIVTED_clean_linker_0, # of connection points: 2
#     Edge 115, Type (0, 0), BuildingBlock: XIVTED_clean_linker_0, # of connection points: 2
#     Edge 116, Type (0, 0), BuildingBlock: XIVTED_clean_linker_0, # of connection points: 2
#     Edge 117, Type (0, 0), BuildingBlock: XIVTED_clean_linker_0, # of connection points: 2
#     Edge 118, Type (0, 0), BuildingBlock: XIVTED_clean_linker_0, # of connection points: 2
#     Edge 119, Type (0, 0), BuildingBlock: XIVTED_clean_linker_0, # of connection points: 2
#     Edge 120, Type (0, 0), BuildingBlock: XIVTED_clean_linker_0, # of connection points: 2
#     Edge 121, Type (0, 0), BuildingBlock: XIVTED_clean_linker_0, # of connection points: 2
#     Edge 122, Type (0, 0), BuildingBlock: XIVTED_clean_linker_0, # of connection points: 2
#     Edge 123, Type (0, 0), BuildingBlock: XIVTED_clean_linker_0, # of connection points: 2
#     Edge 124, Type (0, 0), BuildingBlock: XIVTED_clean_linker_0, # of connection points: 2
#     Edge 125, Type (0, 0), BuildingBlock: XIVTED_clean_linker_0, # of connection points: 2
#     Edge 126, Type (0, 0), BuildingBlock: XIVTED_clean_linker_0, # of connection points: 2
#     Edge 127, Type (0, 0), BuildingBlock: XIVTED_clean_linker_0, # of connection points: 2
#     Edge 128, Type (0, 0), BuildingBlock: XIVTED_clean_linker_0, # of connection points: 2
#     Edge 129, Type (0, 0), BuildingBlock: XIVTED_clean_linker_0, # of connection points: 2
#     Edge 130, Type (0, 0), BuildingBlock: XIVTED_clean_linker_0, # of connection points: 2
#     Edge 131, Type (0, 0), BuildingBlock: XIVTED_clean_linker_0, # of connection points: 2
#     Edge 132, Type (0, 0), BuildingBlock: XIVTED_clean_linker_0, # of connection points: 2
#     Edge 133, Type (0, 0), BuildingBlock: XIVTED_clean_linker_0, # of connection points: 2
#     Edge 134, Type (0, 0), BuildingBlock: XIVTED_clean_linker_0, # of connection points: 2
#     Edge 135, Type (0, 0), BuildingBlock: XIVTED_clean_linker_0, # of connection points: 2
#     Edge 136, Type (0, 0), BuildingBlock: XIVTED_clean_linker_0, # of connection points: 2
#     Edge 137, Type (0, 0), BuildingBlock: XIVTED_clean_linker_0, # of connection points: 2
#     Edge 138, Type (0, 0), BuildingBlock: XIVTED_clean_linker_0, # of connection points: 2
#     Edge 139, Type (0, 0), BuildingBlock: XIVTED_clean_linker_0, # of connection points: 2
#     Edge 140, Type (0, 0), BuildingBlock: XIVTED_clean_linker_0, # of connection points: 2
#     Edge 141, Type (0, 0), BuildingBlock: XIVTED_clean_linker_0, # of connection points: 2
#     Edge 142, Type (0, 0), BuildingBlock: XIVTED_clean_linker_0, # of connection points: 2
#     Edge 143, Type (0, 0), BuildingBlock: XIVTED_clean_linker_0, # of connection points: 2
#     Edge 144, Type (0, 0), BuildingBlock: XIVTED_clean_linker_0, # of connection points: 2
#     Edge 145, Type (0, 0), BuildingBlock: XIVTED_clean_linker_0, # of connection points: 2
#     Edge 146, Type (0, 0), BuildingBlock: XIVTED_clean_linker_0, # of connection points: 2
#     Edge 147, Type (0, 0), BuildingBlock: XIVTED_clean_linker_0, # of connection points: 2
#     Edge 148, Type (0, 0), BuildingBlock: XIVTED_clean_linker_0, # of connection points: 2
#     Edge 149, Type (0, 0), BuildingBlock: XIVTED_clean_linker_0, # of connection points: 2
#     Edge 150, Type (0, 0), BuildingBlock: XIVTED_clean_linker_0, # of connection points: 2
#     Edge 151, Type (0, 0), BuildingBlock: XIVTED_clean_linker_0, # of connection points: 2
#     Edge 152, Type (0, 0), BuildingBlock: XIVTED_clean_linker_0, # of connection points: 2
#     Edge 153, Type (0, 0), BuildingBlock: XIVTED_clean_linker_0, # of connection points: 2
#     Edge 154, Type (0, 0), BuildingBlock: XIVTED_clean_linker_0, # of connection points: 2
#     Edge 155, Type (0, 0), BuildingBlock: XIVTED_clean_linker_0, # of connection points: 2
#     Edge 156, Type (0, 0), BuildingBlock: XIVTED_clean_linker_0, # of connection points: 2
#     Edge 157, Type (0, 0), BuildingBlock: XIVTED_clean_linker_0, # of connection points: 2
#     Edge 158, Type (0, 0), BuildingBlock: XIVTED_clean_linker_0, # of connection points: 2
#     Edge 159, Type (0, 0), BuildingBlock: XIVTED_clean_linker_0, # of connection points: 2
#     Edge 160, Type (0, 0), BuildingBlock: XIVTED_clean_linker_0, # of connection points: 2
#     Edge 161, Type (0, 0), BuildingBlock: XIVTED_clean_linker_0, # of connection points: 2
#     Edge 162, Type (0, 0), BuildingBlock: XIVTED_clean_linker_0, # of connection points: 2
#     Edge 163, Type (0, 0), BuildingBlock: XIVTED_clean_linker_0, # of connection points: 2
#     Edge 164, Type (0, 0), BuildingBlock: XIVTED_clean_linker_0, # of connection points: 2
#     Edge 165, Type (0, 0), BuildingBlock: XIVTED_clean_linker_0, # of connection points: 2
#     Edge 166, Type (0, 0), BuildingBlock: XIVTED_clean_linker_0, # of connection points: 2
#     Edge 167, Type (0, 0), BuildingBlock: XIVTED_clean_linker_0, # of connection points: 2
#     Edge 168, Type (0, 0), BuildingBlock: XIVTED_clean_linker_0, # of connection points: 2
#     Edge 169, Type (0, 0), BuildingBlock: XIVTED_clean_linker_0, # of connection points: 2
#     Edge 170, Type (0, 0), BuildingBlock: XIVTED_clean_linker_0, # of connection points: 2
#     Edge 171, Type (0, 0), BuildingBlock: XIVTED_clean_linker_0, # of connection points: 2
#     Edge 172, Type (0, 0), BuildingBlock: XIVTED_clean_linker_0, # of connection points: 2
#     Edge 173, Type (0, 0), BuildingBlock: XIVTED_clean_linker_0, # of connection points: 2
#     Edge 174, Type (0, 0), BuildingBlock: XIVTED_clean_linker_0, # of connection points: 2
#     Edge 175, Type (0, 0), BuildingBlock: XIVTED_clean_linker_0, # of connection points: 2
#     Edge 176, Type (0, 0), BuildingBlock: XIVTED_clean_linker_0, # of connection points: 2
#     Edge 177, Type (0, 0), BuildingBlock: XIVTED_clean_linker_0, # of connection points: 2
#     Edge 178, Type (0, 0), BuildingBlock: XIVTED_clean_linker_0, # of connection points: 2
#     Edge 179, Type (0, 0), BuildingBlock: XIVTED_clean_linker_0, # of connection points: 2
#     Edge 180, Type (0, 0), BuildingBlock: XIVTED_clean_linker_0, # of connection points: 2
#     Edge 181, Type (0, 0), BuildingBlock: XIVTED_clean_linker_0, # of connection points: 2
#     Edge 182, Type (0, 0), BuildingBlock: XIVTED_clean_linker_0, # of connection points: 2
#     Edge 183, Type (0, 0), BuildingBlock: XIVTED_clean_linker_0, # of connection points: 2
#     Edge 184, Type (0, 0), BuildingBlock: XIVTED_clean_linker_0, # of connection points: 2
#     Edge 185, Type (0, 0), BuildingBlock: XIVTED_clean_linker_0, # of connection points: 2
#     Edge 186, Type (0, 0), BuildingBlock: XIVTED_clean_linker_0, # of connection points: 2
#     Edge 187, Type (0, 0), BuildingBlock: XIVTED_clean_linker_0, # of connection points: 2
#     Edge 188, Type (0, 0), BuildingBlock: XIVTED_clean_linker_0, # of connection points: 2
#     Edge 189, Type (0, 0), BuildingBlock: XIVTED_clean_linker_0, # of connection points: 2
#     Edge 190, Type (0, 0), BuildingBlock: XIVTED_clean_linker_0, # of connection points: 2
#     Edge 191, Type (0, 0), BuildingBlock: XIVTED_clean_linker_0, # of connection points: 2
#     Edge 192, Type (0, 0), BuildingBlock: XIVTED_clean_linker_0, # of connection points: 2
#     Edge 193, Type (0, 0), BuildingBlock: XIVTED_clean_linker_0, # of connection points: 2
#     Edge 194, Type (0, 0), BuildingBlock: XIVTED_clean_linker_0, # of connection points: 2
#     Edge 195, Type (0, 0), BuildingBlock: XIVTED_clean_linker_0, # of connection points: 2
#     Edge 196, Type (0, 0), BuildingBlock: XIVTED_clean_linker_0, # of connection points: 2
#     Edge 197, Type (0, 0), BuildingBlock: XIVTED_clean_linker_0, # of connection points: 2
#     Edge 198, Type (0, 0), BuildingBlock: XIVTED_clean_linker_0, # of connection points: 2
#     Edge 199, Type (0, 0), BuildingBlock: XIVTED_clean_linker_0, # of connection points: 2
#     Edge 200, Type (0, 0), BuildingBlock: XIVTED_clean_linker_0, # of connection points: 2
#     Edge 201, Type (0, 0), BuildingBlock: XIVTED_clean_linker_0, # of connection points: 2
#     Edge 202, Type (0, 0), BuildingBlock: XIVTED_clean_linker_0, # of connection points: 2
#     Edge 203, Type (0, 0), BuildingBlock: XIVTED_clean_linker_0, # of connection points: 2
#     Edge 204, Type (0, 0), BuildingBlock: XIVTED_clean_linker_0, # of connection points: 2
#     Edge 205, Type (0, 0), BuildingBlock: XIVTED_clean_linker_0, # of connection points: 2
#     Edge 206, Type (0, 0), BuildingBlock: XIVTED_clean_linker_0, # of connection points: 2
#     Edge 207, Type (0, 0), BuildingBlock: XIVTED_clean_linker_0, # of connection points: 2
#     Edge 208, Type (0, 0), BuildingBlock: XIVTED_clean_linker_0, # of connection points: 2
#     Edge 209, Type (0, 0), BuildingBlock: XIVTED_clean_linker_0, # of connection points: 2
#     Edge 210, Type (0, 0), BuildingBlock: XIVTED_clean_linker_0, # of connection points: 2
#     Edge 211, Type (0, 0), BuildingBlock: XIVTED_clean_linker_0, # of connection points: 2
#     Edge 212, Type (0, 0), BuildingBlock: XIVTED_clean_linker_0, # of connection points: 2
#     Edge 213, Type (0, 0), BuildingBlock: XIVTED_clean_linker_0, # of connection points: 2
#     Edge 214, Type (0, 0), BuildingBlock: XIVTED_clean_linker_0, # of connection points: 2
#     Edge 215, Type (0, 0), BuildingBlock: XIVTED_clean_linker_0, # of connection points: 2
#     Edge 216, Type (0, 0), BuildingBlock: XIVTED_clean_linker_0, # of connection points: 2
#     Edge 217, Type (0, 0), BuildingBlock: XIVTED_clean_linker_0, # of connection points: 2
#     Edge 218, Type (0, 0), BuildingBlock: XIVTED_clean_linker_0, # of connection points: 2
#     Edge 219, Type (0, 0), BuildingBlock: XIVTED_clean_linker_0, # of connection points: 2
#     Edge 220, Type (0, 0), BuildingBlock: XIVTED_clean_linker_0, # of connection points: 2
#     Edge 221, Type (0, 0), BuildingBlock: XIVTED_clean_linker_0, # of connection points: 2
#     Edge 222, Type (0, 0), BuildingBlock: XIVTED_clean_linker_0, # of connection points: 2
#     Edge 223, Type (0, 0), BuildingBlock: XIVTED_clean_linker_0, # of connection points: 2
#     Edge 224, Type (0, 0), BuildingBlock: XIVTED_clean_linker_0, # of connection points: 2
#     Edge 225, Type (0, 0), BuildingBlock: XIVTED_clean_linker_0, # of connection points: 2
#     Edge 226, Type (0, 0), BuildingBlock: XIVTED_clean_linker_0, # of connection points: 2
#     Edge 227, Type (0, 0), BuildingBlock: XIVTED_clean_linker_0, # of connection points: 2
#     Edge 228, Type (0, 0), BuildingBlock: XIVTED_clean_linker_0, # of connection points: 2
#     Edge 229, Type (0, 0), BuildingBlock: XIVTED_clean_linker_0, # of connection points: 2
#     Edge 230, Type (0, 0), BuildingBlock: XIVTED_clean_linker_0, # of connection points: 2
#     Edge 231, Type (0, 0), BuildingBlock: XIVTED_clean_linker_0, # of connection points: 2
#     Edge 232, Type (0, 0), BuildingBlock: XIVTED_clean_linker_0, # of connection points: 2
#     Edge 233, Type (0, 0), BuildingBlock: XIVTED_clean_linker_0, # of connection points: 2
#     Edge 234, Type (0, 0), BuildingBlock: XIVTED_clean_linker_0, # of connection points: 2
#     Edge 235, Type (0, 0), BuildingBlock: XIVTED_clean_linker_0, # of connection points: 2
#     Edge 236, Type (0, 0), BuildingBlock: XIVTED_clean_linker_0, # of connection points: 2
#     Edge 237, Type (0, 0), BuildingBlock: XIVTED_clean_linker_0, # of connection points: 2
#     Edge 238, Type (0, 0), BuildingBlock: XIVTED_clean_linker_0, # of connection points: 2
#     Edge 239, Type (0, 0), BuildingBlock: XIVTED_clean_linker_0, # of connection points: 2
#     Edge 240, Type (0, 0), BuildingBlock: XIVTED_clean_linker_0, # of connection points: 2
#     Edge 241, Type (0, 0), BuildingBlock: XIVTED_clean_linker_0, # of connection points: 2
#     Edge 242, Type (0, 0), BuildingBlock: XIVTED_clean_linker_0, # of connection points: 2
#     Edge 243, Type (0, 0), BuildingBlock: XIVTED_clean_linker_0, # of connection points: 2
#     Edge 244, Type (0, 0), BuildingBlock: XIVTED_clean_linker_0, # of connection points: 2
#     Edge 245, Type (0, 0), BuildingBlock: XIVTED_clean_linker_0, # of connection points: 2
#     Edge 246, Type (0, 0), BuildingBlock: XIVTED_clean_linker_0, # of connection points: 2
#     Edge 247, Type (0, 0), BuildingBlock: XIVTED_clean_linker_0, # of connection points: 2
#     Edge 248, Type (0, 0), BuildingBlock: XIVTED_clean_linker_0, # of connection points: 2
#     Edge 249, Type (0, 0), BuildingBlock: XIVTED_clean_linker_0, # of connection points: 2
#     Edge 250, Type (0, 0), BuildingBlock: XIVTED_clean_linker_0, # of connection points: 2
#     Edge 251, Type (0, 0), BuildingBlock: XIVTED_clean_linker_0, # of connection points: 2
#     Edge 252, Type (0, 0), BuildingBlock: XIVTED_clean_linker_0, # of connection points: 2
#     Edge 253, Type (0, 0), BuildingBlock: XIVTED_clean_linker_0, # of connection points: 2
#     Edge 254, Type (0, 0), BuildingBlock: XIVTED_clean_linker_0, # of connection points: 2
#     Edge 255, Type (0, 0), BuildingBlock: XIVTED_clean_linker_0, # of connection points: 2
#     Edge 256, Type (0, 0), BuildingBlock: XIVTED_clean_linker_0, # of connection points: 2
#     Edge 257, Type (0, 0), BuildingBlock: XIVTED_clean_linker_0, # of connection points: 2
#     Edge 258, Type (0, 0), BuildingBlock: XIVTED_clean_linker_0, # of connection points: 2
#     Edge 259, Type (0, 0), BuildingBlock: XIVTED_clean_linker_0, # of connection points: 2
#     Edge 260, Type (0, 0), BuildingBlock: XIVTED_clean_linker_0, # of connection points: 2
#     Edge 261, Type (0, 0), BuildingBlock: XIVTED_clean_linker_0, # of connection points: 2
#     Edge 262, Type (0, 0), BuildingBlock: XIVTED_clean_linker_0, # of connection points: 2
#     Edge 263, Type (0, 0), BuildingBlock: XIVTED_clean_linker_0, # of connection points: 2
#     Edge 264, Type (0, 0), BuildingBlock: XIVTED_clean_linker_0, # of connection points: 2
#     Edge 265, Type (0, 0), BuildingBlock: XIVTED_clean_linker_0, # of connection points: 2
#     Edge 266, Type (0, 0), BuildingBlock: XIVTED_clean_linker_0, # of connection points: 2
#     Edge 267, Type (0, 0), BuildingBlock: XIVTED_clean_linker_0, # of connection points: 2
#     Edge 268, Type (0, 0), BuildingBlock: XIVTED_clean_linker_0, # of connection points: 2
#     Edge 269, Type (0, 0), BuildingBlock: XIVTED_clean_linker_0, # of connection points: 2
#     Edge 270, Type (0, 0), BuildingBlock: XIVTED_clean_linker_0, # of connection points: 2
#     Edge 271, Type (0, 0), BuildingBlock: XIVTED_clean_linker_0, # of connection points: 2
#     Edge 272, Type (0, 0), BuildingBlock: XIVTED_clean_linker_0, # of connection points: 2
#     Edge 273, Type (0, 0), BuildingBlock: XIVTED_clean_linker_0, # of connection points: 2
#     Edge 274, Type (0, 0), BuildingBlock: XIVTED_clean_linker_0, # of connection points: 2
#     Edge 275, Type (0, 0), BuildingBlock: XIVTED_clean_linker_0, # of connection points: 2
#     Edge 276, Type (0, 0), BuildingBlock: XIVTED_clean_linker_0, # of connection points: 2
#     Edge 277, Type (0, 0), BuildingBlock: XIVTED_clean_linker_0, # of connection points: 2
#     Edge 278, Type (0, 0), BuildingBlock: XIVTED_clean_linker_0, # of connection points: 2
#     Edge 279, Type (0, 0), BuildingBlock: XIVTED_clean_linker_0, # of connection points: 2
#     Edge 280, Type (0, 0), BuildingBlock: XIVTED_clean_linker_0, # of connection points: 2
#     Edge 281, Type (0, 0), BuildingBlock: XIVTED_clean_linker_0, # of connection points: 2
#     Edge 282, Type (0, 0), BuildingBlock: XIVTED_clean_linker_0, # of connection points: 2
#     Edge 283, Type (0, 0), BuildingBlock: XIVTED_clean_linker_0, # of connection points: 2
#     Edge 284, Type (0, 0), BuildingBlock: XIVTED_clean_linker_0, # of connection points: 2
#     Edge 285, Type (0, 0), BuildingBlock: XIVTED_clean_linker_0, # of connection points: 2
#     Edge 286, Type (0, 0), BuildingBlock: XIVTED_clean_linker_0, # of connection points: 2
#     Edge 287, Type (0, 0), BuildingBlock: XIVTED_clean_linker_0, # of connection points: 2
# Relax obj value: 0.322
# Max RMSD: 0.156
# Mean RMSD: 0.151
data_MOF--net-wse--node1-CEKHIL_clean_sbu_0--edge1-XIVTED_clean_linker_0
_symmetry_space_group_name_H-M    P1
_symmetry_Int_Tables_number       1
_symmetry_cell_setting            triclinic
loop_
_symmetry_equiv_pos_as_xyz
'x, y, z'
_cell_length_a     98.430743
_cell_length_b     98.434438
_cell_length_c     98.430332
_cell_angle_alpha  90.012862
_cell_angle_beta   89.979303
_cell_angle_gamma 90.02064
loop_
_atom_site_label
_atom_site_type_symbol
_atom_site_fract_x
_atom_site_fract_y
_atom_site_fract_z
_atom_type_partial_charge
Co0 Co 0.09628 0.18385 0.42556 0.0
O1 O 0.11487 0.17734 0.42565 0.0
O2 O 0.0972 0.16548 0.4185 0.0
C3 C 0.101 0.20484 0.41722 0.0
O4 O 0.07577 0.18676 0.42347 0.0
Co5 Co 0.08666 0.20875 0.44238 0.0
O6 O 0.06889 0.20627 0.43307 0.0
C7 C 0.09445 0.18317 0.45594 0.0
C8 C 0.11019 0.16594 0.42088 0.0
C9 C 0.06646 0.19557 0.42619 0.0
O10 O 0.09373 0.1767 0.4446 0.0
O11 O 0.09355 0.19612 0.45684 0.0
O12 O 0.09963 0.1946 0.40893 0.0
O13 O 0.1002 0.20192 0.42991 0.0
Co14 Co 0.82521 0.09545 0.42474 0.0
O15 O 0.83192 0.11397 0.42496 0.0
O16 O 0.8437 0.09622 0.41794 0.0
C17 C 0.80439 0.10042 0.41614 0.0
O18 O 0.82213 0.07495 0.42254 0.0
Co19 Co 0.79993 0.08598 0.4411 0.0
O20 O 0.8022 0.06835 0.43148 0.0
C21 C 0.82539 0.09353 0.45512 0.0
C22 C 0.84333 0.10921 0.42033 0.0
C23 C 0.81305 0.06578 0.42489 0.0
O24 O 0.83206 0.0928 0.44389 0.0
O25 O 0.81242 0.09267 0.45578 0.0
O26 O 0.81471 0.09894 0.40798 0.0
O27 O 0.80713 0.09953 0.42886 0.0
Co28 Co 0.91376 0.82502 0.42489 0.0
O29 O 0.89534 0.83195 0.42507 0.0
O30 O 0.9132 0.84337 0.41769 0.0
C31 C 0.90848 0.80407 0.41678 0.0
O32 O 0.93418 0.8216 0.42271 0.0
Co33 Co 0.9228 0.79999 0.44188 0.0
O34 O 0.94044 0.80179 0.43216 0.0
C35 C 0.91596 0.82598 0.45525 0.0
C36 C 0.90023 0.84321 0.4202 0.0
C37 C 0.94318 0.81244 0.4253 0.0
O38 O 0.91665 0.8323 0.44382 0.0
O39 O 0.91654 0.81302 0.45629 0.0
O40 O 0.91005 0.81418 0.40838 0.0
O41 O 0.90942 0.80711 0.42943 0.0
Co42 Co 0.1835 0.91354 0.42496 0.0
O43 O 0.17658 0.89511 0.42521 0.0
O44 O 0.16524 0.91291 0.41759 0.0
C45 C 0.20451 0.90821 0.41706 0.0
O46 O 0.18689 0.93395 0.42265 0.0
Co47 Co 0.20838 0.92285 0.44201 0.0
O48 O 0.20657 0.94044 0.43222 0.0
C49 C 0.1823 0.91613 0.45528 0.0
C50 C 0.16538 0.89995 0.42017 0.0
C51 C 0.19596 0.94305 0.42527 0.0
O52 O 0.17606 0.91659 0.44381 0.0
O53 O 0.19525 0.9168 0.45641 0.0
O54 O 0.19447 0.9097 0.40857 0.0
O55 O 0.20138 0.90928 0.42968 0.0
Co56 Co 0.09478 0.82561 0.58446 0.0
O57 O 0.11317 0.83264 0.58426 0.0
O58 O 0.09522 0.84401 0.59146 0.0
C59 C 0.1001 0.80478 0.59282 0.0
O60 O 0.07437 0.82213 0.58668 0.0
Co61 Co 0.08574 0.80038 0.56779 0.0
O62 O 0.06807 0.80224 0.57744 0.0
C63 C 0.09267 0.82616 0.55408 0.0
C64 C 0.1082 0.84391 0.58902 0.0
C65 C 0.06535 0.81295 0.5842 0.0
O66 O 0.09194 0.83264 0.56541 0.0
O67 O 0.09204 0.81319 0.55321 0.0
O68 O 0.09849 0.81499 0.6011 0.0
O69 O 0.09917 0.80765 0.58013 0.0
Co70 Co 0.18413 0.09565 0.58439 0.0
O71 O 0.17745 0.11418 0.5842 0.0
O72 O 0.16579 0.09647 0.59157 0.0
C73 C 0.20514 0.10068 0.59252 0.0
O74 O 0.18724 0.07517 0.5866 0.0
Co75 Co 0.20904 0.08614 0.5675 0.0
O76 O 0.20693 0.06852 0.57716 0.0
C77 C 0.18327 0.09355 0.55403 0.0
C78 C 0.16613 0.10945 0.58909 0.0
C79 C 0.19623 0.06599 0.58402 0.0
O80 O 0.17687 0.09288 0.56542 0.0
O81 O 0.19622 0.09274 0.55306 0.0
O82 O 0.195 0.09924 0.60091 0.0
O83 O 0.20212 0.09972 0.57986 0.0
Co84 Co 0.91334 0.18374 0.58459 0.0
O85 O 0.89474 0.17741 0.5844 0.0
O86 O 0.91223 0.16526 0.59146 0.0
C87 C 0.90863 0.20462 0.59315 0.0
O88 O 0.93389 0.18659 0.58669 0.0
Co89 Co 0.92288 0.20888 0.56803 0.0
O90 O 0.94042 0.20659 0.5778 0.0
C91 C 0.91513 0.18337 0.55421 0.0
C92 C 0.89925 0.16592 0.58906 0.0
C93 C 0.94301 0.19572 0.58434 0.0
O94 O 0.91585 0.17679 0.56548 0.0
O95 O 0.91607 0.19633 0.55343 0.0
O96 O 0.91004 0.19433 0.60135 0.0
O97 O 0.90944 0.20182 0.58044 0.0
Co98 Co 0.82507 0.91358 0.58415 0.0
O99 O 0.83181 0.8951 0.58378 0.0
O100 O 0.84347 0.91282 0.59113 0.0
C101 C 0.80419 0.90844 0.5925 0.0
O102 O 0.82192 0.93402 0.58653 0.0
Co103 Co 0.79991 0.92317 0.5677 0.0
O104 O 0.80206 0.9407 0.57752 0.0
C105 C 0.82567 0.9164 0.55378 0.0
C106 C 0.84315 0.89986 0.58858 0.0
C107 C 0.81288 0.9432 0.58418 0.0
O108 O 0.83214 0.91655 0.56514 0.0
O109 O 0.81272 0.91732 0.55293 0.0
O110 O 0.81442 0.90986 0.60077 0.0
O111 O 0.80704 0.90948 0.57981 0.0
Co112 Co 0.42477 0.09493 0.18406 0.0
O113 O 0.42496 0.11343 0.17735 0.0
O114 O 0.41785 0.09566 0.16563 0.0
C115 C 0.4163 0.09993 0.20493 0.0
O116 O 0.42259 0.07446 0.18719 0.0
Co117 Co 0.44135 0.08555 0.2092 0.0
O118 O 0.43175 0.06789 0.20702 0.0
C119 C 0.45514 0.09296 0.18359 0.0
C120 C 0.42027 0.10865 0.16598 0.0
C121 C 0.42505 0.06531 0.19624 0.0
O122 O 0.44384 0.09225 0.17706 0.0
O123 O 0.45596 0.09216 0.19655 0.0
O124 O 0.40807 0.09845 0.19467 0.0
O125 O 0.42901 0.09906 0.2021 0.0
Co126 Co 0.91292 0.42551 0.1834 0.0
O127 O 0.89447 0.42553 0.17653 0.0
O128 O 0.91242 0.41868 0.16492 0.0
C129 C 0.90786 0.41684 0.20417 0.0
O130 O 0.9334 0.42354 0.18671 0.0
Co131 Co 0.92186 0.44203 0.20877 0.0
O132 O 0.93958 0.43252 0.20676 0.0
C133 C 0.91462 0.45592 0.18317 0.0
C134 C 0.8994 0.42094 0.16517 0.0
C135 C 0.94238 0.42597 0.19594 0.0
O136 O 0.91546 0.44467 0.17656 0.0
O137 O 0.9153 0.45665 0.19614 0.0
O138 O 0.90952 0.4087 0.19386 0.0
O139 O 0.90859 0.42957 0.20143 0.0
Co140 Co 0.58422 0.91296 0.18362 0.0
O141 O 0.584 0.89448 0.17686 0.0
O142 O 0.59146 0.9122 0.16529 0.0
C143 C 0.59229 0.90782 0.20461 0.0
O144 O 0.58644 0.93342 0.18688 0.0
Co145 Co 0.56723 0.92224 0.20858 0.0
O146 O 0.57703 0.93982 0.20667 0.0
C147 C 0.55386 0.91536 0.1826 0.0
C148 C 0.58892 0.89923 0.16557 0.0
C149 C 0.58386 0.94249 0.196 0.0
O150 O 0.5653 0.91585 0.1763 0.0
O151 O 0.55278 0.91608 0.19555 0.0
O152 O 0.60071 0.9093 0.1945 0.0
O153 O 0.57965 0.90878 0.20156 0.0
Co154 Co 0.09657 0.58457 0.18414 0.0
O155 O 0.11497 0.58443 0.17715 0.0
O156 O 0.09705 0.59169 0.16578 0.0
C157 C 0.10181 0.59283 0.20504 0.0
O158 O 0.07615 0.58669 0.1876 0.0
Co159 Co 0.0876 0.56769 0.20928 0.0
O160 O 0.06993 0.57734 0.20747 0.0
C161 C 0.09418 0.55417 0.18329 0.0
C162 C 0.11003 0.58926 0.1659 0.0
C163 C 0.06716 0.58411 0.19679 0.0
O164 O 0.09368 0.56559 0.17696 0.0
O165 O 0.09357 0.55315 0.19625 0.0
O166 O 0.10023 0.60115 0.19487 0.0
O167 O 0.10094 0.58015 0.20208 0.0
Co168 Co 0.42512 0.91381 0.82494 0.0
O169 O 0.42522 0.8953 0.83161 0.0
O170 O 0.41818 0.91308 0.84336 0.0
C171 C 0.41664 0.90885 0.80407 0.0
O172 O 0.42302 0.93429 0.82187 0.0
Co173 Co 0.44165 0.92327 0.79978 0.0
O174 O 0.43208 0.94092 0.80201 0.0
C175 C 0.45549 0.91567 0.82532 0.0
C176 C 0.42053 0.90009 0.84299 0.0
C177 C 0.42545 0.94347 0.81284 0.0
O178 O 0.44422 0.9164 0.83191 0.0
O179 O 0.45624 0.91655 0.81236 0.0
O180 O 0.40841 0.91037 0.81434 0.0
O181 O 0.42935 0.90972 0.80689 0.0
Co182 Co 0.09536 0.42476 0.82507 0.0
O183 O 0.1139 0.42514 0.83157 0.0
O184 O 0.09635 0.41788 0.84354 0.0
C185 C 0.10031 0.41627 0.8042 0.0
O186 O 0.07488 0.42245 0.82204 0.0
Co187 Co 0.08585 0.44126 0.79988 0.0
O188 O 0.06831 0.43147 0.80214 0.0
C189 C 0.09314 0.45513 0.82548 0.0
C190 C 0.10932 0.42041 0.84301 0.0
C191 C 0.06574 0.42482 0.81295 0.0
O192 O 0.09256 0.44383 0.83203 0.0
O193 O 0.09233 0.45592 0.81252 0.0
O194 O 0.09894 0.40806 0.81449 0.0
O195 O 0.09936 0.42897 0.807 0.0
Co196 Co 0.5835 0.09597 0.82512 0.0
O197 O 0.58346 0.11437 0.83208 0.0
O198 O 0.59051 0.09641 0.84353 0.0
C199 C 0.59189 0.10115 0.80427 0.0
O200 O 0.58552 0.07554 0.8217 0.0
Co201 Co 0.56669 0.08705 0.79994 0.0
O202 O 0.57626 0.06934 0.80179 0.0
C203 C 0.5531 0.09412 0.82575 0.0
C204 C 0.58816 0.10941 0.84337 0.0
C205 C 0.58298 0.06655 0.8125 0.0
O206 O 0.56444 0.09329 0.83219 0.0
O207 O 0.55219 0.0935 0.81278 0.0
O208 O 0.60016 0.09951 0.81447 0.0
O209 O 0.57919 0.10034 0.80716 0.0
Co210 Co 0.91363 0.58556 0.82594 0.0
O211 O 0.89521 0.58546 0.83292 0.0
O212 O 0.91313 0.59267 0.84433 0.0
C213 C 0.90834 0.59384 0.80507 0.0
O214 O 0.93407 0.58764 0.82246 0.0
Co215 Co 0.92249 0.56871 0.80074 0.0
O216 O 0.94018 0.57834 0.80253 0.0
C217 C 0.91567 0.55518 0.82665 0.0
C218 C 0.90014 0.59027 0.84418 0.0
C219 C 0.94302 0.58508 0.81322 0.0
O220 O 0.91642 0.56655 0.83307 0.0
O221 O 0.91621 0.55423 0.81369 0.0
O222 O 0.91 0.60217 0.81522 0.0
O223 O 0.90921 0.58116 0.80802 0.0
Co224 Co 0.18319 0.42466 0.09492 0.0
O225 O 0.17625 0.42472 0.11333 0.0
O226 O 0.16469 0.41783 0.09537 0.0
C227 C 0.20392 0.41605 0.10015 0.0
O228 O 0.18662 0.42263 0.07447 0.0
Co229 Co 0.20859 0.4412 0.08609 0.0
O230 O 0.2067 0.43163 0.06839 0.0
C231 C 0.18297 0.45505 0.09332 0.0
C232 C 0.16491 0.42013 0.10839 0.0
C233 C 0.19591 0.42504 0.06554 0.0
O234 O 0.17636 0.44381 0.09233 0.0
O235 O 0.19595 0.45578 0.09273 0.0
O236 O 0.19365 0.40787 0.09843 0.0
O237 O 0.20117 0.42877 0.09935 0.0
Co238 Co 0.18352 0.58402 0.91362 0.0
O239 O 0.17698 0.5837 0.89511 0.0
O240 O 0.16506 0.59097 0.91267 0.0
C241 C 0.20442 0.59244 0.90863 0.0
O242 O 0.18664 0.58626 0.93411 0.0
Co243 Co 0.20869 0.56735 0.92294 0.0
O244 O 0.20663 0.57724 0.94045 0.0
C245 C 0.18297 0.55365 0.91575 0.0
C246 C 0.16557 0.58845 0.89971 0.0
C247 C 0.19584 0.58389 0.94313 0.0
O248 O 0.17649 0.56497 0.9164 0.0
O249 O 0.19593 0.55278 0.91649 0.0
O250 O 0.19417 0.60069 0.91006 0.0
O251 O 0.20155 0.57975 0.90955 0.0
Co252 Co 0.42389 0.18361 0.91439 0.0
O253 O 0.42433 0.17674 0.89595 0.0
O254 O 0.41665 0.16529 0.91365 0.0
C255 C 0.41587 0.20457 0.90906 0.0
O256 O 0.4214 0.18697 0.9348 0.0
Co257 Co 0.44073 0.2086 0.92382 0.0
O258 O 0.43082 0.2067 0.94134 0.0
C259 C 0.45422 0.18263 0.91715 0.0
C260 C 0.41932 0.1655 0.90071 0.0
C261 C 0.4239 0.19606 0.94391 0.0
O262 O 0.44278 0.17631 0.91755 0.0
O263 O 0.45526 0.19558 0.91783 0.0
O264 O 0.40745 0.19445 0.91048 0.0
O265 O 0.42851 0.20154 0.91019 0.0
Co266 Co 0.82528 0.42594 0.91334 0.0
O267 O 0.83206 0.42601 0.89488 0.0
O268 O 0.84373 0.41906 0.91275 0.0
C269 C 0.80447 0.41738 0.90834 0.0
O270 O 0.82206 0.42392 0.93381 0.0
Co271 Co 0.80004 0.44253 0.92249 0.0
O272 O 0.8021 0.43296 0.94018 0.0
C273 C 0.82571 0.45635 0.91528 0.0
C274 C 0.84342 0.42138 0.89974 0.0
C275 C 0.81291 0.42636 0.94287 0.0
O276 O 0.83223 0.44505 0.91594 0.0
O277 O 0.81274 0.45716 0.91607 0.0
O278 O 0.81475 0.40919 0.90992 0.0
O279 O 0.80726 0.43011 0.90912 0.0
Co280 Co 0.58432 0.82561 0.91292 0.0
O281 O 0.58405 0.83234 0.89442 0.0
O282 O 0.59142 0.84398 0.91213 0.0
C283 C 0.59255 0.80467 0.90782 0.0
O284 O 0.58659 0.82243 0.93337 0.0
Co285 Co 0.56758 0.80055 0.92235 0.0
O286 O 0.57732 0.80264 0.93994 0.0
C287 C 0.55396 0.82638 0.91538 0.0
C288 C 0.5889 0.84366 0.89917 0.0
C289 C 0.5841 0.81337 0.94251 0.0
O290 O 0.56535 0.83278 0.91582 0.0
O291 O 0.55301 0.81343 0.91615 0.0
O292 O 0.60089 0.81486 0.90925 0.0
O293 O 0.57988 0.80761 0.9088 0.0
Co294 Co 0.82608 0.58509 0.09615 0.0
O295 O 0.83326 0.58517 0.11452 0.0
O296 O 0.84448 0.59206 0.09634 0.0
C297 C 0.80531 0.59366 0.10139 0.0
O298 O 0.82259 0.58696 0.07571 0.0
Co299 Co 0.80068 0.56855 0.08736 0.0
O300 O 0.80263 0.57783 0.0695 0.0
C301 C 0.82633 0.55472 0.09462 0.0
C302 C 0.84449 0.58984 0.10936 0.0
C303 C 0.81342 0.58442 0.0667 0.0
O304 O 0.83296 0.56595 0.09362 0.0
O305 O 0.81335 0.55401 0.09402 0.0
O306 O 0.81556 0.60185 0.09959 0.0
O307 O 0.8081 0.58094 0.10066 0.0
Co308 Co 0.42474 0.82505 0.09456 0.0
O309 O 0.42483 0.8319 0.113 0.0
O310 O 0.41782 0.84351 0.09512 0.0
C311 C 0.41622 0.80425 0.0997 0.0
O312 O 0.42268 0.8217 0.0741 0.0
Co313 Co 0.44141 0.79979 0.0856 0.0
O314 O 0.43177 0.80169 0.06794 0.0
C315 C 0.45514 0.8255 0.09276 0.0
C316 C 0.42016 0.84324 0.10812 0.0
C317 C 0.42512 0.81245 0.06514 0.0
O318 O 0.44384 0.83202 0.09192 0.0
O319 O 0.45597 0.81253 0.09211 0.0
O320 O 0.40801 0.8145 0.09807 0.0
O321 O 0.42893 0.80707 0.09889 0.0
Co322 Co 0.58419 0.18344 0.09561 0.0
O323 O 0.58391 0.17639 0.11399 0.0
O324 O 0.59151 0.16514 0.09613 0.0
C325 C 0.59212 0.20442 0.10107 0.0
O326 O 0.58651 0.18699 0.07521 0.0
Co327 Co 0.56712 0.20842 0.08656 0.0
O328 O 0.57693 0.20674 0.06897 0.0
C329 C 0.55385 0.18232 0.09315 0.0
C330 C 0.58891 0.16521 0.10909 0.0
C331 C 0.58389 0.19616 0.06622 0.0
O332 O 0.56531 0.17606 0.09252 0.0
O333 O 0.55274 0.19527 0.09264 0.0
O334 O 0.6006 0.19438 0.09951 0.0
O335 O 0.5795 0.2013 0.10001 0.0
Co336 Co 0.94606 0.83162 0.57506 0.0
O337 O 0.93983 0.84916 0.58153 0.0
O338 O 0.92728 0.83054 0.58079 0.0
C339 C 0.96651 0.83151 0.58564 0.0
O340 O 0.94847 0.81177 0.56952 0.0
Co341 Co 0.9718 0.82811 0.55711 0.0
O342 O 0.9693 0.80835 0.56082 0.0
C343 C 0.94679 0.83986 0.54541 0.0
C344 C 0.92803 0.84348 0.58335 0.0
C345 C 0.95792 0.80389 0.5651 0.0
O346 O 0.94007 0.83649 0.55611 0.0
O347 O 0.9597 0.83854 0.54439 0.0
O348 O 0.95565 0.82784 0.59226 0.0
O349 O 0.96449 0.83601 0.57355 0.0
Co350 Co 0.17676 0.94661 0.57511 0.0
O351 O 0.1593 0.94017 0.58164 0.0
O352 O 0.17808 0.92791 0.581 0.0
C353 C 0.17668 0.96718 0.58549 0.0
O354 O 0.19657 0.94924 0.56954 0.0
Co355 Co 0.1799 0.97219 0.55689 0.0
O356 O 0.19968 0.97006 0.5607 0.0
C357 C 0.16857 0.94688 0.54541 0.0
C358 C 0.16513 0.92847 0.58354 0.0
C359 C 0.20431 0.9588 0.56507 0.0
O360 O 0.17196 0.94036 0.55622 0.0
O361 O 0.16975 0.95979 0.54423 0.0
O362 O 0.18044 0.95642 0.59221 0.0
O363 O 0.17214 0.96498 0.57344 0.0
Co364 Co 0.06288 0.17687 0.57533 0.0
O365 O 0.06943 0.1595 0.58187 0.0
O366 O 0.08142 0.17848 0.58181 0.0
C367 C 0.04198 0.17626 0.58503 0.0
O368 O 0.05983 0.1967 0.56987 0.0
Co369 Co 0.03797 0.17878 0.55604 0.0
O370 O 0.04035 0.19875 0.55815 0.0
C371 C 0.06385 0.168 0.54582 0.0
C372 C 0.08099 0.16548 0.58414 0.0
C373 C 0.05079 0.20396 0.56379 0.0
O374 O 0.06989 0.17234 0.55658 0.0
O375 O 0.05093 0.16824 0.54437 0.0
O376 O 0.05243 0.18018 0.59215 0.0
O377 O 0.04472 0.17177 0.57308 0.0
Co378 Co 0.83198 0.06265 0.5748 0.0
O379 O 0.84916 0.06963 0.58145 0.0
O380 O 0.82994 0.08122 0.58097 0.0
C381 C 0.83262 0.04199 0.58492 0.0
O382 O 0.81228 0.05919 0.56914 0.0
Co383 Co 0.83064 0.03732 0.556 0.0
O384 O 0.81062 0.03934 0.55798 0.0
C385 C 0.84079 0.06326 0.54519 0.0
C386 C 0.8429 0.08108 0.58351 0.0
C387 C 0.80521 0.04987 0.56326 0.0
O388 O 0.83666 0.06938 0.55599 0.0
O389 O 0.84056 0.05033 0.54386 0.0
O390 O 0.82852 0.05256 0.59176 0.0
O391 O 0.83734 0.04451 0.573 0.0
Co392 Co 0.94653 0.17677 0.43469 0.0
O393 O 0.94002 0.15935 0.42824 0.0
O394 O 0.92804 0.17832 0.42805 0.0
C395 C 0.96751 0.17608 0.42517 0.0
O396 O 0.94956 0.19663 0.44001 0.0
Co397 Co 0.97131 0.17883 0.45416 0.0
O398 O 0.96896 0.19878 0.45186 0.0
C399 C 0.94535 0.16807 0.46422 0.0
C400 C 0.92849 0.1653 0.42582 0.0
C401 C 0.95856 0.20394 0.44611 0.0
O402 O 0.93938 0.17239 0.45342 0.0
O403 O 0.95826 0.1683 0.46575 0.0
O404 O 0.95713 0.17995 0.41793 0.0
O405 O 0.96466 0.17169 0.43713 0.0
Co406 Co 0.83253 0.94651 0.43405 0.0
O407 O 0.85008 0.94025 0.4276 0.0
O408 O 0.83144 0.92775 0.42826 0.0
C409 C 0.83248 0.96701 0.42353 0.0
O410 O 0.81266 0.94892 0.43954 0.0
Co411 Co 0.82896 0.97221 0.45203 0.0
O412 O 0.80921 0.96973 0.44829 0.0
C413 C 0.84073 0.94718 0.4637 0.0
C414 C 0.84439 0.92846 0.42574 0.0
C415 C 0.80476 0.95836 0.44396 0.0
O416 O 0.83734 0.94046 0.453 0.0
O417 O 0.83942 0.96009 0.46471 0.0
O418 O 0.82881 0.95617 0.41687 0.0
O419 O 0.83694 0.96494 0.43562 0.0
Co420 Co 0.06276 0.83168 0.4341 0.0
O421 O 0.06943 0.84897 0.42745 0.0
O422 O 0.08134 0.82995 0.42784 0.0
C423 C 0.042 0.83217 0.42414 0.0
O424 O 0.05961 0.81192 0.4397 0.0
Co425 Co 0.0376 0.82993 0.4531 0.0
O426 O 0.03995 0.80994 0.45116 0.0
C427 C 0.0634 0.84067 0.4636 0.0
C428 C 0.08098 0.84292 0.42535 0.0
C429 C 0.05048 0.8047 0.4457 0.0
O430 O 0.06954 0.83638 0.45288 0.0
O431 O 0.05047 0.84038 0.46495 0.0
O432 O 0.05254 0.82818 0.4172 0.0
O433 O 0.04457 0.83681 0.43608 0.0
Co434 Co 0.17761 0.06271 0.43463 0.0
O435 O 0.16039 0.06935 0.42782 0.0
O436 O 0.17934 0.08139 0.42857 0.0
C437 C 0.17734 0.04204 0.42448 0.0
O438 O 0.19731 0.05955 0.44047 0.0
Co439 Co 0.17903 0.0374 0.45345 0.0
O440 O 0.19904 0.03972 0.45167 0.0
C441 C 0.16821 0.06312 0.46403 0.0
C442 C 0.1664 0.08096 0.42591 0.0
C443 C 0.20441 0.0503 0.44642 0.0
O444 O 0.17265 0.06933 0.45341 0.0
O445 O 0.16844 0.05018 0.46528 0.0
O446 O 0.18137 0.05266 0.41768 0.0
O447 O 0.17251 0.0445 0.43636 0.0
Co448 Co 0.57481 0.947 0.832 0.0
O449 O 0.5815 0.94041 0.84928 0.0
O450 O 0.58108 0.9284 0.83031 0.0
C451 C 0.58475 0.96777 0.83242 0.0
O452 O 0.56915 0.95011 0.81223 0.0
Co453 Co 0.55579 0.97215 0.8303 0.0
O454 O 0.5579 0.96989 0.81032 0.0
C455 C 0.54521 0.94627 0.84084 0.0
C456 C 0.5836 0.92884 0.84328 0.0
C457 C 0.56325 0.95933 0.80504 0.0
O458 O 0.55605 0.94019 0.83677 0.0
O459 O 0.54378 0.95919 0.84044 0.0
O460 O 0.59169 0.95723 0.82843 0.0
O461 O 0.57283 0.96519 0.83711 0.0
Co462 Co 0.06259 0.57523 0.83161 0.0
O463 O 0.06919 0.58147 0.84912 0.0
O464 O 0.08121 0.58132 0.83016 0.0
C465 C 0.04197 0.5855 0.83215 0.0
O466 O 0.05982 0.56997 0.81172 0.0
Co467 Co 0.03705 0.55697 0.82834 0.0
O468 O 0.03915 0.56079 0.80856 0.0
C469 C 0.06245 0.5455 0.83947 0.0
C470 C 0.0808 0.58361 0.84315 0.0
C471 C 0.05035 0.56538 0.80396 0.0
O472 O 0.06898 0.55629 0.83602 0.0
O473 O 0.04952 0.54436 0.83845 0.0
O474 O 0.05265 0.59234 0.82835 0.0
O475 O 0.04428 0.57336 0.8364 0.0
Co476 Co 0.43379 0.06306 0.8322 0.0
O477 O 0.42691 0.06975 0.84939 0.0
O478 O 0.42763 0.08169 0.83039 0.0
C479 C 0.42376 0.04233 0.83252 0.0
O480 O 0.43969 0.05984 0.81253 0.0
Co481 Co 0.45276 0.03785 0.83093 0.0
O482 O 0.451 0.04006 0.81091 0.0
C483 C 0.46317 0.06368 0.84162 0.0
C484 C 0.42495 0.08132 0.84333 0.0
C485 C 0.44572 0.05058 0.80548 0.0
O486 O 0.45252 0.06981 0.83715 0.0
O487 O 0.4645 0.05075 0.84146 0.0
O488 O 0.41691 0.0529 0.82845 0.0
O489 O 0.43561 0.04489 0.83738 0.0
Co490 Co 0.94644 0.43517 0.83167 0.0
O491 O 0.94016 0.42886 0.84925 0.0
O492 O 0.92769 0.42934 0.83058 0.0
C493 C 0.96692 0.42466 0.83176 0.0
O494 O 0.94893 0.4405 0.81178 0.0
Co495 Co 0.97212 0.45318 0.82811 0.0
O496 O 0.96978 0.44917 0.80839 0.0
C497 C 0.94701 0.4649 0.83965 0.0
C498 C 0.9284 0.42691 0.84355 0.0
C499 C 0.95844 0.44482 0.80391 0.0
O500 O 0.94035 0.45415 0.83634 0.0
O501 O 0.95992 0.46595 0.83837 0.0
O502 O 0.9561 0.41797 0.82811 0.0
O503 O 0.96484 0.43679 0.83613 0.0
Co504 Co 0.5747 0.06215 0.17681 0.0
O505 O 0.5814 0.06892 0.15958 0.0
O506 O 0.58096 0.08074 0.17866 0.0
C507 C 0.58464 0.04137 0.17624 0.0
O508 O 0.56902 0.05889 0.19654 0.0
Co509 Co 0.55566 0.037 0.17829 0.0
O510 O 0.55752 0.03923 0.1983 0.0
C511 C 0.54524 0.06288 0.16772 0.0
C512 C 0.58348 0.08045 0.16568 0.0
C513 C 0.56295 0.04971 0.20366 0.0
O514 O 0.55594 0.06898 0.17212 0.0
O515 O 0.54389 0.04994 0.16786 0.0
O516 O 0.59158 0.05189 0.1803 0.0
O517 O 0.57273 0.044 0.17157 0.0
Co518 Co 0.9474 0.57501 0.17706 0.0
O519 O 0.94128 0.5816 0.15959 0.0
O520 O 0.92882 0.58154 0.17826 0.0
C521 C 0.9683 0.58471 0.17691 0.0
O522 O 0.95006 0.56948 0.19693 0.0
Co523 Co 0.97227 0.55568 0.17932 0.0
O524 O 0.96964 0.55794 0.19923 0.0
C525 C 0.94645 0.54537 0.1684 0.0
C526 C 0.92959 0.58392 0.16528 0.0
C527 C 0.95907 0.56347 0.2043 0.0
O528 O 0.94044 0.5563 0.17233 0.0
O529 O 0.95934 0.54378 0.16902 0.0
O530 O 0.95777 0.59181 0.18066 0.0
O531 O 0.96565 0.57277 0.17231 0.0
Co532 Co 0.43394 0.94591 0.17668 0.0
O533 O 0.42758 0.93977 0.15907 0.0
O534 O 0.42788 0.92722 0.17767 0.0
C535 C 0.4237 0.96653 0.17669 0.0
O536 O 0.43929 0.94828 0.19659 0.0
Co537 Co 0.45231 0.97133 0.18025 0.0
O538 O 0.44822 0.96904 0.19996 0.0
C539 C 0.46373 0.94606 0.1688 0.0
C540 C 0.42551 0.92801 0.1647 0.0
C541 C 0.44372 0.95775 0.20445 0.0
O542 O 0.45284 0.93957 0.17202 0.0
O543 O 0.46499 0.95895 0.1701 0.0
O544 O 0.41686 0.95578 0.18027 0.0
O545 O 0.4358 0.96431 0.17228 0.0
Co546 Co 0.06204 0.4345 0.17651 0.0
O547 O 0.06819 0.42822 0.15887 0.0
O548 O 0.08063 0.42816 0.17755 0.0
C549 C 0.04126 0.42456 0.17627 0.0
O550 O 0.05967 0.4397 0.19647 0.0
Co551 Co 0.03688 0.45319 0.1802 0.0
O552 O 0.03909 0.449 0.19989 0.0
C553 C 0.06237 0.46435 0.16895 0.0
C554 C 0.07989 0.42593 0.16455 0.0
C555 C 0.05028 0.44427 0.20435 0.0
O556 O 0.06869 0.45334 0.17209 0.0
O557 O 0.0495 0.46577 0.17022 0.0
O558 O 0.05188 0.41753 0.17986 0.0
O559 O 0.0437 0.43667 0.17204 0.0
Co560 Co 0.83143 0.57592 0.94648 0.0
O561 O 0.84876 0.58264 0.93997 0.0
O562 O 0.82979 0.58246 0.92798 0.0
C563 C 0.83183 0.58554 0.96741 0.0
O564 O 0.81166 0.57027 0.9495 0.0
Co565 Co 0.82967 0.55649 0.9713 0.0
O566 O 0.80968 0.55847 0.96894 0.0
C567 C 0.84041 0.54643 0.94534 0.0
C568 C 0.84278 0.5849 0.92842 0.0
C569 C 0.80444 0.5641 0.95852 0.0
O570 O 0.83612 0.55725 0.93939 0.0
O571 O 0.84013 0.54486 0.95824 0.0
O572 O 0.82792 0.59266 0.95697 0.0
O573 O 0.83649 0.57366 0.96465 0.0
Co574 Co 0.83093 0.43536 0.06272 0.0
O575 O 0.84821 0.42864 0.06933 0.0
O576 O 0.82923 0.42911 0.08131 0.0
C577 C 0.83133 0.4254 0.04196 0.0
O578 O 0.81118 0.44104 0.05961 0.0
Co579 Co 0.82921 0.45436 0.03756 0.0
O580 O 0.80923 0.45228 0.03984 0.0
C581 C 0.8399 0.46491 0.06339 0.0
C582 C 0.84219 0.42657 0.0809 0.0
C583 C 0.80397 0.44694 0.05041 0.0
O584 O 0.83576 0.45411 0.0695 0.0
O585 O 0.83947 0.46632 0.05047 0.0
O586 O 0.82734 0.41847 0.05251 0.0
O587 O 0.83603 0.43731 0.04452 0.0
Co588 Co 0.57487 0.83186 0.06224 0.0
O589 O 0.58153 0.84916 0.06884 0.0
O590 O 0.58105 0.83023 0.08088 0.0
C591 C 0.58491 0.83223 0.04151 0.0
O592 O 0.56921 0.81209 0.05912 0.0
Co593 Co 0.55594 0.8302 0.03702 0.0
O594 O 0.55791 0.81021 0.03937 0.0
C595 C 0.54539 0.84096 0.06277 0.0
C596 C 0.58358 0.84319 0.08044 0.0
C597 C 0.56327 0.80492 0.04991 0.0
O598 O 0.55606 0.83661 0.06895 0.0
O599 O 0.5441 0.84071 0.04984 0.0
O600 O 0.5918 0.82828 0.0521 0.0
O601 O 0.57299 0.83693 0.04404 0.0
Co602 Co 0.17785 0.57492 0.06295 0.0
O603 O 0.16056 0.5815 0.06968 0.0
O604 O 0.17964 0.58124 0.08151 0.0
C605 C 0.17716 0.58481 0.04216 0.0
O606 O 0.19763 0.5694 0.05973 0.0
Co607 Co 0.17962 0.55587 0.03783 0.0
O608 O 0.19961 0.55781 0.04016 0.0
C609 C 0.16881 0.54548 0.06364 0.0
C610 C 0.16665 0.58367 0.0812 0.0
C611 C 0.20486 0.56335 0.05064 0.0
O612 O 0.17325 0.55613 0.06979 0.0
O613 O 0.169 0.54417 0.05071 0.0
O614 O 0.1812 0.59181 0.05264 0.0
O615 O 0.17264 0.57285 0.0448 0.0
Co616 Co 0.43394 0.17691 0.06296 0.0
O617 O 0.42751 0.15937 0.06926 0.0
O618 O 0.42836 0.17798 0.0818 0.0
C619 C 0.42317 0.17702 0.04261 0.0
O620 O 0.43946 0.19676 0.06048 0.0
Co621 Co 0.45166 0.18036 0.03706 0.0
O622 O 0.44787 0.20011 0.03951 0.0
C623 C 0.46361 0.1687 0.06199 0.0
C624 C 0.42578 0.16504 0.08107 0.0
C625 C 0.44372 0.20461 0.05093 0.0
O626 O 0.45295 0.17203 0.06879 0.0
O627 O 0.46453 0.17003 0.04908 0.0
O628 O 0.41665 0.18069 0.05353 0.0
O629 O 0.43527 0.1725 0.04452 0.0
Co630 Co 0.17734 0.43363 0.94602 0.0
O631 O 0.15984 0.42732 0.93944 0.0
O632 O 0.17879 0.42757 0.9274 0.0
C633 C 0.17688 0.42337 0.96663 0.0
O634 O 0.1972 0.43898 0.94873 0.0
Co635 Co 0.18067 0.45188 0.97156 0.0
O636 O 0.20047 0.4482 0.96936 0.0
C637 C 0.16931 0.4633 0.94623 0.0
C638 C 0.1658 0.42522 0.92783 0.0
C639 C 0.20502 0.44362 0.95813 0.0
O640 O 0.17282 0.45255 0.93967 0.0
O641 O 0.17038 0.46442 0.95916 0.0
O642 O 0.18069 0.41654 0.95595 0.0
O643 O 0.17259 0.43549 0.96435 0.0
Co644 Co 0.5745 0.17664 0.94701 0.0
O645 O 0.58079 0.15907 0.94066 0.0
O646 O 0.58036 0.17779 0.92828 0.0
C647 C 0.58495 0.17649 0.96753 0.0
O648 O 0.56918 0.19653 0.94952 0.0
Co649 Co 0.55643 0.18023 0.97264 0.0
O650 O 0.56035 0.19997 0.97029 0.0
C651 C 0.54469 0.16886 0.94746 0.0
C652 C 0.58275 0.16482 0.92892 0.0
C653 C 0.56476 0.20442 0.95896 0.0
O654 O 0.55552 0.17204 0.94085 0.0
O655 O 0.54359 0.17016 0.96037 0.0
O656 O 0.59168 0.18015 0.95673 0.0
O657 O 0.57282 0.17214 0.96541 0.0
Co658 Co 0.43382 0.83168 0.94573 0.0
O659 O 0.42752 0.84928 0.93951 0.0
O660 O 0.42777 0.8306 0.92705 0.0
C661 C 0.42357 0.83187 0.96636 0.0
O662 O 0.43911 0.81177 0.94818 0.0
Co663 Co 0.45215 0.82813 0.97117 0.0
O664 O 0.44809 0.80842 0.96891 0.0
C665 C 0.4636 0.83953 0.94588 0.0
C666 C 0.42544 0.84358 0.92777 0.0
C667 C 0.44356 0.80392 0.95764 0.0
O668 O 0.45273 0.83625 0.93938 0.0
O669 O 0.46482 0.83828 0.95877 0.0
O670 O 0.41672 0.82822 0.95564 0.0
O671 O 0.43569 0.83618 0.96411 0.0
Co672 Co 0.5948 0.68405 0.92419 0.0
O673 O 0.61329 0.67729 0.92436 0.0
O674 O 0.59548 0.66564 0.91722 0.0
C675 C 0.59983 0.70492 0.91574 0.0
O676 O 0.57433 0.68722 0.92202 0.0
Co677 Co 0.58543 0.70919 0.94079 0.0
O678 O 0.56776 0.70703 0.93122 0.0
C679 C 0.59285 0.68358 0.95456 0.0
C680 C 0.60847 0.66594 0.91963 0.0
C681 C 0.56518 0.69626 0.9245 0.0
O682 O 0.59211 0.67705 0.94326 0.0
O683 O 0.59207 0.69654 0.95537 0.0
O684 O 0.59832 0.69466 0.90751 0.0
O685 O 0.59895 0.70208 0.92845 0.0
Co686 Co 0.32486 0.59437 0.92502 0.0
O687 O 0.33175 0.6128 0.92533 0.0
O688 O 0.34332 0.59497 0.91812 0.0
C689 C 0.30408 0.59966 0.91654 0.0
O690 O 0.32148 0.57394 0.92269 0.0
Co691 Co 0.29953 0.58519 0.94147 0.0
O692 O 0.30142 0.56767 0.93159 0.0
C693 C 0.32528 0.5919 0.95543 0.0
C694 C 0.34309 0.60794 0.92061 0.0
C695 C 0.31222 0.56494 0.92497 0.0
O696 O 0.33179 0.5915 0.94409 0.0
O697 O 0.31231 0.59111 0.95623 0.0
O698 O 0.31434 0.5981 0.90832 0.0
O699 O 0.30686 0.59868 0.92924 0.0
Co700 Co 0.41493 0.32526 0.9246 0.0
O701 O 0.39646 0.33204 0.92491 0.0
O702 O 0.41421 0.34368 0.9176 0.0
C703 C 0.40973 0.30439 0.91626 0.0
O704 O 0.43536 0.32201 0.9223 0.0
Co705 Co 0.42425 0.30012 0.94124 0.0
O706 O 0.44185 0.30218 0.93152 0.0
C707 C 0.41725 0.32589 0.95496 0.0
C708 C 0.40124 0.34338 0.92012 0.0
C709 C 0.44447 0.31292 0.92477 0.0
O710 O 0.41781 0.33234 0.94361 0.0
O711 O 0.41798 0.31292 0.95585 0.0
O712 O 0.41123 0.31461 0.90798 0.0
O713 O 0.41072 0.30727 0.92895 0.0
Co714 Co 0.68413 0.41462 0.92555 0.0
O715 O 0.67722 0.3962 0.92558 0.0
O716 O 0.66569 0.41417 0.91866 0.0
C717 C 0.70491 0.4095 0.91698 0.0
O718 O 0.6875 0.43507 0.92355 0.0
Co719 Co 0.70941 0.42357 0.94219 0.0
O720 O 0.70747 0.44129 0.93266 0.0
C721 C 0.68373 0.41633 0.95596 0.0
C722 C 0.6659 0.40117 0.92095 0.0
C723 C 0.6967 0.44406 0.92602 0.0
O724 O 0.6772 0.4172 0.94467 0.0
O725 O 0.6967 0.417 0.95676 0.0
O726 O 0.69464 0.41116 0.9088 0.0
O727 O 0.70213 0.41027 0.92971 0.0
Co728 Co 0.5945 0.32536 0.08579 0.0
O729 O 0.61297 0.33223 0.08555 0.0
O730 O 0.59519 0.34365 0.09309 0.0
C731 C 0.59973 0.30433 0.09375 0.0
O732 O 0.57406 0.32205 0.08807 0.0
Co733 Co 0.58512 0.30047 0.06879 0.0
O734 O 0.56749 0.30241 0.07849 0.0
C735 C 0.59212 0.32644 0.05546 0.0
C736 C 0.60815 0.34348 0.09051 0.0
C737 C 0.56492 0.31304 0.08544 0.0
O738 O 0.59156 0.33274 0.0669 0.0
O739 O 0.5914 0.31349 0.05438 0.0
O740 O 0.59826 0.31441 0.10222 0.0
O741 O 0.5987 0.30744 0.08112 0.0
Co742 Co 0.68467 0.59546 0.08408 0.0
O743 O 0.67804 0.614 0.08377 0.0
O744 O 0.66625 0.59635 0.09106 0.0
C745 C 0.70559 0.60047 0.09245 0.0
O746 O 0.68768 0.57497 0.08639 0.0
Co747 Co 0.70977 0.58579 0.06758 0.0
O748 O 0.70757 0.56829 0.07744 0.0
C749 C 0.68409 0.59291 0.05369 0.0
C750 C 0.66665 0.60932 0.08854 0.0
C751 C 0.69673 0.56578 0.08407 0.0
O752 O 0.67761 0.59266 0.06504 0.0
O753 O 0.69704 0.59189 0.05286 0.0
O754 O 0.69533 0.59908 0.10072 0.0
O755 O 0.70273 0.59947 0.07976 0.0
Co756 Co 0.41414 0.68353 0.08421 0.0
O757 O 0.3956 0.67691 0.08392 0.0
O758 O 0.41323 0.66518 0.09133 0.0
C759 C 0.40911 0.7045 0.09241 0.0
O760 O 0.43462 0.6866 0.08649 0.0
Co761 Co 0.42376 0.70852 0.06748 0.0
O762 O 0.44131 0.70636 0.07725 0.0
C763 C 0.41641 0.68278 0.05388 0.0
C764 C 0.40027 0.66557 0.0888 0.0
C765 C 0.44381 0.69561 0.08402 0.0
O766 O 0.41697 0.67633 0.06523 0.0
O767 O 0.41726 0.69573 0.05296 0.0
O768 O 0.41051 0.69432 0.10076 0.0
O769 O 0.41012 0.70153 0.07975 0.0
Co770 Co 0.32456 0.41373 0.08391 0.0
O771 O 0.33109 0.39521 0.08325 0.0
O772 O 0.34288 0.41259 0.09116 0.0
C773 C 0.30352 0.4085 0.09182 0.0
O774 O 0.32147 0.43416 0.0866 0.0
Co775 Co 0.29968 0.4236 0.06715 0.0
O776 O 0.30169 0.44088 0.07741 0.0
C777 C 0.32565 0.41687 0.0536 0.0
C778 C 0.34242 0.39969 0.08832 0.0
C779 C 0.3124 0.44333 0.08427 0.0
O780 O 0.33194 0.41697 0.06507 0.0
O781 O 0.31271 0.41779 0.05256 0.0
O782 O 0.31362 0.40974 0.10029 0.0
O783 O 0.3066 0.40979 0.07921 0.0
Co784 Co 0.92495 0.5948 0.68432 0.0
O785 O 0.92533 0.6132 0.67738 0.0
O786 O 0.91766 0.59543 0.66602 0.0
C787 C 0.91703 0.60025 0.70531 0.0
O788 O 0.92251 0.57441 0.68778 0.0
Co789 Co 0.94196 0.58556 0.70925 0.0
O790 O 0.93209 0.568 0.70748 0.0
C791 C 0.95526 0.59231 0.68321 0.0
C792 C 0.92033 0.60837 0.66616 0.0
C793 C 0.9251 0.56535 0.6969 0.0
O794 O 0.94381 0.59167 0.67695 0.0
O795 O 0.95636 0.59173 0.69616 0.0
O796 O 0.90855 0.59876 0.69525 0.0
O797 O 0.92965 0.5991 0.7022 0.0
Co798 Co 0.41389 0.92489 0.68362 0.0
O799 O 0.39549 0.92486 0.67666 0.0
O800 O 0.4135 0.91795 0.66518 0.0
C801 C 0.40872 0.91636 0.70441 0.0
O802 O 0.43434 0.92296 0.68702 0.0
Co803 Co 0.42272 0.94156 0.70892 0.0
O804 O 0.44047 0.93207 0.70703 0.0
C805 C 0.41569 0.9553 0.68317 0.0
C806 C 0.40049 0.92022 0.66535 0.0
C807 C 0.4433 0.92547 0.69625 0.0
O808 O 0.41647 0.94399 0.67666 0.0
O809 O 0.41634 0.95614 0.69614 0.0
O810 O 0.41044 0.90815 0.69416 0.0
O811 O 0.40947 0.92907 0.7016 0.0
Co812 Co 0.08448 0.41366 0.68361 0.0
O813 O 0.0842 0.39517 0.67688 0.0
O814 O 0.09151 0.41287 0.66519 0.0
C815 C 0.09282 0.40853 0.7045 0.0
O816 O 0.08676 0.43413 0.68687 0.0
Co817 Co 0.06777 0.4229 0.70878 0.0
O818 O 0.0776 0.44045 0.70681 0.0
C819 C 0.05411 0.41585 0.683 0.0
C820 C 0.08902 0.39989 0.66554 0.0
C821 C 0.08433 0.44315 0.69607 0.0
O822 O 0.06546 0.4165 0.67653 0.0
O823 O 0.05322 0.41655 0.69596 0.0
O824 O 0.10111 0.41001 0.69428 0.0
O825 O 0.08014 0.40947 0.7016 0.0
Co826 Co 0.59661 0.08389 0.68379 0.0
O827 O 0.61508 0.08395 0.67699 0.0
O828 O 0.5972 0.09096 0.6654 0.0
C829 C 0.6016 0.09226 0.7047 0.0
O830 O 0.57612 0.0858 0.68706 0.0
Co831 Co 0.5876 0.06699 0.7089 0.0
O832 O 0.5699 0.07657 0.70699 0.0
C833 C 0.59477 0.05347 0.68307 0.0
C834 C 0.61021 0.08867 0.66567 0.0
C835 C 0.56712 0.08325 0.69625 0.0
O836 O 0.59407 0.06484 0.67666 0.0
O837 O 0.59403 0.05252 0.69602 0.0
O838 O 0.59999 0.10054 0.69451 0.0
O839 O 0.60087 0.07956 0.70177 0.0
Co840 Co 0.92422 0.41331 0.32483 0.0
O841 O 0.92446 0.39475 0.33138 0.0
O842 O 0.91716 0.41237 0.34321 0.0
C843 C 0.91593 0.40845 0.30386 0.0
O844 O 0.92203 0.43381 0.32186 0.0
Co845 Co 0.94097 0.42292 0.29984 0.0
O846 O 0.9313 0.44052 0.30211 0.0
C847 C 0.9546 0.41572 0.32559 0.0
C848 C 0.91964 0.3994 0.34276 0.0
C849 C 0.92457 0.44302 0.31288 0.0
O850 O 0.94321 0.41609 0.332 0.0
O851 O 0.95555 0.41662 0.31265 0.0
O852 O 0.90762 0.40981 0.31408 0.0
O853 O 0.92861 0.40935 0.30678 0.0
Co854 Co 0.59495 0.92505 0.32519 0.0
O855 O 0.61343 0.92533 0.33195 0.0
O856 O 0.59567 0.91805 0.3436 0.0
C857 C 0.60009 0.91674 0.30429 0.0
O858 O 0.57449 0.92277 0.32198 0.0
Co859 Co 0.58555 0.9417 0.30009 0.0
O860 O 0.56795 0.93198 0.30217 0.0
C861 C 0.59279 0.95541 0.3258 0.0
C862 C 0.60864 0.92057 0.3433 0.0
C863 C 0.56536 0.92522 0.31291 0.0
O864 O 0.59213 0.94408 0.33228 0.0
O865 O 0.59201 0.95628 0.31284 0.0
O866 O 0.5986 0.90844 0.31449 0.0
O867 O 0.59911 0.92942 0.30719 0.0
Co868 Co 0.08462 0.59583 0.32559 0.0
O869 O 0.08455 0.61436 0.33225 0.0
O870 O 0.09148 0.59658 0.34405 0.0
C871 C 0.09324 0.6007 0.30475 0.0
O872 O 0.08665 0.57533 0.3225 0.0
Co873 Co 0.06807 0.58655 0.30036 0.0
O874 O 0.0776 0.56887 0.30257 0.0
C875 C 0.05421 0.59396 0.32594 0.0
C876 C 0.08918 0.60959 0.34365 0.0
C877 C 0.08419 0.56622 0.3134 0.0
O878 O 0.06549 0.59328 0.33251 0.0
O879 O 0.05344 0.59314 0.31298 0.0
O880 O 0.1014 0.59919 0.31506 0.0
O881 O 0.08051 0.59995 0.30752 0.0
Co882 Co 0.41324 0.08436 0.32557 0.0
O883 O 0.39479 0.08422 0.33241 0.0
O884 O 0.41263 0.0914 0.34398 0.0
C885 C 0.40811 0.09271 0.30468 0.0
O886 O 0.4337 0.08646 0.32222 0.0
Co887 Co 0.42227 0.06756 0.30038 0.0
O888 O 0.43992 0.07724 0.30228 0.0
C889 C 0.41533 0.05397 0.32623 0.0
C890 C 0.39964 0.08899 0.34373 0.0
C891 C 0.44269 0.08394 0.31302 0.0
O892 O 0.416 0.06533 0.33266 0.0
O893 O 0.41596 0.05303 0.31327 0.0
O894 O 0.40968 0.101 0.31489 0.0
O895 O 0.40895 0.08002 0.30759 0.0
Co896 Co 0.68363 0.92458 0.59491 0.0
O897 O 0.67672 0.9246 0.61334 0.0
O898 O 0.66522 0.91754 0.5954 0.0
C899 C 0.70448 0.91616 0.60006 0.0
O900 O 0.68705 0.92258 0.57444 0.0
Co901 Co 0.70884 0.94141 0.58605 0.0
O902 O 0.70701 0.93183 0.56835 0.0
C903 C 0.683 0.955 0.59302 0.0
C904 C 0.66543 0.91985 0.60841 0.0
C905 C 0.6963 0.92513 0.5655 0.0
O906 O 0.67657 0.94364 0.59227 0.0
O907 O 0.69597 0.95592 0.59239 0.0
O908 O 0.69426 0.90791 0.5984 0.0
O909 O 0.7016 0.92886 0.59929 0.0
Co910 Co 0.68376 0.08483 0.4128 0.0
O911 O 0.67684 0.08466 0.39434 0.0
O912 O 0.66536 0.09185 0.41223 0.0
C913 C 0.70464 0.09319 0.40762 0.0
O914 O 0.68703 0.08698 0.43325 0.0
Co915 Co 0.70896 0.06825 0.42206 0.0
O916 O 0.70692 0.07787 0.43972 0.0
C917 C 0.68313 0.05443 0.41534 0.0
C918 C 0.66555 0.08943 0.39925 0.0
C919 C 0.69612 0.08451 0.44236 0.0
O920 O 0.67668 0.0658 0.41562 0.0
O921 O 0.69609 0.05356 0.41615 0.0
O922 O 0.69443 0.10146 0.40918 0.0
O923 O 0.70176 0.0805 0.40853 0.0
Co924 Co 0.92511 0.68338 0.41414 0.0
O925 O 0.92524 0.67651 0.39569 0.0
O926 O 0.91792 0.66503 0.41353 0.0
C927 C 0.91695 0.70432 0.40895 0.0
O928 O 0.92297 0.68673 0.4346 0.0
Co929 Co 0.94206 0.7084 0.42327 0.0
O930 O 0.93237 0.70655 0.44091 0.0
C931 C 0.95549 0.6825 0.41622 0.0
C932 C 0.92038 0.66524 0.40055 0.0
C933 C 0.92554 0.69588 0.44363 0.0
O934 O 0.94409 0.67614 0.41692 0.0
O935 O 0.9565 0.69545 0.41691 0.0
O936 O 0.90857 0.69419 0.41052 0.0
O937 O 0.92961 0.70132 0.40986 0.0
Co938 Co 0.32504 0.92484 0.41406 0.0
O939 O 0.33182 0.92497 0.39558 0.0
O940 O 0.34347 0.91788 0.4134 0.0
C941 C 0.30419 0.9164 0.40897 0.0
O942 O 0.32181 0.92271 0.43452 0.0
Co943 Co 0.29988 0.94148 0.42329 0.0
O944 O 0.30194 0.9319 0.44097 0.0
C945 C 0.32554 0.95522 0.41596 0.0
C946 C 0.34317 0.92027 0.40041 0.0
C947 C 0.3127 0.9252 0.44362 0.0
O948 O 0.33206 0.94391 0.41673 0.0
O949 O 0.31258 0.95604 0.4167 0.0
O950 O 0.31442 0.90815 0.41054 0.0
O951 O 0.30704 0.9291 0.40984 0.0
Co952 Co 0.08418 0.32536 0.41345 0.0
O953 O 0.08414 0.33213 0.39497 0.0
O954 O 0.09104 0.34382 0.41284 0.0
C955 C 0.09276 0.30453 0.40852 0.0
O956 O 0.08619 0.32217 0.43392 0.0
Co957 Co 0.06758 0.30013 0.42262 0.0
O958 O 0.07711 0.30224 0.44033 0.0
C959 C 0.05377 0.32572 0.41523 0.0
C960 C 0.08874 0.34351 0.39984 0.0
C961 C 0.08374 0.31305 0.443 0.0
O962 O 0.06506 0.33228 0.416 0.0
O963 O 0.05298 0.31276 0.41601 0.0
O964 O 0.10094 0.31483 0.41007 0.0
O965 O 0.08004 0.30731 0.40925 0.0
Co966 Co 0.32581 0.08449 0.59644 0.0
O967 O 0.33263 0.08439 0.6149 0.0
O968 O 0.34419 0.09162 0.59708 0.0
C969 C 0.30487 0.09272 0.60156 0.0
O970 O 0.32252 0.08656 0.57598 0.0
Co971 Co 0.30073 0.06757 0.58735 0.0
O972 O 0.30266 0.07722 0.56969 0.0
C973 C 0.32663 0.0541 0.59432 0.0
C974 C 0.34393 0.0892 0.61007 0.0
C975 C 0.31337 0.08398 0.56695 0.0
O976 O 0.33301 0.0655 0.59368 0.0
O977 O 0.31367 0.05311 0.59366 0.0
O978 O 0.31503 0.10107 0.6 0.0
O979 O 0.30785 0.08005 0.6007 0.0
Co980 Co 0.92574 0.32522 0.59501 0.0
O981 O 0.92592 0.33201 0.61347 0.0
O982 O 0.91844 0.3435 0.5957 0.0
C983 C 0.91776 0.30422 0.60022 0.0
O984 O 0.92351 0.32196 0.57457 0.0
Co985 Co 0.94275 0.30038 0.58559 0.0
O986 O 0.93305 0.30231 0.56797 0.0
C987 C 0.95605 0.32627 0.59293 0.0
C988 C 0.92096 0.34326 0.60866 0.0
C989 C 0.92612 0.31295 0.56542 0.0
O990 O 0.94464 0.3326 0.59216 0.0
O991 O 0.9571 0.31332 0.59219 0.0
O992 O 0.9093 0.31428 0.59872 0.0
O993 O 0.9304 0.30731 0.59918 0.0
Co994 Co 0.0847 0.68415 0.59586 0.0
O995 O 0.08463 0.67722 0.61428 0.0
O996 O 0.09169 0.66573 0.59633 0.0
C997 C 0.09311 0.70501 0.60103 0.0
O998 O 0.08674 0.68756 0.57543 0.0
Co999 Co 0.06791 0.70936 0.58696 0.0
O1000 O 0.07747 0.70747 0.56924 0.0
C1001 C 0.0543 0.68352 0.59386 0.0
C1002 C 0.08932 0.66591 0.60933 0.0
C1003 C 0.08418 0.69675 0.56645 0.0
O1004 O 0.06566 0.6771 0.59314 0.0
O1005 O 0.05338 0.69648 0.59326 0.0
O1006 O 0.10138 0.6948 0.5994 0.0
O1007 O 0.08042 0.70212 0.60023 0.0
Co1008 Co 0.4456 0.33185 0.0756 0.0
O1009 O 0.4389 0.34929 0.08193 0.0
O1010 O 0.42691 0.33031 0.08143 0.0
C1011 C 0.46609 0.33223 0.08612 0.0
O1012 O 0.44847 0.31203 0.07019 0.0
Co1013 Co 0.47136 0.32881 0.0576 0.0
O1014 O 0.46931 0.30901 0.06135 0.0
C1015 C 0.44604 0.33985 0.04587 0.0
C1016 C 0.42728 0.34328 0.08387 0.0
C1017 C 0.45805 0.30433 0.06573 0.0
O1018 O 0.43944 0.33643 0.05663 0.0
O1019 O 0.45897 0.33882 0.04482 0.0
O1020 O 0.45531 0.3284 0.09279 0.0
O1021 O 0.46394 0.33665 0.07401 0.0
Co1022 Co 0.67614 0.44635 0.07573 0.0
O1023 O 0.65888 0.4396 0.0824 0.0
O1024 O 0.67794 0.42777 0.08201 0.0
C1025 C 0.6756 0.46715 0.08564 0.0
O1026 O 0.69588 0.44959 0.07009 0.0
Co1027 Co 0.6777 0.47149 0.05667 0.0
O1028 O 0.69771 0.46921 0.05855 0.0
C1029 C 0.66712 0.44561 0.04624 0.0
C1030 C 0.66497 0.42808 0.08452 0.0
C1031 C 0.70303 0.45874 0.06403 0.0
O1032 O 0.67148 0.4395 0.05695 0.0
O1033 O 0.66726 0.45854 0.0449 0.0
O1034 O 0.67961 0.45664 0.0926 0.0
O1035 O 0.67093 0.46451 0.07373 0.0
Co1036 Co 0.56341 0.67693 0.07462 0.0
O1037 O 0.57 0.65958 0.08116 0.0
O1038 O 0.58208 0.6785 0.0807 0.0
C1039 C 0.54273 0.67655 0.08477 0.0
O1040 O 0.56032 0.69673 0.06909 0.0
Co1041 Co 0.53808 0.67879 0.05585 0.0
O1042 O 0.54054 0.69876 0.05785 0.0
C1043 C 0.56372 0.66797 0.04509 0.0
C1044 C 0.58162 0.66553 0.08318 0.0
C1045 C 0.55114 0.70398 0.0632 0.0
O1046 O 0.56999 0.67225 0.05575 0.0
O1047 O 0.55078 0.66826 0.04389 0.0
O1048 O 0.55336 0.68045 0.09162 0.0
O1049 O 0.54517 0.67191 0.07281 0.0
Co1050 Co 0.33261 0.56241 0.07503 0.0
O1051 O 0.34987 0.56905 0.08173 0.0
O1052 O 0.33096 0.58112 0.08099 0.0
C1053 C 0.33293 0.54181 0.08532 0.0
O1054 O 0.31288 0.55924 0.06928 0.0
Co1055 Co 0.33102 0.53694 0.05641 0.0
O1056 O 0.31103 0.53937 0.05817 0.0
C1057 C 0.34196 0.56253 0.04563 0.0
C1058 C 0.34391 0.58067 0.08362 0.0
C1059 C 0.30572 0.54999 0.06337 0.0
O1060 O 0.33752 0.56887 0.05618 0.0
O1061 O 0.3417 0.54958 0.04452 0.0
O1062 O 0.3289 0.55247 0.09206 0.0
O1063 O 0.33768 0.54418 0.07339 0.0
Co1064 Co 0.44609 0.67633 0.93382 0.0
O1065 O 0.43988 0.6587 0.92753 0.0
O1066 O 0.4273 0.67729 0.9281 0.0
C1067 C 0.46653 0.67641 0.92322 0.0
O1068 O 0.44846 0.69625 0.93915 0.0
Co1069 Co 0.47182 0.68011 0.95169 0.0
O1070 O 0.46939 0.69979 0.94757 0.0
C1071 C 0.44677 0.66864 0.96367 0.0
C1072 C 0.42807 0.66432 0.92567 0.0
C1073 C 0.45798 0.70419 0.94333 0.0
O1074 O 0.4401 0.67162 0.95282 0.0
O1075 O 0.45966 0.67016 0.96473 0.0
O1076 O 0.45566 0.67997 0.91658 0.0
O1077 O 0.46454 0.67201 0.93535 0.0
Co1078 Co 0.33267 0.44609 0.934 0.0
O1079 O 0.35022 0.43992 0.92751 0.0
O1080 O 0.33169 0.42727 0.92836 0.0
C1081 C 0.33245 0.46648 0.9233 0.0
O1082 O 0.31281 0.44841 0.9396 0.0
Co1083 Co 0.32904 0.47193 0.95178 0.0
O1084 O 0.30928 0.46926 0.94821 0.0
C1085 C 0.34105 0.44708 0.96358 0.0
C1086 C 0.34462 0.42808 0.92575 0.0
C1087 C 0.30488 0.45783 0.94401 0.0
O1088 O 0.33764 0.44025 0.95297 0.0
O1089 O 0.33966 0.46 0.96448 0.0
O1090 O 0.32879 0.45557 0.91675 0.0
O1091 O 0.33697 0.46455 0.93539 0.0
Co1092 Co 0.56368 0.33203 0.93509 0.0
O1093 O 0.57004 0.34952 0.9286 0.0
O1094 O 0.58244 0.33082 0.92934 0.0
C1095 C 0.54324 0.33202 0.92451 0.0
O1096 O 0.56113 0.31221 0.94066 0.0
Co1097 Co 0.53794 0.32872 0.95306 0.0
O1098 O 0.54028 0.30894 0.94936 0.0
C1099 C 0.56307 0.34022 0.96478 0.0
C1100 C 0.58179 0.34375 0.92676 0.0
C1101 C 0.55163 0.3044 0.94508 0.0
O1102 O 0.56973 0.33688 0.95404 0.0
O1103 O 0.55015 0.33895 0.96583 0.0
O1104 O 0.55408 0.32829 0.9179 0.0
O1105 O 0.54528 0.33655 0.9366 0.0
Co1106 Co 0.67675 0.56337 0.93423 0.0
O1107 O 0.65955 0.5701 0.92744 0.0
O1108 O 0.67856 0.58203 0.92822 0.0
C1109 C 0.67638 0.54273 0.92403 0.0
O1110 O 0.69643 0.56012 0.94005 0.0
Co1111 Co 0.67817 0.53796 0.95294 0.0
O1112 O 0.69819 0.54026 0.95118 0.0
C1113 C 0.66729 0.56364 0.96359 0.0
C1114 C 0.66562 0.58167 0.92554 0.0
C1115 C 0.70354 0.55086 0.94596 0.0
O1116 O 0.67181 0.56993 0.95304 0.0
O1117 O 0.66749 0.55069 0.96473 0.0
O1118 O 0.68047 0.55334 0.91726 0.0
O1119 O 0.67157 0.54518 0.93593 0.0
Co1120 Co 0.07461 0.44648 0.33184 0.0
O1121 O 0.08094 0.44026 0.34943 0.0
O1122 O 0.08077 0.42783 0.33072 0.0
C1123 C 0.08474 0.46718 0.33202 0.0
O1124 O 0.0693 0.44893 0.31193 0.0
Co1125 Co 0.05612 0.47181 0.32833 0.0
O1126 O 0.06019 0.4696 0.30861 0.0
C1127 C 0.0448 0.4464 0.33961 0.0
C1128 C 0.08309 0.42854 0.34371 0.0
C1129 C 0.06478 0.45837 0.30409 0.0
O1130 O 0.05573 0.44 0.33638 0.0
O1131 O 0.04348 0.45929 0.33838 0.0
O1132 O 0.09164 0.45649 0.32838 0.0
O1133 O 0.07263 0.46484 0.33635 0.0
Co1134 Co 0.56261 0.07517 0.33144 0.0
O1135 O 0.56933 0.08187 0.3487 0.0
O1136 O 0.58115 0.08157 0.32962 0.0
C1137 C 0.54176 0.08494 0.33206 0.0
O1138 O 0.55942 0.06953 0.31169 0.0
Co1139 Co 0.53762 0.05595 0.32981 0.0
O1140 O 0.53991 0.05781 0.3098 0.0
C1141 C 0.56354 0.04571 0.34048 0.0
C1142 C 0.58084 0.08404 0.3426 0.0
C1143 C 0.55036 0.06338 0.30451 0.0
O1144 O 0.56957 0.05645 0.3361 0.0
O1145 O 0.55061 0.04427 0.34028 0.0
O1146 O 0.55222 0.09198 0.32801 0.0
O1147 O 0.54447 0.07303 0.33667 0.0
Co1148 Co 0.93456 0.56271 0.33204 0.0
O1149 O 0.92788 0.56939 0.34931 0.0
O1150 O 0.92838 0.58133 0.33031 0.0
C1151 C 0.92453 0.54197 0.33243 0.0
O1152 O 0.94025 0.55953 0.3123 0.0
Co1153 Co 0.95353 0.53751 0.3305 0.0
O1154 O 0.95156 0.53977 0.3105 0.0
C1155 C 0.96406 0.56333 0.34112 0.0
C1156 C 0.92584 0.58095 0.34328 0.0
C1157 C 0.94621 0.5503 0.30516 0.0
O1158 O 0.95336 0.56946 0.33679 0.0
O1159 O 0.96539 0.55039 0.34092 0.0
O1160 O 0.91764 0.55255 0.32846 0.0
O1161 O 0.93644 0.54452 0.33716 0.0
Co1162 Co 0.44603 0.93406 0.33203 0.0
O1163 O 0.43981 0.92773 0.34963 0.0
O1164 O 0.42729 0.92815 0.331 0.0
C1165 C 0.46657 0.92364 0.33204 0.0
O1166 O 0.44846 0.9394 0.31212 0.0
Co1167 Co 0.47163 0.95219 0.32844 0.0
O1168 O 0.46928 0.94816 0.30873 0.0
C1169 C 0.44649 0.96379 0.34001 0.0
C1170 C 0.42804 0.92574 0.34396 0.0
C1171 C 0.45796 0.94375 0.30425 0.0
O1172 O 0.43987 0.95301 0.3367 0.0
O1173 O 0.45939 0.9649 0.33873 0.0
O1174 O 0.45577 0.9169 0.32843 0.0
O1175 O 0.46444 0.93576 0.33644 0.0
Co1176 Co 0.07511 0.56235 0.67662 0.0
O1177 O 0.08152 0.56871 0.65909 0.0
O1178 O 0.08092 0.58111 0.6778 0.0
C1179 C 0.08563 0.54185 0.6765 0.0
O1180 O 0.06965 0.55983 0.69648 0.0
Co1181 Co 0.05712 0.53663 0.68005 0.0
O1182 O 0.06086 0.53901 0.69982 0.0
C1183 C 0.04543 0.56175 0.6685 0.0
C1184 C 0.08342 0.58045 0.66484 0.0
C1185 C 0.0652 0.55035 0.70433 0.0
O1186 O 0.05615 0.56843 0.67188 0.0
O1187 O 0.04441 0.54883 0.66973 0.0
O1188 O 0.0923 0.55266 0.68023 0.0
O1189 O 0.07352 0.54396 0.67209 0.0
Co1190 Co 0.44708 0.0749 0.67745 0.0
O1191 O 0.44066 0.08149 0.66005 0.0
O1192 O 0.4286 0.08153 0.67899 0.0
C1193 C 0.46806 0.08442 0.67695 0.0
O1194 O 0.45 0.06942 0.69728 0.0
Co1195 Co 0.47182 0.05539 0.67948 0.0
O1196 O 0.46938 0.05753 0.69943 0.0
C1197 C 0.44587 0.04536 0.66867 0.0
C1198 C 0.4291 0.08386 0.66599 0.0
C1199 C 0.45895 0.06326 0.70459 0.0
O1200 O 0.43993 0.05622 0.67289 0.0
O1201 O 0.45878 0.04377 0.66899 0.0
O1202 O 0.45765 0.09162 0.68082 0.0
O1203 O 0.46525 0.07249 0.67243 0.0
Co1204 Co 0.93423 0.44648 0.67643 0.0
O1205 O 0.92786 0.44013 0.6589 0.0
O1206 O 0.92845 0.42772 0.67761 0.0
C1207 C 0.92367 0.46693 0.67635 0.0
O1208 O 0.93963 0.44904 0.6963 0.0
Co1209 Co 0.95219 0.4722 0.67987 0.0
O1210 O 0.94814 0.46998 0.69959 0.0
C1211 C 0.96408 0.44699 0.66869 0.0
C1212 C 0.92598 0.42838 0.66465 0.0
C1213 C 0.94388 0.45862 0.70413 0.0
O1214 O 0.9532 0.4404 0.67172 0.0
O1215 O 0.9652 0.45988 0.67008 0.0
O1216 O 0.91702 0.4561 0.68005 0.0
O1217 O 0.93579 0.46488 0.67192 0.0
Co1218 Co 0.56321 0.93408 0.67715 0.0
O1219 O 0.56975 0.92739 0.65983 0.0
O1220 O 0.58171 0.92754 0.67883 0.0
C1221 C 0.54229 0.92446 0.67666 0.0
O1222 O 0.56015 0.93971 0.69693 0.0
Co1223 Co 0.53839 0.95351 0.67887 0.0
O1224 O 0.54069 0.9515 0.69885 0.0
C1225 C 0.56438 0.96358 0.6682 0.0
C1226 C 0.58128 0.92511 0.66584 0.0
C1227 C 0.55111 0.94588 0.70413 0.0
O1228 O 0.57032 0.95276 0.67249 0.0
O1229 O 0.55147 0.96515 0.66845 0.0
O1230 O 0.55272 0.91734 0.68062 0.0
O1231 O 0.54507 0.93635 0.67203 0.0
Co1232 Co 0.33242 0.07478 0.44714 0.0
O1233 O 0.3498 0.08133 0.4406 0.0
O1234 O 0.33084 0.0812 0.42858 0.0
C1235 C 0.33294 0.08457 0.46799 0.0
O1236 O 0.3126 0.06931 0.45017 0.0
Co1237 Co 0.33047 0.05558 0.47213 0.0
O1238 O 0.3105 0.05766 0.4697 0.0
C1239 C 0.34124 0.04525 0.44628 0.0
C1240 C 0.34384 0.08358 0.42903 0.0
C1241 C 0.30532 0.06325 0.45922 0.0
O1242 O 0.33697 0.05601 0.44021 0.0
O1243 O 0.34097 0.04383 0.45921 0.0
O1244 O 0.32904 0.09163 0.4575 0.0
O1245 O 0.33747 0.07262 0.46532 0.0
Co1246 Co 0.33166 0.93448 0.56301 0.0
O1247 O 0.34911 0.92793 0.56938 0.0
O1248 O 0.33037 0.92861 0.58172 0.0
C1249 C 0.3317 0.92405 0.54247 0.0
O1250 O 0.31186 0.94009 0.56041 0.0
Co1251 Co 0.32854 0.95264 0.53738 0.0
O1252 O 0.30875 0.94888 0.53957 0.0
C1253 C 0.34002 0.96412 0.56263 0.0
C1254 C 0.3433 0.92603 0.5811 0.0
C1255 C 0.30412 0.94454 0.55086 0.0
O1256 O 0.33653 0.95337 0.56921 0.0
O1257 O 0.33885 0.96525 0.54971 0.0
O1258 O 0.32792 0.91737 0.55325 0.0
O1259 O 0.33626 0.9361 0.54463 0.0
Co1260 Co 0.07533 0.33178 0.5627 0.0
O1261 O 0.08216 0.34907 0.56916 0.0
O1262 O 0.08147 0.33024 0.58137 0.0
C1263 C 0.08539 0.33191 0.54199 0.0
O1264 O 0.06947 0.31205 0.55972 0.0
Co1265 Co 0.05641 0.33014 0.53747 0.0
O1266 O 0.05817 0.31016 0.53996 0.0
C1267 C 0.04601 0.34131 0.56311 0.0
C1268 C 0.08411 0.34319 0.58082 0.0
C1269 C 0.06346 0.30487 0.55055 0.0
O1270 O 0.05658 0.33681 0.56934 0.0
O1271 O 0.04475 0.341 0.55017 0.0
O1272 O 0.09224 0.32795 0.5526 0.0
O1273 O 0.07352 0.33674 0.54447 0.0
Co1274 Co 0.67734 0.0747 0.56226 0.0
O1275 O 0.66001 0.08139 0.56876 0.0
O1276 O 0.67893 0.08106 0.58084 0.0
C1277 C 0.67706 0.08454 0.54143 0.0
O1278 O 0.69712 0.06906 0.55929 0.0
Co1279 Co 0.67923 0.05552 0.53725 0.0
O1280 O 0.6992 0.05743 0.53975 0.0
C1281 C 0.66837 0.04518 0.56306 0.0
C1282 C 0.66595 0.08355 0.58035 0.0
C1283 C 0.70439 0.06297 0.55027 0.0
O1284 O 0.67259 0.05597 0.56914 0.0
O1285 O 0.66873 0.04373 0.55014 0.0
O1286 O 0.68094 0.09154 0.55198 0.0
O1287 O 0.67237 0.07263 0.54404 0.0
Co1288 Co 0.93446 0.67615 0.56299 0.0
O1289 O 0.92814 0.65855 0.56923 0.0
O1290 O 0.92842 0.67724 0.58167 0.0
C1291 C 0.92421 0.676 0.54236 0.0
O1292 O 0.93978 0.69606 0.56057 0.0
Co1293 Co 0.95276 0.67979 0.53752 0.0
O1294 O 0.94887 0.69952 0.53991 0.0
C1295 C 0.96424 0.66837 0.56278 0.0
C1296 C 0.92606 0.66426 0.58097 0.0
C1297 C 0.94432 0.70396 0.55119 0.0
O1298 O 0.95339 0.6716 0.56931 0.0
O1299 O 0.96544 0.66962 0.54988 0.0
O1300 O 0.91737 0.67963 0.5531 0.0
O1301 O 0.93632 0.67169 0.5446 0.0
Co1302 Co 0.67698 0.93482 0.44614 0.0
O1303 O 0.65939 0.92844 0.43996 0.0
O1304 O 0.67799 0.92894 0.4274 0.0
C1305 C 0.67697 0.92437 0.46668 0.0
O1306 O 0.69688 0.94023 0.4485 0.0
Co1307 Co 0.68068 0.95288 0.47177 0.0
O1308 O 0.70042 0.94908 0.46925 0.0
C1309 C 0.66887 0.96448 0.44673 0.0
C1310 C 0.66504 0.92649 0.42817 0.0
C1311 C 0.70482 0.94468 0.45789 0.0
O1312 O 0.67224 0.95377 0.44003 0.0
O1313 O 0.67021 0.96553 0.45963 0.0
O1314 O 0.68061 0.91765 0.45587 0.0
O1315 O 0.6726 0.93649 0.46457 0.0
Co1316 Co 0.07501 0.67702 0.44682 0.0
O1317 O 0.08183 0.65978 0.44026 0.0
O1318 O 0.0813 0.67872 0.42822 0.0
C1319 C 0.08492 0.67671 0.46761 0.0
O1320 O 0.06919 0.69674 0.44993 0.0
Co1321 Co 0.05589 0.67851 0.47192 0.0
O1322 O 0.05773 0.69851 0.46961 0.0
C1323 C 0.04557 0.66776 0.44606 0.0
C1324 C 0.0839 0.66577 0.42867 0.0
C1325 C 0.06312 0.70386 0.4591 0.0
O1326 O 0.0563 0.67212 0.43999 0.0
O1327 O 0.04415 0.66802 0.45899 0.0
O1328 O 0.09185 0.68073 0.45707 0.0
O1329 O 0.07304 0.67192 0.46501 0.0
Co1330 Co 0.93418 0.33175 0.44576 0.0
O1331 O 0.92734 0.34897 0.43917 0.0
O1332 O 0.92799 0.33004 0.42712 0.0
C1333 C 0.92416 0.33203 0.4665 0.0
O1334 O 0.94004 0.31206 0.44892 0.0
Co1335 Co 0.95317 0.33041 0.47097 0.0
O1336 O 0.95132 0.3104 0.46871 0.0
C1337 C 0.96358 0.34115 0.44515 0.0
C1338 C 0.92533 0.34299 0.42758 0.0
C1339 C 0.94603 0.30499 0.45818 0.0
O1340 O 0.95292 0.33669 0.43902 0.0
O1341 O 0.9649 0.34097 0.45808 0.0
O1342 O 0.9173 0.32799 0.45593 0.0
O1343 O 0.93602 0.33687 0.46395 0.0
H1344 H 0.13779 0.16414 0.42441 0.0
H1345 H 0.13943 0.08294 0.41915 0.0
H1346 H 0.10276 0.13991 0.41406 0.0
H1347 H 0.17528 0.10743 0.42517 0.0
H1348 H 0.12607 0.10368 0.41618 0.0
H1349 H 0.15184 0.14364 0.42375 0.0
C1350 C 0.13306 0.15453 0.42188 0.0
C1351 C 0.11904 0.15378 0.41932 0.0
C1352 C 0.13688 0.10454 0.41802 0.0
C1353 C 0.13511 0.13015 0.41866 0.0
C1354 C 0.14454 0.09267 0.41969 0.0
C1355 C 0.15852 0.0934 0.42244 0.0
C1356 C 0.14319 0.1173 0.41922 0.0
C1357 C 0.16454 0.10634 0.42305 0.0
C1358 C 0.1411 0.14281 0.42151 0.0
C1359 C 0.11351 0.14101 0.41611 0.0
N1360 N 0.15684 0.11775 0.42158 0.0
N1361 N 0.12152 0.12972 0.41597 0.0
H1362 H 0.84525 0.13683 0.42359 0.0
H1363 H 0.92654 0.13813 0.41985 0.0
H1364 H 0.86945 0.10157 0.41409 0.0
H1365 H 0.90207 0.17421 0.42424 0.0
H1366 H 0.9058 0.12474 0.41683 0.0
H1367 H 0.86583 0.15079 0.42308 0.0
C1368 C 0.85487 0.13203 0.42128 0.0
C1369 C 0.85559 0.11797 0.41891 0.0
C1370 C 0.90495 0.1356 0.41832 0.0
C1371 C 0.87931 0.13393 0.41843 0.0
C1372 C 0.91682 0.14328 0.42002 0.0
C1373 C 0.91609 0.15735 0.42232 0.0
C1374 C 0.89219 0.14198 0.41905 0.0
C1375 C 0.90316 0.16341 0.42247 0.0
C1376 C 0.86664 0.14002 0.42099 0.0
C1377 C 0.86838 0.11235 0.41598 0.0
N1378 N 0.89176 0.1557 0.42098 0.0
N1379 N 0.87972 0.12031 0.41593 0.0
H1380 H 0.87171 0.92663 0.42016 0.0
H1381 H 0.87263 0.84531 0.42315 0.0
H1382 H 0.83561 0.90208 0.42399 0.0
H1383 H 0.90818 0.86931 0.41415 0.0
H1384 H 0.85886 0.86597 0.4227 0.0
H1385 H 0.88515 0.9059 0.41709 0.0
C1386 C 0.86657 0.9169 0.4202 0.0
C1387 C 0.85248 0.91613 0.42237 0.0
C1388 C 0.86965 0.86673 0.42071 0.0
C1389 C 0.86788 0.89228 0.41901 0.0
C1390 C 0.87754 0.85491 0.42096 0.0
C1391 C 0.89161 0.85554 0.41871 0.0
C1392 C 0.87586 0.87938 0.41832 0.0
C1393 C 0.89737 0.86831 0.41593 0.0
C1394 C 0.87427 0.90505 0.41847 0.0
C1395 C 0.84642 0.9032 0.42236 0.0
N1396 N 0.88951 0.87971 0.41592 0.0
N1397 N 0.85415 0.89182 0.42083 0.0
H1398 H 0.10724 0.83366 0.42382 0.0
H1399 H 0.13957 0.90782 0.41306 0.0
H1400 H 0.08328 0.87007 0.41933 0.0
H1401 H 0.16304 0.8724 0.42375 0.0
H1402 H 0.11908 0.89371 0.4124 0.0
H1403 H 0.12789 0.8472 0.42081 0.0
C1404 C 0.1063 0.84447 0.42202 0.0
C1405 C 0.09347 0.85072 0.42187 0.0
C1406 C 0.12872 0.889 0.4148 0.0
C1407 C 0.11716 0.86635 0.41851 0.0
C1408 C 0.14046 0.89706 0.41513 0.0
C1409 C 0.15308 0.89132 0.41851 0.0
C1410 C 0.12958 0.87506 0.41781 0.0
C1411 C 0.15355 0.87729 0.42113 0.0
C1412 C 0.11812 0.85222 0.42037 0.0
C1413 C 0.09293 0.8648 0.41955 0.0
N1414 N 0.14199 0.86968 0.42077 0.0
N1415 N 0.10458 0.87213 0.41803 0.0
H1416 H 0.17428 0.90224 0.58547 0.0
H1417 H 0.10004 0.86983 0.5954 0.0
H1418 H 0.13779 0.92625 0.58893 0.0
H1419 H 0.13578 0.84637 0.5858 0.0
H1420 H 0.11402 0.89044 0.59586 0.0
H1421 H 0.16071 0.88164 0.58846 0.0
C1422 C 0.16343 0.90321 0.58702 0.0
C1423 C 0.15719 0.91604 0.58691 0.0
C1424 C 0.11882 0.88077 0.59374 0.0
C1425 C 0.1415 0.89238 0.59025 0.0
C1426 C 0.11085 0.86898 0.59353 0.0
C1427 C 0.11672 0.85632 0.59052 0.0
C1428 C 0.13282 0.87994 0.59099 0.0
C1429 C 0.13079 0.85589 0.58813 0.0
C1430 C 0.15566 0.89141 0.58867 0.0
C1431 C 0.14306 0.9166 0.58893 0.0
N1432 N 0.13832 0.8675 0.58838 0.0
N1433 N 0.1357 0.90496 0.59045 0.0
H1434 H 0.08297 0.13836 0.59033 0.0
H1435 H 0.1642 0.13705 0.58573 0.0
H1436 H 0.10741 0.17441 0.58545 0.0
H1437 H 0.14009 0.10185 0.59576 0.0
H1438 H 0.14364 0.15101 0.58642 0.0
H1439 H 0.10373 0.125 0.59327 0.0
C1440 C 0.09269 0.14351 0.59004 0.0
C1441 C 0.0934 0.15756 0.58761 0.0
C1442 C 0.14284 0.14025 0.58858 0.0
C1443 C 0.11732 0.14222 0.5908 0.0
C1444 C 0.1546 0.13226 0.5882 0.0
C1445 C 0.15391 0.11822 0.59066 0.0
C1446 C 0.1302 0.13419 0.59134 0.0
C1447 C 0.14115 0.11262 0.59379 0.0
C1448 C 0.10456 0.13585 0.59169 0.0
C1449 C 0.10633 0.16363 0.58731 0.0
N1450 N 0.12982 0.12058 0.59394 0.0
N1451 N 0.11775 0.15592 0.58876 0.0
H1452 H 0.87179 0.16483 0.58507 0.0
H1453 H 0.83251 0.10634 0.589 0.0
H1454 H 0.90592 0.13959 0.59586 0.0
H1455 H 0.87049 0.08472 0.58595 0.0
H1456 H 0.84502 0.12741 0.5924 0.0
H1457 H 0.85721 0.14492 0.58527 0.0
C1458 C 0.87618 0.1551 0.58773 0.0
C1459 C 0.89012 0.15394 0.5905 0.0
C1460 C 0.85071 0.11816 0.59082 0.0
C1461 C 0.87329 0.13082 0.59102 0.0
C1462 C 0.84351 0.10602 0.58905 0.0
C1463 C 0.85042 0.09372 0.58705 0.0
C1464 C 0.86502 0.11808 0.5904 0.0
C1465 C 0.8647 0.09396 0.58739 0.0
C1466 C 0.86778 0.14365 0.58796 0.0
C1467 C 0.89522 0.141 0.59373 0.0
N1468 N 0.8715 0.10593 0.58893 0.0
N1469 N 0.88685 0.12996 0.59379 0.0
H1470 H 0.92632 0.87075 0.58912 0.0
H1471 H 0.84504 0.87226 0.58538 0.0
H1472 H 0.90158 0.83482 0.58482 0.0
H1473 H 0.86926 0.90755 0.59482 0.0
H1474 H 0.86559 0.85832 0.58591 0.0
H1475 H 0.90565 0.88429 0.59208 0.0
C1476 C 0.91656 0.86567 0.58895 0.0
C1477 C 0.91572 0.85161 0.58668 0.0
C1478 C 0.86642 0.86909 0.58798 0.0
C1479 C 0.89194 0.86711 0.58991 0.0
C1480 C 0.85467 0.87708 0.58768 0.0
C1481 C 0.8554 0.89113 0.59003 0.0
C1482 C 0.87909 0.87518 0.59053 0.0
C1483 C 0.86819 0.89677 0.59295 0.0
C1484 C 0.90474 0.87343 0.59062 0.0
C1485 C 0.90275 0.84562 0.58653 0.0
N1486 N 0.87952 0.88881 0.59301 0.0
N1487 N 0.89141 0.8534 0.58801 0.0
H1488 H 0.42339 0.13626 0.16411 0.0
H1489 H 0.41994 0.13779 0.08279 0.0
H1490 H 0.41418 0.10096 0.13982 0.0
H1491 H 0.42441 0.17369 0.10754 0.0
H1492 H 0.41692 0.12425 0.10346 0.0
H1493 H 0.42297 0.15021 0.14355 0.0
C1494 C 0.42116 0.13145 0.15447 0.0
C1495 C 0.41885 0.11739 0.15372 0.0
C1496 C 0.41844 0.13511 0.10437 0.0
C1497 C 0.41848 0.13334 0.13002 0.0
C1498 C 0.42014 0.14286 0.09256 0.0
C1499 C 0.42247 0.15692 0.09339 0.0
C1500 C 0.41916 0.14141 0.11717 0.0
C1501 C 0.42265 0.1629 0.10636 0.0
C1502 C 0.42093 0.13943 0.14271 0.0
C1503 C 0.41602 0.11175 0.14091 0.0
N1504 N 0.42114 0.15512 0.11771 0.0
N1505 N 0.41602 0.11971 0.12958 0.0
H1506 H 0.90734 0.41446 0.1392 0.0
H1507 H 0.833 0.42492 0.10719 0.0
H1508 H 0.8718 0.42417 0.16295 0.0
H1509 H 0.86936 0.42062 0.0831 0.0
H1510 H 0.8466 0.42185 0.12779 0.0
H1511 H 0.89319 0.41395 0.11873 0.0
C1512 C 0.89654 0.41635 0.14015 0.0
C1513 C 0.89078 0.41941 0.15284 0.0
C1514 C 0.85159 0.42146 0.118 0.0
C1515 C 0.87448 0.41889 0.12937 0.0
C1516 C 0.84381 0.42315 0.10621 0.0
C1517 C 0.85003 0.42307 0.09335 0.0
C1518 C 0.86573 0.41964 0.11699 0.0
C1519 C 0.86411 0.42079 0.09276 0.0
C1520 C 0.88847 0.4161 0.12843 0.0
C1521 C 0.87671 0.42181 0.15339 0.0
N1522 N 0.87148 0.41923 0.10438 0.0
N1523 N 0.86908 0.42154 0.14185 0.0
H1524 H 0.58555 0.87165 0.16364 0.0
H1525 H 0.59002 0.87025 0.0824 0.0
H1526 H 0.59554 0.90683 0.13951 0.0
H1527 H 0.5847 0.8343 0.10688 0.0
H1528 H 0.59308 0.88362 0.10314 0.0
H1529 H 0.58613 0.85768 0.14308 0.0
C1530 C 0.58798 0.87643 0.15403 0.0
C1531 C 0.59047 0.89047 0.15333 0.0
C1532 C 0.59137 0.87279 0.10399 0.0
C1533 C 0.59102 0.8745 0.12963 0.0
C1534 C 0.58965 0.86513 0.09213 0.0
C1535 C 0.58707 0.8511 0.09286 0.0
C1536 C 0.5904 0.86645 0.11675 0.0
C1537 C 0.58668 0.84506 0.10579 0.0
C1538 C 0.58831 0.86844 0.14227 0.0
C1539 C 0.59356 0.89607 0.14057 0.0
N1540 N 0.58821 0.85277 0.11719 0.0
N1541 N 0.59365 0.8881 0.12923 0.0
H1542 H 0.10197 0.59599 0.14005 0.0
H1543 H 0.17604 0.58541 0.10741 0.0
H1544 H 0.1376 0.58586 0.16345 0.0
H1545 H 0.13947 0.58952 0.08362 0.0
H1546 H 0.16259 0.58849 0.12811 0.0
H1547 H 0.11597 0.59651 0.11947 0.0
C1548 C 0.11276 0.59401 0.1409 0.0
C1549 C 0.11859 0.59083 0.15353 0.0
C1550 C 0.15752 0.58884 0.11836 0.0
C1551 C 0.13472 0.59137 0.12993 0.0
C1552 C 0.16521 0.58714 0.10651 0.0
C1553 C 0.15889 0.58717 0.09371 0.0
C1554 C 0.14337 0.59061 0.11747 0.0
C1555 C 0.1448 0.5894 0.09324 0.0
C1556 C 0.12075 0.59426 0.12912 0.0
C1557 C 0.13264 0.58832 0.15395 0.0
N1558 N 0.13752 0.59097 0.10492 0.0
N1559 N 0.14019 0.5886 0.14235 0.0
H1560 H 0.42341 0.87245 0.84481 0.0
H1561 H 0.41992 0.87089 0.92609 0.0
H1562 H 0.41441 0.90778 0.86912 0.0
H1563 H 0.42371 0.83492 0.90134 0.0
H1564 H 0.417 0.88446 0.90544 0.0
H1565 H 0.42276 0.85847 0.86534 0.0
C1566 C 0.42118 0.87726 0.85445 0.0
C1567 C 0.41899 0.89134 0.85521 0.0
C1568 C 0.41834 0.87358 0.90452 0.0
C1569 C 0.41836 0.87535 0.87888 0.0
C1570 C 0.41998 0.86581 0.91633 0.0
C1571 C 0.42209 0.85172 0.91548 0.0
C1572 C 0.41892 0.86726 0.89172 0.0
C1573 C 0.42211 0.84573 0.90252 0.0
C1574 C 0.42081 0.86926 0.8662 0.0
C1575 C 0.41615 0.89698 0.86802 0.0
N1576 N 0.42067 0.85353 0.89118 0.0
N1577 N 0.41602 0.889 0.87934 0.0
H1578 H 0.13677 0.42433 0.8443 0.0
H1579 H 0.17582 0.41898 0.90265 0.0
H1580 H 0.1024 0.41369 0.86932 0.0
H1581 H 0.13807 0.42382 0.92436 0.0
H1582 H 0.16312 0.41582 0.88166 0.0
H1583 H 0.15121 0.424 0.8643 0.0
C1584 C 0.13229 0.42168 0.854 0.0
C1585 C 0.11833 0.41898 0.85507 0.0
C1586 C 0.15753 0.41775 0.89092 0.0
C1587 C 0.135 0.41829 0.87829 0.0
C1588 C 0.16483 0.41938 0.903 0.0
C1589 C 0.15804 0.42181 0.91531 0.0
C1590 C 0.14326 0.41874 0.89103 0.0
C1591 C 0.14375 0.42204 0.91512 0.0
C1592 C 0.14062 0.42137 0.86549 0.0
C1593 C 0.11312 0.41577 0.86797 0.0
N1594 N 0.13686 0.42062 0.90318 0.0
N1595 N 0.12142 0.41562 0.87907 0.0
H1596 H 0.58538 0.13702 0.8456 0.0
H1597 H 0.58812 0.13748 0.92694 0.0
H1598 H 0.59404 0.1013 0.86944 0.0
H1599 H 0.58464 0.17375 0.9026 0.0
H1600 H 0.59115 0.12414 0.90613 0.0
H1601 H 0.58585 0.15069 0.86634 0.0
C1602 C 0.5875 0.13206 0.85518 0.0
C1603 C 0.58965 0.11796 0.85575 0.0
C1604 C 0.58985 0.13504 0.90534 0.0
C1605 C 0.59007 0.13359 0.87967 0.0
C1606 C 0.58815 0.14267 0.91724 0.0
C1607 C 0.5861 0.15678 0.91655 0.0
C1608 C 0.5894 0.14151 0.89261 0.0
C1609 C 0.58619 0.16292 0.90366 0.0
C1610 C 0.58776 0.13988 0.86705 0.0
C1611 C 0.59234 0.11212 0.8685 0.0
N1612 N 0.58769 0.15525 0.89224 0.0
N1613 N 0.59237 0.11993 0.87994 0.0
H1614 H 0.83364 0.58682 0.90213 0.0
H1615 H 0.90809 0.59685 0.87013 0.0
H1616 H 0.87001 0.59065 0.92627 0.0
H1617 H 0.87253 0.58714 0.84643 0.0
H1618 H 0.89393 0.59746 0.89061 0.0
H1619 H 0.84729 0.58986 0.88156 0.0
C1620 C 0.84447 0.58848 0.90313 0.0
C1621 C 0.85066 0.58844 0.91599 0.0
C1622 C 0.8892 0.59528 0.88092 0.0
C1623 C 0.86643 0.59183 0.89238 0.0
C1624 C 0.89728 0.59498 0.8692 0.0
C1625 C 0.89152 0.59189 0.85651 0.0
C1626 C 0.87521 0.59253 0.87999 0.0
C1627 C 0.87744 0.58952 0.85598 0.0
C1628 C 0.85228 0.59015 0.89136 0.0
C1629 C 0.86477 0.59058 0.9166 0.0
N1630 N 0.86981 0.58985 0.86752 0.0
N1631 N 0.87217 0.59212 0.90499 0.0
H1632 H 0.16292 0.4226 0.13604 0.0
H1633 H 0.08158 0.42076 0.13716 0.0
H1634 H 0.1387 0.41461 0.10041 0.0
H1635 H 0.10625 0.42354 0.17326 0.0
H1636 H 0.10223 0.4176 0.12361 0.0
H1637 H 0.14229 0.42216 0.14988 0.0
C1638 C 0.15328 0.42064 0.13113 0.0
C1639 C 0.15257 0.41867 0.11701 0.0
C1640 C 0.10313 0.41877 0.13451 0.0
C1641 C 0.12878 0.41828 0.13284 0.0
C1642 C 0.09132 0.42055 0.14227 0.0
C1643 C 0.09215 0.42245 0.15639 0.0
C1644 C 0.11591 0.419 0.14088 0.0
C1645 C 0.10508 0.42211 0.16242 0.0
C1646 C 0.14147 0.42039 0.13905 0.0
C1647 C 0.13975 0.41617 0.11125 0.0
N1648 N 0.11642 0.42055 0.15464 0.0
N1649 N 0.12837 0.41616 0.11915 0.0
H1650 H 0.10598 0.58991 0.83316 0.0
H1651 H 0.1643 0.58464 0.87225 0.0
H1652 H 0.08425 0.58497 0.87089 0.0
H1653 H 0.13924 0.59513 0.90663 0.0
H1654 H 0.14431 0.58497 0.85779 0.0
H1655 H 0.12695 0.59311 0.84589 0.0
C1656 C 0.10562 0.58949 0.84415 0.0
C1657 C 0.09331 0.58702 0.85093 0.0
C1658 C 0.14311 0.58757 0.86839 0.0
C1659 C 0.11757 0.59014 0.86573 0.0
C1660 C 0.1546 0.58726 0.87673 0.0
C1661 C 0.15351 0.58992 0.89069 0.0
C1662 C 0.1303 0.5906 0.874 0.0
C1663 C 0.1406 0.59309 0.89591 0.0
C1664 C 0.11769 0.59115 0.85146 0.0
C1665 C 0.09349 0.58678 0.86521 0.0
N1666 N 0.1295 0.59323 0.88759 0.0
N1667 N 0.10542 0.58822 0.87212 0.0
H1668 H 0.42375 0.10765 0.83417 0.0
H1669 H 0.41215 0.13963 0.90839 0.0
H1670 H 0.4185 0.08354 0.87038 0.0
H1671 H 0.42319 0.16329 0.87319 0.0
H1672 H 0.41162 0.11921 0.89415 0.0
H1673 H 0.42066 0.12825 0.84777 0.0
C1674 C 0.42176 0.10666 0.84495 0.0
C1675 C 0.42142 0.0938 0.85112 0.0
C1676 C 0.41407 0.12888 0.88952 0.0
C1677 C 0.41797 0.11744 0.86683 0.0
C1678 C 0.41433 0.14057 0.89764 0.0
C1679 C 0.41777 0.15322 0.892 0.0
C1680 C 0.41722 0.12981 0.87561 0.0
C1681 C 0.42053 0.15377 0.878 0.0
C1682 C 0.42007 0.11845 0.85273 0.0
C1683 C 0.41887 0.09321 0.86517 0.0
N1684 N 0.42023 0.14225 0.87032 0.0
N1685 N 0.41731 0.10483 0.87253 0.0
H1686 H 0.84535 0.42414 0.8721 0.0
H1687 H 0.92666 0.42135 0.87085 0.0
H1688 H 0.86957 0.41551 0.90757 0.0
H1689 H 0.902 0.4251 0.83482 0.0
H1690 H 0.90598 0.41826 0.88436 0.0
H1691 H 0.86594 0.42366 0.85821 0.0
C1692 C 0.85499 0.42203 0.87697 0.0
C1693 C 0.8557 0.41989 0.89105 0.0
C1694 C 0.90509 0.41964 0.87348 0.0
C1695 C 0.87945 0.41946 0.87517 0.0
C1696 C 0.91691 0.42137 0.86574 0.0
C1697 C 0.9161 0.42352 0.85166 0.0
C1698 C 0.89231 0.42015 0.86713 0.0
C1699 C 0.90316 0.42348 0.84564 0.0
C1700 C 0.86677 0.42176 0.86902 0.0
C1701 C 0.86851 0.4172 0.89676 0.0
N1702 N 0.8918 0.42194 0.8534 0.0
N1703 N 0.87987 0.41717 0.88883 0.0
H1704 H 0.59007 0.92684 0.87032 0.0
H1705 H 0.58544 0.84561 0.87159 0.0
H1706 H 0.58471 0.90242 0.83432 0.0
H1707 H 0.59556 0.86969 0.90678 0.0
H1708 H 0.58604 0.86618 0.85765 0.0
H1709 H 0.59311 0.90607 0.88365 0.0
C1710 C 0.58969 0.91712 0.86517 0.0
C1711 C 0.5871 0.91641 0.85116 0.0
C1712 C 0.58824 0.86697 0.8684 0.0
C1713 C 0.5904 0.89249 0.86644 0.0
C1714 C 0.58791 0.85521 0.87638 0.0
C1715 C 0.59042 0.8559 0.89041 0.0
C1716 C 0.591 0.87961 0.87447 0.0
C1717 C 0.59356 0.86865 0.89602 0.0
C1718 C 0.5914 0.90524 0.87281 0.0
C1719 C 0.58669 0.90349 0.84509 0.0
N1720 N 0.59365 0.87999 0.88807 0.0
N1721 N 0.5882 0.89207 0.85277 0.0
H1722 H 0.92849 0.5895 0.13808 0.0
H1723 H 0.86907 0.60028 0.10145 0.0
H1724 H 0.90291 0.58603 0.17348 0.0
H1725 H 0.84858 0.58311 0.13617 0.0
H1726 H 0.89002 0.6013 0.11456 0.0
H1727 H 0.90841 0.5926 0.12409 0.0
C1728 C 0.91863 0.58967 0.14296 0.0
C1729 C 0.91745 0.58755 0.15702 0.0
C1730 C 0.88106 0.59712 0.11935 0.0
C1731 C 0.89409 0.59132 0.14095 0.0
C1732 C 0.86899 0.59669 0.11185 0.0
C1733 C 0.85704 0.59148 0.11764 0.0
C1734 C 0.88131 0.59213 0.13275 0.0
C1735 C 0.85755 0.58714 0.13124 0.0
C1736 C 0.90707 0.59154 0.13493 0.0
C1737 C 0.90435 0.58771 0.16271 0.0
N1738 N 0.86948 0.5875 0.13828 0.0
N1739 N 0.89321 0.58943 0.15465 0.0
H1740 H 0.42272 0.8451 0.13577 0.0
H1741 H 0.42013 0.92641 0.13735 0.0
H1742 H 0.41443 0.86945 0.10031 0.0
H1743 H 0.42349 0.90157 0.17328 0.0
H1744 H 0.4171 0.90581 0.12371 0.0
H1745 H 0.42218 0.86564 0.14972 0.0
C1746 C 0.42067 0.85476 0.13092 0.0
C1747 C 0.41865 0.85552 0.11682 0.0
C1748 C 0.41837 0.90486 0.1346 0.0
C1749 C 0.41814 0.87922 0.13278 0.0
C1750 C 0.42008 0.91664 0.14241 0.0
C1751 C 0.4221 0.91575 0.15651 0.0
C1752 C 0.41879 0.89204 0.14089 0.0
C1753 C 0.42196 0.90278 0.16246 0.0
C1754 C 0.42037 0.86651 0.13891 0.0
C1755 C 0.41603 0.86835 0.11113 0.0
N1756 N 0.42046 0.89147 0.15463 0.0
N1757 N 0.41596 0.87969 0.1191 0.0
H1758 H 0.59589 0.13939 0.10106 0.0
H1759 H 0.58497 0.10669 0.17507 0.0
H1760 H 0.58529 0.16271 0.13662 0.0
H1761 H 0.58952 0.0829 0.13854 0.0
H1762 H 0.58799 0.1274 0.16163 0.0
H1763 H 0.59643 0.11881 0.11506 0.0
C1764 C 0.59381 0.14022 0.11184 0.0
C1765 C 0.59049 0.15283 0.11764 0.0
C1766 C 0.58844 0.11765 0.15656 0.0
C1767 C 0.59106 0.12923 0.13377 0.0
C1768 C 0.58678 0.10579 0.16425 0.0
C1769 C 0.58695 0.09299 0.15794 0.0
C1770 C 0.59033 0.11676 0.14242 0.0
C1771 C 0.58928 0.09252 0.14386 0.0
C1772 C 0.59408 0.12844 0.11982 0.0
C1773 C 0.58786 0.15323 0.13168 0.0
N1774 N 0.59082 0.10421 0.13659 0.0
N1775 N 0.58815 0.14163 0.13922 0.0
H1776 H 0.67486 0.60798 0.92428 0.0
H1777 H 0.60071 0.64004 0.91277 0.0
H1778 H 0.63857 0.58394 0.91916 0.0
H1779 H 0.63603 0.66375 0.92332 0.0
H1780 H 0.61488 0.6196 0.91233 0.0
H1781 H 0.66132 0.62861 0.92113 0.0
C1782 C 0.66407 0.60701 0.92232 0.0
C1783 C 0.65786 0.59417 0.92203 0.0
C1784 C 0.61956 0.62928 0.91465 0.0
C1785 C 0.64223 0.61783 0.91851 0.0
C1786 C 0.61147 0.64098 0.91486 0.0
C1787 C 0.61715 0.65366 0.91813 0.0
C1788 C 0.63348 0.63021 0.91769 0.0
C1789 C 0.63117 0.65421 0.92078 0.0
C1790 C 0.65633 0.61882 0.92059 0.0
C1791 C 0.64381 0.5936 0.9195 0.0
N1792 N 0.63883 0.64268 0.92055 0.0
N1793 N 0.63648 0.60523 0.91791 0.0
H1794 H 0.42637 0.63697 0.92026 0.0
H1795 H 0.34505 0.63555 0.92352 0.0
H1796 H 0.40162 0.67294 0.92403 0.0
H1797 H 0.36925 0.60011 0.91468 0.0
H1798 H 0.36564 0.64945 0.923 0.0
H1799 H 0.4057 0.62338 0.91737 0.0
C1800 C 0.41661 0.64205 0.92033 0.0
C1801 C 0.41577 0.65614 0.92242 0.0
C1802 C 0.36646 0.63865 0.92106 0.0
C1803 C 0.39199 0.64058 0.91928 0.0
C1804 C 0.35468 0.63069 0.92136 0.0
C1805 C 0.35539 0.61662 0.91916 0.0
C1806 C 0.37914 0.63251 0.91868 0.0
C1807 C 0.36819 0.61092 0.91641 0.0
C1808 C 0.40479 0.63426 0.91871 0.0
C1809 C 0.4028 0.66212 0.92245 0.0
N1810 N 0.37955 0.61885 0.91635 0.0
N1811 N 0.39146 0.65432 0.92102 0.0
H1812 H 0.37364 0.3452 0.92317 0.0
H1813 H 0.3719 0.4265 0.91997 0.0
H1814 H 0.40892 0.36956 0.91408 0.0
H1815 H 0.33607 0.4016 0.92422 0.0
H1816 H 0.38552 0.40589 0.91689 0.0
H1817 H 0.35966 0.36571 0.92275 0.0
C1818 C 0.37844 0.35485 0.92097 0.0
C1819 C 0.3925 0.35562 0.91869 0.0
C1820 C 0.37466 0.40494 0.91837 0.0
C1821 C 0.37651 0.37929 0.91832 0.0
C1822 C 0.36686 0.41672 0.9201 0.0
C1823 C 0.35279 0.41582 0.92238 0.0
C1824 C 0.3684 0.39211 0.91902 0.0
C1825 C 0.34686 0.40283 0.92249 0.0
C1826 C 0.37044 0.36659 0.92074 0.0
C1827 C 0.39813 0.36845 0.91589 0.0
N1828 N 0.35469 0.39152 0.92095 0.0
N1829 N 0.39015 0.37977 0.91589 0.0
H1830 H 0.60806 0.33475 0.92473 0.0
H1831 H 0.6399 0.40921 0.91477 0.0
H1832 H 0.58379 0.37108 0.92132 0.0
H1833 H 0.66366 0.37356 0.92393 0.0
H1834 H 0.61939 0.3951 0.91435 0.0
H1835 H 0.62856 0.34845 0.92159 0.0
C1836 C 0.60701 0.34559 0.92316 0.0
C1837 C 0.59415 0.35176 0.92334 0.0
C1838 C 0.6291 0.39034 0.91636 0.0
C1839 C 0.61768 0.36758 0.91982 0.0
C1840 C 0.64084 0.3984 0.91655 0.0
C1841 C 0.65355 0.39258 0.91943 0.0
C1842 C 0.63005 0.37634 0.91901 0.0
C1843 C 0.6541 0.3785 0.9217 0.0
C1844 C 0.61875 0.35343 0.92142 0.0
C1845 C 0.59348 0.36588 0.92129 0.0
N1846 N 0.64254 0.3709 0.92149 0.0
N1847 N 0.60506 0.3733 0.91968 0.0
H1848 H 0.60028 0.36933 0.09749 0.0
H1849 H 0.6743 0.40183 0.08603 0.0
H1850 H 0.63569 0.34586 0.08674 0.0
H1851 H 0.63784 0.42569 0.09066 0.0
H1852 H 0.66084 0.38114 0.08919 0.0
H1853 H 0.61435 0.38987 0.09788 0.0
C1854 C 0.61104 0.36846 0.09535 0.0
C1855 C 0.61678 0.35582 0.09203 0.0
C1856 C 0.65579 0.3909 0.08963 0.0
C1857 C 0.63299 0.37937 0.09242 0.0
C1858 C 0.6635 0.40275 0.08789 0.0
C1859 C 0.65721 0.41556 0.08804 0.0
C1860 C 0.64167 0.39182 0.09158 0.0
C1861 C 0.64314 0.41606 0.09043 0.0
C1862 C 0.61907 0.38021 0.09553 0.0
C1863 C 0.6308 0.35536 0.08931 0.0
N1864 N 0.63586 0.40439 0.09205 0.0
N1865 N 0.63839 0.36694 0.08952 0.0
H1866 H 0.6648 0.6369 0.08495 0.0
H1867 H 0.58356 0.63847 0.08958 0.0
H1868 H 0.64057 0.60183 0.09513 0.0
H1869 H 0.60809 0.67438 0.08416 0.0
H1870 H 0.60428 0.62507 0.09257 0.0
H1871 H 0.64428 0.65091 0.08546 0.0
C1872 C 0.65519 0.63215 0.08741 0.0
C1873 C 0.65444 0.61813 0.08998 0.0
C1874 C 0.60515 0.6359 0.09086 0.0
C1875 C 0.63078 0.63416 0.09045 0.0
C1876 C 0.5933 0.64358 0.08917 0.0
C1877 C 0.59404 0.6576 0.08659 0.0
C1878 C 0.61792 0.64222 0.08984 0.0
C1879 C 0.60699 0.66362 0.08614 0.0
C1880 C 0.64344 0.64017 0.08769 0.0
C1881 C 0.64166 0.61258 0.09309 0.0
N1882 N 0.61838 0.6559 0.08763 0.0
N1883 N 0.63035 0.62057 0.09314 0.0
H1884 H 0.37088 0.58259 0.09037 0.0
H1885 H 0.3727 0.66377 0.08519 0.0
H1886 H 0.3351 0.60715 0.08436 0.0
H1887 H 0.40767 0.63953 0.09564 0.0
H1888 H 0.35862 0.64329 0.08581 0.0
H1889 H 0.3843 0.6033 0.09338 0.0
C1890 C 0.3658 0.59233 0.08984 0.0
C1891 C 0.35181 0.5931 0.08708 0.0
C1892 C 0.36935 0.64245 0.08808 0.0
C1893 C 0.36721 0.61696 0.09035 0.0
C1894 C 0.37741 0.65416 0.08773 0.0
C1895 C 0.39142 0.6534 0.09033 0.0
C1896 C 0.37532 0.62979 0.09094 0.0
C1897 C 0.39693 0.64063 0.09356 0.0
C1898 C 0.37349 0.60418 0.09154 0.0
C1899 C 0.34583 0.60604 0.08649 0.0
N1900 N 0.3889 0.62935 0.09367 0.0
N1901 N 0.35357 0.61743 0.08799 0.0
H1902 H 0.40201 0.33317 0.08961 0.0
H1903 H 0.34378 0.37232 0.08391 0.0
H1904 H 0.42379 0.37099 0.0856 0.0
H1905 H 0.3686 0.40648 0.09563 0.0
H1906 H 0.36378 0.35788 0.08431 0.0
H1907 H 0.38099 0.34583 0.09267 0.0
C1908 C 0.40238 0.34417 0.08937 0.0
C1909 C 0.41471 0.35099 0.0872 0.0
C1910 C 0.36492 0.36842 0.08716 0.0
C1911 C 0.3904 0.36572 0.09016 0.0
C1912 C 0.35343 0.37675 0.08681 0.0
C1913 C 0.35445 0.39065 0.0898 0.0
C1914 C 0.37765 0.37397 0.09055 0.0
C1915 C 0.3673 0.39581 0.09333 0.0
C1916 C 0.39028 0.35144 0.09094 0.0
C1917 C 0.41453 0.36528 0.08718 0.0
N1918 N 0.37839 0.3875 0.0935 0.0
N1919 N 0.40257 0.37215 0.08854 0.0
H1920 H 0.92056 0.63693 0.58277 0.0
H1921 H 0.92343 0.63595 0.66407 0.0
H1922 H 0.92411 0.67305 0.60734 0.0
H1923 H 0.91417 0.60047 0.64007 0.0
H1924 H 0.92301 0.64974 0.64342 0.0
H1925 H 0.91743 0.62348 0.60349 0.0
C1926 C 0.92053 0.64207 0.5925 0.0
C1927 C 0.92263 0.65617 0.59328 0.0
C1928 C 0.92095 0.63896 0.64265 0.0
C1929 C 0.91921 0.64076 0.61712 0.0
C1930 C 0.92119 0.63106 0.65447 0.0
C1931 C 0.91886 0.617 0.65383 0.0
C1932 C 0.9185 0.63277 0.63001 0.0
C1933 C 0.91601 0.61127 0.64107 0.0
C1934 C 0.91877 0.63437 0.60435 0.0
C1935 C 0.92253 0.66223 0.60621 0.0
N1936 N 0.91603 0.61914 0.62967 0.0
N1937 N 0.92097 0.6545 0.61758 0.0
H1938 H 0.33423 0.92392 0.60735 0.0
H1939 H 0.40862 0.91407 0.63935 0.0
H1940 H 0.37063 0.92061 0.58317 0.0
H1941 H 0.37287 0.92312 0.66305 0.0
H1942 H 0.39456 0.91364 0.61881 0.0
H1943 H 0.34787 0.92077 0.62788 0.0
C1944 C 0.34507 0.92237 0.60633 0.0
C1945 C 0.35128 0.92258 0.59348 0.0
C1946 C 0.38978 0.91563 0.62851 0.0
C1947 C 0.36703 0.91905 0.61704 0.0
C1948 C 0.39779 0.91583 0.64027 0.0
C1949 C 0.39194 0.91868 0.65298 0.0
C1950 C 0.37576 0.91825 0.62943 0.0
C1951 C 0.37785 0.92092 0.6535 0.0
C1952 C 0.35288 0.92063 0.61808 0.0
C1953 C 0.3654 0.92055 0.59284 0.0
N1954 N 0.37028 0.9207 0.64192 0.0
N1955 N 0.37279 0.91894 0.60444 0.0
H1956 H 0.08571 0.37229 0.66379 0.0
H1957 H 0.09064 0.37023 0.58259 0.0
H1958 H 0.09561 0.40734 0.63942 0.0
H1959 H 0.08505 0.33452 0.60734 0.0
H1960 H 0.09357 0.38379 0.60323 0.0
H1961 H 0.0864 0.35818 0.64335 0.0
C1962 C 0.08814 0.37702 0.65416 0.0
C1963 C 0.09057 0.39106 0.65336 0.0
C1964 C 0.09183 0.37296 0.60416 0.0
C1965 C 0.09127 0.3749 0.62978 0.0
C1966 C 0.09019 0.36519 0.59236 0.0
C1967 C 0.08757 0.35119 0.59319 0.0
C1968 C 0.09074 0.36674 0.61697 0.0
C1969 C 0.08707 0.34526 0.60617 0.0
C1970 C 0.08853 0.36893 0.64246 0.0
C1971 C 0.09367 0.39658 0.64055 0.0
N1972 N 0.08852 0.35307 0.61752 0.0
N1973 N 0.09383 0.38852 0.62928 0.0
H1974 H 0.63784 0.08574 0.66364 0.0
H1975 H 0.63881 0.08964 0.58236 0.0
H1976 H 0.60239 0.09497 0.63961 0.0
H1977 H 0.67493 0.08504 0.60673 0.0
H1978 H 0.62548 0.09266 0.60314 0.0
H1979 H 0.6517 0.08641 0.64301 0.0
C1980 C 0.63297 0.08803 0.65404 0.0
C1981 C 0.61889 0.09027 0.65339 0.0
C1982 C 0.63634 0.09113 0.60395 0.0
C1983 C 0.63475 0.09093 0.6296 0.0
C1984 C 0.64398 0.08943 0.59207 0.0
C1985 C 0.65804 0.08706 0.59276 0.0
C1986 C 0.64274 0.09034 0.6167 0.0
C1987 C 0.66413 0.08686 0.60567 0.0
C1988 C 0.64091 0.0884 0.64224 0.0
C1989 C 0.61319 0.09318 0.64063 0.0
N1990 N 0.65645 0.08835 0.6171 0.0
N1991 N 0.6211 0.09332 0.62926 0.0
H1992 H 0.91849 0.36993 0.42571 0.0
H1993 H 0.92323 0.37182 0.34449 0.0
H1994 H 0.92445 0.33417 0.40108 0.0
H1995 H 0.91294 0.40676 0.36886 0.0
H1996 H 0.92272 0.35771 0.36495 0.0
H1997 H 0.91534 0.38335 0.40503 0.0
C1998 C 0.91898 0.36485 0.41596 0.0
C1999 C 0.92177 0.35088 0.41517 0.0
C2000 C 0.92046 0.36844 0.36583 0.0
C2001 C 0.91834 0.36628 0.39134 0.0
C2002 C 0.92074 0.37652 0.35412 0.0
C2003 C 0.91816 0.39053 0.35492 0.0
C2004 C 0.91767 0.37439 0.37851 0.0
C2005 C 0.915 0.39602 0.36772 0.0
C2006 C 0.91721 0.37254 0.40413 0.0
C2007 C 0.9223 0.3449 0.40221 0.0
N2008 N 0.91495 0.38797 0.379 0.0
N2009 N 0.92073 0.35264 0.39084 0.0
H2010 H 0.63772 0.92087 0.42651 0.0
H2011 H 0.63625 0.92365 0.34518 0.0
H2012 H 0.67368 0.92471 0.40173 0.0
H2013 H 0.60091 0.9146 0.36947 0.0
H2014 H 0.65018 0.92331 0.36575 0.0
H2015 H 0.62417 0.91773 0.40587 0.0
C2016 C 0.6428 0.9209 0.41674 0.0
C2017 C 0.65689 0.92308 0.41589 0.0
C2018 C 0.6394 0.92129 0.36659 0.0
C2019 C 0.64136 0.91965 0.39213 0.0
C2020 C 0.63142 0.92147 0.35483 0.0
C2021 C 0.61736 0.91917 0.35557 0.0
C2022 C 0.63329 0.91891 0.37929 0.0
C2023 C 0.6117 0.91642 0.36839 0.0
C2024 C 0.63504 0.91913 0.40494 0.0
C2025 C 0.66287 0.92306 0.40292 0.0
N2026 N 0.61965 0.91647 0.37973 0.0
N2027 N 0.65508 0.92149 0.39159 0.0
H2028 H 0.09046 0.63875 0.42674 0.0
H2029 H 0.08596 0.63721 0.34549 0.0
H2030 H 0.08499 0.67465 0.40222 0.0
H2031 H 0.09562 0.60203 0.36975 0.0
H2032 H 0.08659 0.65123 0.36602 0.0
H2033 H 0.0935 0.62536 0.40601 0.0
C2034 C 0.09006 0.64386 0.417 0.0
C2035 C 0.08744 0.65787 0.41626 0.0
C2036 C 0.08868 0.64046 0.36686 0.0
C2037 C 0.09074 0.6425 0.39238 0.0
C2038 C 0.08833 0.63243 0.35512 0.0
C2039 C 0.09071 0.61838 0.35587 0.0
C2040 C 0.09133 0.63442 0.37952 0.0
C2041 C 0.09372 0.6128 0.36865 0.0
C2042 C 0.09177 0.63618 0.40515 0.0
C2043 C 0.08701 0.66389 0.40332 0.0
N2044 N 0.09385 0.6208 0.37996 0.0
N2045 N 0.08852 0.65617 0.39192 0.0
H2046 H 0.37202 0.0859 0.34576 0.0
H2047 H 0.37099 0.08964 0.42704 0.0
H2048 H 0.40742 0.09528 0.36981 0.0
H2049 H 0.33487 0.08511 0.40264 0.0
H2050 H 0.38433 0.09271 0.40627 0.0
H2051 H 0.35815 0.08646 0.36638 0.0
C2052 C 0.37688 0.08819 0.35536 0.0
C2053 C 0.39094 0.09051 0.35602 0.0
C2054 C 0.37347 0.09118 0.40545 0.0
C2055 C 0.37508 0.09105 0.3798 0.0
C2056 C 0.36582 0.08945 0.41732 0.0
C2057 C 0.35176 0.08709 0.41662 0.0
C2058 C 0.36707 0.09042 0.3927 0.0
C2059 C 0.34567 0.08692 0.40371 0.0
C2060 C 0.36893 0.08851 0.36716 0.0
C2061 C 0.39663 0.09343 0.36879 0.0
N2062 N 0.35336 0.08844 0.39229 0.0
N2063 N 0.38871 0.09351 0.38016 0.0
H2064 H 0.60757 0.92322 0.67498 0.0
H2065 H 0.63947 0.91327 0.6005 0.0
H2066 H 0.58342 0.91931 0.63863 0.0
H2067 H 0.66323 0.92292 0.63603 0.0
H2068 H 0.61902 0.9126 0.61469 0.0
H2069 H 0.62814 0.92018 0.66132 0.0
C2070 C 0.60656 0.92154 0.66416 0.0
C2071 C 0.59371 0.92156 0.65797 0.0
C2072 C 0.62872 0.91478 0.6194 0.0
C2073 C 0.61731 0.91818 0.64219 0.0
C2074 C 0.64043 0.91512 0.6113 0.0
C2075 C 0.65312 0.91821 0.61705 0.0
C2076 C 0.62967 0.9175 0.6334 0.0
C2077 C 0.65368 0.92054 0.63113 0.0
C2078 C 0.61834 0.91987 0.65634 0.0
C2079 C 0.59309 0.91939 0.64386 0.0
N2080 N 0.64215 0.92018 0.63879 0.0
N2081 N 0.60469 0.91786 0.63646 0.0
H2082 H 0.6397 0.09622 0.40726 0.0
H2083 H 0.60707 0.08566 0.3332 0.0
H2084 H 0.66312 0.08592 0.37167 0.0
H2085 H 0.58328 0.08995 0.36977 0.0
H2086 H 0.62779 0.08864 0.34664 0.0
H2087 H 0.61914 0.09678 0.39326 0.0
C2088 C 0.64056 0.09421 0.39648 0.0
C2089 C 0.65319 0.09098 0.39067 0.0
C2090 C 0.61803 0.08905 0.35172 0.0
C2091 C 0.6296 0.09156 0.37452 0.0
C2092 C 0.60617 0.08741 0.34403 0.0
C2093 C 0.59337 0.08751 0.35034 0.0
C2094 C 0.61715 0.09085 0.36586 0.0
C2095 C 0.5929 0.08977 0.36444 0.0
C2096 C 0.62879 0.09449 0.38848 0.0
C2097 C 0.65362 0.08843 0.37662 0.0
N2098 N 0.60459 0.09128 0.37171 0.0
N2099 N 0.64202 0.08873 0.36906 0.0
H2100 H 0.92437 0.60726 0.3341 0.0
H2101 H 0.91354 0.63933 0.40839 0.0
H2102 H 0.91976 0.58319 0.37042 0.0
H2103 H 0.92384 0.66299 0.37297 0.0
H2104 H 0.91299 0.61887 0.39422 0.0
H2105 H 0.92132 0.62787 0.34769 0.0
C2106 C 0.92254 0.60628 0.3449 0.0
C2107 C 0.92236 0.59343 0.35111 0.0
C2108 C 0.91528 0.62855 0.38952 0.0
C2109 C 0.91896 0.61708 0.36681 0.0
C2110 C 0.91555 0.64026 0.39761 0.0
C2111 C 0.91879 0.65293 0.39189 0.0
C2112 C 0.91822 0.62947 0.37557 0.0
C2113 C 0.92134 0.65346 0.37785 0.0
C2114 C 0.92087 0.61808 0.35268 0.0
C2115 C 0.92001 0.59285 0.36518 0.0
N2116 N 0.92104 0.64193 0.3702 0.0
N2117 N 0.91846 0.60448 0.37255 0.0
H2118 H 0.42637 0.92022 0.37129 0.0
H2119 H 0.34505 0.92309 0.37277 0.0
H2120 H 0.40161 0.92393 0.33533 0.0
H2121 H 0.36934 0.91436 0.40817 0.0
H2122 H 0.36561 0.92261 0.35883 0.0
H2123 H 0.40572 0.91717 0.38486 0.0
C2124 C 0.41661 0.92024 0.36621 0.0
C2125 C 0.41575 0.92237 0.35212 0.0
C2126 C 0.36646 0.92069 0.36963 0.0
C2127 C 0.392 0.91903 0.36767 0.0
C2128 C 0.35469 0.92095 0.37761 0.0
C2129 C 0.35544 0.91879 0.39169 0.0
C2130 C 0.37915 0.91836 0.37575 0.0
C2131 C 0.36826 0.91608 0.39737 0.0
C2132 C 0.4048 0.91852 0.37398 0.0
C2133 C 0.40279 0.92232 0.34614 0.0
N2134 N 0.3796 0.91604 0.38941 0.0
N2135 N 0.39146 0.9208 0.35394 0.0
H2136 H 0.0885 0.42679 0.37105 0.0
H2137 H 0.08599 0.34545 0.37219 0.0
H2138 H 0.08513 0.40216 0.33495 0.0
H2139 H 0.09452 0.36968 0.4077 0.0
H2140 H 0.08644 0.36607 0.35833 0.0
H2141 H 0.09159 0.40611 0.38454 0.0
C2142 C 0.08856 0.41705 0.36592 0.0
C2143 C 0.08652 0.41625 0.35182 0.0
C2144 C 0.08832 0.36689 0.36913 0.0
C2145 C 0.08989 0.39244 0.36728 0.0
C2146 C 0.08807 0.3551 0.37707 0.0
C2147 C 0.09019 0.3558 0.39116 0.0
C2148 C 0.09058 0.37957 0.37531 0.0
C2149 C 0.09284 0.36862 0.39689 0.0
C2150 C 0.0903 0.40523 0.37365 0.0
C2151 C 0.08667 0.40331 0.34578 0.0
N2152 N 0.09285 0.37998 0.38897 0.0
N2153 N 0.0882 0.39195 0.35353 0.0
H2154 H 0.34591 0.08621 0.6377 0.0
H2155 H 0.42719 0.08981 0.63881 0.0
H2156 H 0.37003 0.09548 0.6023 0.0
H2157 H 0.40271 0.0856 0.67492 0.0
H2158 H 0.40645 0.09288 0.62542 0.0
H2159 H 0.36651 0.08683 0.65159 0.0
C2160 C 0.35552 0.0885 0.63285 0.0
C2161 C 0.35621 0.09077 0.61877 0.0
C2162 C 0.40561 0.09142 0.6363 0.0
C2163 C 0.37996 0.09136 0.63467 0.0
C2164 C 0.41747 0.08969 0.64396 0.0
C2165 C 0.41673 0.08742 0.65804 0.0
C2166 C 0.39285 0.09075 0.64269 0.0
C2167 C 0.40381 0.08734 0.66412 0.0
C2168 C 0.36731 0.08884 0.6408 0.0
C2169 C 0.36899 0.09368 0.61309 0.0
N2170 N 0.39241 0.08885 0.65641 0.0
N2171 N 0.38034 0.09378 0.62102 0.0
H2172 H 0.92406 0.34528 0.63626 0.0
H2173 H 0.9202 0.42653 0.6374 0.0
H2174 H 0.91451 0.36929 0.60087 0.0
H2175 H 0.92448 0.40199 0.67345 0.0
H2176 H 0.91722 0.40579 0.62396 0.0
H2177 H 0.92344 0.36589 0.65012 0.0
C2178 C 0.92171 0.35487 0.63141 0.0
C2179 C 0.91937 0.35553 0.61735 0.0
C2180 C 0.91868 0.40494 0.63483 0.0
C2181 C 0.91877 0.37929 0.6332 0.0
C2182 C 0.92036 0.41679 0.64252 0.0
C2183 C 0.92263 0.41603 0.65659 0.0
C2184 C 0.91937 0.39217 0.6412 0.0
C2185 C 0.92276 0.4031 0.66264 0.0
C2186 C 0.92136 0.36666 0.63934 0.0
C2187 C 0.91638 0.36827 0.61166 0.0
N2188 N 0.92128 0.39172 0.65492 0.0
N2189 N 0.91627 0.37964 0.61957 0.0
H2190 H 0.08901 0.58239 0.63754 0.0
H2191 H 0.08646 0.66374 0.63694 0.0
H2192 H 0.08524 0.6068 0.67374 0.0
H2193 H 0.09514 0.6398 0.60128 0.0
H2194 H 0.08681 0.64303 0.65064 0.0
H2195 H 0.09216 0.60316 0.62419 0.0
C2196 C 0.08899 0.5921 0.64271 0.0
C2197 C 0.08683 0.59281 0.65681 0.0
C2198 C 0.08875 0.64229 0.63984 0.0
C2199 C 0.09028 0.61672 0.64152 0.0
C2200 C 0.08856 0.65414 0.632 0.0
C2201 C 0.09075 0.65354 0.61791 0.0
C2202 C 0.09103 0.62965 0.63358 0.0
C2203 C 0.09341 0.64077 0.61209 0.0
C2204 C 0.09077 0.60398 0.63507 0.0
C2205 C 0.08688 0.60572 0.66292 0.0
N2206 N 0.09337 0.62934 0.61992 0.0
N2207 N 0.08846 0.61712 0.65525 0.0
H2208 H 0.09119 0.21767 0.39428 0.0
H2209 H 0.11524 0.2917 0.41931 0.0
H2210 H 0.11435 0.22464 0.43079 0.0
H2211 H 0.07991 0.28483 0.39437 0.0
H2212 H 0.11964 0.26704 0.41919 0.0
H2213 H 0.09156 0.24232 0.38981 0.0
C2214 C 0.09659 0.22434 0.40117 0.0
C2215 C 0.10266 0.21916 0.41296 0.0
C2216 C 0.11106 0.271 0.41356 0.0
C2217 C 0.10322 0.24719 0.40792 0.0
C2218 C 0.10862 0.28504 0.41356 0.0
C2219 C 0.09716 0.29025 0.40691 0.0
C2220 C 0.1021 0.26221 0.40666 0.0
C2221 C 0.0888 0.28118 0.39972 0.0
C2222 C 0.09674 0.23838 0.39868 0.0
C2223 C 0.10943 0.22825 0.42164 0.0
N2224 N 0.0914 0.26763 0.39982 0.0
N2225 N 0.1095 0.2418 0.41899 0.0
H2226 H 0.79147 0.09035 0.39334 0.0
H2227 H 0.71775 0.11573 0.41799 0.0
H2228 H 0.78481 0.11447 0.42929 0.0
H2229 H 0.72418 0.07994 0.39359 0.0
H2230 H 0.74245 0.1199 0.41772 0.0
H2231 H 0.76683 0.09096 0.38884 0.0
C2232 C 0.78487 0.09601 0.40009 0.0
C2233 C 0.79013 0.10229 0.41174 0.0
C2234 C 0.73839 0.11126 0.41224 0.0
C2235 C 0.7621 0.1031 0.40667 0.0
C2236 C 0.72431 0.10895 0.41233 0.0
C2237 C 0.71897 0.09744 0.40588 0.0
C2238 C 0.74707 0.10212 0.40546 0.0
C2239 C 0.72793 0.08888 0.39879 0.0
C2240 C 0.77083 0.09629 0.39758 0.0
C2241 C 0.78113 0.10939 0.42025 0.0
N2242 N 0.74151 0.09135 0.3988 0.0
N2243 N 0.76758 0.10958 0.41758 0.0
H2244 H 0.89417 0.78494 0.43029 0.0
H2245 H 0.93045 0.72348 0.39467 0.0
H2246 H 0.91875 0.79047 0.39447 0.0
H2247 H 0.89451 0.71785 0.41905 0.0
H2248 H 0.92602 0.74788 0.39397 0.0
H2249 H 0.89365 0.7605 0.42602 0.0
C2250 C 0.8993 0.781 0.42138 0.0
C2251 C 0.90654 0.78972 0.41272 0.0
C2252 C 0.91895 0.74133 0.39929 0.0
C2253 C 0.90623 0.76165 0.40794 0.0
C2254 C 0.92149 0.72739 0.39973 0.0
C2255 C 0.91285 0.71865 0.40697 0.0
C2256 C 0.90786 0.74668 0.40644 0.0
C2257 C 0.90138 0.72424 0.41331 0.0
C2258 C 0.89896 0.76704 0.41894 0.0
C2259 C 0.91299 0.78409 0.40134 0.0
N2260 N 0.89935 0.73795 0.41311 0.0
N2261 N 0.9129 0.77036 0.39941 0.0
H2262 H 0.22366 0.89447 0.43109 0.0
H2263 H 0.28512 0.92925 0.39404 0.0
H2264 H 0.21812 0.91766 0.39438 0.0
H2265 H 0.2907 0.89428 0.41977 0.0
H2266 H 0.26072 0.92478 0.39347 0.0
H2267 H 0.24808 0.89372 0.42678 0.0
C2268 C 0.2276 0.89925 0.42199 0.0
C2269 C 0.21887 0.90619 0.41309 0.0
C2270 C 0.26726 0.91791 0.39905 0.0
C2271 C 0.24692 0.90559 0.40823 0.0
C2272 C 0.28119 0.92047 0.39941 0.0
C2273 C 0.28992 0.91212 0.407 0.0
C2274 C 0.2619 0.90712 0.40663 0.0
C2275 C 0.28432 0.90091 0.41375 0.0
C2276 C 0.24154 0.89878 0.41952 0.0
C2277 C 0.22449 0.91217 0.40146 0.0
N2278 N 0.27061 0.89887 0.41362 0.0
N2279 N 0.23822 0.91195 0.39949 0.0
H2280 H 0.11549 0.71816 0.59037 0.0
H2281 H 0.09041 0.79173 0.61571 0.0
H2282 H 0.08006 0.72447 0.61534 0.0
H2283 H 0.11393 0.78527 0.57932 0.0
H2284 H 0.09114 0.76708 0.6201 0.0
H2285 H 0.11964 0.74287 0.59067 0.0
C2286 C 0.10879 0.7247 0.59616 0.0
C2287 C 0.09739 0.71932 0.60277 0.0
C2288 C 0.09632 0.77113 0.61128 0.0
C2289 C 0.10204 0.74742 0.60322 0.0
C2290 C 0.09597 0.78518 0.60883 0.0
C2291 C 0.10204 0.79049 0.5971 0.0
C2292 C 0.10298 0.76246 0.60204 0.0
C2293 C 0.10901 0.78154 0.58843 0.0
C2294 C 0.11109 0.73877 0.59627 0.0
C2295 C 0.08892 0.72825 0.61002 0.0
N2296 N 0.10926 0.76799 0.59104 0.0
N2297 N 0.09138 0.74183 0.61002 0.0
H2298 H 0.22445 0.11454 0.57878 0.0
H2299 H 0.28565 0.07954 0.61604 0.0
H2300 H 0.21856 0.09093 0.61518 0.0
H2301 H 0.29137 0.11486 0.59082 0.0
H2302 H 0.26122 0.08385 0.61635 0.0
H2303 H 0.24882 0.11524 0.58329 0.0
C2304 C 0.2283 0.10965 0.58786 0.0
C2305 C 0.21948 0.10262 0.59661 0.0
C2306 C 0.26779 0.09082 0.61095 0.0
C2307 C 0.2475 0.10316 0.6017 0.0
C2308 C 0.28175 0.08836 0.61073 0.0
C2309 C 0.29053 0.09686 0.60337 0.0
C2310 C 0.26247 0.10168 0.60344 0.0
C2311 C 0.28496 0.10812 0.59668 0.0
C2312 C 0.24222 0.11009 0.59044 0.0
C2313 C 0.225 0.0965 0.60822 0.0
N2314 N 0.27123 0.11006 0.59666 0.0
N2315 N 0.23871 0.0967 0.6103 0.0
H2316 H 0.93207 0.28502 0.61364 0.0
H2317 H 0.89319 0.2236 0.58084 0.0
H2318 H 0.89471 0.29072 0.59153 0.0
H2319 H 0.92028 0.21816 0.61478 0.0
H2320 H 0.89293 0.24804 0.58512 0.0
H2321 H 0.92753 0.26068 0.61479 0.0
C2322 C 0.92279 0.28114 0.60916 0.0
C2323 C 0.91377 0.28989 0.60241 0.0
C2324 C 0.89874 0.24153 0.59181 0.0
C2325 C 0.90862 0.2619 0.6035 0.0
C2326 C 0.89891 0.22757 0.58937 0.0
C2327 C 0.90678 0.21888 0.59747 0.0
C2328 C 0.90681 0.24694 0.60223 0.0
C2329 C 0.91401 0.22452 0.60836 0.0
C2330 C 0.92019 0.26723 0.60988 0.0
C2331 C 0.90189 0.28433 0.59685 0.0
N2332 N 0.91406 0.23825 0.61027 0.0
N2333 N 0.89978 0.27063 0.59731 0.0
H2334 H 0.79112 0.91846 0.61521 0.0
H2335 H 0.71752 0.89353 0.58985 0.0
H2336 H 0.7847 0.89446 0.57914 0.0
H2337 H 0.72398 0.92939 0.61417 0.0
H2338 H 0.74219 0.88919 0.59039 0.0
H2339 H 0.76644 0.91796 0.61949 0.0
C2340 C 0.78456 0.91284 0.6084 0.0
C2341 C 0.7899 0.90658 0.59678 0.0
C2342 C 0.73813 0.89788 0.59579 0.0
C2343 C 0.76184 0.90589 0.60157 0.0
C2344 C 0.72408 0.90029 0.59554 0.0
C2345 C 0.71876 0.91187 0.60189 0.0
C2346 C 0.74681 0.90698 0.60263 0.0
C2347 C 0.72771 0.9204 0.60903 0.0
C2348 C 0.77051 0.91262 0.61077 0.0
C2349 C 0.78095 0.89953 0.58816 0.0
N2350 N 0.74127 0.91782 0.60918 0.0
N2351 N 0.76738 0.89941 0.5907 0.0
H2352 H 0.41842 0.11526 0.29157 0.0
H2353 H 0.39355 0.08989 0.21793 0.0
H2354 H 0.39408 0.07941 0.28518 0.0
H2355 H 0.42956 0.11395 0.22446 0.0
H2356 H 0.38912 0.09051 0.24259 0.0
H2357 H 0.41806 0.11944 0.26687 0.0
C2358 C 0.41276 0.10847 0.28501 0.0
C2359 C 0.40635 0.09694 0.29036 0.0
C2360 C 0.39787 0.09583 0.23855 0.0
C2361 C 0.40583 0.10163 0.26228 0.0
C2362 C 0.40033 0.09554 0.22451 0.0
C2363 C 0.41197 0.1018 0.21921 0.0
C2364 C 0.407 0.10262 0.24725 0.0
C2365 C 0.42052 0.10889 0.22818 0.0
C2366 C 0.41262 0.11079 0.27094 0.0
C2367 C 0.39925 0.08837 0.28142 0.0
N2368 N 0.4179 0.10908 0.24173 0.0
N2369 N 0.39921 0.09085 0.26784 0.0
H2370 H 0.91847 0.39429 0.21702 0.0
H2371 H 0.89308 0.41833 0.29092 0.0
H2372 H 0.8936 0.42968 0.22381 0.0
H2373 H 0.92949 0.39495 0.28415 0.0
H2374 H 0.88874 0.41798 0.26625 0.0
H2375 H 0.91815 0.38981 0.24166 0.0
C2376 C 0.9127 0.40091 0.22365 0.0
C2377 C 0.90613 0.4124 0.21843 0.0
C2378 C 0.89756 0.41275 0.27024 0.0
C2379 C 0.90565 0.40738 0.24645 0.0
C2380 C 0.89997 0.41289 0.28429 0.0
C2381 C 0.9117 0.40675 0.28953 0.0
C2382 C 0.90681 0.40622 0.26147 0.0
C2383 C 0.92038 0.39992 0.28048 0.0
C2384 C 0.91258 0.39843 0.23769 0.0
C2385 C 0.8989 0.42076 0.22746 0.0
N2386 N 0.9178 0.39987 0.26693 0.0
N2387 N 0.89888 0.41812 0.24101 0.0
H2388 H 0.61444 0.93009 0.28509 0.0
H2389 H 0.57874 0.89365 0.22381 0.0
H2390 H 0.59 0.89422 0.29088 0.0
H2391 H 0.61464 0.91807 0.21816 0.0
H2392 H 0.58302 0.8932 0.24824 0.0
H2393 H 0.61516 0.92553 0.26071 0.0
C2394 C 0.60938 0.92111 0.28122 0.0
C2395 C 0.60211 0.91253 0.29 0.0
C2396 C 0.59012 0.89846 0.24168 0.0
C2397 C 0.60266 0.90739 0.26199 0.0
C2398 C 0.58767 0.89876 0.22772 0.0
C2399 C 0.59634 0.90594 0.21897 0.0
C2400 C 0.60115 0.90571 0.24703 0.0
C2401 C 0.60775 0.91237 0.22456 0.0
C2402 C 0.60983 0.9185 0.2673 0.0
C2403 C 0.59576 0.90105 0.28446 0.0
N2404 N 0.6097 0.91231 0.23829 0.0
N2405 N 0.59597 0.89894 0.27076 0.0
H2406 H 0.09183 0.6156 0.21803 0.0
H2407 H 0.11586 0.59021 0.29191 0.0
H2408 H 0.11539 0.5793 0.2247 0.0
H2409 H 0.0803 0.61482 0.28509 0.0
H2410 H 0.12039 0.59057 0.26726 0.0
H2411 H 0.09212 0.61987 0.24271 0.0
C2412 C 0.09731 0.60872 0.22464 0.0
C2413 C 0.10352 0.59704 0.21937 0.0
C2414 C 0.11173 0.59607 0.27123 0.0
C2415 C 0.10396 0.60185 0.24744 0.0
C2416 C 0.10921 0.59593 0.28527 0.0
C2417 C 0.09766 0.60241 0.29048 0.0
C2418 C 0.10275 0.60295 0.26246 0.0
C2419 C 0.08926 0.60958 0.28144 0.0
C2420 C 0.09741 0.6111 0.2387 0.0
C2421 C 0.11038 0.58837 0.22839 0.0
N2422 N 0.09194 0.60963 0.26789 0.0
N2423 N 0.11039 0.59091 0.24196 0.0
H2424 H 0.39385 0.91879 0.79108 0.0
H2425 H 0.4192 0.89385 0.71745 0.0
H2426 H 0.42996 0.8949 0.78455 0.0
H2427 H 0.39437 0.92934 0.72388 0.0
H2428 H 0.41875 0.88955 0.74212 0.0
H2429 H 0.38946 0.91817 0.76641 0.0
C2430 C 0.40066 0.91317 0.7845 0.0
C2431 C 0.41232 0.90697 0.7898 0.0
C2432 C 0.41322 0.89814 0.73806 0.0
C2433 C 0.40739 0.90615 0.76176 0.0
C2434 C 0.41341 0.90053 0.72401 0.0
C2435 C 0.40689 0.912 0.71868 0.0
C2436 C 0.40627 0.90717 0.74673 0.0
C2437 C 0.39963 0.92044 0.72762 0.0
C2438 C 0.39822 0.91288 0.77046 0.0
C2439 C 0.42091 0.89992 0.78083 0.0
N2440 N 0.39955 0.91789 0.74119 0.0
N2441 N 0.41831 0.89973 0.76728 0.0
H2442 H 0.09006 0.39363 0.79117 0.0
H2443 H 0.11555 0.41848 0.71758 0.0
H2444 H 0.1145 0.4294 0.78472 0.0
H2445 H 0.07937 0.39463 0.72399 0.0
H2446 H 0.11982 0.41794 0.74226 0.0
H2447 H 0.0906 0.38927 0.7665 0.0
C2448 C 0.09579 0.40036 0.78461 0.0
C2449 C 0.10217 0.41192 0.78993 0.0
C2450 C 0.11107 0.41264 0.73819 0.0
C2451 C 0.1029 0.40703 0.76189 0.0
C2452 C 0.1087 0.41289 0.72413 0.0
C2453 C 0.09706 0.40668 0.7188 0.0
C2454 C 0.10185 0.40594 0.74686 0.0
C2455 C 0.08841 0.39966 0.72774 0.0
C2456 C 0.09603 0.39794 0.77056 0.0
C2457 C 0.10935 0.42042 0.78098 0.0
N2458 N 0.09095 0.39952 0.7413 0.0
N2459 N 0.10949 0.41784 0.76742 0.0
H2460 H 0.61581 0.0791 0.72414 0.0
H2461 H 0.57857 0.11518 0.78481 0.0
H2462 H 0.59095 0.1146 0.71795 0.0
H2463 H 0.61451 0.09099 0.79109 0.0
H2464 H 0.58328 0.11563 0.76046 0.0
H2465 H 0.616 0.08364 0.74853 0.0
C2466 C 0.61055 0.088 0.72793 0.0
C2467 C 0.60332 0.09648 0.71903 0.0
C2468 C 0.59028 0.11041 0.76714 0.0
C2469 C 0.60326 0.10158 0.74705 0.0
C2470 C 0.58759 0.11012 0.78105 0.0
C2471 C 0.59615 0.103 0.78996 0.0
C2472 C 0.60146 0.10324 0.76198 0.0
C2473 C 0.60769 0.09664 0.78457 0.0
C2474 C 0.61069 0.0906 0.74186 0.0
C2475 C 0.5967 0.10786 0.72446 0.0
N2476 N 0.60988 0.0967 0.77087 0.0
N2477 N 0.59662 0.10995 0.73817 0.0
H2478 H 0.93129 0.61392 0.72436 0.0
H2479 H 0.89305 0.5811 0.7862 0.0
H2480 H 0.89411 0.59142 0.71896 0.0
H2481 H 0.91967 0.61549 0.79129 0.0
H2482 H 0.89269 0.58515 0.76172 0.0
H2483 H 0.92686 0.61515 0.74873 0.0
C2484 C 0.92207 0.60938 0.72832 0.0
C2485 C 0.91307 0.6025 0.71964 0.0
C2486 C 0.89842 0.59199 0.76817 0.0
C2487 C 0.90806 0.60367 0.74766 0.0
C2488 C 0.89864 0.58968 0.78215 0.0
C2489 C 0.90641 0.59798 0.79076 0.0
C2490 C 0.90631 0.60248 0.76265 0.0
C2491 C 0.91348 0.60892 0.785 0.0
C2492 C 0.91953 0.61014 0.74224 0.0
C2493 C 0.90128 0.59685 0.72529 0.0
N2494 N 0.91347 0.6107 0.77125 0.0
N2495 N 0.89923 0.59735 0.739 0.0
H2496 H 0.22287 0.42848 0.11558 0.0
H2497 H 0.2844 0.39493 0.07758 0.0
H2498 H 0.21745 0.39419 0.0889 0.0
H2499 H 0.28994 0.41742 0.11474 0.0
H2500 H 0.26001 0.39391 0.08197 0.0
H2501 H 0.24728 0.42408 0.11609 0.0
C2502 C 0.22683 0.41985 0.11 0.0
C2503 C 0.21815 0.41169 0.10216 0.0
C2504 C 0.26654 0.39887 0.08931 0.0
C2505 C 0.24619 0.40679 0.10244 0.0
C2506 C 0.28047 0.3995 0.08679 0.0
C2507 C 0.28919 0.40633 0.0958 0.0
C2508 C 0.26116 0.40541 0.10076 0.0
C2509 C 0.28358 0.41203 0.10758 0.0
C2510 C 0.24077 0.41734 0.11032 0.0
C2511 C 0.22379 0.40067 0.09513 0.0
N2512 N 0.26986 0.41166 0.1096 0.0
N2513 N 0.23751 0.39869 0.09523 0.0
H2514 H 0.2175 0.61507 0.91882 0.0
H2515 H 0.29106 0.58965 0.8938 0.0
H2516 H 0.22388 0.57917 0.89455 0.0
H2517 H 0.28463 0.61384 0.92974 0.0
H2518 H 0.26641 0.59033 0.8894 0.0
H2519 H 0.2422 0.61932 0.91834 0.0
C2520 C 0.22405 0.60828 0.91315 0.0
C2521 C 0.21871 0.59671 0.9068 0.0
C2522 C 0.27047 0.59567 0.89812 0.0
C2523 C 0.24677 0.60148 0.90613 0.0
C2524 C 0.28451 0.59535 0.90056 0.0
C2525 C 0.28983 0.60162 0.91218 0.0
C2526 C 0.2618 0.6025 0.90724 0.0
C2527 C 0.2809 0.60877 0.92072 0.0
C2528 C 0.23812 0.61064 0.91293 0.0
C2529 C 0.22764 0.58815 0.89968 0.0
N2530 N 0.26734 0.60898 0.91812 0.0
N2531 N 0.24121 0.59067 0.89958 0.0
H2532 H 0.39329 0.21799 0.91888 0.0
H2533 H 0.41972 0.29112 0.89365 0.0
H2534 H 0.42959 0.22379 0.89506 0.0
H2535 H 0.39538 0.28515 0.92958 0.0
H2536 H 0.41884 0.26644 0.88942 0.0
H2537 H 0.38937 0.24273 0.91823 0.0
C2538 C 0.40024 0.22443 0.91327 0.0
C2539 C 0.41181 0.2189 0.9071 0.0
C2540 C 0.41351 0.27061 0.89809 0.0
C2541 C 0.40741 0.24702 0.90623 0.0
C2542 C 0.41395 0.28466 0.90045 0.0
C2543 C 0.40769 0.29012 0.91201 0.0
C2544 C 0.40656 0.26207 0.90725 0.0
C2545 C 0.40044 0.28131 0.92059 0.0
C2546 C 0.39806 0.23851 0.91296 0.0
C2547 C 0.42059 0.22769 0.90005 0.0
N2548 N 0.4001 0.26774 0.91808 0.0
N2549 N 0.41824 0.24129 0.89984 0.0
H2550 H 0.79159 0.39478 0.91881 0.0
H2551 H 0.71773 0.41951 0.89412 0.0
H2552 H 0.78486 0.43037 0.89422 0.0
H2553 H 0.72456 0.39559 0.93016 0.0
H2554 H 0.74235 0.41899 0.88955 0.0
H2555 H 0.76693 0.39037 0.91854 0.0
C2556 C 0.78497 0.40146 0.91311 0.0
C2557 C 0.79021 0.41299 0.90662 0.0
C2558 C 0.73839 0.41367 0.89833 0.0
C2559 C 0.76217 0.40805 0.90619 0.0
C2560 C 0.72436 0.41392 0.90088 0.0
C2561 C 0.71916 0.40768 0.91258 0.0
C2562 C 0.74716 0.40696 0.90743 0.0
C2563 C 0.7282 0.40064 0.92109 0.0
C2564 C 0.77092 0.39901 0.91302 0.0
C2565 C 0.78118 0.42143 0.89947 0.0
N2566 N 0.74174 0.40051 0.91839 0.0
N2567 N 0.76763 0.41883 0.89948 0.0
H2568 H 0.61523 0.79154 0.91782 0.0
H2569 H 0.58962 0.71794 0.8931 0.0
H2570 H 0.57905 0.78517 0.894 0.0
H2571 H 0.61396 0.72442 0.92892 0.0
H2572 H 0.59019 0.74261 0.88873 0.0
H2573 H 0.6194 0.76684 0.91738 0.0
C2574 C 0.60836 0.78499 0.91226 0.0
C2575 C 0.59674 0.79035 0.90602 0.0
C2576 C 0.59559 0.73856 0.89742 0.0
C2577 C 0.60143 0.76227 0.90539 0.0
C2578 C 0.59532 0.72451 0.89985 0.0
C2579 C 0.60167 0.7192 0.91142 0.0
C2580 C 0.60244 0.74723 0.90651 0.0
C2581 C 0.60883 0.72815 0.91994 0.0
C2582 C 0.61068 0.77092 0.91207 0.0
C2583 C 0.58807 0.78141 0.89904 0.0
N2584 N 0.60899 0.7417 0.91735 0.0
N2585 N 0.59055 0.76783 0.89894 0.0
H2586 H 0.71849 0.59124 0.11561 0.0
H2587 H 0.79223 0.61577 0.09015 0.0
H2588 H 0.72525 0.61386 0.07872 0.0
H2589 H 0.78583 0.58104 0.11604 0.0
H2590 H 0.76752 0.61987 0.0902 0.0
H2591 H 0.74312 0.59207 0.12016 0.0
C2592 C 0.72511 0.59661 0.10864 0.0
C2593 C 0.71988 0.60239 0.09674 0.0
C2594 C 0.77159 0.6115 0.09606 0.0
C2595 C 0.74788 0.60348 0.10186 0.0
C2596 C 0.78567 0.60924 0.0961 0.0
C2597 C 0.79102 0.59802 0.10304 0.0
C2598 C 0.76291 0.60262 0.10319 0.0
C2599 C 0.78207 0.58975 0.11048 0.0
C2600 C 0.73913 0.59702 0.11118 0.0
C2601 C 0.7289 0.60915 0.08797 0.0
N2602 N 0.76848 0.59217 0.11032 0.0
N2603 N 0.74243 0.60948 0.09067 0.0
H2604 H 0.41861 0.71771 0.11528 0.0
H2605 H 0.39388 0.79106 0.08905 0.0
H2606 H 0.39542 0.72389 0.07865 0.0
H2607 H 0.42909 0.78495 0.11434 0.0
H2608 H 0.38965 0.76637 0.0896 0.0
H2609 H 0.41786 0.74241 0.11947 0.0
C2610 C 0.41313 0.72422 0.10831 0.0
C2611 C 0.40717 0.71882 0.09656 0.0
C2612 C 0.39816 0.77051 0.09521 0.0
C2613 C 0.40618 0.74688 0.10128 0.0
C2614 C 0.4005 0.78457 0.09496 0.0
C2615 C 0.41188 0.78999 0.10158 0.0
C2616 C 0.40714 0.76192 0.10232 0.0
C2617 C 0.42026 0.78113 0.109 0.0
C2618 C 0.41276 0.73828 0.11064 0.0
C2619 C 0.40027 0.72769 0.08777 0.0
N2620 N 0.41776 0.76756 0.10914 0.0
N2621 N 0.4 0.74126 0.09027 0.0
H2622 H 0.57835 0.22339 0.11535 0.0
H2623 H 0.61414 0.28537 0.08012 0.0
H2624 H 0.61449 0.21823 0.09117 0.0
H2625 H 0.58954 0.29052 0.11599 0.0
H2626 H 0.61484 0.26091 0.08427 0.0
H2627 H 0.58254 0.24784 0.11616 0.0
C2628 C 0.58731 0.22741 0.11037 0.0
C2629 C 0.59609 0.21878 0.10315 0.0
C2630 C 0.60948 0.26737 0.09138 0.0
C2631 C 0.60078 0.24687 0.1038 0.0
C2632 C 0.60904 0.28134 0.08902 0.0
C2633 C 0.60174 0.28997 0.09772 0.0
C2634 C 0.60227 0.26187 0.10237 0.0
C2635 C 0.59534 0.28423 0.10908 0.0
C2636 C 0.5897 0.24138 0.11087 0.0
C2637 C 0.60752 0.22452 0.0969 0.0
N2638 N 0.59554 0.27049 0.11094 0.0
N2639 N 0.60941 0.23826 0.09715 0.0
H2640 H 0.93483 0.79169 0.5559 0.0
H2641 H 0.95283 0.71621 0.57453 0.0
H2642 H 0.97468 0.78269 0.57166 0.0
H2643 H 0.93821 0.72515 0.53423 0.0
H2644 H 0.95589 0.74071 0.57856 0.0
H2645 H 0.93084 0.76719 0.55273 0.0
C2646 C 0.94265 0.78454 0.55884 0.0
C2647 C 0.95511 0.78917 0.56402 0.0
C2648 C 0.95193 0.73725 0.56889 0.0
C2649 C 0.95048 0.76131 0.56072 0.0
C2650 C 0.9501 0.72334 0.56661 0.0
C2651 C 0.94528 0.7187 0.55402 0.0
C2652 C 0.94847 0.74656 0.55868 0.0
C2653 C 0.94201 0.72835 0.54404 0.0
C2654 C 0.9404 0.77064 0.55696 0.0
C2655 C 0.96497 0.7795 0.56758 0.0
N2656 N 0.94353 0.74186 0.54663 0.0
N2657 N 0.9624 0.76599 0.566 0.0
H2658 H 0.22513 0.97593 0.57181 0.0
H2659 H 0.2833 0.93776 0.53376 0.0
H2660 H 0.21699 0.93597 0.55583 0.0
H2661 H 0.29145 0.95388 0.57366 0.0
H2662 H 0.25877 0.94048 0.53801 0.0
H2663 H 0.24967 0.97168 0.56911 0.0
C2664 C 0.22853 0.96628 0.56775 0.0
C2665 C 0.21909 0.95625 0.56409 0.0
C2666 C 0.26597 0.94335 0.54582 0.0
C2667 C 0.24691 0.95154 0.56061 0.0
C2668 C 0.2799 0.94185 0.5434 0.0
C2669 C 0.28935 0.94555 0.55341 0.0
C2670 C 0.26153 0.94905 0.55812 0.0
C2671 C 0.28446 0.95081 0.56574 0.0
C2672 C 0.24246 0.96386 0.56626 0.0
C2673 C 0.22398 0.94391 0.55887 0.0
N2674 N 0.27088 0.95262 0.56768 0.0
N2675 N 0.23756 0.94197 0.55707 0.0
H2676 H 0.07007 0.22009 0.57634 0.0
H2677 H 0.04835 0.28699 0.53551 0.0
H2678 H 0.03622 0.22209 0.54852 0.0
H2679 H 0.07528 0.2885 0.5701 0.0
H2680 H 0.04542 0.26271 0.53912 0.0
H2681 H 0.07351 0.24463 0.57339 0.0
C2682 C 0.06333 0.22565 0.56965 0.0
C2683 C 0.05282 0.21893 0.56267 0.0
C2684 C 0.05197 0.26833 0.54594 0.0
C2685 C 0.05682 0.24702 0.55916 0.0
C2686 C 0.05371 0.28224 0.54385 0.0
C2687 C 0.06207 0.28991 0.55252 0.0
C2688 C 0.0587 0.26186 0.55672 0.0
C2689 C 0.0687 0.28305 0.56317 0.0
C2690 C 0.06531 0.23967 0.56799 0.0
C2691 C 0.04444 0.22674 0.55415 0.0
N2692 N 0.0669 0.26942 0.56495 0.0
N2693 N 0.04666 0.24029 0.5526 0.0
H2694 H 0.78738 0.03439 0.54851 0.0
H2695 H 0.72047 0.07561 0.56948 0.0
H2696 H 0.78875 0.06943 0.57488 0.0
H2697 H 0.72248 0.04735 0.53598 0.0
H2698 H 0.74495 0.07257 0.57308 0.0
H2699 H 0.76307 0.03786 0.54555 0.0
C2700 C 0.78259 0.04279 0.55375 0.0
C2701 C 0.79023 0.05164 0.56195 0.0
C2702 C 0.74001 0.06708 0.56493 0.0
C2703 C 0.76217 0.05569 0.55854 0.0
C2704 C 0.72602 0.0688 0.56286 0.0
C2705 C 0.71932 0.06174 0.55239 0.0
C2706 C 0.74735 0.05812 0.55658 0.0
C2707 C 0.72712 0.05306 0.54415 0.0
C2708 C 0.76866 0.0448 0.55199 0.0
C2709 C 0.78333 0.06236 0.56843 0.0
N2710 N 0.74064 0.05146 0.54647 0.0
N2711 N 0.7697 0.06407 0.56661 0.0
H2712 H 0.93939 0.21996 0.43328 0.0
H2713 H 0.96105 0.28728 0.47348 0.0
H2714 H 0.97307 0.22222 0.46129 0.0
H2715 H 0.93425 0.28841 0.43878 0.0
H2716 H 0.96394 0.26296 0.47017 0.0
H2717 H 0.93598 0.24453 0.43596 0.0
C2718 C 0.94609 0.22558 0.43996 0.0
C2719 C 0.95655 0.21892 0.44707 0.0
C2720 C 0.95742 0.2685 0.46326 0.0
C2721 C 0.95259 0.24705 0.45026 0.0
C2722 C 0.9557 0.28243 0.46518 0.0
C2723 C 0.94739 0.29001 0.45639 0.0
C2724 C 0.95072 0.26191 0.45252 0.0
C2725 C 0.94079 0.28304 0.44579 0.0
C2726 C 0.94413 0.23962 0.44146 0.0
C2727 C 0.9649 0.22682 0.45556 0.0
N2728 N 0.94257 0.26938 0.44417 0.0
N2729 N 0.96269 0.24037 0.45695 0.0
H2730 H 0.71702 0.95344 0.43461 0.0
H2731 H 0.79255 0.9352 0.45301 0.0
H2732 H 0.72604 0.93838 0.47473 0.0
H2733 H 0.78356 0.97516 0.4375 0.0
H2734 H 0.76805 0.9312 0.45616 0.0
H2735 H 0.74152 0.95653 0.43055 0.0
C2736 C 0.72418 0.95063 0.44248 0.0
C2737 C 0.71955 0.94567 0.45503 0.0
C2738 C 0.77149 0.94079 0.45198 0.0
C2739 C 0.74741 0.94889 0.45034 0.0
C2740 C 0.7854 0.94305 0.45011 0.0
C2741 C 0.79003 0.95554 0.44502 0.0
C2742 C 0.76217 0.9509 0.44829 0.0
C2743 C 0.78037 0.96542 0.44152 0.0
C2744 C 0.73808 0.95246 0.44019 0.0
C2745 C 0.72922 0.94228 0.46495 0.0
N2746 N 0.76686 0.96285 0.44308 0.0
N2747 N 0.74273 0.94382 0.46234 0.0
H2748 H 0.06984 0.78856 0.43335 0.0
H2749 H 0.04793 0.72169 0.47413 0.0
H2750 H 0.03581 0.78661 0.46098 0.0
H2751 H 0.07508 0.72027 0.43968 0.0
H2752 H 0.045 0.74598 0.47053 0.0
H2753 H 0.07329 0.76406 0.4364 0.0
C2754 C 0.06307 0.78302 0.44002 0.0
C2755 C 0.0525 0.78974 0.44691 0.0
C2756 C 0.05161 0.74038 0.46374 0.0
C2757 C 0.05651 0.76169 0.45053 0.0
C2758 C 0.05334 0.72646 0.46582 0.0
C2759 C 0.06176 0.71882 0.45719 0.0
C2760 C 0.0584 0.74686 0.453 0.0
C2761 C 0.06846 0.7257 0.44659 0.0
C2762 C 0.06505 0.76902 0.44174 0.0
C2763 C 0.04407 0.78195 0.45541 0.0
N2764 N 0.06665 0.73932 0.44481 0.0
N2765 N 0.0463 0.76842 0.45702 0.0
H2766 H 0.22221 0.03506 0.46143 0.0
H2767 H 0.28924 0.07586 0.43997 0.0
H2768 H 0.22088 0.06981 0.4347 0.0
H2769 H 0.28715 0.0479 0.47371 0.0
H2770 H 0.26472 0.07293 0.43647 0.0
H2771 H 0.24651 0.03856 0.46438 0.0
C2772 C 0.22701 0.04342 0.45611 0.0
C2773 C 0.21938 0.05217 0.4478 0.0
C2774 C 0.26965 0.06749 0.44466 0.0
C2775 C 0.24744 0.05624 0.4512 0.0
C2776 C 0.28366 0.06914 0.44667 0.0
C2777 C 0.29035 0.06212 0.45716 0.0
C2778 C 0.26228 0.05864 0.45311 0.0
C2779 C 0.28252 0.05357 0.4655 0.0
C2780 C 0.24093 0.04544 0.45786 0.0
C2781 C 0.22629 0.06282 0.44123 0.0
N2782 N 0.26898 0.05203 0.46325 0.0
N2783 N 0.23993 0.06455 0.44305 0.0
H2784 H 0.5702 0.93325 0.72039 0.0
H2785 H 0.54854 0.97459 0.78702 0.0
H2786 H 0.53663 0.96143 0.72211 0.0
H2787 H 0.57503 0.93967 0.78877 0.0
H2788 H 0.54578 0.97098 0.76272 0.0
H2789 H 0.57357 0.93631 0.74492 0.0
C2790 C 0.56351 0.94005 0.72589 0.0
C2791 C 0.5531 0.94709 0.71909 0.0
C2792 C 0.5522 0.96409 0.76839 0.0
C2793 C 0.55702 0.95073 0.74716 0.0
C2794 C 0.55385 0.96618 0.78232 0.0
C2795 C 0.56202 0.95741 0.79006 0.0
C2796 C 0.55884 0.95321 0.76199 0.0
C2797 C 0.56859 0.94668 0.78327 0.0
C2798 C 0.56545 0.94177 0.7399 0.0
C2799 C 0.54477 0.95575 0.72682 0.0
N2800 N 0.56688 0.94489 0.76963 0.0
N2801 N 0.54696 0.95736 0.74036 0.0
H2802 H 0.07211 0.53359 0.72539 0.0
H2803 H 0.03316 0.57158 0.783 0.0
H2804 H 0.05561 0.5732 0.7167 0.0
H2805 H 0.07344 0.5566 0.79142 0.0
H2806 H 0.03757 0.56873 0.7585 0.0
H2807 H 0.06924 0.53811 0.74986 0.0
C2808 C 0.06791 0.54323 0.72865 0.0
C2809 C 0.06415 0.55308 0.71907 0.0
C2810 C 0.04543 0.56614 0.76576 0.0
C2811 C 0.06047 0.55808 0.74682 0.0
C2812 C 0.04292 0.56773 0.77967 0.0
C2813 C 0.05299 0.56438 0.78919 0.0
C2814 C 0.05788 0.56071 0.76141 0.0
C2815 C 0.06547 0.5594 0.78438 0.0
C2816 C 0.06632 0.5458 0.74255 0.0
C2817 C 0.05874 0.56541 0.7238 0.0
N2818 N 0.06749 0.55749 0.77082 0.0
N2819 N 0.05684 0.56749 0.73735 0.0
H2820 H 0.43974 0.07604 0.7206 0.0
H2821 H 0.46073 0.03525 0.78776 0.0
H2822 H 0.47325 0.04783 0.72282 0.0
H2823 H 0.4341 0.07008 0.78893 0.0
H2824 H 0.46378 0.03867 0.76346 0.0
H2825 H 0.43613 0.07316 0.74511 0.0
C2826 C 0.44636 0.06928 0.7262 0.0
C2827 C 0.45683 0.06217 0.71955 0.0
C2828 C 0.45727 0.04558 0.76901 0.0
C2829 C 0.45264 0.05875 0.74761 0.0
C2830 C 0.45546 0.0436 0.78293 0.0
C2831 C 0.44715 0.0524 0.79051 0.0
C2832 C 0.45066 0.05639 0.76245 0.0
C2833 C 0.44063 0.06305 0.78356 0.0
C2834 C 0.44429 0.06766 0.74021 0.0
C2835 C 0.46507 0.05356 0.72742 0.0
N2836 N 0.4425 0.06474 0.76992 0.0
N2837 N 0.46276 0.05206 0.74095 0.0
H2838 H 0.93679 0.47559 0.72496 0.0
H2839 H 0.97546 0.43802 0.78301 0.0
H2840 H 0.95334 0.43588 0.71679 0.0
H2841 H 0.93546 0.4538 0.79132 0.0
H2842 H 0.97104 0.44054 0.75849 0.0
H2843 H 0.93951 0.47136 0.74948 0.0
C2844 C 0.94096 0.46599 0.72835 0.0
C2845 C 0.94479 0.45603 0.7189 0.0
C2846 C 0.96325 0.44337 0.76573 0.0
C2847 C 0.9483 0.45135 0.74671 0.0
C2848 C 0.96576 0.44198 0.77965 0.0
C2849 C 0.95578 0.44566 0.78914 0.0
C2850 C 0.95087 0.44892 0.76133 0.0
C2851 C 0.94337 0.45075 0.7843 0.0
C2852 C 0.94247 0.46358 0.74228 0.0
C2853 C 0.95016 0.44375 0.72378 0.0
N2854 N 0.94133 0.45245 0.77072 0.0
N2855 N 0.95198 0.44183 0.73736 0.0
H2856 H 0.5479 0.03461 0.22157 0.0
H2857 H 0.56957 0.07584 0.28828 0.0
H2858 H 0.57487 0.06918 0.22003 0.0
H2859 H 0.53582 0.04787 0.28652 0.0
H2860 H 0.57303 0.07269 0.26378 0.0
H2861 H 0.54498 0.03825 0.24586 0.0
C2862 C 0.55328 0.04295 0.22632 0.0
C2863 C 0.56164 0.05161 0.21863 0.0
C2864 C 0.56485 0.06729 0.26878 0.0
C2865 C 0.55829 0.05586 0.24668 0.0
C2866 C 0.56286 0.06908 0.28278 0.0
C2867 C 0.55237 0.06212 0.28955 0.0
C2868 C 0.55639 0.05838 0.26151 0.0
C2869 C 0.54402 0.05349 0.28182 0.0
C2870 C 0.55155 0.04506 0.24024 0.0
C2871 C 0.5683 0.06226 0.22548 0.0
N2872 N 0.54626 0.05183 0.26829 0.0
N2873 N 0.56649 0.06407 0.23911 0.0
H2874 H 0.93961 0.57592 0.22031 0.0
H2875 H 0.9611 0.53506 0.28727 0.0
H2876 H 0.97351 0.54818 0.22249 0.0
H2877 H 0.93438 0.56981 0.28877 0.0
H2878 H 0.96398 0.5386 0.26297 0.0
H2879 H 0.93602 0.57292 0.24484 0.0
C2880 C 0.94632 0.56924 0.22591 0.0
C2881 C 0.95689 0.5623 0.21925 0.0
C2882 C 0.95747 0.54547 0.26859 0.0
C2883 C 0.95273 0.55873 0.24729 0.0
C2884 C 0.95577 0.54342 0.28251 0.0
C2885 C 0.94749 0.55216 0.29018 0.0
C2886 C 0.9508 0.55629 0.26212 0.0
C2887 C 0.94089 0.56283 0.28332 0.0
C2888 C 0.94426 0.56755 0.23991 0.0
C2889 C 0.96524 0.55378 0.2271 0.0
N2890 N 0.94266 0.56458 0.26968 0.0
N2891 N 0.96294 0.55221 0.24062 0.0
H2892 H 0.43675 0.97476 0.22529 0.0
H2893 H 0.47492 0.93678 0.28337 0.0
H2894 H 0.45284 0.93486 0.2171 0.0
H2895 H 0.43504 0.95288 0.29164 0.0
H2896 H 0.47055 0.93933 0.25885 0.0
H2897 H 0.43937 0.97045 0.24982 0.0
C2898 C 0.4408 0.9651 0.22868 0.0
C2899 C 0.44454 0.95511 0.21922 0.0
C2900 C 0.46277 0.94222 0.26608 0.0
C2901 C 0.44792 0.95035 0.24704 0.0
C2902 C 0.46526 0.94082 0.28 0.0
C2903 C 0.4553 0.94458 0.28948 0.0
C2904 C 0.45044 0.94787 0.26166 0.0
C2905 C 0.44293 0.94977 0.28462 0.0
C2906 C 0.44224 0.96265 0.24261 0.0
C2907 C 0.44974 0.94276 0.2241 0.0
N2908 N 0.44092 0.95148 0.27104 0.0
N2909 N 0.4515 0.9408 0.23768 0.0
H2910 H 0.07163 0.47538 0.28321 0.0
H2911 H 0.03326 0.43752 0.22526 0.0
H2912 H 0.05568 0.43544 0.2915 0.0
H2913 H 0.07334 0.4531 0.21691 0.0
H2914 H 0.0377 0.44008 0.24978 0.0
H2915 H 0.06896 0.47102 0.25869 0.0
C2916 C 0.0676 0.4657 0.27984 0.0
C2917 C 0.06393 0.45571 0.28932 0.0
C2918 C 0.04551 0.44285 0.24253 0.0
C2919 C 0.06047 0.45089 0.26152 0.0
C2920 C 0.04299 0.44144 0.22861 0.0
C2921 C 0.05299 0.44504 0.21912 0.0
C2922 C 0.05791 0.44838 0.24692 0.0
C2923 C 0.06542 0.45009 0.22395 0.0
C2924 C 0.06613 0.46322 0.26592 0.0
C2925 C 0.05874 0.44334 0.28448 0.0
N2926 N 0.06746 0.45184 0.23752 0.0
N2927 N 0.05694 0.44134 0.2709 0.0
H2928 H 0.72142 0.53558 0.96085 0.0
H2929 H 0.78824 0.57676 0.93941 0.0
H2930 H 0.71993 0.57045 0.93428 0.0
H2931 H 0.7864 0.54853 0.97293 0.0
H2932 H 0.76372 0.57373 0.93597 0.0
H2933 H 0.74572 0.53912 0.96374 0.0
C2934 C 0.72618 0.54397 0.95556 0.0
C2935 C 0.71851 0.55274 0.94731 0.0
C2936 C 0.76871 0.56825 0.9441 0.0
C2937 C 0.74658 0.55687 0.95064 0.0
C2938 C 0.78272 0.56996 0.94607 0.0
C2939 C 0.78948 0.5629 0.95649 0.0
C2940 C 0.76141 0.55931 0.95251 0.0
C2941 C 0.78171 0.55424 0.96479 0.0
C2942 C 0.74011 0.54602 0.95727 0.0
C2943 C 0.72538 0.56344 0.94077 0.0
N2944 N 0.76818 0.55265 0.96257 0.0
N2945 N 0.73901 0.56519 0.94255 0.0
H2946 H 0.78593 0.46176 0.03527 0.0
H2947 H 0.71936 0.4396 0.07646 0.0
H2948 H 0.78772 0.43501 0.06999 0.0
H2949 H 0.72095 0.47341 0.04856 0.0
H2950 H 0.7439 0.43633 0.07335 0.0
H2951 H 0.76162 0.46445 0.0389 0.0
C2952 C 0.78123 0.45638 0.04365 0.0
C2953 C 0.78899 0.44815 0.05235 0.0
C2954 C 0.73885 0.44448 0.06796 0.0
C2955 C 0.76092 0.45125 0.05658 0.0
C2956 C 0.72483 0.44636 0.06972 0.0
C2957 C 0.718 0.45681 0.06277 0.0
C2958 C 0.74608 0.45302 0.05908 0.0
C2959 C 0.72569 0.46524 0.05418 0.0
C2960 C 0.7673 0.45799 0.04575 0.0
C2961 C 0.78221 0.44149 0.06304 0.0
N2962 N 0.73924 0.46311 0.05254 0.0
N2963 N 0.76856 0.44317 0.06484 0.0
H2964 H 0.57055 0.72015 0.07546 0.0
H2965 H 0.54825 0.78697 0.03485 0.0
H2966 H 0.53638 0.72204 0.04803 0.0
H2967 H 0.5753 0.78858 0.06934 0.0
H2968 H 0.54549 0.76266 0.03841 0.0
H2969 H 0.5739 0.74469 0.07245 0.0
C2970 C 0.56373 0.72569 0.06884 0.0
C2971 C 0.55315 0.71894 0.062 0.0
C2972 C 0.55204 0.76831 0.04522 0.0
C2973 C 0.55704 0.74702 0.05841 0.0
C2974 C 0.55368 0.78223 0.04316 0.0
C2975 C 0.56201 0.78994 0.05182 0.0
C2976 C 0.55885 0.76186 0.05597 0.0
C2977 C 0.56873 0.7831 0.06242 0.0
C2978 C 0.56565 0.73971 0.06714 0.0
C2979 C 0.54465 0.72672 0.05356 0.0
N2980 N 0.56703 0.76946 0.06418 0.0
N2981 N 0.54683 0.74026 0.05197 0.0
H2982 H 0.28785 0.53483 0.04836 0.0
H2983 H 0.22102 0.5759 0.06986 0.0
H2984 H 0.28935 0.56961 0.07507 0.0
H2985 H 0.22295 0.54796 0.03609 0.0
H2986 H 0.24554 0.57289 0.07332 0.0
H2987 H 0.26357 0.53844 0.0454 0.0
C2988 C 0.28309 0.54321 0.05367 0.0
C2989 C 0.29076 0.55193 0.06198 0.0
C2990 C 0.24057 0.56747 0.06513 0.0
C2991 C 0.26272 0.55614 0.05857 0.0
C2992 C 0.22656 0.56917 0.06315 0.0
C2993 C 0.21983 0.56218 0.05266 0.0
C2994 C 0.24789 0.5586 0.05667 0.0
C2995 C 0.22761 0.55361 0.04429 0.0
C2996 C 0.26918 0.5453 0.05191 0.0
C2997 C 0.28391 0.56263 0.06854 0.0
N2998 N 0.24115 0.55202 0.04653 0.0
N2999 N 0.27028 0.56442 0.06672 0.0
H3000 H 0.4365 0.22558 0.03421 0.0
H3001 H 0.47535 0.28349 0.07201 0.0
H3002 H 0.45353 0.21708 0.07364 0.0
H3003 H 0.4351 0.29165 0.05682 0.0
H3004 H 0.4711 0.25897 0.06919 0.0
H3005 H 0.43927 0.25007 0.03863 0.0
C3006 C 0.4408 0.22889 0.04378 0.0
C3007 C 0.44474 0.21936 0.05361 0.0
C3008 C 0.46322 0.26617 0.06655 0.0
C3009 C 0.4483 0.24713 0.05851 0.0
C3010 C 0.46564 0.2801 0.06811 0.0
C3011 C 0.45553 0.28955 0.0647 0.0
C3012 C 0.45081 0.26174 0.06108 0.0
C3013 C 0.4431 0.28466 0.05967 0.0
C3014 C 0.44233 0.2428 0.0463 0.0
C3015 C 0.45027 0.22414 0.06586 0.0
N3016 N 0.44116 0.27109 0.0578 0.0
N3017 N 0.4521 0.2377 0.06789 0.0
H3018 H 0.21727 0.45192 0.93473 0.0
H3019 H 0.29286 0.43475 0.95354 0.0
H3020 H 0.22622 0.43796 0.97526 0.0
H3021 H 0.28354 0.47436 0.93735 0.0
H3022 H 0.2684 0.43064 0.95684 0.0
H3023 H 0.24175 0.45513 0.93071 0.0
C3024 C 0.22441 0.44937 0.94271 0.0
C3025 C 0.21976 0.44469 0.95536 0.0
C3026 C 0.27176 0.44017 0.95249 0.0
C3027 C 0.24761 0.44805 0.9507 0.0
C3028 C 0.28565 0.4425 0.95053 0.0
C3029 C 0.29018 0.45492 0.94519 0.0
C3030 C 0.26236 0.45015 0.94865 0.0
C3031 C 0.28044 0.46468 0.94155 0.0
C3032 C 0.2383 0.45128 0.94043 0.0
C3033 C 0.22942 0.44165 0.9654 0.0
N3034 N 0.26695 0.46203 0.94321 0.0
N3035 N 0.24293 0.44324 0.96282 0.0
H3036 H 0.5747 0.29208 0.95416 0.0
H3037 H 0.556 0.2167 0.93576 0.0
H3038 H 0.53467 0.28329 0.93871 0.0
H3039 H 0.57116 0.22558 0.97588 0.0
H3040 H 0.55302 0.24121 0.93176 0.0
H3041 H 0.57854 0.26756 0.95735 0.0
C3042 C 0.5668 0.28497 0.95129 0.0
C3043 C 0.55434 0.28966 0.94619 0.0
C3044 C 0.55708 0.23773 0.94138 0.0
C3045 C 0.55879 0.26179 0.94952 0.0
C3046 C 0.55886 0.22382 0.94364 0.0
C3047 C 0.5638 0.21916 0.95617 0.0
C3048 C 0.56072 0.24703 0.95155 0.0
C3049 C 0.56726 0.22879 0.96611 0.0
C3050 C 0.56897 0.27106 0.95318 0.0
C3051 C 0.54438 0.28006 0.94273 0.0
N3052 N 0.56578 0.24231 0.96354 0.0
N3053 N 0.54687 0.26654 0.94432 0.0
H3054 H 0.43698 0.78303 0.97476 0.0
H3055 H 0.47468 0.72514 0.93598 0.0
H3056 H 0.45232 0.7913 0.93458 0.0
H3057 H 0.43518 0.71668 0.95291 0.0
H3058 H 0.47024 0.74964 0.93862 0.0
H3059 H 0.43961 0.75852 0.97039 0.0
C3060 C 0.44087 0.77967 0.96503 0.0
C3061 C 0.44439 0.78914 0.95498 0.0
C3062 C 0.46255 0.74238 0.94167 0.0
C3063 C 0.44778 0.76134 0.95012 0.0
C3064 C 0.46508 0.72847 0.94022 0.0
C3065 C 0.45525 0.71894 0.94418 0.0
C3066 C 0.45032 0.74673 0.94759 0.0
C3067 C 0.44296 0.72374 0.94963 0.0
C3068 C 0.44231 0.76574 0.96254 0.0
C3069 C 0.44938 0.78429 0.94253 0.0
N3070 N 0.44092 0.73731 0.95139 0.0
N3071 N 0.45116 0.77072 0.94052 0.0
H3072 H 0.05579 0.17164 0.41652 0.0
H3073 H 0.98795 0.15825 0.42894 0.0
H3074 H 0.04425 0.21263 0.42702 0.0
H3075 H 0.97978 0.19827 0.41327 0.0
H3076 H 0.01227 0.16236 0.42635 0.0
H3077 H 0.03183 0.16611 0.41299 0.0
C3078 C 0.04826 0.17953 0.41797 0.0
C3079 C 0.05211 0.19258 0.4223 0.0
C3080 C 0.00522 0.17013 0.42307 0.0
C3081 C 0.02453 0.18621 0.41844 0.0
C3082 C 0.99132 0.16779 0.4246 0.0
C3083 C 0.98187 0.17785 0.4211 0.0
C3084 C 0.00979 0.18278 0.41831 0.0
C3085 C 0.98676 0.19016 0.41581 0.0
C3086 C 0.03455 0.17631 0.41606 0.0
C3087 C 0.0418 0.20238 0.42388 0.0
N3088 N 1.00042 0.19239 0.41482 0.0
N3089 N 0.0285 0.19898 0.42201 0.0
H3090 H 0.83745 0.05427 0.41776 0.0
H3091 H 0.80901 0.97794 0.41304 0.0
H3092 H 0.79506 0.04441 0.42311 0.0
H3093 H 0.84994 0.98813 0.42468 0.0
H3094 H 0.80399 1.00238 0.41053 0.0
H3095 H 0.84229 0.03016 0.4141 0.0
C3096 C 0.82911 0.0471 0.41796 0.0
C3097 C 0.81583 0.05143 0.4209 0.0
C3098 C 0.81414 0.99922 0.41335 0.0
C3099 C 0.82134 0.02372 0.41664 0.0
C3100 C 0.81704 0.9853 0.41461 0.0
C3101 C 0.82994 0.98108 0.41893 0.0
C3102 C 0.8243 0.00888 0.41623 0.0
C3103 C 0.83989 0.99101 0.42124 0.0
C3104 C 0.83191 0.03331 0.41592 0.0
C3105 C 0.80547 0.04156 0.42103 0.0
N3106 N 0.83687 1.00442 0.41987 0.0
N3107 N 0.80845 0.02818 0.41899 0.0
H3108 H 0.96414 0.79402 0.42345 0.0
H3109 H 0.02119 0.84986 0.42659 0.0
H3110 H 0.95522 0.83665 0.41848 0.0
H3111 H 0.03039 0.80926 0.4131 0.0
H3112 H 0.99696 0.84512 0.42382 0.0
H3113 H 0.98831 0.79896 0.41987 0.0
C3114 C 0.96722 0.80439 0.42145 0.0
C3115 C 0.95758 0.81494 0.42136 0.0
C3116 C 1.00424 0.83731 0.4212 0.0
C3117 C 0.98529 0.82067 0.41745 0.0
C3118 C 0.01807 0.84002 0.42275 0.0
C3119 C 0.02776 0.82999 0.41991 0.0
C3120 C 1.0 0.82429 0.41721 0.0
C3121 C 0.02321 0.81734 0.41518 0.0
C3122 C 0.98102 0.80719 0.41936 0.0
C3123 C 0.96222 0.82818 0.41865 0.0
N3124 N 0.00961 0.81475 0.41421 0.0
N3125 N 0.97573 0.83068 0.41703 0.0
H3126 H 0.17166 0.95475 0.41826 0.0
H3127 H 0.20025 0.0309 0.41297 0.0
H3128 H 0.21415 0.96426 0.42348 0.0
H3129 H 0.16006 0.02087 0.42711 0.0
H3130 H 0.20506 0.00642 0.41033 0.0
H3131 H 0.16697 0.97894 0.41491 0.0
C3132 C 0.18005 0.96187 0.41846 0.0
C3133 C 0.19332 0.95742 0.42129 0.0
C3134 C 0.19512 0.00963 0.41375 0.0
C3135 C 0.18797 0.98519 0.41738 0.0
C3136 C 0.19233 0.02356 0.41512 0.0
C3137 C 0.17972 0.02785 0.42018 0.0
C3138 C 0.1851 1.00003 0.41722 0.0
C3139 C 0.16989 0.01795 0.42314 0.0
C3140 C 0.17734 0.97569 0.41661 0.0
C3141 C 0.20375 0.96721 0.42146 0.0
N3142 N 0.17278 0.00453 0.42161 0.0
N3143 N 0.20086 0.98062 0.41959 0.0
H3144 H 0.97752 0.80787 0.59561 0.0
H3145 H 0.05363 0.83702 0.59202 0.0
H3146 H 0.98748 0.84917 0.58512 0.0
H3147 H 0.04412 0.79472 0.58543 0.0
H3148 H 0.02948 0.84155 0.59577 0.0
H3149 H 1.00198 0.80297 0.59814 0.0
C3150 C 0.98484 0.816 0.5943 0.0
C3151 C 0.98054 0.82898 0.5903 0.0
C3152 C 0.03271 0.83125 0.59366 0.0
C3153 C 0.00836 0.82347 0.59303 0.0
C3154 C 0.04652 0.82863 0.59157 0.0
C3155 C 0.05097 0.81547 0.58825 0.0
C3156 C 0.02322 0.82064 0.59261 0.0
C3157 C 0.04118 0.80504 0.58781 0.0
C3158 C 0.99876 0.81317 0.59558 0.0
C3159 C 0.99041 0.83907 0.58832 0.0
N3160 N 0.02778 0.80785 0.58989 0.0
N3161 N 1.00383 0.83611 0.58969 0.0
H3162 H 0.17189 0.0545 0.59139 0.0
H3163 H 0.20013 0.97813 0.596 0.0
H3164 H 0.21421 0.04459 0.58558 0.0
H3165 H 0.15931 0.98837 0.58405 0.0
H3166 H 0.20521 1.00257 0.59845 0.0
H3167 H 0.16704 0.03038 0.59501 0.0
C3168 C 0.18022 0.04731 0.59109 0.0
C3169 C 0.19348 0.05163 0.58803 0.0
C3170 C 0.19507 0.99942 0.59557 0.0
C3171 C 0.18794 0.02393 0.59224 0.0
C3172 C 0.19214 0.98551 0.59434 0.0
C3173 C 0.17925 0.98129 0.58996 0.0
C3174 C 0.18496 0.00909 0.59262 0.0
C3175 C 0.16935 0.99124 0.58754 0.0
C3176 C 0.17741 0.03352 0.5931 0.0
C3177 C 0.20381 0.04175 0.58776 0.0
N3178 N 0.17239 0.00465 0.5889 0.0
N3179 N 0.20082 0.02837 0.58978 0.0
H3180 H 0.02122 0.15871 0.58133 0.0
H3181 H 0.9639 0.21403 0.58743 0.0
H3182 H 0.03014 0.19849 0.59723 0.0
H3183 H 0.95508 0.17115 0.58974 0.0
H3184 H 0.98806 0.20898 0.59083 0.0
H3185 H 0.99694 0.16317 0.58417 0.0
C3186 C 0.01803 0.1683 0.58569 0.0
C3187 C 0.02767 0.1782 0.58918 0.0
C3188 C 0.9808 0.2007 0.5908 0.0
C3189 C 0.99984 0.18359 0.59202 0.0
C3190 C 0.967 0.20356 0.58881 0.0
C3191 C 0.9574 0.19299 0.58821 0.0
C3192 C 0.98511 0.18715 0.5919 0.0
C3193 C 0.96206 0.17964 0.59013 0.0
C3194 C 1.00417 0.17086 0.58729 0.0
C3195 C 0.02301 0.19053 0.59461 0.0
N3196 N 0.97558 0.17709 0.59166 0.0
N3197 N 0.00939 0.19299 0.59564 0.0
H3198 H 0.80993 0.03101 0.597 0.0
H3199 H 0.83748 0.95462 0.59058 0.0
H3200 H 0.84957 0.02064 0.58159 0.0
H3201 H 0.79497 0.96459 0.5865 0.0
H3202 H 0.84253 0.97874 0.59388 0.0
H3203 H 0.80491 0.00658 0.59963 0.0
C3204 C 0.81769 0.0236 0.59456 0.0
C3205 C 0.8302 0.02778 0.58915 0.0
C3206 C 0.83208 0.97561 0.59244 0.0
C3207 C 0.82459 1.00002 0.59211 0.0
C3208 C 0.82916 0.96182 0.59062 0.0
C3209 C 0.81578 0.95753 0.58812 0.0
C3210 C 0.82154 0.98521 0.59198 0.0
C3211 C 0.80545 0.96742 0.58825 0.0
C3212 C 0.81479 0.0097 0.59593 0.0
C3213 C 0.83982 0.0178 0.58584 0.0
N3214 N 0.80855 0.9808 0.59009 0.0
N3215 N 0.83682 1.00441 0.58738 0.0
H3216 H 0.41792 0.05382 0.17185 0.0
H3217 H 0.41294 0.97746 0.20004 0.0
H3218 H 0.42335 0.04392 0.21422 0.0
H3219 H 0.4254 0.98773 0.15936 0.0
H3220 H 0.41047 1.0019 0.2051 0.0
H3221 H 0.41433 0.0297 0.16698 0.0
C3222 C 0.41814 0.04663 0.18018 0.0
C3223 C 0.42109 0.05096 0.19346 0.0
C3224 C 0.41346 0.99876 0.195 0.0
C3225 C 0.41691 0.02326 0.18791 0.0
C3226 C 0.41472 0.98485 0.19207 0.0
C3227 C 0.41925 0.98064 0.17923 0.0
C3228 C 0.41655 0.00843 0.18492 0.0
C3229 C 0.4218 0.99059 0.16936 0.0
C3230 C 0.41615 0.03285 0.17736 0.0
C3231 C 0.42126 0.04108 0.20381 0.0
N3232 N 0.42042 1.00399 0.17239 0.0
N3233 N 0.41926 0.0277 0.20081 0.0
H3234 H 0.02057 0.42626 0.15838 0.0
H3235 H 0.96334 0.42406 0.21436 0.0
H3236 H 0.02959 0.41411 0.19942 0.0
H3237 H 0.95449 0.41933 0.17168 0.0
H3238 H 0.98749 0.42041 0.20946 0.0
H3239 H 0.99631 0.42364 0.1631 0.0
C3240 C 0.0174 0.42271 0.16831 0.0
C3241 C 0.02706 0.4202 0.17847 0.0
C3242 C 0.98023 0.41998 0.20121 0.0
C3243 C 0.99925 0.4177 0.18415 0.0
C3244 C 0.96643 0.42211 0.20398 0.0
C3245 C 0.95681 0.42211 0.19341 0.0
C3246 C 0.98453 0.41809 0.18773 0.0
C3247 C 0.96147 0.41945 0.18017 0.0
C3248 C 1.00356 0.42126 0.17103 0.0
C3249 C 0.02245 0.41589 0.19125 0.0
N3250 N 0.97499 0.41776 0.1777 0.0
N3251 N 0.00884 0.415 0.19382 0.0
H3252 H 0.58608 0.96346 0.21437 0.0
H3253 H 0.58172 0.02052 0.15864 0.0
H3254 H 0.59021 0.95452 0.17165 0.0
H3255 H 0.59611 0.02972 0.19893 0.0
H3256 H 0.58456 0.99629 0.16332 0.0
H3257 H 0.58951 0.98763 0.20936 0.0
C3258 C 0.58788 0.96653 0.20396 0.0
C3259 C 0.58777 0.95689 0.19341 0.0
C3260 C 0.58735 1.00357 0.17107 0.0
C3261 C 0.5915 0.98461 0.18761 0.0
C3262 C 0.58576 0.0174 0.16839 0.0
C3263 C 0.58883 0.02711 0.17836 0.0
C3264 C 0.59164 0.99933 0.18399 0.0
C3265 C 0.59384 0.02255 0.1909 0.0
C3266 C 0.58988 0.98034 0.20113 0.0
C3267 C 0.59021 0.96153 0.18012 0.0
N3268 N 0.59486 0.00895 0.19347 0.0
N3269 N 0.59174 0.97505 0.17759 0.0
H3270 H 0.04616 0.58601 0.21519 0.0
H3271 H 0.9892 0.58184 0.15939 0.0
H3272 H 0.0551 0.59063 0.17252 0.0
H3273 H 0.97986 0.59607 0.1997 0.0
H3274 H 0.01342 0.58471 0.16414 0.0
H3275 H 0.02198 0.58938 0.21021 0.0
C3276 C 0.04308 0.58789 0.2048 0.0
C3277 C 0.05273 0.58794 0.19425 0.0
C3278 C 0.0061 0.58746 0.17189 0.0
C3279 C 0.025 0.5916 0.18848 0.0
C3280 C 0.99228 0.58585 0.16917 0.0
C3281 C 0.98256 0.58888 0.17912 0.0
C3282 C 0.01031 0.59171 0.18484 0.0
C3283 C 0.98707 0.59384 0.1917 0.0
C3284 C 0.02927 0.58986 0.20198 0.0
C3285 C 0.04809 0.5905 0.18099 0.0
N3286 N 1.00066 0.59487 0.19431 0.0
N3287 N 0.03457 0.59199 0.17847 0.0
H3288 H 0.41881 0.95492 0.83738 0.0
H3289 H 0.41232 0.03124 0.80955 0.0
H3290 H 0.42336 0.96487 0.79491 0.0
H3291 H 0.42671 0.02105 0.8496 0.0
H3292 H 0.41 0.00677 0.80452 0.0
H3293 H 0.41528 0.97902 0.84235 0.0
C3294 C 0.41885 0.96211 0.82905 0.0
C3295 C 0.42152 0.95781 0.8157 0.0
C3296 C 0.41342 0.00994 0.81448 0.0
C3297 C 0.4174 0.98549 0.82138 0.0
C3298 C 0.41459 0.02386 0.81739 0.0
C3299 C 0.41963 0.02811 0.83003 0.0
C3300 C 0.41705 1.0003 0.82439 0.0
C3301 C 0.42275 0.01817 0.83975 0.0
C3302 C 0.41689 0.97589 0.83192 0.0
C3303 C 0.42147 0.9677 0.80537 0.0
N3304 N 0.42141 0.00476 0.83674 0.0
N3305 N 0.4195 0.98107 0.80842 0.0
H3306 H 0.05408 0.41809 0.83739 0.0
H3307 H 0.9779 0.41336 0.80867 0.0
H3308 H 0.04452 0.42274 0.79485 0.0
H3309 H 0.98799 0.42632 0.84923 0.0
H3310 H 1.00234 0.41044 0.80387 0.0
H3311 H 0.02991 0.4147 0.84215 0.0
C3312 C 0.04696 0.41817 0.829 0.0
C3313 C 0.05138 0.42085 0.8157 0.0
C3314 C 0.99915 0.41365 0.8139 0.0
C3315 C 0.02363 0.41691 0.82113 0.0
C3316 C 0.98523 0.41515 0.81668 0.0
C3317 C 0.98098 0.41996 0.8294 0.0
C3318 C 0.00878 0.41676 0.82401 0.0
C3319 C 0.99088 0.42252 0.83932 0.0
C3320 C 0.03314 0.4163 0.83176 0.0
C3321 C 0.04159 0.42086 0.80528 0.0
N3322 N 1.00429 0.4209 0.83643 0.0
N3323 N 0.02818 0.41899 0.80822 0.0
H3324 H 0.58469 0.04554 0.79411 0.0
H3325 H 0.58257 0.98858 0.85015 0.0
H3326 H 0.58994 0.05456 0.83669 0.0
H3327 H 0.59536 0.97938 0.80933 0.0
H3328 H 0.58513 0.01282 0.84533 0.0
H3329 H 0.58842 0.0214 0.79905 0.0
C3330 C 0.58678 0.04249 0.80447 0.0
C3331 C 0.5869 0.05215 0.81501 0.0
C3332 C 0.58765 0.00553 0.83748 0.0
C3333 C 0.59099 0.02447 0.82074 0.0
C3334 C 0.58622 0.9917 0.84024 0.0
C3335 C 0.58893 0.98201 0.83017 0.0
C3336 C 0.59138 0.00978 0.82438 0.0
C3337 C 0.59341 0.98656 0.81743 0.0
C3338 C 0.58895 0.0287 0.80727 0.0
C3339 C 0.58972 0.04755 0.82823 0.0
N3340 N 0.59426 1.00016 0.8148 0.0
N3341 N 0.59143 0.03405 0.83073 0.0
H3342 H 0.02137 0.58392 0.85017 0.0
H3343 H 0.96385 0.58691 0.79465 0.0
H3344 H 0.03029 0.59625 0.80915 0.0
H3345 H 0.9553 0.59175 0.83738 0.0
H3346 H 0.98806 0.59037 0.79938 0.0
H3347 H 0.99712 0.58688 0.84564 0.0
C3348 C 0.01819 0.58758 0.84029 0.0
C3349 C 0.02781 0.59004 0.83008 0.0
C3350 C 0.98086 0.59088 0.80768 0.0
C3351 C 1.0 0.59292 0.82461 0.0
C3352 C 0.96702 0.58886 0.80501 0.0
C3353 C 0.95747 0.58894 0.81564 0.0
C3354 C 0.98525 0.59272 0.82113 0.0
C3355 C 0.96223 0.59158 0.82884 0.0
C3356 C 1.00435 0.58922 0.83769 0.0
C3357 C 0.02318 0.5945 0.81736 0.0
N3358 N 0.97577 0.59314 0.83123 0.0
N3359 N 0.00957 0.59557 0.8149 0.0
H3360 H 0.21447 0.42326 0.04468 0.0
H3361 H 0.15875 0.4244 0.98717 0.0
H3362 H 0.17179 0.41809 0.05332 0.0
H3363 H 0.20014 0.41332 0.97838 0.0
H3364 H 0.16334 0.42179 0.01145 0.0
H3365 H 0.20977 0.41945 0.02053 0.0
C3366 C 0.20413 0.42118 0.04154 0.0
C3367 C 0.1935 0.4211 0.0511 0.0
C3368 C 0.17138 0.41964 1.00424 0.0
C3369 C 0.18804 0.41689 0.02337 0.0
C3370 C 0.16873 0.42107 0.99039 0.0
C3371 C 0.17902 0.41887 0.98079 0.0
C3372 C 0.18456 0.41641 0.00862 0.0
C3373 C 0.19187 0.41485 0.98547 0.0
C3374 C 0.20147 0.41896 0.02774 0.0
C3375 C 0.18032 0.41827 0.04638 0.0
N3376 N 0.19436 0.41398 0.99909 0.0
N3377 N 0.17795 0.41649 0.03286 0.0
H3378 H 0.21437 0.58668 0.96386 0.0
H3379 H 0.15931 0.58174 0.02157 0.0
H3380 H 0.17148 0.58983 0.95537 0.0
H3381 H 0.19957 0.59657 0.03021 0.0
H3382 H 0.16364 0.5846 0.99727 0.0
H3383 H 0.20956 0.59022 0.98805 0.0
C3384 C 0.20395 0.58828 0.96704 0.0
C3385 C 0.1933 0.58786 0.95752 0.0
C3386 C 0.17146 0.58749 1.00445 0.0
C3387 C 0.18774 0.59172 0.98527 0.0
C3388 C 0.16898 0.58589 0.01831 0.0
C3389 C 0.17905 0.58906 0.02787 0.0
C3390 C 0.18429 0.5919 1.00002 0.0
C3391 C 0.19148 0.59421 0.02314 0.0
C3392 C 0.20123 0.59035 0.98086 0.0
C3393 C 0.18002 0.59006 0.96229 0.0
N3394 N 0.19385 0.59524 0.00951 0.0
N3395 N 0.17761 0.59167 0.97582 0.0
H3396 H 0.41292 0.20063 0.03179 0.0
H3397 H 0.41608 0.17192 0.9555 0.0
H3398 H 0.42366 0.15948 0.02153 0.0
H3399 H 0.42255 0.21419 0.9652 0.0
H3400 H 0.41246 0.16724 0.97965 0.0
H3401 H 0.4101 0.20564 0.00738 0.0
C3402 C 0.41422 0.19256 0.02443 0.0
C3403 C 0.41838 0.17959 0.02862 0.0
C3404 C 0.4145 0.17757 0.97646 0.0
C3405 C 0.41532 0.18521 1.00086 0.0
C3406 C 0.41651 0.18027 0.96265 0.0
C3407 C 0.41978 0.19346 0.95826 0.0
C3408 C 0.41558 0.18813 0.98601 0.0
C3409 C 0.42021 0.20384 0.96809 0.0
C3410 C 0.41278 0.19544 0.01053 0.0
C3411 C 0.42035 0.16957 0.01868 0.0
N3412 N 0.41821 0.20095 0.98149 0.0
N3413 N 0.41881 0.17258 0.00529 0.0
H3414 H 0.83734 0.41998 0.95464 0.0
H3415 H 0.80864 0.4136 0.03066 0.0
H3416 H 0.79472 0.42419 0.96404 0.0
H3417 H 0.84861 0.42851 0.02085 0.0
H3418 H 0.80394 0.41108 0.00615 0.0
H3419 H 0.84204 0.41662 0.97883 0.0
C3420 C 0.82893 0.41997 0.96174 0.0
C3421 C 0.81562 0.42251 0.95726 0.0
C3422 C 0.81381 0.41465 0.00942 0.0
C3423 C 0.82096 0.41859 0.98502 0.0
C3424 C 0.81654 0.41595 0.02336 0.0
C3425 C 0.82906 0.42119 0.02772 0.0
C3426 C 0.82379 0.41837 0.99987 0.0
C3427 C 0.83885 0.4244 0.01788 0.0
C3428 C 0.83164 0.41812 0.97556 0.0
C3429 C 0.80515 0.42241 0.96702 0.0
N3430 N 0.83603 0.42293 1.00444 0.0
N3431 N 0.80805 0.42054 0.98043 0.0
H3432 H 0.59677 0.80951 0.03032 0.0
H3433 H 0.59059 0.83785 0.95416 0.0
H3434 H 0.58181 0.8494 0.02032 0.0
H3435 H 0.58629 0.79528 0.96374 0.0
H3436 H 0.59391 0.84266 0.97833 0.0
H3437 H 0.59937 0.80471 0.00584 0.0
C3438 C 0.59443 0.81737 0.02299 0.0
C3439 C 0.58915 0.8299 0.02729 0.0
C3440 C 0.59241 0.83225 0.97511 0.0
C3441 C 0.59207 0.82452 0.99946 0.0
C3442 C 0.59058 0.82947 0.96129 0.0
C3443 C 0.58802 0.81614 0.95687 0.0
C3444 C 0.5919 0.82162 0.98462 0.0
C3445 C 0.58809 0.80572 0.96667 0.0
C3446 C 0.59577 0.81459 0.00906 0.0
C3447 C 0.58596 0.83964 0.0174 0.0
N3448 N 0.58994 0.80868 0.98008 0.0
N3449 N 0.58747 0.83676 1.00397 0.0
H3450 H 0.83785 0.59062 0.05481 0.0
H3451 H 0.80923 0.59742 0.97884 0.0
H3452 H 0.7952 0.58645 0.04553 0.0
H3453 H 0.84896 0.58186 0.98854 0.0
H3454 H 0.80451 0.59974 1.00338 0.0
H3455 H 0.84252 0.59383 0.0306 0.0
C3456 C 0.82942 0.5906 0.04774 0.0
C3457 C 0.81611 0.58813 0.05226 0.0
C3458 C 0.81434 0.59605 1.00008 0.0
C3459 C 0.82143 0.5919 0.02446 0.0
C3460 C 0.81707 0.59487 0.98612 0.0
C3461 C 0.82953 0.58953 0.98172 0.0
C3462 C 0.82425 0.59212 0.0096 0.0
C3463 C 0.83925 0.58607 0.99155 0.0
C3464 C 0.83212 0.59238 0.0339 0.0
C3465 C 0.80563 0.58819 0.04252 0.0
N3466 N 0.83642 0.58744 0.005 0.0
N3467 N 0.80852 0.59 0.02909 0.0
H3468 H 0.42443 0.84992 0.98696 0.0
H3469 H 0.42343 0.79396 0.04422 0.0
H3470 H 0.41361 0.80849 0.97796 0.0
H3471 H 0.41802 0.83657 0.05302 0.0
H3472 H 0.41962 0.79873 0.02008 0.0
H3473 H 0.42175 0.84521 0.01121 0.0
C3474 C 0.42115 0.8399 0.99013 0.0
C3475 C 0.41903 0.82963 0.98049 0.0
C3476 C 0.41907 0.807 0.02733 0.0
C3477 C 0.41649 0.82397 0.00828 0.0
C3478 C 0.42129 0.8043 0.04112 0.0
C3479 C 0.42115 0.81489 0.05072 0.0
C3480 C 0.41694 0.82043 0.02301 0.0
C3481 C 0.41825 0.82806 0.04605 0.0
C3482 C 0.41967 0.83719 1.00397 0.0
C3483 C 0.41507 0.81674 0.9851 0.0
N3484 N 0.41648 0.83048 0.03254 0.0
N3485 N 0.41415 0.81419 0.9987 0.0
H3486 H 0.58447 0.1585 0.9882 0.0
H3487 H 0.58525 0.21463 0.04526 0.0
H3488 H 0.5948 0.19999 0.97896 0.0
H3489 H 0.59146 0.17216 0.05415 0.0
H3490 H 0.58898 0.20983 0.02111 0.0
H3491 H 0.58736 0.16332 0.01241 0.0
C3492 C 0.58769 0.16856 0.9913 0.0
C3493 C 0.58961 0.17881 0.98161 0.0
C3494 C 0.58973 0.2016 0.02837 0.0
C3495 C 0.59239 0.1846 0.00936 0.0
C3496 C 0.58756 0.20432 0.04218 0.0
C3497 C 0.58794 0.19377 0.05181 0.0
C3498 C 0.59203 0.18819 0.02408 0.0
C3499 C 0.59104 0.18063 0.04716 0.0
C3500 C 0.58929 0.17133 0.00512 0.0
C3501 C 0.5935 0.19175 0.98613 0.0
N3502 N 0.59275 0.17819 0.03364 0.0
N3503 N 0.59453 0.19436 0.99972 0.0
H3504 H 0.55375 0.67198 0.91688 0.0
H3505 H 0.47729 0.7001 0.91307 0.0
H3506 H 0.54372 0.7142 0.92319 0.0
H3507 H 0.48773 0.65902 0.92393 0.0
H3508 H 0.50169 0.70529 0.91053 0.0
H3509 H 0.52966 0.6671 0.9132 0.0
C3510 C 0.54654 0.68028 0.91728 0.0
C3511 C 0.55082 0.69351 0.9205 0.0
C3512 C 0.49859 0.69508 0.91318 0.0
C3513 C 0.52313 0.68795 0.91622 0.0
C3514 C 0.4847 0.69208 0.91446 0.0
C3515 C 0.48055 0.67908 0.91856 0.0
C3516 C 0.50831 0.68492 0.91582 0.0
C3517 C 0.49054 0.66914 0.92064 0.0
C3518 C 0.53276 0.67746 0.91523 0.0
C3519 C 0.54091 0.70382 0.92089 0.0
N3520 N 0.50393 0.67225 0.91926 0.0
N3521 N 0.52754 0.70082 0.91884 0.0
H3522 H 0.29384 0.5439 0.92345 0.0
H3523 H 0.35042 0.48715 0.92296 0.0
H3524 H 0.3363 0.55303 0.91736 0.0
H3525 H 0.30863 0.47775 0.91408 0.0
H3526 H 0.34544 0.51133 0.9202 0.0
H3527 H 0.29873 0.51982 0.91949 0.0
C3528 C 0.30417 0.54089 0.92113 0.0
C3529 C 0.31469 0.55057 0.92086 0.0
C3530 C 0.33738 0.50401 0.91855 0.0
C3531 C 0.32036 0.52291 0.91646 0.0
C3532 C 0.34025 0.49021 0.92006 0.0
C3533 C 0.32997 0.48048 0.91853 0.0
C3534 C 0.324 0.5082 0.91593 0.0
C3535 C 0.31689 0.48495 0.91507 0.0
C3536 C 0.30693 0.52712 0.91883 0.0
C3537 C 0.32785 0.546 0.91771 0.0
N3538 N 0.31421 0.49853 0.91412 0.0
N3539 N 0.33033 0.53252 0.91585 0.0
H3540 H 0.45609 0.33723 0.91759 0.0
H3541 H 0.53238 0.30871 0.91359 0.0
H3542 H 0.46576 0.29483 0.92314 0.0
H3543 H 0.5221 0.34945 0.92583 0.0
H3544 H 0.50796 0.30376 0.91072 0.0
H3545 H 0.48025 0.342 0.91418 0.0
C3546 C 0.46324 0.32887 0.91787 0.0
C3547 C 0.45884 0.31561 0.92081 0.0
C3548 C 0.5111 0.31386 0.91376 0.0
C3549 C 0.48659 0.32105 0.91684 0.0
C3550 C 0.525 0.31672 0.91523 0.0
C3551 C 0.52919 0.32954 0.91983 0.0
C3552 C 0.50143 0.32398 0.91668 0.0
C3553 C 0.51925 0.33946 0.92219 0.0
C3554 C 0.47705 0.33163 0.91598 0.0
C3555 C 0.46867 0.30523 0.92105 0.0
N3556 N 0.50586 0.33649 0.9206 0.0
N3557 N 0.48207 0.30817 0.91917 0.0
H3558 H 0.65864 0.52188 0.92564 0.0
H3559 H 0.71502 0.46516 0.92443 0.0
H3560 H 0.69972 0.53124 0.91383 0.0
H3561 H 0.67251 0.45596 0.91888 0.0
H3562 H 0.71002 0.48926 0.92062 0.0
H3563 H 0.66359 0.49767 0.92314 0.0
C3564 C 0.66863 0.5188 0.9222 0.0
C3565 C 0.67874 0.52853 0.91976 0.0
C3566 C 0.70183 0.48193 0.92004 0.0
C3567 C 0.68468 0.50079 0.91739 0.0
C3568 C 0.70466 0.46816 0.92227 0.0
C3569 C 0.69416 0.45846 0.92209 0.0
C3570 C 0.68837 0.48611 0.91787 0.0
C3571 C 0.68095 0.46301 0.91915 0.0
C3572 C 0.67148 0.50498 0.92082 0.0
C3573 C 0.6916 0.52403 0.91557 0.0
N3574 N 0.67841 0.47649 0.91737 0.0
N3575 N 0.69429 0.51045 0.91475 0.0
H3576 H 0.55334 0.33733 0.09275 0.0
H3577 H 0.47701 0.30894 0.097 0.0
H3578 H 0.54357 0.29498 0.08694 0.0
H3579 H 0.48727 0.34962 0.08455 0.0
H3580 H 0.50144 0.30396 0.09969 0.0
H3581 H 0.52919 0.34213 0.09618 0.0
C3582 C 0.54618 0.32899 0.09243 0.0
C3583 C 0.55055 0.31574 0.08942 0.0
C3584 C 0.49829 0.31405 0.09665 0.0
C3585 C 0.5228 0.3212 0.09341 0.0
C3586 C 0.48438 0.31693 0.09527 0.0
C3587 C 0.48018 0.32975 0.09068 0.0
C3588 C 0.50796 0.32415 0.09363 0.0
C3589 C 0.49013 0.33964 0.0882 0.0
C3590 C 0.53236 0.33176 0.09432 0.0
C3591 C 0.54069 0.30537 0.0891 0.0
N3592 N 0.50353 0.33665 0.0897 0.0
N3593 N 0.52729 0.30833 0.09101 0.0
H3594 H 0.71479 0.54458 0.08662 0.0
H3595 H 0.65825 0.48818 0.08257 0.0
H3596 H 0.67215 0.55411 0.09025 0.0
H3597 H 0.69842 0.47863 0.09704 0.0
H3598 H 0.66324 0.51239 0.08518 0.0
H3599 H 0.70942 0.52052 0.09025 0.0
C3600 C 0.70431 0.54166 0.08834 0.0
C3601 C 0.6939 0.55144 0.08804 0.0
C3602 C 0.6709 0.50503 0.08804 0.0
C3603 C 0.68769 0.52383 0.09199 0.0
C3604 C 0.66804 0.49122 0.08659 0.0
C3605 C 0.67788 0.48143 0.08974 0.0
C3606 C 0.68388 0.50916 0.09228 0.0
C3607 C 0.69049 0.48588 0.09471 0.0
C3608 C 0.70128 0.52791 0.09045 0.0
C3609 C 0.68053 0.54699 0.09039 0.0
N3610 N 0.69323 0.49946 0.09559 0.0
N3611 N 0.6778 0.53353 0.09204 0.0
H3612 H 0.45537 0.67109 0.09052 0.0
H3613 H 0.53162 0.69929 0.09666 0.0
H3614 H 0.4651 0.71364 0.08629 0.0
H3615 H 0.52151 0.65937 0.08183 0.0
H3616 H 0.50715 0.70413 0.09932 0.0
H3617 H 0.47952 0.66622 0.09388 0.0
C3618 C 0.46253 0.67945 0.09053 0.0
C3619 C 0.45816 0.6928 0.08798 0.0
C3620 C 0.51034 0.69423 0.09574 0.0
C3621 C 0.48588 0.68724 0.0919 0.0
C3622 C 0.52427 0.69143 0.09436 0.0
C3623 C 0.52853 0.67889 0.0891 0.0
C3624 C 0.50072 0.68431 0.09207 0.0
C3625 C 0.51861 0.66915 0.08596 0.0
C3626 C 0.47633 0.67664 0.09239 0.0
C3627 C 0.46799 0.70318 0.08808 0.0
N3628 N 0.5052 0.67204 0.08749 0.0
N3629 N 0.48139 0.70019 0.08995 0.0
H3630 H 0.29419 0.46438 0.08676 0.0
H3631 H 0.35052 0.52089 0.08313 0.0
H3632 H 0.33681 0.45505 0.09099 0.0
H3633 H 0.30998 0.53044 0.09656 0.0
H3634 H 0.34565 0.49672 0.08611 0.0
H3635 H 0.29937 0.48845 0.09047 0.0
C3636 C 0.30461 0.46735 0.08865 0.0
C3637 C 0.31509 0.45763 0.08846 0.0
C3638 C 0.33788 0.50407 0.08868 0.0
C3639 C 0.32109 0.48525 0.09251 0.0
C3640 C 0.34067 0.51786 0.087 0.0
C3641 C 0.33068 0.52764 0.08974 0.0
C3642 C 0.32483 0.49993 0.09271 0.0
C3643 C 0.31802 0.5232 0.09455 0.0
C3644 C 0.30755 0.4811 0.0908 0.0
C3645 C 0.32839 0.46213 0.09103 0.0
N3646 N 0.31535 0.50963 0.09564 0.0
N3647 N 0.33103 0.4756 0.09271 0.0
H3648 H 0.92383 0.54423 0.71519 0.0
H3649 H 0.92394 0.48774 0.65852 0.0
H3650 H 0.91725 0.55355 0.67286 0.0
H3651 H 0.91401 0.47813 0.70003 0.0
H3652 H 0.9211 0.5119 0.66359 0.0
H3653 H 0.91997 0.52015 0.7102 0.0
C3654 C 0.92141 0.54126 0.70488 0.0
C3655 C 0.92098 0.55099 0.69442 0.0
C3656 C 0.91924 0.50454 0.67155 0.0
C3657 C 0.91671 0.52334 0.68862 0.0
C3658 C 0.92081 0.49075 0.66864 0.0
C3659 C 0.919 0.48097 0.67882 0.0
C3660 C 0.91628 0.50866 0.68489 0.0
C3661 C 0.91523 0.48538 0.69184 0.0
C3662 C 0.91916 0.52749 0.70205 0.0
C3663 C 0.91772 0.54648 0.68126 0.0
N3664 N 0.91423 0.49894 0.69459 0.0
N3665 N 0.91593 0.53299 0.67872 0.0
H3666 H 0.52148 0.92771 0.6591 0.0
H3667 H 0.46423 0.92334 0.71468 0.0
H3668 H 0.53052 0.91298 0.69929 0.0
H3669 H 0.45544 0.9193 0.67192 0.0
H3670 H 0.48842 0.91993 0.70973 0.0
H3671 H 0.49722 0.92504 0.66375 0.0
C3672 C 0.51832 0.92364 0.66883 0.0
C3673 C 0.52798 0.92041 0.67877 0.0
C3674 C 0.48116 0.91959 0.70147 0.0
C3675 C 0.50018 0.91779 0.68438 0.0
C3676 C 0.46735 0.92158 0.70427 0.0
C3677 C 0.45774 0.9217 0.69369 0.0
C3678 C 0.48547 0.91798 0.68797 0.0
C3679 C 0.46242 0.9193 0.68042 0.0
C3680 C 0.50448 0.92214 0.67149 0.0
C3681 C 0.52337 0.91536 0.69129 0.0
N3682 N 0.47594 0.91777 0.67792 0.0
N3683 N 0.50976 0.91444 0.69384 0.0
H3684 H 0.08514 0.52125 0.65843 0.0
H3685 H 0.08614 0.46408 0.71452 0.0
H3686 H 0.0955 0.53034 0.69995 0.0
H3687 H 0.09148 0.45522 0.67192 0.0
H3688 H 0.08993 0.4882 0.70971 0.0
H3689 H 0.08796 0.49702 0.66317 0.0
C3690 C 0.08836 0.51811 0.66848 0.0
C3691 C 0.0903 0.52777 0.67876 0.0
C3692 C 0.09047 0.48095 0.70145 0.0
C3693 C 0.09299 0.49999 0.68446 0.0
C3694 C 0.08826 0.46716 0.70417 0.0
C3695 C 0.08838 0.45754 0.6936 0.0
C3696 C 0.09257 0.48526 0.68801 0.0
C3697 C 0.09127 0.4622 0.68041 0.0
C3698 C 0.08992 0.50428 0.6712 0.0
C3699 C 0.09418 0.52319 0.69169 0.0
N3700 N 0.09303 0.47571 0.67797 0.0
N3701 N 0.09517 0.50959 0.69424 0.0
H3702 H 0.48882 0.08099 0.65934 0.0
H3703 H 0.54623 0.08555 0.71471 0.0
H3704 H 0.47994 0.09602 0.69947 0.0
H3705 H 0.55495 0.0893 0.6719 0.0
H3706 H 0.52204 0.089 0.7098 0.0
H3707 H 0.5131 0.08362 0.66389 0.0
C3708 C 0.49202 0.08512 0.66903 0.0
C3709 C 0.48239 0.08844 0.67899 0.0
C3710 C 0.52929 0.08927 0.70152 0.0
C3711 C 0.51022 0.09101 0.68448 0.0
C3712 C 0.5431 0.08725 0.7043 0.0
C3713 C 0.55269 0.08705 0.69369 0.0
C3714 C 0.52495 0.0908 0.68802 0.0
C3715 C 0.54798 0.08937 0.68042 0.0
C3716 C 0.50588 0.08659 0.67163 0.0
C3717 C 0.48706 0.09356 0.69146 0.0
N3718 N 0.53446 0.09092 0.67795 0.0
N3719 N 0.50068 0.09446 0.69395 0.0
H3720 H 0.91854 0.45455 0.33753 0.0
H3721 H 0.9122 0.53094 0.30988 0.0
H3722 H 0.92223 0.46439 0.29497 0.0
H3723 H 0.92809 0.52061 0.34932 0.0
H3724 H 0.90945 0.5065 0.30495 0.0
H3725 H 0.9155 0.47872 0.34256 0.0
C3726 C 0.91846 0.46174 0.3292 0.0
C3727 C 0.92077 0.45739 0.3158 0.0
C3728 C 0.9133 0.50964 0.31477 0.0
C3729 C 0.91722 0.48513 0.32154 0.0
C3730 C 0.91474 0.52354 0.31762 0.0
C3731 C 0.92031 0.52774 0.33005 0.0
C3732 C 0.9172 0.49996 0.32453 0.0
C3733 C 0.92373 0.51777 0.33963 0.0
C3734 C 0.9168 0.47555 0.33211 0.0
C3735 C 0.92062 0.46727 0.30546 0.0
N3736 N 0.92211 0.50437 0.33669 0.0
N3737 N 0.91892 0.48066 0.30854 0.0
H3738 H 0.47756 0.9132 0.30858 0.0
H3739 H 0.5538 0.9178 0.33719 0.0
H3740 H 0.48765 0.92484 0.34954 0.0
H3741 H 0.54405 0.92358 0.29483 0.0
H3742 H 0.52968 0.91408 0.34194 0.0
H3743 H 0.50202 0.91073 0.3036 0.0
C3744 C 0.48491 0.91478 0.31663 0.0
C3745 C 0.48065 0.91909 0.32953 0.0
C3746 C 0.53286 0.916 0.33158 0.0
C3747 C 0.50846 0.91641 0.32393 0.0
C3748 C 0.54665 0.91807 0.32883 0.0
C3749 C 0.55101 0.92115 0.3156 0.0
C3750 C 0.5233 0.91683 0.32101 0.0
C3751 C 0.54118 0.92138 0.30522 0.0
C3752 C 0.49883 0.91354 0.31375 0.0
C3753 C 0.49056 0.92141 0.3395 0.0
N3754 N 0.52779 0.91931 0.30814 0.0
N3755 N 0.50397 0.92005 0.3365 0.0
H3756 H 0.09061 0.55447 0.33786 0.0
H3757 H 0.09619 0.47835 0.30909 0.0
H3758 H 0.08626 0.54499 0.29526 0.0
H3759 H 0.08238 0.48826 0.34942 0.0
H3760 H 0.09884 0.50284 0.30434 0.0
H3761 H 0.09392 0.53028 0.34259 0.0
C3762 C 0.09058 0.54736 0.32946 0.0
C3763 C 0.08802 0.55182 0.31614 0.0
C3764 C 0.09549 0.4996 0.31431 0.0
C3765 C 0.09188 0.52404 0.32153 0.0
C3766 C 0.09414 0.48566 0.31706 0.0
C3767 C 0.08918 0.48134 0.3297 0.0
C3768 C 0.09209 0.50918 0.32438 0.0
C3769 C 0.0863 0.49121 0.33958 0.0
C3770 C 0.09241 0.53353 0.33219 0.0
C3771 C 0.08806 0.54204 0.3057 0.0
N3772 N 0.08779 0.50463 0.33672 0.0
N3773 N 0.0899 0.52862 0.30862 0.0
H3774 H 0.52105 0.08186 0.34979 0.0
H3775 H 0.46353 0.08625 0.2945 0.0
H3776 H 0.52988 0.09643 0.30949 0.0
H3777 H 0.45491 0.09011 0.33732 0.0
H3778 H 0.48773 0.08972 0.29934 0.0
H3779 H 0.49676 0.08459 0.34531 0.0
C3780 C 0.51784 0.08592 0.34007 0.0
C3781 C 0.52745 0.08907 0.33005 0.0
C3782 C 0.48051 0.09001 0.30764 0.0
C3783 C 0.49962 0.09176 0.32463 0.0
C3784 C 0.46669 0.08799 0.3049 0.0
C3785 C 0.45712 0.0878 0.31553 0.0
C3786 C 0.48488 0.09157 0.32113 0.0
C3787 C 0.46186 0.09016 0.32879 0.0
C3788 C 0.50398 0.08745 0.3375 0.0
C3789 C 0.52278 0.0941 0.31755 0.0
N3790 N 0.47539 0.09172 0.33122 0.0
N3791 N 0.50915 0.09506 0.31509 0.0
H3792 H 0.6589 0.92485 0.48727 0.0
H3793 H 0.71483 0.92367 0.54459 0.0
H3794 H 0.70042 0.9145 0.47821 0.0
H3795 H 0.67223 0.91799 0.55329 0.0
H3796 H 0.7101 0.92006 0.52041 0.0
H3797 H 0.6636 0.92196 0.5115 0.0
C3798 C 0.66894 0.92162 0.49041 0.0
C3799 C 0.67923 0.91969 0.48076 0.0
C3800 C 0.70182 0.91941 0.52764 0.0
C3801 C 0.68489 0.91693 0.50854 0.0
C3802 C 0.7045 0.92151 0.54146 0.0
C3803 C 0.6939 0.92124 0.55105 0.0
C3804 C 0.68841 0.91726 0.52329 0.0
C3805 C 0.68074 0.91832 0.54633 0.0
C3806 C 0.67165 0.92003 0.50424 0.0
C3807 C 0.69215 0.9158 0.48535 0.0
N3808 N 0.67835 0.91666 0.5328 0.0
N3809 N 0.69469 0.91477 0.49895 0.0
H3810 H 0.69956 0.0969 0.5303 0.0
H3811 H 0.67156 0.09052 0.45406 0.0
H3812 H 0.66013 0.08084 0.52014 0.0
H3813 H 0.71418 0.08679 0.46363 0.0
H3814 H 0.66667 0.09352 0.47826 0.0
H3815 H 0.70439 0.09963 0.50583 0.0
C3816 C 0.6918 0.09432 0.52294 0.0
C3817 C 0.6794 0.08871 0.52719 0.0
C3818 C 0.67711 0.09222 0.47502 0.0
C3819 C 0.68481 0.09179 0.49938 0.0
C3820 C 0.67993 0.09057 0.46119 0.0
C3821 C 0.6933 0.08827 0.45676 0.0
C3822 C 0.68773 0.09179 0.48454 0.0
C3823 C 0.70371 0.0884 0.46657 0.0
C3824 C 0.6946 0.09574 0.50901 0.0
C3825 C 0.6698 0.08523 0.51725 0.0
N3826 N 0.70071 0.09008 0.47999 0.0
N3827 N 0.67268 0.08684 0.50384 0.0
H3828 H 0.92393 0.71427 0.46465 0.0
H3829 H 0.92522 0.65808 0.52164 0.0
H3830 H 0.91838 0.67172 0.45565 0.0
H3831 H 0.91411 0.69937 0.53088 0.0
H3832 H 0.92249 0.66291 0.49742 0.0
H3833 H 0.9202 0.70938 0.48878 0.0
C3834 C 0.92177 0.70392 0.4677 0.0
C3835 C 0.92157 0.69338 0.45804 0.0
C3836 C 0.92035 0.67087 0.50471 0.0
C3837 C 0.91747 0.6877 0.48575 0.0
C3838 C 0.92186 0.6681 0.51853 0.0
C3839 C 0.91968 0.67829 0.52824 0.0
C3840 C 0.91707 0.68409 0.50047 0.0
C3841 C 0.91562 0.69118 0.5237 0.0
C3842 C 0.9196 0.70115 0.48149 0.0
C3843 C 0.91865 0.68019 0.46266 0.0
N3844 N 0.91468 0.69379 0.51011 0.0
N3845 N 0.91693 0.67771 0.47617 0.0
H3846 H 0.33699 0.91794 0.45525 0.0
H3847 H 0.3083 0.91349 0.53147 0.0
H3848 H 0.29459 0.92364 0.46492 0.0
H3849 H 0.34919 0.92538 0.52137 0.0
H3850 H 0.30335 0.91094 0.50702 0.0
H3851 H 0.3417 0.91436 0.47939 0.0
C3852 C 0.32862 0.91823 0.46239 0.0
C3853 C 0.31538 0.92124 0.45799 0.0
C3854 C 0.31348 0.91382 0.51021 0.0
C3855 C 0.32075 0.91708 0.48573 0.0
C3856 C 0.31633 0.91512 0.52413 0.0
C3857 C 0.3292 0.91952 0.52838 0.0
C3858 C 0.32365 0.91674 0.50058 0.0
C3859 C 0.33917 0.92189 0.51847 0.0
C3860 C 0.33134 0.91624 0.47619 0.0
C3861 C 0.30498 0.92149 0.46782 0.0
N3862 N 0.3362 0.92047 0.50506 0.0
N3863 N 0.30789 0.9195 0.48121 0.0
H3864 H 0.09652 0.30885 0.53077 0.0
H3865 H 0.09059 0.33742 0.45467 0.0
H3866 H 0.08291 0.34923 0.52086 0.0
H3867 H 0.08561 0.29492 0.46425 0.0
H3868 H 0.09416 0.34215 0.47881 0.0
H3869 H 0.09886 0.30398 0.50627 0.0
C3870 C 0.09443 0.31679 0.52345 0.0
C3871 C 0.08961 0.32949 0.52778 0.0
C3872 C 0.09245 0.33177 0.47559 0.0
C3873 C 0.0922 0.32403 0.49994 0.0
C3874 C 0.09046 0.32903 0.46179 0.0
C3875 C 0.08765 0.31575 0.45737 0.0
C3876 C 0.09183 0.32114 0.4851 0.0
C3877 C 0.0876 0.30533 0.46717 0.0
C3878 C 0.09562 0.31398 0.50951 0.0
C3879 C 0.08671 0.33934 0.51791 0.0
N3880 N 0.0896 0.30825 0.48056 0.0
N3881 N 0.08805 0.33642 0.50448 0.0
H3882 H 0.29496 0.08621 0.54602 0.0
H3883 H 0.35051 0.08142 0.48881 0.0
H3884 H 0.33773 0.09013 0.55483 0.0
H3885 H 0.31037 0.09623 0.47971 0.0
H3886 H 0.3459 0.08426 0.51306 0.0
H3887 H 0.29993 0.08957 0.52183 0.0
C3888 C 0.30538 0.08794 0.54291 0.0
C3889 C 0.31595 0.0878 0.55253 0.0
C3890 C 0.33816 0.08715 0.50579 0.0
C3891 C 0.3217 0.09145 0.52479 0.0
C3892 C 0.3408 0.08555 0.49195 0.0
C3893 C 0.33086 0.08874 0.48228 0.0
C3894 C 0.32529 0.09156 0.51007 0.0
C3895 C 0.31837 0.09386 0.48687 0.0
C3896 C 0.30819 0.0899 0.5291 0.0
C3897 C 0.32924 0.09016 0.54785 0.0
N3898 N 0.31583 0.09489 0.50047 0.0
N3899 N 0.33175 0.09165 0.53432 0.0
H3900 H 0.91302 0.30896 0.47767 0.0
H3901 H 0.91892 0.33727 0.55388 0.0
H3902 H 0.92681 0.34927 0.48769 0.0
H3903 H 0.92434 0.29486 0.54411 0.0
H3904 H 0.91529 0.34205 0.52975 0.0
H3905 H 0.91072 0.30402 0.50216 0.0
C3906 C 0.91515 0.31688 0.48501 0.0
C3907 C 0.92001 0.32957 0.48072 0.0
C3908 C 0.9171 0.33167 0.53293 0.0
C3909 C 0.91746 0.32403 0.50855 0.0
C3910 C 0.91912 0.32891 0.54672 0.0
C3911 C 0.92208 0.31564 0.55107 0.0
C3912 C 0.91784 0.32109 0.52338 0.0
C3913 C 0.92223 0.30526 0.54123 0.0
C3914 C 0.91399 0.31402 0.49895 0.0
C3915 C 0.92298 0.33938 0.49062 0.0
N3916 N 0.9202 0.30821 0.52785 0.0
N3917 N 0.92165 0.33642 0.50404 0.0
H3918 H 0.08228 0.65915 0.48851 0.0
H3919 H 0.086 0.71512 0.54542 0.0
H3920 H 0.09606 0.69962 0.47915 0.0
H3921 H 0.09073 0.67247 0.5544 0.0
H3922 H 0.0894 0.71011 0.52125 0.0
H3923 H 0.08508 0.66396 0.51272 0.0
C3924 C 0.08618 0.66898 0.49159 0.0
C3925 C 0.08909 0.67895 0.48185 0.0
C3926 C 0.0899 0.7019 0.52855 0.0
C3927 C 0.09186 0.68474 0.5096 0.0
C3928 C 0.08791 0.70473 0.54236 0.0
C3929 C 0.08798 0.69419 0.55201 0.0
C3930 C 0.0917 0.6884 0.52429 0.0
C3931 C 0.09058 0.68094 0.54738 0.0
C3932 C 0.08775 0.67174 0.5054 0.0
C3933 C 0.09392 0.69159 0.48636 0.0
N3934 N 0.0921 0.6784 0.53387 0.0
N3935 N 0.09492 0.69423 0.49994 0.0
H3936 H 0.05605 0.15275 0.52394 0.0
H3937 H 0.10875 0.18984 0.47853 0.0
H3938 H 0.09031 0.17471 0.54027 0.0
H3939 H 0.08123 0.15966 0.46271 0.0
H3940 H 0.10517 0.18091 0.50135 0.0
H3941 H 0.06763 0.15137 0.50208 0.0
C3942 C 0.06614 0.15705 0.523 0.0
C3943 C 0.07207 0.1642 0.53383 0.0
C3944 C 0.10015 0.17598 0.49289 0.0
C3945 C 0.0853 0.16282 0.50877 0.0
C3946 C 0.10219 0.18109 0.47986 0.0
C3947 C 0.09508 0.1756 0.46882 0.0
C3948 C 0.0906 0.16557 0.49493 0.0
C3949 C 0.08682 0.16422 0.47102 0.0
C3950 C 0.07277 0.15622 0.51051 0.0
C3951 C 0.08526 0.16931 0.53213 0.0
N3952 N 0.08451 0.15979 0.48391 0.0
N3953 N 0.0913 0.16882 0.51972 0.0
H3954 H 0.81794 0.10755 0.47759 0.0
H3955 H 0.83795 0.09081 0.54134 0.0
H3956 H 0.84907 0.08081 0.46233 0.0
H3957 H 0.85203 0.05439 0.52132 0.0
H3958 H 0.83918 0.10282 0.51967 0.0
H3959 H 0.82645 0.10422 0.50049 0.0
C3960 C 0.82687 0.10128 0.47907 0.0
C3961 C 0.83271 0.09429 0.46813 0.0
C3962 C 0.84202 0.09221 0.52002 0.0
C3963 C 0.8426 0.09036 0.4944 0.0
C3964 C 0.84145 0.08537 0.53244 0.0
C3965 C 0.84439 0.07142 0.53307 0.0
C3966 C 0.8454 0.08499 0.50816 0.0
C3967 C 0.84922 0.06503 0.52126 0.0
C3968 C 0.83184 0.09946 0.49218 0.0
C3969 C 0.84427 0.08634 0.47054 0.0
N3970 N 0.84934 0.07179 0.50925 0.0
N3971 N 0.84861 0.08427 0.4835 0.0
H3972 H 0.95654 0.85325 0.52307 0.0
H3973 H 0.90121 0.8205 0.47784 0.0
H3974 H 0.91987 0.83575 0.53959 0.0
H3975 H 0.93072 0.84858 0.46177 0.0
H3976 H 0.90542 0.82934 0.5006 0.0
H3977 H 0.94541 0.85522 0.50104 0.0
C3978 C 0.94605 0.85005 0.52213 0.0
C3979 C 0.93925 0.84398 0.53309 0.0
C3980 C 0.91075 0.83385 0.4921 0.0
C3981 C 0.92649 0.84606 0.50784 0.0
C3982 C 0.90834 0.8288 0.47911 0.0
C3983 C 0.91579 0.83371 0.46802 0.0
C3984 C 0.92101 0.84358 0.49404 0.0
C3985 C 0.92484 0.8445 0.47012 0.0
C3986 C 0.93967 0.85124 0.50954 0.0
C3987 C 0.92559 0.84029 0.53136 0.0
N3988 N 0.92748 0.84885 0.48297 0.0
N3989 N 0.91976 0.84108 0.51888 0.0
H3990 H 0.15919 0.93038 0.46121 0.0
H3991 H 0.17237 0.91976 0.5403 0.0
H3992 H 0.188 0.90222 0.47836 0.0
H3993 H 0.15571 0.95627 0.5226 0.0
H3994 H 0.17039 0.90852 0.51823 0.0
H3995 H 0.15038 0.93487 0.48413 0.0
C3996 C 0.16333 0.92481 0.46974 0.0
C3997 C 0.17447 0.91612 0.46801 0.0
C3998 C 0.1669 0.9189 0.51928 0.0
C3999 C 0.16455 0.92117 0.49405 0.0
C4000 C 0.16799 0.92532 0.53188 0.0
C4001 C 0.16457 0.9391 0.53319 0.0
C4002 C 0.16228 0.92629 0.50799 0.0
C4003 C 0.15882 0.94574 0.52195 0.0
C4004 C 0.15837 0.92742 0.4828 0.0
C4005 C 0.17954 0.90918 0.47936 0.0
N4006 N 0.15806 0.93934 0.50975 0.0
N4007 N 0.17466 0.91198 0.49194 0.0
H4008 H 0.09013 0.83481 0.4689 0.0
H4009 H 0.07971 0.84994 0.54766 0.0
H4010 H 0.05515 0.8551 0.4859 0.0
H4011 H 0.10631 0.81931 0.53113 0.0
H4012 H 0.07608 0.85877 0.5246 0.0
H4013 H 0.10135 0.83631 0.49101 0.0
C4014 C 0.08493 0.83989 0.47717 0.0
C4015 C 0.07152 0.84447 0.47566 0.0
C4016 C 0.08299 0.85034 0.5261 0.0
C4017 C 0.08428 0.84617 0.50094 0.0
C4018 C 0.08511 0.84536 0.53923 0.0
C4019 C 0.09308 0.83373 0.54118 0.0
C4020 C 0.08902 0.84369 0.51498 0.0
C4021 C 0.09985 0.82814 0.52996 0.0
C4022 C 0.09133 0.8407 0.4898 0.0
C4023 C 0.06536 0.85109 0.48671 0.0
N4024 N 0.09753 0.83306 0.51731 0.0
N4025 N 0.07169 0.85153 0.49895 0.0
H4026 H 0.15326 0.05484 0.48597 0.0
H4027 H 0.18951 0.10805 0.53148 0.0
H4028 H 0.1744 0.08967 0.46974 0.0
H4029 H 0.16003 0.07983 0.54734 0.0
H4030 H 0.18055 0.10439 0.50869 0.0
H4031 H 0.1518 0.06623 0.50792 0.0
C4032 C 0.15736 0.06501 0.48695 0.0
C4033 C 0.16431 0.07116 0.47611 0.0
C4034 C 0.17577 0.09922 0.51715 0.0
C4035 C 0.16283 0.08418 0.50128 0.0
C4036 C 0.18091 0.10132 0.53016 0.0
C4037 C 0.17562 0.09405 0.5412 0.0
C4038 C 0.16556 0.08946 0.51513 0.0
C4039 C 0.16441 0.08555 0.53903 0.0
C4040 C 0.15649 0.07153 0.49949 0.0
C4041 C 0.16916 0.08445 0.47788 0.0
N4042 N 0.15997 0.0832 0.52616 0.0
N4043 N 0.16862 0.09038 0.49033 0.0
H4044 H 0.90103 0.19047 0.53164 0.0
H4045 H 0.95291 0.1526 0.486 0.0
H4046 H 0.92793 0.15967 0.54728 0.0
H4047 H 0.919 0.17516 0.4698 0.0
H4048 H 0.94134 0.15134 0.50787 0.0
H4049 H 0.9044 0.18157 0.50877 0.0
C4050 C 0.90742 0.18161 0.53025 0.0
C4051 C 0.91442 0.17592 0.54126 0.0
C4052 C 0.93627 0.15629 0.49946 0.0
C4053 C 0.91865 0.16591 0.5151 0.0
C4054 C 0.94289 0.15705 0.48697 0.0
C4055 C 0.93707 0.16433 0.47618 0.0
C4056 C 0.92386 0.1631 0.50125 0.0
C4057 C 0.92397 0.16964 0.47791 0.0
C4058 C 0.90933 0.17651 0.5172 0.0
C4059 C 0.92244 0.16439 0.539 0.0
N4060 N 0.91795 0.16922 0.49033 0.0
N4061 N 0.92463 0.15996 0.52609 0.0
H4062 H 0.85435 0.95693 0.48586 0.0
H4063 H 0.85083 0.9273 0.54853 0.0
H4064 H 0.83615 0.9204 0.4698 0.0
H4065 H 0.81772 0.90565 0.52965 0.0
H4066 H 0.86035 0.93182 0.52593 0.0
H4067 H 0.85602 0.94612 0.508 0.0
C4068 C 0.85103 0.94649 0.48691 0.0
C4069 C 0.84481 0.93967 0.47604 0.0
C4070 C 0.85107 0.92598 0.52676 0.0
C4071 C 0.8468 0.92713 0.50141 0.0
C4072 C 0.84573 0.92326 0.53964 0.0
C4073 C 0.83329 0.91643 0.54088 0.0
C4074 C 0.84386 0.92181 0.51514 0.0
C4075 C 0.82716 0.91128 0.52909 0.0
C4076 C 0.85213 0.94024 0.49957 0.0
C4077 C 0.84087 0.9261 0.47794 0.0
N4078 N 0.83241 0.91422 0.51671 0.0
N4079 N 0.84158 0.92041 0.49049 0.0
H4080 H 0.4778 0.10708 0.19042 0.0
H4081 H 0.52328 0.05497 0.15262 0.0
H4082 H 0.46192 0.07985 0.16001 0.0
H4083 H 0.53957 0.08927 0.17456 0.0
H4084 H 0.50132 0.06637 0.15154 0.0
H4085 H 0.5006 0.10363 0.18139 0.0
C4086 C 0.47912 0.1006 0.18162 0.0
C4087 C 0.46806 0.09354 0.17608 0.0
C4088 C 0.50976 0.07156 0.15631 0.0
C4089 C 0.49415 0.08922 0.16591 0.0
C4090 C 0.52231 0.06503 0.15698 0.0
C4091 C 0.53317 0.07102 0.16403 0.0
C4092 C 0.50799 0.08404 0.16299 0.0
C4093 C 0.53141 0.08418 0.16922 0.0
C4094 C 0.49213 0.09863 0.17644 0.0
C4095 C 0.47024 0.08539 0.16461 0.0
N4096 N 0.51895 0.09011 0.16889 0.0
N4097 N 0.48311 0.08316 0.16011 0.0
H4098 H 0.90069 0.47856 0.19033 0.0
H4099 H 0.91878 0.54202 0.17065 0.0
H4100 H 0.92769 0.4629 0.15961 0.0
H4101 H 0.95512 0.52138 0.15728 0.0
H4102 H 0.9064 0.52056 0.1691 0.0
H4103 H 0.90444 0.50139 0.18181 0.0
C4104 C 0.9071 0.47994 0.18148 0.0
C4105 C 0.91404 0.4689 0.17576 0.0
C4106 C 0.91708 0.52074 0.16648 0.0
C4107 C 0.91848 0.4951 0.16589 0.0
C4108 C 0.92413 0.53303 0.16723 0.0
C4109 C 0.93815 0.53341 0.1646 0.0
C4110 C 0.92415 0.50876 0.16321 0.0
C4111 C 0.94443 0.5215 0.15985 0.0
C4112 C 0.90917 0.49301 0.17651 0.0
C4113 C 0.92219 0.47118 0.16431 0.0
N4114 N 0.93744 0.50962 0.15955 0.0
N4115 N 0.9245 0.4841 0.15998 0.0
H4116 H 0.46878 0.91896 0.17277 0.0
H4117 H 0.54789 0.92935 0.15935 0.0
H4118 H 0.48656 0.95535 0.1559 0.0
H4119 H 0.53075 0.90158 0.18857 0.0
H4120 H 0.52496 0.93378 0.15056 0.0
H4121 H 0.49084 0.90768 0.17087 0.0
C4122 C 0.47722 0.92448 0.16836 0.0
C4123 C 0.47593 0.93824 0.16485 0.0
C4124 C 0.52629 0.92643 0.15864 0.0
C4125 C 0.50112 0.92539 0.16265 0.0
C4126 C 0.53935 0.92385 0.16359 0.0
C4127 C 0.54109 0.91529 0.17483 0.0
C4128 C 0.51504 0.92027 0.16493 0.0
C4129 C 0.52974 0.90844 0.18002 0.0
C4130 C 0.48981 0.91804 0.16731 0.0
C4131 C 0.48719 0.94483 0.15906 0.0
N4132 N 0.51716 0.91121 0.17515 0.0
N4133 N 0.49938 0.93842 0.15834 0.0
H4134 H 0.08029 0.54836 0.15994 0.0
H4135 H 0.08949 0.46908 0.17325 0.0
H4136 H 0.10752 0.53084 0.18942 0.0
H4137 H 0.05349 0.48735 0.15611 0.0
H4138 H 0.10104 0.49102 0.17159 0.0
H4139 H 0.07561 0.52549 0.15111 0.0
C4140 C 0.08562 0.53975 0.16423 0.0
C4141 C 0.0941 0.54138 0.17556 0.0
C4142 C 0.09071 0.49012 0.16792 0.0
C4143 C 0.08882 0.51539 0.1656 0.0
C4144 C 0.08411 0.47761 0.16883 0.0
C4145 C 0.07038 0.47649 0.16516 0.0
C4146 C 0.08355 0.50153 0.16323 0.0
C4147 C 0.06398 0.48785 0.15938 0.0
C4148 C 0.08289 0.52672 0.15926 0.0
C4149 C 0.10073 0.52993 0.18082 0.0
N4150 N 0.07055 0.49997 0.15879 0.0
N4151 N 0.09782 0.51738 0.17591 0.0
H4152 H 0.47802 0.90167 0.81803 0.0
H4153 H 0.54156 0.91867 0.83827 0.0
H4154 H 0.4625 0.92837 0.84907 0.0
H4155 H 0.52132 0.95507 0.85208 0.0
H4156 H 0.51995 0.90653 0.83958 0.0
H4157 H 0.50085 0.90503 0.82671 0.0
C4158 C 0.47943 0.90793 0.82698 0.0
C4159 C 0.46844 0.9149 0.83275 0.0
C4160 C 0.52025 0.91716 0.84235 0.0
C4161 C 0.49463 0.91889 0.84282 0.0
C4162 C 0.53263 0.92408 0.84174 0.0
C4163 C 0.53316 0.93805 0.84455 0.0
C4164 C 0.50835 0.92434 0.84566 0.0
C4165 C 0.52132 0.94441 0.84936 0.0
C4166 C 0.4925 0.90977 0.83204 0.0
C4167 C 0.47075 0.92285 0.84433 0.0
N4168 N 0.50935 0.93757 0.84951 0.0
N4169 N 0.48367 0.92495 0.84876 0.0
H4170 H 0.05332 0.52328 0.85344 0.0
H4171 H 0.10749 0.47774 0.81905 0.0
H4172 H 0.08917 0.53968 0.83422 0.0
H4173 H 0.07915 0.46197 0.84849 0.0
H4174 H 0.10348 0.50061 0.82768 0.0
H4175 H 0.06458 0.50128 0.85516 0.0
C4176 C 0.06367 0.52232 0.84981 0.0
C4177 C 0.07019 0.53323 0.84335 0.0
C4178 C 0.09837 0.49216 0.83252 0.0
C4179 C 0.08308 0.50803 0.84513 0.0
C4180 C 0.10066 0.47911 0.82758 0.0
C4181 C 0.09347 0.46806 0.83296 0.0
C4182 C 0.0885 0.49421 0.84262 0.0
C4183 C 0.08483 0.47029 0.84405 0.0
C4184 C 0.07012 0.50975 0.85085 0.0
C4185 C 0.08368 0.53149 0.83908 0.0
N4186 N 0.08229 0.48319 0.8483 0.0
N4187 N 0.08956 0.51902 0.83975 0.0
H4188 H 0.48518 0.05565 0.85659 0.0
H4189 H 0.53042 0.10835 0.8193 0.0
H4190 H 0.46878 0.09018 0.83514 0.0
H4191 H 0.54647 0.08067 0.84917 0.0
H4192 H 0.50768 0.10476 0.82843 0.0
H4193 H 0.50712 0.06709 0.85777 0.0
C4194 C 0.48611 0.06577 0.85237 0.0
C4195 C 0.47523 0.07181 0.84541 0.0
C4196 C 0.51617 0.09969 0.83324 0.0
C4197 C 0.50039 0.08488 0.84655 0.0
C4198 C 0.52915 0.10174 0.82801 0.0
C4199 C 0.54024 0.0946 0.83336 0.0
C4200 C 0.51421 0.09012 0.84364 0.0
C4201 C 0.53813 0.08628 0.84472 0.0
C4202 C 0.49866 0.07232 0.85308 0.0
C4203 C 0.47695 0.08504 0.84039 0.0
N4204 N 0.52528 0.08397 0.84927 0.0
N4205 N 0.4894 0.09099 0.84076 0.0
H4206 H 0.95663 0.48722 0.85317 0.0
H4207 H 0.90096 0.5326 0.82099 0.0
H4208 H 0.92013 0.47071 0.83532 0.0
H4209 H 0.93051 0.54846 0.84913 0.0
H4210 H 0.90536 0.50974 0.82947 0.0
H4211 H 0.94539 0.50919 0.85529 0.0
C4212 C 0.94615 0.48815 0.84991 0.0
C4213 C 0.93942 0.47721 0.84372 0.0
C4214 C 0.91066 0.51821 0.83408 0.0
C4215 C 0.92655 0.50239 0.84598 0.0
C4216 C 0.90814 0.53126 0.82923 0.0
C4217 C 0.91554 0.54232 0.83426 0.0
C4218 C 0.92097 0.5162 0.84372 0.0
C4219 C 0.92465 0.54013 0.84497 0.0
C4220 C 0.93972 0.5007 0.85119 0.0
C4221 C 0.92578 0.47893 0.83996 0.0
N4222 N 0.9274 0.52724 0.84911 0.0
N4223 N 0.9199 0.49138 0.84085 0.0
H4224 H 0.18975 0.47741 0.10791 0.0
H4225 H 0.15329 0.52388 0.05562 0.0
H4226 H 0.15971 0.46225 0.07989 0.0
H4227 H 0.17556 0.53951 0.09 0.0
H4228 H 0.15169 0.50189 0.06691 0.0
H4229 H 0.18111 0.50036 0.10454 0.0
C4230 C 0.1811 0.47892 0.10127 0.0
C4231 C 0.17557 0.46802 0.09397 0.0
C4232 C 0.15666 0.5102 0.07214 0.0
C4233 C 0.16586 0.49429 0.08974 0.0
C4234 C 0.15761 0.52276 0.06567 0.0
C4235 C 0.1649 0.53343 0.07172 0.0
C4236 C 0.16327 0.50822 0.08462 0.0
C4237 C 0.17004 0.5315 0.08486 0.0
C4238 C 0.17615 0.49202 0.09935 0.0
C4239 C 0.1643 0.47044 0.08562 0.0
N4240 N 0.16942 0.51902 0.09074 0.0
N4241 N 0.16002 0.4834 0.08345 0.0
H4242 H 0.15531 0.48543 0.95552 0.0
H4243 H 0.18911 0.53113 0.90114 0.0
H4244 H 0.17427 0.46917 0.91947 0.0
H4245 H 0.1601 0.5468 0.92995 0.0
H4246 H 0.18045 0.50826 0.90509 0.0
H4247 H 0.15339 0.50744 0.94431 0.0
C4248 C 0.15884 0.48643 0.94514 0.0
C4249 C 0.1653 0.47555 0.93855 0.0
C4250 C 0.1757 0.51669 0.91032 0.0
C4251 C 0.16329 0.50077 0.92572 0.0
C4252 C 0.18066 0.52975 0.90806 0.0
C4253 C 0.17542 0.54076 0.9154 0.0
C4254 C 0.16574 0.51461 0.92032 0.0
C4255 C 0.16443 0.53851 0.92416 0.0
C4256 C 0.15769 0.499 0.93872 0.0
C4257 C 0.16943 0.47734 0.92502 0.0
N4258 N 0.16018 0.52561 0.92667 0.0
N4259 N 0.16865 0.48982 0.91917 0.0
H4260 H 0.46027 0.15958 0.93144 0.0
H4261 H 0.53937 0.17275 0.9204 0.0
H4262 H 0.47728 0.1885 0.90327 0.0
H4263 H 0.52186 0.15617 0.95705 0.0
H4264 H 0.5172 0.17091 0.90934 0.0
H4265 H 0.48324 0.15088 0.93588 0.0
C4266 C 0.46879 0.16377 0.92586 0.0
C4267 C 0.467 0.1749 0.91717 0.0
C4268 C 0.51831 0.1674 0.91971 0.0
C4269 C 0.49309 0.16509 0.92216 0.0
C4270 C 0.53097 0.16842 0.92603 0.0
C4271 C 0.53237 0.16496 0.93979 0.0
C4272 C 0.50705 0.16283 0.92719 0.0
C4273 C 0.52114 0.15928 0.94652 0.0
C4274 C 0.48187 0.15887 0.92845 0.0
C4275 C 0.47832 0.18003 0.91022 0.0
N4276 N 0.50889 0.15859 0.94022 0.0
N4277 N 0.49092 0.17521 0.91299 0.0
H4278 H 0.83428 0.5415 0.91861 0.0
H4279 H 0.84976 0.46269 0.92777 0.0
H4280 H 0.85501 0.52409 0.95311 0.0
H4281 H 0.81852 0.47944 0.90204 0.0
H4282 H 0.85863 0.48572 0.93147 0.0
H4283 H 0.8357 0.51955 0.90706 0.0
C4284 C 0.83944 0.53318 0.92362 0.0
C4285 C 0.84418 0.53451 0.937 0.0
C4286 C 0.85005 0.48428 0.92473 0.0
C4287 C 0.84579 0.50943 0.92387 0.0
C4288 C 0.84504 0.47117 0.92257 0.0
C4289 C 0.83324 0.46927 0.91483 0.0
C4290 C 0.84325 0.49545 0.91898 0.0
C4291 C 0.82749 0.48055 0.90831 0.0
C4292 C 0.84021 0.52064 0.91704 0.0
C4293 C 0.8509 0.52341 0.94293 0.0
N4294 N 0.83244 0.49319 0.91068 0.0
N4295 N 0.85129 0.51126 0.93642 0.0
H4296 H 0.46878 0.83547 0.91881 0.0
H4297 H 0.54775 0.84961 0.92931 0.0
H4298 H 0.48632 0.8526 0.95518 0.0
H4299 H 0.53094 0.82016 0.90158 0.0
H4300 H 0.52472 0.85819 0.93368 0.0
H4301 H 0.49085 0.83749 0.90757 0.0
C4302 C 0.47717 0.83996 0.92434 0.0
C4303 C 0.47581 0.84351 0.93808 0.0
C4304 C 0.52615 0.8501 0.92635 0.0
C4305 C 0.50101 0.84587 0.92528 0.0
C4306 C 0.53926 0.84528 0.9238 0.0
C4307 C 0.54113 0.83403 0.91527 0.0
C4308 C 0.51497 0.84369 0.92019 0.0
C4309 C 0.52984 0.82871 0.90841 0.0
C4310 C 0.48976 0.84108 0.91792 0.0
C4311 C 0.48701 0.8494 0.94468 0.0
N4312 N 0.51721 0.83347 0.91115 0.0
N4313 N 0.4992 0.8502 0.93829 0.0
H4314 H 0.8378 0.46852 0.09104 0.0
H4315 H 0.81928 0.53236 0.10902 0.0
H4316 H 0.85119 0.48872 0.05447 0.0
H4317 H 0.84964 0.54742 0.08128 0.0
H4318 H 0.8275 0.5094 0.10538 0.0
H4319 H 0.83972 0.49003 0.10326 0.0
C4320 C 0.84129 0.47742 0.0856 0.0
C4321 C 0.84383 0.47691 0.07157 0.0
C4322 C 0.8328 0.51768 0.10046 0.0
C4323 C 0.84564 0.50164 0.08539 0.0
C4324 C 0.828 0.53082 0.10248 0.0
C4325 C 0.83368 0.54172 0.09529 0.0
C4326 C 0.84322 0.51538 0.09097 0.0
C4327 C 0.84497 0.53924 0.08697 0.0
C4328 C 0.84226 0.48975 0.09256 0.0
C4329 C 0.84868 0.48871 0.06517 0.0
N4330 N 0.84913 0.52625 0.08473 0.0
N4331 N 0.84919 0.50063 0.07207 0.0
H4332 H 0.47772 0.81886 0.10707 0.0
H4333 H 0.52348 0.85601 0.05466 0.0
H4334 H 0.462 0.84889 0.07936 0.0
H4335 H 0.53958 0.83433 0.0892 0.0
H4336 H 0.50148 0.85724 0.06598 0.0
H4337 H 0.50054 0.82781 0.10358 0.0
C4338 C 0.47908 0.82757 0.10047 0.0
C4339 C 0.46806 0.83302 0.0933 0.0
C4340 C 0.50989 0.85248 0.07124 0.0
C4341 C 0.49418 0.84309 0.08894 0.0
C4342 C 0.52246 0.85174 0.06476 0.0
C4343 C 0.53328 0.84472 0.07084 0.0
C4344 C 0.50805 0.84592 0.08376 0.0
C4345 C 0.53146 0.83965 0.08403 0.0
C4346 C 0.49211 0.8327 0.09848 0.0
C4347 C 0.47029 0.84436 0.085 0.0
N4348 N 0.51898 0.84005 0.08992 0.0
N4349 N 0.48318 0.84882 0.08275 0.0
H4350 H 0.53127 0.18738 0.10805 0.0
H4351 H 0.48602 0.1556 0.05201 0.0
H4352 H 0.54737 0.16006 0.07786 0.0
H4353 H 0.46951 0.17256 0.08894 0.0
H4354 H 0.50808 0.15355 0.06309 0.0
H4355 H 0.50851 0.17865 0.1036 0.0
C4356 C 0.53 0.17926 0.10072 0.0
C4357 C 0.5411 0.17454 0.09317 0.0
C4358 C 0.49958 0.15744 0.06888 0.0
C4359 C 0.51508 0.1648 0.08767 0.0
C4360 C 0.48697 0.15866 0.06254 0.0
C4361 C 0.47599 0.1646 0.06945 0.0
C4362 C 0.50128 0.16243 0.08213 0.0
C4363 C 0.47775 0.16813 0.08315 0.0
C4364 C 0.51702 0.17427 0.09817 0.0
C4365 C 0.53901 0.16398 0.08385 0.0
N4366 N 0.49024 0.1673 0.08894 0.0
N4367 N 0.52616 0.1597 0.08108 0.0
H4368 H 0.60726 0.69034 0.97704 0.0
H4369 H 0.55543 0.65294 0.02324 0.0
H4370 H 0.57961 0.66013 0.96152 0.0
H4371 H 0.59008 0.67465 0.03906 0.0
H4372 H 0.56652 0.65179 1.00112 0.0
H4373 H 0.60398 0.68138 0.99989 0.0
C4374 C 0.60072 0.6816 0.97845 0.0
C4375 C 0.5935 0.67609 0.96748 0.0
C4376 C 0.57186 0.65653 0.00949 0.0
C4377 C 0.58939 0.666 0.99363 0.0
C4378 C 0.56551 0.65722 0.02213 0.0
C4379 C 0.57168 0.66423 0.03291 0.0
C4380 C 0.58436 0.66313 0.00755 0.0
C4381 C 0.58485 0.66934 0.03097 0.0
C4382 C 0.59886 0.67646 0.99149 0.0
C4383 C 0.58528 0.6647 0.96977 0.0
N4384 N 0.59061 0.66899 0.01843 0.0
N4385 N 0.58315 0.66023 0.98268 0.0
H4386 H 0.35699 0.55397 0.02389 0.0
H4387 H 0.35095 0.58225 0.96079 0.0
H4388 H 0.33546 0.58888 0.03938 0.0
H4389 H 0.31676 0.60227 0.97956 0.0
H4390 H 0.36079 0.57858 0.98337 0.0
H4391 H 0.35805 0.56469 1.00169 0.0
C4392 C 0.35281 0.56408 0.02271 0.0
C4393 C 0.34582 0.57039 0.03342 0.0
C4394 C 0.35118 0.58384 0.98254 0.0
C4395 C 0.34708 0.58285 0.00796 0.0
C4396 C 0.34564 0.58607 0.96964 0.0
C4397 C 0.33284 0.59219 0.96837 0.0
C4398 C 0.34379 0.58776 0.99414 0.0
C4399 C 0.32648 0.59714 0.98013 0.0
C4400 C 0.35354 0.57029 0.01 0.0
C4401 C 0.34078 0.58356 0.03136 0.0
N4402 N 0.33193 0.59465 0.99252 0.0
N4403 N 0.34118 0.58919 0.01876 0.0
H4404 H 0.41915 0.33522 0.04023 0.0
H4405 H 0.43081 0.3493 0.96139 0.0
H4406 H 0.45546 0.35314 0.02333 0.0
H4407 H 0.40333 0.3194 0.97784 0.0
H4408 H 0.43465 0.35801 0.98448 0.0
H4409 H 0.40831 0.33692 0.01794 0.0
C4410 C 0.42474 0.33982 0.03194 0.0
C4411 C 0.43837 0.34369 0.03354 0.0
C4412 C 0.4275 0.34978 0.98295 0.0
C4413 C 0.42602 0.34566 0.00809 0.0
C4414 C 0.42526 0.34488 0.96981 0.0
C4415 C 0.41695 0.33348 0.96783 0.0
C4416 C 0.42126 0.3433 0.99405 0.0
C4417 C 0.41001 0.32806 0.97903 0.0
C4418 C 0.41855 0.34075 0.01922 0.0
C4419 C 0.44505 0.3497 0.02245 0.0
N4420 N 0.41245 0.33291 0.99169 0.0
N4421 N 0.43888 0.3503 0.01013 0.0
H4422 H 0.65193 0.45345 0.02433 0.0
H4423 H 0.69064 0.40219 0.97858 0.0
H4424 H 0.67427 0.41933 0.04041 0.0
H4425 H 0.66004 0.42923 0.96277 0.0
H4426 H 0.68146 0.40538 1.00136 0.0
H4427 H 0.6511 0.44222 1.00227 0.0
C4428 C 0.65642 0.44345 0.02329 0.0
C4429 C 0.66351 0.43748 0.03413 0.0
C4430 C 0.67651 0.41039 0.99291 0.0
C4431 C 0.66278 0.42467 0.00883 0.0
C4432 C 0.68177 0.40859 0.97991 0.0
C4433 C 0.67622 0.41567 0.96888 0.0
C4434 C 0.66586 0.41966 0.99495 0.0
C4435 C 0.66466 0.42368 0.97107 0.0
C4436 C 0.65591 0.43702 0.01068 0.0
C4437 C 0.66888 0.42441 0.03228 0.0
N4438 N 0.66006 0.42575 0.98394 0.0
N4439 N 0.66871 0.41859 0.01977 0.0
H4440 H 0.57816 0.34965 0.04924 0.0
H4441 H 0.59007 0.33623 0.97035 0.0
H4442 H 0.6063 0.3205 0.0326 0.0
H4443 H 0.5534 0.35325 0.98738 0.0
H4444 H 0.60092 0.33814 0.99261 0.0
H4445 H 0.57415 0.35845 0.02622 0.0
C4446 C 0.58382 0.34543 0.0408 0.0
C4447 C 0.59237 0.33421 0.0427 0.0
C4448 C 0.5906 0.34173 0.99137 0.0
C4449 C 0.58787 0.34412 0.01656 0.0
C4450 C 0.5844 0.34068 0.97867 0.0
C4451 C 0.57068 0.34422 0.97711 0.0
C4452 C 0.58304 0.34642 1.00253 0.0
C4453 C 0.56389 0.35006 0.98822 0.0
C4454 C 0.58149 0.35039 0.0277 0.0
C4455 C 0.59945 0.32903 0.03147 0.0
N4456 N 0.57007 0.35077 1.00053 0.0
N4457 N 0.59691 0.33392 0.01884 0.0
H4458 H 0.65214 0.5552 0.98529 0.0
H4459 H 0.65833 0.58348 0.04836 0.0
H4460 H 0.67388 0.58999 0.96979 0.0
H4461 H 0.69265 0.60326 0.02958 0.0
H4462 H 0.64843 0.5799 0.02578 0.0
H4463 H 0.65109 0.56597 0.00747 0.0
C4464 C 0.65636 0.5653 0.98647 0.0
C4465 C 0.66341 0.57156 0.97575 0.0
C4466 C 0.65809 0.58509 0.02661 0.0
C4467 C 0.66216 0.58407 1.00119 0.0
C4468 C 0.66365 0.58728 0.03951 0.0
C4469 C 0.67651 0.5933 0.04077 0.0
C4470 C 0.6655 0.58897 0.01501 0.0
C4471 C 0.68289 0.59821 0.02901 0.0
C4472 C 0.65564 0.57154 0.99916 0.0
C4473 C 0.66851 0.58471 0.9778 0.0
N4474 N 0.67741 0.59578 0.01662 0.0
N4475 N 0.66811 0.59037 0.99039 0.0
H4476 H 0.40173 0.68901 0.03149 0.0
H4477 H 0.41914 0.66898 0.96786 0.0
H4478 H 0.43049 0.65986 0.04692 0.0
H4479 H 0.45699 0.65912 0.98774 0.0
H4480 H 0.40752 0.66708 0.98971 0.0
H4481 H 0.40552 0.68046 0.00863 0.0
C4482 C 0.40853 0.68047 0.03006 0.0
C4483 C 0.41592 0.6752 0.04101 0.0
C4484 C 0.41836 0.66529 0.98927 0.0
C4485 C 0.42044 0.66535 0.01484 0.0
C4486 C 0.425 0.66626 0.97676 0.0
C4487 C 0.43916 0.66471 0.97604 0.0
C4488 C 0.42598 0.66287 1.0011 0.0
C4489 C 0.44613 0.66084 0.98787 0.0
C4490 C 0.41063 0.67549 0.01699 0.0
C4491 C 0.42462 0.66418 0.03869 0.0
N4492 N 0.4395 0.66028 0.99995 0.0
N4493 N 0.42695 0.65987 0.02577 0.0
H4494 H 0.35448 0.45717 0.98572 0.0
H4495 H 0.35071 0.42808 0.04859 0.0
H4496 H 0.33693 0.42026 0.96981 0.0
H4497 H 0.3182 0.40574 0.02951 0.0
H4498 H 0.36048 0.43251 0.02608 0.0
H4499 H 0.35621 0.44654 0.00794 0.0
C4500 C 0.35132 0.44668 0.98682 0.0
C4501 C 0.34525 0.4397 0.97597 0.0
C4502 C 0.35128 0.42653 0.02684 0.0
C4503 C 0.3473 0.42736 1.00143 0.0
C4504 C 0.34581 0.42387 0.03969 0.0
C4505 C 0.33345 0.41687 0.04082 0.0
C4506 C 0.34429 0.42213 0.01518 0.0
C4507 C 0.32756 0.4115 0.02902 0.0
C4508 C 0.35245 0.44054 0.99953 0.0
C4509 C 0.34151 0.42609 0.97794 0.0
N4510 N 0.33294 0.41439 0.01668 0.0
N4511 N 0.34225 0.42049 0.99053 0.0
H4512 H 0.97787 0.60705 0.68861 0.0
H4513 H 0.02308 0.5521 0.65506 0.0
H4514 H 0.9617 0.57758 0.66055 0.0
H4515 H 0.03957 0.5886 0.67294 0.0
H4516 H 1.001 0.56318 0.65334 0.0
H4517 H 1.00058 0.60296 0.67959 0.0
C4518 C 0.97911 0.59995 0.68028 0.0
C4519 C 0.96801 0.59248 0.67542 0.0
C4520 C 0.00951 0.5689 0.65735 0.0
C4521 C 0.99398 0.5874 0.66534 0.0
C4522 C 0.02212 0.56255 0.65839 0.0
C4523 C 0.03309 0.56931 0.6645 0.0
C4524 C 0.00779 0.582 0.66272 0.0
C4525 C 0.03133 0.58292 0.66837 0.0
C4526 C 0.99206 0.59761 0.67512 0.0
C4527 C 0.97006 0.58348 0.66459 0.0
N4528 N 0.01882 0.58871 0.66772 0.0
N4529 N 0.98289 0.5809 0.66014 0.0
H4530 H 0.41913 0.04044 0.67476 0.0
H4531 H 0.42835 0.96164 0.6592 0.0
H4532 H 0.45366 0.02304 0.65404 0.0
H4533 H 0.40234 0.97836 0.69025 0.0
H4534 H 0.4321 0.98468 0.65037 0.0
H4535 H 0.40756 0.01849 0.67327 0.0
C4536 C 0.42415 0.03212 0.66959 0.0
C4537 C 0.43754 0.03345 0.66488 0.0
C4538 C 0.42529 0.98323 0.65889 0.0
C4539 C 0.42439 0.00838 0.66318 0.0
C4540 C 0.4231 0.97011 0.66388 0.0
C4541 C 0.41527 0.96821 0.67562 0.0
C4542 C 0.41948 0.99439 0.66566 0.0
C4543 C 0.40868 0.97948 0.68133 0.0
C4544 C 0.41755 0.01959 0.66878 0.0
C4545 C 0.44347 0.02235 0.65814 0.0
N4546 N 0.41108 0.99212 0.67641 0.0
N4547 N 0.43695 0.01021 0.6577 0.0
H4548 H 0.03157 0.40138 0.68925 0.0
H4549 H 0.96807 0.41934 0.66919 0.0
H4550 H 0.04726 0.43004 0.66011 0.0
H4551 H 0.98828 0.457 0.65923 0.0
H4552 H 0.98984 0.40755 0.6674 0.0
H4553 H 0.00875 0.40539 0.68075 0.0
C4554 C 0.0302 0.4082 0.68072 0.0
C4555 C 0.04123 0.4155 0.67544 0.0
C4556 C 0.98949 0.41839 0.66557 0.0
C4557 C 0.01508 0.42027 0.66564 0.0
C4558 C 0.97704 0.42512 0.66647 0.0
C4559 C 0.97642 0.43928 0.66485 0.0
C4560 C 1.00139 0.42591 0.66314 0.0
C4561 C 0.98833 0.44614 0.66099 0.0
C4562 C 0.01715 0.41043 0.67577 0.0
C4563 C 0.03898 0.42423 0.66443 0.0
N4564 N 1.00036 0.43943 0.6605 0.0
N4565 N 0.02607 0.42668 0.66014 0.0
H4566 H 0.59116 0.96842 0.67418 0.0
H4567 H 0.58205 0.04731 0.6591 0.0
H4568 H 0.55659 0.986 0.65372 0.0
H4569 H 0.60816 0.03037 0.68991 0.0
H4570 H 0.57823 0.02433 0.65014 0.0
H4571 H 0.60278 0.99034 0.67274 0.0
C4572 C 0.58614 0.97678 0.66907 0.0
C4573 C 0.57272 0.9755 0.66443 0.0
C4574 C 0.58508 0.02571 0.65863 0.0
C4575 C 0.58594 1.00055 0.66278 0.0
C4576 C 0.58732 0.0388 0.66369 0.0
C4577 C 0.59519 0.04062 0.67541 0.0
C4578 C 0.59089 0.0145 0.66531 0.0
C4579 C 0.60179 0.02931 0.68101 0.0
C4580 C 0.59277 0.98929 0.66829 0.0
C4581 C 0.56679 0.98664 0.65777 0.0
N4582 N 0.59934 0.0167 0.67603 0.0
N4583 N 0.57334 0.99877 0.65736 0.0
H4584 H 0.03977 0.41937 0.33519 0.0
H4585 H 0.96067 0.42927 0.34909 0.0
H4586 H 0.02198 0.45545 0.35268 0.0
H4587 H 0.97775 0.40223 0.31915 0.0
H4588 H 0.98364 0.43361 0.35783 0.0
H4589 H 0.01773 0.40802 0.33692 0.0
C4590 C 0.03133 0.4248 0.3397 0.0
C4591 C 0.03261 0.4385 0.34345 0.0
C4592 C 0.98229 0.42644 0.3496 0.0
C4593 C 0.00745 0.42558 0.34545 0.0
C4594 C 0.96921 0.42391 0.34467 0.0
C4595 C 0.96743 0.41559 0.33325 0.0
C4596 C 0.99352 0.42047 0.34311 0.0
C4597 C 0.97878 0.4089 0.32784 0.0
C4598 C 0.01876 0.41832 0.34065 0.0
C4599 C 0.02135 0.44498 0.34935 0.0
N4600 N 0.99138 0.41162 0.3327 0.0
N4601 N 0.00917 0.43853 0.34997 0.0
H4602 H 0.59023 0.04053 0.33439 0.0
H4603 H 0.58017 0.96182 0.34978 0.0
H4604 H 0.55554 0.02348 0.35514 0.0
H4605 H 0.60635 0.97836 0.31878 0.0
H4606 H 0.57666 0.98487 0.35868 0.0
H4607 H 0.60157 0.01848 0.33585 0.0
C4608 C 0.58513 0.03227 0.33956 0.0
C4609 C 0.57176 0.03373 0.34428 0.0
C4610 C 0.58346 0.98338 0.35015 0.0
C4611 C 0.58464 0.00853 0.34594 0.0
C4612 C 0.5855 0.97025 0.34512 0.0
C4613 C 0.59331 0.9683 0.33338 0.0
C4614 C 0.58939 0.9945 0.34342 0.0
C4615 C 0.60002 0.97952 0.3277 0.0
C4616 C 0.59159 0.01967 0.34036 0.0
C4617 C 0.56572 0.02269 0.35102 0.0
N4618 N 0.59775 0.99217 0.33266 0.0
N4619 N 0.5721 0.01048 0.35144 0.0
H4620 H 0.98605 0.55532 0.35611 0.0
H4621 H 0.03154 0.60805 0.31912 0.0
H4622 H 0.96972 0.58978 0.3345 0.0
H4623 H 0.04736 0.58065 0.34938 0.0
H4624 H 0.0087 0.60436 0.32794 0.0
H4625 H 0.00798 0.56678 0.35737 0.0
C4626 C 0.987 0.56543 0.35186 0.0
C4627 C 0.97614 0.57145 0.34486 0.0
C4628 C 0.01715 0.59938 0.33291 0.0
C4629 C 1.00128 0.58455 0.3461 0.0
C4630 C 0.0302 0.60149 0.32785 0.0
C4631 C 0.04126 0.59446 0.3334 0.0
C4632 C 0.01512 0.58985 0.34333 0.0
C4633 C 0.03904 0.58618 0.34478 0.0
C4634 C 0.99953 0.57199 0.35263 0.0
C4635 C 0.97788 0.58466 0.3398 0.0
N4636 N 0.02615 0.58382 0.34916 0.0
N4637 N 0.99032 0.59063 0.34023 0.0
H4638 H 0.45597 0.98616 0.35353 0.0
H4639 H 0.40082 0.0313 0.32036 0.0
H4640 H 0.41961 0.96952 0.33552 0.0
H4641 H 0.42983 0.04735 0.34896 0.0
H4642 H 0.40508 0.0085 0.32905 0.0
H4643 H 0.44471 0.00814 0.35543 0.0
C4644 C 0.44552 0.98706 0.35021 0.0
C4645 C 0.43884 0.97608 0.34403 0.0
C4646 C 0.41029 0.01701 0.33371 0.0
C4647 C 0.42595 1.00127 0.34602 0.0
C4648 C 0.40785 0.03002 0.32874 0.0
C4649 C 0.41515 0.04112 0.33384 0.0
C4650 C 0.42042 0.01505 0.34356 0.0
C4651 C 0.42406 0.039 0.34473 0.0
C4652 C 0.43907 0.99962 0.35135 0.0
C4653 C 0.42523 0.97776 0.34016 0.0
N4654 N 0.42673 0.02613 0.349 0.0
N4655 N 0.41934 0.99022 0.34091 0.0
H4656 H 0.65919 0.96126 0.58006 0.0
H4657 H 0.67414 0.04012 0.58985 0.0
H4658 H 0.68978 0.97806 0.60654 0.0
H4659 H 0.65403 0.02277 0.55494 0.0
H4660 H 0.67265 0.0181 0.60125 0.0
H4661 H 0.65031 0.98426 0.57625 0.0
C4662 C 0.66374 0.96973 0.5854 0.0
C4663 C 0.67538 0.96787 0.59339 0.0
C4664 C 0.6683 0.01922 0.59121 0.0
C4665 C 0.66537 0.99402 0.58911 0.0
C4666 C 0.6691 0.0318 0.58471 0.0
C4667 C 0.66456 0.03318 0.57126 0.0
C4668 C 0.66288 0.00801 0.58424 0.0
C4669 C 0.658 0.02206 0.56517 0.0
C4670 C 0.65873 0.98284 0.58318 0.0
C4671 C 0.68094 0.97915 0.60008 0.0
N4672 N 0.65756 0.00987 0.57161 0.0
N4673 N 0.676 0.99177 0.59765 0.0
H4674 H 0.65527 0.98666 0.45648 0.0
H4675 H 0.65811 0.04913 0.42651 0.0
H4676 H 0.67321 0.97047 0.41988 0.0
H4677 H 0.69096 0.03034 0.40441 0.0
H4678 H 0.64875 0.02652 0.43123 0.0
H4679 H 0.65333 0.0087 0.44554 0.0
C4680 C 0.65848 0.98766 0.44599 0.0
C4681 C 0.6647 0.97678 0.43918 0.0
C4682 C 0.65793 0.02736 0.42525 0.0
C4683 C 0.66239 1.00205 0.42648 0.0
C4684 C 0.66317 0.04026 0.42241 0.0
C4685 C 0.67552 0.04153 0.4154 0.0
C4686 C 0.66515 0.01576 0.42102 0.0
C4687 C 0.6816 0.02976 0.41017 0.0
C4688 C 0.65722 1.00027 0.43967 0.0
C4689 C 0.6685 0.97862 0.42557 0.0
N4690 N 0.67646 0.01736 0.41325 0.0
N4691 N 0.66763 0.99112 0.41979 0.0
H4692 H 0.04052 0.67345 0.41925 0.0
H4693 H 0.96166 0.65869 0.42924 0.0
H4694 H 0.02319 0.65338 0.45421 0.0
H4695 H 0.97851 0.68909 0.40257 0.0
H4696 H 0.98464 0.64972 0.433 0.0
H4697 H 0.0185 0.67192 0.40786 0.0
C4698 C 0.0322 0.66841 0.42441 0.0
C4699 C 0.03358 0.66391 0.43786 0.0
C4700 C 0.98323 0.65812 0.42604 0.0
C4701 C 0.00842 0.66217 0.4249 0.0
C4702 C 0.97014 0.66319 0.42385 0.0
C4703 C 0.96831 0.6748 0.41582 0.0
C4704 C 0.99442 0.66468 0.42005 0.0
C4705 C 0.97959 0.68028 0.40906 0.0
C4706 C 0.01963 0.66758 0.41791 0.0
C4707 C 0.02247 0.65733 0.44397 0.0
N4708 N 0.9922 0.67529 0.41147 0.0
N4709 N 0.01028 0.65687 0.43753 0.0
H4710 H 0.35636 0.02331 0.45414 0.0
H4711 H 0.31878 0.97786 0.40181 0.0
H4712 H 0.33443 0.03962 0.41987 0.0
H4713 H 0.34907 0.96199 0.42914 0.0
H4714 H 0.32777 1.00067 0.40533 0.0
H4715 H 0.35751 1.00138 0.44268 0.0
C4716 C 0.35202 0.02235 0.44407 0.0
C4717 C 0.34495 0.03321 0.43811 0.0
C4718 C 0.33271 0.9922 0.41033 0.0
C4719 C 0.34606 0.00806 0.42502 0.0
C4720 C 0.32755 0.97918 0.40833 0.0
C4721 C 0.33306 0.96813 0.4154 0.0
C4722 C 0.34319 0.99422 0.41979 0.0
C4723 C 0.34449 0.97031 0.42359 0.0
C4724 C 0.35272 0.00982 0.43751 0.0
C4725 C 0.33978 0.03147 0.42494 0.0
N4726 N 0.34898 0.98319 0.42586 0.0
N4727 N 0.34014 0.01902 0.41898 0.0
H4728 H 0.98545 0.35635 0.45315 0.0
H4729 H 0.03118 0.31887 0.40103 0.0
H4730 H 0.96933 0.33447 0.41873 0.0
H4731 H 0.0469 0.34925 0.42838 0.0
H4732 H 0.00835 0.32783 0.40444 0.0
H4733 H 0.00743 0.35757 0.44179 0.0
C4734 C 0.98646 0.35204 0.44307 0.0
C4735 C 0.97564 0.34495 0.43704 0.0
C4736 C 0.01679 0.33279 0.40947 0.0
C4737 C 1.00085 0.34614 0.42407 0.0
C4738 C 0.02982 0.32765 0.40753 0.0
C4739 C 0.04084 0.3332 0.41463 0.0
C4740 C 0.01472 0.34329 0.41891 0.0
C4741 C 0.03861 0.34464 0.42281 0.0
C4742 C 0.99902 0.35277 0.43656 0.0
C4743 C 0.97745 0.33983 0.42386 0.0
N4744 N 0.02572 0.3491 0.42502 0.0
N4745 N 0.98992 0.34022 0.41796 0.0
H4746 H 0.32094 0.03144 0.60888 0.0
H4747 H 0.35364 0.98647 0.55322 0.0
H4748 H 0.34927 0.04755 0.57963 0.0
H4749 H 0.33564 0.96974 0.58955 0.0
H4750 H 0.3557 0.00838 0.56461 0.0
H4751 H 0.32958 0.00865 0.60447 0.0
C4752 C 0.32925 0.03017 0.60177 0.0
C4753 C 0.33429 0.04129 0.59445 0.0
C4754 C 0.35158 0.99985 0.57022 0.0
C4755 C 0.34394 0.01523 0.589 0.0
C4756 C 0.35034 0.98734 0.56369 0.0
C4757 C 0.34412 0.97635 0.57033 0.0
C4758 C 0.3463 1.00146 0.58337 0.0
C4759 C 0.3403 0.97799 0.58397 0.0
C4760 C 0.33419 0.01716 0.59924 0.0
C4761 C 0.34509 0.03918 0.58543 0.0
N4762 N 0.34115 0.99041 0.58993 0.0
N4763 N 0.34933 0.02632 0.58266 0.0
H4764 H 0.97846 0.32027 0.60773 0.0
H4765 H 0.02423 0.35642 0.55475 0.0
H4766 H 0.96275 0.34948 0.57917 0.0
H4767 H 0.04022 0.33532 0.58969 0.0
H4768 H 1.00225 0.35802 0.56605 0.0
H4769 H 1.00123 0.32939 0.6043 0.0
C4770 C 0.97981 0.32885 0.60096 0.0
C4771 C 0.96883 0.334 0.59353 0.0
C4772 C 0.01063 0.35332 0.5714 0.0
C4773 C 0.99488 0.34425 0.58922 0.0
C4774 C 0.0232 0.35236 0.56492 0.0
C4775 C 0.03396 0.34536 0.57112 0.0
C4776 C 0.00876 0.34699 0.58405 0.0
C4777 C 0.03213 0.34058 0.58442 0.0
C4778 C 0.99281 0.33407 0.59901 0.0
C4779 C 0.97102 0.34519 0.58501 0.0
N4780 N 0.01966 0.34119 0.59031 0.0
N4781 N 0.98389 0.34972 0.58279 0.0
H4782 H 0.98673 0.65487 0.55356 0.0
H4783 H 0.03148 0.68963 0.60805 0.0
H4784 H 0.96985 0.67331 0.5896 0.0
H4785 H 0.04784 0.66046 0.57977 0.0
H4786 H 0.00876 0.68066 0.6039 0.0
H4787 H 0.00872 0.65343 0.56487 0.0
C4788 C 0.98758 0.65838 0.56396 0.0
C4789 C 0.97653 0.66455 0.57052 0.0
C4790 C 0.01732 0.67595 0.59884 0.0
C4791 C 1.00172 0.66309 0.58346 0.0
C4792 C 0.03028 0.68109 0.6012 0.0
C4793 C 0.04145 0.67589 0.59407 0.0
C4794 C 0.01548 0.66583 0.58895 0.0
C4795 C 0.03944 0.66477 0.5854 0.0
C4796 C 1.00014 0.6575 0.57044 0.0
C4797 C 0.97815 0.66867 0.58407 0.0
N4798 N 0.02661 0.66033 0.5828 0.0
N4799 N 0.99061 0.66818 0.58998 0.0
loop_
_geom_bond_atom_site_label_1
_geom_bond_atom_site_label_2
_geom_bond_distance
_geom_bond_site_symmetry_2
_ccdc_geom_bond_type
Co0 O1 2.216 . S
Co0 O2 2.091 . S
Co0 O4 2.004 . S
Co0 O10 2.021 . S
Co0 O12 2.137 . S
Co0 O13 2.244 . S
O1 Co0 2.216 . S
O1 C8 1.247 . S
O2 Co0 2.091 . S
O2 C8 1.261 . S
C3 O12 1.247 . S
C3 O13 1.272 . S
O4 Co0 2.004 . S
O4 C9 1.259 . S
Co5 O6 2.061 . S
Co5 O11 2.052 . S
Co5 O13 2.135 . S
O6 Co5 2.061 . S
O6 C9 1.235 . S
C7 O10 1.238 . S
C7 O11 1.241 . S
C8 O1 1.247 . S
C8 O2 1.261 . S
C9 O4 1.259 . S
C9 O6 1.235 . S
O10 Co0 2.021 . S
O10 C7 1.238 . S
O11 Co5 2.052 . S
O11 C7 1.241 . S
O12 Co0 2.137 . S
O12 C3 1.247 . S
O13 Co0 2.244 . S
O13 C3 1.272 . S
O13 Co5 2.135 . S
Co14 O15 2.216 . S
Co14 O16 2.091 . S
Co14 O18 2.004 . S
Co14 O24 2.021 . S
Co14 O26 2.137 . S
Co14 O27 2.244 . S
O15 Co14 2.216 . S
O15 C22 1.247 . S
O16 Co14 2.091 . S
O16 C22 1.261 . S
C17 O26 1.247 . S
C17 O27 1.272 . S
O18 Co14 2.004 . S
O18 C23 1.259 . S
Co19 O20 2.061 . S
Co19 O25 2.052 . S
Co19 O27 2.135 . S
O20 Co19 2.061 . S
O20 C23 1.235 . S
C21 O24 1.238 . S
C21 O25 1.241 . S
C22 O15 1.247 . S
C22 O16 1.261 . S
C23 O18 1.259 . S
C23 O20 1.235 . S
O24 Co14 2.021 . S
O24 C21 1.238 . S
O25 Co19 2.052 . S
O25 C21 1.241 . S
O26 Co14 2.137 . S
O26 C17 1.247 . S
O27 Co14 2.244 . S
O27 C17 1.272 . S
O27 Co19 2.135 . S
Co28 O29 2.216 . S
Co28 O30 2.091 . S
Co28 O32 2.004 . S
Co28 O38 2.021 . S
Co28 O40 2.137 . S
Co28 O41 2.244 . S
O29 Co28 2.216 . S
O29 C36 1.247 . S
O30 Co28 2.091 . S
O30 C36 1.261 . S
C31 O40 1.247 . S
C31 O41 1.272 . S
O32 Co28 2.004 . S
O32 C37 1.259 . S
Co33 O34 2.061 . S
Co33 O39 2.052 . S
Co33 O41 2.135 . S
O34 Co33 2.061 . S
O34 C37 1.235 . S
C35 O38 1.238 . S
C35 O39 1.241 . S
C36 O29 1.247 . S
C36 O30 1.261 . S
C37 O32 1.259 . S
C37 O34 1.235 . S
O38 Co28 2.021 . S
O38 C35 1.238 . S
O39 Co33 2.052 . S
O39 C35 1.241 . S
O40 Co28 2.137 . S
O40 C31 1.247 . S
O41 Co28 2.244 . S
O41 C31 1.272 . S
O41 Co33 2.135 . S
Co42 O43 2.216 . S
Co42 O44 2.091 . S
Co42 O46 2.004 . S
Co42 O52 2.021 . S
Co42 O54 2.137 . S
Co42 O55 2.244 . S
O43 Co42 2.216 . S
O43 C50 1.247 . S
O44 Co42 2.091 . S
O44 C50 1.261 . S
C45 O54 1.247 . S
C45 O55 1.272 . S
O46 Co42 2.004 . S
O46 C51 1.259 . S
Co47 O48 2.061 . S
Co47 O53 2.052 . S
Co47 O55 2.135 . S
O48 Co47 2.061 . S
O48 C51 1.235 . S
C49 O52 1.238 . S
C49 O53 1.241 . S
C50 O43 1.247 . S
C50 O44 1.261 . S
C51 O46 1.259 . S
C51 O48 1.235 . S
O52 Co42 2.021 . S
O52 C49 1.238 . S
O53 Co47 2.052 . S
O53 C49 1.241 . S
O54 Co42 2.137 . S
O54 C45 1.247 . S
O55 Co42 2.244 . S
O55 C45 1.272 . S
O55 Co47 2.135 . S
Co56 O57 2.216 . S
Co56 O58 2.091 . S
Co56 O60 2.004 . S
Co56 O66 2.021 . S
Co56 O68 2.137 . S
Co56 O69 2.244 . S
O57 Co56 2.216 . S
O57 C64 1.247 . S
O58 Co56 2.091 . S
O58 C64 1.261 . S
C59 O68 1.247 . S
C59 O69 1.272 . S
O60 Co56 2.004 . S
O60 C65 1.259 . S
Co61 O62 2.061 . S
Co61 O67 2.052 . S
Co61 O69 2.135 . S
O62 Co61 2.061 . S
O62 C65 1.235 . S
C63 O66 1.238 . S
C63 O67 1.241 . S
C64 O57 1.247 . S
C64 O58 1.261 . S
C65 O60 1.259 . S
C65 O62 1.235 . S
O66 Co56 2.021 . S
O66 C63 1.238 . S
O67 Co61 2.052 . S
O67 C63 1.241 . S
O68 Co56 2.137 . S
O68 C59 1.247 . S
O69 Co56 2.244 . S
O69 C59 1.272 . S
O69 Co61 2.135 . S
Co70 O71 2.216 . S
Co70 O72 2.091 . S
Co70 O74 2.004 . S
Co70 O80 2.021 . S
Co70 O82 2.137 . S
Co70 O83 2.244 . S
O71 Co70 2.216 . S
O71 C78 1.247 . S
O72 Co70 2.091 . S
O72 C78 1.261 . S
C73 O82 1.247 . S
C73 O83 1.272 . S
O74 Co70 2.004 . S
O74 C79 1.259 . S
Co75 O76 2.061 . S
Co75 O81 2.052 . S
Co75 O83 2.135 . S
O76 Co75 2.061 . S
O76 C79 1.235 . S
C77 O80 1.238 . S
C77 O81 1.241 . S
C78 O71 1.247 . S
C78 O72 1.261 . S
C79 O74 1.259 . S
C79 O76 1.235 . S
O80 Co70 2.021 . S
O80 C77 1.238 . S
O81 Co75 2.052 . S
O81 C77 1.241 . S
O82 Co70 2.137 . S
O82 C73 1.247 . S
O83 Co70 2.244 . S
O83 C73 1.272 . S
O83 Co75 2.135 . S
Co84 O85 2.216 . S
Co84 O86 2.091 . S
Co84 O88 2.004 . S
Co84 O94 2.021 . S
Co84 O96 2.137 . S
Co84 O97 2.244 . S
O85 Co84 2.216 . S
O85 C92 1.247 . S
O86 Co84 2.091 . S
O86 C92 1.261 . S
C87 O96 1.247 . S
C87 O97 1.272 . S
O88 Co84 2.004 . S
O88 C93 1.259 . S
Co89 O90 2.061 . S
Co89 O95 2.052 . S
Co89 O97 2.135 . S
O90 Co89 2.061 . S
O90 C93 1.235 . S
C91 O94 1.238 . S
C91 O95 1.241 . S
C92 O85 1.247 . S
C92 O86 1.261 . S
C93 O88 1.259 . S
C93 O90 1.235 . S
O94 Co84 2.021 . S
O94 C91 1.238 . S
O95 Co89 2.052 . S
O95 C91 1.241 . S
O96 Co84 2.137 . S
O96 C87 1.247 . S
O97 Co84 2.244 . S
O97 C87 1.272 . S
O97 Co89 2.135 . S
Co98 O99 2.216 . S
Co98 O100 2.091 . S
Co98 O102 2.004 . S
Co98 O108 2.021 . S
Co98 O110 2.137 . S
Co98 O111 2.244 . S
O99 Co98 2.216 . S
O99 C106 1.247 . S
O100 Co98 2.091 . S
O100 C106 1.261 . S
C101 O110 1.247 . S
C101 O111 1.272 . S
O102 Co98 2.004 . S
O102 C107 1.259 . S
Co103 O104 2.061 . S
Co103 O109 2.052 . S
Co103 O111 2.135 . S
O104 Co103 2.061 . S
O104 C107 1.235 . S
C105 O108 1.238 . S
C105 O109 1.241 . S
C106 O99 1.247 . S
C106 O100 1.261 . S
C107 O102 1.259 . S
C107 O104 1.235 . S
O108 Co98 2.021 . S
O108 C105 1.238 . S
O109 Co103 2.052 . S
O109 C105 1.241 . S
O110 Co98 2.137 . S
O110 C101 1.247 . S
O111 Co98 2.244 . S
O111 C101 1.272 . S
O111 Co103 2.135 . S
Co112 O113 2.216 . S
Co112 O114 2.091 . S
Co112 O116 2.004 . S
Co112 O122 2.021 . S
Co112 O124 2.137 . S
Co112 O125 2.244 . S
O113 Co112 2.216 . S
O113 C120 1.247 . S
O114 Co112 2.091 . S
O114 C120 1.261 . S
C115 O124 1.247 . S
C115 O125 1.272 . S
O116 Co112 2.004 . S
O116 C121 1.259 . S
Co117 O118 2.061 . S
Co117 O123 2.052 . S
Co117 O125 2.135 . S
O118 Co117 2.061 . S
O118 C121 1.235 . S
C119 O122 1.238 . S
C119 O123 1.241 . S
C120 O113 1.247 . S
C120 O114 1.261 . S
C121 O116 1.259 . S
C121 O118 1.235 . S
O122 Co112 2.021 . S
O122 C119 1.238 . S
O123 Co117 2.052 . S
O123 C119 1.241 . S
O124 Co112 2.137 . S
O124 C115 1.247 . S
O125 Co112 2.244 . S
O125 C115 1.272 . S
O125 Co117 2.135 . S
Co126 O127 2.216 . S
Co126 O128 2.091 . S
Co126 O130 2.004 . S
Co126 O136 2.021 . S
Co126 O138 2.137 . S
Co126 O139 2.244 . S
O127 Co126 2.216 . S
O127 C134 1.247 . S
O128 Co126 2.091 . S
O128 C134 1.261 . S
C129 O138 1.247 . S
C129 O139 1.272 . S
O130 Co126 2.004 . S
O130 C135 1.259 . S
Co131 O132 2.061 . S
Co131 O137 2.052 . S
Co131 O139 2.135 . S
O132 Co131 2.061 . S
O132 C135 1.235 . S
C133 O136 1.238 . S
C133 O137 1.241 . S
C134 O127 1.247 . S
C134 O128 1.261 . S
C135 O130 1.259 . S
C135 O132 1.235 . S
O136 Co126 2.021 . S
O136 C133 1.238 . S
O137 Co131 2.052 . S
O137 C133 1.241 . S
O138 Co126 2.137 . S
O138 C129 1.247 . S
O139 Co126 2.244 . S
O139 C129 1.272 . S
O139 Co131 2.135 . S
Co140 O141 2.216 . S
Co140 O142 2.091 . S
Co140 O144 2.004 . S
Co140 O150 2.021 . S
Co140 O152 2.137 . S
Co140 O153 2.244 . S
O141 Co140 2.216 . S
O141 C148 1.247 . S
O142 Co140 2.091 . S
O142 C148 1.261 . S
C143 O152 1.247 . S
C143 O153 1.272 . S
O144 Co140 2.004 . S
O144 C149 1.259 . S
Co145 O146 2.061 . S
Co145 O151 2.052 . S
Co145 O153 2.135 . S
O146 Co145 2.061 . S
O146 C149 1.235 . S
C147 O150 1.238 . S
C147 O151 1.241 . S
C148 O141 1.247 . S
C148 O142 1.261 . S
C149 O144 1.259 . S
C149 O146 1.235 . S
O150 Co140 2.021 . S
O150 C147 1.238 . S
O151 Co145 2.052 . S
O151 C147 1.241 . S
O152 Co140 2.137 . S
O152 C143 1.247 . S
O153 Co140 2.244 . S
O153 C143 1.272 . S
O153 Co145 2.135 . S
Co154 O155 2.216 . S
Co154 O156 2.091 . S
Co154 O158 2.004 . S
Co154 O164 2.021 . S
Co154 O166 2.137 . S
Co154 O167 2.244 . S
O155 Co154 2.216 . S
O155 C162 1.247 . S
O156 Co154 2.091 . S
O156 C162 1.261 . S
C157 O166 1.247 . S
C157 O167 1.272 . S
O158 Co154 2.004 . S
O158 C163 1.259 . S
Co159 O160 2.061 . S
Co159 O165 2.052 . S
Co159 O167 2.135 . S
O160 Co159 2.061 . S
O160 C163 1.235 . S
C161 O164 1.238 . S
C161 O165 1.241 . S
C162 O155 1.247 . S
C162 O156 1.261 . S
C163 O158 1.259 . S
C163 O160 1.235 . S
O164 Co154 2.021 . S
O164 C161 1.238 . S
O165 Co159 2.052 . S
O165 C161 1.241 . S
O166 Co154 2.137 . S
O166 C157 1.247 . S
O167 Co154 2.244 . S
O167 C157 1.272 . S
O167 Co159 2.135 . S
Co168 O169 2.216 . S
Co168 O170 2.091 . S
Co168 O172 2.004 . S
Co168 O178 2.021 . S
Co168 O180 2.137 . S
Co168 O181 2.244 . S
O169 Co168 2.216 . S
O169 C176 1.247 . S
O170 Co168 2.091 . S
O170 C176 1.261 . S
C171 O180 1.247 . S
C171 O181 1.272 . S
O172 Co168 2.004 . S
O172 C177 1.259 . S
Co173 O174 2.061 . S
Co173 O179 2.052 . S
Co173 O181 2.135 . S
O174 Co173 2.061 . S
O174 C177 1.235 . S
C175 O178 1.238 . S
C175 O179 1.241 . S
C176 O169 1.247 . S
C176 O170 1.261 . S
C177 O172 1.259 . S
C177 O174 1.235 . S
O178 Co168 2.021 . S
O178 C175 1.238 . S
O179 Co173 2.052 . S
O179 C175 1.241 . S
O180 Co168 2.137 . S
O180 C171 1.247 . S
O181 Co168 2.244 . S
O181 C171 1.272 . S
O181 Co173 2.135 . S
Co182 O183 2.216 . S
Co182 O184 2.091 . S
Co182 O186 2.004 . S
Co182 O192 2.021 . S
Co182 O194 2.137 . S
Co182 O195 2.244 . S
O183 Co182 2.216 . S
O183 C190 1.247 . S
O184 Co182 2.091 . S
O184 C190 1.261 . S
C185 O194 1.247 . S
C185 O195 1.272 . S
O186 Co182 2.004 . S
O186 C191 1.259 . S
Co187 O188 2.061 . S
Co187 O193 2.052 . S
Co187 O195 2.135 . S
O188 Co187 2.061 . S
O188 C191 1.235 . S
C189 O192 1.238 . S
C189 O193 1.241 . S
C190 O183 1.247 . S
C190 O184 1.261 . S
C191 O186 1.259 . S
C191 O188 1.235 . S
O192 Co182 2.021 . S
O192 C189 1.238 . S
O193 Co187 2.052 . S
O193 C189 1.241 . S
O194 Co182 2.137 . S
O194 C185 1.247 . S
O195 Co182 2.244 . S
O195 C185 1.272 . S
O195 Co187 2.135 . S
Co196 O197 2.216 . S
Co196 O198 2.091 . S
Co196 O200 2.004 . S
Co196 O206 2.021 . S
Co196 O208 2.137 . S
Co196 O209 2.244 . S
O197 Co196 2.216 . S
O197 C204 1.247 . S
O198 Co196 2.091 . S
O198 C204 1.261 . S
C199 O208 1.247 . S
C199 O209 1.272 . S
O200 Co196 2.004 . S
O200 C205 1.259 . S
Co201 O202 2.061 . S
Co201 O207 2.052 . S
Co201 O209 2.135 . S
O202 Co201 2.061 . S
O202 C205 1.235 . S
C203 O206 1.238 . S
C203 O207 1.241 . S
C204 O197 1.247 . S
C204 O198 1.261 . S
C205 O200 1.259 . S
C205 O202 1.235 . S
O206 Co196 2.021 . S
O206 C203 1.238 . S
O207 Co201 2.052 . S
O207 C203 1.241 . S
O208 Co196 2.137 . S
O208 C199 1.247 . S
O209 Co196 2.244 . S
O209 C199 1.272 . S
O209 Co201 2.135 . S
Co210 O211 2.216 . S
Co210 O212 2.091 . S
Co210 O214 2.004 . S
Co210 O220 2.021 . S
Co210 O222 2.137 . S
Co210 O223 2.244 . S
O211 Co210 2.216 . S
O211 C218 1.247 . S
O212 Co210 2.091 . S
O212 C218 1.261 . S
C213 O222 1.247 . S
C213 O223 1.272 . S
O214 Co210 2.004 . S
O214 C219 1.259 . S
Co215 O216 2.061 . S
Co215 O221 2.052 . S
Co215 O223 2.135 . S
O216 Co215 2.061 . S
O216 C219 1.235 . S
C217 O220 1.238 . S
C217 O221 1.241 . S
C218 O211 1.247 . S
C218 O212 1.261 . S
C219 O214 1.259 . S
C219 O216 1.235 . S
O220 Co210 2.021 . S
O220 C217 1.238 . S
O221 Co215 2.052 . S
O221 C217 1.241 . S
O222 Co210 2.137 . S
O222 C213 1.247 . S
O223 Co210 2.244 . S
O223 C213 1.272 . S
O223 Co215 2.135 . S
Co224 O225 2.216 . S
Co224 O226 2.091 . S
Co224 O228 2.004 . S
Co224 O234 2.021 . S
Co224 O236 2.137 . S
Co224 O237 2.244 . S
O225 Co224 2.216 . S
O225 C232 1.247 . S
O226 Co224 2.091 . S
O226 C232 1.261 . S
C227 O236 1.247 . S
C227 O237 1.272 . S
O228 Co224 2.004 . S
O228 C233 1.259 . S
Co229 O230 2.061 . S
Co229 O235 2.052 . S
Co229 O237 2.135 . S
O230 Co229 2.061 . S
O230 C233 1.235 . S
C231 O234 1.238 . S
C231 O235 1.241 . S
C232 O225 1.247 . S
C232 O226 1.261 . S
C233 O228 1.259 . S
C233 O230 1.235 . S
O234 Co224 2.021 . S
O234 C231 1.238 . S
O235 Co229 2.052 . S
O235 C231 1.241 . S
O236 Co224 2.137 . S
O236 C227 1.247 . S
O237 Co224 2.244 . S
O237 C227 1.272 . S
O237 Co229 2.135 . S
Co238 O239 2.216 . S
Co238 O240 2.091 . S
Co238 O242 2.004 . S
Co238 O248 2.021 . S
Co238 O250 2.137 . S
Co238 O251 2.244 . S
O239 Co238 2.216 . S
O239 C246 1.247 . S
O240 Co238 2.091 . S
O240 C246 1.261 . S
C241 O250 1.247 . S
C241 O251 1.272 . S
O242 Co238 2.004 . S
O242 C247 1.259 . S
Co243 O244 2.061 . S
Co243 O249 2.052 . S
Co243 O251 2.135 . S
O244 Co243 2.061 . S
O244 C247 1.235 . S
C245 O248 1.238 . S
C245 O249 1.241 . S
C246 O239 1.247 . S
C246 O240 1.261 . S
C247 O242 1.259 . S
C247 O244 1.235 . S
O248 Co238 2.021 . S
O248 C245 1.238 . S
O249 Co243 2.052 . S
O249 C245 1.241 . S
O250 Co238 2.137 . S
O250 C241 1.247 . S
O251 Co238 2.244 . S
O251 C241 1.272 . S
O251 Co243 2.135 . S
Co252 O253 2.216 . S
Co252 O254 2.091 . S
Co252 O256 2.004 . S
Co252 O262 2.021 . S
Co252 O264 2.137 . S
Co252 O265 2.244 . S
O253 Co252 2.216 . S
O253 C260 1.247 . S
O254 Co252 2.091 . S
O254 C260 1.261 . S
C255 O264 1.247 . S
C255 O265 1.272 . S
O256 Co252 2.004 . S
O256 C261 1.259 . S
Co257 O258 2.061 . S
Co257 O263 2.052 . S
Co257 O265 2.135 . S
O258 Co257 2.061 . S
O258 C261 1.235 . S
C259 O262 1.238 . S
C259 O263 1.241 . S
C260 O253 1.247 . S
C260 O254 1.261 . S
C261 O256 1.259 . S
C261 O258 1.235 . S
O262 Co252 2.021 . S
O262 C259 1.238 . S
O263 Co257 2.052 . S
O263 C259 1.241 . S
O264 Co252 2.137 . S
O264 C255 1.247 . S
O265 Co252 2.244 . S
O265 C255 1.272 . S
O265 Co257 2.135 . S
Co266 O267 2.216 . S
Co266 O268 2.091 . S
Co266 O270 2.004 . S
Co266 O276 2.021 . S
Co266 O278 2.137 . S
Co266 O279 2.244 . S
O267 Co266 2.216 . S
O267 C274 1.247 . S
O268 Co266 2.091 . S
O268 C274 1.261 . S
C269 O278 1.247 . S
C269 O279 1.272 . S
O270 Co266 2.004 . S
O270 C275 1.259 . S
Co271 O272 2.061 . S
Co271 O277 2.052 . S
Co271 O279 2.135 . S
O272 Co271 2.061 . S
O272 C275 1.235 . S
C273 O276 1.238 . S
C273 O277 1.241 . S
C274 O267 1.247 . S
C274 O268 1.261 . S
C275 O270 1.259 . S
C275 O272 1.235 . S
O276 Co266 2.021 . S
O276 C273 1.238 . S
O277 Co271 2.052 . S
O277 C273 1.241 . S
O278 Co266 2.137 . S
O278 C269 1.247 . S
O279 Co266 2.244 . S
O279 C269 1.272 . S
O279 Co271 2.135 . S
Co280 O281 2.216 . S
Co280 O282 2.091 . S
Co280 O284 2.004 . S
Co280 O290 2.021 . S
Co280 O292 2.137 . S
Co280 O293 2.244 . S
O281 Co280 2.216 . S
O281 C288 1.247 . S
O282 Co280 2.091 . S
O282 C288 1.261 . S
C283 O292 1.247 . S
C283 O293 1.272 . S
O284 Co280 2.004 . S
O284 C289 1.259 . S
Co285 O286 2.061 . S
Co285 O291 2.052 . S
Co285 O293 2.135 . S
O286 Co285 2.061 . S
O286 C289 1.235 . S
C287 O290 1.238 . S
C287 O291 1.241 . S
C288 O281 1.247 . S
C288 O282 1.261 . S
C289 O284 1.259 . S
C289 O286 1.235 . S
O290 Co280 2.021 . S
O290 C287 1.238 . S
O291 Co285 2.052 . S
O291 C287 1.241 . S
O292 Co280 2.137 . S
O292 C283 1.247 . S
O293 Co280 2.244 . S
O293 C283 1.272 . S
O293 Co285 2.135 . S
Co294 O295 2.216 . S
Co294 O296 2.091 . S
Co294 O298 2.004 . S
Co294 O304 2.021 . S
Co294 O306 2.137 . S
Co294 O307 2.244 . S
O295 Co294 2.216 . S
O295 C302 1.247 . S
O296 Co294 2.091 . S
O296 C302 1.261 . S
C297 O306 1.247 . S
C297 O307 1.272 . S
O298 Co294 2.004 . S
O298 C303 1.259 . S
Co299 O300 2.061 . S
Co299 O305 2.052 . S
Co299 O307 2.135 . S
O300 Co299 2.061 . S
O300 C303 1.235 . S
C301 O304 1.238 . S
C301 O305 1.241 . S
C302 O295 1.247 . S
C302 O296 1.261 . S
C303 O298 1.259 . S
C303 O300 1.235 . S
O304 Co294 2.021 . S
O304 C301 1.238 . S
O305 Co299 2.052 . S
O305 C301 1.241 . S
O306 Co294 2.137 . S
O306 C297 1.247 . S
O307 Co294 2.244 . S
O307 C297 1.272 . S
O307 Co299 2.135 . S
Co308 O309 2.216 . S
Co308 O310 2.091 . S
Co308 O312 2.004 . S
Co308 O318 2.021 . S
Co308 O320 2.137 . S
Co308 O321 2.244 . S
O309 Co308 2.216 . S
O309 C316 1.247 . S
O310 Co308 2.091 . S
O310 C316 1.261 . S
C311 O320 1.247 . S
C311 O321 1.272 . S
O312 Co308 2.004 . S
O312 C317 1.259 . S
Co313 O314 2.061 . S
Co313 O319 2.052 . S
Co313 O321 2.135 . S
O314 Co313 2.061 . S
O314 C317 1.235 . S
C315 O318 1.238 . S
C315 O319 1.241 . S
C316 O309 1.247 . S
C316 O310 1.261 . S
C317 O312 1.259 . S
C317 O314 1.235 . S
O318 Co308 2.021 . S
O318 C315 1.238 . S
O319 Co313 2.052 . S
O319 C315 1.241 . S
O320 Co308 2.137 . S
O320 C311 1.247 . S
O321 Co308 2.244 . S
O321 C311 1.272 . S
O321 Co313 2.135 . S
Co322 O323 2.216 . S
Co322 O324 2.091 . S
Co322 O326 2.004 . S
Co322 O332 2.021 . S
Co322 O334 2.137 . S
Co322 O335 2.244 . S
O323 Co322 2.216 . S
O323 C330 1.247 . S
O324 Co322 2.091 . S
O324 C330 1.261 . S
C325 O334 1.247 . S
C325 O335 1.272 . S
O326 Co322 2.004 . S
O326 C331 1.259 . S
Co327 O328 2.061 . S
Co327 O333 2.052 . S
Co327 O335 2.135 . S
O328 Co327 2.061 . S
O328 C331 1.235 . S
C329 O332 1.238 . S
C329 O333 1.241 . S
C330 O323 1.247 . S
C330 O324 1.261 . S
C331 O326 1.259 . S
C331 O328 1.235 . S
O332 Co322 2.021 . S
O332 C329 1.238 . S
O333 Co327 2.052 . S
O333 C329 1.241 . S
O334 Co322 2.137 . S
O334 C325 1.247 . S
O335 Co322 2.244 . S
O335 C325 1.272 . S
O335 Co327 2.135 . S
Co336 O337 2.216 . S
Co336 O338 2.091 . S
Co336 O340 2.004 . S
Co336 O346 2.021 . S
Co336 O348 2.137 . S
Co336 O349 2.244 . S
O337 Co336 2.216 . S
O337 C344 1.247 . S
O338 Co336 2.091 . S
O338 C344 1.261 . S
C339 O348 1.247 . S
C339 O349 1.272 . S
O340 Co336 2.004 . S
O340 C345 1.259 . S
Co341 O342 2.061 . S
Co341 O347 2.052 . S
Co341 O349 2.135 . S
O342 Co341 2.061 . S
O342 C345 1.235 . S
C343 O346 1.238 . S
C343 O347 1.241 . S
C344 O337 1.247 . S
C344 O338 1.261 . S
C345 O340 1.259 . S
C345 O342 1.235 . S
O346 Co336 2.021 . S
O346 C343 1.238 . S
O347 Co341 2.052 . S
O347 C343 1.241 . S
O348 Co336 2.137 . S
O348 C339 1.247 . S
O349 Co336 2.244 . S
O349 C339 1.272 . S
O349 Co341 2.135 . S
Co350 O351 2.216 . S
Co350 O352 2.091 . S
Co350 O354 2.004 . S
Co350 O360 2.021 . S
Co350 O362 2.137 . S
Co350 O363 2.244 . S
O351 Co350 2.216 . S
O351 C358 1.247 . S
O352 Co350 2.091 . S
O352 C358 1.261 . S
C353 O362 1.247 . S
C353 O363 1.272 . S
O354 Co350 2.004 . S
O354 C359 1.259 . S
Co355 O356 2.061 . S
Co355 O361 2.052 . S
Co355 O363 2.135 . S
O356 Co355 2.061 . S
O356 C359 1.235 . S
C357 O360 1.238 . S
C357 O361 1.241 . S
C358 O351 1.247 . S
C358 O352 1.261 . S
C359 O354 1.259 . S
C359 O356 1.235 . S
O360 Co350 2.021 . S
O360 C357 1.238 . S
O361 Co355 2.052 . S
O361 C357 1.241 . S
O362 Co350 2.137 . S
O362 C353 1.247 . S
O363 Co350 2.244 . S
O363 C353 1.272 . S
O363 Co355 2.135 . S
Co364 O365 2.216 . S
Co364 O366 2.091 . S
Co364 O368 2.004 . S
Co364 O374 2.021 . S
Co364 O376 2.137 . S
Co364 O377 2.244 . S
O365 Co364 2.216 . S
O365 C372 1.247 . S
O366 Co364 2.091 . S
O366 C372 1.261 . S
C367 O376 1.247 . S
C367 O377 1.272 . S
O368 Co364 2.004 . S
O368 C373 1.259 . S
Co369 O370 2.061 . S
Co369 O375 2.052 . S
Co369 O377 2.135 . S
O370 Co369 2.061 . S
O370 C373 1.235 . S
C371 O374 1.238 . S
C371 O375 1.241 . S
C372 O365 1.247 . S
C372 O366 1.261 . S
C373 O368 1.259 . S
C373 O370 1.235 . S
O374 Co364 2.021 . S
O374 C371 1.238 . S
O375 Co369 2.052 . S
O375 C371 1.241 . S
O376 Co364 2.137 . S
O376 C367 1.247 . S
O377 Co364 2.244 . S
O377 C367 1.272 . S
O377 Co369 2.135 . S
Co378 O379 2.216 . S
Co378 O380 2.091 . S
Co378 O382 2.004 . S
Co378 O388 2.021 . S
Co378 O390 2.137 . S
Co378 O391 2.244 . S
O379 Co378 2.216 . S
O379 C386 1.247 . S
O380 Co378 2.091 . S
O380 C386 1.261 . S
C381 O390 1.247 . S
C381 O391 1.272 . S
O382 Co378 2.004 . S
O382 C387 1.259 . S
Co383 O384 2.061 . S
Co383 O389 2.052 . S
Co383 O391 2.135 . S
O384 Co383 2.061 . S
O384 C387 1.235 . S
C385 O388 1.238 . S
C385 O389 1.241 . S
C386 O379 1.247 . S
C386 O380 1.261 . S
C387 O382 1.259 . S
C387 O384 1.235 . S
O388 Co378 2.021 . S
O388 C385 1.238 . S
O389 Co383 2.052 . S
O389 C385 1.241 . S
O390 Co378 2.137 . S
O390 C381 1.247 . S
O391 Co378 2.244 . S
O391 C381 1.272 . S
O391 Co383 2.135 . S
Co392 O393 2.216 . S
Co392 O394 2.091 . S
Co392 O396 2.004 . S
Co392 O402 2.021 . S
Co392 O404 2.137 . S
Co392 O405 2.244 . S
O393 Co392 2.216 . S
O393 C400 1.247 . S
O394 Co392 2.091 . S
O394 C400 1.261 . S
C395 O404 1.247 . S
C395 O405 1.272 . S
O396 Co392 2.004 . S
O396 C401 1.259 . S
Co397 O398 2.061 . S
Co397 O403 2.052 . S
Co397 O405 2.135 . S
O398 Co397 2.061 . S
O398 C401 1.235 . S
C399 O402 1.238 . S
C399 O403 1.241 . S
C400 O393 1.247 . S
C400 O394 1.261 . S
C401 O396 1.259 . S
C401 O398 1.235 . S
O402 Co392 2.021 . S
O402 C399 1.238 . S
O403 Co397 2.052 . S
O403 C399 1.241 . S
O404 Co392 2.137 . S
O404 C395 1.247 . S
O405 Co392 2.244 . S
O405 C395 1.272 . S
O405 Co397 2.135 . S
Co406 O407 2.216 . S
Co406 O408 2.091 . S
Co406 O410 2.004 . S
Co406 O416 2.021 . S
Co406 O418 2.137 . S
Co406 O419 2.244 . S
O407 Co406 2.216 . S
O407 C414 1.247 . S
O408 Co406 2.091 . S
O408 C414 1.261 . S
C409 O418 1.247 . S
C409 O419 1.272 . S
O410 Co406 2.004 . S
O410 C415 1.259 . S
Co411 O412 2.061 . S
Co411 O417 2.052 . S
Co411 O419 2.135 . S
O412 Co411 2.061 . S
O412 C415 1.235 . S
C413 O416 1.238 . S
C413 O417 1.241 . S
C414 O407 1.247 . S
C414 O408 1.261 . S
C415 O410 1.259 . S
C415 O412 1.235 . S
O416 Co406 2.021 . S
O416 C413 1.238 . S
O417 Co411 2.052 . S
O417 C413 1.241 . S
O418 Co406 2.137 . S
O418 C409 1.247 . S
O419 Co406 2.244 . S
O419 C409 1.272 . S
O419 Co411 2.135 . S
Co420 O421 2.216 . S
Co420 O422 2.091 . S
Co420 O424 2.004 . S
Co420 O430 2.021 . S
Co420 O432 2.137 . S
Co420 O433 2.244 . S
O421 Co420 2.216 . S
O421 C428 1.247 . S
O422 Co420 2.091 . S
O422 C428 1.261 . S
C423 O432 1.247 . S
C423 O433 1.272 . S
O424 Co420 2.004 . S
O424 C429 1.259 . S
Co425 O426 2.061 . S
Co425 O431 2.052 . S
Co425 O433 2.135 . S
O426 Co425 2.061 . S
O426 C429 1.235 . S
C427 O430 1.238 . S
C427 O431 1.241 . S
C428 O421 1.247 . S
C428 O422 1.261 . S
C429 O424 1.259 . S
C429 O426 1.235 . S
O430 Co420 2.021 . S
O430 C427 1.238 . S
O431 Co425 2.052 . S
O431 C427 1.241 . S
O432 Co420 2.137 . S
O432 C423 1.247 . S
O433 Co420 2.244 . S
O433 C423 1.272 . S
O433 Co425 2.135 . S
Co434 O435 2.216 . S
Co434 O436 2.091 . S
Co434 O438 2.004 . S
Co434 O444 2.021 . S
Co434 O446 2.137 . S
Co434 O447 2.244 . S
O435 Co434 2.216 . S
O435 C442 1.247 . S
O436 Co434 2.091 . S
O436 C442 1.261 . S
C437 O446 1.247 . S
C437 O447 1.272 . S
O438 Co434 2.004 . S
O438 C443 1.259 . S
Co439 O440 2.061 . S
Co439 O445 2.052 . S
Co439 O447 2.135 . S
O440 Co439 2.061 . S
O440 C443 1.235 . S
C441 O444 1.238 . S
C441 O445 1.241 . S
C442 O435 1.247 . S
C442 O436 1.261 . S
C443 O438 1.259 . S
C443 O440 1.235 . S
O444 Co434 2.021 . S
O444 C441 1.238 . S
O445 Co439 2.052 . S
O445 C441 1.241 . S
O446 Co434 2.137 . S
O446 C437 1.247 . S
O447 Co434 2.244 . S
O447 C437 1.272 . S
O447 Co439 2.135 . S
Co448 O449 2.216 . S
Co448 O450 2.091 . S
Co448 O452 2.004 . S
Co448 O458 2.021 . S
Co448 O460 2.137 . S
Co448 O461 2.244 . S
O449 Co448 2.216 . S
O449 C456 1.247 . S
O450 Co448 2.091 . S
O450 C456 1.261 . S
C451 O460 1.247 . S
C451 O461 1.272 . S
O452 Co448 2.004 . S
O452 C457 1.259 . S
Co453 O454 2.061 . S
Co453 O459 2.052 . S
Co453 O461 2.135 . S
O454 Co453 2.061 . S
O454 C457 1.235 . S
C455 O458 1.238 . S
C455 O459 1.241 . S
C456 O449 1.247 . S
C456 O450 1.261 . S
C457 O452 1.259 . S
C457 O454 1.235 . S
O458 Co448 2.021 . S
O458 C455 1.238 . S
O459 Co453 2.052 . S
O459 C455 1.241 . S
O460 Co448 2.137 . S
O460 C451 1.247 . S
O461 Co448 2.244 . S
O461 C451 1.272 . S
O461 Co453 2.135 . S
Co462 O463 2.216 . S
Co462 O464 2.091 . S
Co462 O466 2.004 . S
Co462 O472 2.021 . S
Co462 O474 2.137 . S
Co462 O475 2.244 . S
O463 Co462 2.216 . S
O463 C470 1.247 . S
O464 Co462 2.091 . S
O464 C470 1.261 . S
C465 O474 1.247 . S
C465 O475 1.272 . S
O466 Co462 2.004 . S
O466 C471 1.259 . S
Co467 O468 2.061 . S
Co467 O473 2.052 . S
Co467 O475 2.135 . S
O468 Co467 2.061 . S
O468 C471 1.235 . S
C469 O472 1.238 . S
C469 O473 1.241 . S
C470 O463 1.247 . S
C470 O464 1.261 . S
C471 O466 1.259 . S
C471 O468 1.235 . S
O472 Co462 2.021 . S
O472 C469 1.238 . S
O473 Co467 2.052 . S
O473 C469 1.241 . S
O474 Co462 2.137 . S
O474 C465 1.247 . S
O475 Co462 2.244 . S
O475 C465 1.272 . S
O475 Co467 2.135 . S
Co476 O477 2.216 . S
Co476 O478 2.091 . S
Co476 O480 2.004 . S
Co476 O486 2.021 . S
Co476 O488 2.137 . S
Co476 O489 2.244 . S
O477 Co476 2.216 . S
O477 C484 1.247 . S
O478 Co476 2.091 . S
O478 C484 1.261 . S
C479 O488 1.247 . S
C479 O489 1.272 . S
O480 Co476 2.004 . S
O480 C485 1.259 . S
Co481 O482 2.061 . S
Co481 O487 2.052 . S
Co481 O489 2.135 . S
O482 Co481 2.061 . S
O482 C485 1.235 . S
C483 O486 1.238 . S
C483 O487 1.241 . S
C484 O477 1.247 . S
C484 O478 1.261 . S
C485 O480 1.259 . S
C485 O482 1.235 . S
O486 Co476 2.021 . S
O486 C483 1.238 . S
O487 Co481 2.052 . S
O487 C483 1.241 . S
O488 Co476 2.137 . S
O488 C479 1.247 . S
O489 Co476 2.244 . S
O489 C479 1.272 . S
O489 Co481 2.135 . S
Co490 O491 2.216 . S
Co490 O492 2.091 . S
Co490 O494 2.004 . S
Co490 O500 2.021 . S
Co490 O502 2.137 . S
Co490 O503 2.244 . S
O491 Co490 2.216 . S
O491 C498 1.247 . S
O492 Co490 2.091 . S
O492 C498 1.261 . S
C493 O502 1.247 . S
C493 O503 1.272 . S
O494 Co490 2.004 . S
O494 C499 1.259 . S
Co495 O496 2.061 . S
Co495 O501 2.052 . S
Co495 O503 2.135 . S
O496 Co495 2.061 . S
O496 C499 1.235 . S
C497 O500 1.238 . S
C497 O501 1.241 . S
C498 O491 1.247 . S
C498 O492 1.261 . S
C499 O494 1.259 . S
C499 O496 1.235 . S
O500 Co490 2.021 . S
O500 C497 1.238 . S
O501 Co495 2.052 . S
O501 C497 1.241 . S
O502 Co490 2.137 . S
O502 C493 1.247 . S
O503 Co490 2.244 . S
O503 C493 1.272 . S
O503 Co495 2.135 . S
Co504 O505 2.216 . S
Co504 O506 2.091 . S
Co504 O508 2.004 . S
Co504 O514 2.021 . S
Co504 O516 2.137 . S
Co504 O517 2.244 . S
O505 Co504 2.216 . S
O505 C512 1.247 . S
O506 Co504 2.091 . S
O506 C512 1.261 . S
C507 O516 1.247 . S
C507 O517 1.272 . S
O508 Co504 2.004 . S
O508 C513 1.259 . S
Co509 O510 2.061 . S
Co509 O515 2.052 . S
Co509 O517 2.135 . S
O510 Co509 2.061 . S
O510 C513 1.235 . S
C511 O514 1.238 . S
C511 O515 1.241 . S
C512 O505 1.247 . S
C512 O506 1.261 . S
C513 O508 1.259 . S
C513 O510 1.235 . S
O514 Co504 2.021 . S
O514 C511 1.238 . S
O515 Co509 2.052 . S
O515 C511 1.241 . S
O516 Co504 2.137 . S
O516 C507 1.247 . S
O517 Co504 2.244 . S
O517 C507 1.272 . S
O517 Co509 2.135 . S
Co518 O519 2.216 . S
Co518 O520 2.091 . S
Co518 O522 2.004 . S
Co518 O528 2.021 . S
Co518 O530 2.137 . S
Co518 O531 2.244 . S
O519 Co518 2.216 . S
O519 C526 1.247 . S
O520 Co518 2.091 . S
O520 C526 1.261 . S
C521 O530 1.247 . S
C521 O531 1.272 . S
O522 Co518 2.004 . S
O522 C527 1.259 . S
Co523 O524 2.061 . S
Co523 O529 2.052 . S
Co523 O531 2.135 . S
O524 Co523 2.061 . S
O524 C527 1.235 . S
C525 O528 1.238 . S
C525 O529 1.241 . S
C526 O519 1.247 . S
C526 O520 1.261 . S
C527 O522 1.259 . S
C527 O524 1.235 . S
O528 Co518 2.021 . S
O528 C525 1.238 . S
O529 Co523 2.052 . S
O529 C525 1.241 . S
O530 Co518 2.137 . S
O530 C521 1.247 . S
O531 Co518 2.244 . S
O531 C521 1.272 . S
O531 Co523 2.135 . S
Co532 O533 2.216 . S
Co532 O534 2.091 . S
Co532 O536 2.004 . S
Co532 O542 2.021 . S
Co532 O544 2.137 . S
Co532 O545 2.244 . S
O533 Co532 2.216 . S
O533 C540 1.247 . S
O534 Co532 2.091 . S
O534 C540 1.261 . S
C535 O544 1.247 . S
C535 O545 1.272 . S
O536 Co532 2.004 . S
O536 C541 1.259 . S
Co537 O538 2.061 . S
Co537 O543 2.052 . S
Co537 O545 2.135 . S
O538 Co537 2.061 . S
O538 C541 1.235 . S
C539 O542 1.238 . S
C539 O543 1.241 . S
C540 O533 1.247 . S
C540 O534 1.261 . S
C541 O536 1.259 . S
C541 O538 1.235 . S
O542 Co532 2.021 . S
O542 C539 1.238 . S
O543 Co537 2.052 . S
O543 C539 1.241 . S
O544 Co532 2.137 . S
O544 C535 1.247 . S
O545 Co532 2.244 . S
O545 C535 1.272 . S
O545 Co537 2.135 . S
Co546 O547 2.216 . S
Co546 O548 2.091 . S
Co546 O550 2.004 . S
Co546 O556 2.021 . S
Co546 O558 2.137 . S
Co546 O559 2.244 . S
O547 Co546 2.216 . S
O547 C554 1.247 . S
O548 Co546 2.091 . S
O548 C554 1.261 . S
C549 O558 1.247 . S
C549 O559 1.272 . S
O550 Co546 2.004 . S
O550 C555 1.259 . S
Co551 O552 2.061 . S
Co551 O557 2.052 . S
Co551 O559 2.135 . S
O552 Co551 2.061 . S
O552 C555 1.235 . S
C553 O556 1.238 . S
C553 O557 1.241 . S
C554 O547 1.247 . S
C554 O548 1.261 . S
C555 O550 1.259 . S
C555 O552 1.235 . S
O556 Co546 2.021 . S
O556 C553 1.238 . S
O557 Co551 2.052 . S
O557 C553 1.241 . S
O558 Co546 2.137 . S
O558 C549 1.247 . S
O559 Co546 2.244 . S
O559 C549 1.272 . S
O559 Co551 2.135 . S
Co560 O561 2.216 . S
Co560 O562 2.091 . S
Co560 O564 2.004 . S
Co560 O570 2.021 . S
Co560 O572 2.137 . S
Co560 O573 2.244 . S
O561 Co560 2.216 . S
O561 C568 1.247 . S
O562 Co560 2.091 . S
O562 C568 1.261 . S
C563 O572 1.247 . S
C563 O573 1.272 . S
O564 Co560 2.004 . S
O564 C569 1.259 . S
Co565 O566 2.061 . S
Co565 O571 2.052 . S
Co565 O573 2.135 . S
O566 Co565 2.061 . S
O566 C569 1.235 . S
C567 O570 1.238 . S
C567 O571 1.241 . S
C568 O561 1.247 . S
C568 O562 1.261 . S
C569 O564 1.259 . S
C569 O566 1.235 . S
O570 Co560 2.021 . S
O570 C567 1.238 . S
O571 Co565 2.052 . S
O571 C567 1.241 . S
O572 Co560 2.137 . S
O572 C563 1.247 . S
O573 Co560 2.244 . S
O573 C563 1.272 . S
O573 Co565 2.135 . S
Co574 O575 2.216 . S
Co574 O576 2.091 . S
Co574 O578 2.004 . S
Co574 O584 2.021 . S
Co574 O586 2.137 . S
Co574 O587 2.244 . S
O575 Co574 2.216 . S
O575 C582 1.247 . S
O576 Co574 2.091 . S
O576 C582 1.261 . S
C577 O586 1.247 . S
C577 O587 1.272 . S
O578 Co574 2.004 . S
O578 C583 1.259 . S
Co579 O580 2.061 . S
Co579 O585 2.052 . S
Co579 O587 2.135 . S
O580 Co579 2.061 . S
O580 C583 1.235 . S
C581 O584 1.238 . S
C581 O585 1.241 . S
C582 O575 1.247 . S
C582 O576 1.261 . S
C583 O578 1.259 . S
C583 O580 1.235 . S
O584 Co574 2.021 . S
O584 C581 1.238 . S
O585 Co579 2.052 . S
O585 C581 1.241 . S
O586 Co574 2.137 . S
O586 C577 1.247 . S
O587 Co574 2.244 . S
O587 C577 1.272 . S
O587 Co579 2.135 . S
Co588 O589 2.216 . S
Co588 O590 2.091 . S
Co588 O592 2.004 . S
Co588 O598 2.021 . S
Co588 O600 2.137 . S
Co588 O601 2.244 . S
O589 Co588 2.216 . S
O589 C596 1.247 . S
O590 Co588 2.091 . S
O590 C596 1.261 . S
C591 O600 1.247 . S
C591 O601 1.272 . S
O592 Co588 2.004 . S
O592 C597 1.259 . S
Co593 O594 2.061 . S
Co593 O599 2.052 . S
Co593 O601 2.135 . S
O594 Co593 2.061 . S
O594 C597 1.235 . S
C595 O598 1.238 . S
C595 O599 1.241 . S
C596 O589 1.247 . S
C596 O590 1.261 . S
C597 O592 1.259 . S
C597 O594 1.235 . S
O598 Co588 2.021 . S
O598 C595 1.238 . S
O599 Co593 2.052 . S
O599 C595 1.241 . S
O600 Co588 2.137 . S
O600 C591 1.247 . S
O601 Co588 2.244 . S
O601 C591 1.272 . S
O601 Co593 2.135 . S
Co602 O603 2.216 . S
Co602 O604 2.091 . S
Co602 O606 2.004 . S
Co602 O612 2.021 . S
Co602 O614 2.137 . S
Co602 O615 2.244 . S
O603 Co602 2.216 . S
O603 C610 1.247 . S
O604 Co602 2.091 . S
O604 C610 1.261 . S
C605 O614 1.247 . S
C605 O615 1.272 . S
O606 Co602 2.004 . S
O606 C611 1.259 . S
Co607 O608 2.061 . S
Co607 O613 2.052 . S
Co607 O615 2.135 . S
O608 Co607 2.061 . S
O608 C611 1.235 . S
C609 O612 1.238 . S
C609 O613 1.241 . S
C610 O603 1.247 . S
C610 O604 1.261 . S
C611 O606 1.259 . S
C611 O608 1.235 . S
O612 Co602 2.021 . S
O612 C609 1.238 . S
O613 Co607 2.052 . S
O613 C609 1.241 . S
O614 Co602 2.137 . S
O614 C605 1.247 . S
O615 Co602 2.244 . S
O615 C605 1.272 . S
O615 Co607 2.135 . S
Co616 O617 2.216 . S
Co616 O618 2.091 . S
Co616 O620 2.004 . S
Co616 O626 2.021 . S
Co616 O628 2.137 . S
Co616 O629 2.244 . S
O617 Co616 2.216 . S
O617 C624 1.247 . S
O618 Co616 2.091 . S
O618 C624 1.261 . S
C619 O628 1.247 . S
C619 O629 1.272 . S
O620 Co616 2.004 . S
O620 C625 1.259 . S
Co621 O622 2.061 . S
Co621 O627 2.052 . S
Co621 O629 2.135 . S
O622 Co621 2.061 . S
O622 C625 1.235 . S
C623 O626 1.238 . S
C623 O627 1.241 . S
C624 O617 1.247 . S
C624 O618 1.261 . S
C625 O620 1.259 . S
C625 O622 1.235 . S
O626 Co616 2.021 . S
O626 C623 1.238 . S
O627 Co621 2.052 . S
O627 C623 1.241 . S
O628 Co616 2.137 . S
O628 C619 1.247 . S
O629 Co616 2.244 . S
O629 C619 1.272 . S
O629 Co621 2.135 . S
Co630 O631 2.216 . S
Co630 O632 2.091 . S
Co630 O634 2.004 . S
Co630 O640 2.021 . S
Co630 O642 2.137 . S
Co630 O643 2.244 . S
O631 Co630 2.216 . S
O631 C638 1.247 . S
O632 Co630 2.091 . S
O632 C638 1.261 . S
C633 O642 1.247 . S
C633 O643 1.272 . S
O634 Co630 2.004 . S
O634 C639 1.259 . S
Co635 O636 2.061 . S
Co635 O641 2.052 . S
Co635 O643 2.135 . S
O636 Co635 2.061 . S
O636 C639 1.235 . S
C637 O640 1.238 . S
C637 O641 1.241 . S
C638 O631 1.247 . S
C638 O632 1.261 . S
C639 O634 1.259 . S
C639 O636 1.235 . S
O640 Co630 2.021 . S
O640 C637 1.238 . S
O641 Co635 2.052 . S
O641 C637 1.241 . S
O642 Co630 2.137 . S
O642 C633 1.247 . S
O643 Co630 2.244 . S
O643 C633 1.272 . S
O643 Co635 2.135 . S
Co644 O645 2.216 . S
Co644 O646 2.091 . S
Co644 O648 2.004 . S
Co644 O654 2.021 . S
Co644 O656 2.137 . S
Co644 O657 2.244 . S
O645 Co644 2.216 . S
O645 C652 1.247 . S
O646 Co644 2.091 . S
O646 C652 1.261 . S
C647 O656 1.247 . S
C647 O657 1.272 . S
O648 Co644 2.004 . S
O648 C653 1.259 . S
Co649 O650 2.061 . S
Co649 O655 2.052 . S
Co649 O657 2.135 . S
O650 Co649 2.061 . S
O650 C653 1.235 . S
C651 O654 1.238 . S
C651 O655 1.241 . S
C652 O645 1.247 . S
C652 O646 1.261 . S
C653 O648 1.259 . S
C653 O650 1.235 . S
O654 Co644 2.021 . S
O654 C651 1.238 . S
O655 Co649 2.052 . S
O655 C651 1.241 . S
O656 Co644 2.137 . S
O656 C647 1.247 . S
O657 Co644 2.244 . S
O657 C647 1.272 . S
O657 Co649 2.135 . S
Co658 O659 2.216 . S
Co658 O660 2.091 . S
Co658 O662 2.004 . S
Co658 O668 2.021 . S
Co658 O670 2.137 . S
Co658 O671 2.244 . S
O659 Co658 2.216 . S
O659 C666 1.247 . S
O660 Co658 2.091 . S
O660 C666 1.261 . S
C661 O670 1.247 . S
C661 O671 1.272 . S
O662 Co658 2.004 . S
O662 C667 1.259 . S
Co663 O664 2.061 . S
Co663 O669 2.052 . S
Co663 O671 2.135 . S
O664 Co663 2.061 . S
O664 C667 1.235 . S
C665 O668 1.238 . S
C665 O669 1.241 . S
C666 O659 1.247 . S
C666 O660 1.261 . S
C667 O662 1.259 . S
C667 O664 1.235 . S
O668 Co658 2.021 . S
O668 C665 1.238 . S
O669 Co663 2.052 . S
O669 C665 1.241 . S
O670 Co658 2.137 . S
O670 C661 1.247 . S
O671 Co658 2.244 . S
O671 C661 1.272 . S
O671 Co663 2.135 . S
Co672 O673 2.216 . S
Co672 O674 2.091 . S
Co672 O676 2.004 . S
Co672 O682 2.021 . S
Co672 O684 2.137 . S
Co672 O685 2.244 . S
O673 Co672 2.216 . S
O673 C680 1.247 . S
O674 Co672 2.091 . S
O674 C680 1.261 . S
C675 O684 1.247 . S
C675 O685 1.272 . S
O676 Co672 2.004 . S
O676 C681 1.259 . S
Co677 O678 2.061 . S
Co677 O683 2.052 . S
Co677 O685 2.135 . S
O678 Co677 2.061 . S
O678 C681 1.235 . S
C679 O682 1.238 . S
C679 O683 1.241 . S
C680 O673 1.247 . S
C680 O674 1.261 . S
C681 O676 1.259 . S
C681 O678 1.235 . S
O682 Co672 2.021 . S
O682 C679 1.238 . S
O683 Co677 2.052 . S
O683 C679 1.241 . S
O684 Co672 2.137 . S
O684 C675 1.247 . S
O685 Co672 2.244 . S
O685 C675 1.272 . S
O685 Co677 2.135 . S
Co686 O687 2.216 . S
Co686 O688 2.091 . S
Co686 O690 2.004 . S
Co686 O696 2.021 . S
Co686 O698 2.137 . S
Co686 O699 2.244 . S
O687 Co686 2.216 . S
O687 C694 1.247 . S
O688 Co686 2.091 . S
O688 C694 1.261 . S
C689 O698 1.247 . S
C689 O699 1.272 . S
O690 Co686 2.004 . S
O690 C695 1.259 . S
Co691 O692 2.061 . S
Co691 O697 2.052 . S
Co691 O699 2.135 . S
O692 Co691 2.061 . S
O692 C695 1.235 . S
C693 O696 1.238 . S
C693 O697 1.241 . S
C694 O687 1.247 . S
C694 O688 1.261 . S
C695 O690 1.259 . S
C695 O692 1.235 . S
O696 Co686 2.021 . S
O696 C693 1.238 . S
O697 Co691 2.052 . S
O697 C693 1.241 . S
O698 Co686 2.137 . S
O698 C689 1.247 . S
O699 Co686 2.244 . S
O699 C689 1.272 . S
O699 Co691 2.135 . S
Co700 O701 2.216 . S
Co700 O702 2.091 . S
Co700 O704 2.004 . S
Co700 O710 2.021 . S
Co700 O712 2.137 . S
Co700 O713 2.244 . S
O701 Co700 2.216 . S
O701 C708 1.247 . S
O702 Co700 2.091 . S
O702 C708 1.261 . S
C703 O712 1.247 . S
C703 O713 1.272 . S
O704 Co700 2.004 . S
O704 C709 1.259 . S
Co705 O706 2.061 . S
Co705 O711 2.052 . S
Co705 O713 2.135 . S
O706 Co705 2.061 . S
O706 C709 1.235 . S
C707 O710 1.238 . S
C707 O711 1.241 . S
C708 O701 1.247 . S
C708 O702 1.261 . S
C709 O704 1.259 . S
C709 O706 1.235 . S
O710 Co700 2.021 . S
O710 C707 1.238 . S
O711 Co705 2.052 . S
O711 C707 1.241 . S
O712 Co700 2.137 . S
O712 C703 1.247 . S
O713 Co700 2.244 . S
O713 C703 1.272 . S
O713 Co705 2.135 . S
Co714 O715 2.216 . S
Co714 O716 2.091 . S
Co714 O718 2.004 . S
Co714 O724 2.021 . S
Co714 O726 2.137 . S
Co714 O727 2.244 . S
O715 Co714 2.216 . S
O715 C722 1.247 . S
O716 Co714 2.091 . S
O716 C722 1.261 . S
C717 O726 1.247 . S
C717 O727 1.272 . S
O718 Co714 2.004 . S
O718 C723 1.259 . S
Co719 O720 2.061 . S
Co719 O725 2.052 . S
Co719 O727 2.135 . S
O720 Co719 2.061 . S
O720 C723 1.235 . S
C721 O724 1.238 . S
C721 O725 1.241 . S
C722 O715 1.247 . S
C722 O716 1.261 . S
C723 O718 1.259 . S
C723 O720 1.235 . S
O724 Co714 2.021 . S
O724 C721 1.238 . S
O725 Co719 2.052 . S
O725 C721 1.241 . S
O726 Co714 2.137 . S
O726 C717 1.247 . S
O727 Co714 2.244 . S
O727 C717 1.272 . S
O727 Co719 2.135 . S
Co728 O729 2.216 . S
Co728 O730 2.091 . S
Co728 O732 2.004 . S
Co728 O738 2.021 . S
Co728 O740 2.137 . S
Co728 O741 2.244 . S
O729 Co728 2.216 . S
O729 C736 1.247 . S
O730 Co728 2.091 . S
O730 C736 1.261 . S
C731 O740 1.247 . S
C731 O741 1.272 . S
O732 Co728 2.004 . S
O732 C737 1.259 . S
Co733 O734 2.061 . S
Co733 O739 2.052 . S
Co733 O741 2.135 . S
O734 Co733 2.061 . S
O734 C737 1.235 . S
C735 O738 1.238 . S
C735 O739 1.241 . S
C736 O729 1.247 . S
C736 O730 1.261 . S
C737 O732 1.259 . S
C737 O734 1.235 . S
O738 Co728 2.021 . S
O738 C735 1.238 . S
O739 Co733 2.052 . S
O739 C735 1.241 . S
O740 Co728 2.137 . S
O740 C731 1.247 . S
O741 Co728 2.244 . S
O741 C731 1.272 . S
O741 Co733 2.135 . S
Co742 O743 2.216 . S
Co742 O744 2.091 . S
Co742 O746 2.004 . S
Co742 O752 2.021 . S
Co742 O754 2.137 . S
Co742 O755 2.244 . S
O743 Co742 2.216 . S
O743 C750 1.247 . S
O744 Co742 2.091 . S
O744 C750 1.261 . S
C745 O754 1.247 . S
C745 O755 1.272 . S
O746 Co742 2.004 . S
O746 C751 1.259 . S
Co747 O748 2.061 . S
Co747 O753 2.052 . S
Co747 O755 2.135 . S
O748 Co747 2.061 . S
O748 C751 1.235 . S
C749 O752 1.238 . S
C749 O753 1.241 . S
C750 O743 1.247 . S
C750 O744 1.261 . S
C751 O746 1.259 . S
C751 O748 1.235 . S
O752 Co742 2.021 . S
O752 C749 1.238 . S
O753 Co747 2.052 . S
O753 C749 1.241 . S
O754 Co742 2.137 . S
O754 C745 1.247 . S
O755 Co742 2.244 . S
O755 C745 1.272 . S
O755 Co747 2.135 . S
Co756 O757 2.216 . S
Co756 O758 2.091 . S
Co756 O760 2.004 . S
Co756 O766 2.021 . S
Co756 O768 2.137 . S
Co756 O769 2.244 . S
O757 Co756 2.216 . S
O757 C764 1.247 . S
O758 Co756 2.091 . S
O758 C764 1.261 . S
C759 O768 1.247 . S
C759 O769 1.272 . S
O760 Co756 2.004 . S
O760 C765 1.259 . S
Co761 O762 2.061 . S
Co761 O767 2.052 . S
Co761 O769 2.135 . S
O762 Co761 2.061 . S
O762 C765 1.235 . S
C763 O766 1.238 . S
C763 O767 1.241 . S
C764 O757 1.247 . S
C764 O758 1.261 . S
C765 O760 1.259 . S
C765 O762 1.235 . S
O766 Co756 2.021 . S
O766 C763 1.238 . S
O767 Co761 2.052 . S
O767 C763 1.241 . S
O768 Co756 2.137 . S
O768 C759 1.247 . S
O769 Co756 2.244 . S
O769 C759 1.272 . S
O769 Co761 2.135 . S
Co770 O771 2.216 . S
Co770 O772 2.091 . S
Co770 O774 2.004 . S
Co770 O780 2.021 . S
Co770 O782 2.137 . S
Co770 O783 2.244 . S
O771 Co770 2.216 . S
O771 C778 1.247 . S
O772 Co770 2.091 . S
O772 C778 1.261 . S
C773 O782 1.247 . S
C773 O783 1.272 . S
O774 Co770 2.004 . S
O774 C779 1.259 . S
Co775 O776 2.061 . S
Co775 O781 2.052 . S
Co775 O783 2.135 . S
O776 Co775 2.061 . S
O776 C779 1.235 . S
C777 O780 1.238 . S
C777 O781 1.241 . S
C778 O771 1.247 . S
C778 O772 1.261 . S
C779 O774 1.259 . S
C779 O776 1.235 . S
O780 Co770 2.021 . S
O780 C777 1.238 . S
O781 Co775 2.052 . S
O781 C777 1.241 . S
O782 Co770 2.137 . S
O782 C773 1.247 . S
O783 Co770 2.244 . S
O783 C773 1.272 . S
O783 Co775 2.135 . S
Co784 O785 2.216 . S
Co784 O786 2.091 . S
Co784 O788 2.004 . S
Co784 O794 2.021 . S
Co784 O796 2.137 . S
Co784 O797 2.244 . S
O785 Co784 2.216 . S
O785 C792 1.247 . S
O786 Co784 2.091 . S
O786 C792 1.261 . S
C787 O796 1.247 . S
C787 O797 1.272 . S
O788 Co784 2.004 . S
O788 C793 1.259 . S
Co789 O790 2.061 . S
Co789 O795 2.052 . S
Co789 O797 2.135 . S
O790 Co789 2.061 . S
O790 C793 1.235 . S
C791 O794 1.238 . S
C791 O795 1.241 . S
C792 O785 1.247 . S
C792 O786 1.261 . S
C793 O788 1.259 . S
C793 O790 1.235 . S
O794 Co784 2.021 . S
O794 C791 1.238 . S
O795 Co789 2.052 . S
O795 C791 1.241 . S
O796 Co784 2.137 . S
O796 C787 1.247 . S
O797 Co784 2.244 . S
O797 C787 1.272 . S
O797 Co789 2.135 . S
Co798 O799 2.216 . S
Co798 O800 2.091 . S
Co798 O802 2.004 . S
Co798 O808 2.021 . S
Co798 O810 2.137 . S
Co798 O811 2.244 . S
O799 Co798 2.216 . S
O799 C806 1.247 . S
O800 Co798 2.091 . S
O800 C806 1.261 . S
C801 O810 1.247 . S
C801 O811 1.272 . S
O802 Co798 2.004 . S
O802 C807 1.259 . S
Co803 O804 2.061 . S
Co803 O809 2.052 . S
Co803 O811 2.135 . S
O804 Co803 2.061 . S
O804 C807 1.235 . S
C805 O808 1.238 . S
C805 O809 1.241 . S
C806 O799 1.247 . S
C806 O800 1.261 . S
C807 O802 1.259 . S
C807 O804 1.235 . S
O808 Co798 2.021 . S
O808 C805 1.238 . S
O809 Co803 2.052 . S
O809 C805 1.241 . S
O810 Co798 2.137 . S
O810 C801 1.247 . S
O811 Co798 2.244 . S
O811 C801 1.272 . S
O811 Co803 2.135 . S
Co812 O813 2.216 . S
Co812 O814 2.091 . S
Co812 O816 2.004 . S
Co812 O822 2.021 . S
Co812 O824 2.137 . S
Co812 O825 2.244 . S
O813 Co812 2.216 . S
O813 C820 1.247 . S
O814 Co812 2.091 . S
O814 C820 1.261 . S
C815 O824 1.247 . S
C815 O825 1.272 . S
O816 Co812 2.004 . S
O816 C821 1.259 . S
Co817 O818 2.061 . S
Co817 O823 2.052 . S
Co817 O825 2.135 . S
O818 Co817 2.061 . S
O818 C821 1.235 . S
C819 O822 1.238 . S
C819 O823 1.241 . S
C820 O813 1.247 . S
C820 O814 1.261 . S
C821 O816 1.259 . S
C821 O818 1.235 . S
O822 Co812 2.021 . S
O822 C819 1.238 . S
O823 Co817 2.052 . S
O823 C819 1.241 . S
O824 Co812 2.137 . S
O824 C815 1.247 . S
O825 Co812 2.244 . S
O825 C815 1.272 . S
O825 Co817 2.135 . S
Co826 O827 2.216 . S
Co826 O828 2.091 . S
Co826 O830 2.004 . S
Co826 O836 2.021 . S
Co826 O838 2.137 . S
Co826 O839 2.244 . S
O827 Co826 2.216 . S
O827 C834 1.247 . S
O828 Co826 2.091 . S
O828 C834 1.261 . S
C829 O838 1.247 . S
C829 O839 1.272 . S
O830 Co826 2.004 . S
O830 C835 1.259 . S
Co831 O832 2.061 . S
Co831 O837 2.052 . S
Co831 O839 2.135 . S
O832 Co831 2.061 . S
O832 C835 1.235 . S
C833 O836 1.238 . S
C833 O837 1.241 . S
C834 O827 1.247 . S
C834 O828 1.261 . S
C835 O830 1.259 . S
C835 O832 1.235 . S
O836 Co826 2.021 . S
O836 C833 1.238 . S
O837 Co831 2.052 . S
O837 C833 1.241 . S
O838 Co826 2.137 . S
O838 C829 1.247 . S
O839 Co826 2.244 . S
O839 C829 1.272 . S
O839 Co831 2.135 . S
Co840 O841 2.216 . S
Co840 O842 2.091 . S
Co840 O844 2.004 . S
Co840 O850 2.021 . S
Co840 O852 2.137 . S
Co840 O853 2.244 . S
O841 Co840 2.216 . S
O841 C848 1.247 . S
O842 Co840 2.091 . S
O842 C848 1.261 . S
C843 O852 1.247 . S
C843 O853 1.272 . S
O844 Co840 2.004 . S
O844 C849 1.259 . S
Co845 O846 2.061 . S
Co845 O851 2.052 . S
Co845 O853 2.135 . S
O846 Co845 2.061 . S
O846 C849 1.235 . S
C847 O850 1.238 . S
C847 O851 1.241 . S
C848 O841 1.247 . S
C848 O842 1.261 . S
C849 O844 1.259 . S
C849 O846 1.235 . S
O850 Co840 2.021 . S
O850 C847 1.238 . S
O851 Co845 2.052 . S
O851 C847 1.241 . S
O852 Co840 2.137 . S
O852 C843 1.247 . S
O853 Co840 2.244 . S
O853 C843 1.272 . S
O853 Co845 2.135 . S
Co854 O855 2.216 . S
Co854 O856 2.091 . S
Co854 O858 2.004 . S
Co854 O864 2.021 . S
Co854 O866 2.137 . S
Co854 O867 2.244 . S
O855 Co854 2.216 . S
O855 C862 1.247 . S
O856 Co854 2.091 . S
O856 C862 1.261 . S
C857 O866 1.247 . S
C857 O867 1.272 . S
O858 Co854 2.004 . S
O858 C863 1.259 . S
Co859 O860 2.061 . S
Co859 O865 2.052 . S
Co859 O867 2.135 . S
O860 Co859 2.061 . S
O860 C863 1.235 . S
C861 O864 1.238 . S
C861 O865 1.241 . S
C862 O855 1.247 . S
C862 O856 1.261 . S
C863 O858 1.259 . S
C863 O860 1.235 . S
O864 Co854 2.021 . S
O864 C861 1.238 . S
O865 Co859 2.052 . S
O865 C861 1.241 . S
O866 Co854 2.137 . S
O866 C857 1.247 . S
O867 Co854 2.244 . S
O867 C857 1.272 . S
O867 Co859 2.135 . S
Co868 O869 2.216 . S
Co868 O870 2.091 . S
Co868 O872 2.004 . S
Co868 O878 2.021 . S
Co868 O880 2.137 . S
Co868 O881 2.244 . S
O869 Co868 2.216 . S
O869 C876 1.247 . S
O870 Co868 2.091 . S
O870 C876 1.261 . S
C871 O880 1.247 . S
C871 O881 1.272 . S
O872 Co868 2.004 . S
O872 C877 1.259 . S
Co873 O874 2.061 . S
Co873 O879 2.052 . S
Co873 O881 2.135 . S
O874 Co873 2.061 . S
O874 C877 1.235 . S
C875 O878 1.238 . S
C875 O879 1.241 . S
C876 O869 1.247 . S
C876 O870 1.261 . S
C877 O872 1.259 . S
C877 O874 1.235 . S
O878 Co868 2.021 . S
O878 C875 1.238 . S
O879 Co873 2.052 . S
O879 C875 1.241 . S
O880 Co868 2.137 . S
O880 C871 1.247 . S
O881 Co868 2.244 . S
O881 C871 1.272 . S
O881 Co873 2.135 . S
Co882 O883 2.216 . S
Co882 O884 2.091 . S
Co882 O886 2.004 . S
Co882 O892 2.021 . S
Co882 O894 2.137 . S
Co882 O895 2.244 . S
O883 Co882 2.216 . S
O883 C890 1.247 . S
O884 Co882 2.091 . S
O884 C890 1.261 . S
C885 O894 1.247 . S
C885 O895 1.272 . S
O886 Co882 2.004 . S
O886 C891 1.259 . S
Co887 O888 2.061 . S
Co887 O893 2.052 . S
Co887 O895 2.135 . S
O888 Co887 2.061 . S
O888 C891 1.235 . S
C889 O892 1.238 . S
C889 O893 1.241 . S
C890 O883 1.247 . S
C890 O884 1.261 . S
C891 O886 1.259 . S
C891 O888 1.235 . S
O892 Co882 2.021 . S
O892 C889 1.238 . S
O893 Co887 2.052 . S
O893 C889 1.241 . S
O894 Co882 2.137 . S
O894 C885 1.247 . S
O895 Co882 2.244 . S
O895 C885 1.272 . S
O895 Co887 2.135 . S
Co896 O897 2.216 . S
Co896 O898 2.091 . S
Co896 O900 2.004 . S
Co896 O906 2.021 . S
Co896 O908 2.137 . S
Co896 O909 2.244 . S
O897 Co896 2.216 . S
O897 C904 1.247 . S
O898 Co896 2.091 . S
O898 C904 1.261 . S
C899 O908 1.247 . S
C899 O909 1.272 . S
O900 Co896 2.004 . S
O900 C905 1.259 . S
Co901 O902 2.061 . S
Co901 O907 2.052 . S
Co901 O909 2.135 . S
O902 Co901 2.061 . S
O902 C905 1.235 . S
C903 O906 1.238 . S
C903 O907 1.241 . S
C904 O897 1.247 . S
C904 O898 1.261 . S
C905 O900 1.259 . S
C905 O902 1.235 . S
O906 Co896 2.021 . S
O906 C903 1.238 . S
O907 Co901 2.052 . S
O907 C903 1.241 . S
O908 Co896 2.137 . S
O908 C899 1.247 . S
O909 Co896 2.244 . S
O909 C899 1.272 . S
O909 Co901 2.135 . S
Co910 O911 2.216 . S
Co910 O912 2.091 . S
Co910 O914 2.004 . S
Co910 O920 2.021 . S
Co910 O922 2.137 . S
Co910 O923 2.244 . S
O911 Co910 2.216 . S
O911 C918 1.247 . S
O912 Co910 2.091 . S
O912 C918 1.261 . S
C913 O922 1.247 . S
C913 O923 1.272 . S
O914 Co910 2.004 . S
O914 C919 1.259 . S
Co915 O916 2.061 . S
Co915 O921 2.052 . S
Co915 O923 2.135 . S
O916 Co915 2.061 . S
O916 C919 1.235 . S
C917 O920 1.238 . S
C917 O921 1.241 . S
C918 O911 1.247 . S
C918 O912 1.261 . S
C919 O914 1.259 . S
C919 O916 1.235 . S
O920 Co910 2.021 . S
O920 C917 1.238 . S
O921 Co915 2.052 . S
O921 C917 1.241 . S
O922 Co910 2.137 . S
O922 C913 1.247 . S
O923 Co910 2.244 . S
O923 C913 1.272 . S
O923 Co915 2.135 . S
Co924 O925 2.216 . S
Co924 O926 2.091 . S
Co924 O928 2.004 . S
Co924 O934 2.021 . S
Co924 O936 2.137 . S
Co924 O937 2.244 . S
O925 Co924 2.216 . S
O925 C932 1.247 . S
O926 Co924 2.091 . S
O926 C932 1.261 . S
C927 O936 1.247 . S
C927 O937 1.272 . S
O928 Co924 2.004 . S
O928 C933 1.259 . S
Co929 O930 2.061 . S
Co929 O935 2.052 . S
Co929 O937 2.135 . S
O930 Co929 2.061 . S
O930 C933 1.235 . S
C931 O934 1.238 . S
C931 O935 1.241 . S
C932 O925 1.247 . S
C932 O926 1.261 . S
C933 O928 1.259 . S
C933 O930 1.235 . S
O934 Co924 2.021 . S
O934 C931 1.238 . S
O935 Co929 2.052 . S
O935 C931 1.241 . S
O936 Co924 2.137 . S
O936 C927 1.247 . S
O937 Co924 2.244 . S
O937 C927 1.272 . S
O937 Co929 2.135 . S
Co938 O939 2.216 . S
Co938 O940 2.091 . S
Co938 O942 2.004 . S
Co938 O948 2.021 . S
Co938 O950 2.137 . S
Co938 O951 2.244 . S
O939 Co938 2.216 . S
O939 C946 1.247 . S
O940 Co938 2.091 . S
O940 C946 1.261 . S
C941 O950 1.247 . S
C941 O951 1.272 . S
O942 Co938 2.004 . S
O942 C947 1.259 . S
Co943 O944 2.061 . S
Co943 O949 2.052 . S
Co943 O951 2.135 . S
O944 Co943 2.061 . S
O944 C947 1.235 . S
C945 O948 1.238 . S
C945 O949 1.241 . S
C946 O939 1.247 . S
C946 O940 1.261 . S
C947 O942 1.259 . S
C947 O944 1.235 . S
O948 Co938 2.021 . S
O948 C945 1.238 . S
O949 Co943 2.052 . S
O949 C945 1.241 . S
O950 Co938 2.137 . S
O950 C941 1.247 . S
O951 Co938 2.244 . S
O951 C941 1.272 . S
O951 Co943 2.135 . S
Co952 O953 2.216 . S
Co952 O954 2.091 . S
Co952 O956 2.004 . S
Co952 O962 2.021 . S
Co952 O964 2.137 . S
Co952 O965 2.244 . S
O953 Co952 2.216 . S
O953 C960 1.247 . S
O954 Co952 2.091 . S
O954 C960 1.261 . S
C955 O964 1.247 . S
C955 O965 1.272 . S
O956 Co952 2.004 . S
O956 C961 1.259 . S
Co957 O958 2.061 . S
Co957 O963 2.052 . S
Co957 O965 2.135 . S
O958 Co957 2.061 . S
O958 C961 1.235 . S
C959 O962 1.238 . S
C959 O963 1.241 . S
C960 O953 1.247 . S
C960 O954 1.261 . S
C961 O956 1.259 . S
C961 O958 1.235 . S
O962 Co952 2.021 . S
O962 C959 1.238 . S
O963 Co957 2.052 . S
O963 C959 1.241 . S
O964 Co952 2.137 . S
O964 C955 1.247 . S
O965 Co952 2.244 . S
O965 C955 1.272 . S
O965 Co957 2.135 . S
Co966 O967 2.216 . S
Co966 O968 2.091 . S
Co966 O970 2.004 . S
Co966 O976 2.021 . S
Co966 O978 2.137 . S
Co966 O979 2.244 . S
O967 Co966 2.216 . S
O967 C974 1.247 . S
O968 Co966 2.091 . S
O968 C974 1.261 . S
C969 O978 1.247 . S
C969 O979 1.272 . S
O970 Co966 2.004 . S
O970 C975 1.259 . S
Co971 O972 2.061 . S
Co971 O977 2.052 . S
Co971 O979 2.135 . S
O972 Co971 2.061 . S
O972 C975 1.235 . S
C973 O976 1.238 . S
C973 O977 1.241 . S
C974 O967 1.247 . S
C974 O968 1.261 . S
C975 O970 1.259 . S
C975 O972 1.235 . S
O976 Co966 2.021 . S
O976 C973 1.238 . S
O977 Co971 2.052 . S
O977 C973 1.241 . S
O978 Co966 2.137 . S
O978 C969 1.247 . S
O979 Co966 2.244 . S
O979 C969 1.272 . S
O979 Co971 2.135 . S
Co980 O981 2.216 . S
Co980 O982 2.091 . S
Co980 O984 2.004 . S
Co980 O990 2.021 . S
Co980 O992 2.137 . S
Co980 O993 2.244 . S
O981 Co980 2.216 . S
O981 C988 1.247 . S
O982 Co980 2.091 . S
O982 C988 1.261 . S
C983 O992 1.247 . S
C983 O993 1.272 . S
O984 Co980 2.004 . S
O984 C989 1.259 . S
Co985 O986 2.061 . S
Co985 O991 2.052 . S
Co985 O993 2.135 . S
O986 Co985 2.061 . S
O986 C989 1.235 . S
C987 O990 1.238 . S
C987 O991 1.241 . S
C988 O981 1.247 . S
C988 O982 1.261 . S
C989 O984 1.259 . S
C989 O986 1.235 . S
O990 Co980 2.021 . S
O990 C987 1.238 . S
O991 Co985 2.052 . S
O991 C987 1.241 . S
O992 Co980 2.137 . S
O992 C983 1.247 . S
O993 Co980 2.244 . S
O993 C983 1.272 . S
O993 Co985 2.135 . S
Co994 O995 2.216 . S
Co994 O996 2.091 . S
Co994 O998 2.004 . S
Co994 O1004 2.021 . S
Co994 O1006 2.137 . S
Co994 O1007 2.244 . S
O995 Co994 2.216 . S
O995 C1002 1.247 . S
O996 Co994 2.091 . S
O996 C1002 1.261 . S
C997 O1006 1.247 . S
C997 O1007 1.272 . S
O998 Co994 2.004 . S
O998 C1003 1.259 . S
Co999 O1000 2.061 . S
Co999 O1005 2.052 . S
Co999 O1007 2.135 . S
O1000 Co999 2.061 . S
O1000 C1003 1.235 . S
C1001 O1004 1.238 . S
C1001 O1005 1.241 . S
C1002 O995 1.247 . S
C1002 O996 1.261 . S
C1003 O998 1.259 . S
C1003 O1000 1.235 . S
O1004 Co994 2.021 . S
O1004 C1001 1.238 . S
O1005 Co999 2.052 . S
O1005 C1001 1.241 . S
O1006 Co994 2.137 . S
O1006 C997 1.247 . S
O1007 Co994 2.244 . S
O1007 C997 1.272 . S
O1007 Co999 2.135 . S
Co1008 O1009 2.216 . S
Co1008 O1010 2.091 . S
Co1008 O1012 2.004 . S
Co1008 O1018 2.021 . S
Co1008 O1020 2.137 . S
Co1008 O1021 2.244 . S
O1009 Co1008 2.216 . S
O1009 C1016 1.247 . S
O1010 Co1008 2.091 . S
O1010 C1016 1.261 . S
C1011 O1020 1.247 . S
C1011 O1021 1.272 . S
O1012 Co1008 2.004 . S
O1012 C1017 1.259 . S
Co1013 O1014 2.061 . S
Co1013 O1019 2.052 . S
Co1013 O1021 2.135 . S
O1014 Co1013 2.061 . S
O1014 C1017 1.235 . S
C1015 O1018 1.238 . S
C1015 O1019 1.241 . S
C1016 O1009 1.247 . S
C1016 O1010 1.261 . S
C1017 O1012 1.259 . S
C1017 O1014 1.235 . S
O1018 Co1008 2.021 . S
O1018 C1015 1.238 . S
O1019 Co1013 2.052 . S
O1019 C1015 1.241 . S
O1020 Co1008 2.137 . S
O1020 C1011 1.247 . S
O1021 Co1008 2.244 . S
O1021 C1011 1.272 . S
O1021 Co1013 2.135 . S
Co1022 O1023 2.216 . S
Co1022 O1024 2.091 . S
Co1022 O1026 2.004 . S
Co1022 O1032 2.021 . S
Co1022 O1034 2.137 . S
Co1022 O1035 2.244 . S
O1023 Co1022 2.216 . S
O1023 C1030 1.247 . S
O1024 Co1022 2.091 . S
O1024 C1030 1.261 . S
C1025 O1034 1.247 . S
C1025 O1035 1.272 . S
O1026 Co1022 2.004 . S
O1026 C1031 1.259 . S
Co1027 O1028 2.061 . S
Co1027 O1033 2.052 . S
Co1027 O1035 2.135 . S
O1028 Co1027 2.061 . S
O1028 C1031 1.235 . S
C1029 O1032 1.238 . S
C1029 O1033 1.241 . S
C1030 O1023 1.247 . S
C1030 O1024 1.261 . S
C1031 O1026 1.259 . S
C1031 O1028 1.235 . S
O1032 Co1022 2.021 . S
O1032 C1029 1.238 . S
O1033 Co1027 2.052 . S
O1033 C1029 1.241 . S
O1034 Co1022 2.137 . S
O1034 C1025 1.247 . S
O1035 Co1022 2.244 . S
O1035 C1025 1.272 . S
O1035 Co1027 2.135 . S
Co1036 O1037 2.216 . S
Co1036 O1038 2.091 . S
Co1036 O1040 2.004 . S
Co1036 O1046 2.021 . S
Co1036 O1048 2.137 . S
Co1036 O1049 2.244 . S
O1037 Co1036 2.216 . S
O1037 C1044 1.247 . S
O1038 Co1036 2.091 . S
O1038 C1044 1.261 . S
C1039 O1048 1.247 . S
C1039 O1049 1.272 . S
O1040 Co1036 2.004 . S
O1040 C1045 1.259 . S
Co1041 O1042 2.061 . S
Co1041 O1047 2.052 . S
Co1041 O1049 2.135 . S
O1042 Co1041 2.061 . S
O1042 C1045 1.235 . S
C1043 O1046 1.238 . S
C1043 O1047 1.241 . S
C1044 O1037 1.247 . S
C1044 O1038 1.261 . S
C1045 O1040 1.259 . S
C1045 O1042 1.235 . S
O1046 Co1036 2.021 . S
O1046 C1043 1.238 . S
O1047 Co1041 2.052 . S
O1047 C1043 1.241 . S
O1048 Co1036 2.137 . S
O1048 C1039 1.247 . S
O1049 Co1036 2.244 . S
O1049 C1039 1.272 . S
O1049 Co1041 2.135 . S
Co1050 O1051 2.216 . S
Co1050 O1052 2.091 . S
Co1050 O1054 2.004 . S
Co1050 O1060 2.021 . S
Co1050 O1062 2.137 . S
Co1050 O1063 2.244 . S
O1051 Co1050 2.216 . S
O1051 C1058 1.247 . S
O1052 Co1050 2.091 . S
O1052 C1058 1.261 . S
C1053 O1062 1.247 . S
C1053 O1063 1.272 . S
O1054 Co1050 2.004 . S
O1054 C1059 1.259 . S
Co1055 O1056 2.061 . S
Co1055 O1061 2.052 . S
Co1055 O1063 2.135 . S
O1056 Co1055 2.061 . S
O1056 C1059 1.235 . S
C1057 O1060 1.238 . S
C1057 O1061 1.241 . S
C1058 O1051 1.247 . S
C1058 O1052 1.261 . S
C1059 O1054 1.259 . S
C1059 O1056 1.235 . S
O1060 Co1050 2.021 . S
O1060 C1057 1.238 . S
O1061 Co1055 2.052 . S
O1061 C1057 1.241 . S
O1062 Co1050 2.137 . S
O1062 C1053 1.247 . S
O1063 Co1050 2.244 . S
O1063 C1053 1.272 . S
O1063 Co1055 2.135 . S
Co1064 O1065 2.216 . S
Co1064 O1066 2.091 . S
Co1064 O1068 2.004 . S
Co1064 O1074 2.021 . S
Co1064 O1076 2.137 . S
Co1064 O1077 2.244 . S
O1065 Co1064 2.216 . S
O1065 C1072 1.247 . S
O1066 Co1064 2.091 . S
O1066 C1072 1.261 . S
C1067 O1076 1.247 . S
C1067 O1077 1.272 . S
O1068 Co1064 2.004 . S
O1068 C1073 1.259 . S
Co1069 O1070 2.061 . S
Co1069 O1075 2.052 . S
Co1069 O1077 2.135 . S
O1070 Co1069 2.061 . S
O1070 C1073 1.235 . S
C1071 O1074 1.238 . S
C1071 O1075 1.241 . S
C1072 O1065 1.247 . S
C1072 O1066 1.261 . S
C1073 O1068 1.259 . S
C1073 O1070 1.235 . S
O1074 Co1064 2.021 . S
O1074 C1071 1.238 . S
O1075 Co1069 2.052 . S
O1075 C1071 1.241 . S
O1076 Co1064 2.137 . S
O1076 C1067 1.247 . S
O1077 Co1064 2.244 . S
O1077 C1067 1.272 . S
O1077 Co1069 2.135 . S
Co1078 O1079 2.216 . S
Co1078 O1080 2.091 . S
Co1078 O1082 2.004 . S
Co1078 O1088 2.021 . S
Co1078 O1090 2.137 . S
Co1078 O1091 2.244 . S
O1079 Co1078 2.216 . S
O1079 C1086 1.247 . S
O1080 Co1078 2.091 . S
O1080 C1086 1.261 . S
C1081 O1090 1.247 . S
C1081 O1091 1.272 . S
O1082 Co1078 2.004 . S
O1082 C1087 1.259 . S
Co1083 O1084 2.061 . S
Co1083 O1089 2.052 . S
Co1083 O1091 2.135 . S
O1084 Co1083 2.061 . S
O1084 C1087 1.235 . S
C1085 O1088 1.238 . S
C1085 O1089 1.241 . S
C1086 O1079 1.247 . S
C1086 O1080 1.261 . S
C1087 O1082 1.259 . S
C1087 O1084 1.235 . S
O1088 Co1078 2.021 . S
O1088 C1085 1.238 . S
O1089 Co1083 2.052 . S
O1089 C1085 1.241 . S
O1090 Co1078 2.137 . S
O1090 C1081 1.247 . S
O1091 Co1078 2.244 . S
O1091 C1081 1.272 . S
O1091 Co1083 2.135 . S
Co1092 O1093 2.216 . S
Co1092 O1094 2.091 . S
Co1092 O1096 2.004 . S
Co1092 O1102 2.021 . S
Co1092 O1104 2.137 . S
Co1092 O1105 2.244 . S
O1093 Co1092 2.216 . S
O1093 C1100 1.247 . S
O1094 Co1092 2.091 . S
O1094 C1100 1.261 . S
C1095 O1104 1.247 . S
C1095 O1105 1.272 . S
O1096 Co1092 2.004 . S
O1096 C1101 1.259 . S
Co1097 O1098 2.061 . S
Co1097 O1103 2.052 . S
Co1097 O1105 2.135 . S
O1098 Co1097 2.061 . S
O1098 C1101 1.235 . S
C1099 O1102 1.238 . S
C1099 O1103 1.241 . S
C1100 O1093 1.247 . S
C1100 O1094 1.261 . S
C1101 O1096 1.259 . S
C1101 O1098 1.235 . S
O1102 Co1092 2.021 . S
O1102 C1099 1.238 . S
O1103 Co1097 2.052 . S
O1103 C1099 1.241 . S
O1104 Co1092 2.137 . S
O1104 C1095 1.247 . S
O1105 Co1092 2.244 . S
O1105 C1095 1.272 . S
O1105 Co1097 2.135 . S
Co1106 O1107 2.216 . S
Co1106 O1108 2.091 . S
Co1106 O1110 2.004 . S
Co1106 O1116 2.021 . S
Co1106 O1118 2.137 . S
Co1106 O1119 2.244 . S
O1107 Co1106 2.216 . S
O1107 C1114 1.247 . S
O1108 Co1106 2.091 . S
O1108 C1114 1.261 . S
C1109 O1118 1.247 . S
C1109 O1119 1.272 . S
O1110 Co1106 2.004 . S
O1110 C1115 1.259 . S
Co1111 O1112 2.061 . S
Co1111 O1117 2.052 . S
Co1111 O1119 2.135 . S
O1112 Co1111 2.061 . S
O1112 C1115 1.235 . S
C1113 O1116 1.238 . S
C1113 O1117 1.241 . S
C1114 O1107 1.247 . S
C1114 O1108 1.261 . S
C1115 O1110 1.259 . S
C1115 O1112 1.235 . S
O1116 Co1106 2.021 . S
O1116 C1113 1.238 . S
O1117 Co1111 2.052 . S
O1117 C1113 1.241 . S
O1118 Co1106 2.137 . S
O1118 C1109 1.247 . S
O1119 Co1106 2.244 . S
O1119 C1109 1.272 . S
O1119 Co1111 2.135 . S
Co1120 O1121 2.216 . S
Co1120 O1122 2.091 . S
Co1120 O1124 2.004 . S
Co1120 O1130 2.021 . S
Co1120 O1132 2.137 . S
Co1120 O1133 2.244 . S
O1121 Co1120 2.216 . S
O1121 C1128 1.247 . S
O1122 Co1120 2.091 . S
O1122 C1128 1.261 . S
C1123 O1132 1.247 . S
C1123 O1133 1.272 . S
O1124 Co1120 2.004 . S
O1124 C1129 1.259 . S
Co1125 O1126 2.061 . S
Co1125 O1131 2.052 . S
Co1125 O1133 2.135 . S
O1126 Co1125 2.061 . S
O1126 C1129 1.235 . S
C1127 O1130 1.238 . S
C1127 O1131 1.241 . S
C1128 O1121 1.247 . S
C1128 O1122 1.261 . S
C1129 O1124 1.259 . S
C1129 O1126 1.235 . S
O1130 Co1120 2.021 . S
O1130 C1127 1.238 . S
O1131 Co1125 2.052 . S
O1131 C1127 1.241 . S
O1132 Co1120 2.137 . S
O1132 C1123 1.247 . S
O1133 Co1120 2.244 . S
O1133 C1123 1.272 . S
O1133 Co1125 2.135 . S
Co1134 O1135 2.216 . S
Co1134 O1136 2.091 . S
Co1134 O1138 2.004 . S
Co1134 O1144 2.021 . S
Co1134 O1146 2.137 . S
Co1134 O1147 2.244 . S
O1135 Co1134 2.216 . S
O1135 C1142 1.247 . S
O1136 Co1134 2.091 . S
O1136 C1142 1.261 . S
C1137 O1146 1.247 . S
C1137 O1147 1.272 . S
O1138 Co1134 2.004 . S
O1138 C1143 1.259 . S
Co1139 O1140 2.061 . S
Co1139 O1145 2.052 . S
Co1139 O1147 2.135 . S
O1140 Co1139 2.061 . S
O1140 C1143 1.235 . S
C1141 O1144 1.238 . S
C1141 O1145 1.241 . S
C1142 O1135 1.247 . S
C1142 O1136 1.261 . S
C1143 O1138 1.259 . S
C1143 O1140 1.235 . S
O1144 Co1134 2.021 . S
O1144 C1141 1.238 . S
O1145 Co1139 2.052 . S
O1145 C1141 1.241 . S
O1146 Co1134 2.137 . S
O1146 C1137 1.247 . S
O1147 Co1134 2.244 . S
O1147 C1137 1.272 . S
O1147 Co1139 2.135 . S
Co1148 O1149 2.216 . S
Co1148 O1150 2.091 . S
Co1148 O1152 2.004 . S
Co1148 O1158 2.021 . S
Co1148 O1160 2.137 . S
Co1148 O1161 2.244 . S
O1149 Co1148 2.216 . S
O1149 C1156 1.247 . S
O1150 Co1148 2.091 . S
O1150 C1156 1.261 . S
C1151 O1160 1.247 . S
C1151 O1161 1.272 . S
O1152 Co1148 2.004 . S
O1152 C1157 1.259 . S
Co1153 O1154 2.061 . S
Co1153 O1159 2.052 . S
Co1153 O1161 2.135 . S
O1154 Co1153 2.061 . S
O1154 C1157 1.235 . S
C1155 O1158 1.238 . S
C1155 O1159 1.241 . S
C1156 O1149 1.247 . S
C1156 O1150 1.261 . S
C1157 O1152 1.259 . S
C1157 O1154 1.235 . S
O1158 Co1148 2.021 . S
O1158 C1155 1.238 . S
O1159 Co1153 2.052 . S
O1159 C1155 1.241 . S
O1160 Co1148 2.137 . S
O1160 C1151 1.247 . S
O1161 Co1148 2.244 . S
O1161 C1151 1.272 . S
O1161 Co1153 2.135 . S
Co1162 O1163 2.216 . S
Co1162 O1164 2.091 . S
Co1162 O1166 2.004 . S
Co1162 O1172 2.021 . S
Co1162 O1174 2.137 . S
Co1162 O1175 2.244 . S
O1163 Co1162 2.216 . S
O1163 C1170 1.247 . S
O1164 Co1162 2.091 . S
O1164 C1170 1.261 . S
C1165 O1174 1.247 . S
C1165 O1175 1.272 . S
O1166 Co1162 2.004 . S
O1166 C1171 1.259 . S
Co1167 O1168 2.061 . S
Co1167 O1173 2.052 . S
Co1167 O1175 2.135 . S
O1168 Co1167 2.061 . S
O1168 C1171 1.235 . S
C1169 O1172 1.238 . S
C1169 O1173 1.241 . S
C1170 O1163 1.247 . S
C1170 O1164 1.261 . S
C1171 O1166 1.259 . S
C1171 O1168 1.235 . S
O1172 Co1162 2.021 . S
O1172 C1169 1.238 . S
O1173 Co1167 2.052 . S
O1173 C1169 1.241 . S
O1174 Co1162 2.137 . S
O1174 C1165 1.247 . S
O1175 Co1162 2.244 . S
O1175 C1165 1.272 . S
O1175 Co1167 2.135 . S
Co1176 O1177 2.216 . S
Co1176 O1178 2.091 . S
Co1176 O1180 2.004 . S
Co1176 O1186 2.021 . S
Co1176 O1188 2.137 . S
Co1176 O1189 2.244 . S
O1177 Co1176 2.216 . S
O1177 C1184 1.247 . S
O1178 Co1176 2.091 . S
O1178 C1184 1.261 . S
C1179 O1188 1.247 . S
C1179 O1189 1.272 . S
O1180 Co1176 2.004 . S
O1180 C1185 1.259 . S
Co1181 O1182 2.061 . S
Co1181 O1187 2.052 . S
Co1181 O1189 2.135 . S
O1182 Co1181 2.061 . S
O1182 C1185 1.235 . S
C1183 O1186 1.238 . S
C1183 O1187 1.241 . S
C1184 O1177 1.247 . S
C1184 O1178 1.261 . S
C1185 O1180 1.259 . S
C1185 O1182 1.235 . S
O1186 Co1176 2.021 . S
O1186 C1183 1.238 . S
O1187 Co1181 2.052 . S
O1187 C1183 1.241 . S
O1188 Co1176 2.137 . S
O1188 C1179 1.247 . S
O1189 Co1176 2.244 . S
O1189 C1179 1.272 . S
O1189 Co1181 2.135 . S
Co1190 O1191 2.216 . S
Co1190 O1192 2.091 . S
Co1190 O1194 2.004 . S
Co1190 O1200 2.021 . S
Co1190 O1202 2.137 . S
Co1190 O1203 2.244 . S
O1191 Co1190 2.216 . S
O1191 C1198 1.247 . S
O1192 Co1190 2.091 . S
O1192 C1198 1.261 . S
C1193 O1202 1.247 . S
C1193 O1203 1.272 . S
O1194 Co1190 2.004 . S
O1194 C1199 1.259 . S
Co1195 O1196 2.061 . S
Co1195 O1201 2.052 . S
Co1195 O1203 2.135 . S
O1196 Co1195 2.061 . S
O1196 C1199 1.235 . S
C1197 O1200 1.238 . S
C1197 O1201 1.241 . S
C1198 O1191 1.247 . S
C1198 O1192 1.261 . S
C1199 O1194 1.259 . S
C1199 O1196 1.235 . S
O1200 Co1190 2.021 . S
O1200 C1197 1.238 . S
O1201 Co1195 2.052 . S
O1201 C1197 1.241 . S
O1202 Co1190 2.137 . S
O1202 C1193 1.247 . S
O1203 Co1190 2.244 . S
O1203 C1193 1.272 . S
O1203 Co1195 2.135 . S
Co1204 O1205 2.216 . S
Co1204 O1206 2.091 . S
Co1204 O1208 2.004 . S
Co1204 O1214 2.021 . S
Co1204 O1216 2.137 . S
Co1204 O1217 2.244 . S
O1205 Co1204 2.216 . S
O1205 C1212 1.247 . S
O1206 Co1204 2.091 . S
O1206 C1212 1.261 . S
C1207 O1216 1.247 . S
C1207 O1217 1.272 . S
O1208 Co1204 2.004 . S
O1208 C1213 1.259 . S
Co1209 O1210 2.061 . S
Co1209 O1215 2.052 . S
Co1209 O1217 2.135 . S
O1210 Co1209 2.061 . S
O1210 C1213 1.235 . S
C1211 O1214 1.238 . S
C1211 O1215 1.241 . S
C1212 O1205 1.247 . S
C1212 O1206 1.261 . S
C1213 O1208 1.259 . S
C1213 O1210 1.235 . S
O1214 Co1204 2.021 . S
O1214 C1211 1.238 . S
O1215 Co1209 2.052 . S
O1215 C1211 1.241 . S
O1216 Co1204 2.137 . S
O1216 C1207 1.247 . S
O1217 Co1204 2.244 . S
O1217 C1207 1.272 . S
O1217 Co1209 2.135 . S
Co1218 O1219 2.216 . S
Co1218 O1220 2.091 . S
Co1218 O1222 2.004 . S
Co1218 O1228 2.021 . S
Co1218 O1230 2.137 . S
Co1218 O1231 2.244 . S
O1219 Co1218 2.216 . S
O1219 C1226 1.247 . S
O1220 Co1218 2.091 . S
O1220 C1226 1.261 . S
C1221 O1230 1.247 . S
C1221 O1231 1.272 . S
O1222 Co1218 2.004 . S
O1222 C1227 1.259 . S
Co1223 O1224 2.061 . S
Co1223 O1229 2.052 . S
Co1223 O1231 2.135 . S
O1224 Co1223 2.061 . S
O1224 C1227 1.235 . S
C1225 O1228 1.238 . S
C1225 O1229 1.241 . S
C1226 O1219 1.247 . S
C1226 O1220 1.261 . S
C1227 O1222 1.259 . S
C1227 O1224 1.235 . S
O1228 Co1218 2.021 . S
O1228 C1225 1.238 . S
O1229 Co1223 2.052 . S
O1229 C1225 1.241 . S
O1230 Co1218 2.137 . S
O1230 C1221 1.247 . S
O1231 Co1218 2.244 . S
O1231 C1221 1.272 . S
O1231 Co1223 2.135 . S
Co1232 O1233 2.216 . S
Co1232 O1234 2.091 . S
Co1232 O1236 2.004 . S
Co1232 O1242 2.021 . S
Co1232 O1244 2.137 . S
Co1232 O1245 2.244 . S
O1233 Co1232 2.216 . S
O1233 C1240 1.247 . S
O1234 Co1232 2.091 . S
O1234 C1240 1.261 . S
C1235 O1244 1.247 . S
C1235 O1245 1.272 . S
O1236 Co1232 2.004 . S
O1236 C1241 1.259 . S
Co1237 O1238 2.061 . S
Co1237 O1243 2.052 . S
Co1237 O1245 2.135 . S
O1238 Co1237 2.061 . S
O1238 C1241 1.235 . S
C1239 O1242 1.238 . S
C1239 O1243 1.241 . S
C1240 O1233 1.247 . S
C1240 O1234 1.261 . S
C1241 O1236 1.259 . S
C1241 O1238 1.235 . S
O1242 Co1232 2.021 . S
O1242 C1239 1.238 . S
O1243 Co1237 2.052 . S
O1243 C1239 1.241 . S
O1244 Co1232 2.137 . S
O1244 C1235 1.247 . S
O1245 Co1232 2.244 . S
O1245 C1235 1.272 . S
O1245 Co1237 2.135 . S
Co1246 O1247 2.216 . S
Co1246 O1248 2.091 . S
Co1246 O1250 2.004 . S
Co1246 O1256 2.021 . S
Co1246 O1258 2.137 . S
Co1246 O1259 2.244 . S
O1247 Co1246 2.216 . S
O1247 C1254 1.247 . S
O1248 Co1246 2.091 . S
O1248 C1254 1.261 . S
C1249 O1258 1.247 . S
C1249 O1259 1.272 . S
O1250 Co1246 2.004 . S
O1250 C1255 1.259 . S
Co1251 O1252 2.061 . S
Co1251 O1257 2.052 . S
Co1251 O1259 2.135 . S
O1252 Co1251 2.061 . S
O1252 C1255 1.235 . S
C1253 O1256 1.238 . S
C1253 O1257 1.241 . S
C1254 O1247 1.247 . S
C1254 O1248 1.261 . S
C1255 O1250 1.259 . S
C1255 O1252 1.235 . S
O1256 Co1246 2.021 . S
O1256 C1253 1.238 . S
O1257 Co1251 2.052 . S
O1257 C1253 1.241 . S
O1258 Co1246 2.137 . S
O1258 C1249 1.247 . S
O1259 Co1246 2.244 . S
O1259 C1249 1.272 . S
O1259 Co1251 2.135 . S
Co1260 O1261 2.216 . S
Co1260 O1262 2.091 . S
Co1260 O1264 2.004 . S
Co1260 O1270 2.021 . S
Co1260 O1272 2.137 . S
Co1260 O1273 2.244 . S
O1261 Co1260 2.216 . S
O1261 C1268 1.247 . S
O1262 Co1260 2.091 . S
O1262 C1268 1.261 . S
C1263 O1272 1.247 . S
C1263 O1273 1.272 . S
O1264 Co1260 2.004 . S
O1264 C1269 1.259 . S
Co1265 O1266 2.061 . S
Co1265 O1271 2.052 . S
Co1265 O1273 2.135 . S
O1266 Co1265 2.061 . S
O1266 C1269 1.235 . S
C1267 O1270 1.238 . S
C1267 O1271 1.241 . S
C1268 O1261 1.247 . S
C1268 O1262 1.261 . S
C1269 O1264 1.259 . S
C1269 O1266 1.235 . S
O1270 Co1260 2.021 . S
O1270 C1267 1.238 . S
O1271 Co1265 2.052 . S
O1271 C1267 1.241 . S
O1272 Co1260 2.137 . S
O1272 C1263 1.247 . S
O1273 Co1260 2.244 . S
O1273 C1263 1.272 . S
O1273 Co1265 2.135 . S
Co1274 O1275 2.216 . S
Co1274 O1276 2.091 . S
Co1274 O1278 2.004 . S
Co1274 O1284 2.021 . S
Co1274 O1286 2.137 . S
Co1274 O1287 2.244 . S
O1275 Co1274 2.216 . S
O1275 C1282 1.247 . S
O1276 Co1274 2.091 . S
O1276 C1282 1.261 . S
C1277 O1286 1.247 . S
C1277 O1287 1.272 . S
O1278 Co1274 2.004 . S
O1278 C1283 1.259 . S
Co1279 O1280 2.061 . S
Co1279 O1285 2.052 . S
Co1279 O1287 2.135 . S
O1280 Co1279 2.061 . S
O1280 C1283 1.235 . S
C1281 O1284 1.238 . S
C1281 O1285 1.241 . S
C1282 O1275 1.247 . S
C1282 O1276 1.261 . S
C1283 O1278 1.259 . S
C1283 O1280 1.235 . S
O1284 Co1274 2.021 . S
O1284 C1281 1.238 . S
O1285 Co1279 2.052 . S
O1285 C1281 1.241 . S
O1286 Co1274 2.137 . S
O1286 C1277 1.247 . S
O1287 Co1274 2.244 . S
O1287 C1277 1.272 . S
O1287 Co1279 2.135 . S
Co1288 O1289 2.216 . S
Co1288 O1290 2.091 . S
Co1288 O1292 2.004 . S
Co1288 O1298 2.021 . S
Co1288 O1300 2.137 . S
Co1288 O1301 2.244 . S
O1289 Co1288 2.216 . S
O1289 C1296 1.247 . S
O1290 Co1288 2.091 . S
O1290 C1296 1.261 . S
C1291 O1300 1.247 . S
C1291 O1301 1.272 . S
O1292 Co1288 2.004 . S
O1292 C1297 1.259 . S
Co1293 O1294 2.061 . S
Co1293 O1299 2.052 . S
Co1293 O1301 2.135 . S
O1294 Co1293 2.061 . S
O1294 C1297 1.235 . S
C1295 O1298 1.238 . S
C1295 O1299 1.241 . S
C1296 O1289 1.247 . S
C1296 O1290 1.261 . S
C1297 O1292 1.259 . S
C1297 O1294 1.235 . S
O1298 Co1288 2.021 . S
O1298 C1295 1.238 . S
O1299 Co1293 2.052 . S
O1299 C1295 1.241 . S
O1300 Co1288 2.137 . S
O1300 C1291 1.247 . S
O1301 Co1288 2.244 . S
O1301 C1291 1.272 . S
O1301 Co1293 2.135 . S
Co1302 O1303 2.216 . S
Co1302 O1304 2.091 . S
Co1302 O1306 2.004 . S
Co1302 O1312 2.021 . S
Co1302 O1314 2.137 . S
Co1302 O1315 2.244 . S
O1303 Co1302 2.216 . S
O1303 C1310 1.247 . S
O1304 Co1302 2.091 . S
O1304 C1310 1.261 . S
C1305 O1314 1.247 . S
C1305 O1315 1.272 . S
O1306 Co1302 2.004 . S
O1306 C1311 1.259 . S
Co1307 O1308 2.061 . S
Co1307 O1313 2.052 . S
Co1307 O1315 2.135 . S
O1308 Co1307 2.061 . S
O1308 C1311 1.235 . S
C1309 O1312 1.238 . S
C1309 O1313 1.241 . S
C1310 O1303 1.247 . S
C1310 O1304 1.261 . S
C1311 O1306 1.259 . S
C1311 O1308 1.235 . S
O1312 Co1302 2.021 . S
O1312 C1309 1.238 . S
O1313 Co1307 2.052 . S
O1313 C1309 1.241 . S
O1314 Co1302 2.137 . S
O1314 C1305 1.247 . S
O1315 Co1302 2.244 . S
O1315 C1305 1.272 . S
O1315 Co1307 2.135 . S
Co1316 O1317 2.216 . S
Co1316 O1318 2.091 . S
Co1316 O1320 2.004 . S
Co1316 O1326 2.021 . S
Co1316 O1328 2.137 . S
Co1316 O1329 2.244 . S
O1317 Co1316 2.216 . S
O1317 C1324 1.247 . S
O1318 Co1316 2.091 . S
O1318 C1324 1.261 . S
C1319 O1328 1.247 . S
C1319 O1329 1.272 . S
O1320 Co1316 2.004 . S
O1320 C1325 1.259 . S
Co1321 O1322 2.061 . S
Co1321 O1327 2.052 . S
Co1321 O1329 2.135 . S
O1322 Co1321 2.061 . S
O1322 C1325 1.235 . S
C1323 O1326 1.238 . S
C1323 O1327 1.241 . S
C1324 O1317 1.247 . S
C1324 O1318 1.261 . S
C1325 O1320 1.259 . S
C1325 O1322 1.235 . S
O1326 Co1316 2.021 . S
O1326 C1323 1.238 . S
O1327 Co1321 2.052 . S
O1327 C1323 1.241 . S
O1328 Co1316 2.137 . S
O1328 C1319 1.247 . S
O1329 Co1316 2.244 . S
O1329 C1319 1.272 . S
O1329 Co1321 2.135 . S
Co1330 O1331 2.216 . S
Co1330 O1332 2.091 . S
Co1330 O1334 2.004 . S
Co1330 O1340 2.021 . S
Co1330 O1342 2.137 . S
Co1330 O1343 2.244 . S
O1331 Co1330 2.216 . S
O1331 C1338 1.247 . S
O1332 Co1330 2.091 . S
O1332 C1338 1.261 . S
C1333 O1342 1.247 . S
C1333 O1343 1.272 . S
O1334 Co1330 2.004 . S
O1334 C1339 1.259 . S
Co1335 O1336 2.061 . S
Co1335 O1341 2.052 . S
Co1335 O1343 2.135 . S
O1336 Co1335 2.061 . S
O1336 C1339 1.235 . S
C1337 O1340 1.238 . S
C1337 O1341 1.241 . S
C1338 O1331 1.247 . S
C1338 O1332 1.261 . S
C1339 O1334 1.259 . S
C1339 O1336 1.235 . S
O1340 Co1330 2.021 . S
O1340 C1337 1.238 . S
O1341 Co1335 2.052 . S
O1341 C1337 1.241 . S
O1342 Co1330 2.137 . S
O1342 C1333 1.247 . S
O1343 Co1330 2.244 . S
O1343 C1333 1.272 . S
O1343 Co1335 2.135 . S
H1344 C1350 0.930 . S
H1345 C1354 0.930 . S
H1346 C1359 0.929 . S
H1347 C1357 0.929 . S
H1348 C1352 0.929 . S
H1349 C1358 0.929 . S
C1350 H1344 0.930 . S
C1350 C1351 1.367 . S
C1350 C1358 1.378 . S
C1351 C1350 1.367 . S
C1351 C1359 1.433 . S
C1352 H1348 0.929 . S
C1352 C1354 1.378 . S
C1352 C1356 1.350 . S
C1353 C1356 1.463 . S
C1353 C1358 1.350 . S
C1353 N1361 1.427 . S
C1354 H1345 0.930 . S
C1354 C1352 1.378 . S
C1354 C1355 1.367 . S
C1355 C1354 1.367 . S
C1355 C1357 1.433 . S
C1356 C1352 1.350 . S
C1356 C1353 1.463 . S
C1356 N1360 1.427 . S
C1357 H1347 0.929 . S
C1357 C1355 1.433 . S
C1357 N1360 1.384 . S
C1358 H1349 0.929 . S
C1358 C1350 1.378 . S
C1358 C1353 1.350 . S
C1359 H1346 0.929 . S
C1359 C1351 1.433 . S
C1359 N1361 1.384 . S
N1360 C1356 1.427 . S
N1360 C1357 1.384 . S
N1361 C1353 1.427 . S
N1361 C1359 1.384 . S
H1362 C1368 0.930 . S
H1363 C1372 0.930 . S
H1364 C1377 0.929 . S
H1365 C1375 0.929 . S
H1366 C1370 0.929 . S
H1367 C1376 0.929 . S
C1368 H1362 0.930 . S
C1368 C1369 1.367 . S
C1368 C1376 1.378 . S
C1369 C1368 1.367 . S
C1369 C1377 1.433 . S
C1370 H1366 0.929 . S
C1370 C1372 1.378 . S
C1370 C1374 1.350 . S
C1371 C1374 1.463 . S
C1371 C1376 1.350 . S
C1371 N1379 1.427 . S
C1372 H1363 0.930 . S
C1372 C1370 1.378 . S
C1372 C1373 1.367 . S
C1373 C1372 1.367 . S
C1373 C1375 1.433 . S
C1374 C1370 1.350 . S
C1374 C1371 1.463 . S
C1374 N1378 1.427 . S
C1375 H1365 0.929 . S
C1375 C1373 1.433 . S
C1375 N1378 1.384 . S
C1376 H1367 0.929 . S
C1376 C1368 1.378 . S
C1376 C1371 1.350 . S
C1377 H1364 0.929 . S
C1377 C1369 1.433 . S
C1377 N1379 1.384 . S
N1378 C1374 1.427 . S
N1378 C1375 1.384 . S
N1379 C1371 1.427 . S
N1379 C1377 1.384 . S
H1380 C1386 0.930 . S
H1381 C1390 0.930 . S
H1382 C1395 0.929 . S
H1383 C1393 0.929 . S
H1384 C1388 0.929 . S
H1385 C1394 0.929 . S
C1386 H1380 0.930 . S
C1386 C1387 1.367 . S
C1386 C1394 1.378 . S
C1387 C1386 1.367 . S
C1387 C1395 1.433 . S
C1388 H1384 0.929 . S
C1388 C1390 1.378 . S
C1388 C1392 1.350 . S
C1389 C1392 1.463 . S
C1389 C1394 1.350 . S
C1389 N1397 1.427 . S
C1390 H1381 0.930 . S
C1390 C1388 1.378 . S
C1390 C1391 1.367 . S
C1391 C1390 1.367 . S
C1391 C1393 1.433 . S
C1392 C1388 1.350 . S
C1392 C1389 1.463 . S
C1392 N1396 1.427 . S
C1393 H1383 0.929 . S
C1393 C1391 1.433 . S
C1393 N1396 1.384 . S
C1394 H1385 0.929 . S
C1394 C1386 1.378 . S
C1394 C1389 1.350 . S
C1395 H1382 0.929 . S
C1395 C1387 1.433 . S
C1395 N1397 1.384 . S
N1396 C1392 1.427 . S
N1396 C1393 1.384 . S
N1397 C1389 1.427 . S
N1397 C1395 1.384 . S
H1398 C1404 0.930 . S
H1399 C1408 0.930 . S
H1400 C1413 0.929 . S
H1401 C1411 0.929 . S
H1402 C1406 0.929 . S
H1403 C1412 0.929 . S
C1404 H1398 0.930 . S
C1404 C1405 1.367 . S
C1404 C1412 1.378 . S
C1405 C1404 1.367 . S
C1405 C1413 1.433 . S
C1406 H1402 0.929 . S
C1406 C1408 1.378 . S
C1406 C1410 1.350 . S
C1407 C1410 1.463 . S
C1407 C1412 1.350 . S
C1407 N1415 1.427 . S
C1408 H1399 0.930 . S
C1408 C1406 1.378 . S
C1408 C1409 1.367 . S
C1409 C1408 1.367 . S
C1409 C1411 1.433 . S
C1410 C1406 1.350 . S
C1410 C1407 1.463 . S
C1410 N1414 1.427 . S
C1411 H1401 0.929 . S
C1411 C1409 1.433 . S
C1411 N1414 1.384 . S
C1412 H1403 0.929 . S
C1412 C1404 1.378 . S
C1412 C1407 1.350 . S
C1413 H1400 0.929 . S
C1413 C1405 1.433 . S
C1413 N1415 1.384 . S
N1414 C1410 1.427 . S
N1414 C1411 1.384 . S
N1415 C1407 1.427 . S
N1415 C1413 1.384 . S
H1416 C1422 0.930 . S
H1417 C1426 0.930 . S
H1418 C1431 0.929 . S
H1419 C1429 0.929 . S
H1420 C1424 0.929 . S
H1421 C1430 0.929 . S
C1422 H1416 0.930 . S
C1422 C1423 1.367 . S
C1422 C1430 1.378 . S
C1423 C1422 1.367 . S
C1423 C1431 1.433 . S
C1424 H1420 0.929 . S
C1424 C1426 1.378 . S
C1424 C1428 1.350 . S
C1425 C1428 1.463 . S
C1425 C1430 1.350 . S
C1425 N1433 1.427 . S
C1426 H1417 0.930 . S
C1426 C1424 1.378 . S
C1426 C1427 1.367 . S
C1427 C1426 1.367 . S
C1427 C1429 1.433 . S
C1428 C1424 1.350 . S
C1428 C1425 1.463 . S
C1428 N1432 1.427 . S
C1429 H1419 0.929 . S
C1429 C1427 1.433 . S
C1429 N1432 1.384 . S
C1430 H1421 0.929 . S
C1430 C1422 1.378 . S
C1430 C1425 1.350 . S
C1431 H1418 0.929 . S
C1431 C1423 1.433 . S
C1431 N1433 1.384 . S
N1432 C1428 1.427 . S
N1432 C1429 1.384 . S
N1433 C1425 1.427 . S
N1433 C1431 1.384 . S
H1434 C1440 0.930 . S
H1435 C1444 0.930 . S
H1436 C1449 0.929 . S
H1437 C1447 0.929 . S
H1438 C1442 0.929 . S
H1439 C1448 0.929 . S
C1440 H1434 0.930 . S
C1440 C1441 1.367 . S
C1440 C1448 1.378 . S
C1441 C1440 1.367 . S
C1441 C1449 1.433 . S
C1442 H1438 0.929 . S
C1442 C1444 1.378 . S
C1442 C1446 1.350 . S
C1443 C1446 1.463 . S
C1443 C1448 1.350 . S
C1443 N1451 1.427 . S
C1444 H1435 0.930 . S
C1444 C1442 1.378 . S
C1444 C1445 1.367 . S
C1445 C1444 1.367 . S
C1445 C1447 1.433 . S
C1446 C1442 1.350 . S
C1446 C1443 1.463 . S
C1446 N1450 1.427 . S
C1447 H1437 0.929 . S
C1447 C1445 1.433 . S
C1447 N1450 1.384 . S
C1448 H1439 0.929 . S
C1448 C1440 1.378 . S
C1448 C1443 1.350 . S
C1449 H1436 0.929 . S
C1449 C1441 1.433 . S
C1449 N1451 1.384 . S
N1450 C1446 1.427 . S
N1450 C1447 1.384 . S
N1451 C1443 1.427 . S
N1451 C1449 1.384 . S
H1452 C1458 0.930 . S
H1453 C1462 0.930 . S
H1454 C1467 0.929 . S
H1455 C1465 0.929 . S
H1456 C1460 0.929 . S
H1457 C1466 0.929 . S
C1458 H1452 0.930 . S
C1458 C1459 1.367 . S
C1458 C1466 1.378 . S
C1459 C1458 1.367 . S
C1459 C1467 1.433 . S
C1460 H1456 0.929 . S
C1460 C1462 1.378 . S
C1460 C1464 1.350 . S
C1461 C1464 1.463 . S
C1461 C1466 1.350 . S
C1461 N1469 1.427 . S
C1462 H1453 0.930 . S
C1462 C1460 1.378 . S
C1462 C1463 1.367 . S
C1463 C1462 1.367 . S
C1463 C1465 1.433 . S
C1464 C1460 1.350 . S
C1464 C1461 1.463 . S
C1464 N1468 1.427 . S
C1465 H1455 0.929 . S
C1465 C1463 1.433 . S
C1465 N1468 1.384 . S
C1466 H1457 0.929 . S
C1466 C1458 1.378 . S
C1466 C1461 1.350 . S
C1467 H1454 0.929 . S
C1467 C1459 1.433 . S
C1467 N1469 1.384 . S
N1468 C1464 1.427 . S
N1468 C1465 1.384 . S
N1469 C1461 1.427 . S
N1469 C1467 1.384 . S
H1470 C1476 0.930 . S
H1471 C1480 0.930 . S
H1472 C1485 0.929 . S
H1473 C1483 0.929 . S
H1474 C1478 0.929 . S
H1475 C1484 0.929 . S
C1476 H1470 0.930 . S
C1476 C1477 1.367 . S
C1476 C1484 1.378 . S
C1477 C1476 1.367 . S
C1477 C1485 1.433 . S
C1478 H1474 0.929 . S
C1478 C1480 1.378 . S
C1478 C1482 1.350 . S
C1479 C1482 1.463 . S
C1479 C1484 1.350 . S
C1479 N1487 1.427 . S
C1480 H1471 0.930 . S
C1480 C1478 1.378 . S
C1480 C1481 1.367 . S
C1481 C1480 1.367 . S
C1481 C1483 1.433 . S
C1482 C1478 1.350 . S
C1482 C1479 1.463 . S
C1482 N1486 1.427 . S
C1483 H1473 0.929 . S
C1483 C1481 1.433 . S
C1483 N1486 1.384 . S
C1484 H1475 0.929 . S
C1484 C1476 1.378 . S
C1484 C1479 1.350 . S
C1485 H1472 0.929 . S
C1485 C1477 1.433 . S
C1485 N1487 1.384 . S
N1486 C1482 1.427 . S
N1486 C1483 1.384 . S
N1487 C1479 1.427 . S
N1487 C1485 1.384 . S
H1488 C1494 0.930 . S
H1489 C1498 0.930 . S
H1490 C1503 0.929 . S
H1491 C1501 0.929 . S
H1492 C1496 0.929 . S
H1493 C1502 0.929 . S
C1494 H1488 0.930 . S
C1494 C1495 1.367 . S
C1494 C1502 1.378 . S
C1495 C1494 1.367 . S
C1495 C1503 1.433 . S
C1496 H1492 0.929 . S
C1496 C1498 1.378 . S
C1496 C1500 1.350 . S
C1497 C1500 1.463 . S
C1497 C1502 1.350 . S
C1497 N1505 1.427 . S
C1498 H1489 0.930 . S
C1498 C1496 1.378 . S
C1498 C1499 1.367 . S
C1499 C1498 1.367 . S
C1499 C1501 1.433 . S
C1500 C1496 1.350 . S
C1500 C1497 1.463 . S
C1500 N1504 1.427 . S
C1501 H1491 0.929 . S
C1501 C1499 1.433 . S
C1501 N1504 1.384 . S
C1502 H1493 0.929 . S
C1502 C1494 1.378 . S
C1502 C1497 1.350 . S
C1503 H1490 0.929 . S
C1503 C1495 1.433 . S
C1503 N1505 1.384 . S
N1504 C1500 1.427 . S
N1504 C1501 1.384 . S
N1505 C1497 1.427 . S
N1505 C1503 1.384 . S
H1506 C1512 0.930 . S
H1507 C1516 0.930 . S
H1508 C1521 0.929 . S
H1509 C1519 0.929 . S
H1510 C1514 0.929 . S
H1511 C1520 0.929 . S
C1512 H1506 0.930 . S
C1512 C1513 1.367 . S
C1512 C1520 1.378 . S
C1513 C1512 1.367 . S
C1513 C1521 1.433 . S
C1514 H1510 0.929 . S
C1514 C1516 1.378 . S
C1514 C1518 1.350 . S
C1515 C1518 1.463 . S
C1515 C1520 1.350 . S
C1515 N1523 1.427 . S
C1516 H1507 0.930 . S
C1516 C1514 1.378 . S
C1516 C1517 1.367 . S
C1517 C1516 1.367 . S
C1517 C1519 1.433 . S
C1518 C1514 1.350 . S
C1518 C1515 1.463 . S
C1518 N1522 1.427 . S
C1519 H1509 0.929 . S
C1519 C1517 1.433 . S
C1519 N1522 1.384 . S
C1520 H1511 0.929 . S
C1520 C1512 1.378 . S
C1520 C1515 1.350 . S
C1521 H1508 0.929 . S
C1521 C1513 1.433 . S
C1521 N1523 1.384 . S
N1522 C1518 1.427 . S
N1522 C1519 1.384 . S
N1523 C1515 1.427 . S
N1523 C1521 1.384 . S
H1524 C1530 0.930 . S
H1525 C1534 0.930 . S
H1526 C1539 0.929 . S
H1527 C1537 0.929 . S
H1528 C1532 0.929 . S
H1529 C1538 0.929 . S
C1530 H1524 0.930 . S
C1530 C1531 1.367 . S
C1530 C1538 1.378 . S
C1531 C1530 1.367 . S
C1531 C1539 1.433 . S
C1532 H1528 0.929 . S
C1532 C1534 1.378 . S
C1532 C1536 1.350 . S
C1533 C1536 1.463 . S
C1533 C1538 1.350 . S
C1533 N1541 1.427 . S
C1534 H1525 0.930 . S
C1534 C1532 1.378 . S
C1534 C1535 1.367 . S
C1535 C1534 1.367 . S
C1535 C1537 1.433 . S
C1536 C1532 1.350 . S
C1536 C1533 1.463 . S
C1536 N1540 1.427 . S
C1537 H1527 0.929 . S
C1537 C1535 1.433 . S
C1537 N1540 1.384 . S
C1538 H1529 0.929 . S
C1538 C1530 1.378 . S
C1538 C1533 1.350 . S
C1539 H1526 0.929 . S
C1539 C1531 1.433 . S
C1539 N1541 1.384 . S
N1540 C1536 1.427 . S
N1540 C1537 1.384 . S
N1541 C1533 1.427 . S
N1541 C1539 1.384 . S
H1542 C1548 0.930 . S
H1543 C1552 0.930 . S
H1544 C1557 0.929 . S
H1545 C1555 0.929 . S
H1546 C1550 0.929 . S
H1547 C1556 0.929 . S
C1548 H1542 0.930 . S
C1548 C1549 1.367 . S
C1548 C1556 1.378 . S
C1549 C1548 1.367 . S
C1549 C1557 1.433 . S
C1550 H1546 0.929 . S
C1550 C1552 1.378 . S
C1550 C1554 1.350 . S
C1551 C1554 1.463 . S
C1551 C1556 1.350 . S
C1551 N1559 1.427 . S
C1552 H1543 0.930 . S
C1552 C1550 1.378 . S
C1552 C1553 1.367 . S
C1553 C1552 1.367 . S
C1553 C1555 1.433 . S
C1554 C1550 1.350 . S
C1554 C1551 1.463 . S
C1554 N1558 1.427 . S
C1555 H1545 0.929 . S
C1555 C1553 1.433 . S
C1555 N1558 1.384 . S
C1556 H1547 0.929 . S
C1556 C1548 1.378 . S
C1556 C1551 1.350 . S
C1557 H1544 0.929 . S
C1557 C1549 1.433 . S
C1557 N1559 1.384 . S
N1558 C1554 1.427 . S
N1558 C1555 1.384 . S
N1559 C1551 1.427 . S
N1559 C1557 1.384 . S
H1560 C1566 0.930 . S
H1561 C1570 0.930 . S
H1562 C1575 0.929 . S
H1563 C1573 0.929 . S
H1564 C1568 0.929 . S
H1565 C1574 0.929 . S
C1566 H1560 0.930 . S
C1566 C1567 1.367 . S
C1566 C1574 1.378 . S
C1567 C1566 1.367 . S
C1567 C1575 1.433 . S
C1568 H1564 0.929 . S
C1568 C1570 1.378 . S
C1568 C1572 1.350 . S
C1569 C1572 1.463 . S
C1569 C1574 1.350 . S
C1569 N1577 1.427 . S
C1570 H1561 0.930 . S
C1570 C1568 1.378 . S
C1570 C1571 1.367 . S
C1571 C1570 1.367 . S
C1571 C1573 1.433 . S
C1572 C1568 1.350 . S
C1572 C1569 1.463 . S
C1572 N1576 1.427 . S
C1573 H1563 0.929 . S
C1573 C1571 1.433 . S
C1573 N1576 1.384 . S
C1574 H1565 0.929 . S
C1574 C1566 1.378 . S
C1574 C1569 1.350 . S
C1575 H1562 0.929 . S
C1575 C1567 1.433 . S
C1575 N1577 1.384 . S
N1576 C1572 1.427 . S
N1576 C1573 1.384 . S
N1577 C1569 1.427 . S
N1577 C1575 1.384 . S
H1578 C1584 0.930 . S
H1579 C1588 0.930 . S
H1580 C1593 0.929 . S
H1581 C1591 0.929 . S
H1582 C1586 0.929 . S
H1583 C1592 0.929 . S
C1584 H1578 0.930 . S
C1584 C1585 1.367 . S
C1584 C1592 1.378 . S
C1585 C1584 1.367 . S
C1585 C1593 1.433 . S
C1586 H1582 0.929 . S
C1586 C1588 1.378 . S
C1586 C1590 1.350 . S
C1587 C1590 1.463 . S
C1587 C1592 1.350 . S
C1587 N1595 1.427 . S
C1588 H1579 0.930 . S
C1588 C1586 1.378 . S
C1588 C1589 1.367 . S
C1589 C1588 1.367 . S
C1589 C1591 1.433 . S
C1590 C1586 1.350 . S
C1590 C1587 1.463 . S
C1590 N1594 1.427 . S
C1591 H1581 0.929 . S
C1591 C1589 1.433 . S
C1591 N1594 1.384 . S
C1592 H1583 0.929 . S
C1592 C1584 1.378 . S
C1592 C1587 1.350 . S
C1593 H1580 0.929 . S
C1593 C1585 1.433 . S
C1593 N1595 1.384 . S
N1594 C1590 1.427 . S
N1594 C1591 1.384 . S
N1595 C1587 1.427 . S
N1595 C1593 1.384 . S
H1596 C1602 0.930 . S
H1597 C1606 0.930 . S
H1598 C1611 0.929 . S
H1599 C1609 0.929 . S
H1600 C1604 0.929 . S
H1601 C1610 0.929 . S
C1602 H1596 0.930 . S
C1602 C1603 1.367 . S
C1602 C1610 1.378 . S
C1603 C1602 1.367 . S
C1603 C1611 1.433 . S
C1604 H1600 0.929 . S
C1604 C1606 1.378 . S
C1604 C1608 1.350 . S
C1605 C1608 1.463 . S
C1605 C1610 1.350 . S
C1605 N1613 1.427 . S
C1606 H1597 0.930 . S
C1606 C1604 1.378 . S
C1606 C1607 1.367 . S
C1607 C1606 1.367 . S
C1607 C1609 1.433 . S
C1608 C1604 1.350 . S
C1608 C1605 1.463 . S
C1608 N1612 1.427 . S
C1609 H1599 0.929 . S
C1609 C1607 1.433 . S
C1609 N1612 1.384 . S
C1610 H1601 0.929 . S
C1610 C1602 1.378 . S
C1610 C1605 1.350 . S
C1611 H1598 0.929 . S
C1611 C1603 1.433 . S
C1611 N1613 1.384 . S
N1612 C1608 1.427 . S
N1612 C1609 1.384 . S
N1613 C1605 1.427 . S
N1613 C1611 1.384 . S
H1614 C1620 0.930 . S
H1615 C1624 0.930 . S
H1616 C1629 0.929 . S
H1617 C1627 0.929 . S
H1618 C1622 0.929 . S
H1619 C1628 0.929 . S
C1620 H1614 0.930 . S
C1620 C1621 1.367 . S
C1620 C1628 1.378 . S
C1621 C1620 1.367 . S
C1621 C1629 1.433 . S
C1622 H1618 0.929 . S
C1622 C1624 1.378 . S
C1622 C1626 1.350 . S
C1623 C1626 1.463 . S
C1623 C1628 1.350 . S
C1623 N1631 1.427 . S
C1624 H1615 0.930 . S
C1624 C1622 1.378 . S
C1624 C1625 1.367 . S
C1625 C1624 1.367 . S
C1625 C1627 1.433 . S
C1626 C1622 1.350 . S
C1626 C1623 1.463 . S
C1626 N1630 1.427 . S
C1627 H1617 0.929 . S
C1627 C1625 1.433 . S
C1627 N1630 1.384 . S
C1628 H1619 0.929 . S
C1628 C1620 1.378 . S
C1628 C1623 1.350 . S
C1629 H1616 0.929 . S
C1629 C1621 1.433 . S
C1629 N1631 1.384 . S
N1630 C1626 1.427 . S
N1630 C1627 1.384 . S
N1631 C1623 1.427 . S
N1631 C1629 1.384 . S
H1632 C1638 0.930 . S
H1633 C1642 0.930 . S
H1634 C1647 0.929 . S
H1635 C1645 0.929 . S
H1636 C1640 0.929 . S
H1637 C1646 0.929 . S
C1638 H1632 0.930 . S
C1638 C1639 1.367 . S
C1638 C1646 1.378 . S
C1639 C1638 1.367 . S
C1639 C1647 1.433 . S
C1640 H1636 0.929 . S
C1640 C1642 1.378 . S
C1640 C1644 1.350 . S
C1641 C1644 1.463 . S
C1641 C1646 1.350 . S
C1641 N1649 1.427 . S
C1642 H1633 0.930 . S
C1642 C1640 1.378 . S
C1642 C1643 1.367 . S
C1643 C1642 1.367 . S
C1643 C1645 1.433 . S
C1644 C1640 1.350 . S
C1644 C1641 1.463 . S
C1644 N1648 1.427 . S
C1645 H1635 0.929 . S
C1645 C1643 1.433 . S
C1645 N1648 1.384 . S
C1646 H1637 0.929 . S
C1646 C1638 1.378 . S
C1646 C1641 1.350 . S
C1647 H1634 0.929 . S
C1647 C1639 1.433 . S
C1647 N1649 1.384 . S
N1648 C1644 1.427 . S
N1648 C1645 1.384 . S
N1649 C1641 1.427 . S
N1649 C1647 1.384 . S
H1650 C1656 0.930 . S
H1651 C1660 0.930 . S
H1652 C1665 0.929 . S
H1653 C1663 0.929 . S
H1654 C1658 0.929 . S
H1655 C1664 0.929 . S
C1656 H1650 0.930 . S
C1656 C1657 1.367 . S
C1656 C1664 1.378 . S
C1657 C1656 1.367 . S
C1657 C1665 1.433 . S
C1658 H1654 0.929 . S
C1658 C1660 1.378 . S
C1658 C1662 1.350 . S
C1659 C1662 1.463 . S
C1659 C1664 1.350 . S
C1659 N1667 1.427 . S
C1660 H1651 0.930 . S
C1660 C1658 1.378 . S
C1660 C1661 1.367 . S
C1661 C1660 1.367 . S
C1661 C1663 1.433 . S
C1662 C1658 1.350 . S
C1662 C1659 1.463 . S
C1662 N1666 1.427 . S
C1663 H1653 0.929 . S
C1663 C1661 1.433 . S
C1663 N1666 1.384 . S
C1664 H1655 0.929 . S
C1664 C1656 1.378 . S
C1664 C1659 1.350 . S
C1665 H1652 0.929 . S
C1665 C1657 1.433 . S
C1665 N1667 1.384 . S
N1666 C1662 1.427 . S
N1666 C1663 1.384 . S
N1667 C1659 1.427 . S
N1667 C1665 1.384 . S
H1668 C1674 0.930 . S
H1669 C1678 0.930 . S
H1670 C1683 0.929 . S
H1671 C1681 0.929 . S
H1672 C1676 0.929 . S
H1673 C1682 0.929 . S
C1674 H1668 0.930 . S
C1674 C1675 1.367 . S
C1674 C1682 1.378 . S
C1675 C1674 1.367 . S
C1675 C1683 1.433 . S
C1676 H1672 0.929 . S
C1676 C1678 1.378 . S
C1676 C1680 1.350 . S
C1677 C1680 1.463 . S
C1677 C1682 1.350 . S
C1677 N1685 1.427 . S
C1678 H1669 0.930 . S
C1678 C1676 1.378 . S
C1678 C1679 1.367 . S
C1679 C1678 1.367 . S
C1679 C1681 1.433 . S
C1680 C1676 1.350 . S
C1680 C1677 1.463 . S
C1680 N1684 1.427 . S
C1681 H1671 0.929 . S
C1681 C1679 1.433 . S
C1681 N1684 1.384 . S
C1682 H1673 0.929 . S
C1682 C1674 1.378 . S
C1682 C1677 1.350 . S
C1683 H1670 0.929 . S
C1683 C1675 1.433 . S
C1683 N1685 1.384 . S
N1684 C1680 1.427 . S
N1684 C1681 1.384 . S
N1685 C1677 1.427 . S
N1685 C1683 1.384 . S
H1686 C1692 0.930 . S
H1687 C1696 0.930 . S
H1688 C1701 0.929 . S
H1689 C1699 0.929 . S
H1690 C1694 0.929 . S
H1691 C1700 0.929 . S
C1692 H1686 0.930 . S
C1692 C1693 1.367 . S
C1692 C1700 1.378 . S
C1693 C1692 1.367 . S
C1693 C1701 1.433 . S
C1694 H1690 0.929 . S
C1694 C1696 1.378 . S
C1694 C1698 1.350 . S
C1695 C1698 1.463 . S
C1695 C1700 1.350 . S
C1695 N1703 1.427 . S
C1696 H1687 0.930 . S
C1696 C1694 1.378 . S
C1696 C1697 1.367 . S
C1697 C1696 1.367 . S
C1697 C1699 1.433 . S
C1698 C1694 1.350 . S
C1698 C1695 1.463 . S
C1698 N1702 1.427 . S
C1699 H1689 0.929 . S
C1699 C1697 1.433 . S
C1699 N1702 1.384 . S
C1700 H1691 0.929 . S
C1700 C1692 1.378 . S
C1700 C1695 1.350 . S
C1701 H1688 0.929 . S
C1701 C1693 1.433 . S
C1701 N1703 1.384 . S
N1702 C1698 1.427 . S
N1702 C1699 1.384 . S
N1703 C1695 1.427 . S
N1703 C1701 1.384 . S
H1704 C1710 0.930 . S
H1705 C1714 0.930 . S
H1706 C1719 0.929 . S
H1707 C1717 0.929 . S
H1708 C1712 0.929 . S
H1709 C1718 0.929 . S
C1710 H1704 0.930 . S
C1710 C1711 1.367 . S
C1710 C1718 1.378 . S
C1711 C1710 1.367 . S
C1711 C1719 1.433 . S
C1712 H1708 0.929 . S
C1712 C1714 1.378 . S
C1712 C1716 1.350 . S
C1713 C1716 1.463 . S
C1713 C1718 1.350 . S
C1713 N1721 1.427 . S
C1714 H1705 0.930 . S
C1714 C1712 1.378 . S
C1714 C1715 1.367 . S
C1715 C1714 1.367 . S
C1715 C1717 1.433 . S
C1716 C1712 1.350 . S
C1716 C1713 1.463 . S
C1716 N1720 1.427 . S
C1717 H1707 0.929 . S
C1717 C1715 1.433 . S
C1717 N1720 1.384 . S
C1718 H1709 0.929 . S
C1718 C1710 1.378 . S
C1718 C1713 1.350 . S
C1719 H1706 0.929 . S
C1719 C1711 1.433 . S
C1719 N1721 1.384 . S
N1720 C1716 1.427 . S
N1720 C1717 1.384 . S
N1721 C1713 1.427 . S
N1721 C1719 1.384 . S
H1722 C1728 0.930 . S
H1723 C1732 0.930 . S
H1724 C1737 0.929 . S
H1725 C1735 0.929 . S
H1726 C1730 0.929 . S
H1727 C1736 0.929 . S
C1728 H1722 0.930 . S
C1728 C1729 1.367 . S
C1728 C1736 1.378 . S
C1729 C1728 1.367 . S
C1729 C1737 1.433 . S
C1730 H1726 0.929 . S
C1730 C1732 1.378 . S
C1730 C1734 1.350 . S
C1731 C1734 1.463 . S
C1731 C1736 1.350 . S
C1731 N1739 1.427 . S
C1732 H1723 0.930 . S
C1732 C1730 1.378 . S
C1732 C1733 1.367 . S
C1733 C1732 1.367 . S
C1733 C1735 1.433 . S
C1734 C1730 1.350 . S
C1734 C1731 1.463 . S
C1734 N1738 1.427 . S
C1735 H1725 0.929 . S
C1735 C1733 1.433 . S
C1735 N1738 1.384 . S
C1736 H1727 0.929 . S
C1736 C1728 1.378 . S
C1736 C1731 1.350 . S
C1737 H1724 0.929 . S
C1737 C1729 1.433 . S
C1737 N1739 1.384 . S
N1738 C1734 1.427 . S
N1738 C1735 1.384 . S
N1739 C1731 1.427 . S
N1739 C1737 1.384 . S
H1740 C1746 0.930 . S
H1741 C1750 0.930 . S
H1742 C1755 0.929 . S
H1743 C1753 0.929 . S
H1744 C1748 0.929 . S
H1745 C1754 0.929 . S
C1746 H1740 0.930 . S
C1746 C1747 1.367 . S
C1746 C1754 1.378 . S
C1747 C1746 1.367 . S
C1747 C1755 1.433 . S
C1748 H1744 0.929 . S
C1748 C1750 1.378 . S
C1748 C1752 1.350 . S
C1749 C1752 1.463 . S
C1749 C1754 1.350 . S
C1749 N1757 1.427 . S
C1750 H1741 0.930 . S
C1750 C1748 1.378 . S
C1750 C1751 1.367 . S
C1751 C1750 1.367 . S
C1751 C1753 1.433 . S
C1752 C1748 1.350 . S
C1752 C1749 1.463 . S
C1752 N1756 1.427 . S
C1753 H1743 0.929 . S
C1753 C1751 1.433 . S
C1753 N1756 1.384 . S
C1754 H1745 0.929 . S
C1754 C1746 1.378 . S
C1754 C1749 1.350 . S
C1755 H1742 0.929 . S
C1755 C1747 1.433 . S
C1755 N1757 1.384 . S
N1756 C1752 1.427 . S
N1756 C1753 1.384 . S
N1757 C1749 1.427 . S
N1757 C1755 1.384 . S
H1758 C1764 0.930 . S
H1759 C1768 0.930 . S
H1760 C1773 0.929 . S
H1761 C1771 0.929 . S
H1762 C1766 0.929 . S
H1763 C1772 0.929 . S
C1764 H1758 0.930 . S
C1764 C1765 1.367 . S
C1764 C1772 1.378 . S
C1765 C1764 1.367 . S
C1765 C1773 1.433 . S
C1766 H1762 0.929 . S
C1766 C1768 1.378 . S
C1766 C1770 1.350 . S
C1767 C1770 1.463 . S
C1767 C1772 1.350 . S
C1767 N1775 1.427 . S
C1768 H1759 0.930 . S
C1768 C1766 1.378 . S
C1768 C1769 1.367 . S
C1769 C1768 1.367 . S
C1769 C1771 1.433 . S
C1770 C1766 1.350 . S
C1770 C1767 1.463 . S
C1770 N1774 1.427 . S
C1771 H1761 0.929 . S
C1771 C1769 1.433 . S
C1771 N1774 1.384 . S
C1772 H1763 0.929 . S
C1772 C1764 1.378 . S
C1772 C1767 1.350 . S
C1773 H1760 0.929 . S
C1773 C1765 1.433 . S
C1773 N1775 1.384 . S
N1774 C1770 1.427 . S
N1774 C1771 1.384 . S
N1775 C1767 1.427 . S
N1775 C1773 1.384 . S
H1776 C1782 0.930 . S
H1777 C1786 0.930 . S
H1778 C1791 0.929 . S
H1779 C1789 0.929 . S
H1780 C1784 0.929 . S
H1781 C1790 0.929 . S
C1782 H1776 0.930 . S
C1782 C1783 1.367 . S
C1782 C1790 1.378 . S
C1783 C1782 1.367 . S
C1783 C1791 1.433 . S
C1784 H1780 0.929 . S
C1784 C1786 1.378 . S
C1784 C1788 1.350 . S
C1785 C1788 1.463 . S
C1785 C1790 1.350 . S
C1785 N1793 1.427 . S
C1786 H1777 0.930 . S
C1786 C1784 1.378 . S
C1786 C1787 1.367 . S
C1787 C1786 1.367 . S
C1787 C1789 1.433 . S
C1788 C1784 1.350 . S
C1788 C1785 1.463 . S
C1788 N1792 1.427 . S
C1789 H1779 0.929 . S
C1789 C1787 1.433 . S
C1789 N1792 1.384 . S
C1790 H1781 0.929 . S
C1790 C1782 1.378 . S
C1790 C1785 1.350 . S
C1791 H1778 0.929 . S
C1791 C1783 1.433 . S
C1791 N1793 1.384 . S
N1792 C1788 1.427 . S
N1792 C1789 1.384 . S
N1793 C1785 1.427 . S
N1793 C1791 1.384 . S
H1794 C1800 0.930 . S
H1795 C1804 0.930 . S
H1796 C1809 0.929 . S
H1797 C1807 0.929 . S
H1798 C1802 0.929 . S
H1799 C1808 0.929 . S
C1800 H1794 0.930 . S
C1800 C1801 1.367 . S
C1800 C1808 1.378 . S
C1801 C1800 1.367 . S
C1801 C1809 1.433 . S
C1802 H1798 0.929 . S
C1802 C1804 1.378 . S
C1802 C1806 1.350 . S
C1803 C1806 1.463 . S
C1803 C1808 1.350 . S
C1803 N1811 1.427 . S
C1804 H1795 0.930 . S
C1804 C1802 1.378 . S
C1804 C1805 1.367 . S
C1805 C1804 1.367 . S
C1805 C1807 1.433 . S
C1806 C1802 1.350 . S
C1806 C1803 1.463 . S
C1806 N1810 1.427 . S
C1807 H1797 0.929 . S
C1807 C1805 1.433 . S
C1807 N1810 1.384 . S
C1808 H1799 0.929 . S
C1808 C1800 1.378 . S
C1808 C1803 1.350 . S
C1809 H1796 0.929 . S
C1809 C1801 1.433 . S
C1809 N1811 1.384 . S
N1810 C1806 1.427 . S
N1810 C1807 1.384 . S
N1811 C1803 1.427 . S
N1811 C1809 1.384 . S
H1812 C1818 0.930 . S
H1813 C1822 0.930 . S
H1814 C1827 0.929 . S
H1815 C1825 0.929 . S
H1816 C1820 0.929 . S
H1817 C1826 0.929 . S
C1818 H1812 0.930 . S
C1818 C1819 1.367 . S
C1818 C1826 1.378 . S
C1819 C1818 1.367 . S
C1819 C1827 1.433 . S
C1820 H1816 0.929 . S
C1820 C1822 1.378 . S
C1820 C1824 1.350 . S
C1821 C1824 1.463 . S
C1821 C1826 1.350 . S
C1821 N1829 1.427 . S
C1822 H1813 0.930 . S
C1822 C1820 1.378 . S
C1822 C1823 1.367 . S
C1823 C1822 1.367 . S
C1823 C1825 1.433 . S
C1824 C1820 1.350 . S
C1824 C1821 1.463 . S
C1824 N1828 1.427 . S
C1825 H1815 0.929 . S
C1825 C1823 1.433 . S
C1825 N1828 1.384 . S
C1826 H1817 0.929 . S
C1826 C1818 1.378 . S
C1826 C1821 1.350 . S
C1827 H1814 0.929 . S
C1827 C1819 1.433 . S
C1827 N1829 1.384 . S
N1828 C1824 1.427 . S
N1828 C1825 1.384 . S
N1829 C1821 1.427 . S
N1829 C1827 1.384 . S
H1830 C1836 0.930 . S
H1831 C1840 0.930 . S
H1832 C1845 0.929 . S
H1833 C1843 0.929 . S
H1834 C1838 0.929 . S
H1835 C1844 0.929 . S
C1836 H1830 0.930 . S
C1836 C1837 1.367 . S
C1836 C1844 1.378 . S
C1837 C1836 1.367 . S
C1837 C1845 1.433 . S
C1838 H1834 0.929 . S
C1838 C1840 1.378 . S
C1838 C1842 1.350 . S
C1839 C1842 1.463 . S
C1839 C1844 1.350 . S
C1839 N1847 1.427 . S
C1840 H1831 0.930 . S
C1840 C1838 1.378 . S
C1840 C1841 1.367 . S
C1841 C1840 1.367 . S
C1841 C1843 1.433 . S
C1842 C1838 1.350 . S
C1842 C1839 1.463 . S
C1842 N1846 1.427 . S
C1843 H1833 0.929 . S
C1843 C1841 1.433 . S
C1843 N1846 1.384 . S
C1844 H1835 0.929 . S
C1844 C1836 1.378 . S
C1844 C1839 1.350 . S
C1845 H1832 0.929 . S
C1845 C1837 1.433 . S
C1845 N1847 1.384 . S
N1846 C1842 1.427 . S
N1846 C1843 1.384 . S
N1847 C1839 1.427 . S
N1847 C1845 1.384 . S
H1848 C1854 0.930 . S
H1849 C1858 0.930 . S
H1850 C1863 0.929 . S
H1851 C1861 0.929 . S
H1852 C1856 0.929 . S
H1853 C1862 0.929 . S
C1854 H1848 0.930 . S
C1854 C1855 1.367 . S
C1854 C1862 1.378 . S
C1855 C1854 1.367 . S
C1855 C1863 1.433 . S
C1856 H1852 0.929 . S
C1856 C1858 1.378 . S
C1856 C1860 1.350 . S
C1857 C1860 1.463 . S
C1857 C1862 1.350 . S
C1857 N1865 1.427 . S
C1858 H1849 0.930 . S
C1858 C1856 1.378 . S
C1858 C1859 1.367 . S
C1859 C1858 1.367 . S
C1859 C1861 1.433 . S
C1860 C1856 1.350 . S
C1860 C1857 1.463 . S
C1860 N1864 1.427 . S
C1861 H1851 0.929 . S
C1861 C1859 1.433 . S
C1861 N1864 1.384 . S
C1862 H1853 0.929 . S
C1862 C1854 1.378 . S
C1862 C1857 1.350 . S
C1863 H1850 0.929 . S
C1863 C1855 1.433 . S
C1863 N1865 1.384 . S
N1864 C1860 1.427 . S
N1864 C1861 1.384 . S
N1865 C1857 1.427 . S
N1865 C1863 1.384 . S
H1866 C1872 0.930 . S
H1867 C1876 0.930 . S
H1868 C1881 0.929 . S
H1869 C1879 0.929 . S
H1870 C1874 0.929 . S
H1871 C1880 0.929 . S
C1872 H1866 0.930 . S
C1872 C1873 1.367 . S
C1872 C1880 1.378 . S
C1873 C1872 1.367 . S
C1873 C1881 1.433 . S
C1874 H1870 0.929 . S
C1874 C1876 1.378 . S
C1874 C1878 1.350 . S
C1875 C1878 1.463 . S
C1875 C1880 1.350 . S
C1875 N1883 1.427 . S
C1876 H1867 0.930 . S
C1876 C1874 1.378 . S
C1876 C1877 1.367 . S
C1877 C1876 1.367 . S
C1877 C1879 1.433 . S
C1878 C1874 1.350 . S
C1878 C1875 1.463 . S
C1878 N1882 1.427 . S
C1879 H1869 0.929 . S
C1879 C1877 1.433 . S
C1879 N1882 1.384 . S
C1880 H1871 0.929 . S
C1880 C1872 1.378 . S
C1880 C1875 1.350 . S
C1881 H1868 0.929 . S
C1881 C1873 1.433 . S
C1881 N1883 1.384 . S
N1882 C1878 1.427 . S
N1882 C1879 1.384 . S
N1883 C1875 1.427 . S
N1883 C1881 1.384 . S
H1884 C1890 0.930 . S
H1885 C1894 0.930 . S
H1886 C1899 0.929 . S
H1887 C1897 0.929 . S
H1888 C1892 0.929 . S
H1889 C1898 0.929 . S
C1890 H1884 0.930 . S
C1890 C1891 1.367 . S
C1890 C1898 1.378 . S
C1891 C1890 1.367 . S
C1891 C1899 1.433 . S
C1892 H1888 0.929 . S
C1892 C1894 1.378 . S
C1892 C1896 1.350 . S
C1893 C1896 1.463 . S
C1893 C1898 1.350 . S
C1893 N1901 1.427 . S
C1894 H1885 0.930 . S
C1894 C1892 1.378 . S
C1894 C1895 1.367 . S
C1895 C1894 1.367 . S
C1895 C1897 1.433 . S
C1896 C1892 1.350 . S
C1896 C1893 1.463 . S
C1896 N1900 1.427 . S
C1897 H1887 0.929 . S
C1897 C1895 1.433 . S
C1897 N1900 1.384 . S
C1898 H1889 0.929 . S
C1898 C1890 1.378 . S
C1898 C1893 1.350 . S
C1899 H1886 0.929 . S
C1899 C1891 1.433 . S
C1899 N1901 1.384 . S
N1900 C1896 1.427 . S
N1900 C1897 1.384 . S
N1901 C1893 1.427 . S
N1901 C1899 1.384 . S
H1902 C1908 0.930 . S
H1903 C1912 0.930 . S
H1904 C1917 0.929 . S
H1905 C1915 0.929 . S
H1906 C1910 0.929 . S
H1907 C1916 0.929 . S
C1908 H1902 0.930 . S
C1908 C1909 1.367 . S
C1908 C1916 1.378 . S
C1909 C1908 1.367 . S
C1909 C1917 1.433 . S
C1910 H1906 0.929 . S
C1910 C1912 1.378 . S
C1910 C1914 1.350 . S
C1911 C1914 1.463 . S
C1911 C1916 1.350 . S
C1911 N1919 1.427 . S
C1912 H1903 0.930 . S
C1912 C1910 1.378 . S
C1912 C1913 1.367 . S
C1913 C1912 1.367 . S
C1913 C1915 1.433 . S
C1914 C1910 1.350 . S
C1914 C1911 1.463 . S
C1914 N1918 1.427 . S
C1915 H1905 0.929 . S
C1915 C1913 1.433 . S
C1915 N1918 1.384 . S
C1916 H1907 0.929 . S
C1916 C1908 1.378 . S
C1916 C1911 1.350 . S
C1917 H1904 0.929 . S
C1917 C1909 1.433 . S
C1917 N1919 1.384 . S
N1918 C1914 1.427 . S
N1918 C1915 1.384 . S
N1919 C1911 1.427 . S
N1919 C1917 1.384 . S
H1920 C1926 0.930 . S
H1921 C1930 0.930 . S
H1922 C1935 0.929 . S
H1923 C1933 0.929 . S
H1924 C1928 0.929 . S
H1925 C1934 0.929 . S
C1926 H1920 0.930 . S
C1926 C1927 1.367 . S
C1926 C1934 1.378 . S
C1927 C1926 1.367 . S
C1927 C1935 1.433 . S
C1928 H1924 0.929 . S
C1928 C1930 1.378 . S
C1928 C1932 1.350 . S
C1929 C1932 1.463 . S
C1929 C1934 1.350 . S
C1929 N1937 1.427 . S
C1930 H1921 0.930 . S
C1930 C1928 1.378 . S
C1930 C1931 1.367 . S
C1931 C1930 1.367 . S
C1931 C1933 1.433 . S
C1932 C1928 1.350 . S
C1932 C1929 1.463 . S
C1932 N1936 1.427 . S
C1933 H1923 0.929 . S
C1933 C1931 1.433 . S
C1933 N1936 1.384 . S
C1934 H1925 0.929 . S
C1934 C1926 1.378 . S
C1934 C1929 1.350 . S
C1935 H1922 0.929 . S
C1935 C1927 1.433 . S
C1935 N1937 1.384 . S
N1936 C1932 1.427 . S
N1936 C1933 1.384 . S
N1937 C1929 1.427 . S
N1937 C1935 1.384 . S
H1938 C1944 0.930 . S
H1939 C1948 0.930 . S
H1940 C1953 0.929 . S
H1941 C1951 0.929 . S
H1942 C1946 0.929 . S
H1943 C1952 0.929 . S
C1944 H1938 0.930 . S
C1944 C1945 1.367 . S
C1944 C1952 1.378 . S
C1945 C1944 1.367 . S
C1945 C1953 1.433 . S
C1946 H1942 0.929 . S
C1946 C1948 1.378 . S
C1946 C1950 1.350 . S
C1947 C1950 1.463 . S
C1947 C1952 1.350 . S
C1947 N1955 1.427 . S
C1948 H1939 0.930 . S
C1948 C1946 1.378 . S
C1948 C1949 1.367 . S
C1949 C1948 1.367 . S
C1949 C1951 1.433 . S
C1950 C1946 1.350 . S
C1950 C1947 1.463 . S
C1950 N1954 1.427 . S
C1951 H1941 0.929 . S
C1951 C1949 1.433 . S
C1951 N1954 1.384 . S
C1952 H1943 0.929 . S
C1952 C1944 1.378 . S
C1952 C1947 1.350 . S
C1953 H1940 0.929 . S
C1953 C1945 1.433 . S
C1953 N1955 1.384 . S
N1954 C1950 1.427 . S
N1954 C1951 1.384 . S
N1955 C1947 1.427 . S
N1955 C1953 1.384 . S
H1956 C1962 0.930 . S
H1957 C1966 0.930 . S
H1958 C1971 0.929 . S
H1959 C1969 0.929 . S
H1960 C1964 0.929 . S
H1961 C1970 0.929 . S
C1962 H1956 0.930 . S
C1962 C1963 1.367 . S
C1962 C1970 1.378 . S
C1963 C1962 1.367 . S
C1963 C1971 1.433 . S
C1964 H1960 0.929 . S
C1964 C1966 1.378 . S
C1964 C1968 1.350 . S
C1965 C1968 1.463 . S
C1965 C1970 1.350 . S
C1965 N1973 1.427 . S
C1966 H1957 0.930 . S
C1966 C1964 1.378 . S
C1966 C1967 1.367 . S
C1967 C1966 1.367 . S
C1967 C1969 1.433 . S
C1968 C1964 1.350 . S
C1968 C1965 1.463 . S
C1968 N1972 1.427 . S
C1969 H1959 0.929 . S
C1969 C1967 1.433 . S
C1969 N1972 1.384 . S
C1970 H1961 0.929 . S
C1970 C1962 1.378 . S
C1970 C1965 1.350 . S
C1971 H1958 0.929 . S
C1971 C1963 1.433 . S
C1971 N1973 1.384 . S
N1972 C1968 1.427 . S
N1972 C1969 1.384 . S
N1973 C1965 1.427 . S
N1973 C1971 1.384 . S
H1974 C1980 0.930 . S
H1975 C1984 0.930 . S
H1976 C1989 0.929 . S
H1977 C1987 0.929 . S
H1978 C1982 0.929 . S
H1979 C1988 0.929 . S
C1980 H1974 0.930 . S
C1980 C1981 1.367 . S
C1980 C1988 1.378 . S
C1981 C1980 1.367 . S
C1981 C1989 1.433 . S
C1982 H1978 0.929 . S
C1982 C1984 1.378 . S
C1982 C1986 1.350 . S
C1983 C1986 1.463 . S
C1983 C1988 1.350 . S
C1983 N1991 1.427 . S
C1984 H1975 0.930 . S
C1984 C1982 1.378 . S
C1984 C1985 1.367 . S
C1985 C1984 1.367 . S
C1985 C1987 1.433 . S
C1986 C1982 1.350 . S
C1986 C1983 1.463 . S
C1986 N1990 1.427 . S
C1987 H1977 0.929 . S
C1987 C1985 1.433 . S
C1987 N1990 1.384 . S
C1988 H1979 0.929 . S
C1988 C1980 1.378 . S
C1988 C1983 1.350 . S
C1989 H1976 0.929 . S
C1989 C1981 1.433 . S
C1989 N1991 1.384 . S
N1990 C1986 1.427 . S
N1990 C1987 1.384 . S
N1991 C1983 1.427 . S
N1991 C1989 1.384 . S
H1992 C1998 0.930 . S
H1993 C2002 0.930 . S
H1994 C2007 0.929 . S
H1995 C2005 0.929 . S
H1996 C2000 0.929 . S
H1997 C2006 0.929 . S
C1998 H1992 0.930 . S
C1998 C1999 1.367 . S
C1998 C2006 1.378 . S
C1999 C1998 1.367 . S
C1999 C2007 1.433 . S
C2000 H1996 0.929 . S
C2000 C2002 1.378 . S
C2000 C2004 1.350 . S
C2001 C2004 1.463 . S
C2001 C2006 1.350 . S
C2001 N2009 1.427 . S
C2002 H1993 0.930 . S
C2002 C2000 1.378 . S
C2002 C2003 1.367 . S
C2003 C2002 1.367 . S
C2003 C2005 1.433 . S
C2004 C2000 1.350 . S
C2004 C2001 1.463 . S
C2004 N2008 1.427 . S
C2005 H1995 0.929 . S
C2005 C2003 1.433 . S
C2005 N2008 1.384 . S
C2006 H1997 0.929 . S
C2006 C1998 1.378 . S
C2006 C2001 1.350 . S
C2007 H1994 0.929 . S
C2007 C1999 1.433 . S
C2007 N2009 1.384 . S
N2008 C2004 1.427 . S
N2008 C2005 1.384 . S
N2009 C2001 1.427 . S
N2009 C2007 1.384 . S
H2010 C2016 0.930 . S
H2011 C2020 0.930 . S
H2012 C2025 0.929 . S
H2013 C2023 0.929 . S
H2014 C2018 0.929 . S
H2015 C2024 0.929 . S
C2016 H2010 0.930 . S
C2016 C2017 1.367 . S
C2016 C2024 1.378 . S
C2017 C2016 1.367 . S
C2017 C2025 1.433 . S
C2018 H2014 0.929 . S
C2018 C2020 1.378 . S
C2018 C2022 1.350 . S
C2019 C2022 1.463 . S
C2019 C2024 1.350 . S
C2019 N2027 1.427 . S
C2020 H2011 0.930 . S
C2020 C2018 1.378 . S
C2020 C2021 1.367 . S
C2021 C2020 1.367 . S
C2021 C2023 1.433 . S
C2022 C2018 1.350 . S
C2022 C2019 1.463 . S
C2022 N2026 1.427 . S
C2023 H2013 0.929 . S
C2023 C2021 1.433 . S
C2023 N2026 1.384 . S
C2024 H2015 0.929 . S
C2024 C2016 1.378 . S
C2024 C2019 1.350 . S
C2025 H2012 0.929 . S
C2025 C2017 1.433 . S
C2025 N2027 1.384 . S
N2026 C2022 1.427 . S
N2026 C2023 1.384 . S
N2027 C2019 1.427 . S
N2027 C2025 1.384 . S
H2028 C2034 0.930 . S
H2029 C2038 0.930 . S
H2030 C2043 0.929 . S
H2031 C2041 0.929 . S
H2032 C2036 0.929 . S
H2033 C2042 0.929 . S
C2034 H2028 0.930 . S
C2034 C2035 1.367 . S
C2034 C2042 1.378 . S
C2035 C2034 1.367 . S
C2035 C2043 1.433 . S
C2036 H2032 0.929 . S
C2036 C2038 1.378 . S
C2036 C2040 1.350 . S
C2037 C2040 1.463 . S
C2037 C2042 1.350 . S
C2037 N2045 1.427 . S
C2038 H2029 0.930 . S
C2038 C2036 1.378 . S
C2038 C2039 1.367 . S
C2039 C2038 1.367 . S
C2039 C2041 1.433 . S
C2040 C2036 1.350 . S
C2040 C2037 1.463 . S
C2040 N2044 1.427 . S
C2041 H2031 0.929 . S
C2041 C2039 1.433 . S
C2041 N2044 1.384 . S
C2042 H2033 0.929 . S
C2042 C2034 1.378 . S
C2042 C2037 1.350 . S
C2043 H2030 0.929 . S
C2043 C2035 1.433 . S
C2043 N2045 1.384 . S
N2044 C2040 1.427 . S
N2044 C2041 1.384 . S
N2045 C2037 1.427 . S
N2045 C2043 1.384 . S
H2046 C2052 0.930 . S
H2047 C2056 0.930 . S
H2048 C2061 0.929 . S
H2049 C2059 0.929 . S
H2050 C2054 0.929 . S
H2051 C2060 0.929 . S
C2052 H2046 0.930 . S
C2052 C2053 1.367 . S
C2052 C2060 1.378 . S
C2053 C2052 1.367 . S
C2053 C2061 1.433 . S
C2054 H2050 0.929 . S
C2054 C2056 1.378 . S
C2054 C2058 1.350 . S
C2055 C2058 1.463 . S
C2055 C2060 1.350 . S
C2055 N2063 1.427 . S
C2056 H2047 0.930 . S
C2056 C2054 1.378 . S
C2056 C2057 1.367 . S
C2057 C2056 1.367 . S
C2057 C2059 1.433 . S
C2058 C2054 1.350 . S
C2058 C2055 1.463 . S
C2058 N2062 1.427 . S
C2059 H2049 0.929 . S
C2059 C2057 1.433 . S
C2059 N2062 1.384 . S
C2060 H2051 0.929 . S
C2060 C2052 1.378 . S
C2060 C2055 1.350 . S
C2061 H2048 0.929 . S
C2061 C2053 1.433 . S
C2061 N2063 1.384 . S
N2062 C2058 1.427 . S
N2062 C2059 1.384 . S
N2063 C2055 1.427 . S
N2063 C2061 1.384 . S
H2064 C2070 0.930 . S
H2065 C2074 0.930 . S
H2066 C2079 0.929 . S
H2067 C2077 0.929 . S
H2068 C2072 0.929 . S
H2069 C2078 0.929 . S
C2070 H2064 0.930 . S
C2070 C2071 1.367 . S
C2070 C2078 1.378 . S
C2071 C2070 1.367 . S
C2071 C2079 1.433 . S
C2072 H2068 0.929 . S
C2072 C2074 1.378 . S
C2072 C2076 1.350 . S
C2073 C2076 1.463 . S
C2073 C2078 1.350 . S
C2073 N2081 1.427 . S
C2074 H2065 0.930 . S
C2074 C2072 1.378 . S
C2074 C2075 1.367 . S
C2075 C2074 1.367 . S
C2075 C2077 1.433 . S
C2076 C2072 1.350 . S
C2076 C2073 1.463 . S
C2076 N2080 1.427 . S
C2077 H2067 0.929 . S
C2077 C2075 1.433 . S
C2077 N2080 1.384 . S
C2078 H2069 0.929 . S
C2078 C2070 1.378 . S
C2078 C2073 1.350 . S
C2079 H2066 0.929 . S
C2079 C2071 1.433 . S
C2079 N2081 1.384 . S
N2080 C2076 1.427 . S
N2080 C2077 1.384 . S
N2081 C2073 1.427 . S
N2081 C2079 1.384 . S
H2082 C2088 0.930 . S
H2083 C2092 0.930 . S
H2084 C2097 0.929 . S
H2085 C2095 0.929 . S
H2086 C2090 0.929 . S
H2087 C2096 0.929 . S
C2088 H2082 0.930 . S
C2088 C2089 1.367 . S
C2088 C2096 1.378 . S
C2089 C2088 1.367 . S
C2089 C2097 1.433 . S
C2090 H2086 0.929 . S
C2090 C2092 1.378 . S
C2090 C2094 1.350 . S
C2091 C2094 1.463 . S
C2091 C2096 1.350 . S
C2091 N2099 1.427 . S
C2092 H2083 0.930 . S
C2092 C2090 1.378 . S
C2092 C2093 1.367 . S
C2093 C2092 1.367 . S
C2093 C2095 1.433 . S
C2094 C2090 1.350 . S
C2094 C2091 1.463 . S
C2094 N2098 1.427 . S
C2095 H2085 0.929 . S
C2095 C2093 1.433 . S
C2095 N2098 1.384 . S
C2096 H2087 0.929 . S
C2096 C2088 1.378 . S
C2096 C2091 1.350 . S
C2097 H2084 0.929 . S
C2097 C2089 1.433 . S
C2097 N2099 1.384 . S
N2098 C2094 1.427 . S
N2098 C2095 1.384 . S
N2099 C2091 1.427 . S
N2099 C2097 1.384 . S
H2100 C2106 0.930 . S
H2101 C2110 0.930 . S
H2102 C2115 0.929 . S
H2103 C2113 0.929 . S
H2104 C2108 0.929 . S
H2105 C2114 0.929 . S
C2106 H2100 0.930 . S
C2106 C2107 1.367 . S
C2106 C2114 1.378 . S
C2107 C2106 1.367 . S
C2107 C2115 1.433 . S
C2108 H2104 0.929 . S
C2108 C2110 1.378 . S
C2108 C2112 1.350 . S
C2109 C2112 1.463 . S
C2109 C2114 1.350 . S
C2109 N2117 1.427 . S
C2110 H2101 0.930 . S
C2110 C2108 1.378 . S
C2110 C2111 1.367 . S
C2111 C2110 1.367 . S
C2111 C2113 1.433 . S
C2112 C2108 1.350 . S
C2112 C2109 1.463 . S
C2112 N2116 1.427 . S
C2113 H2103 0.929 . S
C2113 C2111 1.433 . S
C2113 N2116 1.384 . S
C2114 H2105 0.929 . S
C2114 C2106 1.378 . S
C2114 C2109 1.350 . S
C2115 H2102 0.929 . S
C2115 C2107 1.433 . S
C2115 N2117 1.384 . S
N2116 C2112 1.427 . S
N2116 C2113 1.384 . S
N2117 C2109 1.427 . S
N2117 C2115 1.384 . S
H2118 C2124 0.930 . S
H2119 C2128 0.930 . S
H2120 C2133 0.929 . S
H2121 C2131 0.929 . S
H2122 C2126 0.929 . S
H2123 C2132 0.929 . S
C2124 H2118 0.930 . S
C2124 C2125 1.367 . S
C2124 C2132 1.378 . S
C2125 C2124 1.367 . S
C2125 C2133 1.433 . S
C2126 H2122 0.929 . S
C2126 C2128 1.378 . S
C2126 C2130 1.350 . S
C2127 C2130 1.463 . S
C2127 C2132 1.350 . S
C2127 N2135 1.427 . S
C2128 H2119 0.930 . S
C2128 C2126 1.378 . S
C2128 C2129 1.367 . S
C2129 C2128 1.367 . S
C2129 C2131 1.433 . S
C2130 C2126 1.350 . S
C2130 C2127 1.463 . S
C2130 N2134 1.427 . S
C2131 H2121 0.929 . S
C2131 C2129 1.433 . S
C2131 N2134 1.384 . S
C2132 H2123 0.929 . S
C2132 C2124 1.378 . S
C2132 C2127 1.350 . S
C2133 H2120 0.929 . S
C2133 C2125 1.433 . S
C2133 N2135 1.384 . S
N2134 C2130 1.427 . S
N2134 C2131 1.384 . S
N2135 C2127 1.427 . S
N2135 C2133 1.384 . S
H2136 C2142 0.930 . S
H2137 C2146 0.930 . S
H2138 C2151 0.929 . S
H2139 C2149 0.929 . S
H2140 C2144 0.929 . S
H2141 C2150 0.929 . S
C2142 H2136 0.930 . S
C2142 C2143 1.367 . S
C2142 C2150 1.378 . S
C2143 C2142 1.367 . S
C2143 C2151 1.433 . S
C2144 H2140 0.929 . S
C2144 C2146 1.378 . S
C2144 C2148 1.350 . S
C2145 C2148 1.463 . S
C2145 C2150 1.350 . S
C2145 N2153 1.427 . S
C2146 H2137 0.930 . S
C2146 C2144 1.378 . S
C2146 C2147 1.367 . S
C2147 C2146 1.367 . S
C2147 C2149 1.433 . S
C2148 C2144 1.350 . S
C2148 C2145 1.463 . S
C2148 N2152 1.427 . S
C2149 H2139 0.929 . S
C2149 C2147 1.433 . S
C2149 N2152 1.384 . S
C2150 H2141 0.929 . S
C2150 C2142 1.378 . S
C2150 C2145 1.350 . S
C2151 H2138 0.929 . S
C2151 C2143 1.433 . S
C2151 N2153 1.384 . S
N2152 C2148 1.427 . S
N2152 C2149 1.384 . S
N2153 C2145 1.427 . S
N2153 C2151 1.384 . S
H2154 C2160 0.930 . S
H2155 C2164 0.930 . S
H2156 C2169 0.929 . S
H2157 C2167 0.929 . S
H2158 C2162 0.929 . S
H2159 C2168 0.929 . S
C2160 H2154 0.930 . S
C2160 C2161 1.367 . S
C2160 C2168 1.378 . S
C2161 C2160 1.367 . S
C2161 C2169 1.433 . S
C2162 H2158 0.929 . S
C2162 C2164 1.378 . S
C2162 C2166 1.350 . S
C2163 C2166 1.463 . S
C2163 C2168 1.350 . S
C2163 N2171 1.427 . S
C2164 H2155 0.930 . S
C2164 C2162 1.378 . S
C2164 C2165 1.367 . S
C2165 C2164 1.367 . S
C2165 C2167 1.433 . S
C2166 C2162 1.350 . S
C2166 C2163 1.463 . S
C2166 N2170 1.427 . S
C2167 H2157 0.929 . S
C2167 C2165 1.433 . S
C2167 N2170 1.384 . S
C2168 H2159 0.929 . S
C2168 C2160 1.378 . S
C2168 C2163 1.350 . S
C2169 H2156 0.929 . S
C2169 C2161 1.433 . S
C2169 N2171 1.384 . S
N2170 C2166 1.427 . S
N2170 C2167 1.384 . S
N2171 C2163 1.427 . S
N2171 C2169 1.384 . S
H2172 C2178 0.930 . S
H2173 C2182 0.930 . S
H2174 C2187 0.929 . S
H2175 C2185 0.929 . S
H2176 C2180 0.929 . S
H2177 C2186 0.929 . S
C2178 H2172 0.930 . S
C2178 C2179 1.367 . S
C2178 C2186 1.378 . S
C2179 C2178 1.367 . S
C2179 C2187 1.433 . S
C2180 H2176 0.929 . S
C2180 C2182 1.378 . S
C2180 C2184 1.350 . S
C2181 C2184 1.463 . S
C2181 C2186 1.350 . S
C2181 N2189 1.427 . S
C2182 H2173 0.930 . S
C2182 C2180 1.378 . S
C2182 C2183 1.367 . S
C2183 C2182 1.367 . S
C2183 C2185 1.433 . S
C2184 C2180 1.350 . S
C2184 C2181 1.463 . S
C2184 N2188 1.427 . S
C2185 H2175 0.929 . S
C2185 C2183 1.433 . S
C2185 N2188 1.384 . S
C2186 H2177 0.929 . S
C2186 C2178 1.378 . S
C2186 C2181 1.350 . S
C2187 H2174 0.929 . S
C2187 C2179 1.433 . S
C2187 N2189 1.384 . S
N2188 C2184 1.427 . S
N2188 C2185 1.384 . S
N2189 C2181 1.427 . S
N2189 C2187 1.384 . S
H2190 C2196 0.930 . S
H2191 C2200 0.930 . S
H2192 C2205 0.929 . S
H2193 C2203 0.929 . S
H2194 C2198 0.929 . S
H2195 C2204 0.929 . S
C2196 H2190 0.930 . S
C2196 C2197 1.367 . S
C2196 C2204 1.378 . S
C2197 C2196 1.367 . S
C2197 C2205 1.433 . S
C2198 H2194 0.929 . S
C2198 C2200 1.378 . S
C2198 C2202 1.350 . S
C2199 C2202 1.463 . S
C2199 C2204 1.350 . S
C2199 N2207 1.427 . S
C2200 H2191 0.930 . S
C2200 C2198 1.378 . S
C2200 C2201 1.367 . S
C2201 C2200 1.367 . S
C2201 C2203 1.433 . S
C2202 C2198 1.350 . S
C2202 C2199 1.463 . S
C2202 N2206 1.427 . S
C2203 H2193 0.929 . S
C2203 C2201 1.433 . S
C2203 N2206 1.384 . S
C2204 H2195 0.929 . S
C2204 C2196 1.378 . S
C2204 C2199 1.350 . S
C2205 H2192 0.929 . S
C2205 C2197 1.433 . S
C2205 N2207 1.384 . S
N2206 C2202 1.427 . S
N2206 C2203 1.384 . S
N2207 C2199 1.427 . S
N2207 C2205 1.384 . S
H2208 C2214 0.930 . S
H2209 C2218 0.930 . S
H2210 C2223 0.929 . S
H2211 C2221 0.929 . S
H2212 C2216 0.929 . S
H2213 C2222 0.929 . S
C2214 H2208 0.930 . S
C2214 C2215 1.367 . S
C2214 C2222 1.378 . S
C2215 C2214 1.367 . S
C2215 C2223 1.433 . S
C2216 H2212 0.929 . S
C2216 C2218 1.378 . S
C2216 C2220 1.350 . S
C2217 C2220 1.463 . S
C2217 C2222 1.350 . S
C2217 N2225 1.427 . S
C2218 H2209 0.930 . S
C2218 C2216 1.378 . S
C2218 C2219 1.367 . S
C2219 C2218 1.367 . S
C2219 C2221 1.433 . S
C2220 C2216 1.350 . S
C2220 C2217 1.463 . S
C2220 N2224 1.427 . S
C2221 H2211 0.929 . S
C2221 C2219 1.433 . S
C2221 N2224 1.384 . S
C2222 H2213 0.929 . S
C2222 C2214 1.378 . S
C2222 C2217 1.350 . S
C2223 H2210 0.929 . S
C2223 C2215 1.433 . S
C2223 N2225 1.384 . S
N2224 C2220 1.427 . S
N2224 C2221 1.384 . S
N2225 C2217 1.427 . S
N2225 C2223 1.384 . S
H2226 C2232 0.930 . S
H2227 C2236 0.930 . S
H2228 C2241 0.929 . S
H2229 C2239 0.929 . S
H2230 C2234 0.929 . S
H2231 C2240 0.929 . S
C2232 H2226 0.930 . S
C2232 C2233 1.367 . S
C2232 C2240 1.378 . S
C2233 C2232 1.367 . S
C2233 C2241 1.433 . S
C2234 H2230 0.929 . S
C2234 C2236 1.378 . S
C2234 C2238 1.350 . S
C2235 C2238 1.463 . S
C2235 C2240 1.350 . S
C2235 N2243 1.427 . S
C2236 H2227 0.930 . S
C2236 C2234 1.378 . S
C2236 C2237 1.367 . S
C2237 C2236 1.367 . S
C2237 C2239 1.433 . S
C2238 C2234 1.350 . S
C2238 C2235 1.463 . S
C2238 N2242 1.427 . S
C2239 H2229 0.929 . S
C2239 C2237 1.433 . S
C2239 N2242 1.384 . S
C2240 H2231 0.929 . S
C2240 C2232 1.378 . S
C2240 C2235 1.350 . S
C2241 H2228 0.929 . S
C2241 C2233 1.433 . S
C2241 N2243 1.384 . S
N2242 C2238 1.427 . S
N2242 C2239 1.384 . S
N2243 C2235 1.427 . S
N2243 C2241 1.384 . S
H2244 C2250 0.930 . S
H2245 C2254 0.930 . S
H2246 C2259 0.929 . S
H2247 C2257 0.929 . S
H2248 C2252 0.929 . S
H2249 C2258 0.929 . S
C2250 H2244 0.930 . S
C2250 C2251 1.367 . S
C2250 C2258 1.378 . S
C2251 C2250 1.367 . S
C2251 C2259 1.433 . S
C2252 H2248 0.929 . S
C2252 C2254 1.378 . S
C2252 C2256 1.350 . S
C2253 C2256 1.463 . S
C2253 C2258 1.350 . S
C2253 N2261 1.427 . S
C2254 H2245 0.930 . S
C2254 C2252 1.378 . S
C2254 C2255 1.367 . S
C2255 C2254 1.367 . S
C2255 C2257 1.433 . S
C2256 C2252 1.350 . S
C2256 C2253 1.463 . S
C2256 N2260 1.427 . S
C2257 H2247 0.929 . S
C2257 C2255 1.433 . S
C2257 N2260 1.384 . S
C2258 H2249 0.929 . S
C2258 C2250 1.378 . S
C2258 C2253 1.350 . S
C2259 H2246 0.929 . S
C2259 C2251 1.433 . S
C2259 N2261 1.384 . S
N2260 C2256 1.427 . S
N2260 C2257 1.384 . S
N2261 C2253 1.427 . S
N2261 C2259 1.384 . S
H2262 C2268 0.930 . S
H2263 C2272 0.930 . S
H2264 C2277 0.929 . S
H2265 C2275 0.929 . S
H2266 C2270 0.929 . S
H2267 C2276 0.929 . S
C2268 H2262 0.930 . S
C2268 C2269 1.367 . S
C2268 C2276 1.378 . S
C2269 C2268 1.367 . S
C2269 C2277 1.433 . S
C2270 H2266 0.929 . S
C2270 C2272 1.378 . S
C2270 C2274 1.350 . S
C2271 C2274 1.463 . S
C2271 C2276 1.350 . S
C2271 N2279 1.427 . S
C2272 H2263 0.930 . S
C2272 C2270 1.378 . S
C2272 C2273 1.367 . S
C2273 C2272 1.367 . S
C2273 C2275 1.433 . S
C2274 C2270 1.350 . S
C2274 C2271 1.463 . S
C2274 N2278 1.427 . S
C2275 H2265 0.929 . S
C2275 C2273 1.433 . S
C2275 N2278 1.384 . S
C2276 H2267 0.929 . S
C2276 C2268 1.378 . S
C2276 C2271 1.350 . S
C2277 H2264 0.929 . S
C2277 C2269 1.433 . S
C2277 N2279 1.384 . S
N2278 C2274 1.427 . S
N2278 C2275 1.384 . S
N2279 C2271 1.427 . S
N2279 C2277 1.384 . S
H2280 C2286 0.930 . S
H2281 C2290 0.930 . S
H2282 C2295 0.929 . S
H2283 C2293 0.929 . S
H2284 C2288 0.929 . S
H2285 C2294 0.929 . S
C2286 H2280 0.930 . S
C2286 C2287 1.367 . S
C2286 C2294 1.378 . S
C2287 C2286 1.367 . S
C2287 C2295 1.433 . S
C2288 H2284 0.929 . S
C2288 C2290 1.378 . S
C2288 C2292 1.350 . S
C2289 C2292 1.463 . S
C2289 C2294 1.350 . S
C2289 N2297 1.427 . S
C2290 H2281 0.930 . S
C2290 C2288 1.378 . S
C2290 C2291 1.367 . S
C2291 C2290 1.367 . S
C2291 C2293 1.433 . S
C2292 C2288 1.350 . S
C2292 C2289 1.463 . S
C2292 N2296 1.427 . S
C2293 H2283 0.929 . S
C2293 C2291 1.433 . S
C2293 N2296 1.384 . S
C2294 H2285 0.929 . S
C2294 C2286 1.378 . S
C2294 C2289 1.350 . S
C2295 H2282 0.929 . S
C2295 C2287 1.433 . S
C2295 N2297 1.384 . S
N2296 C2292 1.427 . S
N2296 C2293 1.384 . S
N2297 C2289 1.427 . S
N2297 C2295 1.384 . S
H2298 C2304 0.930 . S
H2299 C2308 0.930 . S
H2300 C2313 0.929 . S
H2301 C2311 0.929 . S
H2302 C2306 0.929 . S
H2303 C2312 0.929 . S
C2304 H2298 0.930 . S
C2304 C2305 1.367 . S
C2304 C2312 1.378 . S
C2305 C2304 1.367 . S
C2305 C2313 1.433 . S
C2306 H2302 0.929 . S
C2306 C2308 1.378 . S
C2306 C2310 1.350 . S
C2307 C2310 1.463 . S
C2307 C2312 1.350 . S
C2307 N2315 1.427 . S
C2308 H2299 0.930 . S
C2308 C2306 1.378 . S
C2308 C2309 1.367 . S
C2309 C2308 1.367 . S
C2309 C2311 1.433 . S
C2310 C2306 1.350 . S
C2310 C2307 1.463 . S
C2310 N2314 1.427 . S
C2311 H2301 0.929 . S
C2311 C2309 1.433 . S
C2311 N2314 1.384 . S
C2312 H2303 0.929 . S
C2312 C2304 1.378 . S
C2312 C2307 1.350 . S
C2313 H2300 0.929 . S
C2313 C2305 1.433 . S
C2313 N2315 1.384 . S
N2314 C2310 1.427 . S
N2314 C2311 1.384 . S
N2315 C2307 1.427 . S
N2315 C2313 1.384 . S
H2316 C2322 0.930 . S
H2317 C2326 0.930 . S
H2318 C2331 0.929 . S
H2319 C2329 0.929 . S
H2320 C2324 0.929 . S
H2321 C2330 0.929 . S
C2322 H2316 0.930 . S
C2322 C2323 1.367 . S
C2322 C2330 1.378 . S
C2323 C2322 1.367 . S
C2323 C2331 1.433 . S
C2324 H2320 0.929 . S
C2324 C2326 1.378 . S
C2324 C2328 1.350 . S
C2325 C2328 1.463 . S
C2325 C2330 1.350 . S
C2325 N2333 1.427 . S
C2326 H2317 0.930 . S
C2326 C2324 1.378 . S
C2326 C2327 1.367 . S
C2327 C2326 1.367 . S
C2327 C2329 1.433 . S
C2328 C2324 1.350 . S
C2328 C2325 1.463 . S
C2328 N2332 1.427 . S
C2329 H2319 0.929 . S
C2329 C2327 1.433 . S
C2329 N2332 1.384 . S
C2330 H2321 0.929 . S
C2330 C2322 1.378 . S
C2330 C2325 1.350 . S
C2331 H2318 0.929 . S
C2331 C2323 1.433 . S
C2331 N2333 1.384 . S
N2332 C2328 1.427 . S
N2332 C2329 1.384 . S
N2333 C2325 1.427 . S
N2333 C2331 1.384 . S
H2334 C2340 0.930 . S
H2335 C2344 0.930 . S
H2336 C2349 0.929 . S
H2337 C2347 0.929 . S
H2338 C2342 0.929 . S
H2339 C2348 0.929 . S
C2340 H2334 0.930 . S
C2340 C2341 1.367 . S
C2340 C2348 1.378 . S
C2341 C2340 1.367 . S
C2341 C2349 1.433 . S
C2342 H2338 0.929 . S
C2342 C2344 1.378 . S
C2342 C2346 1.350 . S
C2343 C2346 1.463 . S
C2343 C2348 1.350 . S
C2343 N2351 1.427 . S
C2344 H2335 0.930 . S
C2344 C2342 1.378 . S
C2344 C2345 1.367 . S
C2345 C2344 1.367 . S
C2345 C2347 1.433 . S
C2346 C2342 1.350 . S
C2346 C2343 1.463 . S
C2346 N2350 1.427 . S
C2347 H2337 0.929 . S
C2347 C2345 1.433 . S
C2347 N2350 1.384 . S
C2348 H2339 0.929 . S
C2348 C2340 1.378 . S
C2348 C2343 1.350 . S
C2349 H2336 0.929 . S
C2349 C2341 1.433 . S
C2349 N2351 1.384 . S
N2350 C2346 1.427 . S
N2350 C2347 1.384 . S
N2351 C2343 1.427 . S
N2351 C2349 1.384 . S
H2352 C2358 0.930 . S
H2353 C2362 0.930 . S
H2354 C2367 0.929 . S
H2355 C2365 0.929 . S
H2356 C2360 0.929 . S
H2357 C2366 0.929 . S
C2358 H2352 0.930 . S
C2358 C2359 1.367 . S
C2358 C2366 1.378 . S
C2359 C2358 1.367 . S
C2359 C2367 1.433 . S
C2360 H2356 0.929 . S
C2360 C2362 1.378 . S
C2360 C2364 1.350 . S
C2361 C2364 1.463 . S
C2361 C2366 1.350 . S
C2361 N2369 1.427 . S
C2362 H2353 0.930 . S
C2362 C2360 1.378 . S
C2362 C2363 1.367 . S
C2363 C2362 1.367 . S
C2363 C2365 1.433 . S
C2364 C2360 1.350 . S
C2364 C2361 1.463 . S
C2364 N2368 1.427 . S
C2365 H2355 0.929 . S
C2365 C2363 1.433 . S
C2365 N2368 1.384 . S
C2366 H2357 0.929 . S
C2366 C2358 1.378 . S
C2366 C2361 1.350 . S
C2367 H2354 0.929 . S
C2367 C2359 1.433 . S
C2367 N2369 1.384 . S
N2368 C2364 1.427 . S
N2368 C2365 1.384 . S
N2369 C2361 1.427 . S
N2369 C2367 1.384 . S
H2370 C2376 0.930 . S
H2371 C2380 0.930 . S
H2372 C2385 0.929 . S
H2373 C2383 0.929 . S
H2374 C2378 0.929 . S
H2375 C2384 0.929 . S
C2376 H2370 0.930 . S
C2376 C2377 1.367 . S
C2376 C2384 1.378 . S
C2377 C2376 1.367 . S
C2377 C2385 1.433 . S
C2378 H2374 0.929 . S
C2378 C2380 1.378 . S
C2378 C2382 1.350 . S
C2379 C2382 1.463 . S
C2379 C2384 1.350 . S
C2379 N2387 1.427 . S
C2380 H2371 0.930 . S
C2380 C2378 1.378 . S
C2380 C2381 1.367 . S
C2381 C2380 1.367 . S
C2381 C2383 1.433 . S
C2382 C2378 1.350 . S
C2382 C2379 1.463 . S
C2382 N2386 1.427 . S
C2383 H2373 0.929 . S
C2383 C2381 1.433 . S
C2383 N2386 1.384 . S
C2384 H2375 0.929 . S
C2384 C2376 1.378 . S
C2384 C2379 1.350 . S
C2385 H2372 0.929 . S
C2385 C2377 1.433 . S
C2385 N2387 1.384 . S
N2386 C2382 1.427 . S
N2386 C2383 1.384 . S
N2387 C2379 1.427 . S
N2387 C2385 1.384 . S
H2388 C2394 0.930 . S
H2389 C2398 0.930 . S
H2390 C2403 0.929 . S
H2391 C2401 0.929 . S
H2392 C2396 0.929 . S
H2393 C2402 0.929 . S
C2394 H2388 0.930 . S
C2394 C2395 1.367 . S
C2394 C2402 1.378 . S
C2395 C2394 1.367 . S
C2395 C2403 1.433 . S
C2396 H2392 0.929 . S
C2396 C2398 1.378 . S
C2396 C2400 1.350 . S
C2397 C2400 1.463 . S
C2397 C2402 1.350 . S
C2397 N2405 1.427 . S
C2398 H2389 0.930 . S
C2398 C2396 1.378 . S
C2398 C2399 1.367 . S
C2399 C2398 1.367 . S
C2399 C2401 1.433 . S
C2400 C2396 1.350 . S
C2400 C2397 1.463 . S
C2400 N2404 1.427 . S
C2401 H2391 0.929 . S
C2401 C2399 1.433 . S
C2401 N2404 1.384 . S
C2402 H2393 0.929 . S
C2402 C2394 1.378 . S
C2402 C2397 1.350 . S
C2403 H2390 0.929 . S
C2403 C2395 1.433 . S
C2403 N2405 1.384 . S
N2404 C2400 1.427 . S
N2404 C2401 1.384 . S
N2405 C2397 1.427 . S
N2405 C2403 1.384 . S
H2406 C2412 0.930 . S
H2407 C2416 0.930 . S
H2408 C2421 0.929 . S
H2409 C2419 0.929 . S
H2410 C2414 0.929 . S
H2411 C2420 0.929 . S
C2412 H2406 0.930 . S
C2412 C2413 1.367 . S
C2412 C2420 1.378 . S
C2413 C2412 1.367 . S
C2413 C2421 1.433 . S
C2414 H2410 0.929 . S
C2414 C2416 1.378 . S
C2414 C2418 1.350 . S
C2415 C2418 1.463 . S
C2415 C2420 1.350 . S
C2415 N2423 1.427 . S
C2416 H2407 0.930 . S
C2416 C2414 1.378 . S
C2416 C2417 1.367 . S
C2417 C2416 1.367 . S
C2417 C2419 1.433 . S
C2418 C2414 1.350 . S
C2418 C2415 1.463 . S
C2418 N2422 1.427 . S
C2419 H2409 0.929 . S
C2419 C2417 1.433 . S
C2419 N2422 1.384 . S
C2420 H2411 0.929 . S
C2420 C2412 1.378 . S
C2420 C2415 1.350 . S
C2421 H2408 0.929 . S
C2421 C2413 1.433 . S
C2421 N2423 1.384 . S
N2422 C2418 1.427 . S
N2422 C2419 1.384 . S
N2423 C2415 1.427 . S
N2423 C2421 1.384 . S
H2424 C2430 0.930 . S
H2425 C2434 0.930 . S
H2426 C2439 0.929 . S
H2427 C2437 0.929 . S
H2428 C2432 0.929 . S
H2429 C2438 0.929 . S
C2430 H2424 0.930 . S
C2430 C2431 1.367 . S
C2430 C2438 1.378 . S
C2431 C2430 1.367 . S
C2431 C2439 1.433 . S
C2432 H2428 0.929 . S
C2432 C2434 1.378 . S
C2432 C2436 1.350 . S
C2433 C2436 1.463 . S
C2433 C2438 1.350 . S
C2433 N2441 1.427 . S
C2434 H2425 0.930 . S
C2434 C2432 1.378 . S
C2434 C2435 1.367 . S
C2435 C2434 1.367 . S
C2435 C2437 1.433 . S
C2436 C2432 1.350 . S
C2436 C2433 1.463 . S
C2436 N2440 1.427 . S
C2437 H2427 0.929 . S
C2437 C2435 1.433 . S
C2437 N2440 1.384 . S
C2438 H2429 0.929 . S
C2438 C2430 1.378 . S
C2438 C2433 1.350 . S
C2439 H2426 0.929 . S
C2439 C2431 1.433 . S
C2439 N2441 1.384 . S
N2440 C2436 1.427 . S
N2440 C2437 1.384 . S
N2441 C2433 1.427 . S
N2441 C2439 1.384 . S
H2442 C2448 0.930 . S
H2443 C2452 0.930 . S
H2444 C2457 0.929 . S
H2445 C2455 0.929 . S
H2446 C2450 0.929 . S
H2447 C2456 0.929 . S
C2448 H2442 0.930 . S
C2448 C2449 1.367 . S
C2448 C2456 1.378 . S
C2449 C2448 1.367 . S
C2449 C2457 1.433 . S
C2450 H2446 0.929 . S
C2450 C2452 1.378 . S
C2450 C2454 1.350 . S
C2451 C2454 1.463 . S
C2451 C2456 1.350 . S
C2451 N2459 1.427 . S
C2452 H2443 0.930 . S
C2452 C2450 1.378 . S
C2452 C2453 1.367 . S
C2453 C2452 1.367 . S
C2453 C2455 1.433 . S
C2454 C2450 1.350 . S
C2454 C2451 1.463 . S
C2454 N2458 1.427 . S
C2455 H2445 0.929 . S
C2455 C2453 1.433 . S
C2455 N2458 1.384 . S
C2456 H2447 0.929 . S
C2456 C2448 1.378 . S
C2456 C2451 1.350 . S
C2457 H2444 0.929 . S
C2457 C2449 1.433 . S
C2457 N2459 1.384 . S
N2458 C2454 1.427 . S
N2458 C2455 1.384 . S
N2459 C2451 1.427 . S
N2459 C2457 1.384 . S
H2460 C2466 0.930 . S
H2461 C2470 0.930 . S
H2462 C2475 0.929 . S
H2463 C2473 0.929 . S
H2464 C2468 0.929 . S
H2465 C2474 0.929 . S
C2466 H2460 0.930 . S
C2466 C2467 1.367 . S
C2466 C2474 1.378 . S
C2467 C2466 1.367 . S
C2467 C2475 1.433 . S
C2468 H2464 0.929 . S
C2468 C2470 1.378 . S
C2468 C2472 1.350 . S
C2469 C2472 1.463 . S
C2469 C2474 1.350 . S
C2469 N2477 1.427 . S
C2470 H2461 0.930 . S
C2470 C2468 1.378 . S
C2470 C2471 1.367 . S
C2471 C2470 1.367 . S
C2471 C2473 1.433 . S
C2472 C2468 1.350 . S
C2472 C2469 1.463 . S
C2472 N2476 1.427 . S
C2473 H2463 0.929 . S
C2473 C2471 1.433 . S
C2473 N2476 1.384 . S
C2474 H2465 0.929 . S
C2474 C2466 1.378 . S
C2474 C2469 1.350 . S
C2475 H2462 0.929 . S
C2475 C2467 1.433 . S
C2475 N2477 1.384 . S
N2476 C2472 1.427 . S
N2476 C2473 1.384 . S
N2477 C2469 1.427 . S
N2477 C2475 1.384 . S
H2478 C2484 0.930 . S
H2479 C2488 0.930 . S
H2480 C2493 0.929 . S
H2481 C2491 0.929 . S
H2482 C2486 0.929 . S
H2483 C2492 0.929 . S
C2484 H2478 0.930 . S
C2484 C2485 1.367 . S
C2484 C2492 1.378 . S
C2485 C2484 1.367 . S
C2485 C2493 1.433 . S
C2486 H2482 0.929 . S
C2486 C2488 1.378 . S
C2486 C2490 1.350 . S
C2487 C2490 1.463 . S
C2487 C2492 1.350 . S
C2487 N2495 1.427 . S
C2488 H2479 0.930 . S
C2488 C2486 1.378 . S
C2488 C2489 1.367 . S
C2489 C2488 1.367 . S
C2489 C2491 1.433 . S
C2490 C2486 1.350 . S
C2490 C2487 1.463 . S
C2490 N2494 1.427 . S
C2491 H2481 0.929 . S
C2491 C2489 1.433 . S
C2491 N2494 1.384 . S
C2492 H2483 0.929 . S
C2492 C2484 1.378 . S
C2492 C2487 1.350 . S
C2493 H2480 0.929 . S
C2493 C2485 1.433 . S
C2493 N2495 1.384 . S
N2494 C2490 1.427 . S
N2494 C2491 1.384 . S
N2495 C2487 1.427 . S
N2495 C2493 1.384 . S
H2496 C2502 0.930 . S
H2497 C2506 0.930 . S
H2498 C2511 0.929 . S
H2499 C2509 0.929 . S
H2500 C2504 0.929 . S
H2501 C2510 0.929 . S
C2502 H2496 0.930 . S
C2502 C2503 1.367 . S
C2502 C2510 1.378 . S
C2503 C2502 1.367 . S
C2503 C2511 1.433 . S
C2504 H2500 0.929 . S
C2504 C2506 1.378 . S
C2504 C2508 1.350 . S
C2505 C2508 1.463 . S
C2505 C2510 1.350 . S
C2505 N2513 1.427 . S
C2506 H2497 0.930 . S
C2506 C2504 1.378 . S
C2506 C2507 1.367 . S
C2507 C2506 1.367 . S
C2507 C2509 1.433 . S
C2508 C2504 1.350 . S
C2508 C2505 1.463 . S
C2508 N2512 1.427 . S
C2509 H2499 0.929 . S
C2509 C2507 1.433 . S
C2509 N2512 1.384 . S
C2510 H2501 0.929 . S
C2510 C2502 1.378 . S
C2510 C2505 1.350 . S
C2511 H2498 0.929 . S
C2511 C2503 1.433 . S
C2511 N2513 1.384 . S
N2512 C2508 1.427 . S
N2512 C2509 1.384 . S
N2513 C2505 1.427 . S
N2513 C2511 1.384 . S
H2514 C2520 0.930 . S
H2515 C2524 0.930 . S
H2516 C2529 0.929 . S
H2517 C2527 0.929 . S
H2518 C2522 0.929 . S
H2519 C2528 0.929 . S
C2520 H2514 0.930 . S
C2520 C2521 1.367 . S
C2520 C2528 1.378 . S
C2521 C2520 1.367 . S
C2521 C2529 1.433 . S
C2522 H2518 0.929 . S
C2522 C2524 1.378 . S
C2522 C2526 1.350 . S
C2523 C2526 1.463 . S
C2523 C2528 1.350 . S
C2523 N2531 1.427 . S
C2524 H2515 0.930 . S
C2524 C2522 1.378 . S
C2524 C2525 1.367 . S
C2525 C2524 1.367 . S
C2525 C2527 1.433 . S
C2526 C2522 1.350 . S
C2526 C2523 1.463 . S
C2526 N2530 1.427 . S
C2527 H2517 0.929 . S
C2527 C2525 1.433 . S
C2527 N2530 1.384 . S
C2528 H2519 0.929 . S
C2528 C2520 1.378 . S
C2528 C2523 1.350 . S
C2529 H2516 0.929 . S
C2529 C2521 1.433 . S
C2529 N2531 1.384 . S
N2530 C2526 1.427 . S
N2530 C2527 1.384 . S
N2531 C2523 1.427 . S
N2531 C2529 1.384 . S
H2532 C2538 0.930 . S
H2533 C2542 0.930 . S
H2534 C2547 0.929 . S
H2535 C2545 0.929 . S
H2536 C2540 0.929 . S
H2537 C2546 0.929 . S
C2538 H2532 0.930 . S
C2538 C2539 1.367 . S
C2538 C2546 1.378 . S
C2539 C2538 1.367 . S
C2539 C2547 1.433 . S
C2540 H2536 0.929 . S
C2540 C2542 1.378 . S
C2540 C2544 1.350 . S
C2541 C2544 1.463 . S
C2541 C2546 1.350 . S
C2541 N2549 1.427 . S
C2542 H2533 0.930 . S
C2542 C2540 1.378 . S
C2542 C2543 1.367 . S
C2543 C2542 1.367 . S
C2543 C2545 1.433 . S
C2544 C2540 1.350 . S
C2544 C2541 1.463 . S
C2544 N2548 1.427 . S
C2545 H2535 0.929 . S
C2545 C2543 1.433 . S
C2545 N2548 1.384 . S
C2546 H2537 0.929 . S
C2546 C2538 1.378 . S
C2546 C2541 1.350 . S
C2547 H2534 0.929 . S
C2547 C2539 1.433 . S
C2547 N2549 1.384 . S
N2548 C2544 1.427 . S
N2548 C2545 1.384 . S
N2549 C2541 1.427 . S
N2549 C2547 1.384 . S
H2550 C2556 0.930 . S
H2551 C2560 0.930 . S
H2552 C2565 0.929 . S
H2553 C2563 0.929 . S
H2554 C2558 0.929 . S
H2555 C2564 0.929 . S
C2556 H2550 0.930 . S
C2556 C2557 1.367 . S
C2556 C2564 1.378 . S
C2557 C2556 1.367 . S
C2557 C2565 1.433 . S
C2558 H2554 0.929 . S
C2558 C2560 1.378 . S
C2558 C2562 1.350 . S
C2559 C2562 1.463 . S
C2559 C2564 1.350 . S
C2559 N2567 1.427 . S
C2560 H2551 0.930 . S
C2560 C2558 1.378 . S
C2560 C2561 1.367 . S
C2561 C2560 1.367 . S
C2561 C2563 1.433 . S
C2562 C2558 1.350 . S
C2562 C2559 1.463 . S
C2562 N2566 1.427 . S
C2563 H2553 0.929 . S
C2563 C2561 1.433 . S
C2563 N2566 1.384 . S
C2564 H2555 0.929 . S
C2564 C2556 1.378 . S
C2564 C2559 1.350 . S
C2565 H2552 0.929 . S
C2565 C2557 1.433 . S
C2565 N2567 1.384 . S
N2566 C2562 1.427 . S
N2566 C2563 1.384 . S
N2567 C2559 1.427 . S
N2567 C2565 1.384 . S
H2568 C2574 0.930 . S
H2569 C2578 0.930 . S
H2570 C2583 0.929 . S
H2571 C2581 0.929 . S
H2572 C2576 0.929 . S
H2573 C2582 0.929 . S
C2574 H2568 0.930 . S
C2574 C2575 1.367 . S
C2574 C2582 1.378 . S
C2575 C2574 1.367 . S
C2575 C2583 1.433 . S
C2576 H2572 0.929 . S
C2576 C2578 1.378 . S
C2576 C2580 1.350 . S
C2577 C2580 1.463 . S
C2577 C2582 1.350 . S
C2577 N2585 1.427 . S
C2578 H2569 0.930 . S
C2578 C2576 1.378 . S
C2578 C2579 1.367 . S
C2579 C2578 1.367 . S
C2579 C2581 1.433 . S
C2580 C2576 1.350 . S
C2580 C2577 1.463 . S
C2580 N2584 1.427 . S
C2581 H2571 0.929 . S
C2581 C2579 1.433 . S
C2581 N2584 1.384 . S
C2582 H2573 0.929 . S
C2582 C2574 1.378 . S
C2582 C2577 1.350 . S
C2583 H2570 0.929 . S
C2583 C2575 1.433 . S
C2583 N2585 1.384 . S
N2584 C2580 1.427 . S
N2584 C2581 1.384 . S
N2585 C2577 1.427 . S
N2585 C2583 1.384 . S
H2586 C2592 0.930 . S
H2587 C2596 0.930 . S
H2588 C2601 0.929 . S
H2589 C2599 0.929 . S
H2590 C2594 0.929 . S
H2591 C2600 0.929 . S
C2592 H2586 0.930 . S
C2592 C2593 1.367 . S
C2592 C2600 1.378 . S
C2593 C2592 1.367 . S
C2593 C2601 1.433 . S
C2594 H2590 0.929 . S
C2594 C2596 1.378 . S
C2594 C2598 1.350 . S
C2595 C2598 1.463 . S
C2595 C2600 1.350 . S
C2595 N2603 1.427 . S
C2596 H2587 0.930 . S
C2596 C2594 1.378 . S
C2596 C2597 1.367 . S
C2597 C2596 1.367 . S
C2597 C2599 1.433 . S
C2598 C2594 1.350 . S
C2598 C2595 1.463 . S
C2598 N2602 1.427 . S
C2599 H2589 0.929 . S
C2599 C2597 1.433 . S
C2599 N2602 1.384 . S
C2600 H2591 0.929 . S
C2600 C2592 1.378 . S
C2600 C2595 1.350 . S
C2601 H2588 0.929 . S
C2601 C2593 1.433 . S
C2601 N2603 1.384 . S
N2602 C2598 1.427 . S
N2602 C2599 1.384 . S
N2603 C2595 1.427 . S
N2603 C2601 1.384 . S
H2604 C2610 0.930 . S
H2605 C2614 0.930 . S
H2606 C2619 0.929 . S
H2607 C2617 0.929 . S
H2608 C2612 0.929 . S
H2609 C2618 0.929 . S
C2610 H2604 0.930 . S
C2610 C2611 1.367 . S
C2610 C2618 1.378 . S
C2611 C2610 1.367 . S
C2611 C2619 1.433 . S
C2612 H2608 0.929 . S
C2612 C2614 1.378 . S
C2612 C2616 1.350 . S
C2613 C2616 1.463 . S
C2613 C2618 1.350 . S
C2613 N2621 1.427 . S
C2614 H2605 0.930 . S
C2614 C2612 1.378 . S
C2614 C2615 1.367 . S
C2615 C2614 1.367 . S
C2615 C2617 1.433 . S
C2616 C2612 1.350 . S
C2616 C2613 1.463 . S
C2616 N2620 1.427 . S
C2617 H2607 0.929 . S
C2617 C2615 1.433 . S
C2617 N2620 1.384 . S
C2618 H2609 0.929 . S
C2618 C2610 1.378 . S
C2618 C2613 1.350 . S
C2619 H2606 0.929 . S
C2619 C2611 1.433 . S
C2619 N2621 1.384 . S
N2620 C2616 1.427 . S
N2620 C2617 1.384 . S
N2621 C2613 1.427 . S
N2621 C2619 1.384 . S
H2622 C2628 0.930 . S
H2623 C2632 0.930 . S
H2624 C2637 0.929 . S
H2625 C2635 0.929 . S
H2626 C2630 0.929 . S
H2627 C2636 0.929 . S
C2628 H2622 0.930 . S
C2628 C2629 1.367 . S
C2628 C2636 1.378 . S
C2629 C2628 1.367 . S
C2629 C2637 1.433 . S
C2630 H2626 0.929 . S
C2630 C2632 1.378 . S
C2630 C2634 1.350 . S
C2631 C2634 1.463 . S
C2631 C2636 1.350 . S
C2631 N2639 1.427 . S
C2632 H2623 0.930 . S
C2632 C2630 1.378 . S
C2632 C2633 1.367 . S
C2633 C2632 1.367 . S
C2633 C2635 1.433 . S
C2634 C2630 1.350 . S
C2634 C2631 1.463 . S
C2634 N2638 1.427 . S
C2635 H2625 0.929 . S
C2635 C2633 1.433 . S
C2635 N2638 1.384 . S
C2636 H2627 0.929 . S
C2636 C2628 1.378 . S
C2636 C2631 1.350 . S
C2637 H2624 0.929 . S
C2637 C2629 1.433 . S
C2637 N2639 1.384 . S
N2638 C2634 1.427 . S
N2638 C2635 1.384 . S
N2639 C2631 1.427 . S
N2639 C2637 1.384 . S
H2640 C2646 0.930 . S
H2641 C2650 0.930 . S
H2642 C2655 0.929 . S
H2643 C2653 0.929 . S
H2644 C2648 0.929 . S
H2645 C2654 0.929 . S
C2646 H2640 0.930 . S
C2646 C2647 1.367 . S
C2646 C2654 1.378 . S
C2647 C2646 1.367 . S
C2647 C2655 1.433 . S
C2648 H2644 0.929 . S
C2648 C2650 1.378 . S
C2648 C2652 1.350 . S
C2649 C2652 1.463 . S
C2649 C2654 1.350 . S
C2649 N2657 1.427 . S
C2650 H2641 0.930 . S
C2650 C2648 1.378 . S
C2650 C2651 1.367 . S
C2651 C2650 1.367 . S
C2651 C2653 1.433 . S
C2652 C2648 1.350 . S
C2652 C2649 1.463 . S
C2652 N2656 1.427 . S
C2653 H2643 0.929 . S
C2653 C2651 1.433 . S
C2653 N2656 1.384 . S
C2654 H2645 0.929 . S
C2654 C2646 1.378 . S
C2654 C2649 1.350 . S
C2655 H2642 0.929 . S
C2655 C2647 1.433 . S
C2655 N2657 1.384 . S
N2656 C2652 1.427 . S
N2656 C2653 1.384 . S
N2657 C2649 1.427 . S
N2657 C2655 1.384 . S
H2658 C2664 0.930 . S
H2659 C2668 0.930 . S
H2660 C2673 0.929 . S
H2661 C2671 0.929 . S
H2662 C2666 0.929 . S
H2663 C2672 0.929 . S
C2664 H2658 0.930 . S
C2664 C2665 1.367 . S
C2664 C2672 1.378 . S
C2665 C2664 1.367 . S
C2665 C2673 1.433 . S
C2666 H2662 0.929 . S
C2666 C2668 1.378 . S
C2666 C2670 1.350 . S
C2667 C2670 1.463 . S
C2667 C2672 1.350 . S
C2667 N2675 1.427 . S
C2668 H2659 0.930 . S
C2668 C2666 1.378 . S
C2668 C2669 1.367 . S
C2669 C2668 1.367 . S
C2669 C2671 1.433 . S
C2670 C2666 1.350 . S
C2670 C2667 1.463 . S
C2670 N2674 1.427 . S
C2671 H2661 0.929 . S
C2671 C2669 1.433 . S
C2671 N2674 1.384 . S
C2672 H2663 0.929 . S
C2672 C2664 1.378 . S
C2672 C2667 1.350 . S
C2673 H2660 0.929 . S
C2673 C2665 1.433 . S
C2673 N2675 1.384 . S
N2674 C2670 1.427 . S
N2674 C2671 1.384 . S
N2675 C2667 1.427 . S
N2675 C2673 1.384 . S
H2676 C2682 0.930 . S
H2677 C2686 0.930 . S
H2678 C2691 0.929 . S
H2679 C2689 0.929 . S
H2680 C2684 0.929 . S
H2681 C2690 0.929 . S
C2682 H2676 0.930 . S
C2682 C2683 1.367 . S
C2682 C2690 1.378 . S
C2683 C2682 1.367 . S
C2683 C2691 1.433 . S
C2684 H2680 0.929 . S
C2684 C2686 1.378 . S
C2684 C2688 1.350 . S
C2685 C2688 1.463 . S
C2685 C2690 1.350 . S
C2685 N2693 1.427 . S
C2686 H2677 0.930 . S
C2686 C2684 1.378 . S
C2686 C2687 1.367 . S
C2687 C2686 1.367 . S
C2687 C2689 1.433 . S
C2688 C2684 1.350 . S
C2688 C2685 1.463 . S
C2688 N2692 1.427 . S
C2689 H2679 0.929 . S
C2689 C2687 1.433 . S
C2689 N2692 1.384 . S
C2690 H2681 0.929 . S
C2690 C2682 1.378 . S
C2690 C2685 1.350 . S
C2691 H2678 0.929 . S
C2691 C2683 1.433 . S
C2691 N2693 1.384 . S
N2692 C2688 1.427 . S
N2692 C2689 1.384 . S
N2693 C2685 1.427 . S
N2693 C2691 1.384 . S
H2694 C2700 0.930 . S
H2695 C2704 0.930 . S
H2696 C2709 0.929 . S
H2697 C2707 0.929 . S
H2698 C2702 0.929 . S
H2699 C2708 0.929 . S
C2700 H2694 0.930 . S
C2700 C2701 1.367 . S
C2700 C2708 1.378 . S
C2701 C2700 1.367 . S
C2701 C2709 1.433 . S
C2702 H2698 0.929 . S
C2702 C2704 1.378 . S
C2702 C2706 1.350 . S
C2703 C2706 1.463 . S
C2703 C2708 1.350 . S
C2703 N2711 1.427 . S
C2704 H2695 0.930 . S
C2704 C2702 1.378 . S
C2704 C2705 1.367 . S
C2705 C2704 1.367 . S
C2705 C2707 1.433 . S
C2706 C2702 1.350 . S
C2706 C2703 1.463 . S
C2706 N2710 1.427 . S
C2707 H2697 0.929 . S
C2707 C2705 1.433 . S
C2707 N2710 1.384 . S
C2708 H2699 0.929 . S
C2708 C2700 1.378 . S
C2708 C2703 1.350 . S
C2709 H2696 0.929 . S
C2709 C2701 1.433 . S
C2709 N2711 1.384 . S
N2710 C2706 1.427 . S
N2710 C2707 1.384 . S
N2711 C2703 1.427 . S
N2711 C2709 1.384 . S
H2712 C2718 0.930 . S
H2713 C2722 0.930 . S
H2714 C2727 0.929 . S
H2715 C2725 0.929 . S
H2716 C2720 0.929 . S
H2717 C2726 0.929 . S
C2718 H2712 0.930 . S
C2718 C2719 1.367 . S
C2718 C2726 1.378 . S
C2719 C2718 1.367 . S
C2719 C2727 1.433 . S
C2720 H2716 0.929 . S
C2720 C2722 1.378 . S
C2720 C2724 1.350 . S
C2721 C2724 1.463 . S
C2721 C2726 1.350 . S
C2721 N2729 1.427 . S
C2722 H2713 0.930 . S
C2722 C2720 1.378 . S
C2722 C2723 1.367 . S
C2723 C2722 1.367 . S
C2723 C2725 1.433 . S
C2724 C2720 1.350 . S
C2724 C2721 1.463 . S
C2724 N2728 1.427 . S
C2725 H2715 0.929 . S
C2725 C2723 1.433 . S
C2725 N2728 1.384 . S
C2726 H2717 0.929 . S
C2726 C2718 1.378 . S
C2726 C2721 1.350 . S
C2727 H2714 0.929 . S
C2727 C2719 1.433 . S
C2727 N2729 1.384 . S
N2728 C2724 1.427 . S
N2728 C2725 1.384 . S
N2729 C2721 1.427 . S
N2729 C2727 1.384 . S
H2730 C2736 0.930 . S
H2731 C2740 0.930 . S
H2732 C2745 0.929 . S
H2733 C2743 0.929 . S
H2734 C2738 0.929 . S
H2735 C2744 0.929 . S
C2736 H2730 0.930 . S
C2736 C2737 1.367 . S
C2736 C2744 1.378 . S
C2737 C2736 1.367 . S
C2737 C2745 1.433 . S
C2738 H2734 0.929 . S
C2738 C2740 1.378 . S
C2738 C2742 1.350 . S
C2739 C2742 1.463 . S
C2739 C2744 1.350 . S
C2739 N2747 1.427 . S
C2740 H2731 0.930 . S
C2740 C2738 1.378 . S
C2740 C2741 1.367 . S
C2741 C2740 1.367 . S
C2741 C2743 1.433 . S
C2742 C2738 1.350 . S
C2742 C2739 1.463 . S
C2742 N2746 1.427 . S
C2743 H2733 0.929 . S
C2743 C2741 1.433 . S
C2743 N2746 1.384 . S
C2744 H2735 0.929 . S
C2744 C2736 1.378 . S
C2744 C2739 1.350 . S
C2745 H2732 0.929 . S
C2745 C2737 1.433 . S
C2745 N2747 1.384 . S
N2746 C2742 1.427 . S
N2746 C2743 1.384 . S
N2747 C2739 1.427 . S
N2747 C2745 1.384 . S
H2748 C2754 0.930 . S
H2749 C2758 0.930 . S
H2750 C2763 0.929 . S
H2751 C2761 0.929 . S
H2752 C2756 0.929 . S
H2753 C2762 0.929 . S
C2754 H2748 0.930 . S
C2754 C2755 1.367 . S
C2754 C2762 1.378 . S
C2755 C2754 1.367 . S
C2755 C2763 1.433 . S
C2756 H2752 0.929 . S
C2756 C2758 1.378 . S
C2756 C2760 1.350 . S
C2757 C2760 1.463 . S
C2757 C2762 1.350 . S
C2757 N2765 1.427 . S
C2758 H2749 0.930 . S
C2758 C2756 1.378 . S
C2758 C2759 1.367 . S
C2759 C2758 1.367 . S
C2759 C2761 1.433 . S
C2760 C2756 1.350 . S
C2760 C2757 1.463 . S
C2760 N2764 1.427 . S
C2761 H2751 0.929 . S
C2761 C2759 1.433 . S
C2761 N2764 1.384 . S
C2762 H2753 0.929 . S
C2762 C2754 1.378 . S
C2762 C2757 1.350 . S
C2763 H2750 0.929 . S
C2763 C2755 1.433 . S
C2763 N2765 1.384 . S
N2764 C2760 1.427 . S
N2764 C2761 1.384 . S
N2765 C2757 1.427 . S
N2765 C2763 1.384 . S
H2766 C2772 0.930 . S
H2767 C2776 0.930 . S
H2768 C2781 0.929 . S
H2769 C2779 0.929 . S
H2770 C2774 0.929 . S
H2771 C2780 0.929 . S
C2772 H2766 0.930 . S
C2772 C2773 1.367 . S
C2772 C2780 1.378 . S
C2773 C2772 1.367 . S
C2773 C2781 1.433 . S
C2774 H2770 0.929 . S
C2774 C2776 1.378 . S
C2774 C2778 1.350 . S
C2775 C2778 1.463 . S
C2775 C2780 1.350 . S
C2775 N2783 1.427 . S
C2776 H2767 0.930 . S
C2776 C2774 1.378 . S
C2776 C2777 1.367 . S
C2777 C2776 1.367 . S
C2777 C2779 1.433 . S
C2778 C2774 1.350 . S
C2778 C2775 1.463 . S
C2778 N2782 1.427 . S
C2779 H2769 0.929 . S
C2779 C2777 1.433 . S
C2779 N2782 1.384 . S
C2780 H2771 0.929 . S
C2780 C2772 1.378 . S
C2780 C2775 1.350 . S
C2781 H2768 0.929 . S
C2781 C2773 1.433 . S
C2781 N2783 1.384 . S
N2782 C2778 1.427 . S
N2782 C2779 1.384 . S
N2783 C2775 1.427 . S
N2783 C2781 1.384 . S
H2784 C2790 0.930 . S
H2785 C2794 0.930 . S
H2786 C2799 0.929 . S
H2787 C2797 0.929 . S
H2788 C2792 0.929 . S
H2789 C2798 0.929 . S
C2790 H2784 0.930 . S
C2790 C2791 1.367 . S
C2790 C2798 1.378 . S
C2791 C2790 1.367 . S
C2791 C2799 1.433 . S
C2792 H2788 0.929 . S
C2792 C2794 1.378 . S
C2792 C2796 1.350 . S
C2793 C2796 1.463 . S
C2793 C2798 1.350 . S
C2793 N2801 1.427 . S
C2794 H2785 0.930 . S
C2794 C2792 1.378 . S
C2794 C2795 1.367 . S
C2795 C2794 1.367 . S
C2795 C2797 1.433 . S
C2796 C2792 1.350 . S
C2796 C2793 1.463 . S
C2796 N2800 1.427 . S
C2797 H2787 0.929 . S
C2797 C2795 1.433 . S
C2797 N2800 1.384 . S
C2798 H2789 0.929 . S
C2798 C2790 1.378 . S
C2798 C2793 1.350 . S
C2799 H2786 0.929 . S
C2799 C2791 1.433 . S
C2799 N2801 1.384 . S
N2800 C2796 1.427 . S
N2800 C2797 1.384 . S
N2801 C2793 1.427 . S
N2801 C2799 1.384 . S
H2802 C2808 0.930 . S
H2803 C2812 0.930 . S
H2804 C2817 0.929 . S
H2805 C2815 0.929 . S
H2806 C2810 0.929 . S
H2807 C2816 0.929 . S
C2808 H2802 0.930 . S
C2808 C2809 1.367 . S
C2808 C2816 1.378 . S
C2809 C2808 1.367 . S
C2809 C2817 1.433 . S
C2810 H2806 0.929 . S
C2810 C2812 1.378 . S
C2810 C2814 1.350 . S
C2811 C2814 1.463 . S
C2811 C2816 1.350 . S
C2811 N2819 1.427 . S
C2812 H2803 0.930 . S
C2812 C2810 1.378 . S
C2812 C2813 1.367 . S
C2813 C2812 1.367 . S
C2813 C2815 1.433 . S
C2814 C2810 1.350 . S
C2814 C2811 1.463 . S
C2814 N2818 1.427 . S
C2815 H2805 0.929 . S
C2815 C2813 1.433 . S
C2815 N2818 1.384 . S
C2816 H2807 0.929 . S
C2816 C2808 1.378 . S
C2816 C2811 1.350 . S
C2817 H2804 0.929 . S
C2817 C2809 1.433 . S
C2817 N2819 1.384 . S
N2818 C2814 1.427 . S
N2818 C2815 1.384 . S
N2819 C2811 1.427 . S
N2819 C2817 1.384 . S
H2820 C2826 0.930 . S
H2821 C2830 0.930 . S
H2822 C2835 0.929 . S
H2823 C2833 0.929 . S
H2824 C2828 0.929 . S
H2825 C2834 0.929 . S
C2826 H2820 0.930 . S
C2826 C2827 1.367 . S
C2826 C2834 1.378 . S
C2827 C2826 1.367 . S
C2827 C2835 1.433 . S
C2828 H2824 0.929 . S
C2828 C2830 1.378 . S
C2828 C2832 1.350 . S
C2829 C2832 1.463 . S
C2829 C2834 1.350 . S
C2829 N2837 1.427 . S
C2830 H2821 0.930 . S
C2830 C2828 1.378 . S
C2830 C2831 1.367 . S
C2831 C2830 1.367 . S
C2831 C2833 1.433 . S
C2832 C2828 1.350 . S
C2832 C2829 1.463 . S
C2832 N2836 1.427 . S
C2833 H2823 0.929 . S
C2833 C2831 1.433 . S
C2833 N2836 1.384 . S
C2834 H2825 0.929 . S
C2834 C2826 1.378 . S
C2834 C2829 1.350 . S
C2835 H2822 0.929 . S
C2835 C2827 1.433 . S
C2835 N2837 1.384 . S
N2836 C2832 1.427 . S
N2836 C2833 1.384 . S
N2837 C2829 1.427 . S
N2837 C2835 1.384 . S
H2838 C2844 0.930 . S
H2839 C2848 0.930 . S
H2840 C2853 0.929 . S
H2841 C2851 0.929 . S
H2842 C2846 0.929 . S
H2843 C2852 0.929 . S
C2844 H2838 0.930 . S
C2844 C2845 1.367 . S
C2844 C2852 1.378 . S
C2845 C2844 1.367 . S
C2845 C2853 1.433 . S
C2846 H2842 0.929 . S
C2846 C2848 1.378 . S
C2846 C2850 1.350 . S
C2847 C2850 1.463 . S
C2847 C2852 1.350 . S
C2847 N2855 1.427 . S
C2848 H2839 0.930 . S
C2848 C2846 1.378 . S
C2848 C2849 1.367 . S
C2849 C2848 1.367 . S
C2849 C2851 1.433 . S
C2850 C2846 1.350 . S
C2850 C2847 1.463 . S
C2850 N2854 1.427 . S
C2851 H2841 0.929 . S
C2851 C2849 1.433 . S
C2851 N2854 1.384 . S
C2852 H2843 0.929 . S
C2852 C2844 1.378 . S
C2852 C2847 1.350 . S
C2853 H2840 0.929 . S
C2853 C2845 1.433 . S
C2853 N2855 1.384 . S
N2854 C2850 1.427 . S
N2854 C2851 1.384 . S
N2855 C2847 1.427 . S
N2855 C2853 1.384 . S
H2856 C2862 0.930 . S
H2857 C2866 0.930 . S
H2858 C2871 0.929 . S
H2859 C2869 0.929 . S
H2860 C2864 0.929 . S
H2861 C2870 0.929 . S
C2862 H2856 0.930 . S
C2862 C2863 1.367 . S
C2862 C2870 1.378 . S
C2863 C2862 1.367 . S
C2863 C2871 1.433 . S
C2864 H2860 0.929 . S
C2864 C2866 1.378 . S
C2864 C2868 1.350 . S
C2865 C2868 1.463 . S
C2865 C2870 1.350 . S
C2865 N2873 1.427 . S
C2866 H2857 0.930 . S
C2866 C2864 1.378 . S
C2866 C2867 1.367 . S
C2867 C2866 1.367 . S
C2867 C2869 1.433 . S
C2868 C2864 1.350 . S
C2868 C2865 1.463 . S
C2868 N2872 1.427 . S
C2869 H2859 0.929 . S
C2869 C2867 1.433 . S
C2869 N2872 1.384 . S
C2870 H2861 0.929 . S
C2870 C2862 1.378 . S
C2870 C2865 1.350 . S
C2871 H2858 0.929 . S
C2871 C2863 1.433 . S
C2871 N2873 1.384 . S
N2872 C2868 1.427 . S
N2872 C2869 1.384 . S
N2873 C2865 1.427 . S
N2873 C2871 1.384 . S
H2874 C2880 0.930 . S
H2875 C2884 0.930 . S
H2876 C2889 0.929 . S
H2877 C2887 0.929 . S
H2878 C2882 0.929 . S
H2879 C2888 0.929 . S
C2880 H2874 0.930 . S
C2880 C2881 1.367 . S
C2880 C2888 1.378 . S
C2881 C2880 1.367 . S
C2881 C2889 1.433 . S
C2882 H2878 0.929 . S
C2882 C2884 1.378 . S
C2882 C2886 1.350 . S
C2883 C2886 1.463 . S
C2883 C2888 1.350 . S
C2883 N2891 1.427 . S
C2884 H2875 0.930 . S
C2884 C2882 1.378 . S
C2884 C2885 1.367 . S
C2885 C2884 1.367 . S
C2885 C2887 1.433 . S
C2886 C2882 1.350 . S
C2886 C2883 1.463 . S
C2886 N2890 1.427 . S
C2887 H2877 0.929 . S
C2887 C2885 1.433 . S
C2887 N2890 1.384 . S
C2888 H2879 0.929 . S
C2888 C2880 1.378 . S
C2888 C2883 1.350 . S
C2889 H2876 0.929 . S
C2889 C2881 1.433 . S
C2889 N2891 1.384 . S
N2890 C2886 1.427 . S
N2890 C2887 1.384 . S
N2891 C2883 1.427 . S
N2891 C2889 1.384 . S
H2892 C2898 0.930 . S
H2893 C2902 0.930 . S
H2894 C2907 0.929 . S
H2895 C2905 0.929 . S
H2896 C2900 0.929 . S
H2897 C2906 0.929 . S
C2898 H2892 0.930 . S
C2898 C2899 1.367 . S
C2898 C2906 1.378 . S
C2899 C2898 1.367 . S
C2899 C2907 1.433 . S
C2900 H2896 0.929 . S
C2900 C2902 1.378 . S
C2900 C2904 1.350 . S
C2901 C2904 1.463 . S
C2901 C2906 1.350 . S
C2901 N2909 1.427 . S
C2902 H2893 0.930 . S
C2902 C2900 1.378 . S
C2902 C2903 1.367 . S
C2903 C2902 1.367 . S
C2903 C2905 1.433 . S
C2904 C2900 1.350 . S
C2904 C2901 1.463 . S
C2904 N2908 1.427 . S
C2905 H2895 0.929 . S
C2905 C2903 1.433 . S
C2905 N2908 1.384 . S
C2906 H2897 0.929 . S
C2906 C2898 1.378 . S
C2906 C2901 1.350 . S
C2907 H2894 0.929 . S
C2907 C2899 1.433 . S
C2907 N2909 1.384 . S
N2908 C2904 1.427 . S
N2908 C2905 1.384 . S
N2909 C2901 1.427 . S
N2909 C2907 1.384 . S
H2910 C2916 0.930 . S
H2911 C2920 0.930 . S
H2912 C2925 0.929 . S
H2913 C2923 0.929 . S
H2914 C2918 0.929 . S
H2915 C2924 0.929 . S
C2916 H2910 0.930 . S
C2916 C2917 1.367 . S
C2916 C2924 1.378 . S
C2917 C2916 1.367 . S
C2917 C2925 1.433 . S
C2918 H2914 0.929 . S
C2918 C2920 1.378 . S
C2918 C2922 1.350 . S
C2919 C2922 1.463 . S
C2919 C2924 1.350 . S
C2919 N2927 1.427 . S
C2920 H2911 0.930 . S
C2920 C2918 1.378 . S
C2920 C2921 1.367 . S
C2921 C2920 1.367 . S
C2921 C2923 1.433 . S
C2922 C2918 1.350 . S
C2922 C2919 1.463 . S
C2922 N2926 1.427 . S
C2923 H2913 0.929 . S
C2923 C2921 1.433 . S
C2923 N2926 1.384 . S
C2924 H2915 0.929 . S
C2924 C2916 1.378 . S
C2924 C2919 1.350 . S
C2925 H2912 0.929 . S
C2925 C2917 1.433 . S
C2925 N2927 1.384 . S
N2926 C2922 1.427 . S
N2926 C2923 1.384 . S
N2927 C2919 1.427 . S
N2927 C2925 1.384 . S
H2928 C2934 0.930 . S
H2929 C2938 0.930 . S
H2930 C2943 0.929 . S
H2931 C2941 0.929 . S
H2932 C2936 0.929 . S
H2933 C2942 0.929 . S
C2934 H2928 0.930 . S
C2934 C2935 1.367 . S
C2934 C2942 1.378 . S
C2935 C2934 1.367 . S
C2935 C2943 1.433 . S
C2936 H2932 0.929 . S
C2936 C2938 1.378 . S
C2936 C2940 1.350 . S
C2937 C2940 1.463 . S
C2937 C2942 1.350 . S
C2937 N2945 1.427 . S
C2938 H2929 0.930 . S
C2938 C2936 1.378 . S
C2938 C2939 1.367 . S
C2939 C2938 1.367 . S
C2939 C2941 1.433 . S
C2940 C2936 1.350 . S
C2940 C2937 1.463 . S
C2940 N2944 1.427 . S
C2941 H2931 0.929 . S
C2941 C2939 1.433 . S
C2941 N2944 1.384 . S
C2942 H2933 0.929 . S
C2942 C2934 1.378 . S
C2942 C2937 1.350 . S
C2943 H2930 0.929 . S
C2943 C2935 1.433 . S
C2943 N2945 1.384 . S
N2944 C2940 1.427 . S
N2944 C2941 1.384 . S
N2945 C2937 1.427 . S
N2945 C2943 1.384 . S
H2946 C2952 0.930 . S
H2947 C2956 0.930 . S
H2948 C2961 0.929 . S
H2949 C2959 0.929 . S
H2950 C2954 0.929 . S
H2951 C2960 0.929 . S
C2952 H2946 0.930 . S
C2952 C2953 1.367 . S
C2952 C2960 1.378 . S
C2953 C2952 1.367 . S
C2953 C2961 1.433 . S
C2954 H2950 0.929 . S
C2954 C2956 1.378 . S
C2954 C2958 1.350 . S
C2955 C2958 1.463 . S
C2955 C2960 1.350 . S
C2955 N2963 1.427 . S
C2956 H2947 0.930 . S
C2956 C2954 1.378 . S
C2956 C2957 1.367 . S
C2957 C2956 1.367 . S
C2957 C2959 1.433 . S
C2958 C2954 1.350 . S
C2958 C2955 1.463 . S
C2958 N2962 1.427 . S
C2959 H2949 0.929 . S
C2959 C2957 1.433 . S
C2959 N2962 1.384 . S
C2960 H2951 0.929 . S
C2960 C2952 1.378 . S
C2960 C2955 1.350 . S
C2961 H2948 0.929 . S
C2961 C2953 1.433 . S
C2961 N2963 1.384 . S
N2962 C2958 1.427 . S
N2962 C2959 1.384 . S
N2963 C2955 1.427 . S
N2963 C2961 1.384 . S
H2964 C2970 0.930 . S
H2965 C2974 0.930 . S
H2966 C2979 0.929 . S
H2967 C2977 0.929 . S
H2968 C2972 0.929 . S
H2969 C2978 0.929 . S
C2970 H2964 0.930 . S
C2970 C2971 1.367 . S
C2970 C2978 1.378 . S
C2971 C2970 1.367 . S
C2971 C2979 1.433 . S
C2972 H2968 0.929 . S
C2972 C2974 1.378 . S
C2972 C2976 1.350 . S
C2973 C2976 1.463 . S
C2973 C2978 1.350 . S
C2973 N2981 1.427 . S
C2974 H2965 0.930 . S
C2974 C2972 1.378 . S
C2974 C2975 1.367 . S
C2975 C2974 1.367 . S
C2975 C2977 1.433 . S
C2976 C2972 1.350 . S
C2976 C2973 1.463 . S
C2976 N2980 1.427 . S
C2977 H2967 0.929 . S
C2977 C2975 1.433 . S
C2977 N2980 1.384 . S
C2978 H2969 0.929 . S
C2978 C2970 1.378 . S
C2978 C2973 1.350 . S
C2979 H2966 0.929 . S
C2979 C2971 1.433 . S
C2979 N2981 1.384 . S
N2980 C2976 1.427 . S
N2980 C2977 1.384 . S
N2981 C2973 1.427 . S
N2981 C2979 1.384 . S
H2982 C2988 0.930 . S
H2983 C2992 0.930 . S
H2984 C2997 0.929 . S
H2985 C2995 0.929 . S
H2986 C2990 0.929 . S
H2987 C2996 0.929 . S
C2988 H2982 0.930 . S
C2988 C2989 1.367 . S
C2988 C2996 1.378 . S
C2989 C2988 1.367 . S
C2989 C2997 1.433 . S
C2990 H2986 0.929 . S
C2990 C2992 1.378 . S
C2990 C2994 1.350 . S
C2991 C2994 1.463 . S
C2991 C2996 1.350 . S
C2991 N2999 1.427 . S
C2992 H2983 0.930 . S
C2992 C2990 1.378 . S
C2992 C2993 1.367 . S
C2993 C2992 1.367 . S
C2993 C2995 1.433 . S
C2994 C2990 1.350 . S
C2994 C2991 1.463 . S
C2994 N2998 1.427 . S
C2995 H2985 0.929 . S
C2995 C2993 1.433 . S
C2995 N2998 1.384 . S
C2996 H2987 0.929 . S
C2996 C2988 1.378 . S
C2996 C2991 1.350 . S
C2997 H2984 0.929 . S
C2997 C2989 1.433 . S
C2997 N2999 1.384 . S
N2998 C2994 1.427 . S
N2998 C2995 1.384 . S
N2999 C2991 1.427 . S
N2999 C2997 1.384 . S
H3000 C3006 0.930 . S
H3001 C3010 0.930 . S
H3002 C3015 0.929 . S
H3003 C3013 0.929 . S
H3004 C3008 0.929 . S
H3005 C3014 0.929 . S
C3006 H3000 0.930 . S
C3006 C3007 1.367 . S
C3006 C3014 1.378 . S
C3007 C3006 1.367 . S
C3007 C3015 1.433 . S
C3008 H3004 0.929 . S
C3008 C3010 1.378 . S
C3008 C3012 1.350 . S
C3009 C3012 1.463 . S
C3009 C3014 1.350 . S
C3009 N3017 1.427 . S
C3010 H3001 0.930 . S
C3010 C3008 1.378 . S
C3010 C3011 1.367 . S
C3011 C3010 1.367 . S
C3011 C3013 1.433 . S
C3012 C3008 1.350 . S
C3012 C3009 1.463 . S
C3012 N3016 1.427 . S
C3013 H3003 0.929 . S
C3013 C3011 1.433 . S
C3013 N3016 1.384 . S
C3014 H3005 0.929 . S
C3014 C3006 1.378 . S
C3014 C3009 1.350 . S
C3015 H3002 0.929 . S
C3015 C3007 1.433 . S
C3015 N3017 1.384 . S
N3016 C3012 1.427 . S
N3016 C3013 1.384 . S
N3017 C3009 1.427 . S
N3017 C3015 1.384 . S
H3018 C3024 0.930 . S
H3019 C3028 0.930 . S
H3020 C3033 0.929 . S
H3021 C3031 0.929 . S
H3022 C3026 0.929 . S
H3023 C3032 0.929 . S
C3024 H3018 0.930 . S
C3024 C3025 1.367 . S
C3024 C3032 1.378 . S
C3025 C3024 1.367 . S
C3025 C3033 1.433 . S
C3026 H3022 0.929 . S
C3026 C3028 1.378 . S
C3026 C3030 1.350 . S
C3027 C3030 1.463 . S
C3027 C3032 1.350 . S
C3027 N3035 1.427 . S
C3028 H3019 0.930 . S
C3028 C3026 1.378 . S
C3028 C3029 1.367 . S
C3029 C3028 1.367 . S
C3029 C3031 1.433 . S
C3030 C3026 1.350 . S
C3030 C3027 1.463 . S
C3030 N3034 1.427 . S
C3031 H3021 0.929 . S
C3031 C3029 1.433 . S
C3031 N3034 1.384 . S
C3032 H3023 0.929 . S
C3032 C3024 1.378 . S
C3032 C3027 1.350 . S
C3033 H3020 0.929 . S
C3033 C3025 1.433 . S
C3033 N3035 1.384 . S
N3034 C3030 1.427 . S
N3034 C3031 1.384 . S
N3035 C3027 1.427 . S
N3035 C3033 1.384 . S
H3036 C3042 0.930 . S
H3037 C3046 0.930 . S
H3038 C3051 0.929 . S
H3039 C3049 0.929 . S
H3040 C3044 0.929 . S
H3041 C3050 0.929 . S
C3042 H3036 0.930 . S
C3042 C3043 1.367 . S
C3042 C3050 1.378 . S
C3043 C3042 1.367 . S
C3043 C3051 1.433 . S
C3044 H3040 0.929 . S
C3044 C3046 1.378 . S
C3044 C3048 1.350 . S
C3045 C3048 1.463 . S
C3045 C3050 1.350 . S
C3045 N3053 1.427 . S
C3046 H3037 0.930 . S
C3046 C3044 1.378 . S
C3046 C3047 1.367 . S
C3047 C3046 1.367 . S
C3047 C3049 1.433 . S
C3048 C3044 1.350 . S
C3048 C3045 1.463 . S
C3048 N3052 1.427 . S
C3049 H3039 0.929 . S
C3049 C3047 1.433 . S
C3049 N3052 1.384 . S
C3050 H3041 0.929 . S
C3050 C3042 1.378 . S
C3050 C3045 1.350 . S
C3051 H3038 0.929 . S
C3051 C3043 1.433 . S
C3051 N3053 1.384 . S
N3052 C3048 1.427 . S
N3052 C3049 1.384 . S
N3053 C3045 1.427 . S
N3053 C3051 1.384 . S
H3054 C3060 0.930 . S
H3055 C3064 0.930 . S
H3056 C3069 0.929 . S
H3057 C3067 0.929 . S
H3058 C3062 0.929 . S
H3059 C3068 0.929 . S
C3060 H3054 0.930 . S
C3060 C3061 1.367 . S
C3060 C3068 1.378 . S
C3061 C3060 1.367 . S
C3061 C3069 1.433 . S
C3062 H3058 0.929 . S
C3062 C3064 1.378 . S
C3062 C3066 1.350 . S
C3063 C3066 1.463 . S
C3063 C3068 1.350 . S
C3063 N3071 1.427 . S
C3064 H3055 0.930 . S
C3064 C3062 1.378 . S
C3064 C3065 1.367 . S
C3065 C3064 1.367 . S
C3065 C3067 1.433 . S
C3066 C3062 1.350 . S
C3066 C3063 1.463 . S
C3066 N3070 1.427 . S
C3067 H3057 0.929 . S
C3067 C3065 1.433 . S
C3067 N3070 1.384 . S
C3068 H3059 0.929 . S
C3068 C3060 1.378 . S
C3068 C3063 1.350 . S
C3069 H3056 0.929 . S
C3069 C3061 1.433 . S
C3069 N3071 1.384 . S
N3070 C3066 1.427 . S
N3070 C3067 1.384 . S
N3071 C3063 1.427 . S
N3071 C3069 1.384 . S
H3072 C3078 0.930 . S
H3073 C3082 0.930 . S
H3074 C3087 0.929 . S
H3075 C3085 0.929 . S
H3076 C3080 0.929 . S
H3077 C3086 0.929 . S
C3078 H3072 0.930 . S
C3078 C3079 1.367 . S
C3078 C3086 1.378 . S
C3079 C3078 1.367 . S
C3079 C3087 1.433 . S
C3080 H3076 0.929 . S
C3080 C3082 1.378 . S
C3080 C3084 1.350 . S
C3081 C3084 1.463 1_455 S
C3081 C3086 1.350 . S
C3081 N3089 1.427 . S
C3082 H3073 0.930 . S
C3082 C3080 1.378 . S
C3082 C3083 1.367 . S
C3083 C3082 1.367 . S
C3083 C3085 1.433 . S
C3084 C3080 1.350 . S
C3084 C3081 1.463 1_655 S
C3084 N3088 1.427 . S
C3085 H3075 0.929 . S
C3085 C3083 1.433 . S
C3085 N3088 1.384 . S
C3086 H3077 0.929 . S
C3086 C3078 1.378 . S
C3086 C3081 1.350 . S
C3087 H3074 0.929 . S
C3087 C3079 1.433 . S
C3087 N3089 1.384 . S
N3088 C3084 1.427 . S
N3088 C3085 1.384 . S
N3089 C3081 1.427 . S
N3089 C3087 1.384 . S
H3090 C3096 0.930 . S
H3091 C3100 0.930 . S
H3092 C3105 0.929 . S
H3093 C3103 0.929 . S
H3094 C3098 0.929 . S
H3095 C3104 0.929 . S
C3096 H3090 0.930 . S
C3096 C3097 1.367 . S
C3096 C3104 1.378 . S
C3097 C3096 1.367 . S
C3097 C3105 1.433 . S
C3098 H3094 0.929 . S
C3098 C3100 1.378 . S
C3098 C3102 1.350 . S
C3099 C3102 1.463 1_545 S
C3099 C3104 1.350 . S
C3099 N3107 1.427 . S
C3100 H3091 0.930 . S
C3100 C3098 1.378 . S
C3100 C3101 1.367 . S
C3101 C3100 1.367 . S
C3101 C3103 1.433 . S
C3102 C3098 1.350 . S
C3102 C3099 1.463 1_565 S
C3102 N3106 1.427 . S
C3103 H3093 0.929 . S
C3103 C3101 1.433 . S
C3103 N3106 1.384 . S
C3104 H3095 0.929 . S
C3104 C3096 1.378 . S
C3104 C3099 1.350 . S
C3105 H3092 0.929 . S
C3105 C3097 1.433 . S
C3105 N3107 1.384 . S
N3106 C3102 1.427 . S
N3106 C3103 1.384 . S
N3107 C3099 1.427 . S
N3107 C3105 1.384 . S
H3108 C3114 0.930 . S
H3109 C3118 0.930 . S
H3110 C3123 0.929 . S
H3111 C3121 0.929 . S
H3112 C3116 0.929 . S
H3113 C3122 0.929 . S
C3114 H3108 0.930 . S
C3114 C3115 1.367 . S
C3114 C3122 1.378 . S
C3115 C3114 1.367 . S
C3115 C3123 1.433 . S
C3116 H3112 0.929 . S
C3116 C3118 1.378 . S
C3116 C3120 1.350 . S
C3117 C3120 1.463 1_655 S
C3117 C3122 1.350 . S
C3117 N3125 1.427 . S
C3118 H3109 0.930 . S
C3118 C3116 1.378 . S
C3118 C3119 1.367 . S
C3119 C3118 1.367 . S
C3119 C3121 1.433 . S
C3120 C3116 1.350 . S
C3120 C3117 1.463 1_455 S
C3120 N3124 1.427 . S
C3121 H3111 0.929 . S
C3121 C3119 1.433 . S
C3121 N3124 1.384 . S
C3122 H3113 0.929 . S
C3122 C3114 1.378 . S
C3122 C3117 1.350 . S
C3123 H3110 0.929 . S
C3123 C3115 1.433 . S
C3123 N3125 1.384 . S
N3124 C3120 1.427 . S
N3124 C3121 1.384 . S
N3125 C3117 1.427 . S
N3125 C3123 1.384 . S
H3126 C3132 0.930 . S
H3127 C3136 0.930 . S
H3128 C3141 0.929 . S
H3129 C3139 0.929 . S
H3130 C3134 0.929 . S
H3131 C3140 0.929 . S
C3132 H3126 0.930 . S
C3132 C3133 1.367 . S
C3132 C3140 1.378 . S
C3133 C3132 1.367 . S
C3133 C3141 1.433 . S
C3134 H3130 0.929 . S
C3134 C3136 1.378 . S
C3134 C3138 1.350 . S
C3135 C3138 1.463 1_565 S
C3135 C3140 1.350 . S
C3135 N3143 1.427 . S
C3136 H3127 0.930 . S
C3136 C3134 1.378 . S
C3136 C3137 1.367 . S
C3137 C3136 1.367 . S
C3137 C3139 1.433 . S
C3138 C3134 1.350 . S
C3138 C3135 1.463 1_545 S
C3138 N3142 1.427 . S
C3139 H3129 0.929 . S
C3139 C3137 1.433 . S
C3139 N3142 1.384 . S
C3140 H3131 0.929 . S
C3140 C3132 1.378 . S
C3140 C3135 1.350 . S
C3141 H3128 0.929 . S
C3141 C3133 1.433 . S
C3141 N3143 1.384 . S
N3142 C3138 1.427 . S
N3142 C3139 1.384 . S
N3143 C3135 1.427 . S
N3143 C3141 1.384 . S
H3144 C3150 0.930 . S
H3145 C3154 0.930 . S
H3146 C3159 0.929 . S
H3147 C3157 0.929 . S
H3148 C3152 0.929 . S
H3149 C3158 0.929 . S
C3150 H3144 0.930 . S
C3150 C3151 1.367 . S
C3150 C3158 1.378 . S
C3151 C3150 1.367 . S
C3151 C3159 1.433 . S
C3152 H3148 0.929 . S
C3152 C3154 1.378 . S
C3152 C3156 1.350 . S
C3153 C3156 1.463 1_655 S
C3153 C3158 1.350 . S
C3153 N3161 1.427 . S
C3154 H3145 0.930 . S
C3154 C3152 1.378 . S
C3154 C3155 1.367 . S
C3155 C3154 1.367 . S
C3155 C3157 1.433 . S
C3156 C3152 1.350 . S
C3156 C3153 1.463 1_455 S
C3156 N3160 1.427 . S
C3157 H3147 0.929 . S
C3157 C3155 1.433 . S
C3157 N3160 1.384 . S
C3158 H3149 0.929 . S
C3158 C3150 1.378 . S
C3158 C3153 1.350 . S
C3159 H3146 0.929 . S
C3159 C3151 1.433 . S
C3159 N3161 1.384 . S
N3160 C3156 1.427 . S
N3160 C3157 1.384 . S
N3161 C3153 1.427 . S
N3161 C3159 1.384 . S
H3162 C3168 0.930 . S
H3163 C3172 0.930 . S
H3164 C3177 0.929 . S
H3165 C3175 0.929 . S
H3166 C3170 0.929 . S
H3167 C3176 0.929 . S
C3168 H3162 0.930 . S
C3168 C3169 1.367 . S
C3168 C3176 1.378 . S
C3169 C3168 1.367 . S
C3169 C3177 1.433 . S
C3170 H3166 0.929 . S
C3170 C3172 1.378 . S
C3170 C3174 1.350 . S
C3171 C3174 1.463 1_545 S
C3171 C3176 1.350 . S
C3171 N3179 1.427 . S
C3172 H3163 0.930 . S
C3172 C3170 1.378 . S
C3172 C3173 1.367 . S
C3173 C3172 1.367 . S
C3173 C3175 1.433 . S
C3174 C3170 1.350 . S
C3174 C3171 1.463 1_565 S
C3174 N3178 1.427 . S
C3175 H3165 0.929 . S
C3175 C3173 1.433 . S
C3175 N3178 1.384 . S
C3176 H3167 0.929 . S
C3176 C3168 1.378 . S
C3176 C3171 1.350 . S
C3177 H3164 0.929 . S
C3177 C3169 1.433 . S
C3177 N3179 1.384 . S
N3178 C3174 1.427 . S
N3178 C3175 1.384 . S
N3179 C3171 1.427 . S
N3179 C3177 1.384 . S
H3180 C3186 0.930 . S
H3181 C3190 0.930 . S
H3182 C3195 0.929 . S
H3183 C3193 0.929 . S
H3184 C3188 0.929 . S
H3185 C3194 0.929 . S
C3186 H3180 0.930 . S
C3186 C3187 1.367 . S
C3186 C3194 1.378 . S
C3187 C3186 1.367 . S
C3187 C3195 1.433 . S
C3188 H3184 0.929 . S
C3188 C3190 1.378 . S
C3188 C3192 1.350 . S
C3189 C3192 1.463 1_455 S
C3189 C3194 1.350 . S
C3189 N3197 1.427 . S
C3190 H3181 0.930 . S
C3190 C3188 1.378 . S
C3190 C3191 1.367 . S
C3191 C3190 1.367 . S
C3191 C3193 1.433 . S
C3192 C3188 1.350 . S
C3192 C3189 1.463 1_655 S
C3192 N3196 1.427 . S
C3193 H3183 0.929 . S
C3193 C3191 1.433 . S
C3193 N3196 1.384 . S
C3194 H3185 0.929 . S
C3194 C3186 1.378 . S
C3194 C3189 1.350 . S
C3195 H3182 0.929 . S
C3195 C3187 1.433 . S
C3195 N3197 1.384 . S
N3196 C3192 1.427 . S
N3196 C3193 1.384 . S
N3197 C3189 1.427 . S
N3197 C3195 1.384 . S
H3198 C3204 0.930 . S
H3199 C3208 0.930 . S
H3200 C3213 0.929 . S
H3201 C3211 0.929 . S
H3202 C3206 0.929 . S
H3203 C3212 0.929 . S
C3204 H3198 0.930 . S
C3204 C3205 1.367 . S
C3204 C3212 1.378 . S
C3205 C3204 1.367 . S
C3205 C3213 1.433 . S
C3206 H3202 0.929 . S
C3206 C3208 1.378 . S
C3206 C3210 1.350 . S
C3207 C3210 1.463 1_545 S
C3207 C3212 1.350 . S
C3207 N3215 1.427 . S
C3208 H3199 0.930 . S
C3208 C3206 1.378 . S
C3208 C3209 1.367 . S
C3209 C3208 1.367 . S
C3209 C3211 1.433 . S
C3210 C3206 1.350 . S
C3210 C3207 1.463 1_565 S
C3210 N3214 1.427 . S
C3211 H3201 0.929 . S
C3211 C3209 1.433 . S
C3211 N3214 1.384 . S
C3212 H3203 0.929 . S
C3212 C3204 1.378 . S
C3212 C3207 1.350 . S
C3213 H3200 0.929 . S
C3213 C3205 1.433 . S
C3213 N3215 1.384 . S
N3214 C3210 1.427 . S
N3214 C3211 1.384 . S
N3215 C3207 1.427 . S
N3215 C3213 1.384 . S
H3216 C3222 0.930 . S
H3217 C3226 0.930 . S
H3218 C3231 0.929 . S
H3219 C3229 0.929 . S
H3220 C3224 0.929 . S
H3221 C3230 0.929 . S
C3222 H3216 0.930 . S
C3222 C3223 1.367 . S
C3222 C3230 1.378 . S
C3223 C3222 1.367 . S
C3223 C3231 1.433 . S
C3224 H3220 0.929 . S
C3224 C3226 1.378 . S
C3224 C3228 1.350 . S
C3225 C3228 1.463 1_545 S
C3225 C3230 1.350 . S
C3225 N3233 1.427 . S
C3226 H3217 0.930 . S
C3226 C3224 1.378 . S
C3226 C3227 1.367 . S
C3227 C3226 1.367 . S
C3227 C3229 1.433 . S
C3228 C3224 1.350 . S
C3228 C3225 1.463 1_565 S
C3228 N3232 1.427 . S
C3229 H3219 0.929 . S
C3229 C3227 1.433 . S
C3229 N3232 1.384 . S
C3230 H3221 0.929 . S
C3230 C3222 1.378 . S
C3230 C3225 1.350 . S
C3231 H3218 0.929 . S
C3231 C3223 1.433 . S
C3231 N3233 1.384 . S
N3232 C3228 1.427 . S
N3232 C3229 1.384 . S
N3233 C3225 1.427 . S
N3233 C3231 1.384 . S
H3234 C3240 0.930 . S
H3235 C3244 0.930 . S
H3236 C3249 0.929 . S
H3237 C3247 0.929 . S
H3238 C3242 0.929 . S
H3239 C3248 0.929 . S
C3240 H3234 0.930 . S
C3240 C3241 1.367 . S
C3240 C3248 1.378 . S
C3241 C3240 1.367 . S
C3241 C3249 1.433 . S
C3242 H3238 0.929 . S
C3242 C3244 1.378 . S
C3242 C3246 1.350 . S
C3243 C3246 1.463 1_455 S
C3243 C3248 1.350 . S
C3243 N3251 1.427 . S
C3244 H3235 0.930 . S
C3244 C3242 1.378 . S
C3244 C3245 1.367 . S
C3245 C3244 1.367 . S
C3245 C3247 1.433 . S
C3246 C3242 1.350 . S
C3246 C3243 1.463 1_655 S
C3246 N3250 1.427 . S
C3247 H3237 0.929 . S
C3247 C3245 1.433 . S
C3247 N3250 1.384 . S
C3248 H3239 0.929 . S
C3248 C3240 1.378 . S
C3248 C3243 1.350 . S
C3249 H3236 0.929 . S
C3249 C3241 1.433 . S
C3249 N3251 1.384 . S
N3250 C3246 1.427 . S
N3250 C3247 1.384 . S
N3251 C3243 1.427 . S
N3251 C3249 1.384 . S
H3252 C3258 0.930 . S
H3253 C3262 0.930 . S
H3254 C3267 0.929 . S
H3255 C3265 0.929 . S
H3256 C3260 0.929 . S
H3257 C3266 0.929 . S
C3258 H3252 0.930 . S
C3258 C3259 1.367 . S
C3258 C3266 1.378 . S
C3259 C3258 1.367 . S
C3259 C3267 1.433 . S
C3260 H3256 0.929 . S
C3260 C3262 1.378 . S
C3260 C3264 1.350 . S
C3261 C3264 1.463 1_565 S
C3261 C3266 1.350 . S
C3261 N3269 1.427 . S
C3262 H3253 0.930 . S
C3262 C3260 1.378 . S
C3262 C3263 1.367 . S
C3263 C3262 1.367 . S
C3263 C3265 1.433 . S
C3264 C3260 1.350 . S
C3264 C3261 1.463 1_545 S
C3264 N3268 1.427 . S
C3265 H3255 0.929 . S
C3265 C3263 1.433 . S
C3265 N3268 1.384 . S
C3266 H3257 0.929 . S
C3266 C3258 1.378 . S
C3266 C3261 1.350 . S
C3267 H3254 0.929 . S
C3267 C3259 1.433 . S
C3267 N3269 1.384 . S
N3268 C3264 1.427 . S
N3268 C3265 1.384 . S
N3269 C3261 1.427 . S
N3269 C3267 1.384 . S
H3270 C3276 0.930 . S
H3271 C3280 0.930 . S
H3272 C3285 0.929 . S
H3273 C3283 0.929 . S
H3274 C3278 0.929 . S
H3275 C3284 0.929 . S
C3276 H3270 0.930 . S
C3276 C3277 1.367 . S
C3276 C3284 1.378 . S
C3277 C3276 1.367 . S
C3277 C3285 1.433 . S
C3278 H3274 0.929 . S
C3278 C3280 1.378 . S
C3278 C3282 1.350 . S
C3279 C3282 1.463 1_455 S
C3279 C3284 1.350 . S
C3279 N3287 1.427 . S
C3280 H3271 0.930 . S
C3280 C3278 1.378 . S
C3280 C3281 1.367 . S
C3281 C3280 1.367 . S
C3281 C3283 1.433 . S
C3282 C3278 1.350 . S
C3282 C3279 1.463 1_655 S
C3282 N3286 1.427 . S
C3283 H3273 0.929 . S
C3283 C3281 1.433 . S
C3283 N3286 1.384 . S
C3284 H3275 0.929 . S
C3284 C3276 1.378 . S
C3284 C3279 1.350 . S
C3285 H3272 0.929 . S
C3285 C3277 1.433 . S
C3285 N3287 1.384 . S
N3286 C3282 1.427 . S
N3286 C3283 1.384 . S
N3287 C3279 1.427 . S
N3287 C3285 1.384 . S
H3288 C3294 0.930 . S
H3289 C3298 0.930 . S
H3290 C3303 0.929 . S
H3291 C3301 0.929 . S
H3292 C3296 0.929 . S
H3293 C3302 0.929 . S
C3294 H3288 0.930 . S
C3294 C3295 1.367 . S
C3294 C3302 1.378 . S
C3295 C3294 1.367 . S
C3295 C3303 1.433 . S
C3296 H3292 0.929 . S
C3296 C3298 1.378 . S
C3296 C3300 1.350 . S
C3297 C3300 1.463 1_565 S
C3297 C3302 1.350 . S
C3297 N3305 1.427 . S
C3298 H3289 0.930 . S
C3298 C3296 1.378 . S
C3298 C3299 1.367 . S
C3299 C3298 1.367 . S
C3299 C3301 1.433 . S
C3300 C3296 1.350 . S
C3300 C3297 1.463 1_545 S
C3300 N3304 1.427 . S
C3301 H3291 0.929 . S
C3301 C3299 1.433 . S
C3301 N3304 1.384 . S
C3302 H3293 0.929 . S
C3302 C3294 1.378 . S
C3302 C3297 1.350 . S
C3303 H3290 0.929 . S
C3303 C3295 1.433 . S
C3303 N3305 1.384 . S
N3304 C3300 1.427 . S
N3304 C3301 1.384 . S
N3305 C3297 1.427 . S
N3305 C3303 1.384 . S
H3306 C3312 0.930 . S
H3307 C3316 0.930 . S
H3308 C3321 0.929 . S
H3309 C3319 0.929 . S
H3310 C3314 0.929 . S
H3311 C3320 0.929 . S
C3312 H3306 0.930 . S
C3312 C3313 1.367 . S
C3312 C3320 1.378 . S
C3313 C3312 1.367 . S
C3313 C3321 1.433 . S
C3314 H3310 0.929 . S
C3314 C3316 1.378 . S
C3314 C3318 1.350 . S
C3315 C3318 1.463 1_455 S
C3315 C3320 1.350 . S
C3315 N3323 1.427 . S
C3316 H3307 0.930 . S
C3316 C3314 1.378 . S
C3316 C3317 1.367 . S
C3317 C3316 1.367 . S
C3317 C3319 1.433 . S
C3318 C3314 1.350 . S
C3318 C3315 1.463 1_655 S
C3318 N3322 1.427 . S
C3319 H3309 0.929 . S
C3319 C3317 1.433 . S
C3319 N3322 1.384 . S
C3320 H3311 0.929 . S
C3320 C3312 1.378 . S
C3320 C3315 1.350 . S
C3321 H3308 0.929 . S
C3321 C3313 1.433 . S
C3321 N3323 1.384 . S
N3322 C3318 1.427 . S
N3322 C3319 1.384 . S
N3323 C3315 1.427 . S
N3323 C3321 1.384 . S
H3324 C3330 0.930 . S
H3325 C3334 0.930 . S
H3326 C3339 0.929 . S
H3327 C3337 0.929 . S
H3328 C3332 0.929 . S
H3329 C3338 0.929 . S
C3330 H3324 0.930 . S
C3330 C3331 1.367 . S
C3330 C3338 1.378 . S
C3331 C3330 1.367 . S
C3331 C3339 1.433 . S
C3332 H3328 0.929 . S
C3332 C3334 1.378 . S
C3332 C3336 1.350 . S
C3333 C3336 1.463 1_545 S
C3333 C3338 1.350 . S
C3333 N3341 1.427 . S
C3334 H3325 0.930 . S
C3334 C3332 1.378 . S
C3334 C3335 1.367 . S
C3335 C3334 1.367 . S
C3335 C3337 1.433 . S
C3336 C3332 1.350 . S
C3336 C3333 1.463 1_565 S
C3336 N3340 1.427 . S
C3337 H3327 0.929 . S
C3337 C3335 1.433 . S
C3337 N3340 1.384 . S
C3338 H3329 0.929 . S
C3338 C3330 1.378 . S
C3338 C3333 1.350 . S
C3339 H3326 0.929 . S
C3339 C3331 1.433 . S
C3339 N3341 1.384 . S
N3340 C3336 1.427 . S
N3340 C3337 1.384 . S
N3341 C3333 1.427 . S
N3341 C3339 1.384 . S
H3342 C3348 0.930 . S
H3343 C3352 0.930 . S
H3344 C3357 0.929 . S
H3345 C3355 0.929 . S
H3346 C3350 0.929 . S
H3347 C3356 0.929 . S
C3348 H3342 0.930 . S
C3348 C3349 1.367 . S
C3348 C3356 1.378 . S
C3349 C3348 1.367 . S
C3349 C3357 1.433 . S
C3350 H3346 0.929 . S
C3350 C3352 1.378 . S
C3350 C3354 1.350 . S
C3351 C3354 1.463 1_455 S
C3351 C3356 1.350 . S
C3351 N3359 1.427 . S
C3352 H3343 0.930 . S
C3352 C3350 1.378 . S
C3352 C3353 1.367 . S
C3353 C3352 1.367 . S
C3353 C3355 1.433 . S
C3354 C3350 1.350 . S
C3354 C3351 1.463 1_655 S
C3354 N3358 1.427 . S
C3355 H3345 0.929 . S
C3355 C3353 1.433 . S
C3355 N3358 1.384 . S
C3356 H3347 0.929 . S
C3356 C3348 1.378 . S
C3356 C3351 1.350 . S
C3357 H3344 0.929 . S
C3357 C3349 1.433 . S
C3357 N3359 1.384 . S
N3358 C3354 1.427 . S
N3358 C3355 1.384 . S
N3359 C3351 1.427 . S
N3359 C3357 1.384 . S
H3360 C3366 0.930 . S
H3361 C3370 0.930 . S
H3362 C3375 0.929 . S
H3363 C3373 0.929 . S
H3364 C3368 0.929 . S
H3365 C3374 0.929 . S
C3366 H3360 0.930 . S
C3366 C3367 1.367 . S
C3366 C3374 1.378 . S
C3367 C3366 1.367 . S
C3367 C3375 1.433 . S
C3368 H3364 0.929 . S
C3368 C3370 1.378 . S
C3368 C3372 1.350 . S
C3369 C3372 1.463 1_554 S
C3369 C3374 1.350 . S
C3369 N3377 1.427 . S
C3370 H3361 0.930 . S
C3370 C3368 1.378 . S
C3370 C3371 1.367 . S
C3371 C3370 1.367 . S
C3371 C3373 1.433 . S
C3372 C3368 1.350 . S
C3372 C3369 1.463 1_556 S
C3372 N3376 1.427 . S
C3373 H3363 0.929 . S
C3373 C3371 1.433 . S
C3373 N3376 1.384 . S
C3374 H3365 0.929 . S
C3374 C3366 1.378 . S
C3374 C3369 1.350 . S
C3375 H3362 0.929 . S
C3375 C3367 1.433 . S
C3375 N3377 1.384 . S
N3376 C3372 1.427 . S
N3376 C3373 1.384 . S
N3377 C3369 1.427 . S
N3377 C3375 1.384 . S
H3378 C3384 0.930 . S
H3379 C3388 0.930 . S
H3380 C3393 0.929 . S
H3381 C3391 0.929 . S
H3382 C3386 0.929 . S
H3383 C3392 0.929 . S
C3384 H3378 0.930 . S
C3384 C3385 1.367 . S
C3384 C3392 1.378 . S
C3385 C3384 1.367 . S
C3385 C3393 1.433 . S
C3386 H3382 0.929 . S
C3386 C3388 1.378 . S
C3386 C3390 1.350 . S
C3387 C3390 1.463 1_556 S
C3387 C3392 1.350 . S
C3387 N3395 1.427 . S
C3388 H3379 0.930 . S
C3388 C3386 1.378 . S
C3388 C3389 1.367 . S
C3389 C3388 1.367 . S
C3389 C3391 1.433 . S
C3390 C3386 1.350 . S
C3390 C3387 1.463 1_554 S
C3390 N3394 1.427 . S
C3391 H3381 0.929 . S
C3391 C3389 1.433 . S
C3391 N3394 1.384 . S
C3392 H3383 0.929 . S
C3392 C3384 1.378 . S
C3392 C3387 1.350 . S
C3393 H3380 0.929 . S
C3393 C3385 1.433 . S
C3393 N3395 1.384 . S
N3394 C3390 1.427 . S
N3394 C3391 1.384 . S
N3395 C3387 1.427 . S
N3395 C3393 1.384 . S
H3396 C3402 0.930 . S
H3397 C3406 0.930 . S
H3398 C3411 0.929 . S
H3399 C3409 0.929 . S
H3400 C3404 0.929 . S
H3401 C3410 0.929 . S
C3402 H3396 0.930 . S
C3402 C3403 1.367 . S
C3402 C3410 1.378 . S
C3403 C3402 1.367 . S
C3403 C3411 1.433 . S
C3404 H3400 0.929 . S
C3404 C3406 1.378 . S
C3404 C3408 1.350 . S
C3405 C3408 1.463 1_554 S
C3405 C3410 1.350 . S
C3405 N3413 1.427 . S
C3406 H3397 0.930 . S
C3406 C3404 1.378 . S
C3406 C3407 1.367 . S
C3407 C3406 1.367 . S
C3407 C3409 1.433 . S
C3408 C3404 1.350 . S
C3408 C3405 1.463 1_556 S
C3408 N3412 1.427 . S
C3409 H3399 0.929 . S
C3409 C3407 1.433 . S
C3409 N3412 1.384 . S
C3410 H3401 0.929 . S
C3410 C3402 1.378 . S
C3410 C3405 1.350 . S
C3411 H3398 0.929 . S
C3411 C3403 1.433 . S
C3411 N3413 1.384 . S
N3412 C3408 1.427 . S
N3412 C3409 1.384 . S
N3413 C3405 1.427 . S
N3413 C3411 1.384 . S
H3414 C3420 0.930 . S
H3415 C3424 0.930 . S
H3416 C3429 0.929 . S
H3417 C3427 0.929 . S
H3418 C3422 0.929 . S
H3419 C3428 0.929 . S
C3420 H3414 0.930 . S
C3420 C3421 1.367 . S
C3420 C3428 1.378 . S
C3421 C3420 1.367 . S
C3421 C3429 1.433 . S
C3422 H3418 0.929 . S
C3422 C3424 1.378 . S
C3422 C3426 1.350 . S
C3423 C3426 1.463 1_556 S
C3423 C3428 1.350 . S
C3423 N3431 1.427 . S
C3424 H3415 0.930 . S
C3424 C3422 1.378 . S
C3424 C3425 1.367 . S
C3425 C3424 1.367 . S
C3425 C3427 1.433 . S
C3426 C3422 1.350 . S
C3426 C3423 1.463 1_554 S
C3426 N3430 1.427 . S
C3427 H3417 0.929 . S
C3427 C3425 1.433 . S
C3427 N3430 1.384 . S
C3428 H3419 0.929 . S
C3428 C3420 1.378 . S
C3428 C3423 1.350 . S
C3429 H3416 0.929 . S
C3429 C3421 1.433 . S
C3429 N3431 1.384 . S
N3430 C3426 1.427 . S
N3430 C3427 1.384 . S
N3431 C3423 1.427 . S
N3431 C3429 1.384 . S
H3432 C3438 0.930 . S
H3433 C3442 0.930 . S
H3434 C3447 0.929 . S
H3435 C3445 0.929 . S
H3436 C3440 0.929 . S
H3437 C3446 0.929 . S
C3438 H3432 0.930 . S
C3438 C3439 1.367 . S
C3438 C3446 1.378 . S
C3439 C3438 1.367 . S
C3439 C3447 1.433 . S
C3440 H3436 0.929 . S
C3440 C3442 1.378 . S
C3440 C3444 1.350 . S
C3441 C3444 1.463 1_554 S
C3441 C3446 1.350 . S
C3441 N3449 1.427 . S
C3442 H3433 0.930 . S
C3442 C3440 1.378 . S
C3442 C3443 1.367 . S
C3443 C3442 1.367 . S
C3443 C3445 1.433 . S
C3444 C3440 1.350 . S
C3444 C3441 1.463 1_556 S
C3444 N3448 1.427 . S
C3445 H3435 0.929 . S
C3445 C3443 1.433 . S
C3445 N3448 1.384 . S
C3446 H3437 0.929 . S
C3446 C3438 1.378 . S
C3446 C3441 1.350 . S
C3447 H3434 0.929 . S
C3447 C3439 1.433 . S
C3447 N3449 1.384 . S
N3448 C3444 1.427 . S
N3448 C3445 1.384 . S
N3449 C3441 1.427 . S
N3449 C3447 1.384 . S
H3450 C3456 0.930 . S
H3451 C3460 0.930 . S
H3452 C3465 0.929 . S
H3453 C3463 0.929 . S
H3454 C3458 0.929 . S
H3455 C3464 0.929 . S
C3456 H3450 0.930 . S
C3456 C3457 1.367 . S
C3456 C3464 1.378 . S
C3457 C3456 1.367 . S
C3457 C3465 1.433 . S
C3458 H3454 0.929 . S
C3458 C3460 1.378 . S
C3458 C3462 1.350 . S
C3459 C3462 1.463 1_554 S
C3459 C3464 1.350 . S
C3459 N3467 1.427 . S
C3460 H3451 0.930 . S
C3460 C3458 1.378 . S
C3460 C3461 1.367 . S
C3461 C3460 1.367 . S
C3461 C3463 1.433 . S
C3462 C3458 1.350 . S
C3462 C3459 1.463 1_556 S
C3462 N3466 1.427 . S
C3463 H3453 0.929 . S
C3463 C3461 1.433 . S
C3463 N3466 1.384 . S
C3464 H3455 0.929 . S
C3464 C3456 1.378 . S
C3464 C3459 1.350 . S
C3465 H3452 0.929 . S
C3465 C3457 1.433 . S
C3465 N3467 1.384 . S
N3466 C3462 1.427 . S
N3466 C3463 1.384 . S
N3467 C3459 1.427 . S
N3467 C3465 1.384 . S
H3468 C3474 0.930 . S
H3469 C3478 0.930 . S
H3470 C3483 0.929 . S
H3471 C3481 0.929 . S
H3472 C3476 0.929 . S
H3473 C3482 0.929 . S
C3474 H3468 0.930 . S
C3474 C3475 1.367 . S
C3474 C3482 1.378 . S
C3475 C3474 1.367 . S
C3475 C3483 1.433 . S
C3476 H3472 0.929 . S
C3476 C3478 1.378 . S
C3476 C3480 1.350 . S
C3477 C3480 1.463 1_556 S
C3477 C3482 1.350 . S
C3477 N3485 1.427 . S
C3478 H3469 0.930 . S
C3478 C3476 1.378 . S
C3478 C3479 1.367 . S
C3479 C3478 1.367 . S
C3479 C3481 1.433 . S
C3480 C3476 1.350 . S
C3480 C3477 1.463 1_554 S
C3480 N3484 1.427 . S
C3481 H3471 0.929 . S
C3481 C3479 1.433 . S
C3481 N3484 1.384 . S
C3482 H3473 0.929 . S
C3482 C3474 1.378 . S
C3482 C3477 1.350 . S
C3483 H3470 0.929 . S
C3483 C3475 1.433 . S
C3483 N3485 1.384 . S
N3484 C3480 1.427 . S
N3484 C3481 1.384 . S
N3485 C3477 1.427 . S
N3485 C3483 1.384 . S
H3486 C3492 0.930 . S
H3487 C3496 0.930 . S
H3488 C3501 0.929 . S
H3489 C3499 0.929 . S
H3490 C3494 0.929 . S
H3491 C3500 0.929 . S
C3492 H3486 0.930 . S
C3492 C3493 1.367 . S
C3492 C3500 1.378 . S
C3493 C3492 1.367 . S
C3493 C3501 1.433 . S
C3494 H3490 0.929 . S
C3494 C3496 1.378 . S
C3494 C3498 1.350 . S
C3495 C3498 1.463 1_556 S
C3495 C3500 1.350 . S
C3495 N3503 1.427 . S
C3496 H3487 0.930 . S
C3496 C3494 1.378 . S
C3496 C3497 1.367 . S
C3497 C3496 1.367 . S
C3497 C3499 1.433 . S
C3498 C3494 1.350 . S
C3498 C3495 1.463 1_554 S
C3498 N3502 1.427 . S
C3499 H3489 0.929 . S
C3499 C3497 1.433 . S
C3499 N3502 1.384 . S
C3500 H3491 0.929 . S
C3500 C3492 1.378 . S
C3500 C3495 1.350 . S
C3501 H3488 0.929 . S
C3501 C3493 1.433 . S
C3501 N3503 1.384 . S
N3502 C3498 1.427 . S
N3502 C3499 1.384 . S
N3503 C3495 1.427 . S
N3503 C3501 1.384 . S
H3504 C3510 0.930 . S
H3505 C3514 0.930 . S
H3506 C3519 0.929 . S
H3507 C3517 0.929 . S
H3508 C3512 0.929 . S
H3509 C3518 0.929 . S
C3510 H3504 0.930 . S
C3510 C3511 1.367 . S
C3510 C3518 1.378 . S
C3511 C3510 1.367 . S
C3511 C3519 1.433 . S
C3512 H3508 0.929 . S
C3512 C3514 1.378 . S
C3512 C3516 1.350 . S
C3513 C3516 1.463 . S
C3513 C3518 1.350 . S
C3513 N3521 1.427 . S
C3514 H3505 0.930 . S
C3514 C3512 1.378 . S
C3514 C3515 1.367 . S
C3515 C3514 1.367 . S
C3515 C3517 1.433 . S
C3516 C3512 1.350 . S
C3516 C3513 1.463 . S
C3516 N3520 1.427 . S
C3517 H3507 0.929 . S
C3517 C3515 1.433 . S
C3517 N3520 1.384 . S
C3518 H3509 0.929 . S
C3518 C3510 1.378 . S
C3518 C3513 1.350 . S
C3519 H3506 0.929 . S
C3519 C3511 1.433 . S
C3519 N3521 1.384 . S
N3520 C3516 1.427 . S
N3520 C3517 1.384 . S
N3521 C3513 1.427 . S
N3521 C3519 1.384 . S
H3522 C3528 0.930 . S
H3523 C3532 0.930 . S
H3524 C3537 0.929 . S
H3525 C3535 0.929 . S
H3526 C3530 0.929 . S
H3527 C3536 0.929 . S
C3528 H3522 0.930 . S
C3528 C3529 1.367 . S
C3528 C3536 1.378 . S
C3529 C3528 1.367 . S
C3529 C3537 1.433 . S
C3530 H3526 0.929 . S
C3530 C3532 1.378 . S
C3530 C3534 1.350 . S
C3531 C3534 1.463 . S
C3531 C3536 1.350 . S
C3531 N3539 1.427 . S
C3532 H3523 0.930 . S
C3532 C3530 1.378 . S
C3532 C3533 1.367 . S
C3533 C3532 1.367 . S
C3533 C3535 1.433 . S
C3534 C3530 1.350 . S
C3534 C3531 1.463 . S
C3534 N3538 1.427 . S
C3535 H3525 0.929 . S
C3535 C3533 1.433 . S
C3535 N3538 1.384 . S
C3536 H3527 0.929 . S
C3536 C3528 1.378 . S
C3536 C3531 1.350 . S
C3537 H3524 0.929 . S
C3537 C3529 1.433 . S
C3537 N3539 1.384 . S
N3538 C3534 1.427 . S
N3538 C3535 1.384 . S
N3539 C3531 1.427 . S
N3539 C3537 1.384 . S
H3540 C3546 0.930 . S
H3541 C3550 0.930 . S
H3542 C3555 0.929 . S
H3543 C3553 0.929 . S
H3544 C3548 0.929 . S
H3545 C3554 0.929 . S
C3546 H3540 0.930 . S
C3546 C3547 1.367 . S
C3546 C3554 1.378 . S
C3547 C3546 1.367 . S
C3547 C3555 1.433 . S
C3548 H3544 0.929 . S
C3548 C3550 1.378 . S
C3548 C3552 1.350 . S
C3549 C3552 1.463 . S
C3549 C3554 1.350 . S
C3549 N3557 1.427 . S
C3550 H3541 0.930 . S
C3550 C3548 1.378 . S
C3550 C3551 1.367 . S
C3551 C3550 1.367 . S
C3551 C3553 1.433 . S
C3552 C3548 1.350 . S
C3552 C3549 1.463 . S
C3552 N3556 1.427 . S
C3553 H3543 0.929 . S
C3553 C3551 1.433 . S
C3553 N3556 1.384 . S
C3554 H3545 0.929 . S
C3554 C3546 1.378 . S
C3554 C3549 1.350 . S
C3555 H3542 0.929 . S
C3555 C3547 1.433 . S
C3555 N3557 1.384 . S
N3556 C3552 1.427 . S
N3556 C3553 1.384 . S
N3557 C3549 1.427 . S
N3557 C3555 1.384 . S
H3558 C3564 0.930 . S
H3559 C3568 0.930 . S
H3560 C3573 0.929 . S
H3561 C3571 0.929 . S
H3562 C3566 0.929 . S
H3563 C3572 0.929 . S
C3564 H3558 0.930 . S
C3564 C3565 1.367 . S
C3564 C3572 1.378 . S
C3565 C3564 1.367 . S
C3565 C3573 1.433 . S
C3566 H3562 0.929 . S
C3566 C3568 1.378 . S
C3566 C3570 1.350 . S
C3567 C3570 1.463 . S
C3567 C3572 1.350 . S
C3567 N3575 1.427 . S
C3568 H3559 0.930 . S
C3568 C3566 1.378 . S
C3568 C3569 1.367 . S
C3569 C3568 1.367 . S
C3569 C3571 1.433 . S
C3570 C3566 1.350 . S
C3570 C3567 1.463 . S
C3570 N3574 1.427 . S
C3571 H3561 0.929 . S
C3571 C3569 1.433 . S
C3571 N3574 1.384 . S
C3572 H3563 0.929 . S
C3572 C3564 1.378 . S
C3572 C3567 1.350 . S
C3573 H3560 0.929 . S
C3573 C3565 1.433 . S
C3573 N3575 1.384 . S
N3574 C3570 1.427 . S
N3574 C3571 1.384 . S
N3575 C3567 1.427 . S
N3575 C3573 1.384 . S
H3576 C3582 0.930 . S
H3577 C3586 0.930 . S
H3578 C3591 0.929 . S
H3579 C3589 0.929 . S
H3580 C3584 0.929 . S
H3581 C3590 0.929 . S
C3582 H3576 0.930 . S
C3582 C3583 1.367 . S
C3582 C3590 1.378 . S
C3583 C3582 1.367 . S
C3583 C3591 1.433 . S
C3584 H3580 0.929 . S
C3584 C3586 1.378 . S
C3584 C3588 1.350 . S
C3585 C3588 1.463 . S
C3585 C3590 1.350 . S
C3585 N3593 1.427 . S
C3586 H3577 0.930 . S
C3586 C3584 1.378 . S
C3586 C3587 1.367 . S
C3587 C3586 1.367 . S
C3587 C3589 1.433 . S
C3588 C3584 1.350 . S
C3588 C3585 1.463 . S
C3588 N3592 1.427 . S
C3589 H3579 0.929 . S
C3589 C3587 1.433 . S
C3589 N3592 1.384 . S
C3590 H3581 0.929 . S
C3590 C3582 1.378 . S
C3590 C3585 1.350 . S
C3591 H3578 0.929 . S
C3591 C3583 1.433 . S
C3591 N3593 1.384 . S
N3592 C3588 1.427 . S
N3592 C3589 1.384 . S
N3593 C3585 1.427 . S
N3593 C3591 1.384 . S
H3594 C3600 0.930 . S
H3595 C3604 0.930 . S
H3596 C3609 0.929 . S
H3597 C3607 0.929 . S
H3598 C3602 0.929 . S
H3599 C3608 0.929 . S
C3600 H3594 0.930 . S
C3600 C3601 1.367 . S
C3600 C3608 1.378 . S
C3601 C3600 1.367 . S
C3601 C3609 1.433 . S
C3602 H3598 0.929 . S
C3602 C3604 1.378 . S
C3602 C3606 1.350 . S
C3603 C3606 1.463 . S
C3603 C3608 1.350 . S
C3603 N3611 1.427 . S
C3604 H3595 0.930 . S
C3604 C3602 1.378 . S
C3604 C3605 1.367 . S
C3605 C3604 1.367 . S
C3605 C3607 1.433 . S
C3606 C3602 1.350 . S
C3606 C3603 1.463 . S
C3606 N3610 1.427 . S
C3607 H3597 0.929 . S
C3607 C3605 1.433 . S
C3607 N3610 1.384 . S
C3608 H3599 0.929 . S
C3608 C3600 1.378 . S
C3608 C3603 1.350 . S
C3609 H3596 0.929 . S
C3609 C3601 1.433 . S
C3609 N3611 1.384 . S
N3610 C3606 1.427 . S
N3610 C3607 1.384 . S
N3611 C3603 1.427 . S
N3611 C3609 1.384 . S
H3612 C3618 0.930 . S
H3613 C3622 0.930 . S
H3614 C3627 0.929 . S
H3615 C3625 0.929 . S
H3616 C3620 0.929 . S
H3617 C3626 0.929 . S
C3618 H3612 0.930 . S
C3618 C3619 1.367 . S
C3618 C3626 1.378 . S
C3619 C3618 1.367 . S
C3619 C3627 1.433 . S
C3620 H3616 0.929 . S
C3620 C3622 1.378 . S
C3620 C3624 1.350 . S
C3621 C3624 1.463 . S
C3621 C3626 1.350 . S
C3621 N3629 1.427 . S
C3622 H3613 0.930 . S
C3622 C3620 1.378 . S
C3622 C3623 1.367 . S
C3623 C3622 1.367 . S
C3623 C3625 1.433 . S
C3624 C3620 1.350 . S
C3624 C3621 1.463 . S
C3624 N3628 1.427 . S
C3625 H3615 0.929 . S
C3625 C3623 1.433 . S
C3625 N3628 1.384 . S
C3626 H3617 0.929 . S
C3626 C3618 1.378 . S
C3626 C3621 1.350 . S
C3627 H3614 0.929 . S
C3627 C3619 1.433 . S
C3627 N3629 1.384 . S
N3628 C3624 1.427 . S
N3628 C3625 1.384 . S
N3629 C3621 1.427 . S
N3629 C3627 1.384 . S
H3630 C3636 0.930 . S
H3631 C3640 0.930 . S
H3632 C3645 0.929 . S
H3633 C3643 0.929 . S
H3634 C3638 0.929 . S
H3635 C3644 0.929 . S
C3636 H3630 0.930 . S
C3636 C3637 1.367 . S
C3636 C3644 1.378 . S
C3637 C3636 1.367 . S
C3637 C3645 1.433 . S
C3638 H3634 0.929 . S
C3638 C3640 1.378 . S
C3638 C3642 1.350 . S
C3639 C3642 1.463 . S
C3639 C3644 1.350 . S
C3639 N3647 1.427 . S
C3640 H3631 0.930 . S
C3640 C3638 1.378 . S
C3640 C3641 1.367 . S
C3641 C3640 1.367 . S
C3641 C3643 1.433 . S
C3642 C3638 1.350 . S
C3642 C3639 1.463 . S
C3642 N3646 1.427 . S
C3643 H3633 0.929 . S
C3643 C3641 1.433 . S
C3643 N3646 1.384 . S
C3644 H3635 0.929 . S
C3644 C3636 1.378 . S
C3644 C3639 1.350 . S
C3645 H3632 0.929 . S
C3645 C3637 1.433 . S
C3645 N3647 1.384 . S
N3646 C3642 1.427 . S
N3646 C3643 1.384 . S
N3647 C3639 1.427 . S
N3647 C3645 1.384 . S
H3648 C3654 0.930 . S
H3649 C3658 0.930 . S
H3650 C3663 0.929 . S
H3651 C3661 0.929 . S
H3652 C3656 0.929 . S
H3653 C3662 0.929 . S
C3654 H3648 0.930 . S
C3654 C3655 1.367 . S
C3654 C3662 1.378 . S
C3655 C3654 1.367 . S
C3655 C3663 1.433 . S
C3656 H3652 0.929 . S
C3656 C3658 1.378 . S
C3656 C3660 1.350 . S
C3657 C3660 1.463 . S
C3657 C3662 1.350 . S
C3657 N3665 1.427 . S
C3658 H3649 0.930 . S
C3658 C3656 1.378 . S
C3658 C3659 1.367 . S
C3659 C3658 1.367 . S
C3659 C3661 1.433 . S
C3660 C3656 1.350 . S
C3660 C3657 1.463 . S
C3660 N3664 1.427 . S
C3661 H3651 0.929 . S
C3661 C3659 1.433 . S
C3661 N3664 1.384 . S
C3662 H3653 0.929 . S
C3662 C3654 1.378 . S
C3662 C3657 1.350 . S
C3663 H3650 0.929 . S
C3663 C3655 1.433 . S
C3663 N3665 1.384 . S
N3664 C3660 1.427 . S
N3664 C3661 1.384 . S
N3665 C3657 1.427 . S
N3665 C3663 1.384 . S
H3666 C3672 0.930 . S
H3667 C3676 0.930 . S
H3668 C3681 0.929 . S
H3669 C3679 0.929 . S
H3670 C3674 0.929 . S
H3671 C3680 0.929 . S
C3672 H3666 0.930 . S
C3672 C3673 1.367 . S
C3672 C3680 1.378 . S
C3673 C3672 1.367 . S
C3673 C3681 1.433 . S
C3674 H3670 0.929 . S
C3674 C3676 1.378 . S
C3674 C3678 1.350 . S
C3675 C3678 1.463 . S
C3675 C3680 1.350 . S
C3675 N3683 1.427 . S
C3676 H3667 0.930 . S
C3676 C3674 1.378 . S
C3676 C3677 1.367 . S
C3677 C3676 1.367 . S
C3677 C3679 1.433 . S
C3678 C3674 1.350 . S
C3678 C3675 1.463 . S
C3678 N3682 1.427 . S
C3679 H3669 0.929 . S
C3679 C3677 1.433 . S
C3679 N3682 1.384 . S
C3680 H3671 0.929 . S
C3680 C3672 1.378 . S
C3680 C3675 1.350 . S
C3681 H3668 0.929 . S
C3681 C3673 1.433 . S
C3681 N3683 1.384 . S
N3682 C3678 1.427 . S
N3682 C3679 1.384 . S
N3683 C3675 1.427 . S
N3683 C3681 1.384 . S
H3684 C3690 0.930 . S
H3685 C3694 0.930 . S
H3686 C3699 0.929 . S
H3687 C3697 0.929 . S
H3688 C3692 0.929 . S
H3689 C3698 0.929 . S
C3690 H3684 0.930 . S
C3690 C3691 1.367 . S
C3690 C3698 1.378 . S
C3691 C3690 1.367 . S
C3691 C3699 1.433 . S
C3692 H3688 0.929 . S
C3692 C3694 1.378 . S
C3692 C3696 1.350 . S
C3693 C3696 1.463 . S
C3693 C3698 1.350 . S
C3693 N3701 1.427 . S
C3694 H3685 0.930 . S
C3694 C3692 1.378 . S
C3694 C3695 1.367 . S
C3695 C3694 1.367 . S
C3695 C3697 1.433 . S
C3696 C3692 1.350 . S
C3696 C3693 1.463 . S
C3696 N3700 1.427 . S
C3697 H3687 0.929 . S
C3697 C3695 1.433 . S
C3697 N3700 1.384 . S
C3698 H3689 0.929 . S
C3698 C3690 1.378 . S
C3698 C3693 1.350 . S
C3699 H3686 0.929 . S
C3699 C3691 1.433 . S
C3699 N3701 1.384 . S
N3700 C3696 1.427 . S
N3700 C3697 1.384 . S
N3701 C3693 1.427 . S
N3701 C3699 1.384 . S
H3702 C3708 0.930 . S
H3703 C3712 0.930 . S
H3704 C3717 0.929 . S
H3705 C3715 0.929 . S
H3706 C3710 0.929 . S
H3707 C3716 0.929 . S
C3708 H3702 0.930 . S
C3708 C3709 1.367 . S
C3708 C3716 1.378 . S
C3709 C3708 1.367 . S
C3709 C3717 1.433 . S
C3710 H3706 0.929 . S
C3710 C3712 1.378 . S
C3710 C3714 1.350 . S
C3711 C3714 1.463 . S
C3711 C3716 1.350 . S
C3711 N3719 1.427 . S
C3712 H3703 0.930 . S
C3712 C3710 1.378 . S
C3712 C3713 1.367 . S
C3713 C3712 1.367 . S
C3713 C3715 1.433 . S
C3714 C3710 1.350 . S
C3714 C3711 1.463 . S
C3714 N3718 1.427 . S
C3715 H3705 0.929 . S
C3715 C3713 1.433 . S
C3715 N3718 1.384 . S
C3716 H3707 0.929 . S
C3716 C3708 1.378 . S
C3716 C3711 1.350 . S
C3717 H3704 0.929 . S
C3717 C3709 1.433 . S
C3717 N3719 1.384 . S
N3718 C3714 1.427 . S
N3718 C3715 1.384 . S
N3719 C3711 1.427 . S
N3719 C3717 1.384 . S
H3720 C3726 0.930 . S
H3721 C3730 0.930 . S
H3722 C3735 0.929 . S
H3723 C3733 0.929 . S
H3724 C3728 0.929 . S
H3725 C3734 0.929 . S
C3726 H3720 0.930 . S
C3726 C3727 1.367 . S
C3726 C3734 1.378 . S
C3727 C3726 1.367 . S
C3727 C3735 1.433 . S
C3728 H3724 0.929 . S
C3728 C3730 1.378 . S
C3728 C3732 1.350 . S
C3729 C3732 1.463 . S
C3729 C3734 1.350 . S
C3729 N3737 1.427 . S
C3730 H3721 0.930 . S
C3730 C3728 1.378 . S
C3730 C3731 1.367 . S
C3731 C3730 1.367 . S
C3731 C3733 1.433 . S
C3732 C3728 1.350 . S
C3732 C3729 1.463 . S
C3732 N3736 1.427 . S
C3733 H3723 0.929 . S
C3733 C3731 1.433 . S
C3733 N3736 1.384 . S
C3734 H3725 0.929 . S
C3734 C3726 1.378 . S
C3734 C3729 1.350 . S
C3735 H3722 0.929 . S
C3735 C3727 1.433 . S
C3735 N3737 1.384 . S
N3736 C3732 1.427 . S
N3736 C3733 1.384 . S
N3737 C3729 1.427 . S
N3737 C3735 1.384 . S
H3738 C3744 0.930 . S
H3739 C3748 0.930 . S
H3740 C3753 0.929 . S
H3741 C3751 0.929 . S
H3742 C3746 0.929 . S
H3743 C3752 0.929 . S
C3744 H3738 0.930 . S
C3744 C3745 1.367 . S
C3744 C3752 1.378 . S
C3745 C3744 1.367 . S
C3745 C3753 1.433 . S
C3746 H3742 0.929 . S
C3746 C3748 1.378 . S
C3746 C3750 1.350 . S
C3747 C3750 1.463 . S
C3747 C3752 1.350 . S
C3747 N3755 1.427 . S
C3748 H3739 0.930 . S
C3748 C3746 1.378 . S
C3748 C3749 1.367 . S
C3749 C3748 1.367 . S
C3749 C3751 1.433 . S
C3750 C3746 1.350 . S
C3750 C3747 1.463 . S
C3750 N3754 1.427 . S
C3751 H3741 0.929 . S
C3751 C3749 1.433 . S
C3751 N3754 1.384 . S
C3752 H3743 0.929 . S
C3752 C3744 1.378 . S
C3752 C3747 1.350 . S
C3753 H3740 0.929 . S
C3753 C3745 1.433 . S
C3753 N3755 1.384 . S
N3754 C3750 1.427 . S
N3754 C3751 1.384 . S
N3755 C3747 1.427 . S
N3755 C3753 1.384 . S
H3756 C3762 0.930 . S
H3757 C3766 0.930 . S
H3758 C3771 0.929 . S
H3759 C3769 0.929 . S
H3760 C3764 0.929 . S
H3761 C3770 0.929 . S
C3762 H3756 0.930 . S
C3762 C3763 1.367 . S
C3762 C3770 1.378 . S
C3763 C3762 1.367 . S
C3763 C3771 1.433 . S
C3764 H3760 0.929 . S
C3764 C3766 1.378 . S
C3764 C3768 1.350 . S
C3765 C3768 1.463 . S
C3765 C3770 1.350 . S
C3765 N3773 1.427 . S
C3766 H3757 0.930 . S
C3766 C3764 1.378 . S
C3766 C3767 1.367 . S
C3767 C3766 1.367 . S
C3767 C3769 1.433 . S
C3768 C3764 1.350 . S
C3768 C3765 1.463 . S
C3768 N3772 1.427 . S
C3769 H3759 0.929 . S
C3769 C3767 1.433 . S
C3769 N3772 1.384 . S
C3770 H3761 0.929 . S
C3770 C3762 1.378 . S
C3770 C3765 1.350 . S
C3771 H3758 0.929 . S
C3771 C3763 1.433 . S
C3771 N3773 1.384 . S
N3772 C3768 1.427 . S
N3772 C3769 1.384 . S
N3773 C3765 1.427 . S
N3773 C3771 1.384 . S
H3774 C3780 0.930 . S
H3775 C3784 0.930 . S
H3776 C3789 0.929 . S
H3777 C3787 0.929 . S
H3778 C3782 0.929 . S
H3779 C3788 0.929 . S
C3780 H3774 0.930 . S
C3780 C3781 1.367 . S
C3780 C3788 1.378 . S
C3781 C3780 1.367 . S
C3781 C3789 1.433 . S
C3782 H3778 0.929 . S
C3782 C3784 1.378 . S
C3782 C3786 1.350 . S
C3783 C3786 1.463 . S
C3783 C3788 1.350 . S
C3783 N3791 1.427 . S
C3784 H3775 0.930 . S
C3784 C3782 1.378 . S
C3784 C3785 1.367 . S
C3785 C3784 1.367 . S
C3785 C3787 1.433 . S
C3786 C3782 1.350 . S
C3786 C3783 1.463 . S
C3786 N3790 1.427 . S
C3787 H3777 0.929 . S
C3787 C3785 1.433 . S
C3787 N3790 1.384 . S
C3788 H3779 0.929 . S
C3788 C3780 1.378 . S
C3788 C3783 1.350 . S
C3789 H3776 0.929 . S
C3789 C3781 1.433 . S
C3789 N3791 1.384 . S
N3790 C3786 1.427 . S
N3790 C3787 1.384 . S
N3791 C3783 1.427 . S
N3791 C3789 1.384 . S
H3792 C3798 0.930 . S
H3793 C3802 0.930 . S
H3794 C3807 0.929 . S
H3795 C3805 0.929 . S
H3796 C3800 0.929 . S
H3797 C3806 0.929 . S
C3798 H3792 0.930 . S
C3798 C3799 1.367 . S
C3798 C3806 1.378 . S
C3799 C3798 1.367 . S
C3799 C3807 1.433 . S
C3800 H3796 0.929 . S
C3800 C3802 1.378 . S
C3800 C3804 1.350 . S
C3801 C3804 1.463 . S
C3801 C3806 1.350 . S
C3801 N3809 1.427 . S
C3802 H3793 0.930 . S
C3802 C3800 1.378 . S
C3802 C3803 1.367 . S
C3803 C3802 1.367 . S
C3803 C3805 1.433 . S
C3804 C3800 1.350 . S
C3804 C3801 1.463 . S
C3804 N3808 1.427 . S
C3805 H3795 0.929 . S
C3805 C3803 1.433 . S
C3805 N3808 1.384 . S
C3806 H3797 0.929 . S
C3806 C3798 1.378 . S
C3806 C3801 1.350 . S
C3807 H3794 0.929 . S
C3807 C3799 1.433 . S
C3807 N3809 1.384 . S
N3808 C3804 1.427 . S
N3808 C3805 1.384 . S
N3809 C3801 1.427 . S
N3809 C3807 1.384 . S
H3810 C3816 0.930 . S
H3811 C3820 0.930 . S
H3812 C3825 0.929 . S
H3813 C3823 0.929 . S
H3814 C3818 0.929 . S
H3815 C3824 0.929 . S
C3816 H3810 0.930 . S
C3816 C3817 1.367 . S
C3816 C3824 1.378 . S
C3817 C3816 1.367 . S
C3817 C3825 1.433 . S
C3818 H3814 0.929 . S
C3818 C3820 1.378 . S
C3818 C3822 1.350 . S
C3819 C3822 1.463 . S
C3819 C3824 1.350 . S
C3819 N3827 1.427 . S
C3820 H3811 0.930 . S
C3820 C3818 1.378 . S
C3820 C3821 1.367 . S
C3821 C3820 1.367 . S
C3821 C3823 1.433 . S
C3822 C3818 1.350 . S
C3822 C3819 1.463 . S
C3822 N3826 1.427 . S
C3823 H3813 0.929 . S
C3823 C3821 1.433 . S
C3823 N3826 1.384 . S
C3824 H3815 0.929 . S
C3824 C3816 1.378 . S
C3824 C3819 1.350 . S
C3825 H3812 0.929 . S
C3825 C3817 1.433 . S
C3825 N3827 1.384 . S
N3826 C3822 1.427 . S
N3826 C3823 1.384 . S
N3827 C3819 1.427 . S
N3827 C3825 1.384 . S
H3828 C3834 0.930 . S
H3829 C3838 0.930 . S
H3830 C3843 0.929 . S
H3831 C3841 0.929 . S
H3832 C3836 0.929 . S
H3833 C3842 0.929 . S
C3834 H3828 0.930 . S
C3834 C3835 1.367 . S
C3834 C3842 1.378 . S
C3835 C3834 1.367 . S
C3835 C3843 1.433 . S
C3836 H3832 0.929 . S
C3836 C3838 1.378 . S
C3836 C3840 1.350 . S
C3837 C3840 1.463 . S
C3837 C3842 1.350 . S
C3837 N3845 1.427 . S
C3838 H3829 0.930 . S
C3838 C3836 1.378 . S
C3838 C3839 1.367 . S
C3839 C3838 1.367 . S
C3839 C3841 1.433 . S
C3840 C3836 1.350 . S
C3840 C3837 1.463 . S
C3840 N3844 1.427 . S
C3841 H3831 0.929 . S
C3841 C3839 1.433 . S
C3841 N3844 1.384 . S
C3842 H3833 0.929 . S
C3842 C3834 1.378 . S
C3842 C3837 1.350 . S
C3843 H3830 0.929 . S
C3843 C3835 1.433 . S
C3843 N3845 1.384 . S
N3844 C3840 1.427 . S
N3844 C3841 1.384 . S
N3845 C3837 1.427 . S
N3845 C3843 1.384 . S
H3846 C3852 0.930 . S
H3847 C3856 0.930 . S
H3848 C3861 0.929 . S
H3849 C3859 0.929 . S
H3850 C3854 0.929 . S
H3851 C3860 0.929 . S
C3852 H3846 0.930 . S
C3852 C3853 1.367 . S
C3852 C3860 1.378 . S
C3853 C3852 1.367 . S
C3853 C3861 1.433 . S
C3854 H3850 0.929 . S
C3854 C3856 1.378 . S
C3854 C3858 1.350 . S
C3855 C3858 1.463 . S
C3855 C3860 1.350 . S
C3855 N3863 1.427 . S
C3856 H3847 0.930 . S
C3856 C3854 1.378 . S
C3856 C3857 1.367 . S
C3857 C3856 1.367 . S
C3857 C3859 1.433 . S
C3858 C3854 1.350 . S
C3858 C3855 1.463 . S
C3858 N3862 1.427 . S
C3859 H3849 0.929 . S
C3859 C3857 1.433 . S
C3859 N3862 1.384 . S
C3860 H3851 0.929 . S
C3860 C3852 1.378 . S
C3860 C3855 1.350 . S
C3861 H3848 0.929 . S
C3861 C3853 1.433 . S
C3861 N3863 1.384 . S
N3862 C3858 1.427 . S
N3862 C3859 1.384 . S
N3863 C3855 1.427 . S
N3863 C3861 1.384 . S
H3864 C3870 0.930 . S
H3865 C3874 0.930 . S
H3866 C3879 0.929 . S
H3867 C3877 0.929 . S
H3868 C3872 0.929 . S
H3869 C3878 0.929 . S
C3870 H3864 0.930 . S
C3870 C3871 1.367 . S
C3870 C3878 1.378 . S
C3871 C3870 1.367 . S
C3871 C3879 1.433 . S
C3872 H3868 0.929 . S
C3872 C3874 1.378 . S
C3872 C3876 1.350 . S
C3873 C3876 1.463 . S
C3873 C3878 1.350 . S
C3873 N3881 1.427 . S
C3874 H3865 0.930 . S
C3874 C3872 1.378 . S
C3874 C3875 1.367 . S
C3875 C3874 1.367 . S
C3875 C3877 1.433 . S
C3876 C3872 1.350 . S
C3876 C3873 1.463 . S
C3876 N3880 1.427 . S
C3877 H3867 0.929 . S
C3877 C3875 1.433 . S
C3877 N3880 1.384 . S
C3878 H3869 0.929 . S
C3878 C3870 1.378 . S
C3878 C3873 1.350 . S
C3879 H3866 0.929 . S
C3879 C3871 1.433 . S
C3879 N3881 1.384 . S
N3880 C3876 1.427 . S
N3880 C3877 1.384 . S
N3881 C3873 1.427 . S
N3881 C3879 1.384 . S
H3882 C3888 0.930 . S
H3883 C3892 0.930 . S
H3884 C3897 0.929 . S
H3885 C3895 0.929 . S
H3886 C3890 0.929 . S
H3887 C3896 0.929 . S
C3888 H3882 0.930 . S
C3888 C3889 1.367 . S
C3888 C3896 1.378 . S
C3889 C3888 1.367 . S
C3889 C3897 1.433 . S
C3890 H3886 0.929 . S
C3890 C3892 1.378 . S
C3890 C3894 1.350 . S
C3891 C3894 1.463 . S
C3891 C3896 1.350 . S
C3891 N3899 1.427 . S
C3892 H3883 0.930 . S
C3892 C3890 1.378 . S
C3892 C3893 1.367 . S
C3893 C3892 1.367 . S
C3893 C3895 1.433 . S
C3894 C3890 1.350 . S
C3894 C3891 1.463 . S
C3894 N3898 1.427 . S
C3895 H3885 0.929 . S
C3895 C3893 1.433 . S
C3895 N3898 1.384 . S
C3896 H3887 0.929 . S
C3896 C3888 1.378 . S
C3896 C3891 1.350 . S
C3897 H3884 0.929 . S
C3897 C3889 1.433 . S
C3897 N3899 1.384 . S
N3898 C3894 1.427 . S
N3898 C3895 1.384 . S
N3899 C3891 1.427 . S
N3899 C3897 1.384 . S
H3900 C3906 0.930 . S
H3901 C3910 0.930 . S
H3902 C3915 0.929 . S
H3903 C3913 0.929 . S
H3904 C3908 0.929 . S
H3905 C3914 0.929 . S
C3906 H3900 0.930 . S
C3906 C3907 1.367 . S
C3906 C3914 1.378 . S
C3907 C3906 1.367 . S
C3907 C3915 1.433 . S
C3908 H3904 0.929 . S
C3908 C3910 1.378 . S
C3908 C3912 1.350 . S
C3909 C3912 1.463 . S
C3909 C3914 1.350 . S
C3909 N3917 1.427 . S
C3910 H3901 0.930 . S
C3910 C3908 1.378 . S
C3910 C3911 1.367 . S
C3911 C3910 1.367 . S
C3911 C3913 1.433 . S
C3912 C3908 1.350 . S
C3912 C3909 1.463 . S
C3912 N3916 1.427 . S
C3913 H3903 0.929 . S
C3913 C3911 1.433 . S
C3913 N3916 1.384 . S
C3914 H3905 0.929 . S
C3914 C3906 1.378 . S
C3914 C3909 1.350 . S
C3915 H3902 0.929 . S
C3915 C3907 1.433 . S
C3915 N3917 1.384 . S
N3916 C3912 1.427 . S
N3916 C3913 1.384 . S
N3917 C3909 1.427 . S
N3917 C3915 1.384 . S
H3918 C3924 0.930 . S
H3919 C3928 0.930 . S
H3920 C3933 0.929 . S
H3921 C3931 0.929 . S
H3922 C3926 0.929 . S
H3923 C3932 0.929 . S
C3924 H3918 0.930 . S
C3924 C3925 1.367 . S
C3924 C3932 1.378 . S
C3925 C3924 1.367 . S
C3925 C3933 1.433 . S
C3926 H3922 0.929 . S
C3926 C3928 1.378 . S
C3926 C3930 1.350 . S
C3927 C3930 1.463 . S
C3927 C3932 1.350 . S
C3927 N3935 1.427 . S
C3928 H3919 0.930 . S
C3928 C3926 1.378 . S
C3928 C3929 1.367 . S
C3929 C3928 1.367 . S
C3929 C3931 1.433 . S
C3930 C3926 1.350 . S
C3930 C3927 1.463 . S
C3930 N3934 1.427 . S
C3931 H3921 0.929 . S
C3931 C3929 1.433 . S
C3931 N3934 1.384 . S
C3932 H3923 0.929 . S
C3932 C3924 1.378 . S
C3932 C3927 1.350 . S
C3933 H3920 0.929 . S
C3933 C3925 1.433 . S
C3933 N3935 1.384 . S
N3934 C3930 1.427 . S
N3934 C3931 1.384 . S
N3935 C3927 1.427 . S
N3935 C3933 1.384 . S
H3936 C3942 0.930 . S
H3937 C3946 0.930 . S
H3938 C3951 0.929 . S
H3939 C3949 0.929 . S
H3940 C3944 0.929 . S
H3941 C3950 0.929 . S
C3942 H3936 0.930 . S
C3942 C3943 1.367 . S
C3942 C3950 1.378 . S
C3943 C3942 1.367 . S
C3943 C3951 1.433 . S
C3944 H3940 0.929 . S
C3944 C3946 1.378 . S
C3944 C3948 1.350 . S
C3945 C3948 1.463 . S
C3945 C3950 1.350 . S
C3945 N3953 1.427 . S
C3946 H3937 0.930 . S
C3946 C3944 1.378 . S
C3946 C3947 1.367 . S
C3947 C3946 1.367 . S
C3947 C3949 1.433 . S
C3948 C3944 1.350 . S
C3948 C3945 1.463 . S
C3948 N3952 1.427 . S
C3949 H3939 0.929 . S
C3949 C3947 1.433 . S
C3949 N3952 1.384 . S
C3950 H3941 0.929 . S
C3950 C3942 1.378 . S
C3950 C3945 1.350 . S
C3951 H3938 0.929 . S
C3951 C3943 1.433 . S
C3951 N3953 1.384 . S
N3952 C3948 1.427 . S
N3952 C3949 1.384 . S
N3953 C3945 1.427 . S
N3953 C3951 1.384 . S
H3954 C3960 0.930 . S
H3955 C3964 0.930 . S
H3956 C3969 0.929 . S
H3957 C3967 0.929 . S
H3958 C3962 0.929 . S
H3959 C3968 0.929 . S
C3960 H3954 0.930 . S
C3960 C3961 1.367 . S
C3960 C3968 1.378 . S
C3961 C3960 1.367 . S
C3961 C3969 1.433 . S
C3962 H3958 0.929 . S
C3962 C3964 1.378 . S
C3962 C3966 1.350 . S
C3963 C3966 1.463 . S
C3963 C3968 1.350 . S
C3963 N3971 1.427 . S
C3964 H3955 0.930 . S
C3964 C3962 1.378 . S
C3964 C3965 1.367 . S
C3965 C3964 1.367 . S
C3965 C3967 1.433 . S
C3966 C3962 1.350 . S
C3966 C3963 1.463 . S
C3966 N3970 1.427 . S
C3967 H3957 0.929 . S
C3967 C3965 1.433 . S
C3967 N3970 1.384 . S
C3968 H3959 0.929 . S
C3968 C3960 1.378 . S
C3968 C3963 1.350 . S
C3969 H3956 0.929 . S
C3969 C3961 1.433 . S
C3969 N3971 1.384 . S
N3970 C3966 1.427 . S
N3970 C3967 1.384 . S
N3971 C3963 1.427 . S
N3971 C3969 1.384 . S
H3972 C3978 0.930 . S
H3973 C3982 0.930 . S
H3974 C3987 0.929 . S
H3975 C3985 0.929 . S
H3976 C3980 0.929 . S
H3977 C3986 0.929 . S
C3978 H3972 0.930 . S
C3978 C3979 1.367 . S
C3978 C3986 1.378 . S
C3979 C3978 1.367 . S
C3979 C3987 1.433 . S
C3980 H3976 0.929 . S
C3980 C3982 1.378 . S
C3980 C3984 1.350 . S
C3981 C3984 1.463 . S
C3981 C3986 1.350 . S
C3981 N3989 1.427 . S
C3982 H3973 0.930 . S
C3982 C3980 1.378 . S
C3982 C3983 1.367 . S
C3983 C3982 1.367 . S
C3983 C3985 1.433 . S
C3984 C3980 1.350 . S
C3984 C3981 1.463 . S
C3984 N3988 1.427 . S
C3985 H3975 0.929 . S
C3985 C3983 1.433 . S
C3985 N3988 1.384 . S
C3986 H3977 0.929 . S
C3986 C3978 1.378 . S
C3986 C3981 1.350 . S
C3987 H3974 0.929 . S
C3987 C3979 1.433 . S
C3987 N3989 1.384 . S
N3988 C3984 1.427 . S
N3988 C3985 1.384 . S
N3989 C3981 1.427 . S
N3989 C3987 1.384 . S
H3990 C3996 0.930 . S
H3991 C4000 0.930 . S
H3992 C4005 0.929 . S
H3993 C4003 0.929 . S
H3994 C3998 0.929 . S
H3995 C4004 0.929 . S
C3996 H3990 0.930 . S
C3996 C3997 1.367 . S
C3996 C4004 1.378 . S
C3997 C3996 1.367 . S
C3997 C4005 1.433 . S
C3998 H3994 0.929 . S
C3998 C4000 1.378 . S
C3998 C4002 1.350 . S
C3999 C4002 1.463 . S
C3999 C4004 1.350 . S
C3999 N4007 1.427 . S
C4000 H3991 0.930 . S
C4000 C3998 1.378 . S
C4000 C4001 1.367 . S
C4001 C4000 1.367 . S
C4001 C4003 1.433 . S
C4002 C3998 1.350 . S
C4002 C3999 1.463 . S
C4002 N4006 1.427 . S
C4003 H3993 0.929 . S
C4003 C4001 1.433 . S
C4003 N4006 1.384 . S
C4004 H3995 0.929 . S
C4004 C3996 1.378 . S
C4004 C3999 1.350 . S
C4005 H3992 0.929 . S
C4005 C3997 1.433 . S
C4005 N4007 1.384 . S
N4006 C4002 1.427 . S
N4006 C4003 1.384 . S
N4007 C3999 1.427 . S
N4007 C4005 1.384 . S
H4008 C4014 0.930 . S
H4009 C4018 0.930 . S
H4010 C4023 0.929 . S
H4011 C4021 0.929 . S
H4012 C4016 0.929 . S
H4013 C4022 0.929 . S
C4014 H4008 0.930 . S
C4014 C4015 1.367 . S
C4014 C4022 1.378 . S
C4015 C4014 1.367 . S
C4015 C4023 1.433 . S
C4016 H4012 0.929 . S
C4016 C4018 1.378 . S
C4016 C4020 1.350 . S
C4017 C4020 1.463 . S
C4017 C4022 1.350 . S
C4017 N4025 1.427 . S
C4018 H4009 0.930 . S
C4018 C4016 1.378 . S
C4018 C4019 1.367 . S
C4019 C4018 1.367 . S
C4019 C4021 1.433 . S
C4020 C4016 1.350 . S
C4020 C4017 1.463 . S
C4020 N4024 1.427 . S
C4021 H4011 0.929 . S
C4021 C4019 1.433 . S
C4021 N4024 1.384 . S
C4022 H4013 0.929 . S
C4022 C4014 1.378 . S
C4022 C4017 1.350 . S
C4023 H4010 0.929 . S
C4023 C4015 1.433 . S
C4023 N4025 1.384 . S
N4024 C4020 1.427 . S
N4024 C4021 1.384 . S
N4025 C4017 1.427 . S
N4025 C4023 1.384 . S
H4026 C4032 0.930 . S
H4027 C4036 0.930 . S
H4028 C4041 0.929 . S
H4029 C4039 0.929 . S
H4030 C4034 0.929 . S
H4031 C4040 0.929 . S
C4032 H4026 0.930 . S
C4032 C4033 1.367 . S
C4032 C4040 1.378 . S
C4033 C4032 1.367 . S
C4033 C4041 1.433 . S
C4034 H4030 0.929 . S
C4034 C4036 1.378 . S
C4034 C4038 1.350 . S
C4035 C4038 1.463 . S
C4035 C4040 1.350 . S
C4035 N4043 1.427 . S
C4036 H4027 0.930 . S
C4036 C4034 1.378 . S
C4036 C4037 1.367 . S
C4037 C4036 1.367 . S
C4037 C4039 1.433 . S
C4038 C4034 1.350 . S
C4038 C4035 1.463 . S
C4038 N4042 1.427 . S
C4039 H4029 0.929 . S
C4039 C4037 1.433 . S
C4039 N4042 1.384 . S
C4040 H4031 0.929 . S
C4040 C4032 1.378 . S
C4040 C4035 1.350 . S
C4041 H4028 0.929 . S
C4041 C4033 1.433 . S
C4041 N4043 1.384 . S
N4042 C4038 1.427 . S
N4042 C4039 1.384 . S
N4043 C4035 1.427 . S
N4043 C4041 1.384 . S
H4044 C4050 0.930 . S
H4045 C4054 0.930 . S
H4046 C4059 0.929 . S
H4047 C4057 0.929 . S
H4048 C4052 0.929 . S
H4049 C4058 0.929 . S
C4050 H4044 0.930 . S
C4050 C4051 1.367 . S
C4050 C4058 1.378 . S
C4051 C4050 1.367 . S
C4051 C4059 1.433 . S
C4052 H4048 0.929 . S
C4052 C4054 1.378 . S
C4052 C4056 1.350 . S
C4053 C4056 1.463 . S
C4053 C4058 1.350 . S
C4053 N4061 1.427 . S
C4054 H4045 0.930 . S
C4054 C4052 1.378 . S
C4054 C4055 1.367 . S
C4055 C4054 1.367 . S
C4055 C4057 1.433 . S
C4056 C4052 1.350 . S
C4056 C4053 1.463 . S
C4056 N4060 1.427 . S
C4057 H4047 0.929 . S
C4057 C4055 1.433 . S
C4057 N4060 1.384 . S
C4058 H4049 0.929 . S
C4058 C4050 1.378 . S
C4058 C4053 1.350 . S
C4059 H4046 0.929 . S
C4059 C4051 1.433 . S
C4059 N4061 1.384 . S
N4060 C4056 1.427 . S
N4060 C4057 1.384 . S
N4061 C4053 1.427 . S
N4061 C4059 1.384 . S
H4062 C4068 0.930 . S
H4063 C4072 0.930 . S
H4064 C4077 0.929 . S
H4065 C4075 0.929 . S
H4066 C4070 0.929 . S
H4067 C4076 0.929 . S
C4068 H4062 0.930 . S
C4068 C4069 1.367 . S
C4068 C4076 1.378 . S
C4069 C4068 1.367 . S
C4069 C4077 1.433 . S
C4070 H4066 0.929 . S
C4070 C4072 1.378 . S
C4070 C4074 1.350 . S
C4071 C4074 1.463 . S
C4071 C4076 1.350 . S
C4071 N4079 1.427 . S
C4072 H4063 0.930 . S
C4072 C4070 1.378 . S
C4072 C4073 1.367 . S
C4073 C4072 1.367 . S
C4073 C4075 1.433 . S
C4074 C4070 1.350 . S
C4074 C4071 1.463 . S
C4074 N4078 1.427 . S
C4075 H4065 0.929 . S
C4075 C4073 1.433 . S
C4075 N4078 1.384 . S
C4076 H4067 0.929 . S
C4076 C4068 1.378 . S
C4076 C4071 1.350 . S
C4077 H4064 0.929 . S
C4077 C4069 1.433 . S
C4077 N4079 1.384 . S
N4078 C4074 1.427 . S
N4078 C4075 1.384 . S
N4079 C4071 1.427 . S
N4079 C4077 1.384 . S
H4080 C4086 0.930 . S
H4081 C4090 0.930 . S
H4082 C4095 0.929 . S
H4083 C4093 0.929 . S
H4084 C4088 0.929 . S
H4085 C4094 0.929 . S
C4086 H4080 0.930 . S
C4086 C4087 1.367 . S
C4086 C4094 1.378 . S
C4087 C4086 1.367 . S
C4087 C4095 1.433 . S
C4088 H4084 0.929 . S
C4088 C4090 1.378 . S
C4088 C4092 1.350 . S
C4089 C4092 1.463 . S
C4089 C4094 1.350 . S
C4089 N4097 1.427 . S
C4090 H4081 0.930 . S
C4090 C4088 1.378 . S
C4090 C4091 1.367 . S
C4091 C4090 1.367 . S
C4091 C4093 1.433 . S
C4092 C4088 1.350 . S
C4092 C4089 1.463 . S
C4092 N4096 1.427 . S
C4093 H4083 0.929 . S
C4093 C4091 1.433 . S
C4093 N4096 1.384 . S
C4094 H4085 0.929 . S
C4094 C4086 1.378 . S
C4094 C4089 1.350 . S
C4095 H4082 0.929 . S
C4095 C4087 1.433 . S
C4095 N4097 1.384 . S
N4096 C4092 1.427 . S
N4096 C4093 1.384 . S
N4097 C4089 1.427 . S
N4097 C4095 1.384 . S
H4098 C4104 0.930 . S
H4099 C4108 0.930 . S
H4100 C4113 0.929 . S
H4101 C4111 0.929 . S
H4102 C4106 0.929 . S
H4103 C4112 0.929 . S
C4104 H4098 0.930 . S
C4104 C4105 1.367 . S
C4104 C4112 1.378 . S
C4105 C4104 1.367 . S
C4105 C4113 1.433 . S
C4106 H4102 0.929 . S
C4106 C4108 1.378 . S
C4106 C4110 1.350 . S
C4107 C4110 1.463 . S
C4107 C4112 1.350 . S
C4107 N4115 1.427 . S
C4108 H4099 0.930 . S
C4108 C4106 1.378 . S
C4108 C4109 1.367 . S
C4109 C4108 1.367 . S
C4109 C4111 1.433 . S
C4110 C4106 1.350 . S
C4110 C4107 1.463 . S
C4110 N4114 1.427 . S
C4111 H4101 0.929 . S
C4111 C4109 1.433 . S
C4111 N4114 1.384 . S
C4112 H4103 0.929 . S
C4112 C4104 1.378 . S
C4112 C4107 1.350 . S
C4113 H4100 0.929 . S
C4113 C4105 1.433 . S
C4113 N4115 1.384 . S
N4114 C4110 1.427 . S
N4114 C4111 1.384 . S
N4115 C4107 1.427 . S
N4115 C4113 1.384 . S
H4116 C4122 0.930 . S
H4117 C4126 0.930 . S
H4118 C4131 0.929 . S
H4119 C4129 0.929 . S
H4120 C4124 0.929 . S
H4121 C4130 0.929 . S
C4122 H4116 0.930 . S
C4122 C4123 1.367 . S
C4122 C4130 1.378 . S
C4123 C4122 1.367 . S
C4123 C4131 1.433 . S
C4124 H4120 0.929 . S
C4124 C4126 1.378 . S
C4124 C4128 1.350 . S
C4125 C4128 1.463 . S
C4125 C4130 1.350 . S
C4125 N4133 1.427 . S
C4126 H4117 0.930 . S
C4126 C4124 1.378 . S
C4126 C4127 1.367 . S
C4127 C4126 1.367 . S
C4127 C4129 1.433 . S
C4128 C4124 1.350 . S
C4128 C4125 1.463 . S
C4128 N4132 1.427 . S
C4129 H4119 0.929 . S
C4129 C4127 1.433 . S
C4129 N4132 1.384 . S
C4130 H4121 0.929 . S
C4130 C4122 1.378 . S
C4130 C4125 1.350 . S
C4131 H4118 0.929 . S
C4131 C4123 1.433 . S
C4131 N4133 1.384 . S
N4132 C4128 1.427 . S
N4132 C4129 1.384 . S
N4133 C4125 1.427 . S
N4133 C4131 1.384 . S
H4134 C4140 0.930 . S
H4135 C4144 0.930 . S
H4136 C4149 0.929 . S
H4137 C4147 0.929 . S
H4138 C4142 0.929 . S
H4139 C4148 0.929 . S
C4140 H4134 0.930 . S
C4140 C4141 1.367 . S
C4140 C4148 1.378 . S
C4141 C4140 1.367 . S
C4141 C4149 1.433 . S
C4142 H4138 0.929 . S
C4142 C4144 1.378 . S
C4142 C4146 1.350 . S
C4143 C4146 1.463 . S
C4143 C4148 1.350 . S
C4143 N4151 1.427 . S
C4144 H4135 0.930 . S
C4144 C4142 1.378 . S
C4144 C4145 1.367 . S
C4145 C4144 1.367 . S
C4145 C4147 1.433 . S
C4146 C4142 1.350 . S
C4146 C4143 1.463 . S
C4146 N4150 1.427 . S
C4147 H4137 0.929 . S
C4147 C4145 1.433 . S
C4147 N4150 1.384 . S
C4148 H4139 0.929 . S
C4148 C4140 1.378 . S
C4148 C4143 1.350 . S
C4149 H4136 0.929 . S
C4149 C4141 1.433 . S
C4149 N4151 1.384 . S
N4150 C4146 1.427 . S
N4150 C4147 1.384 . S
N4151 C4143 1.427 . S
N4151 C4149 1.384 . S
H4152 C4158 0.930 . S
H4153 C4162 0.930 . S
H4154 C4167 0.929 . S
H4155 C4165 0.929 . S
H4156 C4160 0.929 . S
H4157 C4166 0.929 . S
C4158 H4152 0.930 . S
C4158 C4159 1.367 . S
C4158 C4166 1.378 . S
C4159 C4158 1.367 . S
C4159 C4167 1.433 . S
C4160 H4156 0.929 . S
C4160 C4162 1.378 . S
C4160 C4164 1.350 . S
C4161 C4164 1.463 . S
C4161 C4166 1.350 . S
C4161 N4169 1.427 . S
C4162 H4153 0.930 . S
C4162 C4160 1.378 . S
C4162 C4163 1.367 . S
C4163 C4162 1.367 . S
C4163 C4165 1.433 . S
C4164 C4160 1.350 . S
C4164 C4161 1.463 . S
C4164 N4168 1.427 . S
C4165 H4155 0.929 . S
C4165 C4163 1.433 . S
C4165 N4168 1.384 . S
C4166 H4157 0.929 . S
C4166 C4158 1.378 . S
C4166 C4161 1.350 . S
C4167 H4154 0.929 . S
C4167 C4159 1.433 . S
C4167 N4169 1.384 . S
N4168 C4164 1.427 . S
N4168 C4165 1.384 . S
N4169 C4161 1.427 . S
N4169 C4167 1.384 . S
H4170 C4176 0.930 . S
H4171 C4180 0.930 . S
H4172 C4185 0.929 . S
H4173 C4183 0.929 . S
H4174 C4178 0.929 . S
H4175 C4184 0.929 . S
C4176 H4170 0.930 . S
C4176 C4177 1.367 . S
C4176 C4184 1.378 . S
C4177 C4176 1.367 . S
C4177 C4185 1.433 . S
C4178 H4174 0.929 . S
C4178 C4180 1.378 . S
C4178 C4182 1.350 . S
C4179 C4182 1.463 . S
C4179 C4184 1.350 . S
C4179 N4187 1.427 . S
C4180 H4171 0.930 . S
C4180 C4178 1.378 . S
C4180 C4181 1.367 . S
C4181 C4180 1.367 . S
C4181 C4183 1.433 . S
C4182 C4178 1.350 . S
C4182 C4179 1.463 . S
C4182 N4186 1.427 . S
C4183 H4173 0.929 . S
C4183 C4181 1.433 . S
C4183 N4186 1.384 . S
C4184 H4175 0.929 . S
C4184 C4176 1.378 . S
C4184 C4179 1.350 . S
C4185 H4172 0.929 . S
C4185 C4177 1.433 . S
C4185 N4187 1.384 . S
N4186 C4182 1.427 . S
N4186 C4183 1.384 . S
N4187 C4179 1.427 . S
N4187 C4185 1.384 . S
H4188 C4194 0.930 . S
H4189 C4198 0.930 . S
H4190 C4203 0.929 . S
H4191 C4201 0.929 . S
H4192 C4196 0.929 . S
H4193 C4202 0.929 . S
C4194 H4188 0.930 . S
C4194 C4195 1.367 . S
C4194 C4202 1.378 . S
C4195 C4194 1.367 . S
C4195 C4203 1.433 . S
C4196 H4192 0.929 . S
C4196 C4198 1.378 . S
C4196 C4200 1.350 . S
C4197 C4200 1.463 . S
C4197 C4202 1.350 . S
C4197 N4205 1.427 . S
C4198 H4189 0.930 . S
C4198 C4196 1.378 . S
C4198 C4199 1.367 . S
C4199 C4198 1.367 . S
C4199 C4201 1.433 . S
C4200 C4196 1.350 . S
C4200 C4197 1.463 . S
C4200 N4204 1.427 . S
C4201 H4191 0.929 . S
C4201 C4199 1.433 . S
C4201 N4204 1.384 . S
C4202 H4193 0.929 . S
C4202 C4194 1.378 . S
C4202 C4197 1.350 . S
C4203 H4190 0.929 . S
C4203 C4195 1.433 . S
C4203 N4205 1.384 . S
N4204 C4200 1.427 . S
N4204 C4201 1.384 . S
N4205 C4197 1.427 . S
N4205 C4203 1.384 . S
H4206 C4212 0.930 . S
H4207 C4216 0.930 . S
H4208 C4221 0.929 . S
H4209 C4219 0.929 . S
H4210 C4214 0.929 . S
H4211 C4220 0.929 . S
C4212 H4206 0.930 . S
C4212 C4213 1.367 . S
C4212 C4220 1.378 . S
C4213 C4212 1.367 . S
C4213 C4221 1.433 . S
C4214 H4210 0.929 . S
C4214 C4216 1.378 . S
C4214 C4218 1.350 . S
C4215 C4218 1.463 . S
C4215 C4220 1.350 . S
C4215 N4223 1.427 . S
C4216 H4207 0.930 . S
C4216 C4214 1.378 . S
C4216 C4217 1.367 . S
C4217 C4216 1.367 . S
C4217 C4219 1.433 . S
C4218 C4214 1.350 . S
C4218 C4215 1.463 . S
C4218 N4222 1.427 . S
C4219 H4209 0.929 . S
C4219 C4217 1.433 . S
C4219 N4222 1.384 . S
C4220 H4211 0.929 . S
C4220 C4212 1.378 . S
C4220 C4215 1.350 . S
C4221 H4208 0.929 . S
C4221 C4213 1.433 . S
C4221 N4223 1.384 . S
N4222 C4218 1.427 . S
N4222 C4219 1.384 . S
N4223 C4215 1.427 . S
N4223 C4221 1.384 . S
H4224 C4230 0.930 . S
H4225 C4234 0.930 . S
H4226 C4239 0.929 . S
H4227 C4237 0.929 . S
H4228 C4232 0.929 . S
H4229 C4238 0.929 . S
C4230 H4224 0.930 . S
C4230 C4231 1.367 . S
C4230 C4238 1.378 . S
C4231 C4230 1.367 . S
C4231 C4239 1.433 . S
C4232 H4228 0.929 . S
C4232 C4234 1.378 . S
C4232 C4236 1.350 . S
C4233 C4236 1.463 . S
C4233 C4238 1.350 . S
C4233 N4241 1.427 . S
C4234 H4225 0.930 . S
C4234 C4232 1.378 . S
C4234 C4235 1.367 . S
C4235 C4234 1.367 . S
C4235 C4237 1.433 . S
C4236 C4232 1.350 . S
C4236 C4233 1.463 . S
C4236 N4240 1.427 . S
C4237 H4227 0.929 . S
C4237 C4235 1.433 . S
C4237 N4240 1.384 . S
C4238 H4229 0.929 . S
C4238 C4230 1.378 . S
C4238 C4233 1.350 . S
C4239 H4226 0.929 . S
C4239 C4231 1.433 . S
C4239 N4241 1.384 . S
N4240 C4236 1.427 . S
N4240 C4237 1.384 . S
N4241 C4233 1.427 . S
N4241 C4239 1.384 . S
H4242 C4248 0.930 . S
H4243 C4252 0.930 . S
H4244 C4257 0.929 . S
H4245 C4255 0.929 . S
H4246 C4250 0.929 . S
H4247 C4256 0.929 . S
C4248 H4242 0.930 . S
C4248 C4249 1.367 . S
C4248 C4256 1.378 . S
C4249 C4248 1.367 . S
C4249 C4257 1.433 . S
C4250 H4246 0.929 . S
C4250 C4252 1.378 . S
C4250 C4254 1.350 . S
C4251 C4254 1.463 . S
C4251 C4256 1.350 . S
C4251 N4259 1.427 . S
C4252 H4243 0.930 . S
C4252 C4250 1.378 . S
C4252 C4253 1.367 . S
C4253 C4252 1.367 . S
C4253 C4255 1.433 . S
C4254 C4250 1.350 . S
C4254 C4251 1.463 . S
C4254 N4258 1.427 . S
C4255 H4245 0.929 . S
C4255 C4253 1.433 . S
C4255 N4258 1.384 . S
C4256 H4247 0.929 . S
C4256 C4248 1.378 . S
C4256 C4251 1.350 . S
C4257 H4244 0.929 . S
C4257 C4249 1.433 . S
C4257 N4259 1.384 . S
N4258 C4254 1.427 . S
N4258 C4255 1.384 . S
N4259 C4251 1.427 . S
N4259 C4257 1.384 . S
H4260 C4266 0.930 . S
H4261 C4270 0.930 . S
H4262 C4275 0.929 . S
H4263 C4273 0.929 . S
H4264 C4268 0.929 . S
H4265 C4274 0.929 . S
C4266 H4260 0.930 . S
C4266 C4267 1.367 . S
C4266 C4274 1.378 . S
C4267 C4266 1.367 . S
C4267 C4275 1.433 . S
C4268 H4264 0.929 . S
C4268 C4270 1.378 . S
C4268 C4272 1.350 . S
C4269 C4272 1.463 . S
C4269 C4274 1.350 . S
C4269 N4277 1.427 . S
C4270 H4261 0.930 . S
C4270 C4268 1.378 . S
C4270 C4271 1.367 . S
C4271 C4270 1.367 . S
C4271 C4273 1.433 . S
C4272 C4268 1.350 . S
C4272 C4269 1.463 . S
C4272 N4276 1.427 . S
C4273 H4263 0.929 . S
C4273 C4271 1.433 . S
C4273 N4276 1.384 . S
C4274 H4265 0.929 . S
C4274 C4266 1.378 . S
C4274 C4269 1.350 . S
C4275 H4262 0.929 . S
C4275 C4267 1.433 . S
C4275 N4277 1.384 . S
N4276 C4272 1.427 . S
N4276 C4273 1.384 . S
N4277 C4269 1.427 . S
N4277 C4275 1.384 . S
H4278 C4284 0.930 . S
H4279 C4288 0.930 . S
H4280 C4293 0.929 . S
H4281 C4291 0.929 . S
H4282 C4286 0.929 . S
H4283 C4292 0.929 . S
C4284 H4278 0.930 . S
C4284 C4285 1.367 . S
C4284 C4292 1.378 . S
C4285 C4284 1.367 . S
C4285 C4293 1.433 . S
C4286 H4282 0.929 . S
C4286 C4288 1.378 . S
C4286 C4290 1.350 . S
C4287 C4290 1.463 . S
C4287 C4292 1.350 . S
C4287 N4295 1.427 . S
C4288 H4279 0.930 . S
C4288 C4286 1.378 . S
C4288 C4289 1.367 . S
C4289 C4288 1.367 . S
C4289 C4291 1.433 . S
C4290 C4286 1.350 . S
C4290 C4287 1.463 . S
C4290 N4294 1.427 . S
C4291 H4281 0.929 . S
C4291 C4289 1.433 . S
C4291 N4294 1.384 . S
C4292 H4283 0.929 . S
C4292 C4284 1.378 . S
C4292 C4287 1.350 . S
C4293 H4280 0.929 . S
C4293 C4285 1.433 . S
C4293 N4295 1.384 . S
N4294 C4290 1.427 . S
N4294 C4291 1.384 . S
N4295 C4287 1.427 . S
N4295 C4293 1.384 . S
H4296 C4302 0.930 . S
H4297 C4306 0.930 . S
H4298 C4311 0.929 . S
H4299 C4309 0.929 . S
H4300 C4304 0.929 . S
H4301 C4310 0.929 . S
C4302 H4296 0.930 . S
C4302 C4303 1.367 . S
C4302 C4310 1.378 . S
C4303 C4302 1.367 . S
C4303 C4311 1.433 . S
C4304 H4300 0.929 . S
C4304 C4306 1.378 . S
C4304 C4308 1.350 . S
C4305 C4308 1.463 . S
C4305 C4310 1.350 . S
C4305 N4313 1.427 . S
C4306 H4297 0.930 . S
C4306 C4304 1.378 . S
C4306 C4307 1.367 . S
C4307 C4306 1.367 . S
C4307 C4309 1.433 . S
C4308 C4304 1.350 . S
C4308 C4305 1.463 . S
C4308 N4312 1.427 . S
C4309 H4299 0.929 . S
C4309 C4307 1.433 . S
C4309 N4312 1.384 . S
C4310 H4301 0.929 . S
C4310 C4302 1.378 . S
C4310 C4305 1.350 . S
C4311 H4298 0.929 . S
C4311 C4303 1.433 . S
C4311 N4313 1.384 . S
N4312 C4308 1.427 . S
N4312 C4309 1.384 . S
N4313 C4305 1.427 . S
N4313 C4311 1.384 . S
H4314 C4320 0.930 . S
H4315 C4324 0.930 . S
H4316 C4329 0.929 . S
H4317 C4327 0.929 . S
H4318 C4322 0.929 . S
H4319 C4328 0.929 . S
C4320 H4314 0.930 . S
C4320 C4321 1.367 . S
C4320 C4328 1.378 . S
C4321 C4320 1.367 . S
C4321 C4329 1.433 . S
C4322 H4318 0.929 . S
C4322 C4324 1.378 . S
C4322 C4326 1.350 . S
C4323 C4326 1.463 . S
C4323 C4328 1.350 . S
C4323 N4331 1.427 . S
C4324 H4315 0.930 . S
C4324 C4322 1.378 . S
C4324 C4325 1.367 . S
C4325 C4324 1.367 . S
C4325 C4327 1.433 . S
C4326 C4322 1.350 . S
C4326 C4323 1.463 . S
C4326 N4330 1.427 . S
C4327 H4317 0.929 . S
C4327 C4325 1.433 . S
C4327 N4330 1.384 . S
C4328 H4319 0.929 . S
C4328 C4320 1.378 . S
C4328 C4323 1.350 . S
C4329 H4316 0.929 . S
C4329 C4321 1.433 . S
C4329 N4331 1.384 . S
N4330 C4326 1.427 . S
N4330 C4327 1.384 . S
N4331 C4323 1.427 . S
N4331 C4329 1.384 . S
H4332 C4338 0.930 . S
H4333 C4342 0.930 . S
H4334 C4347 0.929 . S
H4335 C4345 0.929 . S
H4336 C4340 0.929 . S
H4337 C4346 0.929 . S
C4338 H4332 0.930 . S
C4338 C4339 1.367 . S
C4338 C4346 1.378 . S
C4339 C4338 1.367 . S
C4339 C4347 1.433 . S
C4340 H4336 0.929 . S
C4340 C4342 1.378 . S
C4340 C4344 1.350 . S
C4341 C4344 1.463 . S
C4341 C4346 1.350 . S
C4341 N4349 1.427 . S
C4342 H4333 0.930 . S
C4342 C4340 1.378 . S
C4342 C4343 1.367 . S
C4343 C4342 1.367 . S
C4343 C4345 1.433 . S
C4344 C4340 1.350 . S
C4344 C4341 1.463 . S
C4344 N4348 1.427 . S
C4345 H4335 0.929 . S
C4345 C4343 1.433 . S
C4345 N4348 1.384 . S
C4346 H4337 0.929 . S
C4346 C4338 1.378 . S
C4346 C4341 1.350 . S
C4347 H4334 0.929 . S
C4347 C4339 1.433 . S
C4347 N4349 1.384 . S
N4348 C4344 1.427 . S
N4348 C4345 1.384 . S
N4349 C4341 1.427 . S
N4349 C4347 1.384 . S
H4350 C4356 0.930 . S
H4351 C4360 0.930 . S
H4352 C4365 0.929 . S
H4353 C4363 0.929 . S
H4354 C4358 0.929 . S
H4355 C4364 0.929 . S
C4356 H4350 0.930 . S
C4356 C4357 1.367 . S
C4356 C4364 1.378 . S
C4357 C4356 1.367 . S
C4357 C4365 1.433 . S
C4358 H4354 0.929 . S
C4358 C4360 1.378 . S
C4358 C4362 1.350 . S
C4359 C4362 1.463 . S
C4359 C4364 1.350 . S
C4359 N4367 1.427 . S
C4360 H4351 0.930 . S
C4360 C4358 1.378 . S
C4360 C4361 1.367 . S
C4361 C4360 1.367 . S
C4361 C4363 1.433 . S
C4362 C4358 1.350 . S
C4362 C4359 1.463 . S
C4362 N4366 1.427 . S
C4363 H4353 0.929 . S
C4363 C4361 1.433 . S
C4363 N4366 1.384 . S
C4364 H4355 0.929 . S
C4364 C4356 1.378 . S
C4364 C4359 1.350 . S
C4365 H4352 0.929 . S
C4365 C4357 1.433 . S
C4365 N4367 1.384 . S
N4366 C4362 1.427 . S
N4366 C4363 1.384 . S
N4367 C4359 1.427 . S
N4367 C4365 1.384 . S
H4368 C4374 0.930 . S
H4369 C4378 0.930 . S
H4370 C4383 0.929 . S
H4371 C4381 0.929 . S
H4372 C4376 0.928 . S
H4373 C4382 0.929 . S
C4374 H4368 0.930 . S
C4374 C4375 1.367 . S
C4374 C4382 1.378 . S
C4375 C4374 1.367 . S
C4375 C4383 1.433 . S
C4376 H4372 0.928 . S
C4376 C4378 1.378 . S
C4376 C4380 1.350 1_554 S
C4377 C4380 1.463 . S
C4377 C4382 1.350 . S
C4377 N4385 1.427 . S
C4378 H4369 0.930 . S
C4378 C4376 1.378 . S
C4378 C4379 1.367 . S
C4379 C4378 1.367 . S
C4379 C4381 1.433 . S
C4380 C4376 1.350 1_556 S
C4380 C4377 1.463 . S
C4380 N4384 1.427 1_556 S
C4381 H4371 0.929 . S
C4381 C4379 1.433 . S
C4381 N4384 1.384 . S
C4382 H4373 0.929 . S
C4382 C4374 1.378 . S
C4382 C4377 1.350 . S
C4383 H4370 0.929 . S
C4383 C4375 1.433 . S
C4383 N4385 1.384 . S
N4384 C4380 1.427 1_554 S
N4384 C4381 1.384 . S
N4385 C4377 1.427 . S
N4385 C4383 1.384 . S
H4386 C4392 0.930 . S
H4387 C4396 0.930 . S
H4388 C4401 0.929 . S
H4389 C4399 0.929 . S
H4390 C4394 0.929 . S
H4391 C4400 0.924 1_556 S
C4392 H4386 0.930 . S
C4392 C4393 1.367 . S
C4392 C4400 1.378 . S
C4393 C4392 1.367 . S
C4393 C4401 1.433 . S
C4394 H4390 0.929 . S
C4394 C4396 1.378 . S
C4394 C4398 1.350 . S
C4395 C4398 1.463 . S
C4395 C4400 1.350 1_556 S
C4395 N4403 1.427 1_556 S
C4396 H4387 0.930 . S
C4396 C4394 1.378 . S
C4396 C4397 1.367 . S
C4397 C4396 1.367 . S
C4397 C4399 1.433 . S
C4398 C4394 1.350 . S
C4398 C4395 1.463 . S
C4398 N4402 1.427 . S
C4399 H4389 0.929 . S
C4399 C4397 1.433 . S
C4399 N4402 1.384 . S
C4400 H4391 0.924 1_554 S
C4400 C4392 1.378 . S
C4400 C4395 1.350 1_554 S
C4401 H4388 0.929 . S
C4401 C4393 1.433 . S
C4401 N4403 1.384 . S
N4402 C4398 1.427 . S
N4402 C4399 1.384 . S
N4403 C4395 1.427 1_554 S
N4403 C4401 1.384 . S
H4404 C4410 0.930 . S
H4405 C4414 0.930 . S
H4406 C4419 0.929 . S
H4407 C4417 0.929 . S
H4408 C4412 0.929 . S
H4409 C4418 0.929 1_556 S
C4410 H4404 0.930 . S
C4410 C4411 1.367 . S
C4410 C4418 1.378 . S
C4411 C4410 1.367 . S
C4411 C4419 1.433 . S
C4412 H4408 0.929 . S
C4412 C4414 1.378 . S
C4412 C4416 1.350 . S
C4413 C4416 1.463 . S
C4413 C4418 1.350 1_556 S
C4413 N4421 1.427 1_556 S
C4414 H4405 0.930 . S
C4414 C4412 1.378 . S
C4414 C4415 1.367 . S
C4415 C4414 1.367 . S
C4415 C4417 1.433 . S
C4416 C4412 1.350 . S
C4416 C4413 1.463 . S
C4416 N4420 1.427 . S
C4417 H4407 0.929 . S
C4417 C4415 1.433 . S
C4417 N4420 1.384 . S
C4418 H4409 0.929 1_554 S
C4418 C4410 1.378 . S
C4418 C4413 1.350 1_554 S
C4419 H4406 0.929 . S
C4419 C4411 1.433 . S
C4419 N4421 1.384 . S
N4420 C4416 1.427 . S
N4420 C4417 1.384 . S
N4421 C4413 1.427 1_554 S
N4421 C4419 1.384 . S
H4422 C4428 0.930 . S
H4423 C4432 0.930 . S
H4424 C4437 0.929 . S
H4425 C4435 0.929 . S
H4426 C4430 0.929 . S
H4427 C4436 0.942 . S
C4428 H4422 0.930 . S
C4428 C4429 1.367 . S
C4428 C4436 1.378 . S
C4429 C4428 1.367 . S
C4429 C4437 1.433 . S
C4430 H4426 0.929 . S
C4430 C4432 1.378 . S
C4430 C4434 1.350 . S
C4431 C4434 1.463 . S
C4431 C4436 1.350 1_556 S
C4431 N4439 1.427 1_556 S
C4432 H4423 0.930 . S
C4432 C4430 1.378 . S
C4432 C4433 1.367 . S
C4433 C4432 1.367 . S
C4433 C4435 1.433 . S
C4434 C4430 1.350 . S
C4434 C4431 1.463 . S
C4434 N4438 1.427 . S
C4435 H4425 0.929 . S
C4435 C4433 1.433 . S
C4435 N4438 1.384 . S
C4436 H4427 0.942 . S
C4436 C4428 1.378 . S
C4436 C4431 1.350 1_554 S
C4437 H4424 0.929 . S
C4437 C4429 1.433 . S
C4437 N4439 1.384 . S
N4438 C4434 1.427 . S
N4438 C4435 1.384 . S
N4439 C4431 1.427 1_554 S
N4439 C4437 1.384 . S
H4440 C4446 0.930 . S
H4441 C4450 0.930 . S
H4442 C4455 0.929 . S
H4443 C4453 0.929 . S
H4444 C4448 0.929 1_554 S
H4445 C4454 0.929 . S
C4446 H4440 0.930 . S
C4446 C4447 1.367 . S
C4446 C4454 1.378 . S
C4447 C4446 1.367 . S
C4447 C4455 1.433 . S
C4448 H4444 0.929 1_556 S
C4448 C4450 1.378 . S
C4448 C4452 1.350 1_556 S
C4449 C4452 1.463 . S
C4449 C4454 1.350 . S
C4449 N4457 1.427 . S
C4450 H4441 0.930 . S
C4450 C4448 1.378 . S
C4450 C4451 1.367 . S
C4451 C4450 1.367 . S
C4451 C4453 1.433 . S
C4452 C4448 1.350 1_554 S
C4452 C4449 1.463 . S
C4452 N4456 1.427 1_554 S
C4453 H4443 0.929 . S
C4453 C4451 1.433 . S
C4453 N4456 1.384 . S
C4454 H4445 0.929 . S
C4454 C4446 1.378 . S
C4454 C4449 1.350 . S
C4455 H4442 0.929 . S
C4455 C4447 1.433 . S
C4455 N4457 1.384 . S
N4456 C4452 1.427 1_556 S
N4456 C4453 1.384 . S
N4457 C4449 1.427 . S
N4457 C4455 1.384 . S
H4458 C4464 0.930 . S
H4459 C4468 0.930 . S
H4460 C4473 0.929 . S
H4461 C4471 0.929 . S
H4462 C4466 0.929 . S
H4463 C4472 0.946 . S
C4464 H4458 0.930 . S
C4464 C4465 1.367 . S
C4464 C4472 1.378 . S
C4465 C4464 1.367 . S
C4465 C4473 1.433 . S
C4466 H4462 0.929 . S
C4466 C4468 1.378 . S
C4466 C4470 1.350 . S
C4467 C4470 1.463 . S
C4467 C4472 1.350 1_554 S
C4467 N4475 1.427 1_554 S
C4468 H4459 0.930 . S
C4468 C4466 1.378 . S
C4468 C4469 1.367 . S
C4469 C4468 1.367 . S
C4469 C4471 1.433 . S
C4470 C4466 1.350 . S
C4470 C4467 1.463 . S
C4470 N4474 1.427 . S
C4471 H4461 0.929 . S
C4471 C4469 1.433 . S
C4471 N4474 1.384 . S
C4472 H4463 0.946 . S
C4472 C4464 1.378 . S
C4472 C4467 1.350 1_556 S
C4473 H4460 0.929 . S
C4473 C4465 1.433 . S
C4473 N4475 1.384 . S
N4474 C4470 1.427 . S
N4474 C4471 1.384 . S
N4475 C4467 1.427 1_556 S
N4475 C4473 1.384 . S
H4476 C4482 0.930 . S
H4477 C4486 0.930 . S
H4478 C4491 0.929 . S
H4479 C4489 0.929 . S
H4480 C4484 0.929 1_554 S
H4481 C4490 0.929 . S
C4482 H4476 0.930 . S
C4482 C4483 1.367 . S
C4482 C4490 1.378 . S
C4483 C4482 1.367 . S
C4483 C4491 1.433 . S
C4484 H4480 0.929 1_556 S
C4484 C4486 1.378 . S
C4484 C4488 1.350 1_556 S
C4485 C4488 1.463 . S
C4485 C4490 1.350 . S
C4485 N4493 1.427 . S
C4486 H4477 0.930 . S
C4486 C4484 1.378 . S
C4486 C4487 1.367 . S
C4487 C4486 1.367 . S
C4487 C4489 1.433 . S
C4488 C4484 1.350 1_554 S
C4488 C4485 1.463 . S
C4488 N4492 1.427 1_554 S
C4489 H4479 0.929 . S
C4489 C4487 1.433 . S
C4489 N4492 1.384 . S
C4490 H4481 0.929 . S
C4490 C4482 1.378 . S
C4490 C4485 1.350 . S
C4491 H4478 0.929 . S
C4491 C4483 1.433 . S
C4491 N4493 1.384 . S
N4492 C4488 1.427 1_556 S
N4492 C4489 1.384 . S
N4493 C4485 1.427 . S
N4493 C4491 1.384 . S
H4494 C4500 0.930 . S
H4495 C4504 0.930 . S
H4496 C4509 0.929 . S
H4497 C4507 0.929 . S
H4498 C4502 0.929 . S
H4499 C4508 0.928 . S
C4500 H4494 0.930 . S
C4500 C4501 1.367 . S
C4500 C4508 1.378 . S
C4501 C4500 1.367 . S
C4501 C4509 1.433 . S
C4502 H4498 0.929 . S
C4502 C4504 1.378 . S
C4502 C4506 1.350 . S
C4503 C4506 1.463 . S
C4503 C4508 1.350 1_554 S
C4503 N4511 1.427 1_554 S
C4504 H4495 0.930 . S
C4504 C4502 1.378 . S
C4504 C4505 1.367 . S
C4505 C4504 1.367 . S
C4505 C4507 1.433 . S
C4506 C4502 1.350 . S
C4506 C4503 1.463 . S
C4506 N4510 1.427 . S
C4507 H4497 0.929 . S
C4507 C4505 1.433 . S
C4507 N4510 1.384 . S
C4508 H4499 0.928 . S
C4508 C4500 1.378 . S
C4508 C4503 1.350 1_556 S
C4509 H4496 0.929 . S
C4509 C4501 1.433 . S
C4509 N4511 1.384 . S
N4510 C4506 1.427 . S
N4510 C4507 1.384 . S
N4511 C4503 1.427 1_556 S
N4511 C4509 1.384 . S
H4512 C4518 0.930 . S
H4513 C4522 0.930 . S
H4514 C4527 0.929 . S
H4515 C4525 0.929 . S
H4516 C4520 0.929 . S
H4517 C4526 0.929 . S
C4518 H4512 0.930 . S
C4518 C4519 1.367 . S
C4518 C4526 1.378 . S
C4519 C4518 1.367 . S
C4519 C4527 1.433 . S
C4520 H4516 0.929 . S
C4520 C4522 1.378 . S
C4520 C4524 1.350 1_455 S
C4521 C4524 1.463 . S
C4521 C4526 1.350 . S
C4521 N4529 1.427 . S
C4522 H4513 0.930 . S
C4522 C4520 1.378 . S
C4522 C4523 1.367 . S
C4523 C4522 1.367 . S
C4523 C4525 1.433 . S
C4524 C4520 1.350 1_655 S
C4524 C4521 1.463 . S
C4524 N4528 1.427 1_655 S
C4525 H4515 0.929 . S
C4525 C4523 1.433 . S
C4525 N4528 1.384 . S
C4526 H4517 0.929 . S
C4526 C4518 1.378 . S
C4526 C4521 1.350 . S
C4527 H4514 0.929 . S
C4527 C4519 1.433 . S
C4527 N4529 1.384 . S
N4528 C4524 1.427 1_455 S
N4528 C4525 1.384 . S
N4529 C4521 1.427 . S
N4529 C4527 1.384 . S
H4530 C4536 0.930 . S
H4531 C4540 0.930 . S
H4532 C4545 0.929 . S
H4533 C4543 0.929 . S
H4534 C4538 0.929 . S
H4535 C4544 0.929 1_565 S
C4536 H4530 0.930 . S
C4536 C4537 1.367 . S
C4536 C4544 1.378 . S
C4537 C4536 1.367 . S
C4537 C4545 1.433 . S
C4538 H4534 0.929 . S
C4538 C4540 1.378 . S
C4538 C4542 1.350 . S
C4539 C4542 1.463 . S
C4539 C4544 1.350 1_565 S
C4539 N4547 1.427 1_565 S
C4540 H4531 0.930 . S
C4540 C4538 1.378 . S
C4540 C4541 1.367 . S
C4541 C4540 1.367 . S
C4541 C4543 1.433 . S
C4542 C4538 1.350 . S
C4542 C4539 1.463 . S
C4542 N4546 1.427 . S
C4543 H4533 0.929 . S
C4543 C4541 1.433 . S
C4543 N4546 1.384 . S
C4544 H4535 0.929 1_545 S
C4544 C4536 1.378 . S
C4544 C4539 1.350 1_545 S
C4545 H4532 0.929 . S
C4545 C4537 1.433 . S
C4545 N4547 1.384 . S
N4546 C4542 1.427 . S
N4546 C4543 1.384 . S
N4547 C4539 1.427 1_545 S
N4547 C4545 1.384 . S
H4548 C4554 0.930 . S
H4549 C4558 0.930 . S
H4550 C4563 0.929 . S
H4551 C4561 0.929 . S
H4552 C4556 0.929 1_455 S
H4553 C4562 0.929 . S
C4554 H4548 0.930 . S
C4554 C4555 1.367 . S
C4554 C4562 1.378 . S
C4555 C4554 1.367 . S
C4555 C4563 1.433 . S
C4556 H4552 0.929 1_655 S
C4556 C4558 1.378 . S
C4556 C4560 1.350 1_655 S
C4557 C4560 1.463 . S
C4557 C4562 1.350 . S
C4557 N4565 1.427 . S
C4558 H4549 0.930 . S
C4558 C4556 1.378 . S
C4558 C4559 1.367 . S
C4559 C4558 1.367 . S
C4559 C4561 1.433 . S
C4560 C4556 1.350 1_455 S
C4560 C4557 1.463 . S
C4560 N4564 1.427 1_455 S
C4561 H4551 0.929 . S
C4561 C4559 1.433 . S
C4561 N4564 1.384 . S
C4562 H4553 0.929 . S
C4562 C4554 1.378 . S
C4562 C4557 1.350 . S
C4563 H4550 0.929 . S
C4563 C4555 1.433 . S
C4563 N4565 1.384 . S
N4564 C4560 1.427 1_655 S
N4564 C4561 1.384 . S
N4565 C4557 1.427 . S
N4565 C4563 1.384 . S
H4566 C4572 0.930 . S
H4567 C4576 0.930 . S
H4568 C4581 0.929 . S
H4569 C4579 0.929 . S
H4570 C4574 0.929 . S
H4571 C4580 0.929 1_545 S
C4572 H4566 0.930 . S
C4572 C4573 1.367 . S
C4572 C4580 1.378 . S
C4573 C4572 1.367 . S
C4573 C4581 1.433 . S
C4574 H4570 0.929 . S
C4574 C4576 1.378 . S
C4574 C4578 1.350 . S
C4575 C4578 1.463 . S
C4575 C4580 1.350 1_545 S
C4575 N4583 1.427 1_545 S
C4576 H4567 0.930 . S
C4576 C4574 1.378 . S
C4576 C4577 1.367 . S
C4577 C4576 1.367 . S
C4577 C4579 1.433 . S
C4578 C4574 1.350 . S
C4578 C4575 1.463 . S
C4578 N4582 1.427 . S
C4579 H4569 0.929 . S
C4579 C4577 1.433 . S
C4579 N4582 1.384 . S
C4580 H4571 0.929 1_565 S
C4580 C4572 1.378 . S
C4580 C4575 1.350 1_565 S
C4581 H4568 0.929 . S
C4581 C4573 1.433 . S
C4581 N4583 1.384 . S
N4582 C4578 1.427 . S
N4582 C4579 1.384 . S
N4583 C4575 1.427 1_565 S
N4583 C4581 1.384 . S
H4584 C4590 0.930 . S
H4585 C4594 0.930 . S
H4586 C4599 0.929 . S
H4587 C4597 0.929 . S
H4588 C4592 0.929 . S
H4589 C4598 0.929 1_655 S
C4590 H4584 0.930 . S
C4590 C4591 1.367 . S
C4590 C4598 1.378 . S
C4591 C4590 1.367 . S
C4591 C4599 1.433 . S
C4592 H4588 0.929 . S
C4592 C4594 1.378 . S
C4592 C4596 1.350 . S
C4593 C4596 1.463 . S
C4593 C4598 1.350 1_655 S
C4593 N4601 1.427 1_655 S
C4594 H4585 0.930 . S
C4594 C4592 1.378 . S
C4594 C4595 1.367 . S
C4595 C4594 1.367 . S
C4595 C4597 1.433 . S
C4596 C4592 1.350 . S
C4596 C4593 1.463 . S
C4596 N4600 1.427 . S
C4597 H4587 0.929 . S
C4597 C4595 1.433 . S
C4597 N4600 1.384 . S
C4598 H4589 0.929 1_455 S
C4598 C4590 1.378 . S
C4598 C4593 1.350 1_455 S
C4599 H4586 0.929 . S
C4599 C4591 1.433 . S
C4599 N4601 1.384 . S
N4600 C4596 1.427 . S
N4600 C4597 1.384 . S
N4601 C4593 1.427 1_455 S
N4601 C4599 1.384 . S
H4602 C4608 0.930 . S
H4603 C4612 0.930 . S
H4604 C4617 0.929 . S
H4605 C4615 0.929 . S
H4606 C4610 0.929 . S
H4607 C4616 0.929 1_565 S
C4608 H4602 0.930 . S
C4608 C4609 1.367 . S
C4608 C4616 1.378 . S
C4609 C4608 1.367 . S
C4609 C4617 1.433 . S
C4610 H4606 0.929 . S
C4610 C4612 1.378 . S
C4610 C4614 1.350 . S
C4611 C4614 1.463 . S
C4611 C4616 1.350 1_565 S
C4611 N4619 1.427 1_565 S
C4612 H4603 0.930 . S
C4612 C4610 1.378 . S
C4612 C4613 1.367 . S
C4613 C4612 1.367 . S
C4613 C4615 1.433 . S
C4614 C4610 1.350 . S
C4614 C4611 1.463 . S
C4614 N4618 1.427 . S
C4615 H4605 0.929 . S
C4615 C4613 1.433 . S
C4615 N4618 1.384 . S
C4616 H4607 0.929 1_545 S
C4616 C4608 1.378 . S
C4616 C4611 1.350 1_545 S
C4617 H4604 0.929 . S
C4617 C4609 1.433 . S
C4617 N4619 1.384 . S
N4618 C4614 1.427 . S
N4618 C4615 1.384 . S
N4619 C4611 1.427 1_545 S
N4619 C4617 1.384 . S
H4620 C4626 0.930 . S
H4621 C4630 0.930 . S
H4622 C4635 0.929 . S
H4623 C4633 0.929 . S
H4624 C4628 0.929 . S
H4625 C4634 0.953 . S
C4626 H4620 0.930 . S
C4626 C4627 1.367 . S
C4626 C4634 1.378 . S
C4627 C4626 1.367 . S
C4627 C4635 1.433 . S
C4628 H4624 0.929 . S
C4628 C4630 1.378 . S
C4628 C4632 1.350 . S
C4629 C4632 1.463 . S
C4629 C4634 1.350 1_455 S
C4629 N4637 1.427 1_455 S
C4630 H4621 0.930 . S
C4630 C4628 1.378 . S
C4630 C4631 1.367 . S
C4631 C4630 1.367 . S
C4631 C4633 1.433 . S
C4632 C4628 1.350 . S
C4632 C4629 1.463 . S
C4632 N4636 1.427 . S
C4633 H4623 0.929 . S
C4633 C4631 1.433 . S
C4633 N4636 1.384 . S
C4634 H4625 0.953 . S
C4634 C4626 1.378 . S
C4634 C4629 1.350 1_655 S
C4635 H4622 0.929 . S
C4635 C4627 1.433 . S
C4635 N4637 1.384 . S
N4636 C4632 1.427 . S
N4636 C4633 1.384 . S
N4637 C4629 1.427 1_655 S
N4637 C4635 1.384 . S
H4638 C4644 0.930 . S
H4639 C4648 0.930 . S
H4640 C4653 0.929 . S
H4641 C4651 0.929 . S
H4642 C4646 0.929 . S
H4643 C4652 0.929 . S
C4644 H4638 0.930 . S
C4644 C4645 1.367 . S
C4644 C4652 1.378 . S
C4645 C4644 1.367 . S
C4645 C4653 1.433 . S
C4646 H4642 0.929 . S
C4646 C4648 1.378 . S
C4646 C4650 1.350 . S
C4647 C4650 1.463 . S
C4647 C4652 1.350 1_545 S
C4647 N4655 1.427 1_545 S
C4648 H4639 0.930 . S
C4648 C4646 1.378 . S
C4648 C4649 1.367 . S
C4649 C4648 1.367 . S
C4649 C4651 1.433 . S
C4650 C4646 1.350 . S
C4650 C4647 1.463 . S
C4650 N4654 1.427 . S
C4651 H4641 0.929 . S
C4651 C4649 1.433 . S
C4651 N4654 1.384 . S
C4652 H4643 0.929 . S
C4652 C4644 1.378 . S
C4652 C4647 1.350 1_565 S
C4653 H4640 0.929 . S
C4653 C4645 1.433 . S
C4653 N4655 1.384 . S
N4654 C4650 1.427 . S
N4654 C4651 1.384 . S
N4655 C4647 1.427 1_565 S
N4655 C4653 1.384 . S
H4656 C4662 0.930 . S
H4657 C4666 0.930 . S
H4658 C4671 0.929 . S
H4659 C4669 0.929 . S
H4660 C4664 0.929 1_565 S
H4661 C4670 0.929 . S
C4662 H4656 0.930 . S
C4662 C4663 1.367 . S
C4662 C4670 1.378 . S
C4663 C4662 1.367 . S
C4663 C4671 1.433 . S
C4664 H4660 0.929 1_545 S
C4664 C4666 1.378 . S
C4664 C4668 1.350 1_545 S
C4665 C4668 1.463 . S
C4665 C4670 1.350 . S
C4665 N4673 1.427 . S
C4666 H4657 0.930 . S
C4666 C4664 1.378 . S
C4666 C4667 1.367 . S
C4667 C4666 1.367 . S
C4667 C4669 1.433 . S
C4668 C4664 1.350 1_565 S
C4668 C4665 1.463 . S
C4668 N4672 1.427 1_565 S
C4669 H4659 0.929 . S
C4669 C4667 1.433 . S
C4669 N4672 1.384 . S
C4670 H4661 0.929 . S
C4670 C4662 1.378 . S
C4670 C4665 1.350 . S
C4671 H4658 0.929 . S
C4671 C4663 1.433 . S
C4671 N4673 1.384 . S
N4672 C4668 1.427 1_545 S
N4672 C4669 1.384 . S
N4673 C4665 1.427 . S
N4673 C4671 1.384 . S
H4674 C4680 0.930 . S
H4675 C4684 0.930 . S
H4676 C4689 0.929 . S
H4677 C4687 0.929 . S
H4678 C4682 0.929 . S
H4679 C4688 0.899 1_545 S
C4680 H4674 0.930 . S
C4680 C4681 1.367 . S
C4680 C4688 1.378 . S
C4681 C4680 1.367 . S
C4681 C4689 1.433 . S
C4682 H4678 0.929 . S
C4682 C4684 1.378 . S
C4682 C4686 1.350 . S
C4683 C4686 1.463 . S
C4683 C4688 1.350 1_545 S
C4683 N4691 1.427 1_545 S
C4684 H4675 0.930 . S
C4684 C4682 1.378 . S
C4684 C4685 1.367 . S
C4685 C4684 1.367 . S
C4685 C4687 1.433 . S
C4686 C4682 1.350 . S
C4686 C4683 1.463 . S
C4686 N4690 1.427 . S
C4687 H4677 0.929 . S
C4687 C4685 1.433 . S
C4687 N4690 1.384 . S
C4688 H4679 0.899 1_565 S
C4688 C4680 1.378 . S
C4688 C4683 1.350 1_565 S
C4689 H4676 0.929 . S
C4689 C4681 1.433 . S
C4689 N4691 1.384 . S
N4690 C4686 1.427 . S
N4690 C4687 1.384 . S
N4691 C4683 1.427 1_565 S
N4691 C4689 1.384 . S
H4692 C4698 0.930 . S
H4693 C4702 0.930 . S
H4694 C4707 0.929 . S
H4695 C4705 0.929 . S
H4696 C4700 0.929 . S
H4697 C4706 0.929 1_655 S
C4698 H4692 0.930 . S
C4698 C4699 1.367 . S
C4698 C4706 1.378 . S
C4699 C4698 1.367 . S
C4699 C4707 1.433 . S
C4700 H4696 0.929 . S
C4700 C4702 1.378 . S
C4700 C4704 1.350 . S
C4701 C4704 1.463 . S
C4701 C4706 1.350 1_655 S
C4701 N4709 1.427 1_655 S
C4702 H4693 0.930 . S
C4702 C4700 1.378 . S
C4702 C4703 1.367 . S
C4703 C4702 1.367 . S
C4703 C4705 1.433 . S
C4704 C4700 1.350 . S
C4704 C4701 1.463 . S
C4704 N4708 1.427 . S
C4705 H4695 0.929 . S
C4705 C4703 1.433 . S
C4705 N4708 1.384 . S
C4706 H4697 0.929 1_455 S
C4706 C4698 1.378 . S
C4706 C4701 1.350 1_455 S
C4707 H4694 0.929 . S
C4707 C4699 1.433 . S
C4707 N4709 1.384 . S
N4708 C4704 1.427 . S
N4708 C4705 1.384 . S
N4709 C4701 1.427 1_455 S
N4709 C4707 1.384 . S
H4710 C4716 0.930 . S
H4711 C4720 0.930 . S
H4712 C4725 0.929 . S
H4713 C4723 0.929 . S
H4714 C4718 0.929 . S
H4715 C4724 0.912 1_565 S
C4716 H4710 0.930 . S
C4716 C4717 1.367 . S
C4716 C4724 1.378 . S
C4717 C4716 1.367 . S
C4717 C4725 1.433 . S
C4718 H4714 0.929 . S
C4718 C4720 1.378 . S
C4718 C4722 1.350 . S
C4719 C4722 1.463 . S
C4719 C4724 1.350 1_565 S
C4719 N4727 1.427 1_565 S
C4720 H4711 0.930 . S
C4720 C4718 1.378 . S
C4720 C4721 1.367 . S
C4721 C4720 1.367 . S
C4721 C4723 1.433 . S
C4722 C4718 1.350 . S
C4722 C4719 1.463 . S
C4722 N4726 1.427 . S
C4723 H4713 0.929 . S
C4723 C4721 1.433 . S
C4723 N4726 1.384 . S
C4724 H4715 0.912 1_545 S
C4724 C4716 1.378 . S
C4724 C4719 1.350 1_545 S
C4725 H4712 0.929 . S
C4725 C4717 1.433 . S
C4725 N4727 1.384 . S
N4726 C4722 1.427 . S
N4726 C4723 1.384 . S
N4727 C4719 1.427 1_545 S
N4727 C4725 1.384 . S
H4728 C4734 0.930 . S
H4729 C4738 0.930 . S
H4730 C4743 0.929 . S
H4731 C4741 0.929 . S
H4732 C4736 0.929 . S
H4733 C4742 0.929 . S
C4734 H4728 0.930 . S
C4734 C4735 1.367 . S
C4734 C4742 1.378 . S
C4735 C4734 1.367 . S
C4735 C4743 1.433 . S
C4736 H4732 0.929 . S
C4736 C4738 1.378 . S
C4736 C4740 1.350 . S
C4737 C4740 1.463 . S
C4737 C4742 1.350 1_455 S
C4737 N4745 1.427 1_455 S
C4738 H4729 0.930 . S
C4738 C4736 1.378 . S
C4738 C4739 1.367 . S
C4739 C4738 1.367 . S
C4739 C4741 1.433 . S
C4740 C4736 1.350 . S
C4740 C4737 1.463 . S
C4740 N4744 1.427 . S
C4741 H4731 0.929 . S
C4741 C4739 1.433 . S
C4741 N4744 1.384 . S
C4742 H4733 0.929 . S
C4742 C4734 1.378 . S
C4742 C4737 1.350 1_655 S
C4743 H4730 0.929 . S
C4743 C4735 1.433 . S
C4743 N4745 1.384 . S
N4744 C4740 1.427 . S
N4744 C4741 1.384 . S
N4745 C4737 1.427 1_655 S
N4745 C4743 1.384 . S
H4746 C4752 0.930 . S
H4747 C4756 0.930 . S
H4748 C4761 0.929 . S
H4749 C4759 0.929 . S
H4750 C4754 0.929 . S
H4751 C4760 0.929 . S
C4752 H4746 0.930 . S
C4752 C4753 1.367 . S
C4752 C4760 1.378 . S
C4753 C4752 1.367 . S
C4753 C4761 1.433 . S
C4754 H4750 0.929 . S
C4754 C4756 1.378 . S
C4754 C4758 1.350 1_565 S
C4755 C4758 1.463 . S
C4755 C4760 1.350 . S
C4755 N4763 1.427 . S
C4756 H4747 0.930 . S
C4756 C4754 1.378 . S
C4756 C4757 1.367 . S
C4757 C4756 1.367 . S
C4757 C4759 1.433 . S
C4758 C4754 1.350 1_545 S
C4758 C4755 1.463 . S
C4758 N4762 1.427 1_545 S
C4759 H4749 0.929 . S
C4759 C4757 1.433 . S
C4759 N4762 1.384 . S
C4760 H4751 0.929 . S
C4760 C4752 1.378 . S
C4760 C4755 1.350 . S
C4761 H4748 0.929 . S
C4761 C4753 1.433 . S
C4761 N4763 1.384 . S
N4762 C4758 1.427 1_565 S
N4762 C4759 1.384 . S
N4763 C4755 1.427 . S
N4763 C4761 1.384 . S
H4764 C4770 0.930 . S
H4765 C4774 0.930 . S
H4766 C4779 0.929 . S
H4767 C4777 0.929 . S
H4768 C4772 0.929 . S
H4769 C4778 0.929 . S
C4770 H4764 0.930 . S
C4770 C4771 1.367 . S
C4770 C4778 1.378 . S
C4771 C4770 1.367 . S
C4771 C4779 1.433 . S
C4772 H4768 0.929 . S
C4772 C4774 1.378 . S
C4772 C4776 1.350 1_455 S
C4773 C4776 1.463 . S
C4773 C4778 1.350 . S
C4773 N4781 1.427 . S
C4774 H4765 0.930 . S
C4774 C4772 1.378 . S
C4774 C4775 1.367 . S
C4775 C4774 1.367 . S
C4775 C4777 1.433 . S
C4776 C4772 1.350 1_655 S
C4776 C4773 1.463 . S
C4776 N4780 1.427 1_655 S
C4777 H4767 0.929 . S
C4777 C4775 1.433 . S
C4777 N4780 1.384 . S
C4778 H4769 0.929 . S
C4778 C4770 1.378 . S
C4778 C4773 1.350 . S
C4779 H4766 0.929 . S
C4779 C4771 1.433 . S
C4779 N4781 1.384 . S
N4780 C4776 1.427 1_455 S
N4780 C4777 1.384 . S
N4781 C4773 1.427 . S
N4781 C4779 1.384 . S
H4782 C4788 0.930 . S
H4783 C4792 0.930 . S
H4784 C4797 0.929 . S
H4785 C4795 0.929 . S
H4786 C4790 0.929 . S
H4787 C4796 0.945 . S
C4788 H4782 0.930 . S
C4788 C4789 1.367 . S
C4788 C4796 1.378 . S
C4789 C4788 1.367 . S
C4789 C4797 1.433 . S
C4790 H4786 0.929 . S
C4790 C4792 1.378 . S
C4790 C4794 1.350 . S
C4791 C4794 1.463 . S
C4791 C4796 1.350 1_455 S
C4791 N4799 1.427 1_455 S
C4792 H4783 0.930 . S
C4792 C4790 1.378 . S
C4792 C4793 1.367 . S
C4793 C4792 1.367 . S
C4793 C4795 1.433 . S
C4794 C4790 1.350 . S
C4794 C4791 1.463 . S
C4794 N4798 1.427 . S
C4795 H4785 0.929 . S
C4795 C4793 1.433 . S
C4795 N4798 1.384 . S
C4796 H4787 0.945 . S
C4796 C4788 1.378 . S
C4796 C4791 1.350 1_655 S
C4797 H4784 0.929 . S
C4797 C4789 1.433 . S
C4797 N4799 1.384 . S
N4798 C4794 1.427 . S
N4798 C4795 1.384 . S
N4799 C4791 1.427 1_655 S
N4799 C4797 1.384 . S
C1351 C8 1.265 . S
C1355 C442 1.289 . S
C1369 C22 1.265 . S
C1373 C400 1.289 . S
C1387 C414 1.289 . S
C1391 C36 1.253 . S
C1405 C428 1.282 . S
C1409 C50 1.251 . S
C1423 C358 1.284 . S
C1427 C64 1.260 . S
C1441 C372 1.289 . S
C1445 C78 1.253 . S
C1459 C92 1.249 . S
C1463 C386 1.286 . S
C1477 C344 1.288 . S
C1481 C106 1.252 . S
C1495 C120 1.254 . S
C1499 C624 1.289 . S
C1513 C134 1.248 . S
C1517 C582 1.284 . S
C1531 C148 1.256 . S
C1535 C596 1.290 . S
C1549 C162 1.263 . S
C1553 C610 1.285 . S
C1567 C176 1.256 . S
C1571 C666 1.290 . S
C1585 C190 1.249 . S
C1589 C638 1.286 . S
C1603 C204 1.260 . S
C1607 C652 1.291 . S
C1621 C568 1.283 . S
C1625 C218 1.258 . S
C1639 C232 1.263 . S
C1643 C554 1.291 . S
C1657 C470 1.287 . S
C1661 C246 1.250 . S
C1675 C484 1.282 . S
C1679 C260 1.256 . S
C1693 C274 1.265 . S
C1697 C498 1.288 . S
C1711 C456 1.290 . S
C1715 C288 1.255 . S
C1729 C526 1.286 . S
C1733 C302 1.264 . S
C1747 C316 1.257 . S
C1751 C540 1.291 . S
C1765 C330 1.248 . S
C1769 C512 1.284 . S
C1783 C1114 1.283 . S
C1787 C680 1.249 . S
C1801 C1072 1.291 . S
C1805 C694 1.260 . S
C1819 C708 1.262 . S
C1823 C1086 1.291 . S
C1837 C1100 1.285 . S
C1841 C722 1.262 . S
C1855 C736 1.249 . S
C1859 C1030 1.285 . S
C1873 C750 1.255 . S
C1877 C1044 1.290 . S
C1891 C1058 1.290 . S
C1895 C764 1.256 . S
C1909 C1016 1.286 . S
C1913 C778 1.249 . S
C1927 C1296 1.289 . S
C1931 C792 1.265 . S
C1945 C1254 1.284 . S
C1949 C806 1.261 . S
C1963 C820 1.265 . S
C1967 C1268 1.289 . S
C1981 C834 1.255 . S
C1985 C1282 1.290 . S
C1999 C1338 1.290 . S
C2003 C848 1.264 . S
C2017 C1310 1.288 . S
C2021 C862 1.251 . S
C2035 C1324 1.291 . S
C2039 C876 1.262 . S
C2053 C890 1.253 . S
C2057 C1240 1.289 . S
C2071 C1226 1.283 . S
C2075 C904 1.259 . S
C2089 C918 1.249 . S
C2093 C1142 1.285 . S
C2107 C1156 1.283 . S
C2111 C932 1.249 . S
C2125 C1170 1.288 . S
C2129 C946 1.265 . S
C2143 C1128 1.290 . S
C2147 C960 1.264 . S
C2161 C974 1.265 . S
C2165 C1198 1.288 . S
C2179 C988 1.261 . S
C2183 C1212 1.291 . S
C2197 C1184 1.289 . S
C2201 C1002 1.265 . S
C2215 C3 1.920 . S
C2219 C955 1.912 . S
C2233 C17 1.919 . S
C2237 C913 1.918 . S
C2251 C31 1.910 . S
C2255 C927 1.913 . S
C2269 C45 1.909 . S
C2273 C941 1.916 . S
C2287 C997 1.914 . S
C2291 C59 1.920 . S
C2305 C73 1.912 . S
C2309 C969 1.910 . S
C2323 C983 1.910 . S
C2327 C87 1.919 . S
C2341 C101 1.919 . S
C2345 C899 1.918 . S
C2359 C885 1.920 . S
C2363 C115 1.913 . S
C2377 C129 1.920 . S
C2381 C843 1.915 . S
C2395 C857 1.910 . S
C2399 C143 1.912 . S
C2413 C157 1.919 . S
C2417 C871 1.911 . S
C2431 C171 1.919 . S
C2435 C801 1.911 . S
C2449 C185 1.916 . S
C2453 C815 1.920 . S
C2467 C829 1.913 . S
C2471 C199 1.909 . S
C2485 C787 1.910 . S
C2489 C213 1.919 . S
C2503 C227 1.917 . S
C2507 C773 1.909 . S
C2521 C241 1.920 . S
C2525 C689 1.912 . S
C2539 C255 1.914 . S
C2543 C703 1.920 . S
C2557 C269 1.919 . S
C2561 C717 1.918 . S
C2575 C283 1.920 . S
C2579 C675 1.911 . S
C2593 C745 1.920 . S
C2597 C297 1.913 . S
C2611 C759 1.920 . S
C2615 C311 1.911 . S
C2629 C325 1.911 . S
C2633 C731 1.911 . S
C2647 C345 1.089 . S
C2651 C1297 1.092 . S
C2665 C359 1.090 . S
C2669 C1255 1.087 . S
C2683 C373 1.093 . S
C2687 C1269 1.084 . S
C2701 C387 1.082 . S
C2705 C1283 1.097 . S
C2719 C401 1.095 . S
C2723 C1339 1.086 . S
C2737 C1311 1.086 . S
C2741 C415 1.095 . S
C2755 C429 1.097 . S
C2759 C1325 1.082 . S
C2773 C443 1.082 . S
C2777 C1241 1.097 . S
C2791 C1227 1.096 . S
C2795 C457 1.082 . S
C2809 C1185 1.086 . S
C2813 C471 1.091 . S
C2827 C1199 1.096 . S
C2831 C485 1.082 . S
C2845 C1213 1.085 . S
C2849 C499 1.093 . S
C2863 C513 1.082 . S
C2867 C1143 1.097 . S
C2881 C527 1.095 . S
C2885 C1157 1.083 . S
C2899 C541 1.090 . S
C2903 C1171 1.087 . S
C2917 C1129 1.086 . S
C2921 C555 1.091 . S
C2935 C1115 1.083 . S
C2939 C569 1.095 . S
C2953 C583 1.082 . S
C2957 C1031 1.097 . S
C2971 C1045 1.097 . S
C2975 C597 1.082 . S
C2989 C1059 1.082 . S
C2993 C611 1.096 . S
C3007 C625 1.085 . S
C3011 C1017 1.092 . S
C3025 C639 1.094 . S
C3029 C1087 1.086 . S
C3043 C1101 1.091 . S
C3047 C653 1.090 . S
C3061 C667 1.091 . S
C3065 C1073 1.086 . S
C3079 C9 1.517 . S
C3083 C395 1.533 . S
C3097 C23 1.505 . S
C3101 C409 1.540 . S
C3115 C37 1.504 . S
C3119 C423 1.541 . S
C3133 C51 1.506 . S
C3137 C437 1.539 . S
C3151 C339 1.533 . S
C3155 C65 1.515 . S
C3169 C79 1.510 . S
C3173 C353 1.536 . S
C3187 C367 1.534 . S
C3191 C93 1.516 . S
C3205 C381 1.538 . S
C3209 C107 1.508 . S
C3223 C121 1.510 . S
C3227 C535 1.536 . S
C3241 C549 1.542 . S
C3245 C135 1.504 . S
C3259 C149 1.508 . S
C3263 C507 1.540 . S
C3277 C163 1.514 . S
C3281 C521 1.536 . S
C3295 C177 1.504 . S
C3299 C479 1.541 . S
C3313 C191 1.509 . S
C3317 C493 1.536 . S
C3331 C205 1.511 . S
C3335 C451 1.538 . S
C3349 C465 1.533 . S
C3353 C219 1.517 . S
C3367 C233 1.516 . S
C3371 C633 1.534 . S
C3385 C247 1.517 . S
C3389 C605 1.533 . S
C3403 C619 1.533 . S
C3407 C261 1.514 . S
C3421 C275 1.503 . S
C3425 C577 1.541 . S
C3439 C591 1.533 . S
C3443 C289 1.515 . S
C3457 C303 1.504 . S
C3461 C563 1.540 . S
C3475 C661 1.541 . S
C3479 C317 1.505 . S
C3493 C647 1.538 . S
C3497 C331 1.511 . S
C3511 C681 1.511 . S
C3515 C1067 1.535 . S
C3529 C695 1.504 . S
C3533 C1081 1.542 . S
C3547 C709 1.504 . S
C3551 C1095 1.540 . S
C3565 C1109 1.536 . S
C3569 C723 1.513 . S
C3583 C737 1.514 . S
C3587 C1011 1.533 . S
C3601 C751 1.504 . S
C3605 C1025 1.541 . S
C3619 C765 1.513 . S
C3623 C1039 1.534 . S
C3637 C779 1.517 . S
C3641 C1053 1.533 . S
C3655 C793 1.513 . S
C3659 C1207 1.536 . S
C3673 C1221 1.533 . S
C3677 C807 1.517 . S
C3691 C1179 1.542 . S
C3695 C821 1.504 . S
C3709 C1193 1.541 . S
C3713 C835 1.506 . S
C3727 C849 1.505 . S
C3731 C1151 1.540 . S
C3745 C1165 1.541 . S
C3749 C863 1.504 . S
C3763 C877 1.504 . S
C3767 C1123 1.540 . S
C3781 C1137 1.541 . S
C3785 C891 1.505 . S
C3799 C1305 1.533 . S
C3803 C905 1.517 . S
C3817 C1277 1.539 . S
C3821 C919 1.506 . S
C3835 C933 1.516 . S
C3839 C1291 1.534 . S
C3853 C947 1.505 . S
C3857 C1249 1.540 . S
C3871 C1263 1.533 . S
C3875 C961 1.516 . S
C3889 C975 1.517 . S
C3893 C1235 1.533 . S
C3907 C1333 1.533 . S
C3911 C989 1.515 . S
C3925 C1319 1.542 . S
C3929 C1003 1.504 . S
C3943 C371 1.406 . S
C3947 C7 1.393 . S
C3961 C21 1.407 . S
C3965 C385 1.396 . S
C3979 C343 1.396 . S
C3983 C35 1.403 . S
C3997 C49 1.410 . S
C4001 C357 1.402 . S
C4015 C427 1.406 . S
C4019 C63 1.407 . S
C4033 C441 1.412 . S
C4037 C77 1.394 . S
C4051 C91 1.393 . S
C4055 C399 1.411 . S
C4069 C413 1.412 . S
C4073 C105 1.395 . S
C4087 C119 1.401 . S
C4091 C511 1.398 . S
C4105 C133 1.410 . S
C4109 C525 1.399 . S
C4123 C539 1.402 . S
C4127 C147 1.410 . S
C4141 C161 1.405 . S
C4145 C553 1.409 . S
C4159 C175 1.407 . S
C4163 C455 1.396 . S
C4177 C469 1.401 . S
C4181 C189 1.397 . S
C4195 C483 1.399 . S
C4199 C203 1.399 . S
C4213 C497 1.405 . S
C4217 C217 1.394 . S
C4231 C231 1.400 . S
C4235 C609 1.398 . S
C4249 C637 1.396 . S
C4253 C245 1.406 . S
C4267 C259 1.394 . S
C4271 C651 1.412 . S
C4285 C567 1.397 . S
C4289 C273 1.410 . S
C4303 C665 1.413 . S
C4307 C287 1.395 . S
C4321 C581 1.396 . S
C4325 C301 1.406 . S
C4339 C315 1.399 . S
C4343 C595 1.399 . S
C4357 C329 1.408 . S
C4361 C623 1.396 . S
C4375 C679 1.394 . S
C4379 C1043 1.412 . S
C4393 C1057 1.412 . S
C4397 C693 1.395 . S
C4411 C1015 1.409 . S
C4415 C707 1.405 . S
C4429 C1029 1.411 . S
C4433 C721 1.393 . S
C4447 C735 1.399 . S
C4451 C1099 1.412 . S
C4465 C1113 1.411 . S
C4469 C749 1.393 . S
C4483 C763 1.410 . S
C4487 C1071 1.399 . S
C4501 C1085 1.412 . S
C4505 C777 1.394 . S
C4519 C791 1.397 . S
C4523 C1183 1.400 . S
C4537 C1197 1.406 . S
C4541 C805 1.408 . S
C4555 C819 1.410 . S
C4559 C1211 1.399 . S
C4573 C1225 1.406 . S
C4577 C833 1.408 . S
C4591 C1127 1.412 . S
C4595 C847 1.400 . S
C4609 C1141 1.404 . S
C4613 C861 1.409 . S
C4627 C1155 1.396 . S
C4631 C875 1.405 . S
C4645 C1169 1.404 . S
C4649 C889 1.394 . S
C4663 C903 1.402 . S
C4667 C1281 1.411 . S
C4681 C1309 1.413 . S
C4685 C917 1.396 . S
C4699 C1323 1.402 . S
C4703 C931 1.410 . S
C4717 C1239 1.413 . S
C4721 C945 1.395 . S
C4735 C1337 1.408 . S
C4739 C959 1.393 . S
C4753 C973 1.393 . S
C4757 C1253 1.408 . S
C4771 C987 1.394 . S
C4775 C1267 1.405 . S
C4789 C1295 1.411 . S
C4793 C1001 1.393 . S
