# Generated by pormake.
# Topology wjr, (5)-cn, num edge types: 1
# Building blocks:
#     Node 0, Type 0, BuildingBlock: XOMCOT_clean_sbu_0, # of connection points: 5
#     Node 1, Type 0, BuildingBlock: XOMCOT_clean_sbu_0, # of connection points: 5
#     Node 2, Type 0, BuildingBlock: XOMCOT_clean_sbu_0, # of connection points: 5
#     Node 3, Type 0, BuildingBlock: XOMCOT_clean_sbu_0, # of connection points: 5
#     Node 4, Type 0, BuildingBlock: XOMCOT_clean_sbu_0, # of connection points: 5
#     Node 5, Type 0, BuildingBlock: XOMCOT_clean_sbu_0, # of connection points: 5
#     Node 6, Type 0, BuildingBlock: XOMCOT_clean_sbu_0, # of connection points: 5
#     Node 7, Type 0, BuildingBlock: XOMCOT_clean_sbu_0, # of connection points: 5
#     Node 8, Type 0, BuildingBlock: XOMCOT_clean_sbu_0, # of connection points: 5
#     Node 9, Type 0, BuildingBlock: XOMCOT_clean_sbu_0, # of connection points: 5
#     Node 10, Type 0, BuildingBlock: XOMCOT_clean_sbu_0, # of connection points: 5
#     Node 11, Type 0, BuildingBlock: XOMCOT_clean_sbu_0, # of connection points: 5
#     Node 12, Type 0, BuildingBlock: XOMCOT_clean_sbu_0, # of connection points: 5
#     Node 13, Type 0, BuildingBlock: XOMCOT_clean_sbu_0, # of connection points: 5
#     Node 14, Type 0, BuildingBlock: XOMCOT_clean_sbu_0, # of connection points: 5
#     Node 15, Type 0, BuildingBlock: XOMCOT_clean_sbu_0, # of connection points: 5
#     Node 16, Type 0, BuildingBlock: XOMCOT_clean_sbu_0, # of connection points: 5
#     Node 17, Type 0, BuildingBlock: XOMCOT_clean_sbu_0, # of connection points: 5
#     Node 18, Type 0, BuildingBlock: XOMCOT_clean_sbu_0, # of connection points: 5
#     Node 19, Type 0, BuildingBlock: XOMCOT_clean_sbu_0, # of connection points: 5
#     Node 20, Type 0, BuildingBlock: XOMCOT_clean_sbu_0, # of connection points: 5
#     Node 21, Type 0, BuildingBlock: XOMCOT_clean_sbu_0, # of connection points: 5
#     Node 22, Type 0, BuildingBlock: XOMCOT_clean_sbu_0, # of connection points: 5
#     Node 23, Type 0, BuildingBlock: XOMCOT_clean_sbu_0, # of connection points: 5
#     Edge 24, Type (0, 0), BuildingBlock: UVAHIK_clean_linker_0, # of connection points: 2
#     Edge 25, Type (0, 0), BuildingBlock: UVAHIK_clean_linker_0, # of connection points: 2
#     Edge 26, Type (0, 0), BuildingBlock: UVAHIK_clean_linker_0, # of connection points: 2
#     Edge 27, Type (0, 0), BuildingBlock: UVAHIK_clean_linker_0, # of connection points: 2
#     Edge 28, Type (0, 0), BuildingBlock: UVAHIK_clean_linker_0, # of connection points: 2
#     Edge 29, Type (0, 0), BuildingBlock: UVAHIK_clean_linker_0, # of connection points: 2
#     Edge 30, Type (0, 0), BuildingBlock: UVAHIK_clean_linker_0, # of connection points: 2
#     Edge 31, Type (0, 0), BuildingBlock: UVAHIK_clean_linker_0, # of connection points: 2
#     Edge 32, Type (0, 0), BuildingBlock: UVAHIK_clean_linker_0, # of connection points: 2
#     Edge 33, Type (0, 0), BuildingBlock: UVAHIK_clean_linker_0, # of connection points: 2
#     Edge 34, Type (0, 0), BuildingBlock: UVAHIK_clean_linker_0, # of connection points: 2
#     Edge 35, Type (0, 0), BuildingBlock: UVAHIK_clean_linker_0, # of connection points: 2
#     Edge 36, Type (0, 0), BuildingBlock: UVAHIK_clean_linker_0, # of connection points: 2
#     Edge 37, Type (0, 0), BuildingBlock: UVAHIK_clean_linker_0, # of connection points: 2
#     Edge 38, Type (0, 0), BuildingBlock: UVAHIK_clean_linker_0, # of connection points: 2
#     Edge 39, Type (0, 0), BuildingBlock: UVAHIK_clean_linker_0, # of connection points: 2
#     Edge 40, Type (0, 0), BuildingBlock: UVAHIK_clean_linker_0, # of connection points: 2
#     Edge 41, Type (0, 0), BuildingBlock: UVAHIK_clean_linker_0, # of connection points: 2
#     Edge 42, Type (0, 0), BuildingBlock: UVAHIK_clean_linker_0, # of connection points: 2
#     Edge 43, Type (0, 0), BuildingBlock: UVAHIK_clean_linker_0, # of connection points: 2
#     Edge 44, Type (0, 0), BuildingBlock: UVAHIK_clean_linker_0, # of connection points: 2
#     Edge 45, Type (0, 0), BuildingBlock: UVAHIK_clean_linker_0, # of connection points: 2
#     Edge 46, Type (0, 0), BuildingBlock: UVAHIK_clean_linker_0, # of connection points: 2
#     Edge 47, Type (0, 0), BuildingBlock: UVAHIK_clean_linker_0, # of connection points: 2
#     Edge 48, Type (0, 0), BuildingBlock: UVAHIK_clean_linker_0, # of connection points: 2
#     Edge 49, Type (0, 0), BuildingBlock: UVAHIK_clean_linker_0, # of connection points: 2
#     Edge 50, Type (0, 0), BuildingBlock: UVAHIK_clean_linker_0, # of connection points: 2
#     Edge 51, Type (0, 0), BuildingBlock: UVAHIK_clean_linker_0, # of connection points: 2
#     Edge 52, Type (0, 0), BuildingBlock: UVAHIK_clean_linker_0, # of connection points: 2
#     Edge 53, Type (0, 0), BuildingBlock: UVAHIK_clean_linker_0, # of connection points: 2
#     Edge 54, Type (0, 0), BuildingBlock: UVAHIK_clean_linker_0, # of connection points: 2
#     Edge 55, Type (0, 0), BuildingBlock: UVAHIK_clean_linker_0, # of connection points: 2
#     Edge 56, Type (0, 0), BuildingBlock: UVAHIK_clean_linker_0, # of connection points: 2
#     Edge 57, Type (0, 0), BuildingBlock: UVAHIK_clean_linker_0, # of connection points: 2
#     Edge 58, Type (0, 0), BuildingBlock: UVAHIK_clean_linker_0, # of connection points: 2
#     Edge 59, Type (0, 0), BuildingBlock: UVAHIK_clean_linker_0, # of connection points: 2
#     Edge 60, Type (0, 0), BuildingBlock: UVAHIK_clean_linker_0, # of connection points: 2
#     Edge 61, Type (0, 0), BuildingBlock: UVAHIK_clean_linker_0, # of connection points: 2
#     Edge 62, Type (0, 0), BuildingBlock: UVAHIK_clean_linker_0, # of connection points: 2
#     Edge 63, Type (0, 0), BuildingBlock: UVAHIK_clean_linker_0, # of connection points: 2
#     Edge 64, Type (0, 0), BuildingBlock: UVAHIK_clean_linker_0, # of connection points: 2
#     Edge 65, Type (0, 0), BuildingBlock: UVAHIK_clean_linker_0, # of connection points: 2
#     Edge 66, Type (0, 0), BuildingBlock: UVAHIK_clean_linker_0, # of connection points: 2
#     Edge 67, Type (0, 0), BuildingBlock: UVAHIK_clean_linker_0, # of connection points: 2
#     Edge 68, Type (0, 0), BuildingBlock: UVAHIK_clean_linker_0, # of connection points: 2
#     Edge 69, Type (0, 0), BuildingBlock: UVAHIK_clean_linker_0, # of connection points: 2
#     Edge 70, Type (0, 0), BuildingBlock: UVAHIK_clean_linker_0, # of connection points: 2
#     Edge 71, Type (0, 0), BuildingBlock: UVAHIK_clean_linker_0, # of connection points: 2
#     Edge 72, Type (0, 0), BuildingBlock: UVAHIK_clean_linker_0, # of connection points: 2
#     Edge 73, Type (0, 0), BuildingBlock: UVAHIK_clean_linker_0, # of connection points: 2
#     Edge 74, Type (0, 0), BuildingBlock: UVAHIK_clean_linker_0, # of connection points: 2
#     Edge 75, Type (0, 0), BuildingBlock: UVAHIK_clean_linker_0, # of connection points: 2
#     Edge 76, Type (0, 0), BuildingBlock: UVAHIK_clean_linker_0, # of connection points: 2
#     Edge 77, Type (0, 0), BuildingBlock: UVAHIK_clean_linker_0, # of connection points: 2
#     Edge 78, Type (0, 0), BuildingBlock: UVAHIK_clean_linker_0, # of connection points: 2
#     Edge 79, Type (0, 0), BuildingBlock: UVAHIK_clean_linker_0, # of connection points: 2
#     Edge 80, Type (0, 0), BuildingBlock: UVAHIK_clean_linker_0, # of connection points: 2
#     Edge 81, Type (0, 0), BuildingBlock: UVAHIK_clean_linker_0, # of connection points: 2
#     Edge 82, Type (0, 0), BuildingBlock: UVAHIK_clean_linker_0, # of connection points: 2
#     Edge 83, Type (0, 0), BuildingBlock: UVAHIK_clean_linker_0, # of connection points: 2
# Relax obj value: 0.394
# Max RMSD: 0.198
# Mean RMSD: 0.198
data_MOF--net-wjr--node1-XOMCOT_clean_sbu_0--edge1-UVAHIK_clean_linker_0
_symmetry_space_group_name_H-M    P1
_symmetry_Int_Tables_number       1
_symmetry_cell_setting            triclinic
loop_
_symmetry_equiv_pos_as_xyz
'x, y, z'
_cell_length_a     81.259925
_cell_length_b     81.211184
_cell_length_c     64.346372
_cell_angle_alpha  89.995888
_cell_angle_beta   89.987431
_cell_angle_gamma 120.00091
loop_
_atom_site_label
_atom_site_type_symbol
_atom_site_fract_x
_atom_site_fract_y
_atom_site_fract_z
_atom_type_partial_charge
Co0 Co 0.46504 0.10867 0.17615 0.0
C1 C 0.45703 0.13762 0.19465 0.0
C2 C 0.44333 0.11116 0.21103 0.0
C3 C 0.44058 0.12406 0.22197 0.0
N4 N 0.45319 0.11941 0.19352 0.0
N5 N 0.44931 0.14075 0.21174 0.0
H6 H 0.46676 0.14883 0.18447 0.0
H7 H 0.43959 0.09712 0.21645 0.0
C8 C 0.42535 0.07613 0.18205 0.0
O9 O 0.41864 0.08702 0.17573 0.0
N10 N 0.47713 0.09788 0.15979 0.0
C11 C 0.4864 0.10439 0.14162 0.0
C12 C 0.4933 0.09272 0.13551 0.0
C13 C 0.47875 0.08264 0.16472 0.0
N14 N 0.48852 0.07915 0.15011 0.0
C15 C 0.45842 0.12898 0.14357 0.0
C16 C 0.43696 0.09761 0.11873 0.0
C17 C 0.44211 0.1157 0.11102 0.0
C18 C 0.45278 0.13149 0.12386 0.0
C19 C 0.44292 0.09574 0.13849 0.0
N20 N 0.45332 0.11127 0.15084 0.0
H21 H 0.46792 0.14142 0.15233 0.0
H22 H 0.44013 0.08184 0.14328 0.0
H23 H 0.48811 0.11681 0.13348 0.0
H24 H 0.47284 0.07428 0.17868 0.0
O25 O 0.48867 0.13283 0.17588 0.0
O26 O 0.48027 0.11015 0.19964 0.0
O27 O 0.44323 0.08237 0.18187 0.0
C28 C 0.4928 0.12686 0.19283 0.0
H29 H 0.43345 0.12153 0.23682 0.0
H30 H 0.50154 0.09433 0.12166 0.0
H31 H 0.42934 0.08507 0.10913 0.0
H32 H 0.45731 0.14576 0.11846 0.0
Co33 Co 0.35713 0.46612 0.18082 0.0
C34 C 0.32022 0.45763 0.19973 0.0
C35 C 0.33238 0.44261 0.21451 0.0
C36 C 0.31701 0.43989 0.22597 0.0
N37 N 0.33422 0.45333 0.19765 0.0
N38 N 0.30946 0.44946 0.21675 0.0
H39 H 0.31909 0.46811 0.19047 0.0
H40 H 0.34249 0.43845 0.21938 0.0
C41 C 0.35033 0.42651 0.18424 0.0
O42 O 0.33313 0.42027 0.17686 0.0
N43 N 0.38037 0.4792 0.16503 0.0
C44 C 0.38334 0.48985 0.14789 0.0
C45 C 0.40172 0.49658 0.14127 0.0
C46 C 0.39696 0.4798 0.16886 0.0
N47 N 0.41025 0.49027 0.15449 0.0
C48 C 0.33003 0.45904 0.14826 0.0
C49 C 0.34353 0.44181 0.12159 0.0
C50 C 0.33016 0.44646 0.11422 0.0
C51 C 0.32294 0.45465 0.12798 0.0
C52 C 0.35016 0.44635 0.14192 0.0
N53 N 0.34353 0.45497 0.15503 0.0
H54 H 0.3257 0.46703 0.15784 0.0
H55 H 0.36164 0.4441 0.14663 0.0
H56 H 0.37283 0.49245 0.14067 0.0
H57 H 0.39916 0.47253 0.18173 0.0
O58 O 0.35583 0.48927 0.181 0.0
O59 O 0.3701 0.48093 0.2049 0.0
O60 O 0.3619 0.44437 0.1858 0.0
C61 C 0.36548 0.49319 0.19822 0.0
H62 H 0.31245 0.43237 0.24061 0.0
H63 H 0.40838 0.50562 0.12793 0.0
H64 H 0.34958 0.43561 0.11138 0.0
H65 H 0.31299 0.45894 0.1227 0.0
Co66 Co 0.88257 0.35133 0.18318 0.0
C67 C 0.8536 0.31254 0.19756 0.0
C68 C 0.87875 0.32521 0.21629 0.0
C69 C 0.8656 0.30867 0.22566 0.0
N70 N 0.8715 0.32753 0.19838 0.0
N71 N 0.84975 0.3008 0.21397 0.0
H72 H 0.84297 0.31115 0.18654 0.0
H73 H 0.89212 0.33558 0.22311 0.0
C74 C 0.91563 0.3451 0.19013 0.0
O75 O 0.9059 0.32797 0.1821 0.0
N76 N 0.8937 0.37535 0.16885 0.0
C77 C 0.88713 0.37942 0.15153 0.0
C78 C 0.89973 0.39789 0.14584 0.0
C79 C 0.90998 0.39131 0.17366 0.0
N80 N 0.91406 0.40531 0.15977 0.0
C81 C 0.86517 0.32743 0.14749 0.0
C82 C 0.89851 0.34031 0.12531 0.0
C83 C 0.8812 0.32858 0.11526 0.0
C84 C 0.86438 0.32176 0.12679 0.0
C85 C 0.89864 0.34582 0.14583 0.0
N86 N 0.88215 0.33929 0.15684 0.0
H87 H 0.85202 0.32342 0.15539 0.0
H88 H 0.91204 0.35639 0.15233 0.0
H89 H 0.87423 0.36955 0.14347 0.0
H90 H 0.91887 0.39249 0.18674 0.0
O91 O 0.85804 0.34996 0.18188 0.0
O92 O 0.87907 0.36296 0.20743 0.0
O93 O 0.90869 0.35617 0.19047 0.0
C94 C 0.86267 0.35881 0.19968 0.0
H95 H 0.8672 0.30342 0.24055 0.0
H96 H 0.89842 0.40529 0.13252 0.0
H97 H 0.9119 0.34595 0.11712 0.0
H98 H 0.85064 0.31312 0.11955 0.0
Co99 Co 0.54513 0.88951 0.16722 0.0
C100 C 0.55128 0.85962 0.18534 0.0
C101 C 0.57741 0.88594 0.18109 0.0
C102 C 0.5814 0.87326 0.19086 0.0
N103 N 0.55853 0.87743 0.17792 0.0
N104 N 0.56495 0.85678 0.19347 0.0
H105 H 0.53631 0.84914 0.18551 0.0
H106 H 0.58754 0.90045 0.17697 0.0
C107 C 0.5679 0.92144 0.19325 0.0
O108 O 0.57778 0.9264 0.17592 0.0
N109 N 0.53171 0.9016 0.15626 0.0
C110 C 0.51633 0.89325 0.14381 0.0
C111 C 0.5107 0.90623 0.13921 0.0
C112 C 0.53518 0.9195 0.15919 0.0
N113 N 0.52253 0.92267 0.14895 0.0
C114 C 0.5338 0.86224 0.13333 0.0
C115 C 0.55925 0.88955 0.10605 0.0
C116 C 0.5466 0.87132 0.09847 0.0
C117 C 0.53405 0.85737 0.11246 0.0
C118 C 0.55853 0.89375 0.12684 0.0
N119 N 0.54567 0.88038 0.13992 0.0
H120 H 0.52381 0.85168 0.14399 0.0
H121 H 0.56791 0.90797 0.13258 0.0
H122 H 0.50954 0.87865 0.13859 0.0
H123 H 0.5467 0.93008 0.16845 0.0
O124 O 0.51983 0.86759 0.1762 0.0
O125 O 0.53645 0.89102 0.19606 0.0
O126 O 0.55194 0.90556 0.19369 0.0
C127 C 0.52091 0.87508 0.19381 0.0
H128 H 0.59527 0.87593 0.19576 0.0
H129 H 0.49857 0.90365 0.12985 0.0
H130 H 0.56943 0.90061 0.09591 0.0
H131 H 0.52412 0.84312 0.10718 0.0
Co132 Co 0.65757 0.55098 0.15985 0.0
C133 C 0.68968 0.5545 0.18483 0.0
C134 C 0.69373 0.58157 0.17512 0.0
C135 C 0.70856 0.58463 0.18796 0.0
N136 N 0.68188 0.56271 0.17337 0.0
N137 N 0.70592 0.56758 0.19402 0.0
H138 H 0.68333 0.53933 0.18713 0.0
H139 H 0.69148 0.59234 0.16801 0.0
C140 C 0.64875 0.57556 0.18364 0.0
O141 O 0.65537 0.58571 0.1666 0.0
N142 N 0.63306 0.53932 0.14613 0.0
C143 C 0.62718 0.52631 0.13075 0.0
C144 C 0.60847 0.52037 0.12627 0.0
C145 C 0.61774 0.54093 0.15094 0.0
N146 N 0.60256 0.52951 0.13906 0.0
C147 C 0.67494 0.53727 0.13039 0.0
C148 C 0.68076 0.56467 0.10107 0.0
C149 C 0.68587 0.55098 0.09623 0.0
C150 C 0.68298 0.53719 0.11117 0.0
C151 C 0.67255 0.56406 0.12026 0.0
N152 N 0.66949 0.55035 0.13434 0.0
H153 H 0.67286 0.52671 0.14188 0.0
H154 H 0.66828 0.57439 0.1239 0.0
H155 H 0.63564 0.52097 0.12366 0.0
H156 H 0.61746 0.54996 0.16308 0.0
O157 O 0.65116 0.52493 0.16988 0.0
O158 O 0.64441 0.54279 0.18757 0.0
O159 O 0.64729 0.55897 0.18451 0.0
C160 C 0.64358 0.52658 0.18636 0.0
H161 H 0.72028 0.5983 0.19262 0.0
H162 H 0.59967 0.50958 0.11507 0.0
H163 H 0.68253 0.57541 0.08988 0.0
H164 H 0.68686 0.52647 0.10801 0.0
Co165 Co 0.10821 0.64518 0.18159 0.0
C166 C 0.13623 0.6833 0.19824 0.0
C167 C 0.10959 0.67085 0.21424 0.0
C168 C 0.12217 0.68709 0.22455 0.0
N169 N 0.11816 0.66864 0.19735 0.0
N170 N 0.13897 0.69484 0.21459 0.0
H171 H 0.14763 0.68452 0.18856 0.0
H172 H 0.0956 0.66059 0.21979 0.0
C173 C 0.07423 0.6505 0.18539 0.0
O174 O 0.08454 0.66823 0.1792 0.0
N175 N 0.09814 0.62146 0.16685 0.0
C176 C 0.10518 0.61774 0.14966 0.0
C177 C 0.09326 0.59903 0.14412 0.0
C178 C 0.08233 0.60509 0.17174 0.0
N179 N 0.07895 0.59115 0.15807 0.0
C180 C 0.12762 0.67029 0.14734 0.0
C181 C 0.09605 0.65663 0.12195 0.0
C182 C 0.114 0.66879 0.11343 0.0
C183 C 0.12986 0.67614 0.12657 0.0
C184 C 0.09445 0.65111 0.14271 0.0
N185 N 0.11011 0.65781 0.1552 0.0
H186 H 0.14019 0.6746 0.1565 0.0
H187 H 0.08071 0.64021 0.14815 0.0
H188 H 0.11796 0.62794 0.14165 0.0
H189 H 0.07332 0.60353 0.18485 0.0
O190 O 0.13284 0.64686 0.18203 0.0
O191 O 0.1105 0.63309 0.2062 0.0
O192 O 0.0815 0.63976 0.18654 0.0
C193 C 0.12731 0.6375 0.19947 0.0
H194 H 0.11939 0.69221 0.23891 0.0
H195 H 0.09504 0.59178 0.13095 0.0
H196 H 0.08341 0.65055 0.11236 0.0
H197 H 0.14405 0.68518 0.12052 0.0
Co198 Co 0.87792 0.52486 0.32327 0.0
C199 C 0.84925 0.53582 0.31028 0.0
C200 C 0.87078 0.5419 0.28741 0.0
C201 C 0.85743 0.54539 0.27875 0.0
N202 N 0.86582 0.53603 0.30723 0.0
N203 N 0.84399 0.54159 0.29314 0.0
H204 H 0.84042 0.53026 0.32388 0.0
H205 H 0.88277 0.54251 0.27939 0.0
C206 C 0.90909 0.5641 0.31238 0.0
O207 O 0.8982 0.571 0.31807 0.0
N208 N 0.89016 0.51353 0.33839 0.0
C209 C 0.88451 0.50385 0.35642 0.0
C210 C 0.89761 0.49861 0.36207 0.0
C211 C 0.90636 0.51388 0.33314 0.0
N212 N 0.9113 0.50493 0.34739 0.0
C213 C 0.86039 0.53057 0.35915 0.0
C214 C 0.89385 0.55509 0.37932 0.0
C215 C 0.87669 0.54781 0.39025 0.0
C216 C 0.85975 0.53582 0.3797 0.0
C217 C 0.89387 0.54942 0.35887 0.0
N218 N 0.87728 0.53731 0.34891 0.0
H219 H 0.84736 0.5198 0.35217 0.0
H220 H 0.90743 0.55363 0.3518 0.0
H221 H 0.87185 0.50093 0.36491 0.0
H222 H 0.91453 0.52086 0.31937 0.0
O223 O 0.85389 0.5012 0.32563 0.0
O224 O 0.8747 0.50884 0.29988 0.0
O225 O 0.90349 0.54647 0.31487 0.0
C226 C 0.85855 0.49661 0.3081 0.0
H227 H 0.85711 0.54957 0.26285 0.0
H228 H 0.89702 0.49066 0.37582 0.0
H229 H 0.90731 0.56428 0.38687 0.0
H230 H 0.84622 0.52937 0.38771 0.0
Co231 Co 0.3575 0.88929 0.32175 0.0
C232 C 0.32185 0.85911 0.3014 0.0
C233 C 0.33801 0.88375 0.28238 0.0
C234 C 0.32275 0.8707 0.27106 0.0
N235 N 0.33738 0.87664 0.3015 0.0
N236 N 0.31264 0.85518 0.28298 0.0
H237 H 0.3177 0.84907 0.314 0.0
H238 H 0.34906 0.89747 0.27694 0.0
C239 C 0.343 0.91616 0.31333 0.0
O240 O 0.32541 0.90198 0.31439 0.0
N241 N 0.37802 0.9023 0.34111 0.0
C242 C 0.38124 0.89559 0.35887 0.0
C243 C 0.39787 0.9097 0.36755 0.0
C244 C 0.39261 0.92014 0.33906 0.0
N245 N 0.40498 0.92507 0.35499 0.0
C246 C 0.33154 0.86323 0.35223 0.0
C247 C 0.32988 0.89065 0.37609 0.0
C248 C 0.32127 0.87201 0.38369 0.0
C249 C 0.32195 0.85812 0.37132 0.0
C250 C 0.3393 0.89514 0.35706 0.0
N251 N 0.33989 0.88151 0.34513 0.0
H252 H 0.33325 0.85269 0.34381 0.0
H253 H 0.3474 0.90995 0.35293 0.0
H254 H 0.37227 0.88142 0.36494 0.0
H255 H 0.39408 0.92929 0.32613 0.0
O256 O 0.36275 0.86835 0.32066 0.0
O257 O 0.3755 0.89371 0.30024 0.0
O258 O 0.35689 0.91348 0.31726 0.0
C259 C 0.37434 0.87775 0.30547 0.0
H260 H 0.31942 0.87249 0.25523 0.0
H261 H 0.40443 0.90857 0.3817 0.0
H262 H 0.33054 0.90207 0.38541 0.0
H263 H 0.31578 0.84358 0.37667 0.0
Co264 Co 0.46715 0.35768 0.31606 0.0
C265 C 0.46456 0.32308 0.29606 0.0
C266 C 0.45541 0.33826 0.27633 0.0
C267 C 0.45428 0.3233 0.26529 0.0
N268 N 0.46166 0.33806 0.29569 0.0
N269 N 0.46009 0.3138 0.27766 0.0
H270 H 0.47032 0.3193 0.30909 0.0
H271 H 0.45196 0.34871 0.27062 0.0
C272 C 0.42533 0.33938 0.30737 0.0
O273 O 0.4238 0.32249 0.30724 0.0
N274 N 0.47268 0.37772 0.33559 0.0
C275 C 0.48233 0.38148 0.35361 0.0
C276 C 0.48401 0.39792 0.36187 0.0
C277 C 0.46876 0.39184 0.33299 0.0
N278 N 0.47554 0.40443 0.34881 0.0
C279 C 0.47124 0.33406 0.34647 0.0
C280 C 0.44009 0.32741 0.37002 0.0
C281 C 0.45276 0.32209 0.37809 0.0
C282 C 0.46824 0.32501 0.36577 0.0
C283 C 0.44378 0.33666 0.35095 0.0
N284 N 0.45915 0.33988 0.33926 0.0
H285 H 0.48405 0.33753 0.338 0.0
H286 H 0.43495 0.3425 0.34663 0.0
H287 H 0.48815 0.37318 0.36003 0.0
H288 H 0.46133 0.39296 0.3196 0.0
O289 O 0.49408 0.36572 0.31477 0.0
O290 O 0.47921 0.37627 0.29461 0.0
O291 O 0.4411 0.35417 0.31192 0.0
C292 C 0.49495 0.37686 0.29969 0.0
H293 H 0.44946 0.31967 0.24939 0.0
H294 H 0.49152 0.40492 0.37597 0.0
H295 H 0.42789 0.32541 0.3789 0.0
H296 H 0.47864 0.32152 0.37153 0.0
Co297 Co 0.11281 0.46983 0.3216 0.0
C298 C 0.14262 0.46149 0.3066 0.0
C299 C 0.11701 0.4475 0.28873 0.0
C300 C 0.13046 0.44477 0.27905 0.0
N301 N 0.12438 0.4576 0.30634 0.0
N302 N 0.14659 0.45368 0.2902 0.0
H303 H 0.15333 0.47134 0.31718 0.0
H304 H 0.1033 0.44372 0.28225 0.0
C305 C 0.08028 0.43012 0.31531 0.0
O306 O 0.09032 0.42319 0.32364 0.0
N307 N 0.10118 0.48223 0.33591 0.0
C308 C 0.10768 0.49314 0.35305 0.0
C309 C 0.09482 0.49871 0.35863 0.0
C310 C 0.08469 0.48147 0.33109 0.0
N311 N 0.08041 0.49135 0.34479 0.0
C312 C 0.13078 0.46356 0.3569 0.0
C313 C 0.0979 0.44383 0.38003 0.0
C314 C 0.11541 0.44953 0.38965 0.0
C315 C 0.13197 0.45907 0.37763 0.0
C316 C 0.09735 0.44869 0.35937 0.0
N317 N 0.11364 0.45843 0.34796 0.0
H318 H 0.14378 0.47248 0.34865 0.0
H319 H 0.08384 0.44573 0.35307 0.0
H320 H 0.12071 0.49658 0.36105 0.0
H321 H 0.07583 0.47349 0.3181 0.0
O322 O 0.13698 0.49334 0.32299 0.0
O323 O 0.11594 0.48485 0.29732 0.0
O324 O 0.08691 0.44805 0.31447 0.0
C325 C 0.13217 0.49735 0.3052 0.0
H326 H 0.12878 0.43765 0.26433 0.0
H327 H 0.09603 0.50754 0.3718 0.0
H328 H 0.08473 0.43648 0.38869 0.0
H329 H 0.14585 0.46423 0.38456 0.0
Co330 Co 0.63904 0.11277 0.33013 0.0
C331 C 0.67605 0.13657 0.30903 0.0
C332 C 0.66098 0.10838 0.29661 0.0
C333 C 0.67657 0.11905 0.28431 0.0
N334 N 0.66082 0.11919 0.31248 0.0
N335 N 0.68597 0.1368 0.29208 0.0
H336 H 0.67876 0.14925 0.31726 0.0
H337 H 0.64973 0.09415 0.29308 0.0
C338 C 0.64061 0.07654 0.33018 0.0
O339 O 0.65872 0.08622 0.33511 0.0
N340 N 0.61699 0.10623 0.34683 0.0
C341 C 0.61568 0.11543 0.36362 0.0
C342 C 0.59726 0.1056 0.37091 0.0
C343 C 0.59952 0.09126 0.34388 0.0
N344 N 0.58719 0.0905 0.35839 0.0
C345 C 0.66807 0.13379 0.3607 0.0
C346 C 0.65569 0.10437 0.38905 0.0
C347 C 0.67087 0.12224 0.39447 0.0
C348 C 0.67707 0.13709 0.38003 0.0
C349 C 0.64696 0.10176 0.36975 0.0
N350 N 0.65346 0.1162 0.35555 0.0
H351 H 0.67223 0.14566 0.35041 0.0
H352 H 0.63435 0.0883 0.36668 0.0
H353 H 0.62731 0.12825 0.37015 0.0
H354 H 0.59601 0.08097 0.33155 0.0
O355 O 0.6428 0.13819 0.32689 0.0
O356 O 0.62573 0.11367 0.30592 0.0
O357 O 0.63103 0.08501 0.32825 0.0
C358 C 0.6321 0.13142 0.31047 0.0
H359 H 0.6801 0.11434 0.27013 0.0
H360 H 0.59167 0.10935 0.38423 0.0
H361 H 0.64993 0.09272 0.40007 0.0
H362 H 0.68846 0.15124 0.38383 0.0
Co363 Co 0.52565 0.64272 0.3261 0.0
C364 C 0.53948 0.68131 0.30797 0.0
C365 C 0.54988 0.66519 0.29198 0.0
C366 C 0.55473 0.68126 0.28063 0.0
N367 N 0.54059 0.66526 0.30936 0.0
N368 N 0.54819 0.69132 0.29071 0.0
H369 H 0.53086 0.68466 0.31789 0.0
H370 H 0.55155 0.65343 0.28685 0.0
C371 C 0.56358 0.64517 0.32324 0.0
O372 O 0.57171 0.66309 0.32892 0.0
N373 N 0.51053 0.61983 0.34184 0.0
C374 C 0.49989 0.61762 0.3588 0.0
C375 C 0.49164 0.59896 0.36524 0.0
C376 C 0.50846 0.60262 0.33797 0.0
N377 N 0.49703 0.5896 0.35207 0.0
C378 C 0.53319 0.66943 0.35925 0.0
C379 C 0.54966 0.65476 0.3854 0.0
C380 C 0.54518 0.66811 0.39327 0.0
C381 C 0.53739 0.67594 0.37977 0.0
C382 C 0.54511 0.64857 0.36497 0.0
N383 N 0.53698 0.65586 0.35205 0.0
H384 H 0.52542 0.67416 0.34982 0.0
H385 H 0.54677 0.63676 0.36017 0.0
H386 H 0.49835 0.62881 0.36602 0.0
H387 H 0.51544 0.59979 0.32528 0.0
O388 O 0.5039 0.64648 0.32475 0.0
O389 O 0.51094 0.63048 0.30179 0.0
O390 O 0.54551 0.63513 0.3221 0.0
C391 C 0.49952 0.63641 0.30777 0.0
H392 H 0.5614 0.68468 0.26546 0.0
H393 H 0.48227 0.59274 0.37844 0.0
H394 H 0.55556 0.64824 0.39535 0.0
H395 H 0.53323 0.6859 0.38541 0.0
Co396 Co 0.52673 0.88432 0.81552 0.0
C397 C 0.53543 0.85633 0.79516 0.0
C398 C 0.54393 0.88149 0.77709 0.0
C399 C 0.54756 0.86937 0.76574 0.0
N400 N 0.53661 0.8735 0.79569 0.0
N401 N 0.54216 0.85353 0.77709 0.0
H402 H 0.52892 0.84565 0.80704 0.0
H403 H 0.54602 0.89507 0.77191 0.0
C404 C 0.56741 0.91408 0.80869 0.0
O405 O 0.57247 0.90119 0.81142 0.0
N406 N 0.51683 0.89556 0.83442 0.0
C407 C 0.50668 0.88801 0.85189 0.0
C408 C 0.5021 0.90085 0.86022 0.0
C409 C 0.51816 0.91265 0.8322 0.0
N410 N 0.50929 0.91629 0.84775 0.0
C411 C 0.52829 0.85916 0.84558 0.0
C412 C 0.55466 0.88706 0.87137 0.0
C413 C 0.54542 0.86813 0.87815 0.0
C414 C 0.53238 0.85405 0.86478 0.0
C415 C 0.5501 0.89158 0.85207 0.0
N416 N 0.53716 0.8777 0.83927 0.0
H417 H 0.51691 0.84825 0.83651 0.0
H418 H 0.55595 0.9064 0.84829 0.0
H419 H 0.50273 0.87411 0.85799 0.0
H420 H 0.52552 0.92219 0.81942 0.0
O421 O 0.50184 0.86169 0.81415 0.0
O422 O 0.51225 0.88673 0.79331 0.0
O423 O 0.55018 0.90984 0.81163 0.0
C424 C 0.49865 0.86995 0.79859 0.0
H425 H 0.55346 0.87194 0.75022 0.0
H426 H 0.49374 0.89879 0.87409 0.0
H427 H 0.56431 0.89848 0.88151 0.0
H428 H 0.5247 0.83927 0.86951 0.0
Co429 Co 0.63648 0.52691 0.81829 0.0
C430 C 0.67169 0.53214 0.79722 0.0
C431 C 0.65592 0.54168 0.77911 0.0
C432 C 0.67096 0.54383 0.76743 0.0
N433 N 0.65648 0.53462 0.79789 0.0
N434 N 0.68083 0.53775 0.77877 0.0
H435 H 0.67561 0.52564 0.8094 0.0
H436 H 0.64503 0.54477 0.77411 0.0
C437 C 0.65129 0.56849 0.81104 0.0
O438 O 0.66881 0.57169 0.81171 0.0
N439 N 0.616 0.51924 0.83775 0.0
C440 C 0.61283 0.50948 0.85563 0.0
C441 C 0.59604 0.50674 0.86411 0.0
C442 C 0.60123 0.52216 0.83544 0.0
N443 N 0.58878 0.51467 0.85129 0.0
C444 C 0.6621 0.52569 0.84818 0.0
C445 C 0.66501 0.55493 0.87271 0.0
C446 C 0.67258 0.54388 0.88014 0.0
C447 C 0.67146 0.52937 0.86734 0.0
C448 C 0.65547 0.55053 0.85378 0.0
N449 N 0.65421 0.53619 0.84155 0.0
H450 H 0.66004 0.51348 0.83942 0.0
H451 H 0.64792 0.55787 0.84994 0.0
H452 H 0.62193 0.50451 0.86191 0.0
H453 H 0.59967 0.52962 0.82234 0.0
O454 O 0.63126 0.50084 0.81678 0.0
O455 O 0.61841 0.51357 0.79664 0.0
O456 O 0.63729 0.55187 0.81456 0.0
C457 C 0.6198 0.49882 0.80158 0.0
H458 H 0.67428 0.54934 0.75174 0.0
H459 H 0.58945 0.49908 0.87828 0.0
H460 H 0.66555 0.56634 0.88193 0.0
H461 H 0.67664 0.52012 0.87259 0.0
Co462 Co 0.11317 0.64422 0.82277 0.0
C463 C 0.14153 0.68235 0.80622 0.0
C464 C 0.11482 0.67009 0.79037 0.0
C465 C 0.12739 0.68632 0.7801 0.0
N466 N 0.12342 0.66776 0.80716 0.0
N467 N 0.14425 0.69395 0.78991 0.0
H468 H 0.15293 0.68351 0.81585 0.0
H469 H 0.10079 0.65991 0.78486 0.0
C470 C 0.07974 0.6504 0.81931 0.0
O471 O 0.09037 0.66802 0.82572 0.0
N472 N 0.10277 0.62039 0.83735 0.0
C473 C 0.10966 0.61639 0.85447 0.0
C474 C 0.09731 0.5978 0.86009 0.0
C475 C 0.08666 0.60429 0.83255 0.0
N476 N 0.08292 0.59027 0.84623 0.0
C477 C 0.13272 0.66914 0.85724 0.0
C478 C 0.10097 0.6556 0.88237 0.0
C479 C 0.11885 0.66773 0.89101 0.0
C480 C 0.13483 0.675 0.87802 0.0
C481 C 0.0995 0.65006 0.86167 0.0
N482 N 0.11523 0.65674 0.84928 0.0
H483 H 0.14532 0.67345 0.84812 0.0
H484 H 0.08578 0.6392 0.85617 0.0
H485 H 0.12256 0.62637 0.86245 0.0
H486 H 0.07763 0.60303 0.81957 0.0
O487 O 0.13761 0.64542 0.82213 0.0
O488 O 0.11515 0.63211 0.79803 0.0
O489 O 0.08663 0.63934 0.81794 0.0
C490 C 0.13189 0.63618 0.80464 0.0
H491 H 0.12453 0.69153 0.76586 0.0
H492 H 0.09882 0.59039 0.87329 0.0
H493 H 0.08824 0.64958 0.89183 0.0
H494 H 0.14896 0.68404 0.8842 0.0
Co495 Co 0.46427 0.10932 0.82711 0.0
C496 C 0.45629 0.13815 0.8075 0.0
C497 C 0.44831 0.11353 0.78863 0.0
C498 C 0.44633 0.12654 0.77697 0.0
N499 N 0.45432 0.12059 0.8079 0.0
N500 N 0.45134 0.14194 0.78885 0.0
H501 H 0.4627 0.14862 0.81962 0.0
H502 H 0.44676 0.1003 0.78293 0.0
C503 C 0.42496 0.07834 0.81695 0.0
O504 O 0.41867 0.08998 0.82158 0.0
N505 N 0.47447 0.09781 0.84525 0.0
C506 C 0.48305 0.10418 0.86377 0.0
C507 C 0.48889 0.0919 0.8709 0.0
C508 C 0.47535 0.08203 0.8412 0.0
N509 N 0.48409 0.07806 0.85661 0.0
C510 C 0.45737 0.13005 0.85874 0.0
C511 C 0.43304 0.09868 0.88218 0.0
C512 C 0.43961 0.11685 0.89056 0.0
C513 C 0.45152 0.13266 0.87827 0.0
C514 C 0.43912 0.0967 0.86251 0.0
N515 N 0.45115 0.11227 0.85095 0.0
H516 H 0.46813 0.14238 0.85072 0.0
H517 H 0.43534 0.08258 0.85743 0.0
H518 H 0.48513 0.11694 0.8714 0.0
H519 H 0.46973 0.07368 0.82719 0.0
O520 O 0.48816 0.13316 0.8288 0.0
O521 O 0.48103 0.11042 0.8054 0.0
O522 O 0.4424 0.08341 0.82001 0.0
C523 C 0.49321 0.12703 0.8127 0.0
H524 H 0.44241 0.12522 0.76072 0.0
H525 H 0.49652 0.09334 0.88519 0.0
H526 H 0.42437 0.08602 0.8913 0.0
H527 H 0.45708 0.14699 0.88409 0.0
Co528 Co 0.35287 0.46533 0.8263 0.0
C529 C 0.31476 0.45073 0.80754 0.0
C530 C 0.32944 0.43743 0.7946 0.0
C531 C 0.31325 0.43192 0.7832 0.0
N532 N 0.33026 0.4489 0.81025 0.0
N533 N 0.3041 0.44043 0.79126 0.0
H534 H 0.31237 0.46097 0.81569 0.0
H535 H 0.34064 0.43456 0.79042 0.0
C536 C 0.35328 0.4285 0.82618 0.0
O537 O 0.3356 0.4195 0.83276 0.0
N538 N 0.37565 0.48195 0.84147 0.0
C539 C 0.37737 0.49311 0.85779 0.0
C540 C 0.39596 0.50204 0.86452 0.0
C541 C 0.39308 0.48442 0.83821 0.0
N542 N 0.40575 0.49656 0.85213 0.0
C543 C 0.32553 0.45671 0.85909 0.0
C544 C 0.34287 0.44428 0.88694 0.0
C545 C 0.32823 0.44719 0.89399 0.0
C546 C 0.31909 0.45291 0.87966 0.0
C547 C 0.34888 0.44828 0.86639 0.0
N548 N 0.34034 0.45451 0.85267 0.0
H549 H 0.31954 0.46281 0.84887 0.0
H550 H 0.36142 0.44773 0.862 0.0
H551 H 0.36585 0.49438 0.8645 0.0
H552 H 0.3963 0.4771 0.82624 0.0
O553 O 0.3478 0.48619 0.82389 0.0
O554 O 0.36427 0.47937 0.80136 0.0
O555 O 0.36192 0.44646 0.82339 0.0
C556 C 0.35768 0.49039 0.80678 0.0
H557 H 0.30918 0.4233 0.76928 0.0
H558 H 0.40182 0.5118 0.87746 0.0
H559 H 0.35038 0.43995 0.89753 0.0
H560 H 0.30802 0.45576 0.88462 0.0
Co561 Co 0.88291 0.35343 0.82449 0.0
C562 C 0.85463 0.31391 0.81193 0.0
C563 C 0.88018 0.32539 0.79393 0.0
C564 C 0.86757 0.30776 0.78618 0.0
N565 N 0.87239 0.32903 0.8106 0.0
N566 N 0.85153 0.30066 0.79746 0.0
H567 H 0.84374 0.31303 0.82223 0.0
H568 H 0.89362 0.33534 0.78691 0.0
C569 C 0.91693 0.34816 0.81981 0.0
O570 O 0.90715 0.33082 0.82729 0.0
N571 N 0.89338 0.37792 0.83762 0.0
C572 C 0.88646 0.38238 0.8544 0.0
C573 C 0.89884 0.40105 0.85959 0.0
C574 C 0.9096 0.39385 0.83261 0.0
N575 N 0.91335 0.40819 0.84587 0.0
C576 C 0.86536 0.33058 0.8609 0.0
C577 C 0.89854 0.34406 0.8835 0.0
C578 C 0.88121 0.33195 0.89333 0.0
C579 C 0.86446 0.32496 0.88163 0.0
C580 C 0.89877 0.34948 0.86292 0.0
N581 N 0.88237 0.3425 0.85164 0.0
H582 H 0.85224 0.32633 0.85282 0.0
H583 H 0.91215 0.36019 0.85651 0.0
H584 H 0.87356 0.37261 0.86252 0.0
H585 H 0.91875 0.39476 0.81993 0.0
O586 O 0.85816 0.35159 0.82464 0.0
O587 O 0.87947 0.36386 0.7992 0.0
O588 O 0.90943 0.3587 0.81846 0.0
C589 C 0.86293 0.35973 0.80647 0.0
H590 H 0.86948 0.30127 0.77237 0.0
H591 H 0.89733 0.40873 0.8725 0.0
H592 H 0.91187 0.3499 0.89184 0.0
H593 H 0.85069 0.31609 0.88871 0.0
Co594 Co 0.1131 0.46715 0.68043 0.0
C595 C 0.14075 0.45605 0.6963 0.0
C596 C 0.11576 0.44571 0.71511 0.0
C597 C 0.12827 0.44178 0.7251 0.0
N598 N 0.12331 0.45428 0.6968 0.0
N599 N 0.14402 0.4484 0.71335 0.0
H600 H 0.15151 0.46423 0.68489 0.0
H601 H 0.1026 0.44368 0.72159 0.0
C602 C 0.07947 0.42829 0.68797 0.0
O603 O 0.08949 0.42051 0.68191 0.0
N604 N 0.10276 0.48018 0.66501 0.0
C605 C 0.10963 0.49038 0.64744 0.0
C606 C 0.09742 0.49662 0.64124 0.0
C607 C 0.08677 0.48051 0.66947 0.0
N608 N 0.08311 0.49039 0.65516 0.0
C609 C 0.13116 0.46042 0.64561 0.0
C610 C 0.09829 0.44014 0.62264 0.0
C611 C 0.11582 0.44632 0.61288 0.0
C612 C 0.1324 0.45603 0.62483 0.0
C613 C 0.09768 0.44493 0.6433 0.0
N614 N 0.11397 0.45505 0.65461 0.0
H615 H 0.14414 0.4696 0.65377 0.0
H616 H 0.08411 0.44186 0.64949 0.0
H617 H 0.12244 0.49289 0.63957 0.0
H618 H 0.07777 0.47328 0.68266 0.0
O619 O 0.13788 0.49003 0.67942 0.0
O620 O 0.11625 0.48272 0.70421 0.0
O621 O 0.08657 0.4463 0.68714 0.0
C622 C 0.13289 0.49461 0.69675 0.0
H623 H 0.12629 0.43539 0.74032 0.0
H624 H 0.09899 0.50509 0.62761 0.0
H625 H 0.08511 0.43263 0.61402 0.0
H626 H 0.14628 0.46152 0.61781 0.0
Co627 Co 0.64206 0.10919 0.6781 0.0
C628 C 0.67917 0.13632 0.69765 0.0
C629 C 0.66642 0.10859 0.71131 0.0
C630 C 0.68263 0.12033 0.72221 0.0
N631 N 0.66455 0.11837 0.69537 0.0
N632 N 0.69054 0.13774 0.71364 0.0
H633 H 0.68091 0.14838 0.68882 0.0
H634 H 0.65607 0.09422 0.71569 0.0
C635 C 0.64885 0.07604 0.67923 0.0
O636 O 0.66672 0.08739 0.67412 0.0
N637 N 0.61931 0.09987 0.66174 0.0
C638 C 0.61648 0.10814 0.64503 0.0
C639 C 0.5982 0.09655 0.638 0.0
C640 C 0.60282 0.08363 0.66488 0.0
N641 N 0.58967 0.08121 0.65056 0.0
C642 C 0.66923 0.13201 0.6466 0.0
C643 C 0.65987 0.10247 0.6191 0.0
C644 C 0.67321 0.121 0.61298 0.0
C645 C 0.67793 0.13589 0.62705 0.0
C646 C 0.65147 0.09926 0.63867 0.0
N647 N 0.65649 0.11383 0.65244 0.0
H648 H 0.67198 0.14378 0.6565 0.0
H649 H 0.64015 0.08509 0.64226 0.0
H650 H 0.62699 0.12159 0.63843 0.0
H651 H 0.6006 0.07371 0.67726 0.0
O652 O 0.64274 0.13331 0.681 0.0
O653 O 0.6282 0.10869 0.70244 0.0
O654 O 0.63739 0.08247 0.68052 0.0
C655 C 0.63251 0.12594 0.69765 0.0
H656 H 0.6875 0.11672 0.73623 0.0
H657 H 0.59161 0.09934 0.62489 0.0
H658 H 0.65515 0.09063 0.60845 0.0
H659 H 0.68785 0.15047 0.62281 0.0
Co660 Co 0.525 0.63631 0.67967 0.0
C661 C 0.53514 0.67437 0.69721 0.0
C662 C 0.54611 0.65975 0.71505 0.0
C663 C 0.55017 0.67612 0.72537 0.0
N664 N 0.53713 0.65882 0.69707 0.0
N665 N 0.54319 0.68526 0.71418 0.0
H666 H 0.52667 0.67697 0.68626 0.0
H667 H 0.54864 0.64875 0.72093 0.0
C668 C 0.56453 0.6437 0.68561 0.0
O669 O 0.57084 0.6612 0.67911 0.0
N670 N 0.51269 0.61343 0.66326 0.0
C671 C 0.50281 0.61072 0.64555 0.0
C672 C 0.49656 0.59248 0.63866 0.0
C673 C 0.51211 0.59686 0.66713 0.0
N674 N 0.5024 0.58381 0.65227 0.0
C675 C 0.53137 0.66276 0.64671 0.0
C676 C 0.55233 0.6522 0.62196 0.0
C677 C 0.54658 0.66452 0.61382 0.0
C678 C 0.53641 0.67021 0.62665 0.0
C679 C 0.54704 0.64513 0.64207 0.0
N680 N 0.53678 0.65049 0.65433 0.0
H681 H 0.52172 0.66561 0.65529 0.0
H682 H 0.55005 0.63424 0.64713 0.0
H683 H 0.5004 0.62129 0.63815 0.0
H684 H 0.51889 0.59451 0.68038 0.0
O685 O 0.50172 0.63738 0.67923 0.0
O686 O 0.50953 0.62269 0.70315 0.0
O687 O 0.54671 0.63171 0.68548 0.0
C688 C 0.49737 0.62732 0.69619 0.0
H689 H 0.55715 0.68057 0.7403 0.0
H690 H 0.48816 0.58601 0.62486 0.0
H691 H 0.55995 0.64721 0.61244 0.0
H692 H 0.53107 0.67913 0.62069 0.0
Co693 Co 0.88523 0.52935 0.68058 0.0
C694 C 0.85659 0.53879 0.69683 0.0
C695 C 0.88181 0.55038 0.71538 0.0
C696 C 0.86886 0.5537 0.72535 0.0
N697 N 0.87438 0.54146 0.69719 0.0
N698 N 0.85294 0.54626 0.71378 0.0
H699 H 0.84593 0.53009 0.68557 0.0
H700 H 0.89525 0.55313 0.72177 0.0
C701 C 0.91798 0.5687 0.68816 0.0
O702 O 0.90748 0.57592 0.68206 0.0
N703 N 0.89618 0.51706 0.66486 0.0
C704 C 0.88946 0.50696 0.64721 0.0
C705 C 0.9019 0.50107 0.64088 0.0
C706 C 0.91233 0.51702 0.66923 0.0
N707 N 0.91622 0.50741 0.65478 0.0
C708 C 0.86641 0.53544 0.64607 0.0
C709 C 0.89902 0.55711 0.62312 0.0
C710 C 0.88135 0.55048 0.61348 0.0
C711 C 0.86489 0.54 0.62545 0.0
C712 C 0.8999 0.55205 0.6436 0.0
N713 N 0.88375 0.54132 0.65493 0.0
H714 H 0.85358 0.52578 0.6542 0.0
H715 H 0.91364 0.55552 0.64962 0.0
H716 H 0.87653 0.50421 0.63943 0.0
H717 H 0.92122 0.52419 0.68251 0.0
O718 O 0.86086 0.50598 0.67962 0.0
O719 O 0.88271 0.51382 0.70421 0.0
O720 O 0.91147 0.55077 0.68726 0.0
C721 C 0.86615 0.50154 0.69684 0.0
H722 H 0.87076 0.56029 0.74045 0.0
H723 H 0.90043 0.49266 0.62722 0.0
H724 H 0.91213 0.56524 0.61453 0.0
H725 H 0.85092 0.53412 0.61853 0.0
Co726 Co 0.34799 0.89206 0.66979 0.0
C727 C 0.31141 0.86371 0.68917 0.0
C728 C 0.32341 0.89102 0.70365 0.0
C729 C 0.3079 0.87843 0.71502 0.0
N730 N 0.32535 0.88201 0.68698 0.0
N731 N 0.30047 0.86125 0.70599 0.0
H732 H 0.31011 0.85213 0.67977 0.0
H733 H 0.33351 0.90535 0.70839 0.0
C734 C 0.34137 0.92536 0.67334 0.0
O735 O 0.32339 0.91449 0.66835 0.0
N736 N 0.37094 0.90228 0.65363 0.0
C737 C 0.37418 0.89517 0.63619 0.0
C738 C 0.39271 0.90713 0.63003 0.0
C739 C 0.38739 0.91816 0.65804 0.0
N740 N 0.40094 0.9215 0.64387 0.0
C741 C 0.32177 0.86984 0.63774 0.0
C742 C 0.33094 0.89959 0.61062 0.0
C743 C 0.31908 0.88093 0.60369 0.0
C744 C 0.3142 0.86598 0.6177 0.0
C745 C 0.3383 0.90283 0.6308 0.0
N746 N 0.33368 0.88804 0.64417 0.0
H747 H 0.31911 0.858 0.64749 0.0
H748 H 0.34882 0.91715 0.63504 0.0
H749 H 0.36384 0.88223 0.62855 0.0
H750 H 0.38932 0.92715 0.67129 0.0
O751 O 0.34759 0.86802 0.67128 0.0
O752 O 0.36171 0.89173 0.69396 0.0
O753 O 0.35257 0.91861 0.67356 0.0
C754 C 0.35755 0.87476 0.68817 0.0
H755 H 0.30345 0.88133 0.72977 0.0
H756 H 0.39965 0.90524 0.61664 0.0
H757 H 0.33554 0.91153 0.60013 0.0
H758 H 0.30523 0.85133 0.61293 0.0
Co759 Co 0.45012 0.33924 0.66023 0.0
C760 C 0.44694 0.30587 0.68228 0.0
C761 C 0.4198 0.30379 0.67756 0.0
C762 C 0.41712 0.28824 0.68886 0.0
N763 N 0.43849 0.31487 0.67368 0.0
N764 N 0.4342 0.28963 0.69178 0.0
H765 H 0.4621 0.31125 0.68213 0.0
H766 H 0.4089 0.30688 0.67273 0.0
C767 C 0.42682 0.34861 0.68545 0.0
O768 O 0.41626 0.34214 0.66867 0.0
N769 N 0.4617 0.36374 0.64658 0.0
C770 C 0.4753 0.36997 0.63183 0.0
C771 C 0.48081 0.38855 0.62707 0.0
C772 C 0.45926 0.37867 0.65073 0.0
N773 N 0.47077 0.39399 0.63907 0.0
C774 C 0.46262 0.32173 0.62958 0.0
C775 C 0.43485 0.31673 0.60121 0.0
C776 C 0.44834 0.31157 0.59556 0.0
C777 C 0.46228 0.314 0.61005 0.0
C778 C 0.43587 0.32463 0.62072 0.0
N779 N 0.44978 0.32731 0.63434 0.0
H780 H 0.47336 0.32351 0.64066 0.0
H781 H 0.42575 0.32902 0.62495 0.0
H782 H 0.48126 0.3618 0.62537 0.0
H783 H 0.44951 0.37857 0.66217 0.0
O784 O 0.47619 0.34498 0.66902 0.0
O785 O 0.4595 0.3524 0.68788 0.0
O786 O 0.4433 0.34981 0.68561 0.0
C787 C 0.47542 0.35274 0.68576 0.0
H788 H 0.40368 0.27677 0.69443 0.0
H789 H 0.49187 0.39759 0.61625 0.0
H790 H 0.42399 0.31527 0.59039 0.0
H791 H 0.47284 0.31005 0.60628 0.0
C792 C 0.49692 0.05795 0.16902 0.0
C793 C 0.49316 0.06423 0.15024 0.0
C794 C 0.50148 0.04349 0.16914 0.0
C795 C 0.51712 0.01717 0.13443 0.0
H796 H 0.49809 0.98023 0.17918 0.0
C797 C 0.51485 0.94494 0.13133 0.0
C798 C 0.52129 0.93972 0.14902 0.0
C799 C 0.51287 0.96106 0.13163 0.0
C800 C 0.50366 0.99057 0.1667 0.0
H801 H 0.49092 0.06017 0.1169 0.0
H802 H 0.49826 0.03452 0.11705 0.0
H803 H 0.49139 0.00631 0.17933 0.0
H804 H 0.53074 0.94721 0.18087 0.0
H805 H 0.52704 0.97534 0.18149 0.0
H806 H 0.52878 0.00088 0.1215 0.0
C807 C 0.49829 0.0411 0.13169 0.0
C808 C 0.49989 0.00557 0.1668 0.0
C809 C 0.494 0.05574 0.13157 0.0
C810 C 0.5259 0.95102 0.16698 0.0
C811 C 0.52364 0.96699 0.16738 0.0
C812 C 0.52066 0.00202 0.13421 0.0
C813 C 0.50212 0.03479 0.15048 0.0
C814 C 0.50651 0.01905 0.15062 0.0
C815 C 0.51704 0.9721 0.14972 0.0
C816 C 0.51392 0.98856 0.15032 0.0
H817 H 0.49666 0.06447 0.1836 0.0
H818 H 0.5047 0.0393 0.18387 0.0
H819 H 0.52279 0.02746 0.12193 0.0
H820 H 0.51136 0.93655 0.11726 0.0
H821 H 0.50764 0.96463 0.11785 0.0
C822 C 0.57623 0.52768 0.1601 0.0
C823 C 0.58356 0.52647 0.14074 0.0
C824 C 0.55749 0.52385 0.16185 0.0
C825 C 0.51125 0.50004 0.13386 0.0
H826 H 0.49815 0.52824 0.17264 0.0
C827 C 0.43833 0.49619 0.13392 0.0
C828 C 0.42949 0.49393 0.15331 0.0
C829 C 0.45705 0.49992 0.13269 0.0
C830 C 0.50159 0.52015 0.16188 0.0
H831 H 0.57724 0.52092 0.10797 0.0
H832 H 0.54473 0.51475 0.11081 0.0
H833 H 0.53113 0.53579 0.1696 0.0
H834 H 0.43338 0.494 0.18662 0.0
H835 H 0.46626 0.5007 0.18449 0.0
H836 H 0.48171 0.48472 0.12584 0.0
C837 C 0.55321 0.51808 0.1248 0.0
C838 C 0.52048 0.52442 0.16015 0.0
C839 C 0.57188 0.5217 0.12312 0.0
C840 C 0.43979 0.49552 0.17147 0.0
C841 C 0.45862 0.49951 0.17026 0.0
C842 C 0.49241 0.49593 0.13543 0.0
C843 C 0.54569 0.51892 0.14423 0.0
C844 C 0.52557 0.51443 0.14611 0.0
C845 C 0.46743 0.50171 0.15084 0.0
C846 C 0.48739 0.50593 0.14944 0.0
H847 H 0.58482 0.53105 0.17401 0.0
H848 H 0.55215 0.52435 0.17711 0.0
H849 H 0.5145 0.49175 0.1232 0.0
H850 H 0.43069 0.49486 0.11967 0.0
H851 H 0.46351 0.50167 0.11752 0.0
C852 C 0.05435 0.56317 0.17694 0.0
C853 C 0.06302 0.57206 0.15813 0.0
C854 C 0.03848 0.54491 0.17702 0.0
C855 C 0.0117 0.50182 0.14445 0.0
H856 H 0.9711 0.49089 0.18348 0.0
C857 C 0.93812 0.43346 0.14059 0.0
C858 C 0.93061 0.42401 0.15951 0.0
C859 C 0.95439 0.45146 0.14031 0.0
C860 C 0.98239 0.49369 0.17262 0.0
H861 H 0.06185 0.5688 0.12467 0.0
H862 H 0.03395 0.53702 0.12472 0.0
H863 H -0.00065 0.52236 0.18308 0.0
H864 H 0.93407 0.42612 0.19297 0.0
H865 H 0.96251 0.45758 0.1925 0.0
H866 H 0.99449 0.47315 0.13382 0.0
C867 C 0.03963 0.54399 0.13947 0.0
C868 C -0.00138 0.5117 0.17242 0.0
C869 C 0.05561 0.56221 0.13941 0.0
C870 C 0.93963 0.43299 0.17815 0.0
C871 C 0.95579 0.45106 0.17789 0.0
C872 C 0.99539 0.48383 0.14456 0.0
C873 C 0.0308 0.53516 0.15828 0.0
C874 C 0.01351 0.51598 0.15838 0.0
C875 C 0.96338 0.46045 0.15896 0.0
C876 C 0.98061 0.47957 0.15869 0.0
H877 H 0.05994 0.57027 0.19163 0.0
H878 H 0.03231 0.5384 0.19182 0.0
H879 H 0.02299 0.50452 0.13365 0.0
H880 H 0.9316 0.42683 0.12597 0.0
H881 H 0.95984 0.45843 0.1255 0.0
C882 C 0.05418 0.49225 0.32642 0.0
C883 C 0.0636 0.49306 0.34502 0.0
C884 C 0.03769 0.49359 0.32667 0.0
C885 C 0.01061 0.50925 0.35957 0.0
H886 H 0.96915 0.47741 0.32242 0.0
C887 C 0.93637 0.502 0.36588 0.0
C888 C 0.92799 0.50302 0.34718 0.0
C889 C 0.95285 0.50065 0.36567 0.0
C890 C 0.98068 0.4865 0.33276 0.0
H891 H 0.06299 0.49567 0.37849 0.0
H892 H 0.03413 0.49778 0.379 0.0
H893 H -0.00188 0.47543 0.32198 0.0
H894 H 0.9301 0.50299 0.31359 0.0
H895 H 0.95892 0.5007 0.31321 0.0
H896 H 0.99302 0.52015 0.37048 0.0
C897 C 0.03967 0.49652 0.36415 0.0
C898 C 0.9973 0.48541 0.33248 0.0
C899 C 0.05622 0.49529 0.36387 0.0
C900 C 0.93633 0.50243 0.32825 0.0
C901 C 0.95272 0.50094 0.32804 0.0
C902 C 0.99394 0.51025 0.35993 0.0
C903 C 0.03019 0.49566 0.34555 0.0
C904 C 0.01249 0.4968 0.34585 0.0
C905 C 0.96121 0.50013 0.34674 0.0
C906 C 0.97882 0.49892 0.3465 0.0
H907 H 0.05968 0.49082 0.31162 0.0
H908 H 0.03095 0.49322 0.31202 0.0
H909 H 0.02214 0.51846 0.36984 0.0
H910 H 0.93039 0.5026 0.3807 0.0
H911 H 0.95898 0.49989 0.38033 0.0
C912 C 0.43212 0.95374 0.34004 0.0
C913 C 0.42239 0.94286 0.35752 0.0
C914 C 0.44889 0.97106 0.34234 0.0
C915 C 0.48847 0.99811 0.37834 0.0
H916 H 0.49839 0.0398 0.34133 0.0
C917 C 0.55895 0.0702 0.37982 0.0
C918 C 0.56752 0.07615 0.36021 0.0
C919 C 0.54018 0.05531 0.3815 0.0
C920 C 0.4958 0.02828 0.35177 0.0
H921 H 0.42259 0.94167 0.39116 0.0
H922 H 0.45202 0.97208 0.39522 0.0
H923 H 0.46737 0.01092 0.3408 0.0
H924 H 0.56302 0.07181 0.32701 0.0
H925 H 0.53033 0.04586 0.32989 0.0
H926 H 0.51708 0.01545 0.38905 0.0
C927 C 0.4467 0.96706 0.37972 0.0
C928 C 0.47808 0.01174 0.35143 0.0
C929 C 0.42988 0.94966 0.3774 0.0
C930 C 0.55682 0.06736 0.34232 0.0
C931 C 0.53806 0.05265 0.34397 0.0
C932 C 0.5062 0.01473 0.37874 0.0
C933 C 0.45634 0.97797 0.36219 0.0
C934 C 0.47438 0.99628 0.36433 0.0
C935 C 0.52962 0.04632 0.36358 0.0
C936 C 0.51016 0.02978 0.3651 0.0
H937 H 0.42697 0.94873 0.3245 0.0
H938 H 0.45621 0.97888 0.32849 0.0
H939 H 0.48611 0.98641 0.38835 0.0
H940 H 0.56694 0.07667 0.39385 0.0
H941 H 0.53397 0.05074 0.3968 0.0
C942 C 0.47561 0.42983 0.37007 0.0
C943 C 0.47514 0.42191 0.35051 0.0
C944 C 0.47575 0.44708 0.37163 0.0
C945 C 0.46604 0.48025 0.34132 0.0
H946 H 0.50039 0.51774 0.38085 0.0
C947 C 0.49093 0.55999 0.33471 0.0
C948 C 0.49207 0.56994 0.35301 0.0
C949 C 0.48683 0.54114 0.3356 0.0
C950 C 0.49053 0.50732 0.36994 0.0
H951 H 0.47467 0.42601 0.31726 0.0
H952 H 0.47509 0.45605 0.31993 0.0
H953 H 0.49699 0.48615 0.38029 0.0
H954 H 0.48969 0.56792 0.38657 0.0
H955 H 0.48252 0.53488 0.38814 0.0
H956 H 0.46003 0.50165 0.33059 0.0
C957 C 0.4749 0.44877 0.33412 0.0
C958 C 0.48855 0.48921 0.36963 0.0
C959 C 0.47467 0.43153 0.33257 0.0
C960 C 0.48876 0.56056 0.37221 0.0
C961 C 0.48482 0.54173 0.37312 0.0
C962 C 0.46811 0.49838 0.34155 0.0
C963 C 0.4755 0.4568 0.35365 0.0
C964 C 0.47649 0.47554 0.3551 0.0
C965 C 0.48391 0.53186 0.35482 0.0
C966 C 0.48057 0.51218 0.35567 0.0
H967 H 0.47574 0.42263 0.38417 0.0
H968 H 0.47596 0.45274 0.38693 0.0
H969 H 0.45633 0.46994 0.33021 0.0
H970 H 0.4932 0.56678 0.31968 0.0
H971 H 0.48639 0.53396 0.32124 0.0
C972 C 0.4906 0.05506 0.8387 0.0
C973 C 0.48798 0.06262 0.85723 0.0
C974 C 0.49414 0.03995 0.83917 0.0
C975 C 0.48751 -0.0002 0.87127 0.0
H976 H 0.52498 -0.00024 0.83396 0.0
C977 C 0.5053 0.93899 0.86987 0.0
C978 C 0.50754 0.93298 0.85011 0.0
C979 C 0.50385 0.95535 0.87207 0.0
C980 C 0.51436 -0.00052 0.84435 0.0
H981 H 0.48702 0.06021 0.8908 0.0
H982 H 0.49332 0.03374 0.89166 0.0
H983 H 0.52094 0.02751 0.83546 0.0
H984 H 0.50942 0.93918 0.81712 0.0
H985 H 0.50683 0.96755 0.82091 0.0
H986 H 0.48069 0.97161 0.87987 0.0
C987 C 0.49254 0.03953 0.87677 0.0
C988 C 0.51207 0.01539 0.84523 0.0
C989 C 0.48911 0.05477 0.87629 0.0
C990 C 0.50812 0.9436 0.8326 0.0
C991 C 0.50664 0.9599 0.83478 0.0
C992 C 0.48976 0.98384 0.87035 0.0
C993 C 0.4951 0.03197 0.85819 0.0
C994 C 0.49844 0.01562 0.85846 0.0
C995 C 0.50458 0.96603 0.85453 0.0
C996 C 0.50302 0.9834 0.85664 0.0
H997 H 0.49007 0.06094 0.82378 0.0
H998 H 0.49585 0.0343 0.82459 0.0
H999 H 0.47677 -0.00049 0.88148 0.0
H1000 H 0.50501 0.93123 0.88367 0.0
H1001 H 0.50245 0.9598 0.88752 0.0
C1002 C 0.43418 0.50506 0.87342 0.0
C1003 C 0.42538 0.50173 0.85386 0.0
C1004 C 0.45292 0.50887 0.87512 0.0
C1005 C 0.49697 0.52511 0.84519 0.0
H1006 H 0.50711 0.49449 0.88368 0.0
C1007 C 0.56134 0.51509 0.83564 0.0
C1008 C 0.57113 0.51462 0.8534 0.0
C1009 C 0.54439 0.51535 0.83749 0.0
C1010 C 0.50462 0.5034 0.87313 0.0
H1011 H 0.42943 0.50048 0.82075 0.0
H1012 H 0.46212 0.50716 0.82366 0.0
H1013 H 0.47602 0.4923 0.8838 0.0
H1014 H 0.57083 0.51405 0.88706 0.0
H1015 H 0.54109 0.51456 0.89036 0.0
H1016 H 0.52541 0.53607 0.83431 0.0
C1017 C 0.45457 0.50681 0.83768 0.0
C1018 C 0.48683 0.50214 0.87319 0.0
C1019 C 0.43581 0.50281 0.83602 0.0
C1020 C 0.5635 0.51425 0.87311 0.0
C1021 C 0.5465 0.51456 0.87498 0.0
C1022 C 0.51476 0.52646 0.84521 0.0
C1023 C 0.46324 0.50967 0.85726 0.0
C1024 C 0.48271 0.51266 0.85889 0.0
C1025 C 0.53682 0.5152 0.85716 0.0
C1026 C 0.51864 0.51528 0.85881 0.0
H1027 H 0.4264 0.50416 0.88743 0.0
H1028 H 0.45931 0.51111 0.89038 0.0
H1029 H 0.49426 0.53361 0.83424 0.0
H1030 H 0.5666 0.51495 0.82023 0.0
H1031 H 0.53705 0.51534 0.82343 0.0
C1032 C 0.93939 0.43537 0.8274 0.0
C1033 C 0.92999 0.4268 0.84604 0.0
C1034 C 0.95587 0.45319 0.8276 0.0
C1035 C 0.99563 0.48508 0.861 0.0
H1036 H 0.0019 0.52399 0.82168 0.0
C1037 C 0.05872 0.56208 0.86523 0.0
C1038 C 0.06647 0.57153 0.84639 0.0
C1039 C 0.04215 0.54431 0.86538 0.0
C1040 C 0.00051 0.5132 0.83258 0.0
H1041 H 0.93056 0.43011 0.8795 0.0
H1042 H 0.95938 0.46129 0.87986 0.0
H1043 H 0.97267 0.49327 0.8215 0.0
H1044 H 0.06341 0.56948 0.8129 0.0
H1045 H 0.03475 0.53834 0.81305 0.0
H1046 H 0.02357 0.50482 0.87188 0.0
C1047 C 0.95397 0.45419 0.86511 0.0
C1048 C 0.98373 0.49564 0.8325 0.0
C1049 C 0.93738 0.43645 0.86488 0.0
C1050 C 0.05757 0.56267 0.82767 0.0
C1051 C 0.04111 0.54485 0.82778 0.0
C1052 C 0.0125 0.50259 0.86097 0.0
C1053 C 0.96339 0.46271 0.84647 0.0
C1054 C 0.98113 0.48141 0.8467 0.0
C1055 C 0.03307 0.53553 0.84664 0.0
C1056 C 0.01515 0.51687 0.84674 0.0
H1057 H 0.93393 0.42834 0.81264 0.0
H1058 H 0.96292 0.45938 0.81302 0.0
H1059 H 0.99409 0.47426 0.87195 0.0
H1060 H 0.06516 0.56868 0.8799 0.0
H1061 H 0.03622 0.53767 0.8802 0.0
C1062 C 0.93998 0.5032 0.63511 0.0
C1063 C 0.93253 0.50488 0.65419 0.0
C1064 C 0.95616 0.50133 0.63458 0.0
C1065 C 0.98439 0.48699 0.66651 0.0
H1066 H 0.0252 0.51791 0.62821 0.0
C1067 C 0.05771 0.49309 0.67302 0.0
C1068 C 0.06679 0.4929 0.65453 0.0
C1069 C 0.04137 0.49463 0.67246 0.0
C1070 C 0.01383 0.509 0.63881 0.0
H1071 H 0.93591 0.50549 0.68764 0.0
H1072 H 0.9642 0.50235 0.68672 0.0
H1073 H 0.99618 0.51986 0.62799 0.0
H1074 H 0.06593 0.49426 0.62094 0.0
H1075 H 0.03726 0.49681 0.61991 0.0
H1076 H 0.0019 0.47603 0.6773 0.0
C1077 C 0.95752 0.50243 0.67218 0.0
C1078 C 0.99723 0.51013 0.63868 0.0
C1079 C 0.94144 0.50442 0.67271 0.0
C1080 C 0.05937 0.4946 0.63545 0.0
C1081 C 0.04294 0.49605 0.63487 0.0
C1082 C 0.00093 0.48579 0.66658 0.0
C1083 C 0.9651 0.50096 0.65311 0.0
C1084 C 0.98241 0.49924 0.65265 0.0
C1085 C 0.03367 0.49592 0.65338 0.0
C1086 C 0.01591 0.4969 0.65286 0.0
H1087 H 0.93352 0.50368 0.62059 0.0
H1088 H 0.96162 0.50008 0.61966 0.0
H1089 H 0.97307 0.47821 0.67723 0.0
H1090 H 0.06329 0.49216 0.68796 0.0
H1091 H 0.03482 0.49491 0.68702 0.0
C1092 C 0.56063 0.05581 0.66709 0.0
C1093 C 0.57053 0.0655 0.64909 0.0
C1094 C 0.54212 0.04049 0.66573 0.0
C1095 C 0.50887 0.0036 0.63025 0.0
H1096 H 0.47068 0.00021 0.66891 0.0
C1097 C 0.42974 0.94473 0.62489 0.0
C1098 C 0.42013 0.93722 0.64372 0.0
C1099 C 0.44808 0.96053 0.62483 0.0
C1100 C 0.48122 0.0008 0.65816 0.0
H1101 H 0.56888 0.06663 0.61556 0.0
H1102 H 0.53643 0.03975 0.61316 0.0
H1103 H 0.50267 0.0276 0.67015 0.0
H1104 H 0.42246 0.93985 0.67724 0.0
H1105 H 0.45449 0.96712 0.67722 0.0
H1106 H 0.48753 0.97661 0.6185 0.0
C1107 C 0.54305 0.04406 0.6283 0.0
C1108 C 0.49952 0.01653 0.65884 0.0
C1109 C 0.56153 0.05953 0.62969 0.0
C1110 C 0.42937 0.94556 0.66248 0.0
C1111 C 0.44772 0.96123 0.66244 0.0
C1112 C 0.49056 0.98776 0.62965 0.0
C1113 C 0.53316 0.03442 0.64632 0.0
C1114 C 0.51356 0.01803 0.645 0.0
C1115 C 0.45723 0.96905 0.64362 0.0
C1116 C 0.47656 0.98611 0.64372 0.0
H1117 H 0.56712 0.06021 0.68226 0.0
H1118 H 0.53489 0.03322 0.67986 0.0
H1119 H 0.51948 0.00431 0.61952 0.0
H1120 H 0.42288 0.9387 0.6102 0.0
H1121 H 0.45492 0.96632 0.61005 0.0
C1122 C 0.47802 0.42437 0.62261 0.0
C1123 C 0.473 0.4127 0.64031 0.0
C1124 C 0.48065 0.44271 0.62393 0.0
C1125 C 0.49313 0.4816 0.66061 0.0
H1126 H 0.47043 0.49951 0.62 0.0
C1127 C 0.4969 0.55419 0.66922 0.0
C1128 C 0.49903 0.56467 0.65107 0.0
C1129 C 0.4934 0.53552 0.66801 0.0
C1130 C 0.47711 0.49486 0.63131 0.0
H1131 H 0.46696 0.41116 0.67329 0.0
H1132 H 0.47164 0.44326 0.67561 0.0
H1133 H 0.46499 0.4672 0.61751 0.0
H1134 H 0.49961 0.56401 0.61744 0.0
H1135 H 0.494 0.53166 0.61525 0.0
H1136 H 0.50565 0.5093 0.67417 0.0
C1137 C 0.47348 0.43817 0.66072 0.0
C1138 C 0.47392 0.47632 0.6299 0.0
C1139 C 0.47062 0.41974 0.65935 0.0
C1140 C 0.49774 0.55616 0.63168 0.0
C1141 C 0.49446 0.53758 0.63046 0.0
C1142 C 0.49651 0.50022 0.6619 0.0
C1143 C 0.47854 0.44984 0.64303 0.0
C1144 C 0.48186 0.46949 0.64456 0.0
C1145 C 0.49216 0.52697 0.64861 0.0
C1146 C 0.48853 0.5071 0.64728 0.0
H1147 H 0.47982 0.41925 0.60773 0.0
H1148 H 0.48466 0.45145 0.61007 0.0
H1149 H 0.49963 0.47678 0.67197 0.0
H1150 H 0.49757 0.56031 0.68436 0.0
H1151 H 0.49138 0.52771 0.68232 0.0
C1152 C 0.46395 0.29399 0.25121 0.0
C1153 C 0.46135 0.2973 0.27207 0.0
C1154 C 0.4642 0.27756 0.24551 0.0
C1155 C 0.44754 0.22867 0.26291 0.0
H1156 H 0.48166 0.22966 0.22012 0.0
C1157 C 0.45119 0.16201 0.24026 0.0
C1158 C 0.45182 0.15867 0.2189 0.0
C1159 C 0.4534 0.17925 0.24723 0.0
C1160 C 0.47194 0.22915 0.23196 0.0
H1161 H 0.45735 0.28607 0.30339 0.0
H1162 H 0.45812 0.25744 0.29348 0.0
H1163 H 0.48421 0.2594 0.23195 0.0
H1164 H 0.4553 0.17087 0.18816 0.0
H1165 H 0.45917 0.20109 0.20036 0.0
H1166 H 0.43518 0.19843 0.26283 0.0
C1167 C 0.45972 0.2675 0.2815 0.0
C1168 C 0.47341 0.24617 0.23876 0.0
C1169 C 0.45948 0.28399 0.28721 0.0
C1170 C 0.45493 0.17309 0.2047 0.0
C1171 C 0.45716 0.19038 0.21169 0.0
C1172 C 0.44609 0.21167 0.25615 0.0
C1173 C 0.46191 0.26404 0.26055 0.0
C1174 C 0.46113 0.2461 0.25419 0.0
C1175 C 0.45632 0.19359 0.23304 0.0
C1176 C 0.45819 0.21172 0.2405 0.0
H1177 H 0.46573 0.30408 0.23921 0.0
H1178 H 0.46573 0.27524 0.22922 0.0
H1179 H 0.43765 0.22811 0.27458 0.0
H1180 H 0.44925 0.15141 0.25167 0.0
H1181 H 0.45301 0.18143 0.26379 0.0
C1182 C 0.2827 0.45528 0.2117 0.0
C1183 C 0.29478 0.45253 0.22503 0.0
C1184 C 0.26808 0.45769 0.2198 0.0
C1185 C 0.23872 0.4477 0.26693 0.0
H1186 H 0.22453 0.4821 0.2415 0.0
C1187 C 0.17797 0.45778 0.29918 0.0
C1188 C 0.16483 0.45643 0.28415 0.0
C1189 C 0.19529 0.4595 0.29312 0.0
C1190 C 0.22834 0.47242 0.24873 0.0
H1191 H 0.30162 0.45106 0.25731 0.0
H1192 H 0.27628 0.45538 0.27144 0.0
H1193 H 0.25213 0.48092 0.22847 0.0
H1194 H 0.15986 0.45677 0.25108 0.0
H1195 H 0.18988 0.45955 0.24053 0.0
H1196 H 0.2148 0.43907 0.28702 0.0
C1197 C 0.27775 0.45519 0.25472 0.0
C1198 C 0.24408 0.47169 0.24123 0.0
C1199 C 0.29226 0.45269 0.24662 0.0
C1200 C 0.16956 0.45743 0.26301 0.0
C1201 C 0.18687 0.45929 0.25697 0.0
C1202 C 0.22303 0.4485 0.27447 0.0
C1203 C 0.26535 0.45751 0.24142 0.0
C1204 C 0.24929 0.45913 0.25006 0.0
C1205 C 0.19982 0.46012 0.27193 0.0
C1206 C 0.21752 0.46066 0.26525 0.0
H1207 H 0.28429 0.45511 0.19501 0.0
H1208 H 0.25862 0.45919 0.20911 0.0
H1209 H 0.24218 0.43768 0.2739 0.0
H1210 H 0.17463 0.45703 0.31556 0.0
H1211 H 0.2051 0.46024 0.30498 0.0
C1212 C 0.81915 0.27254 0.20461 0.0
C1213 C 0.83166 0.28493 0.21975 0.0
C1214 C 0.80188 0.25673 0.21051 0.0
C1215 C 0.76765 0.23775 0.25384 0.0
H1216 H 0.75512 0.18817 0.23249 0.0
C1217 C 0.71418 0.16878 0.29495 0.0
C1218 C 0.7016 0.15327 0.28265 0.0
C1219 C 0.72903 0.18499 0.28581 0.0
C1220 C 0.75825 0.20194 0.23837 0.0
H1221 H 0.83561 0.29102 0.25276 0.0
H1222 H 0.8057 0.26353 0.26303 0.0
H1223 H 0.78248 0.21666 0.21845 0.0
H1224 H 0.69463 0.14272 0.25103 0.0
H1225 H 0.72055 0.17103 0.23507 0.0
H1226 H 0.74364 0.22311 0.27393 0.0
C1227 C 0.80915 0.26592 0.24664 0.0
C1228 C 0.77389 0.21823 0.23031 0.0
C1229 C 0.8264 0.28154 0.24078 0.0
C1230 C 0.70426 0.15429 0.26099 0.0
C1231 C 0.71909 0.17053 0.25183 0.0
C1232 C 0.75201 0.2215 0.26184 0.0
C1233 C 0.79677 0.25328 0.23161 0.0
C1234 C 0.77896 0.23625 0.23828 0.0
C1235 C 0.73159 0.18609 0.26413 0.0
C1236 C 0.74736 0.20339 0.2545 0.0
H1237 H 0.82293 0.27488 0.18831 0.0
H1238 H 0.79252 0.24723 0.19861 0.0
H1239 H 0.77107 0.2515 0.26004 0.0
H1240 H 0.71264 0.16829 0.31168 0.0
H1241 H 0.73865 0.1966 0.29576 0.0
C1242 C 0.54906 0.82193 0.19641 0.0
C1243 C 0.56233 0.84002 0.2039 0.0
C1244 C 0.5466 0.80561 0.20648 0.0
C1245 C 0.55052 0.78686 0.25606 0.0
H1246 H 0.5578 0.75066 0.2239 0.0
C1247 C 0.55382 0.72391 0.29415 0.0
C1248 C 0.54742 0.70728 0.28243 0.0
C1249 C 0.55468 0.74004 0.28522 0.0
C1250 C 0.55531 0.76036 0.23309 0.0
H1251 H 0.58303 0.85538 0.22797 0.0
H1252 H 0.57842 0.82673 0.24593 0.0
H1253 H 0.56066 0.77876 0.20701 0.0
H1254 H 0.53576 0.69376 0.25293 0.0
H1255 H 0.53621 0.72138 0.23759 0.0
H1256 H 0.54457 0.76828 0.28204 0.0
C1257 C 0.57013 0.82524 0.23215 0.0
C1258 C 0.5571 0.77653 0.22338 0.0
C1259 C 0.57287 0.84155 0.22182 0.0
C1260 C 0.54104 0.70662 0.26206 0.0
C1261 C 0.54147 0.72252 0.25328 0.0
C1262 C 0.54835 0.77047 0.26573 0.0
C1263 C 0.55708 0.80716 0.22445 0.0
C1264 C 0.55479 0.78993 0.2348 0.0
C1265 C 0.54876 0.73962 0.26453 0.0
C1266 C 0.55075 0.757 0.25437 0.0
H1267 H 0.54085 0.82044 0.18258 0.0
H1268 H 0.53644 0.79178 0.20032 0.0
H1269 H 0.54859 0.79702 0.26512 0.0
H1270 H 0.55883 0.7246 0.30989 0.0
H1271 H 0.56055 0.75296 0.29432 0.0
C1272 C 0.71942 0.54796 0.20568 0.0
C1273 C 0.71737 0.56398 0.20826 0.0
C1274 C 0.73059 0.54443 0.21941 0.0
C1275 C 0.76963 0.56878 0.25734 0.0
H1276 H 0.75805 0.51711 0.26834 0.0
C1277 C 0.82074 0.5514 0.30229 0.0
C1278 C 0.82638 0.5411 0.28954 0.0
C1279 C 0.80483 0.55288 0.29698 0.0
C1280 C 0.76132 0.5316 0.26559 0.0
H1281 H 0.72479 0.58856 0.22757 0.0
H1282 H 0.74401 0.58225 0.25193 0.0
H1283 H 0.73484 0.52263 0.25028 0.0
H1284 H 0.81958 0.52339 0.26222 0.0
H1285 H 0.79146 0.52548 0.25319 0.0
H1286 H 0.79623 0.57764 0.27251 0.0
C1287 C 0.73741 0.57263 0.23898 0.0
C1288 C 0.74815 0.53479 0.25507 0.0
C1289 C 0.72643 0.57627 0.22505 0.0
C1290 C 0.81541 0.53144 0.27215 0.0
C1291 C 0.79933 0.53255 0.26711 0.0
C1292 C 0.78267 0.56557 0.26813 0.0
C1293 C 0.73975 0.55673 0.23625 0.0
C1294 C 0.75243 0.55341 0.25015 0.0
C1295 C 0.79416 0.54365 0.27918 0.0
C1296 C 0.77888 0.54696 0.27172 0.0
H1297 H 0.71274 0.53838 0.19273 0.0
H1298 H 0.7324 0.53231 0.21648 0.0
H1299 H 0.77353 0.5833 0.25367 0.0
H1300 H 0.82917 0.55898 0.31571 0.0
H1301 H 0.80109 0.56155 0.30646 0.0
C1302 C 0.28212 0.82647 0.29165 0.0
C1303 C 0.29584 0.8379 0.27687 0.0
C1304 C 0.26544 0.81018 0.28546 0.0
C1305 C 0.24419 0.77591 0.24218 0.0
H1306 H 0.19647 0.76742 0.26521 0.0
C1307 C 0.17133 0.72148 0.20754 0.0
C1308 C 0.15674 0.71049 0.2217 0.0
C1309 C 0.18856 0.73663 0.21452 0.0
C1310 C 0.20969 0.76947 0.2588 0.0
H1311 H 0.30313 0.84078 0.24413 0.0
H1312 H 0.27397 0.81265 0.23331 0.0
H1313 H 0.22624 0.79417 0.27745 0.0
H1314 H 0.14907 0.70646 0.25438 0.0
H1315 H 0.17898 0.73281 0.26648 0.0
H1316 H 0.22761 0.75126 0.22343 0.0
C1317 C 0.27611 0.81618 0.24969 0.0
C1318 C 0.22674 0.78476 0.26585 0.0
C1319 C 0.29272 0.83246 0.25586 0.0
C1320 C 0.15981 0.71488 0.24298 0.0
C1321 C 0.177 0.72998 0.24995 0.0
C1322 C 0.22713 0.7606 0.23513 0.0
C1323 C 0.2622 0.80496 0.26438 0.0
C1324 C 0.24417 0.7882 0.25755 0.0
C1325 C 0.19154 0.74107 0.23581 0.0
C1326 C 0.20969 0.75725 0.24332 0.0
H1327 H 0.28408 0.83036 0.30793 0.0
H1328 H 0.25505 0.80169 0.29717 0.0
H1329 H 0.25742 0.77805 0.23568 0.0
H1330 H 0.16931 0.71853 0.19104 0.0
H1331 H 0.19943 0.74507 0.20322 0.0
C1332 C 0.54327 0.82442 0.78541 0.0
C1333 C 0.54232 0.83665 0.77063 0.0
C1334 C 0.54329 0.80798 0.77911 0.0
C1335 C 0.55322 0.78637 0.73408 0.0
H1336 H 0.52205 0.73915 0.7637 0.0
C1337 C 0.54196 0.71416 0.70504 0.0
C1338 C 0.5428 0.70213 0.72016 0.0
C1339 C 0.54169 0.73058 0.71091 0.0
C1340 C 0.53096 0.75227 0.7554 0.0
H1341 H 0.54034 0.84103 0.73766 0.0
H1342 H 0.54047 0.81244 0.7267 0.0
H1343 H 0.52229 0.76798 0.77476 0.0
H1344 H 0.54366 0.69773 0.75333 0.0
H1345 H 0.54361 0.7265 0.76351 0.0
H1346 H 0.56196 0.77067 0.71477 0.0
C1347 C 0.54148 0.81571 0.74313 0.0
C1348 C 0.53111 0.76876 0.76174 0.0
C1349 C 0.54143 0.83211 0.74943 0.0
C1350 C 0.54328 0.70681 0.74127 0.0
C1351 C 0.54299 0.72318 0.74713 0.0
C1352 C 0.55309 0.76987 0.72775 0.0
C1353 C 0.54239 0.80347 0.7579 0.0
C1354 C 0.54227 0.78598 0.75118 0.0
C1355 C 0.5422 0.73524 0.73203 0.0
C1356 C 0.54201 0.75267 0.73839 0.0
H1357 H 0.54424 0.82766 0.80183 0.0
H1358 H 0.54427 0.79893 0.79082 0.0
H1359 H 0.56214 0.7995 0.7258 0.0
H1360 H 0.54172 0.711 0.68867 0.0
H1361 H 0.54091 0.73954 0.69893 0.0
C1362 C 0.8218 0.54271 0.7046 0.0
C1363 C 0.83501 0.54439 0.71973 0.0
C1364 C 0.80441 0.54089 0.71048 0.0
C1365 C 0.77146 0.52758 0.75503 0.0
H1366 H 0.75287 0.55697 0.72618 0.0
C1367 C 0.71067 0.53788 0.78658 0.0
C1368 C 0.69726 0.53687 0.77209 0.0
C1369 C 0.72697 0.53776 0.7799 0.0
C1370 C 0.75778 0.54851 0.73423 0.0
H1371 H 0.8401 0.54503 0.75293 0.0
H1372 H 0.81012 0.54236 0.76311 0.0
H1373 H 0.78223 0.55859 0.71468 0.0
H1374 H 0.69008 0.53412 0.7393 0.0
H1375 H 0.7185 0.53403 0.7277 0.0
H1376 H 0.74709 0.51769 0.77475 0.0
C1377 C 0.81308 0.54226 0.74671 0.0
C1378 C 0.77456 0.54941 0.72762 0.0
C1379 C 0.83041 0.54408 0.74084 0.0
C1380 C 0.70032 0.53535 0.75084 0.0
C1381 C 0.71659 0.53527 0.74418 0.0
C1382 C 0.7547 0.52671 0.76167 0.0
C1383 C 0.79989 0.54065 0.73162 0.0
C1384 C 0.78164 0.53904 0.73803 0.0
C1385 C 0.73016 0.53663 0.75861 0.0
C1386 C 0.74774 0.53724 0.75139 0.0
H1387 H 0.82499 0.54302 0.68823 0.0
H1388 H 0.79444 0.53953 0.6985 0.0
H1389 H 0.77641 0.51919 0.76316 0.0
H1390 H 0.70882 0.53926 0.80302 0.0
H1391 H 0.7373 0.53903 0.79136 0.0
C1392 C 0.28684 0.8269 0.71271 0.0
C1393 C 0.28588 0.84363 0.71464 0.0
C1394 C 0.27317 0.81008 0.72215 0.0
C1395 C 0.23591 0.79202 0.76298 0.0
H1396 H 0.21597 0.74459 0.73269 0.0
C1397 C 0.17663 0.72078 0.79664 0.0
C1398 C 0.16193 0.70963 0.78267 0.0
C1399 C 0.1935 0.73639 0.7895 0.0
C1400 C 0.22138 0.75773 0.74135 0.0
H1401 H 0.26975 0.85583 0.72751 0.0
H1402 H 0.24561 0.82641 0.7436 0.0
H1403 H 0.24166 0.7736 0.7177 0.0
H1404 H 0.1538 0.70566 0.75012 0.0
H1405 H 0.18272 0.73297 0.73785 0.0
H1406 H 0.21497 0.77628 0.78615 0.0
C1407 C 0.25717 0.82635 0.73529 0.0
C1408 C 0.23626 0.77433 0.73286 0.0
C1409 C 0.2709 0.84317 0.72598 0.0
C1410 C 0.16463 0.71413 0.76139 0.0
C1411 C 0.1814 0.72965 0.75429 0.0
C1412 C 0.22096 0.77543 0.77143 0.0
C1413 C 0.25821 0.80963 0.7336 0.0
C1414 C 0.24345 0.79174 0.74339 0.0
C1415 C 0.19599 0.74105 0.76823 0.0
C1416 C 0.21328 0.75817 0.7605 0.0
H1417 H 0.29844 0.82693 0.70441 0.0
H1418 H 0.27452 0.79751 0.72077 0.0
H1419 H 0.24138 0.80514 0.77168 0.0
H1420 H 0.17493 0.71767 0.81312 0.0
H1421 H 0.20456 0.74482 0.80061 0.0
C1422 C 0.46282 0.16745 0.76299 0.0
C1423 C 0.45346 0.15961 0.78179 0.0
C1424 C 0.46323 0.18353 0.7548 0.0
C1425 C 0.45239 0.22214 0.76655 0.0
H1426 H 0.44622 0.22113 0.70669 0.0
C1427 C 0.42742 0.2673 0.7208 0.0
C1428 C 0.4381 0.27671 0.70308 0.0
C1429 C 0.43104 0.25454 0.73162 0.0
C1430 C 0.44814 0.22169 0.72339 0.0
H1431 H 0.43781 0.16252 0.80727 0.0
H1432 H 0.4377 0.1903 0.79258 0.0
H1433 H 0.44938 0.19611 0.72358 0.0
H1434 H 0.46093 0.28029 0.6828 0.0
H1435 H 0.46703 0.25762 0.70149 0.0
H1436 H 0.45022 0.24742 0.76616 0.0
C1437 C 0.44517 0.18439 0.78434 0.0
C1438 C 0.45007 0.20742 0.73312 0.0
C1439 C 0.44513 0.16848 0.79275 0.0
C1440 C 0.45257 0.27327 0.69647 0.0
C1441 C 0.45599 0.26028 0.70708 0.0
C1442 C 0.45015 0.23629 0.7568 0.0
C1443 C 0.45388 0.19186 0.765 0.0
C1444 C 0.45229 0.20746 0.75482 0.0
C1445 C 0.44519 0.25075 0.72468 0.0
C1446 C 0.44805 0.23617 0.73514 0.0
H1447 H 0.46959 0.16092 0.75452 0.0
H1448 H 0.47061 0.1892 0.74024 0.0
H1449 H 0.4543 0.22278 0.78324 0.0
H1450 H 0.41634 0.2699 0.72633 0.0
H1451 H 0.42245 0.24725 0.74507 0.0
C1452 C 0.17353 0.44822 0.70453 0.0
C1453 C 0.16155 0.44946 0.7194 0.0
C1454 C 0.19017 0.44848 0.71072 0.0
C1455 C 0.22412 0.46246 0.75423 0.0
H1456 H 0.23378 0.42325 0.73352 0.0
C1457 C 0.27626 0.44473 0.79485 0.0
C1458 C 0.28828 0.44119 0.78228 0.0
C1459 C 0.26145 0.44638 0.78606 0.0
C1460 C 0.23143 0.43444 0.73924 0.0
H1461 H 0.15797 0.4528 0.75225 0.0
H1462 H 0.18676 0.45309 0.76302 0.0
H1463 H 0.20731 0.42592 0.71944 0.0
H1464 H 0.29421 0.43672 0.75053 0.0
H1465 H 0.26837 0.43957 0.73521 0.0
H1466 H 0.24807 0.47091 0.77416 0.0
C1467 C 0.18337 0.4519 0.74661 0.0
C1468 C 0.2163 0.43599 0.73115 0.0
C1469 C 0.16675 0.45148 0.74046 0.0
C1470 C 0.28502 0.43912 0.76072 0.0
C1471 C 0.27023 0.4408 0.75191 0.0
C1472 C 0.23925 0.46095 0.76228 0.0
C1473 C 0.19519 0.45026 0.73185 0.0
C1474 C 0.21232 0.44982 0.73882 0.0
C1475 C 0.25837 0.44458 0.76447 0.0
C1476 C 0.24288 0.44674 0.75512 0.0
H1477 H 0.1698 0.44662 0.68821 0.0
H1478 H 0.19911 0.44731 0.69901 0.0
H1479 H 0.22156 0.47345 0.7602 0.0
H1480 H 0.27828 0.44615 0.81152 0.0
H1481 H 0.25233 0.44894 0.7962 0.0
C1482 C 0.70598 0.17167 0.72304 0.0
C1483 C 0.70641 0.15464 0.72187 0.0
C1484 C 0.72082 0.18765 0.73261 0.0
C1485 C 0.76145 0.20134 0.76872 0.0
H1486 H 0.77823 0.25204 0.74764 0.0
C1487 C 0.83405 0.26721 0.78668 0.0
C1488 C 0.83398 0.28378 0.79266 0.0
C1489 C 0.81731 0.25124 0.78018 0.0
C1490 C 0.7735 0.23795 0.7538 0.0
H1491 H 0.72275 0.14099 0.72889 0.0
H1492 H 0.7491 0.16902 0.74477 0.0
H1493 H 0.75165 0.2247 0.73093 0.0
H1494 H 0.81655 0.29679 0.79675 0.0
H1495 H 0.78714 0.26881 0.78487 0.0
H1496 H 0.78399 0.21469 0.79096 0.0
C1497 C 0.73707 0.16998 0.73909 0.0
C1498 C 0.75826 0.22229 0.7443 0.0
C1499 C 0.7221 0.15396 0.72986 0.0
C1500 C 0.81684 0.28405 0.79242 0.0
C1501 C 0.80014 0.26818 0.7855 0.0
C1502 C 0.77687 0.21697 0.77798 0.0
C1503 C 0.7365 0.18695 0.74091 0.0
C1504 C 0.75217 0.20375 0.7515 0.0
C1505 C 0.80031 0.25172 0.77917 0.0
C1506 C 0.78309 0.23537 0.77049 0.0
H1507 H 0.69387 0.17242 0.71723 0.0
H1508 H 0.71976 0.20038 0.73395 0.0
H1509 H 0.75687 0.18735 0.77506 0.0
H1510 H 0.84715 0.26677 0.78679 0.0
H1511 H 0.81779 0.23873 0.77523 0.0
C1512 C 0.42118 0.04938 0.20471 0.0
C1513 C 0.41296 0.05838 0.1936 0.0
C1514 C 0.41031 0.03461 0.21844 0.0
C1515 C 0.36444 0.9962 0.23178 0.0
H1516 H 0.38421 0.00525 0.28806 0.0
C1517 C 0.33333 0.93668 0.29361 0.0
C1518 C 0.34725 0.93468 0.30447 0.0
C1519 C 0.33838 0.95318 0.28209 0.0
C1520 C 0.37849 0.00245 0.27244 0.0
H1521 H 0.38656 0.05803 0.18725 0.0
H1522 H 0.36735 0.03155 0.21101 0.0
H1523 H 0.3988 0.0305 0.26222 0.0
H1524 H 0.37709 0.94893 0.31293 0.0
H1525 H 0.38588 0.97729 0.29279 0.0
H1526 H 0.34493 0.96775 0.24155 0.0
C1527 C 0.38234 0.03635 0.20919 0.0
C1528 C 0.3868 0.01693 0.2577 0.0
C1529 C 0.39332 0.05143 0.19562 0.0
C1530 C 0.36602 0.94995 0.30466 0.0
C1531 C 0.37104 0.96634 0.29319 0.0
C1532 C 0.35626 0.98155 0.24648 0.0
C1533 C 0.39093 0.02826 0.22114 0.0
C1534 C 0.38019 0.01376 0.23714 0.0
C1535 C 0.35742 0.96799 0.28129 0.0
C1536 C 0.36361 0.98434 0.26682 0.0
H1537 H 0.43623 0.05426 0.20353 0.0
H1538 H 0.41716 0.02836 0.22731 0.0
H1539 H 0.35916 0.99348 0.21597 0.0
H1540 H 0.31873 0.92517 0.29318 0.0
H1541 H 0.32749 0.9541 0.27334 0.0
C1542 C 0.34279 0.3934 0.19353 0.0
C1543 C 0.3549 0.41321 0.19499 0.0
C1544 C 0.34581 0.38107 0.20609 0.0
C1545 C 0.36341 0.37921 0.25663 0.0
H1546 H 0.37811 0.3436 0.23594 0.0
C1547 C 0.41062 0.35959 0.30255 0.0
C1548 C 0.4098 0.34208 0.29944 0.0
C1549 C 0.39848 0.36398 0.29174 0.0
C1550 C 0.37349 0.35305 0.24205 0.0
H1551 H 0.3801 0.43552 0.2102 0.0
H1552 H 0.38503 0.41403 0.23224 0.0
H1553 H 0.36765 0.35962 0.21155 0.0
H1554 H 0.39463 0.31484 0.28379 0.0
H1555 H 0.37311 0.32248 0.26498 0.0
H1556 H 0.36951 0.37309 0.28702 0.0
C1557 C 0.37326 0.40811 0.22139 0.0
C1558 C 0.36762 0.36227 0.22805 0.0
C1559 C 0.37048 0.42036 0.20865 0.0
C1560 C 0.3956 0.32847 0.28647 0.0
C1561 C 0.38341 0.3329 0.27557 0.0
C1562 C 0.36898 0.36982 0.27063 0.0
C1563 C 0.36076 0.38843 0.22051 0.0
C1564 C 0.36331 0.37597 0.23521 0.0
C1565 C 0.38515 0.35096 0.27758 0.0
C1566 C 0.37493 0.35729 0.26343 0.0
H1567 H 0.3307 0.38747 0.18312 0.0
H1568 H 0.3361 0.36589 0.20513 0.0
H1569 H 0.35988 0.38959 0.26246 0.0
H1570 H 0.42134 0.37034 0.31254 0.0
H1571 H 0.40043 0.37811 0.29355 0.0
C1572 C 0.05693 0.42537 0.28764 0.0
C1573 C 0.0628 0.41759 0.30356 0.0
C1574 C 0.04134 0.41369 0.27526 0.0
C1575 C 0.99615 0.3725 0.27471 0.0
H1576 H 0.00166 0.37499 0.21464 0.0
C1577 C 0.93875 0.36455 0.21763 0.0
C1578 C 0.93316 0.35062 0.20205 0.0
C1579 C 0.95439 0.369 0.23017 0.0
C1580 C -3e-05 0.3739 0.23138 0.0
H1581 H 0.05669 0.39152 0.31927 0.0
H1582 H 0.02859 0.37103 0.29796 0.0
H1583 H 0.03003 0.38985 0.23681 0.0
H1584 H 0.9398 0.33071 0.18712 0.0
H1585 H 0.96797 0.33927 0.20871 0.0
H1586 H 0.96608 0.35784 0.26926 0.0
C1587 C 0.03649 0.38619 0.29496 0.0
C1588 C 0.01612 0.3824 0.244 0.0
C1589 C 0.05246 0.39787 0.30712 0.0
C1590 C 0.94381 0.34151 0.199 0.0
C1591 C 0.95982 0.34633 0.21132 0.0
C1592 C 0.98 0.36432 0.26208 0.0
C1593 C 0.03104 0.39404 0.27876 0.0
C1594 C 0.01429 0.38215 0.26573 0.0
C1595 C 0.96501 0.35992 0.22717 0.0
C1596 C 0.98182 0.36538 0.24034 0.0
H1597 H 0.06465 0.44048 0.28437 0.0
H1598 H 0.0372 0.42005 0.26301 0.0
H1599 H 0.99445 0.3723 0.29143 0.0
H1600 H 0.93078 0.37174 0.2205 0.0
H1601 H 0.95832 0.37972 0.24214 0.0
C1602 C 0.59075 0.95247 0.20942 0.0
C1603 C 0.57486 0.9342 0.21148 0.0
C1604 C 0.59761 0.96473 0.22641 0.0
C1605 C 0.58338 0.97411 0.27735 0.0
H1606 H 0.63742 0.00998 0.28099 0.0
C1607 C 0.64215 0.04678 0.32413 0.0
C1608 C 0.63176 0.05636 0.32388 0.0
C1609 C 0.63453 0.02865 0.31534 0.0
C1610 C 0.62232 -0.00014 0.28061 0.0
H1611 H 0.55381 0.91436 0.23307 0.0
H1612 H 0.56596 0.93576 0.26297 0.0
H1613 H 0.62585 0.9841 0.25616 0.0
H1614 H 0.60472 0.05387 0.31546 0.0
H1615 H 0.59181 0.02281 0.29968 0.0
H1616 H 0.57989 0.98984 0.30193 0.0
C1617 C 0.57296 0.94067 0.24809 0.0
C1618 C 0.61565 0.98516 0.26608 0.0
C1619 C 0.56601 0.9284 0.23098 0.0
C1620 C 0.6132 0.04697 0.31582 0.0
C1621 C 0.60568 0.02899 0.30691 0.0
C1622 C 0.59008 0.98872 0.29207 0.0
C1623 C 0.58888 0.959 0.24598 0.0
C1624 C 0.59605 0.97256 0.26371 0.0
C1625 C 0.61644 0.0198 0.306 0.0
C1626 C 0.60958 0.00221 0.29335 0.0
H1627 H 0.59785 0.95746 0.1946 0.0
H1628 H 0.60959 0.97888 0.22403 0.0
H1629 H 0.56819 0.96465 0.276 0.0
H1630 H 0.65641 0.05354 0.33043 0.0
H1631 H 0.64307 0.02184 0.31531 0.0
C1632 C 0.56623 0.61856 0.30732 0.0
C1633 C 0.57518 0.63707 0.31553 0.0
C1634 C 0.5768 0.6117 0.2973 0.0
C1635 C 0.62155 0.62969 0.26852 0.0
H1636 H 0.60533 0.57602 0.26536 0.0
C1637 C 0.63923 0.59802 0.19827 0.0
C1638 C 0.64257 0.58282 0.20123 0.0
C1639 C 0.6333 0.60491 0.2148 0.0
C1640 C 0.6103 0.5911 0.26626 0.0
H1641 H 0.60243 0.66241 0.321 0.0
H1642 H 0.621 0.65024 0.30386 0.0
H1643 H 0.59156 0.58717 0.29152 0.0
H1644 H 0.64292 0.5633 0.22393 0.0
H1645 H 0.63277 0.57545 0.25293 0.0
H1646 H 0.6404 0.63366 0.24342 0.0
C1647 C 0.60571 0.64121 0.30471 0.0
C1648 C 0.60222 0.59747 0.28112 0.0
C1649 C 0.59509 0.64815 0.31465 0.0
C1650 C 0.64012 0.5748 0.22112 0.0
C1651 C 0.63432 0.58179 0.23773 0.0
C1652 C 0.62973 0.62335 0.25381 0.0
C1653 C 0.59663 0.62311 0.29539 0.0
C1654 C 0.60734 0.61676 0.28202 0.0
C1655 C 0.63077 0.59689 0.23475 0.0
C1656 C 0.6238 0.6039 0.25207 0.0
H1657 H 0.55092 0.60959 0.30779 0.0
H1658 H 0.56925 0.5978 0.29012 0.0
H1659 H 0.62575 0.64462 0.26862 0.0
H1660 H 0.64091 0.60444 0.18309 0.0
H1661 H 0.63031 0.61628 0.2118 0.0
C1662 C 0.93244 0.59484 0.29506 0.0
C1663 C 0.92668 0.57589 0.30032 0.0
C1664 C 0.94768 0.60497 0.28138 0.0
C1665 C 0.97187 0.59643 0.23848 0.0
H1666 H 0.01492 0.64633 0.24992 0.0
C1667 C 0.04337 0.62387 0.19806 0.0
C1668 C 0.05492 0.64336 0.19387 0.0
C1669 C 0.02624 0.61715 0.20865 0.0
C1670 C 0.00281 0.63258 0.24627 0.0
H1671 H 0.93302 0.55309 0.29612 0.0
H1672 H 0.95933 0.57067 0.27236 0.0
H1673 H 0.98821 0.63209 0.27429 0.0
H1674 H 0.05713 0.671 0.19669 0.0
H1675 H 0.0269 0.65915 0.21512 0.0
H1676 H 0.98635 0.59667 0.21066 0.0
C1677 C 0.95196 0.57761 0.27858 0.0
C1678 C 0.98758 0.62442 0.26027 0.0
C1679 C 0.93694 0.5676 0.29232 0.0
C1680 C 0.04852 0.6559 0.19968 0.0
C1681 C 0.03131 0.64914 0.21038 0.0
C1682 C 0.98695 0.60461 0.22444 0.0
C1683 C 0.95721 0.59622 0.27261 0.0
C1684 C 0.97227 0.60602 0.25679 0.0
C1685 C 0.02015 0.62972 0.2153 0.0
C1686 C 0.00287 0.62252 0.22847 0.0
H1687 H 0.92484 0.60165 0.30097 0.0
H1688 H 0.95153 0.61935 0.27706 0.0
H1689 H 0.96003 0.58238 0.23521 0.0
H1690 H 0.04784 0.61381 0.19375 0.0
H1691 H 0.01817 0.60215 0.21239 0.0
C1692 C 0.59804 0.93588 0.79024 0.0
C1693 C 0.58022 0.9321 0.7978 0.0
C1694 C 0.60831 0.95103 0.77648 0.0
C1695 C 0.59924 0.97513 0.73538 0.0
H1696 H 0.64927 0.01909 0.74333 0.0
C1697 C 0.62325 0.04457 0.6919 0.0
C1698 C 0.64254 0.05675 0.68734 0.0
C1699 C 0.6174 0.02773 0.70281 0.0
C1700 C 0.63548 0.00669 0.7406 0.0
H1701 H 0.55994 0.94214 0.79805 0.0
H1702 H 0.57769 0.96817 0.77392 0.0
H1703 H 0.63656 0.99343 0.76911 0.0
H1704 H 0.67074 0.06021 0.68957 0.0
H1705 H 0.66043 0.03045 0.7084 0.0
H1706 H 0.59791 0.98811 0.70706 0.0
C1707 C 0.58361 0.95936 0.77853 0.0
C1708 C 0.62821 0.9921 0.75543 0.0
C1709 C 0.57351 0.94449 0.79241 0.0
C1710 C 0.65576 0.05113 0.69286 0.0
C1711 C 0.64988 0.03419 0.70383 0.0
C1712 C 0.60657 0.9895 0.72047 0.0
C1713 C 0.60077 0.9624 0.76998 0.0
C1714 C 0.60979 0.97655 0.75322 0.0
C1715 C 0.63069 0.02252 0.70937 0.0
C1716 C 0.62449 0.00579 0.72324 0.0
H1717 H 0.60362 0.92663 0.79412 0.0
H1718 H 0.6216 0.95323 0.7701 0.0
H1719 H 0.58509 0.96307 0.73324 0.0
H1720 H 0.61267 0.04843 0.68782 0.0
H1721 H 0.60255 0.01929 0.707 0.0
C1722 C 0.62868 0.5802 0.80488 0.0
C1723 C 0.64722 0.58321 0.80336 0.0
C1724 C 0.62358 0.59196 0.79433 0.0
C1725 C 0.63665 0.62113 0.74734 0.0
H1726 H 0.59534 0.62854 0.76565 0.0
C1727 C 0.59709 0.6516 0.69756 0.0
C1728 C 0.57736 0.63894 0.69707 0.0
C1729 C 0.60874 0.64822 0.71084 0.0
C1730 C 0.607 0.62671 0.76042 0.0
H1731 H 0.67537 0.60176 0.79085 0.0
H1732 H 0.66649 0.62258 0.77254 0.0
H1733 H 0.61118 0.61854 0.79064 0.0
H1734 H 0.55451 0.61244 0.70953 0.0
H1735 H 0.57479 0.60684 0.73279 0.0
H1736 H 0.6321 0.6291 0.71697 0.0
C1737 C 0.65582 0.61088 0.78164 0.0
C1738 C 0.61603 0.62094 0.77467 0.0
C1739 C 0.66094 0.59907 0.79227 0.0
C1740 C 0.56964 0.62251 0.7095 0.0
C1741 C 0.58119 0.61934 0.72295 0.0
C1742 C 0.62776 0.62719 0.73312 0.0
C1743 C 0.63693 0.60708 0.78204 0.0
C1744 C 0.63041 0.61728 0.76812 0.0
C1745 C 0.60074 0.63234 0.72403 0.0
C1746 C 0.61239 0.62928 0.73943 0.0
H1747 H 0.61778 0.56818 0.81342 0.0
H1748 H 0.60885 0.58841 0.79485 0.0
H1749 H 0.64756 0.61831 0.74172 0.0
H1750 H 0.60345 0.66436 0.68814 0.0
H1751 H 0.62384 0.65835 0.71138 0.0
C1752 C 0.055 0.65697 0.80451 0.0
C1753 C 0.06066 0.64391 0.81053 0.0
C1754 C 0.03815 0.65085 0.79329 0.0
C1755 C 0.99351 0.60732 0.77761 0.0
H1756 H -0.00246 0.63579 0.72757 0.0
C1757 C 0.94591 0.572 0.70781 0.0
C1758 C 0.93579 0.58046 0.69985 0.0
C1759 C 0.96073 0.58177 0.72182 0.0
C1760 C 0.99615 0.62786 0.74163 0.0
H1761 H 0.05261 0.61409 0.81058 0.0
H1762 H 0.02356 0.60351 0.79104 0.0
H1763 H 0.02332 0.6491 0.75313 0.0
H1764 H 0.93418 0.60634 0.69931 0.0
H1765 H 0.96058 0.62364 0.72366 0.0
H1766 H 0.96678 0.58573 0.76567 0.0
C1767 C 0.03193 0.61844 0.795 0.0
C1768 C 0.01083 0.63548 0.75631 0.0
C1769 C 0.0487 0.62454 0.8061 0.0
C1770 C 0.94167 0.59941 0.7052 0.0
C1771 C 0.95672 0.6093 0.71914 0.0
C1772 C 0.97899 0.59967 0.76289 0.0
C1773 C 0.02663 0.63155 0.78805 0.0
C1774 C 0.00989 0.62503 0.77419 0.0
C1775 C 0.96594 0.6003 0.72806 0.0
C1776 C 0.98041 0.60962 0.74452 0.0
H1777 H 0.06394 0.67201 0.80768 0.0
H1778 H 0.03434 0.66126 0.78834 0.0
H1779 H 0.99213 0.5991 0.79142 0.0
H1780 H 0.94192 0.5575 0.7039 0.0
H1781 H 0.9679 0.57466 0.72816 0.0
C1782 C 0.39442 0.05597 0.79871 0.0
C1783 C 0.41323 0.06128 0.80406 0.0
C1784 C 0.38455 0.04181 0.78379 0.0
C1785 C 0.39399 0.02215 0.73764 0.0
H1786 H 0.34424 0.97766 0.74515 0.0
C1787 C 0.36765 0.9561 0.68674 0.0
C1788 C 0.34813 0.9442 0.68304 0.0
C1789 C 0.37413 0.9721 0.69936 0.0
C1790 C 0.35795 0.99022 0.74258 0.0
H1791 H 0.436 0.05511 0.79869 0.0
H1792 H 0.41888 0.03072 0.77264 0.0
H1793 H 0.35789 0.00147 0.77279 0.0
H1794 H 0.32016 0.94048 0.68864 0.0
H1795 H 0.33155 0.96882 0.71043 0.0
H1796 H 0.39423 0.01118 0.70755 0.0
C1797 C 0.41184 0.03759 0.77988 0.0
C1798 C 0.36579 0.00376 0.75849 0.0
C1799 C 0.42158 0.05148 0.79492 0.0
C1800 C 0.3353 0.94937 0.69118 0.0
C1801 C 0.34181 0.96548 0.70386 0.0
C1802 C 0.3861 0.00881 0.72168 0.0
C1803 C 0.39344 0.03296 0.77379 0.0
C1804 C 0.38411 0.01955 0.75636 0.0
C1805 C 0.36127 0.97674 0.70856 0.0
C1806 C 0.36823 0.99236 0.72417 0.0
H1807 H 0.38756 0.06321 0.80547 0.0
H1808 H 0.37032 0.03841 0.7794 0.0
H1809 H 0.408 0.03442 0.73547 0.0
H1810 H 0.37795 0.95258 0.68065 0.0
H1811 H 0.38918 0.98022 0.70276 0.0
C1812 C 0.3527 0.3978 0.81905 0.0
C1813 C 0.36251 0.41777 0.81897 0.0
C1814 C 0.36055 0.38785 0.80941 0.0
C1815 C 0.40493 0.39405 0.7843 0.0
H1816 H 0.36919 0.3534 0.74862 0.0
C1817 C 0.42911 0.35823 0.72288 0.0
C1818 C 0.41999 0.35475 0.7035 0.0
C1819 C 0.42225 0.36369 0.73994 0.0
C1820 C 0.37938 0.36476 0.75844 0.0
H1821 H 0.38882 0.44295 0.80993 0.0
H1822 H 0.40215 0.42577 0.79275 0.0
H1823 H 0.35749 0.36708 0.77414 0.0
H1824 H 0.39666 0.3544 0.68674 0.0
H1825 H 0.38504 0.36434 0.71616 0.0
H1826 H 0.42689 0.39254 0.76756 0.0
C1827 C 0.38855 0.41765 0.80045 0.0
C1828 C 0.37264 0.37241 0.77337 0.0
C1829 C 0.38079 0.42755 0.81018 0.0
C1830 C 0.40395 0.35686 0.7015 0.0
C1831 C 0.39718 0.36241 0.71845 0.0
C1832 C 0.41168 0.3865 0.76922 0.0
C1833 C 0.37832 0.39769 0.79941 0.0
C1834 C 0.38535 0.38752 0.78609 0.0
C1835 C 0.40616 0.36581 0.73792 0.0
C1836 C 0.399 0.37215 0.7557 0.0
H1837 H 0.33867 0.38984 0.82587 0.0
H1838 H 0.35244 0.37247 0.80925 0.0
H1839 H 0.41511 0.40544 0.7941 0.0
H1840 H 0.44138 0.35651 0.72495 0.0
H1841 H 0.42942 0.36604 0.75475 0.0
C1842 C 0.05516 0.39806 0.70536 0.0
C1843 C 0.06139 0.41694 0.69938 0.0
C1844 C 0.03981 0.3886 0.71906 0.0
C1845 C 0.01675 0.39969 0.76106 0.0
H1846 H 0.97344 0.34922 0.75303 0.0
C1847 C 0.9469 0.37414 0.80454 0.0
C1848 C 0.93577 0.35493 0.81019 0.0
C1849 C 0.96348 0.38036 0.79301 0.0
C1850 C 0.98563 0.36317 0.75572 0.0
H1851 H 0.05556 0.44021 0.70198 0.0
H1852 H 0.029 0.42379 0.72576 0.0
H1853 H -0.00065 0.36215 0.7276 0.0
H1854 H 0.93375 0.3273 0.8089 0.0
H1855 H 0.96302 0.33828 0.78882 0.0
H1856 H 0.00319 0.40092 0.78899 0.0
C1857 C 0.03614 0.4164 0.72016 0.0
C1858 C 0.00039 0.37058 0.74111 0.0
C1859 C 0.05131 0.42576 0.70643 0.0
C1860 C 0.94204 0.3422 0.8048 0.0
C1861 C 0.95869 0.34845 0.79315 0.0
C1862 C 0.00214 0.39227 0.77569 0.0
C1863 C 0.03058 0.39796 0.72708 0.0
C1864 C 0.01581 0.38912 0.74337 0.0
C1865 C 0.96942 0.36755 0.78684 0.0
C1866 C 0.98614 0.37415 0.77291 0.0
H1867 H 0.06261 0.39086 0.70019 0.0
H1868 H 0.03572 0.37434 0.72412 0.0
H1869 H 0.0287 0.41386 0.76342 0.0
H1870 H 0.94251 0.38435 0.80848 0.0
H1871 H 0.97122 0.39512 0.78821 0.0
C1872 C 0.51204 0.13616 0.22513 0.0
C1873 C 0.51115 0.13783 0.20352 0.0
C1874 C 0.52956 0.14397 0.23518 0.0
C1875 C 0.57472 0.14903 0.22645 0.0
H1876 H 0.58873 0.17613 0.2789 0.0
C1877 C 0.63046 0.14552 0.27694 0.0
C1878 C 0.62609 0.14264 0.29815 0.0
C1879 C 0.62136 0.15237 0.26408 0.0
C1880 C 0.58502 0.16845 0.26433 0.0
H1881 H 0.52766 0.14956 0.17546 0.0
H1882 H 0.55856 0.16263 0.19304 0.0
H1883 H 0.56255 0.17452 0.25862 0.0
H1884 H 0.6095 0.14507 0.32292 0.0
H1885 H 0.59273 0.15594 0.30051 0.0
H1886 H 0.59561 0.14124 0.23273 0.0
C1887 C 0.54565 0.15564 0.20219 0.0
C1888 C 0.57016 0.16774 0.25264 0.0
C1889 C 0.52804 0.14823 0.19218 0.0
C1890 C 0.61325 0.14753 0.3066 0.0
C1891 C 0.60371 0.15384 0.29367 0.0
C1892 C 0.58924 0.14935 0.23831 0.0
C1893 C 0.54651 0.15321 0.22372 0.0
C1894 C 0.56456 0.15758 0.23389 0.0
C1895 C 0.60712 0.1557 0.27205 0.0
C1896 C 0.59422 0.15854 0.25778 0.0
H1897 H 0.49916 0.12822 0.23418 0.0
H1898 H 0.52985 0.14171 0.25174 0.0
H1899 H 0.57049 0.14087 0.21216 0.0
H1900 H 0.64036 0.14177 0.27019 0.0
H1901 H 0.62488 0.15416 0.2477 0.0
C1902 C 0.48056 0.6268 0.2753 0.0
C1903 C 0.48149 0.63006 0.29679 0.0
C1904 C 0.463 0.61664 0.26541 0.0
C1905 C 0.41956 0.57586 0.27683 0.0
H1906 H 0.40368 0.58289 0.22235 0.0
C1907 C 0.36752 0.51057 0.23065 0.0
C1908 C 0.37158 0.51098 0.20947 0.0
C1909 C 0.37553 0.52741 0.24213 0.0
C1910 C 0.40794 0.5806 0.23751 0.0
H1911 H 0.46508 0.62648 0.32464 0.0
H1912 H 0.43418 0.60793 0.3074 0.0
H1913 H 0.42867 0.6102 0.24093 0.0
H1914 H 0.38642 0.52892 0.18324 0.0
H1915 H 0.40164 0.55821 0.20336 0.0
H1916 H 0.40068 0.54627 0.27292 0.0
C1917 C 0.44704 0.61363 0.29819 0.0
C1918 C 0.42208 0.59632 0.24823 0.0
C1919 C 0.46466 0.62424 0.30801 0.0
C1920 C 0.38307 0.52842 0.19962 0.0
C1921 C 0.39164 0.54522 0.21121 0.0
C1922 C 0.40584 0.56012 0.26596 0.0
C1923 C 0.44612 0.60919 0.27696 0.0
C1924 C 0.42836 0.59396 0.26771 0.0
C1925 C 0.38845 0.54491 0.23281 0.0
C1926 C 0.40027 0.56212 0.24581 0.0
H1927 H 0.49341 0.63119 0.26637 0.0
H1928 H 0.46268 0.61323 0.24908 0.0
H1929 H 0.42438 0.57362 0.29171 0.0
H1930 H 0.35846 0.49717 0.23842 0.0
H1931 H 0.37211 0.52654 0.25849 0.0
C1932 C 0.84347 0.46146 0.30787 0.0
C1933 C 0.84672 0.47819 0.29803 0.0
C1934 C 0.83643 0.44459 0.29648 0.0
C1935 C 0.83633 0.43063 0.24168 0.0
H1936 H 0.81517 0.38058 0.26645 0.0
C1937 C 0.83965 0.37072 0.1987 0.0
C1938 C 0.85076 0.36519 0.2102 0.0
C1939 C 0.83152 0.38037 0.20846 0.0
C1940 C 0.82081 0.39443 0.25924 0.0
H1941 H 0.84376 0.49045 0.26946 0.0
H1942 H 0.83014 0.46079 0.24987 0.0
H1943 H 0.81398 0.40597 0.28557 0.0
H1944 H 0.86072 0.36375 0.241 0.0
H1945 H 0.84623 0.38016 0.25808 0.0
H1946 H 0.84347 0.41914 0.21558 0.0
C1947 C 0.83381 0.46065 0.26602 0.0
C1948 C 0.82032 0.40905 0.27024 0.0
C1949 C 0.84137 0.4776 0.27725 0.0
C1950 C 0.8523 0.36799 0.23179 0.0
C1951 C 0.84387 0.37724 0.24158 0.0
C1952 C 0.83648 0.41595 0.23058 0.0
C1953 C 0.8322 0.44414 0.27515 0.0
C1954 C 0.82885 0.42759 0.26199 0.0
C1955 C 0.83406 0.3842 0.2299 0.0
C1956 C 0.82944 0.39794 0.23958 0.0
H1957 H 0.84777 0.46176 0.32387 0.0
H1958 H 0.83565 0.43235 0.30413 0.0
H1959 H 0.84335 0.44465 0.23477 0.0
H1960 H 0.83833 0.36877 0.182 0.0
H1961 H 0.82402 0.38561 0.19913 0.0
C1962 C 0.38859 0.85642 0.3025 0.0
C1963 C 0.38657 0.87159 0.29502 0.0
C1964 C 0.40203 0.85248 0.29354 0.0
C1965 C 0.42672 0.84452 0.26076 0.0
H1966 H 0.47618 0.89015 0.25698 0.0
C1967 C 0.48643 0.85564 0.20308 0.0
C1968 C 0.50533 0.86792 0.20912 0.0
C1969 C 0.47146 0.852 0.21662 0.0
C1970 C 0.46261 0.87714 0.25821 0.0
H1971 H 0.39615 0.8937 0.27153 0.0
H1972 H 0.41941 0.88696 0.25625 0.0
H1973 H 0.45035 0.89135 0.27444 0.0
H1974 H 0.52354 0.88441 0.23458 0.0
H1975 H 0.49758 0.87776 0.2583 0.0
H1976 H 0.439 0.83048 0.24383 0.0
C1977 C 0.41086 0.87825 0.2691 0.0
C1978 C 0.44776 0.87791 0.26807 0.0
C1979 C 0.3975 0.88208 0.27788 0.0
C1980 C 0.50908 0.87517 0.22942 0.0
C1981 C 0.4942 0.87139 0.24297 0.0
C1982 C 0.44165 0.84377 0.25066 0.0
C1983 C 0.41363 0.86377 0.27714 0.0
C1984 C 0.42959 0.86176 0.26905 0.0
C1985 C 0.4752 0.86047 0.23642 0.0
C1986 C 0.4597 0.86019 0.24902 0.0
H1987 H 0.38032 0.84807 0.31566 0.0
H1988 H 0.40393 0.84121 0.29995 0.0
H1989 H 0.41278 0.83189 0.2613 0.0
H1990 H 0.48317 0.84988 0.18748 0.0
H1991 H 0.457 0.84359 0.21104 0.0
C1992 C 0.62855 0.49244 0.19713 0.0
C1993 C 0.63359 0.51129 0.20174 0.0
C1994 C 0.61673 0.47767 0.2106 0.0
C1995 C 0.57922 0.46757 0.24839 0.0
H1996 H 0.57959 0.42056 0.25777 0.0
C1997 C 0.53063 0.39392 0.2964 0.0
C1998 C 0.51282 0.39026 0.28906 0.0
C1999 C 0.54738 0.40813 0.28709 0.0
C2000 C 0.57946 0.4337 0.25544 0.0
H2001 H 0.63157 0.52969 0.22471 0.0
H2002 H 0.61139 0.50411 0.24838 0.0
H2003 H 0.6066 0.44723 0.24015 0.0
H2004 H 0.49854 0.39777 0.26554 0.0
H2005 H 0.52748 0.42226 0.2495 0.0
H2006 H 0.55212 0.45414 0.2633 0.0
C2007 C 0.61607 0.5006 0.23415 0.0
C2008 C 0.5948 0.44889 0.24524 0.0
C2009 C 0.62769 0.51527 0.22063 0.0
C2010 C 0.51203 0.4004 0.27178 0.0
C2011 C 0.52861 0.4145 0.2626 0.0
C2012 C 0.56397 0.45247 0.25843 0.0
C2013 C 0.60987 0.48156 0.22895 0.0
C2014 C 0.5947 0.4659 0.24138 0.0
C2015 C 0.54645 0.41886 0.27044 0.0
C2016 C 0.56373 0.43526 0.26168 0.0
H2017 H 0.63296 0.48901 0.18265 0.0
H2018 H 0.61213 0.46316 0.20607 0.0
H2019 H 0.57849 0.48032 0.24543 0.0
H2020 H 0.53163 0.38626 0.30967 0.0
H2021 H 0.56099 0.41122 0.29339 0.0
C2022 C 0.13585 0.62651 0.23166 0.0
C2023 C 0.13864 0.6306 0.21033 0.0
C2024 C 0.14396 0.61691 0.24139 0.0
C2025 C 0.152 0.57907 0.22959 0.0
H2026 H 0.17523 0.58812 0.2841 0.0
C2027 C 0.14794 0.51659 0.27388 0.0
C2028 C 0.14352 0.51581 0.29501 0.0
C2029 C 0.15511 0.53368 0.26296 0.0
C2030 C 0.16863 0.58527 0.26893 0.0
H2031 H 0.15282 0.62883 0.18261 0.0
H2032 H 0.16646 0.61131 0.19956 0.0
H2033 H 0.17354 0.61374 0.26613 0.0
H2034 H 0.14371 0.53203 0.32171 0.0
H2035 H 0.15494 0.56158 0.30258 0.0
H2036 H 0.14525 0.55034 0.23284 0.0
C2037 C 0.15831 0.61589 0.20876 0.0
C2038 C 0.16788 0.60004 0.25858 0.0
C2039 C 0.15055 0.6259 0.19911 0.0
C2040 C 0.14728 0.53247 0.30541 0.0
C2041 C 0.15383 0.54944 0.29436 0.0
C2042 C 0.15231 0.56421 0.24009 0.0
C2043 C 0.15465 0.61088 0.22985 0.0
C2044 C 0.15911 0.59689 0.23906 0.0
C2045 C 0.15715 0.55013 0.27276 0.0
C2046 C 0.16011 0.56689 0.26022 0.0
H2047 H 0.12677 0.63006 0.24063 0.0
H2048 H 0.14075 0.61304 0.25761 0.0
H2049 H 0.14491 0.5762 0.21467 0.0
H2050 H 0.1452 0.50382 0.26565 0.0
H2051 H 0.15814 0.53369 0.24658 0.0
C2052 C 0.46325 0.85013 0.79865 0.0
C2053 C 0.48028 0.86123 0.78776 0.0
C2054 C 0.44578 0.84431 0.78892 0.0
C2055 C 0.41824 0.8552 0.76723 0.0
H2056 H 0.40157 0.82931 0.71426 0.0
C2057 C 0.3768 0.85887 0.69009 0.0
C2058 C 0.36484 0.86428 0.69983 0.0
C2059 C 0.38682 0.85237 0.70195 0.0
C2060 C 0.40606 0.83672 0.72896 0.0
H2061 H 0.49261 0.87384 0.758 0.0
H2062 H 0.46207 0.86309 0.74081 0.0
H2063 H 0.42779 0.82924 0.73278 0.0
H2064 H 0.35247 0.86575 0.729 0.0
H2065 H 0.36867 0.85296 0.74964 0.0
H2066 H 0.39821 0.86444 0.76286 0.0
C2067 C 0.46221 0.8591 0.75685 0.0
C2068 C 0.42092 0.83643 0.73964 0.0
C2069 C 0.47962 0.86535 0.7667 0.0
C2070 C 0.36181 0.86176 0.72129 0.0
C2071 C 0.3713 0.85464 0.73308 0.0
C2072 C 0.40378 0.85593 0.75635 0.0
C2073 C 0.44519 0.84903 0.76804 0.0
C2074 C 0.42735 0.84603 0.75863 0.0
C2075 C 0.38466 0.85071 0.72374 0.0
C2076 C 0.3978 0.84714 0.73676 0.0
H2077 H 0.46346 0.84689 0.81494 0.0
H2078 H 0.43279 0.83668 0.79784 0.0
H2079 H 0.4232 0.86293 0.78173 0.0
H2080 H 0.37942 0.86093 0.67352 0.0
H2081 H 0.39708 0.8498 0.69406 0.0
C2082 C 0.48963 0.37132 0.71818 0.0
C2083 C 0.49144 0.3624 0.70036 0.0
C2084 C 0.50533 0.38218 0.73089 0.0
C2085 C 0.55674 0.41135 0.72696 0.0
H2086 H 0.55355 0.41613 0.78661 0.0
C2087 C 0.60117 0.48089 0.7707 0.0
C2088 C 0.60863 0.48074 0.79032 0.0
C2089 C 0.58945 0.46393 0.76032 0.0
C2090 C 0.5548 0.41474 0.77003 0.0
H2091 H 0.51082 0.35704 0.68232 0.0
H2092 H 0.53834 0.37612 0.70453 0.0
H2093 H 0.52733 0.3897 0.76818 0.0
H2094 H 0.61008 0.46282 0.81434 0.0
H2095 H 0.58905 0.43285 0.79623 0.0
H2096 H 0.58386 0.43678 0.72868 0.0
C2097 C 0.5248 0.3748 0.7086 0.0
C2098 C 0.53973 0.39973 0.75945 0.0
C2099 C 0.50905 0.36386 0.69594 0.0
C2100 C 0.60452 0.46329 0.7992 0.0
C2101 C 0.59247 0.4462 0.7889 0.0
C2102 C 0.57173 0.42639 0.7375 0.0
C2103 C 0.52319 0.38441 0.72598 0.0
C2104 C 0.5403 0.39822 0.73772 0.0
C2105 C 0.58473 0.4464 0.76942 0.0
C2106 C 0.57064 0.42858 0.75903 0.0
H2107 H 0.47623 0.37046 0.72194 0.0
H2108 H 0.50366 0.38959 0.74399 0.0
H2109 H 0.55759 0.41068 0.71021 0.0
H2110 H 0.60417 0.49415 0.76343 0.0
H2111 H 0.58349 0.46453 0.74547 0.0
C2112 C 0.14925 0.51374 0.72791 0.0
C2113 C 0.14458 0.51304 0.70687 0.0
C2114 C 0.15659 0.53079 0.73894 0.0
C2115 C 0.17052 0.58251 0.73346 0.0
H2116 H 0.14751 0.57353 0.78812 0.0
C2117 C 0.14003 0.62526 0.77214 0.0
C2118 C 0.14286 0.62898 0.79353 0.0
C2119 C 0.14761 0.6153 0.76211 0.0
C2120 C 0.15441 0.57637 0.77308 0.0
H2121 H 0.1444 0.52936 0.68045 0.0
H2122 H 0.15604 0.55889 0.69977 0.0
H2123 H 0.14715 0.54751 0.76948 0.0
H2124 H 0.15659 0.62617 0.82107 0.0
H2125 H 0.16933 0.60806 0.80359 0.0
H2126 H 0.17603 0.61116 0.73666 0.0
C2127 C 0.15498 0.5467 0.70781 0.0
C2128 C 0.15431 0.56142 0.76231 0.0
C2129 C 0.14822 0.52974 0.69666 0.0
C2130 C 0.15431 0.62355 0.80453 0.0
C2131 C 0.16154 0.61318 0.79457 0.0
C2132 C 0.17022 0.5974 0.7441 0.0
C2133 C 0.15858 0.5473 0.72933 0.0
C2134 C 0.16186 0.56408 0.74206 0.0
C2135 C 0.1578 0.60854 0.7734 0.0
C2136 C 0.16172 0.5943 0.76378 0.0
H2137 H 0.14654 0.50091 0.73601 0.0
H2138 H 0.1598 0.53073 0.75525 0.0
H2139 H 0.17693 0.58534 0.71818 0.0
H2140 H 0.13129 0.62937 0.76333 0.0
H2141 H 0.14435 0.61174 0.74583 0.0
C2142 C 0.51403 0.14602 0.78361 0.0
C2143 C 0.51205 0.13784 0.80326 0.0
C2144 C 0.53107 0.15295 0.77262 0.0
C2145 C 0.58079 0.161 0.77643 0.0
H2146 H 0.57163 0.14491 0.71881 0.0
C2147 C 0.62076 0.13124 0.73119 0.0
C2148 C 0.6251 0.13599 0.71015 0.0
C2149 C 0.61116 0.13847 0.74255 0.0
C2150 C 0.57457 0.14991 0.73473 0.0
H2151 H 0.52602 0.13078 0.82732 0.0
H2152 H 0.55554 0.1421 0.80799 0.0
H2153 H 0.5464 0.14478 0.73906 0.0
H2154 H 0.62364 0.15262 0.68465 0.0
H2155 H 0.60618 0.16485 0.70447 0.0
H2156 H 0.60858 0.16454 0.77226 0.0
C2157 C 0.54441 0.14396 0.80116 0.0
C2158 C 0.56008 0.1499 0.74642 0.0
C2159 C 0.52748 0.13737 0.81227 0.0
C2160 C 0.6205 0.14883 0.70089 0.0
C2161 C 0.6105 0.15576 0.71218 0.0
C2162 C 0.59519 0.1607 0.7648 0.0
C2163 C 0.54623 0.15128 0.78088 0.0
C2164 C 0.56277 0.15482 0.76764 0.0
C2165 C 0.60539 0.15029 0.73299 0.0
C2166 C 0.59198 0.15459 0.74402 0.0
H2167 H 0.50214 0.14637 0.77643 0.0
H2168 H 0.53204 0.15887 0.7573 0.0
H2169 H 0.58358 0.16535 0.79255 0.0
H2170 H 0.62424 0.12142 0.73869 0.0
H2171 H 0.60724 0.13385 0.75849 0.0
C2172 C 0.36674 0.50847 0.77367 0.0
C2173 C 0.36315 0.50792 0.79505 0.0
C2174 C 0.37606 0.52583 0.7632 0.0
C2175 C 0.41463 0.57132 0.77385 0.0
H2176 H 0.40691 0.58389 0.71794 0.0
C2177 C 0.47874 0.62536 0.72752 0.0
C2178 C 0.47915 0.62059 0.70672 0.0
C2179 C 0.46168 0.61661 0.73862 0.0
C2180 C 0.40938 0.58058 0.73352 0.0
H2181 H 0.36525 0.52474 0.8221 0.0
H2182 H 0.38231 0.55532 0.80387 0.0
H2183 H 0.38039 0.55822 0.73681 0.0
H2184 H 0.46243 0.60366 0.68074 0.0
H2185 H 0.43286 0.5873 0.70026 0.0
H2186 H 0.4438 0.59196 0.77019 0.0
C2187 C 0.37753 0.54229 0.79517 0.0
C2188 C 0.3941 0.56603 0.74438 0.0
C2189 C 0.36777 0.52484 0.80555 0.0
C2190 C 0.46226 0.60761 0.6968 0.0
C2191 C 0.44529 0.59836 0.70804 0.0
C2192 C 0.42998 0.5855 0.76287 0.0
C2193 C 0.38233 0.54293 0.77408 0.0
C2194 C 0.39677 0.56092 0.7644 0.0
C2195 C 0.44486 0.6023 0.72934 0.0
C2196 C 0.42776 0.58991 0.74224 0.0
H2197 H 0.36326 0.49556 0.76528 0.0
H2198 H 0.37977 0.52594 0.747 0.0
H2199 H 0.41714 0.56746 0.78916 0.0
H2200 H 0.49172 0.63551 0.73534 0.0
H2201 H 0.46191 0.62056 0.75473 0.0
C2202 C 0.8563 0.48151 0.72863 0.0
C2203 C 0.85473 0.483 0.70708 0.0
C2204 C 0.84824 0.4637 0.73812 0.0
C2205 C 0.84288 0.4187 0.72706 0.0
H2206 H 0.81691 0.40339 0.78012 0.0
C2207 C 0.8479 0.36205 0.77392 0.0
C2208 C 0.8512 0.36582 0.79521 0.0
C2209 C 0.84052 0.37126 0.76205 0.0
C2210 C 0.82428 0.40746 0.76536 0.0
H2211 H 0.8428 0.46726 0.67862 0.0
H2212 H 0.82927 0.43589 0.6952 0.0
H2213 H 0.81821 0.43014 0.76129 0.0
H2214 H 0.84874 0.38131 0.82118 0.0
H2215 H 0.83709 0.39841 0.80047 0.0
H2216 H 0.85074 0.39765 0.73169 0.0
C2217 C 0.8364 0.44854 0.70474 0.0
C2218 C 0.8248 0.42265 0.7545 0.0
C2219 C 0.84408 0.46643 0.69529 0.0
C2220 C 0.84605 0.37806 0.80477 0.0
C2221 C 0.83928 0.3878 0.7928 0.0
C2222 C 0.84277 0.40386 0.73809 0.0
C2223 C 0.83885 0.44706 0.72615 0.0
C2224 C 0.83456 0.42871 0.73553 0.0
C2225 C 0.83713 0.3851 0.77109 0.0
C2226 C 0.834 0.39838 0.75775 0.0
H2227 H 0.86441 0.49412 0.73803 0.0
H2228 H 0.85052 0.46295 0.7546 0.0
H2229 H 0.85074 0.42328 0.7126 0.0
H2230 H 0.85172 0.35252 0.76631 0.0
H2231 H 0.83841 0.36819 0.74559 0.0
C2232 C 0.45211 0.13262 0.07672 0.0
C2233 C 0.43803 0.1181 0.08902 0.0
C2234 C 0.44913 0.13374 0.05551 0.0
C2235 C 0.42129 0.1034 0.01179 0.0
H2236 H 0.44288 0.15146 0.98241 0.0
C2237 C 0.41849 0.10662 0.92227 0.0
C2238 C 0.43597 0.11918 0.91278 0.0
C2239 C 0.41598 0.10751 0.94368 0.0
C2240 C 0.43678 0.13792 0.9904 0.0
H2241 H 0.40939 0.09393 0.08883 0.0
H2242 H 0.40414 0.09594 0.05177 0.0
H2243 H 0.44332 0.1512 0.02034 0.0
H2244 H 0.4644 0.14275 0.91854 0.0
H2245 H 0.45993 0.14443 0.95561 0.0
H2246 H 0.41515 0.09015 0.98186 0.0
C2247 C 0.41763 0.10627 0.05849 0.0
C2248 C 0.43706 0.13777 0.01212 0.0
C2249 C 0.42063 0.10513 0.07973 0.0
C2250 C 0.45061 0.13309 0.92514 0.0
C2251 C 0.44807 0.13404 0.94648 0.0
C2252 C 0.42097 0.10356 0.99007 0.0
C2253 C 0.43198 0.1204 0.04604 0.0
C2254 C 0.42969 0.12052 0.02309 0.0
C2255 C 0.43086 0.12104 0.95608 0.0
C2256 C 0.42909 0.12084 0.97911 0.0
H2257 H 0.46581 0.14264 0.08326 0.0
H2258 H 0.46063 0.14462 0.04637 0.0
H2259 H 0.41571 0.08987 0.01968 0.0
H2260 H 0.40683 0.09589 0.91319 0.0
H2261 H 0.40247 0.09745 0.95058 0.0
C2262 C 0.34104 0.45268 0.07743 0.0
C2263 C 0.32595 0.44533 0.0917 0.0
C2264 C 0.33764 0.4529 0.05626 0.0
C2265 C 0.30353 0.43007 0.01509 0.0
H2266 H 0.33623 0.47716 0.9859 0.0
C2267 C 0.30585 0.43794 0.92456 0.0
C2268 C 0.32445 0.44673 0.91659 0.0
C2269 C 0.30279 0.43793 0.94602 0.0
C2270 C 0.32695 0.46392 0.99382 0.0
H2271 H 0.2954 0.43221 0.09502 0.0
H2272 H 0.28937 0.43225 0.05751 0.0
H2273 H 0.33669 0.47651 0.02374 0.0
H2274 H 0.35434 0.4629 0.92469 0.0
H2275 H 0.34905 0.4627 0.96179 0.0
H2276 H 0.29448 0.41729 0.98497 0.0
C2277 C 0.30382 0.43792 0.06294 0.0
C2278 C 0.32719 0.46356 0.01545 0.0
C2279 C 0.30727 0.43794 0.0843 0.0
C2280 C 0.33985 0.45571 0.93037 0.0
C2281 C 0.33681 0.45584 0.95163 0.0
C2282 C 0.30334 0.4304 0.99332 0.0
C2283 C 0.31905 0.44567 0.04881 0.0
C2284 C 0.31601 0.44651 0.02626 0.0
C2285 C 0.31828 0.44701 0.95972 0.0
C2286 C 0.31561 0.44719 0.9825 0.0
H2287 H 0.3556 0.45873 0.08268 0.0
H2288 H 0.34961 0.45876 0.04567 0.0
H2289 H 0.29478 0.41674 0.02312 0.0
H2290 H 0.29374 0.43094 0.91425 0.0
H2291 H 0.28836 0.43103 0.95188 0.0
C2292 C 0.86759 0.3077 0.08351 0.0
C2293 C 0.88075 0.32525 0.09245 0.0
C2294 C 0.86711 0.30508 0.06193 0.0
C2295 C 0.89656 0.32529 0.01479 0.0
H2296 H 0.84872 0.30418 0.9851 0.0
C2297 C 0.89297 0.34261 0.92959 0.0
C2298 C 0.88062 0.32808 0.91602 0.0
C2299 C 0.89256 0.33932 0.95089 0.0
C2300 C 0.86215 0.3098 0.99319 0.0
H2301 H 0.90322 0.35398 0.08548 0.0
H2302 H 0.90256 0.34932 0.04826 0.0
H2303 H 0.84878 0.30352 0.02316 0.0
H2304 H 0.85797 0.29866 0.91442 0.0
H2305 H 0.85708 0.29302 0.95194 0.0
H2306 H 0.91 0.33211 0.98499 0.0
C2307 C 0.89289 0.33744 0.05788 0.0
C2308 C 0.86219 0.30941 0.01496 0.0
C2309 C 0.8933 0.34008 0.0793 0.0
C2310 C 0.86762 0.31019 0.92443 0.0
C2311 C 0.86712 0.30694 0.94588 0.0
C2312 C 0.89652 0.3257 0.99313 0.0
C2313 C 0.87985 0.31993 0.04892 0.0
C2314 C 0.87944 0.31769 0.02598 0.0
C2315 C 0.8797 0.32147 0.9593 0.0
C2316 C 0.87937 0.31848 0.98209 0.0
H2317 H 0.85777 0.29596 0.09319 0.0
H2318 H 0.85692 0.29141 0.05544 0.0
H2319 H 0.91006 0.3314 0.02283 0.0
H2320 H 0.90277 0.35673 0.92385 0.0
H2321 H 0.90211 0.35095 0.96087 0.0
C2322 C 0.54701 0.88104 0.06163 0.0
C2323 C 0.54619 0.86753 0.07586 0.0
C2324 C 0.54811 0.87859 0.04037 0.0
C2325 C 0.53916 0.84349 0.99958 0.0
H2326 H 0.57304 0.88887 0.96838 0.0
C2327 C 0.53135 0.85159 0.91183 0.0
C2328 C 0.54754 0.86354 0.89998 0.0
C2329 C 0.53287 0.84934 0.93313 0.0
C2330 C 0.56377 0.87594 0.97679 0.0
H2331 H 0.54513 0.84045 0.07891 0.0
H2332 H 0.54705 0.83609 0.04138 0.0
H2333 H 0.57237 0.89025 0.00601 0.0
H2334 H 0.57816 0.88148 0.9009 0.0
H2335 H 0.5809 0.87733 0.9381 0.0
H2336 H 0.53053 0.82921 0.97022 0.0
C2337 C 0.54687 0.84861 0.04684 0.0
C2338 C 0.56318 0.87681 0.9984 0.0
C2339 C 0.54574 0.85108 0.06827 0.0
C2340 C 0.56541 0.87237 0.90969 0.0
C2341 C 0.56695 0.87002 0.931 0.0
C2342 C 0.53977 0.8426 0.97788 0.0
C2343 C 0.54843 0.86256 0.03271 0.0
C2344 C 0.5505 0.86076 0.01001 0.0
C2345 C 0.55063 0.85893 0.9431 0.0
C2346 C 0.55177 0.85895 0.96619 0.0
H2347 H 0.5469 0.89364 0.06698 0.0
H2348 H 0.54871 0.88932 0.02989 0.0
H2349 H 0.52926 0.83087 0.0081 0.0
H2350 H 0.51733 0.84479 0.90489 0.0
H2351 H 0.51996 0.84091 0.94195 0.0
C2352 C 0.68455 0.53367 0.06352 0.0
C2353 C 0.69295 0.55058 0.07512 0.0
C2354 C 0.68853 0.53399 0.04233 0.0
C2355 C 0.70147 0.56733 0.99913 0.0
H2356 H 0.69809 0.5254 0.96686 0.0
C2357 C 0.69495 0.54363 0.90736 0.0
C2358 C 0.6796 0.54623 0.90192 0.0
C2359 C 0.70091 0.5454 0.9281 0.0
C2360 C 0.69938 0.53736 0.97567 0.0
H2361 H 0.71348 0.58071 0.07426 0.0
H2362 H 0.72071 0.58126 0.03737 0.0
H2363 H 0.70219 0.52593 0.00465 0.0
H2364 H 0.65808 0.55194 0.91437 0.0
H2365 H 0.66881 0.55556 0.95001 0.0
H2366 H 0.69804 0.57845 0.97036 0.0
C2367 C 0.71066 0.56783 0.04445 0.0
C2368 C 0.70156 0.53759 0.99728 0.0
C2369 C 0.70656 0.56753 0.06557 0.0
C2370 C 0.67036 0.55051 0.91772 0.0
C2371 C 0.67643 0.55249 0.93825 0.0
C2372 C 0.69923 0.56705 0.97764 0.0
C2373 C 0.70107 0.55123 0.03238 0.0
C2374 C 0.70208 0.55232 0.00931 0.0
C2375 C 0.69177 0.55 0.94368 0.0
C2376 C 0.69755 0.55178 0.96578 0.0
H2377 H 0.67393 0.52042 0.07048 0.0
H2378 H 0.68077 0.52096 0.0335 0.0
H2379 H 0.70159 0.5788 0.00784 0.0
H2380 H 0.70241 0.54036 0.8956 0.0
H2381 H 0.71277 0.54339 0.93193 0.0
C2382 C 0.11069 0.65511 0.9272 0.0
C2383 C 0.12085 0.6707 0.91387 0.0
C2384 C 0.11264 0.65734 0.94867 0.0
C2385 C 0.12579 0.69178 0.99096 0.0
H2386 H 0.12797 0.6521 0.02226 0.0
C2387 C 0.12904 0.68948 0.08187 0.0
C2388 C 0.11633 0.67164 0.09056 0.0
C2389 C 0.13178 0.69153 0.06029 0.0
C2390 C 0.12733 0.66327 0.01375 0.0
H2391 H 0.14107 0.70091 0.91268 0.0
H2392 H 0.14448 0.70486 0.9506 0.0
H2393 H 0.12924 0.65193 0.98448 0.0
H2394 H 0.09675 0.642 0.08341 0.0
H2395 H 0.10134 0.64563 0.04607 0.0
H2396 H 0.12349 0.70286 0.02046 0.0
C2397 C 0.13494 0.69092 0.94423 0.0
C2398 C 0.12806 0.66318 0.99212 0.0
C2399 C 0.13308 0.68865 0.92258 0.0
C2400 C 0.1064 0.656 0.07725 0.0
C2401 C 0.10923 0.65802 0.05583 0.0
C2402 C 0.12509 0.69189 0.01273 0.0
C2403 C 0.12484 0.67522 0.95748 0.0
C2404 C 0.12672 0.67708 0.98044 0.0
C2405 C 0.12208 0.67573 0.0471 0.0
C2406 C 0.12528 0.67729 0.02429 0.0
H2407 H 0.10141 0.64101 0.92102 0.0
H2408 H 0.10446 0.645 0.95843 0.0
H2409 H 0.1247 0.70266 0.98236 0.0
H2410 H 0.13688 0.70179 0.09175 0.0
H2411 H 0.14179 0.70535 0.05397 0.0
C2412 C 0.86274 0.55326 0.42284 0.0
C2413 C 0.87671 0.55053 0.41311 0.0
C2414 C 0.86205 0.55416 0.44456 0.0
C2415 C 0.87593 0.53776 0.49097 0.0
H2416 H 0.87044 0.57609 0.52114 0.0
C2417 C 0.89254 0.54965 0.57747 0.0
C2418 C 0.88018 0.55226 0.59057 0.0
C2419 C 0.89089 0.54993 0.55595 0.0
C2420 C 0.87172 0.56515 0.51291 0.0
H2421 H 0.90093 0.54668 0.41866 0.0
H2422 H 0.8999 0.54855 0.45623 0.0
H2423 H 0.86976 0.57583 0.483 0.0
H2424 H 0.85656 0.5576 0.59116 0.0
H2425 H 0.85354 0.55787 0.55325 0.0
H2426 H 0.87797 0.52707 0.52058 0.0
C2427 C 0.88942 0.54991 0.44714 0.0
C2428 C 0.87135 0.56502 0.49111 0.0
C2429 C 0.89016 0.5491 0.42555 0.0
C2430 C 0.86625 0.55546 0.58151 0.0
C2431 C 0.86461 0.55575 0.55983 0.0
C2432 C 0.87625 0.53786 0.51262 0.0
C2433 C 0.87519 0.55213 0.45692 0.0
C2434 C 0.87389 0.55156 0.47995 0.0
C2435 C 0.87675 0.55268 0.54684 0.0
C2436 C 0.8746 0.5518 0.52386 0.0
H2437 H 0.85222 0.55448 0.41367 0.0
H2438 H 0.85092 0.55586 0.4517 0.0
H2439 H 0.87745 0.52692 0.48282 0.0
H2440 H 0.9032 0.54679 0.58381 0.0
H2441 H 0.90067 0.54782 0.54641 0.0
C2442 C 0.3046 0.87722 0.41376 0.0
C2443 C 0.3138 0.86794 0.40536 0.0
C2444 C 0.30061 0.87613 0.43501 0.0
C2445 C 0.29713 0.85032 0.4837 0.0
H2446 H 0.31652 0.89979 0.50942 0.0
C2447 C 0.31553 0.86293 0.57081 0.0
C2448 C 0.31362 0.87701 0.58142 0.0
C2449 C 0.31206 0.86021 0.54948 0.0
C2450 C 0.31063 0.88579 0.50256 0.0
H2451 H 0.325 0.84933 0.41271 0.0
H2452 H 0.31767 0.84715 0.44967 0.0
H2453 H 0.31588 0.89722 0.47175 0.0
H2454 H 0.30587 0.89881 0.57812 0.0
H2455 H 0.29937 0.89382 0.54088 0.0
H2456 H 0.29198 0.83887 0.51451 0.0
C2457 C 0.31358 0.85528 0.43977 0.0
C2458 C 0.31031 0.88434 0.48091 0.0
C2459 C 0.31772 0.85649 0.41853 0.0
C2460 C 0.30762 0.88796 0.57031 0.0
C2461 C 0.30397 0.88513 0.54896 0.0
C2462 C 0.29726 0.85174 0.50538 0.0
C2463 C 0.30553 0.86558 0.44834 0.0
C2464 C 0.30388 0.86664 0.47124 0.0
C2465 C 0.30645 0.87143 0.53818 0.0
C2466 C 0.30438 0.86956 0.51512 0.0
H2467 H 0.30104 0.88586 0.40401 0.0
H2468 H 0.2941 0.88395 0.44112 0.0
H2469 H 0.2919 0.83646 0.47667 0.0
H2470 H 0.32046 0.85448 0.57884 0.0
H2471 H 0.3145 0.84979 0.54173 0.0
C2472 C 0.44541 0.32434 0.41536 0.0
C2473 C 0.45092 0.31569 0.40007 0.0
C2474 C 0.44383 0.31885 0.43609 0.0
C2475 C 0.46121 0.29834 0.47454 0.0
H2476 H 0.41937 0.29533 0.50658 0.0
C2477 C 0.43138 0.29146 0.56465 0.0
C2478 C 0.44842 0.30492 0.57414 0.0
C2479 C 0.43091 0.28745 0.54348 0.0
C2480 C 0.43098 0.2957 0.49793 0.0
H2481 H 0.45944 0.29462 0.39477 0.0
H2482 H 0.4569 0.28516 0.43141 0.0
H2483 H 0.41933 0.29804 0.46905 0.0
H2484 H 0.47853 0.32393 0.56925 0.0
H2485 H 0.4777 0.31732 0.53221 0.0
H2486 H 0.47302 0.29634 0.50359 0.0
C2487 C 0.45368 0.29613 0.42709 0.0
C2488 C 0.43105 0.29748 0.47638 0.0
C2489 C 0.45515 0.30156 0.40617 0.0
C2490 C 0.46522 0.3134 0.56235 0.0
C2491 C 0.46473 0.30955 0.54112 0.0
C2492 C 0.46115 0.29653 0.49619 0.0
C2493 C 0.44786 0.30466 0.44221 0.0
C2494 C 0.44645 0.29947 0.46452 0.0
C2495 C 0.44744 0.297 0.53128 0.0
C2496 C 0.44628 0.29575 0.50819 0.0
H2497 H 0.44267 0.33571 0.41144 0.0
H2498 H 0.43983 0.32607 0.44744 0.0
H2499 H 0.47328 0.29985 0.46579 0.0
H2500 H 0.41828 0.28449 0.57348 0.0
H2501 H 0.41744 0.27738 0.53652 0.0
C2502 C 0.12934 0.44283 0.42147 0.0
C2503 C 0.11647 0.44762 0.41254 0.0
C2504 C 0.13087 0.44221 0.44313 0.0
C2505 C 0.12182 0.46169 0.49072 0.0
H2506 H 0.1227 0.42019 0.51954 0.0
C2507 C 0.10526 0.44911 0.57722 0.0
C2508 C 0.11684 0.445 0.5899 0.0
C2509 C 0.10678 0.44919 0.55566 0.0
C2510 C 0.12273 0.43199 0.51167 0.0
H2511 H 0.09526 0.45563 0.41944 0.0
H2512 H 0.09767 0.4542 0.45689 0.0
H2513 H 0.12256 0.42073 0.48142 0.0
H2514 H 0.13894 0.43747 0.58975 0.0
H2515 H 0.14163 0.43765 0.55172 0.0
H2516 H 0.12171 0.47285 0.52074 0.0
C2517 C 0.10667 0.45103 0.44724 0.0
C2518 C 0.12265 0.4323 0.48988 0.0
C2519 C 0.10509 0.45158 0.42572 0.0
C2520 C 0.12985 0.44072 0.5804 0.0
C2521 C 0.13132 0.44072 0.55867 0.0
C2522 C 0.1219 0.46137 0.51237 0.0
C2523 C 0.11972 0.44658 0.45623 0.0
C2524 C 0.12173 0.44694 0.4792 0.0
C2525 C 0.11996 0.44524 0.54611 0.0
C2526 C 0.12188 0.4463 0.52311 0.0
H2527 H 0.13825 0.43964 0.41172 0.0
H2528 H 0.14108 0.43877 0.44962 0.0
H2529 H 0.1216 0.47341 0.48296 0.0
H2530 H 0.09532 0.45281 0.58396 0.0
H2531 H 0.09764 0.45247 0.54642 0.0
C2532 C 0.68258 0.11223 0.42529 0.0
C2533 C 0.67877 0.12554 0.41582 0.0
C2534 C 0.68735 0.11381 0.44634 0.0
C2535 C 0.70055 0.14576 0.49258 0.0
H2536 H 0.67284 0.09798 0.52227 0.0
C2537 C 0.68124 0.13973 0.5798 0.0
C2538 C 0.68058 0.12471 0.59134 0.0
C2539 C 0.68549 0.14155 0.55857 0.0
C2540 C 0.681 0.11142 0.51425 0.0
H2541 H 0.67771 0.15139 0.4207 0.0
H2542 H 0.68569 0.15403 0.45752 0.0
H2543 H 0.67233 0.09807 0.48459 0.0
H2544 H 0.68524 0.10067 0.58999 0.0
H2545 H 0.69268 0.10386 0.55295 0.0
H2546 H 0.70856 0.1591 0.52251 0.0
C2547 C 0.68537 0.14253 0.44866 0.0
C2548 C 0.68073 0.11148 0.49257 0.0
C2549 C 0.68076 0.14102 0.42755 0.0
C2550 C 0.68531 0.1122 0.58144 0.0
C2551 C 0.68956 0.11402 0.56023 0.0
C2552 C 0.70075 0.1457 0.51434 0.0
C2553 C 0.6882 0.12865 0.45845 0.0
C2554 C 0.69026 0.12866 0.48144 0.0
C2555 C 0.68916 0.12838 0.54843 0.0
C2556 C 0.69074 0.12854 0.52541 0.0
H2557 H 0.68139 0.10029 0.41653 0.0
H2558 H 0.68986 0.10311 0.45325 0.0
H2559 H 0.70826 0.15922 0.4845 0.0
H2560 H 0.67746 0.14948 0.58689 0.0
H2561 H 0.68487 0.15266 0.5499 0.0
C2562 C 0.54345 0.65416 0.57691 0.0
C2563 C 0.54852 0.66892 0.5913 0.0
C2564 C 0.54337 0.6575 0.55572 0.0
C2565 C 0.56274 0.69233 0.51465 0.0
H2566 H 0.51694 0.65598 0.4857 0.0
C2567 C 0.55309 0.68991 0.42422 0.0
C2568 C 0.54606 0.67156 0.41598 0.0
C2569 C 0.55329 0.69259 0.44578 0.0
C2570 C 0.52981 0.66627 0.49355 0.0
H2571 H 0.55795 0.6989 0.59477 0.0
H2572 H 0.5581 0.70484 0.55723 0.0
H2573 H 0.51804 0.65531 0.5235 0.0
H2574 H 0.53327 0.64164 0.42377 0.0
H2575 H 0.53385 0.6463 0.461 0.0
H2576 H 0.57477 0.7027 0.48445 0.0
C2577 C 0.55412 0.69069 0.56259 0.0
C2578 C 0.53042 0.6659 0.51515 0.0
C2579 C 0.55398 0.68728 0.58397 0.0
C2580 C 0.53911 0.656 0.42962 0.0
C2581 C 0.53918 0.65864 0.45097 0.0
C2582 C 0.56217 0.69264 0.49288 0.0
C2583 C 0.54843 0.67569 0.54836 0.0
C2584 C 0.54708 0.67847 0.52586 0.0
C2585 C 0.54614 0.67691 0.45931 0.0
C2586 C 0.5459 0.67913 0.48215 0.0
H2587 H 0.53888 0.6398 0.58207 0.0
H2588 H 0.53911 0.64574 0.54502 0.0
H2589 H 0.57574 0.70217 0.52262 0.0
H2590 H 0.55852 0.70215 0.41403 0.0
H2591 H 0.55873 0.70683 0.45184 0.0
loop_
_geom_bond_atom_site_label_1
_geom_bond_atom_site_label_2
_geom_bond_distance
_geom_bond_site_symmetry_2
_ccdc_geom_bond_type
Co0 N4 2.148 . S
Co0 N10 2.128 . S
Co0 N20 2.194 . S
Co0 O25 2.351 . S
Co0 O26 2.155 . S
Co0 O27 2.096 . S
C1 N4 1.301 . S
C1 N5 1.328 . S
C1 H6 0.930 . S
C2 C3 1.333 . S
C2 N4 1.317 . S
C2 H7 0.930 . S
C3 C2 1.333 . S
C3 N5 1.350 . S
C3 H29 0.931 . S
N4 Co0 2.148 . S
N4 C1 1.301 . S
N4 C2 1.317 . S
N5 C1 1.328 . S
N5 C3 1.350 . S
H6 C1 0.930 . S
H7 C2 0.930 . S
C8 O9 1.224 . S
C8 O27 1.247 . S
O9 C8 1.224 . S
N10 Co0 2.128 . S
N10 C11 1.355 . S
N10 C13 1.311 . S
C11 N10 1.355 . S
C11 C12 1.363 . S
C11 H23 0.929 . S
C12 C11 1.363 . S
C12 N14 1.375 . S
C12 H30 0.931 . S
C13 N10 1.311 . S
C13 N14 1.347 . S
C13 H24 0.929 . S
N14 C12 1.375 . S
N14 C13 1.347 . S
C15 C18 1.365 . S
C15 N20 1.328 . S
C15 H21 0.929 . S
C16 C17 1.362 . S
C16 C19 1.378 . S
C16 H31 0.929 . S
C17 C16 1.362 . S
C17 C18 1.366 . S
C18 C15 1.365 . S
C18 C17 1.366 . S
C18 H32 0.930 . S
C19 C16 1.378 . S
C19 N20 1.315 . S
C19 H22 0.930 . S
N20 Co0 2.194 . S
N20 C15 1.328 . S
N20 C19 1.315 . S
H21 C15 0.929 . S
H22 C19 0.930 . S
H23 C11 0.929 . S
H24 C13 0.929 . S
O25 Co0 2.351 . S
O25 C28 1.244 . S
O26 Co0 2.155 . S
O26 C28 1.240 . S
O27 Co0 2.096 . S
O27 C8 1.247 . S
C28 O25 1.244 . S
C28 O26 1.240 . S
H29 C3 0.931 . S
H30 C12 0.931 . S
H31 C16 0.929 . S
H32 C18 0.930 . S
Co33 N37 2.148 . S
Co33 N43 2.128 . S
Co33 N53 2.194 . S
Co33 O58 2.351 . S
Co33 O59 2.155 . S
Co33 O60 2.096 . S
C34 N37 1.301 . S
C34 N38 1.328 . S
C34 H39 0.930 . S
C35 C36 1.333 . S
C35 N37 1.317 . S
C35 H40 0.930 . S
C36 C35 1.333 . S
C36 N38 1.350 . S
C36 H62 0.931 . S
N37 Co33 2.148 . S
N37 C34 1.301 . S
N37 C35 1.317 . S
N38 C34 1.328 . S
N38 C36 1.350 . S
H39 C34 0.930 . S
H40 C35 0.930 . S
C41 O42 1.224 . S
C41 O60 1.247 . S
O42 C41 1.224 . S
N43 Co33 2.128 . S
N43 C44 1.355 . S
N43 C46 1.311 . S
C44 N43 1.355 . S
C44 C45 1.363 . S
C44 H56 0.929 . S
C45 C44 1.363 . S
C45 N47 1.375 . S
C45 H63 0.931 . S
C46 N43 1.311 . S
C46 N47 1.347 . S
C46 H57 0.929 . S
N47 C45 1.375 . S
N47 C46 1.347 . S
C48 C51 1.365 . S
C48 N53 1.328 . S
C48 H54 0.929 . S
C49 C50 1.362 . S
C49 C52 1.378 . S
C49 H64 0.929 . S
C50 C49 1.362 . S
C50 C51 1.366 . S
C51 C48 1.365 . S
C51 C50 1.366 . S
C51 H65 0.930 . S
C52 C49 1.378 . S
C52 N53 1.315 . S
C52 H55 0.930 . S
N53 Co33 2.194 . S
N53 C48 1.328 . S
N53 C52 1.315 . S
H54 C48 0.929 . S
H55 C52 0.930 . S
H56 C44 0.929 . S
H57 C46 0.929 . S
O58 Co33 2.351 . S
O58 C61 1.244 . S
O59 Co33 2.155 . S
O59 C61 1.240 . S
O60 Co33 2.096 . S
O60 C41 1.247 . S
C61 O58 1.244 . S
C61 O59 1.240 . S
H62 C36 0.931 . S
H63 C45 0.931 . S
H64 C49 0.929 . S
H65 C51 0.930 . S
Co66 N70 2.148 . S
Co66 N76 2.128 . S
Co66 N86 2.194 . S
Co66 O91 2.351 . S
Co66 O92 2.155 . S
Co66 O93 2.096 . S
C67 N70 1.301 . S
C67 N71 1.328 . S
C67 H72 0.930 . S
C68 C69 1.333 . S
C68 N70 1.317 . S
C68 H73 0.930 . S
C69 C68 1.333 . S
C69 N71 1.350 . S
C69 H95 0.931 . S
N70 Co66 2.148 . S
N70 C67 1.301 . S
N70 C68 1.317 . S
N71 C67 1.328 . S
N71 C69 1.350 . S
H72 C67 0.930 . S
H73 C68 0.930 . S
C74 O75 1.224 . S
C74 O93 1.247 . S
O75 C74 1.224 . S
N76 Co66 2.128 . S
N76 C77 1.355 . S
N76 C79 1.311 . S
C77 N76 1.355 . S
C77 C78 1.363 . S
C77 H89 0.929 . S
C78 C77 1.363 . S
C78 N80 1.375 . S
C78 H96 0.931 . S
C79 N76 1.311 . S
C79 N80 1.347 . S
C79 H90 0.929 . S
N80 C78 1.375 . S
N80 C79 1.347 . S
C81 C84 1.365 . S
C81 N86 1.328 . S
C81 H87 0.929 . S
C82 C83 1.362 . S
C82 C85 1.378 . S
C82 H97 0.929 . S
C83 C82 1.362 . S
C83 C84 1.366 . S
C84 C81 1.365 . S
C84 C83 1.366 . S
C84 H98 0.930 . S
C85 C82 1.378 . S
C85 N86 1.315 . S
C85 H88 0.930 . S
N86 Co66 2.194 . S
N86 C81 1.328 . S
N86 C85 1.315 . S
H87 C81 0.929 . S
H88 C85 0.930 . S
H89 C77 0.929 . S
H90 C79 0.929 . S
O91 Co66 2.351 . S
O91 C94 1.244 . S
O92 Co66 2.155 . S
O92 C94 1.240 . S
O93 Co66 2.096 . S
O93 C74 1.247 . S
C94 O91 1.244 . S
C94 O92 1.240 . S
H95 C69 0.931 . S
H96 C78 0.931 . S
H97 C82 0.929 . S
H98 C84 0.930 . S
Co99 N103 2.148 . S
Co99 N109 2.128 . S
Co99 N119 2.194 . S
Co99 O124 2.351 . S
Co99 O125 2.155 . S
Co99 O126 2.096 . S
C100 N103 1.301 . S
C100 N104 1.328 . S
C100 H105 0.930 . S
C101 C102 1.333 . S
C101 N103 1.317 . S
C101 H106 0.930 . S
C102 C101 1.333 . S
C102 N104 1.350 . S
C102 H128 0.931 . S
N103 Co99 2.148 . S
N103 C100 1.301 . S
N103 C101 1.317 . S
N104 C100 1.328 . S
N104 C102 1.350 . S
H105 C100 0.930 . S
H106 C101 0.930 . S
C107 O108 1.224 . S
C107 O126 1.247 . S
O108 C107 1.224 . S
N109 Co99 2.128 . S
N109 C110 1.355 . S
N109 C112 1.311 . S
C110 N109 1.355 . S
C110 C111 1.363 . S
C110 H122 0.929 . S
C111 C110 1.363 . S
C111 N113 1.375 . S
C111 H129 0.931 . S
C112 N109 1.311 . S
C112 N113 1.347 . S
C112 H123 0.929 . S
N113 C111 1.375 . S
N113 C112 1.347 . S
C114 C117 1.365 . S
C114 N119 1.328 . S
C114 H120 0.929 . S
C115 C116 1.362 . S
C115 C118 1.378 . S
C115 H130 0.929 . S
C116 C115 1.362 . S
C116 C117 1.366 . S
C117 C114 1.365 . S
C117 C116 1.366 . S
C117 H131 0.930 . S
C118 C115 1.378 . S
C118 N119 1.315 . S
C118 H121 0.930 . S
N119 Co99 2.194 . S
N119 C114 1.328 . S
N119 C118 1.315 . S
H120 C114 0.929 . S
H121 C118 0.930 . S
H122 C110 0.929 . S
H123 C112 0.929 . S
O124 Co99 2.351 . S
O124 C127 1.244 . S
O125 Co99 2.155 . S
O125 C127 1.240 . S
O126 Co99 2.096 . S
O126 C107 1.247 . S
C127 O124 1.244 . S
C127 O125 1.240 . S
H128 C102 0.931 . S
H129 C111 0.931 . S
H130 C115 0.929 . S
H131 C117 0.930 . S
Co132 N136 2.148 . S
Co132 N142 2.128 . S
Co132 N152 2.194 . S
Co132 O157 2.351 . S
Co132 O158 2.155 . S
Co132 O159 2.096 . S
C133 N136 1.301 . S
C133 N137 1.328 . S
C133 H138 0.930 . S
C134 C135 1.333 . S
C134 N136 1.317 . S
C134 H139 0.930 . S
C135 C134 1.333 . S
C135 N137 1.350 . S
C135 H161 0.931 . S
N136 Co132 2.148 . S
N136 C133 1.301 . S
N136 C134 1.317 . S
N137 C133 1.328 . S
N137 C135 1.350 . S
H138 C133 0.930 . S
H139 C134 0.930 . S
C140 O141 1.224 . S
C140 O159 1.247 . S
O141 C140 1.224 . S
N142 Co132 2.128 . S
N142 C143 1.355 . S
N142 C145 1.311 . S
C143 N142 1.355 . S
C143 C144 1.363 . S
C143 H155 0.929 . S
C144 C143 1.363 . S
C144 N146 1.375 . S
C144 H162 0.931 . S
C145 N142 1.311 . S
C145 N146 1.347 . S
C145 H156 0.929 . S
N146 C144 1.375 . S
N146 C145 1.347 . S
C147 C150 1.365 . S
C147 N152 1.328 . S
C147 H153 0.929 . S
C148 C149 1.362 . S
C148 C151 1.378 . S
C148 H163 0.929 . S
C149 C148 1.362 . S
C149 C150 1.366 . S
C150 C147 1.365 . S
C150 C149 1.366 . S
C150 H164 0.930 . S
C151 C148 1.378 . S
C151 N152 1.315 . S
C151 H154 0.930 . S
N152 Co132 2.194 . S
N152 C147 1.328 . S
N152 C151 1.315 . S
H153 C147 0.929 . S
H154 C151 0.930 . S
H155 C143 0.929 . S
H156 C145 0.929 . S
O157 Co132 2.351 . S
O157 C160 1.244 . S
O158 Co132 2.155 . S
O158 C160 1.240 . S
O159 Co132 2.096 . S
O159 C140 1.247 . S
C160 O157 1.244 . S
C160 O158 1.240 . S
H161 C135 0.931 . S
H162 C144 0.931 . S
H163 C148 0.929 . S
H164 C150 0.930 . S
Co165 N169 2.148 . S
Co165 N175 2.128 . S
Co165 N185 2.194 . S
Co165 O190 2.351 . S
Co165 O191 2.155 . S
Co165 O192 2.096 . S
C166 N169 1.301 . S
C166 N170 1.328 . S
C166 H171 0.930 . S
C167 C168 1.333 . S
C167 N169 1.317 . S
C167 H172 0.930 . S
C168 C167 1.333 . S
C168 N170 1.350 . S
C168 H194 0.931 . S
N169 Co165 2.148 . S
N169 C166 1.301 . S
N169 C167 1.317 . S
N170 C166 1.328 . S
N170 C168 1.350 . S
H171 C166 0.930 . S
H172 C167 0.930 . S
C173 O174 1.224 . S
C173 O192 1.247 . S
O174 C173 1.224 . S
N175 Co165 2.128 . S
N175 C176 1.355 . S
N175 C178 1.311 . S
C176 N175 1.355 . S
C176 C177 1.363 . S
C176 H188 0.929 . S
C177 C176 1.363 . S
C177 N179 1.375 . S
C177 H195 0.931 . S
C178 N175 1.311 . S
C178 N179 1.347 . S
C178 H189 0.929 . S
N179 C177 1.375 . S
N179 C178 1.347 . S
C180 C183 1.365 . S
C180 N185 1.328 . S
C180 H186 0.929 . S
C181 C182 1.362 . S
C181 C184 1.378 . S
C181 H196 0.929 . S
C182 C181 1.362 . S
C182 C183 1.366 . S
C183 C180 1.365 . S
C183 C182 1.366 . S
C183 H197 0.930 . S
C184 C181 1.378 . S
C184 N185 1.315 . S
C184 H187 0.930 . S
N185 Co165 2.194 . S
N185 C180 1.328 . S
N185 C184 1.315 . S
H186 C180 0.929 . S
H187 C184 0.930 . S
H188 C176 0.929 . S
H189 C178 0.929 . S
O190 Co165 2.351 . S
O190 C193 1.244 . S
O191 Co165 2.155 . S
O191 C193 1.240 . S
O192 Co165 2.096 . S
O192 C173 1.247 . S
C193 O190 1.244 . S
C193 O191 1.240 . S
H194 C168 0.931 . S
H195 C177 0.931 . S
H196 C181 0.929 . S
H197 C183 0.930 . S
Co198 N202 2.148 . S
Co198 N208 2.128 . S
Co198 N218 2.194 . S
Co198 O223 2.351 . S
Co198 O224 2.155 . S
Co198 O225 2.096 . S
C199 N202 1.301 . S
C199 N203 1.328 . S
C199 H204 0.930 . S
C200 C201 1.333 . S
C200 N202 1.317 . S
C200 H205 0.930 . S
C201 C200 1.333 . S
C201 N203 1.350 . S
C201 H227 0.931 . S
N202 Co198 2.148 . S
N202 C199 1.301 . S
N202 C200 1.317 . S
N203 C199 1.328 . S
N203 C201 1.350 . S
H204 C199 0.930 . S
H205 C200 0.930 . S
C206 O207 1.224 . S
C206 O225 1.247 . S
O207 C206 1.224 . S
N208 Co198 2.128 . S
N208 C209 1.355 . S
N208 C211 1.311 . S
C209 N208 1.355 . S
C209 C210 1.363 . S
C209 H221 0.929 . S
C210 C209 1.363 . S
C210 N212 1.375 . S
C210 H228 0.931 . S
C211 N208 1.311 . S
C211 N212 1.347 . S
C211 H222 0.929 . S
N212 C210 1.375 . S
N212 C211 1.347 . S
C213 C216 1.365 . S
C213 N218 1.328 . S
C213 H219 0.929 . S
C214 C215 1.362 . S
C214 C217 1.378 . S
C214 H229 0.929 . S
C215 C214 1.362 . S
C215 C216 1.366 . S
C216 C213 1.365 . S
C216 C215 1.366 . S
C216 H230 0.930 . S
C217 C214 1.378 . S
C217 N218 1.315 . S
C217 H220 0.930 . S
N218 Co198 2.194 . S
N218 C213 1.328 . S
N218 C217 1.315 . S
H219 C213 0.929 . S
H220 C217 0.930 . S
H221 C209 0.929 . S
H222 C211 0.929 . S
O223 Co198 2.351 . S
O223 C226 1.244 . S
O224 Co198 2.155 . S
O224 C226 1.240 . S
O225 Co198 2.096 . S
O225 C206 1.247 . S
C226 O223 1.244 . S
C226 O224 1.240 . S
H227 C201 0.931 . S
H228 C210 0.931 . S
H229 C214 0.929 . S
H230 C216 0.930 . S
Co231 N235 2.148 . S
Co231 N241 2.128 . S
Co231 N251 2.194 . S
Co231 O256 2.351 . S
Co231 O257 2.155 . S
Co231 O258 2.096 . S
C232 N235 1.301 . S
C232 N236 1.328 . S
C232 H237 0.930 . S
C233 C234 1.333 . S
C233 N235 1.317 . S
C233 H238 0.930 . S
C234 C233 1.333 . S
C234 N236 1.350 . S
C234 H260 0.931 . S
N235 Co231 2.148 . S
N235 C232 1.301 . S
N235 C233 1.317 . S
N236 C232 1.328 . S
N236 C234 1.350 . S
H237 C232 0.930 . S
H238 C233 0.930 . S
C239 O240 1.224 . S
C239 O258 1.247 . S
O240 C239 1.224 . S
N241 Co231 2.128 . S
N241 C242 1.355 . S
N241 C244 1.311 . S
C242 N241 1.355 . S
C242 C243 1.363 . S
C242 H254 0.929 . S
C243 C242 1.363 . S
C243 N245 1.375 . S
C243 H261 0.931 . S
C244 N241 1.311 . S
C244 N245 1.347 . S
C244 H255 0.929 . S
N245 C243 1.375 . S
N245 C244 1.347 . S
C246 C249 1.365 . S
C246 N251 1.328 . S
C246 H252 0.929 . S
C247 C248 1.362 . S
C247 C250 1.378 . S
C247 H262 0.929 . S
C248 C247 1.362 . S
C248 C249 1.366 . S
C249 C246 1.365 . S
C249 C248 1.366 . S
C249 H263 0.930 . S
C250 C247 1.378 . S
C250 N251 1.315 . S
C250 H253 0.930 . S
N251 Co231 2.194 . S
N251 C246 1.328 . S
N251 C250 1.315 . S
H252 C246 0.929 . S
H253 C250 0.930 . S
H254 C242 0.929 . S
H255 C244 0.929 . S
O256 Co231 2.351 . S
O256 C259 1.244 . S
O257 Co231 2.155 . S
O257 C259 1.240 . S
O258 Co231 2.096 . S
O258 C239 1.247 . S
C259 O256 1.244 . S
C259 O257 1.240 . S
H260 C234 0.931 . S
H261 C243 0.931 . S
H262 C247 0.929 . S
H263 C249 0.930 . S
Co264 N268 2.148 . S
Co264 N274 2.128 . S
Co264 N284 2.194 . S
Co264 O289 2.351 . S
Co264 O290 2.155 . S
Co264 O291 2.096 . S
C265 N268 1.301 . S
C265 N269 1.328 . S
C265 H270 0.930 . S
C266 C267 1.333 . S
C266 N268 1.317 . S
C266 H271 0.930 . S
C267 C266 1.333 . S
C267 N269 1.350 . S
C267 H293 0.931 . S
N268 Co264 2.148 . S
N268 C265 1.301 . S
N268 C266 1.317 . S
N269 C265 1.328 . S
N269 C267 1.350 . S
H270 C265 0.930 . S
H271 C266 0.930 . S
C272 O273 1.224 . S
C272 O291 1.247 . S
O273 C272 1.224 . S
N274 Co264 2.128 . S
N274 C275 1.355 . S
N274 C277 1.311 . S
C275 N274 1.355 . S
C275 C276 1.363 . S
C275 H287 0.929 . S
C276 C275 1.363 . S
C276 N278 1.375 . S
C276 H294 0.931 . S
C277 N274 1.311 . S
C277 N278 1.347 . S
C277 H288 0.929 . S
N278 C276 1.375 . S
N278 C277 1.347 . S
C279 C282 1.365 . S
C279 N284 1.328 . S
C279 H285 0.929 . S
C280 C281 1.362 . S
C280 C283 1.378 . S
C280 H295 0.929 . S
C281 C280 1.362 . S
C281 C282 1.366 . S
C282 C279 1.365 . S
C282 C281 1.366 . S
C282 H296 0.930 . S
C283 C280 1.378 . S
C283 N284 1.315 . S
C283 H286 0.930 . S
N284 Co264 2.194 . S
N284 C279 1.328 . S
N284 C283 1.315 . S
H285 C279 0.929 . S
H286 C283 0.930 . S
H287 C275 0.929 . S
H288 C277 0.929 . S
O289 Co264 2.351 . S
O289 C292 1.244 . S
O290 Co264 2.155 . S
O290 C292 1.240 . S
O291 Co264 2.096 . S
O291 C272 1.247 . S
C292 O289 1.244 . S
C292 O290 1.240 . S
H293 C267 0.931 . S
H294 C276 0.931 . S
H295 C280 0.929 . S
H296 C282 0.930 . S
Co297 N301 2.148 . S
Co297 N307 2.128 . S
Co297 N317 2.194 . S
Co297 O322 2.351 . S
Co297 O323 2.155 . S
Co297 O324 2.096 . S
C298 N301 1.301 . S
C298 N302 1.328 . S
C298 H303 0.930 . S
C299 C300 1.333 . S
C299 N301 1.317 . S
C299 H304 0.930 . S
C300 C299 1.333 . S
C300 N302 1.350 . S
C300 H326 0.931 . S
N301 Co297 2.148 . S
N301 C298 1.301 . S
N301 C299 1.317 . S
N302 C298 1.328 . S
N302 C300 1.350 . S
H303 C298 0.930 . S
H304 C299 0.930 . S
C305 O306 1.224 . S
C305 O324 1.247 . S
O306 C305 1.224 . S
N307 Co297 2.128 . S
N307 C308 1.355 . S
N307 C310 1.311 . S
C308 N307 1.355 . S
C308 C309 1.363 . S
C308 H320 0.929 . S
C309 C308 1.363 . S
C309 N311 1.375 . S
C309 H327 0.931 . S
C310 N307 1.311 . S
C310 N311 1.347 . S
C310 H321 0.929 . S
N311 C309 1.375 . S
N311 C310 1.347 . S
C312 C315 1.365 . S
C312 N317 1.328 . S
C312 H318 0.929 . S
C313 C314 1.362 . S
C313 C316 1.378 . S
C313 H328 0.929 . S
C314 C313 1.362 . S
C314 C315 1.366 . S
C315 C312 1.365 . S
C315 C314 1.366 . S
C315 H329 0.930 . S
C316 C313 1.378 . S
C316 N317 1.315 . S
C316 H319 0.930 . S
N317 Co297 2.194 . S
N317 C312 1.328 . S
N317 C316 1.315 . S
H318 C312 0.929 . S
H319 C316 0.930 . S
H320 C308 0.929 . S
H321 C310 0.929 . S
O322 Co297 2.351 . S
O322 C325 1.244 . S
O323 Co297 2.155 . S
O323 C325 1.240 . S
O324 Co297 2.096 . S
O324 C305 1.247 . S
C325 O322 1.244 . S
C325 O323 1.240 . S
H326 C300 0.931 . S
H327 C309 0.931 . S
H328 C313 0.929 . S
H329 C315 0.930 . S
Co330 N334 2.148 . S
Co330 N340 2.128 . S
Co330 N350 2.194 . S
Co330 O355 2.351 . S
Co330 O356 2.155 . S
Co330 O357 2.096 . S
C331 N334 1.301 . S
C331 N335 1.328 . S
C331 H336 0.930 . S
C332 C333 1.333 . S
C332 N334 1.317 . S
C332 H337 0.930 . S
C333 C332 1.333 . S
C333 N335 1.350 . S
C333 H359 0.931 . S
N334 Co330 2.148 . S
N334 C331 1.301 . S
N334 C332 1.317 . S
N335 C331 1.328 . S
N335 C333 1.350 . S
H336 C331 0.930 . S
H337 C332 0.930 . S
C338 O339 1.224 . S
C338 O357 1.247 . S
O339 C338 1.224 . S
N340 Co330 2.128 . S
N340 C341 1.355 . S
N340 C343 1.311 . S
C341 N340 1.355 . S
C341 C342 1.363 . S
C341 H353 0.929 . S
C342 C341 1.363 . S
C342 N344 1.375 . S
C342 H360 0.931 . S
C343 N340 1.311 . S
C343 N344 1.347 . S
C343 H354 0.929 . S
N344 C342 1.375 . S
N344 C343 1.347 . S
C345 C348 1.365 . S
C345 N350 1.328 . S
C345 H351 0.929 . S
C346 C347 1.362 . S
C346 C349 1.378 . S
C346 H361 0.929 . S
C347 C346 1.362 . S
C347 C348 1.366 . S
C348 C345 1.365 . S
C348 C347 1.366 . S
C348 H362 0.930 . S
C349 C346 1.378 . S
C349 N350 1.315 . S
C349 H352 0.930 . S
N350 Co330 2.194 . S
N350 C345 1.328 . S
N350 C349 1.315 . S
H351 C345 0.929 . S
H352 C349 0.930 . S
H353 C341 0.929 . S
H354 C343 0.929 . S
O355 Co330 2.351 . S
O355 C358 1.244 . S
O356 Co330 2.155 . S
O356 C358 1.240 . S
O357 Co330 2.096 . S
O357 C338 1.247 . S
C358 O355 1.244 . S
C358 O356 1.240 . S
H359 C333 0.931 . S
H360 C342 0.931 . S
H361 C346 0.929 . S
H362 C348 0.930 . S
Co363 N367 2.148 . S
Co363 N373 2.128 . S
Co363 N383 2.194 . S
Co363 O388 2.351 . S
Co363 O389 2.155 . S
Co363 O390 2.096 . S
C364 N367 1.301 . S
C364 N368 1.328 . S
C364 H369 0.930 . S
C365 C366 1.333 . S
C365 N367 1.317 . S
C365 H370 0.930 . S
C366 C365 1.333 . S
C366 N368 1.350 . S
C366 H392 0.931 . S
N367 Co363 2.148 . S
N367 C364 1.301 . S
N367 C365 1.317 . S
N368 C364 1.328 . S
N368 C366 1.350 . S
H369 C364 0.930 . S
H370 C365 0.930 . S
C371 O372 1.224 . S
C371 O390 1.247 . S
O372 C371 1.224 . S
N373 Co363 2.128 . S
N373 C374 1.355 . S
N373 C376 1.311 . S
C374 N373 1.355 . S
C374 C375 1.363 . S
C374 H386 0.929 . S
C375 C374 1.363 . S
C375 N377 1.375 . S
C375 H393 0.931 . S
C376 N373 1.311 . S
C376 N377 1.347 . S
C376 H387 0.929 . S
N377 C375 1.375 . S
N377 C376 1.347 . S
C378 C381 1.365 . S
C378 N383 1.328 . S
C378 H384 0.929 . S
C379 C380 1.362 . S
C379 C382 1.378 . S
C379 H394 0.929 . S
C380 C379 1.362 . S
C380 C381 1.366 . S
C381 C378 1.365 . S
C381 C380 1.366 . S
C381 H395 0.930 . S
C382 C379 1.378 . S
C382 N383 1.315 . S
C382 H385 0.930 . S
N383 Co363 2.194 . S
N383 C378 1.328 . S
N383 C382 1.315 . S
H384 C378 0.929 . S
H385 C382 0.930 . S
H386 C374 0.929 . S
H387 C376 0.929 . S
O388 Co363 2.351 . S
O388 C391 1.244 . S
O389 Co363 2.155 . S
O389 C391 1.240 . S
O390 Co363 2.096 . S
O390 C371 1.247 . S
C391 O388 1.244 . S
C391 O389 1.240 . S
H392 C366 0.931 . S
H393 C375 0.931 . S
H394 C379 0.929 . S
H395 C381 0.930 . S
Co396 N400 2.148 . S
Co396 N406 2.128 . S
Co396 N416 2.194 . S
Co396 O421 2.351 . S
Co396 O422 2.155 . S
Co396 O423 2.096 . S
C397 N400 1.301 . S
C397 N401 1.328 . S
C397 H402 0.930 . S
C398 C399 1.333 . S
C398 N400 1.317 . S
C398 H403 0.930 . S
C399 C398 1.333 . S
C399 N401 1.350 . S
C399 H425 0.931 . S
N400 Co396 2.148 . S
N400 C397 1.301 . S
N400 C398 1.317 . S
N401 C397 1.328 . S
N401 C399 1.350 . S
H402 C397 0.930 . S
H403 C398 0.930 . S
C404 O405 1.224 . S
C404 O423 1.247 . S
O405 C404 1.224 . S
N406 Co396 2.128 . S
N406 C407 1.355 . S
N406 C409 1.311 . S
C407 N406 1.355 . S
C407 C408 1.363 . S
C407 H419 0.929 . S
C408 C407 1.363 . S
C408 N410 1.375 . S
C408 H426 0.931 . S
C409 N406 1.311 . S
C409 N410 1.347 . S
C409 H420 0.929 . S
N410 C408 1.375 . S
N410 C409 1.347 . S
C411 C414 1.365 . S
C411 N416 1.328 . S
C411 H417 0.929 . S
C412 C413 1.362 . S
C412 C415 1.378 . S
C412 H427 0.929 . S
C413 C412 1.362 . S
C413 C414 1.366 . S
C414 C411 1.365 . S
C414 C413 1.366 . S
C414 H428 0.930 . S
C415 C412 1.378 . S
C415 N416 1.315 . S
C415 H418 0.930 . S
N416 Co396 2.194 . S
N416 C411 1.328 . S
N416 C415 1.315 . S
H417 C411 0.929 . S
H418 C415 0.930 . S
H419 C407 0.929 . S
H420 C409 0.929 . S
O421 Co396 2.351 . S
O421 C424 1.244 . S
O422 Co396 2.155 . S
O422 C424 1.240 . S
O423 Co396 2.096 . S
O423 C404 1.247 . S
C424 O421 1.244 . S
C424 O422 1.240 . S
H425 C399 0.931 . S
H426 C408 0.931 . S
H427 C412 0.929 . S
H428 C414 0.930 . S
Co429 N433 2.148 . S
Co429 N439 2.128 . S
Co429 N449 2.194 . S
Co429 O454 2.351 . S
Co429 O455 2.155 . S
Co429 O456 2.096 . S
C430 N433 1.301 . S
C430 N434 1.328 . S
C430 H435 0.930 . S
C431 C432 1.333 . S
C431 N433 1.317 . S
C431 H436 0.930 . S
C432 C431 1.333 . S
C432 N434 1.350 . S
C432 H458 0.931 . S
N433 Co429 2.148 . S
N433 C430 1.301 . S
N433 C431 1.317 . S
N434 C430 1.328 . S
N434 C432 1.350 . S
H435 C430 0.930 . S
H436 C431 0.930 . S
C437 O438 1.224 . S
C437 O456 1.247 . S
O438 C437 1.224 . S
N439 Co429 2.128 . S
N439 C440 1.355 . S
N439 C442 1.311 . S
C440 N439 1.355 . S
C440 C441 1.363 . S
C440 H452 0.929 . S
C441 C440 1.363 . S
C441 N443 1.375 . S
C441 H459 0.931 . S
C442 N439 1.311 . S
C442 N443 1.347 . S
C442 H453 0.929 . S
N443 C441 1.375 . S
N443 C442 1.347 . S
C444 C447 1.365 . S
C444 N449 1.328 . S
C444 H450 0.929 . S
C445 C446 1.362 . S
C445 C448 1.378 . S
C445 H460 0.929 . S
C446 C445 1.362 . S
C446 C447 1.366 . S
C447 C444 1.365 . S
C447 C446 1.366 . S
C447 H461 0.930 . S
C448 C445 1.378 . S
C448 N449 1.315 . S
C448 H451 0.930 . S
N449 Co429 2.194 . S
N449 C444 1.328 . S
N449 C448 1.315 . S
H450 C444 0.929 . S
H451 C448 0.930 . S
H452 C440 0.929 . S
H453 C442 0.929 . S
O454 Co429 2.351 . S
O454 C457 1.244 . S
O455 Co429 2.155 . S
O455 C457 1.240 . S
O456 Co429 2.096 . S
O456 C437 1.247 . S
C457 O454 1.244 . S
C457 O455 1.240 . S
H458 C432 0.931 . S
H459 C441 0.931 . S
H460 C445 0.929 . S
H461 C447 0.930 . S
Co462 N466 2.148 . S
Co462 N472 2.128 . S
Co462 N482 2.194 . S
Co462 O487 2.351 . S
Co462 O488 2.155 . S
Co462 O489 2.096 . S
C463 N466 1.301 . S
C463 N467 1.328 . S
C463 H468 0.930 . S
C464 C465 1.333 . S
C464 N466 1.317 . S
C464 H469 0.930 . S
C465 C464 1.333 . S
C465 N467 1.350 . S
C465 H491 0.931 . S
N466 Co462 2.148 . S
N466 C463 1.301 . S
N466 C464 1.317 . S
N467 C463 1.328 . S
N467 C465 1.350 . S
H468 C463 0.930 . S
H469 C464 0.930 . S
C470 O471 1.224 . S
C470 O489 1.247 . S
O471 C470 1.224 . S
N472 Co462 2.128 . S
N472 C473 1.355 . S
N472 C475 1.311 . S
C473 N472 1.355 . S
C473 C474 1.363 . S
C473 H485 0.929 . S
C474 C473 1.363 . S
C474 N476 1.375 . S
C474 H492 0.931 . S
C475 N472 1.311 . S
C475 N476 1.347 . S
C475 H486 0.929 . S
N476 C474 1.375 . S
N476 C475 1.347 . S
C477 C480 1.365 . S
C477 N482 1.328 . S
C477 H483 0.929 . S
C478 C479 1.362 . S
C478 C481 1.378 . S
C478 H493 0.929 . S
C479 C478 1.362 . S
C479 C480 1.366 . S
C480 C477 1.365 . S
C480 C479 1.366 . S
C480 H494 0.930 . S
C481 C478 1.378 . S
C481 N482 1.315 . S
C481 H484 0.930 . S
N482 Co462 2.194 . S
N482 C477 1.328 . S
N482 C481 1.315 . S
H483 C477 0.929 . S
H484 C481 0.930 . S
H485 C473 0.929 . S
H486 C475 0.929 . S
O487 Co462 2.351 . S
O487 C490 1.244 . S
O488 Co462 2.155 . S
O488 C490 1.240 . S
O489 Co462 2.096 . S
O489 C470 1.247 . S
C490 O487 1.244 . S
C490 O488 1.240 . S
H491 C465 0.931 . S
H492 C474 0.931 . S
H493 C478 0.929 . S
H494 C480 0.930 . S
Co495 N499 2.148 . S
Co495 N505 2.128 . S
Co495 N515 2.194 . S
Co495 O520 2.351 . S
Co495 O521 2.155 . S
Co495 O522 2.096 . S
C496 N499 1.301 . S
C496 N500 1.328 . S
C496 H501 0.930 . S
C497 C498 1.333 . S
C497 N499 1.317 . S
C497 H502 0.930 . S
C498 C497 1.333 . S
C498 N500 1.350 . S
C498 H524 0.931 . S
N499 Co495 2.148 . S
N499 C496 1.301 . S
N499 C497 1.317 . S
N500 C496 1.328 . S
N500 C498 1.350 . S
H501 C496 0.930 . S
H502 C497 0.930 . S
C503 O504 1.224 . S
C503 O522 1.247 . S
O504 C503 1.224 . S
N505 Co495 2.128 . S
N505 C506 1.355 . S
N505 C508 1.311 . S
C506 N505 1.355 . S
C506 C507 1.363 . S
C506 H518 0.929 . S
C507 C506 1.363 . S
C507 N509 1.375 . S
C507 H525 0.931 . S
C508 N505 1.311 . S
C508 N509 1.347 . S
C508 H519 0.929 . S
N509 C507 1.375 . S
N509 C508 1.347 . S
C510 C513 1.365 . S
C510 N515 1.328 . S
C510 H516 0.929 . S
C511 C512 1.362 . S
C511 C514 1.378 . S
C511 H526 0.929 . S
C512 C511 1.362 . S
C512 C513 1.366 . S
C513 C510 1.365 . S
C513 C512 1.366 . S
C513 H527 0.930 . S
C514 C511 1.378 . S
C514 N515 1.315 . S
C514 H517 0.930 . S
N515 Co495 2.194 . S
N515 C510 1.328 . S
N515 C514 1.315 . S
H516 C510 0.929 . S
H517 C514 0.930 . S
H518 C506 0.929 . S
H519 C508 0.929 . S
O520 Co495 2.351 . S
O520 C523 1.244 . S
O521 Co495 2.155 . S
O521 C523 1.240 . S
O522 Co495 2.096 . S
O522 C503 1.247 . S
C523 O520 1.244 . S
C523 O521 1.240 . S
H524 C498 0.931 . S
H525 C507 0.931 . S
H526 C511 0.929 . S
H527 C513 0.930 . S
Co528 N532 2.148 . S
Co528 N538 2.128 . S
Co528 N548 2.194 . S
Co528 O553 2.351 . S
Co528 O554 2.155 . S
Co528 O555 2.096 . S
C529 N532 1.301 . S
C529 N533 1.328 . S
C529 H534 0.930 . S
C530 C531 1.333 . S
C530 N532 1.317 . S
C530 H535 0.930 . S
C531 C530 1.333 . S
C531 N533 1.350 . S
C531 H557 0.931 . S
N532 Co528 2.148 . S
N532 C529 1.301 . S
N532 C530 1.317 . S
N533 C529 1.328 . S
N533 C531 1.350 . S
H534 C529 0.930 . S
H535 C530 0.930 . S
C536 O537 1.224 . S
C536 O555 1.247 . S
O537 C536 1.224 . S
N538 Co528 2.128 . S
N538 C539 1.355 . S
N538 C541 1.311 . S
C539 N538 1.355 . S
C539 C540 1.363 . S
C539 H551 0.929 . S
C540 C539 1.363 . S
C540 N542 1.375 . S
C540 H558 0.931 . S
C541 N538 1.311 . S
C541 N542 1.347 . S
C541 H552 0.929 . S
N542 C540 1.375 . S
N542 C541 1.347 . S
C543 C546 1.365 . S
C543 N548 1.328 . S
C543 H549 0.929 . S
C544 C545 1.362 . S
C544 C547 1.378 . S
C544 H559 0.929 . S
C545 C544 1.362 . S
C545 C546 1.366 . S
C546 C543 1.365 . S
C546 C545 1.366 . S
C546 H560 0.930 . S
C547 C544 1.378 . S
C547 N548 1.315 . S
C547 H550 0.930 . S
N548 Co528 2.194 . S
N548 C543 1.328 . S
N548 C547 1.315 . S
H549 C543 0.929 . S
H550 C547 0.930 . S
H551 C539 0.929 . S
H552 C541 0.929 . S
O553 Co528 2.351 . S
O553 C556 1.244 . S
O554 Co528 2.155 . S
O554 C556 1.240 . S
O555 Co528 2.096 . S
O555 C536 1.247 . S
C556 O553 1.244 . S
C556 O554 1.240 . S
H557 C531 0.931 . S
H558 C540 0.931 . S
H559 C544 0.929 . S
H560 C546 0.930 . S
Co561 N565 2.148 . S
Co561 N571 2.128 . S
Co561 N581 2.194 . S
Co561 O586 2.351 . S
Co561 O587 2.155 . S
Co561 O588 2.096 . S
C562 N565 1.301 . S
C562 N566 1.328 . S
C562 H567 0.930 . S
C563 C564 1.333 . S
C563 N565 1.317 . S
C563 H568 0.930 . S
C564 C563 1.333 . S
C564 N566 1.350 . S
C564 H590 0.931 . S
N565 Co561 2.148 . S
N565 C562 1.301 . S
N565 C563 1.317 . S
N566 C562 1.328 . S
N566 C564 1.350 . S
H567 C562 0.930 . S
H568 C563 0.930 . S
C569 O570 1.224 . S
C569 O588 1.247 . S
O570 C569 1.224 . S
N571 Co561 2.128 . S
N571 C572 1.355 . S
N571 C574 1.311 . S
C572 N571 1.355 . S
C572 C573 1.363 . S
C572 H584 0.929 . S
C573 C572 1.363 . S
C573 N575 1.375 . S
C573 H591 0.931 . S
C574 N571 1.311 . S
C574 N575 1.347 . S
C574 H585 0.929 . S
N575 C573 1.375 . S
N575 C574 1.347 . S
C576 C579 1.365 . S
C576 N581 1.328 . S
C576 H582 0.929 . S
C577 C578 1.362 . S
C577 C580 1.378 . S
C577 H592 0.929 . S
C578 C577 1.362 . S
C578 C579 1.366 . S
C579 C576 1.365 . S
C579 C578 1.366 . S
C579 H593 0.930 . S
C580 C577 1.378 . S
C580 N581 1.315 . S
C580 H583 0.930 . S
N581 Co561 2.194 . S
N581 C576 1.328 . S
N581 C580 1.315 . S
H582 C576 0.929 . S
H583 C580 0.930 . S
H584 C572 0.929 . S
H585 C574 0.929 . S
O586 Co561 2.351 . S
O586 C589 1.244 . S
O587 Co561 2.155 . S
O587 C589 1.240 . S
O588 Co561 2.096 . S
O588 C569 1.247 . S
C589 O586 1.244 . S
C589 O587 1.240 . S
H590 C564 0.931 . S
H591 C573 0.931 . S
H592 C577 0.929 . S
H593 C579 0.930 . S
Co594 N598 2.148 . S
Co594 N604 2.128 . S
Co594 N614 2.194 . S
Co594 O619 2.351 . S
Co594 O620 2.155 . S
Co594 O621 2.096 . S
C595 N598 1.301 . S
C595 N599 1.328 . S
C595 H600 0.930 . S
C596 C597 1.333 . S
C596 N598 1.317 . S
C596 H601 0.930 . S
C597 C596 1.333 . S
C597 N599 1.350 . S
C597 H623 0.931 . S
N598 Co594 2.148 . S
N598 C595 1.301 . S
N598 C596 1.317 . S
N599 C595 1.328 . S
N599 C597 1.350 . S
H600 C595 0.930 . S
H601 C596 0.930 . S
C602 O603 1.224 . S
C602 O621 1.247 . S
O603 C602 1.224 . S
N604 Co594 2.128 . S
N604 C605 1.355 . S
N604 C607 1.311 . S
C605 N604 1.355 . S
C605 C606 1.363 . S
C605 H617 0.929 . S
C606 C605 1.363 . S
C606 N608 1.375 . S
C606 H624 0.931 . S
C607 N604 1.311 . S
C607 N608 1.347 . S
C607 H618 0.929 . S
N608 C606 1.375 . S
N608 C607 1.347 . S
C609 C612 1.365 . S
C609 N614 1.328 . S
C609 H615 0.929 . S
C610 C611 1.362 . S
C610 C613 1.378 . S
C610 H625 0.929 . S
C611 C610 1.362 . S
C611 C612 1.366 . S
C612 C609 1.365 . S
C612 C611 1.366 . S
C612 H626 0.930 . S
C613 C610 1.378 . S
C613 N614 1.315 . S
C613 H616 0.930 . S
N614 Co594 2.194 . S
N614 C609 1.328 . S
N614 C613 1.315 . S
H615 C609 0.929 . S
H616 C613 0.930 . S
H617 C605 0.929 . S
H618 C607 0.929 . S
O619 Co594 2.351 . S
O619 C622 1.244 . S
O620 Co594 2.155 . S
O620 C622 1.240 . S
O621 Co594 2.096 . S
O621 C602 1.247 . S
C622 O619 1.244 . S
C622 O620 1.240 . S
H623 C597 0.931 . S
H624 C606 0.931 . S
H625 C610 0.929 . S
H626 C612 0.930 . S
Co627 N631 2.148 . S
Co627 N637 2.128 . S
Co627 N647 2.194 . S
Co627 O652 2.351 . S
Co627 O653 2.155 . S
Co627 O654 2.096 . S
C628 N631 1.301 . S
C628 N632 1.328 . S
C628 H633 0.930 . S
C629 C630 1.333 . S
C629 N631 1.317 . S
C629 H634 0.930 . S
C630 C629 1.333 . S
C630 N632 1.350 . S
C630 H656 0.931 . S
N631 Co627 2.148 . S
N631 C628 1.301 . S
N631 C629 1.317 . S
N632 C628 1.328 . S
N632 C630 1.350 . S
H633 C628 0.930 . S
H634 C629 0.930 . S
C635 O636 1.224 . S
C635 O654 1.247 . S
O636 C635 1.224 . S
N637 Co627 2.128 . S
N637 C638 1.355 . S
N637 C640 1.311 . S
C638 N637 1.355 . S
C638 C639 1.363 . S
C638 H650 0.929 . S
C639 C638 1.363 . S
C639 N641 1.375 . S
C639 H657 0.931 . S
C640 N637 1.311 . S
C640 N641 1.347 . S
C640 H651 0.929 . S
N641 C639 1.375 . S
N641 C640 1.347 . S
C642 C645 1.365 . S
C642 N647 1.328 . S
C642 H648 0.929 . S
C643 C644 1.362 . S
C643 C646 1.378 . S
C643 H658 0.929 . S
C644 C643 1.362 . S
C644 C645 1.366 . S
C645 C642 1.365 . S
C645 C644 1.366 . S
C645 H659 0.930 . S
C646 C643 1.378 . S
C646 N647 1.315 . S
C646 H649 0.930 . S
N647 Co627 2.194 . S
N647 C642 1.328 . S
N647 C646 1.315 . S
H648 C642 0.929 . S
H649 C646 0.930 . S
H650 C638 0.929 . S
H651 C640 0.929 . S
O652 Co627 2.351 . S
O652 C655 1.244 . S
O653 Co627 2.155 . S
O653 C655 1.240 . S
O654 Co627 2.096 . S
O654 C635 1.247 . S
C655 O652 1.244 . S
C655 O653 1.240 . S
H656 C630 0.931 . S
H657 C639 0.931 . S
H658 C643 0.929 . S
H659 C645 0.930 . S
Co660 N664 2.148 . S
Co660 N670 2.128 . S
Co660 N680 2.194 . S
Co660 O685 2.351 . S
Co660 O686 2.155 . S
Co660 O687 2.096 . S
C661 N664 1.301 . S
C661 N665 1.328 . S
C661 H666 0.930 . S
C662 C663 1.333 . S
C662 N664 1.317 . S
C662 H667 0.930 . S
C663 C662 1.333 . S
C663 N665 1.350 . S
C663 H689 0.931 . S
N664 Co660 2.148 . S
N664 C661 1.301 . S
N664 C662 1.317 . S
N665 C661 1.328 . S
N665 C663 1.350 . S
H666 C661 0.930 . S
H667 C662 0.930 . S
C668 O669 1.224 . S
C668 O687 1.247 . S
O669 C668 1.224 . S
N670 Co660 2.128 . S
N670 C671 1.355 . S
N670 C673 1.311 . S
C671 N670 1.355 . S
C671 C672 1.363 . S
C671 H683 0.929 . S
C672 C671 1.363 . S
C672 N674 1.375 . S
C672 H690 0.931 . S
C673 N670 1.311 . S
C673 N674 1.347 . S
C673 H684 0.929 . S
N674 C672 1.375 . S
N674 C673 1.347 . S
C675 C678 1.365 . S
C675 N680 1.328 . S
C675 H681 0.929 . S
C676 C677 1.362 . S
C676 C679 1.378 . S
C676 H691 0.929 . S
C677 C676 1.362 . S
C677 C678 1.366 . S
C678 C675 1.365 . S
C678 C677 1.366 . S
C678 H692 0.930 . S
C679 C676 1.378 . S
C679 N680 1.315 . S
C679 H682 0.930 . S
N680 Co660 2.194 . S
N680 C675 1.328 . S
N680 C679 1.315 . S
H681 C675 0.929 . S
H682 C679 0.930 . S
H683 C671 0.929 . S
H684 C673 0.929 . S
O685 Co660 2.351 . S
O685 C688 1.244 . S
O686 Co660 2.155 . S
O686 C688 1.240 . S
O687 Co660 2.096 . S
O687 C668 1.247 . S
C688 O685 1.244 . S
C688 O686 1.240 . S
H689 C663 0.931 . S
H690 C672 0.931 . S
H691 C676 0.929 . S
H692 C678 0.930 . S
Co693 N697 2.148 . S
Co693 N703 2.128 . S
Co693 N713 2.194 . S
Co693 O718 2.351 . S
Co693 O719 2.155 . S
Co693 O720 2.096 . S
C694 N697 1.301 . S
C694 N698 1.328 . S
C694 H699 0.930 . S
C695 C696 1.333 . S
C695 N697 1.317 . S
C695 H700 0.930 . S
C696 C695 1.333 . S
C696 N698 1.350 . S
C696 H722 0.931 . S
N697 Co693 2.148 . S
N697 C694 1.301 . S
N697 C695 1.317 . S
N698 C694 1.328 . S
N698 C696 1.350 . S
H699 C694 0.930 . S
H700 C695 0.930 . S
C701 O702 1.224 . S
C701 O720 1.247 . S
O702 C701 1.224 . S
N703 Co693 2.128 . S
N703 C704 1.355 . S
N703 C706 1.311 . S
C704 N703 1.355 . S
C704 C705 1.363 . S
C704 H716 0.929 . S
C705 C704 1.363 . S
C705 N707 1.375 . S
C705 H723 0.931 . S
C706 N703 1.311 . S
C706 N707 1.347 . S
C706 H717 0.929 . S
N707 C705 1.375 . S
N707 C706 1.347 . S
C708 C711 1.365 . S
C708 N713 1.328 . S
C708 H714 0.929 . S
C709 C710 1.362 . S
C709 C712 1.378 . S
C709 H724 0.929 . S
C710 C709 1.362 . S
C710 C711 1.366 . S
C711 C708 1.365 . S
C711 C710 1.366 . S
C711 H725 0.930 . S
C712 C709 1.378 . S
C712 N713 1.315 . S
C712 H715 0.930 . S
N713 Co693 2.194 . S
N713 C708 1.328 . S
N713 C712 1.315 . S
H714 C708 0.929 . S
H715 C712 0.930 . S
H716 C704 0.929 . S
H717 C706 0.929 . S
O718 Co693 2.351 . S
O718 C721 1.244 . S
O719 Co693 2.155 . S
O719 C721 1.240 . S
O720 Co693 2.096 . S
O720 C701 1.247 . S
C721 O718 1.244 . S
C721 O719 1.240 . S
H722 C696 0.931 . S
H723 C705 0.931 . S
H724 C709 0.929 . S
H725 C711 0.930 . S
Co726 N730 2.148 . S
Co726 N736 2.128 . S
Co726 N746 2.194 . S
Co726 O751 2.351 . S
Co726 O752 2.155 . S
Co726 O753 2.096 . S
C727 N730 1.301 . S
C727 N731 1.328 . S
C727 H732 0.930 . S
C728 C729 1.333 . S
C728 N730 1.317 . S
C728 H733 0.930 . S
C729 C728 1.333 . S
C729 N731 1.350 . S
C729 H755 0.931 . S
N730 Co726 2.148 . S
N730 C727 1.301 . S
N730 C728 1.317 . S
N731 C727 1.328 . S
N731 C729 1.350 . S
H732 C727 0.930 . S
H733 C728 0.930 . S
C734 O735 1.224 . S
C734 O753 1.247 . S
O735 C734 1.224 . S
N736 Co726 2.128 . S
N736 C737 1.355 . S
N736 C739 1.311 . S
C737 N736 1.355 . S
C737 C738 1.363 . S
C737 H749 0.929 . S
C738 C737 1.363 . S
C738 N740 1.375 . S
C738 H756 0.931 . S
C739 N736 1.311 . S
C739 N740 1.347 . S
C739 H750 0.929 . S
N740 C738 1.375 . S
N740 C739 1.347 . S
C741 C744 1.365 . S
C741 N746 1.328 . S
C741 H747 0.929 . S
C742 C743 1.362 . S
C742 C745 1.378 . S
C742 H757 0.929 . S
C743 C742 1.362 . S
C743 C744 1.366 . S
C744 C741 1.365 . S
C744 C743 1.366 . S
C744 H758 0.930 . S
C745 C742 1.378 . S
C745 N746 1.315 . S
C745 H748 0.930 . S
N746 Co726 2.194 . S
N746 C741 1.328 . S
N746 C745 1.315 . S
H747 C741 0.929 . S
H748 C745 0.930 . S
H749 C737 0.929 . S
H750 C739 0.929 . S
O751 Co726 2.351 . S
O751 C754 1.244 . S
O752 Co726 2.155 . S
O752 C754 1.240 . S
O753 Co726 2.096 . S
O753 C734 1.247 . S
C754 O751 1.244 . S
C754 O752 1.240 . S
H755 C729 0.931 . S
H756 C738 0.931 . S
H757 C742 0.929 . S
H758 C744 0.930 . S
Co759 N763 2.148 . S
Co759 N769 2.128 . S
Co759 N779 2.194 . S
Co759 O784 2.351 . S
Co759 O785 2.155 . S
Co759 O786 2.096 . S
C760 N763 1.301 . S
C760 N764 1.328 . S
C760 H765 0.930 . S
C761 C762 1.333 . S
C761 N763 1.317 . S
C761 H766 0.930 . S
C762 C761 1.333 . S
C762 N764 1.350 . S
C762 H788 0.931 . S
N763 Co759 2.148 . S
N763 C760 1.301 . S
N763 C761 1.317 . S
N764 C760 1.328 . S
N764 C762 1.350 . S
H765 C760 0.930 . S
H766 C761 0.930 . S
C767 O768 1.224 . S
C767 O786 1.247 . S
O768 C767 1.224 . S
N769 Co759 2.128 . S
N769 C770 1.355 . S
N769 C772 1.311 . S
C770 N769 1.355 . S
C770 C771 1.363 . S
C770 H782 0.929 . S
C771 C770 1.363 . S
C771 N773 1.375 . S
C771 H789 0.931 . S
C772 N769 1.311 . S
C772 N773 1.347 . S
C772 H783 0.929 . S
N773 C771 1.375 . S
N773 C772 1.347 . S
C774 C777 1.365 . S
C774 N779 1.328 . S
C774 H780 0.929 . S
C775 C776 1.362 . S
C775 C778 1.378 . S
C775 H790 0.929 . S
C776 C775 1.362 . S
C776 C777 1.366 . S
C777 C774 1.365 . S
C777 C776 1.366 . S
C777 H791 0.930 . S
C778 C775 1.378 . S
C778 N779 1.315 . S
C778 H781 0.930 . S
N779 Co759 2.194 . S
N779 C774 1.328 . S
N779 C778 1.315 . S
H780 C774 0.929 . S
H781 C778 0.930 . S
H782 C770 0.929 . S
H783 C772 0.929 . S
O784 Co759 2.351 . S
O784 C787 1.244 . S
O785 Co759 2.155 . S
O785 C787 1.240 . S
O786 Co759 2.096 . S
O786 C767 1.247 . S
C787 O784 1.244 . S
C787 O785 1.240 . S
H788 C762 0.931 . S
H789 C771 0.931 . S
H790 C775 0.929 . S
H791 C777 0.930 . S
C792 C793 1.349 . S
C792 C794 1.327 . S
C792 H817 0.950 . S
C793 C792 1.349 . S
C793 C809 1.349 . S
C794 C792 1.327 . S
C794 C813 1.429 . S
C794 H818 0.950 . S
C795 C812 1.574 1_545 S
C795 C814 1.368 . S
C795 H819 0.949 . S
H796 C800 0.949 . S
C797 C798 1.349 . S
C797 C799 1.327 . S
C797 H820 0.950 . S
C798 C797 1.349 . S
C798 C810 1.349 . S
C799 C797 1.327 . S
C799 C815 1.429 . S
C799 H821 0.950 . S
C800 H796 0.949 . S
C800 C808 1.574 1_565 S
C800 C816 1.368 . S
H801 C809 0.950 . S
H802 C807 0.950 . S
H803 C808 0.949 . S
H804 C810 0.950 . S
H805 C811 0.950 . S
H806 C812 0.949 . S
C807 H802 0.950 . S
C807 C809 1.327 . S
C807 C813 1.429 . S
C808 C800 1.574 1_545 S
C808 H803 0.949 . S
C808 C814 1.368 . S
C809 C793 1.349 . S
C809 H801 0.950 . S
C809 C807 1.327 . S
C810 C798 1.349 . S
C810 H804 0.950 . S
C810 C811 1.327 . S
C811 H805 0.950 . S
C811 C810 1.327 . S
C811 C815 1.429 . S
C812 C795 1.574 1_565 S
C812 H806 0.949 . S
C812 C816 1.368 . S
C813 C794 1.429 . S
C813 C807 1.429 . S
C813 C814 1.523 . S
C814 C795 1.368 . S
C814 C808 1.368 . S
C814 C813 1.523 . S
C815 C799 1.429 . S
C815 C811 1.429 . S
C815 C816 1.523 . S
C816 C800 1.368 . S
C816 C812 1.368 . S
C816 C815 1.523 . S
H817 C792 0.950 . S
H818 C794 0.950 . S
H819 C795 0.949 . S
H820 C797 0.950 . S
H821 C799 0.950 . S
C822 C823 1.349 . S
C822 C824 1.327 . S
C822 H847 0.950 . S
C823 C822 1.349 . S
C823 C839 1.349 . S
C824 C822 1.327 . S
C824 C843 1.429 . S
C824 H848 0.950 . S
C825 C842 1.574 . S
C825 C844 1.368 . S
C825 H849 0.949 . S
H826 C830 0.949 . S
C827 C828 1.349 . S
C827 C829 1.327 . S
C827 H850 0.950 . S
C828 C827 1.349 . S
C828 C840 1.349 . S
C829 C827 1.327 . S
C829 C845 1.429 . S
C829 H851 0.950 . S
C830 H826 0.949 . S
C830 C838 1.574 . S
C830 C846 1.368 . S
H831 C839 0.950 . S
H832 C837 0.950 . S
H833 C838 0.949 . S
H834 C840 0.950 . S
H835 C841 0.950 . S
H836 C842 0.949 . S
C837 H832 0.950 . S
C837 C839 1.327 . S
C837 C843 1.429 . S
C838 C830 1.574 . S
C838 H833 0.949 . S
C838 C844 1.368 . S
C839 C823 1.349 . S
C839 H831 0.950 . S
C839 C837 1.327 . S
C840 C828 1.349 . S
C840 H834 0.950 . S
C840 C841 1.327 . S
C841 H835 0.950 . S
C841 C840 1.327 . S
C841 C845 1.429 . S
C842 C825 1.574 . S
C842 H836 0.949 . S
C842 C846 1.368 . S
C843 C824 1.429 . S
C843 C837 1.429 . S
C843 C844 1.523 . S
C844 C825 1.368 . S
C844 C838 1.368 . S
C844 C843 1.523 . S
C845 C829 1.429 . S
C845 C841 1.429 . S
C845 C846 1.523 . S
C846 C830 1.368 . S
C846 C842 1.368 . S
C846 C845 1.523 . S
H847 C822 0.950 . S
H848 C824 0.950 . S
H849 C825 0.949 . S
H850 C827 0.950 . S
H851 C829 0.950 . S
C852 C853 1.349 . S
C852 C854 1.327 . S
C852 H877 0.950 . S
C853 C852 1.349 . S
C853 C869 1.349 . S
C854 C852 1.327 . S
C854 C873 1.429 . S
C854 H878 0.950 . S
C855 C872 1.574 1_455 S
C855 C874 1.368 . S
C855 H879 0.949 . S
H856 C860 0.949 . S
C857 C858 1.349 . S
C857 C859 1.327 . S
C857 H880 0.950 . S
C858 C857 1.349 . S
C858 C870 1.349 . S
C859 C857 1.327 . S
C859 C875 1.429 . S
C859 H881 0.950 . S
C860 H856 0.949 . S
C860 C868 1.574 1_655 S
C860 C876 1.368 . S
H861 C869 0.950 . S
H862 C867 0.950 . S
H863 C868 0.949 . S
H864 C870 0.950 . S
H865 C871 0.950 . S
H866 C872 0.949 . S
C867 H862 0.950 . S
C867 C869 1.327 . S
C867 C873 1.429 . S
C868 C860 1.574 1_455 S
C868 H863 0.949 . S
C868 C874 1.368 . S
C869 C853 1.349 . S
C869 H861 0.950 . S
C869 C867 1.327 . S
C870 C858 1.349 . S
C870 H864 0.950 . S
C870 C871 1.327 . S
C871 H865 0.950 . S
C871 C870 1.327 . S
C871 C875 1.429 . S
C872 C855 1.574 1_655 S
C872 H866 0.949 . S
C872 C876 1.368 . S
C873 C854 1.429 . S
C873 C867 1.429 . S
C873 C874 1.523 . S
C874 C855 1.368 . S
C874 C868 1.368 . S
C874 C873 1.523 . S
C875 C859 1.429 . S
C875 C871 1.429 . S
C875 C876 1.523 . S
C876 C860 1.368 . S
C876 C872 1.368 . S
C876 C875 1.523 . S
H877 C852 0.950 . S
H878 C854 0.950 . S
H879 C855 0.949 . S
H880 C857 0.950 . S
H881 C859 0.950 . S
C882 C883 1.349 . S
C882 C884 1.327 . S
C882 H907 0.950 . S
C883 C882 1.349 . S
C883 C899 1.349 . S
C884 C882 1.327 . S
C884 C903 1.429 . S
C884 H908 0.950 . S
C885 C902 1.574 1_455 S
C885 C904 1.368 . S
C885 H909 0.949 . S
H886 C890 0.949 . S
C887 C888 1.349 . S
C887 C889 1.327 . S
C887 H910 0.950 . S
C888 C887 1.349 . S
C888 C900 1.349 . S
C889 C887 1.327 . S
C889 C905 1.429 . S
C889 H911 0.950 . S
C890 H886 0.949 . S
C890 C898 1.574 1_655 S
C890 C906 1.368 . S
H891 C899 0.950 . S
H892 C897 0.950 . S
H893 C898 0.949 . S
H894 C900 0.950 . S
H895 C901 0.950 . S
H896 C902 0.949 . S
C897 H892 0.950 . S
C897 C899 1.327 . S
C897 C903 1.429 . S
C898 C890 1.574 1_455 S
C898 H893 0.949 . S
C898 C904 1.368 . S
C899 C883 1.349 . S
C899 H891 0.950 . S
C899 C897 1.327 . S
C900 C888 1.349 . S
C900 H894 0.950 . S
C900 C901 1.327 . S
C901 H895 0.950 . S
C901 C900 1.327 . S
C901 C905 1.429 . S
C902 C885 1.574 1_655 S
C902 H896 0.949 . S
C902 C906 1.368 . S
C903 C884 1.429 . S
C903 C897 1.429 . S
C903 C904 1.523 . S
C904 C885 1.368 . S
C904 C898 1.368 . S
C904 C903 1.523 . S
C905 C889 1.429 . S
C905 C901 1.429 . S
C905 C906 1.523 . S
C906 C890 1.368 . S
C906 C902 1.368 . S
C906 C905 1.523 . S
H907 C882 0.950 . S
H908 C884 0.950 . S
H909 C885 0.949 . S
H910 C887 0.950 . S
H911 C889 0.950 . S
C912 C913 1.349 . S
C912 C914 1.327 . S
C912 H937 0.950 . S
C913 C912 1.349 . S
C913 C929 1.349 . S
C914 C912 1.327 . S
C914 C933 1.429 . S
C914 H938 0.950 . S
C915 C932 1.574 1_565 S
C915 C934 1.368 . S
C915 H939 0.949 . S
H916 C920 0.949 . S
C917 C918 1.349 . S
C917 C919 1.327 . S
C917 H940 0.950 . S
C918 C917 1.349 . S
C918 C930 1.349 . S
C919 C917 1.327 . S
C919 C935 1.429 . S
C919 H941 0.950 . S
C920 H916 0.949 . S
C920 C928 1.574 1_545 S
C920 C936 1.368 . S
H921 C929 0.950 . S
H922 C927 0.950 . S
H923 C928 0.949 . S
H924 C930 0.950 . S
H925 C931 0.950 . S
H926 C932 0.949 . S
C927 H922 0.950 . S
C927 C929 1.327 . S
C927 C933 1.429 . S
C928 C920 1.574 1_565 S
C928 H923 0.949 . S
C928 C934 1.368 . S
C929 C913 1.349 . S
C929 H921 0.950 . S
C929 C927 1.327 . S
C930 C918 1.349 . S
C930 H924 0.950 . S
C930 C931 1.327 . S
C931 H925 0.950 . S
C931 C930 1.327 . S
C931 C935 1.429 . S
C932 C915 1.574 1_545 S
C932 H926 0.949 . S
C932 C936 1.368 . S
C933 C914 1.429 . S
C933 C927 1.429 . S
C933 C934 1.523 . S
C934 C915 1.368 . S
C934 C928 1.368 . S
C934 C933 1.523 . S
C935 C919 1.429 . S
C935 C931 1.429 . S
C935 C936 1.523 . S
C936 C920 1.368 . S
C936 C932 1.368 . S
C936 C935 1.523 . S
H937 C912 0.950 . S
H938 C914 0.950 . S
H939 C915 0.949 . S
H940 C917 0.950 . S
H941 C919 0.950 . S
C942 C943 1.349 . S
C942 C944 1.327 . S
C942 H967 0.950 . S
C943 C942 1.349 . S
C943 C959 1.349 . S
C944 C942 1.327 . S
C944 C963 1.429 . S
C944 H968 0.950 . S
C945 C962 1.574 . S
C945 C964 1.368 . S
C945 H969 0.949 . S
H946 C950 0.949 . S
C947 C948 1.349 . S
C947 C949 1.327 . S
C947 H970 0.950 . S
C948 C947 1.349 . S
C948 C960 1.349 . S
C949 C947 1.327 . S
C949 C965 1.429 . S
C949 H971 0.950 . S
C950 H946 0.949 . S
C950 C958 1.574 . S
C950 C966 1.368 . S
H951 C959 0.950 . S
H952 C957 0.950 . S
H953 C958 0.949 . S
H954 C960 0.950 . S
H955 C961 0.950 . S
H956 C962 0.949 . S
C957 H952 0.950 . S
C957 C959 1.327 . S
C957 C963 1.429 . S
C958 C950 1.574 . S
C958 H953 0.949 . S
C958 C964 1.368 . S
C959 C943 1.349 . S
C959 H951 0.950 . S
C959 C957 1.327 . S
C960 C948 1.349 . S
C960 H954 0.950 . S
C960 C961 1.327 . S
C961 H955 0.950 . S
C961 C960 1.327 . S
C961 C965 1.429 . S
C962 C945 1.574 . S
C962 H956 0.949 . S
C962 C966 1.368 . S
C963 C944 1.429 . S
C963 C957 1.429 . S
C963 C964 1.523 . S
C964 C945 1.368 . S
C964 C958 1.368 . S
C964 C963 1.523 . S
C965 C949 1.429 . S
C965 C961 1.429 . S
C965 C966 1.523 . S
C966 C950 1.368 . S
C966 C962 1.368 . S
C966 C965 1.523 . S
H967 C942 0.950 . S
H968 C944 0.950 . S
H969 C945 0.949 . S
H970 C947 0.950 . S
H971 C949 0.950 . S
C972 C973 1.349 . S
C972 C974 1.327 . S
C972 H997 0.950 . S
C973 C972 1.349 . S
C973 C989 1.349 . S
C974 C972 1.327 . S
C974 C993 1.429 . S
C974 H998 0.950 . S
C975 C992 1.574 1_545 S
C975 C994 1.368 . S
C975 H999 0.949 . S
H976 C980 0.949 . S
C977 C978 1.349 . S
C977 C979 1.327 . S
C977 H1000 0.950 . S
C978 C977 1.349 . S
C978 C990 1.349 . S
C979 C977 1.327 . S
C979 C995 1.429 . S
C979 H1001 0.950 . S
C980 H976 0.949 . S
C980 C988 1.574 1_565 S
C980 C996 1.368 . S
H981 C989 0.950 . S
H982 C987 0.950 . S
H983 C988 0.949 . S
H984 C990 0.950 . S
H985 C991 0.950 . S
H986 C992 0.949 . S
C987 H982 0.950 . S
C987 C989 1.327 . S
C987 C993 1.429 . S
C988 C980 1.574 1_545 S
C988 H983 0.949 . S
C988 C994 1.368 . S
C989 C973 1.349 . S
C989 H981 0.950 . S
C989 C987 1.327 . S
C990 C978 1.349 . S
C990 H984 0.950 . S
C990 C991 1.327 . S
C991 H985 0.950 . S
C991 C990 1.327 . S
C991 C995 1.429 . S
C992 C975 1.574 1_565 S
C992 H986 0.949 . S
C992 C996 1.368 . S
C993 C974 1.429 . S
C993 C987 1.429 . S
C993 C994 1.523 . S
C994 C975 1.368 . S
C994 C988 1.368 . S
C994 C993 1.523 . S
C995 C979 1.429 . S
C995 C991 1.429 . S
C995 C996 1.523 . S
C996 C980 1.368 . S
C996 C992 1.368 . S
C996 C995 1.523 . S
H997 C972 0.950 . S
H998 C974 0.950 . S
H999 C975 0.949 . S
H1000 C977 0.950 . S
H1001 C979 0.950 . S
C1002 C1003 1.349 . S
C1002 C1004 1.327 . S
C1002 H1027 0.950 . S
C1003 C1002 1.349 . S
C1003 C1019 1.349 . S
C1004 C1002 1.327 . S
C1004 C1023 1.429 . S
C1004 H1028 0.950 . S
C1005 C1022 1.574 . S
C1005 C1024 1.368 . S
C1005 H1029 0.949 . S
H1006 C1010 0.949 . S
C1007 C1008 1.349 . S
C1007 C1009 1.327 . S
C1007 H1030 0.950 . S
C1008 C1007 1.349 . S
C1008 C1020 1.349 . S
C1009 C1007 1.327 . S
C1009 C1025 1.429 . S
C1009 H1031 0.950 . S
C1010 H1006 0.949 . S
C1010 C1018 1.574 . S
C1010 C1026 1.368 . S
H1011 C1019 0.950 . S
H1012 C1017 0.950 . S
H1013 C1018 0.949 . S
H1014 C1020 0.950 . S
H1015 C1021 0.950 . S
H1016 C1022 0.949 . S
C1017 H1012 0.950 . S
C1017 C1019 1.327 . S
C1017 C1023 1.429 . S
C1018 C1010 1.574 . S
C1018 H1013 0.949 . S
C1018 C1024 1.368 . S
C1019 C1003 1.349 . S
C1019 H1011 0.950 . S
C1019 C1017 1.327 . S
C1020 C1008 1.349 . S
C1020 H1014 0.950 . S
C1020 C1021 1.327 . S
C1021 H1015 0.950 . S
C1021 C1020 1.327 . S
C1021 C1025 1.429 . S
C1022 C1005 1.574 . S
C1022 H1016 0.949 . S
C1022 C1026 1.368 . S
C1023 C1004 1.429 . S
C1023 C1017 1.429 . S
C1023 C1024 1.523 . S
C1024 C1005 1.368 . S
C1024 C1018 1.368 . S
C1024 C1023 1.523 . S
C1025 C1009 1.429 . S
C1025 C1021 1.429 . S
C1025 C1026 1.523 . S
C1026 C1010 1.368 . S
C1026 C1022 1.368 . S
C1026 C1025 1.523 . S
H1027 C1002 0.950 . S
H1028 C1004 0.950 . S
H1029 C1005 0.949 . S
H1030 C1007 0.950 . S
H1031 C1009 0.950 . S
C1032 C1033 1.349 . S
C1032 C1034 1.327 . S
C1032 H1057 0.950 . S
C1033 C1032 1.349 . S
C1033 C1049 1.349 . S
C1034 C1032 1.327 . S
C1034 C1053 1.429 . S
C1034 H1058 0.950 . S
C1035 C1052 1.574 1_655 S
C1035 C1054 1.368 . S
C1035 H1059 0.949 . S
H1036 C1040 0.949 . S
C1037 C1038 1.349 . S
C1037 C1039 1.327 . S
C1037 H1060 0.950 . S
C1038 C1037 1.349 . S
C1038 C1050 1.349 . S
C1039 C1037 1.327 . S
C1039 C1055 1.429 . S
C1039 H1061 0.950 . S
C1040 H1036 0.949 . S
C1040 C1048 1.574 1_455 S
C1040 C1056 1.368 . S
H1041 C1049 0.950 . S
H1042 C1047 0.950 . S
H1043 C1048 0.949 . S
H1044 C1050 0.950 . S
H1045 C1051 0.950 . S
H1046 C1052 0.949 . S
C1047 H1042 0.950 . S
C1047 C1049 1.327 . S
C1047 C1053 1.429 . S
C1048 C1040 1.574 1_655 S
C1048 H1043 0.949 . S
C1048 C1054 1.368 . S
C1049 C1033 1.349 . S
C1049 H1041 0.950 . S
C1049 C1047 1.327 . S
C1050 C1038 1.349 . S
C1050 H1044 0.950 . S
C1050 C1051 1.327 . S
C1051 H1045 0.950 . S
C1051 C1050 1.327 . S
C1051 C1055 1.429 . S
C1052 C1035 1.574 1_455 S
C1052 H1046 0.949 . S
C1052 C1056 1.368 . S
C1053 C1034 1.429 . S
C1053 C1047 1.429 . S
C1053 C1054 1.523 . S
C1054 C1035 1.368 . S
C1054 C1048 1.368 . S
C1054 C1053 1.523 . S
C1055 C1039 1.429 . S
C1055 C1051 1.429 . S
C1055 C1056 1.523 . S
C1056 C1040 1.368 . S
C1056 C1052 1.368 . S
C1056 C1055 1.523 . S
H1057 C1032 0.950 . S
H1058 C1034 0.950 . S
H1059 C1035 0.949 . S
H1060 C1037 0.950 . S
H1061 C1039 0.950 . S
C1062 C1063 1.349 . S
C1062 C1064 1.327 . S
C1062 H1087 0.950 . S
C1063 C1062 1.349 . S
C1063 C1079 1.349 . S
C1064 C1062 1.327 . S
C1064 C1083 1.429 . S
C1064 H1088 0.950 . S
C1065 C1082 1.574 1_655 S
C1065 C1084 1.368 . S
C1065 H1089 0.949 . S
H1066 C1070 0.949 . S
C1067 C1068 1.349 . S
C1067 C1069 1.327 . S
C1067 H1090 0.950 . S
C1068 C1067 1.349 . S
C1068 C1080 1.349 . S
C1069 C1067 1.327 . S
C1069 C1085 1.429 . S
C1069 H1091 0.950 . S
C1070 H1066 0.949 . S
C1070 C1078 1.574 1_455 S
C1070 C1086 1.368 . S
H1071 C1079 0.950 . S
H1072 C1077 0.950 . S
H1073 C1078 0.949 . S
H1074 C1080 0.950 . S
H1075 C1081 0.950 . S
H1076 C1082 0.949 . S
C1077 H1072 0.950 . S
C1077 C1079 1.327 . S
C1077 C1083 1.429 . S
C1078 C1070 1.574 1_655 S
C1078 H1073 0.949 . S
C1078 C1084 1.368 . S
C1079 C1063 1.349 . S
C1079 H1071 0.950 . S
C1079 C1077 1.327 . S
C1080 C1068 1.349 . S
C1080 H1074 0.950 . S
C1080 C1081 1.327 . S
C1081 H1075 0.950 . S
C1081 C1080 1.327 . S
C1081 C1085 1.429 . S
C1082 C1065 1.574 1_455 S
C1082 H1076 0.949 . S
C1082 C1086 1.368 . S
C1083 C1064 1.429 . S
C1083 C1077 1.429 . S
C1083 C1084 1.523 . S
C1084 C1065 1.368 . S
C1084 C1078 1.368 . S
C1084 C1083 1.523 . S
C1085 C1069 1.429 . S
C1085 C1081 1.429 . S
C1085 C1086 1.523 . S
C1086 C1070 1.368 . S
C1086 C1082 1.368 . S
C1086 C1085 1.523 . S
H1087 C1062 0.950 . S
H1088 C1064 0.950 . S
H1089 C1065 0.949 . S
H1090 C1067 0.950 . S
H1091 C1069 0.950 . S
C1092 C1093 1.349 . S
C1092 C1094 1.327 . S
C1092 H1117 0.950 . S
C1093 C1092 1.349 . S
C1093 C1109 1.349 . S
C1094 C1092 1.327 . S
C1094 C1113 1.429 . S
C1094 H1118 0.950 . S
C1095 C1112 1.574 1_545 S
C1095 C1114 1.368 . S
C1095 H1119 0.949 . S
H1096 C1100 0.949 . S
C1097 C1098 1.349 . S
C1097 C1099 1.327 . S
C1097 H1120 0.950 . S
C1098 C1097 1.349 . S
C1098 C1110 1.349 . S
C1099 C1097 1.327 . S
C1099 C1115 1.429 . S
C1099 H1121 0.950 . S
C1100 H1096 0.949 . S
C1100 C1108 1.574 1_565 S
C1100 C1116 1.368 . S
H1101 C1109 0.950 . S
H1102 C1107 0.950 . S
H1103 C1108 0.949 . S
H1104 C1110 0.950 . S
H1105 C1111 0.950 . S
H1106 C1112 0.949 . S
C1107 H1102 0.950 . S
C1107 C1109 1.327 . S
C1107 C1113 1.429 . S
C1108 C1100 1.574 1_545 S
C1108 H1103 0.949 . S
C1108 C1114 1.368 . S
C1109 C1093 1.349 . S
C1109 H1101 0.950 . S
C1109 C1107 1.327 . S
C1110 C1098 1.349 . S
C1110 H1104 0.950 . S
C1110 C1111 1.327 . S
C1111 H1105 0.950 . S
C1111 C1110 1.327 . S
C1111 C1115 1.429 . S
C1112 C1095 1.574 1_565 S
C1112 H1106 0.949 . S
C1112 C1116 1.368 . S
C1113 C1094 1.429 . S
C1113 C1107 1.429 . S
C1113 C1114 1.523 . S
C1114 C1095 1.368 . S
C1114 C1108 1.368 . S
C1114 C1113 1.523 . S
C1115 C1099 1.429 . S
C1115 C1111 1.429 . S
C1115 C1116 1.523 . S
C1116 C1100 1.368 . S
C1116 C1112 1.368 . S
C1116 C1115 1.523 . S
H1117 C1092 0.950 . S
H1118 C1094 0.950 . S
H1119 C1095 0.949 . S
H1120 C1097 0.950 . S
H1121 C1099 0.950 . S
C1122 C1123 1.349 . S
C1122 C1124 1.327 . S
C1122 H1147 0.950 . S
C1123 C1122 1.349 . S
C1123 C1139 1.349 . S
C1124 C1122 1.327 . S
C1124 C1143 1.429 . S
C1124 H1148 0.950 . S
C1125 C1142 1.574 . S
C1125 C1144 1.368 . S
C1125 H1149 0.949 . S
H1126 C1130 0.949 . S
C1127 C1128 1.349 . S
C1127 C1129 1.327 . S
C1127 H1150 0.950 . S
C1128 C1127 1.349 . S
C1128 C1140 1.349 . S
C1129 C1127 1.327 . S
C1129 C1145 1.429 . S
C1129 H1151 0.950 . S
C1130 H1126 0.949 . S
C1130 C1138 1.574 . S
C1130 C1146 1.368 . S
H1131 C1139 0.950 . S
H1132 C1137 0.950 . S
H1133 C1138 0.949 . S
H1134 C1140 0.950 . S
H1135 C1141 0.950 . S
H1136 C1142 0.949 . S
C1137 H1132 0.950 . S
C1137 C1139 1.327 . S
C1137 C1143 1.429 . S
C1138 C1130 1.574 . S
C1138 H1133 0.949 . S
C1138 C1144 1.368 . S
C1139 C1123 1.349 . S
C1139 H1131 0.950 . S
C1139 C1137 1.327 . S
C1140 C1128 1.349 . S
C1140 H1134 0.950 . S
C1140 C1141 1.327 . S
C1141 H1135 0.950 . S
C1141 C1140 1.327 . S
C1141 C1145 1.429 . S
C1142 C1125 1.574 . S
C1142 H1136 0.949 . S
C1142 C1146 1.368 . S
C1143 C1124 1.429 . S
C1143 C1137 1.429 . S
C1143 C1144 1.523 . S
C1144 C1125 1.368 . S
C1144 C1138 1.368 . S
C1144 C1143 1.523 . S
C1145 C1129 1.429 . S
C1145 C1141 1.429 . S
C1145 C1146 1.523 . S
C1146 C1130 1.368 . S
C1146 C1142 1.368 . S
C1146 C1145 1.523 . S
H1147 C1122 0.950 . S
H1148 C1124 0.950 . S
H1149 C1125 0.949 . S
H1150 C1127 0.950 . S
H1151 C1129 0.950 . S
C1152 C1153 1.349 . S
C1152 C1154 1.327 . S
C1152 H1177 0.950 . S
C1153 C1152 1.349 . S
C1153 C1169 1.349 . S
C1154 C1152 1.327 . S
C1154 C1173 1.429 . S
C1154 H1178 0.950 . S
C1155 C1172 1.574 . S
C1155 C1174 1.368 . S
C1155 H1179 0.949 . S
H1156 C1160 0.949 . S
C1157 C1158 1.349 . S
C1157 C1159 1.327 . S
C1157 H1180 0.950 . S
C1158 C1157 1.349 . S
C1158 C1170 1.349 . S
C1159 C1157 1.327 . S
C1159 C1175 1.429 . S
C1159 H1181 0.950 . S
C1160 H1156 0.949 . S
C1160 C1168 1.574 . S
C1160 C1176 1.368 . S
H1161 C1169 0.950 . S
H1162 C1167 0.950 . S
H1163 C1168 0.949 . S
H1164 C1170 0.950 . S
H1165 C1171 0.950 . S
H1166 C1172 0.949 . S
C1167 H1162 0.950 . S
C1167 C1169 1.327 . S
C1167 C1173 1.429 . S
C1168 C1160 1.574 . S
C1168 H1163 0.949 . S
C1168 C1174 1.368 . S
C1169 C1153 1.349 . S
C1169 H1161 0.950 . S
C1169 C1167 1.327 . S
C1170 C1158 1.349 . S
C1170 H1164 0.950 . S
C1170 C1171 1.327 . S
C1171 H1165 0.950 . S
C1171 C1170 1.327 . S
C1171 C1175 1.429 . S
C1172 C1155 1.574 . S
C1172 H1166 0.949 . S
C1172 C1176 1.368 . S
C1173 C1154 1.429 . S
C1173 C1167 1.429 . S
C1173 C1174 1.523 . S
C1174 C1155 1.368 . S
C1174 C1168 1.368 . S
C1174 C1173 1.523 . S
C1175 C1159 1.429 . S
C1175 C1171 1.429 . S
C1175 C1176 1.523 . S
C1176 C1160 1.368 . S
C1176 C1172 1.368 . S
C1176 C1175 1.523 . S
H1177 C1152 0.950 . S
H1178 C1154 0.950 . S
H1179 C1155 0.949 . S
H1180 C1157 0.950 . S
H1181 C1159 0.950 . S
C1182 C1183 1.349 . S
C1182 C1184 1.327 . S
C1182 H1207 0.950 . S
C1183 C1182 1.349 . S
C1183 C1199 1.349 . S
C1184 C1182 1.327 . S
C1184 C1203 1.429 . S
C1184 H1208 0.950 . S
C1185 C1202 1.574 . S
C1185 C1204 1.368 . S
C1185 H1209 0.949 . S
H1186 C1190 0.949 . S
C1187 C1188 1.349 . S
C1187 C1189 1.327 . S
C1187 H1210 0.950 . S
C1188 C1187 1.349 . S
C1188 C1200 1.349 . S
C1189 C1187 1.327 . S
C1189 C1205 1.429 . S
C1189 H1211 0.950 . S
C1190 H1186 0.949 . S
C1190 C1198 1.574 . S
C1190 C1206 1.368 . S
H1191 C1199 0.950 . S
H1192 C1197 0.950 . S
H1193 C1198 0.949 . S
H1194 C1200 0.950 . S
H1195 C1201 0.950 . S
H1196 C1202 0.949 . S
C1197 H1192 0.950 . S
C1197 C1199 1.327 . S
C1197 C1203 1.429 . S
C1198 C1190 1.574 . S
C1198 H1193 0.949 . S
C1198 C1204 1.368 . S
C1199 C1183 1.349 . S
C1199 H1191 0.950 . S
C1199 C1197 1.327 . S
C1200 C1188 1.349 . S
C1200 H1194 0.950 . S
C1200 C1201 1.327 . S
C1201 H1195 0.950 . S
C1201 C1200 1.327 . S
C1201 C1205 1.429 . S
C1202 C1185 1.574 . S
C1202 H1196 0.949 . S
C1202 C1206 1.368 . S
C1203 C1184 1.429 . S
C1203 C1197 1.429 . S
C1203 C1204 1.523 . S
C1204 C1185 1.368 . S
C1204 C1198 1.368 . S
C1204 C1203 1.523 . S
C1205 C1189 1.429 . S
C1205 C1201 1.429 . S
C1205 C1206 1.523 . S
C1206 C1190 1.368 . S
C1206 C1202 1.368 . S
C1206 C1205 1.523 . S
H1207 C1182 0.950 . S
H1208 C1184 0.950 . S
H1209 C1185 0.949 . S
H1210 C1187 0.950 . S
H1211 C1189 0.950 . S
C1212 C1213 1.349 . S
C1212 C1214 1.327 . S
C1212 H1237 0.950 . S
C1213 C1212 1.349 . S
C1213 C1229 1.349 . S
C1214 C1212 1.327 . S
C1214 C1233 1.429 . S
C1214 H1238 0.950 . S
C1215 C1232 1.574 . S
C1215 C1234 1.368 . S
C1215 H1239 0.949 . S
H1216 C1220 0.949 . S
C1217 C1218 1.349 . S
C1217 C1219 1.327 . S
C1217 H1240 0.950 . S
C1218 C1217 1.349 . S
C1218 C1230 1.349 . S
C1219 C1217 1.327 . S
C1219 C1235 1.429 . S
C1219 H1241 0.950 . S
C1220 H1216 0.949 . S
C1220 C1228 1.574 . S
C1220 C1236 1.368 . S
H1221 C1229 0.950 . S
H1222 C1227 0.950 . S
H1223 C1228 0.949 . S
H1224 C1230 0.950 . S
H1225 C1231 0.950 . S
H1226 C1232 0.949 . S
C1227 H1222 0.950 . S
C1227 C1229 1.327 . S
C1227 C1233 1.429 . S
C1228 C1220 1.574 . S
C1228 H1223 0.949 . S
C1228 C1234 1.368 . S
C1229 C1213 1.349 . S
C1229 H1221 0.950 . S
C1229 C1227 1.327 . S
C1230 C1218 1.349 . S
C1230 H1224 0.950 . S
C1230 C1231 1.327 . S
C1231 H1225 0.950 . S
C1231 C1230 1.327 . S
C1231 C1235 1.429 . S
C1232 C1215 1.574 . S
C1232 H1226 0.949 . S
C1232 C1236 1.368 . S
C1233 C1214 1.429 . S
C1233 C1227 1.429 . S
C1233 C1234 1.523 . S
C1234 C1215 1.368 . S
C1234 C1228 1.368 . S
C1234 C1233 1.523 . S
C1235 C1219 1.429 . S
C1235 C1231 1.429 . S
C1235 C1236 1.523 . S
C1236 C1220 1.368 . S
C1236 C1232 1.368 . S
C1236 C1235 1.523 . S
H1237 C1212 0.950 . S
H1238 C1214 0.950 . S
H1239 C1215 0.949 . S
H1240 C1217 0.950 . S
H1241 C1219 0.950 . S
C1242 C1243 1.349 . S
C1242 C1244 1.327 . S
C1242 H1267 0.950 . S
C1243 C1242 1.349 . S
C1243 C1259 1.349 . S
C1244 C1242 1.327 . S
C1244 C1263 1.429 . S
C1244 H1268 0.950 . S
C1245 C1262 1.574 . S
C1245 C1264 1.368 . S
C1245 H1269 0.949 . S
H1246 C1250 0.949 . S
C1247 C1248 1.349 . S
C1247 C1249 1.327 . S
C1247 H1270 0.950 . S
C1248 C1247 1.349 . S
C1248 C1260 1.349 . S
C1249 C1247 1.327 . S
C1249 C1265 1.429 . S
C1249 H1271 0.950 . S
C1250 H1246 0.949 . S
C1250 C1258 1.574 . S
C1250 C1266 1.368 . S
H1251 C1259 0.950 . S
H1252 C1257 0.950 . S
H1253 C1258 0.949 . S
H1254 C1260 0.950 . S
H1255 C1261 0.950 . S
H1256 C1262 0.949 . S
C1257 H1252 0.950 . S
C1257 C1259 1.327 . S
C1257 C1263 1.429 . S
C1258 C1250 1.574 . S
C1258 H1253 0.949 . S
C1258 C1264 1.368 . S
C1259 C1243 1.349 . S
C1259 H1251 0.950 . S
C1259 C1257 1.327 . S
C1260 C1248 1.349 . S
C1260 H1254 0.950 . S
C1260 C1261 1.327 . S
C1261 H1255 0.950 . S
C1261 C1260 1.327 . S
C1261 C1265 1.429 . S
C1262 C1245 1.574 . S
C1262 H1256 0.949 . S
C1262 C1266 1.368 . S
C1263 C1244 1.429 . S
C1263 C1257 1.429 . S
C1263 C1264 1.523 . S
C1264 C1245 1.368 . S
C1264 C1258 1.368 . S
C1264 C1263 1.523 . S
C1265 C1249 1.429 . S
C1265 C1261 1.429 . S
C1265 C1266 1.523 . S
C1266 C1250 1.368 . S
C1266 C1262 1.368 . S
C1266 C1265 1.523 . S
H1267 C1242 0.950 . S
H1268 C1244 0.950 . S
H1269 C1245 0.949 . S
H1270 C1247 0.950 . S
H1271 C1249 0.950 . S
C1272 C1273 1.349 . S
C1272 C1274 1.327 . S
C1272 H1297 0.950 . S
C1273 C1272 1.349 . S
C1273 C1289 1.349 . S
C1274 C1272 1.327 . S
C1274 C1293 1.429 . S
C1274 H1298 0.950 . S
C1275 C1292 1.574 . S
C1275 C1294 1.368 . S
C1275 H1299 0.949 . S
H1276 C1280 0.949 . S
C1277 C1278 1.349 . S
C1277 C1279 1.327 . S
C1277 H1300 0.950 . S
C1278 C1277 1.349 . S
C1278 C1290 1.349 . S
C1279 C1277 1.327 . S
C1279 C1295 1.429 . S
C1279 H1301 0.950 . S
C1280 H1276 0.949 . S
C1280 C1288 1.574 . S
C1280 C1296 1.368 . S
H1281 C1289 0.950 . S
H1282 C1287 0.950 . S
H1283 C1288 0.949 . S
H1284 C1290 0.950 . S
H1285 C1291 0.950 . S
H1286 C1292 0.949 . S
C1287 H1282 0.950 . S
C1287 C1289 1.327 . S
C1287 C1293 1.429 . S
C1288 C1280 1.574 . S
C1288 H1283 0.949 . S
C1288 C1294 1.368 . S
C1289 C1273 1.349 . S
C1289 H1281 0.950 . S
C1289 C1287 1.327 . S
C1290 C1278 1.349 . S
C1290 H1284 0.950 . S
C1290 C1291 1.327 . S
C1291 H1285 0.950 . S
C1291 C1290 1.327 . S
C1291 C1295 1.429 . S
C1292 C1275 1.574 . S
C1292 H1286 0.949 . S
C1292 C1296 1.368 . S
C1293 C1274 1.429 . S
C1293 C1287 1.429 . S
C1293 C1294 1.523 . S
C1294 C1275 1.368 . S
C1294 C1288 1.368 . S
C1294 C1293 1.523 . S
C1295 C1279 1.429 . S
C1295 C1291 1.429 . S
C1295 C1296 1.523 . S
C1296 C1280 1.368 . S
C1296 C1292 1.368 . S
C1296 C1295 1.523 . S
H1297 C1272 0.950 . S
H1298 C1274 0.950 . S
H1299 C1275 0.949 . S
H1300 C1277 0.950 . S
H1301 C1279 0.950 . S
C1302 C1303 1.349 . S
C1302 C1304 1.327 . S
C1302 H1327 0.950 . S
C1303 C1302 1.349 . S
C1303 C1319 1.349 . S
C1304 C1302 1.327 . S
C1304 C1323 1.429 . S
C1304 H1328 0.950 . S
C1305 C1322 1.574 . S
C1305 C1324 1.368 . S
C1305 H1329 0.949 . S
H1306 C1310 0.949 . S
C1307 C1308 1.349 . S
C1307 C1309 1.327 . S
C1307 H1330 0.950 . S
C1308 C1307 1.349 . S
C1308 C1320 1.349 . S
C1309 C1307 1.327 . S
C1309 C1325 1.429 . S
C1309 H1331 0.950 . S
C1310 H1306 0.949 . S
C1310 C1318 1.574 . S
C1310 C1326 1.368 . S
H1311 C1319 0.950 . S
H1312 C1317 0.950 . S
H1313 C1318 0.949 . S
H1314 C1320 0.950 . S
H1315 C1321 0.950 . S
H1316 C1322 0.949 . S
C1317 H1312 0.950 . S
C1317 C1319 1.327 . S
C1317 C1323 1.429 . S
C1318 C1310 1.574 . S
C1318 H1313 0.949 . S
C1318 C1324 1.368 . S
C1319 C1303 1.349 . S
C1319 H1311 0.950 . S
C1319 C1317 1.327 . S
C1320 C1308 1.349 . S
C1320 H1314 0.950 . S
C1320 C1321 1.327 . S
C1321 H1315 0.950 . S
C1321 C1320 1.327 . S
C1321 C1325 1.429 . S
C1322 C1305 1.574 . S
C1322 H1316 0.949 . S
C1322 C1326 1.368 . S
C1323 C1304 1.429 . S
C1323 C1317 1.429 . S
C1323 C1324 1.523 . S
C1324 C1305 1.368 . S
C1324 C1318 1.368 . S
C1324 C1323 1.523 . S
C1325 C1309 1.429 . S
C1325 C1321 1.429 . S
C1325 C1326 1.523 . S
C1326 C1310 1.368 . S
C1326 C1322 1.368 . S
C1326 C1325 1.523 . S
H1327 C1302 0.950 . S
H1328 C1304 0.950 . S
H1329 C1305 0.949 . S
H1330 C1307 0.950 . S
H1331 C1309 0.950 . S
C1332 C1333 1.349 . S
C1332 C1334 1.327 . S
C1332 H1357 0.950 . S
C1333 C1332 1.349 . S
C1333 C1349 1.349 . S
C1334 C1332 1.327 . S
C1334 C1353 1.429 . S
C1334 H1358 0.950 . S
C1335 C1352 1.574 . S
C1335 C1354 1.368 . S
C1335 H1359 0.949 . S
H1336 C1340 0.949 . S
C1337 C1338 1.349 . S
C1337 C1339 1.327 . S
C1337 H1360 0.950 . S
C1338 C1337 1.349 . S
C1338 C1350 1.349 . S
C1339 C1337 1.327 . S
C1339 C1355 1.429 . S
C1339 H1361 0.950 . S
C1340 H1336 0.949 . S
C1340 C1348 1.574 . S
C1340 C1356 1.368 . S
H1341 C1349 0.950 . S
H1342 C1347 0.950 . S
H1343 C1348 0.949 . S
H1344 C1350 0.950 . S
H1345 C1351 0.950 . S
H1346 C1352 0.949 . S
C1347 H1342 0.950 . S
C1347 C1349 1.327 . S
C1347 C1353 1.429 . S
C1348 C1340 1.574 . S
C1348 H1343 0.949 . S
C1348 C1354 1.368 . S
C1349 C1333 1.349 . S
C1349 H1341 0.950 . S
C1349 C1347 1.327 . S
C1350 C1338 1.349 . S
C1350 H1344 0.950 . S
C1350 C1351 1.327 . S
C1351 H1345 0.950 . S
C1351 C1350 1.327 . S
C1351 C1355 1.429 . S
C1352 C1335 1.574 . S
C1352 H1346 0.949 . S
C1352 C1356 1.368 . S
C1353 C1334 1.429 . S
C1353 C1347 1.429 . S
C1353 C1354 1.523 . S
C1354 C1335 1.368 . S
C1354 C1348 1.368 . S
C1354 C1353 1.523 . S
C1355 C1339 1.429 . S
C1355 C1351 1.429 . S
C1355 C1356 1.523 . S
C1356 C1340 1.368 . S
C1356 C1352 1.368 . S
C1356 C1355 1.523 . S
H1357 C1332 0.950 . S
H1358 C1334 0.950 . S
H1359 C1335 0.949 . S
H1360 C1337 0.950 . S
H1361 C1339 0.950 . S
C1362 C1363 1.349 . S
C1362 C1364 1.327 . S
C1362 H1387 0.950 . S
C1363 C1362 1.349 . S
C1363 C1379 1.349 . S
C1364 C1362 1.327 . S
C1364 C1383 1.429 . S
C1364 H1388 0.950 . S
C1365 C1382 1.574 . S
C1365 C1384 1.368 . S
C1365 H1389 0.949 . S
H1366 C1370 0.949 . S
C1367 C1368 1.349 . S
C1367 C1369 1.327 . S
C1367 H1390 0.950 . S
C1368 C1367 1.349 . S
C1368 C1380 1.349 . S
C1369 C1367 1.327 . S
C1369 C1385 1.429 . S
C1369 H1391 0.950 . S
C1370 H1366 0.949 . S
C1370 C1378 1.574 . S
C1370 C1386 1.368 . S
H1371 C1379 0.950 . S
H1372 C1377 0.950 . S
H1373 C1378 0.949 . S
H1374 C1380 0.950 . S
H1375 C1381 0.950 . S
H1376 C1382 0.949 . S
C1377 H1372 0.950 . S
C1377 C1379 1.327 . S
C1377 C1383 1.429 . S
C1378 C1370 1.574 . S
C1378 H1373 0.949 . S
C1378 C1384 1.368 . S
C1379 C1363 1.349 . S
C1379 H1371 0.950 . S
C1379 C1377 1.327 . S
C1380 C1368 1.349 . S
C1380 H1374 0.950 . S
C1380 C1381 1.327 . S
C1381 H1375 0.950 . S
C1381 C1380 1.327 . S
C1381 C1385 1.429 . S
C1382 C1365 1.574 . S
C1382 H1376 0.949 . S
C1382 C1386 1.368 . S
C1383 C1364 1.429 . S
C1383 C1377 1.429 . S
C1383 C1384 1.523 . S
C1384 C1365 1.368 . S
C1384 C1378 1.368 . S
C1384 C1383 1.523 . S
C1385 C1369 1.429 . S
C1385 C1381 1.429 . S
C1385 C1386 1.523 . S
C1386 C1370 1.368 . S
C1386 C1382 1.368 . S
C1386 C1385 1.523 . S
H1387 C1362 0.950 . S
H1388 C1364 0.950 . S
H1389 C1365 0.949 . S
H1390 C1367 0.950 . S
H1391 C1369 0.950 . S
C1392 C1393 1.349 . S
C1392 C1394 1.327 . S
C1392 H1417 0.950 . S
C1393 C1392 1.349 . S
C1393 C1409 1.349 . S
C1394 C1392 1.327 . S
C1394 C1413 1.429 . S
C1394 H1418 0.950 . S
C1395 C1412 1.574 . S
C1395 C1414 1.368 . S
C1395 H1419 0.949 . S
H1396 C1400 0.949 . S
C1397 C1398 1.349 . S
C1397 C1399 1.327 . S
C1397 H1420 0.950 . S
C1398 C1397 1.349 . S
C1398 C1410 1.349 . S
C1399 C1397 1.327 . S
C1399 C1415 1.429 . S
C1399 H1421 0.950 . S
C1400 H1396 0.949 . S
C1400 C1408 1.574 . S
C1400 C1416 1.368 . S
H1401 C1409 0.950 . S
H1402 C1407 0.950 . S
H1403 C1408 0.949 . S
H1404 C1410 0.950 . S
H1405 C1411 0.950 . S
H1406 C1412 0.949 . S
C1407 H1402 0.950 . S
C1407 C1409 1.327 . S
C1407 C1413 1.429 . S
C1408 C1400 1.574 . S
C1408 H1403 0.949 . S
C1408 C1414 1.368 . S
C1409 C1393 1.349 . S
C1409 H1401 0.950 . S
C1409 C1407 1.327 . S
C1410 C1398 1.349 . S
C1410 H1404 0.950 . S
C1410 C1411 1.327 . S
C1411 H1405 0.950 . S
C1411 C1410 1.327 . S
C1411 C1415 1.429 . S
C1412 C1395 1.574 . S
C1412 H1406 0.949 . S
C1412 C1416 1.368 . S
C1413 C1394 1.429 . S
C1413 C1407 1.429 . S
C1413 C1414 1.523 . S
C1414 C1395 1.368 . S
C1414 C1408 1.368 . S
C1414 C1413 1.523 . S
C1415 C1399 1.429 . S
C1415 C1411 1.429 . S
C1415 C1416 1.523 . S
C1416 C1400 1.368 . S
C1416 C1412 1.368 . S
C1416 C1415 1.523 . S
H1417 C1392 0.950 . S
H1418 C1394 0.950 . S
H1419 C1395 0.949 . S
H1420 C1397 0.950 . S
H1421 C1399 0.950 . S
C1422 C1423 1.349 . S
C1422 C1424 1.327 . S
C1422 H1447 0.950 . S
C1423 C1422 1.349 . S
C1423 C1439 1.349 . S
C1424 C1422 1.327 . S
C1424 C1443 1.429 . S
C1424 H1448 0.950 . S
C1425 C1442 1.574 . S
C1425 C1444 1.368 . S
C1425 H1449 0.949 . S
H1426 C1430 0.949 . S
C1427 C1428 1.349 . S
C1427 C1429 1.327 . S
C1427 H1450 0.950 . S
C1428 C1427 1.349 . S
C1428 C1440 1.349 . S
C1429 C1427 1.327 . S
C1429 C1445 1.429 . S
C1429 H1451 0.950 . S
C1430 H1426 0.949 . S
C1430 C1438 1.574 . S
C1430 C1446 1.368 . S
H1431 C1439 0.950 . S
H1432 C1437 0.950 . S
H1433 C1438 0.949 . S
H1434 C1440 0.950 . S
H1435 C1441 0.950 . S
H1436 C1442 0.949 . S
C1437 H1432 0.950 . S
C1437 C1439 1.327 . S
C1437 C1443 1.429 . S
C1438 C1430 1.574 . S
C1438 H1433 0.949 . S
C1438 C1444 1.368 . S
C1439 C1423 1.349 . S
C1439 H1431 0.950 . S
C1439 C1437 1.327 . S
C1440 C1428 1.349 . S
C1440 H1434 0.950 . S
C1440 C1441 1.327 . S
C1441 H1435 0.950 . S
C1441 C1440 1.327 . S
C1441 C1445 1.429 . S
C1442 C1425 1.574 . S
C1442 H1436 0.949 . S
C1442 C1446 1.368 . S
C1443 C1424 1.429 . S
C1443 C1437 1.429 . S
C1443 C1444 1.523 . S
C1444 C1425 1.368 . S
C1444 C1438 1.368 . S
C1444 C1443 1.523 . S
C1445 C1429 1.429 . S
C1445 C1441 1.429 . S
C1445 C1446 1.523 . S
C1446 C1430 1.368 . S
C1446 C1442 1.368 . S
C1446 C1445 1.523 . S
H1447 C1422 0.950 . S
H1448 C1424 0.950 . S
H1449 C1425 0.949 . S
H1450 C1427 0.950 . S
H1451 C1429 0.950 . S
C1452 C1453 1.349 . S
C1452 C1454 1.327 . S
C1452 H1477 0.950 . S
C1453 C1452 1.349 . S
C1453 C1469 1.349 . S
C1454 C1452 1.327 . S
C1454 C1473 1.429 . S
C1454 H1478 0.950 . S
C1455 C1472 1.574 . S
C1455 C1474 1.368 . S
C1455 H1479 0.949 . S
H1456 C1460 0.949 . S
C1457 C1458 1.349 . S
C1457 C1459 1.327 . S
C1457 H1480 0.950 . S
C1458 C1457 1.349 . S
C1458 C1470 1.349 . S
C1459 C1457 1.327 . S
C1459 C1475 1.429 . S
C1459 H1481 0.950 . S
C1460 H1456 0.949 . S
C1460 C1468 1.574 . S
C1460 C1476 1.368 . S
H1461 C1469 0.950 . S
H1462 C1467 0.950 . S
H1463 C1468 0.949 . S
H1464 C1470 0.950 . S
H1465 C1471 0.950 . S
H1466 C1472 0.949 . S
C1467 H1462 0.950 . S
C1467 C1469 1.327 . S
C1467 C1473 1.429 . S
C1468 C1460 1.574 . S
C1468 H1463 0.949 . S
C1468 C1474 1.368 . S
C1469 C1453 1.349 . S
C1469 H1461 0.950 . S
C1469 C1467 1.327 . S
C1470 C1458 1.349 . S
C1470 H1464 0.950 . S
C1470 C1471 1.327 . S
C1471 H1465 0.950 . S
C1471 C1470 1.327 . S
C1471 C1475 1.429 . S
C1472 C1455 1.574 . S
C1472 H1466 0.949 . S
C1472 C1476 1.368 . S
C1473 C1454 1.429 . S
C1473 C1467 1.429 . S
C1473 C1474 1.523 . S
C1474 C1455 1.368 . S
C1474 C1468 1.368 . S
C1474 C1473 1.523 . S
C1475 C1459 1.429 . S
C1475 C1471 1.429 . S
C1475 C1476 1.523 . S
C1476 C1460 1.368 . S
C1476 C1472 1.368 . S
C1476 C1475 1.523 . S
H1477 C1452 0.950 . S
H1478 C1454 0.950 . S
H1479 C1455 0.949 . S
H1480 C1457 0.950 . S
H1481 C1459 0.950 . S
C1482 C1483 1.349 . S
C1482 C1484 1.327 . S
C1482 H1507 0.950 . S
C1483 C1482 1.349 . S
C1483 C1499 1.349 . S
C1484 C1482 1.327 . S
C1484 C1503 1.429 . S
C1484 H1508 0.950 . S
C1485 C1502 1.574 . S
C1485 C1504 1.368 . S
C1485 H1509 0.949 . S
H1486 C1490 0.949 . S
C1487 C1488 1.349 . S
C1487 C1489 1.327 . S
C1487 H1510 0.950 . S
C1488 C1487 1.349 . S
C1488 C1500 1.349 . S
C1489 C1487 1.327 . S
C1489 C1505 1.429 . S
C1489 H1511 0.950 . S
C1490 H1486 0.949 . S
C1490 C1498 1.574 . S
C1490 C1506 1.368 . S
H1491 C1499 0.950 . S
H1492 C1497 0.950 . S
H1493 C1498 0.949 . S
H1494 C1500 0.950 . S
H1495 C1501 0.950 . S
H1496 C1502 0.949 . S
C1497 H1492 0.950 . S
C1497 C1499 1.327 . S
C1497 C1503 1.429 . S
C1498 C1490 1.574 . S
C1498 H1493 0.949 . S
C1498 C1504 1.368 . S
C1499 C1483 1.349 . S
C1499 H1491 0.950 . S
C1499 C1497 1.327 . S
C1500 C1488 1.349 . S
C1500 H1494 0.950 . S
C1500 C1501 1.327 . S
C1501 H1495 0.950 . S
C1501 C1500 1.327 . S
C1501 C1505 1.429 . S
C1502 C1485 1.574 . S
C1502 H1496 0.949 . S
C1502 C1506 1.368 . S
C1503 C1484 1.429 . S
C1503 C1497 1.429 . S
C1503 C1504 1.523 . S
C1504 C1485 1.368 . S
C1504 C1498 1.368 . S
C1504 C1503 1.523 . S
C1505 C1489 1.429 . S
C1505 C1501 1.429 . S
C1505 C1506 1.523 . S
C1506 C1490 1.368 . S
C1506 C1502 1.368 . S
C1506 C1505 1.523 . S
H1507 C1482 0.950 . S
H1508 C1484 0.950 . S
H1509 C1485 0.949 . S
H1510 C1487 0.950 . S
H1511 C1489 0.950 . S
C1512 C1513 1.349 . S
C1512 C1514 1.327 . S
C1512 H1537 0.950 . S
C1513 C1512 1.349 . S
C1513 C1529 1.349 . S
C1514 C1512 1.327 . S
C1514 C1533 1.429 . S
C1514 H1538 0.950 . S
C1515 C1532 1.574 1_545 S
C1515 C1534 1.368 . S
C1515 H1539 0.949 . S
H1516 C1520 0.949 . S
C1517 C1518 1.349 . S
C1517 C1519 1.327 . S
C1517 H1540 0.950 . S
C1518 C1517 1.349 . S
C1518 C1530 1.349 . S
C1519 C1517 1.327 . S
C1519 C1535 1.429 . S
C1519 H1541 0.950 . S
C1520 H1516 0.949 . S
C1520 C1528 1.574 1_565 S
C1520 C1536 1.368 . S
H1521 C1529 0.950 . S
H1522 C1527 0.950 . S
H1523 C1528 0.949 . S
H1524 C1530 0.950 . S
H1525 C1531 0.950 . S
H1526 C1532 0.949 . S
C1527 H1522 0.950 . S
C1527 C1529 1.327 . S
C1527 C1533 1.429 . S
C1528 C1520 1.574 1_545 S
C1528 H1523 0.949 . S
C1528 C1534 1.368 . S
C1529 C1513 1.349 . S
C1529 H1521 0.950 . S
C1529 C1527 1.327 . S
C1530 C1518 1.349 . S
C1530 H1524 0.950 . S
C1530 C1531 1.327 . S
C1531 H1525 0.950 . S
C1531 C1530 1.327 . S
C1531 C1535 1.429 . S
C1532 C1515 1.574 1_565 S
C1532 H1526 0.949 . S
C1532 C1536 1.368 . S
C1533 C1514 1.429 . S
C1533 C1527 1.429 . S
C1533 C1534 1.523 . S
C1534 C1515 1.368 . S
C1534 C1528 1.368 . S
C1534 C1533 1.523 . S
C1535 C1519 1.429 . S
C1535 C1531 1.429 . S
C1535 C1536 1.523 . S
C1536 C1520 1.368 . S
C1536 C1532 1.368 . S
C1536 C1535 1.523 . S
H1537 C1512 0.950 . S
H1538 C1514 0.950 . S
H1539 C1515 0.949 . S
H1540 C1517 0.950 . S
H1541 C1519 0.950 . S
C1542 C1543 1.349 . S
C1542 C1544 1.327 . S
C1542 H1567 0.950 . S
C1543 C1542 1.349 . S
C1543 C1559 1.349 . S
C1544 C1542 1.327 . S
C1544 C1563 1.429 . S
C1544 H1568 0.950 . S
C1545 C1562 1.574 . S
C1545 C1564 1.368 . S
C1545 H1569 0.949 . S
H1546 C1550 0.949 . S
C1547 C1548 1.349 . S
C1547 C1549 1.327 . S
C1547 H1570 0.950 . S
C1548 C1547 1.349 . S
C1548 C1560 1.349 . S
C1549 C1547 1.327 . S
C1549 C1565 1.429 . S
C1549 H1571 0.950 . S
C1550 H1546 0.949 . S
C1550 C1558 1.574 . S
C1550 C1566 1.368 . S
H1551 C1559 0.950 . S
H1552 C1557 0.950 . S
H1553 C1558 0.949 . S
H1554 C1560 0.950 . S
H1555 C1561 0.950 . S
H1556 C1562 0.949 . S
C1557 H1552 0.950 . S
C1557 C1559 1.327 . S
C1557 C1563 1.429 . S
C1558 C1550 1.574 . S
C1558 H1553 0.949 . S
C1558 C1564 1.368 . S
C1559 C1543 1.349 . S
C1559 H1551 0.950 . S
C1559 C1557 1.327 . S
C1560 C1548 1.349 . S
C1560 H1554 0.950 . S
C1560 C1561 1.327 . S
C1561 H1555 0.950 . S
C1561 C1560 1.327 . S
C1561 C1565 1.429 . S
C1562 C1545 1.574 . S
C1562 H1556 0.949 . S
C1562 C1566 1.368 . S
C1563 C1544 1.429 . S
C1563 C1557 1.429 . S
C1563 C1564 1.523 . S
C1564 C1545 1.368 . S
C1564 C1558 1.368 . S
C1564 C1563 1.523 . S
C1565 C1549 1.429 . S
C1565 C1561 1.429 . S
C1565 C1566 1.523 . S
C1566 C1550 1.368 . S
C1566 C1562 1.368 . S
C1566 C1565 1.523 . S
H1567 C1542 0.950 . S
H1568 C1544 0.950 . S
H1569 C1545 0.949 . S
H1570 C1547 0.950 . S
H1571 C1549 0.950 . S
C1572 C1573 1.349 . S
C1572 C1574 1.327 . S
C1572 H1597 0.950 . S
C1573 C1572 1.349 . S
C1573 C1589 1.349 . S
C1574 C1572 1.327 . S
C1574 C1593 1.429 . S
C1574 H1598 0.950 . S
C1575 C1592 1.579 . S
C1575 C1594 1.364 1_655 S
C1575 H1599 0.949 1_655 S
H1576 C1580 0.949 1_655 S
C1577 C1578 1.349 . S
C1577 C1579 1.327 . S
C1577 H1600 0.950 . S
C1578 C1577 1.349 . S
C1578 C1590 1.349 . S
C1579 C1577 1.327 . S
C1579 C1595 1.429 . S
C1579 H1601 0.950 . S
C1580 H1576 0.949 1_455 S
C1580 C1588 1.580 . S
C1580 C1596 1.362 1_455 S
H1581 C1589 0.950 . S
H1582 C1587 0.950 . S
H1583 C1588 0.949 . S
H1584 C1590 0.950 . S
H1585 C1591 0.950 . S
H1586 C1592 0.949 . S
C1587 H1582 0.950 . S
C1587 C1589 1.327 . S
C1587 C1593 1.429 . S
C1588 C1580 1.580 . S
C1588 H1583 0.949 . S
C1588 C1594 1.368 . S
C1589 C1573 1.349 . S
C1589 H1581 0.950 . S
C1589 C1587 1.327 . S
C1590 C1578 1.349 . S
C1590 H1584 0.950 . S
C1590 C1591 1.327 . S
C1591 H1585 0.950 . S
C1591 C1590 1.327 . S
C1591 C1595 1.429 . S
C1592 C1575 1.579 . S
C1592 H1586 0.949 . S
C1592 C1596 1.368 . S
C1593 C1574 1.429 . S
C1593 C1587 1.429 . S
C1593 C1594 1.523 . S
C1594 C1575 1.364 1_455 S
C1594 C1588 1.368 . S
C1594 C1593 1.523 . S
C1595 C1579 1.429 . S
C1595 C1591 1.429 . S
C1595 C1596 1.523 . S
C1596 C1580 1.362 1_655 S
C1596 C1592 1.368 . S
C1596 C1595 1.523 . S
H1597 C1572 0.950 . S
H1598 C1574 0.950 . S
H1599 C1575 0.949 1_455 S
H1600 C1577 0.950 . S
H1601 C1579 0.950 . S
C1602 C1603 1.349 . S
C1602 C1604 1.327 . S
C1602 H1627 0.950 . S
C1603 C1602 1.349 . S
C1603 C1619 1.349 . S
C1604 C1602 1.327 . S
C1604 C1623 1.429 . S
C1604 H1628 0.950 . S
C1605 C1622 1.580 . S
C1605 C1624 1.368 . S
C1605 H1629 0.949 . S
H1606 C1610 0.949 . S
C1607 C1608 1.349 . S
C1607 C1609 1.327 . S
C1607 H1630 0.950 . S
C1608 C1607 1.349 . S
C1608 C1620 1.349 . S
C1609 C1607 1.327 . S
C1609 C1625 1.429 . S
C1609 H1631 0.950 . S
C1610 H1606 0.949 . S
C1610 C1618 1.579 . S
C1610 C1626 1.368 . S
H1611 C1619 0.950 . S
H1612 C1617 0.950 . S
H1613 C1618 0.949 1_565 S
H1614 C1620 0.950 . S
H1615 C1621 0.950 . S
H1616 C1622 0.949 1_545 S
C1617 H1612 0.950 . S
C1617 C1619 1.327 . S
C1617 C1623 1.429 . S
C1618 C1610 1.579 . S
C1618 H1613 0.949 1_545 S
C1618 C1624 1.363 1_545 S
C1619 C1603 1.349 . S
C1619 H1611 0.950 . S
C1619 C1617 1.327 . S
C1620 C1608 1.349 . S
C1620 H1614 0.950 . S
C1620 C1621 1.327 . S
C1621 H1615 0.950 . S
C1621 C1620 1.327 . S
C1621 C1625 1.429 . S
C1622 C1605 1.580 . S
C1622 H1616 0.949 1_565 S
C1622 C1626 1.361 1_565 S
C1623 C1604 1.429 . S
C1623 C1617 1.429 . S
C1623 C1624 1.523 . S
C1624 C1605 1.368 . S
C1624 C1618 1.363 1_565 S
C1624 C1623 1.523 . S
C1625 C1609 1.429 . S
C1625 C1621 1.429 . S
C1625 C1626 1.523 . S
C1626 C1610 1.368 . S
C1626 C1622 1.361 1_545 S
C1626 C1625 1.523 . S
H1627 C1602 0.950 . S
H1628 C1604 0.950 . S
H1629 C1605 0.949 . S
H1630 C1607 0.950 . S
H1631 C1609 0.950 . S
C1632 C1633 1.349 . S
C1632 C1634 1.327 . S
C1632 H1657 0.950 . S
C1633 C1632 1.349 . S
C1633 C1649 1.349 . S
C1634 C1632 1.327 . S
C1634 C1653 1.429 . S
C1634 H1658 0.950 . S
C1635 C1652 1.574 . S
C1635 C1654 1.368 . S
C1635 H1659 0.949 . S
H1636 C1640 0.949 . S
C1637 C1638 1.349 . S
C1637 C1639 1.327 . S
C1637 H1660 0.950 . S
C1638 C1637 1.349 . S
C1638 C1650 1.349 . S
C1639 C1637 1.327 . S
C1639 C1655 1.429 . S
C1639 H1661 0.950 . S
C1640 H1636 0.949 . S
C1640 C1648 1.574 . S
C1640 C1656 1.368 . S
H1641 C1649 0.950 . S
H1642 C1647 0.950 . S
H1643 C1648 0.949 . S
H1644 C1650 0.950 . S
H1645 C1651 0.950 . S
H1646 C1652 0.949 . S
C1647 H1642 0.950 . S
C1647 C1649 1.327 . S
C1647 C1653 1.429 . S
C1648 C1640 1.574 . S
C1648 H1643 0.949 . S
C1648 C1654 1.368 . S
C1649 C1633 1.349 . S
C1649 H1641 0.950 . S
C1649 C1647 1.327 . S
C1650 C1638 1.349 . S
C1650 H1644 0.950 . S
C1650 C1651 1.327 . S
C1651 H1645 0.950 . S
C1651 C1650 1.327 . S
C1651 C1655 1.429 . S
C1652 C1635 1.574 . S
C1652 H1646 0.949 . S
C1652 C1656 1.368 . S
C1653 C1634 1.429 . S
C1653 C1647 1.429 . S
C1653 C1654 1.523 . S
C1654 C1635 1.368 . S
C1654 C1648 1.368 . S
C1654 C1653 1.523 . S
C1655 C1639 1.429 . S
C1655 C1651 1.429 . S
C1655 C1656 1.523 . S
C1656 C1640 1.368 . S
C1656 C1652 1.368 . S
C1656 C1655 1.523 . S
H1657 C1632 0.950 . S
H1658 C1634 0.950 . S
H1659 C1635 0.949 . S
H1660 C1637 0.950 . S
H1661 C1639 0.950 . S
C1662 C1663 1.349 . S
C1662 C1664 1.327 . S
C1662 H1687 0.950 . S
C1663 C1662 1.349 . S
C1663 C1679 1.349 . S
C1664 C1662 1.327 . S
C1664 C1683 1.429 . S
C1664 H1688 0.950 . S
C1665 C1682 1.574 1_655 S
C1665 C1684 1.368 . S
C1665 H1689 0.949 . S
H1666 C1670 0.949 . S
C1667 C1668 1.349 . S
C1667 C1669 1.327 . S
C1667 H1690 0.950 . S
C1668 C1667 1.349 . S
C1668 C1680 1.349 . S
C1669 C1667 1.327 . S
C1669 C1685 1.429 . S
C1669 H1691 0.950 . S
C1670 H1666 0.949 . S
C1670 C1678 1.574 1_455 S
C1670 C1686 1.368 . S
H1671 C1679 0.950 . S
H1672 C1677 0.950 . S
H1673 C1678 0.949 . S
H1674 C1680 0.950 . S
H1675 C1681 0.950 . S
H1676 C1682 0.949 . S
C1677 H1672 0.950 . S
C1677 C1679 1.327 . S
C1677 C1683 1.429 . S
C1678 C1670 1.574 1_655 S
C1678 H1673 0.949 . S
C1678 C1684 1.368 . S
C1679 C1663 1.349 . S
C1679 H1671 0.950 . S
C1679 C1677 1.327 . S
C1680 C1668 1.349 . S
C1680 H1674 0.950 . S
C1680 C1681 1.327 . S
C1681 H1675 0.950 . S
C1681 C1680 1.327 . S
C1681 C1685 1.429 . S
C1682 C1665 1.574 1_455 S
C1682 H1676 0.949 . S
C1682 C1686 1.368 . S
C1683 C1664 1.429 . S
C1683 C1677 1.429 . S
C1683 C1684 1.523 . S
C1684 C1665 1.368 . S
C1684 C1678 1.368 . S
C1684 C1683 1.523 . S
C1685 C1669 1.429 . S
C1685 C1681 1.429 . S
C1685 C1686 1.523 . S
C1686 C1670 1.368 . S
C1686 C1682 1.368 . S
C1686 C1685 1.523 . S
H1687 C1662 0.950 . S
H1688 C1664 0.950 . S
H1689 C1665 0.949 . S
H1690 C1667 0.950 . S
H1691 C1669 0.950 . S
C1692 C1693 1.349 . S
C1692 C1694 1.327 . S
C1692 H1717 0.950 . S
C1693 C1692 1.349 . S
C1693 C1709 1.349 . S
C1694 C1692 1.327 . S
C1694 C1713 1.429 . S
C1694 H1718 0.950 . S
C1695 C1712 1.525 1_565 S
C1695 C1714 1.368 . S
C1695 H1719 0.949 . S
H1696 C1700 0.949 . S
C1697 C1698 1.349 . S
C1697 C1699 1.327 . S
C1697 H1720 0.950 . S
C1698 C1697 1.349 . S
C1698 C1710 1.349 . S
C1699 C1697 1.327 . S
C1699 C1715 1.429 . S
C1699 H1721 0.950 . S
C1700 H1696 0.949 . S
C1700 C1708 1.524 1_545 S
C1700 C1716 1.368 . S
H1701 C1709 0.950 . S
H1702 C1707 0.950 . S
H1703 C1708 0.970 . S
H1704 C1710 0.950 . S
H1705 C1711 0.950 . S
H1706 C1712 0.969 . S
C1707 H1702 0.950 . S
C1707 C1709 1.327 . S
C1707 C1713 1.429 . S
C1708 C1700 1.524 1_565 S
C1708 H1703 0.970 . S
C1708 C1714 1.400 . S
C1709 C1693 1.349 . S
C1709 H1701 0.950 . S
C1709 C1707 1.327 . S
C1710 C1698 1.349 . S
C1710 H1704 0.950 . S
C1710 C1711 1.327 . S
C1711 H1705 0.950 . S
C1711 C1710 1.327 . S
C1711 C1715 1.429 . S
C1712 C1695 1.525 1_545 S
C1712 H1706 0.969 . S
C1712 C1716 1.399 . S
C1713 C1694 1.429 . S
C1713 C1707 1.429 . S
C1713 C1714 1.523 . S
C1714 C1695 1.368 . S
C1714 C1708 1.400 . S
C1714 C1713 1.523 . S
C1715 C1699 1.429 . S
C1715 C1711 1.429 . S
C1715 C1716 1.523 . S
C1716 C1700 1.368 . S
C1716 C1712 1.399 . S
C1716 C1715 1.523 . S
H1717 C1692 0.950 . S
H1718 C1694 0.950 . S
H1719 C1695 0.949 . S
H1720 C1697 0.950 . S
H1721 C1699 0.950 . S
C1722 C1723 1.349 . S
C1722 C1724 1.327 . S
C1722 H1747 0.950 . S
C1723 C1722 1.349 . S
C1723 C1739 1.349 . S
C1724 C1722 1.327 . S
C1724 C1743 1.429 . S
C1724 H1748 0.950 . S
C1725 C1742 1.574 . S
C1725 C1744 1.368 . S
C1725 H1749 0.949 . S
H1726 C1730 0.949 . S
C1727 C1728 1.349 . S
C1727 C1729 1.327 . S
C1727 H1750 0.950 . S
C1728 C1727 1.349 . S
C1728 C1740 1.349 . S
C1729 C1727 1.327 . S
C1729 C1745 1.429 . S
C1729 H1751 0.950 . S
C1730 H1726 0.949 . S
C1730 C1738 1.574 . S
C1730 C1746 1.368 . S
H1731 C1739 0.950 . S
H1732 C1737 0.950 . S
H1733 C1738 0.949 . S
H1734 C1740 0.950 . S
H1735 C1741 0.950 . S
H1736 C1742 0.949 . S
C1737 H1732 0.950 . S
C1737 C1739 1.327 . S
C1737 C1743 1.429 . S
C1738 C1730 1.574 . S
C1738 H1733 0.949 . S
C1738 C1744 1.368 . S
C1739 C1723 1.349 . S
C1739 H1731 0.950 . S
C1739 C1737 1.327 . S
C1740 C1728 1.349 . S
C1740 H1734 0.950 . S
C1740 C1741 1.327 . S
C1741 H1735 0.950 . S
C1741 C1740 1.327 . S
C1741 C1745 1.429 . S
C1742 C1725 1.574 . S
C1742 H1736 0.949 . S
C1742 C1746 1.368 . S
C1743 C1724 1.429 . S
C1743 C1737 1.429 . S
C1743 C1744 1.523 . S
C1744 C1725 1.368 . S
C1744 C1738 1.368 . S
C1744 C1743 1.523 . S
C1745 C1729 1.429 . S
C1745 C1741 1.429 . S
C1745 C1746 1.523 . S
C1746 C1730 1.368 . S
C1746 C1742 1.368 . S
C1746 C1745 1.523 . S
H1747 C1722 0.950 . S
H1748 C1724 0.950 . S
H1749 C1725 0.949 . S
H1750 C1727 0.950 . S
H1751 C1729 0.950 . S
C1752 C1753 1.349 . S
C1752 C1754 1.327 . S
C1752 H1777 0.950 . S
C1753 C1752 1.349 . S
C1753 C1769 1.349 . S
C1754 C1752 1.327 . S
C1754 C1773 1.429 . S
C1754 H1778 0.950 . S
C1755 C1772 1.566 1_455 S
C1755 C1774 1.374 . S
C1755 H1779 0.943 . S
H1756 C1760 0.943 . S
C1757 C1758 1.349 . S
C1757 C1759 1.327 . S
C1757 H1780 0.950 . S
C1758 C1757 1.349 . S
C1758 C1770 1.349 . S
C1759 C1757 1.327 . S
C1759 C1775 1.429 . S
C1759 H1781 0.950 . S
C1760 H1756 0.943 . S
C1760 C1768 1.563 1_655 S
C1760 C1776 1.376 . S
H1761 C1769 0.950 . S
H1762 C1767 0.950 . S
H1763 C1768 0.949 . S
H1764 C1770 0.950 . S
H1765 C1771 0.950 . S
H1766 C1772 0.949 . S
C1767 H1762 0.950 . S
C1767 C1769 1.327 . S
C1767 C1773 1.429 . S
C1768 C1760 1.563 1_455 S
C1768 H1763 0.949 . S
C1768 C1774 1.368 . S
C1769 C1753 1.349 . S
C1769 H1761 0.950 . S
C1769 C1767 1.327 . S
C1770 C1758 1.349 . S
C1770 H1764 0.950 . S
C1770 C1771 1.327 . S
C1771 H1765 0.950 . S
C1771 C1770 1.327 . S
C1771 C1775 1.429 . S
C1772 C1755 1.566 1_655 S
C1772 H1766 0.949 . S
C1772 C1776 1.368 . S
C1773 C1754 1.429 . S
C1773 C1767 1.429 . S
C1773 C1774 1.523 . S
C1774 C1755 1.374 . S
C1774 C1768 1.368 . S
C1774 C1773 1.523 . S
C1775 C1759 1.429 . S
C1775 C1771 1.429 . S
C1775 C1776 1.523 . S
C1776 C1760 1.376 . S
C1776 C1772 1.368 . S
C1776 C1775 1.523 . S
H1777 C1752 0.950 . S
H1778 C1754 0.950 . S
H1779 C1755 0.943 . S
H1780 C1757 0.950 . S
H1781 C1759 0.950 . S
C1782 C1783 1.349 . S
C1782 C1784 1.327 . S
C1782 H1807 0.950 . S
C1783 C1782 1.349 . S
C1783 C1799 1.349 . S
C1784 C1782 1.327 . S
C1784 C1803 1.429 . S
C1784 H1808 0.950 . S
C1785 C1802 1.574 1_545 S
C1785 C1804 1.368 . S
C1785 H1809 0.949 . S
H1786 C1790 0.949 . S
C1787 C1788 1.349 . S
C1787 C1789 1.327 . S
C1787 H1810 0.950 . S
C1788 C1787 1.349 . S
C1788 C1800 1.349 . S
C1789 C1787 1.327 . S
C1789 C1805 1.429 . S
C1789 H1811 0.950 . S
C1790 H1786 0.949 . S
C1790 C1798 1.574 1_565 S
C1790 C1806 1.368 . S
H1791 C1799 0.950 . S
H1792 C1797 0.950 . S
H1793 C1798 0.949 . S
H1794 C1800 0.950 . S
H1795 C1801 0.950 . S
H1796 C1802 0.949 . S
C1797 H1792 0.950 . S
C1797 C1799 1.327 . S
C1797 C1803 1.429 . S
C1798 C1790 1.574 1_545 S
C1798 H1793 0.949 . S
C1798 C1804 1.368 . S
C1799 C1783 1.349 . S
C1799 H1791 0.950 . S
C1799 C1797 1.327 . S
C1800 C1788 1.349 . S
C1800 H1794 0.950 . S
C1800 C1801 1.327 . S
C1801 H1795 0.950 . S
C1801 C1800 1.327 . S
C1801 C1805 1.429 . S
C1802 C1785 1.574 1_565 S
C1802 H1796 0.949 . S
C1802 C1806 1.368 . S
C1803 C1784 1.429 . S
C1803 C1797 1.429 . S
C1803 C1804 1.523 . S
C1804 C1785 1.368 . S
C1804 C1798 1.368 . S
C1804 C1803 1.523 . S
C1805 C1789 1.429 . S
C1805 C1801 1.429 . S
C1805 C1806 1.523 . S
C1806 C1790 1.368 . S
C1806 C1802 1.368 . S
C1806 C1805 1.523 . S
H1807 C1782 0.950 . S
H1808 C1784 0.950 . S
H1809 C1785 0.949 . S
H1810 C1787 0.950 . S
H1811 C1789 0.950 . S
C1812 C1813 1.349 . S
C1812 C1814 1.327 . S
C1812 H1837 0.950 . S
C1813 C1812 1.349 . S
C1813 C1829 1.349 . S
C1814 C1812 1.327 . S
C1814 C1833 1.429 . S
C1814 H1838 0.950 . S
C1815 C1832 1.574 . S
C1815 C1834 1.368 . S
C1815 H1839 0.949 . S
H1816 C1820 0.949 . S
C1817 C1818 1.349 . S
C1817 C1819 1.327 . S
C1817 H1840 0.950 . S
C1818 C1817 1.349 . S
C1818 C1830 1.349 . S
C1819 C1817 1.327 . S
C1819 C1835 1.429 . S
C1819 H1841 0.950 . S
C1820 H1816 0.949 . S
C1820 C1828 1.574 . S
C1820 C1836 1.368 . S
H1821 C1829 0.950 . S
H1822 C1827 0.950 . S
H1823 C1828 0.949 . S
H1824 C1830 0.950 . S
H1825 C1831 0.950 . S
H1826 C1832 0.949 . S
C1827 H1822 0.950 . S
C1827 C1829 1.327 . S
C1827 C1833 1.429 . S
C1828 C1820 1.574 . S
C1828 H1823 0.949 . S
C1828 C1834 1.368 . S
C1829 C1813 1.349 . S
C1829 H1821 0.950 . S
C1829 C1827 1.327 . S
C1830 C1818 1.349 . S
C1830 H1824 0.950 . S
C1830 C1831 1.327 . S
C1831 H1825 0.950 . S
C1831 C1830 1.327 . S
C1831 C1835 1.429 . S
C1832 C1815 1.574 . S
C1832 H1826 0.949 . S
C1832 C1836 1.368 . S
C1833 C1814 1.429 . S
C1833 C1827 1.429 . S
C1833 C1834 1.523 . S
C1834 C1815 1.368 . S
C1834 C1828 1.368 . S
C1834 C1833 1.523 . S
C1835 C1819 1.429 . S
C1835 C1831 1.429 . S
C1835 C1836 1.523 . S
C1836 C1820 1.368 . S
C1836 C1832 1.368 . S
C1836 C1835 1.523 . S
H1837 C1812 0.950 . S
H1838 C1814 0.950 . S
H1839 C1815 0.949 . S
H1840 C1817 0.950 . S
H1841 C1819 0.950 . S
C1842 C1843 1.349 . S
C1842 C1844 1.327 . S
C1842 H1867 0.950 . S
C1843 C1842 1.349 . S
C1843 C1859 1.349 . S
C1844 C1842 1.327 . S
C1844 C1863 1.429 . S
C1844 H1868 0.950 . S
C1845 C1862 1.545 1_455 S
C1845 C1864 1.368 . S
C1845 H1869 0.949 . S
H1846 C1850 0.949 . S
C1847 C1848 1.349 . S
C1847 C1849 1.327 . S
C1847 H1870 0.950 . S
C1848 C1847 1.349 . S
C1848 C1860 1.349 . S
C1849 C1847 1.327 . S
C1849 C1865 1.429 . S
C1849 H1871 0.950 . S
C1850 H1846 0.949 . S
C1850 C1858 1.542 1_655 S
C1850 C1866 1.368 . S
H1851 C1859 0.950 . S
H1852 C1857 0.950 . S
H1853 C1858 0.960 . S
H1854 C1860 0.950 . S
H1855 C1861 0.950 . S
H1856 C1862 0.959 . S
C1857 H1852 0.950 . S
C1857 C1859 1.327 . S
C1857 C1863 1.429 . S
C1858 C1850 1.542 1_455 S
C1858 H1853 0.960 . S
C1858 C1864 1.390 . S
C1859 C1843 1.349 . S
C1859 H1851 0.950 . S
C1859 C1857 1.327 . S
C1860 C1848 1.349 . S
C1860 H1854 0.950 . S
C1860 C1861 1.327 . S
C1861 H1855 0.950 . S
C1861 C1860 1.327 . S
C1861 C1865 1.429 . S
C1862 C1845 1.545 1_655 S
C1862 H1856 0.959 . S
C1862 C1866 1.388 . S
C1863 C1844 1.429 . S
C1863 C1857 1.429 . S
C1863 C1864 1.523 . S
C1864 C1845 1.368 . S
C1864 C1858 1.390 . S
C1864 C1863 1.523 . S
C1865 C1849 1.429 . S
C1865 C1861 1.429 . S
C1865 C1866 1.523 . S
C1866 C1850 1.368 . S
C1866 C1862 1.388 . S
C1866 C1865 1.523 . S
H1867 C1842 0.950 . S
H1868 C1844 0.950 . S
H1869 C1845 0.949 . S
H1870 C1847 0.950 . S
H1871 C1849 0.950 . S
C1872 C1873 1.349 . S
C1872 C1874 1.327 . S
C1872 H1897 0.950 . S
C1873 C1872 1.349 . S
C1873 C1889 1.349 . S
C1874 C1872 1.327 . S
C1874 C1893 1.429 . S
C1874 H1898 0.950 . S
C1875 C1892 1.574 . S
C1875 C1894 1.368 . S
C1875 H1899 0.949 . S
H1876 C1880 0.949 . S
C1877 C1878 1.349 . S
C1877 C1879 1.327 . S
C1877 H1900 0.950 . S
C1878 C1877 1.349 . S
C1878 C1890 1.349 . S
C1879 C1877 1.327 . S
C1879 C1895 1.429 . S
C1879 H1901 0.950 . S
C1880 H1876 0.949 . S
C1880 C1888 1.574 . S
C1880 C1896 1.368 . S
H1881 C1889 0.950 . S
H1882 C1887 0.950 . S
H1883 C1888 0.949 . S
H1884 C1890 0.950 . S
H1885 C1891 0.950 . S
H1886 C1892 0.949 . S
C1887 H1882 0.950 . S
C1887 C1889 1.327 . S
C1887 C1893 1.429 . S
C1888 C1880 1.574 . S
C1888 H1883 0.949 . S
C1888 C1894 1.368 . S
C1889 C1873 1.349 . S
C1889 H1881 0.950 . S
C1889 C1887 1.327 . S
C1890 C1878 1.349 . S
C1890 H1884 0.950 . S
C1890 C1891 1.327 . S
C1891 H1885 0.950 . S
C1891 C1890 1.327 . S
C1891 C1895 1.429 . S
C1892 C1875 1.574 . S
C1892 H1886 0.949 . S
C1892 C1896 1.368 . S
C1893 C1874 1.429 . S
C1893 C1887 1.429 . S
C1893 C1894 1.523 . S
C1894 C1875 1.368 . S
C1894 C1888 1.368 . S
C1894 C1893 1.523 . S
C1895 C1879 1.429 . S
C1895 C1891 1.429 . S
C1895 C1896 1.523 . S
C1896 C1880 1.368 . S
C1896 C1892 1.368 . S
C1896 C1895 1.523 . S
H1897 C1872 0.950 . S
H1898 C1874 0.950 . S
H1899 C1875 0.949 . S
H1900 C1877 0.950 . S
H1901 C1879 0.950 . S
C1902 C1903 1.349 . S
C1902 C1904 1.327 . S
C1902 H1927 0.950 . S
C1903 C1902 1.349 . S
C1903 C1919 1.349 . S
C1904 C1902 1.327 . S
C1904 C1923 1.429 . S
C1904 H1928 0.950 . S
C1905 C1922 1.574 . S
C1905 C1924 1.368 . S
C1905 H1929 0.949 . S
H1906 C1910 0.949 . S
C1907 C1908 1.349 . S
C1907 C1909 1.327 . S
C1907 H1930 0.950 . S
C1908 C1907 1.349 . S
C1908 C1920 1.349 . S
C1909 C1907 1.327 . S
C1909 C1925 1.429 . S
C1909 H1931 0.950 . S
C1910 H1906 0.949 . S
C1910 C1918 1.574 . S
C1910 C1926 1.368 . S
H1911 C1919 0.950 . S
H1912 C1917 0.950 . S
H1913 C1918 0.949 . S
H1914 C1920 0.950 . S
H1915 C1921 0.950 . S
H1916 C1922 0.949 . S
C1917 H1912 0.950 . S
C1917 C1919 1.327 . S
C1917 C1923 1.429 . S
C1918 C1910 1.574 . S
C1918 H1913 0.949 . S
C1918 C1924 1.368 . S
C1919 C1903 1.349 . S
C1919 H1911 0.950 . S
C1919 C1917 1.327 . S
C1920 C1908 1.349 . S
C1920 H1914 0.950 . S
C1920 C1921 1.327 . S
C1921 H1915 0.950 . S
C1921 C1920 1.327 . S
C1921 C1925 1.429 . S
C1922 C1905 1.574 . S
C1922 H1916 0.949 . S
C1922 C1926 1.368 . S
C1923 C1904 1.429 . S
C1923 C1917 1.429 . S
C1923 C1924 1.523 . S
C1924 C1905 1.368 . S
C1924 C1918 1.368 . S
C1924 C1923 1.523 . S
C1925 C1909 1.429 . S
C1925 C1921 1.429 . S
C1925 C1926 1.523 . S
C1926 C1910 1.368 . S
C1926 C1922 1.368 . S
C1926 C1925 1.523 . S
H1927 C1902 0.950 . S
H1928 C1904 0.950 . S
H1929 C1905 0.949 . S
H1930 C1907 0.950 . S
H1931 C1909 0.950 . S
C1932 C1933 1.349 . S
C1932 C1934 1.327 . S
C1932 H1957 0.950 . S
C1933 C1932 1.349 . S
C1933 C1949 1.349 . S
C1934 C1932 1.327 . S
C1934 C1953 1.429 . S
C1934 H1958 0.950 . S
C1935 C1952 1.574 . S
C1935 C1954 1.368 . S
C1935 H1959 0.949 . S
H1936 C1940 0.949 . S
C1937 C1938 1.349 . S
C1937 C1939 1.327 . S
C1937 H1960 0.950 . S
C1938 C1937 1.349 . S
C1938 C1950 1.349 . S
C1939 C1937 1.327 . S
C1939 C1955 1.429 . S
C1939 H1961 0.950 . S
C1940 H1936 0.949 . S
C1940 C1948 1.574 . S
C1940 C1956 1.368 . S
H1941 C1949 0.950 . S
H1942 C1947 0.950 . S
H1943 C1948 0.949 . S
H1944 C1950 0.950 . S
H1945 C1951 0.950 . S
H1946 C1952 0.949 . S
C1947 H1942 0.950 . S
C1947 C1949 1.327 . S
C1947 C1953 1.429 . S
C1948 C1940 1.574 . S
C1948 H1943 0.949 . S
C1948 C1954 1.368 . S
C1949 C1933 1.349 . S
C1949 H1941 0.950 . S
C1949 C1947 1.327 . S
C1950 C1938 1.349 . S
C1950 H1944 0.950 . S
C1950 C1951 1.327 . S
C1951 H1945 0.950 . S
C1951 C1950 1.327 . S
C1951 C1955 1.429 . S
C1952 C1935 1.574 . S
C1952 H1946 0.949 . S
C1952 C1956 1.368 . S
C1953 C1934 1.429 . S
C1953 C1947 1.429 . S
C1953 C1954 1.523 . S
C1954 C1935 1.368 . S
C1954 C1948 1.368 . S
C1954 C1953 1.523 . S
C1955 C1939 1.429 . S
C1955 C1951 1.429 . S
C1955 C1956 1.523 . S
C1956 C1940 1.368 . S
C1956 C1952 1.368 . S
C1956 C1955 1.523 . S
H1957 C1932 0.950 . S
H1958 C1934 0.950 . S
H1959 C1935 0.949 . S
H1960 C1937 0.950 . S
H1961 C1939 0.950 . S
C1962 C1963 1.349 . S
C1962 C1964 1.327 . S
C1962 H1987 0.950 . S
C1963 C1962 1.349 . S
C1963 C1979 1.349 . S
C1964 C1962 1.327 . S
C1964 C1983 1.429 . S
C1964 H1988 0.950 . S
C1965 C1982 1.574 . S
C1965 C1984 1.368 . S
C1965 H1989 0.949 . S
H1966 C1970 0.949 . S
C1967 C1968 1.349 . S
C1967 C1969 1.327 . S
C1967 H1990 0.950 . S
C1968 C1967 1.349 . S
C1968 C1980 1.349 . S
C1969 C1967 1.327 . S
C1969 C1985 1.429 . S
C1969 H1991 0.950 . S
C1970 H1966 0.949 . S
C1970 C1978 1.574 . S
C1970 C1986 1.368 . S
H1971 C1979 0.950 . S
H1972 C1977 0.950 . S
H1973 C1978 0.949 . S
H1974 C1980 0.950 . S
H1975 C1981 0.950 . S
H1976 C1982 0.949 . S
C1977 H1972 0.950 . S
C1977 C1979 1.327 . S
C1977 C1983 1.429 . S
C1978 C1970 1.574 . S
C1978 H1973 0.949 . S
C1978 C1984 1.368 . S
C1979 C1963 1.349 . S
C1979 H1971 0.950 . S
C1979 C1977 1.327 . S
C1980 C1968 1.349 . S
C1980 H1974 0.950 . S
C1980 C1981 1.327 . S
C1981 H1975 0.950 . S
C1981 C1980 1.327 . S
C1981 C1985 1.429 . S
C1982 C1965 1.574 . S
C1982 H1976 0.949 . S
C1982 C1986 1.368 . S
C1983 C1964 1.429 . S
C1983 C1977 1.429 . S
C1983 C1984 1.523 . S
C1984 C1965 1.368 . S
C1984 C1978 1.368 . S
C1984 C1983 1.523 . S
C1985 C1969 1.429 . S
C1985 C1981 1.429 . S
C1985 C1986 1.523 . S
C1986 C1970 1.368 . S
C1986 C1982 1.368 . S
C1986 C1985 1.523 . S
H1987 C1962 0.950 . S
H1988 C1964 0.950 . S
H1989 C1965 0.949 . S
H1990 C1967 0.950 . S
H1991 C1969 0.950 . S
C1992 C1993 1.349 . S
C1992 C1994 1.327 . S
C1992 H2017 0.950 . S
C1993 C1992 1.349 . S
C1993 C2009 1.349 . S
C1994 C1992 1.327 . S
C1994 C2013 1.429 . S
C1994 H2018 0.950 . S
C1995 C2012 1.574 . S
C1995 C2014 1.368 . S
C1995 H2019 0.949 . S
H1996 C2000 0.949 . S
C1997 C1998 1.349 . S
C1997 C1999 1.327 . S
C1997 H2020 0.950 . S
C1998 C1997 1.349 . S
C1998 C2010 1.349 . S
C1999 C1997 1.327 . S
C1999 C2015 1.429 . S
C1999 H2021 0.950 . S
C2000 H1996 0.949 . S
C2000 C2008 1.574 . S
C2000 C2016 1.368 . S
H2001 C2009 0.950 . S
H2002 C2007 0.950 . S
H2003 C2008 0.949 . S
H2004 C2010 0.950 . S
H2005 C2011 0.950 . S
H2006 C2012 0.949 . S
C2007 H2002 0.950 . S
C2007 C2009 1.327 . S
C2007 C2013 1.429 . S
C2008 C2000 1.574 . S
C2008 H2003 0.949 . S
C2008 C2014 1.368 . S
C2009 C1993 1.349 . S
C2009 H2001 0.950 . S
C2009 C2007 1.327 . S
C2010 C1998 1.349 . S
C2010 H2004 0.950 . S
C2010 C2011 1.327 . S
C2011 H2005 0.950 . S
C2011 C2010 1.327 . S
C2011 C2015 1.429 . S
C2012 C1995 1.574 . S
C2012 H2006 0.949 . S
C2012 C2016 1.368 . S
C2013 C1994 1.429 . S
C2013 C2007 1.429 . S
C2013 C2014 1.523 . S
C2014 C1995 1.368 . S
C2014 C2008 1.368 . S
C2014 C2013 1.523 . S
C2015 C1999 1.429 . S
C2015 C2011 1.429 . S
C2015 C2016 1.523 . S
C2016 C2000 1.368 . S
C2016 C2012 1.368 . S
C2016 C2015 1.523 . S
H2017 C1992 0.950 . S
H2018 C1994 0.950 . S
H2019 C1995 0.949 . S
H2020 C1997 0.950 . S
H2021 C1999 0.950 . S
C2022 C2023 1.349 . S
C2022 C2024 1.327 . S
C2022 H2047 0.950 . S
C2023 C2022 1.349 . S
C2023 C2039 1.349 . S
C2024 C2022 1.327 . S
C2024 C2043 1.429 . S
C2024 H2048 0.950 . S
C2025 C2042 1.574 . S
C2025 C2044 1.368 . S
C2025 H2049 0.949 . S
H2026 C2030 0.949 . S
C2027 C2028 1.349 . S
C2027 C2029 1.327 . S
C2027 H2050 0.950 . S
C2028 C2027 1.349 . S
C2028 C2040 1.349 . S
C2029 C2027 1.327 . S
C2029 C2045 1.429 . S
C2029 H2051 0.950 . S
C2030 H2026 0.949 . S
C2030 C2038 1.574 . S
C2030 C2046 1.368 . S
H2031 C2039 0.950 . S
H2032 C2037 0.950 . S
H2033 C2038 0.949 . S
H2034 C2040 0.950 . S
H2035 C2041 0.950 . S
H2036 C2042 0.949 . S
C2037 H2032 0.950 . S
C2037 C2039 1.327 . S
C2037 C2043 1.429 . S
C2038 C2030 1.574 . S
C2038 H2033 0.949 . S
C2038 C2044 1.368 . S
C2039 C2023 1.349 . S
C2039 H2031 0.950 . S
C2039 C2037 1.327 . S
C2040 C2028 1.349 . S
C2040 H2034 0.950 . S
C2040 C2041 1.327 . S
C2041 H2035 0.950 . S
C2041 C2040 1.327 . S
C2041 C2045 1.429 . S
C2042 C2025 1.574 . S
C2042 H2036 0.949 . S
C2042 C2046 1.368 . S
C2043 C2024 1.429 . S
C2043 C2037 1.429 . S
C2043 C2044 1.523 . S
C2044 C2025 1.368 . S
C2044 C2038 1.368 . S
C2044 C2043 1.523 . S
C2045 C2029 1.429 . S
C2045 C2041 1.429 . S
C2045 C2046 1.523 . S
C2046 C2030 1.368 . S
C2046 C2042 1.368 . S
C2046 C2045 1.523 . S
H2047 C2022 0.950 . S
H2048 C2024 0.950 . S
H2049 C2025 0.949 . S
H2050 C2027 0.950 . S
H2051 C2029 0.950 . S
C2052 C2053 1.349 . S
C2052 C2054 1.327 . S
C2052 H2077 0.950 . S
C2053 C2052 1.349 . S
C2053 C2069 1.349 . S
C2054 C2052 1.327 . S
C2054 C2073 1.429 . S
C2054 H2078 0.950 . S
C2055 C2072 1.574 . S
C2055 C2074 1.368 . S
C2055 H2079 0.949 . S
H2056 C2060 0.949 . S
C2057 C2058 1.349 . S
C2057 C2059 1.327 . S
C2057 H2080 0.950 . S
C2058 C2057 1.349 . S
C2058 C2070 1.349 . S
C2059 C2057 1.327 . S
C2059 C2075 1.429 . S
C2059 H2081 0.950 . S
C2060 H2056 0.949 . S
C2060 C2068 1.574 . S
C2060 C2076 1.368 . S
H2061 C2069 0.950 . S
H2062 C2067 0.950 . S
H2063 C2068 0.949 . S
H2064 C2070 0.950 . S
H2065 C2071 0.950 . S
H2066 C2072 0.949 . S
C2067 H2062 0.950 . S
C2067 C2069 1.327 . S
C2067 C2073 1.429 . S
C2068 C2060 1.574 . S
C2068 H2063 0.949 . S
C2068 C2074 1.368 . S
C2069 C2053 1.349 . S
C2069 H2061 0.950 . S
C2069 C2067 1.327 . S
C2070 C2058 1.349 . S
C2070 H2064 0.950 . S
C2070 C2071 1.327 . S
C2071 H2065 0.950 . S
C2071 C2070 1.327 . S
C2071 C2075 1.429 . S
C2072 C2055 1.574 . S
C2072 H2066 0.949 . S
C2072 C2076 1.368 . S
C2073 C2054 1.429 . S
C2073 C2067 1.429 . S
C2073 C2074 1.523 . S
C2074 C2055 1.368 . S
C2074 C2068 1.368 . S
C2074 C2073 1.523 . S
C2075 C2059 1.429 . S
C2075 C2071 1.429 . S
C2075 C2076 1.523 . S
C2076 C2060 1.368 . S
C2076 C2072 1.368 . S
C2076 C2075 1.523 . S
H2077 C2052 0.950 . S
H2078 C2054 0.950 . S
H2079 C2055 0.949 . S
H2080 C2057 0.950 . S
H2081 C2059 0.950 . S
C2082 C2083 1.349 . S
C2082 C2084 1.327 . S
C2082 H2107 0.950 . S
C2083 C2082 1.349 . S
C2083 C2099 1.349 . S
C2084 C2082 1.327 . S
C2084 C2103 1.429 . S
C2084 H2108 0.950 . S
C2085 C2102 1.574 . S
C2085 C2104 1.368 . S
C2085 H2109 0.949 . S
H2086 C2090 0.949 . S
C2087 C2088 1.349 . S
C2087 C2089 1.327 . S
C2087 H2110 0.950 . S
C2088 C2087 1.349 . S
C2088 C2100 1.349 . S
C2089 C2087 1.327 . S
C2089 C2105 1.429 . S
C2089 H2111 0.950 . S
C2090 H2086 0.949 . S
C2090 C2098 1.574 . S
C2090 C2106 1.368 . S
H2091 C2099 0.950 . S
H2092 C2097 0.950 . S
H2093 C2098 0.949 . S
H2094 C2100 0.950 . S
H2095 C2101 0.950 . S
H2096 C2102 0.949 . S
C2097 H2092 0.950 . S
C2097 C2099 1.327 . S
C2097 C2103 1.429 . S
C2098 C2090 1.574 . S
C2098 H2093 0.949 . S
C2098 C2104 1.368 . S
C2099 C2083 1.349 . S
C2099 H2091 0.950 . S
C2099 C2097 1.327 . S
C2100 C2088 1.349 . S
C2100 H2094 0.950 . S
C2100 C2101 1.327 . S
C2101 H2095 0.950 . S
C2101 C2100 1.327 . S
C2101 C2105 1.429 . S
C2102 C2085 1.574 . S
C2102 H2096 0.949 . S
C2102 C2106 1.368 . S
C2103 C2084 1.429 . S
C2103 C2097 1.429 . S
C2103 C2104 1.523 . S
C2104 C2085 1.368 . S
C2104 C2098 1.368 . S
C2104 C2103 1.523 . S
C2105 C2089 1.429 . S
C2105 C2101 1.429 . S
C2105 C2106 1.523 . S
C2106 C2090 1.368 . S
C2106 C2102 1.368 . S
C2106 C2105 1.523 . S
H2107 C2082 0.950 . S
H2108 C2084 0.950 . S
H2109 C2085 0.949 . S
H2110 C2087 0.950 . S
H2111 C2089 0.950 . S
C2112 C2113 1.349 . S
C2112 C2114 1.327 . S
C2112 H2137 0.950 . S
C2113 C2112 1.349 . S
C2113 C2129 1.349 . S
C2114 C2112 1.327 . S
C2114 C2133 1.429 . S
C2114 H2138 0.950 . S
C2115 C2132 1.574 . S
C2115 C2134 1.368 . S
C2115 H2139 0.949 . S
H2116 C2120 0.949 . S
C2117 C2118 1.349 . S
C2117 C2119 1.327 . S
C2117 H2140 0.950 . S
C2118 C2117 1.349 . S
C2118 C2130 1.349 . S
C2119 C2117 1.327 . S
C2119 C2135 1.429 . S
C2119 H2141 0.950 . S
C2120 H2116 0.949 . S
C2120 C2128 1.574 . S
C2120 C2136 1.368 . S
H2121 C2129 0.950 . S
H2122 C2127 0.950 . S
H2123 C2128 0.949 . S
H2124 C2130 0.950 . S
H2125 C2131 0.950 . S
H2126 C2132 0.949 . S
C2127 H2122 0.950 . S
C2127 C2129 1.327 . S
C2127 C2133 1.429 . S
C2128 C2120 1.574 . S
C2128 H2123 0.949 . S
C2128 C2134 1.368 . S
C2129 C2113 1.349 . S
C2129 H2121 0.950 . S
C2129 C2127 1.327 . S
C2130 C2118 1.349 . S
C2130 H2124 0.950 . S
C2130 C2131 1.327 . S
C2131 H2125 0.950 . S
C2131 C2130 1.327 . S
C2131 C2135 1.429 . S
C2132 C2115 1.574 . S
C2132 H2126 0.949 . S
C2132 C2136 1.368 . S
C2133 C2114 1.429 . S
C2133 C2127 1.429 . S
C2133 C2134 1.523 . S
C2134 C2115 1.368 . S
C2134 C2128 1.368 . S
C2134 C2133 1.523 . S
C2135 C2119 1.429 . S
C2135 C2131 1.429 . S
C2135 C2136 1.523 . S
C2136 C2120 1.368 . S
C2136 C2132 1.368 . S
C2136 C2135 1.523 . S
H2137 C2112 0.950 . S
H2138 C2114 0.950 . S
H2139 C2115 0.949 . S
H2140 C2117 0.950 . S
H2141 C2119 0.950 . S
C2142 C2143 1.349 . S
C2142 C2144 1.327 . S
C2142 H2167 0.950 . S
C2143 C2142 1.349 . S
C2143 C2159 1.349 . S
C2144 C2142 1.327 . S
C2144 C2163 1.429 . S
C2144 H2168 0.950 . S
C2145 C2162 1.574 . S
C2145 C2164 1.368 . S
C2145 H2169 0.949 . S
H2146 C2150 0.949 . S
C2147 C2148 1.349 . S
C2147 C2149 1.327 . S
C2147 H2170 0.950 . S
C2148 C2147 1.349 . S
C2148 C2160 1.349 . S
C2149 C2147 1.327 . S
C2149 C2165 1.429 . S
C2149 H2171 0.950 . S
C2150 H2146 0.949 . S
C2150 C2158 1.574 . S
C2150 C2166 1.368 . S
H2151 C2159 0.950 . S
H2152 C2157 0.950 . S
H2153 C2158 0.949 . S
H2154 C2160 0.950 . S
H2155 C2161 0.950 . S
H2156 C2162 0.949 . S
C2157 H2152 0.950 . S
C2157 C2159 1.327 . S
C2157 C2163 1.429 . S
C2158 C2150 1.574 . S
C2158 H2153 0.949 . S
C2158 C2164 1.368 . S
C2159 C2143 1.349 . S
C2159 H2151 0.950 . S
C2159 C2157 1.327 . S
C2160 C2148 1.349 . S
C2160 H2154 0.950 . S
C2160 C2161 1.327 . S
C2161 H2155 0.950 . S
C2161 C2160 1.327 . S
C2161 C2165 1.429 . S
C2162 C2145 1.574 . S
C2162 H2156 0.949 . S
C2162 C2166 1.368 . S
C2163 C2144 1.429 . S
C2163 C2157 1.429 . S
C2163 C2164 1.523 . S
C2164 C2145 1.368 . S
C2164 C2158 1.368 . S
C2164 C2163 1.523 . S
C2165 C2149 1.429 . S
C2165 C2161 1.429 . S
C2165 C2166 1.523 . S
C2166 C2150 1.368 . S
C2166 C2162 1.368 . S
C2166 C2165 1.523 . S
H2167 C2142 0.950 . S
H2168 C2144 0.950 . S
H2169 C2145 0.949 . S
H2170 C2147 0.950 . S
H2171 C2149 0.950 . S
C2172 C2173 1.349 . S
C2172 C2174 1.327 . S
C2172 H2197 0.950 . S
C2173 C2172 1.349 . S
C2173 C2189 1.349 . S
C2174 C2172 1.327 . S
C2174 C2193 1.429 . S
C2174 H2198 0.950 . S
C2175 C2192 1.574 . S
C2175 C2194 1.368 . S
C2175 H2199 0.949 . S
H2176 C2180 0.949 . S
C2177 C2178 1.349 . S
C2177 C2179 1.327 . S
C2177 H2200 0.950 . S
C2178 C2177 1.349 . S
C2178 C2190 1.349 . S
C2179 C2177 1.327 . S
C2179 C2195 1.429 . S
C2179 H2201 0.950 . S
C2180 H2176 0.949 . S
C2180 C2188 1.574 . S
C2180 C2196 1.368 . S
H2181 C2189 0.950 . S
H2182 C2187 0.950 . S
H2183 C2188 0.949 . S
H2184 C2190 0.950 . S
H2185 C2191 0.950 . S
H2186 C2192 0.949 . S
C2187 H2182 0.950 . S
C2187 C2189 1.327 . S
C2187 C2193 1.429 . S
C2188 C2180 1.574 . S
C2188 H2183 0.949 . S
C2188 C2194 1.368 . S
C2189 C2173 1.349 . S
C2189 H2181 0.950 . S
C2189 C2187 1.327 . S
C2190 C2178 1.349 . S
C2190 H2184 0.950 . S
C2190 C2191 1.327 . S
C2191 H2185 0.950 . S
C2191 C2190 1.327 . S
C2191 C2195 1.429 . S
C2192 C2175 1.574 . S
C2192 H2186 0.949 . S
C2192 C2196 1.368 . S
C2193 C2174 1.429 . S
C2193 C2187 1.429 . S
C2193 C2194 1.523 . S
C2194 C2175 1.368 . S
C2194 C2188 1.368 . S
C2194 C2193 1.523 . S
C2195 C2179 1.429 . S
C2195 C2191 1.429 . S
C2195 C2196 1.523 . S
C2196 C2180 1.368 . S
C2196 C2192 1.368 . S
C2196 C2195 1.523 . S
H2197 C2172 0.950 . S
H2198 C2174 0.950 . S
H2199 C2175 0.949 . S
H2200 C2177 0.950 . S
H2201 C2179 0.950 . S
C2202 C2203 1.349 . S
C2202 C2204 1.327 . S
C2202 H2227 0.950 . S
C2203 C2202 1.349 . S
C2203 C2219 1.349 . S
C2204 C2202 1.327 . S
C2204 C2223 1.429 . S
C2204 H2228 0.950 . S
C2205 C2222 1.574 . S
C2205 C2224 1.368 . S
C2205 H2229 0.949 . S
H2206 C2210 0.949 . S
C2207 C2208 1.349 . S
C2207 C2209 1.327 . S
C2207 H2230 0.950 . S
C2208 C2207 1.349 . S
C2208 C2220 1.349 . S
C2209 C2207 1.327 . S
C2209 C2225 1.429 . S
C2209 H2231 0.950 . S
C2210 H2206 0.949 . S
C2210 C2218 1.574 . S
C2210 C2226 1.368 . S
H2211 C2219 0.950 . S
H2212 C2217 0.950 . S
H2213 C2218 0.949 . S
H2214 C2220 0.950 . S
H2215 C2221 0.950 . S
H2216 C2222 0.949 . S
C2217 H2212 0.950 . S
C2217 C2219 1.327 . S
C2217 C2223 1.429 . S
C2218 C2210 1.574 . S
C2218 H2213 0.949 . S
C2218 C2224 1.368 . S
C2219 C2203 1.349 . S
C2219 H2211 0.950 . S
C2219 C2217 1.327 . S
C2220 C2208 1.349 . S
C2220 H2214 0.950 . S
C2220 C2221 1.327 . S
C2221 H2215 0.950 . S
C2221 C2220 1.327 . S
C2221 C2225 1.429 . S
C2222 C2205 1.574 . S
C2222 H2216 0.949 . S
C2222 C2226 1.368 . S
C2223 C2204 1.429 . S
C2223 C2217 1.429 . S
C2223 C2224 1.523 . S
C2224 C2205 1.368 . S
C2224 C2218 1.368 . S
C2224 C2223 1.523 . S
C2225 C2209 1.429 . S
C2225 C2221 1.429 . S
C2225 C2226 1.523 . S
C2226 C2210 1.368 . S
C2226 C2222 1.368 . S
C2226 C2225 1.523 . S
H2227 C2202 0.950 . S
H2228 C2204 0.950 . S
H2229 C2205 0.949 . S
H2230 C2207 0.950 . S
H2231 C2209 0.950 . S
C2232 C2233 1.349 . S
C2232 C2234 1.327 . S
C2232 H2257 0.950 . S
C2233 C2232 1.349 . S
C2233 C2249 1.349 . S
C2234 C2232 1.327 . S
C2234 C2253 1.429 . S
C2234 H2258 0.950 . S
C2235 C2252 1.574 1_554 S
C2235 C2254 1.368 . S
C2235 H2259 0.949 . S
H2236 C2240 0.949 . S
C2237 C2238 1.349 . S
C2237 C2239 1.327 . S
C2237 H2260 0.950 . S
C2238 C2237 1.349 . S
C2238 C2250 1.349 . S
C2239 C2237 1.327 . S
C2239 C2255 1.429 . S
C2239 H2261 0.950 . S
C2240 H2236 0.949 . S
C2240 C2248 1.574 1_556 S
C2240 C2256 1.368 . S
H2241 C2249 0.950 . S
H2242 C2247 0.950 . S
H2243 C2248 0.949 . S
H2244 C2250 0.950 . S
H2245 C2251 0.950 . S
H2246 C2252 0.949 . S
C2247 H2242 0.950 . S
C2247 C2249 1.327 . S
C2247 C2253 1.429 . S
C2248 C2240 1.574 1_554 S
C2248 H2243 0.949 . S
C2248 C2254 1.368 . S
C2249 C2233 1.349 . S
C2249 H2241 0.950 . S
C2249 C2247 1.327 . S
C2250 C2238 1.349 . S
C2250 H2244 0.950 . S
C2250 C2251 1.327 . S
C2251 H2245 0.950 . S
C2251 C2250 1.327 . S
C2251 C2255 1.429 . S
C2252 C2235 1.574 1_556 S
C2252 H2246 0.949 . S
C2252 C2256 1.368 . S
C2253 C2234 1.429 . S
C2253 C2247 1.429 . S
C2253 C2254 1.523 . S
C2254 C2235 1.368 . S
C2254 C2248 1.368 . S
C2254 C2253 1.523 . S
C2255 C2239 1.429 . S
C2255 C2251 1.429 . S
C2255 C2256 1.523 . S
C2256 C2240 1.368 . S
C2256 C2252 1.368 . S
C2256 C2255 1.523 . S
H2257 C2232 0.950 . S
H2258 C2234 0.950 . S
H2259 C2235 0.949 . S
H2260 C2237 0.950 . S
H2261 C2239 0.950 . S
C2262 C2263 1.349 . S
C2262 C2264 1.327 . S
C2262 H2287 0.950 . S
C2263 C2262 1.349 . S
C2263 C2279 1.349 . S
C2264 C2262 1.327 . S
C2264 C2283 1.429 . S
C2264 H2288 0.950 . S
C2265 C2282 1.574 1_554 S
C2265 C2284 1.368 . S
C2265 H2289 0.949 . S
H2266 C2270 0.949 . S
C2267 C2268 1.349 . S
C2267 C2269 1.327 . S
C2267 H2290 0.950 . S
C2268 C2267 1.349 . S
C2268 C2280 1.349 . S
C2269 C2267 1.327 . S
C2269 C2285 1.429 . S
C2269 H2291 0.950 . S
C2270 H2266 0.949 . S
C2270 C2278 1.574 1_556 S
C2270 C2286 1.368 . S
H2271 C2279 0.950 . S
H2272 C2277 0.950 . S
H2273 C2278 0.949 . S
H2274 C2280 0.950 . S
H2275 C2281 0.950 . S
H2276 C2282 0.949 . S
C2277 H2272 0.950 . S
C2277 C2279 1.327 . S
C2277 C2283 1.429 . S
C2278 C2270 1.574 1_554 S
C2278 H2273 0.949 . S
C2278 C2284 1.368 . S
C2279 C2263 1.349 . S
C2279 H2271 0.950 . S
C2279 C2277 1.327 . S
C2280 C2268 1.349 . S
C2280 H2274 0.950 . S
C2280 C2281 1.327 . S
C2281 H2275 0.950 . S
C2281 C2280 1.327 . S
C2281 C2285 1.429 . S
C2282 C2265 1.574 1_556 S
C2282 H2276 0.949 . S
C2282 C2286 1.368 . S
C2283 C2264 1.429 . S
C2283 C2277 1.429 . S
C2283 C2284 1.523 . S
C2284 C2265 1.368 . S
C2284 C2278 1.368 . S
C2284 C2283 1.523 . S
C2285 C2269 1.429 . S
C2285 C2281 1.429 . S
C2285 C2286 1.523 . S
C2286 C2270 1.368 . S
C2286 C2282 1.368 . S
C2286 C2285 1.523 . S
H2287 C2262 0.950 . S
H2288 C2264 0.950 . S
H2289 C2265 0.949 . S
H2290 C2267 0.950 . S
H2291 C2269 0.950 . S
C2292 C2293 1.349 . S
C2292 C2294 1.327 . S
C2292 H2317 0.950 . S
C2293 C2292 1.349 . S
C2293 C2309 1.349 . S
C2294 C2292 1.327 . S
C2294 C2313 1.429 . S
C2294 H2318 0.950 . S
C2295 C2312 1.574 1_554 S
C2295 C2314 1.368 . S
C2295 H2319 0.949 . S
H2296 C2300 0.949 . S
C2297 C2298 1.349 . S
C2297 C2299 1.327 . S
C2297 H2320 0.950 . S
C2298 C2297 1.349 . S
C2298 C2310 1.349 . S
C2299 C2297 1.327 . S
C2299 C2315 1.429 . S
C2299 H2321 0.950 . S
C2300 H2296 0.949 . S
C2300 C2308 1.574 1_556 S
C2300 C2316 1.368 . S
H2301 C2309 0.950 . S
H2302 C2307 0.950 . S
H2303 C2308 0.949 . S
H2304 C2310 0.950 . S
H2305 C2311 0.950 . S
H2306 C2312 0.949 . S
C2307 H2302 0.950 . S
C2307 C2309 1.327 . S
C2307 C2313 1.429 . S
C2308 C2300 1.574 1_554 S
C2308 H2303 0.949 . S
C2308 C2314 1.368 . S
C2309 C2293 1.349 . S
C2309 H2301 0.950 . S
C2309 C2307 1.327 . S
C2310 C2298 1.349 . S
C2310 H2304 0.950 . S
C2310 C2311 1.327 . S
C2311 H2305 0.950 . S
C2311 C2310 1.327 . S
C2311 C2315 1.429 . S
C2312 C2295 1.574 1_556 S
C2312 H2306 0.949 . S
C2312 C2316 1.368 . S
C2313 C2294 1.429 . S
C2313 C2307 1.429 . S
C2313 C2314 1.523 . S
C2314 C2295 1.368 . S
C2314 C2308 1.368 . S
C2314 C2313 1.523 . S
C2315 C2299 1.429 . S
C2315 C2311 1.429 . S
C2315 C2316 1.523 . S
C2316 C2300 1.368 . S
C2316 C2312 1.368 . S
C2316 C2315 1.523 . S
H2317 C2292 0.950 . S
H2318 C2294 0.950 . S
H2319 C2295 0.949 . S
H2320 C2297 0.950 . S
H2321 C2299 0.950 . S
C2322 C2323 1.349 . S
C2322 C2324 1.327 . S
C2322 H2347 0.950 . S
C2323 C2322 1.349 . S
C2323 C2339 1.349 . S
C2324 C2322 1.327 . S
C2324 C2343 1.429 . S
C2324 H2348 0.950 . S
C2325 C2342 1.574 1_554 S
C2325 C2344 1.368 . S
C2325 H2349 0.949 . S
H2326 C2330 0.949 . S
C2327 C2328 1.349 . S
C2327 C2329 1.327 . S
C2327 H2350 0.950 . S
C2328 C2327 1.349 . S
C2328 C2340 1.349 . S
C2329 C2327 1.327 . S
C2329 C2345 1.429 . S
C2329 H2351 0.950 . S
C2330 H2326 0.949 . S
C2330 C2338 1.574 1_556 S
C2330 C2346 1.368 . S
H2331 C2339 0.950 . S
H2332 C2337 0.950 . S
H2333 C2338 0.949 . S
H2334 C2340 0.950 . S
H2335 C2341 0.950 . S
H2336 C2342 0.949 . S
C2337 H2332 0.950 . S
C2337 C2339 1.327 . S
C2337 C2343 1.429 . S
C2338 C2330 1.574 1_554 S
C2338 H2333 0.949 . S
C2338 C2344 1.368 . S
C2339 C2323 1.349 . S
C2339 H2331 0.950 . S
C2339 C2337 1.327 . S
C2340 C2328 1.349 . S
C2340 H2334 0.950 . S
C2340 C2341 1.327 . S
C2341 H2335 0.950 . S
C2341 C2340 1.327 . S
C2341 C2345 1.429 . S
C2342 C2325 1.574 1_556 S
C2342 H2336 0.949 . S
C2342 C2346 1.368 . S
C2343 C2324 1.429 . S
C2343 C2337 1.429 . S
C2343 C2344 1.523 . S
C2344 C2325 1.368 . S
C2344 C2338 1.368 . S
C2344 C2343 1.523 . S
C2345 C2329 1.429 . S
C2345 C2341 1.429 . S
C2345 C2346 1.523 . S
C2346 C2330 1.368 . S
C2346 C2342 1.368 . S
C2346 C2345 1.523 . S
H2347 C2322 0.950 . S
H2348 C2324 0.950 . S
H2349 C2325 0.949 . S
H2350 C2327 0.950 . S
H2351 C2329 0.950 . S
C2352 C2353 1.349 . S
C2352 C2354 1.327 . S
C2352 H2377 0.950 . S
C2353 C2352 1.349 . S
C2353 C2369 1.349 . S
C2354 C2352 1.327 . S
C2354 C2373 1.429 . S
C2354 H2378 0.950 . S
C2355 C2372 1.574 1_554 S
C2355 C2374 1.368 . S
C2355 H2379 0.949 . S
H2356 C2360 0.949 . S
C2357 C2358 1.349 . S
C2357 C2359 1.327 . S
C2357 H2380 0.950 . S
C2358 C2357 1.349 . S
C2358 C2370 1.349 . S
C2359 C2357 1.327 . S
C2359 C2375 1.429 . S
C2359 H2381 0.950 . S
C2360 H2356 0.949 . S
C2360 C2368 1.574 1_556 S
C2360 C2376 1.368 . S
H2361 C2369 0.950 . S
H2362 C2367 0.950 . S
H2363 C2368 0.949 . S
H2364 C2370 0.950 . S
H2365 C2371 0.950 . S
H2366 C2372 0.949 . S
C2367 H2362 0.950 . S
C2367 C2369 1.327 . S
C2367 C2373 1.429 . S
C2368 C2360 1.574 1_554 S
C2368 H2363 0.949 . S
C2368 C2374 1.368 . S
C2369 C2353 1.349 . S
C2369 H2361 0.950 . S
C2369 C2367 1.327 . S
C2370 C2358 1.349 . S
C2370 H2364 0.950 . S
C2370 C2371 1.327 . S
C2371 H2365 0.950 . S
C2371 C2370 1.327 . S
C2371 C2375 1.429 . S
C2372 C2355 1.574 1_556 S
C2372 H2366 0.949 . S
C2372 C2376 1.368 . S
C2373 C2354 1.429 . S
C2373 C2367 1.429 . S
C2373 C2374 1.523 . S
C2374 C2355 1.368 . S
C2374 C2368 1.368 . S
C2374 C2373 1.523 . S
C2375 C2359 1.429 . S
C2375 C2371 1.429 . S
C2375 C2376 1.523 . S
C2376 C2360 1.368 . S
C2376 C2372 1.368 . S
C2376 C2375 1.523 . S
H2377 C2352 0.950 . S
H2378 C2354 0.950 . S
H2379 C2355 0.949 . S
H2380 C2357 0.950 . S
H2381 C2359 0.950 . S
C2382 C2383 1.349 . S
C2382 C2384 1.327 . S
C2382 H2407 0.950 . S
C2383 C2382 1.349 . S
C2383 C2399 1.349 . S
C2384 C2382 1.327 . S
C2384 C2403 1.429 . S
C2384 H2408 0.950 . S
C2385 C2402 1.574 1_556 S
C2385 C2404 1.368 . S
C2385 H2409 0.949 . S
H2386 C2390 0.949 . S
C2387 C2388 1.349 . S
C2387 C2389 1.327 . S
C2387 H2410 0.950 . S
C2388 C2387 1.349 . S
C2388 C2400 1.349 . S
C2389 C2387 1.327 . S
C2389 C2405 1.429 . S
C2389 H2411 0.950 . S
C2390 H2386 0.949 . S
C2390 C2398 1.574 1_554 S
C2390 C2406 1.368 . S
H2391 C2399 0.950 . S
H2392 C2397 0.950 . S
H2393 C2398 0.949 . S
H2394 C2400 0.950 . S
H2395 C2401 0.950 . S
H2396 C2402 0.949 . S
C2397 H2392 0.950 . S
C2397 C2399 1.327 . S
C2397 C2403 1.429 . S
C2398 C2390 1.574 1_556 S
C2398 H2393 0.949 . S
C2398 C2404 1.368 . S
C2399 C2383 1.349 . S
C2399 H2391 0.950 . S
C2399 C2397 1.327 . S
C2400 C2388 1.349 . S
C2400 H2394 0.950 . S
C2400 C2401 1.327 . S
C2401 H2395 0.950 . S
C2401 C2400 1.327 . S
C2401 C2405 1.429 . S
C2402 C2385 1.574 1_554 S
C2402 H2396 0.949 . S
C2402 C2406 1.368 . S
C2403 C2384 1.429 . S
C2403 C2397 1.429 . S
C2403 C2404 1.523 . S
C2404 C2385 1.368 . S
C2404 C2398 1.368 . S
C2404 C2403 1.523 . S
C2405 C2389 1.429 . S
C2405 C2401 1.429 . S
C2405 C2406 1.523 . S
C2406 C2390 1.368 . S
C2406 C2402 1.368 . S
C2406 C2405 1.523 . S
H2407 C2382 0.950 . S
H2408 C2384 0.950 . S
H2409 C2385 0.949 . S
H2410 C2387 0.950 . S
H2411 C2389 0.950 . S
C2412 C2413 1.349 . S
C2412 C2414 1.327 . S
C2412 H2437 0.950 . S
C2413 C2412 1.349 . S
C2413 C2429 1.349 . S
C2414 C2412 1.327 . S
C2414 C2433 1.429 . S
C2414 H2438 0.950 . S
C2415 C2432 1.574 . S
C2415 C2434 1.368 . S
C2415 H2439 0.949 . S
H2416 C2420 0.949 . S
C2417 C2418 1.349 . S
C2417 C2419 1.327 . S
C2417 H2440 0.950 . S
C2418 C2417 1.349 . S
C2418 C2430 1.349 . S
C2419 C2417 1.327 . S
C2419 C2435 1.429 . S
C2419 H2441 0.950 . S
C2420 H2416 0.949 . S
C2420 C2428 1.574 . S
C2420 C2436 1.368 . S
H2421 C2429 0.950 . S
H2422 C2427 0.950 . S
H2423 C2428 0.949 . S
H2424 C2430 0.950 . S
H2425 C2431 0.950 . S
H2426 C2432 0.949 . S
C2427 H2422 0.950 . S
C2427 C2429 1.327 . S
C2427 C2433 1.429 . S
C2428 C2420 1.574 . S
C2428 H2423 0.949 . S
C2428 C2434 1.368 . S
C2429 C2413 1.349 . S
C2429 H2421 0.950 . S
C2429 C2427 1.327 . S
C2430 C2418 1.349 . S
C2430 H2424 0.950 . S
C2430 C2431 1.327 . S
C2431 H2425 0.950 . S
C2431 C2430 1.327 . S
C2431 C2435 1.429 . S
C2432 C2415 1.574 . S
C2432 H2426 0.949 . S
C2432 C2436 1.368 . S
C2433 C2414 1.429 . S
C2433 C2427 1.429 . S
C2433 C2434 1.523 . S
C2434 C2415 1.368 . S
C2434 C2428 1.368 . S
C2434 C2433 1.523 . S
C2435 C2419 1.429 . S
C2435 C2431 1.429 . S
C2435 C2436 1.523 . S
C2436 C2420 1.368 . S
C2436 C2432 1.368 . S
C2436 C2435 1.523 . S
H2437 C2412 0.950 . S
H2438 C2414 0.950 . S
H2439 C2415 0.949 . S
H2440 C2417 0.950 . S
H2441 C2419 0.950 . S
C2442 C2443 1.349 . S
C2442 C2444 1.327 . S
C2442 H2467 0.950 . S
C2443 C2442 1.349 . S
C2443 C2459 1.349 . S
C2444 C2442 1.327 . S
C2444 C2463 1.429 . S
C2444 H2468 0.950 . S
C2445 C2462 1.574 . S
C2445 C2464 1.368 . S
C2445 H2469 0.949 . S
H2446 C2450 0.949 . S
C2447 C2448 1.349 . S
C2447 C2449 1.327 . S
C2447 H2470 0.950 . S
C2448 C2447 1.349 . S
C2448 C2460 1.349 . S
C2449 C2447 1.327 . S
C2449 C2465 1.429 . S
C2449 H2471 0.950 . S
C2450 H2446 0.949 . S
C2450 C2458 1.574 . S
C2450 C2466 1.368 . S
H2451 C2459 0.950 . S
H2452 C2457 0.950 . S
H2453 C2458 0.949 . S
H2454 C2460 0.950 . S
H2455 C2461 0.950 . S
H2456 C2462 0.949 . S
C2457 H2452 0.950 . S
C2457 C2459 1.327 . S
C2457 C2463 1.429 . S
C2458 C2450 1.574 . S
C2458 H2453 0.949 . S
C2458 C2464 1.368 . S
C2459 C2443 1.349 . S
C2459 H2451 0.950 . S
C2459 C2457 1.327 . S
C2460 C2448 1.349 . S
C2460 H2454 0.950 . S
C2460 C2461 1.327 . S
C2461 H2455 0.950 . S
C2461 C2460 1.327 . S
C2461 C2465 1.429 . S
C2462 C2445 1.574 . S
C2462 H2456 0.949 . S
C2462 C2466 1.368 . S
C2463 C2444 1.429 . S
C2463 C2457 1.429 . S
C2463 C2464 1.523 . S
C2464 C2445 1.368 . S
C2464 C2458 1.368 . S
C2464 C2463 1.523 . S
C2465 C2449 1.429 . S
C2465 C2461 1.429 . S
C2465 C2466 1.523 . S
C2466 C2450 1.368 . S
C2466 C2462 1.368 . S
C2466 C2465 1.523 . S
H2467 C2442 0.950 . S
H2468 C2444 0.950 . S
H2469 C2445 0.949 . S
H2470 C2447 0.950 . S
H2471 C2449 0.950 . S
C2472 C2473 1.349 . S
C2472 C2474 1.327 . S
C2472 H2497 0.950 . S
C2473 C2472 1.349 . S
C2473 C2489 1.349 . S
C2474 C2472 1.327 . S
C2474 C2493 1.429 . S
C2474 H2498 0.950 . S
C2475 C2492 1.574 . S
C2475 C2494 1.368 . S
C2475 H2499 0.949 . S
H2476 C2480 0.949 . S
C2477 C2478 1.349 . S
C2477 C2479 1.327 . S
C2477 H2500 0.950 . S
C2478 C2477 1.349 . S
C2478 C2490 1.349 . S
C2479 C2477 1.327 . S
C2479 C2495 1.429 . S
C2479 H2501 0.950 . S
C2480 H2476 0.949 . S
C2480 C2488 1.574 . S
C2480 C2496 1.368 . S
H2481 C2489 0.950 . S
H2482 C2487 0.950 . S
H2483 C2488 0.949 . S
H2484 C2490 0.950 . S
H2485 C2491 0.950 . S
H2486 C2492 0.949 . S
C2487 H2482 0.950 . S
C2487 C2489 1.327 . S
C2487 C2493 1.429 . S
C2488 C2480 1.574 . S
C2488 H2483 0.949 . S
C2488 C2494 1.368 . S
C2489 C2473 1.349 . S
C2489 H2481 0.950 . S
C2489 C2487 1.327 . S
C2490 C2478 1.349 . S
C2490 H2484 0.950 . S
C2490 C2491 1.327 . S
C2491 H2485 0.950 . S
C2491 C2490 1.327 . S
C2491 C2495 1.429 . S
C2492 C2475 1.574 . S
C2492 H2486 0.949 . S
C2492 C2496 1.368 . S
C2493 C2474 1.429 . S
C2493 C2487 1.429 . S
C2493 C2494 1.523 . S
C2494 C2475 1.368 . S
C2494 C2488 1.368 . S
C2494 C2493 1.523 . S
C2495 C2479 1.429 . S
C2495 C2491 1.429 . S
C2495 C2496 1.523 . S
C2496 C2480 1.368 . S
C2496 C2492 1.368 . S
C2496 C2495 1.523 . S
H2497 C2472 0.950 . S
H2498 C2474 0.950 . S
H2499 C2475 0.949 . S
H2500 C2477 0.950 . S
H2501 C2479 0.950 . S
C2502 C2503 1.349 . S
C2502 C2504 1.327 . S
C2502 H2527 0.950 . S
C2503 C2502 1.349 . S
C2503 C2519 1.349 . S
C2504 C2502 1.327 . S
C2504 C2523 1.429 . S
C2504 H2528 0.950 . S
C2505 C2522 1.574 . S
C2505 C2524 1.368 . S
C2505 H2529 0.949 . S
H2506 C2510 0.949 . S
C2507 C2508 1.349 . S
C2507 C2509 1.327 . S
C2507 H2530 0.950 . S
C2508 C2507 1.349 . S
C2508 C2520 1.349 . S
C2509 C2507 1.327 . S
C2509 C2525 1.429 . S
C2509 H2531 0.950 . S
C2510 H2506 0.949 . S
C2510 C2518 1.574 . S
C2510 C2526 1.368 . S
H2511 C2519 0.950 . S
H2512 C2517 0.950 . S
H2513 C2518 0.949 . S
H2514 C2520 0.950 . S
H2515 C2521 0.950 . S
H2516 C2522 0.949 . S
C2517 H2512 0.950 . S
C2517 C2519 1.327 . S
C2517 C2523 1.429 . S
C2518 C2510 1.574 . S
C2518 H2513 0.949 . S
C2518 C2524 1.368 . S
C2519 C2503 1.349 . S
C2519 H2511 0.950 . S
C2519 C2517 1.327 . S
C2520 C2508 1.349 . S
C2520 H2514 0.950 . S
C2520 C2521 1.327 . S
C2521 H2515 0.950 . S
C2521 C2520 1.327 . S
C2521 C2525 1.429 . S
C2522 C2505 1.574 . S
C2522 H2516 0.949 . S
C2522 C2526 1.368 . S
C2523 C2504 1.429 . S
C2523 C2517 1.429 . S
C2523 C2524 1.523 . S
C2524 C2505 1.368 . S
C2524 C2518 1.368 . S
C2524 C2523 1.523 . S
C2525 C2509 1.429 . S
C2525 C2521 1.429 . S
C2525 C2526 1.523 . S
C2526 C2510 1.368 . S
C2526 C2522 1.368 . S
C2526 C2525 1.523 . S
H2527 C2502 0.950 . S
H2528 C2504 0.950 . S
H2529 C2505 0.949 . S
H2530 C2507 0.950 . S
H2531 C2509 0.950 . S
C2532 C2533 1.349 . S
C2532 C2534 1.327 . S
C2532 H2557 0.950 . S
C2533 C2532 1.349 . S
C2533 C2549 1.349 . S
C2534 C2532 1.327 . S
C2534 C2553 1.429 . S
C2534 H2558 0.950 . S
C2535 C2552 1.574 . S
C2535 C2554 1.368 . S
C2535 H2559 0.949 . S
H2536 C2540 0.949 . S
C2537 C2538 1.349 . S
C2537 C2539 1.327 . S
C2537 H2560 0.950 . S
C2538 C2537 1.349 . S
C2538 C2550 1.349 . S
C2539 C2537 1.327 . S
C2539 C2555 1.429 . S
C2539 H2561 0.950 . S
C2540 H2536 0.949 . S
C2540 C2548 1.574 . S
C2540 C2556 1.368 . S
H2541 C2549 0.950 . S
H2542 C2547 0.950 . S
H2543 C2548 0.949 . S
H2544 C2550 0.950 . S
H2545 C2551 0.950 . S
H2546 C2552 0.949 . S
C2547 H2542 0.950 . S
C2547 C2549 1.327 . S
C2547 C2553 1.429 . S
C2548 C2540 1.574 . S
C2548 H2543 0.949 . S
C2548 C2554 1.368 . S
C2549 C2533 1.349 . S
C2549 H2541 0.950 . S
C2549 C2547 1.327 . S
C2550 C2538 1.349 . S
C2550 H2544 0.950 . S
C2550 C2551 1.327 . S
C2551 H2545 0.950 . S
C2551 C2550 1.327 . S
C2551 C2555 1.429 . S
C2552 C2535 1.574 . S
C2552 H2546 0.949 . S
C2552 C2556 1.368 . S
C2553 C2534 1.429 . S
C2553 C2547 1.429 . S
C2553 C2554 1.523 . S
C2554 C2535 1.368 . S
C2554 C2548 1.368 . S
C2554 C2553 1.523 . S
C2555 C2539 1.429 . S
C2555 C2551 1.429 . S
C2555 C2556 1.523 . S
C2556 C2540 1.368 . S
C2556 C2552 1.368 . S
C2556 C2555 1.523 . S
H2557 C2532 0.950 . S
H2558 C2534 0.950 . S
H2559 C2535 0.949 . S
H2560 C2537 0.950 . S
H2561 C2539 0.950 . S
C2562 C2563 1.349 . S
C2562 C2564 1.327 . S
C2562 H2587 0.950 . S
C2563 C2562 1.349 . S
C2563 C2579 1.349 . S
C2564 C2562 1.327 . S
C2564 C2583 1.429 . S
C2564 H2588 0.950 . S
C2565 C2582 1.574 . S
C2565 C2584 1.368 . S
C2565 H2589 0.949 . S
H2566 C2570 0.949 . S
C2567 C2568 1.349 . S
C2567 C2569 1.327 . S
C2567 H2590 0.950 . S
C2568 C2567 1.349 . S
C2568 C2580 1.349 . S
C2569 C2567 1.327 . S
C2569 C2585 1.429 . S
C2569 H2591 0.950 . S
C2570 H2566 0.949 . S
C2570 C2578 1.574 . S
C2570 C2586 1.368 . S
H2571 C2579 0.950 . S
H2572 C2577 0.950 . S
H2573 C2578 0.949 . S
H2574 C2580 0.950 . S
H2575 C2581 0.950 . S
H2576 C2582 0.949 . S
C2577 H2572 0.950 . S
C2577 C2579 1.327 . S
C2577 C2583 1.429 . S
C2578 C2570 1.574 . S
C2578 H2573 0.949 . S
C2578 C2584 1.368 . S
C2579 C2563 1.349 . S
C2579 H2571 0.950 . S
C2579 C2577 1.327 . S
C2580 C2568 1.349 . S
C2580 H2574 0.950 . S
C2580 C2581 1.327 . S
C2581 H2575 0.950 . S
C2581 C2580 1.327 . S
C2581 C2585 1.429 . S
C2582 C2565 1.574 . S
C2582 H2576 0.949 . S
C2582 C2586 1.368 . S
C2583 C2564 1.429 . S
C2583 C2577 1.429 . S
C2583 C2584 1.523 . S
C2584 C2565 1.368 . S
C2584 C2578 1.368 . S
C2584 C2583 1.523 . S
C2585 C2569 1.429 . S
C2585 C2581 1.429 . S
C2585 C2586 1.523 . S
C2586 C2570 1.368 . S
C2586 C2582 1.368 . S
C2586 C2585 1.523 . S
H2587 C2562 0.950 . S
H2588 C2564 0.950 . S
H2589 C2565 0.949 . S
H2590 C2567 0.950 . S
H2591 C2569 0.950 . S
C793 N14 0.568 . S
C798 N113 0.568 . S
C823 N146 0.569 . S
C828 N47 0.569 . S
C853 N179 0.569 . S
C858 N80 0.569 . S
C883 N311 0.568 . S
C888 N212 0.568 . S
C913 N245 0.569 . S
C918 N344 0.569 . S
C943 N278 0.569 . S
C948 N377 0.569 . S
C973 N509 0.568 . S
C978 N410 0.568 . S
C1003 N542 0.569 . S
C1008 N443 0.569 . S
C1033 N575 0.569 . S
C1038 N476 0.569 . S
C1063 N707 0.569 . S
C1068 N608 0.569 . S
C1093 N641 0.569 . S
C1098 N740 0.569 . S
C1123 N773 0.568 . S
C1128 N674 0.568 . S
C1153 N269 1.388 . S
C1158 N5 1.388 . S
C1183 N38 1.388 . S
C1188 N302 1.388 . S
C1213 N71 1.388 . S
C1218 N335 1.388 . S
C1243 N104 1.388 . S
C1248 N368 1.388 . S
C1273 N137 1.388 . S
C1278 N203 1.388 . S
C1303 N236 1.388 . S
C1308 N170 1.388 . S
C1333 N401 1.388 . S
C1338 N665 1.388 . S
C1363 N698 1.387 . S
C1368 N434 1.388 . S
C1393 N731 1.388 . S
C1398 N467 1.388 . S
C1423 N500 1.388 . S
C1428 N764 1.388 . S
C1453 N599 1.387 . S
C1458 N533 1.388 . S
C1483 N632 1.388 . S
C1488 N566 1.388 . S
C1513 C8 1.274 . S
C1518 C239 1.274 . S
C1543 C41 1.274 . S
C1548 C272 1.274 . S
C1573 C305 1.274 . S
C1578 C74 1.274 . S
C1603 C107 1.274 . S
C1608 C338 1.274 . S
C1633 C371 1.274 . S
C1638 C140 1.274 . S
C1663 C206 1.274 . S
C1668 C173 1.274 . S
C1693 C404 1.274 . S
C1698 C635 1.274 . S
C1723 C437 1.274 . S
C1728 C668 1.274 . S
C1753 C470 1.274 . S
C1758 C701 1.274 . S
C1783 C503 1.274 . S
C1788 C734 1.274 . S
C1813 C536 1.274 . S
C1818 C767 1.274 . S
C1843 C602 1.274 . S
C1848 C569 1.274 . S
C1873 C28 0.450 . S
C1878 C358 0.450 . S
C1903 C391 0.450 . S
C1908 C61 0.450 . S
C1933 C226 0.450 . S
C1938 C94 0.450 . S
C1963 C259 0.450 . S
C1968 C127 0.450 . S
C1993 C160 0.450 . S
C1998 C292 0.450 . S
C2023 C193 0.450 . S
C2028 C325 0.450 . S
C2053 C424 0.450 . S
C2058 C754 0.450 . S
C2083 C787 0.450 . S
C2088 C457 0.450 . S
C2113 C622 0.450 . S
C2118 C490 0.449 . S
C2143 C523 0.450 . S
C2148 C655 0.450 . S
C2173 C556 0.450 . S
C2178 C688 0.450 . S
C2203 C721 0.450 . S
C2208 C589 0.449 . S
C2233 C17 1.361 . S
C2238 C512 1.361 . S
C2263 C50 1.361 . S
C2268 C545 1.361 . S
C2293 C83 1.361 . S
C2298 C578 1.361 . S
C2323 C116 1.361 . S
C2328 C413 1.361 . S
C2353 C149 1.361 . S
C2358 C446 1.361 . S
C2383 C479 1.361 . S
C2388 C182 1.361 . S
C2413 C215 1.361 . S
C2418 C710 1.361 . S
C2443 C248 1.361 . S
C2448 C743 1.361 . S
C2473 C281 1.361 . S
C2478 C776 1.361 . S
C2503 C314 1.361 . S
C2508 C611 1.361 . S
C2533 C347 1.361 . S
C2538 C644 1.361 . S
C2563 C677 1.361 . S
C2568 C380 1.361 . S
