# Generated by pormake.
# Topology sxa, (6)-cn, num edge types: 1
# Building blocks:
#     Node 0, Type 0, BuildingBlock: PAMTUU_clean_sbu_0, # of connection points: 6
#     Node 1, Type 0, BuildingBlock: PAMTUU_clean_sbu_0, # of connection points: 6
#     Node 2, Type 0, BuildingBlock: PAMTUU_clean_sbu_0, # of connection points: 6
#     Node 3, Type 0, BuildingBlock: PAMTUU_clean_sbu_0, # of connection points: 6
#     Edge 4, Type (0, 0), BuildingBlock: OJICUG_clean_linker_0, # of connection points: 2
#     Edge 5, Type (0, 0), BuildingBlock: OJICUG_clean_linker_0, # of connection points: 2
#     Edge 6, Type (0, 0), BuildingBlock: OJICUG_clean_linker_0, # of connection points: 2
#     Edge 7, Type (0, 0), BuildingBlock: OJICUG_clean_linker_0, # of connection points: 2
#     Edge 8, Type (0, 0), BuildingBlock: OJICUG_clean_linker_0, # of connection points: 2
#     Edge 9, Type (0, 0), BuildingBlock: OJICUG_clean_linker_0, # of connection points: 2
#     Edge 10, Type (0, 0), BuildingBlock: OJICUG_clean_linker_0, # of connection points: 2
#     Edge 11, Type (0, 0), BuildingBlock: OJICUG_clean_linker_0, # of connection points: 2
#     Edge 12, Type (0, 0), BuildingBlock: OJICUG_clean_linker_0, # of connection points: 2
#     Edge 13, Type (0, 0), BuildingBlock: OJICUG_clean_linker_0, # of connection points: 2
#     Edge 14, Type (0, 0), BuildingBlock: OJICUG_clean_linker_0, # of connection points: 2
#     Edge 15, Type (0, 0), BuildingBlock: OJICUG_clean_linker_0, # of connection points: 2
# Relax obj value: 0.323
# Max RMSD: 0.315
# Mean RMSD: 0.315
data_MOF--net-sxa--node1-PAMTUU_clean_sbu_0--edge1-OJICUG_clean_linker_0
_symmetry_space_group_name_H-M    P1
_symmetry_Int_Tables_number       1
_symmetry_cell_setting            triclinic
loop_
_symmetry_equiv_pos_as_xyz
'x, y, z'
_cell_length_a     28.443844
_cell_length_b     19.09863
_cell_length_c     13.174829
_cell_angle_alpha  92.897868
_cell_angle_beta   45.671599
_cell_angle_gamma 96.809492
loop_
_atom_site_label
_atom_site_type_symbol
_atom_site_fract_x
_atom_site_fract_y
_atom_site_fract_z
_atom_type_partial_charge
Tb0 Tb 0.10915 0.77497 1.05505 0.0
Tb1 Tb 0.07423 0.79473 0.32762 0.0
C2 C 0.09343 0.6494 0.17794 0.0
C3 C 0.06464 0.76714 0.86039 0.0
C4 C 0.94566 0.78012 0.93824 0.0
C5 C 0.97864 0.72006 0.86972 0.0
C6 C 0.03774 0.71359 0.83128 0.0
C7 C 0.03423 0.82937 0.91933 0.0
C8 C 0.97541 0.83589 0.95735 0.0
C9 C 0.11409 0.75178 0.85989 0.0
O10 O 0.9964 0.77256 0.24307 0.0
O11 O 0.97495 0.79809 0.44414 0.0
O12 O 0.05609 0.89457 0.28189 0.0
O13 O 0.13349 0.88557 1.04256 0.0
O14 O 0.07986 0.73015 0.44077 0.0
O15 O 0.0668 0.84044 0.48747 0.0
O16 O 0.1726 0.8452 0.16103 0.0
O17 O 0.20122 0.76542 1.00338 0.0
O18 O 0.14418 0.68863 1.07181 0.0
O19 O 0.04947 0.68502 0.29115 0.0
C20 C 0.95408 0.7843 0.38295 0.0
O21 O 0.14793 0.80628 0.85636 0.0
O22 O 0.09144 0.70367 0.9561 0.0
C23 C 0.09198 0.92227 0.15197 0.0
C24 C 0.13605 0.78836 0.49881 0.0
C25 C 0.23095 0.79083 0.51373 0.0
C26 C 0.19673 0.84976 0.55129 0.0
C27 C 0.14952 0.84835 0.5446 0.0
C28 C 0.17296 0.73116 0.45395 0.0
C29 C 0.21975 0.73248 0.46105 0.0
C30 C 0.08116 0.78281 0.50614 0.0
C31 C 0.21717 0.80773 1.0598 0.0
H32 H 0.95724 0.6768 0.85166 0.0
H33 H 0.0602 0.665 0.78705 0.0
H34 H 0.05328 0.87107 0.94531 0.0
H35 H 0.9509 0.88252 1.01099 0.0
H36 H 0.20341 0.89539 0.59395 0.0
H37 H 0.12177 0.89306 0.5806 0.0
H38 H 0.1646 0.68412 0.41668 0.0
H39 H 0.24633 0.68697 0.42759 0.0
Tb40 Tb 0.60917 0.27508 1.05505 0.0
Tb41 Tb 0.57424 0.29476 0.32762 0.0
C42 C 0.59345 0.14945 0.17785 0.0
C43 C 0.56461 0.26741 0.86053 0.0
C44 C 0.44556 0.28047 0.93871 0.0
C45 C 0.47852 0.2204 0.87012 0.0
C46 C 0.53765 0.21389 0.83151 0.0
C47 C 0.53423 0.32965 0.91954 0.0
C48 C 0.47537 0.33621 0.95772 0.0
C49 C 0.61409 0.25199 0.85991 0.0
O50 O 0.49642 0.27267 0.24306 0.0
O51 O 0.47496 0.29812 0.44416 0.0
O52 O 0.5561 0.39461 0.28193 0.0
O53 O 0.63354 0.38567 1.04261 0.0
O54 O 0.57989 0.23016 0.4407 0.0
O55 O 0.56679 0.34043 0.48752 0.0
O56 O 0.67261 0.34523 0.16108 0.0
O57 O 0.70123 0.26548 1.00339 0.0
O58 O 0.6442 0.18869 1.07171 0.0
O59 O 0.54949 0.18506 0.29108 0.0
C60 C 0.4541 0.28437 0.38296 0.0
O61 O 0.64795 0.30645 0.85639 0.0
O62 O 0.59146 0.20383 0.95604 0.0
C63 C 0.59201 0.42235 0.15203 0.0
C64 C 0.63606 0.28835 0.49881 0.0
C65 C 0.73095 0.29084 0.51375 0.0
C66 C 0.69675 0.34977 0.55125 0.0
C67 C 0.64955 0.34835 0.54455 0.0
C68 C 0.67295 0.23114 0.45401 0.0
C69 C 0.71974 0.23247 0.46111 0.0
C70 C 0.58117 0.2828 0.50613 0.0
C71 C 0.71718 0.30778 1.05982 0.0
H72 H 0.45707 0.17716 0.85213 0.0
H73 H 0.56009 0.16529 0.78723 0.0
H74 H 0.55333 0.37132 0.94545 0.0
H75 H 0.45089 0.38285 1.01141 0.0
H76 H 0.70344 0.39541 0.59387 0.0
H77 H 0.6218 0.39307 0.58051 0.0
H78 H 0.66459 0.1841 0.41677 0.0
H79 H 0.74632 0.18696 0.42769 0.0
Tb80 Tb 0.04816 0.27502 0.82089 0.0
Tb81 Tb 1.01325 0.29477 0.09346 0.0
C82 C 0.03041 0.14747 0.99653 0.0
C83 C 0.98634 0.28141 0.64971 0.0
C84 C 0.89145 0.27893 0.63478 0.0
C85 C 0.92567 0.22001 0.59723 0.0
C86 C 0.97287 0.22142 0.60392 0.0
C87 C 0.94943 0.33861 0.69455 0.0
C88 C 0.90264 0.33729 0.68745 0.0
C89 C 0.04123 0.28696 0.64237 0.0
O90 O 0.94979 0.22455 0.98747 0.0
O91 O 0.92118 0.30433 0.14513 0.0
O92 O 0.97821 0.38112 0.07671 0.0
O93 O 0.07292 0.38473 0.85737 0.0
O94 O 0.97447 0.26346 0.29215 0.0
O95 O 0.03095 0.36607 0.19241 0.0
O96 O 0.12599 0.29718 0.90544 0.0
O97 O 0.14744 0.27166 0.70436 0.0
O98 O 0.0663 0.17518 0.86661 0.0
O99 O 0.9889 0.18417 0.10594 0.0
C100 C 0.90522 0.26202 0.08871 0.0
O101 O 0.04253 0.33961 0.70777 0.0
O102 O 0.0556 0.22933 0.66103 0.0
C103 C 0.02896 0.42035 0.97058 0.0
C104 C 0.05777 0.30259 0.2881 0.0
C105 C 0.17675 0.2896 0.21021 0.0
C106 C 0.14377 0.34966 0.27873 0.0
C107 C 0.08467 0.35614 0.31719 0.0
C108 C 0.08817 0.24036 0.22915 0.0
C109 C 0.14699 0.23383 0.19111 0.0
C110 C 1.00831 0.31795 0.28861 0.0
C111 C 0.16831 0.28545 0.76555 0.0
H112 H 0.91898 0.17437 0.55457 0.0
H113 H 1.00062 0.17671 0.56792 0.0
H114 H 0.95779 0.38565 0.73182 0.0
H115 H 0.87606 0.38279 0.72091 0.0
H116 H 0.16518 0.39292 0.29678 0.0
H117 H 0.06221 0.40472 0.36143 0.0
H118 H 0.06911 0.19866 0.20318 0.0
H119 H 0.1715 0.1872 0.13746 0.0
Tb120 Tb 0.54815 0.775 0.82088 0.0
Tb121 Tb 0.51323 0.79467 0.09346 0.0
C122 C 0.53038 0.6474 0.99646 0.0
C123 C 0.48633 0.78142 0.64971 0.0
C124 C 0.39145 0.77893 0.63476 0.0
C125 C 0.42564 0.72 0.59727 0.0
C126 C 0.47284 0.72142 0.60397 0.0
C127 C 0.44944 0.83863 0.69449 0.0
C128 C 0.40265 0.8373 0.68739 0.0
C129 C 0.54122 0.78698 0.64238 0.0
O130 O 0.44978 0.72452 0.98742 0.0
O131 O 0.42116 0.80427 0.14513 0.0
O132 O 0.4782 0.88107 0.07682 0.0
O133 O 0.5729 0.8847 0.85745 0.0
O134 O 0.47445 0.76328 0.29211 0.0
O135 O 0.53093 0.8659 0.19248 0.0
O136 O 0.62597 0.79708 0.90545 0.0
O137 O 0.64743 0.77164 0.70434 0.0
O138 O 0.5663 0.67515 0.86656 0.0
O139 O 0.48885 0.68408 0.10589 0.0
C140 C 0.40521 0.76197 0.08868 0.0
O141 O 0.54249 0.83962 0.70784 0.0
O142 O 0.55561 0.72935 0.66097 0.0
C143 C 0.52894 0.92031 0.97068 0.0
C144 C 0.55779 0.80232 0.28796 0.0
C145 C 0.67685 0.78925 0.20973 0.0
C146 C 0.64389 0.84932 0.27833 0.0
C147 C 0.58476 0.85584 0.31696 0.0
C148 C 0.58816 0.74008 0.22894 0.0
C149 C 0.64703 0.73351 0.19073 0.0
C150 C 0.50831 0.81774 0.2886 0.0
C151 C 0.6683 0.78538 0.76554 0.0
H152 H 0.41895 0.67435 0.55465 0.0
H153 H 0.50059 0.6767 0.56802 0.0
H154 H 0.45781 0.88568 0.73173 0.0
H155 H 0.37608 0.88282 0.7208 0.0
H156 H 0.66535 0.89255 0.29631 0.0
H157 H 0.56232 0.90443 0.36125 0.0
H158 H 0.56906 0.6984 0.20304 0.0
H159 H 0.67151 0.68687 0.13704 0.0
C160 C 0.11221 0.50082 0.95214 0.0
C161 C 0.04757 0.48429 1.01145 0.0
H162 H 0.17629 0.56307 0.96336 0.0
C163 C 0.99685 0.51917 0.13451 0.0
H164 H 0.15214 0.47369 0.86079 0.0
C165 C 1.01018 0.56893 0.19639 0.0
C166 C 0.07482 0.58546 0.13707 0.0
H167 H 0.9461 0.50668 0.18516 0.0
H168 H 0.97025 0.59606 0.28773 0.0
C169 C 0.12554 0.55057 1.01403 0.0
C170 C 0.51231 0.50233 0.21118 0.0
C171 C 0.57715 0.48529 0.12064 0.0
H172 H 0.44617 0.56406 0.23909 0.0
C173 C 0.62578 0.51853 0.98314 0.0
H174 H 0.47329 0.47616 0.31533 0.0
C175 C 0.61008 0.56742 0.9373 0.0
C176 C 0.54525 0.58445 1.02784 0.0
H177 H 0.67622 0.50569 0.9094 0.0
H178 H 0.6491 0.59359 0.83316 0.0
C179 C 0.49662 0.55121 0.16534 0.0
C180 C 0.61221 1.00084 0.95211 0.0
C181 C 0.54756 0.98426 1.01153 0.0
H182 H 0.67631 0.06315 0.96319 0.0
C183 C 0.49684 1.01913 0.13461 0.0
H184 H 0.65214 0.97372 0.86073 0.0
C185 C 0.51019 0.06891 0.19643 0.0
C186 C 0.57483 0.08549 0.13701 0.0
H187 H 0.44608 1.0066 0.18535 0.0
H188 H 0.47025 0.09603 0.2878 0.0
C189 C 0.62555 0.05062 1.01393 0.0
C190 C 0.12574 1.01841 0.98302 0.0
C191 C 0.07714 0.98525 0.1206 0.0
H192 H 0.14906 0.09344 0.83302 0.0
C193 C 1.01233 1.0024 0.21127 0.0
H194 H 0.17616 1.00548 0.90917 0.0
C195 C 0.99665 0.05133 0.16547 0.0
C196 C 0.04525 0.0845 1.0279 0.0
H197 H 0.97333 0.9763 0.31548 0.0
H198 H 0.94623 0.06427 0.23932 0.0
C199 C 0.11006 0.06734 0.93723 0.0
C200 C 0.34999 0.84531 0.55448 0.0
C201 C 0.34873 0.7822 0.60782 0.0
H202 H 0.31607 0.8971 0.47853 0.0
C203 C 0.30931 0.72185 0.62732 0.0
H204 H 0.38108 0.89251 0.53438 0.0
C205 C 0.27242 0.72444 0.59394 0.0
C206 C 0.27368 0.78756 0.54062 0.0
H207 H 0.30633 0.67266 0.66991 0.0
H208 H 0.24133 0.67725 0.61404 0.0
C209 C 0.31309 0.84791 0.52112 0.0
C210 C 0.27106 0.29112 0.72122 0.0
C211 C 0.24149 0.28646 0.66958 0.0
H212 H 0.3601 0.29315 0.67276 0.0
C213 C 0.28281 0.2803 0.52102 0.0
H214 H 0.24135 0.29541 0.83383 0.0
C215 C 0.35135 0.27872 0.42729 0.0
C216 C 0.38092 0.28337 0.47892 0.0
H217 H 0.26231 0.27669 0.47575 0.0
H218 H 0.38106 0.27442 0.31467 0.0
C219 C 0.3396 0.28953 0.62748 0.0
C220 C 0.84997 0.34532 0.55455 0.0
C221 C 0.84872 0.2822 0.60787 0.0
H222 H 0.81606 0.39711 0.47859 0.0
C223 C 0.8093 0.22185 0.62737 0.0
H224 H 0.88106 0.39251 0.53446 0.0
C225 C 0.77241 0.22445 0.59401 0.0
C226 C 0.77367 0.28757 0.54067 0.0
H227 H 0.80633 0.17266 0.66996 0.0
H228 H 0.74132 0.17726 0.61411 0.0
C229 C 0.81308 0.34792 0.52118 0.0
C230 C 0.83958 0.78942 0.62749 0.0
C231 C 0.88091 0.78328 0.47892 0.0
H232 H 0.74133 0.7953 0.83384 0.0
C233 C 0.85134 0.77864 0.42729 0.0
H234 H 0.86008 0.79303 0.67276 0.0
C235 C 0.78279 0.78023 0.52102 0.0
C236 C 0.74147 0.78638 0.66958 0.0
H237 H 0.88104 0.77435 0.31467 0.0
H238 H 0.76229 0.77662 0.47575 0.0
C239 C 0.77104 0.79102 0.72122 0.0
C240 C 0.33769 0.72108 1.03556 0.0
C241 C 0.35215 0.7718 0.09508 0.0
H242 H 0.28612 0.69323 0.97199 0.0
C243 C 0.32502 0.83575 0.13372 0.0
H244 H 0.35862 0.67142 1.00252 0.0
C245 C 0.28469 0.84863 0.11294 0.0
C246 C 0.27022 0.79791 1.05342 0.0
H247 H 0.33625 0.87648 0.17651 0.0
H248 H 0.26375 0.89829 0.14599 0.0
C249 C 0.29735 0.73396 1.01478 0.0
C250 C 0.29224 0.34717 1.06646 0.0
C251 C 0.24495 0.28785 0.14516 0.0
H252 H 0.39329 0.39077 0.9361 0.0
C253 C 0.2645 0.2257 0.15249 0.0
H254 H 0.27892 0.39531 1.05626 0.0
C255 C 0.33005 0.22293 0.08262 0.0
C256 C 0.37734 0.28224 1.00389 0.0
H257 H 0.22901 0.17933 0.21298 0.0
H258 H 0.34338 0.17479 0.09281 0.0
C259 C 0.35779 0.34441 0.9966 0.0
C260 C 0.78471 0.34867 0.11295 0.0
C261 C 0.77024 0.29795 1.05343 0.0
H262 H 0.83627 0.37652 0.17652 0.0
C263 C 0.79737 0.234 1.01479 0.0
H264 H 0.76378 0.39833 0.14599 0.0
C265 C 0.8377 0.22112 1.03557 0.0
C266 C 0.85217 0.27184 0.09509 0.0
H267 H 0.78614 0.19327 0.972 0.0
H268 H 0.85864 0.17146 1.00253 0.0
C269 C 0.82504 0.33579 0.13373 0.0
C270 C 0.85791 0.84402 0.99594 0.0
C271 C 0.87746 0.78186 1.00326 0.0
H272 H 0.77904 0.89493 1.05561 0.0
C273 C 0.83017 0.72254 0.08196 0.0
H274 H 0.89341 0.89039 0.93545 0.0
C275 C 0.76462 0.72531 0.15182 0.0
C276 C 0.74507 0.78747 0.14454 0.0
H277 H 0.84349 0.6744 0.09216 0.0
H278 H 0.72912 0.67894 0.21232 0.0
C279 C 0.79236 0.84678 1.0658 0.0
loop_
_geom_bond_atom_site_label_1
_geom_bond_atom_site_label_2
_geom_bond_distance
_geom_bond_site_symmetry_2
_ccdc_geom_bond_type
Tb0 C9 2.764 1_454 S
Tb0 O10 2.325 1_455 S
Tb0 O13 2.303 . S
Tb0 O17 2.322 1_554 S
Tb0 O18 2.349 . S
Tb0 O21 2.415 1_554 S
Tb0 O22 2.399 1_554 S
Tb1 O11 2.322 1_455 S
Tb1 O12 2.349 . S
Tb1 O14 2.415 . S
Tb1 O15 2.399 . S
Tb1 O16 2.325 . S
Tb1 O19 2.303 . S
Tb1 C30 2.764 . S
C2 O18 1.261 . S
C2 O19 1.257 . S
C3 C6 1.358 . S
C3 C7 1.332 . S
C3 C9 1.504 . S
C4 C5 1.373 . S
C4 C8 1.308 . S
C5 C4 1.373 . S
C5 C6 1.429 . S
C5 H32 0.932 . S
C6 C3 1.358 . S
C6 C5 1.429 . S
C6 H33 0.930 . S
C7 C3 1.332 . S
C7 C8 1.394 . S
C7 H34 0.932 1_556 S
C8 C4 1.308 . S
C8 C7 1.394 . S
C8 H35 0.929 . S
C9 Tb0 2.764 1_656 S
C9 C3 1.504 . S
C9 O21 1.239 1_655 S
C9 O22 1.263 1_655 S
O10 Tb0 2.325 1_655 S
O10 C20 1.236 . S
O11 Tb1 2.322 1_655 S
O11 C20 1.257 . S
O12 Tb1 2.349 . S
O12 C23 1.261 . S
O13 Tb0 2.303 . S
O13 C23 1.257 . S
O14 Tb1 2.415 . S
O14 C30 1.239 . S
O15 Tb1 2.399 . S
O15 C30 1.263 . S
O16 Tb1 2.325 . S
O16 C31 1.236 . S
O17 Tb0 2.322 1_556 S
O17 C31 1.257 1_556 S
O18 Tb0 2.349 . S
O18 C2 1.261 . S
O19 Tb1 2.303 . S
O19 C2 1.257 . S
C20 O10 1.236 . S
C20 O11 1.257 . S
O21 Tb0 2.415 1_556 S
O21 C9 1.239 1_455 S
O22 Tb0 2.399 1_556 S
O22 C9 1.263 1_455 S
C23 O12 1.261 . S
C23 O13 1.257 . S
C24 C27 1.358 . S
C24 C28 1.332 . S
C24 C30 1.504 . S
C25 C26 1.373 . S
C25 C29 1.308 . S
C26 C25 1.373 . S
C26 C27 1.429 . S
C26 H36 0.932 . S
C27 C24 1.358 . S
C27 C26 1.429 . S
C27 H37 0.930 . S
C28 C24 1.332 . S
C28 C29 1.394 . S
C28 H38 0.932 . S
C29 C25 1.308 . S
C29 C28 1.394 . S
C29 H39 0.929 . S
C30 Tb1 2.764 . S
C30 O14 1.239 . S
C30 O15 1.263 . S
C30 C24 1.504 . S
C31 O16 1.236 . S
C31 O17 1.257 1_554 S
H32 C5 0.932 . S
H33 C6 0.930 . S
H34 C7 0.932 1_554 S
H35 C8 0.929 . S
H36 C26 0.932 . S
H37 C27 0.930 . S
H38 C28 0.932 . S
H39 C29 0.929 . S
Tb40 C49 2.764 1_554 S
Tb40 O50 2.325 . S
Tb40 O53 2.303 . S
Tb40 O57 2.322 1_554 S
Tb40 O58 2.349 . S
Tb40 O61 2.415 1_554 S
Tb40 O62 2.399 1_554 S
Tb41 O51 2.322 . S
Tb41 O52 2.349 . S
Tb41 O54 2.415 . S
Tb41 O55 2.399 . S
Tb41 O56 2.325 . S
Tb41 O59 2.303 . S
Tb41 C70 2.764 . S
C42 O58 1.261 . S
C42 O59 1.257 . S
C43 C46 1.358 . S
C43 C47 1.332 . S
C43 C49 1.504 . S
C44 C45 1.373 . S
C44 C48 1.308 . S
C45 C44 1.373 . S
C45 C46 1.429 . S
C45 H72 0.932 . S
C46 C43 1.358 . S
C46 C45 1.429 . S
C46 H73 0.930 . S
C47 C43 1.332 . S
C47 C48 1.394 . S
C47 H74 0.932 1_556 S
C48 C44 1.308 . S
C48 C47 1.394 . S
C48 H75 0.929 . S
C49 Tb40 2.764 1_556 S
C49 C43 1.504 . S
C49 O61 1.239 . S
C49 O62 1.263 . S
O50 Tb40 2.325 . S
O50 C60 1.236 . S
O51 Tb41 2.322 . S
O51 C60 1.257 . S
O52 Tb41 2.349 . S
O52 C63 1.261 . S
O53 Tb40 2.303 . S
O53 C63 1.257 . S
O54 Tb41 2.415 . S
O54 C70 1.239 . S
O55 Tb41 2.399 . S
O55 C70 1.263 . S
O56 Tb41 2.325 . S
O56 C71 1.236 . S
O57 Tb40 2.322 1_556 S
O57 C71 1.257 1_556 S
O58 Tb40 2.349 . S
O58 C42 1.261 . S
O59 Tb41 2.303 . S
O59 C42 1.257 . S
C60 O50 1.236 . S
C60 O51 1.257 . S
O61 Tb40 2.415 1_556 S
O61 C49 1.239 . S
O62 Tb40 2.399 1_556 S
O62 C49 1.263 . S
C63 O52 1.261 . S
C63 O53 1.257 . S
C64 C67 1.358 . S
C64 C68 1.332 . S
C64 C70 1.504 . S
C65 C66 1.373 . S
C65 C69 1.308 . S
C66 C65 1.373 . S
C66 C67 1.429 . S
C66 H76 0.932 . S
C67 C64 1.358 . S
C67 C66 1.429 . S
C67 H77 0.930 . S
C68 C64 1.332 . S
C68 C69 1.394 . S
C68 H78 0.932 . S
C69 C65 1.308 . S
C69 C68 1.394 . S
C69 H79 0.929 . S
C70 Tb41 2.764 . S
C70 O54 1.239 . S
C70 O55 1.263 . S
C70 C64 1.504 . S
C71 O56 1.236 . S
C71 O57 1.257 1_554 S
H72 C45 0.932 . S
H73 C46 0.930 . S
H74 C47 0.932 1_554 S
H75 C48 0.929 . S
H76 C66 0.932 . S
H77 C67 0.930 . S
H78 C68 0.932 . S
H79 C69 0.929 . S
Tb80 C89 2.764 1_455 S
Tb80 O90 2.325 1_455 S
Tb80 O93 2.303 . S
Tb80 O97 2.322 . S
Tb80 O98 2.349 . S
Tb80 O101 2.415 1_455 S
Tb80 O102 2.399 1_455 S
Tb81 O91 2.322 1_456 S
Tb81 O92 2.349 . S
Tb81 O94 2.415 1_556 S
Tb81 O95 2.399 1_556 S
Tb81 O96 2.325 . S
Tb81 O99 2.303 . S
Tb81 C110 2.764 1_556 S
C82 O98 1.261 . S
C82 O99 1.257 . S
C83 C86 1.358 . S
C83 C87 1.332 . S
C83 C89 1.504 . S
C84 C85 1.373 . S
C84 C88 1.308 . S
C85 C84 1.373 . S
C85 C86 1.429 . S
C85 H112 0.932 . S
C86 C83 1.358 . S
C86 C85 1.429 . S
C86 H113 0.930 . S
C87 C83 1.332 . S
C87 C88 1.394 . S
C87 H114 0.932 . S
C88 C84 1.308 . S
C88 C87 1.394 . S
C88 H115 0.929 . S
C89 Tb80 2.764 1_655 S
C89 C83 1.504 . S
C89 O101 1.239 . S
C89 O102 1.263 . S
O90 Tb80 2.325 1_655 S
O90 C100 1.236 . S
O91 Tb81 2.322 1_654 S
O91 C100 1.257 1_554 S
O92 Tb81 2.349 . S
O92 C103 1.261 . S
O93 Tb80 2.303 . S
O93 C103 1.257 . S
O94 Tb81 2.415 1_554 S
O94 C110 1.239 . S
O95 Tb81 2.399 1_554 S
O95 C110 1.263 . S
O96 Tb81 2.325 . S
O96 C111 1.236 . S
O97 Tb80 2.322 . S
O97 C111 1.257 . S
O98 Tb80 2.349 . S
O98 C82 1.261 . S
O99 Tb81 2.303 . S
O99 C82 1.257 . S
C100 O90 1.236 . S
C100 O91 1.257 1_556 S
O101 Tb80 2.415 1_655 S
O101 C89 1.239 . S
O102 Tb80 2.399 1_655 S
O102 C89 1.263 . S
C103 O92 1.261 . S
C103 O93 1.257 . S
C104 C107 1.358 . S
C104 C108 1.332 . S
C104 C110 1.504 . S
C105 C106 1.373 . S
C105 C109 1.308 . S
C106 C105 1.373 . S
C106 C107 1.429 . S
C106 H116 0.932 . S
C107 C104 1.358 . S
C107 C106 1.429 . S
C107 H117 0.930 . S
C108 C104 1.332 . S
C108 C109 1.394 . S
C108 H118 0.932 1_554 S
C109 C105 1.308 . S
C109 C108 1.394 . S
C109 H119 0.929 . S
C110 Tb81 2.764 1_554 S
C110 O94 1.239 . S
C110 O95 1.263 . S
C110 C104 1.504 . S
C111 O96 1.236 . S
C111 O97 1.257 . S
H112 C85 0.932 . S
H113 C86 0.930 . S
H114 C87 0.932 . S
H115 C88 0.929 . S
H116 C106 0.932 . S
H117 C107 0.930 . S
H118 C108 0.932 1_556 S
H119 C109 0.929 . S
Tb120 C129 2.764 . S
Tb120 O130 2.325 . S
Tb120 O133 2.303 . S
Tb120 O137 2.322 . S
Tb120 O138 2.349 . S
Tb120 O141 2.415 . S
Tb120 O142 2.399 . S
Tb121 O131 2.322 1_556 S
Tb121 O132 2.349 . S
Tb121 O134 2.415 1_556 S
Tb121 O135 2.399 1_556 S
Tb121 O136 2.325 . S
Tb121 O139 2.303 . S
Tb121 C150 2.764 1_556 S
C122 O138 1.261 . S
C122 O139 1.257 . S
C123 C126 1.358 . S
C123 C127 1.332 . S
C123 C129 1.504 . S
C124 C125 1.373 . S
C124 C128 1.308 . S
C125 C124 1.373 . S
C125 C126 1.429 . S
C125 H152 0.932 . S
C126 C123 1.358 . S
C126 C125 1.429 . S
C126 H153 0.930 . S
C127 C123 1.332 . S
C127 C128 1.394 . S
C127 H154 0.932 . S
C128 C124 1.308 . S
C128 C127 1.394 . S
C128 H155 0.929 . S
C129 Tb120 2.764 . S
C129 C123 1.504 . S
C129 O141 1.239 . S
C129 O142 1.263 . S
O130 Tb120 2.325 . S
O130 C140 1.236 . S
O131 Tb121 2.322 1_554 S
O131 C140 1.257 1_554 S
O132 Tb121 2.349 . S
O132 C143 1.261 . S
O133 Tb120 2.303 . S
O133 C143 1.257 . S
O134 Tb121 2.415 1_554 S
O134 C150 1.239 . S
O135 Tb121 2.399 1_554 S
O135 C150 1.263 . S
O136 Tb121 2.325 . S
O136 C151 1.236 . S
O137 Tb120 2.322 . S
O137 C151 1.257 . S
O138 Tb120 2.349 . S
O138 C122 1.261 . S
O139 Tb121 2.303 . S
O139 C122 1.257 . S
C140 O130 1.236 . S
C140 O131 1.257 1_556 S
O141 Tb120 2.415 . S
O141 C129 1.239 . S
O142 Tb120 2.399 . S
O142 C129 1.263 . S
C143 O132 1.261 . S
C143 O133 1.257 . S
C144 C147 1.358 . S
C144 C148 1.332 . S
C144 C150 1.504 . S
C145 C146 1.373 . S
C145 C149 1.308 . S
C146 C145 1.373 . S
C146 C147 1.429 . S
C146 H156 0.932 . S
C147 C144 1.358 . S
C147 C146 1.429 . S
C147 H157 0.930 . S
C148 C144 1.332 . S
C148 C149 1.394 . S
C148 H158 0.932 1_554 S
C149 C145 1.308 . S
C149 C148 1.394 . S
C149 H159 0.929 . S
C150 Tb121 2.764 1_554 S
C150 O134 1.239 . S
C150 O135 1.263 . S
C150 C144 1.504 . S
C151 O136 1.236 . S
C151 O137 1.257 . S
H152 C125 0.932 . S
H153 C126 0.930 . S
H154 C127 0.932 . S
H155 C128 0.929 . S
H156 C146 0.932 . S
H157 C147 0.930 . S
H158 C148 0.932 1_556 S
H159 C149 0.929 . S
C160 C161 1.387 . S
C160 H164 0.950 . S
C160 C169 1.390 1_556 S
C161 C160 1.387 . S
C161 C163 1.387 . S
H162 C169 0.950 . S
C163 C161 1.387 . S
C163 C165 1.390 1_556 S
C163 H167 0.950 . S
H164 C160 0.950 . S
C165 C163 1.390 1_554 S
C165 C166 1.387 . S
C165 H168 0.950 . S
C166 C165 1.387 . S
C166 C169 1.387 . S
H167 C163 0.950 . S
H168 C165 0.950 . S
C169 C160 1.390 1_554 S
C169 H162 0.950 . S
C169 C166 1.387 . S
C170 C171 1.387 . S
C170 H174 0.950 . S
C170 C179 1.390 . S
C171 C170 1.387 . S
C171 C173 1.387 1_554 S
H172 C179 0.950 . S
C173 C171 1.387 1_556 S
C173 C175 1.390 . S
C173 H177 0.950 . S
H174 C170 0.950 . S
C175 C173 1.390 . S
C175 C176 1.387 . S
C175 H178 0.950 . S
C176 C175 1.387 . S
C176 C179 1.387 1_556 S
H177 C173 0.950 . S
H178 C175 0.950 . S
C179 C170 1.390 . S
C179 H172 0.950 . S
C179 C176 1.387 1_554 S
C180 C181 1.387 . S
C180 H184 0.950 . S
C180 C189 1.390 1_565 S
C181 C180 1.387 . S
C181 C183 1.387 1_556 S
H182 C189 0.950 . S
C183 C181 1.387 1_554 S
C183 C185 1.390 1_565 S
C183 H187 0.950 . S
H184 C180 0.950 . S
C185 C183 1.390 1_545 S
C185 C186 1.387 . S
C185 H188 0.950 . S
C186 C185 1.387 . S
C186 C189 1.387 1_554 S
H187 C183 0.950 . S
H188 C185 0.950 . S
C189 C180 1.390 1_545 S
C189 H182 0.950 . S
C189 C186 1.387 1_556 S
C190 C191 1.387 1_556 S
C190 H194 0.950 . S
C190 C199 1.390 . S
C191 C190 1.387 1_554 S
C191 C193 1.387 1_565 S
H192 C199 0.950 . S
C193 C191 1.387 1_545 S
C193 C195 1.401 . S
C193 H197 0.950 1_455 S
H194 C190 0.950 . S
C195 C193 1.401 . S
C195 C196 1.386 1_554 S
C195 H198 0.941 1_455 S
C196 C195 1.386 1_556 S
C196 C199 1.387 1_545 S
H197 C193 0.950 1_655 S
H198 C195 0.941 1_655 S
C199 C190 1.390 . S
C199 H192 0.950 . S
C199 C196 1.387 1_565 S
C200 C201 1.387 . S
C200 H204 0.950 . S
C200 C209 1.390 . S
C201 C200 1.387 . S
C201 C203 1.387 . S
H202 C209 0.950 . S
C203 C201 1.387 . S
C203 C205 1.390 . S
C203 H207 0.950 . S
H204 C200 0.950 . S
C205 C203 1.390 . S
C205 C206 1.387 . S
C205 H208 0.950 . S
C206 C205 1.387 . S
C206 C209 1.387 . S
H207 C203 0.950 . S
H208 C205 0.950 . S
C209 C200 1.390 . S
C209 H202 0.950 . S
C209 C206 1.387 . S
C210 C211 1.387 . S
C210 H214 0.950 . S
C210 C219 1.390 . S
C211 C210 1.387 . S
C211 C213 1.387 . S
H212 C219 0.950 . S
C213 C211 1.387 . S
C213 C215 1.390 . S
C213 H217 0.950 . S
H214 C210 0.950 . S
C215 C213 1.390 . S
C215 C216 1.387 . S
C215 H218 0.950 . S
C216 C215 1.387 . S
C216 C219 1.387 . S
H217 C213 0.950 . S
H218 C215 0.950 . S
C219 C210 1.390 . S
C219 H212 0.950 . S
C219 C216 1.387 . S
C220 C221 1.387 . S
C220 H224 0.950 . S
C220 C229 1.390 . S
C221 C220 1.387 . S
C221 C223 1.387 . S
H222 C229 0.950 . S
C223 C221 1.387 . S
C223 C225 1.390 . S
C223 H227 0.950 . S
H224 C220 0.950 . S
C225 C223 1.390 . S
C225 C226 1.387 . S
C225 H228 0.950 . S
C226 C225 1.387 . S
C226 C229 1.387 . S
H227 C223 0.950 . S
H228 C225 0.950 . S
C229 C220 1.390 . S
C229 H222 0.950 . S
C229 C226 1.387 . S
C230 C231 1.387 . S
C230 H234 0.950 . S
C230 C239 1.390 . S
C231 C230 1.387 . S
C231 C233 1.387 . S
H232 C239 0.950 . S
C233 C231 1.387 . S
C233 C235 1.390 . S
C233 H237 0.950 . S
H234 C230 0.950 . S
C235 C233 1.390 . S
C235 C236 1.387 . S
C235 H238 0.950 . S
C236 C235 1.387 . S
C236 C239 1.387 . S
H237 C233 0.950 . S
H238 C235 0.950 . S
C239 C230 1.390 . S
C239 H232 0.950 . S
C239 C236 1.387 . S
C240 C241 1.387 1_556 S
C240 H244 0.950 . S
C240 C249 1.390 . S
C241 C240 1.387 1_554 S
C241 C243 1.387 . S
H242 C249 0.950 . S
C243 C241 1.387 . S
C243 C245 1.390 . S
C243 H247 0.950 . S
H244 C240 0.950 . S
C245 C243 1.390 . S
C245 C246 1.387 1_554 S
C245 H248 0.950 . S
C246 C245 1.387 1_556 S
C246 C249 1.387 . S
H247 C243 0.950 . S
H248 C245 0.950 . S
C249 C240 1.390 . S
C249 H242 0.950 . S
C249 C246 1.387 . S
C250 C251 1.387 . S
C250 H254 0.950 . S
C250 C259 1.390 1_554 S
C251 C250 1.387 . S
C251 C253 1.387 . S
H252 C259 0.950 . S
C253 C251 1.387 . S
C253 C255 1.390 1_554 S
C253 H257 0.950 . S
H254 C250 0.950 . S
C255 C253 1.390 1_556 S
C255 C256 1.387 . S
C255 H258 0.950 . S
C256 C255 1.387 . S
C256 C259 1.387 . S
H257 C253 0.950 . S
H258 C255 0.950 . S
C259 C250 1.390 1_556 S
C259 H252 0.950 . S
C259 C256 1.387 . S
C260 C261 1.387 1_554 S
C260 H264 0.950 . S
C260 C269 1.390 . S
C261 C260 1.387 1_556 S
C261 C263 1.387 . S
H262 C269 0.950 . S
C263 C261 1.387 . S
C263 C265 1.390 . S
C263 H267 0.950 . S
H264 C260 0.950 . S
C265 C263 1.390 . S
C265 C266 1.387 1_556 S
C265 H268 0.950 . S
C266 C265 1.387 1_554 S
C266 C269 1.387 . S
H267 C263 0.950 . S
H268 C265 0.950 . S
C269 C260 1.390 . S
C269 H262 0.950 . S
C269 C266 1.387 . S
C270 C271 1.387 . S
C270 H274 0.950 . S
C270 C279 1.390 1_556 S
C271 C270 1.387 . S
C271 C273 1.387 . S
H272 C279 0.950 . S
C273 C271 1.387 . S
C273 C275 1.390 1_556 S
C273 H277 0.950 . S
H274 C270 0.950 . S
C275 C273 1.390 1_554 S
C275 C276 1.387 . S
C275 H278 0.950 . S
C276 C275 1.387 . S
C276 C279 1.387 . S
H277 C273 0.950 . S
H278 C275 0.950 . S
C279 C270 1.390 1_554 S
C279 H272 0.950 . S
C279 C276 1.387 . S
C161 C103 2.035 . S
C166 C2 2.035 . S
C171 C63 2.728 . S
C176 C122 2.728 . S
C181 C143 2.033 . S
C186 C42 2.033 . S
C191 C23 2.729 . S
C196 C82 2.729 . S
C201 C124 1.646 . S
C206 C25 1.646 . S
C211 C111 1.588 . S
C216 C60 1.588 . S
C221 C84 1.646 . S
C226 C65 1.646 . S
C231 C20 1.588 . S
C236 C151 1.588 . S
C241 C140 2.210 1_554 S
C246 C31 2.210 1_556 S
C251 C105 1.071 . S
C256 C44 1.071 . S
C261 C71 2.212 1_556 S
C266 C100 2.212 1_554 S
C271 C4 1.071 . S
C276 C145 1.071 . S
