# Generated by pormake.
# Topology wlh, (5)-cn, num edge types: 1
# Building blocks:
#     Node 0, Type 0, BuildingBlock: XOMCOT_clean_sbu_1, # of connection points: 5
#     Node 1, Type 0, BuildingBlock: XOMCOT_clean_sbu_1, # of connection points: 5
#     Node 2, Type 0, BuildingBlock: XOMCOT_clean_sbu_1, # of connection points: 5
#     Node 3, Type 0, BuildingBlock: XOMCOT_clean_sbu_1, # of connection points: 5
#     Node 4, Type 0, BuildingBlock: XOMCOT_clean_sbu_1, # of connection points: 5
#     Node 5, Type 0, BuildingBlock: XOMCOT_clean_sbu_1, # of connection points: 5
#     Node 6, Type 0, BuildingBlock: XOMCOT_clean_sbu_1, # of connection points: 5
#     Node 7, Type 0, BuildingBlock: XOMCOT_clean_sbu_1, # of connection points: 5
#     Node 8, Type 0, BuildingBlock: XOMCOT_clean_sbu_1, # of connection points: 5
#     Node 9, Type 0, BuildingBlock: XOMCOT_clean_sbu_1, # of connection points: 5
#     Node 10, Type 0, BuildingBlock: XOMCOT_clean_sbu_1, # of connection points: 5
#     Node 11, Type 0, BuildingBlock: XOMCOT_clean_sbu_1, # of connection points: 5
#     Node 12, Type 0, BuildingBlock: XOMCOT_clean_sbu_1, # of connection points: 5
#     Node 13, Type 0, BuildingBlock: XOMCOT_clean_sbu_1, # of connection points: 5
#     Node 14, Type 0, BuildingBlock: XOMCOT_clean_sbu_1, # of connection points: 5
#     Node 15, Type 0, BuildingBlock: XOMCOT_clean_sbu_1, # of connection points: 5
#     Node 16, Type 0, BuildingBlock: XOMCOT_clean_sbu_1, # of connection points: 5
#     Node 17, Type 0, BuildingBlock: XOMCOT_clean_sbu_1, # of connection points: 5
#     Node 18, Type 0, BuildingBlock: XOMCOT_clean_sbu_1, # of connection points: 5
#     Node 19, Type 0, BuildingBlock: XOMCOT_clean_sbu_1, # of connection points: 5
#     Node 20, Type 0, BuildingBlock: XOMCOT_clean_sbu_1, # of connection points: 5
#     Node 21, Type 0, BuildingBlock: XOMCOT_clean_sbu_1, # of connection points: 5
#     Node 22, Type 0, BuildingBlock: XOMCOT_clean_sbu_1, # of connection points: 5
#     Node 23, Type 0, BuildingBlock: XOMCOT_clean_sbu_1, # of connection points: 5
#     Node 24, Type 0, BuildingBlock: XOMCOT_clean_sbu_1, # of connection points: 5
#     Node 25, Type 0, BuildingBlock: XOMCOT_clean_sbu_1, # of connection points: 5
#     Node 26, Type 0, BuildingBlock: XOMCOT_clean_sbu_1, # of connection points: 5
#     Node 27, Type 0, BuildingBlock: XOMCOT_clean_sbu_1, # of connection points: 5
#     Node 28, Type 0, BuildingBlock: XOMCOT_clean_sbu_1, # of connection points: 5
#     Node 29, Type 0, BuildingBlock: XOMCOT_clean_sbu_1, # of connection points: 5
#     Node 30, Type 0, BuildingBlock: XOMCOT_clean_sbu_1, # of connection points: 5
#     Node 31, Type 0, BuildingBlock: XOMCOT_clean_sbu_1, # of connection points: 5
#     Node 32, Type 0, BuildingBlock: XOMCOT_clean_sbu_1, # of connection points: 5
#     Node 33, Type 0, BuildingBlock: XOMCOT_clean_sbu_1, # of connection points: 5
#     Node 34, Type 0, BuildingBlock: XOMCOT_clean_sbu_1, # of connection points: 5
#     Node 35, Type 0, BuildingBlock: XOMCOT_clean_sbu_1, # of connection points: 5
#     Edge 36, Type (0, 0), BuildingBlock: AJUNOK_clean_linker_0, # of connection points: 2
#     Edge 37, Type (0, 0), BuildingBlock: AJUNOK_clean_linker_0, # of connection points: 2
#     Edge 38, Type (0, 0), BuildingBlock: AJUNOK_clean_linker_0, # of connection points: 2
#     Edge 39, Type (0, 0), BuildingBlock: AJUNOK_clean_linker_0, # of connection points: 2
#     Edge 40, Type (0, 0), BuildingBlock: AJUNOK_clean_linker_0, # of connection points: 2
#     Edge 41, Type (0, 0), BuildingBlock: AJUNOK_clean_linker_0, # of connection points: 2
#     Edge 42, Type (0, 0), BuildingBlock: AJUNOK_clean_linker_0, # of connection points: 2
#     Edge 43, Type (0, 0), BuildingBlock: AJUNOK_clean_linker_0, # of connection points: 2
#     Edge 44, Type (0, 0), BuildingBlock: AJUNOK_clean_linker_0, # of connection points: 2
#     Edge 45, Type (0, 0), BuildingBlock: AJUNOK_clean_linker_0, # of connection points: 2
#     Edge 46, Type (0, 0), BuildingBlock: AJUNOK_clean_linker_0, # of connection points: 2
#     Edge 47, Type (0, 0), BuildingBlock: AJUNOK_clean_linker_0, # of connection points: 2
#     Edge 48, Type (0, 0), BuildingBlock: AJUNOK_clean_linker_0, # of connection points: 2
#     Edge 49, Type (0, 0), BuildingBlock: AJUNOK_clean_linker_0, # of connection points: 2
#     Edge 50, Type (0, 0), BuildingBlock: AJUNOK_clean_linker_0, # of connection points: 2
#     Edge 51, Type (0, 0), BuildingBlock: AJUNOK_clean_linker_0, # of connection points: 2
#     Edge 52, Type (0, 0), BuildingBlock: AJUNOK_clean_linker_0, # of connection points: 2
#     Edge 53, Type (0, 0), BuildingBlock: AJUNOK_clean_linker_0, # of connection points: 2
#     Edge 54, Type (0, 0), BuildingBlock: AJUNOK_clean_linker_0, # of connection points: 2
#     Edge 55, Type (0, 0), BuildingBlock: AJUNOK_clean_linker_0, # of connection points: 2
#     Edge 56, Type (0, 0), BuildingBlock: AJUNOK_clean_linker_0, # of connection points: 2
#     Edge 57, Type (0, 0), BuildingBlock: AJUNOK_clean_linker_0, # of connection points: 2
#     Edge 58, Type (0, 0), BuildingBlock: AJUNOK_clean_linker_0, # of connection points: 2
#     Edge 59, Type (0, 0), BuildingBlock: AJUNOK_clean_linker_0, # of connection points: 2
#     Edge 60, Type (0, 0), BuildingBlock: AJUNOK_clean_linker_0, # of connection points: 2
#     Edge 61, Type (0, 0), BuildingBlock: AJUNOK_clean_linker_0, # of connection points: 2
#     Edge 62, Type (0, 0), BuildingBlock: AJUNOK_clean_linker_0, # of connection points: 2
#     Edge 63, Type (0, 0), BuildingBlock: AJUNOK_clean_linker_0, # of connection points: 2
#     Edge 64, Type (0, 0), BuildingBlock: AJUNOK_clean_linker_0, # of connection points: 2
#     Edge 65, Type (0, 0), BuildingBlock: AJUNOK_clean_linker_0, # of connection points: 2
#     Edge 66, Type (0, 0), BuildingBlock: AJUNOK_clean_linker_0, # of connection points: 2
#     Edge 67, Type (0, 0), BuildingBlock: AJUNOK_clean_linker_0, # of connection points: 2
#     Edge 68, Type (0, 0), BuildingBlock: AJUNOK_clean_linker_0, # of connection points: 2
#     Edge 69, Type (0, 0), BuildingBlock: AJUNOK_clean_linker_0, # of connection points: 2
#     Edge 70, Type (0, 0), BuildingBlock: AJUNOK_clean_linker_0, # of connection points: 2
#     Edge 71, Type (0, 0), BuildingBlock: AJUNOK_clean_linker_0, # of connection points: 2
#     Edge 72, Type (0, 0), BuildingBlock: AJUNOK_clean_linker_0, # of connection points: 2
#     Edge 73, Type (0, 0), BuildingBlock: AJUNOK_clean_linker_0, # of connection points: 2
#     Edge 74, Type (0, 0), BuildingBlock: AJUNOK_clean_linker_0, # of connection points: 2
#     Edge 75, Type (0, 0), BuildingBlock: AJUNOK_clean_linker_0, # of connection points: 2
#     Edge 76, Type (0, 0), BuildingBlock: AJUNOK_clean_linker_0, # of connection points: 2
#     Edge 77, Type (0, 0), BuildingBlock: AJUNOK_clean_linker_0, # of connection points: 2
#     Edge 78, Type (0, 0), BuildingBlock: AJUNOK_clean_linker_0, # of connection points: 2
#     Edge 79, Type (0, 0), BuildingBlock: AJUNOK_clean_linker_0, # of connection points: 2
#     Edge 80, Type (0, 0), BuildingBlock: AJUNOK_clean_linker_0, # of connection points: 2
#     Edge 81, Type (0, 0), BuildingBlock: AJUNOK_clean_linker_0, # of connection points: 2
#     Edge 82, Type (0, 0), BuildingBlock: AJUNOK_clean_linker_0, # of connection points: 2
#     Edge 83, Type (0, 0), BuildingBlock: AJUNOK_clean_linker_0, # of connection points: 2
#     Edge 84, Type (0, 0), BuildingBlock: AJUNOK_clean_linker_0, # of connection points: 2
#     Edge 85, Type (0, 0), BuildingBlock: AJUNOK_clean_linker_0, # of connection points: 2
#     Edge 86, Type (0, 0), BuildingBlock: AJUNOK_clean_linker_0, # of connection points: 2
#     Edge 87, Type (0, 0), BuildingBlock: AJUNOK_clean_linker_0, # of connection points: 2
#     Edge 88, Type (0, 0), BuildingBlock: AJUNOK_clean_linker_0, # of connection points: 2
#     Edge 89, Type (0, 0), BuildingBlock: AJUNOK_clean_linker_0, # of connection points: 2
#     Edge 90, Type (0, 0), BuildingBlock: AJUNOK_clean_linker_0, # of connection points: 2
#     Edge 91, Type (0, 0), BuildingBlock: AJUNOK_clean_linker_0, # of connection points: 2
#     Edge 92, Type (0, 0), BuildingBlock: AJUNOK_clean_linker_0, # of connection points: 2
#     Edge 93, Type (0, 0), BuildingBlock: AJUNOK_clean_linker_0, # of connection points: 2
#     Edge 94, Type (0, 0), BuildingBlock: AJUNOK_clean_linker_0, # of connection points: 2
#     Edge 95, Type (0, 0), BuildingBlock: AJUNOK_clean_linker_0, # of connection points: 2
#     Edge 96, Type (0, 0), BuildingBlock: AJUNOK_clean_linker_0, # of connection points: 2
#     Edge 97, Type (0, 0), BuildingBlock: AJUNOK_clean_linker_0, # of connection points: 2
#     Edge 98, Type (0, 0), BuildingBlock: AJUNOK_clean_linker_0, # of connection points: 2
#     Edge 99, Type (0, 0), BuildingBlock: AJUNOK_clean_linker_0, # of connection points: 2
#     Edge 100, Type (0, 0), BuildingBlock: AJUNOK_clean_linker_0, # of connection points: 2
#     Edge 101, Type (0, 0), BuildingBlock: AJUNOK_clean_linker_0, # of connection points: 2
#     Edge 102, Type (0, 0), BuildingBlock: AJUNOK_clean_linker_0, # of connection points: 2
#     Edge 103, Type (0, 0), BuildingBlock: AJUNOK_clean_linker_0, # of connection points: 2
#     Edge 104, Type (0, 0), BuildingBlock: AJUNOK_clean_linker_0, # of connection points: 2
#     Edge 105, Type (0, 0), BuildingBlock: AJUNOK_clean_linker_0, # of connection points: 2
#     Edge 106, Type (0, 0), BuildingBlock: AJUNOK_clean_linker_0, # of connection points: 2
#     Edge 107, Type (0, 0), BuildingBlock: AJUNOK_clean_linker_0, # of connection points: 2
#     Edge 108, Type (0, 0), BuildingBlock: AJUNOK_clean_linker_0, # of connection points: 2
#     Edge 109, Type (0, 0), BuildingBlock: AJUNOK_clean_linker_0, # of connection points: 2
#     Edge 110, Type (0, 0), BuildingBlock: AJUNOK_clean_linker_0, # of connection points: 2
#     Edge 111, Type (0, 0), BuildingBlock: AJUNOK_clean_linker_0, # of connection points: 2
#     Edge 112, Type (0, 0), BuildingBlock: AJUNOK_clean_linker_0, # of connection points: 2
#     Edge 113, Type (0, 0), BuildingBlock: AJUNOK_clean_linker_0, # of connection points: 2
#     Edge 114, Type (0, 0), BuildingBlock: AJUNOK_clean_linker_0, # of connection points: 2
#     Edge 115, Type (0, 0), BuildingBlock: AJUNOK_clean_linker_0, # of connection points: 2
#     Edge 116, Type (0, 0), BuildingBlock: AJUNOK_clean_linker_0, # of connection points: 2
#     Edge 117, Type (0, 0), BuildingBlock: AJUNOK_clean_linker_0, # of connection points: 2
#     Edge 118, Type (0, 0), BuildingBlock: AJUNOK_clean_linker_0, # of connection points: 2
#     Edge 119, Type (0, 0), BuildingBlock: AJUNOK_clean_linker_0, # of connection points: 2
#     Edge 120, Type (0, 0), BuildingBlock: AJUNOK_clean_linker_0, # of connection points: 2
#     Edge 121, Type (0, 0), BuildingBlock: AJUNOK_clean_linker_0, # of connection points: 2
#     Edge 122, Type (0, 0), BuildingBlock: AJUNOK_clean_linker_0, # of connection points: 2
#     Edge 123, Type (0, 0), BuildingBlock: AJUNOK_clean_linker_0, # of connection points: 2
#     Edge 124, Type (0, 0), BuildingBlock: AJUNOK_clean_linker_0, # of connection points: 2
#     Edge 125, Type (0, 0), BuildingBlock: AJUNOK_clean_linker_0, # of connection points: 2
# Relax obj value: 0.341
# Max RMSD: 0.229
# Mean RMSD: 0.229
data_MOF--net-wlh--node1-XOMCOT_clean_sbu_1--edge1-AJUNOK_clean_linker_0
_symmetry_space_group_name_H-M    P1
_symmetry_Int_Tables_number       1
_symmetry_cell_setting            triclinic
loop_
_symmetry_equiv_pos_as_xyz
'x, y, z'
_cell_length_a     30.10099
_cell_length_b     30.107745
_cell_length_c     118.97255
_cell_angle_alpha  89.967141
_cell_angle_beta   90.060822
_cell_angle_gamma 119.97133
loop_
_atom_site_label
_atom_site_type_symbol
_atom_site_fract_x
_atom_site_fract_y
_atom_site_fract_z
_atom_type_partial_charge
C0 C 0.15886 0.25036 0.19927 0.0
C1 C 0.17908 0.21808 0.19877 0.0
N2 N 0.1494 0.17871 0.19189 0.0
N3 N 0.11683 0.23137 0.19269 0.0
C4 C 0.11216 0.1878 0.18831 0.0
H5 H 0.17551 0.28687 0.20356 0.0
Co6 Co 0.08309 0.26535 0.18762 0.0
C7 C 0.97487 0.185 0.18573 0.0
O8 O 0.96431 0.22006 0.18926 0.0
N9 N 0.04984 0.30039 0.18163 0.0
C10 C 1.00555 0.3161 0.16871 0.0
C11 C 0.02547 0.28555 0.1716 0.0
C12 C 0.04624 0.34242 0.18435 0.0
N13 N 0.01854 0.3519 0.17671 0.0
O14 O 0.11656 0.27322 0.17344 0.0
H15 H 0.02257 0.25424 0.16659 0.0
H16 H 0.06433 0.36661 0.19155 0.0
O17 O 0.02169 0.19781 0.18367 0.0
C18 C 0.15868 0.31567 0.1744 0.0
O19 O 0.16274 0.34582 0.18279 0.0
N20 N 0.05685 0.26125 0.20232 0.0
C21 C 0.03056 0.25839 0.22491 0.0
C22 C 0.01593 0.21306 0.21902 0.0
C23 C 0.03093 0.21537 0.20786 0.0
C24 C 0.07422 0.30585 0.20818 0.0
C25 C 0.06096 0.30536 0.21949 0.0
H26 H 0.02308 0.18005 0.20384 0.0
H27 H 0.10067 0.34191 0.20429 0.0
H28 H 0.08443 0.16521 0.18191 0.0
H29 H 0.21381 0.22395 0.20283 0.0
H30 H 0.98503 0.31373 0.16105 0.0
H31 H 0.99471 0.17615 0.22314 0.0
H32 H 0.07506 0.34116 0.224 0.0
C33 C 0.73367 0.91133 0.19544 0.0
C34 C 0.7637 0.96371 0.19529 0.0
N35 N 0.81096 0.97595 0.19172 0.0
N36 N 0.7614 0.8903 0.19183 0.0
C37 C 0.80842 0.93067 0.18955 0.0
H38 H 0.69377 0.88976 0.19787 0.0
Co39 Co 0.73262 0.81977 0.19019 0.0
C40 C 0.82979 0.83563 0.17829 0.0
O41 O 0.82044 0.84774 0.1683 0.0
N42 N 0.70298 0.74725 0.18853 0.0
C43 C 0.68648 0.66755 0.19189 0.0
C44 C 0.71615 0.71809 0.19478 0.0
C45 C 0.66556 0.71283 0.18164 0.0
N46 N 0.65488 0.66388 0.18348 0.0
O47 O 0.71607 0.82769 0.17493 0.0
H48 H 0.74484 0.73214 0.20132 0.0
H49 H 0.64667 0.72337 0.17533 0.0
O50 O 0.79823 0.82632 0.18628 0.0
C51 C 0.67324 0.82704 0.17529 0.0
O52 O 0.6446 0.80646 0.18424 0.0
N53 N 0.74569 0.81534 0.20543 0.0
C54 C 0.75924 0.80457 0.22818 0.0
C55 C 0.80163 0.83288 0.22122 0.0
C56 C 0.79401 0.83883 0.20989 0.0
C57 C 0.70389 0.78975 0.21221 0.0
C58 C 0.70981 0.78363 0.22366 0.0
H59 H 0.8271 0.86222 0.20472 0.0
H60 H 0.66583 0.7731 0.20863 0.0
H61 H 0.84035 0.92723 0.18648 0.0
H62 H 0.75128 0.9907 0.19747 0.0
H63 H 0.68734 0.63604 0.19603 0.0
H64 H 0.84029 0.85059 0.22454 0.0
H65 H 0.67625 0.76198 0.22887 0.0
C66 C 0.08587 0.83309 0.19516 0.0
C67 C 0.0335 0.81247 0.19441 0.0
N68 N 0.02361 0.84401 0.18814 0.0
N69 N 0.10915 0.87726 0.18934 0.0
C70 C 0.07035 0.88225 0.18498 0.0
H71 H 0.10577 0.81663 0.19952 0.0
Co72 Co 0.17965 0.91962 0.18726 0.0
C73 C 0.18988 0.01801 0.17793 0.0
O74 O 0.22905 0.02799 0.17143 0.0
N75 N 0.25208 0.96309 0.18515 0.0
C76 C 0.33157 0.0279 0.18793 0.0
C77 C 0.28092 0.0075 0.19076 0.0
C78 C 0.28681 0.95789 0.17881 0.0
N79 N 0.33569 0.99722 0.18028 0.0
O80 O 0.16959 0.89573 0.17198 0.0
H81 H 0.26624 0.02409 0.19672 0.0
H82 H 0.2765 0.9259 0.17322 0.0
O83 O 0.1685 0.97677 0.18368 0.0
C84 C 0.16807 0.8525 0.1716 0.0
O85 O 0.18651 0.8396 0.18023 0.0
N86 N 0.18669 0.93753 0.20254 0.0
C87 C 0.20307 0.96323 0.22523 0.0
C88 C 0.17346 0.97731 0.21866 0.0
C89 C 0.165 0.96339 0.20735 0.0
C90 C 0.21354 0.92139 0.20893 0.0
C91 C 0.22231 0.93394 0.22034 0.0
H92 H 0.14099 0.97355 0.20252 0.0
H93 H 0.22907 0.89952 0.20508 0.0
H94 H 0.07629 0.91293 0.17941 0.0
H95 H 1.00528 0.77624 0.19799 0.0
H96 H 0.3629 0.06199 0.19162 0.0
H97 H 0.15682 0.99871 0.22227 0.0
H98 H 0.24484 0.92192 0.22523 0.0
C99 C 0.25377 0.15998 0.2977 0.0
C100 C 0.22301 0.18162 0.2988 0.0
N101 N 0.19162 0.15995 0.30769 0.0
N102 N 0.24143 0.12435 0.30577 0.0
C103 C 0.20367 0.12535 0.31174 0.0
H104 H 0.28347 0.16981 0.29149 0.0
Co105 Co 0.2727 0.08546 0.30882 0.0
C106 C 0.19033 0.99895 0.32243 0.0
O107 O 0.22121 0.99804 0.33012 0.0
N108 N 0.30402 0.04577 0.31197 0.0
C109 C 0.31664 0.97931 0.31364 0.0
C110 C 0.2829 0.99488 0.31027 0.0
C111 C 0.35139 0.06044 0.31605 0.0
N112 N 0.36008 0.02049 0.31734 0.0
O113 O 0.29271 0.11912 0.32315 0.0
H114 H 0.24491 0.9703 0.30689 0.0
H115 H 0.37903 0.09997 0.31779 0.0
O116 O 0.20807 0.03162 0.3145 0.0
C117 C 0.33218 0.16317 0.32153 0.0
O118 O 0.3552 0.17145 0.31175 0.0
N119 N 0.25603 0.05709 0.29439 0.0
C120 C 0.24085 0.02528 0.27207 0.0
C121 C 0.19905 0.00875 0.27937 0.0
C122 C 0.20735 0.02574 0.2905 0.0
C123 C 0.29709 0.07325 0.28741 0.0
C124 C 0.29038 0.0578 0.27618 0.0
H125 H 0.17447 0.01449 0.29585 0.0
H126 H 0.33525 0.0989 0.29057 0.0
H127 H 0.185 0.10066 0.31885 0.0
H128 H 0.22399 0.21137 0.29351 0.0
H129 H 0.3089 0.94015 0.3136 0.0
H130 H 0.16023 0.98422 0.27639 0.0
H131 H 0.3235 0.0713 0.27075 0.0
C132 C 0.84865 0.10338 0.30238 0.0
C133 C 0.82707 0.0512 0.30408 0.0
N134 N 0.85998 0.0432 0.31024 0.0
N135 N 0.89482 0.12795 0.30749 0.0
C136 C 0.90056 0.09008 0.31217 0.0
H137 H 0.83087 0.12235 0.29816 0.0
Co138 Co 0.93559 0.19857 0.31016 0.0
C139 C 0.02316 0.19058 0.32109 0.0
O140 O 0.0146 0.19933 0.33145 0.0
N141 N 0.97775 0.27002 0.31313 0.0
C142 C 0.04754 0.34742 0.31397 0.0
C143 C 0.02849 0.29715 0.31094 0.0
C144 C 0.96682 0.30543 0.31732 0.0
N145 N 0.00875 0.35326 0.31788 0.0
O146 O 0.9106 0.18477 0.32537 0.0
H147 H 0.05072 0.28151 0.30735 0.0
H148 H 0.92872 0.29634 0.31986 0.0
O149 O 0.99398 0.18931 0.31317 0.0
C150 C 0.86667 0.18186 0.32512 0.0
O151 O 0.85569 0.20045 0.31622 0.0
N152 N 0.95432 0.21017 0.29496 0.0
C153 C 0.97831 0.23006 0.27224 0.0
C154 C 0.9886 0.19572 0.27805 0.0
C155 C 0.9753 0.18545 0.28938 0.0
C156 C 0.9428 0.24267 0.28935 0.0
C157 C 0.95459 0.25327 0.27796 0.0
H158 H 0.98111 0.15703 0.29362 0.0
H159 H 0.9243 0.26045 0.29376 0.0
H160 H 0.93245 0.09656 0.31746 0.0
H161 H 0.78985 0.02154 0.30117 0.0
H162 H 0.08751 0.37668 0.31362 0.0
H163 H 1.00572 0.17615 0.27378 0.0
H164 H 0.94556 0.27953 0.27367 0.0
C165 C 0.92662 0.76522 0.30317 0.0
C166 C 0.97902 0.79441 0.30465 0.0
N167 N 0.98865 0.83464 0.31123 0.0
N168 N 0.90367 0.78715 0.30879 0.0
C169 C 0.94257 0.8295 0.31357 0.0
H170 H 0.90638 0.72918 0.29871 0.0
Co171 Co 0.83396 0.75794 0.31175 0.0
C172 C 0.83015 0.84532 0.32356 0.0
O173 O 0.80002 0.81705 0.33175 0.0
N174 N 0.76295 0.72796 0.31481 0.0
C175 C 0.68369 0.71558 0.31552 0.0
C176 C 0.73359 0.74912 0.31256 0.0
C177 C 0.72941 0.68071 0.31882 0.0
N178 N 0.68064 0.67218 0.3195 0.0
O179 O 0.84824 0.74298 0.32661 0.0
H180 H 0.74745 0.78663 0.30889 0.0
H181 H 0.74058 0.65274 0.32082 0.0
O182 O 0.84486 0.82505 0.31612 0.0
C183 C 0.85078 0.7018 0.32655 0.0
O184 O 0.83349 0.67203 0.31766 0.0
N185 N 0.82204 0.76985 0.29693 0.0
C186 C 0.79911 0.77923 0.27472 0.0
C187 C 0.82901 0.82294 0.28124 0.0
C188 C 0.84077 0.81747 0.29231 0.0
C189 C 0.79408 0.72694 0.29061 0.0
C190 C 0.78219 0.73075 0.27943 0.0
H191 H 0.86525 0.85163 0.29708 0.0
H192 H 0.78071 0.68955 0.29431 0.0
H193 H 0.93737 0.85469 0.31922 0.0
H194 H 1.00773 0.78647 0.30129 0.0
H195 H 0.65222 0.72315 0.31491 0.0
H196 H 0.8438 0.86097 0.27773 0.0
H197 H 0.75952 0.69624 0.27455 0.0
C198 C 0.8905 0.7641 0.80152 0.0
C199 C 0.86669 0.79307 0.80203 0.0
N200 N 0.89277 0.83185 0.80932 0.0
N201 N 0.93154 0.78467 0.80841 0.0
C202 C 0.93214 0.82616 0.81298 0.0
H203 H 0.87697 0.72856 0.79696 0.0
Co204 Co 0.96721 0.75229 0.8133 0.0
C205 C 0.07589 0.83412 0.81449 0.0
O206 O 0.08705 0.80069 0.81017 0.0
N207 N 1.00205 0.71835 0.81897 0.0
C208 C 0.04916 0.70262 0.83111 0.0
C209 C 0.03018 0.73436 0.82852 0.0
C210 C 1.00245 0.6746 0.81627 0.0
N211 N 0.03188 0.66512 0.8234 0.0
O212 O 0.9386 0.74839 0.82793 0.0
H213 H 0.03593 0.76694 0.83347 0.0
H214 H 0.98066 0.64909 0.80951 0.0
O215 O 0.02876 0.82015 0.81655 0.0
C216 C 0.8983 0.70498 0.82942 0.0
O217 O 0.88987 0.66766 0.82246 0.0
N218 N 0.98969 0.75344 0.79832 0.0
C219 C 0.00888 0.75087 0.77537 0.0
C220 C 0.02784 0.79762 0.78102 0.0
C221 C 0.01647 0.79812 0.79238 0.0
C222 C 0.96854 0.70768 0.79277 0.0
C223 C 0.9781 0.70543 0.78131 0.0
H224 H 0.0275 0.83468 0.79621 0.0
H225 H 0.94187 0.67288 0.79707 0.0
H226 H 0.95836 0.84928 0.81956 0.0
H227 H 0.8319 0.78523 0.79768 0.0
H228 H 0.07197 0.70541 0.8384 0.0
H229 H 0.04933 0.83362 0.77657 0.0
H230 H 0.96082 0.66865 0.7771 0.0
C231 C 0.28086 0.11674 0.79925 0.0
C232 C 0.25597 0.06395 0.79948 0.0
N233 N 0.23006 0.04766 0.80925 0.0
N234 N 0.26987 0.13396 0.80871 0.0
C235 C 0.24098 0.09099 0.81483 0.0
H236 H 0.30447 0.14093 0.79246 0.0
Co237 Co 0.2926 0.20264 0.81292 0.0
C238 C 0.17506 0.15254 0.81551 0.0
O239 O 0.1632 0.10758 0.81147 0.0
N240 N 0.3167 0.2714 0.81735 0.0
C241 C 0.32072 0.34631 0.82039 0.0
C242 C 0.29026 0.29671 0.81681 0.0
C243 C 0.36356 0.30697 0.82122 0.0
N244 N 0.36717 0.35312 0.82306 0.0
O245 O 0.3023 0.18477 0.8279 0.0
H246 H 0.25117 0.28051 0.81398 0.0
H247 H 0.39479 0.29952 0.82252 0.0
O248 O 0.22193 0.18829 0.81629 0.0
C249 C 0.34493 0.18538 0.82868 0.0
O250 O 0.37815 0.20715 0.82048 0.0
N251 N 0.2861 0.21987 0.79794 0.0
C252 C 0.2819 0.24395 0.77551 0.0
C253 C 0.23952 0.20305 0.78061 0.0
C254 C 0.24247 0.19149 0.7918 0.0
C255 C 0.32817 0.25964 0.793 0.0
C256 C 0.32669 0.27281 0.78177 0.0
H257 H 0.21026 0.15813 0.79527 0.0
H258 H 0.36339 0.28075 0.79772 0.0
H259 H 0.22615 0.09157 0.82304 0.0
H260 H 0.2554 0.03941 0.79277 0.0
H261 H 0.30882 0.37463 0.82124 0.0
H262 H 0.2047 0.17939 0.77589 0.0
H263 H 0.36046 0.30413 0.77794 0.0
C264 C 0.92281 0.16445 0.80438 0.0
C265 C 0.97557 0.18837 0.80512 0.0
N266 N 0.98823 0.15513 0.80968 0.0
N267 N 0.90233 0.11653 0.80851 0.0
C268 C 0.94305 0.11213 0.81162 0.0
H269 H 0.90073 0.18185 0.80163 0.0
Co270 Co 0.83379 0.07226 0.8121 0.0
C271 C 0.83666 0.98211 0.8227 0.0
O272 O 0.80412 0.97536 0.83077 0.0
N273 N 0.7641 0.02792 0.81578 0.0
C274 C 0.68511 0.96014 0.81624 0.0
C275 C 0.73464 0.97849 0.81258 0.0
C276 C 0.7313 0.03878 0.82126 0.0
N277 N 0.68303 0.99809 0.82175 0.0
O278 O 0.85003 0.0996 0.8271 0.0
H279 H 0.74818 0.95719 0.80774 0.0
H280 H 0.74214 0.07628 0.82454 0.0
O281 O 0.84952 0.01823 0.81562 0.0
C282 C 0.85148 0.14271 0.82766 0.0
O283 O 0.82887 0.154 0.8196 0.0
N284 N 0.82013 0.05016 0.79717 0.0
C285 C 0.79819 0.0235 0.77464 0.0
C286 C 0.82925 0.00958 0.78069 0.0
C287 C 0.84044 0.02393 0.79194 0.0
C288 C 0.79051 0.06475 0.79135 0.0
C289 C 0.77911 0.05189 0.78001 0.0
H290 H 0.86615 0.01458 0.7963 0.0
H291 H 0.77588 0.08669 0.79554 0.0
H292 H 0.93972 0.07857 0.81564 0.0
H293 H 1.00197 0.22794 0.80299 0.0
H294 H 0.65315 0.92176 0.815 0.0
H295 H 0.8457 0.98881 0.77668 0.0
H296 H 0.75548 0.06375 0.77551 0.0
C297 C 0.7531 0.8467 0.69686 0.0
C298 C 0.78102 0.82201 0.69626 0.0
N299 N 0.82407 0.8516 0.69035 0.0
N300 N 0.77841 0.8918 0.6914 0.0
C301 C 0.82185 0.89399 0.68757 0.0
H302 H 0.71609 0.83232 0.70083 0.0
Co303 Co 0.75063 0.93413 0.68909 0.0
C304 C 0.83437 0.02972 0.67869 0.0
O305 O 0.80253 0.03611 0.67226 0.0
N306 N 0.7211 0.97655 0.68695 0.0
C307 C 0.70377 0.0396 0.68961 0.0
C308 C 0.73676 0.02197 0.69213 0.0
C309 C 0.6784 0.96776 0.68126 0.0
N310 N 0.66665 1.0054 0.68281 0.0
O311 O 0.73705 0.9099 0.67385 0.0
H312 H 0.76991 0.04102 0.69755 0.0
H313 H 0.65665 0.93464 0.67599 0.0
O314 O 0.81795 0.99072 0.68511 0.0
C315 C 0.69479 0.86761 0.67298 0.0
O316 O 0.66206 0.85392 0.68135 0.0
N317 N 0.76175 0.95299 0.70426 0.0
C318 C 0.76936 0.97437 0.72714 0.0
C319 C 0.81351 0.99377 0.72048 0.0
C320 C 0.809 0.98193 0.70905 0.0
C321 C 0.71845 0.93323 0.71064 0.0
C322 C 0.72136 0.94347 0.72215 0.0
H323 H 0.8436 0.99574 0.70416 0.0
H324 H 0.68147 0.90942 0.70674 0.0
H325 H 0.85025 0.92491 0.68248 0.0
H326 H 0.77048 0.78507 0.6999 0.0
H327 H 0.70645 0.07458 0.69276 0.0
H328 H 0.85121 0.01703 0.72415 0.0
H329 H 0.68652 0.92775 0.72708 0.0
C330 C 0.17014 0.90117 0.6996 0.0
C331 C 0.19203 0.95384 0.69948 0.0
N332 N 0.1586 0.96567 0.69468 0.0
N333 N 0.12318 0.87994 0.69492 0.0
C334 C 0.11729 0.92006 0.69205 0.0
H335 H 0.18883 0.87996 0.70208 0.0
Co336 Co 0.08578 0.81356 0.68944 0.0
C337 C 0.97872 0.79331 0.68706 0.0
O338 O 0.9628 0.74699 0.69101 0.0
N339 N 0.04925 0.74643 0.68321 0.0
C340 C 1.00201 0.68618 0.67061 0.0
C341 C 0.02256 0.73676 0.67349 0.0
C342 C 0.04651 0.70105 0.68571 0.0
N343 N 0.01692 0.66369 0.67831 0.0
O344 O 0.1172 0.84038 0.67515 0.0
H345 H 0.01908 0.76521 0.66862 0.0
H346 H 0.06701 0.69545 0.69249 0.0
O347 O 0.02699 0.82435 0.68591 0.0
C348 C 0.15811 0.83823 0.67372 0.0
O349 O 0.16719 0.80951 0.6806 0.0
N350 N 0.06055 0.79004 0.70413 0.0
C351 C 0.04144 0.76705 0.72704 0.0
C352 C 0.02141 0.79409 0.72145 0.0
C353 C 0.03273 0.80662 0.71011 0.0
C354 C 0.08163 0.76505 0.70956 0.0
C355 C 0.07204 0.75254 0.72098 0.0
H356 H 0.02136 0.83209 0.70639 0.0
H357 H 0.10849 0.75734 0.70519 0.0
H358 H 0.08446 0.91614 0.68752 0.0
H359 H 0.23085 0.98095 0.70201 0.0
H360 H 0.98016 0.66787 0.6631 0.0
H361 H 0.99956 0.80799 0.72598 0.0
H362 H 0.08959 0.73304 0.7251 0.0
C363 C 0.0966 0.23897 0.70404 0.0
C364 C 0.04416 0.21066 0.7024 0.0
N365 N 0.03522 0.18984 0.69204 0.0
N366 N 0.12066 0.2354 0.69481 0.0
C367 C 0.08205 0.2069 0.68752 0.0
H368 H 0.1158 0.26001 0.71156 0.0
Co369 Co 0.19164 0.26501 0.69168 0.0
C370 C 0.15061 0.14947 0.68914 0.0
O371 O 0.1058 0.13567 0.69357 0.0
N372 N 0.26227 0.29471 0.68817 0.0
C373 C 0.34029 0.3046 0.68637 0.0
C374 C 0.29109 0.27255 0.68998 0.0
C375 C 0.29537 0.3408 0.68357 0.0
N376 N 0.34325 0.34769 0.68226 0.0
O377 O 0.17673 0.27642 0.67657 0.0
H378 H 0.27739 0.23533 0.69374 0.0
H379 H 0.28461 0.36901 0.68144 0.0
O380 O 0.1843 0.19699 0.68806 0.0
C381 C 0.17401 0.31739 0.67729 0.0
O382 O 0.19019 0.34371 0.68668 0.0
N383 N 0.20666 0.25936 0.70686 0.0
C384 C 0.23856 0.26047 0.72894 0.0
C385 C 0.19987 0.21513 0.72411 0.0
C386 C 0.18422 0.21547 0.7131 0.0
C387 C 0.2419 0.30454 0.7117 0.0
C388 C 0.25883 0.30591 0.72271 0.0
H389 H 0.15357 0.18051 0.70978 0.0
H390 H 0.2577 0.33976 0.70693 0.0
H391 H 0.0882 0.19676 0.67917 0.0
H392 H 0.0149 0.20424 0.7085 0.0
H393 H 0.37126 0.29616 0.68656 0.0
H394 H 0.18139 0.17966 0.72884 0.0
H395 H 0.28797 0.34198 0.72624 0.0
C396 C 0.83902 0.59917 0.52906 0.0
C397 C 0.86121 0.56923 0.52725 0.0
N398 N 0.82625 0.52541 0.52227 0.0
N399 N 0.79048 0.57435 0.52514 0.0
C400 C 0.78395 0.5296 0.52103 0.0
H401 H 0.85766 0.63742 0.53256 0.0
Co402 Co 0.74739 0.60182 0.52349 0.0
C403 C 0.65292 0.51503 0.51336 0.0
O404 O 0.65047 0.54499 0.50565 0.0
N405 N 0.70335 0.62985 0.52177 0.0
C406 C 0.6381 0.64326 0.52499 0.0
C407 C 0.65875 0.61276 0.52737 0.0
C408 C 0.70837 0.67069 0.51585 0.0
N409 N 0.66886 0.67961 0.5176 0.0
O410 O 0.76786 0.61365 0.50798 0.0
H411 H 0.64249 0.58056 0.53309 0.0
H412 H 0.74039 0.69353 0.51035 0.0
O413 O 0.68976 0.53351 0.52041 0.0
C414 C 0.81065 0.65548 0.50705 0.0
O415 O 0.82405 0.68886 0.51529 0.0
N416 N 0.73299 0.59337 0.53894 0.0
C417 C 0.71536 0.59092 0.56198 0.0
C418 C 0.69578 0.54529 0.55581 0.0
C419 C 0.70574 0.54725 0.54429 0.0
C420 C 0.7534 0.63803 0.54487 0.0
C421 C 0.74498 0.63771 0.55642 0.0
H422 H 0.69138 0.51168 0.53973 0.0
H423 H 0.77579 0.67416 0.54053 0.0
H424 H 0.74995 0.5017 0.51662 0.0
H425 H 0.90009 0.57906 0.52933 0.0
H426 H 0.60393 0.63963 0.52882 0.0
H427 H 0.67344 0.50844 0.55989 0.0
H428 H 0.76075 0.67369 0.56093 0.0
C429 C 0.41345 0.24849 0.52989 0.0
C430 C 0.44367 0.30086 0.52866 0.0
N431 N 0.48643 0.31054 0.52307 0.0
N432 N 0.43698 0.22527 0.52505 0.0
C433 C 0.48159 0.26424 0.521 0.0
H434 H 0.3759 0.22844 0.53373 0.0
Co435 Co 0.40686 0.15426 0.52287 0.0
C436 C 0.50501 0.16695 0.51208 0.0
O437 O 0.49403 0.17202 0.50164 0.0
N438 N 0.37648 0.08219 0.52051 0.0
C439 C 0.36283 1.00259 0.52219 0.0
C440 C 0.39441 0.05303 0.52503 0.0
C441 C 0.3337 0.04804 0.51484 0.0
N442 N 0.32432 0.99907 0.51578 0.0
O443 O 0.39486 0.16522 0.50757 0.0
H444 H 0.4277 0.06724 0.53037 0.0
H445 H 0.3103 0.05896 0.51 0.0
O446 O 0.47376 0.16123 0.51992 0.0
C447 C 0.35315 0.16679 0.50763 0.0
O448 O 0.32415 0.14953 0.51664 0.0
N449 N 0.41504 0.14568 0.53816 0.0
C450 C 0.42283 0.12789 0.56077 0.0
C451 C 0.46645 0.16189 0.55468 0.0
C452 C 0.46157 0.17115 0.5434 0.0
C453 C 0.3718 0.11446 0.54412 0.0
C454 C 0.37486 0.10477 0.55549 0.0
H455 H 0.49533 0.19848 0.53885 0.0
H456 H 0.33489 0.09626 0.53996 0.0
H457 H 0.50911 0.25906 0.5162 0.0
H458 H 0.43477 0.32961 0.53156 0.0
H459 H 0.36738 0.97073 0.52486 0.0
H460 H 0.50388 0.1813 0.55864 0.0
H461 H 0.34036 0.07888 0.56006 0.0
C462 C 0.76909 0.1871 0.53153 0.0
C463 C 0.7165 0.165 0.53105 0.0
N464 N 0.70452 0.19232 0.52388 0.0
N465 N 0.79045 0.228 0.52466 0.0
C466 C 0.75029 0.22956 0.51997 0.0
H467 H 0.7904 0.17345 0.53634 0.0
Co468 Co 0.85998 0.2689 0.52132 0.0
C469 C 0.86012 0.35902 0.5099 0.0
O470 O 0.89019 0.3623 0.50156 0.0
N471 N 0.93057 0.31011 0.51791 0.0
C472 C 0.00984 0.3764 0.51638 0.0
C473 C 0.96051 0.36086 0.51977 0.0
C474 C 0.96318 0.29551 0.51376 0.0
N475 N 0.01184 0.33528 0.51254 0.0
O476 O 0.84465 0.24072 0.50642 0.0
H477 H 0.94744 0.38522 0.52341 0.0
H478 H 0.95148 0.25605 0.51204 0.0
O479 O 0.8476 0.32446 0.51737 0.0
C480 C 0.84243 0.1972 0.50646 0.0
O481 O 0.86001 0.18507 0.51537 0.0
N482 N 0.87337 0.29178 0.53621 0.0
C483 C 0.89173 0.31462 0.559 0.0
C484 C 0.86581 0.33374 0.55263 0.0
C485 C 0.85628 0.32125 0.54125 0.0
C486 C 0.89891 0.27313 0.54227 0.0
C487 C 0.90849 0.28405 0.55372 0.0
H488 H 0.8341 0.33436 0.53665 0.0
H489 H 0.91118 0.24894 0.53821 0.0
H490 H 0.7546 0.25691 0.51359 0.0
H491 H 0.68957 0.1303 0.53537 0.0
H492 H 0.04157 0.41537 0.51661 0.0
H493 H 0.85168 0.35684 0.55651 0.0
H494 H 0.9286 0.26862 0.55841 0.0
C495 C 0.9321 0.49472 0.63562 0.0
C496 C 0.90398 0.51926 0.63652 0.0
N497 N 0.86187 0.48958 0.64269 0.0
N498 N 0.90795 0.44998 0.64126 0.0
C499 C 0.86517 0.44786 0.64546 0.0
H500 H 0.96891 0.50949 0.63154 0.0
Co501 Co 0.93572 0.40827 0.64438 0.0
C502 C 0.84905 0.32038 0.65647 0.0
O503 O 0.8781 0.31953 0.66461 0.0
N504 N 0.96457 0.36654 0.64751 0.0
C505 C 0.97685 0.29978 0.64882 0.0
C506 C 0.94369 0.31602 0.64537 0.0
C507 C 0.01129 0.38041 0.65184 0.0
N508 N 0.01971 0.34029 0.65296 0.0
O509 O 0.94908 0.43564 0.65938 0.0
H510 H 0.90661 0.29237 0.64153 0.0
H511 H 0.03891 0.41963 0.65377 0.0
O512 O 0.86837 0.35309 0.64857 0.0
C513 C 0.99035 0.47893 0.66001 0.0
O514 O 0.02211 0.49346 0.65144 0.0
N515 N 0.92477 0.38553 0.62946 0.0
C516 C 0.91668 0.36013 0.60677 0.0
C517 C 0.87262 0.34343 0.61335 0.0
C518 C 0.87742 0.3571 0.62468 0.0
C519 C 0.96803 0.4025 0.62316 0.0
C520 C 0.96487 0.39034 0.61174 0.0
H521 H 0.84291 0.34561 0.62947 0.0
H522 H 1.00518 0.42607 0.62701 0.0
H523 H 0.83854 0.41798 0.65102 0.0
H524 H 0.91412 0.55646 0.6331 0.0
H525 H 0.96923 0.26069 0.64846 0.0
H526 H 0.83476 0.32112 0.60969 0.0
H527 H 0.99967 0.40429 0.60685 0.0
C528 C 0.55399 0.44158 0.63084 0.0
C529 C 0.53573 0.38937 0.63106 0.0
N530 N 0.54338 0.37677 0.64145 0.0
N531 N 0.57417 0.46162 0.64098 0.0
C532 C 0.56669 0.42096 0.64725 0.0
H533 H 0.55321 0.46347 0.62371 0.0
Co534 Co 0.60625 0.52896 0.64638 0.0
C535 C 0.71185 0.55047 0.65162 0.0
O536 O 0.72921 0.5983 0.64856 0.0
N537 N 0.638 0.5963 0.65255 0.0
C538 C 0.6765 0.65585 0.66584 0.0
C539 C 0.65791 0.60546 0.66306 0.0
C540 C 0.64301 0.64198 0.64934 0.0
N541 N 0.66725 0.67886 0.65722 0.0
O542 O 0.56731 0.50279 0.66003 0.0
H543 H 0.65832 0.57682 0.66848 0.0
H544 H 0.62821 0.64824 0.6416 0.0
O545 O 0.66326 0.5194 0.65185 0.0
C546 C 0.5241 0.50039 0.65859 0.0
O547 O 0.51847 0.52202 0.64952 0.0
N548 N 0.63907 0.55289 0.63225 0.0
C549 C 0.66899 0.57546 0.60974 0.0
C550 C 0.68678 0.54928 0.61639 0.0
C551 C 0.67028 0.53712 0.62749 0.0
C552 C 0.62021 0.57711 0.62576 0.0
C553 C 0.63499 0.58919 0.61451 0.0
H554 H 0.67979 0.51176 0.63189 0.0
H555 H 0.59099 0.58422 0.6291 0.0
H556 H 0.5792 0.42381 0.65589 0.0
H557 H 0.51825 0.36276 0.62416 0.0
H558 H 0.69334 0.67377 0.6738 0.0
H559 H 0.71078 0.53549 0.61283 0.0
H560 H 0.61884 0.6077 0.60949 0.0
C561 C 0.58685 0.09716 0.63324 0.0
C562 C 0.63921 0.12839 0.63449 0.0
N563 N 0.64811 0.15933 0.64343 0.0
N564 N 0.56296 0.10851 0.64135 0.0
C565 C 0.60117 0.14598 0.64745 0.0
H566 H 0.56749 0.0683 0.62683 0.0
Co567 Co 0.49337 0.08057 0.64447 0.0
C568 C 0.49719 0.17391 0.65523 0.0
O569 O 0.47075 0.15018 0.66424 0.0
N570 N 0.42298 0.05326 0.64777 0.0
C571 C 0.3443 0.04259 0.64741 0.0
C572 C 0.39457 0.07413 0.6444 0.0
C573 C 0.38884 0.00887 0.65287 0.0
N574 N 0.34037 1.00122 0.65271 0.0
O575 O 0.50799 0.06915 0.65954 0.0
H576 H 0.40927 0.10962 0.63976 0.0
H577 H 0.39947 0.98293 0.65667 0.0
O578 O 0.50645 0.1491 0.64783 0.0
C579 C 0.50972 0.02762 0.65991 0.0
O580 O 0.49137 0.99628 0.65129 0.0
N581 N 0.48053 0.08876 0.6294 0.0
C582 C 0.45674 0.09568 0.60713 0.0
C583 C 0.49126 0.13966 0.61304 0.0
C584 C 0.50336 0.13526 0.62413 0.0
C585 C 0.44818 0.04525 0.62363 0.0
C586 C 0.43568 0.04784 0.61242 0.0
H587 H 0.53161 0.16915 0.6284 0.0
H588 H 0.43165 0.00844 0.6278 0.0
H589 H 0.59433 0.16201 0.65493 0.0
H590 H 0.6684 0.12874 0.62912 0.0
H591 H 0.31279 0.04912 0.64558 0.0
H592 H 0.50923 0.177 0.60905 0.0
H593 H 0.40946 0.01307 0.60797 0.0
C594 C 0.5079 0.08385 0.13188 0.0
C595 C 0.48785 0.11623 0.13261 0.0
N596 N 0.52014 0.15724 0.1388 0.0
N597 N 0.55231 0.10436 0.13768 0.0
C598 C 0.55855 0.14896 0.14181 0.0
H599 H 0.4901 0.04669 0.12785 0.0
Co600 Co 0.59 0.0728 0.14155 0.0
C601 C 0.681 0.16023 0.15323 0.0
O602 O 0.67852 0.13255 0.16199 0.0
N603 N 0.62852 0.04088 0.14553 0.0
C604 C 0.69395 0.02647 0.14713 0.0
C605 C 0.67893 0.06019 0.14344 0.0
C606 C 0.61355 0.99447 0.15024 0.0
N607 N 0.65291 0.98477 0.15144 0.0
O608 O 0.56039 0.0626 0.15639 0.0
H609 H 0.70348 0.09663 0.13941 0.0
H610 H 0.57419 0.9679 0.15241 0.0
O611 O 0.6482 0.14004 0.14533 0.0
C612 C 0.51565 0.02266 0.15654 0.0
O613 O 0.50232 0.99072 0.14803 0.0
N614 N 0.61341 0.07928 0.12672 0.0
C615 C 0.63803 0.07817 0.10418 0.0
C616 C 0.66006 0.1243 0.11023 0.0
C617 C 0.64675 0.1242 0.12149 0.0
C618 C 0.59154 0.03416 0.12096 0.0
C619 C 0.60316 0.03272 0.10964 0.0
H620 H 0.66265 0.1604 0.12585 0.0
H621 H 0.56442 0.99911 0.12517 0.0
H622 H 0.58878 0.17347 0.14756 0.0
H623 H 0.45192 0.10971 0.12907 0.0
H624 H 0.7326 0.03279 0.14677 0.0
H625 H 0.68618 0.16031 0.10618 0.0
H626 H 0.58502 0.99649 0.10519 0.0
C627 C 0.93224 0.41874 0.13681 0.0
C628 C 0.90055 0.36683 0.13848 0.0
N629 N 0.85584 0.35915 0.14276 0.0
N630 N 0.90773 0.44377 0.14003 0.0
C631 C 0.86105 0.40631 0.14356 0.0
H632 H 0.97139 0.43731 0.13383 0.0
Co633 Co 0.93889 0.51533 0.14121 0.0
C634 C 0.84371 0.51037 0.15105 0.0
O635 O 0.85644 0.51048 0.16162 0.0
N636 N 0.97018 0.58831 0.14256 0.0
C637 C 0.98684 0.66782 0.13884 0.0
C638 C 0.95652 0.61692 0.13625 0.0
C639 C 0.00872 0.62345 0.14914 0.0
N640 N 0.0195 0.6723 0.14708 0.0
O641 O 0.94787 0.50771 0.15694 0.0
H642 H 0.927 0.602 0.12989 0.0
H643 H 0.02835 0.61361 0.15541 0.0
O644 O 0.87288 0.51088 0.14325 0.0
C645 C 0.99042 0.5088 0.15852 0.0
O646 O 0.02442 0.52692 0.15037 0.0
N647 N 0.93283 0.51999 0.12557 0.0
C648 C 0.92773 0.53632 0.10269 0.0
C649 C 0.88308 0.50485 0.10878 0.0
C650 C 0.88653 0.49624 0.12019 0.0
C651 C 0.97699 0.54801 0.11961 0.0
C652 C 0.9753 0.55696 0.10812 0.0
H653 H 0.85177 0.47129 0.12474 0.0
H654 H 0.01356 0.56508 0.1239 0.0
H655 H 0.83215 0.41333 0.14715 0.0
H656 H 0.90983 0.33708 0.13678 0.0
H657 H 0.98565 0.69902 0.13462 0.0
H658 H 0.8458 0.48726 0.10476 0.0
H659 H 0.0106 0.58098 0.1036 0.0
C660 C 0.58434 0.49951 0.13159 0.0
C661 C 0.63684 0.52014 0.13195 0.0
N662 N 0.64783 0.49212 0.13912 0.0
N663 N 0.56229 0.45882 0.13853 0.0
C664 C 0.60184 0.45589 0.14311 0.0
H665 H 0.56361 0.51376 0.12676 0.0
Co666 Co 0.49304 0.41773 0.14198 0.0
C667 C 0.49015 0.3248 0.15222 0.0
O668 O 0.45855 0.32027 0.16033 0.0
N669 N 0.42275 0.37551 0.14545 0.0
C670 C 0.34357 0.30823 0.14558 0.0
C671 C 0.39303 0.32653 0.14199 0.0
C672 C 0.38995 0.38634 0.15096 0.0
N673 N 0.34145 0.34576 0.15126 0.0
O674 O 0.50919 0.44375 0.15705 0.0
H675 H 0.40645 0.30528 0.1371 0.0
H676 H 0.40122 0.4237 0.15439 0.0
O677 O 0.50529 0.36137 0.14518 0.0
C678 C 0.51142 0.48727 0.15744 0.0
O679 O 0.49338 0.50071 0.14882 0.0
N680 N 0.47858 0.39728 0.12701 0.0
C681 C 0.44813 0.36906 0.10489 0.0
C682 C 0.47859 0.35258 0.11037 0.0
C683 C 0.49402 0.36765 0.12145 0.0
C684 C 0.45056 0.41512 0.12167 0.0
C685 C 0.43485 0.40144 0.11057 0.0
H686 H 0.51823 0.3554 0.1255 0.0
H687 H 0.43972 0.43951 0.12615 0.0
H688 H 0.59696 0.42797 0.1494 0.0
H689 H 0.66449 0.55412 0.12751 0.0
H690 H 0.31173 0.26989 0.14422 0.0
H691 H 0.4908 0.32876 0.10609 0.0
H692 H 0.41191 0.41537 0.10651 0.0
C693 C 0.40481 0.18567 0.03565 0.0
C694 C 0.43552 0.16387 0.03625 0.0
N695 N 0.47153 0.18462 0.02814 0.0
N696 N 0.42151 0.22011 0.02722 0.0
C697 C 0.46223 0.2188 0.02285 0.0
H698 H 0.37123 0.17558 0.0407 0.0
Co699 Co 0.3894 0.25396 0.0214 0.0
C700 C 0.47409 0.35953 0.01711 0.0
O701 O 0.44358 0.37652 0.02039 0.0
N702 N 0.35584 0.28725 0.01502 0.0
C703 C 0.33738 0.33026 0.00233 0.0
C704 C 0.36791 0.30961 0.00476 0.0
C705 C 0.31571 0.29271 0.01839 0.0
N706 N 0.30481 0.3198 0.01094 0.0
O707 O 0.38191 0.21872 0.00754 0.0
H708 H 0.39727 0.31076 0.99933 0.0
H709 H 0.29379 0.27646 0.02594 0.0
O710 O 0.45669 0.31105 0.01667 0.0
C711 C 0.34043 0.17591 0.00665 0.0
O712 O 0.30341 0.16536 0.01386 0.0
N713 N 0.39545 0.28433 0.03565 0.0
C714 C 0.40156 0.31324 0.05812 0.0
C715 C 0.44594 0.33033 0.05171 0.0
C716 C 0.44219 0.31399 0.04065 0.0
C717 C 0.35189 0.26555 0.04196 0.0
C718 C 0.35395 0.2801 0.0532 0.0
H719 H 0.4773 0.3226 0.03646 0.0
H720 H 0.31571 0.23665 0.03849 0.0
H721 H 0.48232 0.23995 0.01542 0.0
H722 H 0.43072 0.1339 0.042 0.0
H723 H 0.33754 0.34961 0.99464 0.0
H724 H 0.48352 0.3536 0.05544 0.0
H725 H 0.31901 0.26439 0.0581 0.0
C726 C 0.80032 0.219 0.03061 0.0
C727 C 0.82528 0.27181 0.03068 0.0
N728 N 0.80198 0.28723 0.02323 0.0
N729 N 0.76113 0.20124 0.02324 0.0
C730 C 0.76294 0.2437 0.01892 0.0
H731 H 0.81109 0.19508 0.03532 0.0
Co732 Co 0.72175 0.13384 0.01828 0.0
C733 C 0.61582 0.11555 0.01872 0.0
O734 O 0.60278 0.07046 0.02305 0.0
N735 N 0.68366 0.06554 0.01253 0.0
C736 C 0.63264 1.00147 0.00103 0.0
C737 C 0.64758 0.05054 0.00437 0.0
C738 C 0.69252 0.02553 0.01332 0.0
N739 N 0.66086 0.98566 0.00666 0.0
O740 O 0.74875 0.15769 0.00355 0.0
H741 H 0.63483 0.07477 0.00053 0.0
H742 H 0.7238 0.02665 0.01801 0.0
O743 O 0.66262 0.14524 0.01573 0.0
C744 C 0.78842 0.15395 0.00159 0.0
O745 O 0.79789 0.12508 0.00833 0.0
N746 N 0.6998 0.11288 0.03339 0.0
C747 C 0.67895 0.09218 0.05631 0.0
C748 C 0.66842 0.12697 0.05087 0.0
C749 C 0.68055 0.13795 0.03954 0.0
C750 C 0.71209 0.08023 0.03871 0.0
C751 C 0.7016 0.06899 0.05017 0.0
H752 H 0.67584 0.16809 0.03583 0.0
H753 H 0.73244 0.06472 0.03429 0.0
H754 H 0.73817 0.24283 0.01223 0.0
H755 H 0.85853 0.2969 0.03569 0.0
H756 H 0.60596 0.98045 0.99432 0.0
H757 H 0.65286 0.14718 0.05547 0.0
H758 H 0.71192 0.04322 0.05425 0.0
C759 C 0.75387 0.55841 0.03541 0.0
C760 C 0.70125 0.52832 0.03575 0.0
N761 N 0.68646 0.49484 0.02715 0.0
N762 N 0.77168 0.54382 0.02659 0.0
C763 C 0.72972 0.50472 0.02178 0.0
H764 H 0.77721 0.59109 0.04071 0.0
Co765 Co 0.83633 0.57944 0.02027 0.0
C766 C 0.86313 0.49948 0.01516 0.0
O767 O 0.9103 0.53304 0.01811 0.0
N768 N 0.90168 0.61653 0.01332 0.0
C769 C 0.95965 0.63859 0.99965 0.0
C770 C 0.90966 0.60613 0.00269 0.0
C771 C 0.94746 0.6574 0.01636 0.0
N772 N 0.98333 0.67056 0.00826 0.0
O773 O 0.80474 0.58721 0.00673 0.0
H774 H 0.88067 0.57649 0.99743 0.0
H775 H 0.95474 0.67804 0.02417 0.0
O776 O 0.82917 0.51342 0.01502 0.0
C777 C 0.79144 0.62109 0.00806 0.0
O778 O 0.8052 0.64804 0.0174 0.0
N779 N 0.8646 0.57416 0.03417 0.0
C780 C 0.89616 0.56962 0.05605 0.0
C781 C 0.86789 0.52491 0.04976 0.0
C782 C 0.85097 0.52782 0.03902 0.0
C783 C 0.88967 0.61779 0.04045 0.0
C784 C 0.90638 0.61652 0.05138 0.0
H785 H 0.82448 0.49231 0.03495 0.0
H786 H 0.89433 0.6534 0.03721 0.0
H787 H 0.7304 0.48696 0.01392 0.0
H788 H 0.67561 0.53243 0.04148 0.0
H789 H 0.97703 0.63977 0.9916 0.0
H790 H 0.85649 0.48766 0.05336 0.0
H791 H 0.92594 0.65159 0.05623 0.0
C792 C 0.51146 0.93224 0.86847 0.0
C793 C 0.53764 0.90559 0.86796 0.0
N794 N 0.51156 0.86495 0.86112 0.0
N795 N 0.46916 0.90827 0.862 0.0
C796 C 0.47016 0.86727 0.85767 0.0
H797 H 0.52402 0.9684 0.8727 0.0
Co798 Co 0.42898 0.93536 0.85708 0.0
C799 C 0.32468 0.84648 0.85729 0.0
O800 O 0.3108 0.87739 0.8619 0.0
N801 N 0.39009 0.96461 0.85126 0.0
C802 C 0.33555 0.97595 0.84055 0.0
C803 C 0.3531 0.94314 0.8433 0.0
C804 C 0.39728 0.01269 0.85238 0.0
N805 N 0.36314 0.01957 0.84633 0.0
O806 O 0.45977 0.9424 0.84258 0.0
H807 H 0.3407 0.90651 0.83933 0.0
H808 H 0.4285 0.0431 0.85704 0.0
O809 O 0.37123 0.86462 0.85395 0.0
C810 C 0.50251 0.98443 0.84283 0.0
O811 O 0.50834 0.01818 0.85053 0.0
N812 N 0.40351 0.93042 0.87206 0.0
C813 C 0.36345 0.91815 0.89378 0.0
C814 C 0.36833 0.879 0.88868 0.0
C815 C 0.38877 0.88601 0.87793 0.0
C816 C 0.40366 0.97072 0.87736 0.0
C817 C 0.38284 0.96512 0.88815 0.0
H818 H 0.39155 0.85474 0.87422 0.0
H819 H 0.42044 0.00768 0.87344 0.0
H820 H 0.4433 0.84185 0.85143 0.0
H821 H 0.57391 0.91619 0.87197 0.0
H822 H 0.30695 0.96956 0.83425 0.0
H823 H 0.35666 0.8431 0.89297 0.0
H824 H 0.38179 0.99715 0.892 0.0
C825 C 0.09988 0.56111 0.8655 0.0
C826 C 0.12783 0.61366 0.86633 0.0
N827 N 0.17447 0.63044 0.86166 0.0
N828 N 0.12859 0.54445 0.86038 0.0
C829 C 0.17371 0.58735 0.85814 0.0
H830 H 0.06032 0.53673 0.86796 0.0
Co831 Co 0.10397 0.47812 0.85512 0.0
C832 C 0.19539 0.46519 0.85653 0.0
O833 O 0.16457 0.41935 0.86068 0.0
N834 N 0.07702 0.41054 0.84909 0.0
C835 C 0.06835 0.34515 0.83859 0.0
C836 C 0.10054 0.39541 0.84158 0.0
C837 C 0.0288 0.36946 0.84976 0.0
N838 N 0.02328 0.32873 0.84381 0.0
O839 O 0.1016 0.50357 0.84039 0.0
H840 H 0.13823 0.41983 0.83809 0.0
H841 H 0.99727 0.36986 0.85397 0.0
O842 O 0.17621 0.49262 0.85313 0.0
C843 C 0.05797 0.49977 0.83854 0.0
O844 O 0.01977 0.46957 0.84517 0.0
N845 N 0.10347 0.45564 0.8702 0.0
C846 C 0.10201 0.42644 0.89264 0.0
C847 C 0.14628 0.46733 0.88798 0.0
C848 C 0.14597 0.48181 0.87686 0.0
C849 C 0.05887 0.41871 0.87493 0.0
C850 C 0.05751 0.40274 0.88604 0.0
H851 H 0.18015 0.51467 0.87365 0.0
H852 H 0.02351 0.40264 0.87033 0.0
H853 H 0.20477 0.58673 0.85381 0.0
H854 H 0.1138 0.63772 0.8697 0.0
H855 H 0.07641 0.32327 0.83253 0.0
H856 H 0.18066 0.48898 0.89297 0.0
H857 H 0.02178 0.37253 0.88946 0.0
C858 C 0.48291 0.5638 0.8753 0.0
C859 C 0.43035 0.54142 0.87623 0.0
N860 N 0.41195 0.55082 0.86671 0.0
N861 N 0.49766 0.58742 0.86527 0.0
C862 C 0.45369 0.57877 0.86024 0.0
H863 H 0.50845 0.56158 0.88139 0.0
Co864 Co 0.56196 0.61817 0.85838 0.0
C865 C 0.58069 0.72175 0.85237 0.0
O866 O 0.62939 0.73992 0.85476 0.0
N867 N 0.62619 0.64818 0.85078 0.0
C868 C 0.68088 0.68358 0.83649 0.0
C869 C 0.63151 0.66563 0.8401 0.0
C870 C 0.67294 0.65397 0.85324 0.0
N871 N 0.7069 0.67666 0.8448 0.0
O872 O 0.52962 0.57642 0.84538 0.0
H873 H 0.60093 0.66474 0.83514 0.0
H874 H 0.68217 0.64058 0.8608 0.0
O875 O 0.54967 0.67326 0.85295 0.0
C876 C 0.52475 0.53195 0.84625 0.0
O877 O 0.5471 0.52334 0.85481 0.0
N878 N 0.59241 0.6552 0.87184 0.0
C879 C 0.6351 0.70243 0.89247 0.0
C880 C 0.59959 0.71185 0.88687 0.0
C881 C 0.57808 0.68726 0.87671 0.0
C882 C 0.62305 0.64193 0.87769 0.0
C883 C 0.64597 0.66605 0.88784 0.0
H884 H 0.54819 0.69249 0.87306 0.0
H885 H 0.62827 0.611 0.8747 0.0
H886 H 0.4522 0.59019 0.85169 0.0
H887 H 0.40734 0.51894 0.88327 0.0
H888 H 0.69596 0.69833 0.82822 0.0
H889 H 0.58662 0.73631 0.89053 0.0
H890 H 0.67101 0.65542 0.89214 0.0
C891 C 0.57326 0.82298 0.96931 0.0
C892 C 0.54236 0.84339 0.97155 0.0
N893 N 0.49556 0.8048 0.97425 0.0
N894 N 0.54636 0.77134 0.97054 0.0
C895 C 0.49889 0.76172 0.97359 0.0
H896 H 0.61373 0.84502 0.96742 0.0
Co897 Co 0.57631 0.728 0.97122 0.0
C898 C 0.49048 0.65095 0.97356 0.0
O899 O 0.50389 0.65954 0.96292 0.0
N900 N 0.60639 0.6861 0.97277 0.0
C901 C 0.62912 0.62738 0.96948 0.0
C902 C 0.60083 0.64886 0.96563 0.0
C903 C 0.63795 0.68624 0.98092 0.0
N904 N 0.65303 0.6513 0.97907 0.0
O905 O 0.61593 0.77265 0.98385 0.0
H906 H 0.57789 0.63818 0.95806 0.0
H907 H 0.65063 0.71232 0.98798 0.0
O908 O 0.52182 0.68175 0.98093 0.0
C909 C 0.65796 0.81519 0.98496 0.0
O910 O 0.69206 0.83129 0.97689 0.0
N911 N 0.62411 0.76609 0.95953 0.0
C912 C 0.66374 0.77479 0.93782 0.0
C913 C 0.61907 0.77684 0.93959 0.0
C914 C 0.59909 0.77054 0.95035 0.0
C915 C 0.67047 0.7685 0.95802 0.0
C916 C 0.69058 0.77206 0.94718 0.0
H917 H 0.56019 0.76299 0.95096 0.0
H918 H 0.68954 0.76186 0.96496 0.0
H919 H 0.46814 0.72456 0.97611 0.0
H920 H 0.55384 0.88368 0.97152 0.0
H921 H 0.63089 0.59588 0.96558 0.0
H922 H 0.59616 0.7768 0.93254 0.0
H923 H 0.72464 0.76896 0.94608 0.0
C924 C 0.15186 0.75755 0.96734 0.0
C925 C 0.12867 0.70507 0.96635 0.0
N926 N 0.15724 0.68914 0.97194 0.0
N927 N 0.19468 0.77459 0.97355 0.0
C928 C 0.19628 0.73199 0.97644 0.0
H929 H 0.13865 0.78187 0.96371 0.0
Co930 Co 0.24085 0.84249 0.97708 0.0
C931 C 0.3282 0.83606 0.98721 0.0
O932 O 0.33181 0.86527 0.99576 0.0
N933 N 0.288 0.91154 0.98063 0.0
C934 C 0.35706 0.98898 0.97923 0.0
C935 C 0.33581 0.93834 0.97634 0.0
C936 C 0.28152 0.94692 0.98627 0.0
N937 N 0.32315 0.99462 0.98559 0.0
O938 O 0.21643 0.82721 0.99226 0.0
H939 H 0.35325 0.92251 0.97092 0.0
H940 H 0.24654 0.93813 0.9906 0.0
O941 O 0.29365 0.82481 0.9798 0.0
C942 C 0.17545 0.82965 0.99322 0.0
O943 O 0.16496 0.85319 0.98523 0.0
N944 N 0.26023 0.85563 0.96193 0.0
C945 C 0.2872 0.87801 0.93945 0.0
C946 C 0.29125 0.83885 0.94483 0.0
C947 C 0.27755 0.8282 0.95611 0.0
C948 C 0.25405 0.89249 0.95668 0.0
C949 C 0.26835 0.90508 0.94544 0.0
H950 H 0.28032 0.79749 0.9601 0.0
H951 H 0.2387 0.91277 0.96129 0.0
H952 H 0.22572 0.73229 0.98169 0.0
H953 H 0.09327 0.68065 0.96192 0.0
H954 H 0.3936 0.01937 0.97626 0.0
H955 H 0.30526 0.81695 0.94036 0.0
H956 H 0.26423 0.93515 0.94144 0.0
C957 C 0.22736 0.39361 0.97608 0.0
C958 C 0.27986 0.42568 0.9764 0.0
N959 N 0.28934 0.47415 0.97739 0.0
N960 N 0.20407 0.42187 0.97688 0.0
C961 C 0.24298 0.4708 0.97774 0.0
H962 H 0.20734 0.35218 0.97575 0.0
Co963 Co 0.13413 0.39519 0.97945 0.0
C964 C 0.11453 0.48002 0.97561 0.0
O965 O 0.07311 0.446 0.97029 0.0
N966 N 0.06313 0.36717 0.98297 0.0
C967 C 0.9964 0.36007 0.99262 0.0
C968 C 0.04812 0.38903 0.99092 0.0
C969 C 0.01934 0.32277 0.98049 0.0
N970 N 0.97806 0.31845 0.98603 0.0
O971 O 0.1487 0.39375 0.99505 0.0
H972 H 0.07368 0.4233 0.99557 0.0
H973 H 0.01762 0.29254 0.97533 0.0
O974 O 0.14354 0.46574 0.98047 0.0
C975 C 0.14015 0.34964 0.9982 0.0
O976 O 0.10737 0.30973 0.99228 0.0
N977 N 0.12316 0.39433 0.96361 0.0
C978 C 0.11156 0.39274 0.9403 0.0
C979 C 0.14567 0.43807 0.94579 0.0
C980 C 0.15166 0.43788 0.95739 0.0
C981 C 0.09297 0.34896 0.95821 0.0
C982 C 0.08541 0.34747 0.94655 0.0
H983 H 0.17955 0.47321 0.96133 0.0
H984 H 0.07623 0.31346 0.96281 0.0
H985 H 0.23777 0.50352 0.97895 0.0
H986 H 0.30878 0.41439 0.9759 0.0
H987 H 0.97446 0.36711 0.99882 0.0
H988 H 0.16781 0.4734 0.94114 0.0
H989 H 0.06058 0.31126 0.94243 0.0
C990 C 0.19471 0.43434 0.46362 0.0
C991 C 0.17682 0.46829 0.46482 0.0
N992 N 0.19436 0.49352 0.47466 0.0
N993 N 0.22431 0.43889 0.47254 0.0
C994 C 0.22271 0.47461 0.47914 0.0
H995 H 0.18806 0.40933 0.45652 0.0
Co996 Co 0.26273 0.40677 0.47559 0.0
C997 C 0.34433 0.50585 0.48701 0.0
O998 O 0.32609 0.49627 0.4973 0.0
N999 N 0.30257 0.37535 0.4789 0.0
C1000 C 0.37097 0.36589 0.48093 0.0
C1001 C 0.35412 0.39898 0.47805 0.0
C1002 C 0.28897 0.32706 0.48224 0.0
N1003 N 0.33006 0.32014 0.48345 0.0
O1004 O 0.23453 0.39354 0.49054 0.0
H1005 H 0.37863 0.43814 0.47559 0.0
H1006 H 0.24973 0.29752 0.48376 0.0
O1007 O 0.32102 0.47334 0.47925 0.0
C1008 C 0.19022 0.35362 0.48949 0.0
O1009 O 0.18073 0.32779 0.48005 0.0
N1010 N 0.28519 0.4162 0.46064 0.0
C1011 C 0.31029 0.42443 0.43796 0.0
C1012 C 0.32114 0.46806 0.44419 0.0
C1013 C 0.30739 0.46302 0.45549 0.0
C1014 C 0.27376 0.37319 0.45464 0.0
C1015 C 0.2861 0.37645 0.44324 0.0
H1016 H 0.31339 0.49668 0.46002 0.0
H1017 H 0.25429 0.33609 0.4587 0.0
H1018 H 0.24212 0.4866 0.48714 0.0
H1019 H 0.15453 0.47516 0.45865 0.0
H1020 H 0.41073 0.37584 0.48156 0.0
H1021 H 0.33879 0.50554 0.44027 0.0
H1022 H 0.27677 0.34193 0.43859 0.0
C1023 C 0.59227 0.76867 0.46975 0.0
C1024 C 0.56078 0.7162 0.47002 0.0
N1025 N 0.51645 0.70526 0.47516 0.0
N1026 N 0.56805 0.79073 0.47473 0.0
C1027 C 0.52224 0.75126 0.47799 0.0
H1028 H 0.6314 0.7893 0.46676 0.0
Co1029 Co 0.59727 0.85894 0.47903 0.0
C1030 C 0.51132 0.87927 0.47745 0.0
O1031 O 0.54442 0.9232 0.47283 0.0
N1032 N 0.62799 0.92815 0.48427 0.0
C1033 C 0.63813 0.99437 0.49466 0.0
C1034 C 0.60626 0.94363 0.49217 0.0
C1035 C 0.67547 0.96979 0.4829 0.0
N1036 N 0.68153 0.01097 0.48876 0.0
O1037 O 0.60142 0.83681 0.49396 0.0
H1038 H 0.56992 0.91913 0.49622 0.0
H1039 H 0.7062 0.96962 0.47827 0.0
O1040 O 0.52706 0.84965 0.48135 0.0
C1041 C 0.64387 0.83725 0.49518 0.0
O1042 O 0.6803 0.863 0.48779 0.0
N1043 N 0.5956 0.87752 0.46368 0.0
C1044 C 0.5914 0.89987 0.44095 0.0
C1045 C 0.54853 0.8604 0.44633 0.0
C1046 C 0.55158 0.84943 0.45758 0.0
C1047 C 0.63882 0.91343 0.45832 0.0
C1048 C 0.63727 0.92626 0.44706 0.0
H1049 H 0.51794 0.81811 0.46138 0.0
H1050 H 0.67514 0.93146 0.46256 0.0
H1051 H 0.49438 0.75604 0.48276 0.0
H1052 H 0.57133 0.6885 0.46725 0.0
H1053 H 0.63127 0.01664 0.50085 0.0
H1054 H 0.51276 0.83765 0.44186 0.0
H1055 H 0.67173 0.95651 0.44321 0.0
C1056 C 0.22714 0.82303 0.46832 0.0
C1057 C 0.27952 0.84763 0.46698 0.0
N1058 N 0.29727 0.8193 0.47198 0.0
N1059 N 0.21172 0.77952 0.47419 0.0
C1060 C 0.25538 0.77843 0.47633 0.0
H1061 H 0.20202 0.83701 0.46561 0.0
Co1062 Co 0.14491 0.7389 0.47946 0.0
C1063 C 0.17968 0.66802 0.49037 0.0
O1064 O 0.20523 0.69561 0.49911 0.0
N1065 N 0.07673 0.69846 0.48495 0.0
C1066 C 1.00657 0.63634 0.49318 0.0
C1067 C 0.05726 0.65409 0.49079 0.0
C1068 C 0.03673 0.70728 0.48416 0.0
N1069 N 0.99331 0.66948 0.48895 0.0
O1070 O 0.16806 0.77288 0.4937 0.0
H1071 H 0.07835 0.63588 0.49357 0.0
H1072 H 0.03948 0.74101 0.48025 0.0
O1073 O 0.15904 0.68488 0.48352 0.0
C1074 C 0.16622 0.81432 0.49427 0.0
O1075 O 0.13974 0.82249 0.48659 0.0
N1076 N 0.12439 0.7096 0.46504 0.0
C1077 C 0.10358 0.68036 0.44251 0.0
C1078 C 0.13232 0.66525 0.44906 0.0
C1079 C 0.14313 0.68101 0.46022 0.0
C1080 C 0.09624 0.72465 0.45878 0.0
C1081 C 0.08544 0.71053 0.44745 0.0
H1082 H 0.16885 0.67207 0.46468 0.0
H1083 H 0.08391 0.74953 0.46245 0.0
H1084 H 0.25707 0.74902 0.48115 0.0
H1085 H 0.30282 0.88469 0.46309 0.0
H1086 H 0.98202 0.6028 0.49816 0.0
H1087 H 0.1485 0.64348 0.44542 0.0
H1088 H 0.06394 0.72375 0.44255 0.0
C1089 C 0.09692 0.515 0.3641 0.0
C1090 C 0.12652 0.49272 0.36191 0.0
N1091 N 0.16478 0.52397 0.35497 0.0
N1092 N 0.11667 0.56001 0.35856 0.0
C1093 C 0.15799 0.56428 0.35307 0.0
H1094 H 0.06214 0.49858 0.36904 0.0
Co1095 Co 0.08668 0.60079 0.35653 0.0
C1096 C 0.17325 0.69853 0.3468 0.0
O1097 O 0.14342 0.70415 0.33957 0.0
N1098 N 0.05623 0.64254 0.35439 0.0
C1099 C 0.04098 0.70724 0.35658 0.0
C1100 C 0.0727 0.68844 0.35939 0.0
C1101 C 0.01413 0.63448 0.34851 0.0
N1102 N 1.00379 0.67333 0.34975 0.0
O1103 O 0.07373 0.577 0.3412 0.0
H1104 H 0.10583 0.70729 0.36483 0.0
H1105 H 0.99203 0.60114 0.34331 0.0
O1106 O 0.15449 0.65939 0.35323 0.0
C1107 C 0.03294 0.53291 0.34155 0.0
O1108 O 1.00427 0.52177 0.3506 0.0
N1109 N 0.095 0.6175 0.37185 0.0
C1110 C 0.09471 0.63593 0.39478 0.0
C1111 C 0.14089 0.65816 0.38875 0.0
C1112 C 0.14037 0.64782 0.37727 0.0
C1113 C 0.04994 0.59491 0.37763 0.0
C1114 C 0.04888 0.60364 0.38912 0.0
H1115 H 0.17637 0.66428 0.37282 0.0
H1116 H 0.0145 0.5703 0.37324 0.0
H1117 H 0.18115 0.59492 0.34728 0.0
H1118 H 0.12031 0.45636 0.36509 0.0
H1119 H 0.04474 0.743 0.35949 0.0
H1120 H 0.17708 0.68272 0.39291 0.0
H1121 H 0.01251 0.58585 0.39352 0.0
C1122 C 0.49822 0.58453 0.3647 0.0
C1123 C 0.5192 0.63699 0.36446 0.0
N1124 N 0.49192 0.64851 0.3572 0.0
N1125 N 0.45806 0.563 0.3576 0.0
C1126 C 0.45554 0.60291 0.35307 0.0
H1127 H 0.51215 0.56345 0.36951 0.0
Co1128 Co 0.41945 0.4938 0.35386 0.0
C1129 C 0.3301 0.49118 0.34139 0.0
O1130 O 0.32819 0.46094 0.33322 0.0
N1131 N 0.38 0.42353 0.35011 0.0
C1132 C 0.31392 0.34418 0.3486 0.0
C1133 C 0.3293 0.39332 0.35201 0.0
C1134 C 0.39478 0.39126 0.34583 0.0
N1135 N 0.35507 0.34252 0.34468 0.0
O1136 O 0.45271 0.51087 0.33943 0.0
H1137 H 0.30481 0.40611 0.3557 0.0
H1138 H 0.43423 0.4032 0.34394 0.0
O1139 O 0.3643 0.50504 0.349 0.0
C1140 C 0.49618 0.5138 0.34098 0.0
O1141 O 0.5028 0.49566 0.3505 0.0
N1142 N 0.39248 0.4788 0.36837 0.0
C1143 C 0.36283 0.45579 0.3907 0.0
C1144 C 0.34377 0.481 0.38406 0.0
C1145 C 0.35964 0.49287 0.3729 0.0
C1146 C 0.41148 0.45445 0.37473 0.0
C1147 C 0.39728 0.44269 0.38597 0.0
H1148 H 0.34618 0.51414 0.36806 0.0
H1149 H 0.43833 0.44466 0.37105 0.0
H1150 H 0.42785 0.59878 0.34676 0.0
H1151 H 0.55297 0.66441 0.36902 0.0
H1152 H 0.27502 0.31228 0.34886 0.0
H1153 H 0.31795 0.49264 0.38757 0.0
H1154 H 0.41305 0.42361 0.39091 0.0
C1155 C 0.43786 0.94196 0.36411 0.0
C1156 C 0.38524 0.91124 0.36317 0.0
N1157 N 0.37525 0.86866 0.35745 0.0
N1158 N 0.46081 0.91888 0.35893 0.0
C1159 C 0.42151 0.87446 0.35491 0.0
H1160 H 0.45813 0.97934 0.36802 0.0
Co1161 Co 0.53133 0.94627 0.35606 0.0
C1162 C 0.51734 0.84761 0.34562 0.0
O1163 O 0.52079 0.862 0.33509 0.0
N1164 N 0.60248 0.97331 0.35281 0.0
C1165 C 0.67885 0.97876 0.3513 0.0
C1166 C 0.62853 0.94804 0.35434 0.0
C1167 C 0.63868 0.02011 0.34898 0.0
N1168 N 0.68588 0.0247 0.34804 0.0
O1169 O 0.51732 0.95677 0.34082 0.0
H1170 H 0.61235 0.90948 0.35752 0.0
H1171 H 0.63071 0.05049 0.34703 0.0
O1172 O 0.51979 0.87756 0.35346 0.0
C1173 C 0.51679 0.999 0.34114 0.0
O1174 O 0.53603 0.02754 0.35015 0.0
N1175 N 0.54345 0.93961 0.37134 0.0
C1176 C 0.56259 0.93272 0.394 0.0
C1177 C 0.52099 0.89185 0.38858 0.0
C1178 C 0.51209 0.89603 0.37723 0.0
C1179 C 0.58264 0.98072 0.37666 0.0
C1180 C 0.59357 0.9777 0.38796 0.0
H1181 H 0.48 0.86397 0.37315 0.0
H1182 H 0.60577 0.01609 0.37213 0.0
H1183 H 0.4264 0.8475 0.34982 0.0
H1184 H 0.35657 0.91953 0.36642 0.0
H1185 H 0.70731 0.96691 0.35121 0.0
H1186 H 0.496 0.85673 0.39307 0.0
H1187 H 0.6254 0.01036 0.392 0.0
C1188 C 0.20776 0.14964 0.18466 0.0
C1189 C 0.15852 0.13847 0.18809 0.0
C1190 C 0.21702 0.11073 0.18087 0.0
C1191 C 0.17758 0.05903 0.18059 0.0
H1192 H 0.23925 0.1888 0.18487 0.0
H1193 H 0.25575 0.12108 0.1785 0.0
S1194 S 0.04167 0.01014 0.18861 0.0
N1195 N 0.06978 0.07259 0.19076 0.0
N1196 N 0.0871 0.99945 0.18393 0.0
C1197 C 0.12811 0.04766 0.18393 0.0
C1198 C 0.11858 0.08736 0.18759 0.0
C1199 C 0.92921 0.09145 0.18008 0.0
C1200 C 0.93523 0.13051 0.18748 0.0
C1201 C 0.88922 0.04044 0.18161 0.0
C1202 C 0.85458 0.027 0.19066 0.0
H1203 H 0.95446 0.10062 0.17291 0.0
H1204 H 0.88443 0.01171 0.17551 0.0
S1205 S 0.86041 0.11324 0.21358 0.0
N1206 N 0.90675 0.15085 0.2049 0.0
N1207 N 0.83387 0.05555 0.20794 0.0
C1208 C 0.86252 0.06522 0.19847 0.0
C1209 C 0.90225 0.11681 0.19684 0.0
C1210 C 0.92096 0.86049 0.17342 0.0
C1211 C 0.87838 0.83508 0.1806 0.0
C1212 C 0.96788 0.86287 0.17587 0.0
C1213 C 0.97429 0.83954 0.18557 0.0
H1214 H 0.91847 0.87963 0.16594 0.0
H1215 H 0.99936 0.8834 0.1701 0.0
S1216 S 0.87434 0.76789 0.20716 0.0
N1217 N 0.84547 0.78476 0.1977 0.0
N1218 N 0.9335 0.79116 0.20254 0.0
C1219 C 0.93181 0.81376 0.19279 0.0
C1220 C 0.88403 0.81106 0.19025 0.0
C1221 C 0.08379 0.18908 0.30688 0.0
C1222 C 0.06794 0.18423 0.31818 0.0
C1223 C 0.12425 0.1816 0.30359 0.0
C1224 C 0.15127 0.16928 0.31145 0.0
H1225 H 0.0651 0.19912 0.30042 0.0
H1226 H 0.13384 0.18468 0.29475 0.0
S1227 S 0.12948 0.15756 0.3423 0.0
N1228 N 0.08506 0.16939 0.33739 0.0
N1229 N 0.16217 0.1567 0.33125 0.0
C1230 C 0.13727 0.16603 0.32286 0.0
C1231 C 0.09562 0.17341 0.32622 0.0
C1232 C 0.88365 0.93354 0.31554 0.0
C1233 C 0.83938 0.89803 0.32144 0.0
C1234 C 0.89069 0.98139 0.31217 0.0
C1235 C 0.85315 0.99503 0.31429 0.0
H1236 H 0.91282 0.92399 0.31336 0.0
H1237 H 0.925 0.00736 0.30756 0.0
S1238 S 0.73164 0.91772 0.32983 0.0
N1239 N 0.75848 0.88139 0.32967 0.0
N1240 N 0.77155 0.97089 0.32309 0.0
C1241 C 0.80932 0.96064 0.32036 0.0
C1242 C 0.80253 0.9123 0.32402 0.0
C1243 C 0.09974 0.96641 0.31655 0.0
C1244 C 0.13675 0.95645 0.32131 0.0
C1245 C 0.05086 0.9264 0.31362 0.0
C1246 C 0.03768 0.87496 0.31506 0.0
H1247 H 0.10909 1.00547 0.31481 0.0
H1248 H 0.02379 0.93559 0.30979 0.0
S1249 S 0.11889 0.82794 0.3278 0.0
N1250 N 0.15549 0.89105 0.32793 0.0
N1251 N 0.0638 0.81589 0.32215 0.0
C1252 C 0.07352 0.86432 0.32011 0.0
C1253 C 0.12301 0.90509 0.32333 0.0
C1254 C 0.90203 0.95744 0.81721 0.0
C1255 C 0.85143 0.94273 0.82038 0.0
C1256 C 0.91558 0.9209 0.8139 0.0
C1257 C 0.87867 0.86852 0.81326 0.0
H1258 H 0.9314 0.99746 0.81724 0.0
H1259 H 0.95487 0.93379 0.8115 0.0
S1260 S 0.74129 0.80993 0.82093 0.0
N1261 N 0.76479 0.8719 0.82305 0.0
N1262 N 0.78977 0.80357 0.81646 0.0
C1263 C 0.82808 0.85326 0.8165 0.0
C1264 C 0.81463 0.89026 0.82018 0.0
C1265 C 0.20203 0.95549 0.80844 0.0
C1266 C 0.19385 0.995 0.81223 0.0
C1267 C 0.16464 0.90382 0.80974 0.0
C1268 C 0.11687 0.88907 0.8148 0.0
H1269 H 0.23735 0.96465 0.80417 0.0
H1270 H 0.17282 0.87532 0.80633 0.0
S1271 S 0.07763 0.97708 0.82728 0.0
N1272 N 0.13555 0.01534 0.82222 0.0
N1273 N 0.0651 0.91825 0.82448 0.0
C1274 C 0.10902 0.92796 0.81917 0.0
C1275 C 0.14752 0.98084 0.81796 0.0
C1276 C 0.08982 0.1327 0.82244 0.0
C1277 C 0.13323 0.16434 0.816 0.0
C1278 C 0.04359 0.13223 0.82076 0.0
C1279 C 0.03846 0.16261 0.81238 0.0
H1280 H 0.09088 0.10614 0.82844 0.0
H1281 H 0.01117 0.10619 0.82583 0.0
S1282 S 0.14205 0.25256 0.79325 0.0
N1283 N 0.16946 0.22801 0.80117 0.0
N1284 N 0.08229 0.22634 0.79773 0.0
C1285 C 0.08255 0.19616 0.80619 0.0
C1286 C 0.12996 0.19711 0.80805 0.0
C1287 C 0.95372 0.86156 0.68842 0.0
C1288 C 0.94072 0.81081 0.6858 0.0
C1289 C 0.91568 0.87565 0.68932 0.0
C1290 C 0.86352 0.83941 0.68767 0.0
H1291 H 0.99298 0.88982 0.69041 0.0
H1292 H 0.92675 0.9143 0.69191 0.0
S1293 S 0.81078 0.70462 0.6785 0.0
N1294 N 0.87282 0.72643 0.68005 0.0
N1295 N 0.80192 0.75297 0.68173 0.0
C1296 C 0.85068 0.78978 0.68424 0.0
C1297 C 0.88914 0.77548 0.68331 0.0
C1298 C 0.13775 0.02141 0.68313 0.0
C1299 C 0.16544 0.01572 0.69207 0.0
C1300 C 0.1369 0.0671 0.68154 0.0
C1301 C 0.16512 0.10954 0.68854 0.0
H1302 H 0.11479 0.98972 0.67755 0.0
H1303 H 0.11192 0.06837 0.67513 0.0
S1304 S 0.24753 0.11726 0.71247 0.0
N1305 N 0.224 0.05832 0.70765 0.0
N1306 N 0.22421 0.14479 0.70422 0.0
C1307 C 0.19605 0.10602 0.69693 0.0
C1308 C 0.19596 0.05904 0.69877 0.0
C1309 C 0.894 0.11886 0.68526 0.0
C1310 C 0.88674 0.07276 0.6806 0.0
C1311 C 0.94285 0.15748 0.68877 0.0
C1312 C 0.98625 0.15187 0.68747 0.0
H1313 H 0.86136 0.12412 0.68667 0.0
H1314 H 0.94669 0.19172 0.69267 0.0
S1315 S 0.98711 0.03874 0.6752 0.0
N1316 N 0.92634 0.02366 0.6747 0.0
N1317 N 0.01834 0.09682 0.6807 0.0
C1318 C 0.97945 0.10659 0.68237 0.0
C1319 C 0.92959 0.06681 0.67911 0.0
C1320 C 0.87794 0.49276 0.51301 0.0
C1321 C 0.83299 0.48348 0.51864 0.0
C1322 C 0.8853 0.4521 0.50964 0.0
C1323 C 0.84851 0.4008 0.51203 0.0
H1324 H 0.90749 0.53175 0.5112 0.0
H1325 H 0.92091 0.46107 0.50552 0.0
S1326 S 0.72396 0.35642 0.52648 0.0
N1327 N 0.75082 0.41948 0.52622 0.0
N1328 N 0.76498 0.34336 0.5202 0.0
C1329 C 0.80319 0.39123 0.51755 0.0
C1330 C 0.79533 0.43246 0.52077 0.0
C1331 C 0.57864 0.37548 0.52292 0.0
C1332 C 0.52797 0.36008 0.51978 0.0
C1333 C 0.61894 0.4253 0.5206 0.0
C1334 C 0.61027 0.4612 0.51481 0.0
H1335 H 0.58678 0.34933 0.52753 0.0
H1336 H 0.65712 0.4359 0.52349 0.0
S1337 S 0.48442 0.43743 0.50396 0.0
N1338 N 0.47134 0.38307 0.51013 0.0
N1339 N 0.54679 0.47616 0.5055 0.0
C1340 C 0.55984 0.44524 0.51122 0.0
C1341 C 0.51877 0.39488 0.51379 0.0
C1342 C 0.64568 0.2018 0.5106 0.0
C1343 C 0.65406 0.1842 0.52095 0.0
C1344 C 0.59734 0.19503 0.50766 0.0
C1345 C 0.55525 0.17098 0.51502 0.0
H1346 H 0.67666 0.22114 0.50466 0.0
H1347 H 0.59331 0.20974 0.49965 0.0
S1348 S 0.55632 0.11876 0.5433 0.0
N1349 N 0.61566 0.14297 0.53873 0.0
N1350 N 0.52521 0.12863 0.53309 0.0
C1351 C 0.563 0.15299 0.52537 0.0
C1352 C 0.61216 0.16002 0.52838 0.0
C1353 C 0.8014 0.56578 0.65255 0.0
C1354 C 0.74848 0.53081 0.65143 0.0
C1355 C 0.83816 0.5517 0.64996 0.0
C1356 C 0.82355 0.50197 0.64623 0.0
H1357 H 0.81469 0.60509 0.65502 0.0
H1358 H 0.87842 0.58016 0.65069 0.0
S1359 S 0.69072 0.39593 0.64177 0.0
N1360 N 0.68372 0.44358 0.64649 0.0
N1361 N 0.75309 0.41763 0.64157 0.0
C1362 C 0.77102 0.46599 0.6455 0.0
C1363 C 0.73342 0.48022 0.64814 0.0
C1364 C 0.54622 0.25413 0.64387 0.0
C1365 C 0.51157 0.22802 0.65271 0.0
C1366 C 0.55561 0.30216 0.64011 0.0
C1367 C 0.53271 0.32725 0.64537 0.0
H1368 H 0.56627 0.23735 0.63973 0.0
H1369 H 0.58144 0.3202 0.6331 0.0
S1370 S 0.44297 0.27926 0.66944 0.0
N1371 N 0.45586 0.2329 0.6669 0.0
N1372 N 0.47647 0.32489 0.6602 0.0
C1373 C 0.50024 0.30339 0.65457 0.0
C1374 C 0.48921 0.25354 0.6582 0.0
C1375 C 0.74088 0.19273 0.64653 0.0
C1376 C 0.69737 0.19835 0.64773 0.0
C1377 C 0.78961 0.23129 0.65004 0.0
C1378 C 0.79672 0.27699 0.65484 0.0
H1379 H 0.73734 0.15843 0.64274 0.0
H1380 H 0.82221 0.226 0.64863 0.0
S1381 S 0.6961 0.31013 0.66066 0.0
N1382 N 0.66514 0.25326 0.65461 0.0
N1383 N 0.75685 0.32516 0.6612 0.0
C1384 C 0.75379 0.28273 0.65643 0.0
C1385 C 0.70405 0.24349 0.65291 0.0
C1386 C 0.46631 0.19026 0.14675 0.0
C1387 C 0.51347 0.19929 0.14235 0.0
C1388 C 0.45982 0.23098 0.15049 0.0
C1389 C 0.49987 0.2822 0.14967 0.0
H1390 H 0.4345 0.15141 0.14742 0.0
H1391 H 0.42267 0.2224 0.15368 0.0
S1392 S 0.63063 0.32591 0.13865 0.0
N1393 N 0.60083 0.26283 0.13749 0.0
N1394 N 0.58831 0.33934 0.14412 0.0
C1395 C 0.54712 0.29153 0.14526 0.0
C1396 C 0.55402 0.25009 0.14171 0.0
C1397 C 0.76246 0.29758 0.14266 0.0
C1398 C 0.81229 0.3108 0.1461 0.0
C1399 C 0.72012 0.24918 0.14518 0.0
C1400 C 0.72571 0.2127 0.15154 0.0
H1401 H 0.75651 0.32425 0.13767 0.0
H1402 H 0.68274 0.24008 0.14203 0.0
S1403 S 0.84805 0.23003 0.16308 0.0
N1404 N 0.86472 0.28431 0.15643 0.0
N1405 N 0.7853 0.19425 0.16149 0.0
C1406 C 0.7752 0.22629 0.15536 0.0
C1407 C 0.81841 0.27505 0.15255 0.0
C1408 C 0.70551 0.48223 0.15259 0.0
C1409 C 0.69755 0.49858 0.14204 0.0
C1410 C 0.75302 0.48724 0.15556 0.0
C1411 C 0.79449 0.50795 0.14801 0.0
H1412 H 0.67476 0.46524 0.15865 0.0
H1413 H 0.75685 0.47372 0.16374 0.0
S1414 S 0.79407 0.55547 0.11919 0.0
N1415 N 0.73551 0.53514 0.1239 0.0
N1416 N 0.82463 0.54564 0.12954 0.0
C1417 C 0.78718 0.52452 0.13744 0.0
C1418 C 0.73888 0.51956 0.13443 0.0
C1419 C 0.52839 0.09988 0.02344 0.0
C1420 C 0.57836 0.13408 0.01957 0.0
C1421 C 0.49385 0.11661 0.02607 0.0
C1422 C 0.50741 0.16829 0.0249 0.0
H1423 H 0.51593 0.05974 0.02476 0.0
H1424 H 0.45614 0.0887 0.0291 0.0
S1425 S 0.63139 0.27297 0.01412 0.0
N1426 N 0.6382 0.22183 0.01392 0.0
N1427 N 0.57316 0.25329 0.01899 0.0
C1428 C 0.55628 0.20266 0.02056 0.0
C1429 C 0.59172 0.18558 0.01786 0.0
C1430 C 0.79534 0.40597 0.01626 0.0
C1431 C 0.84745 0.44396 0.01531 0.0
C1432 C 0.7807 0.35456 0.01853 0.0
C1433 C 0.81743 0.33921 0.02 0.0
H1434 H 0.76568 0.41627 0.01577 0.0
H1435 H 0.74053 0.327 0.01965 0.0
S1436 S 0.95818 0.42174 0.017 0.0
N1437 N 0.93552 0.46095 0.01496 0.0
N1438 N 0.90762 0.36476 0.01926 0.0
C1439 C 0.8693 0.37604 0.01849 0.0
C1440 C 0.88432 0.4282 0.01611 0.0
C1441 C 0.61586 0.40928 0.02196 0.0
C1442 C 0.63505 0.46209 0.02326 0.0
C1443 C 0.56421 0.3763 0.01915 0.0
C1444 C 0.53032 0.3953 0.01746 0.0
H1445 H 0.64042 0.39327 0.02362 0.0
H1446 H 0.5503 0.33551 0.0189 0.0
S1447 S 0.56594 0.53259 0.01762 0.0
N1448 N 0.61924 0.53303 0.02114 0.0
N1449 N 0.52242 0.47172 0.01569 0.0
C1450 C 0.55061 0.44879 0.01785 0.0
C1451 C 0.60292 0.48205 0.02082 0.0
C1452 C 0.50959 0.74105 0.85567 0.0
C1453 C 0.56057 0.75792 0.85236 0.0
C1454 C 0.49314 0.77623 0.85812 0.0
C1455 C 0.52714 0.82932 0.85741 0.0
H1456 H 0.48295 0.70063 0.85699 0.0
H1457 H 0.45435 0.76202 0.86109 0.0
S1458 S 0.66071 0.89306 0.84689 0.0
N1459 N 0.64232 0.83135 0.84687 0.0
N1460 N 0.61114 0.89693 0.85159 0.0
C1461 C 0.57678 0.84655 0.85332 0.0
C1462 C 0.59351 0.81094 0.85075 0.0
C1463 C 0.25174 0.77255 0.86679 0.0
C1464 C 0.28868 0.79056 0.85818 0.0
C1465 C 0.216 0.72046 0.86798 0.0
C1466 C 0.2148 0.68357 0.86053 0.0
H1467 H 0.25048 0.79893 0.8728 0.0
H1468 H 0.18905 0.70918 0.87486 0.0
S1469 S 0.30482 0.7113 0.83662 0.0
N1470 N 0.32355 0.76796 0.84228 0.0
N1471 N 0.25574 0.66964 0.84425 0.0
C1472 C 0.25256 0.70101 0.85198 0.0
C1473 C 0.28953 0.75452 0.85087 0.0
C1474 C 0.32141 0.48154 0.86757 0.0
C1475 C 0.3586 0.5301 0.86364 0.0
C1476 C 0.26943 0.46063 0.86485 0.0
C1477 C 0.25185 0.48734 0.85812 0.0
H1478 H 0.33252 0.4592 0.87277 0.0
H1479 H 0.24274 0.42339 0.86832 0.0
S1480 S 0.33407 0.61528 0.8453 0.0
N1481 N 0.3745 0.60418 0.85246 0.0
N1482 N 0.2768 0.56446 0.84717 0.0
C1483 C 0.28879 0.53555 0.8539 0.0
C1484 C 0.34203 0.55695 0.85669 0.0
C1485 C 0.41994 0.85743 0.98856 0.0
C1486 C 0.3695 0.82396 0.9849 0.0
C1487 C 0.46083 0.85069 0.98513 0.0
C1488 C 0.45272 0.80965 0.9781 0.0
H1489 H 0.4283 0.89029 0.99374 0.0
H1490 H 0.49918 0.87804 0.98793 0.0
S1491 S 0.32777 0.71009 0.96661 0.0
N1492 N 0.31371 0.7473 0.97416 0.0
N1493 N 0.39038 0.73464 0.96781 0.0
C1494 C 0.40236 0.77505 0.97469 0.0
C1495 C 0.36084 0.78222 0.97807 0.0
C1496 C 0.16388 0.62079 0.98224 0.0
C1497 C 0.1494 0.63775 0.97257 0.0
C1498 C 0.15413 0.57006 0.98315 0.0
C1499 C 0.12981 0.53476 0.9744 0.0
H1500 H 0.18191 0.64653 0.98923 0.0
H1501 H 0.16426 0.55805 0.99086 0.0
S1502 S 0.095 0.56289 0.94639 0.0
N1503 N 0.11711 0.61706 0.95344 0.0
N1504 N 0.09841 0.52223 0.95516 0.0
C1505 C 0.11825 0.55218 0.96444 0.0
C1506 C 0.12815 0.60353 0.96351 0.0
C1507 C 0.42768 0.5708 0.98377 0.0
C1508 C 0.43754 0.61012 0.97608 0.0
C1509 C 0.37902 0.52612 0.98422 0.0
C1510 C 0.33852 0.52041 0.97727 0.0
H1511 H 0.45838 0.57319 0.98897 0.0
H1512 H 0.37328 0.49551 0.98985 0.0
S1513 S 0.34551 0.61096 0.95538 0.0
N1514 N 0.40325 0.63931 0.96109 0.0
N1515 N 0.31202 0.5567 0.96232 0.0
C1516 C 0.34779 0.55992 0.96976 0.0
C1517 C 0.39722 0.60448 0.96909 0.0
C1518 C 0.22285 0.61499 0.48998 0.0
C1519 C 0.18037 0.62048 0.48729 0.0
C1520 C 0.22683 0.57323 0.48594 0.0
C1521 C 0.18821 0.5349 0.47915 0.0
H1522 H 0.25427 0.6442 0.49486 0.0
H1523 H 0.2613 0.57196 0.48789 0.0
S1524 S 0.06613 0.5284 0.47085 0.0
N1525 N 0.09721 0.58223 0.47805 0.0
N1526 N 0.10382 0.50319 0.47084 0.0
C1527 C 0.14451 0.53892 0.47682 0.0
C1528 C 0.14078 0.58173 0.48081 0.0
C1529 C 0.44386 0.64833 0.48765 0.0
C1530 C 0.47371 0.65526 0.47797 0.0
C1531 C 0.40319 0.59982 0.49069 0.0
C1532 C 0.38975 0.55631 0.48404 0.0
H1533 H 0.45214 0.68052 0.49302 0.0
H1534 H 0.38148 0.5967 0.4982 0.0
S1535 S 0.45338 0.55434 0.45737 0.0
N1536 N 0.48494 0.61475 0.46143 0.0
N1537 N 0.40951 0.52406 0.46711 0.0
C1538 C 0.41885 0.56297 0.47423 0.0
C1539 C 0.46042 0.61222 0.4712 0.0
C1540 C 0.36754 0.81828 0.48284 0.0
C1541 C 0.35015 0.83173 0.47308 0.0
C1542 C 0.41951 0.83241 0.48419 0.0
C1543 C 0.4559 0.86105 0.4759 0.0
H1544 H 0.34108 0.79782 0.4896 0.0
H1545 H 0.43149 0.82221 0.49189 0.0
S1546 S 0.42899 0.89917 0.44813 0.0
N1547 N 0.37284 0.86996 0.45449 0.0
N1548 N 0.47004 0.89798 0.45715 0.0
C1549 C 0.4386 0.87302 0.46596 0.0
C1550 C 0.38591 0.85807 0.46452 0.0
C1551 C 0.29687 0.54604 0.34922 0.0
C1552 C 0.28729 0.50147 0.34335 0.0
C1553 C 0.25666 0.55372 0.35269 0.0
C1554 C 0.20533 0.51674 0.35063 0.0
H1555 H 0.33576 0.57477 0.3514 0.0
H1556 H 0.26552 0.58786 0.3574 0.0
S1557 S 0.15892 0.39456 0.33524 0.0
N1558 N 0.22201 0.42069 0.33524 0.0
N1559 N 0.14663 0.43517 0.34198 0.0
C1560 C 0.19498 0.47264 0.34456 0.0
C1561 C 0.23594 0.46508 0.34083 0.0
C1562 C 0.49475 0.75722 0.34065 0.0
C1563 C 0.51216 0.79703 0.34862 0.0
C1564 C 0.4884 0.70896 0.34348 0.0
C1565 C 0.49953 0.69862 0.35437 0.0
H1566 H 0.48539 0.76312 0.33219 0.0
H1567 H 0.47503 0.67964 0.33705 0.0
S1568 S 0.54734 0.78983 0.3783 0.0
N1569 N 0.54224 0.82284 0.36781 0.0
N1570 N 0.5283 0.73221 0.37316 0.0
C1571 C 0.51725 0.73812 0.36237 0.0
C1572 C 0.52399 0.7872 0.3595 0.0
C1573 C 0.28769 0.83405 0.34965 0.0
C1574 C 0.32568 0.82594 0.3545 0.0
C1575 C 0.23921 0.79257 0.34677 0.0
C1576 C 0.22648 0.74143 0.34888 0.0
H1577 H 0.2957 0.87275 0.34802 0.0
H1578 H 0.21103 0.80079 0.34316 0.0
S1579 S 0.31296 0.70031 0.36158 0.0
N1580 N 0.34781 0.76345 0.36122 0.0
N1581 N 0.25677 0.68564 0.35613 0.0
C1582 C 0.26444 0.73308 0.35373 0.0
C1583 C 0.31398 0.77524 0.35645 0.0
C1584 C 0.2469 0.30796 0.15242 0.0
C1585 C 0.29644 0.34162 0.15668 0.0
C1586 C 0.20243 0.30035 0.158 0.0
C1587 C 0.20566 0.32656 0.16801 0.0
H1588 H 0.24237 0.28695 0.14472 0.0
H1589 H 0.16532 0.27347 0.15449 0.0
S1590 S 0.32603 0.41743 0.18298 0.0
N1591 N 0.34557 0.39979 0.17178 0.0
N1592 N 0.26294 0.38718 0.18206 0.0
C1593 C 0.25505 0.36091 0.17228 0.0
C1594 C 0.30013 0.36808 0.16667 0.0
C1595 C 0.69693 0.89077 0.1594 0.0
C1596 C 0.66275 0.86139 0.16799 0.0
C1597 C 0.69206 0.92925 0.15374 0.0
C1598 C 0.65325 0.94085 0.15651 0.0
H1599 H 0.72872 0.88513 0.15723 0.0
H1600 H 0.71979 0.95075 0.14727 0.0
S1601 S 0.55207 0.87339 0.17807 0.0
N1602 N 0.58625 0.84442 0.17847 0.0
N1603 N 0.57906 0.91801 0.16833 0.0
C1604 C 0.61773 0.91048 0.16482 0.0
C1605 C 0.62204 0.87062 0.17043 0.0
C1606 C 0.14019 0.76784 0.16233 0.0
C1607 C 0.13408 0.81107 0.16361 0.0
C1608 C 0.10324 0.72322 0.15682 0.0
C1609 C 0.0581 0.71947 0.15239 0.0
H1610 H 0.17329 0.76787 0.16593 0.0
H1611 H 0.10994 0.69121 0.15612 0.0
S1612 S 0.02317 0.82182 0.15355 0.0
N1613 N 0.07977 0.84763 0.15972 0.0
N1614 N 0.00945 0.76356 0.14982 0.0
C1615 C 0.05195 0.76291 0.15343 0.0
C1616 C 0.09011 0.80869 0.15889 0.0
C1617 C 0.3152 0.24788 0.34283 0.0
C1618 C 0.35461 0.29776 0.33995 0.0
C1619 C 0.30985 0.20404 0.33737 0.0
C1620 C 0.34402 0.208 0.32886 0.0
H1621 H 0.28724 0.2425 0.34917 0.0
H1622 H 0.27737 0.16706 0.33952 0.0
S1623 S 0.45708 0.32863 0.31887 0.0
N1624 N 0.43011 0.34756 0.32834 0.0
N1625 N 0.42177 0.26557 0.31857 0.0
C1626 C 0.3856 0.25723 0.32642 0.0
C1627 C 0.39052 0.30193 0.33184 0.0
C1628 C 0.73029 0.10237 0.33609 0.0
C1629 C 0.73282 0.06771 0.34363 0.0
C1630 C 0.77436 0.14099 0.33078 0.0
C1631 C 0.82334 0.14678 0.33263 0.0
H1632 H 0.69369 0.09852 0.33386 0.0
H1633 H 0.76934 0.1652 0.32478 0.0
S1634 S 0.85292 0.07101 0.35275 0.0
N1635 N 0.79023 0.04628 0.35374 0.0
N1636 N 0.87232 0.11719 0.34331 0.0
C1637 C 0.82709 0.11426 0.34057 0.0
C1638 C 0.78214 0.07517 0.34614 0.0
C1639 C 0.93288 0.73629 0.33741 0.0
C1640 C 0.88535 0.69434 0.33427 0.0
C1641 C 0.97096 0.729 0.3425 0.0
C1642 C 0.96308 0.67947 0.34477 0.0
H1643 H 0.94191 0.77497 0.33535 0.0
H1644 H 1.00758 0.76261 0.34431 0.0
S1645 S 0.84243 0.55718 0.33941 0.0
N1646 N 0.83093 0.60175 0.33448 0.0
N1647 N 0.90152 0.58805 0.34441 0.0
C1648 C 0.91466 0.63733 0.34214 0.0
C1649 C 0.87612 0.6448 0.33684 0.0
C1650 C 0.8123 0.64974 0.83812 0.0
C1651 C 0.85459 0.69933 0.83636 0.0
C1652 C 0.76482 0.64244 0.84179 0.0
C1653 C 0.75783 0.68439 0.84381 0.0
H1654 H 0.8149 0.61615 0.83597 0.0
H1655 H 0.7324 0.60386 0.84231 0.0
S1656 S 0.85731 0.82156 0.84252 0.0
N1657 N 0.88747 0.79101 0.83854 0.0
N1658 N 0.79758 0.77671 0.84518 0.0
C1659 C 0.80038 0.73392 0.84298 0.0
C1660 C 0.84903 0.74155 0.83938 0.0
C1661 C 0.39927 0.15115 0.83635 0.0
C1662 C 0.35165 0.14978 0.83629 0.0
C1663 C 0.40395 0.11003 0.84052 0.0
C1664 C 0.36109 0.06584 0.84467 0.0
H1665 H 0.43262 0.18277 0.83246 0.0
H1666 H 0.44031 0.11112 0.8397 0.0
S1667 S 0.23071 0.04675 0.84872 0.0
N1668 N 0.2632 0.10397 0.84284 0.0
N1669 N 0.27158 0.02554 0.85001 0.0
C1670 C 0.31454 0.06571 0.84563 0.0
C1671 C 0.30999 0.10812 0.84167 0.0
C1672 C 0.88903 0.23198 0.83515 0.0
C1673 C 0.89076 0.186 0.83454 0.0
C1674 C 0.93138 0.27804 0.83886 0.0
C1675 C 0.9773 0.28005 0.84199 0.0
H1676 H 0.85563 0.23312 0.83215 0.0
H1677 H 0.92929 0.3129 0.83859 0.0
S1678 S 0.99938 0.16982 0.844 0.0
N1679 N 0.94053 0.1447 0.83896 0.0
N1680 N 0.0201 0.23152 0.84575 0.0
C1681 C 0.97839 0.23394 0.84227 0.0
C1682 C 0.93508 0.18683 0.83863 0.0
C1683 C 0.72472 0.77133 0.66012 0.0
C1684 C 0.67553 0.73025 0.65762 0.0
C1685 C 0.73188 0.81892 0.66374 0.0
C1686 C 0.68977 0.82649 0.6653 0.0
H1687 H 0.75735 0.76538 0.65999 0.0
H1688 H 0.76991 0.84806 0.66634 0.0
S1689 S 0.55397 0.73272 0.65872 0.0
N1690 N 0.58506 0.70185 0.65581 0.0
N1691 N 0.59791 0.79055 0.66293 0.0
C1692 C 0.64098 0.78694 0.66198 0.0
C1693 C 0.63396 0.73893 0.65808 0.0
C1694 C 0.2085 0.92687 0.66573 0.0
C1695 C 0.20117 0.87715 0.66683 0.0
C1696 C 0.25379 0.96683 0.66108 0.0
C1697 C 0.29361 0.9588 0.65724 0.0
H1698 H 0.18017 0.93569 0.66898 0.0
H1699 H 0.25822 1.00476 0.66082 0.0
S1700 S 0.29036 0.83385 0.65704 0.0
N1701 N 0.23579 0.82108 0.66304 0.0
N1702 N 0.31996 0.89555 0.65395 0.0
C1703 C 0.28567 0.90862 0.65786 0.0
C1704 C 0.23973 0.86805 0.66271 0.0
C1705 C 0.10979 0.29229 0.6615 0.0
C1706 C 0.14159 0.32839 0.66955 0.0
C1707 C 0.07182 0.29774 0.65578 0.0
C1708 C 0.0633 0.3391 0.65796 0.0
H1709 H 0.11275 0.25844 0.65991 0.0
H1710 H 0.04818 0.26837 0.64978 0.0
S1711 S 0.14 0.44693 0.67765 0.0
N1712 N 0.16577 0.40996 0.67857 0.0
N1713 N 0.09284 0.41835 0.66851 0.0
C1714 C 0.09668 0.37673 0.66564 0.0
C1715 C 0.13608 0.3718 0.67125 0.0
C1716 C 0.89822 0.70745 0.49867 0.0
C1717 C 0.85223 0.65986 0.49948 0.0
C1718 C 0.9435 0.71115 0.4944 0.0
C1719 C 0.94478 0.66733 0.49084 0.0
H1720 H 0.90017 0.74185 0.50201 0.0
H1721 H 0.97853 0.74792 0.49464 0.0
S1722 S 0.8333 0.53523 0.48917 0.0
N1723 N 0.80963 0.56912 0.49481 0.0
N1724 N 0.89462 0.57612 0.48686 0.0
C1725 C 0.8982 0.62031 0.49068 0.0
C1726 C 0.85194 0.61658 0.49493 0.0
C1727 C 0.29544 0.24398 0.49582 0.0
C1728 C 0.33167 0.27602 0.48784 0.0
C1729 C 0.30103 0.20632 0.50155 0.0
C1730 C 0.34337 0.19917 0.49964 0.0
H1731 H 0.26394 0.24979 0.49813 0.0
H1732 H 0.27303 0.18443 0.50796 0.0
S1733 S 0.444 0.26645 0.47807 0.0
N1734 N 0.40715 0.29246 0.47703 0.0
N1735 N 0.41871 0.22322 0.48816 0.0
C1736 C 0.37789 0.22834 0.4911 0.0
C1737 C 0.37184 0.26638 0.48514 0.0
C1738 C 0.77233 0.06363 0.49421 0.0
C1739 C 0.72692 0.06026 0.4902 0.0
C1740 C 0.81221 0.11011 0.49845 0.0
C1741 C 0.80823 0.1549 0.49875 0.0
H1742 H 0.7753 0.02934 0.4949 0.0
H1743 H 0.84493 0.11001 0.50223 0.0
S1744 S 0.70078 0.16739 0.48701 0.0
N1745 N 0.68285 0.10631 0.48523 0.0
N1746 N 0.75792 0.19398 0.493 0.0
C1747 C 0.7651 0.15295 0.49365 0.0
C1748 C 0.72431 0.10546 0.48947 0.0
C1749 C 0.04569 0.56119 0.67008 0.0
C1750 C 0.99626 0.51904 0.66812 0.0
C1751 C 0.05256 0.60736 0.67458 0.0
C1752 C 0.01025 0.61317 0.67713 0.0
H1753 H 0.07929 0.55977 0.66736 0.0
H1754 H 0.09096 0.64006 0.67514 0.0
S1755 S 0.87338 0.51287 0.6753 0.0
N1756 N 0.90455 0.48441 0.67062 0.0
N1757 N 0.91779 0.5719 0.67865 0.0
C1758 C 0.96094 0.57026 0.67612 0.0
C1759 C 0.95385 0.52289 0.67177 0.0
C1760 C 0.48184 0.43737 0.67443 0.0
C1761 C 0.47822 0.46631 0.66556 0.0
C1762 C 0.43786 0.40029 0.6801 0.0
C1763 C 0.38818 0.39004 0.6771 0.0
H1764 H 0.51877 0.44234 0.67683 0.0
H1765 H 0.44291 0.37882 0.68678 0.0
S1766 S 0.35762 0.4565 0.65467 0.0
N1767 N 0.42068 0.4839 0.65443 0.0
N1768 N 0.33857 0.41306 0.66472 0.0
C1769 C 0.38419 0.4198 0.66847 0.0
C1770 C 0.42898 0.45807 0.66279 0.0
C1771 C 0.59072 0.06422 0.67123 0.0
C1772 C 0.54467 0.02129 0.66772 0.0
C1773 C 0.6299 0.0586 0.67626 0.0
C1774 C 0.62443 0.0098 0.67815 0.0
H1775 H 0.5979 0.10256 0.66952 0.0
H1776 H 0.66553 0.09302 0.67826 0.0
S1777 S 0.50731 0.88505 0.67223 0.0
N1778 N 0.49354 0.92835 0.66751 0.0
N1779 N 0.56597 0.91766 0.6774 0.0
C1780 C 0.57706 0.96653 0.67536 0.0
C1781 C 0.53751 0.97233 0.67009 0.0
C1782 C 0.3865 0.96216 0.17137 0.0
C1783 C 0.38271 1.00456 0.17507 0.0
C1784 C 0.431 0.96842 0.16604 0.0
C1785 C 0.4742 0.01732 0.16427 0.0
H1786 H 0.35463 0.92366 0.1725 0.0
H1787 H 0.43107 0.93452 0.16301 0.0
S1788 S 0.48492 0.14139 0.17218 0.0
N1789 N 0.4268 0.09793 0.17627 0.0
N1790 N 0.51061 0.10897 0.16677 0.0
C1791 C 0.47177 0.06003 0.16821 0.0
C1792 C 0.42608 0.05386 0.17346 0.0
C1793 C 0.95336 0.42559 0.16889 0.0
C1794 C 0.99533 0.47484 0.16688 0.0
C1795 C 0.96077 0.38624 0.17319 0.0
C1796 C 0.01011 0.39489 0.17581 0.0
H1797 H 0.91527 0.41593 0.16612 0.0
H1798 H 0.92819 0.3478 0.17373 0.0
S1799 S 0.13129 0.51887 0.17385 0.0
N1800 N 0.0871 0.53155 0.16918 0.0
N1801 N 0.10049 0.4576 0.17738 0.0
C1802 C 0.0515 0.44507 0.17496 0.0
C1803 C 0.04418 0.48503 0.17046 0.0
C1804 C 0.53764 0.57077 0.16698 0.0
C1805 C 0.54391 0.52765 0.16572 0.0
C1806 C 0.57335 0.61449 0.17292 0.0
C1807 C 0.61732 0.61738 0.17781 0.0
H1808 H 0.50543 0.57137 0.16307 0.0
H1809 H 0.5666 0.64648 0.17359 0.0
S1810 S 0.65136 0.51432 0.1771 0.0
N1811 N 0.59652 0.48981 0.17021 0.0
N1812 N 0.66467 0.57229 0.18096 0.0
C1813 C 0.62341 0.57387 0.17684 0.0
C1814 C 0.58647 0.52899 0.17093 0.0
C1815 C 0.28526 0.04656 0.99227 0.0
C1816 C 0.32881 0.04196 0.9901 0.0
C1817 C 0.28963 0.09117 0.99706 0.0
C1818 C 0.33775 0.13365 0.99968 0.0
H1819 H 0.24726 0.0153 0.99036 0.0
H1820 H 0.25481 0.09195 0.99894 0.0
S1821 S 0.46416 0.14252 0.99554 0.0
N1822 N 0.42206 0.0844 0.99119 0.0
N1823 N 0.4301 0.16914 0.99933 0.0
C1824 C 0.38177 0.13062 0.99711 0.0
C1825 C 0.37736 0.08461 0.99256 0.0
C1826 C 0.87313 0.18488 0.99222 0.0
C1827 C 0.83105 0.19201 0.99444 0.0
C1828 C 0.92028 0.22542 0.98848 0.0
C1829 C 0.92715 0.27467 0.9869 0.0
H1830 H 0.8708 0.14857 0.99412 0.0
H1831 H 0.95258 0.21917 0.98771 0.0
S1832 S 0.82716 0.31172 0.98939 0.0
N1833 N 0.79767 0.25067 0.99305 0.0
N1834 N 0.88647 0.3268 0.98622 0.0
C1835 C 0.88425 0.28118 0.98804 0.0
C1836 C 0.83607 0.23983 0.99173 0.0
C1837 C 0.72306 0.64344 0.00463 0.0
C1838 C 0.75546 0.62632 0.0003 0.0
C1839 C 0.68953 0.65071 0.99769 0.0
C1840 C 0.687 0.64169 0.98604 0.0
H1841 H 0.72325 0.65107 0.01353 0.0
H1842 H 0.66513 0.66329 0.00154 0.0
S1843 S 0.76519 0.59795 0.9704 0.0
N1844 N 0.7831 0.60052 0.98363 0.0
N1845 N 0.7214 0.61572 0.97044 0.0
C1846 C 0.71916 0.62431 0.98157 0.0
C1847 C 0.75298 0.61626 0.98872 0.0
C1848 C 0.58906 0.96531 0.82224 0.0
C1849 C 0.63833 0.99546 0.82696 0.0
C1850 C 0.54518 0.96211 0.82728 0.0
C1851 C 0.54897 0.98932 0.83718 0.0
H1852 H 0.58442 0.9443 0.81453 0.0
H1853 H 0.50813 0.93838 0.82337 0.0
S1854 S 0.66832 0.0684 0.85365 0.0
N1855 N 0.68733 0.04898 0.84265 0.0
N1856 N 0.60603 0.04425 0.85198 0.0
C1857 C 0.59803 0.01879 0.84208 0.0
C1858 C 0.64236 0.02159 0.83701 0.0
C1859 C 0.99604 0.5723 0.8263 0.0
C1860 C 0.03829 0.62086 0.8241 0.0
C1861 C 1.00295 0.53177 0.83 0.0
C1862 C 0.0524 0.53824 0.83164 0.0
H1863 H 0.95764 0.56677 0.82596 0.0
H1864 H 0.96916 0.49601 0.83229 0.0
S1865 S 0.17484 0.6561 0.82482 0.0
N1866 N 0.13047 0.67171 0.82227 0.0
N1867 N 0.14402 0.5958 0.82908 0.0
C1868 C 0.09473 0.58549 0.82841 0.0
C1869 C 0.0875 0.62675 0.82473 0.0
C1870 C 0.47999 0.43844 0.84142 0.0
C1871 C 0.48826 0.488 0.83912 0.0
C1872 C 0.44172 0.39493 0.83588 0.0
C1873 C 0.40993 0.39893 0.82777 0.0
H1874 H 0.50217 0.43271 0.84785 0.0
H1875 H 0.43569 0.35766 0.83831 0.0
S1876 S 0.41981 0.52019 0.81752 0.0
N1877 N 0.46395 0.5387 0.82743 0.0
N1878 N 0.39291 0.45718 0.81683 0.0
C1879 C 0.41945 0.44846 0.82494 0.0
C1880 C 0.45837 0.49286 0.83064 0.0
C1881 C 0.7069 0.90143 0.99429 0.0
C1882 C 0.66104 0.85382 0.99329 0.0
C1883 C 0.70782 0.94368 0.99958 0.0
C1884 C 0.66286 0.94002 0.00398 0.0
H1885 H 0.74178 0.90715 0.99034 0.0
H1886 H 0.74296 0.9804 0.99947 0.0
S1887 S 0.53496 0.82302 0.00537 0.0
N1888 N 0.57101 0.80445 0.99871 0.0
N1889 N 0.57297 0.88435 0.00827 0.0
C1890 C 0.61789 0.89198 0.00387 0.0
C1891 C 0.61695 0.84871 0.99867 0.0
C1892 C 0.0426 0.76271 0.00574 0.0
C1893 C 0.03462 0.71349 0.00791 0.0
C1894 C 0.09065 0.80222 0.00214 0.0
C1895 C 0.1324 0.79385 0.00059 0.0
H1896 H 0.01049 0.76946 0.00597 0.0
H1897 H 0.09399 0.83848 0.99974 0.0
S1898 S 0.13225 0.67328 0.00716 0.0
N1899 N 0.07281 0.65969 0.00967 0.0
N1900 N 0.16366 0.7339 0.00313 0.0
C1901 C 0.12592 0.74599 0.00386 0.0
C1902 C 0.07675 0.70571 0.0074 0.0
C1903 C 0.17122 0.29483 0.00708 0.0
C1904 C 0.17914 0.34441 0.0049 0.0
C1905 C 0.21202 0.28711 0.01004 0.0
C1906 C 0.26211 0.32863 0.01092 0.0
H1907 H 0.13394 0.26133 0.00567 0.0
H1908 H 0.20512 0.24832 0.01078 0.0
S1909 S 0.30186 0.46618 0.00888 0.0
N1910 N 0.23992 0.43607 0.00599 0.0
N1911 N 0.31654 0.42097 0.01127 0.0
C1912 C 0.26985 0.37841 0.00992 0.0
C1913 C 0.22828 0.38648 0.00705 0.0
C1914 C 0.10665 0.37589 0.51025 0.0
C1915 C 0.05658 0.33551 0.5078 0.0
C1916 C 0.15027 0.38015 0.50485 0.0
C1917 C 0.14596 0.34384 0.49685 0.0
H1918 H 0.11238 0.40534 0.51623 0.0
H1919 H 0.18734 0.41327 0.50666 0.0
S1920 S 0.02485 0.22806 0.488 0.0
N1921 N 1.00641 0.25728 0.49699 0.0
N1922 N 0.08785 0.26344 0.48748 0.0
C1923 C 0.09659 0.30156 0.49483 0.0
C1924 C 0.05214 0.29781 0.50013 0.0
C1925 C 0.69781 0.80543 0.5043 0.0
C1926 C 0.64889 0.79981 0.50255 0.0
C1927 C 0.70402 0.76662 0.50934 0.0
C1928 C 0.66157 0.72005 0.51283 0.0
H1929 H 0.73185 0.83975 0.50147 0.0
H1930 H 0.74253 0.77315 0.51041 0.0
S1931 S 0.52494 0.68637 0.51051 0.0
N1932 N 0.55719 0.74466 0.50518 0.0
N1933 N 0.56839 0.67111 0.51424 0.0
C1934 C 0.61235 0.71443 0.5114 0.0
C1935 C 0.60614 0.75438 0.50639 0.0
C1936 C 0.25233 0.86527 0.50351 0.0
C1937 C 0.2035 0.85851 0.50121 0.0
C1938 C 0.29124 0.91108 0.50826 0.0
C1939 C 0.28305 0.95211 0.51099 0.0
H1940 H 0.26142 0.83595 0.50116 0.0
H1941 H 0.3286 0.91485 0.50949 0.0
S1942 S 0.15994 0.95125 0.50773 0.0
N1943 N 0.14797 0.89531 0.50265 0.0
N1944 N 0.22041 0.98054 0.51186 0.0
C1945 C 0.2337 0.94494 0.50911 0.0
C1946 C 0.19419 0.89842 0.50419 0.0
C1947 C 0.97693 0.39641 0.33065 0.0
C1948 C 0.0125 0.39975 0.32256 0.0
C1949 C 0.98248 0.44014 0.33614 0.0
C1950 C 0.02421 0.48963 0.33395 0.0
H1951 H 0.94546 0.35947 0.33314 0.0
H1952 H 0.95456 0.43449 0.34254 0.0
S1953 S 0.12463 0.52123 0.31242 0.0
N1954 N 0.0879 0.45834 0.31162 0.0
N1955 N 0.09942 0.53984 0.3224 0.0
C1956 C 0.05877 0.49413 0.3255 0.0
C1957 C 0.05274 0.4495 0.31973 0.0
C1958 C 0.54039 0.58004 0.32576 0.0
C1959 C 0.54234 0.54779 0.33406 0.0
C1960 C 0.58543 0.61885 0.32071 0.0
C1961 C 0.63462 0.62777 0.32382 0.0
H1962 H 0.50403 0.57668 0.32344 0.0
H1963 H 0.58146 0.6428 0.31448 0.0
S1964 S 0.66038 0.55069 0.34451 0.0
N1965 N 0.59741 0.52414 0.34438 0.0
N1966 N 0.68147 0.5984 0.33545 0.0
C1967 C 0.63678 0.5941 0.33175 0.0
C1968 C 0.59088 0.55394 0.33671 0.0
C1969 C 0.41255 0.97821 0.32003 0.0
C1970 C 0.40414 0.01967 0.32219 0.0
C1971 C 0.45088 0.97298 0.32565 0.0
C1972 C 0.48328 0.00944 0.33358 0.0
H1973 H 0.38853 0.9486 0.31411 0.0
H1974 H 0.4538 0.93912 0.32406 0.0
S1975 S 0.48163 0.12809 0.34164 0.0
N1976 N 0.43408 0.09921 0.3326 0.0
N1977 N 0.50757 0.09125 0.34254 0.0
C1978 C 0.47767 0.05286 0.33528 0.0
C1979 C 0.43791 0.05756 0.32976 0.0
C1980 C 0.04255 0.26269 0.25665 0.0
C1981 C 0.99123 0.24048 0.26018 0.0
C1982 C 0.05535 0.27065 0.24519 0.0
C1983 C 0.01711 0.25579 0.23693 0.0
H1984 H 0.07287 0.27353 0.26278 0.0
H1985 H 0.09517 0.28692 0.24276 0.0
S1986 S 0.87735 0.19625 0.2418 0.0
N1987 N 0.90223 0.20462 0.25454 0.0
N1988 N 0.92625 0.21846 0.233 0.0
C1989 C 0.96583 0.23405 0.24035 0.0
C1990 C 0.95288 0.22672 0.252 0.0
C1991 C 0.79419 0.77156 0.24293 0.0
C1992 C 0.76707 0.79682 0.24011 0.0
C1993 C 0.80344 0.76497 0.25419 0.0
C1994 C 0.78675 0.78438 0.26295 0.0
H1995 H 0.8083 0.75682 0.23638 0.0
H1996 H 0.82469 0.74554 0.25605 0.0
S1997 S 0.71416 0.85329 0.25996 0.0
N1998 N 0.72314 0.8407 0.24691 0.0
N1999 N 0.74149 0.82928 0.2681 0.0
C2000 C 0.75954 0.80959 0.26023 0.0
C2001 C 0.74938 0.81552 0.24879 0.0
C2002 C 0.19888 0.94295 0.24574 0.0
C2003 C 0.21411 0.9796 0.23711 0.0
C2004 C 0.20748 0.95796 0.25707 0.0
C2005 C 0.23253 0.01009 0.26009 0.0
H2006 H 0.17941 0.90245 0.24372 0.0
H2007 H 0.19474 0.92868 0.26351 0.0
S2008 S 0.28071 0.12073 0.24062 0.0
N2009 N 0.25563 0.07002 0.2323 0.0
N2010 N 0.27254 0.09824 0.25358 0.0
C2011 C 0.24851 0.04702 0.25152 0.0
C2012 C 0.23907 0.03175 0.24003 0.0
C2013 C 0.97631 0.7284 0.7556 0.0
C2014 C 0.01797 0.7504 0.76312 0.0
C2015 C 0.98418 0.73284 0.74391 0.0
C2016 C 0.03396 0.75849 0.73935 0.0
H2017 H 0.93738 0.70938 0.75877 0.0
H2018 H 0.9511 0.71679 0.7384 0.0
S2019 S 0.15574 0.82075 0.75547 0.0
N2020 N 0.11061 0.79745 0.7652 0.0
N2021 N 0.12542 0.80507 0.74327 0.0
C2022 C 0.07587 0.77915 0.74679 0.0
C2023 C 0.06787 0.77532 0.75866 0.0
C2024 C 0.26955 0.29199 0.75988 0.0
C2025 C 0.27933 0.25324 0.76345 0.0
C2026 C 0.25833 0.29551 0.74857 0.0
C2027 C 0.25633 0.26015 0.74055 0.0
H2028 H 0.26838 0.31823 0.76594 0.0
H2029 H 0.24895 0.32459 0.74619 0.0
S2030 S 0.2846 0.15518 0.74566 0.0
N2031 N 0.28996 0.18135 0.75814 0.0
N2032 N 0.26984 0.1883 0.73686 0.0
C2033 C 0.2686 0.22288 0.744 0.0
C2034 C 0.27984 0.21932 0.75547 0.0
C2035 C 0.80368 0.04887 0.75448 0.0
C2036 C 0.78756 0.00997 0.76262 0.0
C2037 C 0.79735 0.03701 0.74299 0.0
C2038 C 0.77379 0.98585 0.73929 0.0
H2039 H 0.82252 0.08874 0.75702 0.0
H2040 H 0.81108 0.068 0.73694 0.0
S2041 S 0.72349 0.87016 0.75727 0.0
N2042 N 0.7464 0.91847 0.76625 0.0
N2043 N 0.73358 0.89611 0.74462 0.0
C2044 C 0.75647 0.94662 0.74735 0.0
C2045 C 0.76365 0.95872 0.75903 0.0
C2046 C 0.64238 0.56243 0.58953 0.0
C2047 C 0.68181 0.58329 0.5976 0.0
C2048 C 0.65358 0.56512 0.57801 0.0
C2049 C 0.70457 0.58952 0.57417 0.0
H2050 H 0.6026 0.5426 0.59215 0.0
H2051 H 0.62214 0.54794 0.57206 0.0
S2052 S 0.82152 0.65133 0.59188 0.0
N2053 N 0.7737 0.62968 0.60097 0.0
N2054 N 0.79474 0.63549 0.57931 0.0
C2055 C 0.74429 0.61144 0.58214 0.0
C2056 C 0.7329 0.60806 0.59386 0.0
C2057 C 0.46327 0.08362 0.58661 0.0
C2058 C 0.44398 0.10024 0.5954 0.0
C2059 C 0.4557 0.09221 0.57537 0.0
C2060 C 0.42785 0.11679 0.57262 0.0
H2061 H 0.48557 0.06527 0.58846 0.0
H2062 H 0.47206 0.07998 0.56878 0.0
S2063 S 0.36859 0.16625 0.59259 0.0
N2064 N 0.39568 0.14179 0.60068 0.0
N2065 N 0.38029 0.15678 0.5795 0.0
C2066 C 0.40734 0.13239 0.58133 0.0
C2067 C 0.41577 0.12444 0.59275 0.0
C2068 C 0.933 0.38718 0.58662 0.0
C2069 C 0.91209 0.3476 0.59464 0.0
C2070 C 0.92645 0.37623 0.57508 0.0
C2071 C 0.89967 0.32533 0.5712 0.0
H2072 H 0.9535 0.42688 0.5893 0.0
H2073 H 0.94239 0.40773 0.56914 0.0
S2074 S 0.83881 0.20809 0.5888 0.0
N2075 N 0.8642 0.25572 0.59794 0.0
N2076 N 0.85261 0.23509 0.57623 0.0
C2077 C 0.87944 0.28545 0.57913 0.0
C2078 C 0.88542 0.29661 0.59086 0.0
C2079 C 0.61873 0.06258 0.07261 0.0
C2080 C 0.66904 0.08341 0.06851 0.0
C2081 C 0.60888 0.05936 0.08419 0.0
C2082 C 0.64916 0.07796 0.09205 0.0
H2083 H 0.58689 0.04957 0.06679 0.0
H2084 H 0.56966 0.04388 0.087 0.0
S2085 S 0.78751 0.135 0.08562 0.0
N2086 N 0.75936 0.12158 0.07317 0.0
N2087 N 0.74099 0.11648 0.09496 0.0
C2088 C 0.69953 0.09811 0.08807 0.0
C2089 C 0.70945 0.10055 0.07628 0.0
C2090 C 0.88912 0.58146 0.07662 0.0
C2091 C 0.90957 0.56587 0.06786 0.0
C2092 C 0.89585 0.57237 0.08789 0.0
C2093 C 0.92402 0.54823 0.09077 0.0
H2094 H 0.86615 0.59905 0.07473 0.0
H2095 H 0.87841 0.58374 0.0944 0.0
S2096 S 0.98718 0.50222 0.07098 0.0
N2097 N 0.96009 0.52637 0.06279 0.0
N2098 N 0.97373 0.51033 0.08402 0.0
C2099 C 0.94605 0.534 0.08211 0.0
C2100 C 0.93849 0.54249 0.07064 0.0
C2101 C 0.43232 0.37788 0.07353 0.0
C2102 C 0.4066 0.32619 0.07018 0.0
C2103 C 0.44414 0.39142 0.08485 0.0
C2104 C 0.43152 0.3537 0.09315 0.0
H2105 H 0.44444 0.40802 0.0673 0.0
H2106 H 0.46493 0.43169 0.08708 0.0
S2107 S 0.3626 0.21303 0.08875 0.0
N2108 N 0.36746 0.23717 0.07604 0.0
N2109 N 0.39013 0.26265 0.09735 0.0
C2110 C 0.40473 0.30188 0.08994 0.0
C2111 C 0.39208 0.28809 0.07844 0.0
C2112 C 0.34627 0.93693 0.92474 0.0
C2113 C 0.30271 0.89017 0.9276 0.0
C2114 C 0.36482 0.94667 0.91367 0.0
C2115 C 0.34012 0.91002 0.90512 0.0
H2116 H 0.3672 0.96524 0.93118 0.0
H2117 H 0.39982 0.98221 0.91189 0.0
S2118 S 0.22036 0.78459 0.90819 0.0
N2119 N 0.23292 0.80884 0.92101 0.0
N2120 N 0.2665 0.82754 0.90013 0.0
C2121 C 0.29481 0.86429 0.90783 0.0
C2122 C 0.27643 0.85424 0.9191 0.0
C2123 C 0.06222 0.40509 0.91188 0.0
C2124 C 0.10175 0.41132 0.90457 0.0
C2125 C 0.06421 0.39634 0.92342 0.0
C2126 C 0.10568 0.39341 0.928 0.0
H2127 H 0.03065 0.40922 0.90877 0.0
H2128 H 0.03427 0.39396 0.92887 0.0
S2129 S 0.21602 0.40169 0.91245 0.0
N2130 N 0.18128 0.40934 0.90271 0.0
N2131 N 0.18531 0.39414 0.92443 0.0
C2132 C 0.14427 0.39745 0.92078 0.0
C2133 C 0.14221 0.40606 0.90905 0.0
C2134 C 0.66355 0.7136 0.9238 0.0
C2135 C 0.67354 0.76343 0.92627 0.0
C2136 C 0.65454 0.69511 0.91272 0.0
C2137 C 0.65544 0.72593 0.9037 0.0
H2138 H 0.65815 0.68724 0.93057 0.0
H2139 H 0.64305 0.65523 0.91136 0.0
S2140 S 0.68976 0.8625 0.90562 0.0
N2141 N 0.69027 0.84528 0.91878 0.0
N2142 N 0.67537 0.81147 0.89789 0.0
C2143 C 0.67034 0.77744 0.906 0.0
C2144 C 0.67892 0.79597 0.91729 0.0
C2145 C 0.38692 0.46704 0.41098 0.0
C2146 C 0.34867 0.44528 0.40268 0.0
C2147 C 0.37422 0.45963 0.42242 0.0
C2148 C 0.323 0.42936 0.42589 0.0
H2149 H 0.42678 0.49088 0.40861 0.0
H2150 H 0.40456 0.47783 0.4286 0.0
S2151 S 0.20903 0.36295 0.40743 0.0
N2152 N 0.25781 0.39188 0.39865 0.0
N2153 N 0.23398 0.37707 0.42019 0.0
C2154 C 0.28455 0.40658 0.41767 0.0
C2155 C 0.29739 0.41483 0.40604 0.0
C2156 C 0.53641 0.92172 0.41412 0.0
C2157 C 0.57283 0.92827 0.40596 0.0
C2158 C 0.54372 0.91426 0.42544 0.0
C2159 C 0.58736 0.91226 0.42901 0.0
H2160 H 0.50186 0.92207 0.4117 0.0
H2161 H 0.51461 0.90946 0.43143 0.0
S2162 S 0.6931 0.92562 0.41067 0.0
N2163 N 0.65383 0.93234 0.40203 0.0
N2164 N 0.66706 0.91656 0.42328 0.0
C2165 C 0.62431 0.91921 0.42088 0.0
C2166 C 0.61709 0.92753 0.40936 0.0
C2167 C 0.11583 0.70752 0.42234 0.0
C2168 C 0.09666 0.66787 0.43036 0.0
C2169 C 0.11508 0.6969 0.41083 0.0
C2170 C 0.09436 0.64623 0.40695 0.0
H2171 H 0.13301 0.7471 0.42502 0.0
H2172 H 0.13091 0.7285 0.40492 0.0
S2173 S 0.03807 0.52884 0.42451 0.0
N2174 N 0.05569 0.57611 0.43363 0.0
N2175 N 0.05352 0.55608 0.41198 0.0
C2176 C 0.07403 0.60623 0.41486 0.0
C2177 C 0.07542 0.61708 0.42657 0.0
loop_
_geom_bond_atom_site_label_1
_geom_bond_atom_site_label_2
_geom_bond_distance
_geom_bond_site_symmetry_2
_ccdc_geom_bond_type
C0 C1 1.351 . S
C0 N3 1.368 . S
C0 H5 0.931 . S
C1 C0 1.351 . S
C1 N2 1.373 . S
C1 H29 0.930 . S
N2 C1 1.373 . S
N2 C4 1.340 . S
N3 C0 1.368 . S
N3 C4 1.321 . S
N3 Co6 2.135 . S
C4 N2 1.340 . S
C4 N3 1.321 . S
C4 H28 0.930 . S
H5 C0 0.931 . S
Co6 N3 2.135 . S
Co6 N9 2.121 . S
Co6 O14 2.055 . S
Co6 O17 2.039 . S
Co6 N20 2.140 . S
C7 O8 1.227 . S
C7 O17 1.265 1_655 S
O8 C7 1.227 . S
N9 Co6 2.121 . S
N9 C11 1.375 1_455 S
N9 C12 1.313 . S
C10 C11 1.338 . S
C10 N13 1.377 1_655 S
C10 H30 0.930 . S
C11 N9 1.375 1_655 S
C11 C10 1.338 . S
C11 H15 0.931 . S
C12 N9 1.313 . S
C12 N13 1.344 . S
C12 H16 0.930 . S
N13 C10 1.377 1_455 S
N13 C12 1.344 . S
O14 Co6 2.055 . S
O14 C18 1.253 . S
H15 C11 0.931 . S
H16 C12 0.930 . S
O17 Co6 2.039 . S
O17 C7 1.265 1_455 S
C18 O14 1.253 . S
C18 O19 1.227 . S
O19 C18 1.227 . S
N20 Co6 2.140 . S
N20 C23 1.346 . S
N20 C24 1.345 . S
C21 C22 1.387 . S
C21 C25 1.391 . S
C22 C21 1.387 . S
C22 C23 1.369 . S
C22 H31 0.929 . S
C23 N20 1.346 . S
C23 C22 1.369 . S
C23 H26 0.928 . S
C24 N20 1.345 . S
C24 C25 1.371 . S
C24 H27 0.931 . S
C25 C21 1.391 . S
C25 C24 1.371 . S
C25 H32 0.930 . S
H26 C23 0.928 . S
H27 C24 0.931 . S
H28 C4 0.930 . S
H29 C1 0.930 . S
H30 C10 0.930 . S
H31 C22 0.929 . S
H32 C25 0.930 . S
C33 C34 1.351 . S
C33 N36 1.368 . S
C33 H38 0.931 . S
C34 C33 1.351 . S
C34 N35 1.373 . S
C34 H62 0.930 1_565 S
N35 C34 1.373 . S
N35 C37 1.340 . S
N36 C33 1.368 . S
N36 C37 1.321 . S
N36 Co39 2.135 . S
C37 N35 1.340 . S
C37 N36 1.321 . S
C37 H61 0.930 . S
H38 C33 0.931 . S
Co39 N36 2.135 . S
Co39 N42 2.121 . S
Co39 O47 2.055 . S
Co39 O50 2.039 . S
Co39 N53 2.140 . S
C40 O41 1.227 . S
C40 O50 1.265 . S
O41 C40 1.227 . S
N42 Co39 2.121 . S
N42 C44 1.375 . S
N42 C45 1.313 . S
C43 C44 1.338 . S
C43 N46 1.377 . S
C43 H63 0.930 . S
C44 N42 1.375 . S
C44 C43 1.338 . S
C44 H48 0.931 . S
C45 N42 1.313 . S
C45 N46 1.344 . S
C45 H49 0.930 . S
N46 C43 1.377 . S
N46 C45 1.344 . S
O47 Co39 2.055 . S
O47 C51 1.253 . S
H48 C44 0.931 . S
H49 C45 0.930 . S
O50 Co39 2.039 . S
O50 C40 1.265 . S
C51 O47 1.253 . S
C51 O52 1.227 . S
O52 C51 1.227 . S
N53 Co39 2.140 . S
N53 C56 1.346 . S
N53 C57 1.345 . S
C54 C55 1.387 . S
C54 C58 1.391 . S
C55 C54 1.387 . S
C55 C56 1.369 . S
C55 H64 0.929 . S
C56 N53 1.346 . S
C56 C55 1.369 . S
C56 H59 0.928 . S
C57 N53 1.345 . S
C57 C58 1.371 . S
C57 H60 0.931 . S
C58 C54 1.391 . S
C58 C57 1.371 . S
C58 H65 0.930 . S
H59 C56 0.928 . S
H60 C57 0.931 . S
H61 C37 0.930 . S
H62 C34 0.930 1_545 S
H63 C43 0.930 . S
H64 C55 0.929 . S
H65 C58 0.930 . S
C66 C67 1.351 . S
C66 N69 1.368 . S
C66 H71 0.931 . S
C67 C66 1.351 . S
C67 N68 1.373 . S
C67 H95 0.930 1_455 S
N68 C67 1.373 . S
N68 C70 1.340 . S
N69 C66 1.368 . S
N69 C70 1.321 . S
N69 Co72 2.135 . S
C70 N68 1.340 . S
C70 N69 1.321 . S
C70 H94 0.930 . S
H71 C66 0.931 . S
Co72 N69 2.135 . S
Co72 N75 2.121 . S
Co72 O80 2.055 . S
Co72 O83 2.039 . S
Co72 N86 2.140 . S
C73 O74 1.227 . S
C73 O83 1.265 1_545 S
O74 C73 1.227 . S
N75 Co72 2.121 . S
N75 C77 1.375 1_565 S
N75 C78 1.313 . S
C76 C77 1.338 . S
C76 N79 1.377 1_545 S
C76 H96 0.930 . S
C77 N75 1.375 1_545 S
C77 C76 1.338 . S
C77 H81 0.931 . S
C78 N75 1.313 . S
C78 N79 1.344 . S
C78 H82 0.930 . S
N79 C76 1.377 1_565 S
N79 C78 1.344 . S
O80 Co72 2.055 . S
O80 C84 1.253 . S
H81 C77 0.931 . S
H82 C78 0.930 . S
O83 Co72 2.039 . S
O83 C73 1.265 1_565 S
C84 O80 1.253 . S
C84 O85 1.227 . S
O85 C84 1.227 . S
N86 Co72 2.140 . S
N86 C89 1.346 . S
N86 C90 1.345 . S
C87 C88 1.387 . S
C87 C91 1.391 . S
C88 C87 1.387 . S
C88 C89 1.369 . S
C88 H97 0.929 . S
C89 N86 1.346 . S
C89 C88 1.369 . S
C89 H92 0.928 . S
C90 N86 1.345 . S
C90 C91 1.371 . S
C90 H93 0.931 . S
C91 C87 1.391 . S
C91 C90 1.371 . S
C91 H98 0.930 . S
H92 C89 0.928 . S
H93 C90 0.931 . S
H94 C70 0.930 . S
H95 C67 0.930 1_655 S
H96 C76 0.930 . S
H97 C88 0.929 . S
H98 C91 0.930 . S
C99 C100 1.351 . S
C99 N102 1.368 . S
C99 H104 0.931 . S
C100 C99 1.351 . S
C100 N101 1.373 . S
C100 H128 0.930 . S
N101 C100 1.373 . S
N101 C103 1.340 . S
N102 C99 1.368 . S
N102 C103 1.321 . S
N102 Co105 2.135 . S
C103 N101 1.340 . S
C103 N102 1.321 . S
C103 H127 0.930 . S
H104 C99 0.931 . S
Co105 N102 2.135 . S
Co105 N108 2.121 . S
Co105 O113 2.055 . S
Co105 O116 2.039 . S
Co105 N119 2.140 . S
C106 O107 1.227 . S
C106 O116 1.265 1_565 S
O107 C106 1.227 . S
N108 Co105 2.121 . S
N108 C110 1.375 1_545 S
N108 C111 1.313 . S
C109 C110 1.338 . S
C109 N112 1.377 1_565 S
C109 H129 0.930 . S
C110 N108 1.375 1_565 S
C110 C109 1.338 . S
C110 H114 0.931 . S
C111 N108 1.313 . S
C111 N112 1.344 . S
C111 H115 0.930 . S
N112 C109 1.377 1_545 S
N112 C111 1.344 . S
O113 Co105 2.055 . S
O113 C117 1.253 . S
H114 C110 0.931 . S
H115 C111 0.930 . S
O116 Co105 2.039 . S
O116 C106 1.265 1_545 S
C117 O113 1.253 . S
C117 O118 1.227 . S
O118 C117 1.227 . S
N119 Co105 2.140 . S
N119 C122 1.346 . S
N119 C123 1.345 . S
C120 C121 1.387 . S
C120 C124 1.391 . S
C121 C120 1.387 . S
C121 C122 1.369 . S
C121 H130 0.929 . S
C122 N119 1.346 . S
C122 C121 1.369 . S
C122 H125 0.928 . S
C123 N119 1.345 . S
C123 C124 1.371 . S
C123 H126 0.931 . S
C124 C120 1.391 . S
C124 C123 1.371 . S
C124 H131 0.930 . S
H125 C122 0.928 . S
H126 C123 0.931 . S
H127 C103 0.930 . S
H128 C100 0.930 . S
H129 C109 0.930 . S
H130 C121 0.929 . S
H131 C124 0.930 . S
C132 C133 1.351 . S
C132 N135 1.368 . S
C132 H137 0.931 . S
C133 C132 1.351 . S
C133 N134 1.373 . S
C133 H161 0.930 1_545 S
N134 C133 1.373 . S
N134 C136 1.340 . S
N135 C132 1.368 . S
N135 C136 1.321 . S
N135 Co138 2.135 . S
C136 N134 1.340 . S
C136 N135 1.321 . S
C136 H160 0.930 . S
H137 C132 0.931 . S
Co138 N135 2.135 . S
Co138 N141 2.121 . S
Co138 O146 2.055 . S
Co138 O149 2.039 . S
Co138 N152 2.140 . S
C139 O140 1.227 . S
C139 O149 1.265 1_455 S
O140 C139 1.227 . S
N141 Co138 2.121 . S
N141 C143 1.375 1_655 S
N141 C144 1.313 . S
C142 C143 1.338 . S
C142 N145 1.377 1_455 S
C142 H162 0.930 . S
C143 N141 1.375 1_455 S
C143 C142 1.338 . S
C143 H147 0.931 . S
C144 N141 1.313 . S
C144 N145 1.344 . S
C144 H148 0.930 . S
N145 C142 1.377 1_655 S
N145 C144 1.344 . S
O146 Co138 2.055 . S
O146 C150 1.253 . S
H147 C143 0.931 . S
H148 C144 0.930 . S
O149 Co138 2.039 . S
O149 C139 1.265 1_655 S
C150 O146 1.253 . S
C150 O151 1.227 . S
O151 C150 1.227 . S
N152 Co138 2.140 . S
N152 C155 1.346 . S
N152 C156 1.345 . S
C153 C154 1.387 . S
C153 C157 1.391 . S
C154 C153 1.387 . S
C154 C155 1.369 . S
C154 H163 0.929 . S
C155 N152 1.346 . S
C155 C154 1.369 . S
C155 H158 0.928 . S
C156 N152 1.345 . S
C156 C157 1.371 . S
C156 H159 0.931 . S
C157 C153 1.391 . S
C157 C156 1.371 . S
C157 H164 0.930 . S
H158 C155 0.928 . S
H159 C156 0.931 . S
H160 C136 0.930 . S
H161 C133 0.930 1_565 S
H162 C142 0.930 . S
H163 C154 0.929 . S
H164 C157 0.930 . S
C165 C166 1.351 . S
C165 N168 1.368 . S
C165 H170 0.931 . S
C166 C165 1.351 . S
C166 N167 1.373 . S
C166 H194 0.930 1_655 S
N167 C166 1.373 . S
N167 C169 1.340 . S
N168 C165 1.368 . S
N168 C169 1.321 . S
N168 Co171 2.135 . S
C169 N167 1.340 . S
C169 N168 1.321 . S
C169 H193 0.930 . S
H170 C165 0.931 . S
Co171 N168 2.135 . S
Co171 N174 2.121 . S
Co171 O179 2.055 . S
Co171 O182 2.039 . S
Co171 N185 2.140 . S
C172 O173 1.227 . S
C172 O182 1.265 . S
O173 C172 1.227 . S
N174 Co171 2.121 . S
N174 C176 1.375 . S
N174 C177 1.313 . S
C175 C176 1.338 . S
C175 N178 1.377 . S
C175 H195 0.930 . S
C176 N174 1.375 . S
C176 C175 1.338 . S
C176 H180 0.931 . S
C177 N174 1.313 . S
C177 N178 1.344 . S
C177 H181 0.930 . S
N178 C175 1.377 . S
N178 C177 1.344 . S
O179 Co171 2.055 . S
O179 C183 1.253 . S
H180 C176 0.931 . S
H181 C177 0.930 . S
O182 Co171 2.039 . S
O182 C172 1.265 . S
C183 O179 1.253 . S
C183 O184 1.227 . S
O184 C183 1.227 . S
N185 Co171 2.140 . S
N185 C188 1.346 . S
N185 C189 1.345 . S
C186 C187 1.387 . S
C186 C190 1.391 . S
C187 C186 1.387 . S
C187 C188 1.369 . S
C187 H196 0.929 . S
C188 N185 1.346 . S
C188 C187 1.369 . S
C188 H191 0.928 . S
C189 N185 1.345 . S
C189 C190 1.371 . S
C189 H192 0.931 . S
C190 C186 1.391 . S
C190 C189 1.371 . S
C190 H197 0.930 . S
H191 C188 0.928 . S
H192 C189 0.931 . S
H193 C169 0.930 . S
H194 C166 0.930 1_455 S
H195 C175 0.930 . S
H196 C187 0.929 . S
H197 C190 0.930 . S
C198 C199 1.351 . S
C198 N201 1.368 . S
C198 H203 0.931 . S
C199 C198 1.351 . S
C199 N200 1.373 . S
C199 H227 0.930 . S
N200 C199 1.373 . S
N200 C202 1.340 . S
N201 C198 1.368 . S
N201 C202 1.321 . S
N201 Co204 2.135 . S
C202 N200 1.340 . S
C202 N201 1.321 . S
C202 H226 0.930 . S
H203 C198 0.931 . S
Co204 N201 2.135 . S
Co204 N207 2.121 . S
Co204 O212 2.055 . S
Co204 O215 2.039 . S
Co204 N218 2.140 . S
C205 O206 1.227 . S
C205 O215 1.265 1_455 S
O206 C205 1.227 . S
N207 Co204 2.121 . S
N207 C209 1.375 1_655 S
N207 C210 1.313 . S
C208 C209 1.338 . S
C208 N211 1.377 1_455 S
C208 H228 0.930 . S
C209 N207 1.375 1_455 S
C209 C208 1.338 . S
C209 H213 0.931 . S
C210 N207 1.313 . S
C210 N211 1.344 . S
C210 H214 0.930 . S
N211 C208 1.377 1_655 S
N211 C210 1.344 . S
O212 Co204 2.055 . S
O212 C216 1.253 . S
H213 C209 0.931 . S
H214 C210 0.930 . S
O215 Co204 2.039 . S
O215 C205 1.265 1_655 S
C216 O212 1.253 . S
C216 O217 1.227 . S
O217 C216 1.227 . S
N218 Co204 2.140 . S
N218 C221 1.346 . S
N218 C222 1.345 . S
C219 C220 1.387 . S
C219 C223 1.391 . S
C220 C219 1.387 . S
C220 C221 1.369 . S
C220 H229 0.929 . S
C221 N218 1.346 . S
C221 C220 1.369 . S
C221 H224 0.928 . S
C222 N218 1.345 . S
C222 C223 1.371 . S
C222 H225 0.931 . S
C223 C219 1.391 . S
C223 C222 1.371 . S
C223 H230 0.930 . S
H224 C221 0.928 . S
H225 C222 0.931 . S
H226 C202 0.930 . S
H227 C199 0.930 . S
H228 C208 0.930 . S
H229 C220 0.929 . S
H230 C223 0.930 . S
C231 C232 1.351 . S
C231 N234 1.368 . S
C231 H236 0.931 . S
C232 C231 1.351 . S
C232 N233 1.373 . S
C232 H260 0.930 1_545 S
N233 C232 1.373 . S
N233 C235 1.340 . S
N234 C231 1.368 . S
N234 C235 1.321 . S
N234 Co237 2.135 . S
C235 N233 1.340 . S
C235 N234 1.321 . S
C235 H259 0.930 . S
H236 C231 0.931 . S
Co237 N234 2.135 . S
Co237 N240 2.121 . S
Co237 O245 2.055 . S
Co237 O248 2.039 . S
Co237 N251 2.140 . S
C238 O239 1.227 . S
C238 O248 1.265 . S
O239 C238 1.227 . S
N240 Co237 2.121 . S
N240 C242 1.375 . S
N240 C243 1.313 . S
C241 C242 1.338 . S
C241 N244 1.377 . S
C241 H261 0.930 . S
C242 N240 1.375 . S
C242 C241 1.338 . S
C242 H246 0.931 . S
C243 N240 1.313 . S
C243 N244 1.344 . S
C243 H247 0.930 . S
N244 C241 1.377 . S
N244 C243 1.344 . S
O245 Co237 2.055 . S
O245 C249 1.253 . S
H246 C242 0.931 . S
H247 C243 0.930 . S
O248 Co237 2.039 . S
O248 C238 1.265 . S
C249 O245 1.253 . S
C249 O250 1.227 . S
O250 C249 1.227 . S
N251 Co237 2.140 . S
N251 C254 1.346 . S
N251 C255 1.345 . S
C252 C253 1.387 . S
C252 C256 1.391 . S
C253 C252 1.387 . S
C253 C254 1.369 . S
C253 H262 0.929 . S
C254 N251 1.346 . S
C254 C253 1.369 . S
C254 H257 0.928 . S
C255 N251 1.345 . S
C255 C256 1.371 . S
C255 H258 0.931 . S
C256 C252 1.391 . S
C256 C255 1.371 . S
C256 H263 0.930 . S
H257 C254 0.928 . S
H258 C255 0.931 . S
H259 C235 0.930 . S
H260 C232 0.930 1_565 S
H261 C241 0.930 . S
H262 C253 0.929 . S
H263 C256 0.930 . S
C264 C265 1.351 . S
C264 N267 1.368 . S
C264 H269 0.931 . S
C265 C264 1.351 . S
C265 N266 1.373 . S
C265 H293 0.930 1_655 S
N266 C265 1.373 . S
N266 C268 1.340 . S
N267 C264 1.368 . S
N267 C268 1.321 . S
N267 Co270 2.135 . S
C268 N266 1.340 . S
C268 N267 1.321 . S
C268 H292 0.930 . S
H269 C264 0.931 . S
Co270 N267 2.135 . S
Co270 N273 2.121 . S
Co270 O278 2.055 . S
Co270 O281 2.039 . S
Co270 N284 2.140 . S
C271 O272 1.227 . S
C271 O281 1.265 1_565 S
O272 C271 1.227 . S
N273 Co270 2.121 . S
N273 C275 1.375 1_545 S
N273 C276 1.313 . S
C274 C275 1.338 . S
C274 N277 1.377 1_565 S
C274 H294 0.930 . S
C275 N273 1.375 1_565 S
C275 C274 1.338 . S
C275 H279 0.931 . S
C276 N273 1.313 . S
C276 N277 1.344 . S
C276 H280 0.930 . S
N277 C274 1.377 1_545 S
N277 C276 1.344 . S
O278 Co270 2.055 . S
O278 C282 1.253 . S
H279 C275 0.931 . S
H280 C276 0.930 . S
O281 Co270 2.039 . S
O281 C271 1.265 1_545 S
C282 O278 1.253 . S
C282 O283 1.227 . S
O283 C282 1.227 . S
N284 Co270 2.140 . S
N284 C287 1.346 . S
N284 C288 1.345 . S
C285 C286 1.387 . S
C285 C289 1.391 . S
C286 C285 1.387 . S
C286 C287 1.369 . S
C286 H295 0.929 . S
C287 N284 1.346 . S
C287 C286 1.369 . S
C287 H290 0.928 . S
C288 N284 1.345 . S
C288 C289 1.371 . S
C288 H291 0.931 . S
C289 C285 1.391 . S
C289 C288 1.371 . S
C289 H296 0.930 . S
H290 C287 0.928 . S
H291 C288 0.931 . S
H292 C268 0.930 . S
H293 C265 0.930 1_455 S
H294 C274 0.930 . S
H295 C286 0.929 . S
H296 C289 0.930 . S
C297 C298 1.351 . S
C297 N300 1.368 . S
C297 H302 0.931 . S
C298 C297 1.351 . S
C298 N299 1.373 . S
C298 H326 0.930 . S
N299 C298 1.373 . S
N299 C301 1.340 . S
N300 C297 1.368 . S
N300 C301 1.321 . S
N300 Co303 2.135 . S
C301 N299 1.340 . S
C301 N300 1.321 . S
C301 H325 0.930 . S
H302 C297 0.931 . S
Co303 N300 2.135 . S
Co303 N306 2.121 . S
Co303 O311 2.055 . S
Co303 O314 2.039 . S
Co303 N317 2.140 . S
C304 O305 1.227 . S
C304 O314 1.265 1_545 S
O305 C304 1.227 . S
N306 Co303 2.121 . S
N306 C308 1.375 1_565 S
N306 C309 1.313 . S
C307 C308 1.338 . S
C307 N310 1.377 1_545 S
C307 H327 0.930 . S
C308 N306 1.375 1_545 S
C308 C307 1.338 . S
C308 H312 0.931 . S
C309 N306 1.313 . S
C309 N310 1.344 . S
C309 H313 0.930 . S
N310 C307 1.377 1_565 S
N310 C309 1.344 . S
O311 Co303 2.055 . S
O311 C315 1.253 . S
H312 C308 0.931 . S
H313 C309 0.930 . S
O314 Co303 2.039 . S
O314 C304 1.265 1_565 S
C315 O311 1.253 . S
C315 O316 1.227 . S
O316 C315 1.227 . S
N317 Co303 2.140 . S
N317 C320 1.346 . S
N317 C321 1.345 . S
C318 C319 1.387 . S
C318 C322 1.391 . S
C319 C318 1.387 . S
C319 C320 1.369 . S
C319 H328 0.929 . S
C320 N317 1.346 . S
C320 C319 1.369 . S
C320 H323 0.928 . S
C321 N317 1.345 . S
C321 C322 1.371 . S
C321 H324 0.931 . S
C322 C318 1.391 . S
C322 C321 1.371 . S
C322 H329 0.930 . S
H323 C320 0.928 . S
H324 C321 0.931 . S
H325 C301 0.930 . S
H326 C298 0.930 . S
H327 C307 0.930 . S
H328 C319 0.929 . S
H329 C322 0.930 . S
C330 C331 1.351 . S
C330 N333 1.368 . S
C330 H335 0.931 . S
C331 C330 1.351 . S
C331 N332 1.373 . S
C331 H359 0.930 1_565 S
N332 C331 1.373 . S
N332 C334 1.340 . S
N333 C330 1.368 . S
N333 C334 1.321 . S
N333 Co336 2.135 . S
C334 N332 1.340 . S
C334 N333 1.321 . S
C334 H358 0.930 . S
H335 C330 0.931 . S
Co336 N333 2.135 . S
Co336 N339 2.121 . S
Co336 O344 2.055 . S
Co336 O347 2.039 . S
Co336 N350 2.140 . S
C337 O338 1.227 . S
C337 O347 1.265 1_655 S
O338 C337 1.227 . S
N339 Co336 2.121 . S
N339 C341 1.375 1_455 S
N339 C342 1.313 . S
C340 C341 1.338 . S
C340 N343 1.377 1_655 S
C340 H360 0.930 . S
C341 N339 1.375 1_655 S
C341 C340 1.338 . S
C341 H345 0.931 . S
C342 N339 1.313 . S
C342 N343 1.344 . S
C342 H346 0.930 . S
N343 C340 1.377 1_455 S
N343 C342 1.344 . S
O344 Co336 2.055 . S
O344 C348 1.253 . S
H345 C341 0.931 . S
H346 C342 0.930 . S
O347 Co336 2.039 . S
O347 C337 1.265 1_455 S
C348 O344 1.253 . S
C348 O349 1.227 . S
O349 C348 1.227 . S
N350 Co336 2.140 . S
N350 C353 1.346 . S
N350 C354 1.345 . S
C351 C352 1.387 . S
C351 C355 1.391 . S
C352 C351 1.387 . S
C352 C353 1.369 . S
C352 H361 0.929 . S
C353 N350 1.346 . S
C353 C352 1.369 . S
C353 H356 0.928 . S
C354 N350 1.345 . S
C354 C355 1.371 . S
C354 H357 0.931 . S
C355 C351 1.391 . S
C355 C354 1.371 . S
C355 H362 0.930 . S
H356 C353 0.928 . S
H357 C354 0.931 . S
H358 C334 0.930 . S
H359 C331 0.930 1_545 S
H360 C340 0.930 . S
H361 C352 0.929 . S
H362 C355 0.930 . S
C363 C364 1.351 . S
C363 N366 1.368 . S
C363 H368 0.931 . S
C364 C363 1.351 . S
C364 N365 1.373 . S
C364 H392 0.930 1_455 S
N365 C364 1.373 . S
N365 C367 1.340 . S
N366 C363 1.368 . S
N366 C367 1.321 . S
N366 Co369 2.135 . S
C367 N365 1.340 . S
C367 N366 1.321 . S
C367 H391 0.930 . S
H368 C363 0.931 . S
Co369 N366 2.135 . S
Co369 N372 2.121 . S
Co369 O377 2.055 . S
Co369 O380 2.039 . S
Co369 N383 2.140 . S
C370 O371 1.227 . S
C370 O380 1.265 . S
O371 C370 1.227 . S
N372 Co369 2.121 . S
N372 C374 1.375 . S
N372 C375 1.313 . S
C373 C374 1.338 . S
C373 N376 1.377 . S
C373 H393 0.930 . S
C374 N372 1.375 . S
C374 C373 1.338 . S
C374 H378 0.931 . S
C375 N372 1.313 . S
C375 N376 1.344 . S
C375 H379 0.930 . S
N376 C373 1.377 . S
N376 C375 1.344 . S
O377 Co369 2.055 . S
O377 C381 1.253 . S
H378 C374 0.931 . S
H379 C375 0.930 . S
O380 Co369 2.039 . S
O380 C370 1.265 . S
C381 O377 1.253 . S
C381 O382 1.227 . S
O382 C381 1.227 . S
N383 Co369 2.140 . S
N383 C386 1.346 . S
N383 C387 1.345 . S
C384 C385 1.387 . S
C384 C388 1.391 . S
C385 C384 1.387 . S
C385 C386 1.369 . S
C385 H394 0.929 . S
C386 N383 1.346 . S
C386 C385 1.369 . S
C386 H389 0.928 . S
C387 N383 1.345 . S
C387 C388 1.371 . S
C387 H390 0.931 . S
C388 C384 1.391 . S
C388 C387 1.371 . S
C388 H395 0.930 . S
H389 C386 0.928 . S
H390 C387 0.931 . S
H391 C367 0.930 . S
H392 C364 0.930 1_655 S
H393 C373 0.930 . S
H394 C385 0.929 . S
H395 C388 0.930 . S
C396 C397 1.351 . S
C396 N399 1.368 . S
C396 H401 0.931 . S
C397 C396 1.351 . S
C397 N398 1.373 . S
C397 H425 0.930 . S
N398 C397 1.373 . S
N398 C400 1.340 . S
N399 C396 1.368 . S
N399 C400 1.321 . S
N399 Co402 2.135 . S
C400 N398 1.340 . S
C400 N399 1.321 . S
C400 H424 0.930 . S
H401 C396 0.931 . S
Co402 N399 2.135 . S
Co402 N405 2.121 . S
Co402 O410 2.055 . S
Co402 O413 2.039 . S
Co402 N416 2.140 . S
C403 O404 1.227 . S
C403 O413 1.265 . S
O404 C403 1.227 . S
N405 Co402 2.121 . S
N405 C407 1.375 . S
N405 C408 1.313 . S
C406 C407 1.338 . S
C406 N409 1.377 . S
C406 H426 0.930 . S
C407 N405 1.375 . S
C407 C406 1.338 . S
C407 H411 0.931 . S
C408 N405 1.313 . S
C408 N409 1.344 . S
C408 H412 0.930 . S
N409 C406 1.377 . S
N409 C408 1.344 . S
O410 Co402 2.055 . S
O410 C414 1.253 . S
H411 C407 0.931 . S
H412 C408 0.930 . S
O413 Co402 2.039 . S
O413 C403 1.265 . S
C414 O410 1.253 . S
C414 O415 1.227 . S
O415 C414 1.227 . S
N416 Co402 2.140 . S
N416 C419 1.346 . S
N416 C420 1.345 . S
C417 C418 1.387 . S
C417 C421 1.391 . S
C418 C417 1.387 . S
C418 C419 1.369 . S
C418 H427 0.929 . S
C419 N416 1.346 . S
C419 C418 1.369 . S
C419 H422 0.928 . S
C420 N416 1.345 . S
C420 C421 1.371 . S
C420 H423 0.931 . S
C421 C417 1.391 . S
C421 C420 1.371 . S
C421 H428 0.930 . S
H422 C419 0.928 . S
H423 C420 0.931 . S
H424 C400 0.930 . S
H425 C397 0.930 . S
H426 C406 0.930 . S
H427 C418 0.929 . S
H428 C421 0.930 . S
C429 C430 1.351 . S
C429 N432 1.368 . S
C429 H434 0.931 . S
C430 C429 1.351 . S
C430 N431 1.373 . S
C430 H458 0.930 . S
N431 C430 1.373 . S
N431 C433 1.340 . S
N432 C429 1.368 . S
N432 C433 1.321 . S
N432 Co435 2.135 . S
C433 N431 1.340 . S
C433 N432 1.321 . S
C433 H457 0.930 . S
H434 C429 0.931 . S
Co435 N432 2.135 . S
Co435 N438 2.121 . S
Co435 O443 2.055 . S
Co435 O446 2.039 . S
Co435 N449 2.140 . S
C436 O437 1.227 . S
C436 O446 1.265 . S
O437 C436 1.227 . S
N438 Co435 2.121 . S
N438 C440 1.375 . S
N438 C441 1.313 . S
C439 C440 1.338 . S
C439 N442 1.377 . S
C439 H459 0.930 1_545 S
C440 N438 1.375 . S
C440 C439 1.338 . S
C440 H444 0.931 . S
C441 N438 1.313 . S
C441 N442 1.344 . S
C441 H445 0.930 . S
N442 C439 1.377 . S
N442 C441 1.344 . S
O443 Co435 2.055 . S
O443 C447 1.253 . S
H444 C440 0.931 . S
H445 C441 0.930 . S
O446 Co435 2.039 . S
O446 C436 1.265 . S
C447 O443 1.253 . S
C447 O448 1.227 . S
O448 C447 1.227 . S
N449 Co435 2.140 . S
N449 C452 1.346 . S
N449 C453 1.345 . S
C450 C451 1.387 . S
C450 C454 1.391 . S
C451 C450 1.387 . S
C451 C452 1.369 . S
C451 H460 0.929 . S
C452 N449 1.346 . S
C452 C451 1.369 . S
C452 H455 0.928 . S
C453 N449 1.345 . S
C453 C454 1.371 . S
C453 H456 0.931 . S
C454 C450 1.391 . S
C454 C453 1.371 . S
C454 H461 0.930 . S
H455 C452 0.928 . S
H456 C453 0.931 . S
H457 C433 0.930 . S
H458 C430 0.930 . S
H459 C439 0.930 1_565 S
H460 C451 0.929 . S
H461 C454 0.930 . S
C462 C463 1.351 . S
C462 N465 1.368 . S
C462 H467 0.931 . S
C463 C462 1.351 . S
C463 N464 1.373 . S
C463 H491 0.930 . S
N464 C463 1.373 . S
N464 C466 1.340 . S
N465 C462 1.368 . S
N465 C466 1.321 . S
N465 Co468 2.135 . S
C466 N464 1.340 . S
C466 N465 1.321 . S
C466 H490 0.930 . S
H467 C462 0.931 . S
Co468 N465 2.135 . S
Co468 N471 2.121 . S
Co468 O476 2.055 . S
Co468 O479 2.039 . S
Co468 N482 2.140 . S
C469 O470 1.227 . S
C469 O479 1.265 . S
O470 C469 1.227 . S
N471 Co468 2.121 . S
N471 C473 1.375 . S
N471 C474 1.313 . S
C472 C473 1.338 . S
C472 N475 1.377 . S
C472 H492 0.930 1_655 S
C473 N471 1.375 . S
C473 C472 1.338 . S
C473 H477 0.931 . S
C474 N471 1.313 . S
C474 N475 1.344 . S
C474 H478 0.930 . S
N475 C472 1.377 . S
N475 C474 1.344 . S
O476 Co468 2.055 . S
O476 C480 1.253 . S
H477 C473 0.931 . S
H478 C474 0.930 . S
O479 Co468 2.039 . S
O479 C469 1.265 . S
C480 O476 1.253 . S
C480 O481 1.227 . S
O481 C480 1.227 . S
N482 Co468 2.140 . S
N482 C485 1.346 . S
N482 C486 1.345 . S
C483 C484 1.387 . S
C483 C487 1.391 . S
C484 C483 1.387 . S
C484 C485 1.369 . S
C484 H493 0.929 . S
C485 N482 1.346 . S
C485 C484 1.369 . S
C485 H488 0.928 . S
C486 N482 1.345 . S
C486 C487 1.371 . S
C486 H489 0.931 . S
C487 C483 1.391 . S
C487 C486 1.371 . S
C487 H494 0.930 . S
H488 C485 0.928 . S
H489 C486 0.931 . S
H490 C466 0.930 . S
H491 C463 0.930 . S
H492 C472 0.930 1_455 S
H493 C484 0.929 . S
H494 C487 0.930 . S
C495 C496 1.351 . S
C495 N498 1.368 . S
C495 H500 0.931 . S
C496 C495 1.351 . S
C496 N497 1.373 . S
C496 H524 0.930 . S
N497 C496 1.373 . S
N497 C499 1.340 . S
N498 C495 1.368 . S
N498 C499 1.321 . S
N498 Co501 2.135 . S
C499 N497 1.340 . S
C499 N498 1.321 . S
C499 H523 0.930 . S
H500 C495 0.931 . S
Co501 N498 2.135 . S
Co501 N504 2.121 . S
Co501 O509 2.055 . S
Co501 O512 2.039 . S
Co501 N515 2.140 . S
C502 O503 1.227 . S
C502 O512 1.265 . S
O503 C502 1.227 . S
N504 Co501 2.121 . S
N504 C506 1.375 . S
N504 C507 1.313 1_655 S
C505 C506 1.338 . S
C505 N508 1.377 1_655 S
C505 H525 0.930 . S
C506 N504 1.375 . S
C506 C505 1.338 . S
C506 H510 0.931 . S
C507 N504 1.313 1_455 S
C507 N508 1.344 . S
C507 H511 0.930 . S
N508 C505 1.377 1_455 S
N508 C507 1.344 . S
O509 Co501 2.055 . S
O509 C513 1.253 . S
H510 C506 0.931 . S
H511 C507 0.930 . S
O512 Co501 2.039 . S
O512 C502 1.265 . S
C513 O509 1.253 . S
C513 O514 1.227 1_655 S
O514 C513 1.227 1_455 S
N515 Co501 2.140 . S
N515 C518 1.346 . S
N515 C519 1.345 . S
C516 C517 1.387 . S
C516 C520 1.391 . S
C517 C516 1.387 . S
C517 C518 1.369 . S
C517 H526 0.929 . S
C518 N515 1.346 . S
C518 C517 1.369 . S
C518 H521 0.928 . S
C519 N515 1.345 . S
C519 C520 1.371 . S
C519 H522 0.931 1_655 S
C520 C516 1.391 . S
C520 C519 1.371 . S
C520 H527 0.930 1_655 S
H521 C518 0.928 . S
H522 C519 0.931 1_455 S
H523 C499 0.930 . S
H524 C496 0.930 . S
H525 C505 0.930 . S
H526 C517 0.929 . S
H527 C520 0.930 1_455 S
C528 C529 1.351 . S
C528 N531 1.368 . S
C528 H533 0.931 . S
C529 C528 1.351 . S
C529 N530 1.373 . S
C529 H557 0.930 . S
N530 C529 1.373 . S
N530 C532 1.340 . S
N531 C528 1.368 . S
N531 C532 1.321 . S
N531 Co534 2.135 . S
C532 N530 1.340 . S
C532 N531 1.321 . S
C532 H556 0.930 . S
H533 C528 0.931 . S
Co534 N531 2.135 . S
Co534 N537 2.121 . S
Co534 O542 2.055 . S
Co534 O545 2.039 . S
Co534 N548 2.140 . S
C535 O536 1.227 . S
C535 O545 1.265 . S
O536 C535 1.227 . S
N537 Co534 2.121 . S
N537 C539 1.375 . S
N537 C540 1.313 . S
C538 C539 1.338 . S
C538 N541 1.377 . S
C538 H558 0.930 . S
C539 N537 1.375 . S
C539 C538 1.338 . S
C539 H543 0.931 . S
C540 N537 1.313 . S
C540 N541 1.344 . S
C540 H544 0.930 . S
N541 C538 1.377 . S
N541 C540 1.344 . S
O542 Co534 2.055 . S
O542 C546 1.253 . S
H543 C539 0.931 . S
H544 C540 0.930 . S
O545 Co534 2.039 . S
O545 C535 1.265 . S
C546 O542 1.253 . S
C546 O547 1.227 . S
O547 C546 1.227 . S
N548 Co534 2.140 . S
N548 C551 1.346 . S
N548 C552 1.345 . S
C549 C550 1.387 . S
C549 C553 1.391 . S
C550 C549 1.387 . S
C550 C551 1.369 . S
C550 H559 0.929 . S
C551 N548 1.346 . S
C551 C550 1.369 . S
C551 H554 0.928 . S
C552 N548 1.345 . S
C552 C553 1.371 . S
C552 H555 0.931 . S
C553 C549 1.391 . S
C553 C552 1.371 . S
C553 H560 0.930 . S
H554 C551 0.928 . S
H555 C552 0.931 . S
H556 C532 0.930 . S
H557 C529 0.930 . S
H558 C538 0.930 . S
H559 C550 0.929 . S
H560 C553 0.930 . S
C561 C562 1.351 . S
C561 N564 1.368 . S
C561 H566 0.931 . S
C562 C561 1.351 . S
C562 N563 1.373 . S
C562 H590 0.930 . S
N563 C562 1.373 . S
N563 C565 1.340 . S
N564 C561 1.368 . S
N564 C565 1.321 . S
N564 Co567 2.135 . S
C565 N563 1.340 . S
C565 N564 1.321 . S
C565 H589 0.930 . S
H566 C561 0.931 . S
Co567 N564 2.135 . S
Co567 N570 2.121 . S
Co567 O575 2.055 . S
Co567 O578 2.039 . S
Co567 N581 2.140 . S
C568 O569 1.227 . S
C568 O578 1.265 . S
O569 C568 1.227 . S
N570 Co567 2.121 . S
N570 C572 1.375 . S
N570 C573 1.313 1_545 S
C571 C572 1.338 . S
C571 N574 1.377 1_545 S
C571 H591 0.930 . S
C572 N570 1.375 . S
C572 C571 1.338 . S
C572 H576 0.931 . S
C573 N570 1.313 1_565 S
C573 N574 1.344 . S
C573 H577 0.930 . S
N574 C571 1.377 1_565 S
N574 C573 1.344 . S
O575 Co567 2.055 . S
O575 C579 1.253 . S
H576 C572 0.931 . S
H577 C573 0.930 . S
O578 Co567 2.039 . S
O578 C568 1.265 . S
C579 O575 1.253 . S
C579 O580 1.227 1_545 S
O580 C579 1.227 1_565 S
N581 Co567 2.140 . S
N581 C584 1.346 . S
N581 C585 1.345 . S
C582 C583 1.387 . S
C582 C586 1.391 . S
C583 C582 1.387 . S
C583 C584 1.369 . S
C583 H592 0.929 . S
C584 N581 1.346 . S
C584 C583 1.369 . S
C584 H587 0.928 . S
C585 N581 1.345 . S
C585 C586 1.371 . S
C585 H588 0.931 1_545 S
C586 C582 1.391 . S
C586 C585 1.371 . S
C586 H593 0.930 1_545 S
H587 C584 0.928 . S
H588 C585 0.931 1_565 S
H589 C565 0.930 . S
H590 C562 0.930 . S
H591 C571 0.930 . S
H592 C583 0.929 . S
H593 C586 0.930 1_565 S
C594 C595 1.351 . S
C594 N597 1.368 . S
C594 H599 0.931 . S
C595 C594 1.351 . S
C595 N596 1.373 . S
C595 H623 0.930 . S
N596 C595 1.373 . S
N596 C598 1.340 . S
N597 C594 1.368 . S
N597 C598 1.321 . S
N597 Co600 2.135 . S
C598 N596 1.340 . S
C598 N597 1.321 . S
C598 H622 0.930 . S
H599 C594 0.931 . S
Co600 N597 2.135 . S
Co600 N603 2.121 . S
Co600 O608 2.055 . S
Co600 O611 2.039 . S
Co600 N614 2.140 . S
C601 O602 1.227 . S
C601 O611 1.265 . S
O602 C601 1.227 . S
N603 Co600 2.121 . S
N603 C605 1.375 . S
N603 C606 1.313 1_545 S
C604 C605 1.338 . S
C604 N607 1.377 1_545 S
C604 H624 0.930 . S
C605 N603 1.375 . S
C605 C604 1.338 . S
C605 H609 0.931 . S
C606 N603 1.313 1_565 S
C606 N607 1.344 . S
C606 H610 0.930 . S
N607 C604 1.377 1_565 S
N607 C606 1.344 . S
O608 Co600 2.055 . S
O608 C612 1.253 . S
H609 C605 0.931 . S
H610 C606 0.930 . S
O611 Co600 2.039 . S
O611 C601 1.265 . S
C612 O608 1.253 . S
C612 O613 1.227 1_545 S
O613 C612 1.227 1_565 S
N614 Co600 2.140 . S
N614 C617 1.346 . S
N614 C618 1.345 . S
C615 C616 1.387 . S
C615 C619 1.391 . S
C616 C615 1.387 . S
C616 C617 1.369 . S
C616 H625 0.929 . S
C617 N614 1.346 . S
C617 C616 1.369 . S
C617 H620 0.928 . S
C618 N614 1.345 . S
C618 C619 1.371 . S
C618 H621 0.931 1_545 S
C619 C615 1.391 . S
C619 C618 1.371 . S
C619 H626 0.930 1_545 S
H620 C617 0.928 . S
H621 C618 0.931 1_565 S
H622 C598 0.930 . S
H623 C595 0.930 . S
H624 C604 0.930 . S
H625 C616 0.929 . S
H626 C619 0.930 1_565 S
C627 C628 1.351 . S
C627 N630 1.368 . S
C627 H632 0.931 . S
C628 C627 1.351 . S
C628 N629 1.373 . S
C628 H656 0.930 . S
N629 C628 1.373 . S
N629 C631 1.340 . S
N630 C627 1.368 . S
N630 C631 1.321 . S
N630 Co633 2.135 . S
C631 N629 1.340 . S
C631 N630 1.321 . S
C631 H655 0.930 . S
H632 C627 0.931 . S
Co633 N630 2.135 . S
Co633 N636 2.121 . S
Co633 O641 2.055 . S
Co633 O644 2.039 . S
Co633 N647 2.140 . S
C634 O635 1.227 . S
C634 O644 1.265 . S
O635 C634 1.227 . S
N636 Co633 2.121 . S
N636 C638 1.375 . S
N636 C639 1.313 1_655 S
C637 C638 1.338 . S
C637 N640 1.377 1_655 S
C637 H657 0.930 . S
C638 N636 1.375 . S
C638 C637 1.338 . S
C638 H642 0.931 . S
C639 N636 1.313 1_455 S
C639 N640 1.344 . S
C639 H643 0.930 . S
N640 C637 1.377 1_455 S
N640 C639 1.344 . S
O641 Co633 2.055 . S
O641 C645 1.253 . S
H642 C638 0.931 . S
H643 C639 0.930 . S
O644 Co633 2.039 . S
O644 C634 1.265 . S
C645 O641 1.253 . S
C645 O646 1.227 1_655 S
O646 C645 1.227 1_455 S
N647 Co633 2.140 . S
N647 C650 1.346 . S
N647 C651 1.345 . S
C648 C649 1.387 . S
C648 C652 1.391 . S
C649 C648 1.387 . S
C649 C650 1.369 . S
C649 H658 0.929 . S
C650 N647 1.346 . S
C650 C649 1.369 . S
C650 H653 0.928 . S
C651 N647 1.345 . S
C651 C652 1.371 . S
C651 H654 0.931 1_655 S
C652 C648 1.391 . S
C652 C651 1.371 . S
C652 H659 0.930 1_655 S
H653 C650 0.928 . S
H654 C651 0.931 1_455 S
H655 C631 0.930 . S
H656 C628 0.930 . S
H657 C637 0.930 . S
H658 C649 0.929 . S
H659 C652 0.930 1_455 S
C660 C661 1.351 . S
C660 N663 1.368 . S
C660 H665 0.931 . S
C661 C660 1.351 . S
C661 N662 1.373 . S
C661 H689 0.930 . S
N662 C661 1.373 . S
N662 C664 1.340 . S
N663 C660 1.368 . S
N663 C664 1.321 . S
N663 Co666 2.135 . S
C664 N662 1.340 . S
C664 N663 1.321 . S
C664 H688 0.930 . S
H665 C660 0.931 . S
Co666 N663 2.135 . S
Co666 N669 2.121 . S
Co666 O674 2.055 . S
Co666 O677 2.039 . S
Co666 N680 2.140 . S
C667 O668 1.227 . S
C667 O677 1.265 . S
O668 C667 1.227 . S
N669 Co666 2.121 . S
N669 C671 1.375 . S
N669 C672 1.313 . S
C670 C671 1.338 . S
C670 N673 1.377 . S
C670 H690 0.930 . S
C671 N669 1.375 . S
C671 C670 1.338 . S
C671 H675 0.931 . S
C672 N669 1.313 . S
C672 N673 1.344 . S
C672 H676 0.930 . S
N673 C670 1.377 . S
N673 C672 1.344 . S
O674 Co666 2.055 . S
O674 C678 1.253 . S
H675 C671 0.931 . S
H676 C672 0.930 . S
O677 Co666 2.039 . S
O677 C667 1.265 . S
C678 O674 1.253 . S
C678 O679 1.227 . S
O679 C678 1.227 . S
N680 Co666 2.140 . S
N680 C683 1.346 . S
N680 C684 1.345 . S
C681 C682 1.387 . S
C681 C685 1.391 . S
C682 C681 1.387 . S
C682 C683 1.369 . S
C682 H691 0.929 . S
C683 N680 1.346 . S
C683 C682 1.369 . S
C683 H686 0.928 . S
C684 N680 1.345 . S
C684 C685 1.371 . S
C684 H687 0.931 . S
C685 C681 1.391 . S
C685 C684 1.371 . S
C685 H692 0.930 . S
H686 C683 0.928 . S
H687 C684 0.931 . S
H688 C664 0.930 . S
H689 C661 0.930 . S
H690 C670 0.930 . S
H691 C682 0.929 . S
H692 C685 0.930 . S
C693 C694 1.351 . S
C693 N696 1.368 . S
C693 H698 0.931 . S
C694 C693 1.351 . S
C694 N695 1.373 . S
C694 H722 0.930 . S
N695 C694 1.373 . S
N695 C697 1.340 . S
N696 C693 1.368 . S
N696 C697 1.321 . S
N696 Co699 2.135 . S
C697 N695 1.340 . S
C697 N696 1.321 . S
C697 H721 0.930 . S
H698 C693 0.931 . S
Co699 N696 2.135 . S
Co699 N702 2.121 . S
Co699 O707 2.055 . S
Co699 O710 2.039 . S
Co699 N713 2.140 . S
C700 O701 1.227 . S
C700 O710 1.265 . S
O701 C700 1.227 . S
N702 Co699 2.121 . S
N702 C704 1.375 . S
N702 C705 1.313 . S
C703 C704 1.338 . S
C703 N706 1.377 . S
C703 H723 0.930 . S
C704 N702 1.375 . S
C704 C703 1.338 . S
C704 H708 0.931 . S
C705 N702 1.313 . S
C705 N706 1.344 . S
C705 H709 0.930 . S
N706 C703 1.377 . S
N706 C705 1.344 . S
O707 Co699 2.055 . S
O707 C711 1.253 . S
H708 C704 0.931 . S
H709 C705 0.930 . S
O710 Co699 2.039 . S
O710 C700 1.265 . S
C711 O707 1.253 . S
C711 O712 1.227 . S
O712 C711 1.227 . S
N713 Co699 2.140 . S
N713 C716 1.346 . S
N713 C717 1.345 . S
C714 C715 1.387 . S
C714 C718 1.391 . S
C715 C714 1.387 . S
C715 C716 1.369 . S
C715 H724 0.929 . S
C716 N713 1.346 . S
C716 C715 1.369 . S
C716 H719 0.928 . S
C717 N713 1.345 . S
C717 C718 1.371 . S
C717 H720 0.931 . S
C718 C714 1.391 . S
C718 C717 1.371 . S
C718 H725 0.930 . S
H719 C716 0.928 . S
H720 C717 0.931 . S
H721 C697 0.930 . S
H722 C694 0.930 . S
H723 C703 0.930 . S
H724 C715 0.929 . S
H725 C718 0.930 . S
C726 C727 1.351 . S
C726 N729 1.368 . S
C726 H731 0.931 . S
C727 C726 1.351 . S
C727 N728 1.373 . S
C727 H755 0.930 . S
N728 C727 1.373 . S
N728 C730 1.340 . S
N729 C726 1.368 . S
N729 C730 1.321 . S
N729 Co732 2.135 . S
C730 N728 1.340 . S
C730 N729 1.321 . S
C730 H754 0.930 . S
H731 C726 0.931 . S
Co732 N729 2.135 . S
Co732 N735 2.121 . S
Co732 O740 2.055 . S
Co732 O743 2.039 . S
Co732 N746 2.140 . S
C733 O734 1.227 . S
C733 O743 1.265 . S
O734 C733 1.227 . S
N735 Co732 2.121 . S
N735 C737 1.375 . S
N735 C738 1.313 . S
C736 C737 1.338 . S
C736 N739 1.377 . S
C736 H756 0.930 1_545 S
C737 N735 1.375 . S
C737 C736 1.338 . S
C737 H741 0.931 . S
C738 N735 1.313 . S
C738 N739 1.344 . S
C738 H742 0.930 . S
N739 C736 1.377 . S
N739 C738 1.344 . S
O740 Co732 2.055 . S
O740 C744 1.253 . S
H741 C737 0.931 . S
H742 C738 0.930 . S
O743 Co732 2.039 . S
O743 C733 1.265 . S
C744 O740 1.253 . S
C744 O745 1.227 . S
O745 C744 1.227 . S
N746 Co732 2.140 . S
N746 C749 1.346 . S
N746 C750 1.345 . S
C747 C748 1.387 . S
C747 C751 1.391 . S
C748 C747 1.387 . S
C748 C749 1.369 . S
C748 H757 0.929 . S
C749 N746 1.346 . S
C749 C748 1.369 . S
C749 H752 0.928 . S
C750 N746 1.345 . S
C750 C751 1.371 . S
C750 H753 0.931 . S
C751 C747 1.391 . S
C751 C750 1.371 . S
C751 H758 0.930 . S
H752 C749 0.928 . S
H753 C750 0.931 . S
H754 C730 0.930 . S
H755 C727 0.930 . S
H756 C736 0.930 1_565 S
H757 C748 0.929 . S
H758 C751 0.930 . S
C759 C760 1.351 . S
C759 N762 1.368 . S
C759 H764 0.931 . S
C760 C759 1.351 . S
C760 N761 1.373 . S
C760 H788 0.930 . S
N761 C760 1.373 . S
N761 C763 1.340 . S
N762 C759 1.368 . S
N762 C763 1.321 . S
N762 Co765 2.135 . S
C763 N761 1.340 . S
C763 N762 1.321 . S
C763 H787 0.930 . S
H764 C759 0.931 . S
Co765 N762 2.135 . S
Co765 N768 2.121 . S
Co765 O773 2.055 . S
Co765 O776 2.039 . S
Co765 N779 2.140 . S
C766 O767 1.227 . S
C766 O776 1.265 . S
O767 C766 1.227 . S
N768 Co765 2.121 . S
N768 C770 1.375 . S
N768 C771 1.313 . S
C769 C770 1.338 . S
C769 N772 1.377 . S
C769 H789 0.930 1_655 S
C770 N768 1.375 . S
C770 C769 1.338 . S
C770 H774 0.931 . S
C771 N768 1.313 . S
C771 N772 1.344 . S
C771 H775 0.930 . S
N772 C769 1.377 . S
N772 C771 1.344 . S
O773 Co765 2.055 . S
O773 C777 1.253 . S
H774 C770 0.931 . S
H775 C771 0.930 . S
O776 Co765 2.039 . S
O776 C766 1.265 . S
C777 O773 1.253 . S
C777 O778 1.227 . S
O778 C777 1.227 . S
N779 Co765 2.140 . S
N779 C782 1.346 . S
N779 C783 1.345 . S
C780 C781 1.387 . S
C780 C784 1.391 . S
C781 C780 1.387 . S
C781 C782 1.369 . S
C781 H790 0.929 . S
C782 N779 1.346 . S
C782 C781 1.369 . S
C782 H785 0.928 . S
C783 N779 1.345 . S
C783 C784 1.371 . S
C783 H786 0.931 . S
C784 C780 1.391 . S
C784 C783 1.371 . S
C784 H791 0.930 . S
H785 C782 0.928 . S
H786 C783 0.931 . S
H787 C763 0.930 . S
H788 C760 0.930 . S
H789 C769 0.930 1_455 S
H790 C781 0.929 . S
H791 C784 0.930 . S
C792 C793 1.351 . S
C792 N795 1.368 . S
C792 H797 0.931 . S
C793 C792 1.351 . S
C793 N794 1.373 . S
C793 H821 0.930 . S
N794 C793 1.373 . S
N794 C796 1.340 . S
N795 C792 1.368 . S
N795 C796 1.321 . S
N795 Co798 2.135 . S
C796 N794 1.340 . S
C796 N795 1.321 . S
C796 H820 0.930 . S
H797 C792 0.931 . S
Co798 N795 2.135 . S
Co798 N801 2.121 . S
Co798 O806 2.055 . S
Co798 O809 2.039 . S
Co798 N812 2.140 . S
C799 O800 1.227 . S
C799 O809 1.265 . S
O800 C799 1.227 . S
N801 Co798 2.121 . S
N801 C803 1.375 . S
N801 C804 1.313 1_565 S
C802 C803 1.338 . S
C802 N805 1.377 1_565 S
C802 H822 0.930 . S
C803 N801 1.375 . S
C803 C802 1.338 . S
C803 H807 0.931 . S
C804 N801 1.313 1_545 S
C804 N805 1.344 . S
C804 H808 0.930 . S
N805 C802 1.377 1_545 S
N805 C804 1.344 . S
O806 Co798 2.055 . S
O806 C810 1.253 . S
H807 C803 0.931 . S
H808 C804 0.930 . S
O809 Co798 2.039 . S
O809 C799 1.265 . S
C810 O806 1.253 . S
C810 O811 1.227 1_565 S
O811 C810 1.227 1_545 S
N812 Co798 2.140 . S
N812 C815 1.346 . S
N812 C816 1.345 . S
C813 C814 1.387 . S
C813 C817 1.391 . S
C814 C813 1.387 . S
C814 C815 1.369 . S
C814 H823 0.929 . S
C815 N812 1.346 . S
C815 C814 1.369 . S
C815 H818 0.928 . S
C816 N812 1.345 . S
C816 C817 1.371 . S
C816 H819 0.931 1_565 S
C817 C813 1.391 . S
C817 C816 1.371 . S
C817 H824 0.930 1_565 S
H818 C815 0.928 . S
H819 C816 0.931 1_545 S
H820 C796 0.930 . S
H821 C793 0.930 . S
H822 C802 0.930 . S
H823 C814 0.929 . S
H824 C817 0.930 1_545 S
C825 C826 1.351 . S
C825 N828 1.368 . S
C825 H830 0.931 . S
C826 C825 1.351 . S
C826 N827 1.373 . S
C826 H854 0.930 . S
N827 C826 1.373 . S
N827 C829 1.340 . S
N828 C825 1.368 . S
N828 C829 1.321 . S
N828 Co831 2.135 . S
C829 N827 1.340 . S
C829 N828 1.321 . S
C829 H853 0.930 . S
H830 C825 0.931 . S
Co831 N828 2.135 . S
Co831 N834 2.121 . S
Co831 O839 2.055 . S
Co831 O842 2.039 . S
Co831 N845 2.140 . S
C832 O833 1.227 . S
C832 O842 1.265 . S
O833 C832 1.227 . S
N834 Co831 2.121 . S
N834 C836 1.375 . S
N834 C837 1.313 1_455 S
C835 C836 1.338 . S
C835 N838 1.377 1_455 S
C835 H855 0.930 . S
C836 N834 1.375 . S
C836 C835 1.338 . S
C836 H840 0.931 . S
C837 N834 1.313 1_655 S
C837 N838 1.344 . S
C837 H841 0.930 . S
N838 C835 1.377 1_655 S
N838 C837 1.344 . S
O839 Co831 2.055 . S
O839 C843 1.253 . S
H840 C836 0.931 . S
H841 C837 0.930 . S
O842 Co831 2.039 . S
O842 C832 1.265 . S
C843 O839 1.253 . S
C843 O844 1.227 1_455 S
O844 C843 1.227 1_655 S
N845 Co831 2.140 . S
N845 C848 1.346 . S
N845 C849 1.345 . S
C846 C847 1.387 . S
C846 C850 1.391 . S
C847 C846 1.387 . S
C847 C848 1.369 . S
C847 H856 0.929 . S
C848 N845 1.346 . S
C848 C847 1.369 . S
C848 H851 0.928 . S
C849 N845 1.345 . S
C849 C850 1.371 . S
C849 H852 0.931 1_455 S
C850 C846 1.391 . S
C850 C849 1.371 . S
C850 H857 0.930 1_455 S
H851 C848 0.928 . S
H852 C849 0.931 1_655 S
H853 C829 0.930 . S
H854 C826 0.930 . S
H855 C835 0.930 . S
H856 C847 0.929 . S
H857 C850 0.930 1_655 S
C858 C859 1.351 . S
C858 N861 1.368 . S
C858 H863 0.931 . S
C859 C858 1.351 . S
C859 N860 1.373 . S
C859 H887 0.930 . S
N860 C859 1.373 . S
N860 C862 1.340 . S
N861 C858 1.368 . S
N861 C862 1.321 . S
N861 Co864 2.135 . S
C862 N860 1.340 . S
C862 N861 1.321 . S
C862 H886 0.930 . S
H863 C858 0.931 . S
Co864 N861 2.135 . S
Co864 N867 2.121 . S
Co864 O872 2.055 . S
Co864 O875 2.039 . S
Co864 N878 2.140 . S
C865 O866 1.227 . S
C865 O875 1.265 . S
O866 C865 1.227 . S
N867 Co864 2.121 . S
N867 C869 1.375 . S
N867 C870 1.313 . S
C868 C869 1.338 . S
C868 N871 1.377 . S
C868 H888 0.930 . S
C869 N867 1.375 . S
C869 C868 1.338 . S
C869 H873 0.931 . S
C870 N867 1.313 . S
C870 N871 1.344 . S
C870 H874 0.930 . S
N871 C868 1.377 . S
N871 C870 1.344 . S
O872 Co864 2.055 . S
O872 C876 1.253 . S
H873 C869 0.931 . S
H874 C870 0.930 . S
O875 Co864 2.039 . S
O875 C865 1.265 . S
C876 O872 1.253 . S
C876 O877 1.227 . S
O877 C876 1.227 . S
N878 Co864 2.140 . S
N878 C881 1.346 . S
N878 C882 1.345 . S
C879 C880 1.387 . S
C879 C883 1.391 . S
C880 C879 1.387 . S
C880 C881 1.369 . S
C880 H889 0.929 . S
C881 N878 1.346 . S
C881 C880 1.369 . S
C881 H884 0.928 . S
C882 N878 1.345 . S
C882 C883 1.371 . S
C882 H885 0.931 . S
C883 C879 1.391 . S
C883 C882 1.371 . S
C883 H890 0.930 . S
H884 C881 0.928 . S
H885 C882 0.931 . S
H886 C862 0.930 . S
H887 C859 0.930 . S
H888 C868 0.930 . S
H889 C880 0.929 . S
H890 C883 0.930 . S
C891 C892 1.351 . S
C891 N894 1.368 . S
C891 H896 0.931 . S
C892 C891 1.351 . S
C892 N893 1.373 . S
C892 H920 0.930 . S
N893 C892 1.373 . S
N893 C895 1.340 . S
N894 C891 1.368 . S
N894 C895 1.321 . S
N894 Co897 2.135 . S
C895 N893 1.340 . S
C895 N894 1.321 . S
C895 H919 0.930 . S
H896 C891 0.931 . S
Co897 N894 2.135 . S
Co897 N900 2.121 . S
Co897 O905 2.055 . S
Co897 O908 2.039 . S
Co897 N911 2.140 . S
C898 O899 1.227 . S
C898 O908 1.265 . S
O899 C898 1.227 . S
N900 Co897 2.121 . S
N900 C902 1.375 . S
N900 C903 1.313 . S
C901 C902 1.338 . S
C901 N904 1.377 . S
C901 H921 0.930 . S
C902 N900 1.375 . S
C902 C901 1.338 . S
C902 H906 0.931 . S
C903 N900 1.313 . S
C903 N904 1.344 . S
C903 H907 0.930 . S
N904 C901 1.377 . S
N904 C903 1.344 . S
O905 Co897 2.055 . S
O905 C909 1.253 . S
H906 C902 0.931 . S
H907 C903 0.930 . S
O908 Co897 2.039 . S
O908 C898 1.265 . S
C909 O905 1.253 . S
C909 O910 1.227 . S
O910 C909 1.227 . S
N911 Co897 2.140 . S
N911 C914 1.346 . S
N911 C915 1.345 . S
C912 C913 1.387 . S
C912 C916 1.391 . S
C913 C912 1.387 . S
C913 C914 1.369 . S
C913 H922 0.929 . S
C914 N911 1.346 . S
C914 C913 1.369 . S
C914 H917 0.928 . S
C915 N911 1.345 . S
C915 C916 1.371 . S
C915 H918 0.931 . S
C916 C912 1.391 . S
C916 C915 1.371 . S
C916 H923 0.930 . S
H917 C914 0.928 . S
H918 C915 0.931 . S
H919 C895 0.930 . S
H920 C892 0.930 . S
H921 C901 0.930 . S
H922 C913 0.929 . S
H923 C916 0.930 . S
C924 C925 1.351 . S
C924 N927 1.368 . S
C924 H929 0.931 . S
C925 C924 1.351 . S
C925 N926 1.373 . S
C925 H953 0.930 . S
N926 C925 1.373 . S
N926 C928 1.340 . S
N927 C924 1.368 . S
N927 C928 1.321 . S
N927 Co930 2.135 . S
C928 N926 1.340 . S
C928 N927 1.321 . S
C928 H952 0.930 . S
H929 C924 0.931 . S
Co930 N927 2.135 . S
Co930 N933 2.121 . S
Co930 O938 2.055 . S
Co930 O941 2.039 . S
Co930 N944 2.140 . S
C931 O932 1.227 . S
C931 O941 1.265 . S
O932 C931 1.227 . S
N933 Co930 2.121 . S
N933 C935 1.375 . S
N933 C936 1.313 . S
C934 C935 1.338 . S
C934 N937 1.377 . S
C934 H954 0.930 1_565 S
C935 N933 1.375 . S
C935 C934 1.338 . S
C935 H939 0.931 . S
C936 N933 1.313 . S
C936 N937 1.344 . S
C936 H940 0.930 . S
N937 C934 1.377 . S
N937 C936 1.344 . S
O938 Co930 2.055 . S
O938 C942 1.253 . S
H939 C935 0.931 . S
H940 C936 0.930 . S
O941 Co930 2.039 . S
O941 C931 1.265 . S
C942 O938 1.253 . S
C942 O943 1.227 . S
O943 C942 1.227 . S
N944 Co930 2.140 . S
N944 C947 1.346 . S
N944 C948 1.345 . S
C945 C946 1.387 . S
C945 C949 1.391 . S
C946 C945 1.387 . S
C946 C947 1.369 . S
C946 H955 0.929 . S
C947 N944 1.346 . S
C947 C946 1.369 . S
C947 H950 0.928 . S
C948 N944 1.345 . S
C948 C949 1.371 . S
C948 H951 0.931 . S
C949 C945 1.391 . S
C949 C948 1.371 . S
C949 H956 0.930 . S
H950 C947 0.928 . S
H951 C948 0.931 . S
H952 C928 0.930 . S
H953 C925 0.930 . S
H954 C934 0.930 1_545 S
H955 C946 0.929 . S
H956 C949 0.930 . S
C957 C958 1.351 . S
C957 N960 1.368 . S
C957 H962 0.931 . S
C958 C957 1.351 . S
C958 N959 1.373 . S
C958 H986 0.930 . S
N959 C958 1.373 . S
N959 C961 1.340 . S
N960 C957 1.368 . S
N960 C961 1.321 . S
N960 Co963 2.135 . S
C961 N959 1.340 . S
C961 N960 1.321 . S
C961 H985 0.930 . S
H962 C957 0.931 . S
Co963 N960 2.135 . S
Co963 N966 2.121 . S
Co963 O971 2.055 . S
Co963 O974 2.039 . S
Co963 N977 2.140 . S
C964 O965 1.227 . S
C964 O974 1.265 . S
O965 C964 1.227 . S
N966 Co963 2.121 . S
N966 C968 1.375 . S
N966 C969 1.313 . S
C967 C968 1.338 . S
C967 N970 1.377 . S
C967 H987 0.930 1_455 S
C968 N966 1.375 . S
C968 C967 1.338 . S
C968 H972 0.931 . S
C969 N966 1.313 . S
C969 N970 1.344 . S
C969 H973 0.930 . S
N970 C967 1.377 . S
N970 C969 1.344 . S
O971 Co963 2.055 . S
O971 C975 1.253 . S
H972 C968 0.931 . S
H973 C969 0.930 . S
O974 Co963 2.039 . S
O974 C964 1.265 . S
C975 O971 1.253 . S
C975 O976 1.227 . S
O976 C975 1.227 . S
N977 Co963 2.140 . S
N977 C980 1.346 . S
N977 C981 1.345 . S
C978 C979 1.387 . S
C978 C982 1.391 . S
C979 C978 1.387 . S
C979 C980 1.369 . S
C979 H988 0.929 . S
C980 N977 1.346 . S
C980 C979 1.369 . S
C980 H983 0.928 . S
C981 N977 1.345 . S
C981 C982 1.371 . S
C981 H984 0.931 . S
C982 C978 1.391 . S
C982 C981 1.371 . S
C982 H989 0.930 . S
H983 C980 0.928 . S
H984 C981 0.931 . S
H985 C961 0.930 . S
H986 C958 0.930 . S
H987 C967 0.930 1_655 S
H988 C979 0.929 . S
H989 C982 0.930 . S
C990 C991 1.351 . S
C990 N993 1.368 . S
C990 H995 0.931 . S
C991 C990 1.351 . S
C991 N992 1.373 . S
C991 H1019 0.930 . S
N992 C991 1.373 . S
N992 C994 1.340 . S
N993 C990 1.368 . S
N993 C994 1.321 . S
N993 Co996 2.135 . S
C994 N992 1.340 . S
C994 N993 1.321 . S
C994 H1018 0.930 . S
H995 C990 0.931 . S
Co996 N993 2.135 . S
Co996 N999 2.121 . S
Co996 O1004 2.055 . S
Co996 O1007 2.039 . S
Co996 N1010 2.140 . S
C997 O998 1.227 . S
C997 O1007 1.265 . S
O998 C997 1.227 . S
N999 Co996 2.121 . S
N999 C1001 1.375 . S
N999 C1002 1.313 . S
C1000 C1001 1.338 . S
C1000 N1003 1.377 . S
C1000 H1020 0.930 . S
C1001 N999 1.375 . S
C1001 C1000 1.338 . S
C1001 H1005 0.931 . S
C1002 N999 1.313 . S
C1002 N1003 1.344 . S
C1002 H1006 0.930 . S
N1003 C1000 1.377 . S
N1003 C1002 1.344 . S
O1004 Co996 2.055 . S
O1004 C1008 1.253 . S
H1005 C1001 0.931 . S
H1006 C1002 0.930 . S
O1007 Co996 2.039 . S
O1007 C997 1.265 . S
C1008 O1004 1.253 . S
C1008 O1009 1.227 . S
O1009 C1008 1.227 . S
N1010 Co996 2.140 . S
N1010 C1013 1.346 . S
N1010 C1014 1.345 . S
C1011 C1012 1.387 . S
C1011 C1015 1.391 . S
C1012 C1011 1.387 . S
C1012 C1013 1.369 . S
C1012 H1021 0.929 . S
C1013 N1010 1.346 . S
C1013 C1012 1.369 . S
C1013 H1016 0.928 . S
C1014 N1010 1.345 . S
C1014 C1015 1.371 . S
C1014 H1017 0.931 . S
C1015 C1011 1.391 . S
C1015 C1014 1.371 . S
C1015 H1022 0.930 . S
H1016 C1013 0.928 . S
H1017 C1014 0.931 . S
H1018 C994 0.930 . S
H1019 C991 0.930 . S
H1020 C1000 0.930 . S
H1021 C1012 0.929 . S
H1022 C1015 0.930 . S
C1023 C1024 1.351 . S
C1023 N1026 1.368 . S
C1023 H1028 0.931 . S
C1024 C1023 1.351 . S
C1024 N1025 1.373 . S
C1024 H1052 0.930 . S
N1025 C1024 1.373 . S
N1025 C1027 1.340 . S
N1026 C1023 1.368 . S
N1026 C1027 1.321 . S
N1026 Co1029 2.135 . S
C1027 N1025 1.340 . S
C1027 N1026 1.321 . S
C1027 H1051 0.930 . S
H1028 C1023 0.931 . S
Co1029 N1026 2.135 . S
Co1029 N1032 2.121 . S
Co1029 O1037 2.055 . S
Co1029 O1040 2.039 . S
Co1029 N1043 2.140 . S
C1030 O1031 1.227 . S
C1030 O1040 1.265 . S
O1031 C1030 1.227 . S
N1032 Co1029 2.121 . S
N1032 C1034 1.375 . S
N1032 C1035 1.313 . S
C1033 C1034 1.338 . S
C1033 N1036 1.377 . S
C1033 H1053 0.930 1_565 S
C1034 N1032 1.375 . S
C1034 C1033 1.338 . S
C1034 H1038 0.931 . S
C1035 N1032 1.313 . S
C1035 N1036 1.344 . S
C1035 H1039 0.930 . S
N1036 C1033 1.377 . S
N1036 C1035 1.344 . S
O1037 Co1029 2.055 . S
O1037 C1041 1.253 . S
H1038 C1034 0.931 . S
H1039 C1035 0.930 . S
O1040 Co1029 2.039 . S
O1040 C1030 1.265 . S
C1041 O1037 1.253 . S
C1041 O1042 1.227 . S
O1042 C1041 1.227 . S
N1043 Co1029 2.140 . S
N1043 C1046 1.346 . S
N1043 C1047 1.345 . S
C1044 C1045 1.387 . S
C1044 C1048 1.391 . S
C1045 C1044 1.387 . S
C1045 C1046 1.369 . S
C1045 H1054 0.929 . S
C1046 N1043 1.346 . S
C1046 C1045 1.369 . S
C1046 H1049 0.928 . S
C1047 N1043 1.345 . S
C1047 C1048 1.371 . S
C1047 H1050 0.931 . S
C1048 C1044 1.391 . S
C1048 C1047 1.371 . S
C1048 H1055 0.930 . S
H1049 C1046 0.928 . S
H1050 C1047 0.931 . S
H1051 C1027 0.930 . S
H1052 C1024 0.930 . S
H1053 C1033 0.930 1_545 S
H1054 C1045 0.929 . S
H1055 C1048 0.930 . S
C1056 C1057 1.351 . S
C1056 N1059 1.368 . S
C1056 H1061 0.931 . S
C1057 C1056 1.351 . S
C1057 N1058 1.373 . S
C1057 H1085 0.930 . S
N1058 C1057 1.373 . S
N1058 C1060 1.340 . S
N1059 C1056 1.368 . S
N1059 C1060 1.321 . S
N1059 Co1062 2.135 . S
C1060 N1058 1.340 . S
C1060 N1059 1.321 . S
C1060 H1084 0.930 . S
H1061 C1056 0.931 . S
Co1062 N1059 2.135 . S
Co1062 N1065 2.121 . S
Co1062 O1070 2.055 . S
Co1062 O1073 2.039 . S
Co1062 N1076 2.140 . S
C1063 O1064 1.227 . S
C1063 O1073 1.265 . S
O1064 C1063 1.227 . S
N1065 Co1062 2.121 . S
N1065 C1067 1.375 . S
N1065 C1068 1.313 . S
C1066 C1067 1.338 . S
C1066 N1069 1.377 . S
C1066 H1086 0.930 1_455 S
C1067 N1065 1.375 . S
C1067 C1066 1.338 . S
C1067 H1071 0.931 . S
C1068 N1065 1.313 . S
C1068 N1069 1.344 . S
C1068 H1072 0.930 . S
N1069 C1066 1.377 . S
N1069 C1068 1.344 . S
O1070 Co1062 2.055 . S
O1070 C1074 1.253 . S
H1071 C1067 0.931 . S
H1072 C1068 0.930 . S
O1073 Co1062 2.039 . S
O1073 C1063 1.265 . S
C1074 O1070 1.253 . S
C1074 O1075 1.227 . S
O1075 C1074 1.227 . S
N1076 Co1062 2.140 . S
N1076 C1079 1.346 . S
N1076 C1080 1.345 . S
C1077 C1078 1.387 . S
C1077 C1081 1.391 . S
C1078 C1077 1.387 . S
C1078 C1079 1.369 . S
C1078 H1087 0.929 . S
C1079 N1076 1.346 . S
C1079 C1078 1.369 . S
C1079 H1082 0.928 . S
C1080 N1076 1.345 . S
C1080 C1081 1.371 . S
C1080 H1083 0.931 . S
C1081 C1077 1.391 . S
C1081 C1080 1.371 . S
C1081 H1088 0.930 . S
H1082 C1079 0.928 . S
H1083 C1080 0.931 . S
H1084 C1060 0.930 . S
H1085 C1057 0.930 . S
H1086 C1066 0.930 1_655 S
H1087 C1078 0.929 . S
H1088 C1081 0.930 . S
C1089 C1090 1.351 . S
C1089 N1092 1.368 . S
C1089 H1094 0.931 . S
C1090 C1089 1.351 . S
C1090 N1091 1.373 . S
C1090 H1118 0.930 . S
N1091 C1090 1.373 . S
N1091 C1093 1.340 . S
N1092 C1089 1.368 . S
N1092 C1093 1.321 . S
N1092 Co1095 2.135 . S
C1093 N1091 1.340 . S
C1093 N1092 1.321 . S
C1093 H1117 0.930 . S
H1094 C1089 0.931 . S
Co1095 N1092 2.135 . S
Co1095 N1098 2.121 . S
Co1095 O1103 2.055 . S
Co1095 O1106 2.039 . S
Co1095 N1109 2.140 . S
C1096 O1097 1.227 . S
C1096 O1106 1.265 . S
O1097 C1096 1.227 . S
N1098 Co1095 2.121 . S
N1098 C1100 1.375 . S
N1098 C1101 1.313 1_455 S
C1099 C1100 1.338 . S
C1099 N1102 1.377 1_455 S
C1099 H1119 0.930 . S
C1100 N1098 1.375 . S
C1100 C1099 1.338 . S
C1100 H1104 0.931 . S
C1101 N1098 1.313 1_655 S
C1101 N1102 1.344 . S
C1101 H1105 0.930 . S
N1102 C1099 1.377 1_655 S
N1102 C1101 1.344 . S
O1103 Co1095 2.055 . S
O1103 C1107 1.253 . S
H1104 C1100 0.931 . S
H1105 C1101 0.930 . S
O1106 Co1095 2.039 . S
O1106 C1096 1.265 . S
C1107 O1103 1.253 . S
C1107 O1108 1.227 1_455 S
O1108 C1107 1.227 1_655 S
N1109 Co1095 2.140 . S
N1109 C1112 1.346 . S
N1109 C1113 1.345 . S
C1110 C1111 1.387 . S
C1110 C1114 1.391 . S
C1111 C1110 1.387 . S
C1111 C1112 1.369 . S
C1111 H1120 0.929 . S
C1112 N1109 1.346 . S
C1112 C1111 1.369 . S
C1112 H1115 0.928 . S
C1113 N1109 1.345 . S
C1113 C1114 1.371 . S
C1113 H1116 0.931 1_455 S
C1114 C1110 1.391 . S
C1114 C1113 1.371 . S
C1114 H1121 0.930 1_455 S
H1115 C1112 0.928 . S
H1116 C1113 0.931 1_655 S
H1117 C1093 0.930 . S
H1118 C1090 0.930 . S
H1119 C1099 0.930 . S
H1120 C1111 0.929 . S
H1121 C1114 0.930 1_655 S
C1122 C1123 1.351 . S
C1122 N1125 1.368 . S
C1122 H1127 0.931 . S
C1123 C1122 1.351 . S
C1123 N1124 1.373 . S
C1123 H1151 0.930 . S
N1124 C1123 1.373 . S
N1124 C1126 1.340 . S
N1125 C1122 1.368 . S
N1125 C1126 1.321 . S
N1125 Co1128 2.135 . S
C1126 N1124 1.340 . S
C1126 N1125 1.321 . S
C1126 H1150 0.930 . S
H1127 C1122 0.931 . S
Co1128 N1125 2.135 . S
Co1128 N1131 2.121 . S
Co1128 O1136 2.055 . S
Co1128 O1139 2.039 . S
Co1128 N1142 2.140 . S
C1129 O1130 1.227 . S
C1129 O1139 1.265 . S
O1130 C1129 1.227 . S
N1131 Co1128 2.121 . S
N1131 C1133 1.375 . S
N1131 C1134 1.313 . S
C1132 C1133 1.338 . S
C1132 N1135 1.377 . S
C1132 H1152 0.930 . S
C1133 N1131 1.375 . S
C1133 C1132 1.338 . S
C1133 H1137 0.931 . S
C1134 N1131 1.313 . S
C1134 N1135 1.344 . S
C1134 H1138 0.930 . S
N1135 C1132 1.377 . S
N1135 C1134 1.344 . S
O1136 Co1128 2.055 . S
O1136 C1140 1.253 . S
H1137 C1133 0.931 . S
H1138 C1134 0.930 . S
O1139 Co1128 2.039 . S
O1139 C1129 1.265 . S
C1140 O1136 1.253 . S
C1140 O1141 1.227 . S
O1141 C1140 1.227 . S
N1142 Co1128 2.140 . S
N1142 C1145 1.346 . S
N1142 C1146 1.345 . S
C1143 C1144 1.387 . S
C1143 C1147 1.391 . S
C1144 C1143 1.387 . S
C1144 C1145 1.369 . S
C1144 H1153 0.929 . S
C1145 N1142 1.346 . S
C1145 C1144 1.369 . S
C1145 H1148 0.928 . S
C1146 N1142 1.345 . S
C1146 C1147 1.371 . S
C1146 H1149 0.931 . S
C1147 C1143 1.391 . S
C1147 C1146 1.371 . S
C1147 H1154 0.930 . S
H1148 C1145 0.928 . S
H1149 C1146 0.931 . S
H1150 C1126 0.930 . S
H1151 C1123 0.930 . S
H1152 C1132 0.930 . S
H1153 C1144 0.929 . S
H1154 C1147 0.930 . S
C1155 C1156 1.351 . S
C1155 N1158 1.368 . S
C1155 H1160 0.931 . S
C1156 C1155 1.351 . S
C1156 N1157 1.373 . S
C1156 H1184 0.930 . S
N1157 C1156 1.373 . S
N1157 C1159 1.340 . S
N1158 C1155 1.368 . S
N1158 C1159 1.321 . S
N1158 Co1161 2.135 . S
C1159 N1157 1.340 . S
C1159 N1158 1.321 . S
C1159 H1183 0.930 . S
H1160 C1155 0.931 . S
Co1161 N1158 2.135 . S
Co1161 N1164 2.121 . S
Co1161 O1169 2.055 . S
Co1161 O1172 2.039 . S
Co1161 N1175 2.140 . S
C1162 O1163 1.227 . S
C1162 O1172 1.265 . S
O1163 C1162 1.227 . S
N1164 Co1161 2.121 . S
N1164 C1166 1.375 . S
N1164 C1167 1.313 1_565 S
C1165 C1166 1.338 . S
C1165 N1168 1.377 1_565 S
C1165 H1185 0.930 . S
C1166 N1164 1.375 . S
C1166 C1165 1.338 . S
C1166 H1170 0.931 . S
C1167 N1164 1.313 1_545 S
C1167 N1168 1.344 . S
C1167 H1171 0.930 . S
N1168 C1165 1.377 1_545 S
N1168 C1167 1.344 . S
O1169 Co1161 2.055 . S
O1169 C1173 1.253 . S
H1170 C1166 0.931 . S
H1171 C1167 0.930 . S
O1172 Co1161 2.039 . S
O1172 C1162 1.265 . S
C1173 O1169 1.253 . S
C1173 O1174 1.227 1_565 S
O1174 C1173 1.227 1_545 S
N1175 Co1161 2.140 . S
N1175 C1178 1.346 . S
N1175 C1179 1.345 . S
C1176 C1177 1.387 . S
C1176 C1180 1.391 . S
C1177 C1176 1.387 . S
C1177 C1178 1.369 . S
C1177 H1186 0.929 . S
C1178 N1175 1.346 . S
C1178 C1177 1.369 . S
C1178 H1181 0.928 . S
C1179 N1175 1.345 . S
C1179 C1180 1.371 . S
C1179 H1182 0.931 1_565 S
C1180 C1176 1.391 . S
C1180 C1179 1.371 . S
C1180 H1187 0.930 1_565 S
H1181 C1178 0.928 . S
H1182 C1179 0.931 1_545 S
H1183 C1159 0.930 . S
H1184 C1156 0.930 . S
H1185 C1165 0.930 . S
H1186 C1177 0.929 . S
H1187 C1180 0.930 1_545 S
C1188 C1189 1.369 . S
C1188 C1190 1.419 . S
C1188 H1192 0.930 . S
C1189 C1188 1.369 . S
C1189 C1198 1.429 . S
C1190 C1188 1.419 . S
C1190 C1191 1.363 . S
C1190 H1193 0.929 . S
C1191 C1190 1.363 . S
C1191 C1197 1.428 . S
H1192 C1188 0.930 . S
H1193 C1190 0.929 . S
S1194 N1195 1.613 1_565 S
S1194 N1196 1.610 . S
N1195 S1194 1.613 1_545 S
N1195 C1198 1.350 . S
N1196 S1194 1.610 . S
N1196 C1197 1.351 1_565 S
C1197 C1191 1.428 . S
C1197 N1196 1.351 1_545 S
C1197 C1198 1.434 . S
C1198 C1189 1.429 . S
C1198 N1195 1.350 . S
C1198 C1197 1.434 . S
C1199 C1200 1.369 . S
C1199 C1201 1.419 . S
C1199 H1203 0.930 . S
C1200 C1199 1.369 . S
C1200 C1209 1.429 . S
C1201 C1199 1.419 . S
C1201 C1202 1.363 . S
C1201 H1204 0.929 1_545 S
C1202 C1201 1.363 . S
C1202 C1208 1.428 . S
H1203 C1199 0.930 . S
H1204 C1201 0.929 1_565 S
S1205 N1206 1.613 . S
S1205 N1207 1.610 . S
N1206 S1205 1.613 . S
N1206 C1209 1.350 . S
N1207 S1205 1.610 . S
N1207 C1208 1.351 . S
C1208 C1202 1.428 . S
C1208 N1207 1.351 . S
C1208 C1209 1.434 . S
C1209 C1200 1.429 . S
C1209 N1206 1.350 . S
C1209 C1208 1.434 . S
C1210 C1211 1.369 . S
C1210 C1212 1.419 . S
C1210 H1214 0.930 . S
C1211 C1210 1.369 . S
C1211 C1220 1.429 . S
C1212 C1210 1.419 . S
C1212 C1213 1.363 . S
C1212 H1215 0.929 . S
C1213 C1212 1.363 . S
C1213 C1219 1.428 . S
H1214 C1210 0.930 . S
H1215 C1212 0.929 . S
S1216 N1217 1.613 . S
S1216 N1218 1.610 . S
N1217 S1216 1.613 . S
N1217 C1220 1.350 . S
N1218 S1216 1.610 . S
N1218 C1219 1.351 . S
C1219 C1213 1.428 . S
C1219 N1218 1.351 . S
C1219 C1220 1.434 . S
C1220 C1211 1.429 . S
C1220 N1217 1.350 . S
C1220 C1219 1.434 . S
C1221 C1222 1.369 . S
C1221 C1223 1.419 . S
C1221 H1225 0.930 . S
C1222 C1221 1.369 . S
C1222 C1231 1.429 . S
C1223 C1221 1.419 . S
C1223 C1224 1.363 . S
C1223 H1226 0.929 . S
C1224 C1223 1.363 . S
C1224 C1230 1.428 . S
H1225 C1221 0.930 . S
H1226 C1223 0.929 . S
S1227 N1228 1.613 . S
S1227 N1229 1.610 . S
N1228 S1227 1.613 . S
N1228 C1231 1.350 . S
N1229 S1227 1.610 . S
N1229 C1230 1.351 . S
C1230 C1224 1.428 . S
C1230 N1229 1.351 . S
C1230 C1231 1.434 . S
C1231 C1222 1.429 . S
C1231 N1228 1.350 . S
C1231 C1230 1.434 . S
C1232 C1233 1.369 . S
C1232 C1234 1.419 . S
C1232 H1236 0.930 . S
C1233 C1232 1.369 . S
C1233 C1242 1.429 . S
C1234 C1232 1.419 . S
C1234 C1235 1.363 . S
C1234 H1237 0.929 . S
C1235 C1234 1.363 . S
C1235 C1241 1.428 . S
H1236 C1232 0.930 . S
H1237 C1234 0.929 . S
S1238 N1239 1.613 . S
S1238 N1240 1.610 . S
N1239 S1238 1.613 . S
N1239 C1242 1.350 . S
N1240 S1238 1.610 . S
N1240 C1241 1.351 . S
C1241 C1235 1.428 . S
C1241 N1240 1.351 . S
C1241 C1242 1.434 . S
C1242 C1233 1.429 . S
C1242 N1239 1.350 . S
C1242 C1241 1.434 . S
C1243 C1244 1.369 . S
C1243 C1245 1.419 . S
C1243 H1247 0.930 . S
C1244 C1243 1.369 . S
C1244 C1253 1.429 . S
C1245 C1243 1.419 . S
C1245 C1246 1.363 . S
C1245 H1248 0.929 . S
C1246 C1245 1.363 . S
C1246 C1252 1.428 . S
H1247 C1243 0.930 . S
H1248 C1245 0.929 . S
S1249 N1250 1.613 . S
S1249 N1251 1.610 . S
N1250 S1249 1.613 . S
N1250 C1253 1.350 . S
N1251 S1249 1.610 . S
N1251 C1252 1.351 . S
C1252 C1246 1.428 . S
C1252 N1251 1.351 . S
C1252 C1253 1.434 . S
C1253 C1244 1.429 . S
C1253 N1250 1.350 . S
C1253 C1252 1.434 . S
C1254 C1255 1.369 . S
C1254 C1256 1.419 . S
C1254 H1258 0.930 . S
C1255 C1254 1.369 . S
C1255 C1264 1.429 . S
C1256 C1254 1.419 . S
C1256 C1257 1.363 . S
C1256 H1259 0.929 . S
C1257 C1256 1.363 . S
C1257 C1263 1.428 . S
H1258 C1254 0.930 . S
H1259 C1256 0.929 . S
S1260 N1261 1.613 . S
S1260 N1262 1.610 . S
N1261 S1260 1.613 . S
N1261 C1264 1.350 . S
N1262 S1260 1.610 . S
N1262 C1263 1.351 . S
C1263 C1257 1.428 . S
C1263 N1262 1.351 . S
C1263 C1264 1.434 . S
C1264 C1255 1.429 . S
C1264 N1261 1.350 . S
C1264 C1263 1.434 . S
C1265 C1266 1.369 . S
C1265 C1267 1.419 . S
C1265 H1269 0.930 . S
C1266 C1265 1.369 . S
C1266 C1275 1.429 . S
C1267 C1265 1.419 . S
C1267 C1268 1.363 . S
C1267 H1270 0.929 . S
C1268 C1267 1.363 . S
C1268 C1274 1.428 . S
H1269 C1265 0.930 . S
H1270 C1267 0.929 . S
S1271 N1272 1.613 . S
S1271 N1273 1.607 1_545 S
N1272 S1271 1.613 . S
N1272 C1275 1.350 1_545 S
N1273 S1271 1.607 1_565 S
N1273 C1274 1.351 . S
C1274 C1268 1.428 . S
C1274 N1273 1.351 . S
C1274 C1275 1.434 . S
C1275 C1266 1.429 . S
C1275 N1272 1.350 1_565 S
C1275 C1274 1.434 . S
C1276 C1277 1.369 . S
C1276 C1278 1.419 . S
C1276 H1280 0.930 . S
C1277 C1276 1.369 . S
C1277 C1286 1.429 . S
C1278 C1276 1.419 . S
C1278 C1279 1.363 . S
C1278 H1281 0.929 1_455 S
C1279 C1278 1.363 . S
C1279 C1285 1.428 . S
H1280 C1276 0.930 . S
H1281 C1278 0.929 1_655 S
S1282 N1283 1.613 . S
S1282 N1284 1.610 . S
N1283 S1282 1.613 . S
N1283 C1286 1.350 . S
N1284 S1282 1.610 . S
N1284 C1285 1.351 . S
C1285 C1279 1.428 . S
C1285 N1284 1.351 . S
C1285 C1286 1.434 . S
C1286 C1277 1.429 . S
C1286 N1283 1.350 . S
C1286 C1285 1.434 . S
C1287 C1288 1.369 . S
C1287 C1289 1.419 . S
C1287 H1291 0.930 . S
C1288 C1287 1.369 . S
C1288 C1297 1.429 . S
C1289 C1287 1.419 . S
C1289 C1290 1.363 . S
C1289 H1292 0.929 . S
C1290 C1289 1.363 . S
C1290 C1296 1.428 . S
H1291 C1287 0.930 . S
H1292 C1289 0.929 . S
S1293 N1294 1.613 . S
S1293 N1295 1.610 . S
N1294 S1293 1.613 . S
N1294 C1297 1.350 . S
N1295 S1293 1.610 . S
N1295 C1296 1.351 . S
C1296 C1290 1.428 . S
C1296 N1295 1.351 . S
C1296 C1297 1.434 . S
C1297 C1288 1.429 . S
C1297 N1294 1.350 . S
C1297 C1296 1.434 . S
C1298 C1299 1.369 . S
C1298 C1300 1.419 . S
C1298 H1302 0.931 . S
C1299 C1298 1.369 . S
C1299 C1308 1.429 . S
C1300 C1298 1.419 . S
C1300 C1301 1.363 . S
C1300 H1303 0.929 . S
C1301 C1300 1.363 . S
C1301 C1307 1.428 . S
H1302 C1298 0.931 . S
H1303 C1300 0.929 . S
S1304 N1305 1.613 . S
S1304 N1306 1.610 . S
N1305 S1304 1.613 . S
N1305 C1308 1.350 . S
N1306 S1304 1.610 . S
N1306 C1307 1.351 . S
C1307 C1301 1.428 . S
C1307 N1306 1.351 . S
C1307 C1308 1.434 . S
C1308 C1299 1.429 . S
C1308 N1305 1.350 . S
C1308 C1307 1.434 . S
C1309 C1310 1.369 . S
C1309 C1311 1.419 . S
C1309 H1313 0.930 . S
C1310 C1309 1.369 . S
C1310 C1319 1.429 . S
C1311 C1309 1.419 . S
C1311 C1312 1.363 . S
C1311 H1314 0.929 . S
C1312 C1311 1.363 . S
C1312 C1318 1.428 . S
H1313 C1309 0.930 . S
H1314 C1311 0.929 . S
S1315 N1316 1.613 . S
S1315 N1317 1.610 1_565 S
N1316 S1315 1.613 . S
N1316 C1319 1.350 1_565 S
N1317 S1315 1.610 1_545 S
N1317 C1318 1.351 . S
C1318 C1312 1.428 . S
C1318 N1317 1.351 . S
C1318 C1319 1.434 . S
C1319 C1310 1.429 . S
C1319 N1316 1.350 1_545 S
C1319 C1318 1.434 . S
C1320 C1321 1.369 . S
C1320 C1322 1.419 . S
C1320 H1324 0.930 . S
C1321 C1320 1.369 . S
C1321 C1330 1.429 . S
C1322 C1320 1.419 . S
C1322 C1323 1.363 . S
C1322 H1325 0.929 . S
C1323 C1322 1.363 . S
C1323 C1329 1.428 . S
H1324 C1320 0.930 . S
H1325 C1322 0.929 . S
S1326 N1327 1.613 . S
S1326 N1328 1.610 . S
N1327 S1326 1.613 . S
N1327 C1330 1.350 . S
N1328 S1326 1.610 . S
N1328 C1329 1.351 . S
C1329 C1323 1.428 . S
C1329 N1328 1.351 . S
C1329 C1330 1.434 . S
C1330 C1321 1.429 . S
C1330 N1327 1.350 . S
C1330 C1329 1.434 . S
C1331 C1332 1.369 . S
C1331 C1333 1.419 . S
C1331 H1335 0.930 . S
C1332 C1331 1.369 . S
C1332 C1341 1.429 . S
C1333 C1331 1.419 . S
C1333 C1334 1.363 . S
C1333 H1336 0.929 . S
C1334 C1333 1.363 . S
C1334 C1340 1.428 . S
H1335 C1331 0.930 . S
H1336 C1333 0.929 . S
S1337 N1338 1.613 . S
S1337 N1339 1.610 . S
N1338 S1337 1.613 . S
N1338 C1341 1.350 . S
N1339 S1337 1.610 . S
N1339 C1340 1.351 . S
C1340 C1334 1.428 . S
C1340 N1339 1.351 . S
C1340 C1341 1.434 . S
C1341 C1332 1.429 . S
C1341 N1338 1.350 . S
C1341 C1340 1.434 . S
C1342 C1343 1.369 . S
C1342 C1344 1.419 . S
C1342 H1346 0.930 . S
C1343 C1342 1.369 . S
C1343 C1352 1.429 . S
C1344 C1342 1.419 . S
C1344 C1345 1.363 . S
C1344 H1347 0.929 . S
C1345 C1344 1.363 . S
C1345 C1351 1.428 . S
H1346 C1342 0.930 . S
H1347 C1344 0.929 . S
S1348 N1349 1.613 . S
S1348 N1350 1.610 . S
N1349 S1348 1.613 . S
N1349 C1352 1.350 . S
N1350 S1348 1.610 . S
N1350 C1351 1.351 . S
C1351 C1345 1.428 . S
C1351 N1350 1.351 . S
C1351 C1352 1.434 . S
C1352 C1343 1.429 . S
C1352 N1349 1.350 . S
C1352 C1351 1.434 . S
C1353 C1354 1.369 . S
C1353 C1355 1.419 . S
C1353 H1357 0.930 . S
C1354 C1353 1.369 . S
C1354 C1363 1.429 . S
C1355 C1353 1.419 . S
C1355 C1356 1.363 . S
C1355 H1358 0.929 . S
C1356 C1355 1.363 . S
C1356 C1362 1.428 . S
H1357 C1353 0.930 . S
H1358 C1355 0.929 . S
S1359 N1360 1.613 . S
S1359 N1361 1.610 . S
N1360 S1359 1.613 . S
N1360 C1363 1.350 . S
N1361 S1359 1.610 . S
N1361 C1362 1.351 . S
C1362 C1356 1.428 . S
C1362 N1361 1.351 . S
C1362 C1363 1.434 . S
C1363 C1354 1.429 . S
C1363 N1360 1.350 . S
C1363 C1362 1.434 . S
C1364 C1365 1.369 . S
C1364 C1366 1.419 . S
C1364 H1368 0.930 . S
C1365 C1364 1.369 . S
C1365 C1374 1.429 . S
C1366 C1364 1.419 . S
C1366 C1367 1.363 . S
C1366 H1369 0.929 . S
C1367 C1366 1.363 . S
C1367 C1373 1.428 . S
H1368 C1364 0.930 . S
H1369 C1366 0.929 . S
S1370 N1371 1.613 . S
S1370 N1372 1.610 . S
N1371 S1370 1.613 . S
N1371 C1374 1.350 . S
N1372 S1370 1.610 . S
N1372 C1373 1.351 . S
C1373 C1367 1.428 . S
C1373 N1372 1.351 . S
C1373 C1374 1.434 . S
C1374 C1365 1.429 . S
C1374 N1371 1.350 . S
C1374 C1373 1.434 . S
C1375 C1376 1.369 . S
C1375 C1377 1.419 . S
C1375 H1379 0.930 . S
C1376 C1375 1.369 . S
C1376 C1385 1.429 . S
C1377 C1375 1.419 . S
C1377 C1378 1.363 . S
C1377 H1380 0.929 . S
C1378 C1377 1.363 . S
C1378 C1384 1.428 . S
H1379 C1375 0.930 . S
H1380 C1377 0.929 . S
S1381 N1382 1.613 . S
S1381 N1383 1.610 . S
N1382 S1381 1.613 . S
N1382 C1385 1.350 . S
N1383 S1381 1.610 . S
N1383 C1384 1.351 . S
C1384 C1378 1.428 . S
C1384 N1383 1.351 . S
C1384 C1385 1.434 . S
C1385 C1376 1.429 . S
C1385 N1382 1.350 . S
C1385 C1384 1.434 . S
C1386 C1387 1.369 . S
C1386 C1388 1.419 . S
C1386 H1390 0.930 . S
C1387 C1386 1.369 . S
C1387 C1396 1.429 . S
C1388 C1386 1.419 . S
C1388 C1389 1.363 . S
C1388 H1391 0.929 . S
C1389 C1388 1.363 . S
C1389 C1395 1.428 . S
H1390 C1386 0.930 . S
H1391 C1388 0.929 . S
S1392 N1393 1.613 . S
S1392 N1394 1.610 . S
N1393 S1392 1.613 . S
N1393 C1396 1.350 . S
N1394 S1392 1.610 . S
N1394 C1395 1.351 . S
C1395 C1389 1.428 . S
C1395 N1394 1.351 . S
C1395 C1396 1.434 . S
C1396 C1387 1.429 . S
C1396 N1393 1.350 . S
C1396 C1395 1.434 . S
C1397 C1398 1.369 . S
C1397 C1399 1.419 . S
C1397 H1401 0.930 . S
C1398 C1397 1.369 . S
C1398 C1407 1.429 . S
C1399 C1397 1.419 . S
C1399 C1400 1.363 . S
C1399 H1402 0.929 . S
C1400 C1399 1.363 . S
C1400 C1406 1.428 . S
H1401 C1397 0.930 . S
H1402 C1399 0.929 . S
S1403 N1404 1.613 . S
S1403 N1405 1.610 . S
N1404 S1403 1.613 . S
N1404 C1407 1.350 . S
N1405 S1403 1.610 . S
N1405 C1406 1.351 . S
C1406 C1400 1.428 . S
C1406 N1405 1.351 . S
C1406 C1407 1.434 . S
C1407 C1398 1.429 . S
C1407 N1404 1.350 . S
C1407 C1406 1.434 . S
C1408 C1409 1.369 . S
C1408 C1410 1.419 . S
C1408 H1412 0.930 . S
C1409 C1408 1.369 . S
C1409 C1418 1.429 . S
C1410 C1408 1.419 . S
C1410 C1411 1.363 . S
C1410 H1413 0.929 . S
C1411 C1410 1.363 . S
C1411 C1417 1.428 . S
H1412 C1408 0.930 . S
H1413 C1410 0.929 . S
S1414 N1415 1.613 . S
S1414 N1416 1.610 . S
N1415 S1414 1.613 . S
N1415 C1418 1.350 . S
N1416 S1414 1.610 . S
N1416 C1417 1.351 . S
C1417 C1411 1.428 . S
C1417 N1416 1.351 . S
C1417 C1418 1.434 . S
C1418 C1409 1.429 . S
C1418 N1415 1.350 . S
C1418 C1417 1.434 . S
C1419 C1420 1.369 . S
C1419 C1421 1.419 . S
C1419 H1423 0.930 . S
C1420 C1419 1.369 . S
C1420 C1429 1.429 . S
C1421 C1419 1.419 . S
C1421 C1422 1.363 . S
C1421 H1424 0.929 . S
C1422 C1421 1.363 . S
C1422 C1428 1.428 . S
H1423 C1419 0.930 . S
H1424 C1421 0.929 . S
S1425 N1426 1.613 . S
S1425 N1427 1.610 . S
N1426 S1425 1.613 . S
N1426 C1429 1.350 . S
N1427 S1425 1.610 . S
N1427 C1428 1.351 . S
C1428 C1422 1.428 . S
C1428 N1427 1.351 . S
C1428 C1429 1.434 . S
C1429 C1420 1.429 . S
C1429 N1426 1.350 . S
C1429 C1428 1.434 . S
C1430 C1431 1.369 . S
C1430 C1432 1.419 . S
C1430 H1434 0.930 . S
C1431 C1430 1.369 . S
C1431 C1440 1.429 . S
C1432 C1430 1.419 . S
C1432 C1433 1.363 . S
C1432 H1435 0.929 . S
C1433 C1432 1.363 . S
C1433 C1439 1.428 . S
H1434 C1430 0.930 . S
H1435 C1432 0.929 . S
S1436 N1437 1.613 . S
S1436 N1438 1.610 . S
N1437 S1436 1.613 . S
N1437 C1440 1.350 . S
N1438 S1436 1.610 . S
N1438 C1439 1.351 . S
C1439 C1433 1.428 . S
C1439 N1438 1.351 . S
C1439 C1440 1.434 . S
C1440 C1431 1.429 . S
C1440 N1437 1.350 . S
C1440 C1439 1.434 . S
C1441 C1442 1.369 . S
C1441 C1443 1.419 . S
C1441 H1445 0.930 . S
C1442 C1441 1.369 . S
C1442 C1451 1.429 . S
C1443 C1441 1.419 . S
C1443 C1444 1.363 . S
C1443 H1446 0.929 . S
C1444 C1443 1.363 . S
C1444 C1450 1.428 . S
H1445 C1441 0.930 . S
H1446 C1443 0.929 . S
S1447 N1448 1.613 . S
S1447 N1449 1.610 . S
N1448 S1447 1.613 . S
N1448 C1451 1.350 . S
N1449 S1447 1.610 . S
N1449 C1450 1.351 . S
C1450 C1444 1.428 . S
C1450 N1449 1.351 . S
C1450 C1451 1.434 . S
C1451 C1442 1.429 . S
C1451 N1448 1.350 . S
C1451 C1450 1.434 . S
C1452 C1453 1.369 . S
C1452 C1454 1.419 . S
C1452 H1456 0.930 . S
C1453 C1452 1.369 . S
C1453 C1462 1.429 . S
C1454 C1452 1.419 . S
C1454 C1455 1.363 . S
C1454 H1457 0.929 . S
C1455 C1454 1.363 . S
C1455 C1461 1.428 . S
H1456 C1452 0.930 . S
H1457 C1454 0.929 . S
S1458 N1459 1.613 . S
S1458 N1460 1.610 . S
N1459 S1458 1.613 . S
N1459 C1462 1.350 . S
N1460 S1458 1.610 . S
N1460 C1461 1.351 . S
C1461 C1455 1.428 . S
C1461 N1460 1.351 . S
C1461 C1462 1.434 . S
C1462 C1453 1.429 . S
C1462 N1459 1.350 . S
C1462 C1461 1.434 . S
C1463 C1464 1.369 . S
C1463 C1465 1.419 . S
C1463 H1467 0.930 . S
C1464 C1463 1.369 . S
C1464 C1473 1.429 . S
C1465 C1463 1.419 . S
C1465 C1466 1.363 . S
C1465 H1468 0.929 . S
C1466 C1465 1.363 . S
C1466 C1472 1.428 . S
H1467 C1463 0.930 . S
H1468 C1465 0.929 . S
S1469 N1470 1.613 . S
S1469 N1471 1.610 . S
N1470 S1469 1.613 . S
N1470 C1473 1.350 . S
N1471 S1469 1.610 . S
N1471 C1472 1.351 . S
C1472 C1466 1.428 . S
C1472 N1471 1.351 . S
C1472 C1473 1.434 . S
C1473 C1464 1.429 . S
C1473 N1470 1.350 . S
C1473 C1472 1.434 . S
C1474 C1475 1.369 . S
C1474 C1476 1.419 . S
C1474 H1478 0.930 . S
C1475 C1474 1.369 . S
C1475 C1484 1.429 . S
C1476 C1474 1.419 . S
C1476 C1477 1.363 . S
C1476 H1479 0.929 . S
C1477 C1476 1.363 . S
C1477 C1483 1.428 . S
H1478 C1474 0.930 . S
H1479 C1476 0.929 . S
S1480 N1481 1.613 . S
S1480 N1482 1.610 . S
N1481 S1480 1.613 . S
N1481 C1484 1.350 . S
N1482 S1480 1.610 . S
N1482 C1483 1.351 . S
C1483 C1477 1.428 . S
C1483 N1482 1.351 . S
C1483 C1484 1.434 . S
C1484 C1475 1.429 . S
C1484 N1481 1.350 . S
C1484 C1483 1.434 . S
C1485 C1486 1.369 . S
C1485 C1487 1.419 . S
C1485 H1489 0.930 . S
C1486 C1485 1.369 . S
C1486 C1495 1.429 . S
C1487 C1485 1.419 . S
C1487 C1488 1.363 . S
C1487 H1490 0.929 . S
C1488 C1487 1.363 . S
C1488 C1494 1.428 . S
H1489 C1485 0.930 . S
H1490 C1487 0.929 . S
S1491 N1492 1.613 . S
S1491 N1493 1.610 . S
N1492 S1491 1.613 . S
N1492 C1495 1.350 . S
N1493 S1491 1.610 . S
N1493 C1494 1.351 . S
C1494 C1488 1.428 . S
C1494 N1493 1.351 . S
C1494 C1495 1.434 . S
C1495 C1486 1.429 . S
C1495 N1492 1.350 . S
C1495 C1494 1.434 . S
C1496 C1497 1.369 . S
C1496 C1498 1.419 . S
C1496 H1500 0.930 . S
C1497 C1496 1.369 . S
C1497 C1506 1.429 . S
C1498 C1496 1.419 . S
C1498 C1499 1.363 . S
C1498 H1501 0.929 . S
C1499 C1498 1.363 . S
C1499 C1505 1.428 . S
H1500 C1496 0.930 . S
H1501 C1498 0.929 . S
S1502 N1503 1.613 . S
S1502 N1504 1.610 . S
N1503 S1502 1.613 . S
N1503 C1506 1.350 . S
N1504 S1502 1.610 . S
N1504 C1505 1.351 . S
C1505 C1499 1.428 . S
C1505 N1504 1.351 . S
C1505 C1506 1.434 . S
C1506 C1497 1.429 . S
C1506 N1503 1.350 . S
C1506 C1505 1.434 . S
C1507 C1508 1.369 . S
C1507 C1509 1.419 . S
C1507 H1511 0.930 . S
C1508 C1507 1.369 . S
C1508 C1517 1.429 . S
C1509 C1507 1.419 . S
C1509 C1510 1.363 . S
C1509 H1512 0.929 . S
C1510 C1509 1.363 . S
C1510 C1516 1.428 . S
H1511 C1507 0.930 . S
H1512 C1509 0.929 . S
S1513 N1514 1.613 . S
S1513 N1515 1.610 . S
N1514 S1513 1.613 . S
N1514 C1517 1.350 . S
N1515 S1513 1.610 . S
N1515 C1516 1.351 . S
C1516 C1510 1.428 . S
C1516 N1515 1.351 . S
C1516 C1517 1.434 . S
C1517 C1508 1.429 . S
C1517 N1514 1.350 . S
C1517 C1516 1.434 . S
C1518 C1519 1.369 . S
C1518 C1520 1.419 . S
C1518 H1522 0.930 . S
C1519 C1518 1.369 . S
C1519 C1528 1.429 . S
C1520 C1518 1.419 . S
C1520 C1521 1.363 . S
C1520 H1523 0.929 . S
C1521 C1520 1.363 . S
C1521 C1527 1.428 . S
H1522 C1518 0.930 . S
H1523 C1520 0.929 . S
S1524 N1525 1.613 . S
S1524 N1526 1.610 . S
N1525 S1524 1.613 . S
N1525 C1528 1.350 . S
N1526 S1524 1.610 . S
N1526 C1527 1.351 . S
C1527 C1521 1.428 . S
C1527 N1526 1.351 . S
C1527 C1528 1.434 . S
C1528 C1519 1.429 . S
C1528 N1525 1.350 . S
C1528 C1527 1.434 . S
C1529 C1530 1.369 . S
C1529 C1531 1.419 . S
C1529 H1533 0.930 . S
C1530 C1529 1.369 . S
C1530 C1539 1.429 . S
C1531 C1529 1.419 . S
C1531 C1532 1.363 . S
C1531 H1534 0.929 . S
C1532 C1531 1.363 . S
C1532 C1538 1.428 . S
H1533 C1529 0.930 . S
H1534 C1531 0.929 . S
S1535 N1536 1.613 . S
S1535 N1537 1.610 . S
N1536 S1535 1.613 . S
N1536 C1539 1.350 . S
N1537 S1535 1.610 . S
N1537 C1538 1.351 . S
C1538 C1532 1.428 . S
C1538 N1537 1.351 . S
C1538 C1539 1.434 . S
C1539 C1530 1.429 . S
C1539 N1536 1.350 . S
C1539 C1538 1.434 . S
C1540 C1541 1.369 . S
C1540 C1542 1.419 . S
C1540 H1544 0.930 . S
C1541 C1540 1.369 . S
C1541 C1550 1.429 . S
C1542 C1540 1.419 . S
C1542 C1543 1.363 . S
C1542 H1545 0.929 . S
C1543 C1542 1.363 . S
C1543 C1549 1.428 . S
H1544 C1540 0.930 . S
H1545 C1542 0.929 . S
S1546 N1547 1.613 . S
S1546 N1548 1.610 . S
N1547 S1546 1.613 . S
N1547 C1550 1.350 . S
N1548 S1546 1.610 . S
N1548 C1549 1.351 . S
C1549 C1543 1.428 . S
C1549 N1548 1.351 . S
C1549 C1550 1.434 . S
C1550 C1541 1.429 . S
C1550 N1547 1.350 . S
C1550 C1549 1.434 . S
C1551 C1552 1.369 . S
C1551 C1553 1.419 . S
C1551 H1555 0.930 . S
C1552 C1551 1.369 . S
C1552 C1561 1.429 . S
C1553 C1551 1.419 . S
C1553 C1554 1.363 . S
C1553 H1556 0.929 . S
C1554 C1553 1.363 . S
C1554 C1560 1.428 . S
H1555 C1551 0.930 . S
H1556 C1553 0.929 . S
S1557 N1558 1.613 . S
S1557 N1559 1.610 . S
N1558 S1557 1.613 . S
N1558 C1561 1.350 . S
N1559 S1557 1.610 . S
N1559 C1560 1.351 . S
C1560 C1554 1.428 . S
C1560 N1559 1.351 . S
C1560 C1561 1.434 . S
C1561 C1552 1.429 . S
C1561 N1558 1.350 . S
C1561 C1560 1.434 . S
C1562 C1563 1.369 . S
C1562 C1564 1.419 . S
C1562 H1566 0.930 . S
C1563 C1562 1.369 . S
C1563 C1572 1.429 . S
C1564 C1562 1.419 . S
C1564 C1565 1.363 . S
C1564 H1567 0.929 . S
C1565 C1564 1.363 . S
C1565 C1571 1.428 . S
H1566 C1562 0.930 . S
H1567 C1564 0.929 . S
S1568 N1569 1.613 . S
S1568 N1570 1.610 . S
N1569 S1568 1.613 . S
N1569 C1572 1.350 . S
N1570 S1568 1.610 . S
N1570 C1571 1.351 . S
C1571 C1565 1.428 . S
C1571 N1570 1.351 . S
C1571 C1572 1.434 . S
C1572 C1563 1.429 . S
C1572 N1569 1.350 . S
C1572 C1571 1.434 . S
C1573 C1574 1.369 . S
C1573 C1575 1.419 . S
C1573 H1577 0.930 . S
C1574 C1573 1.369 . S
C1574 C1583 1.429 . S
C1575 C1573 1.419 . S
C1575 C1576 1.363 . S
C1575 H1578 0.929 . S
C1576 C1575 1.363 . S
C1576 C1582 1.428 . S
H1577 C1573 0.930 . S
H1578 C1575 0.929 . S
S1579 N1580 1.613 . S
S1579 N1581 1.610 . S
N1580 S1579 1.613 . S
N1580 C1583 1.350 . S
N1581 S1579 1.610 . S
N1581 C1582 1.351 . S
C1582 C1576 1.428 . S
C1582 N1581 1.351 . S
C1582 C1583 1.434 . S
C1583 C1574 1.429 . S
C1583 N1580 1.350 . S
C1583 C1582 1.434 . S
C1584 C1585 1.369 . S
C1584 C1586 1.419 . S
C1584 H1588 0.930 . S
C1585 C1584 1.369 . S
C1585 C1594 1.429 . S
C1586 C1584 1.419 . S
C1586 C1587 1.363 . S
C1586 H1589 0.929 . S
C1587 C1586 1.363 . S
C1587 C1593 1.428 . S
H1588 C1584 0.930 . S
H1589 C1586 0.929 . S
S1590 N1591 1.613 . S
S1590 N1592 1.610 . S
N1591 S1590 1.613 . S
N1591 C1594 1.350 . S
N1592 S1590 1.610 . S
N1592 C1593 1.351 . S
C1593 C1587 1.428 . S
C1593 N1592 1.351 . S
C1593 C1594 1.434 . S
C1594 C1585 1.429 . S
C1594 N1591 1.350 . S
C1594 C1593 1.434 . S
C1595 C1596 1.369 . S
C1595 C1597 1.419 . S
C1595 H1599 0.930 . S
C1596 C1595 1.369 . S
C1596 C1605 1.429 . S
C1597 C1595 1.419 . S
C1597 C1598 1.363 . S
C1597 H1600 0.929 . S
C1598 C1597 1.363 . S
C1598 C1604 1.428 . S
H1599 C1595 0.930 . S
H1600 C1597 0.929 . S
S1601 N1602 1.613 . S
S1601 N1603 1.610 . S
N1602 S1601 1.613 . S
N1602 C1605 1.350 . S
N1603 S1601 1.610 . S
N1603 C1604 1.351 . S
C1604 C1598 1.428 . S
C1604 N1603 1.351 . S
C1604 C1605 1.434 . S
C1605 C1596 1.429 . S
C1605 N1602 1.350 . S
C1605 C1604 1.434 . S
C1606 C1607 1.369 . S
C1606 C1608 1.419 . S
C1606 H1610 0.930 . S
C1607 C1606 1.369 . S
C1607 C1616 1.429 . S
C1608 C1606 1.419 . S
C1608 C1609 1.363 . S
C1608 H1611 0.929 . S
C1609 C1608 1.363 . S
C1609 C1615 1.428 . S
H1610 C1606 0.930 . S
H1611 C1608 0.929 . S
S1612 N1613 1.613 1_655 S
S1612 N1614 1.610 . S
N1613 S1612 1.613 1_455 S
N1613 C1616 1.350 . S
N1614 S1612 1.610 . S
N1614 C1615 1.351 1_655 S
C1615 C1609 1.428 . S
C1615 N1614 1.351 1_455 S
C1615 C1616 1.434 . S
C1616 C1607 1.429 . S
C1616 N1613 1.350 . S
C1616 C1615 1.434 . S
C1617 C1618 1.369 . S
C1617 C1619 1.419 . S
C1617 H1621 0.930 . S
C1618 C1617 1.369 . S
C1618 C1627 1.429 . S
C1619 C1617 1.419 . S
C1619 C1620 1.363 . S
C1619 H1622 0.929 . S
C1620 C1619 1.363 . S
C1620 C1626 1.428 . S
H1621 C1617 0.930 . S
H1622 C1619 0.929 . S
S1623 N1624 1.613 . S
S1623 N1625 1.610 . S
N1624 S1623 1.613 . S
N1624 C1627 1.350 . S
N1625 S1623 1.610 . S
N1625 C1626 1.351 . S
C1626 C1620 1.428 . S
C1626 N1625 1.351 . S
C1626 C1627 1.434 . S
C1627 C1618 1.429 . S
C1627 N1624 1.350 . S
C1627 C1626 1.434 . S
C1628 C1629 1.369 . S
C1628 C1630 1.419 . S
C1628 H1632 0.930 . S
C1629 C1628 1.369 . S
C1629 C1638 1.429 . S
C1630 C1628 1.419 . S
C1630 C1631 1.363 . S
C1630 H1633 0.929 . S
C1631 C1630 1.363 . S
C1631 C1637 1.428 . S
H1632 C1628 0.930 . S
H1633 C1630 0.929 . S
S1634 N1635 1.613 . S
S1634 N1636 1.610 . S
N1635 S1634 1.613 . S
N1635 C1638 1.350 . S
N1636 S1634 1.610 . S
N1636 C1637 1.351 . S
C1637 C1631 1.428 . S
C1637 N1636 1.351 . S
C1637 C1638 1.434 . S
C1638 C1629 1.429 . S
C1638 N1635 1.350 . S
C1638 C1637 1.434 . S
C1639 C1640 1.369 . S
C1639 C1641 1.419 . S
C1639 H1643 0.930 . S
C1640 C1639 1.369 . S
C1640 C1649 1.429 . S
C1641 C1639 1.419 . S
C1641 C1642 1.363 . S
C1641 H1644 0.929 . S
C1642 C1641 1.363 . S
C1642 C1648 1.428 . S
H1643 C1639 0.930 . S
H1644 C1641 0.929 . S
S1645 N1646 1.613 . S
S1645 N1647 1.610 . S
N1646 S1645 1.613 . S
N1646 C1649 1.350 . S
N1647 S1645 1.610 . S
N1647 C1648 1.351 . S
C1648 C1642 1.428 . S
C1648 N1647 1.351 . S
C1648 C1649 1.434 . S
C1649 C1640 1.429 . S
C1649 N1646 1.350 . S
C1649 C1648 1.434 . S
C1650 C1651 1.369 . S
C1650 C1652 1.419 . S
C1650 H1654 0.930 . S
C1651 C1650 1.369 . S
C1651 C1660 1.429 . S
C1652 C1650 1.419 . S
C1652 C1653 1.363 . S
C1652 H1655 0.929 . S
C1653 C1652 1.363 . S
C1653 C1659 1.428 . S
H1654 C1650 0.930 . S
H1655 C1652 0.929 . S
S1656 N1657 1.613 . S
S1656 N1658 1.610 . S
N1657 S1656 1.613 . S
N1657 C1660 1.350 . S
N1658 S1656 1.610 . S
N1658 C1659 1.351 . S
C1659 C1653 1.428 . S
C1659 N1658 1.351 . S
C1659 C1660 1.434 . S
C1660 C1651 1.429 . S
C1660 N1657 1.350 . S
C1660 C1659 1.434 . S
C1661 C1662 1.369 . S
C1661 C1663 1.419 . S
C1661 H1665 0.930 . S
C1662 C1661 1.369 . S
C1662 C1671 1.429 . S
C1663 C1661 1.419 . S
C1663 C1664 1.363 . S
C1663 H1666 0.929 . S
C1664 C1663 1.363 . S
C1664 C1670 1.428 . S
H1665 C1661 0.930 . S
H1666 C1663 0.929 . S
S1667 N1668 1.613 . S
S1667 N1669 1.610 . S
N1668 S1667 1.613 . S
N1668 C1671 1.350 . S
N1669 S1667 1.610 . S
N1669 C1670 1.351 . S
C1670 C1664 1.428 . S
C1670 N1669 1.351 . S
C1670 C1671 1.434 . S
C1671 C1662 1.429 . S
C1671 N1668 1.350 . S
C1671 C1670 1.434 . S
C1672 C1673 1.369 . S
C1672 C1674 1.419 . S
C1672 H1676 0.930 . S
C1673 C1672 1.369 . S
C1673 C1682 1.429 . S
C1674 C1672 1.419 . S
C1674 C1675 1.363 . S
C1674 H1677 0.929 . S
C1675 C1674 1.363 . S
C1675 C1681 1.428 . S
H1676 C1672 0.930 . S
H1677 C1674 0.929 . S
S1678 N1679 1.613 . S
S1678 N1680 1.610 . S
N1679 S1678 1.613 . S
N1679 C1682 1.350 . S
N1680 S1678 1.610 . S
N1680 C1681 1.351 . S
C1681 C1675 1.428 . S
C1681 N1680 1.351 . S
C1681 C1682 1.434 . S
C1682 C1673 1.429 . S
C1682 N1679 1.350 . S
C1682 C1681 1.434 . S
C1683 C1684 1.369 . S
C1683 C1685 1.419 . S
C1683 H1687 0.930 . S
C1684 C1683 1.369 . S
C1684 C1693 1.429 . S
C1685 C1683 1.419 . S
C1685 C1686 1.363 . S
C1685 H1688 0.929 . S
C1686 C1685 1.363 . S
C1686 C1692 1.428 . S
H1687 C1683 0.930 . S
H1688 C1685 0.929 . S
S1689 N1690 1.613 . S
S1689 N1691 1.610 . S
N1690 S1689 1.613 . S
N1690 C1693 1.350 . S
N1691 S1689 1.610 . S
N1691 C1692 1.351 . S
C1692 C1686 1.428 . S
C1692 N1691 1.351 . S
C1692 C1693 1.434 . S
C1693 C1684 1.429 . S
C1693 N1690 1.350 . S
C1693 C1692 1.434 . S
C1694 C1695 1.369 . S
C1694 C1696 1.419 . S
C1694 H1698 0.930 . S
C1695 C1694 1.369 . S
C1695 C1704 1.429 . S
C1696 C1694 1.419 . S
C1696 C1697 1.363 . S
C1696 H1699 0.929 . S
C1697 C1696 1.363 . S
C1697 C1703 1.428 . S
H1698 C1694 0.930 . S
H1699 C1696 0.929 . S
S1700 N1701 1.613 . S
S1700 N1702 1.610 . S
N1701 S1700 1.613 . S
N1701 C1704 1.350 . S
N1702 S1700 1.610 . S
N1702 C1703 1.351 . S
C1703 C1697 1.428 . S
C1703 N1702 1.351 . S
C1703 C1704 1.434 . S
C1704 C1695 1.429 . S
C1704 N1701 1.350 . S
C1704 C1703 1.434 . S
C1705 C1706 1.369 . S
C1705 C1707 1.419 . S
C1705 H1709 0.930 . S
C1706 C1705 1.369 . S
C1706 C1715 1.429 . S
C1707 C1705 1.419 . S
C1707 C1708 1.363 . S
C1707 H1710 0.929 . S
C1708 C1707 1.363 . S
C1708 C1714 1.428 . S
H1709 C1705 0.930 . S
H1710 C1707 0.929 . S
S1711 N1712 1.613 . S
S1711 N1713 1.610 . S
N1712 S1711 1.613 . S
N1712 C1715 1.350 . S
N1713 S1711 1.610 . S
N1713 C1714 1.351 . S
C1714 C1708 1.428 . S
C1714 N1713 1.351 . S
C1714 C1715 1.434 . S
C1715 C1706 1.429 . S
C1715 N1712 1.350 . S
C1715 C1714 1.434 . S
C1716 C1717 1.369 . S
C1716 C1718 1.419 . S
C1716 H1720 0.930 . S
C1717 C1716 1.369 . S
C1717 C1726 1.429 . S
C1718 C1716 1.419 . S
C1718 C1719 1.363 . S
C1718 H1721 0.929 1_655 S
C1719 C1718 1.363 . S
C1719 C1725 1.428 . S
H1720 C1716 0.930 . S
H1721 C1718 0.929 1_455 S
S1722 N1723 1.613 . S
S1722 N1724 1.610 . S
N1723 S1722 1.613 . S
N1723 C1726 1.350 . S
N1724 S1722 1.610 . S
N1724 C1725 1.351 . S
C1725 C1719 1.428 . S
C1725 N1724 1.351 . S
C1725 C1726 1.434 . S
C1726 C1717 1.429 . S
C1726 N1723 1.350 . S
C1726 C1725 1.434 . S
C1727 C1728 1.369 . S
C1727 C1729 1.419 . S
C1727 H1731 0.930 . S
C1728 C1727 1.369 . S
C1728 C1737 1.429 . S
C1729 C1727 1.419 . S
C1729 C1730 1.363 . S
C1729 H1732 0.929 . S
C1730 C1729 1.363 . S
C1730 C1736 1.428 . S
H1731 C1727 0.930 . S
H1732 C1729 0.929 . S
S1733 N1734 1.613 . S
S1733 N1735 1.610 . S
N1734 S1733 1.613 . S
N1734 C1737 1.350 . S
N1735 S1733 1.610 . S
N1735 C1736 1.351 . S
C1736 C1730 1.428 . S
C1736 N1735 1.351 . S
C1736 C1737 1.434 . S
C1737 C1728 1.429 . S
C1737 N1734 1.350 . S
C1737 C1736 1.434 . S
C1738 C1739 1.369 . S
C1738 C1740 1.419 . S
C1738 H1742 0.930 . S
C1739 C1738 1.369 . S
C1739 C1748 1.429 . S
C1740 C1738 1.419 . S
C1740 C1741 1.363 . S
C1740 H1743 0.929 . S
C1741 C1740 1.363 . S
C1741 C1747 1.428 . S
H1742 C1738 0.930 . S
H1743 C1740 0.929 . S
S1744 N1745 1.613 . S
S1744 N1746 1.610 . S
N1745 S1744 1.613 . S
N1745 C1748 1.350 . S
N1746 S1744 1.610 . S
N1746 C1747 1.351 . S
C1747 C1741 1.428 . S
C1747 N1746 1.351 . S
C1747 C1748 1.434 . S
C1748 C1739 1.429 . S
C1748 N1745 1.350 . S
C1748 C1747 1.434 . S
C1749 C1750 1.369 . S
C1749 C1751 1.419 . S
C1749 H1753 0.930 . S
C1750 C1749 1.369 . S
C1750 C1759 1.429 1_455 S
C1751 C1749 1.419 . S
C1751 C1752 1.363 . S
C1751 H1754 0.929 . S
C1752 C1751 1.363 . S
C1752 C1758 1.428 . S
H1753 C1749 0.930 . S
H1754 C1751 0.929 . S
S1755 N1756 1.613 . S
S1755 N1757 1.610 . S
N1756 S1755 1.613 . S
N1756 C1759 1.350 . S
N1757 S1755 1.610 . S
N1757 C1758 1.351 1_655 S
C1758 C1752 1.428 . S
C1758 N1757 1.351 1_455 S
C1758 C1759 1.434 1_455 S
C1759 C1750 1.429 1_655 S
C1759 N1756 1.350 . S
C1759 C1758 1.434 1_655 S
C1760 C1761 1.369 . S
C1760 C1762 1.419 . S
C1760 H1764 0.930 . S
C1761 C1760 1.369 . S
C1761 C1770 1.429 . S
C1762 C1760 1.419 . S
C1762 C1763 1.363 . S
C1762 H1765 0.929 . S
C1763 C1762 1.363 . S
C1763 C1769 1.428 . S
H1764 C1760 0.930 . S
H1765 C1762 0.929 . S
S1766 N1767 1.613 . S
S1766 N1768 1.610 . S
N1767 S1766 1.613 . S
N1767 C1770 1.350 . S
N1768 S1766 1.610 . S
N1768 C1769 1.351 . S
C1769 C1763 1.428 . S
C1769 N1768 1.351 . S
C1769 C1770 1.434 . S
C1770 C1761 1.429 . S
C1770 N1767 1.350 . S
C1770 C1769 1.434 . S
C1771 C1772 1.369 1_545 S
C1771 C1773 1.419 . S
C1771 H1775 0.930 . S
C1772 C1771 1.369 1_565 S
C1772 C1781 1.429 . S
C1773 C1771 1.419 . S
C1773 C1774 1.363 1_545 S
C1773 H1776 0.929 . S
C1774 C1773 1.363 1_565 S
C1774 C1780 1.428 . S
H1775 C1771 0.930 . S
H1776 C1773 0.929 . S
S1777 N1778 1.613 . S
S1777 N1779 1.610 . S
N1778 S1777 1.613 . S
N1778 C1781 1.350 . S
N1779 S1777 1.610 . S
N1779 C1780 1.351 . S
C1780 C1774 1.428 . S
C1780 N1779 1.351 . S
C1780 C1781 1.434 . S
C1781 C1772 1.429 . S
C1781 N1778 1.350 . S
C1781 C1780 1.434 . S
C1782 C1783 1.369 . S
C1782 C1784 1.419 . S
C1782 H1786 0.930 . S
C1783 C1782 1.369 . S
C1783 C1792 1.429 1_565 S
C1784 C1782 1.419 . S
C1784 C1785 1.363 . S
C1784 H1787 0.929 . S
C1785 C1784 1.363 . S
C1785 C1791 1.428 1_565 S
H1786 C1782 0.930 . S
H1787 C1784 0.929 . S
S1788 N1789 1.613 . S
S1788 N1790 1.610 . S
N1789 S1788 1.613 . S
N1789 C1792 1.350 . S
N1790 S1788 1.610 . S
N1790 C1791 1.351 . S
C1791 C1785 1.428 1_545 S
C1791 N1790 1.351 . S
C1791 C1792 1.434 . S
C1792 C1783 1.429 1_545 S
C1792 N1789 1.350 . S
C1792 C1791 1.434 . S
C1793 C1794 1.369 . S
C1793 C1795 1.419 . S
C1793 H1797 0.930 . S
C1794 C1793 1.369 . S
C1794 C1803 1.429 . S
C1795 C1793 1.419 . S
C1795 C1796 1.363 . S
C1795 H1798 0.929 . S
C1796 C1795 1.363 . S
C1796 C1802 1.428 . S
H1797 C1793 0.930 . S
H1798 C1795 0.929 . S
S1799 N1800 1.613 . S
S1799 N1801 1.610 1_655 S
N1800 S1799 1.613 . S
N1800 C1803 1.350 1_655 S
N1801 S1799 1.610 1_455 S
N1801 C1802 1.351 . S
C1802 C1796 1.428 . S
C1802 N1801 1.351 . S
C1802 C1803 1.434 . S
C1803 C1794 1.429 . S
C1803 N1800 1.350 1_455 S
C1803 C1802 1.434 . S
C1804 C1805 1.369 . S
C1804 C1806 1.419 . S
C1804 H1808 0.930 . S
C1805 C1804 1.369 . S
C1805 C1814 1.429 . S
C1806 C1804 1.419 . S
C1806 C1807 1.363 . S
C1806 H1809 0.929 . S
C1807 C1806 1.363 . S
C1807 C1813 1.428 . S
H1808 C1804 0.930 . S
H1809 C1806 0.929 . S
S1810 N1811 1.613 . S
S1810 N1812 1.610 . S
N1811 S1810 1.613 . S
N1811 C1814 1.350 . S
N1812 S1810 1.610 . S
N1812 C1813 1.351 . S
C1813 C1807 1.428 . S
C1813 N1812 1.351 . S
C1813 C1814 1.434 . S
C1814 C1805 1.429 . S
C1814 N1811 1.350 . S
C1814 C1813 1.434 . S
C1815 C1816 1.369 . S
C1815 C1817 1.419 1_556 S
C1815 H1819 0.930 . S
C1816 C1815 1.369 . S
C1816 C1825 1.429 . S
C1817 C1815 1.419 1_554 S
C1817 C1818 1.363 . S
C1817 H1820 0.929 . S
C1818 C1817 1.363 . S
C1818 C1824 1.428 . S
H1819 C1815 0.930 . S
H1820 C1817 0.929 . S
S1821 N1822 1.613 1_554 S
S1821 N1823 1.610 . S
N1822 S1821 1.613 1_556 S
N1822 C1825 1.350 . S
N1823 S1821 1.610 . S
N1823 C1824 1.351 . S
C1824 C1818 1.428 . S
C1824 N1823 1.351 . S
C1824 C1825 1.434 1_554 S
C1825 C1816 1.429 . S
C1825 N1822 1.350 . S
C1825 C1824 1.434 1_556 S
C1826 C1827 1.369 . S
C1826 C1828 1.419 . S
C1826 H1830 0.930 . S
C1827 C1826 1.369 . S
C1827 C1836 1.429 1_554 S
C1828 C1826 1.419 . S
C1828 C1829 1.363 1_554 S
C1828 H1831 0.929 1_655 S
C1829 C1828 1.363 1_556 S
C1829 C1835 1.428 . S
H1830 C1826 0.930 . S
H1831 C1828 0.929 1_455 S
S1832 N1833 1.613 . S
S1832 N1834 1.610 . S
N1833 S1832 1.613 . S
N1833 C1836 1.350 . S
N1834 S1832 1.610 . S
N1834 C1835 1.351 . S
C1835 C1829 1.428 . S
C1835 N1834 1.351 . S
C1835 C1836 1.434 . S
C1836 C1827 1.429 1_556 S
C1836 N1833 1.350 . S
C1836 C1835 1.434 . S
C1837 C1838 1.369 . S
C1837 C1839 1.419 . S
C1837 H1841 0.930 . S
C1838 C1837 1.369 . S
C1838 C1847 1.429 1_554 S
C1839 C1837 1.419 . S
C1839 C1840 1.363 1_554 S
C1839 H1842 0.929 . S
C1840 C1839 1.363 1_556 S
C1840 C1846 1.428 . S
H1841 C1837 0.930 . S
H1842 C1839 0.929 . S
S1843 N1844 1.613 . S
S1843 N1845 1.610 . S
N1844 S1843 1.613 . S
N1844 C1847 1.350 . S
N1845 S1843 1.610 . S
N1845 C1846 1.351 . S
C1846 C1840 1.428 . S
C1846 N1845 1.351 . S
C1846 C1847 1.434 . S
C1847 C1838 1.429 1_556 S
C1847 N1844 1.350 . S
C1847 C1846 1.434 . S
C1848 C1849 1.369 . S
C1848 C1850 1.419 1_545 S
C1848 H1852 0.930 1_545 S
C1849 C1848 1.369 . S
C1849 C1858 1.429 . S
C1850 C1848 1.419 1_565 S
C1850 C1851 1.363 1_565 S
C1850 H1853 0.929 . S
C1851 C1850 1.363 1_545 S
C1851 C1857 1.428 . S
H1852 C1848 0.930 1_565 S
H1853 C1850 0.929 . S
S1854 N1855 1.613 . S
S1854 N1856 1.610 . S
N1855 S1854 1.613 . S
N1855 C1858 1.350 . S
N1856 S1854 1.610 . S
N1856 C1857 1.351 . S
C1857 C1851 1.428 . S
C1857 N1856 1.351 . S
C1857 C1858 1.434 . S
C1858 C1849 1.429 . S
C1858 N1855 1.350 . S
C1858 C1857 1.434 . S
C1859 C1860 1.369 . S
C1859 C1861 1.419 . S
C1859 H1863 0.930 . S
C1860 C1859 1.369 . S
C1860 C1869 1.429 1_655 S
C1861 C1859 1.419 . S
C1861 C1862 1.363 . S
C1861 H1864 0.929 . S
C1862 C1861 1.363 . S
C1862 C1868 1.428 1_655 S
H1863 C1859 0.930 . S
H1864 C1861 0.929 . S
S1865 N1866 1.613 . S
S1865 N1867 1.610 . S
N1866 S1865 1.613 . S
N1866 C1869 1.350 . S
N1867 S1865 1.610 . S
N1867 C1868 1.351 . S
C1868 C1862 1.428 1_455 S
C1868 N1867 1.351 . S
C1868 C1869 1.434 . S
C1869 C1860 1.429 1_455 S
C1869 N1866 1.350 . S
C1869 C1868 1.434 . S
C1870 C1871 1.369 . S
C1870 C1872 1.419 . S
C1870 H1874 0.930 . S
C1871 C1870 1.369 . S
C1871 C1880 1.429 . S
C1872 C1870 1.419 . S
C1872 C1873 1.363 . S
C1872 H1875 0.929 . S
C1873 C1872 1.363 . S
C1873 C1879 1.428 . S
H1874 C1870 0.930 . S
H1875 C1872 0.929 . S
S1876 N1877 1.613 . S
S1876 N1878 1.610 . S
N1877 S1876 1.613 . S
N1877 C1880 1.350 . S
N1878 S1876 1.610 . S
N1878 C1879 1.351 . S
C1879 C1873 1.428 . S
C1879 N1878 1.351 . S
C1879 C1880 1.434 . S
C1880 C1871 1.429 . S
C1880 N1877 1.350 . S
C1880 C1879 1.434 . S
C1881 C1882 1.369 . S
C1881 C1883 1.419 . S
C1881 H1885 0.930 . S
C1882 C1881 1.369 . S
C1882 C1891 1.429 1_556 S
C1883 C1881 1.419 . S
C1883 C1884 1.363 1_556 S
C1883 H1886 0.929 1_565 S
C1884 C1883 1.363 1_554 S
C1884 C1890 1.428 . S
H1885 C1881 0.930 . S
H1886 C1883 0.929 1_545 S
S1887 N1888 1.613 . S
S1887 N1889 1.610 . S
N1888 S1887 1.613 . S
N1888 C1891 1.350 . S
N1889 S1887 1.610 . S
N1889 C1890 1.351 . S
C1890 C1884 1.428 . S
C1890 N1889 1.351 . S
C1890 C1891 1.434 . S
C1891 C1882 1.429 1_554 S
C1891 N1888 1.350 . S
C1891 C1890 1.434 . S
C1892 C1893 1.369 1_556 S
C1892 C1894 1.419 . S
C1892 H1896 0.930 1_455 S
C1893 C1892 1.369 1_554 S
C1893 C1902 1.429 . S
C1894 C1892 1.419 . S
C1894 C1895 1.363 . S
C1894 H1897 0.929 . S
C1895 C1894 1.363 . S
C1895 C1901 1.428 1_556 S
H1896 C1892 0.930 1_655 S
H1897 C1894 0.929 . S
S1898 N1899 1.613 . S
S1898 N1900 1.610 . S
N1899 S1898 1.613 . S
N1899 C1902 1.350 . S
N1900 S1898 1.610 . S
N1900 C1901 1.351 . S
C1901 C1895 1.428 1_554 S
C1901 N1900 1.351 . S
C1901 C1902 1.434 . S
C1902 C1893 1.429 . S
C1902 N1899 1.350 . S
C1902 C1901 1.434 . S
C1903 C1904 1.369 . S
C1903 C1905 1.419 . S
C1903 H1907 0.930 . S
C1904 C1903 1.369 . S
C1904 C1913 1.429 1_556 S
C1905 C1903 1.419 . S
C1905 C1906 1.363 1_556 S
C1905 H1908 0.929 . S
C1906 C1905 1.363 1_554 S
C1906 C1912 1.428 . S
H1907 C1903 0.930 . S
H1908 C1905 0.929 . S
S1909 N1910 1.613 . S
S1909 N1911 1.610 . S
N1910 S1909 1.613 . S
N1910 C1913 1.350 . S
N1911 S1909 1.610 . S
N1911 C1912 1.351 . S
C1912 C1906 1.428 . S
C1912 N1911 1.351 . S
C1912 C1913 1.434 . S
C1913 C1904 1.429 1_554 S
C1913 N1910 1.350 . S
C1913 C1912 1.434 . S
C1914 C1915 1.369 . S
C1914 C1916 1.419 . S
C1914 H1918 0.930 . S
C1915 C1914 1.369 . S
C1915 C1924 1.429 . S
C1916 C1914 1.419 . S
C1916 C1917 1.363 . S
C1916 H1919 0.929 . S
C1917 C1916 1.363 . S
C1917 C1923 1.428 . S
H1918 C1914 0.930 . S
H1919 C1916 0.929 . S
S1920 N1921 1.613 . S
S1920 N1922 1.610 . S
N1921 S1920 1.613 . S
N1921 C1924 1.350 . S
N1922 S1920 1.610 . S
N1922 C1923 1.351 . S
C1923 C1917 1.428 . S
C1923 N1922 1.351 . S
C1923 C1924 1.434 . S
C1924 C1915 1.429 . S
C1924 N1921 1.350 . S
C1924 C1923 1.434 . S
C1925 C1926 1.369 . S
C1925 C1927 1.419 . S
C1925 H1929 0.930 . S
C1926 C1925 1.369 . S
C1926 C1935 1.429 . S
C1927 C1925 1.419 . S
C1927 C1928 1.363 . S
C1927 H1930 0.929 . S
C1928 C1927 1.363 . S
C1928 C1934 1.428 . S
H1929 C1925 0.930 . S
H1930 C1927 0.929 . S
S1931 N1932 1.613 . S
S1931 N1933 1.610 . S
N1932 S1931 1.613 . S
N1932 C1935 1.350 . S
N1933 S1931 1.610 . S
N1933 C1934 1.351 . S
C1934 C1928 1.428 . S
C1934 N1933 1.351 . S
C1934 C1935 1.434 . S
C1935 C1926 1.429 . S
C1935 N1932 1.350 . S
C1935 C1934 1.434 . S
C1936 C1937 1.369 . S
C1936 C1938 1.419 . S
C1936 H1940 0.930 . S
C1937 C1936 1.369 . S
C1937 C1946 1.429 . S
C1938 C1936 1.419 . S
C1938 C1939 1.363 . S
C1938 H1941 0.929 . S
C1939 C1938 1.363 . S
C1939 C1945 1.428 . S
H1940 C1936 0.930 . S
H1941 C1938 0.929 . S
S1942 N1943 1.613 . S
S1942 N1944 1.610 . S
N1943 S1942 1.613 . S
N1943 C1946 1.350 . S
N1944 S1942 1.610 . S
N1944 C1945 1.351 . S
C1945 C1939 1.428 . S
C1945 N1944 1.351 . S
C1945 C1946 1.434 . S
C1946 C1937 1.429 . S
C1946 N1943 1.350 . S
C1946 C1945 1.434 . S
C1947 C1948 1.369 . S
C1947 C1949 1.419 . S
C1947 H1951 0.930 . S
C1948 C1947 1.369 . S
C1948 C1957 1.429 . S
C1949 C1947 1.419 . S
C1949 C1950 1.363 . S
C1949 H1952 0.929 . S
C1950 C1949 1.363 . S
C1950 C1956 1.428 . S
H1951 C1947 0.930 . S
H1952 C1949 0.929 . S
S1953 N1954 1.613 1_455 S
S1953 N1955 1.610 . S
N1954 S1953 1.613 1_655 S
N1954 C1957 1.350 . S
N1955 S1953 1.610 . S
N1955 C1956 1.351 1_455 S
C1956 C1950 1.428 . S
C1956 N1955 1.351 1_655 S
C1956 C1957 1.434 . S
C1957 C1948 1.429 . S
C1957 N1954 1.350 . S
C1957 C1956 1.434 . S
C1958 C1959 1.369 . S
C1958 C1960 1.419 . S
C1958 H1962 0.930 . S
C1959 C1958 1.369 . S
C1959 C1968 1.429 . S
C1960 C1958 1.419 . S
C1960 C1961 1.363 . S
C1960 H1963 0.929 . S
C1961 C1960 1.363 . S
C1961 C1967 1.428 . S
H1962 C1958 0.930 . S
H1963 C1960 0.929 . S
S1964 N1965 1.613 . S
S1964 N1966 1.610 . S
N1965 S1964 1.613 . S
N1965 C1968 1.350 . S
N1966 S1964 1.610 . S
N1966 C1967 1.351 . S
C1967 C1961 1.428 . S
C1967 N1966 1.351 . S
C1967 C1968 1.434 . S
C1968 C1959 1.429 . S
C1968 N1965 1.350 . S
C1968 C1967 1.434 . S
C1969 C1970 1.369 . S
C1969 C1971 1.419 . S
C1969 H1973 0.930 . S
C1970 C1969 1.369 . S
C1970 C1979 1.429 1_545 S
C1971 C1969 1.419 . S
C1971 C1972 1.363 . S
C1971 H1974 0.929 . S
C1972 C1971 1.363 . S
C1972 C1978 1.428 1_545 S
H1973 C1969 0.930 . S
H1974 C1971 0.929 . S
S1975 N1976 1.613 . S
S1975 N1977 1.610 . S
N1976 S1975 1.613 . S
N1976 C1979 1.350 . S
N1977 S1975 1.610 . S
N1977 C1978 1.351 . S
C1978 C1972 1.428 1_565 S
C1978 N1977 1.351 . S
C1978 C1979 1.434 . S
C1979 C1970 1.429 1_565 S
C1979 N1976 1.350 . S
C1979 C1978 1.434 . S
C1980 C1981 1.369 1_455 S
C1980 C1982 1.419 . S
C1980 H1984 0.930 . S
C1981 C1980 1.369 1_655 S
C1981 C1990 1.429 . S
C1982 C1980 1.419 . S
C1982 C1983 1.363 . S
C1982 H1985 0.929 . S
C1983 C1982 1.363 . S
C1983 C1989 1.428 1_455 S
H1984 C1980 0.930 . S
H1985 C1982 0.929 . S
S1986 N1987 1.613 . S
S1986 N1988 1.610 . S
N1987 S1986 1.613 . S
N1987 C1990 1.350 . S
N1988 S1986 1.610 . S
N1988 C1989 1.351 . S
C1989 C1983 1.428 1_655 S
C1989 N1988 1.351 . S
C1989 C1990 1.434 . S
C1990 C1981 1.429 . S
C1990 N1987 1.350 . S
C1990 C1989 1.434 . S
C1991 C1992 1.369 . S
C1991 C1993 1.419 . S
C1991 H1995 0.930 . S
C1992 C1991 1.369 . S
C1992 C2001 1.429 . S
C1993 C1991 1.419 . S
C1993 C1994 1.363 . S
C1993 H1996 0.929 . S
C1994 C1993 1.363 . S
C1994 C2000 1.428 . S
H1995 C1991 0.930 . S
H1996 C1993 0.929 . S
S1997 N1998 1.613 . S
S1997 N1999 1.610 . S
N1998 S1997 1.613 . S
N1998 C2001 1.350 . S
N1999 S1997 1.610 . S
N1999 C2000 1.351 . S
C2000 C1994 1.428 . S
C2000 N1999 1.351 . S
C2000 C2001 1.434 . S
C2001 C1992 1.429 . S
C2001 N1998 1.350 . S
C2001 C2000 1.434 . S
C2002 C2003 1.369 . S
C2002 C2004 1.419 . S
C2002 H2006 0.930 . S
C2003 C2002 1.369 . S
C2003 C2012 1.429 1_565 S
C2004 C2002 1.419 . S
C2004 C2005 1.363 1_565 S
C2004 H2007 0.929 . S
C2005 C2004 1.363 1_545 S
C2005 C2011 1.428 . S
H2006 C2002 0.930 . S
H2007 C2004 0.929 . S
S2008 N2009 1.613 . S
S2008 N2010 1.610 . S
N2009 S2008 1.613 . S
N2009 C2012 1.350 . S
N2010 S2008 1.610 . S
N2010 C2011 1.351 . S
C2011 C2005 1.428 . S
C2011 N2010 1.351 . S
C2011 C2012 1.434 . S
C2012 C2003 1.429 1_545 S
C2012 N2009 1.350 . S
C2012 C2011 1.434 . S
C2013 C2014 1.369 . S
C2013 C2015 1.423 . S
C2013 H2017 0.930 . S
C2014 C2013 1.369 . S
C2014 C2023 1.429 1_655 S
C2015 C2013 1.423 . S
C2015 C2016 1.356 1_655 S
C2015 H2018 0.932 . S
C2016 C2015 1.356 1_455 S
C2016 C2022 1.428 . S
H2017 C2013 0.930 . S
H2018 C2015 0.932 . S
S2019 N2020 1.613 . S
S2019 N2021 1.610 . S
N2020 S2019 1.613 . S
N2020 C2023 1.350 . S
N2021 S2019 1.610 . S
N2021 C2022 1.351 . S
C2022 C2016 1.428 . S
C2022 N2021 1.351 . S
C2022 C2023 1.434 . S
C2023 C2014 1.429 1_455 S
C2023 N2020 1.350 . S
C2023 C2022 1.434 . S
C2024 C2025 1.369 . S
C2024 C2026 1.419 . S
C2024 H2028 0.930 . S
C2025 C2024 1.369 . S
C2025 C2034 1.429 . S
C2026 C2024 1.419 . S
C2026 C2027 1.363 . S
C2026 H2029 0.929 . S
C2027 C2026 1.363 . S
C2027 C2033 1.428 . S
H2028 C2024 0.930 . S
H2029 C2026 0.929 . S
S2030 N2031 1.613 . S
S2030 N2032 1.610 . S
N2031 S2030 1.613 . S
N2031 C2034 1.350 . S
N2032 S2030 1.610 . S
N2032 C2033 1.351 . S
C2033 C2027 1.428 . S
C2033 N2032 1.351 . S
C2033 C2034 1.434 . S
C2034 C2025 1.429 . S
C2034 N2031 1.350 . S
C2034 C2033 1.434 . S
C2035 C2036 1.369 . S
C2035 C2037 1.419 1_545 S
C2035 H2039 0.930 . S
C2036 C2035 1.369 . S
C2036 C2045 1.431 . S
C2037 C2035 1.419 1_565 S
C2037 C2038 1.363 . S
C2037 H2040 0.929 . S
C2038 C2037 1.363 . S
C2038 C2044 1.428 . S
H2039 C2035 0.930 . S
H2040 C2037 0.929 . S
S2041 N2042 1.613 . S
S2041 N2043 1.610 . S
N2042 S2041 1.613 . S
N2042 C2045 1.351 1_565 S
N2043 S2041 1.610 . S
N2043 C2044 1.351 . S
C2044 C2038 1.428 . S
C2044 N2043 1.351 . S
C2044 C2045 1.430 1_565 S
C2045 C2036 1.431 . S
C2045 N2042 1.351 1_545 S
C2045 C2044 1.430 1_545 S
C2046 C2047 1.369 . S
C2046 C2048 1.419 . S
C2046 H2050 0.930 . S
C2047 C2046 1.369 . S
C2047 C2056 1.429 . S
C2048 C2046 1.419 . S
C2048 C2049 1.363 . S
C2048 H2051 0.929 . S
C2049 C2048 1.363 . S
C2049 C2055 1.428 . S
H2050 C2046 0.930 . S
H2051 C2048 0.929 . S
S2052 N2053 1.613 . S
S2052 N2054 1.610 . S
N2053 S2052 1.613 . S
N2053 C2056 1.350 . S
N2054 S2052 1.610 . S
N2054 C2055 1.351 . S
C2055 C2049 1.428 . S
C2055 N2054 1.351 . S
C2055 C2056 1.434 . S
C2056 C2047 1.429 . S
C2056 N2053 1.350 . S
C2056 C2055 1.434 . S
C2057 C2058 1.369 . S
C2057 C2059 1.419 . S
C2057 H2061 0.930 . S
C2058 C2057 1.369 . S
C2058 C2067 1.429 . S
C2059 C2057 1.419 . S
C2059 C2060 1.363 . S
C2059 H2062 0.929 . S
C2060 C2059 1.363 . S
C2060 C2066 1.428 . S
H2061 C2057 0.930 . S
H2062 C2059 0.929 . S
S2063 N2064 1.613 . S
S2063 N2065 1.610 . S
N2064 S2063 1.613 . S
N2064 C2067 1.350 . S
N2065 S2063 1.610 . S
N2065 C2066 1.351 . S
C2066 C2060 1.428 . S
C2066 N2065 1.351 . S
C2066 C2067 1.434 . S
C2067 C2058 1.429 . S
C2067 N2064 1.350 . S
C2067 C2066 1.434 . S
C2068 C2069 1.369 . S
C2068 C2070 1.419 . S
C2068 H2072 0.930 . S
C2069 C2068 1.369 . S
C2069 C2078 1.429 . S
C2070 C2068 1.419 . S
C2070 C2071 1.363 . S
C2070 H2073 0.929 . S
C2071 C2070 1.363 . S
C2071 C2077 1.428 . S
H2072 C2068 0.930 . S
H2073 C2070 0.929 . S
S2074 N2075 1.613 . S
S2074 N2076 1.610 . S
N2075 S2074 1.613 . S
N2075 C2078 1.350 . S
N2076 S2074 1.610 . S
N2076 C2077 1.351 . S
C2077 C2071 1.428 . S
C2077 N2076 1.351 . S
C2077 C2078 1.434 . S
C2078 C2069 1.429 . S
C2078 N2075 1.350 . S
C2078 C2077 1.434 . S
C2079 C2080 1.369 . S
C2079 C2081 1.419 . S
C2079 H2083 0.930 . S
C2080 C2079 1.369 . S
C2080 C2089 1.429 . S
C2081 C2079 1.419 . S
C2081 C2082 1.363 . S
C2081 H2084 0.929 . S
C2082 C2081 1.363 . S
C2082 C2088 1.428 . S
H2083 C2079 0.930 . S
H2084 C2081 0.929 . S
S2085 N2086 1.613 1_565 S
S2085 N2087 1.610 . S
N2086 S2085 1.613 1_545 S
N2086 C2089 1.350 . S
N2087 S2085 1.610 . S
N2087 C2088 1.351 1_565 S
C2088 C2082 1.428 . S
C2088 N2087 1.351 1_545 S
C2088 C2089 1.434 . S
C2089 C2080 1.429 . S
C2089 N2086 1.350 . S
C2089 C2088 1.434 . S
C2090 C2091 1.369 . S
C2090 C2092 1.419 . S
C2090 H2094 0.930 . S
C2091 C2090 1.369 . S
C2091 C2100 1.429 . S
C2092 C2090 1.419 . S
C2092 C2093 1.363 . S
C2092 H2095 0.929 . S
C2093 C2092 1.363 . S
C2093 C2099 1.428 . S
H2094 C2090 0.930 . S
H2095 C2092 0.929 . S
S2096 N2097 1.613 . S
S2096 N2098 1.610 . S
N2097 S2096 1.613 . S
N2097 C2100 1.350 . S
N2098 S2096 1.610 . S
N2098 C2099 1.351 . S
C2099 C2093 1.428 . S
C2099 N2098 1.351 . S
C2099 C2100 1.434 . S
C2100 C2091 1.429 . S
C2100 N2097 1.350 . S
C2100 C2099 1.434 . S
C2101 C2102 1.369 . S
C2101 C2103 1.419 . S
C2101 H2105 0.930 . S
C2102 C2101 1.369 . S
C2102 C2111 1.429 . S
C2103 C2101 1.419 . S
C2103 C2104 1.363 . S
C2103 H2106 0.929 . S
C2104 C2103 1.363 . S
C2104 C2110 1.428 . S
H2105 C2101 0.930 . S
H2106 C2103 0.929 . S
S2107 N2108 1.613 . S
S2107 N2109 1.610 . S
N2108 S2107 1.613 . S
N2108 C2111 1.350 . S
N2109 S2107 1.610 . S
N2109 C2110 1.351 . S
C2110 C2104 1.428 . S
C2110 N2109 1.351 . S
C2110 C2111 1.434 . S
C2111 C2102 1.429 . S
C2111 N2108 1.350 . S
C2111 C2110 1.434 . S
C2112 C2113 1.369 . S
C2112 C2114 1.419 . S
C2112 H2116 0.930 . S
C2113 C2112 1.369 . S
C2113 C2122 1.429 . S
C2114 C2112 1.419 . S
C2114 C2115 1.363 . S
C2114 H2117 0.929 . S
C2115 C2114 1.363 . S
C2115 C2121 1.428 . S
H2116 C2112 0.930 . S
H2117 C2114 0.929 . S
S2118 N2119 1.613 . S
S2118 N2120 1.610 . S
N2119 S2118 1.613 . S
N2119 C2122 1.350 . S
N2120 S2118 1.610 . S
N2120 C2121 1.351 . S
C2121 C2115 1.428 . S
C2121 N2120 1.351 . S
C2121 C2122 1.434 . S
C2122 C2113 1.429 . S
C2122 N2119 1.350 . S
C2122 C2121 1.434 . S
C2123 C2124 1.369 . S
C2123 C2125 1.419 . S
C2123 H2127 0.930 1_455 S
C2124 C2123 1.369 . S
C2124 C2133 1.429 . S
C2125 C2123 1.419 . S
C2125 C2126 1.363 . S
C2125 H2128 0.929 . S
C2126 C2125 1.363 . S
C2126 C2132 1.428 . S
H2127 C2123 0.930 1_655 S
H2128 C2125 0.929 . S
S2129 N2130 1.613 . S
S2129 N2131 1.610 . S
N2130 S2129 1.613 . S
N2130 C2133 1.350 . S
N2131 S2129 1.610 . S
N2131 C2132 1.351 . S
C2132 C2126 1.428 . S
C2132 N2131 1.351 . S
C2132 C2133 1.434 . S
C2133 C2124 1.429 . S
C2133 N2130 1.350 . S
C2133 C2132 1.434 . S
C2134 C2135 1.369 . S
C2134 C2136 1.419 . S
C2134 H2138 0.930 . S
C2135 C2134 1.369 . S
C2135 C2144 1.429 . S
C2136 C2134 1.419 . S
C2136 C2137 1.363 . S
C2136 H2139 0.929 . S
C2137 C2136 1.363 . S
C2137 C2143 1.428 . S
H2138 C2134 0.930 . S
H2139 C2136 0.929 . S
S2140 N2141 1.613 . S
S2140 N2142 1.610 . S
N2141 S2140 1.613 . S
N2141 C2144 1.350 . S
N2142 S2140 1.610 . S
N2142 C2143 1.351 . S
C2143 C2137 1.428 . S
C2143 N2142 1.351 . S
C2143 C2144 1.434 . S
C2144 C2135 1.429 . S
C2144 N2141 1.350 . S
C2144 C2143 1.434 . S
C2145 C2146 1.369 . S
C2145 C2147 1.419 . S
C2145 H2149 0.930 . S
C2146 C2145 1.369 . S
C2146 C2155 1.429 . S
C2147 C2145 1.419 . S
C2147 C2148 1.363 . S
C2147 H2150 0.929 . S
C2148 C2147 1.363 . S
C2148 C2154 1.428 . S
H2149 C2145 0.930 . S
H2150 C2147 0.929 . S
S2151 N2152 1.613 . S
S2151 N2153 1.610 . S
N2152 S2151 1.613 . S
N2152 C2155 1.350 . S
N2153 S2151 1.610 . S
N2153 C2154 1.351 . S
C2154 C2148 1.428 . S
C2154 N2153 1.351 . S
C2154 C2155 1.434 . S
C2155 C2146 1.429 . S
C2155 N2152 1.350 . S
C2155 C2154 1.434 . S
C2156 C2157 1.369 . S
C2156 C2158 1.419 . S
C2156 H2160 0.930 . S
C2157 C2156 1.369 . S
C2157 C2166 1.429 . S
C2158 C2156 1.419 . S
C2158 C2159 1.363 . S
C2158 H2161 0.929 . S
C2159 C2158 1.363 . S
C2159 C2165 1.428 . S
H2160 C2156 0.930 . S
H2161 C2158 0.929 . S
S2162 N2163 1.613 . S
S2162 N2164 1.610 . S
N2163 S2162 1.613 . S
N2163 C2166 1.350 . S
N2164 S2162 1.610 . S
N2164 C2165 1.351 . S
C2165 C2159 1.428 . S
C2165 N2164 1.351 . S
C2165 C2166 1.434 . S
C2166 C2157 1.429 . S
C2166 N2163 1.350 . S
C2166 C2165 1.434 . S
C2167 C2168 1.369 . S
C2167 C2169 1.419 . S
C2167 H2171 0.930 . S
C2168 C2167 1.369 . S
C2168 C2177 1.429 . S
C2169 C2167 1.419 . S
C2169 C2170 1.363 . S
C2169 H2172 0.929 . S
C2170 C2169 1.363 . S
C2170 C2176 1.428 . S
H2171 C2167 0.930 . S
H2172 C2169 0.929 . S
S2173 N2174 1.613 . S
S2173 N2175 1.610 . S
N2174 S2173 1.613 . S
N2174 C2177 1.350 . S
N2175 S2173 1.610 . S
N2175 C2176 1.351 . S
C2176 C2170 1.428 . S
C2176 N2175 1.351 . S
C2176 C2177 1.434 . S
C2177 C2168 1.429 . S
C2177 N2174 1.350 . S
C2177 C2176 1.434 . S
C1189 N2 1.287 . S
C1191 C73 1.264 . S
C1200 C7 1.261 . S
C1202 N35 1.285 1_545 S
C1211 C40 1.261 . S
C1213 N68 1.286 1_655 S
C1222 C139 1.278 . S
C1224 N101 1.273 . S
C1233 C172 1.274 . S
C1235 N134 1.275 1_565 S
C1244 C106 1.278 . S
C1246 N167 1.273 1_455 S
C1255 C271 1.272 . S
C1257 N200 1.277 . S
C1266 N233 1.273 1_565 S
C1268 C205 1.275 . S
C1277 C238 1.268 . S
C1279 N266 1.280 1_455 S
C1288 C337 1.275 . S
C1290 N299 1.275 . S
C1299 N332 1.283 1_545 S
C1301 C370 1.267 . S
C1310 C304 1.264 . S
C1312 N365 1.284 1_655 S
C1321 N398 1.284 . S
C1323 C469 1.267 . S
C1332 N431 1.274 . S
C1334 C403 1.273 . S
C1343 N464 1.278 . S
C1345 C436 1.269 . S
C1354 C535 1.263 . S
C1356 N497 1.285 . S
C1365 C568 1.267 . S
C1367 N530 1.280 . S
C1376 N563 1.284 . S
C1378 C502 1.267 . S
C1387 N596 1.287 . S
C1389 C667 1.263 . S
C1398 N629 1.283 . S
C1400 C601 1.267 . S
C1409 N662 1.287 . S
C1411 C634 1.263 . S
C1420 C733 1.261 . S
C1422 N695 1.285 . S
C1431 C766 1.274 . S
C1433 N728 1.276 . S
C1442 N761 1.274 . S
C1444 C700 1.274 . S
C1453 C865 1.268 . S
C1455 N794 1.279 . S
C1464 C799 1.279 . S
C1466 N827 1.272 . S
C1475 N860 1.288 . S
C1477 C832 1.263 . S
C1486 C931 1.273 . S
C1488 N893 1.277 . S
C1497 N926 1.287 . S
C1499 C964 1.264 . S
C1508 C898 1.261 . S
C1510 N959 1.285 . S
C1519 C1063 1.265 . S
C1521 N992 1.282 . S
C1530 N1025 1.284 . S
C1532 C997 1.266 . S
C1541 N1058 1.288 . S
C1543 C1030 1.263 . S
C1552 C1129 1.272 . S
C1554 N1091 1.277 . S
C1563 C1162 1.268 . S
C1565 N1124 1.281 . S
C1574 N1157 1.286 . S
C1576 C1096 1.264 . S
C1585 N673 1.478 . S
C1587 C18 1.464 . S
C1596 C51 1.465 . S
C1598 N607 1.479 . S
C1607 C84 1.463 . S
C1609 N640 1.479 . S
C1618 N1135 1.480 . S
C1620 C117 1.466 . S
C1629 N1168 1.480 . S
C1631 C150 1.464 . S
C1640 C183 1.469 . S
C1642 N1102 1.483 . S
C1651 C216 1.467 . S
C1653 N871 1.482 . S
C1662 C249 1.468 . S
C1664 N805 1.482 . S
C1673 C282 1.466 . S
C1675 N838 1.482 . S
C1684 N541 1.482 . S
C1686 C315 1.468 . S
C1695 C348 1.469 . S
C1697 N574 1.483 . S
C1706 C381 1.462 . S
C1708 N508 1.478 . S
C1717 C414 1.464 . S
C1719 N1069 1.481 1_655 S
C1728 N1003 1.480 . S
C1730 C447 1.464 . S
C1739 N1036 1.480 1_545 S
C1741 C480 1.464 . S
C1750 C513 1.464 1_455 S
C1752 N343 1.481 . S
C1761 C546 1.466 . S
C1763 N376 1.480 . S
C1772 C579 1.468 1_565 S
C1774 N310 1.483 . S
C1783 N79 1.478 . S
C1785 C612 1.463 1_565 S
C1794 C645 1.462 1_455 S
C1796 N13 1.478 . S
C1805 C678 1.462 . S
C1807 N46 1.479 . S
C1816 N937 1.478 1_545 S
C1818 C711 1.463 . S
C1827 C744 1.465 . S
C1829 N970 1.481 1_655 S
C1838 C777 1.466 . S
C1840 N904 1.482 . S
C1849 N277 1.480 . S
C1851 C810 1.466 1_545 S
C1860 N211 1.481 . S
C1862 C843 1.465 1_655 S
C1871 C876 1.466 . S
C1873 N244 1.482 . S
C1882 C909 1.463 . S
C1884 N739 1.480 1_565 S
C1893 N772 1.483 1_455 S
C1895 C942 1.467 . S
C1904 C975 1.463 . S
C1906 N706 1.480 . S
C1915 N475 1.479 1_455 S
C1917 C1008 1.465 . S
C1926 C1041 1.463 . S
C1928 N409 1.479 . S
C1937 C1074 1.469 . S
C1939 N442 1.483 1_565 S
C1948 N145 1.481 . S
C1950 C1107 1.465 1_655 S
C1959 C1140 1.464 . S
C1961 N178 1.479 . S
C1970 N112 1.477 . S
C1972 C1173 1.463 1_545 S
C1981 C153 1.737 . S
C1983 C21 1.730 . S
C1992 C54 1.739 . S
C1994 C186 1.730 . S
C2003 C87 1.730 . S
C2005 C120 1.738 . S
C2014 C219 1.730 . S
C2016 C351 1.738 . S
C2025 C252 1.735 . S
C2027 C384 1.729 . S
C2036 C285 1.730 . S
C2038 C318 1.738 . S
C2047 C549 1.728 . S
C2049 C417 1.737 . S
C2058 C582 1.729 . S
C2060 C450 1.738 . S
C2069 C516 1.734 . S
C2071 C483 1.738 . S
C2080 C747 1.737 . S
C2082 C615 1.735 . S
C2091 C780 1.728 . S
C2093 C648 1.737 . S
C2102 C714 1.740 . S
C2104 C681 1.732 . S
C2113 C945 1.736 . S
C2115 C813 1.730 . S
C2124 C846 1.728 . S
C2126 C978 1.735 . S
C2135 C912 1.730 . S
C2137 C879 1.733 . S
C2146 C1143 1.734 . S
C2148 C1011 1.737 . S
C2157 C1176 1.728 . S
C2159 C1044 1.737 . S
C2168 C1077 1.728 . S
C2170 C1110 1.738 . S
