# Generated by pormake.
# Topology vbw, (6)-cn, num edge types: 1
# Building blocks:
#     Node 0, Type 0, BuildingBlock: OJICUG_clean_sbu_0, # of connection points: 6
#     Node 1, Type 0, BuildingBlock: OJICUG_clean_sbu_0, # of connection points: 6
#     Node 2, Type 0, BuildingBlock: OJICUG_clean_sbu_0, # of connection points: 6
#     Node 3, Type 0, BuildingBlock: OJICUG_clean_sbu_0, # of connection points: 6
#     Node 4, Type 0, BuildingBlock: OJICUG_clean_sbu_0, # of connection points: 6
#     Node 5, Type 0, BuildingBlock: OJICUG_clean_sbu_0, # of connection points: 6
#     Node 6, Type 0, BuildingBlock: OJICUG_clean_sbu_0, # of connection points: 6
#     Node 7, Type 0, BuildingBlock: OJICUG_clean_sbu_0, # of connection points: 6
#     Node 8, Type 0, BuildingBlock: OJICUG_clean_sbu_0, # of connection points: 6
#     Node 9, Type 0, BuildingBlock: OJICUG_clean_sbu_0, # of connection points: 6
#     Node 10, Type 0, BuildingBlock: OJICUG_clean_sbu_0, # of connection points: 6
#     Node 11, Type 0, BuildingBlock: OJICUG_clean_sbu_0, # of connection points: 6
#     Node 12, Type 0, BuildingBlock: OJICUG_clean_sbu_0, # of connection points: 6
#     Node 13, Type 0, BuildingBlock: OJICUG_clean_sbu_0, # of connection points: 6
#     Node 14, Type 0, BuildingBlock: OJICUG_clean_sbu_0, # of connection points: 6
#     Node 15, Type 0, BuildingBlock: OJICUG_clean_sbu_0, # of connection points: 6
#     Edge 16, Type (0, 0), BuildingBlock: XIVTED_clean_linker_0, # of connection points: 2
#     Edge 17, Type (0, 0), BuildingBlock: XIVTED_clean_linker_0, # of connection points: 2
#     Edge 18, Type (0, 0), BuildingBlock: XIVTED_clean_linker_0, # of connection points: 2
#     Edge 19, Type (0, 0), BuildingBlock: XIVTED_clean_linker_0, # of connection points: 2
#     Edge 20, Type (0, 0), BuildingBlock: XIVTED_clean_linker_0, # of connection points: 2
#     Edge 21, Type (0, 0), BuildingBlock: XIVTED_clean_linker_0, # of connection points: 2
#     Edge 22, Type (0, 0), BuildingBlock: XIVTED_clean_linker_0, # of connection points: 2
#     Edge 23, Type (0, 0), BuildingBlock: XIVTED_clean_linker_0, # of connection points: 2
#     Edge 24, Type (0, 0), BuildingBlock: XIVTED_clean_linker_0, # of connection points: 2
#     Edge 25, Type (0, 0), BuildingBlock: XIVTED_clean_linker_0, # of connection points: 2
#     Edge 26, Type (0, 0), BuildingBlock: XIVTED_clean_linker_0, # of connection points: 2
#     Edge 27, Type (0, 0), BuildingBlock: XIVTED_clean_linker_0, # of connection points: 2
#     Edge 28, Type (0, 0), BuildingBlock: XIVTED_clean_linker_0, # of connection points: 2
#     Edge 29, Type (0, 0), BuildingBlock: XIVTED_clean_linker_0, # of connection points: 2
#     Edge 30, Type (0, 0), BuildingBlock: XIVTED_clean_linker_0, # of connection points: 2
#     Edge 31, Type (0, 0), BuildingBlock: XIVTED_clean_linker_0, # of connection points: 2
#     Edge 32, Type (0, 0), BuildingBlock: XIVTED_clean_linker_0, # of connection points: 2
#     Edge 33, Type (0, 0), BuildingBlock: XIVTED_clean_linker_0, # of connection points: 2
#     Edge 34, Type (0, 0), BuildingBlock: XIVTED_clean_linker_0, # of connection points: 2
#     Edge 35, Type (0, 0), BuildingBlock: XIVTED_clean_linker_0, # of connection points: 2
#     Edge 36, Type (0, 0), BuildingBlock: XIVTED_clean_linker_0, # of connection points: 2
#     Edge 37, Type (0, 0), BuildingBlock: XIVTED_clean_linker_0, # of connection points: 2
#     Edge 38, Type (0, 0), BuildingBlock: XIVTED_clean_linker_0, # of connection points: 2
#     Edge 39, Type (0, 0), BuildingBlock: XIVTED_clean_linker_0, # of connection points: 2
#     Edge 40, Type (0, 0), BuildingBlock: XIVTED_clean_linker_0, # of connection points: 2
#     Edge 41, Type (0, 0), BuildingBlock: XIVTED_clean_linker_0, # of connection points: 2
#     Edge 42, Type (0, 0), BuildingBlock: XIVTED_clean_linker_0, # of connection points: 2
#     Edge 43, Type (0, 0), BuildingBlock: XIVTED_clean_linker_0, # of connection points: 2
#     Edge 44, Type (0, 0), BuildingBlock: XIVTED_clean_linker_0, # of connection points: 2
#     Edge 45, Type (0, 0), BuildingBlock: XIVTED_clean_linker_0, # of connection points: 2
#     Edge 46, Type (0, 0), BuildingBlock: XIVTED_clean_linker_0, # of connection points: 2
#     Edge 47, Type (0, 0), BuildingBlock: XIVTED_clean_linker_0, # of connection points: 2
#     Edge 48, Type (0, 0), BuildingBlock: XIVTED_clean_linker_0, # of connection points: 2
#     Edge 49, Type (0, 0), BuildingBlock: XIVTED_clean_linker_0, # of connection points: 2
#     Edge 50, Type (0, 0), BuildingBlock: XIVTED_clean_linker_0, # of connection points: 2
#     Edge 51, Type (0, 0), BuildingBlock: XIVTED_clean_linker_0, # of connection points: 2
#     Edge 52, Type (0, 0), BuildingBlock: XIVTED_clean_linker_0, # of connection points: 2
#     Edge 53, Type (0, 0), BuildingBlock: XIVTED_clean_linker_0, # of connection points: 2
#     Edge 54, Type (0, 0), BuildingBlock: XIVTED_clean_linker_0, # of connection points: 2
#     Edge 55, Type (0, 0), BuildingBlock: XIVTED_clean_linker_0, # of connection points: 2
#     Edge 56, Type (0, 0), BuildingBlock: XIVTED_clean_linker_0, # of connection points: 2
#     Edge 57, Type (0, 0), BuildingBlock: XIVTED_clean_linker_0, # of connection points: 2
#     Edge 58, Type (0, 0), BuildingBlock: XIVTED_clean_linker_0, # of connection points: 2
#     Edge 59, Type (0, 0), BuildingBlock: XIVTED_clean_linker_0, # of connection points: 2
#     Edge 60, Type (0, 0), BuildingBlock: XIVTED_clean_linker_0, # of connection points: 2
#     Edge 61, Type (0, 0), BuildingBlock: XIVTED_clean_linker_0, # of connection points: 2
#     Edge 62, Type (0, 0), BuildingBlock: XIVTED_clean_linker_0, # of connection points: 2
#     Edge 63, Type (0, 0), BuildingBlock: XIVTED_clean_linker_0, # of connection points: 2
# Relax obj value: 0.200
# Max RMSD: 0.231
# Mean RMSD: 0.231
data_MOF--net-vbw--node1-OJICUG_clean_sbu_0--edge1-XIVTED_clean_linker_0
_symmetry_space_group_name_H-M    P1
_symmetry_Int_Tables_number       1
_symmetry_cell_setting            triclinic
loop_
_symmetry_equiv_pos_as_xyz
'x, y, z'
_cell_length_a     58.627714
_cell_length_b     46.518455
_cell_length_c     29.097067
_cell_angle_alpha  89.94133
_cell_angle_beta   90.078564
_cell_angle_gamma 89.993816
loop_
_atom_site_label
_atom_site_type_symbol
_atom_site_fract_x
_atom_site_fract_y
_atom_site_fract_z
_atom_type_partial_charge
Sc0 Sc 0.14861 0.15151 0.06804 0.0
Sc1 Sc 0.11566 0.20907 0.10371 0.0
Sc2 Sc 0.11313 0.14342 0.16193 0.0
O3 O 0.12567 0.16809 0.11139 0.0
C4 C 0.11421 0.10138 0.07435 0.0
C5 C 0.12062 0.19412 0.00153 0.0
C6 C 0.06945 0.17635 0.12975 0.0
C7 C 0.16953 0.21103 0.08349 0.0
C8 C 0.16352 0.12316 0.16324 0.0
C9 C 0.11871 0.2051 0.21076 0.0
O10 O 0.12516 0.11873 0.04887 0.0
O11 O 0.10737 0.2029 0.03292 0.0
O12 O 0.07921 0.15309 0.14135 0.0
O13 O 0.17231 0.18404 0.08641 0.0
O14 O 0.14663 0.13282 0.18561 0.0
O15 O 0.12321 0.21853 0.17387 0.0
O16 O 0.16437 0.12402 0.11953 0.0
O17 O 0.14989 0.22291 0.08464 0.0
O18 O 0.11283 0.17867 0.21139 0.0
O19 O 0.13732 0.17739 0.00993 0.0
O20 O 0.11156 0.10544 0.11749 0.0
O21 O 0.08035 0.19931 0.12017 0.0
Sc22 Sc 0.32156 0.86216 0.56546 0.0
Sc23 Sc 0.35209 0.80311 0.60442 0.0
Sc24 Sc 0.35727 0.86928 0.66002 0.0
O25 O 0.3437 0.84481 0.61008 0.0
C26 C 0.35727 0.9112 0.57222 0.0
C27 C 0.34934 0.81807 0.50121 0.0
C28 C 0.39948 0.83299 0.63019 0.0
C29 C 0.29862 0.8035 0.58075 0.0
C30 C 0.30712 0.89152 0.66051 0.0
C31 C 0.34913 0.80861 0.71087 0.0
O32 O 0.34566 0.89441 0.54704 0.0
O33 O 0.36119 0.80783 0.53385 0.0
O34 O 0.39084 0.85728 0.63985 0.0
O35 O 0.29667 0.83063 0.58187 0.0
O36 O 0.3242 0.88229 0.683 0.0
O37 O 0.34356 0.79522 0.67455 0.0
O38 O 0.30574 0.88953 0.6169 0.0
O39 O 0.31778 0.79072 0.58437 0.0
O40 O 0.35638 0.83449 0.71044 0.0
O41 O 0.33333 0.83613 0.50796 0.0
O42 O 0.36023 0.90688 0.61519 0.0
O43 O 0.3875 0.81073 0.622 0.0
Sc44 Sc 0.15018 0.86331 0.93273 0.0
Sc45 Sc 0.11899 0.80481 0.89402 0.0
Sc46 Sc 0.11463 0.87105 0.838 0.0
O47 O 0.12787 0.84635 0.88812 0.0
C48 C 0.11486 0.91284 0.92583 0.0
C49 C 0.12194 0.81968 0.99712 0.0
C50 C 0.07193 0.83547 0.86735 0.0
C51 C 0.17249 0.80427 0.91785 0.0
C52 C 0.16501 0.89255 0.83779 0.0
C53 C 0.12221 0.8102 0.78746 0.0
O54 O 0.12639 0.89591 0.95101 0.0
O55 O 0.10989 0.80977 0.96456 0.0
O56 O 0.08086 0.85959 0.85762 0.0
O57 O 0.17474 0.83136 0.91635 0.0
O58 O 0.14787 0.8836 0.81525 0.0
O59 O 0.12745 0.79668 0.8239 0.0
O60 O 0.16632 0.89049 0.88139 0.0
O61 O 0.15318 0.79183 0.91436 0.0
O62 O 0.11535 0.83626 0.78768 0.0
O63 O 0.13817 0.83742 0.99024 0.0
O64 O 0.11188 0.90862 0.88284 0.0
O65 O 0.08366 0.81307 0.87618 0.0
Sc66 Sc 0.35731 0.14302 0.33865 0.0
Sc67 Sc 0.35566 0.20851 0.39759 0.0
Sc68 Sc 0.32252 0.15117 0.43418 0.0
O69 O 0.34526 0.16759 0.38997 0.0
C70 C 0.3065 0.12321 0.33907 0.0
C71 C 0.35073 0.20495 0.29072 0.0
C72 C 0.30226 0.21149 0.42168 0.0
C73 C 0.40144 0.17607 0.36778 0.0
C74 C 0.35671 0.10036 0.42565 0.0
C75 C 0.35227 0.19246 0.49983 0.0
O76 O 0.32375 0.13173 0.3166 0.0
O77 O 0.34704 0.21831 0.32801 0.0
O78 O 0.29909 0.18459 0.41859 0.0
O79 O 0.39152 0.15283 0.35683 0.0
O80 O 0.34539 0.11721 0.45126 0.0
O81 O 0.36493 0.20171 0.46776 0.0
O82 O 0.35979 0.10502 0.38279 0.0
O83 O 0.39065 0.19882 0.37876 0.0
O84 O 0.33537 0.17589 0.49218 0.0
O85 O 0.35655 0.17849 0.28943 0.0
O86 O 0.30527 0.12523 0.38264 0.0
O87 O 0.32199 0.22294 0.41906 0.0
Sc88 Sc 0.85769 0.8614 0.8365 0.0
Sc89 Sc 0.85513 0.7954 0.89401 0.0
Sc90 Sc 0.82258 0.85301 0.93136 0.0
O91 O 0.84524 0.83656 0.88713 0.0
C92 C 0.85708 0.90337 0.92429 0.0
C93 C 0.90138 0.8276 0.86644 0.0
C94 C 0.85138 0.81041 0.99663 0.0
C95 C 0.85113 0.79997 0.78707 0.0
C96 C 0.8071 0.88181 0.83658 0.0
C97 C 0.80153 0.79333 0.91658 0.0
O98 O 0.86003 0.89911 0.88129 0.0
O99 O 0.89033 0.80484 0.87644 0.0
O100 O 0.83474 0.82741 0.98907 0.0
O101 O 0.85714 0.82637 0.78656 0.0
O102 O 0.80602 0.87992 0.88019 0.0
O103 O 0.82112 0.78143 0.9142 0.0
O104 O 0.8242 0.87298 0.81396 0.0
O105 O 0.84694 0.78637 0.82397 0.0
O106 O 0.79877 0.82033 0.91436 0.0
O107 O 0.89174 0.85107 0.85554 0.0
O108 O 0.84586 0.88624 0.94966 0.0
O109 O 0.86405 0.80121 0.96456 0.0
Sc110 Sc 0.64964 0.14125 0.43087 0.0
Sc111 Sc 0.61936 0.20025 0.391 0.0
Sc112 Sc 0.61424 0.13387 0.33582 0.0
O113 O 0.62768 0.15849 0.38577 0.0
C114 C 0.6644 0.11145 0.33642 0.0
C115 C 0.67275 0.1998 0.4155 0.0
C116 C 0.62279 0.19434 0.28461 0.0
C117 C 0.62163 0.18555 0.49435 0.0
C118 C 0.61369 0.0924 0.4241 0.0
C119 C 0.57197 0.17055 0.36418 0.0
O120 O 0.66565 0.11369 0.38 0.0
O121 O 0.65362 0.21263 0.41156 0.0
O122 O 0.61555 0.16845 0.2851 0.0
O123 O 0.63765 0.16745 0.48795 0.0
O124 O 0.61084 0.09649 0.38105 0.0
O125 O 0.584 0.19271 0.37286 0.0
O126 O 0.62541 0.10917 0.44912 0.0
O127 O 0.60995 0.19578 0.46145 0.0
O128 O 0.58057 0.14618 0.3549 0.0
O129 O 0.67465 0.17266 0.41461 0.0
O130 O 0.64737 0.12052 0.31362 0.0
O131 O 0.62817 0.20788 0.32091 0.0
Sc132 Sc 0.82098 0.14134 0.06461 0.0
Sc133 Sc 0.85157 0.20041 0.10273 0.0
Sc134 Sc 0.85673 0.13448 0.15918 0.0
O135 O 0.84315 0.15877 0.10897 0.0
C136 C 0.8066 0.11218 0.15991 0.0
C137 C 0.79811 0.20001 0.07874 0.0
C138 C 0.84841 0.19536 0.20917 0.0
C139 C 0.84882 0.18519 -0.0001 0.0
C140 C 0.85671 0.09232 0.07175 0.0
C141 C 0.89895 0.17069 0.12922 0.0
O142 O 0.80524 0.11402 0.11629 0.0
O143 O 0.81732 0.21272 0.08198 0.0
O144 O 0.85581 0.16953 0.20916 0.0
O145 O 0.83269 0.16734 0.00691 0.0
O146 O 0.85968 0.09673 0.1147 0.0
O147 O 0.88694 0.19293 0.12091 0.0
O148 O 0.8451 0.10908 0.04643 0.0
O149 O 0.86087 0.19523 0.03237 0.0
O150 O 0.89032 0.14639 0.13887 0.0
O151 O 0.79609 0.17291 0.08087 0.0
O152 O 0.82366 0.12154 0.18232 0.0
O153 O 0.84281 0.20854 0.17263 0.0
Sc154 Sc 0.64918 0.85302 0.56436 0.0
Sc155 Sc 0.61607 0.79546 0.60067 0.0
Sc156 Sc 0.61371 0.86123 0.65877 0.0
O157 O 0.62621 0.83653 0.60806 0.0
C158 C 0.66442 0.88136 0.65961 0.0
C159 C 0.66973 0.79293 0.57937 0.0
C160 C 0.61978 0.7996 0.70781 0.0
C161 C 0.62045 0.81097 0.49812 0.0
C162 C 0.61487 0.90371 0.57141 0.0
C163 C 0.56994 0.82798 0.62755 0.0
O164 O 0.66578 0.87936 0.61607 0.0
O165 O 0.65008 0.78121 0.58145 0.0
O166 O 0.61411 0.8261 0.70852 0.0
O167 O 0.63703 0.82796 0.50609 0.0
O168 O 0.61143 0.89896 0.61413 0.0
O169 O 0.58083 0.80518 0.6173 0.0
O170 O 0.62638 0.88683 0.54616 0.0
O171 O 0.60768 0.80154 0.52989 0.0
O172 O 0.57971 0.85117 0.63932 0.0
O173 O 0.67266 0.81991 0.5813 0.0
O174 O 0.64713 0.87273 0.68185 0.0
O175 O 0.62374 0.78602 0.67084 0.0
Sc176 Sc 0.6496 0.641 0.06373 0.0
Sc177 Sc 0.619 0.70013 0.10179 0.0
Sc178 Sc 0.61411 0.63423 0.15851 0.0
O179 O 0.6275 0.65848 0.10812 0.0
C180 C 0.61402 0.59182 0.07141 0.0
C181 C 0.62148 0.68468 -0.00106 0.0
C182 C 0.5717 0.67029 0.12895 0.0
C183 C 0.67243 0.69978 0.07766 0.0
C184 C 0.6643 0.61209 0.15916 0.0
C185 C 0.62241 0.69519 0.2083 0.0
O186 O 0.62557 0.60851 0.04591 0.0
O187 O 0.60958 0.69485 0.03146 0.0
O188 O 0.58044 0.64604 0.13859 0.0
O189 O 0.67443 0.67268 0.07971 0.0
O190 O 0.64725 0.62138 0.1815 0.0
O191 O 0.62782 0.70845 0.17174 0.0
O192 O 0.66562 0.61391 0.11552 0.0
O193 O 0.65323 0.71254 0.08086 0.0
O194 O 0.61518 0.66929 0.20829 0.0
O195 O 0.63762 0.6668 0.0059 0.0
O196 O 0.61106 0.59643 0.11428 0.0
O197 O 0.58363 0.69252 0.12012 0.0
Sc198 Sc 0.82338 0.35381 0.56338 0.0
Sc199 Sc 0.85444 0.29533 0.60266 0.0
Sc200 Sc 0.85799 0.36133 0.65941 0.0
O201 O 0.84539 0.3368 0.60855 0.0
C202 C 0.85835 0.40356 0.57194 0.0
C203 C 0.85216 0.31033 0.49969 0.0
C204 C 0.90114 0.32621 0.63141 0.0
C205 C 0.80117 0.29464 0.57726 0.0
C206 C 0.80743 0.3823 0.65787 0.0
C207 C 0.85005 0.30029 0.70907 0.0
O208 O 0.84724 0.38661 0.54606 0.0
O209 O 0.8642 0.3006 0.53246 0.0
O210 O 0.89208 0.35028 0.64095 0.0
O211 O 0.79884 0.32171 0.57905 0.0
O212 O 0.82438 0.3733 0.681 0.0
O213 O 0.84526 0.28688 0.67233 0.0
O214 O 0.80673 0.38083 0.61416 0.0
O215 O 0.8205 0.28224 0.5809 0.0
O216 O 0.85694 0.32633 0.70932 0.0
O217 O 0.83585 0.32797 0.5063 0.0
O218 O 0.86091 0.39911 0.61499 0.0
O219 O 0.88952 0.3038 0.62207 0.0
Sc220 Sc 0.64845 0.35299 0.92968 0.0
Sc221 Sc 0.61562 0.29549 0.89257 0.0
Sc222 Sc 0.61343 0.36134 0.83444 0.0
O223 O 0.62571 0.33657 0.88545 0.0
C224 C 0.61423 0.40367 0.92174 0.0
C225 C 0.61951 0.31075 0.99516 0.0
C226 C 0.56952 0.32794 0.86444 0.0
C227 C 0.66914 0.29297 0.91574 0.0
C228 C 0.66429 0.38112 0.83473 0.0
C229 C 0.61965 0.29977 0.78563 0.0
O230 O 0.6254 0.3866 0.94737 0.0
O231 O 0.60682 0.30142 0.96315 0.0
O232 O 0.57921 0.35133 0.85323 0.0
O233 O 0.67208 0.31995 0.91343 0.0
O234 O 0.6471 0.37249 0.81204 0.0
O235 O 0.62372 0.2862 0.82263 0.0
O236 O 0.66525 0.37947 0.87838 0.0
O237 O 0.6495 0.28127 0.91294 0.0
O238 O 0.61382 0.32622 0.78489 0.0
O239 O 0.63609 0.32778 0.98753 0.0
O240 O 0.61123 0.39919 0.8788 0.0
O241 O 0.58052 0.30522 0.87484 0.0
Sc242 Sc 0.85647 0.63433 0.33648 0.0
Sc243 Sc 0.85194 0.70002 0.3938 0.0
Sc244 Sc 0.82162 0.64074 0.43223 0.0
O245 O 0.84344 0.65839 0.3874 0.0
C246 C 0.80637 0.61194 0.33723 0.0
C247 C 0.84779 0.69542 0.28731 0.0
C248 C 0.79863 0.69943 0.41869 0.0
C249 C 0.89904 0.67037 0.36489 0.0
C250 C 0.85735 0.59183 0.4236 0.0
C251 C 0.84985 0.68452 0.49661 0.0
O252 O 0.82322 0.62143 0.31445 0.0
O253 O 0.84272 0.70857 0.32412 0.0
O254 O 0.79666 0.67233 0.41661 0.0
O255 O 0.89024 0.64618 0.35521 0.0
O256 O 0.8459 0.60838 0.44945 0.0
O257 O 0.86173 0.69459 0.46394 0.0
O258 O 0.85995 0.5965 0.38064 0.0
O259 O 0.8872 0.69251 0.37466 0.0
O260 O 0.83372 0.66661 0.48983 0.0
O261 O 0.85497 0.6695 0.28686 0.0
O262 O 0.80538 0.61358 0.3809 0.0
O263 O 0.8178 0.71224 0.41539 0.0
Sc264 Sc 0.3557 0.36891 0.83835 0.0
Sc265 Sc 0.35217 0.30332 0.89627 0.0
Sc266 Sc 0.32091 0.36184 0.93392 0.0
O267 O 0.34302 0.34466 0.88938 0.0
C268 C 0.35592 0.41142 0.92532 0.0
C269 C 0.39885 0.33412 0.8675 0.0
C270 C 0.3497 0.31889 -0.00128 0.0
C271 C 0.34806 0.30746 0.78983 0.0
C272 C 0.30535 0.39025 0.8388 0.0
C273 C 0.29879 0.30276 0.92078 0.0
O274 O 0.35844 0.40692 0.88229 0.0
O275 O 0.38732 0.31165 0.87695 0.0
O276 O 0.33312 0.3361 0.99168 0.0
O277 O 0.35492 0.33351 0.78913 0.0
O278 O 0.30454 0.38889 0.88251 0.0
O279 O 0.31818 0.29037 0.91822 0.0
O280 O 0.3222 0.38081 0.81598 0.0
O281 O 0.34303 0.29436 0.82675 0.0
O282 O 0.29644 0.32978 0.91782 0.0
O283 O 0.38968 0.35808 0.85761 0.0
O284 O 0.34482 0.39453 0.95129 0.0
O285 O 0.36195 0.30938 0.96622 0.0
Sc286 Sc 0.14765 0.65126 0.43352 0.0
Sc287 Sc 0.11567 0.70935 0.39519 0.0
Sc288 Sc 0.11319 0.64347 0.33735 0.0
O289 O 0.12538 0.66808 0.38858 0.0
C290 C 0.16379 0.62281 0.33906 0.0
C291 C 0.16905 0.71097 0.41968 0.0
C292 C 0.12029 0.7049 0.28833 0.0
C293 C 0.11871 0.69405 0.49806 0.0
C294 C 0.11296 0.60111 0.42478 0.0
C295 C 0.06947 0.67766 0.36573 0.0
O296 O 0.16461 0.6246 0.3827 0.0
O297 O 0.14958 0.72302 0.41616 0.0
O298 O 0.11431 0.67851 0.28761 0.0
O299 O 0.13509 0.67661 0.49096 0.0
O300 O 0.11022 0.60569 0.3818 0.0
O301 O 0.08056 0.7002 0.37669 0.0
O302 O 0.12419 0.61796 0.45063 0.0
O303 O 0.10642 0.70372 0.46564 0.0
O304 O 0.07904 0.65414 0.35496 0.0
O305 O 0.17171 0.68393 0.41794 0.0
O306 O 0.1468 0.63165 0.31598 0.0
O307 O 0.12422 0.71847 0.32534 0.0
Sc308 Sc 0.32218 0.65047 0.06588 0.0
Sc309 Sc 0.35515 0.70784 0.10308 0.0
Sc310 Sc 0.35698 0.64205 0.16141 0.0
O311 O 0.34488 0.66683 0.11026 0.0
C312 C 0.30614 0.62238 0.16077 0.0
C313 C 0.30166 0.71059 0.0794 0.0
C314 C 0.35082 0.7037 0.21001 0.0
C315 C 0.35147 0.69242 0.00053 0.0
C316 C 0.35627 0.59968 0.07421 0.0
C317 C 0.40106 0.67513 0.13179 0.0
O318 O 0.30518 0.62412 0.11713 0.0
O319 O 0.32133 0.72221 0.08228 0.0
O320 O 0.35654 0.67722 0.21086 0.0
O321 O 0.33476 0.67555 0.00806 0.0
O322 O 0.3592 0.60416 0.11715 0.0
O323 O 0.39022 0.69795 0.12119 0.0
O324 O 0.34516 0.61676 0.04848 0.0
O325 O 0.36411 0.70172 0.03264 0.0
O326 O 0.3912 0.65185 0.14294 0.0
O327 O 0.29863 0.68364 0.08187 0.0
O328 O 0.3233 0.631 0.18353 0.0
O329 O 0.34691 0.71728 0.17294 0.0
Sc330 Sc 0.14808 0.3646 0.56466 0.0
Sc331 Sc 0.11945 0.3045 0.60564 0.0
Sc332 Sc 0.11319 0.37067 0.66085 0.0
O333 O 0.12683 0.34656 0.61039 0.0
C334 C 0.1633 0.39371 0.65952 0.0
C335 C 0.17254 0.30645 0.5791 0.0
C336 C 0.12309 0.31052 0.71192 0.0
C337 C 0.12028 0.31956 0.50187 0.0
C338 C 0.11174 0.41296 0.57356 0.0
C339 C 0.07152 0.33275 0.63316 0.0
O340 O 0.16433 0.39181 0.61586 0.0
O341 O 0.15378 0.29305 0.58476 0.0
O342 O 0.1152 0.33609 0.71136 0.0
O343 O 0.13566 0.33863 0.50759 0.0
O344 O 0.10907 0.40824 0.61645 0.0
O345 O 0.0841 0.31112 0.62427 0.0
O346 O 0.12339 0.39655 0.54787 0.0
O347 O 0.1096 0.30833 0.53526 0.0
O348 O 0.07951 0.35751 0.6423 0.0
O349 O 0.17385 0.33365 0.57864 0.0
O350 O 0.14636 0.38453 0.68244 0.0
O351 O 0.1288 0.29723 0.67564 0.0
H352 H 0.20214 0.09737 0.12931 0.0
H353 H 0.30351 0.11166 0.24707 0.0
H354 H 0.17132 0.1259 0.25603 0.0
H355 H 0.26328 0.11238 0.37126 0.0
H356 H 0.26918 0.10348 0.2027 0.0
H357 H 0.23741 0.08776 0.17071 0.0
C358 C 0.20276 0.10156 0.1659 0.0
C359 C 0.18384 0.1131 0.18894 0.0
C360 C 0.26772 0.10449 0.23967 0.0
C361 C 0.22463 0.10325 0.23653 0.0
C362 C 0.28747 0.10945 0.26517 0.0
C363 C 0.28632 0.11309 0.31301 0.0
C364 C 0.24652 0.10315 0.26212 0.0
C365 C 0.26503 0.1099 0.33445 0.0
C366 C 0.22308 0.09637 0.18956 0.0
C367 C 0.18554 0.11743 0.23659 0.0
N368 N 0.24595 0.10557 0.30877 0.0
N369 N 0.20566 0.11287 0.25862 0.0
H370 H 0.16842 0.90356 0.74541 0.0
H371 H 0.30383 0.90227 0.75296 0.0
H372 H 0.2078 0.90475 0.87096 0.0
H373 H 0.26447 0.90463 0.62742 0.0
H374 H 0.26908 0.91138 0.79652 0.0
H375 H 0.20328 0.91216 0.7019 0.0
C376 C 0.18433 0.90606 0.76396 0.0
C377 C 0.18518 0.90292 0.81195 0.0
C378 C 0.26808 0.91033 0.75939 0.0
C379 C 0.22527 0.9125 0.76213 0.0
C380 C 0.28796 0.90513 0.73442 0.0
C381 C 0.28707 0.90217 0.68641 0.0
C382 C 0.24709 0.91234 0.7363 0.0
C383 C 0.266 0.90643 0.66438 0.0
C384 C 0.20426 0.91097 0.73902 0.0
C385 C 0.2063 0.90671 0.83401 0.0
N386 N 0.24681 0.91085 0.68955 0.0
N387 N 0.22554 0.91085 0.80887 0.0
H388 H 0.66797 0.89132 0.75226 0.0
H389 H 0.8034 0.89291 0.7443 0.0
H390 H 0.7071 0.89411 0.62666 0.0
H391 H 0.76431 0.8934 0.87003 0.0
H392 H 0.76841 0.90138 0.70101 0.0
H393 H 0.70283 0.90005 0.79585 0.0
C394 C 0.68382 0.89417 0.73373 0.0
C395 C 0.68461 0.89147 0.68568 0.0
C396 C 0.76751 0.90004 0.73812 0.0
C397 C 0.72469 0.90124 0.73558 0.0
C398 C 0.78752 0.89521 0.76293 0.0
C399 C 0.78679 0.89194 0.8109 0.0
C400 C 0.74655 0.90137 0.76133 0.0
C401 C 0.76571 0.89547 0.83308 0.0
C402 C 0.70375 0.89916 0.75871 0.0
C403 C 0.70565 0.8957 0.66365 0.0
N404 N 0.7464 0.89956 0.80806 0.0
N405 N 0.72489 0.89995 0.68882 0.0
H406 H 0.6679 0.09986 0.24427 0.0
H407 H 0.80325 0.10186 0.25253 0.0
H408 H 0.7071 0.09926 0.37006 0.0
H409 H 0.76407 0.09857 0.12682 0.0
H410 H 0.76849 0.09268 0.29604 0.0
H411 H 0.70282 0.09109 0.20109 0.0
C412 C 0.68378 0.09745 0.26294 0.0
C413 C 0.68456 0.10082 0.31089 0.0
C414 C 0.76754 0.09354 0.2589 0.0
C415 C 0.72474 0.09107 0.26143 0.0
C416 C 0.78742 0.09878 0.23396 0.0
C417 C 0.78658 0.10151 0.1859 0.0
C418 C 0.74659 0.09125 0.23573 0.0
C419 C 0.76556 0.09697 0.16382 0.0
C420 C 0.70375 0.09245 0.23819 0.0
C421 C 0.70565 0.09713 0.33313 0.0
N422 N 0.74636 0.09251 0.18895 0.0
N423 N 0.72493 0.09291 0.30816 0.0
H424 H 0.80298 0.6002 0.24516 0.0
H425 H 0.66754 0.60149 0.25169 0.0
H426 H 0.76357 0.60005 0.37046 0.0
H427 H 0.70701 0.5991 0.12652 0.0
H428 H 0.70227 0.59256 0.29563 0.0
H429 H 0.76814 0.59137 0.20159 0.0
C430 C 0.78706 0.59789 0.26365 0.0
C431 C 0.7862 0.60138 0.31156 0.0
C432 C 0.7033 0.59357 0.25851 0.0
C433 C 0.74611 0.59154 0.26165 0.0
C434 C 0.68344 0.59866 0.23332 0.0
C435 C 0.68436 0.60156 0.18529 0.0
C436 C 0.72431 0.59159 0.23563 0.0
C437 C 0.70546 0.59734 0.16348 0.0
C438 C 0.76713 0.59285 0.23867 0.0
C439 C 0.76507 0.59779 0.33356 0.0
N440 N 0.72464 0.59301 0.18886 0.0
N441 N 0.74583 0.59352 0.30837 0.0
H442 H 0.7063 0.39556 0.86962 0.0
H443 H 0.76523 0.39536 0.6224 0.0
H444 H 0.66932 0.38844 0.74163 0.0
H445 H 0.80228 0.39077 0.75062 0.0
H446 H 0.73003 0.403 0.6654 0.0
H447 H 0.74131 0.40391 0.82633 0.0
C448 C 0.70542 0.39618 0.83245 0.0
C449 C 0.68481 0.39084 0.80929 0.0
C450 C 0.74592 0.4007 0.68409 0.0
C451 C 0.72498 0.40023 0.75949 0.0
C452 C 0.76608 0.39644 0.65954 0.0
C453 C 0.78678 0.39196 0.68288 0.0
C454 C 0.7464 0.4005 0.73235 0.0
C455 C 0.78672 0.39374 0.7311 0.0
C456 C 0.72548 0.40088 0.80774 0.0
C457 C 0.68482 0.3921 0.76103 0.0
N458 N 0.76683 0.39754 0.75421 0.0
N459 N 0.70462 0.39634 0.73776 0.0
H460 H 0.26339 0.4051 0.8734 0.0
H461 H 0.20554 0.40737 0.62502 0.0
H462 H 0.30074 0.39891 0.74594 0.0
H463 H 0.1679 0.40259 0.75233 0.0
H464 H 0.24052 0.41495 0.66891 0.0
H465 H 0.22863 0.41466 0.82966 0.0
C466 C 0.2644 0.40619 0.83628 0.0
C467 C 0.28502 0.40071 0.81336 0.0
C468 C 0.22455 0.41265 0.68721 0.0
C469 C 0.24517 0.41149 0.76305 0.0
C470 C 0.20451 0.40843 0.66215 0.0
C471 C 0.18372 0.40383 0.68497 0.0
C472 C 0.22386 0.41225 0.73546 0.0
C473 C 0.18354 0.40562 0.73319 0.0
C474 C 0.2445 0.41158 0.81131 0.0
C475 C 0.28522 0.4026 0.76515 0.0
N476 N 0.20333 0.40931 0.7568 0.0
N477 N 0.26556 0.40749 0.74163 0.0
H478 H 0.26393 0.6086 0.12614 0.0
H479 H 0.20602 0.60948 0.37414 0.0
H480 H 0.30146 0.61424 0.25369 0.0
H481 H 0.16851 0.61372 0.24643 0.0
H482 H 0.24098 0.60106 0.33069 0.0
H483 H 0.22903 0.60034 0.16984 0.0
C484 C 0.26494 0.60765 0.16329 0.0
C485 C 0.28567 0.61261 0.18623 0.0
C486 C 0.22504 0.60346 0.31222 0.0
C487 C 0.24565 0.60335 0.23649 0.0
C488 C 0.20502 0.60817 0.33703 0.0
C489 C 0.18429 0.6128 0.31393 0.0
C490 C 0.22435 0.60338 0.26396 0.0
C491 C 0.18411 0.61069 0.26576 0.0
C492 C 0.24496 0.60301 0.18823 0.0
C493 C 0.28586 0.61093 0.23446 0.0
N494 N 0.20387 0.60648 0.24238 0.0
N495 N 0.26612 0.60679 0.25796 0.0
H496 H 0.1463 0.18326 0.92451 0.0
H497 H 0.10208 0.32375 0.79348 0.0
H498 H 0.09145 0.23689 0.97416 0.0
H499 H 0.1453 0.26 0.72996 0.0
H500 H 0.10023 0.2938 0.8625 0.0
H501 H 0.14732 0.21176 0.85393 0.0
C502 C 0.13423 0.20071 0.92037 0.0
C503 C 0.11883 0.20769 0.95556 0.0
C504 C 0.11015 0.28642 0.83344 0.0
C505 C 0.12026 0.24078 0.87521 0.0
C506 C 0.11139 0.30364 0.79419 0.0
C507 C 0.12381 0.29437 0.75577 0.0
C508 C 0.12155 0.25985 0.83445 0.0
C509 C 0.13541 0.26797 0.75863 0.0
C510 C 0.13492 0.21709 0.88014 0.0
C511 C 0.10366 0.23065 0.94814 0.0
N512 N 0.13399 0.25165 0.79724 0.0
N513 N 0.10492 0.24653 0.90904 0.0
H514 H 0.3263 0.83109 0.42139 0.0
H515 H 0.36875 0.68893 0.29398 0.0
H516 H 0.37804 0.7744 0.47614 0.0
H517 H 0.3315 0.75644 0.22479 0.0
H518 H 0.36994 0.71862 0.36326 0.0
H519 H 0.32667 0.80351 0.34986 0.0
C520 C 0.33797 0.81317 0.41822 0.0
C521 C 0.35205 0.80502 0.45509 0.0
C522 C 0.36151 0.7269 0.33287 0.0
C523 C 0.35219 0.77303 0.37368 0.0
C524 C 0.36065 0.70986 0.29344 0.0
C525 C 0.35005 0.7202 0.25345 0.0
C526 C 0.35151 0.75437 0.33248 0.0
C527 C 0.33996 0.74761 0.25474 0.0
C528 C 0.33809 0.79733 0.37744 0.0
C529 C 0.3668 0.7815 0.44886 0.0
N530 N 0.34091 0.76371 0.2936 0.0
N531 N 0.36629 0.76617 0.40921 0.0
H532 H 0.10227 0.69032 0.2044 0.0
H533 H 0.14514 0.83241 0.07682 0.0
H534 H 0.14004 0.75737 0.27329 0.0
H535 H 0.09313 0.77612 0.02227 0.0
H536 H 0.14482 0.80466 0.14827 0.0
H537 H 0.10116 0.72007 0.1351 0.0
C538 C 0.11051 0.71115 0.20486 0.0
C539 C 0.12122 0.72135 0.24479 0.0
C540 C 0.13333 0.7986 0.12076 0.0
C541 C 0.11985 0.75562 0.16573 0.0
C542 C 0.13341 0.81453 0.08003 0.0
C543 C 0.11924 0.80655 0.04324 0.0
C544 C 0.11916 0.77436 0.12455 0.0
C545 C 0.10444 0.78309 0.0495 0.0
C546 C 0.1097 0.72824 0.16542 0.0
C547 C 0.13149 0.74866 0.24339 0.0
N548 N 0.10497 0.76767 0.08911 0.0
N549 N 0.13057 0.76481 0.20453 0.0
H550 H 0.32618 0.25655 0.77373 0.0
H551 H 0.3827 0.2339 0.52685 0.0
H552 H 0.36959 0.31936 0.70825 0.0
H553 H 0.32718 0.18177 0.57773 0.0
H554 H 0.38174 0.26169 0.59776 0.0
H555 H 0.32898 0.22632 0.70551 0.0
C556 C 0.33619 0.2641 0.74487 0.0
C557 C 0.34767 0.29059 0.74674 0.0
C558 C 0.36989 0.24404 0.59352 0.0
C559 C 0.3512 0.25577 0.66875 0.0
C560 C 0.37054 0.22792 0.55317 0.0
C561 C 0.35484 0.20552 0.54598 0.0
C562 C 0.35354 0.23766 0.62716 0.0
C563 C 0.33954 0.19889 0.58156 0.0
C564 C 0.33781 0.24676 0.70598 0.0
C565 C 0.36034 0.29923 0.70824 0.0
N566 N 0.33918 0.21502 0.62048 0.0
N567 N 0.36188 0.28177 0.67092 0.0
H568 H 0.88161 0.76868 0.02352 0.0
H569 H 0.82543 0.74599 0.27077 0.0
H570 H 0.82604 0.82069 0.07432 0.0
H571 H 0.86912 0.68344 0.20559 0.0
H572 H 0.82782 0.776 0.20213 0.0
H573 H 0.88061 0.74074 0.09437 0.0
C574 C 0.86941 0.77458 0.0498 0.0
C575 C 0.85375 0.79703 0.04264 0.0
C576 C 0.8368 0.75565 0.20276 0.0
C577 C 0.8524 0.76473 0.12377 0.0
C578 C 0.83541 0.73844 0.24189 0.0
C579 C 0.84711 0.71211 0.24399 0.0
C580 C 0.85017 0.74667 0.16551 0.0
C581 C 0.85972 0.70346 0.20544 0.0
C582 C 0.86874 0.75839 0.09012 0.0
C583 C 0.83839 0.80356 0.07815 0.0
N584 N 0.86104 0.7208 0.16789 0.0
N585 N 0.83802 0.78737 0.11706 0.0
H586 H 0.64408 0.17222 0.57468 0.0
H587 H 0.60158 0.31452 0.70174 0.0
H588 H 0.59305 0.22949 0.51878 0.0
H589 H 0.63896 0.24706 0.77075 0.0
H590 H 0.60038 0.28485 0.63243 0.0
H591 H 0.64346 0.19972 0.64624 0.0
C592 C 0.63251 0.19027 0.5776 0.0
C593 C 0.61871 0.1986 0.54041 0.0
C594 C 0.60884 0.27657 0.66279 0.0
C595 C 0.61829 0.2305 0.62188 0.0
C596 C 0.6097 0.29361 0.70223 0.0
C597 C 0.62035 0.28328 0.74217 0.0
C598 C 0.61889 0.24913 0.66313 0.0
C599 C 0.63047 0.25588 0.74084 0.0
C600 C 0.63225 0.20606 0.61841 0.0
C601 C 0.60408 0.22226 0.54633 0.0
N602 N 0.62951 0.2398 0.70198 0.0
N603 N 0.60444 0.23754 0.58603 0.0
H604 H 0.86934 0.31416 0.79218 0.0
H605 H 0.82489 0.17314 0.92083 0.0
H606 H 0.82904 0.24873 0.7251 0.0
H607 H 0.87807 0.22816 0.97414 0.0
H608 H 0.82504 0.20106 0.84958 0.0
H609 H 0.87049 0.28433 0.8614 0.0
C610 C 0.86055 0.29368 0.79211 0.0
C611 C 0.84913 0.28394 0.7527 0.0
C612 C 0.83682 0.2068 0.87677 0.0
C613 C 0.85056 0.24958 0.83163 0.0
C614 C 0.83684 0.19076 0.91738 0.0
C615 C 0.85139 0.19834 0.95378 0.0
C616 C 0.85129 0.23074 0.87269 0.0
C617 C 0.86646 0.2215 0.94722 0.0
C618 C 0.86139 0.27654 0.8315 0.0
C619 C 0.83816 0.25708 0.75458 0.0
N620 N 0.86584 0.23703 0.90773 0.0
N621 N 0.83914 0.24087 0.79336 0.0
H622 H 0.60181 0.68176 0.29027 0.0
H623 H 0.64527 0.82276 0.4202 0.0
H624 H 0.6436 0.74652 0.22528 0.0
H625 H 0.59118 0.7683 0.47102 0.0
H626 H 0.64586 0.79468 0.34924 0.0
H627 H 0.59979 0.71182 0.35905 0.0
C628 C 0.61075 0.70214 0.29059 0.0
C629 C 0.62286 0.71162 0.25186 0.0
C630 C 0.63372 0.7891 0.37579 0.0
C631 C 0.62042 0.74626 0.3303 0.0
C632 C 0.63327 0.80523 0.41624 0.0
C633 C 0.61824 0.79785 0.4519 0.0
C634 C 0.6192 0.76525 0.37111 0.0
C635 C 0.60313 0.77481 0.44467 0.0
C636 C 0.60942 0.71942 0.32971 0.0
C637 C 0.63397 0.73836 0.25422 0.0
N638 N 0.60417 0.75917 0.40537 0.0
N639 N 0.6325 0.75471 0.29274 0.0
H640 H 0.64481 0.67214 0.9194 0.0
H641 H 0.60137 0.81395 0.79146 0.0
H642 H 0.59237 0.7279 0.97343 0.0
H643 H 0.63951 0.74715 0.72296 0.0
H644 H 0.6002 0.78408 0.86069 0.0
H645 H 0.64434 0.69986 0.84792 0.0
C646 C 0.63295 0.68988 0.91607 0.0
C647 C 0.61871 0.69773 0.95274 0.0
C648 C 0.60882 0.77599 0.83046 0.0
C649 C 0.61847 0.72991 0.87139 0.0
C650 C 0.60967 0.79314 0.79107 0.0
C651 C 0.62051 0.78305 0.75129 0.0
C652 C 0.61909 0.74868 0.83023 0.0
C653 C 0.63085 0.75578 0.75274 0.0
C654 C 0.63279 0.7058 0.87532 0.0
C655 C 0.60375 0.72103 0.94631 0.0
N656 N 0.62991 0.73958 0.79155 0.0
N657 N 0.60421 0.73646 0.9067 0.0
H658 H 0.88192 0.26773 0.47424 0.0
H659 H 0.82596 0.2457 0.22623 0.0
H660 H 0.82775 0.32124 0.42087 0.0
H661 H 0.87035 0.18341 0.29056 0.0
H662 H 0.82858 0.27562 0.29475 0.0
H663 H 0.88104 0.23973 0.4035 0.0
C664 C 0.87007 0.27394 0.44742 0.0
C665 C 0.85475 0.29685 0.45383 0.0
C666 C 0.83768 0.25536 0.29399 0.0
C667 C 0.85352 0.26447 0.37282 0.0
C668 C 0.83616 0.23819 0.2549 0.0
C669 C 0.84797 0.21195 0.25257 0.0
C670 C 0.85127 0.24643 0.33105 0.0
C671 C 0.86085 0.20336 0.2909 0.0
C672 C 0.86946 0.25772 0.40715 0.0
C673 C 0.83983 0.30376 0.41766 0.0
N674 N 0.86227 0.22066 0.32848 0.0
N675 N 0.83949 0.28752 0.37885 0.0
H676 H 0.64388 0.32285 0.07352 0.0
H677 H 0.60196 0.18069 0.20285 0.0
H678 H 0.59088 0.26714 0.02139 0.0
H679 H 0.64408 0.24547 0.26691 0.0
H680 H 0.59956 0.21077 0.13397 0.0
H681 H 0.64488 0.29443 0.14412 0.0
C682 C 0.63219 0.30496 0.07713 0.0
C683 C 0.61736 0.29736 0.04121 0.0
C684 C 0.60935 0.21834 0.16312 0.0
C685 C 0.61879 0.26433 0.12163 0.0
C686 C 0.61091 0.20105 0.20228 0.0
C687 C 0.62319 0.21056 0.2408 0.0
C688 C 0.6203 0.24523 0.16233 0.0
C689 C 0.63431 0.23729 0.23816 0.0
C690 C 0.63288 0.28862 0.11738 0.0
C691 C 0.60265 0.27385 0.04798 0.0
N692 N 0.63259 0.25366 0.19966 0.0
N693 N 0.60392 0.25802 0.08714 0.0
H694 H 0.82667 0.67201 0.57636 0.0
H695 H 0.86973 0.81428 0.70346 0.0
H696 H 0.87863 0.72822 0.52152 0.0
H697 H 0.83114 0.74773 0.77172 0.0
H698 H 0.87096 0.78441 0.63431 0.0
H699 H 0.82694 0.69999 0.64748 0.0
C700 C 0.83838 0.68991 0.57944 0.0
C701 C 0.85256 0.69778 0.54264 0.0
C702 C 0.86222 0.77638 0.66447 0.0
C703 C 0.85258 0.73027 0.62363 0.0
C704 C 0.86134 0.79354 0.70381 0.0
C705 C 0.85036 0.78351 0.74353 0.0
C706 C 0.85187 0.74912 0.66468 0.0
C707 C 0.83991 0.75632 0.74201 0.0
C708 C 0.83843 0.70598 0.61999 0.0
C709 C 0.86733 0.72131 0.54876 0.0
N710 N 0.8409 0.74011 0.70328 0.0
N711 N 0.86677 0.73686 0.5882 0.0
H712 H 0.32925 0.25634 0.2763 0.0
H713 H 0.38048 0.27762 0.02465 0.0
H714 H 0.37004 0.19235 0.20719 0.0
H715 H 0.32509 0.32912 0.07753 0.0
H716 H 0.38065 0.25009 0.09587 0.0
H717 H 0.33041 0.28611 0.2072 0.0
C718 C 0.33837 0.24845 0.2465 0.0
C719 C 0.34959 0.22176 0.24757 0.0
C720 C 0.36856 0.26753 0.09199 0.0
C721 C 0.35122 0.25603 0.16857 0.0
C722 C 0.36855 0.28349 0.05144 0.0
C723 C 0.3526 0.30569 0.04477 0.0
C724 C 0.35264 0.27386 0.12644 0.0
C725 C 0.33764 0.31219 0.08097 0.0
C726 C 0.33902 0.26551 0.2071 0.0
C727 C 0.36104 0.21267 0.20785 0.0
N728 N 0.33795 0.29624 0.12017 0.0
N729 N 0.3617 0.22988 0.17006 0.0
H730 H 0.10187 0.82431 0.7053 0.0
H731 H 0.14208 0.68102 0.57732 0.0
H732 H 0.14246 0.75833 0.77046 0.0
H733 H 0.09068 0.73847 0.52332 0.0
H734 H 0.14297 0.70926 0.64802 0.0
H735 H 0.09926 0.79427 0.6365 0.0
C736 C 0.11043 0.80368 0.70502 0.0
C737 C 0.12237 0.79384 0.7438 0.0
C738 C 0.13133 0.7155 0.62085 0.0
C739 C 0.11923 0.75923 0.66539 0.0
C740 C 0.13071 0.69926 0.58053 0.0
C741 C 0.11638 0.7074 0.54406 0.0
C742 C 0.11768 0.74021 0.62463 0.0
C743 C 0.10206 0.73134 0.55035 0.0
C744 C 0.10875 0.78642 0.66588 0.0
C745 C 0.13298 0.76678 0.7415 0.0
N746 N 0.10327 0.74705 0.58959 0.0
N747 N 0.13116 0.75045 0.70302 0.0
H748 H 0.32729 0.68033 0.92192 0.0
H749 H 0.37022 0.82196 0.79251 0.0
H750 H 0.38047 0.73565 0.97437 0.0
H751 H 0.32778 0.75752 0.72843 0.0
H752 H 0.3725 0.79183 0.86135 0.0
H753 H 0.32669 0.70858 0.85112 0.0
C754 C 0.3391 0.69809 0.91835 0.0
C755 C 0.35385 0.70566 0.95442 0.0
C756 C 0.36268 0.78433 0.83219 0.0
C757 C 0.35289 0.73848 0.87376 0.0
C758 C 0.36118 0.80166 0.79305 0.0
C759 C 0.34882 0.79227 0.75456 0.0
C760 C 0.35158 0.75754 0.83298 0.0
C761 C 0.3376 0.76561 0.75717 0.0
C762 C 0.33865 0.71433 0.87798 0.0
C763 C 0.36874 0.72899 0.94767 0.0
N764 N 0.33925 0.74922 0.79565 0.0
N765 N 0.36769 0.74473 0.9084 0.0
H766 H 0.14168 0.3337 0.42081 0.0
H767 H 0.10029 0.19047 0.29439 0.0
H768 H 0.09208 0.27507 0.47799 0.0
H769 H 0.13757 0.25806 0.22572 0.0
H770 H 0.09872 0.22029 0.36352 0.0
H771 H 0.14092 0.30625 0.34922 0.0
C772 C 0.13037 0.31537 0.41817 0.0
C773 C 0.11706 0.30663 0.45576 0.0
C774 C 0.10723 0.22857 0.33327 0.0
C775 C 0.11648 0.27477 0.3742 0.0
C776 C 0.1083 0.21145 0.29392 0.0
C777 C 0.11906 0.22174 0.25413 0.0
C778 C 0.11716 0.25609 0.33297 0.0
C779 C 0.12901 0.24924 0.2555 0.0
C780 C 0.13004 0.2996 0.37733 0.0
C781 C 0.10275 0.28261 0.45016 0.0
N782 N 0.12785 0.2654 0.29425 0.0
N783 N 0.10304 0.26737 0.41041 0.0
H784 H 0.04132 0.13019 0.13864 0.0
H785 H 0.9253 0.21885 0.11441 0.0
H786 H 0.0402 0.22202 0.11581 0.0
H787 H 0.92985 0.12751 0.14038 0.0
H788 H 0.96705 0.22119 0.11262 0.0
H789 H 0.00013 0.12959 0.13688 0.0
C790 C 0.03242 0.15033 0.1333 0.0
C791 C 0.04431 0.17626 0.12764 0.0
C792 C 0.95882 0.2007 0.11866 0.0
C793 C -0.00324 0.17566 0.12556 0.0
C794 C 0.93502 0.19932 0.1197 0.0
C795 C 0.92403 0.17295 0.12771 0.0
C796 C 0.97158 0.17553 0.12559 0.0
C797 C 0.93748 0.14835 0.13427 0.0
C798 C 0.00879 0.14994 0.13224 0.0
C799 C 0.03172 0.20156 0.12042 0.0
N800 N 0.96049 0.15029 0.13308 0.0
N801 N 0.00853 0.20066 0.11972 0.0
H802 H 0.42588 0.78502 0.61439 0.0
H803 H 0.54175 0.87393 0.63817 0.0
H804 H 0.43031 0.87617 0.64181 0.0
H805 H 0.54076 0.78233 0.6133 0.0
H806 H 0.50055 0.87436 0.63739 0.0
H807 H 0.46762 0.78284 0.61197 0.0
C808 C 0.43557 0.80454 0.61988 0.0
C809 C 0.42455 0.83081 0.62845 0.0
C810 C 0.50925 0.85409 0.63209 0.0
C811 C 0.47208 0.82842 0.62561 0.0
C812 C 0.53288 0.8538 0.63258 0.0
C813 C 0.5448 0.82799 0.62605 0.0
C814 C 0.49725 0.82839 0.62509 0.0
C815 C 0.53225 0.8027 0.61857 0.0
C816 C 0.45936 0.80325 0.61847 0.0
C817 C 0.43797 0.8554 0.63525 0.0
N818 N 0.50906 0.80351 0.61842 0.0
N819 N 0.46097 0.85356 0.6337 0.0
H820 H 0.93012 0.78233 0.88664 0.0
H821 H 0.04157 0.87857 0.85044 0.0
H822 H 0.93012 0.87212 0.84819 0.0
H823 H 0.04493 0.78834 0.88554 0.0
H824 H 0.00037 0.87578 0.8508 0.0
H825 H 0.97195 0.78328 0.88759 0.0
C826 C 0.93885 0.80218 0.8784 0.0
C827 C 0.92655 0.82717 0.86729 0.0
C828 C 0.01004 0.85652 0.85844 0.0
C829 C 0.97416 0.82836 0.86838 0.0
C830 C 0.03366 0.8581 0.85825 0.0
C831 C 0.0468 0.83363 0.86791 0.0
C832 C -0.0007 0.8303 0.86837 0.0
C833 C 0.03547 0.80774 0.87785 0.0
C834 C 0.96268 0.8027 0.87896 0.0
C835 C 0.93876 0.85229 0.85693 0.0
N836 N 0.01229 0.80674 0.8778 0.0
N837 N 0.96182 0.8522 0.85776 0.0
H838 H 0.42954 0.1319 0.34437 0.0
H839 H 0.54567 0.21773 0.38574 0.0
H840 H 0.43079 0.22039 0.38956 0.0
H841 H 0.54101 0.1288 0.34375 0.0
H842 H 0.50392 0.22026 0.38658 0.0
H843 H 0.47072 0.13159 0.3432 0.0
C844 C 0.43846 0.15135 0.35411 0.0
C845 C 0.4266 0.17624 0.36715 0.0
C846 C 0.51213 0.20026 0.37719 0.0
C847 C 0.47416 0.17596 0.36587 0.0
C848 C 0.53593 0.19878 0.37666 0.0
C849 C 0.54689 0.173 0.36469 0.0
C850 C 0.49934 0.17581 0.36563 0.0
C851 C 0.53341 0.14914 0.35328 0.0
C852 C 0.46209 0.15114 0.35341 0.0
C853 C 0.43924 0.20073 0.3793 0.0
N854 N 0.5104 0.15117 0.35406 0.0
N855 N 0.46243 0.19999 0.3784 0.0
H856 H 0.54502 0.71768 0.11016 0.0
H857 H 0.42948 0.63049 0.15169 0.0
H858 H 0.54104 0.62775 0.14689 0.0
H859 H 0.43012 0.71985 0.11075 0.0
H860 H 0.47071 0.6302 0.15062 0.0
H861 H 0.50325 0.71992 0.11052 0.0
C862 C 0.53542 0.69844 0.11828 0.0
C863 C 0.54659 0.67249 0.12856 0.0
C864 C 0.46192 0.64994 0.14184 0.0
C865 C 0.49901 0.67496 0.12903 0.0
C866 C 0.43827 0.65014 0.14247 0.0
C867 C 0.42623 0.67527 0.13128 0.0
C868 C 0.47382 0.67501 0.12995 0.0
C869 C 0.43871 0.7 0.11961 0.0
C870 C 0.51161 0.69976 0.11846 0.0
C871 C 0.53328 0.64826 0.13877 0.0
N872 N 0.4619 0.69926 0.11924 0.0
N873 N 0.51026 0.65013 0.13875 0.0
H874 H 0.92798 0.2782 0.62133 0.0
H875 H 0.04697 0.28532 0.60671 0.0
H876 H 0.93164 0.37009 0.64151 0.0
H877 H 0.03904 0.37174 0.65852 0.0
H878 H 0.00574 0.28026 0.60482 0.0
H879 H 0.96943 0.27607 0.62206 0.0
C880 C 0.93752 0.29797 0.62552 0.0
C881 C 0.92627 0.32437 0.63123 0.0
C882 C 0.01287 0.30017 0.61737 0.0
C883 C 0.9739 0.32229 0.6311 0.0
C884 C 0.03654 0.30314 0.61815 0.0
C885 C 0.04653 0.32899 0.63285 0.0
C886 C -0.00091 0.3232 0.63176 0.0
C887 C 0.03216 0.35142 0.64686 0.0
C888 C 0.96131 0.29679 0.62562 0.0
C889 C 0.9395 0.34923 0.63698 0.0
N890 N 0.00922 0.34798 0.64588 0.0
N891 N 0.96256 0.34754 0.63676 0.0
H892 H 0.54104 0.28257 0.88477 0.0
H893 H 0.42878 0.37762 0.8501 0.0
H894 H 0.54051 0.37236 0.84634 0.0
H895 H 0.42636 0.28734 0.88513 0.0
H896 H 0.47002 0.37537 0.84979 0.0
H897 H 0.49925 0.2832 0.88612 0.0
C898 C 0.53219 0.30238 0.87661 0.0
C899 C 0.54434 0.32744 0.86539 0.0
C900 C 0.46055 0.35599 0.85754 0.0
C901 C 0.49672 0.32826 0.86695 0.0
C902 C 0.4369 0.35724 0.85773 0.0
C903 C 0.424 0.3326 0.86758 0.0
C904 C 0.47156 0.3299 0.86727 0.0
C905 C 0.43561 0.30687 0.8773 0.0
C906 C 0.50837 0.3027 0.87739 0.0
C907 C 0.53198 0.35247 0.85514 0.0
N908 N 0.4588 0.30618 0.87688 0.0
N909 N 0.50891 0.3522 0.8562 0.0
H910 H 0.04091 0.7221 0.39068 0.0
H911 H 0.92929 0.62919 0.33859 0.0
H912 H 0.04062 0.63495 0.33919 0.0
H913 H 0.92604 0.71641 0.38931 0.0
H914 H 0.97044 0.63219 0.33794 0.0
H915 H -0.00092 0.72168 0.38976 0.0
C916 C 0.03211 0.70295 0.37913 0.0
C917 C 0.04432 0.6785 0.36513 0.0
C918 C 0.96082 0.65075 0.34923 0.0
C919 C -0.00327 0.67793 0.36401 0.0
C920 C 0.93722 0.64904 0.34967 0.0
C921 C 0.92412 0.67257 0.36419 0.0
C922 C 0.97159 0.67615 0.3635 0.0
C923 C 0.93548 0.69774 0.37789 0.0
C924 C 0.00828 0.70274 0.37864 0.0
C925 C 0.03204 0.6543 0.35049 0.0
N926 N 0.95865 0.69887 0.37732 0.0
N927 N 0.00899 0.65466 0.35039 0.0
H928 H 0.1062 0.09141 0.98343 0.0
H929 H 0.10716 0.92258 0.01687 0.0
H930 H 0.10392 0.04997 0.11615 0.0
H931 H 0.10357 0.96398 0.88422 0.0
H932 H 0.09976 0.96864 0.05366 0.0
H933 H 0.09907 0.04524 0.94679 0.0
C934 C 0.10393 0.07261 0.00495 0.0
C935 C 0.10612 0.07444 0.05293 0.0
C936 C 0.10025 0.96765 0.0165 0.0
C937 C 0.0981 0.02137 0.01103 0.0
C938 C 0.10453 0.94135 0.99541 0.0
C939 C 0.10643 0.93955 0.94738 0.0
C940 C 0.09815 0.99249 0.98946 0.0
C941 C 0.10245 0.96443 0.92134 0.0
C942 C 0.09979 0.04623 0.98395 0.0
C943 C 0.10258 0.0495 0.07905 0.0
N944 N 0.09889 0.99001 0.94277 0.0
N945 N 0.09914 0.02387 0.05769 0.0
H946 H 0.3647 0.92137 0.48114 0.0
H947 H 0.36491 0.08992 0.51636 0.0
H948 H 0.36882 0.96209 0.61412 0.0
H949 H 0.36736 0.04935 0.38311 0.0
H950 H 0.37249 0.04362 0.55238 0.0
H951 H 0.37188 0.96764 0.44467 0.0
C952 C 0.36742 0.94002 0.50273 0.0
C953 C 0.3657 0.93798 0.55077 0.0
C954 C 0.37171 0.04483 0.51524 0.0
C955 C 0.37374 0.99116 0.50909 0.0
C956 C 0.36731 0.07128 0.4946 0.0
C957 C 0.36505 0.07339 0.44665 0.0
C958 C 0.37356 0.02016 0.48784 0.0
C959 C 0.36876 0.04865 0.4202 0.0
C960 C 0.37157 0.96645 0.48183 0.0
C961 C 0.36979 0.96273 0.57699 0.0
N962 N 0.37243 0.02293 0.44121 0.0
N963 N 0.37321 0.98842 0.55575 0.0
H964 H 0.86456 0.0823 0.98083 0.0
H965 H 0.86475 0.91355 0.01529 0.0
H966 H 0.86788 0.04126 0.11377 0.0
H967 H 0.86782 0.9546 0.88234 0.0
H968 H 0.87194 0.95978 0.05174 0.0
H969 H 0.87184 0.0361 0.94438 0.0
C970 C 0.86712 0.06359 0.00243 0.0
C971 C 0.86517 0.06553 0.05044 0.0
C972 C 0.87138 0.95868 0.01458 0.0
C973 C 0.87332 0.01241 0.00875 0.0
C974 C 0.86721 0.93227 0.99368 0.0
C975 C 0.86524 0.93031 0.94567 0.0
C976 C 0.87331 0.98347 0.98736 0.0
C977 C 0.869 0.95517 0.91945 0.0
C978 C 0.87133 0.03719 0.98153 0.0
C979 C 0.86905 0.0407 0.07666 0.0
N980 N 0.87246 0.98084 0.9407 0.0
N981 N 0.87254 0.01504 0.05541 0.0
H982 H 0.6054 0.08355 0.51504 0.0
H983 H 0.59396 0.94973 0.61348 0.0
H984 H 0.60264 0.04088 0.38354 0.0
H985 H 0.61671 0.91948 0.48093 0.0
H986 H 0.58516 0.99625 0.57893 0.0
H987 H 0.59858 0.038 0.55298 0.0
C988 C 0.60283 0.06459 0.49405 0.0
C989 C 0.60497 0.06594 0.44604 0.0
C990 C 0.59226 0.97957 0.55742 0.0
C991 C 0.59673 0.01332 0.48944 0.0
C992 C 0.59708 0.95283 0.57713 0.0
C993 C 0.60672 0.93087 0.55044 0.0
C994 C 0.59737 0.98441 0.51079 0.0
C995 C 0.60985 0.93595 0.50324 0.0
C996 C 0.59867 0.03846 0.51584 0.0
C997 C 0.60125 0.04078 0.42063 0.0
N998 N 0.60546 0.96225 0.48512 0.0
N999 N 0.59778 0.01537 0.44273 0.0
H1000 H 0.60161 0.54162 0.11459 0.0
H1001 H 0.60178 0.45391 0.87858 0.0
H1002 H 0.60749 0.58053 0.98035 0.0
H1003 H 0.60819 0.41513 0.01287 0.0
H1004 H 0.5943 0.50027 0.91542 0.0
H1005 H 0.59436 0.49521 0.07772 0.0
C1006 C 0.60096 0.54053 0.07743 0.0
C1007 C 0.60563 0.56485 0.05052 0.0
C1008 C 0.59704 0.48149 0.93677 0.0
C1009 C 0.59748 0.51193 0.00819 0.0
C1010 C 0.60124 0.45502 0.91575 0.0
C1011 C 0.60609 0.43075 0.94267 0.0
C1012 C 0.59762 0.4836 0.98497 0.0
C1013 C 0.60502 0.43342 0.99073 0.0
C1014 C 0.59692 0.51402 0.05639 0.0
C1015 C 0.60445 0.5622 0.00247 0.0
N1016 N 0.60116 0.45942 0.01031 0.0
N1017 N 0.60077 0.53617 0.98286 0.0
H1018 H 0.87013 0.54198 0.37997 0.0
H1019 H 0.87077 0.45362 0.61543 0.0
H1020 H 0.86436 0.58036 0.51451 0.0
H1021 H 0.86495 0.41514 0.48094 0.0
H1022 H 0.8782 0.5001 0.57886 0.0
H1023 H 0.87802 0.49558 0.41649 0.0
C1024 C 0.87094 0.54078 0.41712 0.0
C1025 C 0.86609 0.56492 0.44423 0.0
C1026 C 0.87562 0.48136 0.55741 0.0
C1027 C 0.87498 0.51201 0.48616 0.0
C1028 C 0.87145 0.45482 0.57828 0.0
C1029 C 0.86673 0.4306 0.55121 0.0
C1030 C 0.87511 0.48361 0.50921 0.0
C1031 C 0.86799 0.43339 0.50318 0.0
C1032 C 0.87536 0.51428 0.43796 0.0
C1033 C 0.8675 0.56215 0.49224 0.0
N1034 N 0.87178 0.45947 0.48373 0.0
N1035 N 0.87154 0.53611 0.51166 0.0
H1036 H 0.36798 0.46162 0.88173 0.0
H1037 H 0.36866 0.54946 0.11748 0.0
H1038 H 0.36295 0.4228 0.01619 0.0
H1039 H 0.3624 0.5882 0.98313 0.0
H1040 H 0.37606 0.50307 0.08072 0.0
H1041 H 0.37548 0.50805 0.91833 0.0
C1042 C 0.36885 0.46274 0.91887 0.0
C1043 C 0.36434 0.43845 0.94595 0.0
C1044 C 0.37337 0.52184 0.05934 0.0
C1045 C 0.37279 0.49138 0.98798 0.0
C1046 C 0.36922 0.54833 0.08032 0.0
C1047 C 0.36441 0.5726 0.05335 0.0
C1048 C 0.37278 0.51971 0.01114 0.0
C1049 C 0.36552 0.56991 0.0053 0.0
C1050 C 0.37305 0.48925 0.93977 0.0
C1051 C 0.36583 0.44112 0.99396 0.0
N1052 N 0.36931 0.54389 0.98575 0.0
N1053 N 0.36965 0.46716 0.01343 0.0
H1054 H 0.10004 0.5512 0.38136 0.0
H1055 H 0.0993 0.46299 0.61703 0.0
H1056 H 0.10647 0.58956 0.51582 0.0
H1057 H 0.10461 0.42432 0.48265 0.0
H1058 H 0.09206 0.50951 0.58035 0.0
H1059 H 0.09199 0.50488 0.41799 0.0
C1060 C 0.09938 0.55001 0.41851 0.0
C1061 C 0.10442 0.57414 0.44555 0.0
C1062 C 0.09446 0.49072 0.55895 0.0
C1063 C 0.0953 0.52132 0.48762 0.0
C1064 C 0.09849 0.46415 0.57988 0.0
C1065 C 0.10305 0.43987 0.55287 0.0
C1066 C 0.09494 0.49293 0.51074 0.0
C1067 C 0.10167 0.44262 0.50484 0.0
C1068 C 0.09486 0.52356 0.43942 0.0
C1069 C 0.10317 0.57138 0.49359 0.0
N1070 N 0.09803 0.46872 0.48532 0.0
N1071 N 0.09901 0.54539 0.51306 0.0
H1072 H 0.2145 0.19692 0.09195 0.0
H1073 H 0.25399 0.318 0.91469 0.0
H1074 H 0.16966 0.26264 0.03846 0.0
H1075 H 0.29848 0.25135 0.9664 0.0
H1076 H 0.22264 0.2974 0.95862 0.0
H1077 H 0.24597 0.21809 0.0491 0.0
C1078 C 0.21138 0.21617 0.0719 0.0
C1079 C 0.18938 0.22788 0.06837 0.0
C1080 C 0.2392 0.28712 0.96004 0.0
C1081 C 0.22517 0.25176 0.01843 0.0
C1082 C 0.25705 0.29868 0.93462 0.0
C1083 C 0.2789 0.28647 0.93719 0.0
C1084 C 0.24326 0.26325 0.98837 0.0
C1085 C 0.28189 0.26141 0.96333 0.0
C1086 C 0.22931 0.22806 0.04708 0.0
C1087 C 0.18634 0.25291 0.04219 0.0
N1088 N 0.26429 0.2508 0.98838 0.0
N1089 N 0.20401 0.26383 0.01769 0.0
H1090 H 0.29744 0.74893 0.54589 0.0
H1091 H 0.16883 0.76456 0.45843 0.0
H1092 H 0.25424 0.82134 0.57853 0.0
H1093 H 0.21386 0.69527 0.41931 0.0
H1094 H 0.20001 0.78627 0.50184 0.0
H1095 H 0.26599 0.7275 0.50317 0.0
C1096 C 0.2812 0.76003 0.54498 0.0
C1097 C 0.27855 0.78713 0.56533 0.0
C1098 C 0.2031 0.76646 0.48336 0.0
C1099 C 0.24273 0.76312 0.51553 0.0
C1100 C 0.1854 0.75427 0.45804 0.0
C1101 C 0.1887 0.72792 0.43564 0.0
C1102 C 0.22416 0.75215 0.48618 0.0
C1103 C 0.2105 0.71545 0.43655 0.0
C1104 C 0.26334 0.74797 0.52001 0.0
C1105 C 0.25712 0.80056 0.56286 0.0
N1106 N 0.22734 0.72753 0.46189 0.0
N1107 N 0.24009 0.78854 0.53792 0.0
H1108 H 0.17307 0.75014 0.95468 0.0
H1109 H 0.30243 0.76371 0.03879 0.0
H1110 H 0.21711 0.82116 0.91882 0.0
H1111 H 0.25662 0.69599 0.08125 0.0
H1112 H 0.27131 0.78567 0.99541 0.0
H1113 H 0.20445 0.7285 0.99752 0.0
C1114 C 0.18947 0.76087 0.95491 0.0
C1115 C 0.19241 0.78765 0.93356 0.0
C1116 C 0.26803 0.76615 0.01461 0.0
C1117 C 0.22814 0.76341 0.9835 0.0
C1118 C 0.28571 0.75383 0.03992 0.0
C1119 C 0.28216 0.72783 0.06329 0.0
C1120 C 0.24675 0.75234 0.01276 0.0
C1121 C 0.26018 0.71588 0.06327 0.0
C1122 C 0.20729 0.74871 0.97994 0.0
C1123 C 0.21402 0.80063 0.93522 0.0
N1124 N 0.24336 0.72807 0.03793 0.0
N1125 N 0.23102 0.78851 0.96022 0.0
H1126 H 0.30312 0.26513 0.46056 0.0
H1127 H 0.1747 0.25085 0.54894 0.0
H1128 H 0.25727 0.19665 0.4214 0.0
H1129 H 0.21642 0.32593 0.57295 0.0
H1130 H 0.20633 0.22887 0.50765 0.0
H1131 H 0.27204 0.28775 0.50309 0.0
C1132 C 0.28642 0.25518 0.46002 0.0
C1133 C 0.28284 0.22882 0.43777 0.0
C1134 C 0.20861 0.25008 0.52225 0.0
C1135 C 0.2475 0.25411 0.48729 0.0
C1136 C 0.19065 0.26248 0.54639 0.0
C1137 C 0.19283 0.2904 0.56398 0.0
C1138 C 0.22887 0.26568 0.51583 0.0
C1139 C 0.21391 0.30448 0.55947 0.0
C1140 C 0.26876 0.26792 0.48478 0.0
C1141 C 0.26087 0.21682 0.43849 0.0
N1142 N 0.23107 0.29205 0.53545 0.0
N1143 N 0.2441 0.2294 0.46331 0.0
H1144 H 0.75657 0.80767 0.9099 0.0
H1145 H 0.71704 0.68311 0.08085 0.0
H1146 H 0.80161 0.74116 0.96008 0.0
H1147 H 0.67334 0.75246 0.03596 0.0
H1148 H 0.7484 0.70422 0.03754 0.0
H1149 H 0.72529 0.78592 0.95252 0.0
C1150 C 0.75977 0.78814 0.9292 0.0
C1151 C 0.78177 0.77634 0.93182 0.0
C1152 C 0.73202 0.71497 0.03752 0.0
C1153 C 0.74618 0.75176 0.9815 0.0
C1154 C 0.71416 0.70309 0.06258 0.0
C1155 C 0.69249 0.71595 0.0617 0.0
C1156 C 0.72815 0.7398 0.01126 0.0
C1157 C 0.68975 0.74186 0.03766 0.0
C1158 C 0.74196 0.77591 0.95389 0.0
C1159 C 0.78492 0.75095 0.95706 0.0
N1160 N 0.70734 0.75277 0.01291 0.0
N1161 N 0.76734 0.73967 0.98143 0.0
H1162 H 0.75644 0.31073 0.579 0.0
H1163 H 0.71725 0.18251 0.41504 0.0
H1164 H 0.8009 0.24151 0.53706 0.0
H1165 H 0.67381 0.25358 0.45323 0.0
H1166 H 0.74844 0.20435 0.45801 0.0
H1167 H 0.72546 0.2888 0.53567 0.0
C1168 C 0.75958 0.29062 0.56134 0.0
C1169 C 0.78134 0.27805 0.56127 0.0
C1170 C 0.73215 0.21531 0.45663 0.0
C1171 C 0.7461 0.25322 0.51081 0.0
C1172 C 0.7144 0.203 0.43175 0.0
C1173 C 0.69283 0.21613 0.43095 0.0
C1174 C 0.72828 0.24084 0.48098 0.0
C1175 C 0.69014 0.24271 0.45294 0.0
C1176 C 0.74193 0.27827 0.53624 0.0
C1177 C 0.78439 0.25192 0.53807 0.0
N1178 N 0.70761 0.25404 0.47757 0.0
N1179 N 0.76699 0.24052 0.51329 0.0
H1180 H 0.6685 0.23957 0.95535 0.0
H1181 H 0.79718 0.25433 0.04269 0.0
H1182 H 0.71412 0.30789 0.9145 0.0
H1183 H 0.75371 0.18225 0.0759 0.0
H1184 H 0.76593 0.27568 -0.00077 0.0
H1185 H 0.69958 0.21762 -0.00115 0.0
C1186 C 0.68518 0.24959 0.95459 0.0
C1187 C 0.68867 0.27576 0.93169 0.0
C1188 C 0.76318 0.25529 0.01634 0.0
C1189 C 0.72402 0.25125 0.98235 0.0
C1190 C 0.78093 0.24328 0.04172 0.0
C1191 C 0.77814 0.21631 0.06253 0.0
C1192 C 0.74253 0.24024 0.01188 0.0
C1193 C 0.75669 0.20295 0.05994 0.0
C1194 C 0.70283 0.23726 0.97996 0.0
C1195 C 0.7106 0.28787 0.93214 0.0
N1196 N 0.73976 0.21493 0.03462 0.0
N1197 N 0.72739 0.27568 0.95755 0.0
H1198 H 0.75405 0.6827 0.41565 0.0
H1199 H 0.71474 0.80676 0.58719 0.0
H1200 H 0.79777 0.75194 0.46064 0.0
H1201 H 0.66952 0.74075 0.53622 0.0
H1202 H 0.74604 0.78485 0.54493 0.0
H1203 H 0.72276 0.70361 0.45932 0.0
C1204 C 0.75695 0.70261 0.43403 0.0
C1205 C 0.7786 0.7155 0.43484 0.0
C1206 C 0.72933 0.77498 0.54332 0.0
C1207 C 0.74304 0.7391 0.48568 0.0
C1208 C 0.7115 0.7873 0.56782 0.0
C1209 C 0.68945 0.77572 0.56476 0.0
C1210 C 0.72505 0.75097 0.51551 0.0
C1211 C 0.68625 0.75038 0.53951 0.0
C1212 C 0.73913 0.71437 0.4593 0.0
C1213 C 0.78136 0.74132 0.459 0.0
N1214 N 0.70384 0.73903 0.5153 0.0
N1215 N 0.76382 0.75211 0.48394 0.0
loop_
_geom_bond_atom_site_label_1
_geom_bond_atom_site_label_2
_geom_bond_distance
_geom_bond_site_symmetry_2
_ccdc_geom_bond_type
Sc0 O3 2.025 . S
Sc0 O10 2.105 . S
Sc0 O13 2.105 . S
Sc0 O16 2.105 . S
Sc0 O19 2.105 1_554 S
Sc1 O3 2.025 . S
Sc1 O11 2.105 1_554 S
Sc1 O15 2.105 . S
Sc1 O17 2.105 . S
Sc1 O21 2.105 . S
Sc2 O3 2.025 . S
Sc2 O12 2.105 . S
Sc2 O14 2.105 . S
Sc2 O18 2.105 . S
Sc2 O20 2.105 . S
O3 Sc0 2.025 . S
O3 Sc1 2.025 . S
O3 Sc2 2.025 . S
C4 O10 1.268 . S
C4 O20 1.268 . S
C5 O11 1.268 . S
C5 O19 1.268 . S
C6 O12 1.268 . S
C6 O21 1.268 . S
C7 O13 1.268 . S
C7 O17 1.268 . S
C8 O14 1.268 . S
C8 O16 1.268 . S
C9 O15 1.268 . S
C9 O18 1.268 . S
O10 Sc0 2.105 . S
O10 C4 1.268 . S
O11 Sc1 2.105 1_556 S
O11 C5 1.268 . S
O12 Sc2 2.105 . S
O12 C6 1.268 . S
O13 Sc0 2.105 . S
O13 C7 1.268 . S
O14 Sc2 2.105 . S
O14 C8 1.268 . S
O15 Sc1 2.105 . S
O15 C9 1.268 . S
O16 Sc0 2.105 . S
O16 C8 1.268 . S
O17 Sc1 2.105 . S
O17 C7 1.268 . S
O18 Sc2 2.105 . S
O18 C9 1.268 . S
O19 Sc0 2.105 1_556 S
O19 C5 1.268 . S
O20 Sc2 2.105 . S
O20 C4 1.268 . S
O21 Sc1 2.105 . S
O21 C6 1.268 . S
Sc22 O25 2.025 . S
Sc22 O32 2.105 . S
Sc22 O35 2.105 . S
Sc22 O38 2.105 . S
Sc22 O41 2.105 . S
Sc23 O25 2.025 . S
Sc23 O33 2.105 . S
Sc23 O37 2.105 . S
Sc23 O39 2.105 . S
Sc23 O43 2.105 . S
Sc24 O25 2.025 . S
Sc24 O34 2.105 . S
Sc24 O36 2.105 . S
Sc24 O40 2.105 . S
Sc24 O42 2.105 . S
O25 Sc22 2.025 . S
O25 Sc23 2.025 . S
O25 Sc24 2.025 . S
C26 O32 1.268 . S
C26 O42 1.268 . S
C27 O33 1.268 . S
C27 O41 1.268 . S
C28 O34 1.268 . S
C28 O43 1.268 . S
C29 O35 1.268 . S
C29 O39 1.268 . S
C30 O36 1.268 . S
C30 O38 1.268 . S
C31 O37 1.268 . S
C31 O40 1.268 . S
O32 Sc22 2.105 . S
O32 C26 1.268 . S
O33 Sc23 2.105 . S
O33 C27 1.268 . S
O34 Sc24 2.105 . S
O34 C28 1.268 . S
O35 Sc22 2.105 . S
O35 C29 1.268 . S
O36 Sc24 2.105 . S
O36 C30 1.268 . S
O37 Sc23 2.105 . S
O37 C31 1.268 . S
O38 Sc22 2.105 . S
O38 C30 1.268 . S
O39 Sc23 2.105 . S
O39 C29 1.268 . S
O40 Sc24 2.105 . S
O40 C31 1.268 . S
O41 Sc22 2.105 . S
O41 C27 1.268 . S
O42 Sc24 2.105 . S
O42 C26 1.268 . S
O43 Sc23 2.105 . S
O43 C28 1.268 . S
Sc44 O47 2.025 . S
Sc44 O54 2.105 . S
Sc44 O57 2.105 . S
Sc44 O60 2.105 . S
Sc44 O63 2.105 1_556 S
Sc45 O47 2.025 . S
Sc45 O55 2.105 1_556 S
Sc45 O59 2.105 . S
Sc45 O61 2.105 . S
Sc45 O65 2.105 . S
Sc46 O47 2.025 . S
Sc46 O56 2.105 . S
Sc46 O58 2.105 . S
Sc46 O62 2.105 . S
Sc46 O64 2.105 . S
O47 Sc44 2.025 . S
O47 Sc45 2.025 . S
O47 Sc46 2.025 . S
C48 O54 1.268 . S
C48 O64 1.268 . S
C49 O55 1.268 . S
C49 O63 1.268 . S
C50 O56 1.268 . S
C50 O65 1.268 . S
C51 O57 1.268 . S
C51 O61 1.268 . S
C52 O58 1.268 . S
C52 O60 1.268 . S
C53 O59 1.268 . S
C53 O62 1.268 . S
O54 Sc44 2.105 . S
O54 C48 1.268 . S
O55 Sc45 2.105 1_554 S
O55 C49 1.268 . S
O56 Sc46 2.105 . S
O56 C50 1.268 . S
O57 Sc44 2.105 . S
O57 C51 1.268 . S
O58 Sc46 2.105 . S
O58 C52 1.268 . S
O59 Sc45 2.105 . S
O59 C53 1.268 . S
O60 Sc44 2.105 . S
O60 C52 1.268 . S
O61 Sc45 2.105 . S
O61 C51 1.268 . S
O62 Sc46 2.105 . S
O62 C53 1.268 . S
O63 Sc44 2.105 1_554 S
O63 C49 1.268 . S
O64 Sc46 2.105 . S
O64 C48 1.268 . S
O65 Sc45 2.105 . S
O65 C50 1.268 . S
Sc66 O69 2.025 . S
Sc66 O76 2.105 . S
Sc66 O79 2.105 . S
Sc66 O82 2.105 . S
Sc66 O85 2.105 . S
Sc67 O69 2.025 . S
Sc67 O77 2.105 . S
Sc67 O81 2.105 . S
Sc67 O83 2.105 . S
Sc67 O87 2.105 . S
Sc68 O69 2.025 . S
Sc68 O78 2.105 . S
Sc68 O80 2.105 . S
Sc68 O84 2.105 . S
Sc68 O86 2.105 . S
O69 Sc66 2.025 . S
O69 Sc67 2.025 . S
O69 Sc68 2.025 . S
C70 O76 1.268 . S
C70 O86 1.268 . S
C71 O77 1.268 . S
C71 O85 1.268 . S
C72 O78 1.268 . S
C72 O87 1.268 . S
C73 O79 1.268 . S
C73 O83 1.268 . S
C74 O80 1.268 . S
C74 O82 1.268 . S
C75 O81 1.268 . S
C75 O84 1.268 . S
O76 Sc66 2.105 . S
O76 C70 1.268 . S
O77 Sc67 2.105 . S
O77 C71 1.268 . S
O78 Sc68 2.105 . S
O78 C72 1.268 . S
O79 Sc66 2.105 . S
O79 C73 1.268 . S
O80 Sc68 2.105 . S
O80 C74 1.268 . S
O81 Sc67 2.105 . S
O81 C75 1.268 . S
O82 Sc66 2.105 . S
O82 C74 1.268 . S
O83 Sc67 2.105 . S
O83 C73 1.268 . S
O84 Sc68 2.105 . S
O84 C75 1.268 . S
O85 Sc66 2.105 . S
O85 C71 1.268 . S
O86 Sc68 2.105 . S
O86 C70 1.268 . S
O87 Sc67 2.105 . S
O87 C72 1.268 . S
Sc88 O91 2.025 . S
Sc88 O98 2.105 . S
Sc88 O101 2.105 . S
Sc88 O104 2.105 . S
Sc88 O107 2.105 . S
Sc89 O91 2.025 . S
Sc89 O99 2.105 . S
Sc89 O103 2.105 . S
Sc89 O105 2.105 . S
Sc89 O109 2.105 1_556 S
Sc90 O91 2.025 . S
Sc90 O100 2.105 1_556 S
Sc90 O102 2.105 . S
Sc90 O106 2.105 . S
Sc90 O108 2.105 . S
O91 Sc88 2.025 . S
O91 Sc89 2.025 . S
O91 Sc90 2.025 . S
C92 O98 1.268 . S
C92 O108 1.268 . S
C93 O99 1.268 . S
C93 O107 1.268 . S
C94 O100 1.268 . S
C94 O109 1.268 . S
C95 O101 1.268 . S
C95 O105 1.268 . S
C96 O102 1.268 . S
C96 O104 1.268 . S
C97 O103 1.268 . S
C97 O106 1.268 . S
O98 Sc88 2.105 . S
O98 C92 1.268 . S
O99 Sc89 2.105 . S
O99 C93 1.268 . S
O100 Sc90 2.105 1_554 S
O100 C94 1.268 . S
O101 Sc88 2.105 . S
O101 C95 1.268 . S
O102 Sc90 2.105 . S
O102 C96 1.268 . S
O103 Sc89 2.105 . S
O103 C97 1.268 . S
O104 Sc88 2.105 . S
O104 C96 1.268 . S
O105 Sc89 2.105 . S
O105 C95 1.268 . S
O106 Sc90 2.105 . S
O106 C97 1.268 . S
O107 Sc88 2.105 . S
O107 C93 1.268 . S
O108 Sc90 2.105 . S
O108 C92 1.268 . S
O109 Sc89 2.105 1_554 S
O109 C94 1.268 . S
Sc110 O113 2.025 . S
Sc110 O120 2.105 . S
Sc110 O123 2.105 . S
Sc110 O126 2.105 . S
Sc110 O129 2.105 . S
Sc111 O113 2.025 . S
Sc111 O121 2.105 . S
Sc111 O125 2.105 . S
Sc111 O127 2.105 . S
Sc111 O131 2.105 . S
Sc112 O113 2.025 . S
Sc112 O122 2.105 . S
Sc112 O124 2.105 . S
Sc112 O128 2.105 . S
Sc112 O130 2.105 . S
O113 Sc110 2.025 . S
O113 Sc111 2.025 . S
O113 Sc112 2.025 . S
C114 O120 1.268 . S
C114 O130 1.268 . S
C115 O121 1.268 . S
C115 O129 1.268 . S
C116 O122 1.268 . S
C116 O131 1.268 . S
C117 O123 1.268 . S
C117 O127 1.268 . S
C118 O124 1.268 . S
C118 O126 1.268 . S
C119 O125 1.268 . S
C119 O128 1.268 . S
O120 Sc110 2.105 . S
O120 C114 1.268 . S
O121 Sc111 2.105 . S
O121 C115 1.268 . S
O122 Sc112 2.105 . S
O122 C116 1.268 . S
O123 Sc110 2.105 . S
O123 C117 1.268 . S
O124 Sc112 2.105 . S
O124 C118 1.268 . S
O125 Sc111 2.105 . S
O125 C119 1.268 . S
O126 Sc110 2.105 . S
O126 C118 1.268 . S
O127 Sc111 2.105 . S
O127 C117 1.268 . S
O128 Sc112 2.105 . S
O128 C119 1.268 . S
O129 Sc110 2.105 . S
O129 C115 1.268 . S
O130 Sc112 2.105 . S
O130 C114 1.268 . S
O131 Sc111 2.105 . S
O131 C116 1.268 . S
Sc132 O135 2.025 . S
Sc132 O142 2.105 . S
Sc132 O145 2.105 1_554 S
Sc132 O148 2.105 . S
Sc132 O151 2.105 . S
Sc133 O135 2.025 . S
Sc133 O143 2.105 . S
Sc133 O147 2.105 . S
Sc133 O149 2.105 1_554 S
Sc133 O153 2.105 . S
Sc134 O135 2.025 . S
Sc134 O144 2.105 . S
Sc134 O146 2.105 . S
Sc134 O150 2.105 . S
Sc134 O152 2.105 . S
O135 Sc132 2.025 . S
O135 Sc133 2.025 . S
O135 Sc134 2.025 . S
C136 O142 1.268 . S
C136 O152 1.268 . S
C137 O143 1.268 . S
C137 O151 1.268 . S
C138 O144 1.268 . S
C138 O153 1.268 . S
C139 O145 1.268 . S
C139 O149 1.268 . S
C140 O146 1.268 . S
C140 O148 1.268 . S
C141 O147 1.268 . S
C141 O150 1.268 . S
O142 Sc132 2.105 . S
O142 C136 1.268 . S
O143 Sc133 2.105 . S
O143 C137 1.268 . S
O144 Sc134 2.105 . S
O144 C138 1.268 . S
O145 Sc132 2.105 1_556 S
O145 C139 1.268 . S
O146 Sc134 2.105 . S
O146 C140 1.268 . S
O147 Sc133 2.105 . S
O147 C141 1.268 . S
O148 Sc132 2.105 . S
O148 C140 1.268 . S
O149 Sc133 2.105 1_556 S
O149 C139 1.268 . S
O150 Sc134 2.105 . S
O150 C141 1.268 . S
O151 Sc132 2.105 . S
O151 C137 1.268 . S
O152 Sc134 2.105 . S
O152 C136 1.268 . S
O153 Sc133 2.105 . S
O153 C138 1.268 . S
Sc154 O157 2.025 . S
Sc154 O164 2.105 . S
Sc154 O167 2.105 . S
Sc154 O170 2.105 . S
Sc154 O173 2.105 . S
Sc155 O157 2.025 . S
Sc155 O165 2.105 . S
Sc155 O169 2.105 . S
Sc155 O171 2.105 . S
Sc155 O175 2.105 . S
Sc156 O157 2.025 . S
Sc156 O166 2.105 . S
Sc156 O168 2.105 . S
Sc156 O172 2.105 . S
Sc156 O174 2.105 . S
O157 Sc154 2.025 . S
O157 Sc155 2.025 . S
O157 Sc156 2.025 . S
C158 O164 1.268 . S
C158 O174 1.268 . S
C159 O165 1.268 . S
C159 O173 1.268 . S
C160 O166 1.268 . S
C160 O175 1.268 . S
C161 O167 1.268 . S
C161 O171 1.268 . S
C162 O168 1.268 . S
C162 O170 1.268 . S
C163 O169 1.268 . S
C163 O172 1.268 . S
O164 Sc154 2.105 . S
O164 C158 1.268 . S
O165 Sc155 2.105 . S
O165 C159 1.268 . S
O166 Sc156 2.105 . S
O166 C160 1.268 . S
O167 Sc154 2.105 . S
O167 C161 1.268 . S
O168 Sc156 2.105 . S
O168 C162 1.268 . S
O169 Sc155 2.105 . S
O169 C163 1.268 . S
O170 Sc154 2.105 . S
O170 C162 1.268 . S
O171 Sc155 2.105 . S
O171 C161 1.268 . S
O172 Sc156 2.105 . S
O172 C163 1.268 . S
O173 Sc154 2.105 . S
O173 C159 1.268 . S
O174 Sc156 2.105 . S
O174 C158 1.268 . S
O175 Sc155 2.105 . S
O175 C160 1.268 . S
Sc176 O179 2.025 . S
Sc176 O186 2.105 . S
Sc176 O189 2.105 . S
Sc176 O192 2.105 . S
Sc176 O195 2.105 1_554 S
Sc177 O179 2.025 . S
Sc177 O187 2.105 1_554 S
Sc177 O191 2.105 . S
Sc177 O193 2.105 . S
Sc177 O197 2.105 . S
Sc178 O179 2.025 . S
Sc178 O188 2.105 . S
Sc178 O190 2.105 . S
Sc178 O194 2.105 . S
Sc178 O196 2.105 . S
O179 Sc176 2.025 . S
O179 Sc177 2.025 . S
O179 Sc178 2.025 . S
C180 O186 1.268 . S
C180 O196 1.268 . S
C181 O187 1.268 . S
C181 O195 1.268 . S
C182 O188 1.268 . S
C182 O197 1.268 . S
C183 O189 1.268 . S
C183 O193 1.268 . S
C184 O190 1.268 . S
C184 O192 1.268 . S
C185 O191 1.268 . S
C185 O194 1.268 . S
O186 Sc176 2.105 . S
O186 C180 1.268 . S
O187 Sc177 2.105 1_556 S
O187 C181 1.268 . S
O188 Sc178 2.105 . S
O188 C182 1.268 . S
O189 Sc176 2.105 . S
O189 C183 1.268 . S
O190 Sc178 2.105 . S
O190 C184 1.268 . S
O191 Sc177 2.105 . S
O191 C185 1.268 . S
O192 Sc176 2.105 . S
O192 C184 1.268 . S
O193 Sc177 2.105 . S
O193 C183 1.268 . S
O194 Sc178 2.105 . S
O194 C185 1.268 . S
O195 Sc176 2.105 1_556 S
O195 C181 1.268 . S
O196 Sc178 2.105 . S
O196 C180 1.268 . S
O197 Sc177 2.105 . S
O197 C182 1.268 . S
Sc198 O201 2.025 . S
Sc198 O208 2.105 . S
Sc198 O211 2.105 . S
Sc198 O214 2.105 . S
Sc198 O217 2.105 . S
Sc199 O201 2.025 . S
Sc199 O209 2.105 . S
Sc199 O213 2.105 . S
Sc199 O215 2.105 . S
Sc199 O219 2.105 . S
Sc200 O201 2.025 . S
Sc200 O210 2.105 . S
Sc200 O212 2.105 . S
Sc200 O216 2.105 . S
Sc200 O218 2.105 . S
O201 Sc198 2.025 . S
O201 Sc199 2.025 . S
O201 Sc200 2.025 . S
C202 O208 1.268 . S
C202 O218 1.268 . S
C203 O209 1.268 . S
C203 O217 1.268 . S
C204 O210 1.268 . S
C204 O219 1.268 . S
C205 O211 1.268 . S
C205 O215 1.268 . S
C206 O212 1.268 . S
C206 O214 1.268 . S
C207 O213 1.268 . S
C207 O216 1.268 . S
O208 Sc198 2.105 . S
O208 C202 1.268 . S
O209 Sc199 2.105 . S
O209 C203 1.268 . S
O210 Sc200 2.105 . S
O210 C204 1.268 . S
O211 Sc198 2.105 . S
O211 C205 1.268 . S
O212 Sc200 2.105 . S
O212 C206 1.268 . S
O213 Sc199 2.105 . S
O213 C207 1.268 . S
O214 Sc198 2.105 . S
O214 C206 1.268 . S
O215 Sc199 2.105 . S
O215 C205 1.268 . S
O216 Sc200 2.105 . S
O216 C207 1.268 . S
O217 Sc198 2.105 . S
O217 C203 1.268 . S
O218 Sc200 2.105 . S
O218 C202 1.268 . S
O219 Sc199 2.105 . S
O219 C204 1.268 . S
Sc220 O223 2.025 . S
Sc220 O230 2.105 . S
Sc220 O233 2.105 . S
Sc220 O236 2.105 . S
Sc220 O239 2.105 1_556 S
Sc221 O223 2.025 . S
Sc221 O231 2.105 1_556 S
Sc221 O235 2.105 . S
Sc221 O237 2.105 . S
Sc221 O241 2.105 . S
Sc222 O223 2.025 . S
Sc222 O232 2.105 . S
Sc222 O234 2.105 . S
Sc222 O238 2.105 . S
Sc222 O240 2.105 . S
O223 Sc220 2.025 . S
O223 Sc221 2.025 . S
O223 Sc222 2.025 . S
C224 O230 1.268 . S
C224 O240 1.268 . S
C225 O231 1.268 . S
C225 O239 1.268 . S
C226 O232 1.268 . S
C226 O241 1.268 . S
C227 O233 1.268 . S
C227 O237 1.268 . S
C228 O234 1.268 . S
C228 O236 1.268 . S
C229 O235 1.268 . S
C229 O238 1.268 . S
O230 Sc220 2.105 . S
O230 C224 1.268 . S
O231 Sc221 2.105 1_554 S
O231 C225 1.268 . S
O232 Sc222 2.105 . S
O232 C226 1.268 . S
O233 Sc220 2.105 . S
O233 C227 1.268 . S
O234 Sc222 2.105 . S
O234 C228 1.268 . S
O235 Sc221 2.105 . S
O235 C229 1.268 . S
O236 Sc220 2.105 . S
O236 C228 1.268 . S
O237 Sc221 2.105 . S
O237 C227 1.268 . S
O238 Sc222 2.105 . S
O238 C229 1.268 . S
O239 Sc220 2.105 1_554 S
O239 C225 1.268 . S
O240 Sc222 2.105 . S
O240 C224 1.268 . S
O241 Sc221 2.105 . S
O241 C226 1.268 . S
Sc242 O245 2.025 . S
Sc242 O252 2.105 . S
Sc242 O255 2.105 . S
Sc242 O258 2.105 . S
Sc242 O261 2.105 . S
Sc243 O245 2.025 . S
Sc243 O253 2.105 . S
Sc243 O257 2.105 . S
Sc243 O259 2.105 . S
Sc243 O263 2.105 . S
Sc244 O245 2.025 . S
Sc244 O254 2.105 . S
Sc244 O256 2.105 . S
Sc244 O260 2.105 . S
Sc244 O262 2.105 . S
O245 Sc242 2.025 . S
O245 Sc243 2.025 . S
O245 Sc244 2.025 . S
C246 O252 1.268 . S
C246 O262 1.268 . S
C247 O253 1.268 . S
C247 O261 1.268 . S
C248 O254 1.268 . S
C248 O263 1.268 . S
C249 O255 1.268 . S
C249 O259 1.268 . S
C250 O256 1.268 . S
C250 O258 1.268 . S
C251 O257 1.268 . S
C251 O260 1.268 . S
O252 Sc242 2.105 . S
O252 C246 1.268 . S
O253 Sc243 2.105 . S
O253 C247 1.268 . S
O254 Sc244 2.105 . S
O254 C248 1.268 . S
O255 Sc242 2.105 . S
O255 C249 1.268 . S
O256 Sc244 2.105 . S
O256 C250 1.268 . S
O257 Sc243 2.105 . S
O257 C251 1.268 . S
O258 Sc242 2.105 . S
O258 C250 1.268 . S
O259 Sc243 2.105 . S
O259 C249 1.268 . S
O260 Sc244 2.105 . S
O260 C251 1.268 . S
O261 Sc242 2.105 . S
O261 C247 1.268 . S
O262 Sc244 2.105 . S
O262 C246 1.268 . S
O263 Sc243 2.105 . S
O263 C248 1.268 . S
Sc264 O267 2.025 . S
Sc264 O274 2.105 . S
Sc264 O277 2.105 . S
Sc264 O280 2.105 . S
Sc264 O283 2.105 . S
Sc265 O267 2.025 . S
Sc265 O275 2.105 . S
Sc265 O279 2.105 . S
Sc265 O281 2.105 . S
Sc265 O285 2.105 1_556 S
Sc266 O267 2.025 . S
Sc266 O276 2.105 1_556 S
Sc266 O278 2.105 . S
Sc266 O282 2.105 . S
Sc266 O284 2.105 . S
O267 Sc264 2.025 . S
O267 Sc265 2.025 . S
O267 Sc266 2.025 . S
C268 O274 1.268 . S
C268 O284 1.268 . S
C269 O275 1.268 . S
C269 O283 1.268 . S
C270 O276 1.268 . S
C270 O285 1.268 . S
C271 O277 1.268 . S
C271 O281 1.268 . S
C272 O278 1.268 . S
C272 O280 1.268 . S
C273 O279 1.268 . S
C273 O282 1.268 . S
O274 Sc264 2.105 . S
O274 C268 1.268 . S
O275 Sc265 2.105 . S
O275 C269 1.268 . S
O276 Sc266 2.105 1_554 S
O276 C270 1.268 . S
O277 Sc264 2.105 . S
O277 C271 1.268 . S
O278 Sc266 2.105 . S
O278 C272 1.268 . S
O279 Sc265 2.105 . S
O279 C273 1.268 . S
O280 Sc264 2.105 . S
O280 C272 1.268 . S
O281 Sc265 2.105 . S
O281 C271 1.268 . S
O282 Sc266 2.105 . S
O282 C273 1.268 . S
O283 Sc264 2.105 . S
O283 C269 1.268 . S
O284 Sc266 2.105 . S
O284 C268 1.268 . S
O285 Sc265 2.105 1_554 S
O285 C270 1.268 . S
Sc286 O289 2.025 . S
Sc286 O296 2.105 . S
Sc286 O299 2.105 . S
Sc286 O302 2.105 . S
Sc286 O305 2.105 . S
Sc287 O289 2.025 . S
Sc287 O297 2.105 . S
Sc287 O301 2.105 . S
Sc287 O303 2.105 . S
Sc287 O307 2.105 . S
Sc288 O289 2.025 . S
Sc288 O298 2.105 . S
Sc288 O300 2.105 . S
Sc288 O304 2.105 . S
Sc288 O306 2.105 . S
O289 Sc286 2.025 . S
O289 Sc287 2.025 . S
O289 Sc288 2.025 . S
C290 O296 1.268 . S
C290 O306 1.268 . S
C291 O297 1.268 . S
C291 O305 1.268 . S
C292 O298 1.268 . S
C292 O307 1.268 . S
C293 O299 1.268 . S
C293 O303 1.268 . S
C294 O300 1.268 . S
C294 O302 1.268 . S
C295 O301 1.268 . S
C295 O304 1.268 . S
O296 Sc286 2.105 . S
O296 C290 1.268 . S
O297 Sc287 2.105 . S
O297 C291 1.268 . S
O298 Sc288 2.105 . S
O298 C292 1.268 . S
O299 Sc286 2.105 . S
O299 C293 1.268 . S
O300 Sc288 2.105 . S
O300 C294 1.268 . S
O301 Sc287 2.105 . S
O301 C295 1.268 . S
O302 Sc286 2.105 . S
O302 C294 1.268 . S
O303 Sc287 2.105 . S
O303 C293 1.268 . S
O304 Sc288 2.105 . S
O304 C295 1.268 . S
O305 Sc286 2.105 . S
O305 C291 1.268 . S
O306 Sc288 2.105 . S
O306 C290 1.268 . S
O307 Sc287 2.105 . S
O307 C292 1.268 . S
Sc308 O311 2.025 . S
Sc308 O318 2.105 . S
Sc308 O321 2.105 1_554 S
Sc308 O324 2.105 . S
Sc308 O327 2.105 . S
Sc309 O311 2.025 . S
Sc309 O319 2.105 . S
Sc309 O323 2.105 . S
Sc309 O325 2.105 1_554 S
Sc309 O329 2.105 . S
Sc310 O311 2.025 . S
Sc310 O320 2.105 . S
Sc310 O322 2.105 . S
Sc310 O326 2.105 . S
Sc310 O328 2.105 . S
O311 Sc308 2.025 . S
O311 Sc309 2.025 . S
O311 Sc310 2.025 . S
C312 O318 1.268 . S
C312 O328 1.268 . S
C313 O319 1.268 . S
C313 O327 1.268 . S
C314 O320 1.268 . S
C314 O329 1.268 . S
C315 O321 1.268 . S
C315 O325 1.268 . S
C316 O322 1.268 . S
C316 O324 1.268 . S
C317 O323 1.268 . S
C317 O326 1.268 . S
O318 Sc308 2.105 . S
O318 C312 1.268 . S
O319 Sc309 2.105 . S
O319 C313 1.268 . S
O320 Sc310 2.105 . S
O320 C314 1.268 . S
O321 Sc308 2.105 1_556 S
O321 C315 1.268 . S
O322 Sc310 2.105 . S
O322 C316 1.268 . S
O323 Sc309 2.105 . S
O323 C317 1.268 . S
O324 Sc308 2.105 . S
O324 C316 1.268 . S
O325 Sc309 2.105 1_556 S
O325 C315 1.268 . S
O326 Sc310 2.105 . S
O326 C317 1.268 . S
O327 Sc308 2.105 . S
O327 C313 1.268 . S
O328 Sc310 2.105 . S
O328 C312 1.268 . S
O329 Sc309 2.105 . S
O329 C314 1.268 . S
Sc330 O333 2.025 . S
Sc330 O340 2.105 . S
Sc330 O343 2.105 . S
Sc330 O346 2.105 . S
Sc330 O349 2.105 . S
Sc331 O333 2.025 . S
Sc331 O341 2.105 . S
Sc331 O345 2.105 . S
Sc331 O347 2.105 . S
Sc331 O351 2.105 . S
Sc332 O333 2.025 . S
Sc332 O342 2.105 . S
Sc332 O344 2.105 . S
Sc332 O348 2.105 . S
Sc332 O350 2.105 . S
O333 Sc330 2.025 . S
O333 Sc331 2.025 . S
O333 Sc332 2.025 . S
C334 O340 1.268 . S
C334 O350 1.268 . S
C335 O341 1.268 . S
C335 O349 1.268 . S
C336 O342 1.268 . S
C336 O351 1.268 . S
C337 O343 1.268 . S
C337 O347 1.268 . S
C338 O344 1.268 . S
C338 O346 1.268 . S
C339 O345 1.268 . S
C339 O348 1.268 . S
O340 Sc330 2.105 . S
O340 C334 1.268 . S
O341 Sc331 2.105 . S
O341 C335 1.268 . S
O342 Sc332 2.105 . S
O342 C336 1.268 . S
O343 Sc330 2.105 . S
O343 C337 1.268 . S
O344 Sc332 2.105 . S
O344 C338 1.268 . S
O345 Sc331 2.105 . S
O345 C339 1.268 . S
O346 Sc330 2.105 . S
O346 C338 1.268 . S
O347 Sc331 2.105 . S
O347 C337 1.268 . S
O348 Sc332 2.105 . S
O348 C339 1.268 . S
O349 Sc330 2.105 . S
O349 C335 1.268 . S
O350 Sc332 2.105 . S
O350 C334 1.268 . S
O351 Sc331 2.105 . S
O351 C336 1.268 . S
H352 C358 0.930 . S
H353 C362 0.930 . S
H354 C367 0.929 . S
H355 C365 0.929 . S
H356 C360 0.929 . S
H357 C366 0.929 . S
C358 H352 0.930 . S
C358 C359 1.367 . S
C358 C366 1.378 . S
C359 C358 1.367 . S
C359 C367 1.433 . S
C360 H356 0.929 . S
C360 C362 1.378 . S
C360 C364 1.350 . S
C361 C364 1.463 . S
C361 C366 1.350 . S
C361 N369 1.427 . S
C362 H353 0.930 . S
C362 C360 1.378 . S
C362 C363 1.367 . S
C363 C362 1.367 . S
C363 C365 1.433 . S
C364 C360 1.350 . S
C364 C361 1.463 . S
C364 N368 1.427 . S
C365 H355 0.929 . S
C365 C363 1.433 . S
C365 N368 1.384 . S
C366 H357 0.929 . S
C366 C358 1.378 . S
C366 C361 1.350 . S
C367 H354 0.929 . S
C367 C359 1.433 . S
C367 N369 1.384 . S
N368 C364 1.427 . S
N368 C365 1.384 . S
N369 C361 1.427 . S
N369 C367 1.384 . S
H370 C376 0.930 . S
H371 C380 0.930 . S
H372 C385 0.929 . S
H373 C383 0.929 . S
H374 C378 0.929 . S
H375 C384 0.929 . S
C376 H370 0.930 . S
C376 C377 1.367 . S
C376 C384 1.378 . S
C377 C376 1.367 . S
C377 C385 1.433 . S
C378 H374 0.929 . S
C378 C380 1.378 . S
C378 C382 1.350 . S
C379 C382 1.463 . S
C379 C384 1.350 . S
C379 N387 1.427 . S
C380 H371 0.930 . S
C380 C378 1.378 . S
C380 C381 1.367 . S
C381 C380 1.367 . S
C381 C383 1.433 . S
C382 C378 1.350 . S
C382 C379 1.463 . S
C382 N386 1.427 . S
C383 H373 0.929 . S
C383 C381 1.433 . S
C383 N386 1.384 . S
C384 H375 0.929 . S
C384 C376 1.378 . S
C384 C379 1.350 . S
C385 H372 0.929 . S
C385 C377 1.433 . S
C385 N387 1.384 . S
N386 C382 1.427 . S
N386 C383 1.384 . S
N387 C379 1.427 . S
N387 C385 1.384 . S
H388 C394 0.930 . S
H389 C398 0.930 . S
H390 C403 0.929 . S
H391 C401 0.929 . S
H392 C396 0.929 . S
H393 C402 0.929 . S
C394 H388 0.930 . S
C394 C395 1.367 . S
C394 C402 1.378 . S
C395 C394 1.367 . S
C395 C403 1.433 . S
C396 H392 0.929 . S
C396 C398 1.378 . S
C396 C400 1.350 . S
C397 C400 1.463 . S
C397 C402 1.350 . S
C397 N405 1.427 . S
C398 H389 0.930 . S
C398 C396 1.378 . S
C398 C399 1.367 . S
C399 C398 1.367 . S
C399 C401 1.433 . S
C400 C396 1.350 . S
C400 C397 1.463 . S
C400 N404 1.427 . S
C401 H391 0.929 . S
C401 C399 1.433 . S
C401 N404 1.384 . S
C402 H393 0.929 . S
C402 C394 1.378 . S
C402 C397 1.350 . S
C403 H390 0.929 . S
C403 C395 1.433 . S
C403 N405 1.384 . S
N404 C400 1.427 . S
N404 C401 1.384 . S
N405 C397 1.427 . S
N405 C403 1.384 . S
H406 C412 0.930 . S
H407 C416 0.930 . S
H408 C421 0.929 . S
H409 C419 0.929 . S
H410 C414 0.929 . S
H411 C420 0.929 . S
C412 H406 0.930 . S
C412 C413 1.367 . S
C412 C420 1.378 . S
C413 C412 1.367 . S
C413 C421 1.433 . S
C414 H410 0.929 . S
C414 C416 1.378 . S
C414 C418 1.350 . S
C415 C418 1.463 . S
C415 C420 1.350 . S
C415 N423 1.427 . S
C416 H407 0.930 . S
C416 C414 1.378 . S
C416 C417 1.367 . S
C417 C416 1.367 . S
C417 C419 1.433 . S
C418 C414 1.350 . S
C418 C415 1.463 . S
C418 N422 1.427 . S
C419 H409 0.929 . S
C419 C417 1.433 . S
C419 N422 1.384 . S
C420 H411 0.929 . S
C420 C412 1.378 . S
C420 C415 1.350 . S
C421 H408 0.929 . S
C421 C413 1.433 . S
C421 N423 1.384 . S
N422 C418 1.427 . S
N422 C419 1.384 . S
N423 C415 1.427 . S
N423 C421 1.384 . S
H424 C430 0.930 . S
H425 C434 0.930 . S
H426 C439 0.929 . S
H427 C437 0.929 . S
H428 C432 0.929 . S
H429 C438 0.929 . S
C430 H424 0.930 . S
C430 C431 1.367 . S
C430 C438 1.378 . S
C431 C430 1.367 . S
C431 C439 1.433 . S
C432 H428 0.929 . S
C432 C434 1.378 . S
C432 C436 1.350 . S
C433 C436 1.463 . S
C433 C438 1.350 . S
C433 N441 1.427 . S
C434 H425 0.930 . S
C434 C432 1.378 . S
C434 C435 1.367 . S
C435 C434 1.367 . S
C435 C437 1.433 . S
C436 C432 1.350 . S
C436 C433 1.463 . S
C436 N440 1.427 . S
C437 H427 0.929 . S
C437 C435 1.433 . S
C437 N440 1.384 . S
C438 H429 0.929 . S
C438 C430 1.378 . S
C438 C433 1.350 . S
C439 H426 0.929 . S
C439 C431 1.433 . S
C439 N441 1.384 . S
N440 C436 1.427 . S
N440 C437 1.384 . S
N441 C433 1.427 . S
N441 C439 1.384 . S
H442 C448 0.930 . S
H443 C452 0.930 . S
H444 C457 0.929 . S
H445 C455 0.929 . S
H446 C450 0.929 . S
H447 C456 0.929 . S
C448 H442 0.930 . S
C448 C449 1.367 . S
C448 C456 1.378 . S
C449 C448 1.367 . S
C449 C457 1.433 . S
C450 H446 0.929 . S
C450 C452 1.378 . S
C450 C454 1.350 . S
C451 C454 1.463 . S
C451 C456 1.350 . S
C451 N459 1.427 . S
C452 H443 0.930 . S
C452 C450 1.378 . S
C452 C453 1.367 . S
C453 C452 1.367 . S
C453 C455 1.433 . S
C454 C450 1.350 . S
C454 C451 1.463 . S
C454 N458 1.427 . S
C455 H445 0.929 . S
C455 C453 1.433 . S
C455 N458 1.384 . S
C456 H447 0.929 . S
C456 C448 1.378 . S
C456 C451 1.350 . S
C457 H444 0.929 . S
C457 C449 1.433 . S
C457 N459 1.384 . S
N458 C454 1.427 . S
N458 C455 1.384 . S
N459 C451 1.427 . S
N459 C457 1.384 . S
H460 C466 0.930 . S
H461 C470 0.930 . S
H462 C475 0.929 . S
H463 C473 0.929 . S
H464 C468 0.929 . S
H465 C474 0.929 . S
C466 H460 0.930 . S
C466 C467 1.367 . S
C466 C474 1.378 . S
C467 C466 1.367 . S
C467 C475 1.433 . S
C468 H464 0.929 . S
C468 C470 1.378 . S
C468 C472 1.350 . S
C469 C472 1.463 . S
C469 C474 1.350 . S
C469 N477 1.427 . S
C470 H461 0.930 . S
C470 C468 1.378 . S
C470 C471 1.367 . S
C471 C470 1.367 . S
C471 C473 1.433 . S
C472 C468 1.350 . S
C472 C469 1.463 . S
C472 N476 1.427 . S
C473 H463 0.929 . S
C473 C471 1.433 . S
C473 N476 1.384 . S
C474 H465 0.929 . S
C474 C466 1.378 . S
C474 C469 1.350 . S
C475 H462 0.929 . S
C475 C467 1.433 . S
C475 N477 1.384 . S
N476 C472 1.427 . S
N476 C473 1.384 . S
N477 C469 1.427 . S
N477 C475 1.384 . S
H478 C484 0.930 . S
H479 C488 0.930 . S
H480 C493 0.929 . S
H481 C491 0.929 . S
H482 C486 0.929 . S
H483 C492 0.929 . S
C484 H478 0.930 . S
C484 C485 1.367 . S
C484 C492 1.378 . S
C485 C484 1.367 . S
C485 C493 1.433 . S
C486 H482 0.929 . S
C486 C488 1.378 . S
C486 C490 1.350 . S
C487 C490 1.463 . S
C487 C492 1.350 . S
C487 N495 1.427 . S
C488 H479 0.930 . S
C488 C486 1.378 . S
C488 C489 1.367 . S
C489 C488 1.367 . S
C489 C491 1.433 . S
C490 C486 1.350 . S
C490 C487 1.463 . S
C490 N494 1.427 . S
C491 H481 0.929 . S
C491 C489 1.433 . S
C491 N494 1.384 . S
C492 H483 0.929 . S
C492 C484 1.378 . S
C492 C487 1.350 . S
C493 H480 0.929 . S
C493 C485 1.433 . S
C493 N495 1.384 . S
N494 C490 1.427 . S
N494 C491 1.384 . S
N495 C487 1.427 . S
N495 C493 1.384 . S
H496 C502 0.930 . S
H497 C506 0.930 . S
H498 C511 0.929 . S
H499 C509 0.929 . S
H500 C504 0.929 . S
H501 C510 0.929 . S
C502 H496 0.930 . S
C502 C503 1.367 . S
C502 C510 1.378 . S
C503 C502 1.367 . S
C503 C511 1.433 . S
C504 H500 0.929 . S
C504 C506 1.378 . S
C504 C508 1.350 . S
C505 C508 1.463 . S
C505 C510 1.350 . S
C505 N513 1.427 . S
C506 H497 0.930 . S
C506 C504 1.378 . S
C506 C507 1.367 . S
C507 C506 1.367 . S
C507 C509 1.433 . S
C508 C504 1.350 . S
C508 C505 1.463 . S
C508 N512 1.427 . S
C509 H499 0.929 . S
C509 C507 1.433 . S
C509 N512 1.384 . S
C510 H501 0.929 . S
C510 C502 1.378 . S
C510 C505 1.350 . S
C511 H498 0.929 . S
C511 C503 1.433 . S
C511 N513 1.384 . S
N512 C508 1.427 . S
N512 C509 1.384 . S
N513 C505 1.427 . S
N513 C511 1.384 . S
H514 C520 0.930 . S
H515 C524 0.930 . S
H516 C529 0.929 . S
H517 C527 0.929 . S
H518 C522 0.929 . S
H519 C528 0.929 . S
C520 H514 0.930 . S
C520 C521 1.367 . S
C520 C528 1.378 . S
C521 C520 1.367 . S
C521 C529 1.433 . S
C522 H518 0.929 . S
C522 C524 1.378 . S
C522 C526 1.350 . S
C523 C526 1.463 . S
C523 C528 1.350 . S
C523 N531 1.427 . S
C524 H515 0.930 . S
C524 C522 1.378 . S
C524 C525 1.367 . S
C525 C524 1.367 . S
C525 C527 1.433 . S
C526 C522 1.350 . S
C526 C523 1.463 . S
C526 N530 1.427 . S
C527 H517 0.929 . S
C527 C525 1.433 . S
C527 N530 1.384 . S
C528 H519 0.929 . S
C528 C520 1.378 . S
C528 C523 1.350 . S
C529 H516 0.929 . S
C529 C521 1.433 . S
C529 N531 1.384 . S
N530 C526 1.427 . S
N530 C527 1.384 . S
N531 C523 1.427 . S
N531 C529 1.384 . S
H532 C538 0.930 . S
H533 C542 0.930 . S
H534 C547 0.929 . S
H535 C545 0.929 . S
H536 C540 0.929 . S
H537 C546 0.929 . S
C538 H532 0.930 . S
C538 C539 1.367 . S
C538 C546 1.378 . S
C539 C538 1.367 . S
C539 C547 1.433 . S
C540 H536 0.929 . S
C540 C542 1.378 . S
C540 C544 1.350 . S
C541 C544 1.463 . S
C541 C546 1.350 . S
C541 N549 1.427 . S
C542 H533 0.930 . S
C542 C540 1.378 . S
C542 C543 1.367 . S
C543 C542 1.367 . S
C543 C545 1.433 . S
C544 C540 1.350 . S
C544 C541 1.463 . S
C544 N548 1.427 . S
C545 H535 0.929 . S
C545 C543 1.433 . S
C545 N548 1.384 . S
C546 H537 0.929 . S
C546 C538 1.378 . S
C546 C541 1.350 . S
C547 H534 0.929 . S
C547 C539 1.433 . S
C547 N549 1.384 . S
N548 C544 1.427 . S
N548 C545 1.384 . S
N549 C541 1.427 . S
N549 C547 1.384 . S
H550 C556 0.930 . S
H551 C560 0.930 . S
H552 C565 0.929 . S
H553 C563 0.929 . S
H554 C558 0.929 . S
H555 C564 0.929 . S
C556 H550 0.930 . S
C556 C557 1.367 . S
C556 C564 1.378 . S
C557 C556 1.367 . S
C557 C565 1.433 . S
C558 H554 0.929 . S
C558 C560 1.378 . S
C558 C562 1.350 . S
C559 C562 1.463 . S
C559 C564 1.350 . S
C559 N567 1.427 . S
C560 H551 0.930 . S
C560 C558 1.378 . S
C560 C561 1.367 . S
C561 C560 1.367 . S
C561 C563 1.433 . S
C562 C558 1.350 . S
C562 C559 1.463 . S
C562 N566 1.427 . S
C563 H553 0.929 . S
C563 C561 1.433 . S
C563 N566 1.384 . S
C564 H555 0.929 . S
C564 C556 1.378 . S
C564 C559 1.350 . S
C565 H552 0.929 . S
C565 C557 1.433 . S
C565 N567 1.384 . S
N566 C562 1.427 . S
N566 C563 1.384 . S
N567 C559 1.427 . S
N567 C565 1.384 . S
H568 C574 0.930 . S
H569 C578 0.930 . S
H570 C583 0.929 . S
H571 C581 0.929 . S
H572 C576 0.929 . S
H573 C582 0.929 . S
C574 H568 0.930 . S
C574 C575 1.367 . S
C574 C582 1.378 . S
C575 C574 1.367 . S
C575 C583 1.433 . S
C576 H572 0.929 . S
C576 C578 1.378 . S
C576 C580 1.350 . S
C577 C580 1.463 . S
C577 C582 1.350 . S
C577 N585 1.427 . S
C578 H569 0.930 . S
C578 C576 1.378 . S
C578 C579 1.367 . S
C579 C578 1.367 . S
C579 C581 1.433 . S
C580 C576 1.350 . S
C580 C577 1.463 . S
C580 N584 1.427 . S
C581 H571 0.929 . S
C581 C579 1.433 . S
C581 N584 1.384 . S
C582 H573 0.929 . S
C582 C574 1.378 . S
C582 C577 1.350 . S
C583 H570 0.929 . S
C583 C575 1.433 . S
C583 N585 1.384 . S
N584 C580 1.427 . S
N584 C581 1.384 . S
N585 C577 1.427 . S
N585 C583 1.384 . S
H586 C592 0.930 . S
H587 C596 0.930 . S
H588 C601 0.929 . S
H589 C599 0.929 . S
H590 C594 0.929 . S
H591 C600 0.929 . S
C592 H586 0.930 . S
C592 C593 1.367 . S
C592 C600 1.378 . S
C593 C592 1.367 . S
C593 C601 1.433 . S
C594 H590 0.929 . S
C594 C596 1.378 . S
C594 C598 1.350 . S
C595 C598 1.463 . S
C595 C600 1.350 . S
C595 N603 1.427 . S
C596 H587 0.930 . S
C596 C594 1.378 . S
C596 C597 1.367 . S
C597 C596 1.367 . S
C597 C599 1.433 . S
C598 C594 1.350 . S
C598 C595 1.463 . S
C598 N602 1.427 . S
C599 H589 0.929 . S
C599 C597 1.433 . S
C599 N602 1.384 . S
C600 H591 0.929 . S
C600 C592 1.378 . S
C600 C595 1.350 . S
C601 H588 0.929 . S
C601 C593 1.433 . S
C601 N603 1.384 . S
N602 C598 1.427 . S
N602 C599 1.384 . S
N603 C595 1.427 . S
N603 C601 1.384 . S
H604 C610 0.930 . S
H605 C614 0.930 . S
H606 C619 0.929 . S
H607 C617 0.929 . S
H608 C612 0.929 . S
H609 C618 0.929 . S
C610 H604 0.930 . S
C610 C611 1.367 . S
C610 C618 1.378 . S
C611 C610 1.367 . S
C611 C619 1.433 . S
C612 H608 0.929 . S
C612 C614 1.378 . S
C612 C616 1.350 . S
C613 C616 1.463 . S
C613 C618 1.350 . S
C613 N621 1.427 . S
C614 H605 0.930 . S
C614 C612 1.378 . S
C614 C615 1.367 . S
C615 C614 1.367 . S
C615 C617 1.433 . S
C616 C612 1.350 . S
C616 C613 1.463 . S
C616 N620 1.427 . S
C617 H607 0.929 . S
C617 C615 1.433 . S
C617 N620 1.384 . S
C618 H609 0.929 . S
C618 C610 1.378 . S
C618 C613 1.350 . S
C619 H606 0.929 . S
C619 C611 1.433 . S
C619 N621 1.384 . S
N620 C616 1.427 . S
N620 C617 1.384 . S
N621 C613 1.427 . S
N621 C619 1.384 . S
H622 C628 0.930 . S
H623 C632 0.930 . S
H624 C637 0.929 . S
H625 C635 0.929 . S
H626 C630 0.929 . S
H627 C636 0.929 . S
C628 H622 0.930 . S
C628 C629 1.367 . S
C628 C636 1.378 . S
C629 C628 1.367 . S
C629 C637 1.433 . S
C630 H626 0.929 . S
C630 C632 1.378 . S
C630 C634 1.350 . S
C631 C634 1.463 . S
C631 C636 1.350 . S
C631 N639 1.427 . S
C632 H623 0.930 . S
C632 C630 1.378 . S
C632 C633 1.367 . S
C633 C632 1.367 . S
C633 C635 1.433 . S
C634 C630 1.350 . S
C634 C631 1.463 . S
C634 N638 1.427 . S
C635 H625 0.929 . S
C635 C633 1.433 . S
C635 N638 1.384 . S
C636 H627 0.929 . S
C636 C628 1.378 . S
C636 C631 1.350 . S
C637 H624 0.929 . S
C637 C629 1.433 . S
C637 N639 1.384 . S
N638 C634 1.427 . S
N638 C635 1.384 . S
N639 C631 1.427 . S
N639 C637 1.384 . S
H640 C646 0.930 . S
H641 C650 0.930 . S
H642 C655 0.929 . S
H643 C653 0.929 . S
H644 C648 0.929 . S
H645 C654 0.929 . S
C646 H640 0.930 . S
C646 C647 1.367 . S
C646 C654 1.378 . S
C647 C646 1.367 . S
C647 C655 1.433 . S
C648 H644 0.929 . S
C648 C650 1.378 . S
C648 C652 1.350 . S
C649 C652 1.463 . S
C649 C654 1.350 . S
C649 N657 1.427 . S
C650 H641 0.930 . S
C650 C648 1.378 . S
C650 C651 1.367 . S
C651 C650 1.367 . S
C651 C653 1.433 . S
C652 C648 1.350 . S
C652 C649 1.463 . S
C652 N656 1.427 . S
C653 H643 0.929 . S
C653 C651 1.433 . S
C653 N656 1.384 . S
C654 H645 0.929 . S
C654 C646 1.378 . S
C654 C649 1.350 . S
C655 H642 0.929 . S
C655 C647 1.433 . S
C655 N657 1.384 . S
N656 C652 1.427 . S
N656 C653 1.384 . S
N657 C649 1.427 . S
N657 C655 1.384 . S
H658 C664 0.930 . S
H659 C668 0.930 . S
H660 C673 0.929 . S
H661 C671 0.929 . S
H662 C666 0.929 . S
H663 C672 0.929 . S
C664 H658 0.930 . S
C664 C665 1.367 . S
C664 C672 1.378 . S
C665 C664 1.367 . S
C665 C673 1.433 . S
C666 H662 0.929 . S
C666 C668 1.378 . S
C666 C670 1.350 . S
C667 C670 1.463 . S
C667 C672 1.350 . S
C667 N675 1.427 . S
C668 H659 0.930 . S
C668 C666 1.378 . S
C668 C669 1.367 . S
C669 C668 1.367 . S
C669 C671 1.433 . S
C670 C666 1.350 . S
C670 C667 1.463 . S
C670 N674 1.427 . S
C671 H661 0.929 . S
C671 C669 1.433 . S
C671 N674 1.384 . S
C672 H663 0.929 . S
C672 C664 1.378 . S
C672 C667 1.350 . S
C673 H660 0.929 . S
C673 C665 1.433 . S
C673 N675 1.384 . S
N674 C670 1.427 . S
N674 C671 1.384 . S
N675 C667 1.427 . S
N675 C673 1.384 . S
H676 C682 0.930 . S
H677 C686 0.930 . S
H678 C691 0.929 . S
H679 C689 0.929 . S
H680 C684 0.929 . S
H681 C690 0.929 . S
C682 H676 0.930 . S
C682 C683 1.367 . S
C682 C690 1.378 . S
C683 C682 1.367 . S
C683 C691 1.433 . S
C684 H680 0.929 . S
C684 C686 1.378 . S
C684 C688 1.350 . S
C685 C688 1.463 . S
C685 C690 1.350 . S
C685 N693 1.427 . S
C686 H677 0.930 . S
C686 C684 1.378 . S
C686 C687 1.367 . S
C687 C686 1.367 . S
C687 C689 1.433 . S
C688 C684 1.350 . S
C688 C685 1.463 . S
C688 N692 1.427 . S
C689 H679 0.929 . S
C689 C687 1.433 . S
C689 N692 1.384 . S
C690 H681 0.929 . S
C690 C682 1.378 . S
C690 C685 1.350 . S
C691 H678 0.929 . S
C691 C683 1.433 . S
C691 N693 1.384 . S
N692 C688 1.427 . S
N692 C689 1.384 . S
N693 C685 1.427 . S
N693 C691 1.384 . S
H694 C700 0.930 . S
H695 C704 0.930 . S
H696 C709 0.929 . S
H697 C707 0.929 . S
H698 C702 0.929 . S
H699 C708 0.929 . S
C700 H694 0.930 . S
C700 C701 1.367 . S
C700 C708 1.378 . S
C701 C700 1.367 . S
C701 C709 1.433 . S
C702 H698 0.929 . S
C702 C704 1.378 . S
C702 C706 1.350 . S
C703 C706 1.463 . S
C703 C708 1.350 . S
C703 N711 1.427 . S
C704 H695 0.930 . S
C704 C702 1.378 . S
C704 C705 1.367 . S
C705 C704 1.367 . S
C705 C707 1.433 . S
C706 C702 1.350 . S
C706 C703 1.463 . S
C706 N710 1.427 . S
C707 H697 0.929 . S
C707 C705 1.433 . S
C707 N710 1.384 . S
C708 H699 0.929 . S
C708 C700 1.378 . S
C708 C703 1.350 . S
C709 H696 0.929 . S
C709 C701 1.433 . S
C709 N711 1.384 . S
N710 C706 1.427 . S
N710 C707 1.384 . S
N711 C703 1.427 . S
N711 C709 1.384 . S
H712 C718 0.930 . S
H713 C722 0.930 . S
H714 C727 0.929 . S
H715 C725 0.929 . S
H716 C720 0.929 . S
H717 C726 0.929 . S
C718 H712 0.930 . S
C718 C719 1.367 . S
C718 C726 1.378 . S
C719 C718 1.367 . S
C719 C727 1.433 . S
C720 H716 0.929 . S
C720 C722 1.378 . S
C720 C724 1.350 . S
C721 C724 1.463 . S
C721 C726 1.350 . S
C721 N729 1.427 . S
C722 H713 0.930 . S
C722 C720 1.378 . S
C722 C723 1.367 . S
C723 C722 1.367 . S
C723 C725 1.433 . S
C724 C720 1.350 . S
C724 C721 1.463 . S
C724 N728 1.427 . S
C725 H715 0.929 . S
C725 C723 1.433 . S
C725 N728 1.384 . S
C726 H717 0.929 . S
C726 C718 1.378 . S
C726 C721 1.350 . S
C727 H714 0.929 . S
C727 C719 1.433 . S
C727 N729 1.384 . S
N728 C724 1.427 . S
N728 C725 1.384 . S
N729 C721 1.427 . S
N729 C727 1.384 . S
H730 C736 0.930 . S
H731 C740 0.930 . S
H732 C745 0.929 . S
H733 C743 0.929 . S
H734 C738 0.929 . S
H735 C744 0.929 . S
C736 H730 0.930 . S
C736 C737 1.367 . S
C736 C744 1.378 . S
C737 C736 1.367 . S
C737 C745 1.433 . S
C738 H734 0.929 . S
C738 C740 1.378 . S
C738 C742 1.350 . S
C739 C742 1.463 . S
C739 C744 1.350 . S
C739 N747 1.427 . S
C740 H731 0.930 . S
C740 C738 1.378 . S
C740 C741 1.367 . S
C741 C740 1.367 . S
C741 C743 1.433 . S
C742 C738 1.350 . S
C742 C739 1.463 . S
C742 N746 1.427 . S
C743 H733 0.929 . S
C743 C741 1.433 . S
C743 N746 1.384 . S
C744 H735 0.929 . S
C744 C736 1.378 . S
C744 C739 1.350 . S
C745 H732 0.929 . S
C745 C737 1.433 . S
C745 N747 1.384 . S
N746 C742 1.427 . S
N746 C743 1.384 . S
N747 C739 1.427 . S
N747 C745 1.384 . S
H748 C754 0.930 . S
H749 C758 0.930 . S
H750 C763 0.929 . S
H751 C761 0.929 . S
H752 C756 0.929 . S
H753 C762 0.929 . S
C754 H748 0.930 . S
C754 C755 1.367 . S
C754 C762 1.378 . S
C755 C754 1.367 . S
C755 C763 1.433 . S
C756 H752 0.929 . S
C756 C758 1.378 . S
C756 C760 1.350 . S
C757 C760 1.463 . S
C757 C762 1.350 . S
C757 N765 1.427 . S
C758 H749 0.930 . S
C758 C756 1.378 . S
C758 C759 1.367 . S
C759 C758 1.367 . S
C759 C761 1.433 . S
C760 C756 1.350 . S
C760 C757 1.463 . S
C760 N764 1.427 . S
C761 H751 0.929 . S
C761 C759 1.433 . S
C761 N764 1.384 . S
C762 H753 0.929 . S
C762 C754 1.378 . S
C762 C757 1.350 . S
C763 H750 0.929 . S
C763 C755 1.433 . S
C763 N765 1.384 . S
N764 C760 1.427 . S
N764 C761 1.384 . S
N765 C757 1.427 . S
N765 C763 1.384 . S
H766 C772 0.930 . S
H767 C776 0.930 . S
H768 C781 0.929 . S
H769 C779 0.929 . S
H770 C774 0.929 . S
H771 C780 0.929 . S
C772 H766 0.930 . S
C772 C773 1.367 . S
C772 C780 1.378 . S
C773 C772 1.367 . S
C773 C781 1.433 . S
C774 H770 0.929 . S
C774 C776 1.378 . S
C774 C778 1.350 . S
C775 C778 1.463 . S
C775 C780 1.350 . S
C775 N783 1.427 . S
C776 H767 0.930 . S
C776 C774 1.378 . S
C776 C777 1.367 . S
C777 C776 1.367 . S
C777 C779 1.433 . S
C778 C774 1.350 . S
C778 C775 1.463 . S
C778 N782 1.427 . S
C779 H769 0.929 . S
C779 C777 1.433 . S
C779 N782 1.384 . S
C780 H771 0.929 . S
C780 C772 1.378 . S
C780 C775 1.350 . S
C781 H768 0.929 . S
C781 C773 1.433 . S
C781 N783 1.384 . S
N782 C778 1.427 . S
N782 C779 1.384 . S
N783 C775 1.427 . S
N783 C781 1.384 . S
H784 C790 0.930 . S
H785 C794 0.930 . S
H786 C799 0.944 . S
H787 C797 0.929 . S
H788 C792 0.929 . S
H789 C798 0.929 . S
C790 H784 0.930 . S
C790 C791 1.367 . S
C790 C798 1.378 . S
C791 C790 1.367 . S
C791 C799 1.433 . S
C792 H788 0.929 . S
C792 C794 1.378 . S
C792 C796 1.350 . S
C793 C796 1.463 1_455 S
C793 C798 1.350 . S
C793 N801 1.427 . S
C794 H785 0.930 . S
C794 C792 1.378 . S
C794 C795 1.367 . S
C795 C794 1.367 . S
C795 C797 1.433 . S
C796 C792 1.350 . S
C796 C793 1.463 1_655 S
C796 N800 1.427 . S
C797 H787 0.929 . S
C797 C795 1.433 . S
C797 N800 1.384 . S
C798 H789 0.929 . S
C798 C790 1.378 . S
C798 C793 1.350 . S
C799 H786 0.944 . S
C799 C791 1.433 . S
C799 N801 1.384 . S
N800 C796 1.427 . S
N800 C797 1.384 . S
N801 C793 1.427 . S
N801 C799 1.384 . S
H802 C808 0.930 . S
H803 C812 0.930 . S
H804 C817 0.929 . S
H805 C815 0.929 . S
H806 C810 0.929 . S
H807 C816 0.929 . S
C808 H802 0.930 . S
C808 C809 1.367 . S
C808 C816 1.378 . S
C809 C808 1.367 . S
C809 C817 1.433 . S
C810 H806 0.929 . S
C810 C812 1.378 . S
C810 C814 1.350 . S
C811 C814 1.463 . S
C811 C816 1.350 . S
C811 N819 1.427 . S
C812 H803 0.930 . S
C812 C810 1.378 . S
C812 C813 1.367 . S
C813 C812 1.367 . S
C813 C815 1.433 . S
C814 C810 1.350 . S
C814 C811 1.463 . S
C814 N818 1.427 . S
C815 H805 0.929 . S
C815 C813 1.433 . S
C815 N818 1.384 . S
C816 H807 0.929 . S
C816 C808 1.378 . S
C816 C811 1.350 . S
C817 H804 0.929 . S
C817 C809 1.433 . S
C817 N819 1.384 . S
N818 C814 1.427 . S
N818 C815 1.384 . S
N819 C811 1.427 . S
N819 C817 1.384 . S
H820 C826 0.930 . S
H821 C830 0.930 . S
H822 C835 0.929 . S
H823 C833 0.929 . S
H824 C828 0.929 . S
H825 C834 0.929 . S
C826 H820 0.930 . S
C826 C827 1.367 . S
C826 C834 1.378 . S
C827 C826 1.367 . S
C827 C835 1.433 . S
C828 H824 0.929 . S
C828 C830 1.378 . S
C828 C832 1.350 . S
C829 C832 1.463 1_655 S
C829 C834 1.350 . S
C829 N837 1.427 . S
C830 H821 0.930 . S
C830 C828 1.378 . S
C830 C831 1.367 . S
C831 C830 1.367 . S
C831 C833 1.433 . S
C832 C828 1.350 . S
C832 C829 1.463 1_455 S
C832 N836 1.427 . S
C833 H823 0.929 . S
C833 C831 1.433 . S
C833 N836 1.384 . S
C834 H825 0.929 . S
C834 C826 1.378 . S
C834 C829 1.350 . S
C835 H822 0.929 . S
C835 C827 1.433 . S
C835 N837 1.384 . S
N836 C832 1.427 . S
N836 C833 1.384 . S
N837 C829 1.427 . S
N837 C835 1.384 . S
H838 C844 0.930 . S
H839 C848 0.930 . S
H840 C853 0.929 . S
H841 C851 0.929 . S
H842 C846 0.929 . S
H843 C852 0.929 . S
C844 H838 0.930 . S
C844 C845 1.367 . S
C844 C852 1.378 . S
C845 C844 1.367 . S
C845 C853 1.433 . S
C846 H842 0.929 . S
C846 C848 1.378 . S
C846 C850 1.350 . S
C847 C850 1.463 . S
C847 C852 1.350 . S
C847 N855 1.427 . S
C848 H839 0.930 . S
C848 C846 1.378 . S
C848 C849 1.367 . S
C849 C848 1.367 . S
C849 C851 1.433 . S
C850 C846 1.350 . S
C850 C847 1.463 . S
C850 N854 1.427 . S
C851 H841 0.929 . S
C851 C849 1.433 . S
C851 N854 1.384 . S
C852 H843 0.929 . S
C852 C844 1.378 . S
C852 C847 1.350 . S
C853 H840 0.929 . S
C853 C845 1.433 . S
C853 N855 1.384 . S
N854 C850 1.427 . S
N854 C851 1.384 . S
N855 C847 1.427 . S
N855 C853 1.384 . S
H856 C862 0.930 . S
H857 C866 0.930 . S
H858 C871 0.929 . S
H859 C869 0.929 . S
H860 C864 0.929 . S
H861 C870 0.929 . S
C862 H856 0.930 . S
C862 C863 1.367 . S
C862 C870 1.378 . S
C863 C862 1.367 . S
C863 C871 1.433 . S
C864 H860 0.929 . S
C864 C866 1.378 . S
C864 C868 1.350 . S
C865 C868 1.463 . S
C865 C870 1.350 . S
C865 N873 1.427 . S
C866 H857 0.930 . S
C866 C864 1.378 . S
C866 C867 1.367 . S
C867 C866 1.367 . S
C867 C869 1.433 . S
C868 C864 1.350 . S
C868 C865 1.463 . S
C868 N872 1.427 . S
C869 H859 0.929 . S
C869 C867 1.433 . S
C869 N872 1.384 . S
C870 H861 0.929 . S
C870 C862 1.378 . S
C870 C865 1.350 . S
C871 H858 0.929 . S
C871 C863 1.433 . S
C871 N873 1.384 . S
N872 C868 1.427 . S
N872 C869 1.384 . S
N873 C865 1.427 . S
N873 C871 1.384 . S
H874 C880 0.930 . S
H875 C884 0.930 . S
H876 C889 0.929 . S
H877 C887 0.929 . S
H878 C882 0.929 . S
H879 C888 0.929 . S
C880 H874 0.930 . S
C880 C881 1.367 . S
C880 C888 1.378 . S
C881 C880 1.367 . S
C881 C889 1.433 . S
C882 H878 0.929 . S
C882 C884 1.378 . S
C882 C886 1.350 . S
C883 C886 1.463 1_655 S
C883 C888 1.350 . S
C883 N891 1.427 . S
C884 H875 0.930 . S
C884 C882 1.378 . S
C884 C885 1.367 . S
C885 C884 1.367 . S
C885 C887 1.433 . S
C886 C882 1.350 . S
C886 C883 1.463 1_455 S
C886 N890 1.427 . S
C887 H877 0.929 . S
C887 C885 1.433 . S
C887 N890 1.384 . S
C888 H879 0.929 . S
C888 C880 1.378 . S
C888 C883 1.350 . S
C889 H876 0.929 . S
C889 C881 1.433 . S
C889 N891 1.384 . S
N890 C886 1.427 . S
N890 C887 1.384 . S
N891 C883 1.427 . S
N891 C889 1.384 . S
H892 C898 0.950 . S
H893 C902 0.930 . S
H894 C907 0.929 . S
H895 C905 0.933 . S
H896 C900 0.929 . S
H897 C906 0.949 . S
C898 H892 0.950 . S
C898 C899 1.367 . S
C898 C906 1.378 . S
C899 C898 1.367 . S
C899 C907 1.433 . S
C900 H896 0.929 . S
C900 C902 1.378 . S
C900 C904 1.350 . S
C901 C904 1.463 . S
C901 C906 1.350 . S
C901 N909 1.427 . S
C902 H893 0.930 . S
C902 C900 1.378 . S
C902 C903 1.367 . S
C903 C902 1.367 . S
C903 C905 1.433 . S
C904 C900 1.350 . S
C904 C901 1.463 . S
C904 N908 1.427 . S
C905 H895 0.933 . S
C905 C903 1.433 . S
C905 N908 1.384 . S
C906 H897 0.949 . S
C906 C898 1.378 . S
C906 C901 1.350 . S
C907 H894 0.929 . S
C907 C899 1.433 . S
C907 N909 1.384 . S
N908 C904 1.427 . S
N908 C905 1.384 . S
N909 C901 1.427 . S
N909 C907 1.384 . S
H910 C916 0.930 . S
H911 C920 0.930 . S
H912 C925 0.929 . S
H913 C923 0.929 . S
H914 C918 0.929 . S
H915 C924 0.929 . S
C916 H910 0.930 . S
C916 C917 1.367 . S
C916 C924 1.378 . S
C917 C916 1.367 . S
C917 C925 1.433 . S
C918 H914 0.929 . S
C918 C920 1.378 . S
C918 C922 1.350 . S
C919 C922 1.463 1_455 S
C919 C924 1.350 . S
C919 N927 1.427 . S
C920 H911 0.930 . S
C920 C918 1.378 . S
C920 C921 1.367 . S
C921 C920 1.367 . S
C921 C923 1.433 . S
C922 C918 1.350 . S
C922 C919 1.463 1_655 S
C922 N926 1.427 . S
C923 H913 0.929 . S
C923 C921 1.433 . S
C923 N926 1.384 . S
C924 H915 0.929 . S
C924 C916 1.378 . S
C924 C919 1.350 . S
C925 H912 0.929 . S
C925 C917 1.433 . S
C925 N927 1.384 . S
N926 C922 1.427 . S
N926 C923 1.384 . S
N927 C919 1.427 . S
N927 C925 1.384 . S
H928 C934 0.930 . S
H929 C938 0.930 . S
H930 C943 0.929 . S
H931 C941 0.929 . S
H932 C936 0.929 . S
H933 C942 0.929 . S
C934 H928 0.930 . S
C934 C935 1.367 1_556 S
C934 C942 1.378 . S
C935 C934 1.367 1_554 S
C935 C943 1.433 . S
C936 H932 0.929 . S
C936 C938 1.378 . S
C936 C940 1.350 1_554 S
C937 C940 1.463 1_544 S
C937 C942 1.350 1_554 S
C937 N945 1.427 . S
C938 H929 0.930 . S
C938 C936 1.378 . S
C938 C939 1.367 1_554 S
C939 C938 1.367 1_556 S
C939 C941 1.433 . S
C940 C936 1.350 1_556 S
C940 C937 1.463 1_566 S
C940 N944 1.427 . S
C941 H931 0.929 . S
C941 C939 1.433 . S
C941 N944 1.384 . S
C942 H933 0.929 . S
C942 C934 1.378 . S
C942 C937 1.350 1_556 S
C943 H930 0.929 . S
C943 C935 1.433 . S
C943 N945 1.384 . S
N944 C940 1.427 . S
N944 C941 1.384 . S
N945 C937 1.427 . S
N945 C943 1.384 . S
H946 C952 0.930 . S
H947 C956 0.930 . S
H948 C961 0.929 . S
H949 C959 0.929 . S
H950 C954 0.929 . S
H951 C960 0.929 . S
C952 H946 0.930 . S
C952 C953 1.367 . S
C952 C960 1.378 . S
C953 C952 1.367 . S
C953 C961 1.433 . S
C954 H950 0.929 . S
C954 C956 1.378 . S
C954 C958 1.350 . S
C955 C958 1.463 1_565 S
C955 C960 1.350 . S
C955 N963 1.427 . S
C956 H947 0.930 . S
C956 C954 1.378 . S
C956 C957 1.367 . S
C957 C956 1.367 . S
C957 C959 1.433 . S
C958 C954 1.350 . S
C958 C955 1.463 1_545 S
C958 N962 1.427 . S
C959 H949 0.929 . S
C959 C957 1.433 . S
C959 N962 1.384 . S
C960 H951 0.929 . S
C960 C952 1.378 . S
C960 C955 1.350 . S
C961 H948 0.929 . S
C961 C953 1.433 . S
C961 N963 1.384 . S
N962 C958 1.427 . S
N962 C959 1.384 . S
N963 C955 1.427 . S
N963 C961 1.384 . S
H964 C970 0.930 . S
H965 C974 0.930 . S
H966 C979 0.929 . S
H967 C977 0.929 . S
H968 C972 0.929 . S
H969 C978 0.929 . S
C970 H964 0.930 . S
C970 C971 1.367 1_556 S
C970 C978 1.378 . S
C971 C970 1.367 1_554 S
C971 C979 1.433 . S
C972 H968 0.929 . S
C972 C974 1.378 . S
C972 C976 1.350 1_554 S
C973 C976 1.463 1_544 S
C973 C978 1.350 1_554 S
C973 N981 1.427 . S
C974 H965 0.930 . S
C974 C972 1.378 . S
C974 C975 1.367 1_554 S
C975 C974 1.367 1_556 S
C975 C977 1.433 . S
C976 C972 1.350 1_556 S
C976 C973 1.463 1_566 S
C976 N980 1.427 . S
C977 H967 0.929 . S
C977 C975 1.433 . S
C977 N980 1.384 . S
C978 H969 0.929 . S
C978 C970 1.378 . S
C978 C973 1.350 1_556 S
C979 H966 0.929 . S
C979 C971 1.433 . S
C979 N981 1.384 . S
N980 C976 1.427 . S
N980 C977 1.384 . S
N981 C973 1.427 . S
N981 C979 1.384 . S
H982 C988 0.930 . S
H983 C992 0.930 . S
H984 C997 0.929 . S
H985 C995 0.929 . S
H986 C990 0.929 . S
H987 C996 0.929 . S
C988 H982 0.930 . S
C988 C989 1.367 . S
C988 C996 1.378 . S
C989 C988 1.367 . S
C989 C997 1.433 . S
C990 H986 0.929 . S
C990 C992 1.378 . S
C990 C994 1.350 . S
C991 C994 1.463 1_545 S
C991 C996 1.350 . S
C991 N999 1.427 . S
C992 H983 0.930 . S
C992 C990 1.378 . S
C992 C993 1.367 . S
C993 C992 1.367 . S
C993 C995 1.433 . S
C994 C990 1.350 . S
C994 C991 1.463 1_565 S
C994 N998 1.427 . S
C995 H985 0.929 . S
C995 C993 1.433 . S
C995 N998 1.384 . S
C996 H987 0.929 . S
C996 C988 1.378 . S
C996 C991 1.350 . S
C997 H984 0.929 . S
C997 C989 1.433 . S
C997 N999 1.384 . S
N998 C994 1.427 . S
N998 C995 1.384 . S
N999 C991 1.427 . S
N999 C997 1.384 . S
H1000 C1006 0.930 . S
H1001 C1010 0.930 . S
H1002 C1015 0.929 . S
H1003 C1013 0.929 . S
H1004 C1008 0.929 . S
H1005 C1014 0.929 . S
C1006 H1000 0.930 . S
C1006 C1007 1.367 . S
C1006 C1014 1.378 . S
C1007 C1006 1.367 . S
C1007 C1015 1.433 . S
C1008 H1004 0.929 . S
C1008 C1010 1.378 . S
C1008 C1012 1.350 . S
C1009 C1012 1.463 1_554 S
C1009 C1014 1.350 . S
C1009 N1017 1.427 1_554 S
C1010 H1001 0.930 . S
C1010 C1008 1.378 . S
C1010 C1011 1.367 . S
C1011 C1010 1.367 . S
C1011 C1013 1.433 . S
C1012 C1008 1.350 . S
C1012 C1009 1.463 1_556 S
C1012 N1016 1.427 1_556 S
C1013 H1003 0.929 . S
C1013 C1011 1.433 . S
C1013 N1016 1.384 1_556 S
C1014 H1005 0.929 . S
C1014 C1006 1.378 . S
C1014 C1009 1.350 . S
C1015 H1002 0.929 . S
C1015 C1007 1.433 . S
C1015 N1017 1.384 1_554 S
N1016 C1012 1.427 1_554 S
N1016 C1013 1.384 1_554 S
N1017 C1009 1.427 1_556 S
N1017 C1015 1.384 1_556 S
H1018 C1024 0.930 . S
H1019 C1028 0.930 . S
H1020 C1033 0.929 . S
H1021 C1031 0.929 . S
H1022 C1026 0.929 . S
H1023 C1032 0.929 . S
C1024 H1018 0.930 . S
C1024 C1025 1.367 . S
C1024 C1032 1.378 . S
C1025 C1024 1.367 . S
C1025 C1033 1.433 . S
C1026 H1022 0.929 . S
C1026 C1028 1.378 . S
C1026 C1030 1.350 . S
C1027 C1030 1.463 . S
C1027 C1032 1.350 . S
C1027 N1035 1.427 . S
C1028 H1019 0.930 . S
C1028 C1026 1.378 . S
C1028 C1029 1.367 . S
C1029 C1028 1.367 . S
C1029 C1031 1.433 . S
C1030 C1026 1.350 . S
C1030 C1027 1.463 . S
C1030 N1034 1.427 . S
C1031 H1021 0.929 . S
C1031 C1029 1.433 . S
C1031 N1034 1.384 . S
C1032 H1023 0.929 . S
C1032 C1024 1.378 . S
C1032 C1027 1.350 . S
C1033 H1020 0.929 . S
C1033 C1025 1.433 . S
C1033 N1035 1.384 . S
N1034 C1030 1.427 . S
N1034 C1031 1.384 . S
N1035 C1027 1.427 . S
N1035 C1033 1.384 . S
H1036 C1042 0.930 . S
H1037 C1046 0.930 . S
H1038 C1051 0.929 . S
H1039 C1049 0.929 . S
H1040 C1044 0.929 . S
H1041 C1050 0.929 . S
C1042 H1036 0.930 . S
C1042 C1043 1.367 . S
C1042 C1050 1.378 . S
C1043 C1042 1.367 . S
C1043 C1051 1.433 1_556 S
C1044 H1040 0.929 . S
C1044 C1046 1.378 . S
C1044 C1048 1.350 . S
C1045 C1048 1.463 1_556 S
C1045 C1050 1.350 . S
C1045 N1053 1.427 1_556 S
C1046 H1037 0.930 . S
C1046 C1044 1.378 . S
C1046 C1047 1.367 . S
C1047 C1046 1.367 . S
C1047 C1049 1.433 1_554 S
C1048 C1044 1.350 . S
C1048 C1045 1.463 1_554 S
C1048 N1052 1.427 1_554 S
C1049 H1039 0.929 . S
C1049 C1047 1.433 1_556 S
C1049 N1052 1.384 . S
C1050 H1041 0.929 . S
C1050 C1042 1.378 . S
C1050 C1045 1.350 . S
C1051 H1038 0.929 . S
C1051 C1043 1.433 1_554 S
C1051 N1053 1.384 . S
N1052 C1048 1.427 1_556 S
N1052 C1049 1.384 . S
N1053 C1045 1.427 1_554 S
N1053 C1051 1.384 . S
H1054 C1060 0.930 . S
H1055 C1064 0.930 . S
H1056 C1069 0.929 . S
H1057 C1067 0.929 . S
H1058 C1062 0.929 . S
H1059 C1068 0.929 . S
C1060 H1054 0.930 . S
C1060 C1061 1.367 . S
C1060 C1068 1.378 . S
C1061 C1060 1.367 . S
C1061 C1069 1.433 . S
C1062 H1058 0.929 . S
C1062 C1064 1.378 . S
C1062 C1066 1.350 . S
C1063 C1066 1.463 . S
C1063 C1068 1.350 . S
C1063 N1071 1.427 . S
C1064 H1055 0.930 . S
C1064 C1062 1.378 . S
C1064 C1065 1.367 . S
C1065 C1064 1.367 . S
C1065 C1067 1.433 . S
C1066 C1062 1.350 . S
C1066 C1063 1.463 . S
C1066 N1070 1.427 . S
C1067 H1057 0.929 . S
C1067 C1065 1.433 . S
C1067 N1070 1.384 . S
C1068 H1059 0.929 . S
C1068 C1060 1.378 . S
C1068 C1063 1.350 . S
C1069 H1056 0.929 . S
C1069 C1061 1.433 . S
C1069 N1071 1.384 . S
N1070 C1066 1.427 . S
N1070 C1067 1.384 . S
N1071 C1063 1.427 . S
N1071 C1069 1.384 . S
H1072 C1078 0.930 . S
H1073 C1082 0.930 . S
H1074 C1087 0.929 1_556 S
H1075 C1085 0.929 1_554 S
H1076 C1080 0.929 . S
H1077 C1086 0.929 . S
C1078 H1072 0.930 . S
C1078 C1079 1.367 . S
C1078 C1086 1.378 . S
C1079 C1078 1.367 . S
C1079 C1087 1.433 . S
C1080 H1076 0.929 . S
C1080 C1082 1.378 . S
C1080 C1084 1.350 . S
C1081 C1084 1.463 1_554 S
C1081 C1086 1.350 . S
C1081 N1089 1.427 1_554 S
C1082 H1073 0.930 . S
C1082 C1080 1.378 . S
C1082 C1083 1.367 . S
C1083 C1082 1.367 . S
C1083 C1085 1.433 . S
C1084 C1080 1.350 . S
C1084 C1081 1.463 1_556 S
C1084 N1088 1.427 1_556 S
C1085 H1075 0.929 1_556 S
C1085 C1083 1.433 . S
C1085 N1088 1.384 1_556 S
C1086 H1077 0.929 . S
C1086 C1078 1.378 . S
C1086 C1081 1.350 . S
C1087 H1074 0.929 1_554 S
C1087 C1079 1.433 . S
C1087 N1089 1.384 1_554 S
N1088 C1084 1.427 1_554 S
N1088 C1085 1.384 1_554 S
N1089 C1081 1.427 1_556 S
N1089 C1087 1.384 1_556 S
H1090 C1096 0.930 . S
H1091 C1100 0.930 . S
H1092 C1105 0.929 . S
H1093 C1103 0.929 . S
H1094 C1098 0.929 . S
H1095 C1104 0.929 . S
C1096 H1090 0.930 . S
C1096 C1097 1.367 . S
C1096 C1104 1.378 . S
C1097 C1096 1.367 . S
C1097 C1105 1.433 . S
C1098 H1094 0.929 . S
C1098 C1100 1.378 . S
C1098 C1102 1.350 . S
C1099 C1102 1.463 . S
C1099 C1104 1.350 . S
C1099 N1107 1.427 . S
C1100 H1091 0.930 . S
C1100 C1098 1.378 . S
C1100 C1101 1.367 . S
C1101 C1100 1.367 . S
C1101 C1103 1.433 . S
C1102 C1098 1.350 . S
C1102 C1099 1.463 . S
C1102 N1106 1.427 . S
C1103 H1093 0.929 . S
C1103 C1101 1.433 . S
C1103 N1106 1.384 . S
C1104 H1095 0.929 . S
C1104 C1096 1.378 . S
C1104 C1099 1.350 . S
C1105 H1092 0.929 . S
C1105 C1097 1.433 . S
C1105 N1107 1.384 . S
N1106 C1102 1.427 . S
N1106 C1103 1.384 . S
N1107 C1099 1.427 . S
N1107 C1105 1.384 . S
H1108 C1114 0.930 . S
H1109 C1118 0.930 . S
H1110 C1123 0.929 . S
H1111 C1121 0.929 . S
H1112 C1116 0.929 . S
H1113 C1122 0.929 . S
C1114 H1108 0.930 . S
C1114 C1115 1.367 . S
C1114 C1122 1.378 . S
C1115 C1114 1.367 . S
C1115 C1123 1.433 . S
C1116 H1112 0.929 . S
C1116 C1118 1.378 . S
C1116 C1120 1.350 . S
C1117 C1120 1.463 1_556 S
C1117 C1122 1.350 . S
C1117 N1125 1.427 . S
C1118 H1109 0.930 . S
C1118 C1116 1.378 . S
C1118 C1119 1.367 . S
C1119 C1118 1.367 . S
C1119 C1121 1.433 . S
C1120 C1116 1.350 . S
C1120 C1117 1.463 1_554 S
C1120 N1124 1.427 . S
C1121 H1111 0.929 . S
C1121 C1119 1.433 . S
C1121 N1124 1.384 . S
C1122 H1113 0.929 . S
C1122 C1114 1.378 . S
C1122 C1117 1.350 . S
C1123 H1110 0.929 . S
C1123 C1115 1.433 . S
C1123 N1125 1.384 . S
N1124 C1120 1.427 . S
N1124 C1121 1.384 . S
N1125 C1117 1.427 . S
N1125 C1123 1.384 . S
H1126 C1132 0.930 . S
H1127 C1136 0.930 . S
H1128 C1141 0.929 . S
H1129 C1139 0.929 . S
H1130 C1134 0.929 . S
H1131 C1140 0.929 . S
C1132 H1126 0.930 . S
C1132 C1133 1.367 . S
C1132 C1140 1.378 . S
C1133 C1132 1.367 . S
C1133 C1141 1.433 . S
C1134 H1130 0.929 . S
C1134 C1136 1.378 . S
C1134 C1138 1.350 . S
C1135 C1138 1.463 . S
C1135 C1140 1.350 . S
C1135 N1143 1.427 . S
C1136 H1127 0.930 . S
C1136 C1134 1.378 . S
C1136 C1137 1.367 . S
C1137 C1136 1.367 . S
C1137 C1139 1.433 . S
C1138 C1134 1.350 . S
C1138 C1135 1.463 . S
C1138 N1142 1.427 . S
C1139 H1129 0.929 . S
C1139 C1137 1.433 . S
C1139 N1142 1.384 . S
C1140 H1131 0.929 . S
C1140 C1132 1.378 . S
C1140 C1135 1.350 . S
C1141 H1128 0.929 . S
C1141 C1133 1.433 . S
C1141 N1143 1.384 . S
N1142 C1138 1.427 . S
N1142 C1139 1.384 . S
N1143 C1135 1.427 . S
N1143 C1141 1.384 . S
H1144 C1150 0.930 . S
H1145 C1154 0.930 . S
H1146 C1159 0.929 1_554 S
H1147 C1157 0.929 1_556 S
H1148 C1152 0.929 . S
H1149 C1158 0.929 . S
C1150 H1144 0.930 . S
C1150 C1151 1.367 . S
C1150 C1158 1.378 . S
C1151 C1150 1.367 . S
C1151 C1159 1.433 . S
C1152 H1148 0.929 . S
C1152 C1154 1.378 . S
C1152 C1156 1.350 . S
C1153 C1156 1.463 1_556 S
C1153 C1158 1.350 . S
C1153 N1161 1.427 1_556 S
C1154 H1145 0.930 . S
C1154 C1152 1.378 . S
C1154 C1155 1.367 . S
C1155 C1154 1.367 . S
C1155 C1157 1.433 . S
C1156 C1152 1.350 . S
C1156 C1153 1.463 1_554 S
C1156 N1160 1.427 1_554 S
C1157 H1147 0.929 1_554 S
C1157 C1155 1.433 . S
C1157 N1160 1.384 1_554 S
C1158 H1149 0.929 . S
C1158 C1150 1.378 . S
C1158 C1153 1.350 . S
C1159 H1146 0.929 1_556 S
C1159 C1151 1.433 . S
C1159 N1161 1.384 1_556 S
N1160 C1156 1.427 1_556 S
N1160 C1157 1.384 1_556 S
N1161 C1153 1.427 1_554 S
N1161 C1159 1.384 1_554 S
H1162 C1168 0.930 . S
H1163 C1172 0.930 . S
H1164 C1177 0.929 . S
H1165 C1175 0.929 . S
H1166 C1170 0.929 . S
H1167 C1176 0.929 . S
C1168 H1162 0.930 . S
C1168 C1169 1.367 . S
C1168 C1176 1.378 . S
C1169 C1168 1.367 . S
C1169 C1177 1.433 . S
C1170 H1166 0.929 . S
C1170 C1172 1.378 . S
C1170 C1174 1.350 . S
C1171 C1174 1.463 . S
C1171 C1176 1.350 . S
C1171 N1179 1.427 . S
C1172 H1163 0.930 . S
C1172 C1170 1.378 . S
C1172 C1173 1.367 . S
C1173 C1172 1.367 . S
C1173 C1175 1.433 . S
C1174 C1170 1.350 . S
C1174 C1171 1.463 . S
C1174 N1178 1.427 . S
C1175 H1165 0.929 . S
C1175 C1173 1.433 . S
C1175 N1178 1.384 . S
C1176 H1167 0.929 . S
C1176 C1168 1.378 . S
C1176 C1171 1.350 . S
C1177 H1164 0.929 . S
C1177 C1169 1.433 . S
C1177 N1179 1.384 . S
N1178 C1174 1.427 . S
N1178 C1175 1.384 . S
N1179 C1171 1.427 . S
N1179 C1177 1.384 . S
H1180 C1186 0.930 . S
H1181 C1190 0.930 . S
H1182 C1195 0.929 . S
H1183 C1193 0.929 . S
H1184 C1188 0.929 . S
H1185 C1194 0.929 . S
C1186 H1180 0.930 . S
C1186 C1187 1.367 . S
C1186 C1194 1.378 1_556 S
C1187 C1186 1.367 . S
C1187 C1195 1.433 . S
C1188 H1184 0.929 . S
C1188 C1190 1.378 1_556 S
C1188 C1192 1.350 1_556 S
C1189 C1192 1.463 1_556 S
C1189 C1194 1.350 1_556 S
C1189 N1197 1.427 . S
C1190 H1181 0.930 . S
C1190 C1188 1.378 1_554 S
C1190 C1191 1.367 . S
C1191 C1190 1.367 . S
C1191 C1193 1.433 . S
C1192 C1188 1.350 1_554 S
C1192 C1189 1.463 1_554 S
C1192 N1196 1.427 . S
C1193 H1183 0.929 . S
C1193 C1191 1.433 . S
C1193 N1196 1.384 . S
C1194 H1185 0.929 . S
C1194 C1186 1.378 1_554 S
C1194 C1189 1.350 1_554 S
C1195 H1182 0.929 . S
C1195 C1187 1.433 . S
C1195 N1197 1.384 . S
N1196 C1192 1.427 . S
N1196 C1193 1.384 . S
N1197 C1189 1.427 . S
N1197 C1195 1.384 . S
H1198 C1204 0.930 . S
H1199 C1208 0.930 . S
H1200 C1213 0.929 . S
H1201 C1211 0.929 . S
H1202 C1206 0.929 . S
H1203 C1212 0.929 . S
C1204 H1198 0.930 . S
C1204 C1205 1.367 . S
C1204 C1212 1.378 . S
C1205 C1204 1.367 . S
C1205 C1213 1.433 . S
C1206 H1202 0.929 . S
C1206 C1208 1.378 . S
C1206 C1210 1.350 . S
C1207 C1210 1.463 . S
C1207 C1212 1.350 . S
C1207 N1215 1.427 . S
C1208 H1199 0.930 . S
C1208 C1206 1.378 . S
C1208 C1209 1.367 . S
C1209 C1208 1.367 . S
C1209 C1211 1.433 . S
C1210 C1206 1.350 . S
C1210 C1207 1.463 . S
C1210 N1214 1.427 . S
C1211 H1201 0.929 . S
C1211 C1209 1.433 . S
C1211 N1214 1.384 . S
C1212 H1203 0.929 . S
C1212 C1204 1.378 . S
C1212 C1207 1.350 . S
C1213 H1200 0.929 . S
C1213 C1205 1.433 . S
C1213 N1215 1.384 . S
N1214 C1210 1.427 . S
N1214 C1211 1.384 . S
N1215 C1207 1.427 . S
N1215 C1213 1.384 . S
C359 C8 1.582 . S
C363 C70 1.584 . S
C377 C52 1.582 . S
C381 C30 1.582 . S
C395 C158 1.583 . S
C399 C96 1.582 . S
C413 C114 1.583 . S
C417 C136 1.582 . S
C431 C246 1.582 . S
C435 C184 1.582 . S
C449 C228 1.584 . S
C453 C206 1.582 . S
C467 C272 1.583 . S
C471 C334 1.583 . S
C485 C312 1.582 . S
C489 C290 1.584 . S
C503 C5 1.505 . S
C507 C336 1.608 . S
C521 C27 1.505 . S
C525 C314 1.609 . S
C539 C292 1.605 . S
C543 C49 1.497 . S
C557 C271 1.609 . S
C561 C75 1.498 . S
C575 C94 1.487 . S
C579 C247 1.607 . S
C593 C117 1.499 . S
C597 C229 1.605 . S
C611 C207 1.608 . S
C615 C139 1.505 . S
C629 C185 1.605 . S
C633 C161 1.494 . S
C647 C181 1.486 . S
C651 C160 1.605 . S
C665 C203 1.486 . S
C669 C138 1.605 . S
C683 C225 1.496 . S
C687 C116 1.605 . S
C701 C251 1.505 . S
C705 C95 1.608 . S
C719 C71 1.609 . S
C723 C270 1.504 . S
C737 C53 1.608 . S
C741 C293 1.505 . S
C755 C315 1.500 . S
C759 C31 1.606 . S
C773 C337 1.487 . S
C777 C9 1.604 . S
C791 C6 1.432 . S
C795 C141 1.439 . S
C809 C28 1.433 . S
C813 C163 1.438 . S
C827 C93 1.437 . S
C831 C50 1.434 . S
C845 C73 1.441 . S
C849 C119 1.431 . S
C863 C182 1.434 . S
C867 C317 1.438 . S
C881 C204 1.431 . S
C885 C339 1.441 . S
C899 C226 1.440 . S
C903 C269 1.432 . S
C917 C295 1.440 . S
C921 C249 1.432 . S
C935 C4 1.526 . S
C939 C48 1.530 . S
C953 C26 1.529 . S
C957 C74 1.527 . S
C971 C140 1.530 . S
C975 C92 1.526 . S
C989 C118 1.520 . S
C993 C162 1.530 . S
C1007 C180 1.529 . S
C1011 C224 1.519 . S
C1025 C250 1.528 . S
C1029 C202 1.519 . S
C1043 C268 1.521 . S
C1047 C316 1.522 . S
C1061 C294 1.523 . S
C1065 C338 1.520 . S
C1079 C7 0.955 . S
C1083 C273 0.955 . S
C1097 C29 0.926 . S
C1101 C291 0.926 . S
C1115 C51 0.954 . S
C1119 C313 0.954 . S
C1133 C72 0.927 . S
C1137 C335 0.927 . S
C1151 C97 0.956 . S
C1155 C183 0.956 . S
C1169 C205 0.956 . S
C1173 C115 0.956 . S
C1187 C227 0.926 . S
C1191 C137 0.926 . S
C1205 C248 0.940 . S
C1209 C159 0.940 . S
