# Generated by pormake.
# Topology unv, (4)-cn, num edge types: 1
# Building blocks:
#     Node 0, Type 0, BuildingBlock: QUQFOY_clean_sbu_1, # of connection points: 4
#     Node 1, Type 0, BuildingBlock: QUQFOY_clean_sbu_1, # of connection points: 4
#     Node 2, Type 0, BuildingBlock: QUQFOY_clean_sbu_1, # of connection points: 4
#     Node 3, Type 0, BuildingBlock: QUQFOY_clean_sbu_1, # of connection points: 4
#     Node 4, Type 0, BuildingBlock: QUQFOY_clean_sbu_1, # of connection points: 4
#     Node 5, Type 0, BuildingBlock: QUQFOY_clean_sbu_1, # of connection points: 4
#     Node 6, Type 0, BuildingBlock: QUQFOY_clean_sbu_1, # of connection points: 4
#     Node 7, Type 0, BuildingBlock: QUQFOY_clean_sbu_1, # of connection points: 4
#     Node 8, Type 0, BuildingBlock: QUQFOY_clean_sbu_1, # of connection points: 4
#     Node 9, Type 0, BuildingBlock: QUQFOY_clean_sbu_1, # of connection points: 4
#     Node 10, Type 0, BuildingBlock: QUQFOY_clean_sbu_1, # of connection points: 4
#     Node 11, Type 0, BuildingBlock: QUQFOY_clean_sbu_1, # of connection points: 4
#     Node 12, Type 0, BuildingBlock: QUQFOY_clean_sbu_1, # of connection points: 4
#     Node 13, Type 0, BuildingBlock: QUQFOY_clean_sbu_1, # of connection points: 4
#     Node 14, Type 0, BuildingBlock: QUQFOY_clean_sbu_1, # of connection points: 4
#     Node 15, Type 0, BuildingBlock: QUQFOY_clean_sbu_1, # of connection points: 4
#     Node 16, Type 0, BuildingBlock: QUQFOY_clean_sbu_1, # of connection points: 4
#     Node 17, Type 0, BuildingBlock: QUQFOY_clean_sbu_1, # of connection points: 4
#     Node 18, Type 0, BuildingBlock: QUQFOY_clean_sbu_1, # of connection points: 4
#     Node 19, Type 0, BuildingBlock: QUQFOY_clean_sbu_1, # of connection points: 4
#     Node 20, Type 0, BuildingBlock: QUQFOY_clean_sbu_1, # of connection points: 4
#     Node 21, Type 0, BuildingBlock: QUQFOY_clean_sbu_1, # of connection points: 4
#     Node 22, Type 0, BuildingBlock: QUQFOY_clean_sbu_1, # of connection points: 4
#     Node 23, Type 0, BuildingBlock: QUQFOY_clean_sbu_1, # of connection points: 4
#     Edge 24, Type (0, 0), BuildingBlock: TEMPAE_clean_linker_10, # of connection points: 2
#     Edge 25, Type (0, 0), BuildingBlock: TEMPAE_clean_linker_10, # of connection points: 2
#     Edge 26, Type (0, 0), BuildingBlock: TEMPAE_clean_linker_10, # of connection points: 2
#     Edge 27, Type (0, 0), BuildingBlock: TEMPAE_clean_linker_10, # of connection points: 2
#     Edge 28, Type (0, 0), BuildingBlock: TEMPAE_clean_linker_10, # of connection points: 2
#     Edge 29, Type (0, 0), BuildingBlock: TEMPAE_clean_linker_10, # of connection points: 2
#     Edge 30, Type (0, 0), BuildingBlock: TEMPAE_clean_linker_10, # of connection points: 2
#     Edge 31, Type (0, 0), BuildingBlock: TEMPAE_clean_linker_10, # of connection points: 2
#     Edge 32, Type (0, 0), BuildingBlock: TEMPAE_clean_linker_10, # of connection points: 2
#     Edge 33, Type (0, 0), BuildingBlock: TEMPAE_clean_linker_10, # of connection points: 2
#     Edge 34, Type (0, 0), BuildingBlock: TEMPAE_clean_linker_10, # of connection points: 2
#     Edge 35, Type (0, 0), BuildingBlock: TEMPAE_clean_linker_10, # of connection points: 2
#     Edge 36, Type (0, 0), BuildingBlock: TEMPAE_clean_linker_10, # of connection points: 2
#     Edge 37, Type (0, 0), BuildingBlock: TEMPAE_clean_linker_10, # of connection points: 2
#     Edge 38, Type (0, 0), BuildingBlock: TEMPAE_clean_linker_10, # of connection points: 2
#     Edge 39, Type (0, 0), BuildingBlock: TEMPAE_clean_linker_10, # of connection points: 2
#     Edge 40, Type (0, 0), BuildingBlock: TEMPAE_clean_linker_10, # of connection points: 2
#     Edge 41, Type (0, 0), BuildingBlock: TEMPAE_clean_linker_10, # of connection points: 2
#     Edge 42, Type (0, 0), BuildingBlock: TEMPAE_clean_linker_10, # of connection points: 2
#     Edge 43, Type (0, 0), BuildingBlock: TEMPAE_clean_linker_10, # of connection points: 2
#     Edge 44, Type (0, 0), BuildingBlock: TEMPAE_clean_linker_10, # of connection points: 2
#     Edge 45, Type (0, 0), BuildingBlock: TEMPAE_clean_linker_10, # of connection points: 2
#     Edge 46, Type (0, 0), BuildingBlock: TEMPAE_clean_linker_10, # of connection points: 2
#     Edge 47, Type (0, 0), BuildingBlock: TEMPAE_clean_linker_10, # of connection points: 2
#     Edge 48, Type (0, 0), BuildingBlock: TEMPAE_clean_linker_10, # of connection points: 2
#     Edge 49, Type (0, 0), BuildingBlock: TEMPAE_clean_linker_10, # of connection points: 2
#     Edge 50, Type (0, 0), BuildingBlock: TEMPAE_clean_linker_10, # of connection points: 2
#     Edge 51, Type (0, 0), BuildingBlock: TEMPAE_clean_linker_10, # of connection points: 2
#     Edge 52, Type (0, 0), BuildingBlock: TEMPAE_clean_linker_10, # of connection points: 2
#     Edge 53, Type (0, 0), BuildingBlock: TEMPAE_clean_linker_10, # of connection points: 2
#     Edge 54, Type (0, 0), BuildingBlock: TEMPAE_clean_linker_10, # of connection points: 2
#     Edge 55, Type (0, 0), BuildingBlock: TEMPAE_clean_linker_10, # of connection points: 2
#     Edge 56, Type (0, 0), BuildingBlock: TEMPAE_clean_linker_10, # of connection points: 2
#     Edge 57, Type (0, 0), BuildingBlock: TEMPAE_clean_linker_10, # of connection points: 2
#     Edge 58, Type (0, 0), BuildingBlock: TEMPAE_clean_linker_10, # of connection points: 2
#     Edge 59, Type (0, 0), BuildingBlock: TEMPAE_clean_linker_10, # of connection points: 2
#     Edge 60, Type (0, 0), BuildingBlock: TEMPAE_clean_linker_10, # of connection points: 2
#     Edge 61, Type (0, 0), BuildingBlock: TEMPAE_clean_linker_10, # of connection points: 2
#     Edge 62, Type (0, 0), BuildingBlock: TEMPAE_clean_linker_10, # of connection points: 2
#     Edge 63, Type (0, 0), BuildingBlock: TEMPAE_clean_linker_10, # of connection points: 2
#     Edge 64, Type (0, 0), BuildingBlock: TEMPAE_clean_linker_10, # of connection points: 2
#     Edge 65, Type (0, 0), BuildingBlock: TEMPAE_clean_linker_10, # of connection points: 2
#     Edge 66, Type (0, 0), BuildingBlock: TEMPAE_clean_linker_10, # of connection points: 2
#     Edge 67, Type (0, 0), BuildingBlock: TEMPAE_clean_linker_10, # of connection points: 2
#     Edge 68, Type (0, 0), BuildingBlock: TEMPAE_clean_linker_10, # of connection points: 2
#     Edge 69, Type (0, 0), BuildingBlock: TEMPAE_clean_linker_10, # of connection points: 2
#     Edge 70, Type (0, 0), BuildingBlock: TEMPAE_clean_linker_10, # of connection points: 2
#     Edge 71, Type (0, 0), BuildingBlock: TEMPAE_clean_linker_10, # of connection points: 2
# Relax obj value: 0.133
# Max RMSD: 0.148
# Mean RMSD: 0.122
data_MOF--net-unv--node1-QUQFOY_clean_sbu_1--edge1-TEMPAE_clean_linker_10
_symmetry_space_group_name_H-M    P1
_symmetry_Int_Tables_number       1
_symmetry_cell_setting            triclinic
loop_
_symmetry_equiv_pos_as_xyz
'x, y, z'
_cell_length_a     52.376183
_cell_length_b     52.368994
_cell_length_c     52.399609
_cell_angle_alpha  89.984155
_cell_angle_beta   89.940667
_cell_angle_gamma 89.978322
loop_
_atom_site_label
_atom_site_type_symbol
_atom_site_fract_x
_atom_site_fract_y
_atom_site_fract_z
_atom_type_partial_charge
O0 O 0.03254 0.10869 0.42763 0.0
Cd1 Cd 0.00083 0.1141 0.40512 0.0
Cd2 Cd 0.02157 0.0717 0.37785 0.0
O3 O 0.04944 0.07732 0.40504 0.0
O4 O 0.98722 0.14812 0.41514 0.0
O5 O 0.00184 0.13983 0.37641 0.0
C6 C 0.9923 0.15602 0.3924 0.0
C7 C 0.03438 0.05186 0.33967 0.0
C8 C 0.05005 0.09227 0.42415 0.0
C9 C 0.97031 0.06587 0.40485 0.0
O10 O 0.98797 0.05651 0.39114 0.0
O11 O 0.97125 0.08896 0.41223 0.0
O12 O 0.03612 0.04056 0.36133 0.0
O13 O 0.02614 0.07507 0.3395 0.0
O14 O 0.94626 0.39415 0.42558 0.0
Cd15 Cd 0.97562 0.38843 0.4 0.0
Cd16 Cd 0.95123 0.42964 0.37498 0.0
O17 O 0.92579 0.42455 0.4047 0.0
O18 O 0.99068 0.35497 0.40983 0.0
O19 O 0.97162 0.36144 0.37275 0.0
C20 C 0.98311 0.34604 0.38821 0.0
C21 C 0.93685 0.44465 0.33561 0.0
C22 C 0.92775 0.40975 0.42384 0.0
C23 C 0.00549 0.43672 0.39404 0.0
O24 O 0.98578 0.44599 0.3835 0.0
O25 O 0.00581 0.41379 0.40195 0.0
O26 O 0.93472 0.45811 0.35601 0.0
O27 O 0.94563 0.42171 0.3377 0.0
O28 O 0.00973 0.89508 0.09505 0.0
Cd29 Cd 0.98455 0.894 0.12506 0.0
Cd30 Cd 0.0161 0.92923 0.14424 0.0
O31 O 0.03996 0.91583 0.1156 0.0
O32 O 0.96815 0.8599 0.12402 0.0
O33 O 0.9938 0.87231 0.15526 0.0
C34 C 0.98028 0.85451 0.14478 0.0
C35 C 0.03253 0.94342 0.18311 0.0
C36 C 0.0323 0.90389 0.09591 0.0
C37 C 0.96293 0.94528 0.12716 0.0
O38 O 0.98548 0.95156 0.13345 0.0
O39 O 0.95696 0.92196 0.12432 0.0
O40 O 0.03771 0.95492 0.16204 0.0
O41 O 0.01936 0.9226 0.18199 0.0
O42 O 0.9749 0.62264 0.10606 0.0
Cd43 Cd 0.00333 0.62682 0.13274 0.0
Cd44 Cd 0.98144 0.58052 0.15269 0.0
O45 O 0.95833 0.58704 0.12148 0.0
O46 O 0.01594 0.66202 0.12653 0.0
O47 O 0.99685 0.6506 0.1624 0.0
C48 C 0.00696 0.66834 0.14854 0.0
C49 C 0.96246 0.55838 0.18661 0.0
C50 C 0.95864 0.60474 0.10489 0.0
C51 C 0.03697 0.58045 0.13551 0.0
O52 O 0.01828 0.56891 0.14575 0.0
O53 O 0.03505 0.60357 0.1284 0.0
O54 O 0.96586 0.54792 0.16472 0.0
O55 O 0.96938 0.58186 0.18939 0.0
O56 O 0.41728 0.02838 0.10445 0.0
Cd57 Cd 0.39001 0.00038 0.10753 0.0
Cd58 Cd 0.36842 0.02697 0.06707 0.0
O59 O 0.39648 0.05291 0.07728 0.0
O60 O 0.39479 0.98547 0.14201 0.0
O61 O 0.35975 0.00615 0.13059 0.0
C62 C 0.37266 0.99443 0.14805 0.0
C63 C 0.33075 0.04235 0.04854 0.0
C64 C 0.41568 0.04887 0.09158 0.0
C65 C 0.38914 0.97307 0.05835 0.0
O66 O 0.37997 0.99368 0.04945 0.0
O67 O 0.39385 0.97078 0.082 0.0
O68 O 0.35251 0.04482 0.03747 0.0
O69 O 0.33037 0.03224 0.07101 0.0
O70 O 0.57636 0.48745 0.10062 0.0
Cd71 Cd 0.6036 0.51531 0.10506 0.0
Cd72 Cd 0.62715 0.4911 0.06467 0.0
O73 O 0.59677 0.46657 0.07022 0.0
O74 O 0.60018 0.52779 0.1406 0.0
O75 O 0.63418 0.50683 0.12656 0.0
C76 C 0.62203 0.5174 0.14529 0.0
C77 C 0.66525 0.47466 0.04814 0.0
C78 C 0.57771 0.46891 0.08509 0.0
C79 C 0.60868 0.54576 0.05774 0.0
O80 O 0.61915 0.52593 0.04859 0.0
O81 O 0.60088 0.54623 0.08069 0.0
O82 O 0.64437 0.47412 0.03532 0.0
O83 O 0.66439 0.48334 0.07119 0.0
O84 O 0.40492 0.96518 0.37951 0.0
Cd85 Cd 0.37807 0.99374 0.37751 0.0
Cd86 Cd 0.35789 0.96734 0.42103 0.0
O87 O 0.38843 0.94401 0.41208 0.0
O88 O 0.38514 0.00996 0.34397 0.0
O89 O 0.34911 0.98966 0.35239 0.0
C90 C 0.36334 0.00168 0.3362 0.0
C91 C 0.32223 0.94867 0.44054 0.0
C92 C 0.40558 0.94664 0.39509 0.0
C93 C 0.37583 0.02229 0.42706 0.0
O94 O 0.36621 0.00228 0.43676 0.0
O95 O 0.38191 0.02314 0.40359 0.0
O96 O 0.34417 0.94897 0.45146 0.0
O97 O 0.32053 0.95809 0.41784 0.0
O98 O 0.58555 0.51332 0.37845 0.0
Cd99 Cd 0.61059 0.48398 0.3714 0.0
Cd100 Cd 0.63691 0.50451 0.41217 0.0
O101 O 0.60705 0.53047 0.41039 0.0
O102 O 0.60383 0.47323 0.33579 0.0
O103 O 0.64027 0.49084 0.34799 0.0
C104 C 0.6261 0.48195 0.32986 0.0
C105 C 0.67641 0.51791 0.42853 0.0
C106 C 0.58778 0.53028 0.39561 0.0
C107 C 0.61546 0.45059 0.41671 0.0
O108 O 0.6281 0.46895 0.42614 0.0
O109 O 0.6063 0.45214 0.39433 0.0
O110 O 0.65611 0.5172 0.4423 0.0
O111 O 0.67415 0.51254 0.4046 0.0
O112 O 0.10875 0.42837 0.03642 0.0
Cd113 Cd 0.1085 0.40077 0.008 0.0
Cd114 Cd 0.07227 0.38208 0.03771 0.0
O115 O 0.08668 0.40637 0.06472 0.0
O116 O 0.14122 0.40519 0.98937 0.0
O117 O 0.13201 0.37059 0.01185 0.0
C118 C 0.14816 0.38324 0.99811 0.0
C119 C 0.05827 0.34089 0.04686 0.0
C120 C 0.09957 0.42605 0.05878 0.0
C121 C 0.05652 0.40493 0.98785 0.0
O122 O 0.05018 0.39939 0.01056 0.0
O123 O 0.07974 0.40353 0.98095 0.0
O124 O 0.04703 0.36061 0.05632 0.0
O125 O 0.07872 0.34446 0.03352 0.0
O126 O 0.10998 0.57789 0.48534 0.0
Cd127 Cd 0.11797 0.59882 0.51746 0.0
Cd128 Cd 0.07996 0.62926 0.5012 0.0
O129 O 0.07988 0.60372 0.47114 0.0
O130 O 0.15404 0.59198 0.52664 0.0
O131 O 0.14018 0.62986 0.51376 0.0
C132 C 0.15898 0.61536 0.52055 0.0
C133 C 0.06693 0.67146 0.49375 0.0
C134 C 0.09311 0.58346 0.46888 0.0
C135 C 0.07236 0.59958 0.5505 0.0
O136 O 0.06401 0.61543 0.53422 0.0
O137 O 0.09472 0.59042 0.54828 0.0
O138 O 0.0516 0.65247 0.49151 0.0
O139 O 0.09052 0.66657 0.49888 0.0
O140 O 0.89353 0.90956 0.51143 0.0
Cd141 Cd 0.87663 0.88249 0.53539 0.0
Cd142 Cd 0.9389 0.86153 0.51525 0.0
O143 O 0.93318 0.89754 0.50014 0.0
O144 O 0.83968 0.88903 0.54 0.0
O145 O 0.8552 0.8557 0.51882 0.0
C146 C 0.83565 0.86863 0.52669 0.0
C147 C 0.97283 0.8355 0.50497 0.0
C148 C 0.9147 0.91352 0.49985 0.0
C149 C 0.91436 0.86084 0.5632 0.0
O150 O 0.91319 0.85007 0.54162 0.0
O151 O 0.89532 0.87441 0.56914 0.0
O152 O 0.97452 0.85169 0.52352 0.0
O153 O 0.95199 0.83484 0.49172 0.0
O154 O 0.38988 0.58341 0.52083 0.0
Cd155 Cd 0.38598 0.61059 0.49286 0.0
Cd156 Cd 0.42727 0.63276 0.51804 0.0
O157 O 0.4199 0.60308 0.54292 0.0
O158 O 0.35111 0.60515 0.47909 0.0
O159 O 0.36226 0.6399 0.5004 0.0
C160 C 0.34466 0.62659 0.48936 0.0
C161 C 0.4444 0.67084 0.53376 0.0
C162 C 0.40467 0.58441 0.53996 0.0
C163 C 0.43462 0.61374 0.46369 0.0
O164 O 0.44394 0.6233 0.48387 0.0
O165 O 0.41116 0.60768 0.46249 0.0
O166 O 0.45657 0.6496 0.53545 0.0
O167 O 0.42162 0.67039 0.52441 0.0
O168 O 0.5181 0.61558 0.89539 0.0
Cd169 Cd 0.492 0.61946 0.86642 0.0
Cd170 Cd 0.51876 0.57694 0.84656 0.0
O171 O 0.54114 0.58474 0.87809 0.0
O172 O 0.47796 0.65434 0.87136 0.0
O173 O 0.50108 0.64343 0.83772 0.0
C174 C 0.48935 0.66096 0.85056 0.0
C175 C 0.53766 0.55796 0.81076 0.0
C176 C 0.53702 0.60046 0.89614 0.0
C177 C 0.46271 0.57104 0.86143 0.0
O178 O 0.48344 0.56139 0.8534 0.0
O179 O 0.46135 0.59452 0.86742 0.0
O180 O 0.537 0.5466 0.83248 0.0
O181 O 0.52876 0.58091 0.80947 0.0
O182 O 0.49668 0.89174 0.9085 0.0
Cd183 Cd 0.52493 0.88592 0.88183 0.0
Cd184 Cd 0.50359 0.92821 0.85791 0.0
O185 O 0.47914 0.92453 0.88864 0.0
O186 O 0.53561 0.84976 0.88557 0.0
O187 O 0.51639 0.86469 0.85102 0.0
C188 C 0.52576 0.8455 0.86341 0.0
C189 C 0.48682 0.946 0.82053 0.0
C190 C 0.47977 0.90906 0.90733 0.0
C191 C 0.55841 0.93148 0.87665 0.0
O192 O 0.5396 0.94172 0.86536 0.0
O193 O 0.55697 0.90883 0.88524 0.0
O194 O 0.48809 0.95878 0.8414 0.0
O195 O 0.49427 0.92251 0.82086 0.0
O196 O 0.52125 0.38204 0.57868 0.0
Cd197 Cd 0.49529 0.37869 0.60794 0.0
Cd198 Cd 0.52181 0.4213 0.62701 0.0
O199 O 0.54392 0.41353 0.59518 0.0
O200 O 0.48083 0.34397 0.60378 0.0
O201 O 0.50405 0.35528 0.63718 0.0
C202 C 0.49184 0.33774 0.62487 0.0
C203 C 0.54054 0.44 0.66294 0.0
C204 C 0.53991 0.39745 0.57743 0.0
C205 C 0.46561 0.42674 0.61306 0.0
O206 O 0.48629 0.43665 0.6208 0.0
O207 O 0.46452 0.40332 0.60692 0.0
O208 O 0.53995 0.45155 0.64131 0.0
O209 O 0.53185 0.41695 0.66399 0.0
O210 O 0.48111 0.10597 0.57477 0.0
Cd211 Cd 0.51129 0.11104 0.59931 0.0
Cd212 Cd 0.49118 0.06895 0.62405 0.0
O213 O 0.46442 0.07323 0.59541 0.0
O214 O 0.52301 0.14658 0.59382 0.0
O215 O 0.50632 0.1332 0.6303 0.0
C216 C 0.51551 0.15166 0.61672 0.0
C217 C 0.47776 0.05185 0.66305 0.0
C218 C 0.46404 0.0889 0.57688 0.0
C219 C 0.54416 0.06481 0.60093 0.0
O220 O 0.52608 0.05463 0.61344 0.0
O221 O 0.54249 0.08771 0.59314 0.0
O222 O 0.47659 0.03892 0.64226 0.0
O223 O 0.48558 0.07519 0.66173 0.0
O224 O 0.90518 0.50172 0.61491 0.0
Cd225 Cd 0.8763 0.47961 0.63149 0.0
Cd226 Cd 0.85895 0.50218 0.56819 0.0
O227 O 0.8957 0.51507 0.57523 0.0
O228 O 0.88315 0.47338 0.66808 0.0
O229 O 0.85123 0.4975 0.65397 0.0
C230 C 0.86386 0.48801 0.67297 0.0
C231 C 0.83456 0.51219 0.53297 0.0
C232 C 0.9109 0.5136 0.59431 0.0
C233 C 0.85323 0.45448 0.59303 0.0
O234 O 0.84502 0.47719 0.59401 0.0
O235 O 0.86532 0.44693 0.61245 0.0
O236 O 0.85004 0.49294 0.53258 0.0
O237 O 0.83393 0.52648 0.55312 0.0
O238 O 0.08806 0.95016 0.61486 0.0
Cd239 Cd 0.11537 0.97789 0.62042 0.0
Cd240 Cd 0.13662 0.95376 0.57599 0.0
O241 O 0.1054 0.93028 0.58193 0.0
O242 O 0.10716 0.99191 0.65474 0.0
O243 O 0.14334 0.97189 0.64634 0.0
C244 C 0.12876 0.98325 0.66269 0.0
C245 C 0.17344 0.93692 0.55717 0.0
C246 C 0.08752 0.9325 0.59823 0.0
C247 C 0.12099 0.00979 0.57337 0.0
O248 O 0.12994 0.99002 0.5626 0.0
O249 O 0.11386 0.0093 0.59654 0.0
O250 O 0.15208 0.93768 0.54516 0.0
O251 O 0.17374 0.94435 0.58066 0.0
O252 O 0.91146 0.51067 0.89726 0.0
Cd253 Cd 0.88095 0.53507 0.89473 0.0
Cd254 Cd 0.86024 0.50319 0.92904 0.0
O255 O 0.89007 0.48023 0.91686 0.0
O256 O 0.88206 0.5504 0.86025 0.0
O257 O 0.85154 0.52396 0.87312 0.0
C258 C 0.86191 0.53719 0.855 0.0
C259 C 0.8224 0.48413 0.94298 0.0
C260 C 0.91029 0.48806 0.90592 0.0
C261 C 0.87527 0.55717 0.94524 0.0
O262 O 0.86887 0.53457 0.95131 0.0
O263 O 0.87964 0.56298 0.92213 0.0
O264 O 0.8436 0.4808 0.95487 0.0
O265 O 0.82283 0.4972 0.92209 0.0
O266 O 0.08604 0.02471 0.89162 0.0
Cd267 Cd 0.11474 0.99744 0.89223 0.0
Cd268 Cd 0.13369 0.03041 0.92683 0.0
O269 O 0.10701 0.05494 0.91208 0.0
O270 O 0.10966 0.97727 0.86052 0.0
O271 O 0.14365 0.00145 0.86714 0.0
C272 C 0.13079 0.98672 0.8521 0.0
C273 C 0.17349 0.04459 0.94104 0.0
C274 C 0.08744 0.0475 0.89985 0.0
C275 C 0.11382 0.97968 0.94537 0.0
O276 O 0.11912 0.00279 0.95033 0.0
O277 O 0.11402 0.97176 0.92244 0.0
O278 O 0.15264 0.05199 0.95172 0.0
O279 O 0.17176 0.03031 0.92102 0.0
O280 O 0.61171 0.908 0.49811 0.0
Cd281 Cd 0.61488 0.8783 0.47276 0.0
Cd282 Cd 0.57429 0.85822 0.50063 0.0
O283 O 0.58229 0.89009 0.52245 0.0
O284 O 0.65009 0.88075 0.45916 0.0
O285 O 0.63684 0.84886 0.48362 0.0
C286 C 0.6553 0.86025 0.47179 0.0
C287 C 0.55664 0.82257 0.52097 0.0
C288 C 0.59739 0.90849 0.51764 0.0
C289 C 0.56642 0.87194 0.44457 0.0
O290 O 0.55752 0.86409 0.46569 0.0
O291 O 0.58969 0.87846 0.44249 0.0
O292 O 0.5448 0.84403 0.52005 0.0
O293 O 0.57932 0.82147 0.51135 0.0
O294 O 0.61658 0.097 0.96095 0.0
Cd295 Cd 0.61518 0.12805 0.98549 0.0
Cd296 Cd 0.57861 0.14087 0.95284 0.0
O297 O 0.59511 0.11439 0.92923 0.0
O298 O 0.6476 0.12578 0.005 0.0
O299 O 0.63921 0.15717 0.97802 0.0
C300 C 0.65512 0.14607 0.99327 0.0
C301 C 0.56253 0.17998 0.93904 0.0
C302 C 0.60839 0.09614 0.93813 0.0
C303 C 0.56301 0.12421 0.00512 0.0
O304 O 0.55711 0.12562 0.98169 0.0
O305 O 0.58582 0.12841 0.01222 0.0
O306 O 0.55261 0.15874 0.93162 0.0
O307 O 0.5829 0.17902 0.9529 0.0
O308 O 0.38425 0.41457 0.95678 0.0
Cd309 Cd 0.3792 0.38908 0.98622 0.0
Cd310 Cd 0.42465 0.36626 0.96374 0.0
O311 O 0.41858 0.39695 0.9396 0.0
O312 O 0.34528 0.39859 0.00033 0.0
O313 O 0.35288 0.36104 0.98268 0.0
C314 C 0.33693 0.37656 0.99333 0.0
C315 C 0.44635 0.33078 0.94693 0.0
C316 C 0.40177 0.41449 0.94002 0.0
C317 C 0.42633 0.38559 0.01861 0.0
O318 O 0.43706 0.3744 -0.0 0.0
O319 O 0.40339 0.39331 0.01707 0.0
O320 O 0.45702 0.35278 0.94872 0.0
O321 O 0.42275 0.3289 0.95375 0.0
O322 O 0.89029 0.10034 0.02164 0.0
Cd323 Cd 0.88521 0.1244 0.99103 0.0
Cd324 Cd 0.93068 0.1477 0.01036 0.0
O325 O 0.92615 0.11763 0.03554 0.0
O326 O 0.85009 0.11667 0.97898 0.0
O327 O 0.86108 0.15433 0.9945 0.0
C328 C 0.84357 0.13949 0.98546 0.0
C329 C 0.95154 0.18396 0.02637 0.0
C330 C 0.90889 0.10065 0.03714 0.0
C331 C 0.9311 0.12597 0.95664 0.0
O332 O 0.94216 0.1388 0.97394 0.0
O333 O 0.9085 0.11769 0.95976 0.0
O334 O 0.96297 0.16237 0.02418 0.0
O335 O 0.92777 0.18507 0.02002 0.0
C336 C 0.13416 0.04144 0.54059 0.0
C337 C 0.11548 0.03206 0.55726 0.0
C338 C 0.12752 0.05773 0.52039 0.0
C339 C 0.10146 0.06344 0.51608 0.0
C340 C 0.08287 0.05567 0.53418 0.0
C341 C 0.09024 0.04039 0.55489 0.0
C342 C 0.14809 0.06696 0.50245 0.0
C343 C 0.05481 0.06096 0.53016 0.0
C344 C 0.07359 0.10523 0.4638 0.0
C345 C 0.06822 0.08689 0.44505 0.0
C346 C 0.08649 0.09842 0.48634 0.0
C347 C 0.09301 0.07252 0.49057 0.0
C348 C 0.08885 0.05428 0.47104 0.0
C349 C 0.07702 0.06183 0.44834 0.0
C350 C 0.09182 0.11872 0.50604 0.0
C351 C 0.09501 0.02632 0.47483 0.0
H352 H 0.15375 0.03502 0.54259 0.0
H353 H 0.07583 0.03289 0.56774 0.0
H354 H 0.14871 0.05449 0.48536 0.0
H355 H 0.14407 0.08673 0.49591 0.0
H356 H 0.16719 0.06649 0.51163 0.0
H357 H 0.04312 0.05549 0.54699 0.0
H358 H 0.05163 0.08148 0.5261 0.0
H359 H 0.04794 0.05 0.51338 0.0
H360 H 0.067 0.12469 0.46125 0.0
H361 H 0.07284 0.04752 0.43399 0.0
H362 H 0.10985 0.11479 0.51644 0.0
H363 H 0.07605 0.11912 0.52018 0.0
H364 H 0.09307 0.13794 0.49715 0.0
H365 H 0.11551 0.02387 0.47943 0.0
H366 H 0.09061 0.01466 0.45768 0.0
H367 H 0.08385 0.01868 0.49116 0.0
C368 C 0.9079 0.39376 0.46425 0.0
C369 C 0.91044 0.4131 0.44591 0.0
C370 C 0.89514 0.39833 0.48739 0.0
C371 C 0.88535 0.42301 0.49254 0.0
C372 C 0.88668 0.44218 0.47352 0.0
C373 C 0.8989 0.43687 0.45028 0.0
C374 C 0.89351 0.3772 0.50692 0.0
C375 C 0.87681 0.46883 0.47833 0.0
C376 C 0.84311 0.43616 0.5503 0.0
C377 C 0.86123 0.44435 0.56812 0.0
C378 C 0.85065 0.42851 0.52568 0.0
C379 C 0.8768 0.42972 0.51878 0.0
C380 C 0.89507 0.43809 0.53687 0.0
C381 C 0.88707 0.44506 0.5614 0.0
C382 C 0.83073 0.41921 0.5071 0.0
C383 C 0.92302 0.44042 0.5301 0.0
H384 H 0.9166 0.37528 0.46087 0.0
H385 H 0.90087 0.45193 0.43622 0.0
H386 H 0.90684 0.38127 0.52285 0.0
H387 H 0.87398 0.37613 0.51508 0.0
H388 H 0.89853 0.35832 0.49866 0.0
H389 H 0.87842 0.48127 0.46123 0.0
H390 H 0.85652 0.4681 0.48423 0.0
H391 H 0.88769 0.47773 0.49416 0.0
H392 H 0.8231 0.43593 0.55558 0.0
H393 H 0.90093 0.45196 0.57513 0.0
H394 H 0.83457 0.39896 0.50217 0.0
H395 H 0.83168 0.43031 0.48909 0.0
H396 H 0.81108 0.4207 0.51497 0.0
H397 H 0.93065 0.42158 0.52413 0.0
H398 H 0.93468 0.44758 0.54629 0.0
H399 H 0.92539 0.45368 0.51374 0.0
C400 C 0.03595 0.90335 0.04856 0.0
C401 C 0.04801 0.90418 0.07244 0.0
C402 C 0.04909 0.9103 0.0263 0.0
C403 C 0.07507 0.91753 0.02794 0.0
C404 C 0.08811 0.91519 0.05149 0.0
C405 C 0.0743 0.90898 0.07362 0.0
C406 C 0.03433 0.9128 0.00169 0.0
C407 C 0.1161 0.92158 0.05376 0.0
C408 C 0.10771 0.93647 0.96561 0.0
C409 C 0.10513 0.96311 0.96647 0.0
C410 C 0.09897 0.92119 0.98595 0.0
C411 C 0.08655 0.93287 0.00698 0.0
C412 C 0.08391 0.95976 0.00777 0.0
C413 C 0.09354 0.97449 0.98773 0.0
C414 C 0.10276 0.89266 0.98476 0.0
C415 C 0.07033 0.97308 0.02951 0.0
H416 H 0.01565 0.89951 0.04746 0.0
H417 H 0.08382 0.90916 0.09198 0.0
H418 H 0.03092 0.93333 0.99765 0.0
H419 H 0.04533 0.90485 0.98547 0.0
H420 H 0.01555 0.90299 0.00267 0.0
H421 H 0.12455 0.91347 0.07143 0.0
H422 H 0.12687 0.91429 0.03702 0.0
H423 H 0.11849 0.94262 0.0543 0.0
H424 H 0.11678 0.92765 0.94923 0.0
H425 H 0.09127 0.99506 0.9884 0.0
H426 H 0.08451 0.88333 0.97951 0.0
H427 H 0.10864 0.88502 0.00362 0.0
H428 H 0.11735 0.88726 0.97033 0.0
H429 H 0.0506 0.9656 0.03142 0.0
H430 H 0.06929 0.99409 0.02677 0.0
H431 H 0.08037 0.96924 0.04774 0.0
C432 C 0.93695 0.57864 0.07204 0.0
C433 C 0.9419 0.60274 0.08241 0.0
C434 C 0.9237 0.57609 0.04901 0.0
C435 C 0.91427 0.59819 0.03655 0.0
C436 C 0.91804 0.62254 0.04766 0.0
C437 C 0.93239 0.6246 0.07023 0.0
C438 C 0.92069 0.54977 0.03755 0.0
C439 C 0.90737 0.6464 0.03552 0.0
C440 C 0.90635 0.58582 0.96613 0.0
C441 C 0.88198 0.57492 0.96586 0.0
C442 C 0.91658 0.59567 0.98882 0.0
C443 C 0.9016 0.59533 0.01136 0.0
C444 C 0.87582 0.58731 0.01023 0.0
C445 C 0.86648 0.57657 0.98757 0.0
C446 C 0.94432 0.60347 0.98926 0.0
C447 C 0.85886 0.58784 0.03351 0.0
H448 H 0.94455 0.56176 0.08132 0.0
H449 H 0.93616 0.64325 0.07836 0.0
H450 H 0.90016 0.54501 0.03562 0.0
H451 H 0.9292 0.54932 0.01815 0.0
H452 H 0.92995 0.53471 0.04928 0.0
H453 H 0.90791 0.66294 0.04877 0.0
H454 H 0.9187 0.6513 0.01832 0.0
H455 H 0.88736 0.64328 0.0293 0.0
H456 H 0.91839 0.58426 0.94935 0.0
H457 H 0.84755 0.56818 0.98724 0.0
H458 H 0.95559 0.58853 0.99921 0.0
H459 H 0.94689 0.62155 -8e-05 0.0
H460 H 0.95223 0.6059 0.96973 0.0
H461 H 0.86347 0.57134 0.04597 0.0
H462 H 0.83834 0.58663 0.02827 0.0
H463 H 0.86204 0.60552 0.04474 0.0
C464 C 0.43608 0.08983 0.07787 0.0
C465 C 0.43818 0.06587 0.08962 0.0
C466 C 0.45792 0.10307 0.06974 0.0
C467 C 0.48226 0.09174 0.07291 0.0
C468 C 0.48461 0.06898 0.08728 0.0
C469 C 0.46251 0.05643 0.09571 0.0
C470 C 0.45467 0.1278 0.05532 0.0
C471 C 0.51016 0.05617 0.09107 0.0
C472 C 0.52486 0.09832 0.01506 0.0
C473 C 0.54333 0.11574 0.02338 0.0
C474 C 0.50533 0.09011 0.03127 0.0
C475 C 0.50376 0.10007 0.05635 0.0
C476 C 0.52242 0.11765 0.06499 0.0
C477 C 0.54228 0.12508 0.04843 0.0
C478 C 0.48628 0.07081 0.02139 0.0
C479 C 0.52097 0.12913 0.09136 0.0
H480 H 0.41735 0.0975 0.07356 0.0
H481 H 0.46435 0.03803 0.10502 0.0
H482 H 0.46997 0.14154 0.06036 0.0
H483 H 0.45603 0.12401 0.03452 0.0
H484 H 0.43583 0.13674 0.05924 0.0
H485 H 0.50948 0.04172 0.10659 0.0
H486 H 0.51575 0.04637 0.07313 0.0
H487 H 0.52521 0.07034 0.09556 0.0
H488 H 0.52583 0.09086 0.99578 0.0
H489 H 0.5565 0.1387 0.05477 0.0
H490 H 0.46692 0.07939 0.02092 0.0
H491 H 0.48551 0.05403 0.0343 0.0
H492 H 0.49105 0.06401 0.00187 0.0
H493 H 0.50422 0.14206 0.09247 0.0
H494 H 0.53839 0.14023 0.09617 0.0
H495 H 0.51821 0.11404 0.10595 0.0
C496 C 0.53863 0.44702 0.10199 0.0
C497 C 0.55545 0.452 0.08175 0.0
C498 C 0.51594 0.43324 0.09794 0.0
C499 C 0.50952 0.42543 0.07288 0.0
C500 C 0.52679 0.43001 0.05254 0.0
C501 C 0.54974 0.44278 0.05735 0.0
C502 C 0.49862 0.42785 0.12032 0.0
C503 C 0.52054 0.42253 0.02538 0.0
C504 C 0.46176 0.37755 0.04908 0.0
C505 C 0.44263 0.39382 0.0399 0.0
C506 C 0.48232 0.38726 0.0632 0.0
C507 C 0.48426 0.41393 0.06702 0.0
C508 C 0.46367 0.43002 0.05999 0.0
C509 C 0.44281 0.41963 0.04684 0.0
C510 C 0.50315 0.36931 0.07177 0.0
C511 C 0.46505 0.4586 0.06344 0.0
H512 H 0.54309 0.45406 0.12092 0.0
H513 H 0.56259 0.44683 0.04162 0.0
H514 H 0.48341 0.44255 0.12117 0.0
H515 H 0.48929 0.40892 0.11844 0.0
H516 H 0.50926 0.42842 0.13865 0.0
H517 H 0.53579 0.4281 0.01172 0.0
H518 H 0.51775 0.40159 0.02406 0.0
H519 H 0.50244 0.43176 0.01936 0.0
H520 H 0.46147 0.35751 0.04386 0.0
H521 H 0.42805 0.43221 0.03958 0.0
H522 H 0.51059 0.37499 0.09076 0.0
H523 H 0.51925 0.37008 0.05802 0.0
H524 H 0.49626 0.34927 0.07278 0.0
H525 H 0.47133 0.46347 0.08303 0.0
H526 H 0.44639 0.468 0.05977 0.0
H527 H 0.47935 0.4666 0.04998 0.0
C528 C 0.54577 0.9035 0.41642 0.0
C529 C 0.54798 0.87811 0.42441 0.0
C530 C 0.52296 0.91239 0.40557 0.0
C531 C 0.50242 0.89516 0.40192 0.0
C532 C 0.50613 0.86879 0.40648 0.0
C533 C 0.5287 0.86062 0.41835 0.0
C534 C 0.51979 0.9407 0.40117 0.0
C535 C 0.4853 0.8496 0.40131 0.0
C536 C 0.43763 0.92186 0.41948 0.0
C537 C 0.42843 0.93018 0.39584 0.0
C538 C 0.46148 0.90998 0.42151 0.0
C539 C 0.47606 0.90535 0.39917 0.0
C540 C 0.46603 0.91208 0.375 0.0
C541 C 0.44255 0.92503 0.37367 0.0
C542 C 0.4716 0.90365 0.44779 0.0
C543 C 0.48034 0.90651 0.35063 0.0
H544 H 0.56065 0.91701 0.42135 0.0
H545 H 0.53053 0.84093 0.42448 0.0
H546 H 0.51098 0.94439 0.38232 0.0
H547 H 0.50684 0.94868 0.41594 0.0
H548 H 0.53829 0.95104 0.40215 0.0
H549 H 0.49303 0.82989 0.4 0.0
H550 H 0.47113 0.85011 0.41706 0.0
H551 H 0.47513 0.85424 0.38331 0.0
H552 H 0.42686 0.92604 0.43667 0.0
H553 H 0.43537 0.93138 0.35533 0.0
H554 H 0.48997 0.91371 0.45103 0.0
H555 H 0.47536 0.88288 0.44935 0.0
H556 H 0.45811 0.90916 0.46321 0.0
H557 H 0.4941 0.92214 0.34682 0.0
H558 H 0.46715 0.90534 0.33408 0.0
H559 H 0.49123 0.88837 0.35199 0.0
C560 C 0.45289 0.58035 0.43564 0.0
C561 C 0.45259 0.60585 0.44358 0.0
C562 C 0.47442 0.57013 0.42335 0.0
C563 C 0.49566 0.58611 0.41821 0.0
C564 C 0.49407 0.61256 0.42353 0.0
C565 C 0.47275 0.62203 0.43671 0.0
C566 C 0.47547 0.54173 0.41849 0.0
C567 C 0.51577 0.63046 0.41729 0.0
C568 C 0.56047 0.55481 0.42565 0.0
C569 C 0.56615 0.5477 0.40053 0.0
C570 C 0.53776 0.5677 0.43151 0.0
C571 C 0.52073 0.57447 0.41161 0.0
C572 C 0.52717 0.56879 0.38599 0.0
C573 C 0.5496 0.55497 0.38078 0.0
C574 C 0.53143 0.57291 0.45917 0.0
C575 C 0.51007 0.57661 0.36419 0.0
H576 H 0.43742 0.56779 0.44128 0.0
H577 H 0.47245 0.6418 0.44288 0.0
H578 H 0.48265 0.53771 0.399 0.0
H579 H 0.48894 0.53278 0.43218 0.0
H580 H 0.45649 0.53254 0.42079 0.0
H581 H 0.5095 0.65073 0.41749 0.0
H582 H 0.53116 0.62815 0.43164 0.0
H583 H 0.524 0.626 0.39828 0.0
H584 H 0.57308 0.54898 0.44098 0.0
H585 H 0.55403 0.54955 0.36131 0.0
H586 H 0.51328 0.56325 0.46434 0.0
H587 H 0.52864 0.59367 0.46223 0.0
H588 H 0.54662 0.56615 0.47233 0.0
H589 H 0.49277 0.56442 0.36401 0.0
H590 H 0.51979 0.57469 0.34543 0.0
H591 H 0.50367 0.59668 0.36656 0.0
C592 C 0.11863 0.46663 0.07563 0.0
C593 C 0.09898 0.44846 0.07584 0.0
C594 C 0.11575 0.49012 0.08836 0.0
C595 C 0.09214 0.49598 0.10023 0.0
C596 C 0.07268 0.47718 0.10129 0.0
C597 C 0.07663 0.45348 0.08963 0.0
C598 C 0.13757 0.5089 0.08792 0.0
C599 C 0.04685 0.4827 0.113 0.0
C600 C 0.07115 0.54867 0.14425 0.0
C601 C 0.05859 0.56476 0.127 0.0
C602 C 0.08567 0.52789 0.13547 0.0
C603 C 0.08609 0.52231 0.10904 0.0
C604 C 0.0754 0.53995 0.09151 0.0
C605 C 0.06217 0.56131 0.10077 0.0
C606 C 0.09856 0.51066 0.15459 0.0
C607 C 0.07517 0.5347 0.06318 0.0
H608 H 0.13601 0.46274 0.06506 0.0
H609 H 0.06129 0.43957 0.0896 0.0
H610 H 0.13658 0.52043 0.0702 0.0
H611 H 0.137 0.52205 0.10452 0.0
H612 H 0.1562 0.49874 0.08786 0.0
H613 H 0.03362 0.46619 0.11159 0.0
H614 H 0.04899 0.48772 0.13343 0.0
H615 H 0.03792 0.49929 0.10328 0.0
H616 H 0.06841 0.55146 0.16458 0.0
H617 H 0.05221 0.5737 0.08751 0.0
H618 H 0.11694 0.50336 0.14693 0.0
H619 H 0.08615 0.49399 0.15866 0.0
H620 H 0.1022 0.52077 0.17286 0.0
H621 H 0.09472 0.5305 0.05629 0.0
H622 H 0.06746 0.55104 0.05206 0.0
H623 H 0.06321 0.51765 0.05926 0.0
C624 C 0.03447 0.47232 0.38193 0.0
C625 C 0.02667 0.45415 0.39994 0.0
C626 C 0.05033 0.4927 0.38898 0.0
C627 C 0.05742 0.49553 0.41488 0.0
C628 C 0.05093 0.47625 0.43276 0.0
C629 C 0.03597 0.45548 0.42491 0.0
C630 C 0.05792 0.51214 0.36911 0.0
C631 C 0.05761 0.47877 0.46068 0.0
C632 C 0.10271 0.54505 0.4421 0.0
C633 C 0.08545 0.5639 0.45012 0.0
C634 C 0.09419 0.52346 0.42865 0.0
C635 C 0.06773 0.52027 0.42418 0.0
C636 C 0.05047 0.53994 0.43106 0.0
C637 C 0.05964 0.56173 0.4435 0.0
C638 C 0.11332 0.50352 0.42049 0.0
C639 C 0.02201 0.53714 0.42714 0.0
H640 H 0.02732 0.47113 0.36254 0.0
H641 H 0.02969 0.44151 0.43885 0.0
H642 H 0.04548 0.5292 0.37078 0.0
H643 H 0.07794 0.51846 0.37201 0.0
H644 H 0.05595 0.50441 0.34947 0.0
H645 H 0.05286 0.46126 0.47168 0.0
H646 H 0.07823 0.48285 0.46303 0.0
H647 H 0.04691 0.49506 0.46903 0.0
H648 H 0.12272 0.54676 0.44707 0.0
H649 H 0.04619 0.57615 0.44984 0.0
H650 H 0.10856 0.49589 0.40131 0.0
H651 H 0.11291 0.48732 0.43412 0.0
H652 H 0.13304 0.51131 0.42005 0.0
H653 H 0.01775 0.53326 0.4068 0.0
H654 H 0.01128 0.55446 0.43306 0.0
H655 H 0.01486 0.52065 0.43838 0.0
C656 C 0.89698 0.95183 0.47718 0.0
C657 C 0.91814 0.93778 0.48577 0.0
C658 C 0.90024 0.97456 0.46327 0.0
C659 C 0.92521 0.98357 0.45824 0.0
C660 C 0.94658 0.96973 0.46738 0.0
C661 C 0.94278 0.94693 0.48083 0.0
C662 C 0.87705 0.98862 0.45352 0.0
C663 C 0.97356 0.97889 0.46277 0.0
C664 C 0.94595 0.02515 0.40334 0.0
C665 C 0.95151 0.04806 0.41599 0.0
C666 C 0.93477 0.00462 0.41637 0.0
C667 C 0.9295 0.00697 0.44276 0.0
C668 C 0.93268 0.0309 0.45496 0.0
C669 C 0.94347 0.0513 0.44131 0.0
C670 C 0.93105 0.97965 0.40246 0.0
C671 C 0.92734 0.03421 0.48307 0.0
H672 H 0.87787 0.9448 0.48088 0.0
H673 H 0.9592 0.93634 0.48767 0.0
H674 H 0.87751 0.00883 0.45982 0.0
H675 H 0.87717 0.98867 0.43235 0.0
H676 H 0.85893 0.97982 0.46018 0.0
H677 H 0.988 0.96652 0.47217 0.0
H678 H 0.97759 0.97924 0.44198 0.0
H679 H 0.97586 0.99866 0.47001 0.0
H680 H 0.95193 0.02268 0.38367 0.0
H681 H 0.9478 0.06896 0.4512 0.0
H682 H 0.9126 0.97074 0.40782 0.0
H683 H 0.94649 0.9662 0.40791 0.0
H684 H 0.93158 0.9822 0.38142 0.0
H685 H 0.90922 0.02473 0.48855 0.0
H686 H 0.92627 0.05468 0.48853 0.0
H687 H 0.94291 0.02514 0.49421 0.0
C688 C 0.43116 0.55472 0.56544 0.0
C689 C 0.40699 0.56187 0.55664 0.0
C690 C 0.43503 0.53103 0.57716 0.0
C691 C 0.41394 0.51452 0.58116 0.0
C692 C 0.38911 0.52253 0.57411 0.0
C693 C 0.38601 0.54591 0.5613 0.0
C694 C 0.46198 0.52309 0.58382 0.0
C695 C 0.36595 0.50613 0.57908 0.0
C696 C 0.43685 0.44642 0.58149 0.0
C697 C 0.44453 0.44412 0.60693 0.0
C698 C 0.42438 0.46855 0.57302 0.0
C699 C 0.41881 0.48825 0.59072 0.0
C700 C 0.42329 0.48423 0.61704 0.0
C701 C 0.43679 0.46244 0.6248 0.0
C702 C 0.42019 0.47213 0.54474 0.0
C703 C 0.41611 0.50404 0.63667 0.0
H704 H 0.44744 0.56694 0.56163 0.0
H705 H 0.36725 0.55152 0.55459 0.0
H706 H 0.46345 0.519 0.60453 0.0
H707 H 0.46704 0.50532 0.57345 0.0
H708 H 0.47625 0.538 0.57893 0.0
H709 H 0.34834 0.5179 0.58028 0.0
H710 H 0.36351 0.49243 0.56315 0.0
H711 H 0.36799 0.49504 0.59702 0.0
H712 H 0.4431 0.43228 0.56771 0.0
H713 H 0.44272 0.46052 0.64453 0.0
H714 H 0.43378 0.48665 0.5374 0.0
H715 H 0.40063 0.47923 0.54098 0.0
H716 H 0.42311 0.45413 0.5339 0.0
H717 H 0.43065 0.51944 0.63681 0.0
H718 H 0.41513 0.49569 0.65613 0.0
H719 H 0.39741 0.51285 0.63199 0.0
C720 C 0.61918 0.57414 0.02132 0.0
C721 C 0.60154 0.56602 0.03971 0.0
C722 C 0.61097 0.58645 0.99901 0.0
C723 C 0.58448 0.58946 0.99461 0.0
C724 C 0.56686 0.58353 0.01429 0.0
C725 C 0.57572 0.57222 0.03689 0.0
C726 C 0.63045 0.59381 0.9791 0.0
C727 C 0.53844 0.5861 0.0103 0.0
C728 C 0.55566 0.62018 0.93548 0.0
C729 C 0.55229 0.59879 0.91972 0.0
C730 C 0.56752 0.61785 0.95942 0.0
C731 C 0.57505 0.5934 0.96815 0.0
C732 C 0.57219 0.57188 0.95197 0.0
C733 C 0.56129 0.57496 0.92778 0.0
C734 C 0.57121 0.6414 0.97559 0.0
C735 C 0.57946 0.54532 0.96065 0.0
H736 H 0.63919 0.56936 0.02361 0.0
H737 H 0.56209 0.56566 0.05104 0.0
H738 H 0.63129 0.57883 0.96416 0.0
H739 H 0.62508 0.61204 0.96971 0.0
H740 H 0.64981 0.59583 0.9875 0.0
H741 H 0.5276 0.58376 0.02839 0.0
H742 H 0.5337 0.60496 0.00195 0.0
H743 H 0.53195 0.57126 0.99665 0.0
H744 H 0.54877 0.63867 0.92919 0.0
H745 H 0.55847 0.55837 0.91574 0.0
H746 H 0.58977 0.64078 0.98577 0.0
H747 H 0.55587 0.64244 0.99015 0.0
H748 H 0.57039 0.6591 0.96392 0.0
H749 H 0.60008 0.54459 0.96535 0.0
H750 H 0.57546 0.53061 0.94592 0.0
H751 H 0.56874 0.5403 0.97823 0.0
C752 C 0.38348 0.94776 0.01864 0.0
C753 C 0.39817 0.9537 0.04014 0.0
C754 C 0.39429 0.93482 0.99783 0.0
C755 C 0.42066 0.92885 0.99819 0.0
C756 C 0.43503 0.93307 0.0207 0.0
C757 C 0.42342 0.94509 0.04164 0.0
C758 C 0.37804 0.92959 0.97465 0.0
C759 C 0.46332 0.92763 0.02172 0.0
C760 C 0.45448 0.89303 0.94471 0.0
C761 C 0.46263 0.91333 0.92927 0.0
C762 C 0.43975 0.89757 0.96671 0.0
C763 C 0.4341 0.92303 0.97387 0.0
C764 C 0.44219 0.94352 0.95816 0.0
C765 C 0.45593 0.93837 0.93583 0.0
C766 C 0.43058 0.87523 0.98243 0.0
C767 C 0.43716 0.97103 0.96537 0.0
H768 H 0.36388 0.95438 0.01758 0.0
H769 H 0.43482 0.94997 0.0582 0.0
H770 H 0.38184 0.94432 0.95991 0.0
H771 H 0.38276 0.91071 0.96627 0.0
H772 H 0.35735 0.93008 0.97934 0.0
H773 H 0.47091 0.92873 0.04148 0.0
H774 H 0.46763 0.90847 0.01385 0.0
H775 H 0.47358 0.94185 0.0098 0.0
H776 H 0.45961 0.87365 0.93956 0.0
H777 H 0.46247 0.95411 0.92408 0.0
H778 H 0.41001 0.8774 0.98704 0.0
H779 H 0.44112 0.87459 0.00076 0.0
H780 H 0.43346 0.85675 0.97242 0.0
H781 H 0.41632 0.97455 0.96652 0.0
H782 H 0.44551 0.98469 0.95146 0.0
H783 H 0.44533 0.97508 0.98448 0.0
C784 C 0.55789 0.37739 0.53785 0.0
C785 C 0.55513 0.3988 0.55371 0.0
C786 C 0.56992 0.37943 0.51392 0.0
C787 C 0.57836 0.40364 0.50535 0.0
C788 C 0.57606 0.42517 0.5216 0.0
C789 C 0.56489 0.42237 0.54573 0.0
C790 C 0.5729 0.35586 0.49764 0.0
C791 C 0.58437 0.45148 0.5131 0.0
C792 C 0.62414 0.42119 0.45285 0.0
C793 C 0.60718 0.4303 0.43429 0.0
C794 C 0.61504 0.40918 0.475 0.0
C795 C 0.58838 0.40731 0.47902 0.0
C796 C 0.57137 0.41408 0.45912 0.0
C797 C 0.58107 0.42516 0.43672 0.0
C798 C 0.63386 0.40096 0.49517 0.0
C799 C 0.5428 0.4127 0.46268 0.0
H800 H 0.55043 0.3591 0.54404 0.0
H801 H 0.56258 0.43901 0.55783 0.0
H802 H 0.55805 0.35579 0.48257 0.0
H803 H 0.5918 0.35562 0.48804 0.0
H804 H 0.57078 0.33811 0.50906 0.0
H805 H 0.58077 0.46627 0.52786 0.0
H806 H 0.60506 0.45147 0.50856 0.0
H807 H 0.57401 0.45697 0.49546 0.0
H808 H 0.64438 0.4251 0.45089 0.0
H809 H 0.56794 0.43242 0.42247 0.0
H810 H 0.62761 0.38295 0.50443 0.0
H811 H 0.63503 0.41586 0.51018 0.0
H812 H 0.65327 0.39818 0.48707 0.0
H813 H 0.53715 0.39415 0.47115 0.0
H814 H 0.53239 0.41529 0.44439 0.0
H815 H 0.53667 0.42795 0.47606 0.0
C816 C 0.43833 0.05983 0.54984 0.0
C817 C 0.44591 0.08477 0.55574 0.0
C818 C 0.42457 0.05456 0.52758 0.0
C819 C 0.41732 0.07489 0.51126 0.0
C820 C 0.42347 0.10035 0.51797 0.0
C821 C 0.43825 0.10496 0.53989 0.0
C822 C 0.41894 0.02704 0.52093 0.0
C823 C 0.41519 0.12262 0.50168 0.0
C824 C 0.40929 0.05113 0.44378 0.0
C825 C 0.38397 0.04265 0.44458 0.0
C826 C 0.42007 0.06379 0.46476 0.0
C827 C 0.4048 0.0688 0.48654 0.0
C828 C 0.37838 0.06315 0.48596 0.0
C829 C 0.36837 0.04955 0.46519 0.0
C830 C 0.44841 0.06904 0.46471 0.0
C831 C 0.36118 0.06937 0.50823 0.0
H832 H 0.44445 0.04415 0.5619 0.0
H833 H 0.44403 0.12429 0.54449 0.0
H834 H 0.39805 0.02411 0.51916 0.0
H835 H 0.42766 0.02223 0.50222 0.0
H836 H 0.42636 0.0135 0.53546 0.0
H837 H 0.41623 0.14094 0.51231 0.0
H838 H 0.42785 0.12409 0.48477 0.0
H839 H 0.39538 0.1199 0.49469 0.0
H840 H 0.42138 0.04557 0.42791 0.0
H841 H 0.34871 0.04308 0.46569 0.0
H842 H 0.45804 0.05549 0.47785 0.0
H843 H 0.45241 0.08861 0.47169 0.0
H844 H 0.45692 0.06684 0.44541 0.0
H845 H 0.364 0.05503 0.52355 0.0
H846 H 0.34073 0.06913 0.50263 0.0
H847 H 0.36588 0.08841 0.51625 0.0
C848 C 0.03202 0.60223 0.57535 0.0
C849 C 0.05367 0.58814 0.56827 0.0
C850 C 0.01004 0.59001 0.58454 0.0
C851 C 0.00962 0.56304 0.5863 0.0
C852 C 0.0323 0.549 0.58172 0.0
C853 C 0.0542 0.56179 0.57293 0.0
C854 C 0.9865 0.6058 0.58982 0.0
C855 C 0.03271 0.52023 0.58341 0.0
C856 C 0.9509 0.53068 0.61444 0.0
C857 C 0.93634 0.52591 0.59244 0.0
C858 C 0.97491 0.54258 0.61285 0.0
C859 C 0.98471 0.54957 0.58867 0.0
C860 C 0.97028 0.54441 0.56639 0.0
C861 C 0.94625 0.53282 0.56856 0.0
C862 C 0.98959 0.54802 0.63702 0.0
C863 C 0.98016 0.55131 0.54017 0.0
H864 H 0.03161 0.62265 0.57192 0.0
H865 H 0.07082 0.55078 0.56734 0.0
H866 H 0.97287 0.60364 0.57376 0.0
H867 H 0.97675 0.59914 0.6074 0.0
H868 H 0.9911 0.6264 0.59192 0.0
H869 H 0.05251 0.51262 0.5838 0.0
H870 H 0.02243 0.5135 0.60065 0.0
H871 H 0.02281 0.51213 0.56653 0.0
H872 H 0.94337 0.52547 0.633 0.0
H873 H 0.93529 0.52898 0.55145 0.0
H874 H 0.9921 0.56893 0.63928 0.0
H875 H 0.00894 0.53948 0.63589 0.0
H876 H 0.97979 0.54047 0.65425 0.0
H877 H 0.98277 0.57229 0.53875 0.0
H878 H 0.96704 0.54512 0.52472 0.0
H879 H 0.99909 0.54234 0.53694 0.0
C880 C 0.94645 0.89476 0.57102 0.0
C881 C 0.93959 0.86898 0.57247 0.0
C882 C 0.97139 0.90265 0.57658 0.0
C883 C 0.98977 0.88434 0.58426 0.0
C884 C 0.98272 0.85831 0.58639 0.0
C885 C 0.95769 0.85087 0.58015 0.0
C886 C 0.97827 0.93048 0.57335 0.0
C887 C 0.00163 0.83835 0.59502 0.0
C888 C 0.05827 0.90484 0.5727 0.0
C889 C 0.06442 0.91634 0.59607 0.0
C890 C 0.03439 0.89329 0.56891 0.0
C891 C 0.01649 0.89266 0.58918 0.0
C892 C 0.02333 0.90259 0.61336 0.0
C893 C 0.0471 0.91458 0.61644 0.0
C894 C 0.02783 0.88305 0.54279 0.0
C895 C 0.00501 0.90177 0.6356 0.0
H896 H 0.93254 0.90864 0.56448 0.0
H897 H 0.95232 0.8309 0.58096 0.0
H898 H 0.98571 0.93829 0.59155 0.0
H899 H 0.99363 0.93243 0.55887 0.0
H900 H 0.96171 0.94225 0.56724 0.0
H901 H 0.99347 0.81878 0.5945 0.0
H902 H 0.01893 0.83879 0.58282 0.0
H903 H 0.00783 0.84259 0.61481 0.0
H904 H 0.07153 0.90615 0.55686 0.0
H905 H 0.05184 0.92321 0.63463 0.0
H906 H 0.011 0.89334 0.53505 0.0
H907 H 0.02267 0.86258 0.54418 0.0
H908 H 0.04387 0.88502 0.52905 0.0
H909 H 0.98902 0.91523 0.63212 0.0
H910 H 0.01439 0.9071 0.65384 0.0
H911 H 0.99667 0.8824 0.63762 0.0
C912 C 0.0161 0.42831 0.98085 0.0
C913 C 0.03678 0.41491 0.97046 0.0
C914 C 0.99702 0.43847 0.96527 0.0
C915 C 0.99823 0.43459 0.93856 0.0
C916 C 0.01891 0.4208 0.92786 0.0
C917 C 0.03825 0.41139 0.94397 0.0
C918 C 0.97565 0.45358 0.9775 0.0
C919 C 0.02038 0.41573 0.89955 0.0
C920 C 0.93221 0.44625 0.91301 0.0
C921 C 0.93369 0.47231 0.90711 0.0
C922 C 0.95407 0.43259 0.92032 0.0
C923 C 0.9777 0.44554 0.92236 0.0
C924 C 0.97974 0.47113 0.91389 0.0
C925 C 0.9577 0.48414 0.90608 0.0
C926 C 0.95129 0.40506 0.92835 0.0
C927 C 0.00448 0.48577 0.91598 0.0
H928 H 0.01508 0.43132 0.0013 0.0
H929 H 0.05419 0.40088 0.93597 0.0
H930 H 0.97459 0.47294 0.96893 0.0
H931 H 0.95709 0.44403 0.97396 0.0
H932 H 0.97816 0.45567 0.99845 0.0
H933 H 0.03808 0.40533 0.89416 0.0
H934 H 0.00365 0.40422 0.89354 0.0
H935 H 0.01962 0.43393 0.88877 0.0
H936 H 0.91377 0.43686 0.91336 0.0
H937 H 0.95904 0.50425 0.90134 0.0
H938 H 0.95024 0.40398 0.94947 0.0
H939 H 0.96803 0.39364 0.92213 0.0
H940 H 0.93368 0.39633 0.92041 0.0
H941 H 0.00763 0.49117 0.93621 0.0
H942 H 0.00416 0.50351 0.90434 0.0
H943 H 0.02092 0.47391 0.90988 0.0
C944 C 0.04649 0.06232 0.87992 0.0
C945 C 0.06437 0.06366 0.89977 0.0
C946 C 0.02273 0.0747 0.88197 0.0
C947 C 0.01632 0.08741 0.90498 0.0
C948 C 0.03473 0.08941 0.9247 0.0
C949 C 0.05869 0.07803 0.92156 0.0
C950 C 0.00432 0.07316 0.85991 0.0
C951 C 0.0286 0.10207 0.94992 0.0
C952 C 0.96345 0.13269 0.92254 0.0
C953 C 0.94705 0.11619 0.93574 0.0
C954 C 0.98447 0.12306 0.90894 0.0
C955 C 0.9899 0.09661 0.91002 0.0
C956 C 0.97196 0.07974 0.92125 0.0
C957 C 0.9504 0.08978 0.93358 0.0
C958 C 0.00212 0.14143 0.89551 0.0
C959 C 0.97706 0.05142 0.92307 0.0
H960 H 0.0509 0.05125 0.86299 0.0
H961 H 0.07238 0.07885 0.93706 0.0
H962 H 0.99261 0.05562 0.86178 0.0
H963 H 0.99129 0.08986 0.85934 0.0
H964 H 0.01474 0.07196 0.84147 0.0
H965 H 0.04483 0.10124 0.96354 0.0
H966 H 0.02355 0.1224 0.94687 0.0
H967 H 0.01187 0.09262 0.95888 0.0
H968 H 0.96073 0.15315 0.92414 0.0
H969 H 0.93778 0.07708 0.94401 0.0
H970 H 0.00961 0.1329 0.87761 0.0
H971 H 0.01865 0.1458 0.90799 0.0
H972 H 0.99231 0.15967 0.89093 0.0
H973 H 0.98204 0.04357 0.90408 0.0
H974 H 0.96037 0.04074 0.93066 0.0
H975 H 0.99358 0.04803 0.93589 0.0
C976 C 0.56925 0.04704 0.56515 0.0
C977 C 0.56445 0.04792 0.59141 0.0
C978 C 0.58066 0.02545 0.55413 0.0
C979 C 0.58808 0.00482 0.56998 0.0
C980 C 0.58662 0.00741 0.59683 0.0
C981 C 0.57423 0.02874 0.60725 0.0
C982 C 0.58164 0.02343 0.52541 0.0
C983 C 0.59565 0.98646 0.61441 0.0
C984 C 0.57284 0.9392 0.54401 0.0
C985 C 0.59619 0.93183 0.53332 0.0
C986 C 0.57017 0.96281 0.5562 0.0
C987 C 0.59167 0.97908 0.55861 0.0
C988 C 0.61569 0.9711 0.54913 0.0
C989 C 0.61755 0.94774 0.53604 0.0
C990 C 0.54403 0.97074 0.56558 0.0
C991 C 0.63926 0.98738 0.55217 0.0
H992 H 0.56151 0.06185 0.55291 0.0
H993 H 0.57064 0.02956 0.62762 0.0
H994 H 0.60026 0.01566 0.51904 0.0
H995 H 0.56657 0.01005 0.51887 0.0
H996 H 0.5785 0.04218 0.51601 0.0
H997 H 0.59869 0.99364 0.63413 0.0
H998 H 0.58109 0.9711 0.61516 0.0
H999 H 0.61371 0.97793 0.60731 0.0
H1000 H 0.55626 0.92702 0.54171 0.0
H1001 H 0.63568 0.94196 0.52786 0.0
H1002 H 0.53826 0.98894 0.55638 0.0
H1003 H 0.54449 0.97404 0.58647 0.0
H1004 H 0.52919 0.95615 0.56148 0.0
H1005 H 0.6393 0.00256 0.53742 0.0
H1006 H 0.65699 0.97594 0.54986 0.0
H1007 H 0.63961 0.9968 0.57114 0.0
C1008 C 0.58845 0.06377 0.91016 0.0
C1009 C 0.60984 0.07187 0.92393 0.0
C1010 C 0.58661 0.03868 0.90117 0.0
C1011 C 0.60724 0.02155 0.90499 0.0
C1012 C 0.62987 0.03034 0.91689 0.0
C1013 C 0.63063 0.05526 0.92689 0.0
C1014 C 0.56177 0.03008 0.88924 0.0
C1015 C 0.65286 0.01331 0.9202 0.0
C1016 C 0.58151 0.95469 0.9102 0.0
C1017 C 0.57933 0.94842 0.88436 0.0
C1018 C 0.59307 0.97765 0.91769 0.0
C1019 C 0.60346 0.99407 0.89884 0.0
C1020 C 0.6047 0.98576 0.87317 0.0
C1021 C 0.59187 0.96334 0.86605 0.0
C1022 C 0.59116 0.98575 0.94528 0.0
C1023 C 0.61735 0.00178 0.85285 0.0
H1024 H 0.57225 0.07651 0.90809 0.0
H1025 H 0.64726 0.06155 0.93747 0.0
H1026 H 0.56517 0.02306 0.86958 0.0
H1027 H 0.55356 0.01405 0.90042 0.0
H1028 H 0.54739 0.04566 0.88835 0.0
H1029 H 0.67075 0.02471 0.91998 0.0
H1030 H 0.65173 0.00357 0.93896 0.0
H1031 H 0.65401 0.99854 0.90506 0.0
H1032 H 0.57154 0.94321 0.92427 0.0
H1033 H 0.59017 0.9584 0.84602 0.0
H1034 H 0.57767 0.00203 0.94695 0.0
H1035 H 0.60997 0.99229 0.95235 0.0
H1036 H 0.58431 0.97004 0.95779 0.0
H1037 H 0.6041 0.01707 0.84659 0.0
H1038 H 0.62248 0.99013 0.83589 0.0
H1039 H 0.63485 0.01105 0.8604 0.0
C1040 C 0.4334 0.55237 0.89336 0.0
C1041 C 0.442 0.5533 0.8681 0.0
C1042 C 0.42133 0.5304 0.90285 0.0
C1043 C 0.41712 0.50937 0.88635 0.0
C1044 C 0.42265 0.51177 0.86001 0.0
C1045 C 0.43563 0.53352 0.85128 0.0
C1046 C 0.41606 0.52858 0.93112 0.0
C1047 C 0.41721 0.49037 0.84155 0.0
C1048 C 0.42938 0.44455 0.91592 0.0
C1049 C 0.4048 0.43692 0.92318 0.0
C1050 C 0.43346 0.4679 0.90355 0.0
C1051 C 0.41231 0.48364 0.89741 0.0
C1052 C 0.38726 0.47528 0.9032 0.0
C1053 C 0.38383 0.45222 0.91655 0.0
C1054 C 0.46058 0.47624 0.89821 0.0
C1055 C 0.36416 0.49094 0.89607 0.0
H1056 H 0.4386 0.56759 0.90639 0.0
H1057 H 0.44227 0.53433 0.83169 0.0
H1058 H 0.39686 0.52043 0.93469 0.0
H1059 H 0.43025 0.51559 0.94003 0.0
H1060 H 0.4173 0.54747 0.94068 0.0
H1061 H 0.41706 0.49725 0.82149 0.0
H1062 H 0.43221 0.47551 0.84332 0.0
H1063 H 0.39856 0.48127 0.84587 0.0
H1064 H 0.44567 0.43293 0.92122 0.0
H1065 H 0.36477 0.44631 0.92207 0.0
H1066 H 0.46451 0.49462 0.90798 0.0
H1067 H 0.46329 0.47939 0.87746 0.0
H1068 H 0.47486 0.46196 0.9047 0.0
H1069 H 0.36168 0.50665 0.91004 0.0
H1070 H 0.34647 0.47924 0.89615 0.0
H1071 H 0.36653 0.49967 0.87691 0.0
C1072 C 0.937 0.07009 0.05986 0.0
C1073 C 0.91233 0.07917 0.05504 0.0
C1074 C 0.94091 0.04773 0.07396 0.0
C1075 C 0.91964 0.03461 0.08435 0.0
C1076 C 0.89472 0.04446 0.08072 0.0
C1077 C 0.89129 0.06637 0.06557 0.0
C1078 C 0.96779 0.03759 0.07679 0.0
C1079 C 0.87171 0.03162 0.09238 0.0
C1080 C 0.93444 0.96478 0.09491 0.0
C1081 C 0.94529 0.96564 0.11928 0.0
C1082 C 0.92411 0.98687 0.0838 0.0
C1083 C 0.92391 0.01 0.09786 0.0
C1084 C 0.93219 0.01008 0.12357 0.0
C1085 C 0.94339 0.988 0.1338 0.0
C1086 C 0.9161 0.98604 0.05614 0.0
C1087 C 0.93121 0.03401 0.13958 0.0
H1088 H 0.95326 0.0798 0.05148 0.0
H1089 H 0.8722 0.07346 0.06191 0.0
H1090 H 0.97298 0.03641 0.09726 0.0
H1091 H 0.969 0.01799 0.06881 0.0
H1092 H 0.98211 0.04975 0.06693 0.0
H1093 H 0.85436 0.04377 0.09114 0.0
H1094 H 0.86785 0.01341 0.08232 0.0
H1095 H 0.87534 0.02695 0.11272 0.0
H1096 H 0.93624 0.94752 0.08362 0.0
H1097 H 0.95178 0.98857 0.15271 0.0
H1098 H 0.93047 0.99629 0.0444 0.0
H1099 H 0.89754 0.99581 0.0534 0.0
H1100 H 0.91449 0.96616 0.04891 0.0
H1101 H 0.94715 0.04683 0.13409 0.0
H1102 H 0.93301 0.02966 0.16025 0.0
H1103 H 0.9131 0.04452 0.13633 0.0
C1104 C 0.97254 0.19845 0.40086 0.0
C1105 C 0.98853 0.18323 0.38573 0.0
C1106 C 0.97105 0.22491 0.39714 0.0
C1107 C 0.98624 0.23656 0.37804 0.0
C1108 C 0.00149 0.22115 0.36184 0.0
C1109 C 0.00233 0.19458 0.36578 0.0
C1110 C 0.9542 0.24054 0.41457 0.0
C1111 C 0.01806 0.23286 0.34137 0.0
C1112 C 0.97024 0.30622 0.36493 0.0
C1113 C 0.98634 0.31857 0.38238 0.0
C1114 C 0.97079 0.27948 0.36226 0.0
C1115 C 0.98806 0.26493 0.37715 0.0
C1116 C 0.00546 0.27755 0.39351 0.0
C1117 C 0.00424 0.30416 0.39607 0.0
C1118 C 0.95185 0.26675 0.34471 0.0
C1119 C 0.02448 0.26283 0.40942 0.0
H1120 H 0.9616 0.18974 0.41613 0.0
H1121 H 0.01476 0.18289 0.35405 0.0
H1122 H 0.96625 0.25242 0.42729 0.0
H1123 H 0.94204 0.25369 0.40326 0.0
H1124 H 0.94166 0.22839 0.42663 0.0
H1125 H 0.02609 0.21822 0.32829 0.0
H1126 H 0.00705 0.24692 0.33 0.0
H1127 H 0.03411 0.24327 0.35043 0.0
H1128 H 0.95634 0.31728 0.35433 0.0
H1129 H 0.01693 0.31364 0.40937 0.0
H1130 H 0.9371 0.25686 0.35628 0.0
H1131 H 0.96142 0.25208 0.33279 0.0
H1132 H 0.94218 0.28069 0.33199 0.0
H1133 H 0.01422 0.2517 0.42424 0.0
H1134 H 0.03841 0.27558 0.41906 0.0
H1135 H 0.03513 0.24906 0.39735 0.0
C1136 C 0.99024 0.70392 0.17603 0.0
C1137 C 0.00612 0.69558 0.15611 0.0
C1138 C 0.98582 0.73013 0.18005 0.0
C1139 C 0.99751 0.74825 0.16372 0.0
C1140 C 0.01499 0.73992 0.14485 0.0
C1141 C 0.01909 0.71373 0.14131 0.0
C1142 C 0.96739 0.73826 0.20065 0.0
C1143 C 0.02807 0.75857 0.12713 0.0
C1144 C 0.96548 0.80933 0.14272 0.0
C1145 C 0.98096 0.82786 0.15425 0.0
C1146 C 0.96942 0.78326 0.14727 0.0
C1147 C 0.98931 0.77548 0.16382 0.0
C1148 C 0.00352 0.79412 0.17727 0.0
C1149 C 0.9992 0.82016 0.17229 0.0
C1150 C 0.95363 0.76404 0.13269 0.0
C1151 C 0.02457 0.78661 0.19542 0.0
H1152 H 0.98022 0.69 0.18762 0.0
H1153 H 0.03164 0.70746 0.12609 0.0
H1154 H 0.97465 0.75527 0.21097 0.0
H1155 H 0.9489 0.7436 0.19183 0.0
H1156 H 0.96385 0.72272 0.21464 0.0
H1157 H 0.04276 0.74921 0.11502 0.0
H1158 H 0.01367 0.76755 0.11445 0.0
H1159 H 0.03731 0.77405 0.1382 0.0
H1160 H 0.95111 0.81512 0.12901 0.0
H1161 H 0.01115 0.83437 0.18142 0.0
H1162 H 0.94633 0.74901 0.1457 0.0
H1163 H 0.96577 0.75454 0.11814 0.0
H1164 H 0.93716 0.77306 0.12284 0.0
H1165 H 0.01863 0.77027 0.20752 0.0
H1166 H 0.03025 0.80274 0.20795 0.0
H1167 H 0.04156 0.7805 0.18432 0.0
C1168 C 0.3767 0.97749 0.19228 0.0
C1169 C 0.36366 0.993 0.17481 0.0
C1170 C 0.37149 0.9788 0.21847 0.0
C1171 C 0.35281 0.99614 0.2275 0.0
C1172 C 0.33832 0.01059 0.20983 0.0
C1173 C 0.34391 0.00884 0.18362 0.0
C1174 C 0.38724 0.96282 0.23659 0.0
C1175 C 0.31809 0.0291 0.21869 0.0
C1176 C 0.33824 0.98753 0.29799 0.0
C1177 C 0.35645 0.00384 0.30891 0.0
C1178 C 0.33541 0.98602 0.27134 0.0
C1179 C 0.35109 0.00125 0.2554 0.0
C1180 C 0.36796 0.01921 0.26647 0.0
C1181 C 0.37047 0.02024 0.29306 0.0
C1182 C 0.31701 0.96683 0.26027 0.0
C1183 C 0.38484 0.03605 0.25022 0.0
H1184 H 0.39178 0.96497 0.18559 0.0
H1185 H 0.33368 0.02083 0.17021 0.0
H1186 H 0.40001 0.97542 0.24784 0.0
H1187 H 0.37468 0.95262 0.25027 0.0
H1188 H 0.39919 0.94854 0.22643 0.0
H1189 H 0.30563 0.03543 0.20275 0.0
H1190 H 0.30603 0.02041 0.23378 0.0
H1191 H 0.32739 0.04619 0.22704 0.0
H1192 H 0.32729 0.97484 0.31015 0.0
H1193 H 0.38433 0.03313 0.30139 0.0
H1194 H 0.32784 0.95012 0.25303 0.0
H1195 H 0.30642 0.97514 0.24393 0.0
H1196 H 0.30307 0.96 0.27474 0.0
H1197 H 0.39948 0.02415 0.24055 0.0
H1198 H 0.39476 0.05088 0.26166 0.0
H1199 H 0.37346 0.04563 0.23516 0.0
C1200 C 0.6499 0.49741 0.17866 0.0
C1201 C 0.63121 0.51539 0.17192 0.0
C1202 C 0.65484 0.49175 0.20443 0.0
C1203 C 0.64078 0.50441 0.22375 0.0
C1204 C 0.62348 0.52407 0.21701 0.0
C1205 C 0.6189 0.52928 0.1912 0.0
C1206 C 0.67368 0.47092 0.21084 0.0
C1207 C 0.60829 0.53829 0.23699 0.0
C1208 C 0.61925 0.47132 0.28409 0.0
C1209 C 0.63369 0.48393 0.30272 0.0
C1210 C 0.62272 0.47654 0.2581 0.0
C1211 C 0.64106 0.49491 0.25052 0.0
C1212 C 0.65706 0.50627 0.26908 0.0
C1213 C 0.6532 0.50062 0.29505 0.0
C1214 C 0.60543 0.46372 0.23892 0.0
C1215 C 0.67702 0.5257 0.26175 0.0
H1216 H 0.65958 0.48666 0.16386 0.0
H1217 H 0.60468 0.54345 0.18613 0.0
H1218 H 0.68557 0.47637 0.22748 0.0
H1219 H 0.66314 0.45329 0.21605 0.0
H1220 H 0.68642 0.46647 0.19446 0.0
H1221 H 0.59782 0.55484 0.22884 0.0
H1222 H 0.5942 0.52516 0.24584 0.0
H1223 H 0.62102 0.54527 0.25239 0.0
H1224 H 0.60435 0.45815 0.28986 0.0
H1225 H 0.66449 0.51038 0.30936 0.0
H1226 H 0.61677 0.45575 0.22291 0.0
H1227 H 0.59208 0.47803 0.23078 0.0
H1228 H 0.59401 0.44809 0.24759 0.0
H1229 H 0.68757 0.51953 0.24444 0.0
H1230 H 0.6909 0.52904 0.27741 0.0
H1231 H 0.66755 0.5441 0.25722 0.0
C1232 C 0.29413 0.38563 0.01186 0.0
C1233 C 0.3095 0.37039 0.99611 0.0
C1234 C 0.26755 0.38279 0.01218 0.0
C1235 C 0.25595 0.36435 0.9962 0.0
C1236 C 0.27143 0.34785 0.98137 0.0
C1237 C 0.29812 0.35103 0.98154 0.0
C1238 C 0.25181 0.40061 0.02854 0.0
C1239 C 0.25978 0.3279 0.96419 0.0
C1240 C 0.18539 0.35576 0.0104 0.0
C1241 C 0.1747 0.3743 0.9943 0.0
C1242 C 0.21179 0.35083 0.01004 0.0
C1243 C 0.2277 0.36468 0.99311 0.0
C1244 C 0.21663 0.38185 0.97542 0.0
C1245 C 0.1903 0.38651 0.97629 0.0
C1246 C 0.22283 0.33223 0.02906 0.0
C1247 C 0.23283 0.3968 0.9568 0.0
H1248 H 0.30282 0.40042 0.02342 0.0
H1249 H 0.30991 0.33917 0.96935 0.0
H1250 H 0.24074 0.41374 0.01613 0.0
H1251 H 0.23791 0.38962 0.04016 0.0
H1252 H 0.2638 0.41225 0.04157 0.0
H1253 H 0.27424 0.31402 0.95722 0.0
H1254 H 0.24444 0.31734 0.97429 0.0
H1255 H 0.25098 0.33737 0.94743 0.0
H1256 H 0.17342 0.34619 0.02431 0.0
H1257 H 0.18211 0.40061 0.96355 0.0
H1258 H 0.23225 0.34297 0.04468 0.0
H1259 H 0.23755 0.31999 0.01997 0.0
H1260 H 0.20788 0.31981 0.03758 0.0
H1261 H 0.24432 0.41112 0.96735 0.0
H1262 H 0.22109 0.40698 0.94237 0.0
H1263 H 0.24634 0.38396 0.94673 0.0
C1264 C 0.19246 0.64567 0.50458 0.0
C1265 C 0.18579 0.62424 0.51923 0.0
C1266 C 0.21822 0.65148 0.49962 0.0
C1267 C 0.23763 0.63557 0.50969 0.0
C1268 C 0.23095 0.61503 0.52597 0.0
C1269 C 0.20514 0.60957 0.53044 0.0
C1270 C 0.22455 0.67361 0.48228 0.0
C1271 C 0.25103 0.59778 0.53743 0.0
C1272 C 0.29952 0.62128 0.47545 0.0
C1273 C 0.31737 0.63375 0.49098 0.0
C1274 C 0.27326 0.62341 0.48016 0.0
C1275 C 0.26461 0.63819 0.50108 0.0
C1276 C 0.28241 0.65246 0.51559 0.0
C1277 C 0.30864 0.65014 0.51029 0.0
C1278 C 0.25494 0.60821 0.46392 0.0
C1279 C 0.27396 0.66856 0.53793 0.0
H1280 H 0.17759 0.6571 0.49585 0.0
H1281 H 0.20013 0.59316 0.54201 0.0
H1282 H 0.24076 0.68483 0.49 0.0
H1283 H 0.23043 0.66621 0.46333 0.0
H1284 H 0.20794 0.68654 0.47957 0.0
H1285 H 0.24286 0.58427 0.5516 0.0
H1286 H 0.26035 0.58655 0.52206 0.0
H1287 H 0.26607 0.60927 0.54691 0.0
H1288 H 0.30614 0.60882 0.4603 0.0
H1289 H 0.32234 0.65984 0.52238 0.0
H1290 H 0.23864 0.62029 0.45785 0.0
H1291 H 0.24708 0.59214 0.47529 0.0
H1292 H 0.26431 0.60023 0.44664 0.0
H1293 H 0.25666 0.67977 0.53306 0.0
H1294 H 0.2892 0.68187 0.54425 0.0
H1295 H 0.26897 0.65591 0.55417 0.0
C1296 C 0.68899 0.83591 0.49539 0.0
C1297 C 0.68222 0.85248 0.47547 0.0
C1298 C 0.71458 0.83343 0.50306 0.0
C1299 C 0.73368 0.84785 0.49048 0.0
C1300 C 0.72719 0.86268 0.46885 0.0
C1301 C 0.70153 0.8648 0.4616 0.0
C1302 C 0.72079 0.81709 0.52595 0.0
C1303 C 0.747 0.87815 0.4547 0.0
C1304 C 0.7886 0.87583 0.52811 0.0
C1305 C 0.80932 0.86122 0.51954 0.0
C1306 C 0.76375 0.87089 0.51957 0.0
C1307 C 0.75945 0.85077 0.50204 0.0
C1308 C 0.78007 0.83515 0.49422 0.0
C1309 C 0.80483 0.8406 0.50303 0.0
C1310 C 0.74226 0.88798 0.52848 0.0
C1311 C 0.77618 0.81339 0.47575 0.0
H1312 H 0.67419 0.82622 0.50613 0.0
H1313 H 0.69648 0.87739 0.44597 0.0
H1314 H 0.7386 0.80607 0.52274 0.0
H1315 H 0.72394 0.82956 0.54278 0.0
H1316 H 0.70508 0.80359 0.53052 0.0
H1317 H 0.73951 0.88596 0.43646 0.0
H1318 H 0.75322 0.89437 0.46683 0.0
H1319 H 0.7641 0.86638 0.45052 0.0
H1320 H 0.79184 0.89168 0.54101 0.0
H1321 H 0.82074 0.82913 0.49639 0.0
H1322 H 0.72646 0.87635 0.53644 0.0
H1323 H 0.73451 0.89885 0.51204 0.0
H1324 H 0.74855 0.90182 0.54327 0.0
H1325 H 0.75961 0.80155 0.48159 0.0
H1326 H 0.79332 0.80096 0.47434 0.0
H1327 H 0.77194 0.82115 0.45652 0.0
C1328 C 0.50697 0.81315 0.83345 0.0
C1329 C 0.52324 0.81897 0.85391 0.0
C1330 C 0.50119 0.78764 0.82728 0.0
C1331 C 0.51191 0.76762 0.84196 0.0
C1332 C 0.5297 0.77342 0.86144 0.0
C1333 C 0.53513 0.79898 0.86716 0.0
C1334 C 0.4824 0.78224 0.80615 0.0
C1335 C 0.54178 0.75268 0.87745 0.0
C1336 C 0.47689 0.70641 0.85714 0.0
C1337 C 0.49138 0.68834 0.8437 0.0
C1338 C 0.48218 0.73257 0.85519 0.0
C1339 C 0.50248 0.74091 0.83939 0.0
C1340 C 0.51575 0.72297 0.8241 0.0
C1341 C 0.51004 0.69682 0.82644 0.0
C1342 C 0.46733 0.75104 0.87164 0.0
C1343 C 0.53725 0.73114 0.80674 0.0
H1344 H 0.49776 0.82848 0.82304 0.0
H1345 H 0.54795 0.80329 0.88281 0.0
H1346 H 0.48901 0.76605 0.79419 0.0
H1347 H 0.46376 0.77674 0.81457 0.0
H1348 H 0.47939 0.79918 0.79374 0.0
H1349 H 0.55687 0.76021 0.89028 0.0
H1350 H 0.52692 0.74335 0.88933 0.0
H1351 H 0.55029 0.73777 0.86504 0.0
H1352 H 0.46222 0.70004 0.87029 0.0
H1353 H 0.52127 0.68299 0.8159 0.0
H1354 H 0.46083 0.76762 0.86018 0.0
H1355 H 0.47989 0.75846 0.88699 0.0
H1356 H 0.4504 0.74195 0.88064 0.0
H1357 H 0.53213 0.74878 0.79619 0.0
H1358 H 0.5423 0.71599 0.79278 0.0
H1359 H 0.55441 0.73543 0.81837 0.0
C1360 C 0.51124 0.30181 0.64986 0.0
C1361 C 0.49255 0.31065 0.63286 0.0
C1362 C 0.51542 0.27548 0.65321 0.0
C1363 C 0.50054 0.25778 0.63922 0.0
C1364 C 0.4802 0.26668 0.62382 0.0
C1365 C 0.47648 0.29298 0.62082 0.0
C1366 C 0.53702 0.26675 0.67012 0.0
C1367 C 0.46364 0.24848 0.60879 0.0
C1368 C 0.52821 0.19717 0.61175 0.0
C1369 C 0.51548 0.17837 0.62592 0.0
C1370 C 0.5249 0.22313 0.61717 0.0
C1371 C 0.50838 0.23055 0.63726 0.0
C1372 C 0.497 0.21165 0.65289 0.0
C1373 C 0.50068 0.18569 0.64703 0.0
C1374 C 0.53765 0.24264 0.60015 0.0
C1375 C 0.47957 0.21878 0.67469 0.0
H1376 H 0.52365 0.31537 0.65934 0.0
H1377 H 0.46175 0.2997 0.60793 0.0
H1378 H 0.53141 0.2497 0.68137 0.0
H1379 H 0.55359 0.26129 0.65808 0.0
H1380 H 0.54323 0.28204 0.68344 0.0
H1381 H 0.44693 0.25821 0.60009 0.0
H1382 H 0.47511 0.2397 0.59328 0.0
H1383 H 0.45664 0.23281 0.6212 0.0
H1384 H 0.53997 0.19164 0.59563 0.0
H1385 H 0.49087 0.17124 0.65814 0.0
H1386 H 0.54746 0.25734 0.61179 0.0
H1387 H 0.52298 0.25252 0.58849 0.0
H1388 H 0.55182 0.23383 0.58704 0.0
H1389 H 0.4875 0.23505 0.68568 0.0
H1390 H 0.47637 0.20247 0.68788 0.0
H1391 H 0.4608 0.22486 0.66698 0.0
C1392 C 0.83606 0.51541 0.82126 0.0
C1393 C 0.85336 0.53462 0.82822 0.0
C1394 C 0.83255 0.5088 0.79551 0.0
C1395 C 0.84674 0.5217 0.77644 0.0
C1396 C 0.86233 0.54268 0.78324 0.0
C1397 C 0.86541 0.54892 0.80905 0.0
C1398 C 0.81535 0.48665 0.78897 0.0
C1399 C 0.87764 0.5571 0.7635 0.0
C1400 C 0.87218 0.48498 0.71969 0.0
C1401 C 0.85737 0.49469 0.69965 0.0
C1402 C 0.86813 0.49291 0.74489 0.0
C1403 C 0.84869 0.51092 0.75027 0.0
C1404 C 0.83284 0.5199 0.73033 0.0
C1405 C 0.83743 0.51174 0.70518 0.0
C1406 C 0.88546 0.4828 0.76561 0.0
C1407 C 0.81172 0.53886 0.73539 0.0
H1408 H 0.8265 0.50439 0.83594 0.0
H1409 H 0.87855 0.56403 0.81425 0.0
H1410 H 0.80396 0.49082 0.77162 0.0
H1411 H 0.82718 0.46955 0.78489 0.0
H1412 H 0.80213 0.48196 0.80489 0.0
H1413 H 0.88616 0.57484 0.77138 0.0
H1414 H 0.89332 0.54474 0.75636 0.0
H1415 H 0.86552 0.5622 0.74692 0.0
H1416 H 0.88751 0.47168 0.71564 0.0
H1417 H 0.8258 0.51923 0.6898 0.0
H1418 H 0.87398 0.47457 0.7814 0.0
H1419 H 0.8969 0.49869 0.77369 0.0
H1420 H 0.89877 0.4679 0.75847 0.0
H1421 H 0.80017 0.53287 0.75211 0.0
H1422 H 0.7989 0.54114 0.71867 0.0
H1423 H 0.82013 0.55775 0.73997 0.0
C1424 C 0.12078 0.00059 0.70625 0.0
C1425 C 0.13553 0.98516 0.69008 0.0
C1426 C 0.1246 0.00051 0.7327 0.0
C1427 C 0.1436 0.98452 0.74338 0.0
C1428 C 0.15947 0.96986 0.72709 0.0
C1429 C 0.15527 0.97038 0.70055 0.0
C1430 C 0.10739 0.01665 0.74933 0.0
C1431 C 0.17999 0.95268 0.73773 0.0
C1432 C 0.15602 0.99902 0.81328 0.0
C1433 C 0.1383 0.98278 0.82512 0.0
C1434 C 0.15943 0.99862 0.78665 0.0
C1435 C 0.14483 0.98153 0.77163 0.0
C1436 C 0.12848 0.96373 0.78376 0.0
C1437 C 0.12538 0.96462 0.81032 0.0
C1438 C 0.17721 0.01775 0.77448 0.0
C1439 C 0.11276 0.94498 0.76853 0.0
H1440 H 0.10567 0.01228 0.69829 0.0
H1441 H 0.16677 0.95844 0.68816 0.0
H1442 H 0.09507 0.00407 0.76113 0.0
H1443 H 0.11893 0.02847 0.76256 0.0
H1444 H 0.09491 0.02949 0.73795 0.0
H1445 H 0.19297 0.94545 0.72259 0.0
H1446 H 0.19148 0.96293 0.75226 0.0
H1447 H 0.17099 0.93608 0.74734 0.0
H1448 H 0.16615 0.01306 0.8246 0.0
H1449 H 0.11188 0.95179 0.81936 0.0
H1450 H 0.16582 0.03318 0.76549 0.0
H1451 H 0.18876 0.00865 0.75924 0.0
H1452 H 0.19029 0.02653 0.78867 0.0
H1453 H 0.09771 0.95542 0.75788 0.0
H1454 H 0.10339 0.93049 0.78088 0.0
H1455 H 0.12485 0.93497 0.75431 0.0
C1456 C 0.8076 0.16904 0.99723 0.0
C1457 C 0.81644 0.14739 0.98414 0.0
C1458 C 0.7813 0.17435 0.99894 0.0
C1459 C 0.76357 0.15763 0.98726 0.0
C1460 C 0.77256 0.13665 0.97276 0.0
C1461 C 0.79882 0.13179 0.97141 0.0
C1462 C 0.77249 0.19702 0.01438 0.0
C1463 C 0.75436 0.11842 0.95978 0.0
C1464 C 0.698 0.14322 0.01362 0.0
C1465 C 0.68216 0.15417 0.99505 0.0
C1466 C 0.72459 0.14601 0.01247 0.0
C1467 C 0.73565 0.16005 0.99218 0.0
C1468 C 0.71966 0.173 0.97465 0.0
C1469 C 0.69302 0.16993 0.9763 0.0
C1470 C 0.74089 0.13214 0.03178 0.0
C1471 C 0.73068 0.1884 0.95294 0.0
H1472 H 0.82112 0.18122 0.00707 0.0
H1473 H 0.8055 0.11519 0.96101 0.0
H1474 H 0.75724 0.20759 0.00418 0.0
H1475 H 0.76432 0.19027 0.03273 0.0
H1476 H 0.7884 0.21037 0.01863 0.0
H1477 H 0.76445 0.10427 0.94761 0.0
H1478 H 0.74318 0.10792 0.97441 0.0
H1479 H 0.7406 0.12911 0.94774 0.0
H1480 H 0.68972 0.13128 0.02837 0.0
H1481 H 0.6809 0.17854 0.96193 0.0
H1482 H 0.756 0.14491 0.03929 0.0
H1483 H 0.75049 0.11572 0.02242 0.0
H1484 H 0.72946 0.1248 0.04808 0.0
H1485 H 0.74689 0.20029 0.95958 0.0
H1486 H 0.71613 0.20099 0.94403 0.0
H1487 H 0.73812 0.17524 0.93809 0.0
C1488 C 0.05747 0.9748 0.20878 0.0
C1489 C 0.03859 0.95585 0.20767 0.0
C1490 C 0.06028 0.9902 0.23051 0.0
C1491 C 0.04338 0.98695 0.25134 0.0
C1492 C 0.02507 0.96704 0.25079 0.0
C1493 C 0.02309 0.95151 0.22904 0.0
C1494 C 0.08054 0.01069 0.23068 0.0
C1495 C 0.00652 0.96311 0.27252 0.0
C1496 C 0.05525 0.01577 0.31669 0.0
C1497 C 0.03965 0.03755 0.31595 0.0
C1498 C 0.05767 0.99976 0.29536 0.0
C1499 C 0.04363 0.00533 0.273 0.0
C1500 C 0.02856 0.0278 0.27185 0.0
C1501 C 0.02699 0.04383 0.29328 0.0
C1502 C 0.07449 0.9764 0.2971 0.0
C1503 C 0.01306 0.03424 0.24843 0.0
H1504 H 0.06956 0.97813 0.1923 0.0
H1505 H 0.00832 0.93704 0.22818 0.0
H1506 H 0.07139 0.02975 0.2294 0.0
H1507 H 0.09145 0.01013 0.24882 0.0
H1508 H 0.09411 0.00865 0.2145 0.0
H1509 H 0.99428 0.94602 0.26968 0.0
H1510 H 0.01695 0.96097 0.2908 0.0
H1511 H 0.99401 0.98013 0.27434 0.0
H1512 H 0.0652 0.01095 0.33418 0.0
H1513 H 0.01477 0.06053 0.29273 0.0
H1514 H 0.08733 0.97529 0.28028 0.0
H1515 H 0.06249 0.95896 0.29704 0.0
H1516 H 0.08629 0.97635 0.3147 0.0
H1517 H 0.02554 0.03489 0.23133 0.0
H1518 H 0.00306 0.05286 0.25024 0.0
H1519 H 0.9986 0.01911 0.24512 0.0
C1520 C 0.95039 0.45171 0.29075 0.0
C1521 C 0.93326 0.45697 0.3106 0.0
C1522 C 0.95199 0.46787 0.26944 0.0
C1523 C 0.93548 0.48925 0.26767 0.0
C1524 C 0.91655 0.49319 0.28655 0.0
C1525 C 0.91598 0.47725 0.30807 0.0
C1526 C 0.97274 0.46325 0.24995 0.0
C1527 C 0.89794 0.51513 0.28484 0.0
C1528 C 0.96211 0.54691 0.23273 0.0
C1529 C 0.95269 0.54302 0.20807 0.0
C1530 C 0.95621 0.52977 0.25247 0.0
C1531 C 0.93983 0.50878 0.24752 0.0
C1532 C 0.92899 0.50576 0.223 0.0
C1533 C 0.93594 0.52267 0.20341 0.0
C1534 C 0.96856 0.53338 0.27825 0.0
C1535 C 0.91073 0.48423 0.21723 0.0
H1536 H 0.96397 0.43623 0.29286 0.0
H1537 H 0.90269 0.48127 0.32343 0.0
H1538 H 0.96469 0.46324 0.2304 0.0
H1539 H 0.98694 0.47895 0.25091 0.0
H1540 H 0.98282 0.44485 0.25314 0.0
H1541 H 0.88191 0.51301 0.29857 0.0
H1542 H 0.90798 0.53329 0.28907 0.0
H1543 H 0.89002 0.51667 0.26526 0.0
H1544 H 0.97525 0.5625 0.23624 0.0
H1545 H 0.92854 0.51977 0.18431 0.0
H1546 H 0.98076 0.51662 0.28272 0.0
H1547 H 0.95376 0.53462 0.29335 0.0
H1548 H 0.98053 0.55087 0.27907 0.0
H1549 H 0.92114 0.46579 0.21744 0.0
H1550 H 0.90149 0.48649 0.19829 0.0
H1551 H 0.89566 0.48315 0.23209 0.0
C1552 C 0.20011 0.06889 0.97215 0.0
C1553 C 0.19827 0.04978 0.95348 0.0
C1554 C 0.22199 0.07118 0.98743 0.0
C1555 C 0.24227 0.05361 0.98427 0.0
C1556 C 0.24103 0.03506 0.96462 0.0
C1557 C 0.21911 0.03353 0.94928 0.0
C1558 C 0.22288 0.09164 0.0077 0.0
C1559 C 0.26221 0.01587 0.96075 0.0
C1560 C 0.30807 0.06402 0.01271 0.0
C1561 C 0.30705 0.04846 0.03449 0.0
C1562 C 0.28674 0.06687 0.99678 0.0
C1563 C 0.26402 0.05343 0.00252 0.0
C1564 C 0.26256 0.03853 0.02507 0.0
C1565 C 0.28406 0.03643 0.04093 0.0
C1566 C 0.28885 0.08342 0.97327 0.0
C1567 C 0.23873 0.02375 0.03175 0.0
H1568 H 0.18409 0.0816 0.97538 0.0
H1569 H 0.21772 0.01862 0.935 0.0
H1570 H 0.22154 0.08269 0.02685 0.0
H1571 H 0.24129 0.10208 0.00686 0.0
H1572 H 0.20702 0.10559 0.0057 0.0
H1573 H 0.25893 0.00357 0.94379 0.0
H1574 H 0.28078 0.02577 0.95842 0.0
H1575 H 0.26375 0.00347 0.97786 0.0
H1576 H 0.32579 0.07348 0.00772 0.0
H1577 H 0.28324 0.02425 0.05765 0.0
H1578 H 0.27236 0.09667 0.97208 0.0
H1579 H 0.28845 0.07125 0.95596 0.0
H1580 H 0.30675 0.09479 0.97306 0.0
H1581 H 0.22197 0.03668 0.03226 0.0
H1582 H 0.2403 0.01395 0.0505 0.0
H1583 H 0.23501 0.00917 0.01684 0.0
C1584 C 0.71187 0.48173 0.04214 0.0
C1585 C 0.6896 0.46864 0.03533 0.0
C1586 C 0.73367 0.4807 0.02658 0.0
C1587 C 0.73331 0.46568 0.00407 0.0
C1588 C 0.71154 0.45081 0.99826 0.0
C1589 C 0.68978 0.45276 0.01378 0.0
C1590 C 0.75642 0.49708 0.03329 0.0
C1591 C 0.71072 0.43392 0.97494 0.0
C1592 C 0.77586 0.48998 0.95075 0.0
C1593 C 0.79824 0.476 0.95498 0.0
C1594 C 0.7542 0.48616 0.96606 0.0
C1595 C 0.75481 0.46744 0.98561 0.0
C1596 C 0.77672 0.45193 0.98862 0.0
C1597 C 0.79833 0.45664 0.97349 0.0
C1598 C 0.73129 0.50329 0.96241 0.0
C1599 C 0.7778 0.43124 0.00866 0.0
H1600 H 0.71169 0.49419 0.05866 0.0
H1601 H 0.67258 0.4425 0.00856 0.0
H1602 H 0.77409 0.48542 0.03355 0.0
H1603 H 0.75897 0.51207 0.01853 0.0
H1604 H 0.75423 0.50652 0.05216 0.0
H1605 H 0.69408 0.42077 0.97526 0.0
H1606 H 0.70941 0.44593 0.95755 0.0
H1607 H 0.72847 0.42245 0.97341 0.0
H1608 H 0.77581 0.5051 0.9366 0.0
H1609 H 0.81561 0.44569 0.97671 0.0
H1610 H 0.72857 0.5153 0.97966 0.0
H1611 H 0.71375 0.49171 0.95999 0.0
H1612 H 0.73338 0.51605 0.94559 0.0
H1613 H 0.77897 0.44005 0.02787 0.0
H1614 H 0.7946 0.41854 0.00607 0.0
H1615 H 0.7602 0.41947 0.00816 0.0
C1616 C 0.30198 0.92193 0.47429 0.0
C1617 C 0.29955 0.94034 0.45501 0.0
C1618 C 0.28173 0.91682 0.4911 0.0
C1619 C 0.25892 0.93117 0.48912 0.0
C1620 C 0.25606 0.9491 0.46903 0.0
C1621 C 0.27631 0.95316 0.45194 0.0
C1622 C 0.28515 0.89686 0.5116 0.0
C1623 C 0.23223 0.96515 0.46654 0.0
C1624 C 0.19643 0.91484 0.52186 0.0
C1625 C 0.19711 0.93116 0.54305 0.0
C1626 C 0.21725 0.91322 0.50505 0.0
C1627 C 0.23878 0.92902 0.50905 0.0
C1628 C 0.24004 0.94459 0.53115 0.0
C1629 C 0.2193 0.94514 0.54813 0.0
C1630 C 0.2156 0.89561 0.48231 0.0
C1631 C 0.26245 0.96209 0.53589 0.0
H1632 H 0.31996 0.91193 0.47659 0.0
H1633 H 0.27454 0.9676 0.43721 0.0
H1634 H 0.28718 0.9063 0.53043 0.0
H1635 H 0.26814 0.88428 0.51263 0.0
H1636 H 0.30233 0.88487 0.50823 0.0
H1637 H 0.23271 0.97767 0.44943 0.0
H1638 H 0.21511 0.95276 0.46538 0.0
H1639 H 0.23003 0.97734 0.48374 0.0
H1640 H 0.17926 0.90396 0.51798 0.0
H1641 H 0.21971 0.958 0.56434 0.0
H1642 H 0.23372 0.88489 0.47985 0.0
H1643 H 0.21254 0.90701 0.46473 0.0
H1644 H 0.19965 0.88175 0.48416 0.0
H1645 H 0.28059 0.95119 0.5353 0.0
H1646 H 0.26108 0.97199 0.55459 0.0
H1647 H 0.26338 0.97672 0.52058 0.0
C1648 C 0.80579 0.54036 0.50734 0.0
C1649 C 0.8161 0.51614 0.51209 0.0
C1650 C 0.78549 0.54351 0.49011 0.0
C1651 C 0.77483 0.5218 0.47804 0.0
C1652 C 0.78612 0.4975 0.48179 0.0
C1653 C 0.80677 0.49502 0.49861 0.0
C1654 C 0.77447 0.56983 0.48606 0.0
C1655 C 0.77509 0.47373 0.46977 0.0
C1656 C 0.70339 0.52079 0.4674 0.0
C1657 C 0.70157 0.52206 0.44073 0.0
C1658 C 0.7271 0.52124 0.47968 0.0
C1659 C 0.74966 0.52368 0.465 0.0
C1660 C 0.74796 0.52633 0.43814 0.0
C1661 C 0.72389 0.52515 0.42624 0.0
C1662 C 0.72799 0.51793 0.50833 0.0
C1663 C 0.77158 0.52967 0.42197 0.0
H1664 H 0.81311 0.55675 0.51764 0.0
H1665 H 0.81443 0.47621 0.50256 0.0
H1666 H 0.77038 0.57313 0.46555 0.0
H1667 H 0.75616 0.57153 0.49658 0.0
H1668 H 0.78755 0.58503 0.49296 0.0
H1669 H 0.7877 0.45686 0.47233 0.0
H1670 H 0.75631 0.46947 0.47863 0.0
H1671 H 0.77182 0.47668 0.44908 0.0
H1672 H 0.68627 0.5183 0.47878 0.0
H1673 H 0.7226 0.52624 0.40563 0.0
H1674 H 0.7381 0.53424 0.51725 0.0
H1675 H 0.73879 0.50035 0.51317 0.0
H1676 H 0.70865 0.51651 0.51694 0.0
H1677 H 0.78393 0.54486 0.43004 0.0
H1678 H 0.76686 0.53463 0.40191 0.0
H1679 H 0.78282 0.51172 0.42198 0.0
C1680 C 0.05007 0.29734 0.02951 0.0
C1681 C 0.046 0.31555 0.04866 0.0
C1682 C 0.03487 0.27531 0.02808 0.0
C1683 C 0.01558 0.27117 0.04661 0.0
C1684 C 0.01255 0.28869 0.06694 0.0
C1685 C 0.02759 0.31085 0.06755 0.0
C1686 C 0.03852 0.25722 0.00593 0.0
C1687 C 0.99271 0.28457 0.08746 0.0
C1688 C 0.9589 0.23107 0.02567 0.0
C1689 C 0.96605 0.20679 0.03427 0.0
C1690 C 0.97464 0.25234 0.03001 0.0
C1691 C 0.99772 0.24927 0.0438 0.0
C1692 C 0.00428 0.22502 0.05372 0.0
C1693 C 0.98852 0.204 0.04854 0.0
C1694 C 0.96717 0.27784 0.01881 0.0
C1695 C 0.02831 0.22111 0.06912 0.0
H1696 H 0.0641 0.30102 0.01474 0.0
H1697 H 0.02446 0.32487 0.08245 0.0
H1698 H 0.04146 0.23747 0.01297 0.0
H1699 H 0.02105 0.2571 0.99395 0.0
H1700 H 0.05503 0.2626 0.99375 0.0
H1701 H 0.99473 0.29838 0.10341 0.0
H1702 H 0.97335 0.2867 0.07918 0.0
H1703 H 0.99413 0.26491 0.09524 0.0
H1704 H 0.94164 0.23323 0.01447 0.0
H1705 H 0.994 0.18523 0.05536 0.0
H1706 H 0.98172 0.28394 0.00466 0.0
H1707 H 0.96655 0.2926 0.03397 0.0
H1708 H 0.94827 0.2772 0.00924 0.0
H1709 H 0.04527 0.22391 0.05673 0.0
H1710 H 0.02933 0.20169 0.0776 0.0
H1711 H 0.02944 0.23542 0.08469 0.0
C1712 C 0.0728 0.71887 0.48838 0.0
C1713 C 0.05685 0.6978 0.49268 0.0
C1714 C 0.06283 0.74386 0.48841 0.0
C1715 C 0.03655 0.74771 0.4936 0.0
C1716 C 0.0205 0.72643 0.49805 0.0
C1717 C 0.03078 0.70181 0.49719 0.0
C1718 C 0.08032 0.76608 0.48293 0.0
C1719 C 0.99246 0.72964 0.50421 0.0
C1720 C 0.00808 0.80807 0.52109 0.0
C1721 C 0.99314 0.81649 0.50059 0.0
C1722 C 0.024 0.78666 0.5186 0.0
C1723 C 0.02536 0.77378 0.49487 0.0
C1724 C 0.0121 0.78371 0.47351 0.0
C1725 C 0.99579 0.80474 0.47673 0.0
C1726 C 0.03736 0.77649 0.54202 0.0
C1727 C 0.01361 0.77099 0.44771 0.0
H1728 H 0.09297 0.71581 0.48485 0.0
H1729 H 0.01838 0.68562 0.50081 0.0
H1730 H 0.07265 0.77753 0.46684 0.0
H1731 H 0.08125 0.77885 0.49978 0.0
H1732 H 0.1 0.7598 0.47807 0.0
H1733 H 0.98284 0.71112 0.50799 0.0
H1734 H 0.99015 0.742 0.52125 0.0
H1735 H 0.98256 0.73915 0.4881 0.0
H1736 H 0.00593 0.81702 0.53961 0.0
H1737 H 0.98446 0.81143 0.46077 0.0
H1738 H 0.05734 0.7711 0.53756 0.0
H1739 H 0.0274 0.75901 0.5487 0.0
H1740 H 0.03744 0.79059 0.55786 0.0
H1741 H 0.03358 0.7655 0.4432 0.0
H1742 H 0.00632 0.78358 0.43228 0.0
H1743 H 0.002 0.75328 0.4479 0.0
C1744 C 0.54747 0.77605 0.51808 0.0
C1745 C 0.5431 0.79958 0.52995 0.0
C1746 C 0.53101 0.75533 0.52231 0.0
C1747 C 0.51019 0.75808 0.53941 0.0
C1748 C 0.50694 0.78122 0.55295 0.0
C1749 C 0.5232 0.80187 0.54773 0.0
C1750 C 0.53491 0.73109 0.50717 0.0
C1751 C 0.48558 0.78458 0.57202 0.0
C1752 C 0.45286 0.71658 0.5242 0.0
C1753 C 0.45781 0.69499 0.53915 0.0
C1754 C 0.4693 0.73773 0.5248 0.0
C1755 C 0.49072 0.73749 0.54132 0.0
C1756 C 0.49455 0.71657 0.55797 0.0
C1757 C 0.47827 0.69535 0.55638 0.0
C1758 C 0.46476 0.7595 0.50644 0.0
C1759 C 0.51659 0.71601 0.57651 0.0
H1760 H 0.56269 0.77435 0.50414 0.0
H1761 H 0.51988 0.82007 0.55701 0.0
H1762 H 0.53583 0.71437 0.52012 0.0
H1763 H 0.51842 0.72813 0.49421 0.0
H1764 H 0.55264 0.73162 0.49552 0.0
H1765 H 0.48804 0.80213 0.58367 0.0
H1766 H 0.46709 0.78591 0.56182 0.0
H1767 H 0.48449 0.76786 0.58498 0.0
H1768 H 0.43721 0.71622 0.51068 0.0
H1769 H 0.48206 0.67867 0.56804 0.0
H1770 H 0.4807 0.76044 0.4925 0.0
H1771 H 0.46434 0.77795 0.51681 0.0
H1772 H 0.44657 0.75735 0.49577 0.0
H1773 H 0.5347 0.71308 0.56593 0.0
H1774 H 0.51457 0.70041 0.59075 0.0
H1775 H 0.51813 0.73448 0.58677 0.0
C1776 C 0.53213 0.54725 0.76486 0.0
C1777 C 0.54531 0.54358 0.78779 0.0
C1778 C 0.53497 0.52999 0.74455 0.0
C1779 C 0.55203 0.50911 0.74702 0.0
C1780 C 0.56689 0.50656 0.76941 0.0
C1781 C 0.56299 0.52357 0.78975 0.0
C1782 C 0.51839 0.53313 0.72118 0.0
C1783 C 0.58598 0.48518 0.77239 0.0
C1784 C 0.53399 0.45029 0.7088 0.0
C1785 C 0.54755 0.45433 0.68613 0.0
C1786 C 0.53596 0.46756 0.72919 0.0
C1787 C 0.55253 0.48886 0.72708 0.0
C1788 C 0.56783 0.49179 0.705 0.0
C1789 C 0.5648 0.47474 0.68456 0.0
C1790 C 0.51893 0.46399 0.7522 0.0
C1791 C 0.58645 0.51364 0.70243 0.0
H1792 H 0.51823 0.56253 0.76345 0.0
H1793 H 0.57325 0.52079 0.8075 0.0
H1794 H 0.5303 0.53336 0.70368 0.0
H1795 H 0.50518 0.51664 0.71962 0.0
H1796 H 0.5069 0.55096 0.72179 0.0
H1797 H 0.59873 0.4882 0.78906 0.0
H1798 H 0.57575 0.46683 0.77508 0.0
H1799 H 0.59787 0.48334 0.75495 0.0
H1800 H 0.52041 0.4347 0.7099 0.0
H1801 H 0.57535 0.47783 0.66701 0.0
H1802 H 0.50522 0.48011 0.75344 0.0
H1803 H 0.53042 0.46411 0.76995 0.0
H1804 H 0.50796 0.44586 0.75137 0.0
H1805 H 0.57582 0.53172 0.69946 0.0
H1806 H 0.59969 0.5109 0.68608 0.0
H1807 H 0.59784 0.5158 0.72015 0.0
C1808 C 0.46229 0.97956 0.79754 0.0
C1809 C 0.47944 0.95902 0.79673 0.0
C1810 C 0.45813 0.99488 0.77598 0.0
C1811 C 0.47217 0.99003 0.75341 0.0
C1812 C 0.48883 0.96872 0.75224 0.0
C1813 C 0.49196 0.95319 0.77386 0.0
C1814 C 0.4395 0.01682 0.77767 0.0
C1815 C 0.50453 0.96321 0.72868 0.0
C1816 C 0.45589 0.01851 0.6889 0.0
C1817 C 0.47298 0.03906 0.68764 0.0
C1818 C 0.45429 0.00324 0.71085 0.0
C1819 C 0.47085 0.00814 0.73159 0.0
C1820 C 0.48746 0.0295 0.73076 0.0
C1821 C 0.48803 0.04497 0.70888 0.0
C1822 C 0.43567 0.98125 0.71139 0.0
C1823 C 0.50577 0.03509 0.75229 0.0
H1824 H 0.45253 0.98399 0.81526 0.0
H1825 H 0.50544 0.93748 0.77335 0.0
H1826 H 0.45007 0.03517 0.7776 0.0
H1827 H 0.42662 0.01688 0.76087 0.0
H1828 H 0.42772 0.01594 0.7953 0.0
H1829 H 0.51596 0.94543 0.73058 0.0
H1830 H 0.49197 0.96138 0.71176 0.0
H1831 H 0.51774 0.97936 0.725 0.0
H1832 H 0.44418 0.014 0.67245 0.0
H1833 H 0.50147 0.06068 0.70777 0.0
H1834 H 0.42488 0.98113 0.72963 0.0
H1835 H 0.44623 0.96294 0.71016 0.0
H1836 H 0.42187 0.98212 0.69532 0.0
H1837 H 0.49527 0.03682 0.7706 0.0
H1838 H 0.51678 0.05293 0.74907 0.0
H1839 H 0.51942 0.019 0.75434 0.0
C1840 C 0.45599 0.28418 0.94969 0.0
C1841 C 0.46175 0.30828 0.93966 0.0
C1842 C 0.47302 0.26367 0.94674 0.0
C1843 C 0.496 0.26724 0.93287 0.0
C1844 C 0.50105 0.29112 0.92128 0.0
C1845 C 0.48402 0.31147 0.92512 0.0
C1846 C 0.46711 0.2386 0.95971 0.0
C1847 C 0.52491 0.29548 0.9057 0.0
C1848 C 0.55124 0.22437 0.95201 0.0
C1849 C 0.54879 0.20423 0.93459 0.0
C1850 C 0.5346 0.24538 0.95121 0.0
C1851 C 0.51549 0.24654 0.93212 0.0
C1852 C 0.5141 0.22711 0.9134 0.0
C1853 C 0.53056 0.206 0.91507 0.0
C1854 C 0.53652 0.26555 0.97171 0.0
C1855 C 0.49454 0.22806 0.89229 0.0
H1856 H 0.43889 0.28174 0.96113 0.0
H1857 H 0.48845 0.33008 0.91721 0.0
H1858 H 0.46796 0.22272 0.94575 0.0
H1859 H 0.48168 0.23469 0.97458 0.0
H1860 H 0.44796 0.23858 0.96886 0.0
H1861 H 0.52443 0.31401 0.89537 0.0
H1862 H 0.54183 0.29536 0.91841 0.0
H1863 H 0.52751 0.27988 0.89161 0.0
H1864 H 0.56514 0.22298 0.96727 0.0
H1865 H 0.52867 0.19049 0.90149 0.0
H1866 H 0.51883 0.26551 0.98339 0.0
H1867 H 0.53828 0.28476 0.963 0.0
H1868 H 0.55309 0.2624 0.98455 0.0
H1869 H 0.4752 0.22502 0.90037 0.0
H1870 H 0.49805 0.21326 0.87751 0.0
H1871 H 0.4946 0.24712 0.88301 0.0
loop_
_geom_bond_atom_site_label_1
_geom_bond_atom_site_label_2
_geom_bond_distance
_geom_bond_site_symmetry_2
_ccdc_geom_bond_type
O0 Cd1 2.223 1_455 S
O0 C8 1.315 . S
Cd1 O0 2.223 1_655 S
Cd1 O4 2.297 . S
Cd1 O5 2.439 . S
Cd1 O11 2.240 . S
Cd2 O3 2.240 . S
Cd2 O10 2.201 1_455 S
Cd2 O12 2.297 . S
Cd2 O13 2.439 1_455 S
O3 Cd2 2.240 . S
O3 C8 1.279 . S
O4 Cd1 2.297 . S
O4 C6 1.247 . S
O5 Cd1 2.439 . S
O5 C6 1.208 . S
C6 O4 1.247 . S
C6 O5 1.208 . S
C7 O12 1.234 1_655 S
C7 O13 1.210 . S
C8 O0 1.315 . S
C8 O3 1.279 . S
C9 O10 1.350 . S
C9 O11 1.279 . S
O10 Cd2 2.201 1_655 S
O10 C9 1.350 . S
O11 Cd1 2.240 . S
O11 C9 1.279 . S
O12 Cd2 2.297 . S
O12 C7 1.234 1_455 S
O13 Cd2 2.439 1_655 S
O13 C7 1.210 . S
O14 Cd15 2.223 1_655 S
O14 C22 1.315 . S
Cd15 O14 2.223 1_455 S
Cd15 O18 2.297 . S
Cd15 O19 2.439 . S
Cd15 O25 2.240 . S
Cd16 O17 2.240 . S
Cd16 O24 2.237 . S
Cd16 O26 2.297 . S
Cd16 O27 2.424 1_655 S
O17 Cd16 2.240 . S
O17 C22 1.279 . S
O18 Cd15 2.297 . S
O18 C20 1.247 . S
O19 Cd15 2.439 . S
O19 C20 1.208 . S
C20 O18 1.247 . S
C20 O19 1.208 . S
C21 O26 1.264 . S
C21 O27 1.206 1_655 S
C22 O14 1.315 . S
C22 O17 1.279 . S
C23 O24 1.293 1_455 S
C23 O25 1.279 . S
O24 Cd16 2.237 . S
O24 C23 1.293 1_655 S
O25 Cd15 2.240 . S
O25 C23 1.279 . S
O26 Cd16 2.297 . S
O26 C21 1.264 . S
O27 Cd16 2.424 1_455 S
O27 C21 1.206 1_455 S
O28 Cd29 2.223 1_455 S
O28 C36 1.315 . S
Cd29 O28 2.223 1_655 S
Cd29 O32 2.297 . S
Cd29 O33 2.439 . S
Cd29 O39 2.240 . S
Cd30 O31 2.240 . S
Cd30 O38 2.210 1_455 S
Cd30 O40 2.297 . S
Cd30 O41 2.443 . S
O31 Cd30 2.240 . S
O31 C36 1.279 . S
O32 Cd29 2.297 . S
O32 C34 1.247 . S
O33 Cd29 2.439 . S
O33 C34 1.208 . S
C34 O32 1.247 . S
C34 O33 1.208 . S
C35 O40 1.247 . S
C35 O41 1.209 . S
C36 O28 1.315 . S
C36 O31 1.279 . S
C37 O38 1.336 . S
C37 O39 1.279 . S
O38 Cd30 2.210 1_655 S
O38 C37 1.336 . S
O39 Cd29 2.240 . S
O39 C37 1.279 . S
O40 Cd30 2.297 . S
O40 C35 1.247 . S
O41 Cd30 2.443 . S
O41 C35 1.209 . S
O42 Cd43 2.223 1_655 S
O42 C50 1.315 . S
Cd43 O42 2.223 1_455 S
Cd43 O46 2.297 . S
Cd43 O47 2.439 . S
Cd43 O53 2.240 . S
Cd44 O45 2.240 . S
Cd44 O52 2.242 . S
Cd44 O54 2.297 . S
Cd44 O55 2.439 . S
O45 Cd44 2.240 . S
O45 C50 1.279 . S
O46 Cd43 2.297 . S
O46 C48 1.247 . S
O47 Cd43 2.439 . S
O47 C48 1.208 . S
C48 O46 1.247 . S
C48 O47 1.208 . S
C49 O54 1.247 . S
C49 O55 1.208 . S
C50 O42 1.315 . S
C50 O45 1.279 . S
C51 O52 1.286 1_455 S
C51 O53 1.279 . S
O52 Cd44 2.242 . S
O52 C51 1.286 1_655 S
O53 Cd43 2.240 . S
O53 C51 1.279 . S
O54 Cd44 2.297 . S
O54 C49 1.247 . S
O55 Cd44 2.439 . S
O55 C49 1.208 . S
O56 Cd57 2.223 1_545 S
O56 C64 1.315 . S
Cd57 O56 2.223 1_565 S
Cd57 O60 2.297 . S
Cd57 O61 2.439 . S
Cd57 O67 2.240 . S
Cd58 O59 2.240 . S
Cd58 O66 2.201 1_545 S
Cd58 O68 2.297 . S
Cd58 O69 2.439 1_545 S
O59 Cd58 2.240 . S
O59 C64 1.279 . S
O60 Cd57 2.297 . S
O60 C62 1.247 . S
O61 Cd57 2.439 . S
O61 C62 1.208 . S
C62 O60 1.247 . S
C62 O61 1.208 . S
C63 O68 1.234 1_565 S
C63 O69 1.210 . S
C64 O56 1.315 . S
C64 O59 1.279 . S
C65 O66 1.350 . S
C65 O67 1.279 . S
O66 Cd58 2.201 1_565 S
O66 C65 1.350 . S
O67 Cd57 2.240 . S
O67 C65 1.279 . S
O68 Cd58 2.297 . S
O68 C63 1.234 1_545 S
O69 Cd58 2.439 1_565 S
O69 C63 1.210 . S
O70 Cd71 2.223 . S
O70 C78 1.315 . S
Cd71 O70 2.223 . S
Cd71 O74 2.297 . S
Cd71 O75 2.439 . S
Cd71 O81 2.240 . S
Cd72 O73 2.240 . S
Cd72 O80 2.223 . S
Cd72 O82 2.297 . S
Cd72 O83 2.439 . S
O73 Cd72 2.240 . S
O73 C78 1.279 . S
O74 Cd71 2.297 . S
O74 C76 1.247 . S
O75 Cd71 2.439 . S
O75 C76 1.208 . S
C76 O74 1.247 . S
C76 O75 1.208 . S
C77 O82 1.247 . S
C77 O83 1.208 . S
C78 O70 1.315 . S
C78 O73 1.279 . S
C79 O80 1.315 . S
C79 O81 1.279 . S
O80 Cd72 2.223 . S
O80 C79 1.315 . S
O81 Cd71 2.240 . S
O81 C79 1.279 . S
O82 Cd72 2.297 . S
O82 C77 1.247 . S
O83 Cd72 2.439 . S
O83 C77 1.208 . S
O84 Cd85 2.223 1_565 S
O84 C92 1.315 . S
Cd85 O84 2.223 1_545 S
Cd85 O88 2.297 . S
Cd85 O89 2.439 . S
Cd85 O95 2.240 . S
Cd86 O87 2.240 . S
Cd86 O94 2.237 . S
Cd86 O96 2.297 . S
Cd86 O97 2.424 1_565 S
O87 Cd86 2.240 . S
O87 C92 1.279 . S
O88 Cd85 2.297 . S
O88 C90 1.247 . S
O89 Cd85 2.439 . S
O89 C90 1.208 . S
C90 O88 1.247 . S
C90 O89 1.208 . S
C91 O96 1.264 . S
C91 O97 1.206 1_565 S
C92 O84 1.315 . S
C92 O87 1.279 . S
C93 O94 1.293 1_545 S
C93 O95 1.279 . S
O94 Cd86 2.237 . S
O94 C93 1.293 1_565 S
O95 Cd85 2.240 . S
O95 C93 1.279 . S
O96 Cd86 2.297 . S
O96 C91 1.264 . S
O97 Cd86 2.424 1_545 S
O97 C91 1.206 1_545 S
O98 Cd99 2.223 . S
O98 C106 1.315 . S
Cd99 O98 2.223 . S
Cd99 O102 2.297 . S
Cd99 O103 2.439 . S
Cd99 O109 2.240 . S
Cd100 O101 2.240 . S
Cd100 O108 2.223 . S
Cd100 O110 2.297 . S
Cd100 O111 2.439 . S
O101 Cd100 2.240 . S
O101 C106 1.279 . S
O102 Cd99 2.297 . S
O102 C104 1.247 . S
O103 Cd99 2.439 . S
O103 C104 1.208 . S
C104 O102 1.247 . S
C104 O103 1.208 . S
C105 O110 1.247 . S
C105 O111 1.208 . S
C106 O98 1.315 . S
C106 O101 1.279 . S
C107 O108 1.315 . S
C107 O109 1.279 . S
O108 Cd100 2.223 . S
O108 C107 1.315 . S
O109 Cd99 2.240 . S
O109 C107 1.279 . S
O110 Cd100 2.297 . S
O110 C105 1.247 . S
O111 Cd100 2.439 . S
O111 C105 1.208 . S
O112 Cd113 2.223 1_554 S
O112 C120 1.315 . S
Cd113 O112 2.223 1_556 S
Cd113 O116 2.297 . S
Cd113 O117 2.439 . S
Cd113 O123 2.240 . S
Cd114 O115 2.240 . S
Cd114 O122 2.201 1_554 S
Cd114 O124 2.297 . S
Cd114 O125 2.439 1_554 S
O115 Cd114 2.240 . S
O115 C120 1.279 . S
O116 Cd113 2.297 . S
O116 C118 1.247 . S
O117 Cd113 2.439 . S
O117 C118 1.208 . S
C118 O116 1.247 . S
C118 O117 1.208 . S
C119 O124 1.234 1_556 S
C119 O125 1.210 . S
C120 O112 1.315 . S
C120 O115 1.279 . S
C121 O122 1.350 . S
C121 O123 1.279 . S
O122 Cd114 2.201 1_556 S
O122 C121 1.350 . S
O123 Cd113 2.240 . S
O123 C121 1.279 . S
O124 Cd114 2.297 . S
O124 C119 1.234 1_554 S
O125 Cd114 2.439 1_556 S
O125 C119 1.210 . S
O126 Cd127 2.223 . S
O126 C134 1.315 . S
Cd127 O126 2.223 . S
Cd127 O130 2.297 . S
Cd127 O131 2.439 . S
Cd127 O137 2.240 . S
Cd128 O129 2.240 . S
Cd128 O136 2.223 . S
Cd128 O138 2.297 . S
Cd128 O139 2.439 . S
O129 Cd128 2.240 . S
O129 C134 1.279 . S
O130 Cd127 2.297 . S
O130 C132 1.247 . S
O131 Cd127 2.439 . S
O131 C132 1.208 . S
C132 O130 1.247 . S
C132 O131 1.208 . S
C133 O138 1.247 . S
C133 O139 1.208 . S
C134 O126 1.315 . S
C134 O129 1.279 . S
C135 O136 1.315 . S
C135 O137 1.279 . S
O136 Cd128 2.223 . S
O136 C135 1.315 . S
O137 Cd127 2.240 . S
O137 C135 1.279 . S
O138 Cd128 2.297 . S
O138 C133 1.247 . S
O139 Cd128 2.439 . S
O139 C133 1.208 . S
O140 Cd141 2.223 . S
O140 C148 1.315 . S
Cd141 O140 2.223 . S
Cd141 O144 2.297 . S
Cd141 O145 2.439 . S
Cd141 O151 2.240 . S
Cd142 O143 2.240 . S
Cd142 O150 2.223 . S
Cd142 O152 2.297 . S
Cd142 O153 2.439 . S
O143 Cd142 2.240 . S
O143 C148 1.279 . S
O144 Cd141 2.297 . S
O144 C146 1.247 . S
O145 Cd141 2.439 . S
O145 C146 1.208 . S
C146 O144 1.247 . S
C146 O145 1.208 . S
C147 O152 1.247 . S
C147 O153 1.208 . S
C148 O140 1.315 . S
C148 O143 1.279 . S
C149 O150 1.315 . S
C149 O151 1.279 . S
O150 Cd142 2.223 . S
O150 C149 1.315 . S
O151 Cd141 2.240 . S
O151 C149 1.279 . S
O152 Cd142 2.297 . S
O152 C147 1.247 . S
O153 Cd142 2.439 . S
O153 C147 1.208 . S
O154 Cd155 2.223 . S
O154 C162 1.315 . S
Cd155 O154 2.223 . S
Cd155 O158 2.297 . S
Cd155 O159 2.439 . S
Cd155 O165 2.240 . S
Cd156 O157 2.240 . S
Cd156 O164 2.223 . S
Cd156 O166 2.297 . S
Cd156 O167 2.439 . S
O157 Cd156 2.240 . S
O157 C162 1.279 . S
O158 Cd155 2.297 . S
O158 C160 1.247 . S
O159 Cd155 2.439 . S
O159 C160 1.208 . S
C160 O158 1.247 . S
C160 O159 1.208 . S
C161 O166 1.247 . S
C161 O167 1.208 . S
C162 O154 1.315 . S
C162 O157 1.279 . S
C163 O164 1.315 . S
C163 O165 1.279 . S
O164 Cd156 2.223 . S
O164 C163 1.315 . S
O165 Cd155 2.240 . S
O165 C163 1.279 . S
O166 Cd156 2.297 . S
O166 C161 1.247 . S
O167 Cd156 2.439 . S
O167 C161 1.208 . S
O168 Cd169 2.223 . S
O168 C176 1.315 . S
Cd169 O168 2.223 . S
Cd169 O172 2.297 . S
Cd169 O173 2.439 . S
Cd169 O179 2.240 . S
Cd170 O171 2.240 . S
Cd170 O178 2.223 . S
Cd170 O180 2.297 . S
Cd170 O181 2.439 . S
O171 Cd170 2.240 . S
O171 C176 1.279 . S
O172 Cd169 2.297 . S
O172 C174 1.247 . S
O173 Cd169 2.439 . S
O173 C174 1.208 . S
C174 O172 1.247 . S
C174 O173 1.208 . S
C175 O180 1.247 . S
C175 O181 1.208 . S
C176 O168 1.315 . S
C176 O171 1.279 . S
C177 O178 1.315 . S
C177 O179 1.279 . S
O178 Cd170 2.223 . S
O178 C177 1.315 . S
O179 Cd169 2.240 . S
O179 C177 1.279 . S
O180 Cd170 2.297 . S
O180 C175 1.247 . S
O181 Cd170 2.439 . S
O181 C175 1.208 . S
O182 Cd183 2.223 . S
O182 C190 1.315 . S
Cd183 O182 2.223 . S
Cd183 O186 2.297 . S
Cd183 O187 2.439 . S
Cd183 O193 2.240 . S
Cd184 O185 2.240 . S
Cd184 O192 2.223 . S
Cd184 O194 2.297 . S
Cd184 O195 2.439 . S
O185 Cd184 2.240 . S
O185 C190 1.279 . S
O186 Cd183 2.297 . S
O186 C188 1.247 . S
O187 Cd183 2.439 . S
O187 C188 1.208 . S
C188 O186 1.247 . S
C188 O187 1.208 . S
C189 O194 1.247 . S
C189 O195 1.208 . S
C190 O182 1.315 . S
C190 O185 1.279 . S
C191 O192 1.315 . S
C191 O193 1.279 . S
O192 Cd184 2.223 . S
O192 C191 1.315 . S
O193 Cd183 2.240 . S
O193 C191 1.279 . S
O194 Cd184 2.297 . S
O194 C189 1.247 . S
O195 Cd184 2.439 . S
O195 C189 1.208 . S
O196 Cd197 2.223 . S
O196 C204 1.315 . S
Cd197 O196 2.223 . S
Cd197 O200 2.297 . S
Cd197 O201 2.439 . S
Cd197 O207 2.240 . S
Cd198 O199 2.240 . S
Cd198 O206 2.223 . S
Cd198 O208 2.297 . S
Cd198 O209 2.439 . S
O199 Cd198 2.240 . S
O199 C204 1.279 . S
O200 Cd197 2.297 . S
O200 C202 1.247 . S
O201 Cd197 2.439 . S
O201 C202 1.208 . S
C202 O200 1.247 . S
C202 O201 1.208 . S
C203 O208 1.247 . S
C203 O209 1.208 . S
C204 O196 1.315 . S
C204 O199 1.279 . S
C205 O206 1.315 . S
C205 O207 1.279 . S
O206 Cd198 2.223 . S
O206 C205 1.315 . S
O207 Cd197 2.240 . S
O207 C205 1.279 . S
O208 Cd198 2.297 . S
O208 C203 1.247 . S
O209 Cd198 2.439 . S
O209 C203 1.208 . S
O210 Cd211 2.223 . S
O210 C218 1.315 . S
Cd211 O210 2.223 . S
Cd211 O214 2.297 . S
Cd211 O215 2.439 . S
Cd211 O221 2.240 . S
Cd212 O213 2.240 . S
Cd212 O220 2.223 . S
Cd212 O222 2.297 . S
Cd212 O223 2.439 . S
O213 Cd212 2.240 . S
O213 C218 1.279 . S
O214 Cd211 2.297 . S
O214 C216 1.247 . S
O215 Cd211 2.439 . S
O215 C216 1.208 . S
C216 O214 1.247 . S
C216 O215 1.208 . S
C217 O222 1.247 . S
C217 O223 1.208 . S
C218 O210 1.315 . S
C218 O213 1.279 . S
C219 O220 1.315 . S
C219 O221 1.279 . S
O220 Cd212 2.223 . S
O220 C219 1.315 . S
O221 Cd211 2.240 . S
O221 C219 1.279 . S
O222 Cd212 2.297 . S
O222 C217 1.247 . S
O223 Cd212 2.439 . S
O223 C217 1.208 . S
O224 Cd225 2.223 . S
O224 C232 1.315 . S
Cd225 O224 2.223 . S
Cd225 O228 2.297 . S
Cd225 O229 2.439 . S
Cd225 O235 2.240 . S
Cd226 O227 2.240 . S
Cd226 O234 2.223 . S
Cd226 O236 2.297 . S
Cd226 O237 2.439 . S
O227 Cd226 2.240 . S
O227 C232 1.279 . S
O228 Cd225 2.297 . S
O228 C230 1.247 . S
O229 Cd225 2.439 . S
O229 C230 1.208 . S
C230 O228 1.247 . S
C230 O229 1.208 . S
C231 O236 1.247 . S
C231 O237 1.208 . S
C232 O224 1.315 . S
C232 O227 1.279 . S
C233 O234 1.315 . S
C233 O235 1.279 . S
O234 Cd226 2.223 . S
O234 C233 1.315 . S
O235 Cd225 2.240 . S
O235 C233 1.279 . S
O236 Cd226 2.297 . S
O236 C231 1.247 . S
O237 Cd226 2.439 . S
O237 C231 1.208 . S
O238 Cd239 2.223 1_565 S
O238 C246 1.315 . S
Cd239 O238 2.223 1_545 S
Cd239 O242 2.297 . S
Cd239 O243 2.439 . S
Cd239 O249 2.240 . S
Cd240 O241 2.240 . S
Cd240 O248 2.242 . S
Cd240 O250 2.297 . S
Cd240 O251 2.439 . S
O241 Cd240 2.240 . S
O241 C246 1.279 . S
O242 Cd239 2.297 . S
O242 C244 1.247 . S
O243 Cd239 2.439 . S
O243 C244 1.208 . S
C244 O242 1.247 . S
C244 O243 1.208 . S
C245 O250 1.247 . S
C245 O251 1.208 . S
C246 O238 1.315 . S
C246 O241 1.279 . S
C247 O248 1.286 1_545 S
C247 O249 1.279 . S
O248 Cd240 2.242 . S
O248 C247 1.286 1_565 S
O249 Cd239 2.240 . S
O249 C247 1.279 . S
O250 Cd240 2.297 . S
O250 C245 1.247 . S
O251 Cd240 2.439 . S
O251 C245 1.208 . S
O252 Cd253 2.223 . S
O252 C260 1.315 . S
Cd253 O252 2.223 . S
Cd253 O256 2.297 . S
Cd253 O257 2.439 . S
Cd253 O263 2.240 . S
Cd254 O255 2.240 . S
Cd254 O262 2.223 . S
Cd254 O264 2.297 . S
Cd254 O265 2.439 . S
O255 Cd254 2.240 . S
O255 C260 1.279 . S
O256 Cd253 2.297 . S
O256 C258 1.247 . S
O257 Cd253 2.439 . S
O257 C258 1.208 . S
C258 O256 1.247 . S
C258 O257 1.208 . S
C259 O264 1.247 . S
C259 O265 1.208 . S
C260 O252 1.315 . S
C260 O255 1.279 . S
C261 O262 1.315 . S
C261 O263 1.279 . S
O262 Cd254 2.223 . S
O262 C261 1.315 . S
O263 Cd253 2.240 . S
O263 C261 1.279 . S
O264 Cd254 2.297 . S
O264 C259 1.247 . S
O265 Cd254 2.439 . S
O265 C259 1.208 . S
O266 Cd267 2.223 1_545 S
O266 C274 1.315 . S
Cd267 O266 2.223 1_565 S
Cd267 O270 2.297 . S
Cd267 O271 2.439 . S
Cd267 O277 2.240 . S
Cd268 O269 2.240 . S
Cd268 O276 2.210 1_545 S
Cd268 O278 2.297 . S
Cd268 O279 2.443 . S
O269 Cd268 2.240 . S
O269 C274 1.279 . S
O270 Cd267 2.297 . S
O270 C272 1.247 . S
O271 Cd267 2.439 . S
O271 C272 1.208 . S
C272 O270 1.247 . S
C272 O271 1.208 . S
C273 O278 1.247 . S
C273 O279 1.209 . S
C274 O266 1.315 . S
C274 O269 1.279 . S
C275 O276 1.336 . S
C275 O277 1.279 . S
O276 Cd268 2.210 1_565 S
O276 C275 1.336 . S
O277 Cd267 2.240 . S
O277 C275 1.279 . S
O278 Cd268 2.297 . S
O278 C273 1.247 . S
O279 Cd268 2.443 . S
O279 C273 1.209 . S
O280 Cd281 2.223 . S
O280 C288 1.315 . S
Cd281 O280 2.223 . S
Cd281 O284 2.297 . S
Cd281 O285 2.439 . S
Cd281 O291 2.240 . S
Cd282 O283 2.240 . S
Cd282 O290 2.223 . S
Cd282 O292 2.297 . S
Cd282 O293 2.439 . S
O283 Cd282 2.240 . S
O283 C288 1.279 . S
O284 Cd281 2.297 . S
O284 C286 1.247 . S
O285 Cd281 2.439 . S
O285 C286 1.208 . S
C286 O284 1.247 . S
C286 O285 1.208 . S
C287 O292 1.247 . S
C287 O293 1.208 . S
C288 O280 1.315 . S
C288 O283 1.279 . S
C289 O290 1.315 . S
C289 O291 1.279 . S
O290 Cd282 2.223 . S
O290 C289 1.315 . S
O291 Cd281 2.240 . S
O291 C289 1.279 . S
O292 Cd282 2.297 . S
O292 C287 1.247 . S
O293 Cd282 2.439 . S
O293 C287 1.208 . S
O294 Cd295 2.223 1_556 S
O294 C302 1.315 . S
Cd295 O294 2.223 1_554 S
Cd295 O298 2.297 . S
Cd295 O299 2.439 . S
Cd295 O305 2.240 . S
Cd296 O297 2.240 . S
Cd296 O304 2.242 . S
Cd296 O306 2.297 . S
Cd296 O307 2.439 . S
O297 Cd296 2.240 . S
O297 C302 1.279 . S
O298 Cd295 2.297 . S
O298 C300 1.247 . S
O299 Cd295 2.439 . S
O299 C300 1.208 . S
C300 O298 1.247 . S
C300 O299 1.208 . S
C301 O306 1.247 . S
C301 O307 1.208 . S
C302 O294 1.315 . S
C302 O297 1.279 . S
C303 O304 1.286 1_554 S
C303 O305 1.279 . S
O304 Cd296 2.242 . S
O304 C303 1.286 1_556 S
O305 Cd295 2.240 . S
O305 C303 1.279 . S
O306 Cd296 2.297 . S
O306 C301 1.247 . S
O307 Cd296 2.439 . S
O307 C301 1.208 . S
O308 Cd309 2.223 1_556 S
O308 C316 1.315 . S
Cd309 O308 2.223 1_554 S
Cd309 O312 2.297 . S
Cd309 O313 2.439 . S
Cd309 O319 2.240 . S
Cd310 O311 2.240 . S
Cd310 O318 2.237 . S
Cd310 O320 2.297 . S
Cd310 O321 2.424 1_556 S
O311 Cd310 2.240 . S
O311 C316 1.279 . S
O312 Cd309 2.297 . S
O312 C314 1.247 . S
O313 Cd309 2.439 . S
O313 C314 1.208 . S
C314 O312 1.247 . S
C314 O313 1.208 . S
C315 O320 1.264 . S
C315 O321 1.206 1_556 S
C316 O308 1.315 . S
C316 O311 1.279 . S
C317 O318 1.293 1_554 S
C317 O319 1.279 . S
O318 Cd310 2.237 . S
O318 C317 1.293 1_556 S
O319 Cd309 2.240 . S
O319 C317 1.279 . S
O320 Cd310 2.297 . S
O320 C315 1.264 . S
O321 Cd310 2.424 1_554 S
O321 C315 1.206 1_554 S
O322 Cd323 2.223 1_554 S
O322 C330 1.315 . S
Cd323 O322 2.223 1_556 S
Cd323 O326 2.297 . S
Cd323 O327 2.439 . S
Cd323 O333 2.240 . S
Cd324 O325 2.240 . S
Cd324 O332 2.210 1_554 S
Cd324 O334 2.297 . S
Cd324 O335 2.443 . S
O325 Cd324 2.240 . S
O325 C330 1.279 . S
O326 Cd323 2.297 . S
O326 C328 1.247 . S
O327 Cd323 2.439 . S
O327 C328 1.208 . S
C328 O326 1.247 . S
C328 O327 1.208 . S
C329 O334 1.247 . S
C329 O335 1.209 . S
C330 O322 1.315 . S
C330 O325 1.279 . S
C331 O332 1.336 . S
C331 O333 1.279 . S
O332 Cd324 2.210 1_556 S
O332 C331 1.336 . S
O333 Cd323 2.240 . S
O333 C331 1.279 . S
O334 Cd324 2.297 . S
O334 C329 1.247 . S
O335 Cd324 2.443 . S
O335 C329 1.209 . S
C336 C337 1.391 . S
C336 C338 1.394 . S
C336 H352 0.931 . S
C337 C336 1.391 . S
C337 C341 1.376 . S
C338 C336 1.394 . S
C338 C339 1.369 . S
C338 C342 1.531 . S
C339 C338 1.369 . S
C339 C340 1.410 . S
C339 C347 1.503 . S
C340 C339 1.410 . S
C340 C341 1.392 . S
C340 C343 1.511 . S
C341 C337 1.376 . S
C341 C340 1.392 . S
C341 H353 0.929 . S
C342 C338 1.531 . S
C342 H354 0.960 . S
C342 H355 0.962 . S
C342 H356 0.960 . S
C343 C340 1.511 . S
C343 H357 0.961 . S
C343 H358 0.961 . S
C343 H359 0.961 . S
C344 C345 1.370 . S
C344 C346 1.363 . S
C344 H360 0.931 . S
C345 C344 1.370 . S
C345 C349 1.408 . S
C346 C344 1.363 . S
C346 C347 1.370 . S
C346 C350 1.524 . S
C347 C339 1.503 . S
C347 C346 1.370 . S
C347 C348 1.403 . S
C348 C347 1.403 . S
C348 C349 1.404 . S
C348 C351 1.539 . S
C349 C345 1.408 . S
C349 C348 1.404 . S
C349 H361 0.930 . S
C350 C346 1.524 . S
C350 H362 0.956 . S
C350 H363 0.961 . S
C350 H364 0.961 . S
C351 C348 1.539 . S
C351 H365 0.958 . S
C351 H366 0.981 . S
C351 H367 0.960 . S
H352 C336 0.931 . S
H353 C341 0.929 . S
H354 C342 0.960 . S
H355 C342 0.962 . S
H356 C342 0.960 . S
H357 C343 0.961 . S
H358 C343 0.961 . S
H359 C343 0.961 . S
H360 C344 0.931 . S
H361 C349 0.930 . S
H362 C350 0.956 . S
H363 C350 0.961 . S
H364 C350 0.961 . S
H365 C351 0.958 . S
H366 C351 0.981 . S
H367 C351 0.960 . S
C368 C369 1.391 . S
C368 C370 1.394 . S
C368 H384 0.931 . S
C369 C368 1.391 . S
C369 C373 1.376 . S
C370 C368 1.394 . S
C370 C371 1.369 . S
C370 C374 1.531 . S
C371 C370 1.369 . S
C371 C372 1.410 . S
C371 C379 1.503 . S
C372 C371 1.410 . S
C372 C373 1.392 . S
C372 C375 1.511 . S
C373 C369 1.376 . S
C373 C372 1.392 . S
C373 H385 0.929 . S
C374 C370 1.531 . S
C374 H386 0.960 . S
C374 H387 0.962 . S
C374 H388 0.960 . S
C375 C372 1.511 . S
C375 H389 0.961 . S
C375 H390 0.961 . S
C375 H391 0.961 . S
C376 C377 1.370 . S
C376 C378 1.363 . S
C376 H392 0.931 . S
C377 C376 1.370 . S
C377 C381 1.408 . S
C378 C376 1.363 . S
C378 C379 1.370 . S
C378 C382 1.524 . S
C379 C371 1.503 . S
C379 C378 1.370 . S
C379 C380 1.403 . S
C380 C379 1.403 . S
C380 C381 1.404 . S
C380 C383 1.539 . S
C381 C377 1.408 . S
C381 C380 1.404 . S
C381 H393 0.930 . S
C382 C378 1.524 . S
C382 H394 0.956 . S
C382 H395 0.961 . S
C382 H396 0.961 . S
C383 C380 1.539 . S
C383 H397 0.958 . S
C383 H398 0.961 . S
C383 H399 0.960 . S
H384 C368 0.931 . S
H385 C373 0.929 . S
H386 C374 0.960 . S
H387 C374 0.962 . S
H388 C374 0.960 . S
H389 C375 0.961 . S
H390 C375 0.961 . S
H391 C375 0.961 . S
H392 C376 0.931 . S
H393 C381 0.930 . S
H394 C382 0.956 . S
H395 C382 0.961 . S
H396 C382 0.961 . S
H397 C383 0.958 . S
H398 C383 0.961 . S
H399 C383 0.960 . S
C400 C401 1.391 . S
C400 C402 1.394 . S
C400 H416 0.931 . S
C401 C400 1.391 . S
C401 C405 1.376 . S
C402 C400 1.394 . S
C402 C403 1.369 . S
C402 C406 1.531 . S
C403 C402 1.369 . S
C403 C404 1.410 . S
C403 C411 1.503 . S
C404 C403 1.410 . S
C404 C405 1.392 . S
C404 C407 1.511 . S
C405 C401 1.376 . S
C405 C404 1.392 . S
C405 H417 0.929 . S
C406 C402 1.531 . S
C406 H418 0.960 . S
C406 H419 0.962 . S
C406 H420 0.960 . S
C407 C404 1.511 . S
C407 H421 0.961 . S
C407 H422 0.961 . S
C407 H423 0.961 . S
C408 C409 1.370 . S
C408 C410 1.363 . S
C408 H424 0.931 . S
C409 C408 1.370 . S
C409 C413 1.408 . S
C410 C408 1.363 . S
C410 C411 1.370 1_556 S
C410 C414 1.524 . S
C411 C403 1.503 . S
C411 C410 1.370 1_554 S
C411 C412 1.403 . S
C412 C411 1.403 . S
C412 C413 1.404 1_554 S
C412 C415 1.539 . S
C413 C409 1.408 . S
C413 C412 1.404 1_556 S
C413 H425 0.930 . S
C414 C410 1.524 . S
C414 H426 0.956 . S
C414 H427 0.956 1_556 S
C414 H428 0.961 . S
C415 C412 1.539 . S
C415 H429 0.958 . S
C415 H430 0.961 . S
C415 H431 0.960 . S
H416 C400 0.931 . S
H417 C405 0.929 . S
H418 C406 0.960 . S
H419 C406 0.962 . S
H420 C406 0.960 . S
H421 C407 0.961 . S
H422 C407 0.961 . S
H423 C407 0.961 . S
H424 C408 0.931 . S
H425 C413 0.930 . S
H426 C414 0.956 . S
H427 C414 0.956 1_554 S
H428 C414 0.961 . S
H429 C415 0.958 . S
H430 C415 0.961 . S
H431 C415 0.960 . S
C432 C433 1.391 . S
C432 C434 1.394 . S
C432 H448 0.931 . S
C433 C432 1.391 . S
C433 C437 1.376 . S
C434 C432 1.394 . S
C434 C435 1.369 . S
C434 C438 1.531 . S
C435 C434 1.369 . S
C435 C436 1.410 . S
C435 C443 1.503 . S
C436 C435 1.410 . S
C436 C437 1.392 . S
C436 C439 1.511 . S
C437 C433 1.376 . S
C437 C436 1.392 . S
C437 H449 0.929 . S
C438 C434 1.531 . S
C438 H450 0.960 . S
C438 H451 0.962 . S
C438 H452 0.960 . S
C439 C436 1.511 . S
C439 H453 0.961 . S
C439 H454 0.961 . S
C439 H455 0.961 . S
C440 C441 1.370 . S
C440 C442 1.363 . S
C440 H456 0.931 . S
C441 C440 1.370 . S
C441 C445 1.408 . S
C442 C440 1.363 . S
C442 C443 1.370 1_556 S
C442 C446 1.524 . S
C443 C435 1.503 . S
C443 C442 1.370 1_554 S
C443 C444 1.403 . S
C444 C443 1.403 . S
C444 C445 1.404 1_554 S
C444 C447 1.539 . S
C445 C441 1.408 . S
C445 C444 1.404 1_556 S
C445 H457 0.930 . S
C446 C442 1.524 . S
C446 H458 0.956 . S
C446 H459 0.961 1_556 S
C446 H460 0.961 . S
C447 C444 1.539 . S
C447 H461 0.958 . S
C447 H462 0.961 . S
C447 H463 0.960 . S
H448 C432 0.931 . S
H449 C437 0.929 . S
H450 C438 0.960 . S
H451 C438 0.962 . S
H452 C438 0.960 . S
H453 C439 0.961 . S
H454 C439 0.961 . S
H455 C439 0.961 . S
H456 C440 0.931 . S
H457 C445 0.930 . S
H458 C446 0.956 . S
H459 C446 0.961 1_554 S
H460 C446 0.961 . S
H461 C447 0.958 . S
H462 C447 0.961 . S
H463 C447 0.960 . S
C464 C465 1.391 . S
C464 C466 1.394 . S
C464 H480 0.931 . S
C465 C464 1.391 . S
C465 C469 1.376 . S
C466 C464 1.394 . S
C466 C467 1.369 . S
C466 C470 1.531 . S
C467 C466 1.369 . S
C467 C468 1.410 . S
C467 C475 1.503 . S
C468 C467 1.410 . S
C468 C469 1.392 . S
C468 C471 1.511 . S
C469 C465 1.376 . S
C469 C468 1.392 . S
C469 H481 0.929 . S
C470 C466 1.531 . S
C470 H482 0.960 . S
C470 H483 0.962 . S
C470 H484 0.960 . S
C471 C468 1.511 . S
C471 H485 0.961 . S
C471 H486 0.961 . S
C471 H487 0.961 . S
C472 C473 1.370 . S
C472 C474 1.363 . S
C472 H488 0.946 . S
C473 C472 1.370 . S
C473 C477 1.408 . S
C474 C472 1.363 . S
C474 C475 1.370 . S
C474 C478 1.524 . S
C475 C467 1.503 . S
C475 C474 1.370 . S
C475 C476 1.403 . S
C476 C475 1.403 . S
C476 C477 1.404 . S
C476 C479 1.539 . S
C477 C473 1.408 . S
C477 C476 1.404 . S
C477 H489 0.930 . S
C478 C474 1.524 . S
C478 H490 0.956 . S
C478 H491 0.961 . S
C478 H492 0.961 1_554 S
C479 C476 1.539 . S
C479 H493 0.958 . S
C479 H494 0.961 . S
C479 H495 0.960 . S
H480 C464 0.931 . S
H481 C469 0.929 . S
H482 C470 0.960 . S
H483 C470 0.962 . S
H484 C470 0.960 . S
H485 C471 0.961 . S
H486 C471 0.961 . S
H487 C471 0.961 . S
H488 C472 0.946 . S
H489 C477 0.930 . S
H490 C478 0.956 . S
H491 C478 0.961 . S
H492 C478 0.961 1_556 S
H493 C479 0.958 . S
H494 C479 0.961 . S
H495 C479 0.960 . S
C496 C497 1.391 . S
C496 C498 1.394 . S
C496 H512 0.931 . S
C497 C496 1.391 . S
C497 C501 1.376 . S
C498 C496 1.394 . S
C498 C499 1.369 . S
C498 C502 1.531 . S
C499 C498 1.369 . S
C499 C500 1.410 . S
C499 C507 1.503 . S
C500 C499 1.410 . S
C500 C501 1.392 . S
C500 C503 1.511 . S
C501 C497 1.376 . S
C501 C500 1.392 . S
C501 H513 0.929 . S
C502 C498 1.531 . S
C502 H514 0.960 . S
C502 H515 0.962 . S
C502 H516 0.960 . S
C503 C500 1.511 . S
C503 H517 0.961 . S
C503 H518 0.961 . S
C503 H519 0.961 . S
C504 C505 1.370 . S
C504 C506 1.363 . S
C504 H520 0.931 . S
C505 C504 1.370 . S
C505 C509 1.408 . S
C506 C504 1.363 . S
C506 C507 1.370 . S
C506 C510 1.524 . S
C507 C499 1.503 . S
C507 C506 1.370 . S
C507 C508 1.403 . S
C508 C507 1.403 . S
C508 C509 1.404 . S
C508 C511 1.539 . S
C509 C505 1.408 . S
C509 C508 1.404 . S
C509 H521 0.930 . S
C510 C506 1.524 . S
C510 H522 0.956 . S
C510 H523 0.961 . S
C510 H524 0.961 . S
C511 C508 1.539 . S
C511 H525 0.958 . S
C511 H526 0.961 1_554 S
C511 H527 0.960 . S
H512 C496 0.931 . S
H513 C501 0.929 . S
H514 C502 0.960 . S
H515 C502 0.962 . S
H516 C502 0.960 . S
H517 C503 0.961 . S
H518 C503 0.961 . S
H519 C503 0.961 . S
H520 C504 0.931 . S
H521 C509 0.930 . S
H522 C510 0.956 . S
H523 C510 0.961 . S
H524 C510 0.961 . S
H525 C511 0.958 . S
H526 C511 0.961 1_556 S
H527 C511 0.960 . S
C528 C529 1.391 . S
C528 C530 1.394 . S
C528 H544 0.931 . S
C529 C528 1.391 . S
C529 C533 1.376 . S
C530 C528 1.394 . S
C530 C531 1.369 . S
C530 C534 1.531 . S
C531 C530 1.369 . S
C531 C532 1.410 . S
C531 C539 1.503 . S
C532 C531 1.410 . S
C532 C533 1.392 . S
C532 C535 1.511 . S
C533 C529 1.376 . S
C533 C532 1.392 . S
C533 H545 0.929 . S
C534 C530 1.531 . S
C534 H546 0.960 . S
C534 H547 0.962 . S
C534 H548 0.960 . S
C535 C532 1.511 . S
C535 H549 0.961 . S
C535 H550 0.961 . S
C535 H551 0.961 . S
C536 C537 1.370 . S
C536 C538 1.363 . S
C536 H552 0.931 . S
C537 C536 1.370 . S
C537 C541 1.408 . S
C538 C536 1.363 . S
C538 C539 1.370 . S
C538 C542 1.524 . S
C539 C531 1.503 . S
C539 C538 1.370 . S
C539 C540 1.403 . S
C540 C539 1.403 . S
C540 C541 1.404 . S
C540 C543 1.539 . S
C541 C537 1.408 . S
C541 C540 1.404 . S
C541 H553 0.930 . S
C542 C538 1.524 . S
C542 H554 0.956 . S
C542 H555 0.961 . S
C542 H556 0.961 . S
C543 C540 1.539 . S
C543 H557 0.958 . S
C543 H558 0.961 . S
C543 H559 0.960 . S
H544 C528 0.931 . S
H545 C533 0.929 . S
H546 C534 0.960 . S
H547 C534 0.962 . S
H548 C534 0.960 . S
H549 C535 0.961 . S
H550 C535 0.961 . S
H551 C535 0.961 . S
H552 C536 0.931 . S
H553 C541 0.930 . S
H554 C542 0.956 . S
H555 C542 0.961 . S
H556 C542 0.961 . S
H557 C543 0.958 . S
H558 C543 0.961 . S
H559 C543 0.960 . S
C560 C561 1.391 . S
C560 C562 1.394 . S
C560 H576 0.931 . S
C561 C560 1.391 . S
C561 C565 1.376 . S
C562 C560 1.394 . S
C562 C563 1.369 . S
C562 C566 1.531 . S
C563 C562 1.369 . S
C563 C564 1.410 . S
C563 C571 1.503 . S
C564 C563 1.410 . S
C564 C565 1.392 . S
C564 C567 1.511 . S
C565 C561 1.376 . S
C565 C564 1.392 . S
C565 H577 0.929 . S
C566 C562 1.531 . S
C566 H578 0.960 . S
C566 H579 0.962 . S
C566 H580 0.960 . S
C567 C564 1.511 . S
C567 H581 0.961 . S
C567 H582 0.961 . S
C567 H583 0.961 . S
C568 C569 1.370 . S
C568 C570 1.363 . S
C568 H584 0.931 . S
C569 C568 1.370 . S
C569 C573 1.408 . S
C570 C568 1.363 . S
C570 C571 1.370 . S
C570 C574 1.524 . S
C571 C563 1.503 . S
C571 C570 1.370 . S
C571 C572 1.403 . S
C572 C571 1.403 . S
C572 C573 1.404 . S
C572 C575 1.539 . S
C573 C569 1.408 . S
C573 C572 1.404 . S
C573 H585 0.930 . S
C574 C570 1.524 . S
C574 H586 0.956 . S
C574 H587 0.961 . S
C574 H588 0.961 . S
C575 C572 1.539 . S
C575 H589 0.958 . S
C575 H590 0.961 . S
C575 H591 0.960 . S
H576 C560 0.931 . S
H577 C565 0.929 . S
H578 C566 0.960 . S
H579 C566 0.962 . S
H580 C566 0.960 . S
H581 C567 0.961 . S
H582 C567 0.961 . S
H583 C567 0.961 . S
H584 C568 0.931 . S
H585 C573 0.930 . S
H586 C574 0.956 . S
H587 C574 0.961 . S
H588 C574 0.961 . S
H589 C575 0.958 . S
H590 C575 0.961 . S
H591 C575 0.960 . S
C592 C593 1.391 . S
C592 C594 1.394 . S
C592 H608 0.931 . S
C593 C592 1.391 . S
C593 C597 1.376 . S
C594 C592 1.394 . S
C594 C595 1.369 . S
C594 C598 1.531 . S
C595 C594 1.369 . S
C595 C596 1.410 . S
C595 C603 1.503 . S
C596 C595 1.410 . S
C596 C597 1.392 . S
C596 C599 1.511 . S
C597 C593 1.376 . S
C597 C596 1.392 . S
C597 H609 0.929 . S
C598 C594 1.531 . S
C598 H610 0.960 . S
C598 H611 0.962 . S
C598 H612 0.960 . S
C599 C596 1.511 . S
C599 H613 0.961 . S
C599 H614 0.961 . S
C599 H615 0.961 . S
C600 C601 1.370 . S
C600 C602 1.363 . S
C600 H616 0.931 . S
C601 C600 1.370 . S
C601 C605 1.408 . S
C602 C600 1.363 . S
C602 C603 1.370 . S
C602 C606 1.524 . S
C603 C595 1.503 . S
C603 C602 1.370 . S
C603 C604 1.403 . S
C604 C603 1.403 . S
C604 C605 1.404 . S
C604 C607 1.539 . S
C605 C601 1.408 . S
C605 C604 1.404 . S
C605 H617 0.930 . S
C606 C602 1.524 . S
C606 H618 0.956 . S
C606 H619 0.961 . S
C606 H620 0.961 . S
C607 C604 1.539 . S
C607 H621 0.958 . S
C607 H622 0.961 . S
C607 H623 0.960 . S
H608 C592 0.931 . S
H609 C597 0.929 . S
H610 C598 0.960 . S
H611 C598 0.962 . S
H612 C598 0.960 . S
H613 C599 0.961 . S
H614 C599 0.961 . S
H615 C599 0.961 . S
H616 C600 0.931 . S
H617 C605 0.930 . S
H618 C606 0.956 . S
H619 C606 0.961 . S
H620 C606 0.961 . S
H621 C607 0.958 . S
H622 C607 0.961 . S
H623 C607 0.960 . S
C624 C625 1.391 . S
C624 C626 1.394 . S
C624 H640 0.931 . S
C625 C624 1.391 . S
C625 C629 1.376 . S
C626 C624 1.394 . S
C626 C627 1.369 . S
C626 C630 1.531 . S
C627 C626 1.369 . S
C627 C628 1.410 . S
C627 C635 1.503 . S
C628 C627 1.410 . S
C628 C629 1.392 . S
C628 C631 1.511 . S
C629 C625 1.376 . S
C629 C628 1.392 . S
C629 H641 0.929 . S
C630 C626 1.531 . S
C630 H642 0.960 . S
C630 H643 0.962 . S
C630 H644 0.960 . S
C631 C628 1.511 . S
C631 H645 0.961 . S
C631 H646 0.961 . S
C631 H647 0.961 . S
C632 C633 1.370 . S
C632 C634 1.363 . S
C632 H648 0.931 . S
C633 C632 1.370 . S
C633 C637 1.408 . S
C634 C632 1.363 . S
C634 C635 1.370 . S
C634 C638 1.524 . S
C635 C627 1.503 . S
C635 C634 1.370 . S
C635 C636 1.403 . S
C636 C635 1.403 . S
C636 C637 1.404 . S
C636 C639 1.539 . S
C637 C633 1.408 . S
C637 C636 1.404 . S
C637 H649 0.930 . S
C638 C634 1.524 . S
C638 H650 0.956 . S
C638 H651 0.961 . S
C638 H652 0.961 . S
C639 C636 1.539 . S
C639 H653 0.958 . S
C639 H654 0.961 . S
C639 H655 0.960 . S
H640 C624 0.931 . S
H641 C629 0.929 . S
H642 C630 0.960 . S
H643 C630 0.962 . S
H644 C630 0.960 . S
H645 C631 0.961 . S
H646 C631 0.961 . S
H647 C631 0.961 . S
H648 C632 0.931 . S
H649 C637 0.930 . S
H650 C638 0.956 . S
H651 C638 0.961 . S
H652 C638 0.961 . S
H653 C639 0.958 . S
H654 C639 0.961 . S
H655 C639 0.960 . S
C656 C657 1.391 . S
C656 C658 1.394 . S
C656 H672 0.931 . S
C657 C656 1.391 . S
C657 C661 1.376 . S
C658 C656 1.394 . S
C658 C659 1.369 . S
C658 C662 1.531 . S
C659 C658 1.369 . S
C659 C660 1.410 . S
C659 C667 1.503 . S
C660 C659 1.410 . S
C660 C661 1.392 . S
C660 C663 1.511 . S
C661 C657 1.376 . S
C661 C660 1.392 . S
C661 H673 0.929 . S
C662 C658 1.531 . S
C662 H674 0.960 1_565 S
C662 H675 0.962 . S
C662 H676 0.960 . S
C663 C660 1.511 . S
C663 H677 0.961 . S
C663 H678 0.961 . S
C663 H679 0.961 . S
C664 C665 1.370 . S
C664 C666 1.363 1_545 S
C664 H680 0.931 . S
C665 C664 1.370 . S
C665 C669 1.408 . S
C666 C664 1.363 1_565 S
C666 C667 1.370 . S
C666 C670 1.524 . S
C667 C659 1.503 . S
C667 C666 1.370 . S
C667 C668 1.403 1_565 S
C668 C667 1.403 1_545 S
C668 C669 1.404 . S
C668 C671 1.539 . S
C669 C665 1.408 . S
C669 C668 1.404 . S
C669 H681 0.930 . S
C670 C666 1.524 . S
C670 H682 0.956 . S
C670 H683 0.961 . S
C670 H684 0.961 . S
C671 C668 1.539 . S
C671 H685 0.958 . S
C671 H686 0.961 . S
C671 H687 0.960 1_545 S
H672 C656 0.931 . S
H673 C661 0.929 . S
H674 C662 0.960 1_545 S
H675 C662 0.962 . S
H676 C662 0.960 . S
H677 C663 0.961 . S
H678 C663 0.961 . S
H679 C663 0.961 . S
H680 C664 0.931 . S
H681 C669 0.930 . S
H682 C670 0.956 . S
H683 C670 0.961 . S
H684 C670 0.961 . S
H685 C671 0.958 . S
H686 C671 0.961 . S
H687 C671 0.960 1_565 S
C688 C689 1.391 . S
C688 C690 1.394 . S
C688 H704 0.931 . S
C689 C688 1.391 . S
C689 C693 1.376 . S
C690 C688 1.394 . S
C690 C691 1.369 . S
C690 C694 1.531 . S
C691 C690 1.369 . S
C691 C692 1.410 . S
C691 C699 1.503 . S
C692 C691 1.410 . S
C692 C693 1.392 . S
C692 C695 1.511 . S
C693 C689 1.376 . S
C693 C692 1.392 . S
C693 H705 0.929 . S
C694 C690 1.531 . S
C694 H706 0.960 . S
C694 H707 0.962 . S
C694 H708 0.960 . S
C695 C692 1.511 . S
C695 H709 0.961 . S
C695 H710 0.961 . S
C695 H711 0.961 . S
C696 C697 1.370 . S
C696 C698 1.363 . S
C696 H712 0.931 . S
C697 C696 1.370 . S
C697 C701 1.408 . S
C698 C696 1.363 . S
C698 C699 1.370 . S
C698 C702 1.524 . S
C699 C691 1.503 . S
C699 C698 1.370 . S
C699 C700 1.403 . S
C700 C699 1.403 . S
C700 C701 1.404 . S
C700 C703 1.539 . S
C701 C697 1.408 . S
C701 C700 1.404 . S
C701 H713 0.930 . S
C702 C698 1.524 . S
C702 H714 0.956 . S
C702 H715 0.961 . S
C702 H716 0.961 . S
C703 C700 1.539 . S
C703 H717 0.958 . S
C703 H718 0.961 . S
C703 H719 0.960 . S
H704 C688 0.931 . S
H705 C693 0.929 . S
H706 C694 0.960 . S
H707 C694 0.962 . S
H708 C694 0.960 . S
H709 C695 0.961 . S
H710 C695 0.961 . S
H711 C695 0.961 . S
H712 C696 0.931 . S
H713 C701 0.930 . S
H714 C702 0.956 . S
H715 C702 0.961 . S
H716 C702 0.961 . S
H717 C703 0.958 . S
H718 C703 0.961 . S
H719 C703 0.960 . S
C720 C721 1.391 . S
C720 C722 1.394 1_554 S
C720 H736 0.931 . S
C721 C720 1.391 . S
C721 C725 1.376 . S
C722 C720 1.394 1_556 S
C722 C723 1.369 . S
C722 C726 1.531 . S
C723 C722 1.369 . S
C723 C724 1.410 1_556 S
C723 C731 1.503 . S
C724 C723 1.410 1_554 S
C724 C725 1.392 . S
C724 C727 1.511 . S
C725 C721 1.376 . S
C725 C724 1.392 . S
C725 H737 0.929 . S
C726 C722 1.531 . S
C726 H738 0.960 . S
C726 H739 0.962 . S
C726 H740 0.960 . S
C727 C724 1.511 . S
C727 H741 0.961 . S
C727 H742 0.961 . S
C727 H743 0.961 . S
C728 C729 1.370 . S
C728 C730 1.363 . S
C728 H744 0.931 . S
C729 C728 1.370 . S
C729 C733 1.408 . S
C730 C728 1.363 . S
C730 C731 1.370 . S
C730 C734 1.524 . S
C731 C723 1.503 . S
C731 C730 1.370 . S
C731 C732 1.403 . S
C732 C731 1.403 . S
C732 C733 1.404 . S
C732 C735 1.539 . S
C733 C729 1.408 . S
C733 C732 1.404 . S
C733 H745 0.930 . S
C734 C730 1.524 . S
C734 H746 0.956 . S
C734 H747 0.961 . S
C734 H748 0.961 . S
C735 C732 1.539 . S
C735 H749 0.958 . S
C735 H750 0.961 . S
C735 H751 0.960 . S
H736 C720 0.931 . S
H737 C725 0.929 . S
H738 C726 0.960 . S
H739 C726 0.962 . S
H740 C726 0.960 . S
H741 C727 0.961 . S
H742 C727 0.961 . S
H743 C727 0.961 . S
H744 C728 0.931 . S
H745 C733 0.930 . S
H746 C734 0.956 . S
H747 C734 0.961 . S
H748 C734 0.961 . S
H749 C735 0.958 . S
H750 C735 0.961 . S
H751 C735 0.960 . S
C752 C753 1.391 . S
C752 C754 1.394 1_554 S
C752 H768 0.936 . S
C753 C752 1.391 . S
C753 C757 1.376 . S
C754 C752 1.394 1_556 S
C754 C755 1.369 . S
C754 C758 1.531 . S
C755 C754 1.369 . S
C755 C756 1.410 1_556 S
C755 C763 1.503 . S
C756 C755 1.410 1_554 S
C756 C757 1.392 . S
C756 C759 1.511 . S
C757 C753 1.376 . S
C757 C756 1.392 . S
C757 H769 0.929 . S
C758 C754 1.531 . S
C758 H770 0.960 . S
C758 H771 0.962 . S
C758 H772 0.960 . S
C759 C756 1.511 . S
C759 H773 0.961 . S
C759 H774 0.962 . S
C759 H775 0.961 . S
C760 C761 1.370 . S
C760 C762 1.363 . S
C760 H776 0.931 . S
C761 C760 1.370 . S
C761 C765 1.408 . S
C762 C760 1.363 . S
C762 C763 1.370 . S
C762 C766 1.524 . S
C763 C755 1.503 . S
C763 C762 1.370 . S
C763 C764 1.403 . S
C764 C763 1.403 . S
C764 C765 1.404 . S
C764 C767 1.539 . S
C765 C761 1.408 . S
C765 C764 1.404 . S
C765 H777 0.930 . S
C766 C762 1.524 . S
C766 H778 0.956 . S
C766 H779 0.961 1_556 S
C766 H780 0.961 . S
C767 C764 1.539 . S
C767 H781 0.958 . S
C767 H782 0.961 . S
C767 H783 0.960 . S
H768 C752 0.936 . S
H769 C757 0.929 . S
H770 C758 0.960 . S
H771 C758 0.962 . S
H772 C758 0.960 . S
H773 C759 0.961 . S
H774 C759 0.962 . S
H775 C759 0.961 . S
H776 C760 0.931 . S
H777 C765 0.930 . S
H778 C766 0.956 . S
H779 C766 0.961 1_554 S
H780 C766 0.961 . S
H781 C767 0.958 . S
H782 C767 0.961 . S
H783 C767 0.960 . S
C784 C785 1.391 . S
C784 C786 1.394 . S
C784 H800 0.931 . S
C785 C784 1.391 . S
C785 C789 1.376 . S
C786 C784 1.394 . S
C786 C787 1.369 . S
C786 C790 1.531 . S
C787 C786 1.369 . S
C787 C788 1.410 . S
C787 C795 1.503 . S
C788 C787 1.410 . S
C788 C789 1.392 . S
C788 C791 1.511 . S
C789 C785 1.376 . S
C789 C788 1.392 . S
C789 H801 0.929 . S
C790 C786 1.531 . S
C790 H802 0.960 . S
C790 H803 0.962 . S
C790 H804 0.960 . S
C791 C788 1.511 . S
C791 H805 0.961 . S
C791 H806 0.961 . S
C791 H807 0.961 . S
C792 C793 1.370 . S
C792 C794 1.363 . S
C792 H808 0.931 . S
C793 C792 1.370 . S
C793 C797 1.408 . S
C794 C792 1.363 . S
C794 C795 1.370 . S
C794 C798 1.524 . S
C795 C787 1.503 . S
C795 C794 1.370 . S
C795 C796 1.403 . S
C796 C795 1.403 . S
C796 C797 1.404 . S
C796 C799 1.539 . S
C797 C793 1.408 . S
C797 C796 1.404 . S
C797 H809 0.930 . S
C798 C794 1.524 . S
C798 H810 0.956 . S
C798 H811 0.961 . S
C798 H812 0.961 . S
C799 C796 1.539 . S
C799 H813 0.958 . S
C799 H814 0.961 . S
C799 H815 0.960 . S
H800 C784 0.931 . S
H801 C789 0.929 . S
H802 C790 0.960 . S
H803 C790 0.962 . S
H804 C790 0.960 . S
H805 C791 0.961 . S
H806 C791 0.961 . S
H807 C791 0.961 . S
H808 C792 0.931 . S
H809 C797 0.930 . S
H810 C798 0.956 . S
H811 C798 0.961 . S
H812 C798 0.961 . S
H813 C799 0.958 . S
H814 C799 0.961 . S
H815 C799 0.960 . S
C816 C817 1.391 . S
C816 C818 1.394 . S
C816 H832 0.931 . S
C817 C816 1.391 . S
C817 C821 1.376 . S
C818 C816 1.394 . S
C818 C819 1.369 . S
C818 C822 1.531 . S
C819 C818 1.369 . S
C819 C820 1.410 . S
C819 C827 1.503 . S
C820 C819 1.410 . S
C820 C821 1.392 . S
C820 C823 1.511 . S
C821 C817 1.376 . S
C821 C820 1.392 . S
C821 H833 0.929 . S
C822 C818 1.531 . S
C822 H834 0.960 . S
C822 H835 0.962 . S
C822 H836 0.960 . S
C823 C820 1.511 . S
C823 H837 0.961 . S
C823 H838 0.961 . S
C823 H839 0.961 . S
C824 C825 1.370 . S
C824 C826 1.363 . S
C824 H840 0.931 . S
C825 C824 1.370 . S
C825 C829 1.408 . S
C826 C824 1.363 . S
C826 C827 1.370 . S
C826 C830 1.524 . S
C827 C819 1.503 . S
C827 C826 1.370 . S
C827 C828 1.403 . S
C828 C827 1.403 . S
C828 C829 1.404 . S
C828 C831 1.539 . S
C829 C825 1.408 . S
C829 C828 1.404 . S
C829 H841 0.930 . S
C830 C826 1.524 . S
C830 H842 0.956 . S
C830 H843 0.961 . S
C830 H844 0.961 . S
C831 C828 1.539 . S
C831 H845 0.958 . S
C831 H846 0.961 . S
C831 H847 0.960 . S
H832 C816 0.931 . S
H833 C821 0.929 . S
H834 C822 0.960 . S
H835 C822 0.962 . S
H836 C822 0.960 . S
H837 C823 0.961 . S
H838 C823 0.961 . S
H839 C823 0.961 . S
H840 C824 0.931 . S
H841 C829 0.930 . S
H842 C830 0.956 . S
H843 C830 0.961 . S
H844 C830 0.961 . S
H845 C831 0.958 . S
H846 C831 0.961 . S
H847 C831 0.960 . S
C848 C849 1.391 . S
C848 C850 1.394 1_455 S
C848 H864 0.931 . S
C849 C848 1.391 . S
C849 C853 1.376 . S
C850 C848 1.394 1_655 S
C850 C851 1.369 . S
C850 C854 1.531 . S
C851 C850 1.369 . S
C851 C852 1.410 1_655 S
C851 C859 1.503 . S
C852 C851 1.410 1_455 S
C852 C853 1.392 . S
C852 C855 1.511 . S
C853 C849 1.376 . S
C853 C852 1.392 . S
C853 H865 0.929 . S
C854 C850 1.531 . S
C854 H866 0.960 . S
C854 H867 0.962 . S
C854 H868 0.960 . S
C855 C852 1.511 . S
C855 H869 0.961 . S
C855 H870 0.961 . S
C855 H871 0.961 . S
C856 C857 1.370 . S
C856 C858 1.363 . S
C856 H872 0.931 . S
C857 C856 1.370 . S
C857 C861 1.408 . S
C858 C856 1.363 . S
C858 C859 1.370 . S
C858 C862 1.524 . S
C859 C851 1.503 . S
C859 C858 1.370 . S
C859 C860 1.403 . S
C860 C859 1.403 . S
C860 C861 1.404 . S
C860 C863 1.539 . S
C861 C857 1.408 . S
C861 C860 1.404 . S
C861 H873 0.930 . S
C862 C858 1.524 . S
C862 H874 0.956 . S
C862 H875 0.961 . S
C862 H876 0.961 . S
C863 C860 1.539 . S
C863 H877 0.958 . S
C863 H878 0.961 . S
C863 H879 0.960 . S
H864 C848 0.931 . S
H865 C853 0.929 . S
H866 C854 0.960 . S
H867 C854 0.962 . S
H868 C854 0.960 . S
H869 C855 0.961 . S
H870 C855 0.961 . S
H871 C855 0.961 . S
H872 C856 0.931 . S
H873 C861 0.930 . S
H874 C862 0.956 . S
H875 C862 0.961 . S
H876 C862 0.961 . S
H877 C863 0.958 . S
H878 C863 0.961 . S
H879 C863 0.960 . S
C880 C881 1.391 . S
C880 C882 1.394 . S
C880 H896 0.931 . S
C881 C880 1.391 . S
C881 C885 1.376 . S
C882 C880 1.394 . S
C882 C883 1.369 1_655 S
C882 C886 1.531 1_655 S
C883 C882 1.369 1_455 S
C883 C884 1.410 1_455 S
C883 C891 1.503 . S
C884 C883 1.410 1_655 S
C884 C885 1.392 . S
C884 C887 1.511 1_655 S
C885 C881 1.376 . S
C885 C884 1.392 . S
C885 H897 0.929 . S
C886 C882 1.531 1_455 S
C886 H898 0.960 . S
C886 H899 0.962 . S
C886 H900 0.960 1_455 S
C887 C884 1.511 1_455 S
C887 H901 0.961 . S
C887 H902 0.961 . S
C887 H903 0.961 . S
C888 C889 1.370 . S
C888 C890 1.363 . S
C888 H904 0.931 . S
C889 C888 1.370 . S
C889 C893 1.408 . S
C890 C888 1.363 . S
C890 C891 1.370 . S
C890 C894 1.524 . S
C891 C883 1.503 . S
C891 C890 1.370 . S
C891 C892 1.403 . S
C892 C891 1.403 . S
C892 C893 1.404 . S
C892 C895 1.539 . S
C893 C889 1.408 . S
C893 C892 1.404 . S
C893 H905 0.930 . S
C894 C890 1.524 . S
C894 H906 0.956 . S
C894 H907 0.961 . S
C894 H908 0.961 . S
C895 C892 1.539 . S
C895 H909 0.958 . S
C895 H910 0.961 . S
C895 H911 0.960 1_455 S
H896 C880 0.931 . S
H897 C885 0.929 . S
H898 C886 0.960 . S
H899 C886 0.962 . S
H900 C886 0.960 1_655 S
H901 C887 0.961 . S
H902 C887 0.961 . S
H903 C887 0.961 . S
H904 C888 0.931 . S
H905 C893 0.930 . S
H906 C894 0.956 . S
H907 C894 0.961 . S
H908 C894 0.961 . S
H909 C895 0.958 . S
H910 C895 0.961 . S
H911 C895 0.960 1_655 S
C912 C913 1.391 . S
C912 C914 1.394 1_455 S
C912 H928 0.904 1_556 S
C913 C912 1.391 . S
C913 C917 1.376 . S
C914 C912 1.394 1_655 S
C914 C915 1.369 . S
C914 C918 1.531 . S
C915 C914 1.369 . S
C915 C916 1.410 1_655 S
C915 C923 1.503 . S
C916 C915 1.410 1_455 S
C916 C917 1.392 . S
C916 C919 1.511 . S
C917 C913 1.376 . S
C917 C916 1.392 . S
C917 H929 0.929 . S
C918 C914 1.531 . S
C918 H930 0.960 . S
C918 H931 0.962 . S
C918 H932 0.960 1_556 S
C919 C916 1.511 . S
C919 H933 0.961 . S
C919 H934 0.961 1_455 S
C919 H935 0.961 . S
C920 C921 1.370 . S
C920 C922 1.363 . S
C920 H936 0.931 . S
C921 C920 1.370 . S
C921 C925 1.408 . S
C922 C920 1.363 . S
C922 C923 1.370 . S
C922 C926 1.524 . S
C923 C915 1.503 . S
C923 C922 1.370 . S
C923 C924 1.403 . S
C924 C923 1.403 . S
C924 C925 1.404 . S
C924 C927 1.539 . S
C925 C921 1.408 . S
C925 C924 1.404 . S
C925 H937 0.930 . S
C926 C922 1.524 . S
C926 H938 0.956 . S
C926 H939 0.961 . S
C926 H940 0.961 . S
C927 C924 1.539 . S
C927 H941 0.958 . S
C927 H942 0.961 . S
C927 H943 0.960 1_655 S
H928 C912 0.904 1_554 S
H929 C917 0.929 . S
H930 C918 0.960 . S
H931 C918 0.962 . S
H932 C918 0.960 1_554 S
H933 C919 0.961 . S
H934 C919 0.961 1_655 S
H935 C919 0.961 . S
H936 C920 0.931 . S
H937 C925 0.930 . S
H938 C926 0.956 . S
H939 C926 0.961 . S
H940 C926 0.961 . S
H941 C927 0.958 . S
H942 C927 0.961 . S
H943 C927 0.960 1_455 S
C944 C945 1.391 . S
C944 C946 1.394 . S
C944 H960 0.931 . S
C945 C944 1.391 . S
C945 C949 1.376 . S
C946 C944 1.394 . S
C946 C947 1.369 . S
C946 C950 1.531 . S
C947 C946 1.369 . S
C947 C948 1.410 . S
C947 C955 1.503 . S
C948 C947 1.410 . S
C948 C949 1.392 . S
C948 C951 1.511 . S
C949 C945 1.376 . S
C949 C948 1.392 . S
C949 H961 0.929 . S
C950 C946 1.531 . S
C950 H962 0.960 1_455 S
C950 H963 0.962 . S
C950 H964 0.960 . S
C951 C948 1.511 . S
C951 H965 0.961 . S
C951 H966 0.961 . S
C951 H967 0.961 . S
C952 C953 1.370 . S
C952 C954 1.363 1_655 S
C952 H968 0.931 . S
C953 C952 1.370 . S
C953 C957 1.408 . S
C954 C952 1.363 1_455 S
C954 C955 1.370 . S
C954 C958 1.524 . S
C955 C947 1.503 . S
C955 C954 1.370 . S
C955 C956 1.403 1_455 S
C956 C955 1.403 1_655 S
C956 C957 1.404 . S
C956 C959 1.539 . S
C957 C953 1.408 . S
C957 C956 1.404 . S
C957 H969 0.930 . S
C958 C954 1.524 . S
C958 H970 0.956 . S
C958 H971 0.961 . S
C958 H972 0.961 . S
C959 C956 1.539 . S
C959 H973 0.958 . S
C959 H974 0.961 . S
C959 H975 0.960 1_655 S
H960 C944 0.931 . S
H961 C949 0.929 . S
H962 C950 0.960 1_655 S
H963 C950 0.962 . S
H964 C950 0.960 . S
H965 C951 0.961 . S
H966 C951 0.961 . S
H967 C951 0.961 . S
H968 C952 0.931 . S
H969 C957 0.930 . S
H970 C958 0.956 . S
H971 C958 0.961 . S
H972 C958 0.961 . S
H973 C959 0.958 . S
H974 C959 0.961 . S
H975 C959 0.960 1_455 S
C976 C977 1.391 . S
C976 C978 1.394 . S
C976 H992 0.931 . S
C977 C976 1.391 . S
C977 C981 1.376 . S
C978 C976 1.394 . S
C978 C979 1.369 1_545 S
C978 C982 1.531 1_545 S
C979 C978 1.369 1_565 S
C979 C980 1.410 1_565 S
C979 C987 1.503 . S
C980 C979 1.410 1_545 S
C980 C981 1.392 . S
C980 C983 1.511 1_545 S
C981 C977 1.376 . S
C981 C980 1.392 . S
C981 H993 0.929 . S
C982 C978 1.531 1_565 S
C982 H994 0.960 . S
C982 H995 0.962 . S
C982 H996 0.960 1_565 S
C983 C980 1.511 1_565 S
C983 H997 0.961 . S
C983 H998 0.961 . S
C983 H999 0.961 1_565 S
C984 C985 1.370 . S
C984 C986 1.363 . S
C984 H1000 0.931 . S
C985 C984 1.370 . S
C985 C989 1.408 . S
C986 C984 1.363 . S
C986 C987 1.370 . S
C986 C990 1.524 . S
C987 C979 1.503 . S
C987 C986 1.370 . S
C987 C988 1.403 . S
C988 C987 1.403 . S
C988 C989 1.404 . S
C988 C991 1.539 . S
C989 C985 1.408 . S
C989 C988 1.404 . S
C989 H1001 0.930 . S
C990 C986 1.524 . S
C990 H1002 0.956 . S
C990 H1003 0.961 . S
C990 H1004 0.961 . S
C991 C988 1.539 . S
C991 H1005 0.958 1_565 S
C991 H1006 0.961 . S
C991 H1007 0.960 1_565 S
H992 C976 0.931 . S
H993 C981 0.929 . S
H994 C982 0.960 . S
H995 C982 0.962 . S
H996 C982 0.960 1_545 S
H997 C983 0.961 . S
H998 C983 0.961 . S
H999 C983 0.961 1_545 S
H1000 C984 0.931 . S
H1001 C989 0.930 . S
H1002 C990 0.956 . S
H1003 C990 0.961 . S
H1004 C990 0.961 . S
H1005 C991 0.958 1_545 S
H1006 C991 0.961 . S
H1007 C991 0.960 1_545 S
C1008 C1009 1.391 . S
C1008 C1010 1.394 . S
C1008 H1024 0.931 . S
C1009 C1008 1.391 . S
C1009 C1013 1.376 . S
C1010 C1008 1.394 . S
C1010 C1011 1.369 . S
C1010 C1014 1.531 . S
C1011 C1010 1.369 . S
C1011 C1012 1.410 . S
C1011 C1019 1.503 . S
C1012 C1011 1.410 . S
C1012 C1013 1.392 . S
C1012 C1015 1.511 . S
C1013 C1009 1.376 . S
C1013 C1012 1.392 . S
C1013 H1025 0.929 . S
C1014 C1010 1.531 . S
C1014 H1026 0.960 . S
C1014 H1027 0.962 . S
C1014 H1028 0.960 . S
C1015 C1012 1.511 . S
C1015 H1029 0.961 . S
C1015 H1030 0.961 . S
C1015 H1031 0.961 . S
C1016 C1017 1.370 . S
C1016 C1018 1.363 . S
C1016 H1032 0.931 . S
C1017 C1016 1.370 . S
C1017 C1021 1.408 . S
C1018 C1016 1.363 . S
C1018 C1019 1.370 1_565 S
C1018 C1022 1.524 . S
C1019 C1011 1.503 . S
C1019 C1018 1.370 1_545 S
C1019 C1020 1.403 . S
C1020 C1019 1.403 . S
C1020 C1021 1.404 1_545 S
C1020 C1023 1.539 . S
C1021 C1017 1.408 . S
C1021 C1020 1.404 1_565 S
C1021 H1033 0.930 . S
C1022 C1018 1.524 . S
C1022 H1034 0.956 1_565 S
C1022 H1035 0.963 . S
C1022 H1036 0.961 . S
C1023 C1020 1.539 . S
C1023 H1037 0.958 . S
C1023 H1038 0.961 . S
C1023 H1039 0.960 . S
H1024 C1008 0.931 . S
H1025 C1013 0.929 . S
H1026 C1014 0.960 . S
H1027 C1014 0.962 . S
H1028 C1014 0.960 . S
H1029 C1015 0.961 . S
H1030 C1015 0.961 . S
H1031 C1015 0.961 . S
H1032 C1016 0.931 . S
H1033 C1021 0.930 . S
H1034 C1022 0.956 1_545 S
H1035 C1022 0.963 . S
H1036 C1022 0.961 . S
H1037 C1023 0.958 . S
H1038 C1023 0.961 . S
H1039 C1023 0.960 . S
C1040 C1041 1.391 . S
C1040 C1042 1.394 . S
C1040 H1056 0.931 . S
C1041 C1040 1.391 . S
C1041 C1045 1.376 . S
C1042 C1040 1.394 . S
C1042 C1043 1.369 . S
C1042 C1046 1.531 . S
C1043 C1042 1.369 . S
C1043 C1044 1.410 . S
C1043 C1051 1.503 . S
C1044 C1043 1.410 . S
C1044 C1045 1.392 . S
C1044 C1047 1.511 . S
C1045 C1041 1.376 . S
C1045 C1044 1.392 . S
C1045 H1057 0.929 . S
C1046 C1042 1.531 . S
C1046 H1058 0.960 . S
C1046 H1059 0.962 . S
C1046 H1060 0.960 . S
C1047 C1044 1.511 . S
C1047 H1061 0.961 . S
C1047 H1062 0.961 . S
C1047 H1063 0.961 . S
C1048 C1049 1.370 . S
C1048 C1050 1.363 . S
C1048 H1064 0.931 . S
C1049 C1048 1.370 . S
C1049 C1053 1.408 . S
C1050 C1048 1.363 . S
C1050 C1051 1.370 . S
C1050 C1054 1.524 . S
C1051 C1043 1.503 . S
C1051 C1050 1.370 . S
C1051 C1052 1.403 . S
C1052 C1051 1.403 . S
C1052 C1053 1.404 . S
C1052 C1055 1.539 . S
C1053 C1049 1.408 . S
C1053 C1052 1.404 . S
C1053 H1065 0.930 . S
C1054 C1050 1.524 . S
C1054 H1066 0.956 . S
C1054 H1067 0.961 . S
C1054 H1068 0.961 . S
C1055 C1052 1.539 . S
C1055 H1069 0.958 . S
C1055 H1070 0.961 . S
C1055 H1071 0.960 . S
H1056 C1040 0.931 . S
H1057 C1045 0.929 . S
H1058 C1046 0.960 . S
H1059 C1046 0.962 . S
H1060 C1046 0.960 . S
H1061 C1047 0.961 . S
H1062 C1047 0.961 . S
H1063 C1047 0.961 . S
H1064 C1048 0.931 . S
H1065 C1053 0.930 . S
H1066 C1054 0.956 . S
H1067 C1054 0.961 . S
H1068 C1054 0.961 . S
H1069 C1055 0.958 . S
H1070 C1055 0.961 . S
H1071 C1055 0.960 . S
C1072 C1073 1.391 . S
C1072 C1074 1.394 . S
C1072 H1088 0.931 . S
C1073 C1072 1.391 . S
C1073 C1077 1.376 . S
C1074 C1072 1.394 . S
C1074 C1075 1.369 . S
C1074 C1078 1.531 . S
C1075 C1074 1.369 . S
C1075 C1076 1.410 . S
C1075 C1083 1.503 . S
C1076 C1075 1.410 . S
C1076 C1077 1.392 . S
C1076 C1079 1.511 . S
C1077 C1073 1.376 . S
C1077 C1076 1.392 . S
C1077 H1089 0.929 . S
C1078 C1074 1.531 . S
C1078 H1090 0.960 . S
C1078 H1091 0.962 . S
C1078 H1092 0.960 . S
C1079 C1076 1.511 . S
C1079 H1093 0.961 . S
C1079 H1094 0.961 . S
C1079 H1095 0.961 . S
C1080 C1081 1.370 . S
C1080 C1082 1.363 . S
C1080 H1096 0.931 . S
C1081 C1080 1.370 . S
C1081 C1085 1.408 . S
C1082 C1080 1.363 . S
C1082 C1083 1.370 1_565 S
C1082 C1086 1.524 . S
C1083 C1075 1.503 . S
C1083 C1082 1.370 1_545 S
C1083 C1084 1.403 . S
C1084 C1083 1.403 . S
C1084 C1085 1.404 1_545 S
C1084 C1087 1.539 . S
C1085 C1081 1.408 . S
C1085 C1084 1.404 1_565 S
C1085 H1097 0.930 . S
C1086 C1082 1.524 . S
C1086 H1098 0.956 . S
C1086 H1099 0.961 . S
C1086 H1100 0.961 . S
C1087 C1084 1.539 . S
C1087 H1101 0.958 . S
C1087 H1102 0.961 . S
C1087 H1103 0.960 . S
H1088 C1072 0.931 . S
H1089 C1077 0.929 . S
H1090 C1078 0.960 . S
H1091 C1078 0.962 . S
H1092 C1078 0.960 . S
H1093 C1079 0.961 . S
H1094 C1079 0.961 . S
H1095 C1079 0.961 . S
H1096 C1080 0.931 . S
H1097 C1085 0.930 . S
H1098 C1086 0.956 . S
H1099 C1086 0.961 . S
H1100 C1086 0.961 . S
H1101 C1087 0.958 . S
H1102 C1087 0.961 . S
H1103 C1087 0.960 . S
C1104 C1105 1.391 1_655 S
C1104 C1106 1.393 1_655 S
C1104 H1120 0.931 . S
C1105 C1104 1.391 1_455 S
C1105 C1109 1.376 . S
C1106 C1104 1.393 1_455 S
C1106 C1107 1.372 . S
C1106 C1110 1.529 1_455 S
C1107 C1106 1.372 . S
C1107 C1108 1.410 . S
C1107 C1115 1.503 . S
C1108 C1107 1.410 . S
C1108 C1109 1.392 . S
C1108 C1111 1.511 . S
C1109 C1105 1.376 . S
C1109 C1108 1.392 . S
C1109 H1121 0.929 . S
C1110 C1106 1.529 1_655 S
C1110 H1122 0.960 1_655 S
C1110 H1123 0.962 . S
C1110 H1124 0.954 1_655 S
C1111 C1108 1.511 . S
C1111 H1125 0.961 . S
C1111 H1126 0.961 . S
C1111 H1127 0.961 . S
C1112 C1113 1.370 1_655 S
C1112 C1114 1.363 . S
C1112 H1128 0.931 . S
C1113 C1112 1.370 1_455 S
C1113 C1117 1.408 . S
C1114 C1112 1.363 . S
C1114 C1115 1.370 1_655 S
C1114 C1118 1.524 . S
C1115 C1107 1.503 . S
C1115 C1114 1.370 1_455 S
C1115 C1116 1.403 . S
C1116 C1115 1.403 . S
C1116 C1117 1.404 . S
C1116 C1119 1.539 . S
C1117 C1113 1.408 . S
C1117 C1116 1.404 . S
C1117 H1129 0.930 . S
C1118 C1114 1.524 . S
C1118 H1130 0.956 . S
C1118 H1131 0.961 . S
C1118 H1132 0.961 . S
C1119 C1116 1.539 . S
C1119 H1133 0.958 . S
C1119 H1134 0.961 . S
C1119 H1135 0.960 . S
H1120 C1104 0.931 . S
H1121 C1109 0.929 . S
H1122 C1110 0.960 1_455 S
H1123 C1110 0.962 . S
H1124 C1110 0.954 1_455 S
H1125 C1111 0.961 . S
H1126 C1111 0.961 . S
H1127 C1111 0.961 . S
H1128 C1112 0.931 . S
H1129 C1117 0.930 . S
H1130 C1118 0.956 . S
H1131 C1118 0.961 . S
H1132 C1118 0.961 . S
H1133 C1119 0.958 . S
H1134 C1119 0.961 . S
H1135 C1119 0.960 . S
C1136 C1137 1.391 1_655 S
C1136 C1138 1.394 . S
C1136 H1152 0.931 . S
C1137 C1136 1.391 1_455 S
C1137 C1141 1.376 . S
C1138 C1136 1.394 . S
C1138 C1139 1.369 1_655 S
C1138 C1142 1.531 . S
C1139 C1138 1.369 1_455 S
C1139 C1140 1.410 . S
C1139 C1147 1.503 . S
C1140 C1139 1.410 . S
C1140 C1141 1.392 . S
C1140 C1143 1.511 . S
C1141 C1137 1.376 . S
C1141 C1140 1.392 . S
C1141 H1153 0.929 . S
C1142 C1138 1.531 . S
C1142 H1154 0.960 . S
C1142 H1155 0.962 . S
C1142 H1156 0.960 . S
C1143 C1140 1.511 . S
C1143 H1157 0.961 . S
C1143 H1158 0.961 . S
C1143 H1159 0.961 . S
C1144 C1145 1.370 . S
C1144 C1146 1.363 . S
C1144 H1160 0.931 . S
C1145 C1144 1.370 . S
C1145 C1149 1.408 1_655 S
C1146 C1144 1.363 . S
C1146 C1147 1.370 1_655 S
C1146 C1150 1.524 . S
C1147 C1139 1.503 . S
C1147 C1146 1.370 1_455 S
C1147 C1148 1.403 . S
C1148 C1147 1.403 . S
C1148 C1149 1.404 . S
C1148 C1151 1.539 . S
C1149 C1145 1.408 1_455 S
C1149 C1148 1.404 . S
C1149 H1161 0.930 . S
C1150 C1146 1.524 . S
C1150 H1162 0.956 . S
C1150 H1163 0.961 . S
C1150 H1164 0.961 . S
C1151 C1148 1.539 . S
C1151 H1165 0.958 . S
C1151 H1166 0.961 . S
C1151 H1167 0.960 . S
H1152 C1136 0.931 . S
H1153 C1141 0.929 . S
H1154 C1142 0.960 . S
H1155 C1142 0.962 . S
H1156 C1142 0.960 . S
H1157 C1143 0.961 . S
H1158 C1143 0.961 . S
H1159 C1143 0.961 . S
H1160 C1144 0.931 . S
H1161 C1149 0.930 . S
H1162 C1150 0.956 . S
H1163 C1150 0.961 . S
H1164 C1150 0.961 . S
H1165 C1151 0.958 . S
H1166 C1151 0.961 . S
H1167 C1151 0.960 . S
C1168 C1169 1.391 . S
C1168 C1170 1.394 . S
C1168 H1184 0.931 . S
C1169 C1168 1.391 . S
C1169 C1173 1.376 1_545 S
C1170 C1168 1.394 . S
C1170 C1171 1.369 . S
C1170 C1174 1.531 . S
C1171 C1170 1.369 . S
C1171 C1172 1.410 1_545 S
C1171 C1179 1.503 . S
C1172 C1171 1.410 1_565 S
C1172 C1173 1.392 . S
C1172 C1175 1.511 . S
C1173 C1169 1.376 1_565 S
C1173 C1172 1.392 . S
C1173 H1185 0.929 . S
C1174 C1170 1.531 . S
C1174 H1186 0.960 . S
C1174 H1187 0.962 . S
C1174 H1188 0.960 . S
C1175 C1172 1.511 . S
C1175 H1189 0.961 . S
C1175 H1190 0.961 . S
C1175 H1191 0.961 . S
C1176 C1177 1.370 1_565 S
C1176 C1178 1.363 . S
C1176 H1192 0.931 . S
C1177 C1176 1.370 1_545 S
C1177 C1181 1.408 . S
C1178 C1176 1.363 . S
C1178 C1179 1.370 1_565 S
C1178 C1182 1.524 . S
C1179 C1171 1.503 . S
C1179 C1178 1.370 1_545 S
C1179 C1180 1.403 . S
C1180 C1179 1.403 . S
C1180 C1181 1.404 . S
C1180 C1183 1.539 . S
C1181 C1177 1.408 . S
C1181 C1180 1.404 . S
C1181 H1193 0.930 . S
C1182 C1178 1.524 . S
C1182 H1194 0.956 . S
C1182 H1195 0.961 . S
C1182 H1196 0.961 . S
C1183 C1180 1.539 . S
C1183 H1197 0.958 . S
C1183 H1198 0.961 . S
C1183 H1199 0.960 . S
H1184 C1168 0.931 . S
H1185 C1173 0.929 . S
H1186 C1174 0.960 . S
H1187 C1174 0.962 . S
H1188 C1174 0.960 . S
H1189 C1175 0.961 . S
H1190 C1175 0.961 . S
H1191 C1175 0.961 . S
H1192 C1176 0.931 . S
H1193 C1181 0.930 . S
H1194 C1182 0.956 . S
H1195 C1182 0.961 . S
H1196 C1182 0.961 . S
H1197 C1183 0.958 . S
H1198 C1183 0.961 . S
H1199 C1183 0.960 . S
C1200 C1201 1.391 . S
C1200 C1202 1.394 . S
C1200 H1216 0.931 . S
C1201 C1200 1.391 . S
C1201 C1205 1.376 . S
C1202 C1200 1.394 . S
C1202 C1203 1.369 . S
C1202 C1206 1.531 . S
C1203 C1202 1.369 . S
C1203 C1204 1.410 . S
C1203 C1211 1.503 . S
C1204 C1203 1.410 . S
C1204 C1205 1.392 . S
C1204 C1207 1.511 . S
C1205 C1201 1.376 . S
C1205 C1204 1.392 . S
C1205 H1217 0.929 . S
C1206 C1202 1.531 . S
C1206 H1218 0.960 . S
C1206 H1219 0.962 . S
C1206 H1220 0.960 . S
C1207 C1204 1.511 . S
C1207 H1221 0.961 . S
C1207 H1222 0.961 . S
C1207 H1223 0.961 . S
C1208 C1209 1.370 . S
C1208 C1210 1.363 . S
C1208 H1224 0.931 . S
C1209 C1208 1.370 . S
C1209 C1213 1.408 . S
C1210 C1208 1.363 . S
C1210 C1211 1.370 . S
C1210 C1214 1.524 . S
C1211 C1203 1.503 . S
C1211 C1210 1.370 . S
C1211 C1212 1.403 . S
C1212 C1211 1.403 . S
C1212 C1213 1.404 . S
C1212 C1215 1.539 . S
C1213 C1209 1.408 . S
C1213 C1212 1.404 . S
C1213 H1225 0.930 . S
C1214 C1210 1.524 . S
C1214 H1226 0.956 . S
C1214 H1227 0.961 . S
C1214 H1228 0.961 . S
C1215 C1212 1.539 . S
C1215 H1229 0.958 . S
C1215 H1230 0.961 . S
C1215 H1231 0.960 . S
H1216 C1200 0.931 . S
H1217 C1205 0.929 . S
H1218 C1206 0.960 . S
H1219 C1206 0.962 . S
H1220 C1206 0.960 . S
H1221 C1207 0.961 . S
H1222 C1207 0.961 . S
H1223 C1207 0.961 . S
H1224 C1208 0.931 . S
H1225 C1213 0.930 . S
H1226 C1214 0.956 . S
H1227 C1214 0.961 . S
H1228 C1214 0.961 . S
H1229 C1215 0.958 . S
H1230 C1215 0.961 . S
H1231 C1215 0.960 . S
C1232 C1233 1.391 1_556 S
C1232 C1234 1.394 . S
C1232 H1248 0.931 . S
C1233 C1232 1.391 1_554 S
C1233 C1237 1.376 . S
C1234 C1232 1.394 . S
C1234 C1235 1.369 . S
C1234 C1238 1.531 . S
C1235 C1234 1.369 . S
C1235 C1236 1.410 1_556 S
C1235 C1243 1.503 . S
C1236 C1235 1.410 1_554 S
C1236 C1237 1.392 . S
C1236 C1239 1.511 . S
C1237 C1233 1.376 . S
C1237 C1236 1.392 . S
C1237 H1249 0.929 . S
C1238 C1234 1.531 . S
C1238 H1250 0.960 . S
C1238 H1251 0.962 . S
C1238 H1252 0.960 . S
C1239 C1236 1.511 . S
C1239 H1253 0.961 . S
C1239 H1254 0.961 . S
C1239 H1255 0.961 . S
C1240 C1241 1.370 1_554 S
C1240 C1242 1.363 . S
C1240 H1256 0.931 . S
C1241 C1240 1.370 1_556 S
C1241 C1245 1.408 . S
C1242 C1240 1.363 . S
C1242 C1243 1.370 1_554 S
C1242 C1246 1.524 . S
C1243 C1235 1.503 . S
C1243 C1242 1.370 1_556 S
C1243 C1244 1.403 . S
C1244 C1243 1.403 . S
C1244 C1245 1.404 . S
C1244 C1247 1.539 . S
C1245 C1241 1.408 . S
C1245 C1244 1.404 . S
C1245 H1257 0.930 . S
C1246 C1242 1.524 . S
C1246 H1258 0.956 . S
C1246 H1259 0.961 . S
C1246 H1260 0.961 . S
C1247 C1244 1.539 . S
C1247 H1261 0.958 . S
C1247 H1262 0.961 . S
C1247 H1263 0.960 . S
H1248 C1232 0.931 . S
H1249 C1237 0.929 . S
H1250 C1238 0.960 . S
H1251 C1238 0.962 . S
H1252 C1238 0.960 . S
H1253 C1239 0.961 . S
H1254 C1239 0.961 . S
H1255 C1239 0.961 . S
H1256 C1240 0.931 . S
H1257 C1245 0.930 . S
H1258 C1246 0.956 . S
H1259 C1246 0.961 . S
H1260 C1246 0.961 . S
H1261 C1247 0.958 . S
H1262 C1247 0.961 . S
H1263 C1247 0.960 . S
C1264 C1265 1.391 . S
C1264 C1266 1.394 . S
C1264 H1280 0.931 . S
C1265 C1264 1.391 . S
C1265 C1269 1.376 . S
C1266 C1264 1.394 . S
C1266 C1267 1.369 . S
C1266 C1270 1.531 . S
C1267 C1266 1.369 . S
C1267 C1268 1.410 . S
C1267 C1275 1.503 . S
C1268 C1267 1.410 . S
C1268 C1269 1.392 . S
C1268 C1271 1.511 . S
C1269 C1265 1.376 . S
C1269 C1268 1.392 . S
C1269 H1281 0.929 . S
C1270 C1266 1.531 . S
C1270 H1282 0.960 . S
C1270 H1283 0.962 . S
C1270 H1284 0.960 . S
C1271 C1268 1.511 . S
C1271 H1285 0.961 . S
C1271 H1286 0.961 . S
C1271 H1287 0.961 . S
C1272 C1273 1.370 . S
C1272 C1274 1.363 . S
C1272 H1288 0.931 . S
C1273 C1272 1.370 . S
C1273 C1277 1.408 . S
C1274 C1272 1.363 . S
C1274 C1275 1.370 . S
C1274 C1278 1.524 . S
C1275 C1267 1.503 . S
C1275 C1274 1.370 . S
C1275 C1276 1.403 . S
C1276 C1275 1.403 . S
C1276 C1277 1.404 . S
C1276 C1279 1.539 . S
C1277 C1273 1.408 . S
C1277 C1276 1.404 . S
C1277 H1289 0.930 . S
C1278 C1274 1.524 . S
C1278 H1290 0.956 . S
C1278 H1291 0.961 . S
C1278 H1292 0.961 . S
C1279 C1276 1.539 . S
C1279 H1293 0.958 . S
C1279 H1294 0.961 . S
C1279 H1295 0.960 . S
H1280 C1264 0.931 . S
H1281 C1269 0.929 . S
H1282 C1270 0.960 . S
H1283 C1270 0.962 . S
H1284 C1270 0.960 . S
H1285 C1271 0.961 . S
H1286 C1271 0.961 . S
H1287 C1271 0.961 . S
H1288 C1272 0.931 . S
H1289 C1277 0.930 . S
H1290 C1278 0.956 . S
H1291 C1278 0.961 . S
H1292 C1278 0.961 . S
H1293 C1279 0.958 . S
H1294 C1279 0.961 . S
H1295 C1279 0.960 . S
C1296 C1297 1.391 . S
C1296 C1298 1.394 . S
C1296 H1312 0.931 . S
C1297 C1296 1.391 . S
C1297 C1301 1.376 . S
C1298 C1296 1.394 . S
C1298 C1299 1.369 . S
C1298 C1302 1.531 . S
C1299 C1298 1.369 . S
C1299 C1300 1.410 . S
C1299 C1307 1.503 . S
C1300 C1299 1.410 . S
C1300 C1301 1.392 . S
C1300 C1303 1.511 . S
C1301 C1297 1.376 . S
C1301 C1300 1.392 . S
C1301 H1313 0.929 . S
C1302 C1298 1.531 . S
C1302 H1314 0.960 . S
C1302 H1315 0.962 . S
C1302 H1316 0.960 . S
C1303 C1300 1.511 . S
C1303 H1317 0.961 . S
C1303 H1318 0.961 . S
C1303 H1319 0.961 . S
C1304 C1305 1.370 . S
C1304 C1306 1.363 . S
C1304 H1320 0.931 . S
C1305 C1304 1.370 . S
C1305 C1309 1.408 . S
C1306 C1304 1.363 . S
C1306 C1307 1.370 . S
C1306 C1310 1.524 . S
C1307 C1299 1.503 . S
C1307 C1306 1.370 . S
C1307 C1308 1.403 . S
C1308 C1307 1.403 . S
C1308 C1309 1.404 . S
C1308 C1311 1.539 . S
C1309 C1305 1.408 . S
C1309 C1308 1.404 . S
C1309 H1321 0.930 . S
C1310 C1306 1.524 . S
C1310 H1322 0.956 . S
C1310 H1323 0.961 . S
C1310 H1324 0.961 . S
C1311 C1308 1.539 . S
C1311 H1325 0.958 . S
C1311 H1326 0.961 . S
C1311 H1327 0.960 . S
H1312 C1296 0.931 . S
H1313 C1301 0.929 . S
H1314 C1302 0.960 . S
H1315 C1302 0.962 . S
H1316 C1302 0.960 . S
H1317 C1303 0.961 . S
H1318 C1303 0.961 . S
H1319 C1303 0.961 . S
H1320 C1304 0.931 . S
H1321 C1309 0.930 . S
H1322 C1310 0.956 . S
H1323 C1310 0.961 . S
H1324 C1310 0.961 . S
H1325 C1311 0.958 . S
H1326 C1311 0.961 . S
H1327 C1311 0.960 . S
C1328 C1329 1.391 . S
C1328 C1330 1.394 . S
C1328 H1344 0.931 . S
C1329 C1328 1.391 . S
C1329 C1333 1.376 . S
C1330 C1328 1.394 . S
C1330 C1331 1.369 . S
C1330 C1334 1.531 . S
C1331 C1330 1.369 . S
C1331 C1332 1.410 . S
C1331 C1339 1.503 . S
C1332 C1331 1.410 . S
C1332 C1333 1.392 . S
C1332 C1335 1.511 . S
C1333 C1329 1.376 . S
C1333 C1332 1.392 . S
C1333 H1345 0.929 . S
C1334 C1330 1.531 . S
C1334 H1346 0.960 . S
C1334 H1347 0.962 . S
C1334 H1348 0.960 . S
C1335 C1332 1.511 . S
C1335 H1349 0.961 . S
C1335 H1350 0.961 . S
C1335 H1351 0.961 . S
C1336 C1337 1.370 . S
C1336 C1338 1.363 . S
C1336 H1352 0.931 . S
C1337 C1336 1.370 . S
C1337 C1341 1.408 . S
C1338 C1336 1.363 . S
C1338 C1339 1.370 . S
C1338 C1342 1.524 . S
C1339 C1331 1.503 . S
C1339 C1338 1.370 . S
C1339 C1340 1.403 . S
C1340 C1339 1.403 . S
C1340 C1341 1.404 . S
C1340 C1343 1.539 . S
C1341 C1337 1.408 . S
C1341 C1340 1.404 . S
C1341 H1353 0.930 . S
C1342 C1338 1.524 . S
C1342 H1354 0.956 . S
C1342 H1355 0.961 . S
C1342 H1356 0.961 . S
C1343 C1340 1.539 . S
C1343 H1357 0.958 . S
C1343 H1358 0.961 . S
C1343 H1359 0.960 . S
H1344 C1328 0.931 . S
H1345 C1333 0.929 . S
H1346 C1334 0.960 . S
H1347 C1334 0.962 . S
H1348 C1334 0.960 . S
H1349 C1335 0.961 . S
H1350 C1335 0.961 . S
H1351 C1335 0.961 . S
H1352 C1336 0.931 . S
H1353 C1341 0.930 . S
H1354 C1342 0.956 . S
H1355 C1342 0.961 . S
H1356 C1342 0.961 . S
H1357 C1343 0.958 . S
H1358 C1343 0.961 . S
H1359 C1343 0.960 . S
C1360 C1361 1.391 . S
C1360 C1362 1.394 . S
C1360 H1376 0.931 . S
C1361 C1360 1.391 . S
C1361 C1365 1.376 . S
C1362 C1360 1.394 . S
C1362 C1363 1.369 . S
C1362 C1366 1.531 . S
C1363 C1362 1.369 . S
C1363 C1364 1.410 . S
C1363 C1371 1.503 . S
C1364 C1363 1.410 . S
C1364 C1365 1.392 . S
C1364 C1367 1.511 . S
C1365 C1361 1.376 . S
C1365 C1364 1.392 . S
C1365 H1377 0.929 . S
C1366 C1362 1.531 . S
C1366 H1378 0.960 . S
C1366 H1379 0.962 . S
C1366 H1380 0.960 . S
C1367 C1364 1.511 . S
C1367 H1381 0.961 . S
C1367 H1382 0.961 . S
C1367 H1383 0.961 . S
C1368 C1369 1.370 . S
C1368 C1370 1.363 . S
C1368 H1384 0.931 . S
C1369 C1368 1.370 . S
C1369 C1373 1.408 . S
C1370 C1368 1.363 . S
C1370 C1371 1.370 . S
C1370 C1374 1.524 . S
C1371 C1363 1.503 . S
C1371 C1370 1.370 . S
C1371 C1372 1.403 . S
C1372 C1371 1.403 . S
C1372 C1373 1.404 . S
C1372 C1375 1.539 . S
C1373 C1369 1.408 . S
C1373 C1372 1.404 . S
C1373 H1385 0.930 . S
C1374 C1370 1.524 . S
C1374 H1386 0.956 . S
C1374 H1387 0.961 . S
C1374 H1388 0.961 . S
C1375 C1372 1.539 . S
C1375 H1389 0.958 . S
C1375 H1390 0.961 . S
C1375 H1391 0.960 . S
H1376 C1360 0.931 . S
H1377 C1365 0.929 . S
H1378 C1366 0.960 . S
H1379 C1366 0.962 . S
H1380 C1366 0.960 . S
H1381 C1367 0.961 . S
H1382 C1367 0.961 . S
H1383 C1367 0.961 . S
H1384 C1368 0.931 . S
H1385 C1373 0.930 . S
H1386 C1374 0.956 . S
H1387 C1374 0.961 . S
H1388 C1374 0.961 . S
H1389 C1375 0.958 . S
H1390 C1375 0.961 . S
H1391 C1375 0.960 . S
C1392 C1393 1.391 . S
C1392 C1394 1.394 . S
C1392 H1408 0.931 . S
C1393 C1392 1.391 . S
C1393 C1397 1.376 . S
C1394 C1392 1.394 . S
C1394 C1395 1.369 . S
C1394 C1398 1.531 . S
C1395 C1394 1.369 . S
C1395 C1396 1.410 . S
C1395 C1403 1.503 . S
C1396 C1395 1.410 . S
C1396 C1397 1.392 . S
C1396 C1399 1.511 . S
C1397 C1393 1.376 . S
C1397 C1396 1.392 . S
C1397 H1409 0.929 . S
C1398 C1394 1.531 . S
C1398 H1410 0.960 . S
C1398 H1411 0.962 . S
C1398 H1412 0.960 . S
C1399 C1396 1.511 . S
C1399 H1413 0.961 . S
C1399 H1414 0.961 . S
C1399 H1415 0.961 . S
C1400 C1401 1.370 . S
C1400 C1402 1.363 . S
C1400 H1416 0.931 . S
C1401 C1400 1.370 . S
C1401 C1405 1.408 . S
C1402 C1400 1.363 . S
C1402 C1403 1.370 . S
C1402 C1406 1.524 . S
C1403 C1395 1.503 . S
C1403 C1402 1.370 . S
C1403 C1404 1.403 . S
C1404 C1403 1.403 . S
C1404 C1405 1.404 . S
C1404 C1407 1.539 . S
C1405 C1401 1.408 . S
C1405 C1404 1.404 . S
C1405 H1417 0.930 . S
C1406 C1402 1.524 . S
C1406 H1418 0.956 . S
C1406 H1419 0.961 . S
C1406 H1420 0.961 . S
C1407 C1404 1.539 . S
C1407 H1421 0.958 . S
C1407 H1422 0.961 . S
C1407 H1423 0.960 . S
H1408 C1392 0.931 . S
H1409 C1397 0.929 . S
H1410 C1398 0.960 . S
H1411 C1398 0.962 . S
H1412 C1398 0.960 . S
H1413 C1399 0.961 . S
H1414 C1399 0.961 . S
H1415 C1399 0.961 . S
H1416 C1400 0.931 . S
H1417 C1405 0.930 . S
H1418 C1406 0.956 . S
H1419 C1406 0.961 . S
H1420 C1406 0.961 . S
H1421 C1407 0.958 . S
H1422 C1407 0.961 . S
H1423 C1407 0.960 . S
C1424 C1425 1.391 1_565 S
C1424 C1426 1.394 . S
C1424 H1440 0.931 . S
C1425 C1424 1.391 1_545 S
C1425 C1429 1.376 . S
C1426 C1424 1.394 . S
C1426 C1427 1.369 . S
C1426 C1430 1.531 . S
C1427 C1426 1.369 . S
C1427 C1428 1.410 1_565 S
C1427 C1435 1.503 . S
C1428 C1427 1.410 1_545 S
C1428 C1429 1.392 . S
C1428 C1431 1.511 . S
C1429 C1425 1.376 . S
C1429 C1428 1.392 . S
C1429 H1441 0.929 . S
C1430 C1426 1.531 . S
C1430 H1442 0.960 . S
C1430 H1443 0.962 . S
C1430 H1444 0.960 . S
C1431 C1428 1.511 . S
C1431 H1445 0.961 . S
C1431 H1446 0.961 . S
C1431 H1447 0.961 . S
C1432 C1433 1.370 1_545 S
C1432 C1434 1.363 . S
C1432 H1448 0.931 . S
C1433 C1432 1.370 1_565 S
C1433 C1437 1.408 . S
C1434 C1432 1.363 . S
C1434 C1435 1.370 1_545 S
C1434 C1438 1.524 . S
C1435 C1427 1.503 . S
C1435 C1434 1.370 1_565 S
C1435 C1436 1.403 . S
C1436 C1435 1.403 . S
C1436 C1437 1.404 . S
C1436 C1439 1.539 . S
C1437 C1433 1.408 . S
C1437 C1436 1.404 . S
C1437 H1449 0.930 . S
C1438 C1434 1.524 . S
C1438 H1450 0.956 . S
C1438 H1451 0.961 . S
C1438 H1452 0.961 . S
C1439 C1436 1.539 . S
C1439 H1453 0.958 . S
C1439 H1454 0.961 . S
C1439 H1455 0.960 . S
H1440 C1424 0.931 . S
H1441 C1429 0.929 . S
H1442 C1430 0.960 . S
H1443 C1430 0.962 . S
H1444 C1430 0.960 . S
H1445 C1431 0.961 . S
H1446 C1431 0.961 . S
H1447 C1431 0.961 . S
H1448 C1432 0.931 . S
H1449 C1437 0.930 . S
H1450 C1438 0.956 . S
H1451 C1438 0.961 . S
H1452 C1438 0.961 . S
H1453 C1439 0.958 . S
H1454 C1439 0.961 . S
H1455 C1439 0.960 . S
C1456 C1457 1.391 1_554 S
C1456 C1458 1.394 . S
C1456 H1472 0.931 . S
C1457 C1456 1.391 1_556 S
C1457 C1461 1.376 . S
C1458 C1456 1.394 . S
C1458 C1459 1.369 1_554 S
C1458 C1462 1.531 . S
C1459 C1458 1.369 1_556 S
C1459 C1460 1.410 . S
C1459 C1467 1.503 . S
C1460 C1459 1.410 . S
C1460 C1461 1.392 . S
C1460 C1463 1.511 . S
C1461 C1457 1.376 . S
C1461 C1460 1.392 . S
C1461 H1473 0.929 . S
C1462 C1458 1.531 . S
C1462 H1474 0.979 . S
C1462 H1475 0.962 . S
C1462 H1476 0.960 . S
C1463 C1460 1.511 . S
C1463 H1477 0.961 . S
C1463 H1478 0.961 . S
C1463 H1479 0.961 . S
C1464 C1465 1.370 . S
C1464 C1466 1.363 . S
C1464 H1480 0.931 . S
C1465 C1464 1.370 . S
C1465 C1469 1.408 1_554 S
C1466 C1464 1.363 . S
C1466 C1467 1.370 1_554 S
C1466 C1470 1.524 . S
C1467 C1459 1.503 . S
C1467 C1466 1.370 1_556 S
C1467 C1468 1.403 . S
C1468 C1467 1.403 . S
C1468 C1469 1.404 . S
C1468 C1471 1.539 . S
C1469 C1465 1.408 1_556 S
C1469 C1468 1.404 . S
C1469 H1481 0.930 . S
C1470 C1466 1.524 . S
C1470 H1482 0.956 . S
C1470 H1483 0.961 . S
C1470 H1484 0.961 . S
C1471 C1468 1.539 . S
C1471 H1485 0.958 . S
C1471 H1486 0.961 . S
C1471 H1487 0.960 . S
H1472 C1456 0.931 . S
H1473 C1461 0.929 . S
H1474 C1462 0.979 . S
H1475 C1462 0.962 . S
H1476 C1462 0.960 . S
H1477 C1463 0.961 . S
H1478 C1463 0.961 . S
H1479 C1463 0.961 . S
H1480 C1464 0.931 . S
H1481 C1469 0.930 . S
H1482 C1470 0.956 . S
H1483 C1470 0.961 . S
H1484 C1470 0.961 . S
H1485 C1471 0.958 . S
H1486 C1471 0.961 . S
H1487 C1471 0.960 . S
C1488 C1489 1.391 1_455 S
C1488 C1490 1.394 . S
C1488 H1504 0.931 . S
C1489 C1488 1.391 1_655 S
C1489 C1493 1.376 . S
C1490 C1488 1.394 . S
C1490 C1491 1.369 1_455 S
C1490 C1494 1.531 . S
C1491 C1490 1.369 1_655 S
C1491 C1492 1.410 . S
C1491 C1499 1.503 1_565 S
C1492 C1491 1.410 . S
C1492 C1493 1.392 . S
C1492 C1495 1.511 . S
C1493 C1489 1.376 . S
C1493 C1492 1.392 . S
C1493 H1505 0.929 . S
C1494 C1490 1.531 . S
C1494 H1506 0.960 1_565 S
C1494 H1507 0.962 . S
C1494 H1508 0.960 . S
C1495 C1492 1.511 . S
C1495 H1509 0.961 . S
C1495 H1510 0.961 . S
C1495 H1511 0.961 1_565 S
C1496 C1497 1.370 . S
C1496 C1498 1.351 1_545 S
C1496 H1512 0.931 . S
C1497 C1496 1.370 . S
C1497 C1501 1.408 . S
C1498 C1496 1.351 1_565 S
C1498 C1499 1.362 1_565 S
C1498 C1502 1.545 . S
C1499 C1491 1.503 1_545 S
C1499 C1498 1.362 1_545 S
C1499 C1500 1.403 . S
C1500 C1499 1.403 . S
C1500 C1501 1.404 . S
C1500 C1503 1.539 . S
C1501 C1497 1.408 . S
C1501 C1500 1.404 . S
C1501 H1513 0.930 . S
C1502 C1498 1.545 . S
C1502 H1514 0.956 1_655 S
C1502 H1515 0.961 . S
C1502 H1516 0.961 . S
C1503 C1500 1.539 . S
C1503 H1517 0.958 1_655 S
C1503 H1518 0.961 . S
C1503 H1519 0.960 . S
H1504 C1488 0.931 . S
H1505 C1493 0.929 . S
H1506 C1494 0.960 1_545 S
H1507 C1494 0.962 . S
H1508 C1494 0.960 . S
H1509 C1495 0.961 . S
H1510 C1495 0.961 . S
H1511 C1495 0.961 1_545 S
H1512 C1496 0.931 . S
H1513 C1501 0.930 . S
H1514 C1502 0.956 1_455 S
H1515 C1502 0.961 . S
H1516 C1502 0.961 . S
H1517 C1503 0.958 1_455 S
H1518 C1503 0.961 . S
H1519 C1503 0.960 . S
C1520 C1521 1.391 . S
C1520 C1522 1.394 . S
C1520 H1536 0.931 . S
C1521 C1520 1.391 . S
C1521 C1525 1.376 1_455 S
C1522 C1520 1.394 . S
C1522 C1523 1.369 . S
C1522 C1526 1.531 . S
C1523 C1522 1.369 . S
C1523 C1524 1.410 1_455 S
C1523 C1531 1.503 . S
C1524 C1523 1.410 1_655 S
C1524 C1525 1.392 . S
C1524 C1527 1.511 . S
C1525 C1521 1.376 1_655 S
C1525 C1524 1.392 . S
C1525 H1537 0.929 . S
C1526 C1522 1.531 . S
C1526 H1538 0.960 . S
C1526 H1539 0.962 . S
C1526 H1540 0.960 . S
C1527 C1524 1.511 . S
C1527 H1541 0.961 . S
C1527 H1542 0.961 . S
C1527 H1543 0.961 . S
C1528 C1529 1.363 1_655 S
C1528 C1530 1.363 . S
C1528 H1544 0.931 . S
C1529 C1528 1.363 1_455 S
C1529 C1533 1.418 . S
C1530 C1528 1.363 . S
C1530 C1531 1.370 1_655 S
C1530 C1534 1.524 . S
C1531 C1523 1.503 . S
C1531 C1530 1.370 1_455 S
C1531 C1532 1.403 . S
C1532 C1531 1.403 . S
C1532 C1533 1.404 . S
C1532 C1535 1.539 . S
C1533 C1529 1.418 . S
C1533 C1532 1.404 . S
C1533 H1545 0.930 . S
C1534 C1530 1.524 . S
C1534 H1546 0.969 . S
C1534 H1547 0.961 . S
C1534 H1548 0.961 . S
C1535 C1532 1.539 . S
C1535 H1549 0.958 . S
C1535 H1550 0.961 . S
C1535 H1551 0.960 . S
H1536 C1520 0.931 . S
H1537 C1525 0.929 . S
H1538 C1526 0.960 . S
H1539 C1526 0.962 . S
H1540 C1526 0.960 . S
H1541 C1527 0.961 . S
H1542 C1527 0.961 . S
H1543 C1527 0.961 . S
H1544 C1528 0.931 . S
H1545 C1533 0.930 . S
H1546 C1534 0.969 . S
H1547 C1534 0.961 . S
H1548 C1534 0.961 . S
H1549 C1535 0.958 . S
H1550 C1535 0.961 . S
H1551 C1535 0.960 . S
C1552 C1553 1.391 1_545 S
C1552 C1554 1.394 . S
C1552 H1568 0.931 . S
C1553 C1552 1.391 1_565 S
C1553 C1557 1.376 . S
C1554 C1552 1.394 . S
C1554 C1555 1.367 . S
C1554 C1558 1.531 . S
C1555 C1554 1.367 . S
C1555 C1556 1.412 1_545 S
C1555 C1563 1.503 1_546 S
C1556 C1555 1.412 1_565 S
C1556 C1557 1.392 . S
C1556 C1559 1.511 1_556 S
C1557 C1553 1.376 . S
C1557 C1556 1.392 . S
C1557 H1569 0.929 . S
C1558 C1554 1.531 . S
C1558 H1570 0.960 . S
C1558 H1571 0.962 . S
C1558 H1572 0.960 . S
C1559 C1556 1.511 1_554 S
C1559 H1573 0.961 . S
C1559 H1574 0.961 . S
C1559 H1575 0.961 . S
C1560 C1561 1.370 . S
C1560 C1562 1.363 . S
C1560 H1576 0.931 . S
C1561 C1560 1.370 . S
C1561 C1565 1.408 1_565 S
C1562 C1560 1.363 . S
C1562 C1563 1.370 . S
C1562 C1566 1.524 1_554 S
C1563 C1555 1.503 1_564 S
C1563 C1562 1.370 . S
C1563 C1564 1.403 1_565 S
C1564 C1563 1.403 1_545 S
C1564 C1565 1.404 . S
C1564 C1567 1.539 . S
C1565 C1561 1.408 1_545 S
C1565 C1564 1.404 . S
C1565 H1577 0.930 . S
C1566 C1562 1.524 1_556 S
C1566 H1578 0.956 . S
C1566 H1579 0.961 . S
C1566 H1580 0.961 . S
C1567 C1564 1.539 . S
C1567 H1581 0.958 . S
C1567 H1582 0.961 . S
C1567 H1583 0.960 . S
H1568 C1552 0.931 . S
H1569 C1557 0.929 . S
H1570 C1558 0.960 . S
H1571 C1558 0.962 . S
H1572 C1558 0.960 . S
H1573 C1559 0.961 . S
H1574 C1559 0.961 . S
H1575 C1559 0.961 . S
H1576 C1560 0.931 . S
H1577 C1565 0.930 . S
H1578 C1566 0.956 . S
H1579 C1566 0.961 . S
H1580 C1566 0.961 . S
H1581 C1567 0.958 . S
H1582 C1567 0.961 . S
H1583 C1567 0.960 . S
C1584 C1585 1.391 . S
C1584 C1586 1.394 . S
C1584 H1600 0.931 . S
C1585 C1584 1.391 . S
C1585 C1589 1.376 . S
C1586 C1584 1.394 . S
C1586 C1587 1.369 . S
C1586 C1590 1.531 1_554 S
C1587 C1586 1.369 . S
C1587 C1588 1.410 . S
C1587 C1595 1.503 1_554 S
C1588 C1587 1.410 . S
C1588 C1589 1.392 . S
C1588 C1591 1.511 . S
C1589 C1585 1.376 . S
C1589 C1588 1.392 . S
C1589 H1601 0.929 . S
C1590 C1586 1.531 1_556 S
C1590 H1602 0.960 . S
C1590 H1603 0.962 . S
C1590 H1604 0.960 1_556 S
C1591 C1588 1.511 . S
C1591 H1605 0.961 . S
C1591 H1606 0.961 . S
C1591 H1607 0.961 . S
C1592 C1593 1.370 . S
C1592 C1594 1.363 . S
C1592 H1608 0.931 . S
C1593 C1592 1.370 . S
C1593 C1597 1.408 . S
C1594 C1592 1.363 . S
C1594 C1595 1.370 . S
C1594 C1598 1.524 . S
C1595 C1587 1.503 1_556 S
C1595 C1594 1.370 . S
C1595 C1596 1.403 . S
C1596 C1595 1.403 . S
C1596 C1597 1.404 . S
C1596 C1599 1.539 1_556 S
C1597 C1593 1.408 . S
C1597 C1596 1.404 . S
C1597 H1609 0.930 . S
C1598 C1594 1.524 . S
C1598 H1610 0.956 . S
C1598 H1611 0.961 . S
C1598 H1612 0.961 . S
C1599 C1596 1.539 1_554 S
C1599 H1613 0.958 . S
C1599 H1614 0.961 . S
C1599 H1615 0.960 . S
H1600 C1584 0.931 . S
H1601 C1589 0.929 . S
H1602 C1590 0.960 . S
H1603 C1590 0.962 . S
H1604 C1590 0.960 1_554 S
H1605 C1591 0.961 . S
H1606 C1591 0.961 . S
H1607 C1591 0.961 . S
H1608 C1592 0.931 . S
H1609 C1597 0.930 . S
H1610 C1598 0.956 . S
H1611 C1598 0.961 . S
H1612 C1598 0.961 . S
H1613 C1599 0.958 . S
H1614 C1599 0.961 . S
H1615 C1599 0.960 . S
C1616 C1617 1.391 . S
C1616 C1618 1.394 . S
C1616 H1632 0.931 . S
C1617 C1616 1.391 . S
C1617 C1621 1.375 . S
C1618 C1616 1.394 . S
C1618 C1619 1.369 . S
C1618 C1622 1.531 . S
C1619 C1618 1.369 . S
C1619 C1620 1.410 . S
C1619 C1627 1.503 . S
C1620 C1619 1.410 . S
C1620 C1621 1.392 . S
C1620 C1623 1.511 1_545 S
C1621 C1617 1.375 . S
C1621 C1620 1.392 . S
C1621 H1633 0.929 1_545 S
C1622 C1618 1.531 . S
C1622 H1634 0.960 . S
C1622 H1635 0.962 . S
C1622 H1636 0.960 . S
C1623 C1620 1.511 1_565 S
C1623 H1637 0.961 . S
C1623 H1638 0.961 . S
C1623 H1639 0.961 1_565 S
C1624 C1625 1.370 1_565 S
C1624 C1626 1.363 . S
C1624 H1640 0.931 . S
C1625 C1624 1.370 1_545 S
C1625 C1629 1.408 . S
C1626 C1624 1.363 . S
C1626 C1627 1.370 1_565 S
C1626 C1630 1.524 . S
C1627 C1619 1.503 . S
C1627 C1626 1.370 1_545 S
C1627 C1628 1.403 . S
C1628 C1627 1.403 . S
C1628 C1629 1.404 . S
C1628 C1631 1.539 . S
C1629 C1625 1.408 . S
C1629 C1628 1.404 . S
C1629 H1641 0.930 . S
C1630 C1626 1.524 . S
C1630 H1642 0.956 . S
C1630 H1643 0.961 . S
C1630 H1644 0.961 . S
C1631 C1628 1.539 . S
C1631 H1645 0.958 . S
C1631 H1646 0.961 . S
C1631 H1647 0.960 . S
H1632 C1616 0.931 . S
H1633 C1621 0.929 1_565 S
H1634 C1622 0.960 . S
H1635 C1622 0.962 . S
H1636 C1622 0.960 . S
H1637 C1623 0.961 . S
H1638 C1623 0.961 . S
H1639 C1623 0.961 1_545 S
H1640 C1624 0.931 . S
H1641 C1629 0.930 . S
H1642 C1630 0.956 . S
H1643 C1630 0.961 . S
H1644 C1630 0.961 . S
H1645 C1631 0.958 . S
H1646 C1631 0.961 . S
H1647 C1631 0.960 . S
C1648 C1649 1.391 . S
C1648 C1650 1.394 . S
C1648 H1664 0.931 . S
C1649 C1648 1.391 . S
C1649 C1653 1.376 . S
C1650 C1648 1.394 . S
C1650 C1651 1.369 . S
C1650 C1654 1.531 . S
C1651 C1650 1.369 . S
C1651 C1652 1.410 . S
C1651 C1659 1.503 . S
C1652 C1651 1.410 . S
C1652 C1653 1.392 . S
C1652 C1655 1.511 . S
C1653 C1649 1.376 . S
C1653 C1652 1.392 . S
C1653 H1665 0.929 . S
C1654 C1650 1.531 . S
C1654 H1666 0.960 . S
C1654 H1667 0.962 . S
C1654 H1668 0.960 . S
C1655 C1652 1.511 . S
C1655 H1669 0.961 . S
C1655 H1670 0.961 . S
C1655 H1671 0.961 . S
C1656 C1657 1.370 . S
C1656 C1658 1.363 . S
C1656 H1672 0.931 . S
C1657 C1656 1.370 . S
C1657 C1661 1.408 . S
C1658 C1656 1.363 . S
C1658 C1659 1.370 . S
C1658 C1662 1.524 . S
C1659 C1651 1.503 . S
C1659 C1658 1.370 . S
C1659 C1660 1.403 . S
C1660 C1659 1.403 . S
C1660 C1661 1.404 . S
C1660 C1663 1.539 . S
C1661 C1657 1.408 . S
C1661 C1660 1.404 . S
C1661 H1673 0.930 . S
C1662 C1658 1.524 . S
C1662 H1674 0.956 . S
C1662 H1675 0.961 . S
C1662 H1676 0.961 . S
C1663 C1660 1.539 . S
C1663 H1677 0.958 . S
C1663 H1678 0.961 . S
C1663 H1679 0.960 . S
H1664 C1648 0.931 . S
H1665 C1653 0.929 . S
H1666 C1654 0.960 . S
H1667 C1654 0.962 . S
H1668 C1654 0.960 . S
H1669 C1655 0.961 . S
H1670 C1655 0.961 . S
H1671 C1655 0.961 . S
H1672 C1656 0.931 . S
H1673 C1661 0.930 . S
H1674 C1662 0.956 . S
H1675 C1662 0.961 . S
H1676 C1662 0.961 . S
H1677 C1663 0.958 . S
H1678 C1663 0.961 . S
H1679 C1663 0.960 . S
C1680 C1681 1.391 1_554 S
C1680 C1682 1.394 . S
C1680 H1696 0.931 . S
C1681 C1680 1.391 1_556 S
C1681 C1685 1.376 . S
C1682 C1680 1.394 . S
C1682 C1683 1.369 . S
C1682 C1686 1.531 . S
C1683 C1682 1.369 . S
C1683 C1684 1.410 1_454 S
C1683 C1691 1.506 1_455 S
C1684 C1683 1.410 1_656 S
C1684 C1685 1.392 1_655 S
C1684 C1687 1.511 . S
C1685 C1681 1.376 . S
C1685 C1684 1.392 1_455 S
C1685 H1697 0.929 . S
C1686 C1682 1.531 . S
C1686 H1698 0.960 . S
C1686 H1699 0.962 1_554 S
C1686 H1700 0.960 . S
C1687 C1684 1.511 . S
C1687 H1701 0.961 . S
C1687 H1702 0.961 . S
C1687 H1703 0.961 1_556 S
C1688 C1689 1.370 . S
C1688 C1690 1.363 . S
C1688 H1704 0.931 . S
C1689 C1688 1.370 . S
C1689 C1693 1.408 1_556 S
C1690 C1688 1.363 . S
C1690 C1691 1.332 1_556 S
C1690 C1694 1.524 . S
C1691 C1683 1.506 1_655 S
C1691 C1690 1.332 1_554 S
C1691 C1692 1.440 . S
C1692 C1691 1.440 . S
C1692 C1693 1.404 . S
C1692 C1695 1.539 . S
C1693 C1689 1.408 1_554 S
C1693 C1692 1.404 . S
C1693 H1705 0.930 . S
C1694 C1690 1.524 . S
C1694 H1706 0.956 1_655 S
C1694 H1707 0.961 . S
C1694 H1708 0.961 . S
C1695 C1692 1.539 . S
C1695 H1709 0.958 . S
C1695 H1710 0.961 . S
C1695 H1711 0.960 . S
H1696 C1680 0.931 . S
H1697 C1685 0.929 . S
H1698 C1686 0.960 . S
H1699 C1686 0.962 1_556 S
H1700 C1686 0.960 . S
H1701 C1687 0.961 . S
H1702 C1687 0.961 . S
H1703 C1687 0.961 1_554 S
H1704 C1688 0.931 . S
H1705 C1693 0.930 . S
H1706 C1694 0.956 1_455 S
H1707 C1694 0.961 . S
H1708 C1694 0.961 . S
H1709 C1695 0.958 . S
H1710 C1695 0.961 . S
H1711 C1695 0.960 . S
C1712 C1713 1.391 . S
C1712 C1714 1.394 . S
C1712 H1728 0.931 . S
C1713 C1712 1.391 . S
C1713 C1717 1.376 . S
C1714 C1712 1.394 . S
C1714 C1715 1.369 . S
C1714 C1718 1.531 . S
C1715 C1714 1.369 . S
C1715 C1716 1.401 1_455 S
C1715 C1723 1.503 1_455 S
C1716 C1715 1.401 1_655 S
C1716 C1717 1.364 1_655 S
C1716 C1719 1.547 . S
C1717 C1713 1.376 . S
C1717 C1716 1.364 1_455 S
C1717 H1729 0.929 . S
C1718 C1714 1.531 . S
C1718 H1730 0.960 . S
C1718 H1731 0.962 . S
C1718 H1732 0.960 . S
C1719 C1716 1.547 . S
C1719 H1733 0.961 . S
C1719 H1734 0.961 . S
C1719 H1735 0.961 . S
C1720 C1721 1.370 . S
C1720 C1722 1.363 . S
C1720 H1736 0.931 . S
C1721 C1720 1.370 . S
C1721 C1725 1.408 . S
C1722 C1720 1.363 . S
C1722 C1723 1.370 . S
C1722 C1726 1.524 1_655 S
C1723 C1715 1.503 1_655 S
C1723 C1722 1.370 . S
C1723 C1724 1.403 . S
C1724 C1723 1.403 . S
C1724 C1725 1.404 . S
C1724 C1727 1.539 . S
C1725 C1721 1.408 . S
C1725 C1724 1.404 . S
C1725 H1737 0.930 . S
C1726 C1722 1.524 1_455 S
C1726 H1738 0.956 . S
C1726 H1739 0.961 . S
C1726 H1740 0.961 . S
C1727 C1724 1.539 . S
C1727 H1741 0.958 . S
C1727 H1742 0.961 . S
C1727 H1743 0.960 . S
H1728 C1712 0.931 . S
H1729 C1717 0.929 . S
H1730 C1718 0.960 . S
H1731 C1718 0.962 . S
H1732 C1718 0.960 . S
H1733 C1719 0.961 . S
H1734 C1719 0.961 . S
H1735 C1719 0.961 . S
H1736 C1720 0.931 . S
H1737 C1725 0.930 . S
H1738 C1726 0.956 . S
H1739 C1726 0.961 . S
H1740 C1726 0.961 . S
H1741 C1727 0.958 . S
H1742 C1727 0.961 . S
H1743 C1727 0.960 . S
C1744 C1745 1.391 . S
C1744 C1746 1.394 . S
C1744 H1760 0.931 . S
C1745 C1744 1.391 . S
C1745 C1749 1.376 . S
C1746 C1744 1.394 . S
C1746 C1747 1.369 . S
C1746 C1750 1.531 . S
C1747 C1746 1.369 . S
C1747 C1748 1.410 . S
C1747 C1755 1.503 . S
C1748 C1747 1.410 . S
C1748 C1749 1.392 . S
C1748 C1751 1.511 . S
C1749 C1745 1.376 . S
C1749 C1748 1.392 . S
C1749 H1761 0.929 . S
C1750 C1746 1.531 . S
C1750 H1762 0.960 . S
C1750 H1763 0.962 . S
C1750 H1764 0.960 . S
C1751 C1748 1.511 . S
C1751 H1765 0.961 . S
C1751 H1766 0.961 . S
C1751 H1767 0.961 . S
C1752 C1753 1.370 . S
C1752 C1754 1.363 . S
C1752 H1768 0.931 . S
C1753 C1752 1.370 . S
C1753 C1757 1.408 . S
C1754 C1752 1.363 . S
C1754 C1755 1.370 . S
C1754 C1758 1.524 . S
C1755 C1747 1.503 . S
C1755 C1754 1.370 . S
C1755 C1756 1.403 . S
C1756 C1755 1.403 . S
C1756 C1757 1.404 . S
C1756 C1759 1.539 . S
C1757 C1753 1.408 . S
C1757 C1756 1.404 . S
C1757 H1769 0.930 . S
C1758 C1754 1.524 . S
C1758 H1770 0.956 . S
C1758 H1771 0.961 . S
C1758 H1772 0.961 . S
C1759 C1756 1.539 . S
C1759 H1773 0.958 . S
C1759 H1774 0.961 . S
C1759 H1775 0.960 . S
H1760 C1744 0.931 . S
H1761 C1749 0.929 . S
H1762 C1750 0.960 . S
H1763 C1750 0.962 . S
H1764 C1750 0.960 . S
H1765 C1751 0.961 . S
H1766 C1751 0.961 . S
H1767 C1751 0.961 . S
H1768 C1752 0.931 . S
H1769 C1757 0.930 . S
H1770 C1758 0.956 . S
H1771 C1758 0.961 . S
H1772 C1758 0.961 . S
H1773 C1759 0.958 . S
H1774 C1759 0.961 . S
H1775 C1759 0.960 . S
C1776 C1777 1.391 . S
C1776 C1778 1.394 . S
C1776 H1792 0.931 . S
C1777 C1776 1.391 . S
C1777 C1781 1.376 . S
C1778 C1776 1.394 . S
C1778 C1779 1.369 . S
C1778 C1782 1.531 . S
C1779 C1778 1.369 . S
C1779 C1780 1.410 . S
C1779 C1787 1.503 . S
C1780 C1779 1.410 . S
C1780 C1781 1.392 . S
C1780 C1783 1.511 . S
C1781 C1777 1.376 . S
C1781 C1780 1.392 . S
C1781 H1793 0.929 . S
C1782 C1778 1.531 . S
C1782 H1794 0.960 . S
C1782 H1795 0.962 . S
C1782 H1796 0.960 . S
C1783 C1780 1.511 . S
C1783 H1797 0.961 . S
C1783 H1798 0.961 . S
C1783 H1799 0.961 . S
C1784 C1785 1.370 . S
C1784 C1786 1.363 . S
C1784 H1800 0.931 . S
C1785 C1784 1.370 . S
C1785 C1789 1.408 . S
C1786 C1784 1.363 . S
C1786 C1787 1.370 . S
C1786 C1790 1.524 . S
C1787 C1779 1.503 . S
C1787 C1786 1.370 . S
C1787 C1788 1.403 . S
C1788 C1787 1.403 . S
C1788 C1789 1.404 . S
C1788 C1791 1.539 . S
C1789 C1785 1.408 . S
C1789 C1788 1.404 . S
C1789 H1801 0.930 . S
C1790 C1786 1.524 . S
C1790 H1802 0.956 . S
C1790 H1803 0.961 . S
C1790 H1804 0.961 . S
C1791 C1788 1.539 . S
C1791 H1805 0.958 . S
C1791 H1806 0.961 . S
C1791 H1807 0.960 . S
H1792 C1776 0.931 . S
H1793 C1781 0.929 . S
H1794 C1782 0.960 . S
H1795 C1782 0.962 . S
H1796 C1782 0.960 . S
H1797 C1783 0.961 . S
H1798 C1783 0.961 . S
H1799 C1783 0.961 . S
H1800 C1784 0.931 . S
H1801 C1789 0.930 . S
H1802 C1790 0.956 . S
H1803 C1790 0.961 . S
H1804 C1790 0.961 . S
H1805 C1791 0.958 . S
H1806 C1791 0.961 . S
H1807 C1791 0.960 . S
C1808 C1809 1.391 . S
C1808 C1810 1.394 . S
C1808 H1824 0.931 . S
C1809 C1808 1.391 . S
C1809 C1813 1.376 . S
C1810 C1808 1.394 . S
C1810 C1811 1.369 . S
C1810 C1814 1.531 1_565 S
C1811 C1810 1.369 . S
C1811 C1812 1.410 . S
C1811 C1819 1.503 1_565 S
C1812 C1811 1.410 . S
C1812 C1813 1.392 . S
C1812 C1815 1.511 . S
C1813 C1809 1.376 . S
C1813 C1812 1.392 . S
C1813 H1825 0.929 . S
C1814 C1810 1.531 1_545 S
C1814 H1826 0.960 . S
C1814 H1827 0.962 . S
C1814 H1828 0.960 . S
C1815 C1812 1.511 . S
C1815 H1829 0.961 . S
C1815 H1830 0.961 . S
C1815 H1831 0.961 . S
C1816 C1817 1.370 . S
C1816 C1818 1.363 . S
C1816 H1832 0.931 . S
C1817 C1816 1.370 . S
C1817 C1821 1.408 . S
C1818 C1816 1.363 . S
C1818 C1819 1.370 . S
C1818 C1822 1.524 1_545 S
C1819 C1811 1.503 1_545 S
C1819 C1818 1.370 . S
C1819 C1820 1.403 . S
C1820 C1819 1.403 . S
C1820 C1821 1.404 . S
C1820 C1823 1.539 . S
C1821 C1817 1.408 . S
C1821 C1820 1.404 . S
C1821 H1833 0.930 . S
C1822 C1818 1.524 1_565 S
C1822 H1834 0.956 . S
C1822 H1835 0.961 . S
C1822 H1836 0.961 . S
C1823 C1820 1.539 . S
C1823 H1837 0.958 . S
C1823 H1838 0.961 . S
C1823 H1839 0.960 . S
H1824 C1808 0.931 . S
H1825 C1813 0.929 . S
H1826 C1814 0.960 . S
H1827 C1814 0.962 . S
H1828 C1814 0.960 . S
H1829 C1815 0.961 . S
H1830 C1815 0.961 . S
H1831 C1815 0.961 . S
H1832 C1816 0.931 . S
H1833 C1821 0.930 . S
H1834 C1822 0.956 . S
H1835 C1822 0.961 . S
H1836 C1822 0.961 . S
H1837 C1823 0.958 . S
H1838 C1823 0.961 . S
H1839 C1823 0.960 . S
C1840 C1841 1.391 . S
C1840 C1842 1.393 1_554 S
C1840 H1856 0.932 . S
C1841 C1840 1.391 . S
C1841 C1845 1.373 1_554 S
C1842 C1840 1.393 1_556 S
C1842 C1843 1.369 . S
C1842 C1846 1.531 . S
C1843 C1842 1.369 . S
C1843 C1844 1.410 . S
C1843 C1851 1.503 . S
C1844 C1843 1.410 . S
C1844 C1845 1.392 . S
C1844 C1847 1.511 . S
C1845 C1841 1.373 1_556 S
C1845 C1844 1.392 . S
C1845 H1857 0.929 . S
C1846 C1842 1.531 . S
C1846 H1858 0.960 . S
C1846 H1859 0.962 1_556 S
C1846 H1860 0.960 . S
C1847 C1844 1.511 . S
C1847 H1861 0.965 . S
C1847 H1862 0.962 . S
C1847 H1863 0.961 . S
C1848 C1849 1.352 1_554 S
C1848 C1850 1.363 . S
C1848 H1864 0.931 . S
C1849 C1848 1.352 1_556 S
C1849 C1853 1.428 . S
C1850 C1848 1.363 . S
C1850 C1851 1.370 1_554 S
C1850 C1854 1.524 . S
C1851 C1843 1.503 . S
C1851 C1850 1.370 1_556 S
C1851 C1852 1.403 . S
C1852 C1851 1.403 . S
C1852 C1853 1.404 . S
C1852 C1855 1.539 . S
C1853 C1849 1.428 . S
C1853 C1852 1.404 . S
C1853 H1865 0.930 . S
C1854 C1850 1.524 . S
C1854 H1866 0.956 . S
C1854 H1867 0.961 . S
C1854 H1868 0.961 . S
C1855 C1852 1.539 . S
C1855 H1869 0.958 . S
C1855 H1870 0.961 . S
C1855 H1871 0.960 . S
H1856 C1840 0.932 . S
H1857 C1845 0.929 . S
H1858 C1846 0.960 . S
H1859 C1846 0.962 1_554 S
H1860 C1846 0.960 . S
H1861 C1847 0.965 . S
H1862 C1847 0.962 . S
H1863 C1847 0.961 . S
H1864 C1848 0.931 . S
H1865 C1853 0.930 . S
H1866 C1854 0.956 . S
H1867 C1854 0.961 . S
H1868 C1854 0.961 . S
H1869 C1855 0.958 . S
H1870 C1855 0.961 . S
H1871 C1855 0.960 . S
C337 C247 0.709 . S
C345 C8 0.754 . S
C369 C22 0.831 . S
C377 C233 0.750 . S
C401 C36 1.025 . S
C409 C275 0.972 . S
C433 C50 1.072 . S
C441 C261 0.957 . S
C465 C64 0.774 . S
C473 C303 0.777 . S
C497 C78 1.046 . S
C505 C317 1.034 . S
C529 C289 0.857 . S
C537 C92 0.797 . S
C561 C163 1.057 . S
C569 C106 1.045 . S
C593 C120 0.718 . S
C601 C51 0.761 . S
C625 C23 0.999 . S
C633 C134 1.062 . S
C657 C148 1.281 . S
C665 C9 1.267 . S
C689 C162 1.083 . S
C697 C205 0.987 . S
C721 C79 1.173 . S
C729 C176 1.298 . S
C753 C65 1.233 . S
C761 C190 1.299 . S
C785 C204 1.029 . S
C793 C107 1.017 . S
C817 C218 1.071 . S
C825 C93 1.040 . S
C849 C135 1.163 . S
C857 C232 1.301 . S
C881 C149 1.024 . S
C889 C246 1.018 . S
C913 C121 1.279 . S
C921 C260 1.289 . S
C945 C274 0.969 . S
C953 C331 0.987 . S
C977 C219 1.241 . S
C985 C288 1.285 . S
C1009 C302 1.060 . S
C1017 C191 0.978 . S
C1041 C177 0.868 . S
C1049 C316 0.792 . S
C1073 C330 1.029 . S
C1081 C37 0.976 . S
C1105 C6 1.624 1_455 S
C1113 C20 1.598 . S
C1137 C48 1.482 . S
C1145 C34 1.503 . S
C1169 C62 1.635 1_545 S
C1177 C90 1.606 . S
C1201 C76 2.004 . S
C1209 C104 1.965 . S
C1233 C314 1.618 . S
C1241 C118 1.625 . S
C1265 C132 2.008 . S
C1273 C160 1.972 . S
C1297 C286 1.915 . S
C1305 C146 1.924 . S
C1329 C188 1.936 . S
C1337 C174 1.899 . S
C1361 C202 1.986 . S
C1369 C216 1.999 . S
C1393 C258 1.932 . S
C1401 C230 1.893 . S
C1425 C244 1.497 . S
C1433 C272 1.500 . S
C1457 C328 1.492 . S
C1465 C300 1.484 . S
C1489 C35 1.163 1_655 S
C1497 C7 1.227 . S
C1521 C21 1.526 1_455 S
C1529 C49 1.487 1_455 S
C1553 C273 1.158 1_565 S
C1561 C63 1.220 . S
C1585 C77 1.471 . S
C1593 C259 1.427 . S
C1617 C91 1.514 1_545 S
C1625 C245 1.502 1_545 S
C1649 C231 1.710 . S
C1657 C105 1.736 . S
C1681 C119 1.172 . S
C1689 C329 1.204 1_556 S
C1713 C133 1.393 . S
C1721 C147 1.445 . S
C1745 C287 1.724 . S
C1753 C161 1.729 . S
C1777 C175 1.733 . S
C1785 C203 1.726 . S
C1809 C189 1.420 . S
C1817 C217 1.451 . S
C1841 C315 1.478 1_554 S
C1849 C301 1.501 . S
