# Generated by pormake.
# Topology umz, (4)-cn, num edge types: 1
# Building blocks:
#     Node 0, Type 0, BuildingBlock: TATPOV_clean_sbu_0, # of connection points: 4
#     Node 1, Type 0, BuildingBlock: TATPOV_clean_sbu_0, # of connection points: 4
#     Node 2, Type 0, BuildingBlock: TATPOV_clean_sbu_0, # of connection points: 4
#     Node 3, Type 0, BuildingBlock: TATPOV_clean_sbu_0, # of connection points: 4
#     Node 4, Type 0, BuildingBlock: TATPOV_clean_sbu_0, # of connection points: 4
#     Node 5, Type 0, BuildingBlock: TATPOV_clean_sbu_0, # of connection points: 4
#     Node 6, Type 0, BuildingBlock: TATPOV_clean_sbu_0, # of connection points: 4
#     Node 7, Type 0, BuildingBlock: TATPOV_clean_sbu_0, # of connection points: 4
#     Node 8, Type 0, BuildingBlock: TATPOV_clean_sbu_0, # of connection points: 4
#     Node 9, Type 0, BuildingBlock: TATPOV_clean_sbu_0, # of connection points: 4
#     Node 10, Type 0, BuildingBlock: TATPOV_clean_sbu_0, # of connection points: 4
#     Node 11, Type 0, BuildingBlock: TATPOV_clean_sbu_0, # of connection points: 4
#     Node 12, Type 0, BuildingBlock: TATPOV_clean_sbu_0, # of connection points: 4
#     Node 13, Type 0, BuildingBlock: TATPOV_clean_sbu_0, # of connection points: 4
#     Node 14, Type 0, BuildingBlock: TATPOV_clean_sbu_0, # of connection points: 4
#     Node 15, Type 0, BuildingBlock: TATPOV_clean_sbu_0, # of connection points: 4
#     Edge 16, Type (0, 0), BuildingBlock: XUDNAN_clean_linker_2, # of connection points: 2
#     Edge 17, Type (0, 0), BuildingBlock: XUDNAN_clean_linker_2, # of connection points: 2
#     Edge 18, Type (0, 0), BuildingBlock: XUDNAN_clean_linker_2, # of connection points: 2
#     Edge 19, Type (0, 0), BuildingBlock: XUDNAN_clean_linker_2, # of connection points: 2
#     Edge 20, Type (0, 0), BuildingBlock: XUDNAN_clean_linker_2, # of connection points: 2
#     Edge 21, Type (0, 0), BuildingBlock: XUDNAN_clean_linker_2, # of connection points: 2
#     Edge 22, Type (0, 0), BuildingBlock: XUDNAN_clean_linker_2, # of connection points: 2
#     Edge 23, Type (0, 0), BuildingBlock: XUDNAN_clean_linker_2, # of connection points: 2
#     Edge 24, Type (0, 0), BuildingBlock: XUDNAN_clean_linker_2, # of connection points: 2
#     Edge 25, Type (0, 0), BuildingBlock: XUDNAN_clean_linker_2, # of connection points: 2
#     Edge 26, Type (0, 0), BuildingBlock: XUDNAN_clean_linker_2, # of connection points: 2
#     Edge 27, Type (0, 0), BuildingBlock: XUDNAN_clean_linker_2, # of connection points: 2
#     Edge 28, Type (0, 0), BuildingBlock: XUDNAN_clean_linker_2, # of connection points: 2
#     Edge 29, Type (0, 0), BuildingBlock: XUDNAN_clean_linker_2, # of connection points: 2
#     Edge 30, Type (0, 0), BuildingBlock: XUDNAN_clean_linker_2, # of connection points: 2
#     Edge 31, Type (0, 0), BuildingBlock: XUDNAN_clean_linker_2, # of connection points: 2
#     Edge 32, Type (0, 0), BuildingBlock: XUDNAN_clean_linker_2, # of connection points: 2
#     Edge 33, Type (0, 0), BuildingBlock: XUDNAN_clean_linker_2, # of connection points: 2
#     Edge 34, Type (0, 0), BuildingBlock: XUDNAN_clean_linker_2, # of connection points: 2
#     Edge 35, Type (0, 0), BuildingBlock: XUDNAN_clean_linker_2, # of connection points: 2
#     Edge 36, Type (0, 0), BuildingBlock: XUDNAN_clean_linker_2, # of connection points: 2
#     Edge 37, Type (0, 0), BuildingBlock: XUDNAN_clean_linker_2, # of connection points: 2
#     Edge 38, Type (0, 0), BuildingBlock: XUDNAN_clean_linker_2, # of connection points: 2
#     Edge 39, Type (0, 0), BuildingBlock: XUDNAN_clean_linker_2, # of connection points: 2
#     Edge 40, Type (0, 0), BuildingBlock: XUDNAN_clean_linker_2, # of connection points: 2
#     Edge 41, Type (0, 0), BuildingBlock: XUDNAN_clean_linker_2, # of connection points: 2
#     Edge 42, Type (0, 0), BuildingBlock: XUDNAN_clean_linker_2, # of connection points: 2
#     Edge 43, Type (0, 0), BuildingBlock: XUDNAN_clean_linker_2, # of connection points: 2
#     Edge 44, Type (0, 0), BuildingBlock: XUDNAN_clean_linker_2, # of connection points: 2
#     Edge 45, Type (0, 0), BuildingBlock: XUDNAN_clean_linker_2, # of connection points: 2
#     Edge 46, Type (0, 0), BuildingBlock: XUDNAN_clean_linker_2, # of connection points: 2
#     Edge 47, Type (0, 0), BuildingBlock: XUDNAN_clean_linker_2, # of connection points: 2
# Relax obj value: 0.193
# Max RMSD: 0.156
# Mean RMSD: 0.156
data_MOF--net-umz--node1-TATPOV_clean_sbu_0--edge1-XUDNAN_clean_linker_2
_symmetry_space_group_name_H-M    P1
_symmetry_Int_Tables_number       1
_symmetry_cell_setting            triclinic
loop_
_symmetry_equiv_pos_as_xyz
'x, y, z'
_cell_length_a     60.170717
_cell_length_b     59.970375
_cell_length_c     21.712618
_cell_angle_alpha  89.928855
_cell_angle_beta   89.876962
_cell_angle_gamma 89.976163
loop_
_atom_site_label
_atom_site_type_symbol
_atom_site_fract_x
_atom_site_fract_y
_atom_site_fract_z
_atom_type_partial_charge
Zn0 Zn 0.00282 0.59181 0.97453 0.0
Zn1 Zn 0.01613 0.62468 0.03391 0.0
O2 O 0.98471 0.61578 0.06721 0.0
O3 O 0.97195 0.58999 0.00529 0.0
O4 O 0.02023 0.65676 0.05855 0.0
O5 O 0.00874 0.60184 0.88908 0.0
O6 O 0.02642 0.62709 0.94265 0.0
C7 C 0.96945 0.60208 0.05234 0.0
C8 C 0.03911 0.58356 0.06575 0.0
O9 O 0.03782 0.60429 0.07838 0.0
O10 O 0.02681 0.5753 0.02407 0.0
C11 C 0.00657 0.66773 0.0914 0.0
O12 O 0.99054 0.65712 0.12024 0.0
C13 C 0.02201 0.6181 0.89102 0.0
Zn14 Zn 0.91329 0.01013 0.56424 0.0
Zn15 Zn 0.86954 0.01429 0.55557 0.0
O16 O 0.87348 0.98346 0.59571 0.0
O17 O 0.90983 0.97949 0.59959 0.0
O18 O 0.83799 0.01627 0.5288 0.0
O19 O 0.91984 0.01455 0.47573 0.0
O20 O 0.8841 0.02223 0.47345 0.0
C21 C 0.89053 0.97201 0.61016 0.0
C22 C 0.89247 0.04649 0.63588 0.0
O23 O 0.87388 0.03879 0.61823 0.0
O24 O 0.91054 0.03763 0.61823 0.0
C25 C 0.82278 0.00196 0.53721 0.0
O26 O 0.8266 0.98437 0.5717 0.0
C27 C 0.9029 0.02119 0.447 0.0
Zn28 Zn 0.50738 0.9145 0.07428 0.0
Zn29 Zn 0.49866 0.87483 0.05225 0.0
O30 O 0.52881 0.87562 0.09951 0.0
O31 O 0.53845 0.91085 0.10336 0.0
O32 O 0.49787 0.84486 0.01231 0.0
O33 O 0.50019 0.92953 -0.00383 0.0
O34 O 0.48787 0.89551 0.98128 0.0
C35 C 0.54267 0.89066 0.11512 0.0
C36 C 0.46941 0.89396 0.14248 0.0
O37 O 0.47404 0.87573 0.11561 0.0
O38 O 0.48102 0.91129 0.13277 0.0
C39 C 0.49553 0.82687 0.04238 0.0
O40 O 0.49366 0.82767 0.10264 0.0
C41 C 0.48914 0.91584 0.96451 0.0
Zn42 Zn 0.59004 0.50132 0.50638 0.0
Zn43 Zn 0.62955 0.49271 0.54315 0.0
O44 O 0.6199 0.52416 0.57193 0.0
O45 O 0.58846 0.53379 0.52849 0.0
O46 O 0.66248 0.49491 0.54956 0.0
O47 O 0.59452 0.49128 0.41936 0.0
O48 O 0.62564 0.4783 0.45772 0.0
C49 C 0.60453 0.53845 0.56352 0.0
C50 C 0.59668 0.46712 0.60723 0.0
O51 O 0.61748 0.47064 0.6039 0.0
O52 O 0.58313 0.47779 0.57331 0.0
C53 C 0.67312 0.50228 0.59567 0.0
O54 O 0.66253 0.5069 0.64706 0.0
C55 C 0.6118 0.47947 0.41371 0.0
Zn56 Zn 0.98524 0.91174 0.0043 0.0
Zn57 Zn 0.99438 0.87213 0.96583 0.0
O58 O 0.96371 0.88119 0.93342 0.0
O59 O 0.95317 0.91241 0.97713 0.0
O60 O 0.9926 0.83883 0.96766 0.0
O61 O 0.9947 0.90854 0.09197 0.0
O62 O 0.00738 0.87757 0.05158 0.0
C63 C 0.94924 0.89641 0.94093 0.0
C64 C 0.02104 0.90566 0.90706 0.0
O65 O 0.01687 0.8848 0.90632 0.0
O66 O 0.0103 0.91869 0.94245 0.0
C67 C 0.00741 0.82414 0.95837 0.0
O68 O 0.0269 0.83002 0.93638 0.0
C69 C 0.00641 0.89112 0.09635 0.0
Zn70 Zn 0.58292 6e-05 0.47315 0.0
Zn71 Zn 0.62518 0.00537 0.44585 0.0
O72 O 0.61816 0.9723 0.43236 0.0
O73 O 0.58326 0.96684 0.45786 0.0
O74 O 0.65819 0.00501 0.43949 0.0
O75 O 0.58674 0.01243 0.55787 0.0
O76 O 0.62011 0.02246 0.52707 0.0
C77 C 0.60153 0.95934 0.43778 0.0
C78 C 0.59317 0.02833 0.36478 0.0
O79 O 0.6133 0.02284 0.37379 0.0
O80 O 0.57791 0.02163 0.4008 0.0
C81 C 0.66981 0.00979 0.39247 0.0
O82 O 0.66009 0.01652 0.34163 0.0
C83 C 0.60461 0.02298 0.56694 0.0
Zn84 Zn 0.50539 0.5845 0.96015 0.0
Zn85 Zn 0.49563 0.62594 0.94827 0.0
O86 O 0.52687 0.62159 0.91085 0.0
O87 O 0.53681 0.58701 0.92899 0.0
O88 O 0.49239 0.65899 0.95206 0.0
O89 O 0.49698 0.58196 0.04853 0.0
O90 O 0.48439 0.61591 0.03394 0.0
C91 C 0.54093 0.60583 0.90515 0.0
C92 C 0.46999 0.59503 0.87138 0.0
O93 O 0.47388 0.61531 0.88453 0.0
O94 O 0.48067 0.57946 0.89762 0.0
C95 C 0.49407 0.67133 0.90474 0.0
O96 O 0.49758 0.66215 0.85067 0.0
C97 C 0.48594 0.59855 0.06737 0.0
Zn98 Zn 0.90311 0.46606 0.41601 0.0
Zn99 Zn 0.86729 0.48354 0.4372 0.0
O100 O 0.88453 0.51076 0.40203 0.0
O101 O 0.91475 0.493 0.3736 0.0
O102 O 0.83968 0.49635 0.47361 0.0
O103 O 0.91335 0.45697 0.49725 0.0
O104 O 0.87842 0.46606 0.51399 0.0
C105 C 0.90327 0.51067 0.37452 0.0
C106 C 0.86866 0.44626 0.34623 0.0
O107 O 0.85778 0.46316 0.36523 0.0
O108 O 0.88792 0.44262 0.36713 0.0
C109 C 0.82424 0.50695 0.44689 0.0
O110 O 0.82543 0.5106 0.3873 0.0
C111 C 0.89653 0.45721 0.53189 0.0
Zn112 Zn -0.00027 0.4283 0.98202 0.0
Zn113 Zn 0.99513 0.38562 0.98428 0.0
O114 O 0.02764 0.39243 0.95925 0.0
O115 O 0.03267 0.42852 0.96737 0.0
O116 O 0.99446 0.35237 -0.00392 0.0
O117 O 0.98497 0.43425 0.06221 0.0
O118 O 0.97698 0.39854 0.05665 0.0
C119 C 0.04021 0.40945 0.95393 0.0
C120 C 0.96997 0.40965 0.88886 0.0
O121 O 0.97552 0.39092 0.91133 0.0
O122 O 0.97821 0.42755 0.90982 0.0
C123 C 0.99368 0.33991 0.9488 0.0
O124 O 0.9939 0.34905 0.89379 0.0
C125 C 0.97374 0.41768 0.08049 0.0
Zn126 Zn 0.0783 0.98385 0.42688 0.0
Zn127 Zn 0.12095 0.98236 0.44609 0.0
O128 O 0.11491 0.00883 0.38803 0.0
O129 O 0.07882 0.01438 0.38735 0.0
O130 O 0.15187 0.98868 0.47233 0.0
O131 O 0.06969 0.97839 0.51425 0.0
O132 O 0.10577 0.978 0.53054 0.0
C133 C 0.09815 0.02012 0.37076 0.0
C134 C 0.10352 0.94612 0.37149 0.0
O135 O 0.12094 0.95341 0.3976 0.0
O136 O 0.08519 0.95646 0.37586 0.0
C137 C 0.16896 0.98839 0.43812 0.0
O138 O 0.16725 0.98214 0.38035 0.0
C139 C 0.08595 0.9762 0.55044 0.0
Zn140 Zn 0.48223 0.08482 0.92978 0.0
Zn141 Zn 0.49364 0.12421 0.94116 0.0
O142 O 0.46375 0.12341 0.89213 0.0
O143 O 0.45148 0.08905 0.89855 0.0
O144 O 0.49497 0.15497 0.97637 0.0
O145 O 0.48815 0.07183 0.01169 0.0
O146 O 0.50347 0.10496 0.01627 0.0
C147 C 0.44879 0.10892 0.881 0.0
C148 C 0.52217 0.10077 0.85855 0.0
O149 O 0.51863 0.12017 0.88 0.0
O150 O 0.50917 0.08478 0.87199 0.0
C151 C 0.4981 0.17285 0.94632 0.0
O152 O 0.50112 0.17193 0.88643 0.0
C153 C 0.50062 0.08555 0.03889 0.0
Zn154 Zn 0.40941 0.4909 0.41695 0.0
Zn155 Zn 0.37173 0.50061 0.45157 0.0
O156 O 0.3704 0.46951 0.4091 0.0
O157 O 0.40464 0.45782 0.41951 0.0
O158 O 0.34116 0.50541 0.48492 0.0
O159 O 0.42312 0.50826 0.48541 0.0
O160 O 0.39026 0.50616 0.52898 0.0
C161 C 0.38475 0.45394 0.40429 0.0
C162 C 0.39036 0.52495 0.34468 0.0
O163 O 0.37743 0.52618 0.39095 0.0
O164 O 0.4034 0.50848 0.33917 0.0
C165 C 0.32351 0.50104 0.4555 0.0
O166 O 0.32492 0.49339 0.39895 0.0
C167 C 0.41059 0.51185 0.531 0.0
Zn168 Zn 0.00279 0.07986 0.0362 0.0
Zn169 Zn 0.99573 0.13245 0.0607 0.0
O170 O 0.02785 0.12079 0.07617 0.0
O171 O 0.0346 0.08886 0.02814 0.0
O172 O 0.99626 0.16465 0.03433 0.0
O173 O 0.98207 0.08259 0.96588 0.0
O174 O 0.97643 0.11797 0.99297 0.0
C175 C 0.04129 0.10532 0.05969 0.0
C176 C 0.97567 0.10726 0.13989 0.0
O177 O 0.97756 0.1283 0.14006 0.0
O178 O 0.98622 0.09663 0.09957 0.0
C179 C 0.99664 0.18191 0.06809 0.0
O180 O -0.00199 0.1797 0.12816 0.0
C181 C 0.97172 0.10092 0.96046 0.0
Zn182 Zn 0.40957 0.99858 0.5277 0.0
Zn183 Zn 0.36746 0.9932 0.54958 0.0
O184 O 0.37365 0.02669 0.56036 0.0
O185 O 0.40914 0.03186 0.5426 0.0
O186 O 0.33447 0.99228 0.54546 0.0
O187 O 0.40871 0.98502 0.44322 0.0
O188 O 0.37579 0.97404 0.47485 0.0
C189 C 0.39043 0.0396 0.55854 0.0
C190 C 0.39698 0.97154 0.63739 0.0
O191 O 0.37704 0.97733 0.62661 0.0
O192 O 0.41268 0.9775 0.60181 0.0
C193 C 0.32217 0.00426 0.57948 0.0
O194 O 0.33121 0.01647 0.62291 0.0
C195 C 0.39165 0.97302 0.43628 0.0
Zn196 Zn 0.48989 0.4163 0.04997 0.0
Zn197 Zn 0.49852 0.37405 0.04972 0.0
O198 O 0.46658 0.37732 0.08549 0.0
O199 O 0.45828 0.41288 0.07673 0.0
O200 O 0.50146 0.34098 0.04156 0.0
O201 O 0.49762 0.42068 0.96236 0.0
O202 O 0.50728 0.38533 0.96257 0.0
C203 C 0.45276 0.39328 0.09158 0.0
C204 C 0.52736 0.40285 0.12756 0.0
O205 O 0.52274 0.38312 0.11039 0.0
O206 O 0.51555 0.41915 0.10981 0.0
C207 C 0.49734 0.32829 0.08702 0.0
O208 O 0.49186 0.33717 0.14022 0.0
C209 C 0.50633 0.40418 0.93544 0.0
Zn210 Zn 0.07918 0.49841 0.53291 0.0
Zn211 Zn 0.12221 0.50704 0.53776 0.0
O212 O 0.1177 0.47927 0.59278 0.0
O213 O 0.08229 0.47066 0.58489 0.0
O214 O 0.15524 0.50898 0.53302 0.0
O215 O 0.0786 0.49655 0.44063 0.0
O216 O 0.11308 0.50859 0.44618 0.0
C217 C 0.10139 0.46668 0.60642 0.0
C218 C 0.09245 0.5415 0.5899 0.0
O219 O 0.11234 0.53504 0.58144 0.0
O220 O 0.07629 0.52928 0.57322 0.0
C221 C 0.1672 0.51169 0.58051 0.0
O222 O 0.15763 0.51406 0.63456 0.0
C223 C 0.09601 0.50362 0.41448 0.0
H224 H 0.02982 0.69415 0.01061 0.0
H225 H 0.98108 0.69679 0.15828 0.0
H226 H 0.97598 0.73707 0.13927 0.0
H227 H 0.05478 0.74862 0.03598 0.0
H228 H 0.05795 0.75419 0.95482 0.0
H229 H 0.05867 0.7259 0.9827 0.0
H230 H 0.02694 0.71557 0.90741 0.0
H231 H 0.02588 0.74391 0.88 0.0
H232 H 0.00117 0.73088 0.91024 0.0
H233 H 0.97404 0.77604 0.09929 0.0
H234 H 0.97815 0.81249 0.0485 0.0
H235 H 0.02884 0.785 0.92777 0.0
C236 C 0.01842 0.70326 0.03992 0.0
C237 C 0.00592 0.69232 0.08625 0.0
C238 C 0.99089 0.70481 0.12273 0.0
C239 C 0.98781 0.72767 0.11211 0.0
C240 C -0.00011 0.73775 0.06483 0.0
C241 C 0.01507 0.72604 0.02975 0.0
C242 C 0.02541 0.74072 0.98053 0.0
C243 C 0.0507 0.74246 0.98906 0.0
C244 C 0.01949 0.73226 0.91572 0.0
C245 C 0.01394 0.76265 0.99413 0.0
C246 C -0.00097 0.76042 0.0423 0.0
C247 C 0.9858 0.77805 0.06191 0.0
C248 C 0.98818 0.79866 0.03238 0.0
C249 C 0.00389 0.8016 0.98424 0.0
C250 C 0.01683 0.78327 0.96469 0.0
H251 H 0.69387 0.98548 0.47459 0.0
H252 H 0.7006 0.03148 0.32123 0.0
H253 H 0.74127 0.03254 0.33767 0.0
H254 H 0.73201 0.00975 0.5716 0.0
H255 H 0.74328 0.98414 0.60192 0.0
H256 H 0.71518 0.98489 0.57396 0.0
H257 H 0.72375 0.95253 0.49855 0.0
H258 H 0.75187 0.95145 0.52691 0.0
H259 H 0.74678 0.955 0.44571 0.0
H260 H 0.77996 0.03241 0.37955 0.0
H261 H 0.81495 0.02834 0.43722 0.0
H262 H 0.78313 0.9811 0.56078 0.0
C263 C 0.70394 0.99552 0.44384 0.0
C264 C 0.69418 0.00856 0.39693 0.0
C265 C 0.70783 0.02136 0.35735 0.0
C266 C 0.73089 0.02207 0.36639 0.0
C267 C 0.73991 0.00952 0.41434 0.0
C268 C 0.72692 0.99614 0.45164 0.0
C269 C 0.74056 0.98491 0.50129 0.0
C270 C 0.73226 0.99132 0.56599 0.0
C271 C 0.74075 0.95946 0.49256 0.0
C272 C 0.76312 0.99486 0.48786 0.0
C273 C 0.7624 0.00891 0.43734 0.0
C274 C 0.78083 0.02115 0.41847 0.0
C275 C 0.80056 0.01885 0.45187 0.0
C276 C 0.80172 0.00434 0.50339 0.0
C277 C 0.78277 0.99211 0.52123 0.0
H278 H 0.49035 0.78516 0.092 0.0
H279 H 0.49945 0.81993 0.91818 0.0
H280 H 0.4988 0.78397 0.86316 0.0
H281 H 0.52492 0.73867 0.05681 0.0
H282 H 0.50744 0.71873 0.09584 0.0
H283 H 0.50798 0.7473 0.12111 0.0
H284 H 0.46521 0.74974 0.10802 0.0
H285 H 0.46456 0.72117 0.08254 0.0
H286 H 0.45296 0.74283 0.03478 0.0
H287 H 0.49808 0.74402 0.82735 0.0
H288 H 0.49773 0.70307 0.81403 0.0
H289 H 0.48885 0.69492 0.01135 0.0
C290 C 0.49213 0.78525 0.04236 0.0
C291 C 0.49494 0.80535 0.00944 0.0
C292 C 0.49726 0.80472 0.94444 0.0
C293 C 0.49688 0.78439 0.91271 0.0
C294 C 0.4941 0.76487 0.94662 0.0
C295 C 0.49176 0.76514 0.00997 0.0
C296 C 0.48941 0.74183 0.03569 0.0
C297 C 0.50858 0.73632 0.07996 0.0
C298 C 0.46668 0.73872 0.0671 0.0
C299 C 0.49101 0.7284 0.97698 0.0
C300 C 0.49363 0.74195 0.92603 0.0
C301 C 0.49594 0.73322 0.86688 0.0
C302 C 0.49572 0.70997 0.85977 0.0
C303 C 0.49325 0.69581 0.91159 0.0
C304 C 0.4907 0.70527 0.97073 0.0
H305 H 0.69462 0.51265 0.48958 0.0
H306 H 0.70511 0.50347 0.68552 0.0
H307 H 0.74552 0.50948 0.67035 0.0
H308 H 0.73955 0.48408 0.43702 0.0
H309 H 0.7462 0.50264 0.37425 0.0
H310 H 0.71814 0.50094 0.40223 0.0
H311 H 0.7179 0.54362 0.42135 0.0
H312 H 0.74608 0.54545 0.39335 0.0
H313 H 0.73915 0.55595 0.46872 0.0
H314 H 0.78473 0.51084 0.6311 0.0
H315 H 0.8196 0.50779 0.57197 0.0
H316 H 0.78312 0.51765 0.40191 0.0
C317 C 0.70539 0.5122 0.52947 0.0
C318 C 0.69691 0.50738 0.58865 0.0
C319 C 0.71139 0.50714 0.63984 0.0
C320 C 0.73428 0.51064 0.63164 0.0
C321 C 0.74217 0.51493 0.57227 0.0
C322 C 0.72808 0.51606 0.52222 0.0
C323 C 0.74075 0.51945 0.46269 0.0
C324 C 0.73587 0.50065 0.41638 0.0
C325 C 0.73567 0.54249 0.4349 0.0
C326 C 0.76432 0.51838 0.48634 0.0
C327 C 0.76479 0.51628 0.54982 0.0
C328 C 0.78458 0.51295 0.58159 0.0
C329 C 0.80429 0.51114 0.54751 0.0
C330 C 0.80403 0.51253 0.48231 0.0
C331 C 0.78387 0.51688 0.45169 0.0
H332 H 0.00146 0.31488 0.0523 0.0
H333 H 0.98257 0.3097 0.85997 0.0
H334 H 0.98027 0.26877 0.87036 0.0
H335 H 0.03614 0.26651 0.0539 0.0
H336 H 0.02849 0.25837 0.13101 0.0
H337 H 0.02776 0.28733 0.10908 0.0
H338 H 0.98645 0.2897 0.14246 0.0
H339 H 0.98698 0.26074 0.1645 0.0
H340 H 0.96659 0.27053 0.11009 0.0
H341 H 0.98101 0.22844 0.90096 0.0
H342 H 0.98484 0.19142 0.94932 0.0
H343 H 0.00341 0.22284 0.1218 0.0
C344 C 0.9967 0.30515 0.01248 0.0
C345 C 0.99217 0.31545 0.95535 0.0
C346 C 0.98621 0.30214 0.90414 0.0
C347 C 0.98478 0.27889 0.90962 0.0
C348 C 0.98949 0.26925 0.96652 0.0
C349 C 0.99537 0.28193 0.017 0.0
C350 C 0.00029 0.26739 0.07237 0.0
C351 C 0.02461 0.27006 0.09277 0.0
C352 C 0.98411 0.27239 0.12549 0.0
C353 C 0.9962 0.24453 0.04523 0.0
C354 C 0.99 0.24598 0.98411 0.0
C355 C 0.98582 0.22709 0.94882 0.0
C356 C 0.98812 0.20613 0.97671 0.0
C357 C 0.99447 0.20422 0.03939 0.0
C358 C -0.00155 0.22374 0.07395 0.0
H359 H 0.29996 0.98621 0.48186 0.0
H360 H 0.29023 0.02563 0.64747 0.0
H361 H 0.25008 0.02805 0.62471 0.0
H362 H 0.25938 0.01585 0.38747 0.0
H363 H 0.25049 0.99089 0.3485 0.0
H364 H 0.27861 0.99316 0.37615 0.0
H365 H 0.27366 0.95666 0.43876 0.0
H366 H 0.2456 0.95424 0.41113 0.0
H367 H 0.25097 0.95439 0.49278 0.0
H368 H 0.21108 0.02406 0.58797 0.0
H369 H 0.17545 0.01411 0.53956 0.0
H370 H 0.21077 0.97828 0.39586 0.0
C371 C 0.28942 0.9954 0.51338 0.0
C372 C 0.29816 0.00563 0.5667 0.0
C373 C 0.28385 0.01761 0.60649 0.0
C374 C 0.26107 0.01915 0.59382 0.0
C375 C 0.25302 0.00883 0.54091 0.0
C376 C 0.26676 0.99727 0.50117 0.0
C377 C 0.25384 0.98715 0.44838 0.0
C378 C 0.26101 0.99738 0.38646 0.0
C379 C 0.25615 0.9616 0.44778 0.0
C380 C 0.23055 0.99427 0.46567 0.0
C381 C 0.2305 0.00689 0.51895 0.0
C382 C 0.2109 0.01438 0.54595 0.0
C383 C 0.19077 0.00854 0.51825 0.0
C384 C 0.19042 0.9954 0.46405 0.0
C385 C 0.21059 0.98852 0.43691 0.0
H386 H 0.50549 0.21463 0.89824 0.0
H387 H 0.48999 0.17991 0.06871 0.0
H388 H 0.48889 0.2158 0.12371 0.0
H389 H 0.54103 0.25653 0.96598 0.0
H390 H 0.53147 0.27842 0.91563 0.0
H391 H 0.53136 0.24991 0.88962 0.0
H392 H 0.48933 0.25298 0.86493 0.0
H393 H 0.48932 0.28149 0.89082 0.0
H394 H 0.47029 0.2617 0.92445 0.0
H395 H 0.48869 0.25547 0.15998 0.0
H396 H 0.48952 0.2963 0.17467 0.0
H397 H 0.50548 0.30499 0.98092 0.0
C398 C 0.50193 0.21455 0.94715 0.0
C399 C 0.49784 0.19444 0.9791 0.0
C400 C 0.49322 0.19509 0.04316 0.0
C401 C 0.49256 0.21539 0.07491 0.0
C402 C 0.49663 0.2349 0.04203 0.0
C403 C 0.50126 0.23467 0.97964 0.0
C404 C 0.50482 0.25803 0.95513 0.0
C405 C 0.52859 0.26088 0.93013 0.0
C406 C 0.4874 0.26389 0.90594 0.0
C407 C 0.50131 0.2714 0.01339 0.0
C408 C 0.49663 0.25776 0.06303 0.0
C409 C 0.49243 0.26634 0.12152 0.0
C410 C 0.49294 0.28954 0.1294 0.0
C411 C 0.49763 0.30383 0.07903 0.0
C412 C 0.50195 0.29453 0.02045 0.0
H413 H 0.28224 0.4943 0.4057 0.0
H414 H 0.31551 0.51449 0.57396 0.0
H415 H 0.27914 0.51909 0.62507 0.0
H416 H 0.23669 0.53242 0.41714 0.0
H417 H 0.21663 0.51298 0.38703 0.0
H418 H 0.24534 0.51096 0.36415 0.0
H419 H 0.2463 0.46978 0.40076 0.0
H420 H 0.2176 0.4717 0.42381 0.0
H421 H 0.23834 0.46313 0.47874 0.0
H422 H 0.23901 0.5213 0.65803 0.0
H423 H 0.19808 0.52182 0.66906 0.0
H424 H 0.19154 0.50074 0.47868 0.0
C425 C 0.28191 0.49969 0.45327 0.0
C426 C 0.30171 0.50404 0.48576 0.0
C427 C 0.30054 0.51108 0.54803 0.0
C428 C 0.27997 0.51371 0.57756 0.0
C429 C 0.26076 0.50927 0.54417 0.0
C430 C 0.26155 0.50245 0.48339 0.0
C431 C 0.23851 0.49893 0.45765 0.0
C432 C 0.23404 0.51477 0.40329 0.0
C433 C 0.23499 0.47443 0.43917 0.0
C434 C 0.22463 0.50504 0.51325 0.0
C435 C 0.23773 0.5108 0.56287 0.0
C436 C 0.22856 0.51687 0.61944 0.0
C437 C 0.20532 0.51711 0.62527 0.0
C438 C 0.19164 0.51146 0.57467 0.0
C439 C 0.20153 0.50533 0.51812 0.0
H440 H 0.01041 0.61361 0.77151 0.0
H441 H 0.06567 0.63001 0.89009 0.0
H442 H 0.09183 0.62081 0.80671 0.0
H443 H 0.02711 0.56841 0.72183 0.0
H444 H 0.01905 0.56944 0.64192 0.0
H445 H 0.00475 0.58633 0.69692 0.0
H446 H 0.01392 0.62205 0.635 0.0
H447 H 0.02787 0.60515 0.57809 0.0
H448 H 0.04229 0.62803 0.61392 0.0
H449 H 0.1109 0.59741 0.72956 0.0
H450 H 0.12088 0.56589 0.66197 0.0
H451 H 0.05353 0.56442 0.59181 0.0
C452 C 0.02798 0.61664 0.77815 0.0
C453 C 0.03608 0.62242 0.83677 0.0
C454 C 0.05912 0.62588 0.84508 0.0
C455 C 0.07414 0.62061 0.79785 0.0
C456 C 0.06575 0.61259 0.74224 0.0
C457 C 0.04308 0.61148 0.73127 0.0
C458 C 0.03815 0.59858 0.67299 0.0
C459 C 0.02132 0.57957 0.68422 0.0
C460 C 0.03009 0.61439 0.62197 0.0
C461 C 0.06109 0.58979 0.65835 0.0
C462 C 0.07699 0.59888 0.69681 0.0
C463 C 0.09877 0.59084 0.69764 0.0
C464 C 0.10427 0.5728 0.65941 0.0
C465 C 0.0879 0.56272 0.62193 0.0
C466 C 0.06636 0.57191 0.61988 0.0
H467 H 0.95607 0.11699 0.25232 0.0
H468 H 0.95644 0.06949 0.10129 0.0
H469 H 0.93174 0.04488 0.15853 0.0
H470 H 0.96018 0.07925 0.36687 0.0
H471 H 0.94161 0.09234 0.42118 0.0
H472 H 0.95547 0.10894 0.36393 0.0
H473 H 0.91751 0.12382 0.32559 0.0
H474 H 0.90341 0.10721 0.3829 0.0
H475 H 0.89619 0.10443 0.30274 0.0
H476 H 0.91427 0.02199 0.23623 0.0
H477 H 0.90301 0.00289 0.33257 0.0
H478 H 0.91151 0.06457 0.43321 0.0
C479 C 0.95025 0.10179 0.23089 0.0
C480 C 0.9583 0.09506 0.17299 0.0
C481 C 0.95071 0.07487 0.14625 0.0
C482 C 0.93642 0.0608 0.17796 0.0
C483 C 0.92943 0.06729 0.23598 0.0
C484 C 0.93576 0.08738 0.26218 0.0
C485 C 0.92787 0.08885 0.32817 0.0
C486 C 0.94745 0.09254 0.37261 0.0
C487 C 0.91019 0.10716 0.33525 0.0
C488 C 0.91775 0.06587 0.33572 0.0
C489 C 0.91839 0.05391 0.28146 0.0
C490 C 0.9128 0.03133 0.27864 0.0
C491 C 0.90655 0.02059 0.33317 0.0
C492 C 0.90603 0.0326 0.38879 0.0
C493 C 0.91122 0.05547 0.39012 0.0
H494 H 0.47974 0.90294 0.84553 0.0
H495 H 0.45994 0.94809 0.99152 0.0
H496 H 0.42882 0.96165 0.92819 0.0
H497 H 0.47195 0.94128 0.72635 0.0
H498 H 0.46181 0.92137 0.67095 0.0
H499 H 0.47998 0.91236 0.73167 0.0
H500 H 0.45067 0.88297 0.7649 0.0
H501 H 0.43222 0.89231 0.70479 0.0
H502 H 0.42285 0.89186 0.78367 0.0
H503 H 0.40114 0.97161 0.8494 0.0
H504 H 0.38391 0.98366 0.75166 0.0
H505 H 0.42386 0.93548 0.6522 0.0
C506 C 0.46872 0.91559 0.86383 0.0
C507 C 0.47216 0.92464 0.92285 0.0
C508 C 0.45764 0.94125 0.94579 0.0
C509 C 0.43971 0.94876 0.91071 0.0
C510 C 0.43667 0.93961 0.85255 0.0
C511 C 0.45102 0.92378 0.82853 0.0
C512 C 0.44581 0.91915 0.76158 0.0
C513 C 0.46609 0.92384 0.72022 0.0
C514 C 0.43739 0.89514 0.75327 0.0
C515 C 0.42728 0.93584 0.75103 0.0
C516 C 0.4215 0.94658 0.80501 0.0
C517 C 0.40535 0.96324 0.80682 0.0
C518 C 0.3956 0.96991 0.75133 0.0
C519 C 0.40266 0.96039 0.69516 0.0
C520 C 0.41816 0.94276 0.69506 0.0
H521 H 0.55179 0.44047 0.12503 0.0
H522 H 0.54776 0.37576 0.21314 0.0
H523 H 0.57885 0.38628 0.28206 0.0
H524 H 0.61517 0.44759 0.1477 0.0
H525 H 0.61142 0.47711 0.15922 0.0
H526 H 0.59366 0.46223 0.10652 0.0
H527 H 0.55887 0.47649 0.16533 0.0
H528 H 0.57643 0.49145 0.21721 0.0
H529 H 0.55669 0.47153 0.24711 0.0
H530 H 0.60447 0.40655 0.35345 0.0
H531 H 0.61813 0.43504 0.42596 0.0
H532 H 0.60437 0.48672 0.29234 0.0
C533 C 0.55783 0.42832 0.15791 0.0
C534 C 0.54735 0.40745 0.16446 0.0
C535 C 0.55568 0.39186 0.20751 0.0
C536 C 0.57345 0.39764 0.24632 0.0
C537 C 0.58301 0.41877 0.23999 0.0
C538 C 0.57557 0.43376 0.19616 0.0
C539 C 0.58611 0.45644 0.20393 0.0
C540 C 0.60257 0.46112 0.15121 0.0
C541 C 0.56847 0.47503 0.20879 0.0
C542 C 0.59832 0.45283 0.26379 0.0
C543 C 0.59755 0.43066 0.2819 0.0
C544 C 0.60569 0.42378 0.33893 0.0
C545 C 0.61353 0.44007 0.37976 0.0
C546 C 0.6124 0.46294 0.36396 0.0
C547 C 0.60577 0.46925 0.30443 0.0
H548 H 0.10778 0.94697 0.25022 0.0
H549 H 0.09621 0.90316 0.40456 0.0
H550 H 0.07526 0.87751 0.33774 0.0
H551 H 0.05849 0.94987 0.21168 0.0
H552 H 0.06033 0.95094 0.12885 0.0
H553 H 0.08349 0.95962 0.17433 0.0
H554 H 0.10955 0.93122 0.12144 0.0
H555 H 0.08677 0.92312 0.07249 0.0
H556 H 0.10149 0.90233 0.11644 0.0
H557 H 0.0456 0.8643 0.26675 0.0
H558 H 0.01331 0.86312 0.1953 0.0
H559 H 0.04111 0.91834 0.09259 0.0
C560 C 0.10243 0.93098 0.26814 0.0
C561 C 0.10389 0.92661 0.33152 0.0
C562 C 0.09575 0.9063 0.35543 0.0
C563 C 0.08361 0.89178 0.31776 0.0
C564 C 0.07985 0.89798 0.25668 0.0
C565 C 0.08957 0.91692 0.23146 0.0
C566 C 0.07886 0.92322 0.1709 0.0
C567 C 0.06975 0.9473 0.17163 0.0
C568 C 0.09514 0.91975 0.11713 0.0
C569 C 0.06031 0.90633 0.1691 0.0
C570 C 0.06157 0.89132 0.21732 0.0
C571 C 0.04479 0.87561 0.22796 0.0
C572 C 0.02641 0.87522 0.18804 0.0
C573 C 0.02482 0.89098 0.14 0.0
C574 C 0.04206 0.90636 0.12991 0.0
H575 H 0.5439 0.0617 0.85651 0.0
H576 H 0.54522 0.12816 0.7783 0.0
H577 H 0.57586 0.11659 0.70843 0.0
H578 H 0.60579 0.04918 0.83596 0.0
H579 H 0.59947 0.02051 0.81843 0.0
H580 H 0.5824 0.03573 0.8723 0.0
H581 H 0.54736 0.02635 0.80784 0.0
H582 H 0.56421 0.01108 0.75459 0.0
H583 H 0.54687 0.03351 0.72714 0.0
H584 H 0.60051 0.09555 0.63449 0.0
H585 H 0.61334 0.06729 0.55957 0.0
H586 H 0.5947 0.01471 0.68585 0.0
C587 C 0.55102 0.074 0.82566 0.0
C588 C 0.5422 0.09571 0.8221 0.0
C589 C 0.55189 0.11143 0.78164 0.0
C590 C 0.56937 0.10501 0.74225 0.0
C591 C 0.57718 0.08306 0.74538 0.0
C592 C 0.56836 0.06789 0.78676 0.0
C593 C 0.57692 0.04457 0.77567 0.0
C594 C 0.59205 0.03706 0.82875 0.0
C595 C 0.5577 0.02794 0.76564 0.0
C596 C 0.59021 0.04842 0.71764 0.0
C597 C 0.59114 0.07086 0.70239 0.0
C598 C 0.60042 0.07807 0.64688 0.0
C599 C 0.60778 0.06192 0.60472 0.0
C600 C 0.60518 0.03897 0.61789 0.0
C601 C 0.59728 0.03222 0.67589 0.0
H602 H 0.39494 0.52449 0.22151 0.0
H603 H 0.39722 0.56786 0.38023 0.0
H604 H 0.41832 0.59577 0.31987 0.0
H605 H 0.44571 0.52879 0.17986 0.0
H606 H 0.44265 0.52943 0.09729 0.0
H607 H 0.42161 0.5166 0.14383 0.0
H608 H 0.39134 0.54243 0.09811 0.0
H609 H 0.41215 0.5549 0.04908 0.0
H610 H 0.39537 0.57221 0.09857 0.0
H611 H 0.44684 0.61436 0.24942 0.0
H612 H 0.47673 0.62278 0.17309 0.0
H613 H 0.45619 0.56585 0.06486 0.0
C614 C 0.39872 0.54049 0.2421 0.0
C615 C 0.39429 0.5443 0.30474 0.0
C616 C 0.40002 0.56499 0.33157 0.0
C617 C 0.41216 0.58085 0.29772 0.0
C618 C 0.41787 0.57585 0.23695 0.0
C619 C 0.41065 0.55641 0.20882 0.0
C620 C 0.42134 0.55325 0.1465 0.0
C621 C 0.43355 0.5307 0.14172 0.0
C622 C 0.40402 0.55586 0.09502 0.0
C623 C 0.43734 0.57257 0.14665 0.0
C624 C 0.43469 0.586 0.19781 0.0
C625 C 0.44875 0.60416 0.20866 0.0
C626 C 0.46578 0.6087 0.16576 0.0
C627 C 0.46891 0.59456 0.11449 0.0
C628 C 0.45434 0.57658 0.10469 0.0
H629 H 0.94451 0.44532 0.85797 0.0
H630 H 0.9576 0.3763 0.81053 0.0
H631 H 0.93116 0.37915 0.72419 0.0
H632 H 0.88345 0.44499 0.80563 0.0
H633 H 0.88591 0.47328 0.77836 0.0
H634 H 0.90141 0.46432 0.84499 0.0
H635 H 0.93804 0.47723 0.79286 0.0
H636 H 0.92271 0.48628 0.72674 0.0
H637 H 0.94513 0.46658 0.71768 0.0
H638 H 0.91113 0.39151 0.6326 0.0
H639 H 0.89956 0.41277 0.54083 0.0
H640 H 0.89769 0.47346 0.64809 0.0
C641 C 0.94142 0.43069 0.83011 0.0
C642 C 0.95314 0.41067 0.84021 0.0
C643 C 0.94872 0.3918 0.8033 0.0
C644 C 0.93358 0.3932 0.75466 0.0
C645 C 0.92264 0.41339 0.74487 0.0
C646 C 0.92615 0.43175 0.78206 0.0
C647 C 0.91466 0.45228 0.75713 0.0
C648 C 0.8952 0.45911 0.79903 0.0
C649 C 0.93113 0.4717 0.74802 0.0
C650 C 0.90628 0.44323 0.69659 0.0
C651 C 0.91027 0.42052 0.69161 0.0
C652 C 0.90713 0.40904 0.63664 0.0
C653 C 0.90065 0.4212 0.58485 0.0
C654 C 0.89741 0.44447 0.58877 0.0
C655 C 0.89936 0.45551 0.6454 0.0
H656 H 0.95075 0.39107 0.16236 0.0
H657 H 0.94748 0.45365 0.06251 0.0
H658 H 0.90894 0.45893 0.09654 0.0
H659 H 0.88973 0.37546 0.14871 0.0
H660 H 0.88882 0.36539 0.22692 0.0
H661 H 0.91412 0.36307 0.18262 0.0
H662 H 0.93609 0.38479 0.26631 0.0
H663 H 0.91117 0.38576 0.31142 0.0
H664 H 0.92554 0.41129 0.29254 0.0
H665 H 0.8733 0.4604 0.14888 0.0
H666 H 0.85198 0.46597 0.2437 0.0
H667 H 0.87639 0.40331 0.31463 0.0
C668 C 0.94177 0.40577 0.14761 0.0
C669 C 0.95211 0.42196 0.11015 0.0
C670 C 0.94002 0.44115 0.09207 0.0
C671 C 0.91786 0.44401 0.10975 0.0
C672 C 0.90791 0.42762 0.14591 0.0
C673 C 0.9197 0.40923 0.16638 0.0
C674 C 0.90684 0.39678 0.21554 0.0
C675 C 0.89944 0.37381 0.19201 0.0
C676 C 0.92071 0.39457 0.27494 0.0
C677 C 0.88701 0.41225 0.22345 0.0
C678 C 0.88719 0.42904 0.17958 0.0
C679 C 0.87282 0.44727 0.18309 0.0
C680 C 0.86033 0.45015 0.23697 0.0
C681 C 0.86356 0.4355 0.2871 0.0
C682 C 0.874 0.41473 0.27654 0.0
H683 H 0.02997 0.89378 0.78834 0.0
H684 H 0.0483 0.94057 0.9314 0.0
H685 H 0.07149 0.9614 0.85707 0.0
H686 H 0.08385 0.89682 0.69772 0.0
H687 H 0.06909 0.89535 0.62571 0.0
H688 H 0.05828 0.88129 0.69284 0.0
H689 H 0.02097 0.90241 0.68002 0.0
H690 H 0.0317 0.91672 0.61359 0.0
H691 H 0.021 0.93247 0.67783 0.0
H692 H 0.08907 0.97962 0.76493 0.0
H693 H 0.09796 0.99458 0.6609 0.0
H694 H 0.06533 0.93774 0.57791 0.0
C695 C 0.03959 0.90789 0.80432 0.0
C696 C 0.03768 0.91547 0.86543 0.0
C697 C 0.04977 0.93448 0.88461 0.0
C698 C 0.06304 0.94633 0.84287 0.0
C699 C 0.06393 0.939 0.78212 0.0
C700 C 0.05257 0.92017 0.76288 0.0
C701 C 0.05381 0.91753 0.69372 0.0
C702 C 0.06705 0.8965 0.67649 0.0
C703 C 0.03049 0.91729 0.66463 0.0
C704 C 0.0665 0.93844 0.67691 0.0
C705 C 0.07289 0.95023 0.72854 0.0
C706 C 0.08432 0.97045 0.72415 0.0
C707 C 0.0892 0.97888 0.66526 0.0
C708 C 0.08196 0.96738 0.61232 0.0
C709 C 0.07074 0.94687 0.61821 0.0
H710 H 0.56624 0.06467 0.35095 0.0
H711 H 0.60499 0.01585 0.25022 0.0
H712 H 0.58753 0.02809 0.15312 0.0
H713 H 0.51794 0.06027 0.27881 0.0
H714 H 0.51057 0.08934 0.27287 0.0
H715 H 0.5289 0.08018 0.33306 0.0
H716 H 0.55908 0.10812 0.29745 0.0
H717 H 0.54061 0.11792 0.23793 0.0
H718 H 0.56804 0.10815 0.2182 0.0
H719 H 0.5601 0.03873 0.07476 0.0
H720 H 0.52925 0.05303 0.01163 0.0
H721 H 0.51055 0.09854 0.15788 0.0
C722 C 0.5716 0.05727 0.30792 0.0
C723 C 0.58687 0.03942 0.30735 0.0
C724 C 0.59349 0.02976 0.25095 0.0
C725 C 0.58363 0.03656 0.19578 0.0
C726 C 0.56785 0.05355 0.19797 0.0
C727 C 0.56251 0.06447 0.25204 0.0
C728 C 0.54434 0.08162 0.24155 0.0
C729 C 0.52426 0.07758 0.2841 0.0
C730 C 0.55357 0.10536 0.24923 0.0
C731 C 0.53875 0.07695 0.17482 0.0
C732 C 0.55274 0.06083 0.15063 0.0
C733 C 0.5495 0.05184 0.09237 0.0
C734 C 0.53176 0.0598 0.05736 0.0
C735 C 0.51761 0.07669 0.08044 0.0
C736 C 0.52127 0.08564 0.13951 0.0
H737 H 0.40989 0.5078 0.65712 0.0
H738 H 0.4269 0.55247 0.50715 0.0
H739 H 0.43728 0.58165 0.58163 0.0
H740 H 0.39019 0.55086 0.76799 0.0
H741 H 0.40296 0.5372 0.83289 0.0
H742 H 0.39317 0.52095 0.76861 0.0
H743 H 0.43231 0.5034 0.75534 0.0
H744 H 0.442 0.51926 0.82011 0.0
H745 H 0.45611 0.52143 0.74701 0.0
H746 H 0.44737 0.60515 0.67009 0.0
H747 H 0.46411 0.61889 0.76647 0.0
H748 H 0.44415 0.55802 0.85942 0.0
C749 C 0.4156 0.52384 0.64047 0.0
C750 C 0.41764 0.5281 0.57699 0.0
C751 C 0.42544 0.54902 0.55601 0.0
C752 C 0.43104 0.56576 0.5978 0.0
C753 C 0.42891 0.56117 0.6603 0.0
C754 C 0.42187 0.54059 0.68176 0.0
C755 C 0.42415 0.53903 0.751 0.0
C756 C 0.40125 0.53689 0.78194 0.0
C757 C 0.43957 0.51964 0.76941 0.0
C758 C 0.43454 0.5615 0.76444 0.0
C759 C 0.4362 0.57436 0.7118 0.0
C760 C 0.44604 0.59538 0.71186 0.0
C761 C 0.45539 0.60308 0.76675 0.0
C762 C 0.45536 0.58943 0.81985 0.0
C763 C 0.44421 0.56875 0.81924 0.0
H764 H 0.92297 0.07917 0.64214 0.0
H765 H 0.86549 0.05199 0.73569 0.0
H766 H 0.87553 0.0728 0.82962 0.0
H767 H 0.95844 0.07076 0.74581 0.0
H768 H 0.97503 0.09571 0.74039 0.0
H769 H 0.95937 0.08664 0.67519 0.0
H770 H 0.93907 0.1247 0.6698 0.0
H771 H 0.95509 0.13423 0.73478 0.0
H772 H 0.92518 0.13544 0.73719 0.0
H773 H 0.89825 0.08456 0.91832 0.0
H774 H 0.92941 0.09036 0.99089 0.0
H775 H 0.97169 0.11116 0.84037 0.0
C776 C 0.91189 0.07871 0.68149 0.0
C777 C 0.89358 0.06413 0.68236 0.0
C778 C 0.87946 0.06338 0.73432 0.0
C779 C 0.88507 0.07514 0.7878 0.0
C780 C 0.90442 0.08799 0.78741 0.0
C781 C 0.91722 0.09051 0.73471 0.0
C782 C 0.93909 0.10186 0.7484 0.0
C783 C 0.95912 0.08788 0.7262 0.0
C784 C 0.93962 0.12546 0.7209 0.0
C785 C 0.93783 0.10283 0.81762 0.0
C786 C 0.91743 0.09548 0.83941 0.0
C787 C 0.91383 0.09136 0.90192 0.0
C788 C 0.93157 0.09455 0.94267 0.0
C789 C 0.95246 0.10167 0.92031 0.0
C790 C 0.95548 0.10642 0.85781 0.0
H791 H 0.39349 0.97552 0.31172 0.0
H792 H 0.39409 0.92941 0.46482 0.0
H793 H 0.40629 0.89911 0.39555 0.0
H794 H 0.3775 0.92964 0.18873 0.0
H795 H 0.39433 0.94385 0.13229 0.0
H796 H 0.37918 0.95964 0.18927 0.0
H797 H 0.41578 0.97895 0.22247 0.0
H798 H 0.43091 0.96329 0.16627 0.0
H799 H 0.43906 0.96202 0.24608 0.0
H800 H 0.42826 0.87775 0.31819 0.0
H801 H 0.45624 0.86741 0.23908 0.0
H802 H 0.43931 0.92647 0.1347 0.0
C803 C 0.39507 0.95872 0.32947 0.0
C804 C 0.39264 0.9545 0.39268 0.0
C805 C 0.39544 0.93264 0.41583 0.0
C806 C 0.40232 0.91536 0.37684 0.0
C807 C 0.40559 0.92016 0.31464 0.0
C808 C 0.40135 0.9412 0.2907 0.0
C809 C 0.4089 0.94294 0.22451 0.0
C810 C 0.38878 0.94408 0.18114 0.0
C811 C 0.42461 0.96295 0.21437 0.0
C812 C 0.42079 0.92088 0.21791 0.0
C813 C 0.41792 0.90747 0.26919 0.0
C814 C 0.42997 0.88769 0.27683 0.0
C815 C 0.44583 0.88193 0.23194 0.0
C816 C 0.44964 0.89622 0.18135 0.0
C817 C 0.43635 0.91527 0.17305 0.0
H818 H 0.52148 0.44408 0.89552 0.0
H819 H 0.5218 0.37362 0.85015 0.0
H820 H 0.54741 0.38141 0.76278 0.0
H821 H 0.52309 0.46653 0.74503 0.0
H822 H 0.54158 0.4889 0.76609 0.0
H823 H 0.52303 0.47725 0.8226 0.0
H824 H 0.5567 0.46921 0.89382 0.0
H825 H 0.57539 0.48047 0.83681 0.0
H826 H 0.57945 0.45254 0.86542 0.0
H827 H 0.5729 0.39792 0.67897 0.0
H828 H 0.59422 0.42161 0.60551 0.0
H829 H 0.57763 0.48014 0.71256 0.0
C830 C 0.52652 0.43023 0.86669 0.0
C831 C 0.5193 0.40828 0.8788 0.0
C832 C 0.52692 0.39061 0.84101 0.0
C833 C 0.54157 0.39487 0.79173 0.0
C834 C 0.54869 0.41677 0.78207 0.0
C835 C 0.54138 0.43409 0.81881 0.0
C836 C 0.55168 0.45607 0.80067 0.0
C837 C 0.53378 0.47318 0.78248 0.0
C838 C 0.56669 0.46509 0.85225 0.0
C839 C 0.56524 0.44872 0.74598 0.0
C840 C 0.56368 0.42596 0.7362 0.0
C841 C 0.57439 0.41568 0.68669 0.0
C842 C 0.58651 0.42914 0.64554 0.0
C843 C 0.58761 0.45244 0.65462 0.0
C844 C 0.57718 0.46224 0.70569 0.0
H845 H 0.10017 0.54548 0.37119 0.0
H846 H 0.08592 0.47776 0.31522 0.0
H847 H 0.07592 0.49124 0.21097 0.0
H848 H 0.05374 0.56733 0.30573 0.0
H849 H 0.06558 0.59371 0.28311 0.0
H850 H 0.07713 0.57862 0.34701 0.0
H851 H 0.1159 0.57903 0.29491 0.0
H852 H 0.10449 0.59436 0.23085 0.0
H853 H 0.11899 0.56849 0.21764 0.0
H854 H 0.06279 0.51222 0.11934 0.0
H855 H 0.04469 0.53878 0.04928 0.0
H856 H 0.06445 0.59356 0.16779 0.0
C857 C 0.096 0.53347 0.33582 0.0
C858 C 0.09458 0.51055 0.34982 0.0
C859 C 0.08771 0.4953 0.30424 0.0
C860 C 0.08203 0.50284 0.24513 0.0
C861 C 0.08294 0.5257 0.2331 0.0
C862 C 0.08965 0.54083 0.2773 0.0
C863 C 0.08554 0.56463 0.25648 0.0
C864 C 0.06955 0.57677 0.3007 0.0
C865 C 0.10755 0.57738 0.24955 0.0
C866 C 0.07485 0.56053 0.19445 0.0
C867 C 0.07403 0.53798 0.18129 0.0
C868 C 0.06361 0.52992 0.12871 0.0
C869 C 0.05332 0.5452 0.08922 0.0
C870 C 0.05315 0.56833 0.10289 0.0
C871 C 0.06453 0.57606 0.15558 0.0
H872 H 0.93294 0.50864 0.28183 0.0
H873 H 0.88915 0.55488 0.37619 0.0
H874 H 0.90039 0.58474 0.30253 0.0
H875 H 0.97665 0.54681 0.2436 0.0
H876 H 0.98151 0.53372 0.17013 0.0
H877 H 0.97106 0.51751 0.23367 0.0
H878 H 0.93756 0.50516 0.16669 0.0
H879 H 0.94767 0.52165 0.10333 0.0
H880 H 0.91992 0.52604 0.13235 0.0
H881 H 0.91933 0.60998 0.2175 0.0
H882 H 0.94059 0.6258 0.12864 0.0
H883 H 0.96633 0.55998 0.08818 0.0
C884 C 0.92588 0.52511 0.28811 0.0
C885 C 0.91049 0.52956 0.33549 0.0
C886 C 0.90123 0.55122 0.34058 0.0
C887 C 0.90749 0.56821 0.29892 0.0
C888 C 0.9226 0.56301 0.25203 0.0
C889 C 0.9314 0.5418 0.24655 0.0
C890 C 0.94631 0.53953 0.19123 0.0
C891 C 0.97029 0.53408 0.21085 0.0
C892 C 0.93731 0.52207 0.14574 0.0
C893 C 0.94454 0.56276 0.16556 0.0
C894 C 0.93131 0.57643 0.20143 0.0
C895 C 0.92927 0.59923 0.18845 0.0
C896 C 0.94125 0.60807 0.13797 0.0
C897 C 0.95429 0.59388 0.10044 0.0
C898 C 0.95565 0.57103 0.11445 0.0
H899 H 0.91899 0.93707 0.61774 0.0
H900 H 0.85844 0.96397 0.69606 0.0
H901 H 0.86251 0.93909 0.78581 0.0
H902 H 0.91319 0.87758 0.688 0.0
H903 H 0.94285 0.87653 0.6992 0.0
H904 H 0.93148 0.89107 0.63367 0.0
H905 H 0.95293 0.92659 0.66573 0.0
H906 H 0.96405 0.91246 0.73145 0.0
H907 H 0.94868 0.93799 0.74167 0.0
H908 H 0.87993 0.9224 0.87866 0.0
H909 H 0.90621 0.91026 0.95975 0.0
H910 H 0.95333 0.89046 0.81929 0.0
C911 C 0.90596 0.93674 0.65222 0.0
C912 C 0.88841 0.95229 0.65017 0.0
C913 C 0.87184 0.9519 0.69643 0.0
C914 C 0.87409 0.93787 0.74775 0.0
C915 C 0.8926 0.9239 0.75092 0.0
C916 C 0.90786 0.92263 0.70319 0.0
C917 C 0.92787 0.90881 0.72109 0.0
C918 C 0.92889 0.88721 0.68325 0.0
C919 C 0.94962 0.92228 0.71465 0.0
C920 C 0.92236 0.90402 0.78782 0.0
C921 C 0.90188 0.91271 0.80427 0.0
C922 C 0.89543 0.91447 0.86597 0.0
C923 C 0.91042 0.90762 0.91178 0.0
C924 C 0.93134 0.8987 0.89539 0.0
C925 C 0.93693 0.89615 0.83273 0.0
H926 H 0.58312 0.91027 0.1244 0.0
H927 H 0.53962 0.86249 0.21252 0.0
H928 H 0.55943 0.86778 0.31036 0.0
H929 H 0.63519 0.898 0.23392 0.0
H930 H 0.64225 0.92717 0.2299 0.0
H931 H 0.63085 0.91328 0.16342 0.0
H932 H 0.59993 0.94319 0.15768 0.0
H933 H 0.61082 0.95686 0.2241 0.0
H934 H 0.58227 0.94774 0.22378 0.0
H935 H 0.57173 0.88939 0.40018 0.0
H936 H 0.58055 0.92048 0.47057 0.0
H937 H 0.62034 0.95133 0.32801 0.0
C938 C 0.57892 0.8998 0.16339 0.0
C939 C 0.56001 0.88597 0.16114 0.0
C940 C 0.55435 0.87289 0.21304 0.0
C941 C 0.56548 0.8759 0.26907 0.0
C942 C 0.58276 0.89138 0.27163 0.0
C943 C 0.5902 0.90237 0.2193 0.0
C944 C 0.60654 0.92064 0.23565 0.0
C945 C 0.63011 0.91439 0.21448 0.0
C946 C 0.59942 0.94342 0.20879 0.0
C947 C 0.60483 0.92018 0.30523 0.0
C948 C 0.59141 0.90287 0.32536 0.0
C949 C 0.58326 0.90221 0.38571 0.0
C950 C 0.58827 0.91995 0.42549 0.0
C951 C 0.60167 0.93784 0.40509 0.0
C952 C 0.61095 0.93726 0.34544 0.0
H953 H 0.61668 0.53992 0.68295 0.0
H954 H 0.58597 0.57928 0.53918 0.0
H955 H 0.57507 0.60758 0.61631 0.0
H956 H 0.57423 0.5435 0.77819 0.0
H957 H 0.58953 0.54424 0.84945 0.0
H958 H 0.60169 0.53158 0.78274 0.0
H959 H 0.63576 0.55783 0.79134 0.0
H960 H 0.62365 0.57064 0.85865 0.0
H961 H 0.63166 0.58759 0.79371 0.0
H962 H 0.56156 0.62758 0.70937 0.0
H963 H 0.54179 0.63414 0.80686 0.0
H964 H 0.57773 0.57943 0.89119 0.0
C965 C 0.60876 0.55513 0.66735 0.0
C966 C 0.60275 0.55783 0.60501 0.0
C967 C 0.59119 0.57724 0.58657 0.0
C968 C 0.58503 0.59341 0.63011 0.0
C969 C 0.5903 0.58976 0.69195 0.0
C970 C 0.60183 0.57096 0.71055 0.0
C971 C 0.60115 0.56824 0.77993 0.0
C972 C 0.59103 0.54557 0.79859 0.0
C973 C 0.62445 0.57126 0.80754 0.0
C974 C 0.58614 0.58751 0.79723 0.0
C975 C 0.58099 0.60038 0.74625 0.0
C976 C 0.56582 0.61789 0.74975 0.0
C977 C 0.55471 0.62158 0.80567 0.0
C978 C 0.55826 0.60729 0.85679 0.0
C979 C 0.57496 0.59079 0.85318 0.0
H980 H 0.11039 0.47531 0.72498 0.0
H981 H 0.09418 0.42186 0.59969 0.0
H982 H 0.0884 0.39639 0.68794 0.0
H983 H 0.13219 0.43872 0.8616 0.0
H984 H 0.1185 0.457 0.91551 0.0
H985 H 0.1302 0.46814 0.84536 0.0
H986 H 0.09205 0.48546 0.81763 0.0
H987 H 0.08041 0.47451 0.88721 0.0
H988 H 0.06788 0.46772 0.81421 0.0
H989 H 0.07611 0.3797 0.78582 0.0
H990 H 0.05252 0.37547 0.87744 0.0
H991 H 0.07277 0.44091 0.94046 0.0
C992 C 0.10692 0.45785 0.71657 0.0
C993 C 0.10348 0.45016 0.65608 0.0
C994 C 0.09753 0.42772 0.64592 0.0
C995 C 0.09433 0.41317 0.69584 0.0
C996 C 0.09679 0.42148 0.75558 0.0
C997 C 0.10289 0.44342 0.76611 0.0
C998 C 0.09906 0.44987 0.83281 0.0
C999 C 0.12132 0.45365 0.86576 0.0
C1000 C 0.08394 0.47058 0.83819 0.0
C1001 C 0.08776 0.42898 0.85656 0.0
C1002 C 0.0879 0.41232 0.81247 0.0
C1003 C 0.07629 0.39244 0.82107 0.0
C1004 C 0.06292 0.39015 0.87365 0.0
C1005 C 0.06065 0.40799 0.9159 0.0
C1006 C 0.07437 0.42696 0.90918 0.0
H1007 H 0.04928 0.11698 0.17768 0.0
H1008 H 0.07847 0.0834 0.02085 0.0
H1009 H 0.10453 0.06395 0.08964 0.0
H1010 H 0.10288 0.11464 0.28357 0.0
H1011 H 0.08519 0.10961 0.34919 0.0
H1012 H 0.07602 0.12784 0.28812 0.0
H1013 H 0.0404 0.1041 0.27713 0.0
H1014 H 0.04954 0.08544 0.33622 0.0
H1015 H 0.04281 0.07468 0.26101 0.0
H1016 H 0.11925 0.04071 0.17373 0.0
H1017 H 0.12123 0.01599 0.26455 0.0
H1018 H 0.07955 0.06163 0.36716 0.0
C1019 C 0.06225 0.1068 0.15755 0.0
C1020 C 0.06215 0.10197 0.09397 0.0
C1021 C 0.07861 0.08767 0.06932 0.0
C1022 C 0.09346 0.07649 0.10824 0.0
C1023 C 0.09171 0.07991 0.17161 0.0
C1024 C 0.07676 0.09509 0.19616 0.0
C1025 C 0.07476 0.09232 0.26541 0.0
C1026 C 0.08534 0.11229 0.29854 0.0
C1027 C 0.05045 0.0889 0.28602 0.0
C1028 C 0.0886 0.07153 0.2747 0.0
C1029 C 0.09931 0.06543 0.2208 0.0
C1030 C 0.11155 0.04573 0.21662 0.0
C1031 C 0.11257 0.03178 0.26835 0.0
C1032 C 0.10076 0.0372 0.32267 0.0
C1033 C 0.089 0.05746 0.32626 0.0
H1034 H 0.4222 0.07221 0.56147 0.0
H1035 H 0.35678 0.05545 0.63117 0.0
H1036 H 0.3611 0.08296 0.71368 0.0
H1037 H 0.4486 0.07241 0.6862 0.0
H1038 H 0.46663 0.09612 0.67551 0.0
H1039 H 0.45547 0.08217 0.60984 0.0
H1040 H 0.43842 0.11918 0.57069 0.0
H1041 H 0.4498 0.13345 0.63658 0.0
H1042 H 0.42048 0.13519 0.6204 0.0
H1043 H 0.37784 0.09876 0.80662 0.0
H1044 H 0.40373 0.10583 0.89251 0.0
H1045 H 0.45692 0.11732 0.76256 0.0
C1046 C 0.40829 0.07533 0.59196 0.0
C1047 C 0.38932 0.06148 0.59022 0.0
C1048 C 0.37152 0.0658 0.63132 0.0
C1049 C 0.37381 0.0815 0.67859 0.0
C1050 C 0.39366 0.09339 0.68288 0.0
C1051 C 0.41027 0.09121 0.63902 0.0
C1052 C 0.43125 0.10315 0.65908 0.0
C1053 C 0.45164 0.08751 0.65764 0.0
C1054 C 0.43521 0.12399 0.61932 0.0
C1055 C 0.42486 0.10962 0.72422 0.0
C1056 C 0.40286 0.10444 0.7366 0.0
C1057 C 0.39465 0.10412 0.7969 0.0
C1058 C 0.40942 0.10819 0.84558 0.0
C1059 C 0.43195 0.11302 0.83352 0.0
C1060 C 0.43942 0.1149 0.77222 0.0
H1061 H 0.44896 0.3758 0.2049 0.0
H1062 H 0.41127 0.40687 0.0592 0.0
H1063 H 0.38025 0.41355 0.13114 0.0
H1064 H 0.39754 0.35761 0.30969 0.0
H1065 H 0.41329 0.3654 0.37682 0.0
H1066 H 0.42715 0.35308 0.31139 0.0
H1067 H 0.45399 0.38677 0.30672 0.0
H1068 H 0.44033 0.39903 0.37136 0.0
H1069 H 0.44266 0.41455 0.3004 0.0
H1070 H 0.35955 0.42733 0.21962 0.0
H1071 H 0.3546 0.45082 0.31114 0.0
H1072 H 0.4068 0.41442 0.40412 0.0
C1073 C 0.43347 0.38258 0.18775 0.0
C1074 C 0.43206 0.39023 0.12658 0.0
C1075 C 0.41228 0.40035 0.10567 0.0
C1076 C 0.39457 0.40413 0.14636 0.0
C1077 C 0.39704 0.39802 0.2081 0.0
C1078 C 0.41607 0.38729 0.22873 0.0
C1079 C 0.41753 0.38795 0.29843 0.0
C1080 C 0.41364 0.36462 0.32568 0.0
C1081 C 0.43992 0.39769 0.32038 0.0
C1082 C 0.39815 0.40322 0.31303 0.0
C1083 C 0.3856 0.40751 0.26094 0.0
C1084 C 0.36886 0.42364 0.26098 0.0
C1085 C 0.36608 0.43692 0.31351 0.0
C1086 C 0.38048 0.43445 0.36444 0.0
C1087 C 0.39547 0.41636 0.36582 0.0
loop_
_geom_bond_atom_site_label_1
_geom_bond_atom_site_label_2
_geom_bond_distance
_geom_bond_site_symmetry_2
_ccdc_geom_bond_type
Zn0 O3 2.031 1_455 S
Zn0 O5 2.049 1_554 S
Zn0 O10 2.067 . S
Zn1 O2 1.962 1_455 S
Zn1 O4 1.986 . S
Zn1 O6 1.996 . S
Zn1 O9 1.943 . S
O2 Zn1 1.962 1_655 S
O2 C7 1.254 . S
O3 Zn0 2.031 1_655 S
O3 C7 1.269 . S
O4 Zn1 1.986 . S
O4 C11 1.262 . S
O5 Zn0 2.049 1_556 S
O5 C13 1.260 . S
O6 Zn1 1.996 . S
O6 C13 1.257 1_554 S
C7 O2 1.254 . S
C7 O3 1.269 . S
C8 O9 1.249 . S
C8 O10 1.270 . S
O9 Zn1 1.943 . S
O9 C8 1.249 . S
O10 Zn0 2.067 . S
O10 C8 1.270 . S
C11 O4 1.262 . S
C11 O12 1.232 . S
O12 C11 1.232 . S
C13 O5 1.260 . S
C13 O6 1.257 1_556 S
Zn14 O17 2.031 1_545 S
Zn14 O19 2.049 . S
Zn14 O24 2.067 . S
Zn15 O16 1.962 1_545 S
Zn15 O18 1.986 . S
Zn15 O20 1.996 . S
Zn15 O23 1.943 . S
O16 Zn15 1.962 1_565 S
O16 C21 1.254 . S
O17 Zn14 2.031 1_565 S
O17 C21 1.269 . S
O18 Zn15 1.986 . S
O18 C25 1.262 . S
O19 Zn14 2.049 . S
O19 C27 1.260 . S
O20 Zn15 1.996 . S
O20 C27 1.257 . S
C21 O16 1.254 . S
C21 O17 1.269 . S
C22 O23 1.249 . S
C22 O24 1.270 . S
O23 Zn15 1.943 . S
O23 C22 1.249 . S
O24 Zn14 2.067 . S
O24 C22 1.270 . S
C25 O18 1.262 . S
C25 O26 1.232 . S
O26 C25 1.232 . S
C27 O19 1.260 . S
C27 O20 1.257 . S
Zn28 O31 2.031 . S
Zn28 O33 2.049 1_554 S
Zn28 O38 2.067 . S
Zn29 O30 1.962 . S
Zn29 O32 1.986 . S
Zn29 O34 1.996 . S
Zn29 O37 1.943 . S
O30 Zn29 1.962 . S
O30 C35 1.254 . S
O31 Zn28 2.031 . S
O31 C35 1.269 . S
O32 Zn29 1.986 . S
O32 C39 1.262 . S
O33 Zn28 2.049 1_556 S
O33 C41 1.260 . S
O34 Zn29 1.996 . S
O34 C41 1.257 1_554 S
C35 O30 1.254 . S
C35 O31 1.269 . S
C36 O37 1.249 . S
C36 O38 1.270 . S
O37 Zn29 1.943 . S
O37 C36 1.249 . S
O38 Zn28 2.067 . S
O38 C36 1.270 . S
C39 O32 1.262 . S
C39 O40 1.232 . S
O40 C39 1.232 . S
C41 O33 1.260 . S
C41 O34 1.257 1_556 S
Zn42 O45 2.031 . S
Zn42 O47 2.049 . S
Zn42 O52 2.067 . S
Zn43 O44 1.962 . S
Zn43 O46 1.986 . S
Zn43 O48 1.996 . S
Zn43 O51 1.943 . S
O44 Zn43 1.962 . S
O44 C49 1.254 . S
O45 Zn42 2.031 . S
O45 C49 1.269 . S
O46 Zn43 1.986 . S
O46 C53 1.262 . S
O47 Zn42 2.049 . S
O47 C55 1.260 . S
O48 Zn43 1.996 . S
O48 C55 1.257 . S
C49 O44 1.254 . S
C49 O45 1.269 . S
C50 O51 1.249 . S
C50 O52 1.270 . S
O51 Zn43 1.943 . S
O51 C50 1.249 . S
O52 Zn42 2.067 . S
O52 C50 1.270 . S
C53 O46 1.262 . S
C53 O54 1.232 . S
O54 C53 1.232 . S
C55 O47 1.260 . S
C55 O48 1.257 . S
Zn56 O59 2.031 1_455 S
Zn56 O61 2.049 1_556 S
Zn56 O66 2.067 . S
Zn57 O58 1.962 1_455 S
Zn57 O60 1.986 . S
Zn57 O62 1.996 . S
Zn57 O65 1.943 . S
O58 Zn57 1.962 1_655 S
O58 C63 1.254 . S
O59 Zn56 2.031 1_655 S
O59 C63 1.269 . S
O60 Zn57 1.986 . S
O60 C67 1.262 . S
O61 Zn56 2.049 1_554 S
O61 C69 1.260 . S
O62 Zn57 1.996 . S
O62 C69 1.257 1_556 S
C63 O58 1.254 . S
C63 O59 1.269 . S
C64 O65 1.249 . S
C64 O66 1.270 . S
O65 Zn57 1.943 . S
O65 C64 1.249 . S
O66 Zn56 2.067 . S
O66 C64 1.270 . S
C67 O60 1.262 . S
C67 O68 1.232 . S
O68 C67 1.232 . S
C69 O61 1.260 . S
C69 O62 1.257 1_554 S
Zn70 O73 2.031 1_545 S
Zn70 O75 2.049 . S
Zn70 O80 2.067 . S
Zn71 O72 1.962 1_545 S
Zn71 O74 1.986 . S
Zn71 O76 1.996 . S
Zn71 O79 1.943 . S
O72 Zn71 1.962 1_565 S
O72 C77 1.254 . S
O73 Zn70 2.031 1_565 S
O73 C77 1.269 . S
O74 Zn71 1.986 . S
O74 C81 1.262 . S
O75 Zn70 2.049 . S
O75 C83 1.260 . S
O76 Zn71 1.996 . S
O76 C83 1.257 . S
C77 O72 1.254 . S
C77 O73 1.269 . S
C78 O79 1.249 . S
C78 O80 1.270 . S
O79 Zn71 1.943 . S
O79 C78 1.249 . S
O80 Zn70 2.067 . S
O80 C78 1.270 . S
C81 O74 1.262 . S
C81 O82 1.232 . S
O82 C81 1.232 . S
C83 O75 1.260 . S
C83 O76 1.257 . S
Zn84 O87 2.031 . S
Zn84 O89 2.049 1_556 S
Zn84 O94 2.067 . S
Zn85 O86 1.962 . S
Zn85 O88 1.986 . S
Zn85 O90 1.996 . S
Zn85 O93 1.943 . S
O86 Zn85 1.962 . S
O86 C91 1.254 . S
O87 Zn84 2.031 . S
O87 C91 1.269 . S
O88 Zn85 1.986 . S
O88 C95 1.262 . S
O89 Zn84 2.049 1_554 S
O89 C97 1.260 . S
O90 Zn85 1.996 . S
O90 C97 1.257 1_556 S
C91 O86 1.254 . S
C91 O87 1.269 . S
C92 O93 1.249 . S
C92 O94 1.270 . S
O93 Zn85 1.943 . S
O93 C92 1.249 . S
O94 Zn84 2.067 . S
O94 C92 1.270 . S
C95 O88 1.262 . S
C95 O96 1.232 . S
O96 C95 1.232 . S
C97 O89 1.260 . S
C97 O90 1.257 1_554 S
Zn98 O101 2.031 . S
Zn98 O103 2.049 . S
Zn98 O108 2.067 . S
Zn99 O100 1.962 . S
Zn99 O102 1.986 . S
Zn99 O104 1.996 . S
Zn99 O107 1.943 . S
O100 Zn99 1.962 . S
O100 C105 1.254 . S
O101 Zn98 2.031 . S
O101 C105 1.269 . S
O102 Zn99 1.986 . S
O102 C109 1.262 . S
O103 Zn98 2.049 . S
O103 C111 1.260 . S
O104 Zn99 1.996 . S
O104 C111 1.257 . S
C105 O100 1.254 . S
C105 O101 1.269 . S
C106 O107 1.249 . S
C106 O108 1.270 . S
O107 Zn99 1.943 . S
O107 C106 1.249 . S
O108 Zn98 2.067 . S
O108 C106 1.270 . S
C109 O102 1.262 . S
C109 O110 1.232 . S
O110 C109 1.232 . S
C111 O103 1.260 . S
C111 O104 1.257 . S
Zn112 O115 2.031 1_655 S
Zn112 O117 2.049 1_556 S
Zn112 O122 2.067 . S
Zn113 O114 1.962 1_655 S
Zn113 O116 1.986 . S
Zn113 O118 1.996 . S
Zn113 O121 1.943 . S
O114 Zn113 1.962 1_455 S
O114 C119 1.254 . S
O115 Zn112 2.031 1_455 S
O115 C119 1.269 . S
O116 Zn113 1.986 . S
O116 C123 1.262 . S
O117 Zn112 2.049 1_554 S
O117 C125 1.260 . S
O118 Zn113 1.996 . S
O118 C125 1.257 1_556 S
C119 O114 1.254 . S
C119 O115 1.269 . S
C120 O121 1.249 . S
C120 O122 1.270 . S
O121 Zn113 1.943 . S
O121 C120 1.249 . S
O122 Zn112 2.067 . S
O122 C120 1.270 . S
C123 O116 1.262 . S
C123 O124 1.232 . S
O124 C123 1.232 . S
C125 O117 1.260 . S
C125 O118 1.257 1_554 S
Zn126 O129 2.031 1_565 S
Zn126 O131 2.049 . S
Zn126 O136 2.067 . S
Zn127 O128 1.962 1_565 S
Zn127 O130 1.986 . S
Zn127 O132 1.996 . S
Zn127 O135 1.943 . S
O128 Zn127 1.962 1_545 S
O128 C133 1.254 . S
O129 Zn126 2.031 1_545 S
O129 C133 1.269 . S
O130 Zn127 1.986 . S
O130 C137 1.262 . S
O131 Zn126 2.049 . S
O131 C139 1.260 . S
O132 Zn127 1.996 . S
O132 C139 1.257 . S
C133 O128 1.254 . S
C133 O129 1.269 . S
C134 O135 1.249 . S
C134 O136 1.270 . S
O135 Zn127 1.943 . S
O135 C134 1.249 . S
O136 Zn126 2.067 . S
O136 C134 1.270 . S
C137 O130 1.262 . S
C137 O138 1.232 . S
O138 C137 1.232 . S
C139 O131 1.260 . S
C139 O132 1.257 . S
Zn140 O143 2.031 . S
Zn140 O145 2.049 1_556 S
Zn140 O150 2.067 . S
Zn141 O142 1.962 . S
Zn141 O144 1.986 . S
Zn141 O146 1.996 . S
Zn141 O149 1.943 . S
O142 Zn141 1.962 . S
O142 C147 1.254 . S
O143 Zn140 2.031 . S
O143 C147 1.269 . S
O144 Zn141 1.986 . S
O144 C151 1.262 . S
O145 Zn140 2.049 1_554 S
O145 C153 1.260 . S
O146 Zn141 1.996 . S
O146 C153 1.257 1_556 S
C147 O142 1.254 . S
C147 O143 1.269 . S
C148 O149 1.249 . S
C148 O150 1.270 . S
O149 Zn141 1.943 . S
O149 C148 1.249 . S
O150 Zn140 2.067 . S
O150 C148 1.270 . S
C151 O144 1.262 . S
C151 O152 1.232 . S
O152 C151 1.232 . S
C153 O145 1.260 . S
C153 O146 1.257 1_554 S
Zn154 O157 2.031 . S
Zn154 O159 2.049 . S
Zn154 O164 2.067 . S
Zn155 O156 1.962 . S
Zn155 O158 1.986 . S
Zn155 O160 1.996 . S
Zn155 O163 1.943 . S
O156 Zn155 1.962 . S
O156 C161 1.254 . S
O157 Zn154 2.031 . S
O157 C161 1.269 . S
O158 Zn155 1.986 . S
O158 C165 1.262 . S
O159 Zn154 2.049 . S
O159 C167 1.260 . S
O160 Zn155 1.996 . S
O160 C167 1.257 . S
C161 O156 1.254 . S
C161 O157 1.269 . S
C162 O163 1.249 . S
C162 O164 1.270 . S
O163 Zn155 1.943 . S
O163 C162 1.249 . S
O164 Zn154 2.067 . S
O164 C162 1.270 . S
C165 O158 1.262 . S
C165 O166 1.232 . S
O166 C165 1.232 . S
C167 O159 1.260 . S
C167 O160 1.257 . S
Zn168 O171 2.031 1_655 S
Zn168 O173 2.049 1_554 S
Zn168 O178 2.067 . S
Zn169 O170 1.962 1_655 S
Zn169 O172 1.986 . S
Zn169 O174 1.996 . S
Zn169 O177 1.943 . S
O170 Zn169 1.962 1_455 S
O170 C175 1.254 . S
O171 Zn168 2.031 1_455 S
O171 C175 1.269 . S
O172 Zn169 1.986 . S
O172 C179 1.262 . S
O173 Zn168 2.049 1_556 S
O173 C181 1.260 . S
O174 Zn169 1.996 . S
O174 C181 1.257 1_554 S
C175 O170 1.254 . S
C175 O171 1.269 . S
C176 O177 1.249 . S
C176 O178 1.270 . S
O177 Zn169 1.943 . S
O177 C176 1.249 . S
O178 Zn168 2.067 . S
O178 C176 1.270 . S
C179 O172 1.262 . S
C179 O180 1.232 . S
O180 C179 1.232 . S
C181 O173 1.260 . S
C181 O174 1.257 1_556 S
Zn182 O185 2.031 1_565 S
Zn182 O187 2.049 . S
Zn182 O192 2.067 . S
Zn183 O184 1.962 1_565 S
Zn183 O186 1.986 . S
Zn183 O188 1.996 . S
Zn183 O191 1.943 . S
O184 Zn183 1.962 1_545 S
O184 C189 1.254 . S
O185 Zn182 2.031 1_545 S
O185 C189 1.269 . S
O186 Zn183 1.986 . S
O186 C193 1.262 . S
O187 Zn182 2.049 . S
O187 C195 1.260 . S
O188 Zn183 1.996 . S
O188 C195 1.257 . S
C189 O184 1.254 . S
C189 O185 1.269 . S
C190 O191 1.249 . S
C190 O192 1.270 . S
O191 Zn183 1.943 . S
O191 C190 1.249 . S
O192 Zn182 2.067 . S
O192 C190 1.270 . S
C193 O186 1.262 . S
C193 O194 1.232 . S
O194 C193 1.232 . S
C195 O187 1.260 . S
C195 O188 1.257 . S
Zn196 O199 2.031 . S
Zn196 O201 2.049 1_554 S
Zn196 O206 2.067 . S
Zn197 O198 1.962 . S
Zn197 O200 1.986 . S
Zn197 O202 1.996 . S
Zn197 O205 1.943 . S
O198 Zn197 1.962 . S
O198 C203 1.254 . S
O199 Zn196 2.031 . S
O199 C203 1.269 . S
O200 Zn197 1.986 . S
O200 C207 1.262 . S
O201 Zn196 2.049 1_556 S
O201 C209 1.260 . S
O202 Zn197 1.996 . S
O202 C209 1.257 1_554 S
C203 O198 1.254 . S
C203 O199 1.269 . S
C204 O205 1.249 . S
C204 O206 1.270 . S
O205 Zn197 1.943 . S
O205 C204 1.249 . S
O206 Zn196 2.067 . S
O206 C204 1.270 . S
C207 O200 1.262 . S
C207 O208 1.232 . S
O208 C207 1.232 . S
C209 O201 1.260 . S
C209 O202 1.257 1_556 S
Zn210 O213 2.031 . S
Zn210 O215 2.049 . S
Zn210 O220 2.067 . S
Zn211 O212 1.962 . S
Zn211 O214 1.986 . S
Zn211 O216 1.996 . S
Zn211 O219 1.943 . S
O212 Zn211 1.962 . S
O212 C217 1.254 . S
O213 Zn210 2.031 . S
O213 C217 1.269 . S
O214 Zn211 1.986 . S
O214 C221 1.262 . S
O215 Zn210 2.049 . S
O215 C223 1.260 . S
O216 Zn211 1.996 . S
O216 C223 1.257 . S
C217 O212 1.254 . S
C217 O213 1.269 . S
C218 O219 1.249 . S
C218 O220 1.270 . S
O219 Zn211 1.943 . S
O219 C218 1.249 . S
O220 Zn210 2.067 . S
O220 C218 1.270 . S
C221 O214 1.262 . S
C221 O222 1.232 . S
O222 C221 1.232 . S
C223 O215 1.260 . S
C223 O216 1.257 . S
H224 C236 0.930 . S
H225 C238 0.918 1_655 S
H226 C239 0.930 . S
H227 C243 0.959 . S
H228 C243 0.959 . S
H229 C243 0.961 . S
H230 C244 0.960 . S
H231 C244 0.961 . S
H232 C244 0.959 1_655 S
H233 C247 0.946 . S
H234 C248 0.931 1_655 S
H235 C250 0.930 . S
C236 H224 0.930 . S
C236 C237 1.399 1_556 S
C236 C241 1.399 . S
C237 C236 1.399 1_554 S
C237 C238 1.395 . S
C238 H225 0.918 1_455 S
C238 C237 1.395 . S
C238 C239 1.385 1_455 S
C239 H226 0.930 . S
C239 C238 1.385 1_655 S
C239 C240 1.390 1_655 S
C240 C239 1.390 1_455 S
C240 C241 1.394 1_554 S
C240 C246 1.465 . S
C241 C236 1.399 . S
C241 C240 1.394 1_556 S
C241 C242 1.516 . S
C242 C241 1.516 . S
C242 C243 1.502 . S
C242 C244 1.561 . S
C242 C245 1.526 . S
C243 H227 0.959 . S
C243 H228 0.959 . S
C243 H229 0.961 . S
C243 C242 1.502 . S
C244 H230 0.960 . S
C244 H231 0.961 . S
C244 H232 0.959 1_455 S
C244 C242 1.561 . S
C245 C242 1.526 . S
C245 C246 1.396 1_556 S
C245 C250 1.390 . S
C246 C240 1.465 . S
C246 C245 1.396 1_554 S
C246 C247 1.388 1_455 S
C247 H233 0.946 . S
C247 C246 1.388 1_655 S
C247 C248 1.381 1_655 S
C248 H234 0.931 1_455 S
C248 C247 1.381 1_455 S
C248 C249 1.389 1_554 S
C249 C248 1.389 1_556 S
C249 C250 1.387 . S
C250 H235 0.930 . S
C250 C245 1.390 . S
C250 C249 1.387 . S
H251 C263 0.930 . S
H252 C265 0.930 . S
H253 C266 0.930 . S
H254 C270 0.959 . S
H255 C270 0.959 . S
H256 C270 0.961 . S
H257 C271 0.960 . S
H258 C271 0.961 . S
H259 C271 0.959 . S
H260 C274 0.929 . S
H261 C275 0.931 . S
H262 C277 0.930 . S
C263 H251 0.930 . S
C263 C264 1.399 1_565 S
C263 C268 1.392 1_565 S
C264 C263 1.399 1_545 S
C264 C265 1.376 . S
C265 H252 0.930 . S
C265 C264 1.376 . S
C265 C266 1.388 . S
C266 H253 0.930 . S
C266 C265 1.388 . S
C266 C267 1.390 . S
C267 C266 1.390 . S
C267 C268 1.432 . S
C267 C273 1.465 . S
C268 C263 1.392 1_545 S
C268 C267 1.432 . S
C268 C269 1.491 1_545 S
C269 C268 1.491 1_565 S
C269 C270 1.502 . S
C269 C271 1.561 . S
C269 C272 1.494 1_565 S
C270 H254 0.959 . S
C270 H255 0.959 . S
C270 H256 0.961 . S
C270 C269 1.502 . S
C271 H257 0.960 . S
C271 H258 0.961 . S
C271 H259 0.959 . S
C271 C269 1.561 . S
C272 C269 1.494 1_545 S
C272 C273 1.444 . S
C272 C277 1.381 1_545 S
C273 C267 1.465 . S
C273 C272 1.444 . S
C273 C274 1.399 . S
C274 H260 0.929 . S
C274 C273 1.399 . S
C274 C275 1.385 . S
C275 H261 0.931 . S
C275 C274 1.385 . S
C275 C276 1.389 . S
C276 C275 1.389 . S
C276 C277 1.387 1_545 S
C277 H262 0.930 . S
C277 C272 1.381 1_565 S
C277 C276 1.387 1_565 S
H278 C290 0.930 . S
H279 C292 0.930 . S
H280 C293 0.930 . S
H281 C297 0.959 . S
H282 C297 0.959 . S
H283 C297 0.961 . S
H284 C298 0.960 . S
H285 C298 0.961 . S
H286 C298 0.959 . S
H287 C301 0.929 . S
H288 C302 0.931 . S
H289 C304 0.930 . S
C290 H278 0.930 . S
C290 C291 1.399 . S
C290 C295 1.399 . S
C291 C290 1.399 . S
C291 C292 1.376 1_554 S
C292 H279 0.930 . S
C292 C291 1.376 1_556 S
C292 C293 1.388 . S
C293 H280 0.930 . S
C293 C292 1.388 . S
C293 C294 1.390 . S
C294 C293 1.390 . S
C294 C295 1.394 1_556 S
C294 C300 1.465 . S
C295 C290 1.399 . S
C295 C294 1.394 1_554 S
C295 C296 1.516 . S
C296 C295 1.516 . S
C296 C297 1.502 . S
C296 C298 1.561 . S
C296 C299 1.526 . S
C297 H281 0.959 . S
C297 H282 0.959 . S
C297 H283 0.961 . S
C297 C296 1.502 . S
C298 H284 0.960 . S
C298 H285 0.961 . S
C298 H286 0.959 . S
C298 C296 1.561 . S
C299 C296 1.526 . S
C299 C300 1.396 1_554 S
C299 C304 1.390 . S
C300 C294 1.465 . S
C300 C299 1.396 1_556 S
C300 C301 1.399 . S
C301 H287 0.929 . S
C301 C300 1.399 . S
C301 C302 1.385 . S
C302 H288 0.931 . S
C302 C301 1.385 . S
C302 C303 1.389 . S
C303 C302 1.389 . S
C303 C304 1.387 1_556 S
C304 H289 0.930 . S
C304 C299 1.390 . S
C304 C303 1.387 1_554 S
H305 C317 0.930 . S
H306 C319 0.930 . S
H307 C320 0.930 . S
H308 C324 0.959 . S
H309 C324 0.959 . S
H310 C324 0.961 . S
H311 C325 0.960 . S
H312 C325 0.961 . S
H313 C325 0.959 . S
H314 C328 0.929 . S
H315 C329 0.931 . S
H316 C331 0.930 . S
C317 H305 0.930 . S
C317 C318 1.399 . S
C317 C322 1.399 . S
C318 C317 1.399 . S
C318 C319 1.376 . S
C319 H306 0.930 . S
C319 C318 1.376 . S
C319 C320 1.388 . S
C320 H307 0.930 . S
C320 C319 1.388 . S
C320 C321 1.390 . S
C321 C320 1.390 . S
C321 C322 1.394 . S
C321 C327 1.465 . S
C322 C317 1.399 . S
C322 C321 1.394 . S
C322 C323 1.516 . S
C323 C322 1.516 . S
C323 C324 1.502 . S
C323 C325 1.561 . S
C323 C326 1.526 . S
C324 H308 0.959 . S
C324 H309 0.959 . S
C324 H310 0.961 . S
C324 C323 1.502 . S
C325 H311 0.960 . S
C325 H312 0.961 . S
C325 H313 0.959 . S
C325 C323 1.561 . S
C326 C323 1.526 . S
C326 C327 1.396 . S
C326 C331 1.390 . S
C327 C321 1.465 . S
C327 C326 1.396 . S
C327 C328 1.399 . S
C328 H314 0.929 . S
C328 C327 1.399 . S
C328 C329 1.385 . S
C329 H315 0.931 . S
C329 C328 1.385 . S
C329 C330 1.389 . S
C330 C329 1.389 . S
C330 C331 1.387 . S
C331 H316 0.930 . S
C331 C326 1.390 . S
C331 C330 1.387 . S
H332 C344 0.900 1_454 S
H333 C346 0.930 . S
H334 C347 0.930 . S
H335 C351 0.959 . S
H336 C351 0.959 . S
H337 C351 0.961 . S
H338 C352 0.950 1_455 S
H339 C352 0.946 1_455 S
H340 C352 0.994 . S
H341 C355 0.929 . S
H342 C356 0.931 1_556 S
H343 C358 0.930 1_455 S
C344 H332 0.900 1_656 S
C344 C345 1.423 . S
C344 C349 1.407 1_556 S
C345 C344 1.423 . S
C345 C346 1.376 . S
C346 H333 0.930 . S
C346 C345 1.376 . S
C346 C347 1.388 . S
C347 H334 0.930 . S
C347 C346 1.388 . S
C347 C348 1.390 . S
C348 C347 1.390 . S
C348 C349 1.394 1_556 S
C348 C354 1.465 . S
C349 C344 1.407 1_554 S
C349 C348 1.394 1_554 S
C349 C350 1.516 1_655 S
C350 C349 1.516 1_455 S
C350 C351 1.502 . S
C350 C352 1.552 1_455 S
C350 C353 1.526 1_455 S
C351 H335 0.959 . S
C351 H336 0.959 . S
C351 H337 0.961 . S
C351 C350 1.502 . S
C352 H338 0.950 1_655 S
C352 H339 0.946 1_655 S
C352 H340 0.994 . S
C352 C350 1.552 1_655 S
C353 C350 1.526 1_655 S
C353 C354 1.396 1_554 S
C353 C358 1.390 . S
C354 C348 1.465 . S
C354 C353 1.396 1_556 S
C354 C355 1.399 . S
C355 H341 0.929 . S
C355 C354 1.399 . S
C355 C356 1.385 1_556 S
C356 H342 0.931 1_554 S
C356 C355 1.385 1_554 S
C356 C357 1.389 . S
C357 C356 1.389 . S
C357 C358 1.387 . S
C358 H343 0.930 1_655 S
C358 C353 1.390 . S
C358 C357 1.387 . S
H359 C371 0.930 . S
H360 C373 0.930 . S
H361 C374 0.930 . S
H362 C378 0.959 . S
H363 C378 0.959 . S
H364 C378 0.961 . S
H365 C379 0.960 . S
H366 C379 0.961 . S
H367 C379 0.959 . S
H368 C382 0.929 . S
H369 C383 0.931 . S
H370 C385 0.930 . S
C371 H359 0.930 . S
C371 C372 1.399 . S
C371 C376 1.399 . S
C372 C371 1.399 . S
C372 C373 1.376 1_565 S
C373 H360 0.930 . S
C373 C372 1.376 1_545 S
C373 C374 1.388 . S
C374 H361 0.930 . S
C374 C373 1.388 . S
C374 C375 1.390 1_545 S
C375 C374 1.390 1_565 S
C375 C376 1.394 . S
C375 C381 1.465 . S
C376 C371 1.399 . S
C376 C375 1.394 . S
C376 C377 1.516 . S
C377 C376 1.516 . S
C377 C378 1.502 . S
C377 C379 1.561 . S
C377 C380 1.526 . S
C378 H362 0.959 . S
C378 H363 0.959 . S
C378 H364 0.961 . S
C378 C377 1.502 . S
C379 H365 0.960 . S
C379 H366 0.961 . S
C379 H367 0.959 . S
C379 C377 1.561 . S
C380 C377 1.526 . S
C380 C381 1.396 . S
C380 C385 1.390 . S
C381 C375 1.465 . S
C381 C380 1.396 . S
C381 C382 1.399 1_565 S
C382 H368 0.929 . S
C382 C381 1.399 1_545 S
C382 C383 1.385 . S
C383 H369 0.931 . S
C383 C382 1.385 . S
C383 C384 1.389 1_545 S
C384 C383 1.389 1_565 S
C384 C385 1.387 . S
C385 H370 0.930 . S
C385 C380 1.390 . S
C385 C384 1.387 . S
H386 C398 0.930 . S
H387 C400 0.930 . S
H388 C401 0.930 . S
H389 C405 0.959 . S
H390 C405 0.959 . S
H391 C405 0.961 . S
H392 C406 0.960 . S
H393 C406 0.961 . S
H394 C406 0.959 . S
H395 C409 0.929 . S
H396 C410 0.931 . S
H397 C412 0.930 . S
C398 H386 0.930 . S
C398 C399 1.399 . S
C398 C403 1.399 . S
C399 C398 1.399 . S
C399 C400 1.376 1_556 S
C400 H387 0.930 . S
C400 C399 1.376 1_554 S
C400 C401 1.388 . S
C401 H388 0.930 . S
C401 C400 1.388 . S
C401 C402 1.390 . S
C402 C401 1.390 . S
C402 C403 1.394 1_554 S
C402 C408 1.465 . S
C403 C398 1.399 . S
C403 C402 1.394 1_556 S
C403 C404 1.516 . S
C404 C403 1.516 . S
C404 C405 1.502 . S
C404 C406 1.561 . S
C404 C407 1.526 . S
C405 H389 0.959 . S
C405 H390 0.959 . S
C405 H391 0.961 . S
C405 C404 1.502 . S
C406 H392 0.960 . S
C406 H393 0.961 . S
C406 H394 0.959 . S
C406 C404 1.561 . S
C407 C404 1.526 . S
C407 C408 1.396 1_556 S
C407 C412 1.390 . S
C408 C402 1.465 . S
C408 C407 1.396 1_554 S
C408 C409 1.399 . S
C409 H395 0.929 . S
C409 C408 1.399 . S
C409 C410 1.385 . S
C410 H396 0.931 . S
C410 C409 1.385 . S
C410 C411 1.389 . S
C411 C410 1.389 . S
C411 C412 1.387 1_554 S
C412 H397 0.930 . S
C412 C407 1.390 . S
C412 C411 1.387 1_556 S
H413 C425 0.930 . S
H414 C427 0.930 . S
H415 C428 0.930 . S
H416 C432 0.959 . S
H417 C432 0.959 . S
H418 C432 0.961 . S
H419 C433 0.960 . S
H420 C433 0.961 . S
H421 C433 0.959 . S
H422 C436 0.929 . S
H423 C437 0.931 . S
H424 C439 0.930 . S
C425 H413 0.930 . S
C425 C426 1.399 . S
C425 C430 1.399 . S
C426 C425 1.399 . S
C426 C427 1.376 . S
C427 H414 0.930 . S
C427 C426 1.376 . S
C427 C428 1.388 . S
C428 H415 0.930 . S
C428 C427 1.388 . S
C428 C429 1.390 . S
C429 C428 1.390 . S
C429 C430 1.394 . S
C429 C435 1.465 . S
C430 C425 1.399 . S
C430 C429 1.394 . S
C430 C431 1.516 . S
C431 C430 1.516 . S
C431 C432 1.502 . S
C431 C433 1.561 . S
C431 C434 1.526 . S
C432 H416 0.959 . S
C432 H417 0.959 . S
C432 H418 0.961 . S
C432 C431 1.502 . S
C433 H419 0.960 . S
C433 H420 0.961 . S
C433 H421 0.959 . S
C433 C431 1.561 . S
C434 C431 1.526 . S
C434 C435 1.396 . S
C434 C439 1.390 . S
C435 C429 1.465 . S
C435 C434 1.396 . S
C435 C436 1.399 . S
C436 H422 0.929 . S
C436 C435 1.399 . S
C436 C437 1.385 . S
C437 H423 0.931 . S
C437 C436 1.385 . S
C437 C438 1.389 . S
C438 C437 1.389 . S
C438 C439 1.387 . S
C439 H424 0.930 . S
C439 C434 1.390 . S
C439 C438 1.387 . S
H440 C452 0.930 . S
H441 C454 0.930 1_554 S
H442 C455 0.930 . S
H443 C459 0.959 . S
H444 C459 0.959 . S
H445 C459 0.961 . S
H446 C460 0.960 . S
H447 C460 0.961 . S
H448 C460 0.959 . S
H449 C463 0.929 . S
H450 C464 0.931 . S
H451 C466 0.930 . S
C452 H440 0.930 . S
C452 C453 1.399 . S
C452 C457 1.399 . S
C453 C452 1.399 . S
C453 C454 1.376 . S
C454 H441 0.930 1_556 S
C454 C453 1.376 . S
C454 C455 1.388 . S
C455 H442 0.930 . S
C455 C454 1.388 . S
C455 C456 1.390 . S
C456 C455 1.390 . S
C456 C457 1.394 . S
C456 C462 1.465 . S
C457 C452 1.399 . S
C457 C456 1.394 . S
C457 C458 1.516 . S
C458 C457 1.516 . S
C458 C459 1.502 . S
C458 C460 1.561 . S
C458 C461 1.526 . S
C459 H443 0.959 . S
C459 H444 0.959 . S
C459 H445 0.961 . S
C459 C458 1.502 . S
C460 H446 0.960 . S
C460 H447 0.961 . S
C460 H448 0.959 . S
C460 C458 1.561 . S
C461 C458 1.526 . S
C461 C462 1.396 . S
C461 C466 1.390 . S
C462 C456 1.465 . S
C462 C461 1.396 . S
C462 C463 1.399 . S
C463 H449 0.929 . S
C463 C462 1.399 . S
C463 C464 1.385 . S
C464 H450 0.931 . S
C464 C463 1.385 . S
C464 C465 1.389 . S
C465 C464 1.389 . S
C465 C466 1.387 . S
C466 H451 0.930 . S
C466 C461 1.390 . S
C466 C465 1.387 . S
H467 C479 0.930 . S
H468 C481 0.930 . S
H469 C482 0.930 . S
H470 C486 0.959 . S
H471 C486 0.959 . S
H472 C486 0.961 . S
H473 C487 0.960 . S
H474 C487 0.961 . S
H475 C487 0.959 . S
H476 C490 0.929 . S
H477 C491 0.931 . S
H478 C493 0.930 . S
C479 H467 0.930 . S
C479 C480 1.399 . S
C479 C484 1.399 . S
C480 C479 1.399 . S
C480 C481 1.376 . S
C481 H468 0.930 . S
C481 C480 1.376 . S
C481 C482 1.388 . S
C482 H469 0.930 . S
C482 C481 1.388 . S
C482 C483 1.390 . S
C483 C482 1.390 . S
C483 C484 1.394 . S
C483 C489 1.465 . S
C484 C479 1.399 . S
C484 C483 1.394 . S
C484 C485 1.516 . S
C485 C484 1.516 . S
C485 C486 1.502 . S
C485 C487 1.561 . S
C485 C488 1.526 . S
C486 H470 0.959 . S
C486 H471 0.959 . S
C486 H472 0.961 . S
C486 C485 1.502 . S
C487 H473 0.960 . S
C487 H474 0.961 . S
C487 H475 0.959 . S
C487 C485 1.561 . S
C488 C485 1.526 . S
C488 C489 1.396 . S
C488 C493 1.390 . S
C489 C483 1.465 . S
C489 C488 1.396 . S
C489 C490 1.399 . S
C490 H476 0.929 . S
C490 C489 1.399 . S
C490 C491 1.385 . S
C491 H477 0.931 . S
C491 C490 1.385 . S
C491 C492 1.389 . S
C492 C491 1.389 . S
C492 C493 1.387 . S
C493 H478 0.930 . S
C493 C488 1.390 . S
C493 C492 1.387 . S
H494 C506 0.930 . S
H495 C508 0.930 1_554 S
H496 C509 0.930 . S
H497 C513 0.959 . S
H498 C513 0.959 . S
H499 C513 0.961 . S
H500 C514 0.960 . S
H501 C514 0.961 . S
H502 C514 0.959 . S
H503 C517 0.929 . S
H504 C518 0.931 . S
H505 C520 0.930 . S
C506 H494 0.930 . S
C506 C507 1.399 . S
C506 C511 1.399 . S
C507 C506 1.399 . S
C507 C508 1.376 . S
C508 H495 0.930 1_556 S
C508 C507 1.376 . S
C508 C509 1.388 . S
C509 H496 0.930 . S
C509 C508 1.388 . S
C509 C510 1.390 . S
C510 C509 1.390 . S
C510 C511 1.394 . S
C510 C516 1.465 . S
C511 C506 1.399 . S
C511 C510 1.394 . S
C511 C512 1.516 . S
C512 C511 1.516 . S
C512 C513 1.502 . S
C512 C514 1.561 . S
C512 C515 1.526 . S
C513 H497 0.959 . S
C513 H498 0.959 . S
C513 H499 0.961 . S
C513 C512 1.502 . S
C514 H500 0.960 . S
C514 H501 0.961 . S
C514 H502 0.959 . S
C514 C512 1.561 . S
C515 C512 1.526 . S
C515 C516 1.396 . S
C515 C520 1.390 . S
C516 C510 1.465 . S
C516 C515 1.396 . S
C516 C517 1.399 . S
C517 H503 0.929 . S
C517 C516 1.399 . S
C517 C518 1.385 . S
C518 H504 0.931 . S
C518 C517 1.385 . S
C518 C519 1.389 . S
C519 C518 1.389 . S
C519 C520 1.387 . S
C520 H505 0.930 . S
C520 C515 1.390 . S
C520 C519 1.387 . S
H521 C533 0.930 . S
H522 C535 0.930 . S
H523 C536 0.930 . S
H524 C540 0.959 . S
H525 C540 0.959 . S
H526 C540 0.961 . S
H527 C541 0.960 . S
H528 C541 0.961 . S
H529 C541 0.959 . S
H530 C544 0.929 . S
H531 C545 0.931 . S
H532 C547 0.930 . S
C533 H521 0.930 . S
C533 C534 1.399 . S
C533 C538 1.399 . S
C534 C533 1.399 . S
C534 C535 1.376 . S
C535 H522 0.930 . S
C535 C534 1.376 . S
C535 C536 1.388 . S
C536 H523 0.930 . S
C536 C535 1.388 . S
C536 C537 1.390 . S
C537 C536 1.390 . S
C537 C538 1.394 . S
C537 C543 1.465 . S
C538 C533 1.399 . S
C538 C537 1.394 . S
C538 C539 1.516 . S
C539 C538 1.516 . S
C539 C540 1.502 . S
C539 C541 1.561 . S
C539 C542 1.526 . S
C540 H524 0.959 . S
C540 H525 0.959 . S
C540 H526 0.961 . S
C540 C539 1.502 . S
C541 H527 0.960 . S
C541 H528 0.961 . S
C541 H529 0.959 . S
C541 C539 1.561 . S
C542 C539 1.526 . S
C542 C543 1.396 . S
C542 C547 1.390 . S
C543 C537 1.465 . S
C543 C542 1.396 . S
C543 C544 1.399 . S
C544 H530 0.929 . S
C544 C543 1.399 . S
C544 C545 1.385 . S
C545 H531 0.931 . S
C545 C544 1.385 . S
C545 C546 1.389 . S
C546 C545 1.389 . S
C546 C547 1.387 . S
C547 H532 0.930 . S
C547 C542 1.390 . S
C547 C546 1.387 . S
H548 C560 0.930 . S
H549 C562 0.930 . S
H550 C563 0.930 . S
H551 C567 0.959 . S
H552 C567 0.959 . S
H553 C567 0.961 . S
H554 C568 0.960 . S
H555 C568 0.961 . S
H556 C568 0.959 . S
H557 C571 0.929 . S
H558 C572 0.931 . S
H559 C574 0.930 . S
C560 H548 0.930 . S
C560 C561 1.399 . S
C560 C565 1.399 . S
C561 C560 1.399 . S
C561 C562 1.376 . S
C562 H549 0.930 . S
C562 C561 1.376 . S
C562 C563 1.388 . S
C563 H550 0.930 . S
C563 C562 1.388 . S
C563 C564 1.390 . S
C564 C563 1.390 . S
C564 C565 1.394 . S
C564 C570 1.465 . S
C565 C560 1.399 . S
C565 C564 1.394 . S
C565 C566 1.516 . S
C566 C565 1.516 . S
C566 C567 1.502 . S
C566 C568 1.561 . S
C566 C569 1.526 . S
C567 H551 0.959 . S
C567 H552 0.959 . S
C567 H553 0.961 . S
C567 C566 1.502 . S
C568 H554 0.960 . S
C568 H555 0.961 . S
C568 H556 0.959 . S
C568 C566 1.561 . S
C569 C566 1.526 . S
C569 C570 1.396 . S
C569 C574 1.390 . S
C570 C564 1.465 . S
C570 C569 1.396 . S
C570 C571 1.399 . S
C571 H557 0.929 . S
C571 C570 1.399 . S
C571 C572 1.385 . S
C572 H558 0.931 . S
C572 C571 1.385 . S
C572 C573 1.389 . S
C573 C572 1.389 . S
C573 C574 1.387 . S
C574 H559 0.930 . S
C574 C569 1.390 . S
C574 C573 1.387 . S
H575 C587 0.930 . S
H576 C589 0.930 . S
H577 C590 0.930 . S
H578 C594 0.959 . S
H579 C594 0.959 . S
H580 C594 0.961 . S
H581 C595 0.960 . S
H582 C595 0.961 . S
H583 C595 0.959 . S
H584 C598 0.929 . S
H585 C599 0.931 . S
H586 C601 0.930 . S
C587 H575 0.930 . S
C587 C588 1.399 . S
C587 C592 1.399 . S
C588 C587 1.399 . S
C588 C589 1.376 . S
C589 H576 0.930 . S
C589 C588 1.376 . S
C589 C590 1.388 . S
C590 H577 0.930 . S
C590 C589 1.388 . S
C590 C591 1.390 . S
C591 C590 1.390 . S
C591 C592 1.394 . S
C591 C597 1.465 . S
C592 C587 1.399 . S
C592 C591 1.394 . S
C592 C593 1.516 . S
C593 C592 1.516 . S
C593 C594 1.502 . S
C593 C595 1.561 . S
C593 C596 1.526 . S
C594 H578 0.959 . S
C594 H579 0.959 . S
C594 H580 0.961 . S
C594 C593 1.502 . S
C595 H581 0.960 . S
C595 H582 0.961 . S
C595 H583 0.959 . S
C595 C593 1.561 . S
C596 C593 1.526 . S
C596 C597 1.396 . S
C596 C601 1.390 . S
C597 C591 1.465 . S
C597 C596 1.396 . S
C597 C598 1.399 . S
C598 H584 0.929 . S
C598 C597 1.399 . S
C598 C599 1.385 . S
C599 H585 0.931 . S
C599 C598 1.385 . S
C599 C600 1.389 . S
C600 C599 1.389 . S
C600 C601 1.387 . S
C601 H586 0.930 . S
C601 C596 1.390 . S
C601 C600 1.387 . S
H602 C614 0.930 . S
H603 C616 0.930 . S
H604 C617 0.930 . S
H605 C621 0.959 . S
H606 C621 0.959 . S
H607 C621 0.961 . S
H608 C622 0.960 . S
H609 C622 0.961 . S
H610 C622 0.959 . S
H611 C625 0.929 . S
H612 C626 0.931 . S
H613 C628 0.930 . S
C614 H602 0.930 . S
C614 C615 1.399 . S
C614 C619 1.399 . S
C615 C614 1.399 . S
C615 C616 1.376 . S
C616 H603 0.930 . S
C616 C615 1.376 . S
C616 C617 1.388 . S
C617 H604 0.930 . S
C617 C616 1.388 . S
C617 C618 1.390 . S
C618 C617 1.390 . S
C618 C619 1.394 . S
C618 C624 1.465 . S
C619 C614 1.399 . S
C619 C618 1.394 . S
C619 C620 1.516 . S
C620 C619 1.516 . S
C620 C621 1.502 . S
C620 C622 1.561 . S
C620 C623 1.526 . S
C621 H605 0.959 . S
C621 H606 0.959 . S
C621 H607 0.961 . S
C621 C620 1.502 . S
C622 H608 0.960 . S
C622 H609 0.961 . S
C622 H610 0.959 . S
C622 C620 1.561 . S
C623 C620 1.526 . S
C623 C624 1.396 . S
C623 C628 1.390 . S
C624 C618 1.465 . S
C624 C623 1.396 . S
C624 C625 1.399 . S
C625 H611 0.929 . S
C625 C624 1.399 . S
C625 C626 1.385 . S
C626 H612 0.931 . S
C626 C625 1.385 . S
C626 C627 1.389 . S
C627 C626 1.389 . S
C627 C628 1.387 . S
C628 H613 0.930 . S
C628 C623 1.390 . S
C628 C627 1.387 . S
H629 C641 0.930 . S
H630 C643 0.930 . S
H631 C644 0.930 . S
H632 C648 0.959 . S
H633 C648 0.959 . S
H634 C648 0.961 . S
H635 C649 0.960 . S
H636 C649 0.961 . S
H637 C649 0.959 . S
H638 C652 0.929 . S
H639 C653 0.931 . S
H640 C655 0.930 . S
C641 H629 0.930 . S
C641 C642 1.399 . S
C641 C646 1.399 . S
C642 C641 1.399 . S
C642 C643 1.376 . S
C643 H630 0.930 . S
C643 C642 1.376 . S
C643 C644 1.388 . S
C644 H631 0.930 . S
C644 C643 1.388 . S
C644 C645 1.390 . S
C645 C644 1.390 . S
C645 C646 1.394 . S
C645 C651 1.465 . S
C646 C641 1.399 . S
C646 C645 1.394 . S
C646 C647 1.516 . S
C647 C646 1.516 . S
C647 C648 1.502 . S
C647 C649 1.561 . S
C647 C650 1.526 . S
C648 H632 0.959 . S
C648 H633 0.959 . S
C648 H634 0.961 . S
C648 C647 1.502 . S
C649 H635 0.960 . S
C649 H636 0.961 . S
C649 H637 0.959 . S
C649 C647 1.561 . S
C650 C647 1.526 . S
C650 C651 1.396 . S
C650 C655 1.390 . S
C651 C645 1.465 . S
C651 C650 1.396 . S
C651 C652 1.399 . S
C652 H638 0.929 . S
C652 C651 1.399 . S
C652 C653 1.385 . S
C653 H639 0.931 . S
C653 C652 1.385 . S
C653 C654 1.389 . S
C654 C653 1.389 . S
C654 C655 1.387 . S
C655 H640 0.930 . S
C655 C650 1.390 . S
C655 C654 1.387 . S
H656 C668 0.930 . S
H657 C670 0.930 . S
H658 C671 0.930 . S
H659 C675 0.959 . S
H660 C675 0.959 . S
H661 C675 0.961 . S
H662 C676 0.960 . S
H663 C676 0.961 . S
H664 C676 0.959 . S
H665 C679 0.929 . S
H666 C680 0.931 . S
H667 C682 0.930 . S
C668 H656 0.930 . S
C668 C669 1.399 . S
C668 C673 1.399 . S
C669 C668 1.399 . S
C669 C670 1.376 . S
C670 H657 0.930 . S
C670 C669 1.376 . S
C670 C671 1.388 . S
C671 H658 0.930 . S
C671 C670 1.388 . S
C671 C672 1.390 . S
C672 C671 1.390 . S
C672 C673 1.394 . S
C672 C678 1.465 . S
C673 C668 1.399 . S
C673 C672 1.394 . S
C673 C674 1.516 . S
C674 C673 1.516 . S
C674 C675 1.502 . S
C674 C676 1.561 . S
C674 C677 1.526 . S
C675 H659 0.959 . S
C675 H660 0.959 . S
C675 H661 0.961 . S
C675 C674 1.502 . S
C676 H662 0.960 . S
C676 H663 0.961 . S
C676 H664 0.959 . S
C676 C674 1.561 . S
C677 C674 1.526 . S
C677 C678 1.396 . S
C677 C682 1.390 . S
C678 C672 1.465 . S
C678 C677 1.396 . S
C678 C679 1.399 . S
C679 H665 0.929 . S
C679 C678 1.399 . S
C679 C680 1.385 . S
C680 H666 0.931 . S
C680 C679 1.385 . S
C680 C681 1.389 . S
C681 C680 1.389 . S
C681 C682 1.387 . S
C682 H667 0.930 . S
C682 C677 1.390 . S
C682 C681 1.387 . S
H683 C695 0.930 . S
H684 C697 0.930 . S
H685 C698 0.930 . S
H686 C702 0.959 . S
H687 C702 0.959 . S
H688 C702 0.961 . S
H689 C703 0.960 . S
H690 C703 0.961 . S
H691 C703 0.959 . S
H692 C706 0.929 . S
H693 C707 0.931 . S
H694 C709 0.930 . S
C695 H683 0.930 . S
C695 C696 1.399 . S
C695 C700 1.399 . S
C696 C695 1.399 . S
C696 C697 1.376 . S
C697 H684 0.930 . S
C697 C696 1.376 . S
C697 C698 1.388 . S
C698 H685 0.930 . S
C698 C697 1.388 . S
C698 C699 1.390 . S
C699 C698 1.390 . S
C699 C700 1.394 . S
C699 C705 1.465 . S
C700 C695 1.399 . S
C700 C699 1.394 . S
C700 C701 1.516 . S
C701 C700 1.516 . S
C701 C702 1.502 . S
C701 C703 1.561 . S
C701 C704 1.526 . S
C702 H686 0.959 . S
C702 H687 0.959 . S
C702 H688 0.961 . S
C702 C701 1.502 . S
C703 H689 0.960 . S
C703 H690 0.961 . S
C703 H691 0.959 . S
C703 C701 1.561 . S
C704 C701 1.526 . S
C704 C705 1.396 . S
C704 C709 1.390 . S
C705 C699 1.465 . S
C705 C704 1.396 . S
C705 C706 1.399 . S
C706 H692 0.929 . S
C706 C705 1.399 . S
C706 C707 1.385 . S
C707 H693 0.931 . S
C707 C706 1.385 . S
C707 C708 1.389 . S
C708 C707 1.389 . S
C708 C709 1.387 . S
C709 H694 0.930 . S
C709 C704 1.390 . S
C709 C708 1.387 . S
H710 C722 0.930 . S
H711 C724 0.930 . S
H712 C725 0.930 . S
H713 C729 0.959 . S
H714 C729 0.959 . S
H715 C729 0.961 . S
H716 C730 0.960 . S
H717 C730 0.961 . S
H718 C730 0.959 . S
H719 C733 0.929 . S
H720 C734 0.931 . S
H721 C736 0.930 . S
C722 H710 0.930 . S
C722 C723 1.399 . S
C722 C727 1.399 . S
C723 C722 1.399 . S
C723 C724 1.376 . S
C724 H711 0.930 . S
C724 C723 1.376 . S
C724 C725 1.388 . S
C725 H712 0.930 . S
C725 C724 1.388 . S
C725 C726 1.390 . S
C726 C725 1.390 . S
C726 C727 1.394 . S
C726 C732 1.465 . S
C727 C722 1.399 . S
C727 C726 1.394 . S
C727 C728 1.516 . S
C728 C727 1.516 . S
C728 C729 1.502 . S
C728 C730 1.561 . S
C728 C731 1.526 . S
C729 H713 0.959 . S
C729 H714 0.959 . S
C729 H715 0.961 . S
C729 C728 1.502 . S
C730 H716 0.960 . S
C730 H717 0.961 . S
C730 H718 0.959 . S
C730 C728 1.561 . S
C731 C728 1.526 . S
C731 C732 1.396 . S
C731 C736 1.390 . S
C732 C726 1.465 . S
C732 C731 1.396 . S
C732 C733 1.399 . S
C733 H719 0.929 . S
C733 C732 1.399 . S
C733 C734 1.385 . S
C734 H720 0.931 . S
C734 C733 1.385 . S
C734 C735 1.389 . S
C735 C734 1.389 . S
C735 C736 1.387 . S
C736 H721 0.930 . S
C736 C731 1.390 . S
C736 C735 1.387 . S
H737 C749 0.930 . S
H738 C751 0.930 . S
H739 C752 0.930 . S
H740 C756 0.959 . S
H741 C756 0.959 . S
H742 C756 0.961 . S
H743 C757 0.960 . S
H744 C757 0.961 . S
H745 C757 0.959 . S
H746 C760 0.929 . S
H747 C761 0.931 . S
H748 C763 0.930 . S
C749 H737 0.930 . S
C749 C750 1.399 . S
C749 C754 1.399 . S
C750 C749 1.399 . S
C750 C751 1.376 . S
C751 H738 0.930 . S
C751 C750 1.376 . S
C751 C752 1.388 . S
C752 H739 0.930 . S
C752 C751 1.388 . S
C752 C753 1.390 . S
C753 C752 1.390 . S
C753 C754 1.394 . S
C753 C759 1.465 . S
C754 C749 1.399 . S
C754 C753 1.394 . S
C754 C755 1.516 . S
C755 C754 1.516 . S
C755 C756 1.502 . S
C755 C757 1.561 . S
C755 C758 1.526 . S
C756 H740 0.959 . S
C756 H741 0.959 . S
C756 H742 0.961 . S
C756 C755 1.502 . S
C757 H743 0.960 . S
C757 H744 0.961 . S
C757 H745 0.959 . S
C757 C755 1.561 . S
C758 C755 1.526 . S
C758 C759 1.396 . S
C758 C763 1.390 . S
C759 C753 1.465 . S
C759 C758 1.396 . S
C759 C760 1.399 . S
C760 H746 0.929 . S
C760 C759 1.399 . S
C760 C761 1.385 . S
C761 H747 0.931 . S
C761 C760 1.385 . S
C761 C762 1.389 . S
C762 C761 1.389 . S
C762 C763 1.387 . S
C763 H748 0.930 . S
C763 C758 1.390 . S
C763 C762 1.387 . S
H764 C776 0.930 . S
H765 C778 0.930 . S
H766 C779 0.930 . S
H767 C783 0.959 . S
H768 C783 0.959 . S
H769 C783 0.961 . S
H770 C784 0.960 . S
H771 C784 0.961 . S
H772 C784 0.959 . S
H773 C787 0.929 . S
H774 C788 0.931 1_554 S
H775 C790 0.930 . S
C776 H764 0.930 . S
C776 C777 1.399 . S
C776 C781 1.399 . S
C777 C776 1.399 . S
C777 C778 1.376 . S
C778 H765 0.930 . S
C778 C777 1.376 . S
C778 C779 1.388 . S
C779 H766 0.930 . S
C779 C778 1.388 . S
C779 C780 1.390 . S
C780 C779 1.390 . S
C780 C781 1.394 . S
C780 C786 1.465 . S
C781 C776 1.399 . S
C781 C780 1.394 . S
C781 C782 1.516 . S
C782 C781 1.516 . S
C782 C783 1.502 . S
C782 C784 1.561 . S
C782 C785 1.526 . S
C783 H767 0.959 . S
C783 H768 0.959 . S
C783 H769 0.961 . S
C783 C782 1.502 . S
C784 H770 0.960 . S
C784 H771 0.961 . S
C784 H772 0.959 . S
C784 C782 1.561 . S
C785 C782 1.526 . S
C785 C786 1.396 . S
C785 C790 1.390 . S
C786 C780 1.465 . S
C786 C785 1.396 . S
C786 C787 1.399 . S
C787 H773 0.929 . S
C787 C786 1.399 . S
C787 C788 1.385 . S
C788 H774 0.931 1_556 S
C788 C787 1.385 . S
C788 C789 1.389 . S
C789 C788 1.389 . S
C789 C790 1.387 . S
C790 H775 0.930 . S
C790 C785 1.390 . S
C790 C789 1.387 . S
H791 C803 0.930 . S
H792 C805 0.930 . S
H793 C806 0.930 . S
H794 C810 0.959 . S
H795 C810 0.959 . S
H796 C810 0.961 . S
H797 C811 0.960 . S
H798 C811 0.961 . S
H799 C811 0.959 . S
H800 C814 0.929 . S
H801 C815 0.931 . S
H802 C817 0.930 . S
C803 H791 0.930 . S
C803 C804 1.399 . S
C803 C808 1.399 . S
C804 C803 1.399 . S
C804 C805 1.376 . S
C805 H792 0.930 . S
C805 C804 1.376 . S
C805 C806 1.388 . S
C806 H793 0.930 . S
C806 C805 1.388 . S
C806 C807 1.390 . S
C807 C806 1.390 . S
C807 C808 1.394 . S
C807 C813 1.465 . S
C808 C803 1.399 . S
C808 C807 1.394 . S
C808 C809 1.516 . S
C809 C808 1.516 . S
C809 C810 1.502 . S
C809 C811 1.561 . S
C809 C812 1.526 . S
C810 H794 0.959 . S
C810 H795 0.959 . S
C810 H796 0.961 . S
C810 C809 1.502 . S
C811 H797 0.960 . S
C811 H798 0.961 . S
C811 H799 0.959 . S
C811 C809 1.561 . S
C812 C809 1.526 . S
C812 C813 1.396 . S
C812 C817 1.390 . S
C813 C807 1.465 . S
C813 C812 1.396 . S
C813 C814 1.399 . S
C814 H800 0.929 . S
C814 C813 1.399 . S
C814 C815 1.385 . S
C815 H801 0.931 . S
C815 C814 1.385 . S
C815 C816 1.389 . S
C816 C815 1.389 . S
C816 C817 1.387 . S
C817 H802 0.930 . S
C817 C812 1.390 . S
C817 C816 1.387 . S
H818 C830 0.930 . S
H819 C832 0.930 . S
H820 C833 0.930 . S
H821 C837 0.959 . S
H822 C837 0.959 . S
H823 C837 0.961 . S
H824 C838 0.960 . S
H825 C838 0.961 . S
H826 C838 0.959 . S
H827 C841 0.929 . S
H828 C842 0.931 . S
H829 C844 0.930 . S
C830 H818 0.930 . S
C830 C831 1.399 . S
C830 C835 1.399 . S
C831 C830 1.399 . S
C831 C832 1.376 . S
C832 H819 0.930 . S
C832 C831 1.376 . S
C832 C833 1.388 . S
C833 H820 0.930 . S
C833 C832 1.388 . S
C833 C834 1.390 . S
C834 C833 1.390 . S
C834 C835 1.394 . S
C834 C840 1.465 . S
C835 C830 1.399 . S
C835 C834 1.394 . S
C835 C836 1.516 . S
C836 C835 1.516 . S
C836 C837 1.502 . S
C836 C838 1.561 . S
C836 C839 1.526 . S
C837 H821 0.959 . S
C837 H822 0.959 . S
C837 H823 0.961 . S
C837 C836 1.502 . S
C838 H824 0.960 . S
C838 H825 0.961 . S
C838 H826 0.959 . S
C838 C836 1.561 . S
C839 C836 1.526 . S
C839 C840 1.396 . S
C839 C844 1.390 . S
C840 C834 1.465 . S
C840 C839 1.396 . S
C840 C841 1.399 . S
C841 H827 0.929 . S
C841 C840 1.399 . S
C841 C842 1.385 . S
C842 H828 0.931 . S
C842 C841 1.385 . S
C842 C843 1.389 . S
C843 C842 1.389 . S
C843 C844 1.387 . S
C844 H829 0.930 . S
C844 C839 1.390 . S
C844 C843 1.387 . S
H845 C857 0.930 . S
H846 C859 0.930 . S
H847 C860 0.930 . S
H848 C864 0.959 . S
H849 C864 0.959 . S
H850 C864 0.961 . S
H851 C865 0.960 . S
H852 C865 0.961 . S
H853 C865 0.959 . S
H854 C868 0.929 . S
H855 C869 0.931 . S
H856 C871 0.930 . S
C857 H845 0.930 . S
C857 C858 1.399 . S
C857 C862 1.399 . S
C858 C857 1.399 . S
C858 C859 1.376 . S
C859 H846 0.930 . S
C859 C858 1.376 . S
C859 C860 1.388 . S
C860 H847 0.930 . S
C860 C859 1.388 . S
C860 C861 1.390 . S
C861 C860 1.390 . S
C861 C862 1.394 . S
C861 C867 1.465 . S
C862 C857 1.399 . S
C862 C861 1.394 . S
C862 C863 1.516 . S
C863 C862 1.516 . S
C863 C864 1.502 . S
C863 C865 1.561 . S
C863 C866 1.526 . S
C864 H848 0.959 . S
C864 H849 0.959 . S
C864 H850 0.961 . S
C864 C863 1.502 . S
C865 H851 0.960 . S
C865 H852 0.961 . S
C865 H853 0.959 . S
C865 C863 1.561 . S
C866 C863 1.526 . S
C866 C867 1.396 . S
C866 C871 1.390 . S
C867 C861 1.465 . S
C867 C866 1.396 . S
C867 C868 1.399 . S
C868 H854 0.929 . S
C868 C867 1.399 . S
C868 C869 1.385 . S
C869 H855 0.931 . S
C869 C868 1.385 . S
C869 C870 1.389 . S
C870 C869 1.389 . S
C870 C871 1.387 . S
C871 H856 0.930 . S
C871 C866 1.390 . S
C871 C870 1.387 . S
H872 C884 0.930 . S
H873 C886 0.930 . S
H874 C887 0.930 . S
H875 C891 0.959 . S
H876 C891 0.959 . S
H877 C891 0.961 . S
H878 C892 0.960 . S
H879 C892 0.961 . S
H880 C892 0.959 . S
H881 C895 0.929 . S
H882 C896 0.931 . S
H883 C898 0.930 . S
C884 H872 0.930 . S
C884 C885 1.399 . S
C884 C889 1.399 . S
C885 C884 1.399 . S
C885 C886 1.376 . S
C886 H873 0.930 . S
C886 C885 1.376 . S
C886 C887 1.388 . S
C887 H874 0.930 . S
C887 C886 1.388 . S
C887 C888 1.390 . S
C888 C887 1.390 . S
C888 C889 1.394 . S
C888 C894 1.465 . S
C889 C884 1.399 . S
C889 C888 1.394 . S
C889 C890 1.516 . S
C890 C889 1.516 . S
C890 C891 1.502 . S
C890 C892 1.561 . S
C890 C893 1.526 . S
C891 H875 0.959 . S
C891 H876 0.959 . S
C891 H877 0.961 . S
C891 C890 1.502 . S
C892 H878 0.960 . S
C892 H879 0.961 . S
C892 H880 0.959 . S
C892 C890 1.561 . S
C893 C890 1.526 . S
C893 C894 1.396 . S
C893 C898 1.390 . S
C894 C888 1.465 . S
C894 C893 1.396 . S
C894 C895 1.399 . S
C895 H881 0.929 . S
C895 C894 1.399 . S
C895 C896 1.385 . S
C896 H882 0.931 . S
C896 C895 1.385 . S
C896 C897 1.389 . S
C897 C896 1.389 . S
C897 C898 1.387 . S
C898 H883 0.930 . S
C898 C893 1.390 . S
C898 C897 1.387 . S
H899 C911 0.930 . S
H900 C913 0.930 . S
H901 C914 0.930 . S
H902 C918 0.959 . S
H903 C918 0.959 . S
H904 C918 0.961 . S
H905 C919 0.960 . S
H906 C919 0.961 . S
H907 C919 0.959 . S
H908 C922 0.929 . S
H909 C923 0.931 . S
H910 C925 0.930 . S
C911 H899 0.930 . S
C911 C912 1.399 . S
C911 C916 1.399 . S
C912 C911 1.399 . S
C912 C913 1.376 . S
C913 H900 0.930 . S
C913 C912 1.376 . S
C913 C914 1.388 . S
C914 H901 0.930 . S
C914 C913 1.388 . S
C914 C915 1.390 . S
C915 C914 1.390 . S
C915 C916 1.394 . S
C915 C921 1.465 . S
C916 C911 1.399 . S
C916 C915 1.394 . S
C916 C917 1.516 . S
C917 C916 1.516 . S
C917 C918 1.502 . S
C917 C919 1.561 . S
C917 C920 1.526 . S
C918 H902 0.959 . S
C918 H903 0.959 . S
C918 H904 0.961 . S
C918 C917 1.502 . S
C919 H905 0.960 . S
C919 H906 0.961 . S
C919 H907 0.959 . S
C919 C917 1.561 . S
C920 C917 1.526 . S
C920 C921 1.396 . S
C920 C925 1.390 . S
C921 C915 1.465 . S
C921 C920 1.396 . S
C921 C922 1.399 . S
C922 H908 0.929 . S
C922 C921 1.399 . S
C922 C923 1.385 . S
C923 H909 0.931 . S
C923 C922 1.385 . S
C923 C924 1.389 . S
C924 C923 1.389 . S
C924 C925 1.387 . S
C925 H910 0.930 . S
C925 C920 1.390 . S
C925 C924 1.387 . S
H926 C938 0.930 . S
H927 C940 0.930 . S
H928 C941 0.930 . S
H929 C945 0.959 . S
H930 C945 0.959 . S
H931 C945 0.961 . S
H932 C946 0.960 . S
H933 C946 0.961 . S
H934 C946 0.959 . S
H935 C949 0.929 . S
H936 C950 0.931 . S
H937 C952 0.930 . S
C938 H926 0.930 . S
C938 C939 1.399 . S
C938 C943 1.399 . S
C939 C938 1.399 . S
C939 C940 1.376 . S
C940 H927 0.930 . S
C940 C939 1.376 . S
C940 C941 1.388 . S
C941 H928 0.930 . S
C941 C940 1.388 . S
C941 C942 1.390 . S
C942 C941 1.390 . S
C942 C943 1.394 . S
C942 C948 1.465 . S
C943 C938 1.399 . S
C943 C942 1.394 . S
C943 C944 1.516 . S
C944 C943 1.516 . S
C944 C945 1.502 . S
C944 C946 1.561 . S
C944 C947 1.526 . S
C945 H929 0.959 . S
C945 H930 0.959 . S
C945 H931 0.961 . S
C945 C944 1.502 . S
C946 H932 0.960 . S
C946 H933 0.961 . S
C946 H934 0.959 . S
C946 C944 1.561 . S
C947 C944 1.526 . S
C947 C948 1.396 . S
C947 C952 1.390 . S
C948 C942 1.465 . S
C948 C947 1.396 . S
C948 C949 1.399 . S
C949 H935 0.929 . S
C949 C948 1.399 . S
C949 C950 1.385 . S
C950 H936 0.931 . S
C950 C949 1.385 . S
C950 C951 1.389 . S
C951 C950 1.389 . S
C951 C952 1.387 . S
C952 H937 0.930 . S
C952 C947 1.390 . S
C952 C951 1.387 . S
H953 C965 0.930 . S
H954 C967 0.930 . S
H955 C968 0.930 . S
H956 C972 0.959 . S
H957 C972 0.959 . S
H958 C972 0.961 . S
H959 C973 0.960 . S
H960 C973 0.961 . S
H961 C973 0.959 . S
H962 C976 0.929 . S
H963 C977 0.931 . S
H964 C979 0.930 . S
C965 H953 0.930 . S
C965 C966 1.399 . S
C965 C970 1.399 . S
C966 C965 1.399 . S
C966 C967 1.376 . S
C967 H954 0.930 . S
C967 C966 1.376 . S
C967 C968 1.388 . S
C968 H955 0.930 . S
C968 C967 1.388 . S
C968 C969 1.390 . S
C969 C968 1.390 . S
C969 C970 1.394 . S
C969 C975 1.465 . S
C970 C965 1.399 . S
C970 C969 1.394 . S
C970 C971 1.516 . S
C971 C970 1.516 . S
C971 C972 1.502 . S
C971 C973 1.561 . S
C971 C974 1.526 . S
C972 H956 0.959 . S
C972 H957 0.959 . S
C972 H958 0.961 . S
C972 C971 1.502 . S
C973 H959 0.960 . S
C973 H960 0.961 . S
C973 H961 0.959 . S
C973 C971 1.561 . S
C974 C971 1.526 . S
C974 C975 1.396 . S
C974 C979 1.390 . S
C975 C969 1.465 . S
C975 C974 1.396 . S
C975 C976 1.399 . S
C976 H962 0.929 . S
C976 C975 1.399 . S
C976 C977 1.385 . S
C977 H963 0.931 . S
C977 C976 1.385 . S
C977 C978 1.389 . S
C978 C977 1.389 . S
C978 C979 1.387 . S
C979 H964 0.930 . S
C979 C974 1.390 . S
C979 C978 1.387 . S
H980 C992 0.930 . S
H981 C994 0.930 . S
H982 C995 0.930 . S
H983 C999 0.959 . S
H984 C999 0.959 . S
H985 C999 0.961 . S
H986 C1000 0.960 . S
H987 C1000 0.961 . S
H988 C1000 0.959 . S
H989 C1003 0.929 . S
H990 C1004 0.931 . S
H991 C1006 0.930 . S
C992 H980 0.930 . S
C992 C993 1.399 . S
C992 C997 1.399 . S
C993 C992 1.399 . S
C993 C994 1.376 . S
C994 H981 0.930 . S
C994 C993 1.376 . S
C994 C995 1.388 . S
C995 H982 0.930 . S
C995 C994 1.388 . S
C995 C996 1.390 . S
C996 C995 1.390 . S
C996 C997 1.394 . S
C996 C1002 1.465 . S
C997 C992 1.399 . S
C997 C996 1.394 . S
C997 C998 1.516 . S
C998 C997 1.516 . S
C998 C999 1.502 . S
C998 C1000 1.561 . S
C998 C1001 1.526 . S
C999 H983 0.959 . S
C999 H984 0.959 . S
C999 H985 0.961 . S
C999 C998 1.502 . S
C1000 H986 0.960 . S
C1000 H987 0.961 . S
C1000 H988 0.959 . S
C1000 C998 1.561 . S
C1001 C998 1.526 . S
C1001 C1002 1.396 . S
C1001 C1006 1.390 . S
C1002 C996 1.465 . S
C1002 C1001 1.396 . S
C1002 C1003 1.399 . S
C1003 H989 0.929 . S
C1003 C1002 1.399 . S
C1003 C1004 1.385 . S
C1004 H990 0.931 . S
C1004 C1003 1.385 . S
C1004 C1005 1.389 . S
C1005 C1004 1.389 . S
C1005 C1006 1.387 . S
C1006 H991 0.930 . S
C1006 C1001 1.390 . S
C1006 C1005 1.387 . S
H1007 C1019 0.930 . S
H1008 C1021 0.930 . S
H1009 C1022 0.930 . S
H1010 C1026 0.959 . S
H1011 C1026 0.959 . S
H1012 C1026 0.961 . S
H1013 C1027 0.960 . S
H1014 C1027 0.961 . S
H1015 C1027 0.959 . S
H1016 C1030 0.929 . S
H1017 C1031 0.931 . S
H1018 C1033 0.930 . S
C1019 H1007 0.930 . S
C1019 C1020 1.399 . S
C1019 C1024 1.399 . S
C1020 C1019 1.399 . S
C1020 C1021 1.376 . S
C1021 H1008 0.930 . S
C1021 C1020 1.376 . S
C1021 C1022 1.388 . S
C1022 H1009 0.930 . S
C1022 C1021 1.388 . S
C1022 C1023 1.390 . S
C1023 C1022 1.390 . S
C1023 C1024 1.394 . S
C1023 C1029 1.465 . S
C1024 C1019 1.399 . S
C1024 C1023 1.394 . S
C1024 C1025 1.516 . S
C1025 C1024 1.516 . S
C1025 C1026 1.502 . S
C1025 C1027 1.561 . S
C1025 C1028 1.526 . S
C1026 H1010 0.959 . S
C1026 H1011 0.959 . S
C1026 H1012 0.961 . S
C1026 C1025 1.502 . S
C1027 H1013 0.960 . S
C1027 H1014 0.961 . S
C1027 H1015 0.959 . S
C1027 C1025 1.561 . S
C1028 C1025 1.526 . S
C1028 C1029 1.396 . S
C1028 C1033 1.390 . S
C1029 C1023 1.465 . S
C1029 C1028 1.396 . S
C1029 C1030 1.399 . S
C1030 H1016 0.929 . S
C1030 C1029 1.399 . S
C1030 C1031 1.385 . S
C1031 H1017 0.931 . S
C1031 C1030 1.385 . S
C1031 C1032 1.389 . S
C1032 C1031 1.389 . S
C1032 C1033 1.387 . S
C1033 H1018 0.930 . S
C1033 C1028 1.390 . S
C1033 C1032 1.387 . S
H1034 C1046 0.930 . S
H1035 C1048 0.930 . S
H1036 C1049 0.930 . S
H1037 C1053 0.959 . S
H1038 C1053 0.959 . S
H1039 C1053 0.961 . S
H1040 C1054 0.960 . S
H1041 C1054 0.961 . S
H1042 C1054 0.959 . S
H1043 C1057 0.929 . S
H1044 C1058 0.931 . S
H1045 C1060 0.930 . S
C1046 H1034 0.930 . S
C1046 C1047 1.399 . S
C1046 C1051 1.399 . S
C1047 C1046 1.399 . S
C1047 C1048 1.376 . S
C1048 H1035 0.930 . S
C1048 C1047 1.376 . S
C1048 C1049 1.388 . S
C1049 H1036 0.930 . S
C1049 C1048 1.388 . S
C1049 C1050 1.390 . S
C1050 C1049 1.390 . S
C1050 C1051 1.394 . S
C1050 C1056 1.465 . S
C1051 C1046 1.399 . S
C1051 C1050 1.394 . S
C1051 C1052 1.516 . S
C1052 C1051 1.516 . S
C1052 C1053 1.502 . S
C1052 C1054 1.561 . S
C1052 C1055 1.526 . S
C1053 H1037 0.959 . S
C1053 H1038 0.959 . S
C1053 H1039 0.961 . S
C1053 C1052 1.502 . S
C1054 H1040 0.960 . S
C1054 H1041 0.961 . S
C1054 H1042 0.959 . S
C1054 C1052 1.561 . S
C1055 C1052 1.526 . S
C1055 C1056 1.396 . S
C1055 C1060 1.390 . S
C1056 C1050 1.465 . S
C1056 C1055 1.396 . S
C1056 C1057 1.399 . S
C1057 H1043 0.929 . S
C1057 C1056 1.399 . S
C1057 C1058 1.385 . S
C1058 H1044 0.931 . S
C1058 C1057 1.385 . S
C1058 C1059 1.389 . S
C1059 C1058 1.389 . S
C1059 C1060 1.387 . S
C1060 H1045 0.930 . S
C1060 C1055 1.390 . S
C1060 C1059 1.387 . S
H1061 C1073 0.930 . S
H1062 C1075 0.930 . S
H1063 C1076 0.930 . S
H1064 C1080 0.959 . S
H1065 C1080 0.959 . S
H1066 C1080 0.961 . S
H1067 C1081 0.960 . S
H1068 C1081 0.961 . S
H1069 C1081 0.959 . S
H1070 C1084 0.929 . S
H1071 C1085 0.931 . S
H1072 C1087 0.930 . S
C1073 H1061 0.930 . S
C1073 C1074 1.399 . S
C1073 C1078 1.399 . S
C1074 C1073 1.399 . S
C1074 C1075 1.376 . S
C1075 H1062 0.930 . S
C1075 C1074 1.376 . S
C1075 C1076 1.388 . S
C1076 H1063 0.930 . S
C1076 C1075 1.388 . S
C1076 C1077 1.390 . S
C1077 C1076 1.390 . S
C1077 C1078 1.394 . S
C1077 C1083 1.465 . S
C1078 C1073 1.399 . S
C1078 C1077 1.394 . S
C1078 C1079 1.516 . S
C1079 C1078 1.516 . S
C1079 C1080 1.502 . S
C1079 C1081 1.561 . S
C1079 C1082 1.526 . S
C1080 H1064 0.959 . S
C1080 H1065 0.959 . S
C1080 H1066 0.961 . S
C1080 C1079 1.502 . S
C1081 H1067 0.960 . S
C1081 H1068 0.961 . S
C1081 H1069 0.959 . S
C1081 C1079 1.561 . S
C1082 C1079 1.526 . S
C1082 C1083 1.396 . S
C1082 C1087 1.390 . S
C1083 C1077 1.465 . S
C1083 C1082 1.396 . S
C1083 C1084 1.399 . S
C1084 H1070 0.929 . S
C1084 C1083 1.399 . S
C1084 C1085 1.385 . S
C1085 H1071 0.931 . S
C1085 C1084 1.385 . S
C1085 C1086 1.389 . S
C1086 C1085 1.389 . S
C1086 C1087 1.387 . S
C1087 H1072 0.930 . S
C1087 C1082 1.390 . S
C1087 C1086 1.387 . S
C237 C11 1.183 . S
C249 C67 1.171 . S
C264 C81 1.192 . S
C276 C25 1.183 . S
C291 C39 1.175 . S
C303 C95 1.191 . S
C318 C53 1.192 . S
C330 C109 1.181 . S
C345 C123 1.189 . S
C357 C179 1.181 . S
C372 C193 1.188 . S
C384 C137 1.171 . S
C399 C151 1.170 . S
C411 C207 1.187 . S
C426 C165 1.173 . S
C438 C221 1.192 . S
C453 C13 1.117 . S
C465 C218 1.204 . S
C480 C176 1.102 . S
C492 C27 1.165 . S
C507 C41 1.087 . S
C519 C190 1.187 . S
C534 C204 1.174 . S
C546 C55 1.077 . S
C561 C134 1.172 . S
C573 C69 1.197 . S
C588 C148 1.198 . S
C600 C83 1.102 . S
C615 C162 1.144 . S
C627 C97 1.196 . S
C642 C120 1.185 . S
C654 C111 1.085 . S
C669 C125 1.072 . S
C681 C106 1.150 . S
C696 C64 1.109 . S
C708 C139 1.111 . S
C723 C78 1.194 . S
C735 C153 1.070 . S
C750 C167 1.073 . S
C762 C92 1.198 . S
C777 C22 1.204 . S
C789 C181 1.080 . S
C804 C195 1.065 . S
C816 C36 1.181 . S
C831 C209 1.147 . S
C843 C50 1.197 . S
C858 C223 1.143 . S
C870 C8 1.094 . S
C885 C105 1.283 . S
C897 C7 1.293 . S
C912 C21 1.244 . S
C924 C63 1.284 . S
C939 C35 1.210 . S
C951 C77 1.214 . S
C966 C49 1.220 . S
C978 C91 1.208 . S
C993 C217 1.259 . S
C1005 C119 1.242 . S
C1020 C175 1.207 . S
C1032 C133 1.207 . S
C1047 C189 1.244 . S
C1059 C147 1.262 . S
C1074 C203 1.207 . S
C1086 C161 1.208 . S
