# Generated by pormake.
# Topology unh, (4)-cn, num edge types: 1
# Building blocks:
#     Node 0, Type 0, BuildingBlock: ICAMEG_clean_sbu_1, # of connection points: 4
#     Node 1, Type 0, BuildingBlock: ICAMEG_clean_sbu_1, # of connection points: 4
#     Node 2, Type 0, BuildingBlock: ICAMEG_clean_sbu_1, # of connection points: 4
#     Node 3, Type 0, BuildingBlock: ICAMEG_clean_sbu_1, # of connection points: 4
#     Node 4, Type 0, BuildingBlock: ICAMEG_clean_sbu_1, # of connection points: 4
#     Node 5, Type 0, BuildingBlock: ICAMEG_clean_sbu_1, # of connection points: 4
#     Edge 6, Type (0, 0), BuildingBlock: ZUJKAS_clean_linker_0, # of connection points: 2
#     Edge 7, Type (0, 0), BuildingBlock: ZUJKAS_clean_linker_0, # of connection points: 2
#     Edge 8, Type (0, 0), BuildingBlock: ZUJKAS_clean_linker_0, # of connection points: 2
#     Edge 9, Type (0, 0), BuildingBlock: ZUJKAS_clean_linker_0, # of connection points: 2
#     Edge 10, Type (0, 0), BuildingBlock: ZUJKAS_clean_linker_0, # of connection points: 2
#     Edge 11, Type (0, 0), BuildingBlock: ZUJKAS_clean_linker_0, # of connection points: 2
#     Edge 12, Type (0, 0), BuildingBlock: ZUJKAS_clean_linker_0, # of connection points: 2
#     Edge 13, Type (0, 0), BuildingBlock: ZUJKAS_clean_linker_0, # of connection points: 2
#     Edge 14, Type (0, 0), BuildingBlock: ZUJKAS_clean_linker_0, # of connection points: 2
#     Edge 15, Type (0, 0), BuildingBlock: ZUJKAS_clean_linker_0, # of connection points: 2
#     Edge 16, Type (0, 0), BuildingBlock: ZUJKAS_clean_linker_0, # of connection points: 2
#     Edge 17, Type (0, 0), BuildingBlock: ZUJKAS_clean_linker_0, # of connection points: 2
# Relax obj value: 0.018
# Max RMSD: 0.106
# Mean RMSD: 0.106
data_MOF--net-unh--node1-ICAMEG_clean_sbu_1--edge1-ZUJKAS_clean_linker_0
_symmetry_space_group_name_H-M    P1
_symmetry_Int_Tables_number       1
_symmetry_cell_setting            triclinic
loop_
_symmetry_equiv_pos_as_xyz
'x, y, z'
_cell_length_a     56.880122
_cell_length_b     56.853903
_cell_length_c     31.410555
_cell_angle_alpha  89.983194
_cell_angle_beta   90.019261
_cell_angle_gamma 120.01381
loop_
_atom_site_label
_atom_site_type_symbol
_atom_site_fract_x
_atom_site_fract_y
_atom_site_fract_z
_atom_type_partial_charge
Co0 Co 0.14163 0.54732 0.04724 0.0
Co1 Co 0.14276 0.59515 0.1163 0.0
O2 O 0.1239 0.56236 0.08183 0.0
C3 C 0.10716 0.55631 0.98701 0.0
O4 O 0.1175 0.58074 0.0034 0.0
C5 C 0.10754 0.55219 0.17656 0.0
O6 O 0.11743 0.53768 0.16031 0.0
O7 O 0.16708 0.58297 0.14117 0.0
O8 O 0.1686 0.55428 0.09336 0.0
H9 H 0.22416 0.67667 0.17835 0.0
H10 H 0.08222 0.51555 0.06211 0.0
O11 O 0.11483 0.54008 0.00054 0.0
H12 H 0.11835 0.45918 0.11938 0.0
H13 H 0.14284 0.48007 0.94436 0.0
H14 H 0.19872 0.56276 0.02898 0.0
H15 H 0.14888 0.50336 0.08567 0.0
H16 H 0.12126 0.49939 0.98965 0.0
O17 O 0.11585 0.57625 0.16315 0.0
H18 H 0.20042 0.63547 0.13402 0.0
H19 H 0.1241 0.62409 0.17407 0.0
H20 H 0.22115 0.54402 0.98439 0.0
H21 H 0.05092 0.4714 0.09526 0.0
H22 H 0.19314 0.50237 0.94168 0.0
H23 H 0.06898 0.44294 0.12434 0.0
O24 O 0.16674 0.58356 0.02204 0.0
H25 H 0.05317 0.58394 0.06979 0.0
H26 H 0.15198 0.64684 0.07699 0.0
H27 H 0.12256 0.66204 0.04374 0.0
H28 H 0.07277 0.63048 0.04001 0.0
H29 H 0.08335 0.5695 0.10248 0.0
H30 H 0.14701 0.66505 0.21911 0.0
H31 H 0.1974 0.6917 0.22131 0.0
O32 O 0.16979 0.61432 0.07005 0.0
C33 C 0.17622 0.56784 0.12799 0.0
C34 C 0.2022 0.66528 0.17756 0.0
C35 C 0.15889 0.65874 0.20048 0.0
N36 N 0.16092 0.62753 0.15122 0.0
C37 C 0.18864 0.64198 0.15242 0.0
C38 C 0.14604 0.63553 0.175 0.0
C39 C 0.18717 0.67369 0.20168 0.0
C40 C 0.09019 0.50316 0.07432 0.0
N41 N 0.11734 0.51199 0.07186 0.0
C42 C 0.07239 0.47823 0.09321 0.0
C43 C 0.08254 0.46229 0.10958 0.0
C44 C 0.11024 0.4714 0.10683 0.0
C45 C 0.12745 0.49646 0.0878 0.0
C46 C 0.15526 0.49819 0.96289 0.0
C47 C 0.18641 0.54454 0.01069 0.0
C48 C 0.14316 0.50925 0.98852 0.0
N49 N 0.15873 0.53205 0.01217 0.0
C50 C 0.19922 0.53406 0.9854 0.0
C51 C 0.18349 0.51071 0.96141 0.0
C52 C 0.17676 0.60796 0.0352 0.0
C53 C 0.07482 0.5979 0.07135 0.0
C54 C 0.13034 0.63298 0.07546 0.0
C55 C 0.11378 0.64172 0.05665 0.0
C56 C 0.08584 0.62401 0.05459 0.0
N57 N 0.11938 0.60735 0.09187 0.0
C58 C 0.092 0.58988 0.08999 0.0
Co59 Co 0.59527 0.1431 0.21296 0.0
Co60 Co 0.54745 0.1418 0.28216 0.0
O61 O 0.56239 0.12416 0.24714 0.0
C62 C 0.55233 0.10867 0.15216 0.0
O63 O 0.53795 0.11856 0.16893 0.0
C64 C 0.55611 0.10674 0.34159 0.0
O65 O 0.58057 0.11716 0.32534 0.0
O66 O 0.58366 0.16659 0.30767 0.0
O67 O 0.61448 0.16966 0.25978 0.0
H68 H 0.54453 0.22116 0.34667 0.0
H69 H 0.56911 0.0835 0.22546 0.0
O70 O 0.57633 0.11666 0.16553 0.0
H71 H 0.66137 0.12145 0.28463 0.0
H72 H 0.66509 0.14758 0.10981 0.0
H73 H 0.63601 0.20081 0.19646 0.0
H74 H 0.64666 0.15148 0.25218 0.0
H75 H 0.62401 0.12456 0.15454 0.0
O76 O 0.53998 0.1146 0.32832 0.0
H77 H 0.56316 0.19886 0.30152 0.0
H78 H 0.49945 0.12124 0.33957 0.0
H79 H 0.67732 0.22466 0.15245 0.0
H80 H 0.58306 0.05272 0.25736 0.0
H81 H 0.69211 0.19799 0.10872 0.0
H82 H 0.62946 0.07168 0.28735 0.0
O83 O 0.58348 0.16789 0.18877 0.0
H84 H 0.47134 0.0516 0.23264 0.0
H85 H 0.5038 0.14964 0.24406 0.0
H86 H 0.45967 0.11954 0.2099 0.0
H87 H 0.44318 0.07012 0.20402 0.0
H88 H 0.51544 0.08248 0.26626 0.0
H89 H 0.48024 0.14268 0.3854 0.0
H90 H 0.50277 0.193 0.38902 0.0
O91 O 0.55467 0.16916 0.23656 0.0
C92 C 0.60809 0.1765 0.29473 0.0
C93 C 0.53448 0.19921 0.34525 0.0
C94 C 0.49841 0.15517 0.36704 0.0
N95 N 0.53227 0.1588 0.31766 0.0
C96 C 0.54488 0.18648 0.31965 0.0
C97 C 0.50941 0.14314 0.34111 0.0
C98 C 0.51106 0.1834 0.36904 0.0
C99 C 0.58943 0.09188 0.23804 0.0
N100 N 0.6071 0.11923 0.23673 0.0
C101 C 0.59717 0.07436 0.25623 0.0
C102 C 0.6232 0.08501 0.27311 0.0
C103 C 0.64111 0.11294 0.27162 0.0
C104 C 0.63265 0.12985 0.25326 0.0
C105 C 0.65889 0.15942 0.12879 0.0
C106 C 0.64241 0.18907 0.17771 0.0
C107 C 0.63562 0.1465 0.1541 0.0
N108 N 0.62776 0.16134 0.17831 0.0
C109 C 0.66578 0.20269 0.15277 0.0
C110 C 0.67404 0.18771 0.1282 0.0
C111 C 0.56839 0.17704 0.20212 0.0
C112 C 0.47827 0.07309 0.2351 0.0
C113 C 0.49679 0.12819 0.24153 0.0
C114 C 0.47175 0.11122 0.22225 0.0
C115 C 0.4625 0.0835 0.21899 0.0
N116 N 0.51215 0.11783 0.25723 0.0
C117 C 0.50318 0.09065 0.25426 0.0
Co118 Co 0.40567 0.54713 0.44917 0.0
Co119 Co 0.45238 0.5952 0.38037 0.0
O120 O 0.43846 0.56232 0.41458 0.0
C121 C 0.44921 0.55615 0.50919 0.0
O122 O 0.46318 0.58063 0.49294 0.0
C123 C 0.44461 0.55238 0.31986 0.0
O124 O 0.42024 0.53783 0.33621 0.0
O125 O 0.41588 0.58311 0.3556 0.0
O126 O 0.38565 0.55413 0.40312 0.0
H127 H 0.45257 0.67696 0.31919 0.0
H128 H 0.43347 0.51553 0.43403 0.0
O129 O 0.42531 0.53988 0.49574 0.0
H130 H 0.34101 0.45908 0.37667 0.0
H131 H 0.3373 0.47957 0.55183 0.0
H132 H 0.36391 0.56238 0.4676 0.0
H133 H 0.35454 0.50316 0.41063 0.0
H134 H 0.37823 0.49908 0.50656 0.0
O135 O 0.46036 0.57643 0.33329 0.0
H136 H 0.43509 0.63561 0.36319 0.0
H137 H 0.49996 0.62428 0.3226 0.0
H138 H 0.32271 0.54343 0.51218 0.0
H139 H 0.42074 0.47148 0.40063 0.0
H140 H 0.30918 0.50173 0.55469 0.0
H141 H 0.37425 0.44298 0.3715 0.0
O142 O 0.4167 0.5833 0.47456 0.0
H143 H 0.53068 0.58373 0.42646 0.0
H144 H 0.4949 0.64676 0.41993 0.0
H145 H 0.53949 0.6618 0.45317 0.0
H146 H 0.55765 0.63017 0.45658 0.0
H147 H 0.4861 0.56945 0.39378 0.0
H148 H 0.51804 0.6654 0.27788 0.0
H149 H 0.49434 0.69209 0.27612 0.0
O150 O 0.44456 0.61423 0.42686 0.0
C151 C 0.3916 0.56785 0.36866 0.0
C152 C 0.46313 0.66555 0.31979 0.0
C153 C 0.49985 0.65904 0.29656 0.0
N154 N 0.46662 0.62769 0.3457 0.0
C155 C 0.45337 0.64217 0.34474 0.0
C156 C 0.48949 0.63575 0.32186 0.0
C157 C 0.48655 0.67401 0.2956 0.0
C158 C 0.41311 0.50312 0.4218 0.0
N159 N 0.39474 0.51188 0.42437 0.0
C160 C 0.40606 0.47825 0.40277 0.0
C161 C 0.37998 0.46228 0.38638 0.0
C162 C 0.36133 0.47131 0.38923 0.0
C163 C 0.36912 0.49632 0.4084 0.0
C164 C 0.34296 0.49772 0.53339 0.0
C165 C 0.35804 0.54412 0.48581 0.0
C166 C 0.36613 0.50889 0.50778 0.0
N167 N 0.3733 0.53171 0.48423 0.0
C168 C 0.33475 0.53354 0.51108 0.0
C169 C 0.32719 0.51016 0.53497 0.0
C170 C 0.43115 0.60775 0.46163 0.0
C171 C 0.52302 0.59772 0.42504 0.0
C172 C 0.50266 0.63288 0.4213 0.0
C173 C 0.52794 0.64152 0.44011 0.0
C174 C 0.53813 0.62377 0.44199 0.0
N175 N 0.48798 0.6073 0.40471 0.0
C176 C 0.49785 0.5898 0.4064 0.0
Co177 Co 0.85712 0.45213 0.54549 0.0
Co178 Co 0.85772 0.40648 0.61717 0.0
O179 O 0.87583 0.43863 0.58121 0.0
C180 C 0.89302 0.44445 0.48667 0.0
O181 O 0.88303 0.42006 0.50308 0.0
C182 C 0.89358 0.45047 0.67554 0.0
O183 O 0.88324 0.46459 0.65926 0.0
O184 O 0.8338 0.41908 0.64209 0.0
O185 O 0.82946 0.44427 0.59082 0.0
H186 H 0.77762 0.32621 0.68442 0.0
H187 H 0.91632 0.48649 0.5607 0.0
O188 O 0.88457 0.46018 0.49957 0.0
H189 H 0.8757 0.53937 0.61575 0.0
H190 H 0.85324 0.51685 0.44021 0.0
H191 H 0.79956 0.43392 0.52547 0.0
H192 H 0.84697 0.49447 0.58283 0.0
H193 H 0.87598 0.49948 0.48704 0.0
O194 O 0.88536 0.42631 0.66272 0.0
H195 H 0.80046 0.36651 0.63799 0.0
H196 H 0.87755 0.37871 0.67534 0.0
H197 H 0.77598 0.45068 0.47931 0.0
H198 H 0.94583 0.5314 0.59309 0.0
H199 H 0.80287 0.49244 0.43628 0.0
H200 H 0.92552 0.55811 0.62102 0.0
O201 O 0.83342 0.41542 0.52095 0.0
H202 H 0.94668 0.41723 0.56821 0.0
H203 H 0.8481 0.35412 0.57998 0.0
H204 H 0.87713 0.33849 0.54662 0.0
H205 H 0.9268 0.37015 0.54057 0.0
H206 H 0.91688 0.43208 0.60107 0.0
H207 H 0.85556 0.33866 0.72243 0.0
H208 H 0.80524 0.31205 0.72705 0.0
O209 O 0.82986 0.38622 0.57226 0.0
C210 C 0.82314 0.43243 0.62699 0.0
C211 C 0.79956 0.33758 0.68257 0.0
C212 C 0.84331 0.34459 0.70395 0.0
N213 N 0.84028 0.37478 0.65369 0.0
C214 C 0.8126 0.36037 0.65624 0.0
C215 C 0.85564 0.36727 0.67729 0.0
C216 C 0.81507 0.32966 0.70651 0.0
C217 C 0.90737 0.49812 0.57237 0.0
N218 N 0.87998 0.48794 0.56966 0.0
C219 C 0.92416 0.52348 0.59085 0.0
C220 C 0.91275 0.53844 0.60657 0.0
C221 C 0.8848 0.52793 0.60365 0.0
C222 C 0.86862 0.50247 0.58504 0.0
C223 C 0.84129 0.49867 0.45888 0.0
C224 C 0.81139 0.4522 0.50704 0.0
C225 C 0.85406 0.48872 0.48539 0.0
N226 N 0.83909 0.46585 0.50922 0.0
C227 C 0.79793 0.46155 0.48087 0.0
C228 C 0.81303 0.48497 0.4567 0.0
C229 C 0.82315 0.39148 0.53621 0.0
C230 C 0.92508 0.40322 0.57078 0.0
C231 C 0.8697 0.36802 0.57744 0.0
C232 C 0.88604 0.35904 0.55858 0.0
C233 C 0.91391 0.37681 0.55522 0.0
N234 N 0.88081 0.39395 0.59266 0.0
C235 C 0.90812 0.41147 0.58953 0.0
Co236 Co 0.40608 0.85772 0.71269 0.0
Co237 Co 0.45212 0.85774 0.78415 0.0
O238 O 0.43834 0.87614 0.74833 0.0
C239 C 0.44977 0.89347 0.65387 0.0
O240 O 0.46399 0.88324 0.67009 0.0
C241 C 0.4445 0.89385 0.84263 0.0
O242 O 0.41998 0.88357 0.82666 0.0
O243 O 0.41555 0.83401 0.80912 0.0
O244 O 0.38612 0.83003 0.75796 0.0
H245 H 0.45148 0.77715 0.85108 0.0
H246 H 0.43148 0.91697 0.72813 0.0
O247 O 0.42565 0.88519 0.66683 0.0
H248 H 0.3381 0.87706 0.78337 0.0
H249 H 0.33774 0.85469 0.60774 0.0
H250 H 0.36627 0.80027 0.69259 0.0
H251 H 0.35381 0.84802 0.75021 0.0
H252 H 0.37793 0.87707 0.65447 0.0
O253 O 0.46024 0.88544 0.82971 0.0
H254 H 0.43431 0.80033 0.80483 0.0
H255 H 0.49972 0.87715 0.84218 0.0
H256 H 0.32583 0.77705 0.64654 0.0
H257 H 0.41656 0.94677 0.76077 0.0
H258 H 0.31133 0.80432 0.60371 0.0
H259 H 0.36959 0.92681 0.78879 0.0
O260 O 0.41873 0.83378 0.68796 0.0
H261 H 0.53085 0.94645 0.73522 0.0
H262 H 0.49448 0.84767 0.7467 0.0
H263 H 0.53918 0.87644 0.71327 0.0
H264 H 0.55764 0.9262 0.70738 0.0
H265 H 0.48615 0.91692 0.76814 0.0
H266 H 0.5175 0.85482 0.8891 0.0
H267 H 0.49337 0.80445 0.89362 0.0
O268 O 0.4442 0.82986 0.73917 0.0
C269 C 0.39156 0.82353 0.79403 0.0
C270 C 0.46223 0.7991 0.84927 0.0
C271 C 0.49926 0.8427 0.87065 0.0
N272 N 0.46614 0.84004 0.82054 0.0
C273 C 0.45265 0.81233 0.82304 0.0
C274 C 0.48908 0.85523 0.84409 0.0
C275 C 0.48572 0.81444 0.87316 0.0
C276 C 0.41092 0.90817 0.73984 0.0
N277 N 0.3935 0.88081 0.73705 0.0
C278 C 0.40263 0.92513 0.75846 0.0
C279 C 0.37628 0.91391 0.77424 0.0
C280 C 0.35861 0.88599 0.77123 0.0
C281 C 0.36763 0.86965 0.75249 0.0
C282 C 0.34382 0.84259 0.62632 0.0
C283 C 0.35997 0.81227 0.67425 0.0
C284 C 0.36658 0.85515 0.65277 0.0
N285 N 0.37428 0.83997 0.67648 0.0
C286 C 0.33711 0.79901 0.64814 0.0
C287 C 0.329 0.81432 0.62408 0.0
C288 C 0.4322 0.82328 0.70314 0.0
C289 C 0.52306 0.9248 0.73773 0.0
C290 C 0.50236 0.86931 0.74423 0.0
C291 C 0.52771 0.8855 0.72533 0.0
C292 C 0.53806 0.91342 0.72205 0.0
N293 N 0.48778 0.88063 0.75956 0.0
C294 C 0.49781 0.90799 0.75651 0.0
Co295 Co 0.59565 0.45365 0.95015 0.0
Co296 Co 0.5477 0.40664 0.88153 0.0
O297 O 0.56273 0.43948 0.91603 0.0
C298 C 0.55291 0.44567 0.01093 0.0
O299 O 0.53839 0.42129 0.99456 0.0
C300 C 0.55628 0.45004 0.82143 0.0
O301 O 0.58082 0.46415 0.83739 0.0
O302 O 0.58388 0.41783 0.85607 0.0
O303 O 0.61473 0.44591 0.90365 0.0
H304 H 0.5445 0.32382 0.81877 0.0
H305 H 0.56955 0.48703 0.93674 0.0
O306 O 0.57687 0.46153 0.99729 0.0
H307 H 0.66171 0.54089 0.87704 0.0
H308 H 0.66577 0.51976 0.0523 0.0
H309 H 0.63635 0.43674 0.96724 0.0
H310 H 0.64701 0.49637 0.91038 0.0
H311 H 0.62458 0.50138 0.00774 0.0
O312 O 0.54021 0.4261 0.83497 0.0
H313 H 0.56326 0.36509 0.86321 0.0
H314 H 0.49964 0.37886 0.82426 0.0
H315 H 0.67778 0.45453 0.01108 0.0
H316 H 0.58347 0.53153 0.90395 0.0
H317 H 0.69273 0.49634 0.05402 0.0
H318 H 0.62983 0.55874 0.87368 0.0
O319 O 0.58383 0.4172 0.97502 0.0
H320 H 0.47176 0.42121 0.93009 0.0
H321 H 0.50397 0.3554 0.9202 0.0
H322 H 0.45987 0.34164 0.95421 0.0
H323 H 0.4435 0.37468 0.95931 0.0
H324 H 0.51583 0.43417 0.89667 0.0
H325 H 0.48029 0.33786 0.77914 0.0
H326 H 0.50272 0.30998 0.77634 0.0
O327 O 0.5549 0.3868 0.92763 0.0
C328 C 0.60831 0.43242 0.86897 0.0
C329 C 0.53449 0.33575 0.81984 0.0
C330 C 0.49848 0.34365 0.79755 0.0
N331 N 0.53242 0.37421 0.84658 0.0
C332 C 0.54497 0.35908 0.84503 0.0
C333 C 0.50955 0.36687 0.82307 0.0
C334 C 0.51106 0.32801 0.796 0.0
C335 C 0.58985 0.49888 0.92405 0.0
N336 N 0.60749 0.48918 0.9257 0.0
C337 C 0.59758 0.52401 0.90535 0.0
C338 C 0.62357 0.53924 0.88831 0.0
C339 C 0.64147 0.52923 0.89016 0.0
C340 C 0.63302 0.504 0.90903 0.0
C341 C 0.65949 0.50156 0.03367 0.0
C342 C 0.64283 0.45503 0.98564 0.0
C343 C 0.63616 0.49103 0.00847 0.0
N344 N 0.62821 0.46813 0.9847 0.0
C345 C 0.66625 0.46496 0.0105 0.0
C346 C 0.67461 0.48841 0.03461 0.0
C347 C 0.56866 0.39288 0.96207 0.0
C348 C 0.47864 0.40661 0.92798 0.0
C349 C 0.49702 0.3699 0.92242 0.0
C350 C 0.472 0.36198 0.9416 0.0
C351 C 0.46282 0.38052 0.94442 0.0
N352 N 0.51244 0.39554 0.9064 0.0
C353 C 0.50353 0.4138 0.90894 0.0
H354 H 0.08185 0.50733 0.94616 0.0
H355 H 0.04641 0.49197 0.892 0.0
H356 H 0.04906 0.56904 0.89786 0.0
H357 H 0.08436 0.58454 0.95266 0.0
H358 H 0.99645 0.52426 0.9003 0.0
H359 H 0.05538 0.51515 0.76715 0.0
H360 H 0.05523 0.49714 0.81419 0.0
H361 H 0.07121 0.53358 0.81538 0.0
C362 C 0.07504 0.52112 0.93582 0.0
C363 C 0.08607 0.54725 0.95355 0.0
C364 C 0.05488 0.51234 0.90466 0.0
C365 C 0.04546 0.52954 0.89039 0.0
C366 C 0.05622 0.55554 0.90823 0.0
H367 H 0.91758 0.50203 0.70815 0.0
H368 H 0.95442 0.52249 0.76036 0.0
C369 C 0.07642 0.56437 0.93946 0.0
C370 C 0.02376 0.51996 0.85781 0.0
H371 H 0.00757 0.49459 0.75686 0.0
C372 C 0.99892 0.51802 0.86877 0.0
C373 C 0.02711 0.51188 0.81672 0.0
C374 C 0.05375 0.51476 0.80242 0.0
C375 C 0.97699 0.50731 0.84018 0.0
C376 C 0.98018 0.4987 0.79944 0.0
C377 C 0.00517 0.50111 0.78822 0.0
C378 C 0.95763 0.48639 0.76833 0.0
C379 C 0.95033 0.50446 0.85426 0.0
C380 C 0.94756 0.45948 0.75503 0.0
C381 C 0.9266 0.44776 0.72517 0.0
C382 C 0.91539 0.4628 0.70784 0.0
C383 C 0.92561 0.48982 0.72111 0.0
C384 C 0.94659 0.50153 0.75106 0.0
H385 H 0.94947 0.5065 0.88932 0.0
H386 H 0.94769 0.5206 0.839 0.0
H387 H 0.93308 0.4845 0.84437 0.0
H388 H 0.95591 0.44751 0.76788 0.0
H389 H 0.91929 0.42693 0.71557 0.0
H390 H 0.41706 0.91762 0.87646 0.0
H391 H 0.43411 0.95508 0.92773 0.0
H392 H 0.51105 0.95748 0.93197 0.0
H393 H 0.49435 0.92025 0.88071 0.0
H394 H 0.45509 0.9575 0.01146 0.0
H395 H 0.53156 0.03656 0.90468 0.0
H396 H 0.50421 0.00469 0.88508 0.0
H397 H 0.53382 0.00623 0.90835 0.0
C398 C 0.43761 0.9261 0.88832 0.0
C399 C 0.45437 0.91599 0.87441 0.0
C400 C 0.4473 0.9475 0.91757 0.0
C401 C 0.47395 0.95927 0.93308 0.0
C402 C 0.49058 0.94899 0.91974 0.0
H403 H 0.57633 0.08386 0.11076 0.0
H404 H 0.556 0.04772 0.05759 0.0
C405 C 0.48093 0.9276 0.89062 0.0
C406 C 0.48434 0.98203 0.96381 0.0
H407 H 0.53394 0.04805 0.97796 0.0
C408 C 0.47217 0.97739 0.0041 0.0
C409 C 0.50661 0.0079 0.95398 0.0
C410 C 0.5197 0.01432 0.91055 0.0
C411 C 0.48229 0.99774 0.03543 0.0
C412 C 0.50484 0.0235 0.02581 0.0
C413 C 0.5167 0.02825 0.98525 0.0
C414 C 0.51695 0.0456 0.05775 0.0
C415 C 0.46936 0.99122 0.07898 0.0
C416 C 0.50182 0.05664 0.075 0.0
C417 C 0.51336 0.0773 0.10548 0.0
C418 C 0.54031 0.08738 0.119 0.0
C419 C 0.55552 0.07654 0.10111 0.0
C420 C 0.54395 0.0559 0.07069 0.0
H421 H 0.45665 0.96897 0.08419 0.0
H422 H 0.48504 0.99988 0.10435 0.0
H423 H 0.45611 0.00028 0.08218 0.0
H424 H 0.48111 0.04933 0.06483 0.0
H425 H 0.50111 0.08524 0.11854 0.0
H426 H 0.49385 0.5767 0.27975 0.0
H427 H 0.51041 0.5566 0.22745 0.0
H428 H 0.4345 0.48103 0.23451 0.0
H429 H 0.4176 0.50099 0.28668 0.0
H430 H 0.51559 0.50981 0.239 0.0
H431 H 0.44589 0.4971 0.10557 0.0
H432 H 0.45112 0.51908 0.15039 0.0
H433 H 0.4298 0.48296 0.15573 0.0
C434 C 0.48056 0.55586 0.27 0.0
C435 C 0.45433 0.54049 0.28722 0.0
C436 C 0.4901 0.54441 0.24016 0.0
C437 C 0.47356 0.51746 0.22679 0.0
C438 C 0.44738 0.50203 0.24387 0.0
H439 H 0.50197 0.4181 0.04561 0.0
H440 H 0.48251 0.43436 0.09971 0.0
C441 C 0.43781 0.51345 0.27378 0.0
C442 C 0.48415 0.50535 0.19596 0.0
H443 H 0.47509 0.47918 0.09558 0.0
C444 C 0.50677 0.50312 0.20762 0.0
C445 C 0.47245 0.49651 0.1552 0.0
C446 C 0.4486 0.49917 0.14066 0.0
C447 C 0.51801 0.49219 0.17959 0.0
C448 C 0.50663 0.48379 0.13853 0.0
C449 C 0.48376 0.48566 0.12709 0.0
C450 C 0.51864 0.47375 0.10654 0.0
C451 C 0.54176 0.48942 0.1944 0.0
C452 C 0.54531 0.49063 0.09218 0.0
C453 C 0.55652 0.4814 0.06143 0.0
C454 C 0.54118 0.45516 0.0442 0.0
C455 C 0.51439 0.43835 0.05843 0.0
C456 C 0.50321 0.44761 0.08925 0.0
H457 H 0.543 0.48938 0.2297 0.0
H458 H 0.54037 0.47047 0.18204 0.0
H459 H 0.56087 0.50691 0.18239 0.0
H460 H 0.55736 0.51109 0.10441 0.0
H461 H 0.57713 0.49495 0.05095 0.0
H462 H 0.91681 0.41703 0.4529 0.0
H463 H 0.95308 0.43348 0.39973 0.0
H464 H 0.95486 0.51015 0.39432 0.0
H465 H 0.91838 0.49381 0.44687 0.0
H466 H 0.95463 0.4887 0.31441 0.0
H467 H 0.0334 0.48883 0.41933 0.0
H468 H 0.00208 0.45703 0.41667 0.0
H469 H 0.0025 0.48611 0.4399 0.0
C470 C 0.9249 0.43739 0.44039 0.0
C471 C 0.91472 0.45412 0.45418 0.0
C472 C 0.94576 0.44681 0.41023 0.0
C473 C 0.95692 0.47317 0.39359 0.0
C474 C 0.94659 0.48978 0.40693 0.0
H475 H 0.08227 0.57634 0.21613 0.0
H476 H 0.04549 0.55616 0.26821 0.0
C477 C 0.92575 0.48039 0.437 0.0
C478 C 0.97903 0.4834 0.36166 0.0
H479 H 0.04482 0.49923 0.34662 0.0
C480 C 0.97436 0.49103 0.32144 0.0
C481 C 0.0047 0.48632 0.37093 0.0
C482 C 0.01116 0.47938 0.41414 0.0
C483 C 0.99467 0.50144 0.29013 0.0
C484 C 0.02043 0.50469 0.29958 0.0
C485 C 0.02501 0.4967 0.33956 0.0
C486 C 0.04309 0.51696 0.26866 0.0
C487 C 0.9883 0.50862 0.24703 0.0
C488 C 0.05439 0.5018 0.25254 0.0
C489 C 0.07551 0.51329 0.22284 0.0
C490 C 0.08582 0.54024 0.20905 0.0
C491 C 0.07474 0.5555 0.22592 0.0
C492 C 0.05362 0.54397 0.25552 0.0
H493 H 0.96607 0.49855 0.24131 0.0
H494 H 0.99667 0.53091 0.2453 0.0
H495 H 0.99769 0.50277 0.2212 0.0
H496 H 0.0466 0.48095 0.26251 0.0
H497 H 0.08358 0.50098 0.21047 0.0
H498 H 0.58446 0.08417 0.37627 0.0
H499 H 0.56876 0.04838 0.43023 0.0
H500 H 0.49124 0.04476 0.43477 0.0
H501 H 0.50682 0.08075 0.38142 0.0
H502 H 0.51318 0.04629 0.51503 0.0
H503 H 0.51459 0.96747 0.41209 0.0
H504 H 0.54597 0.99924 0.41427 0.0
H505 H 0.51652 0.99787 0.39074 0.0
C506 C 0.56407 0.07577 0.38875 0.0
C507 C 0.54688 0.08529 0.37449 0.0
C508 C 0.55508 0.05519 0.41937 0.0
C509 C 0.52871 0.04366 0.43601 0.0
C510 C 0.51163 0.05333 0.42218 0.0
H511 H 0.42601 0.91899 0.61393 0.0
H512 H 0.44648 0.95582 0.56198 0.0
C513 C 0.52058 0.07389 0.39165 0.0
C514 C 0.51891 0.02184 0.46842 0.0
H515 H 0.50394 0.95638 0.48477 0.0
C516 C 0.51116 0.02663 0.50844 0.0
C517 C 0.51642 0.99627 0.45974 0.0
C518 C 0.52358 0.9897 0.4168 0.0
C519 C 0.50095 0.00651 0.54007 0.0
C520 C 0.49802 0.9808 0.53115 0.0
C521 C 0.50622 0.97614 0.49143 0.0
C522 C 0.48565 0.95821 0.56222 0.0
C523 C 0.49359 0.01301 0.5829 0.0
C524 C 0.50071 0.94688 0.5787 0.0
C525 C 0.48903 0.9257 0.60833 0.0
C526 C 0.46202 0.91537 0.62168 0.0
C527 C 0.44689 0.92652 0.6045 0.0
C528 C 0.45859 0.94768 0.57497 0.0
H529 H 0.50366 0.03527 0.58841 0.0
H530 H 0.47131 0.00468 0.5843 0.0
H531 H 0.4993 0.00368 0.60904 0.0
H532 H 0.52159 0.95465 0.56902 0.0
H533 H 0.50124 0.91757 0.62094 0.0
H534 H 0.58403 0.50127 0.78756 0.0
H535 H 0.56738 0.52167 0.73559 0.0
H536 H 0.49057 0.44698 0.73005 0.0
H537 H 0.50685 0.42647 0.78204 0.0
H538 H 0.54728 0.50371 0.65169 0.0
H539 H 0.46942 0.50497 0.75656 0.0
H540 H 0.49657 0.50036 0.77679 0.0
H541 H 0.46721 0.47241 0.75269 0.0
C542 C 0.5636 0.48917 0.77524 0.0
C543 C 0.54673 0.46227 0.78905 0.0
C544 C 0.55414 0.50087 0.7456 0.0
C545 C 0.52763 0.48596 0.72955 0.0
C546 C 0.51092 0.45899 0.74271 0.0
H547 H 0.42586 0.50705 0.54971 0.0
H548 H 0.44637 0.49159 0.60306 0.0
C549 C 0.52033 0.44727 0.77226 0.0
C550 C 0.51741 0.49837 0.69857 0.0
H551 H 0.46745 0.51409 0.6831 0.0
C552 C 0.52999 0.50625 0.6586 0.0
C553 C 0.49488 0.50164 0.70783 0.0
C554 C 0.48135 0.49465 0.75092 0.0
C555 C 0.52001 0.51644 0.62699 0.0
C556 C 0.49716 0.51924 0.636 0.0
C557 C 0.48491 0.51183 0.67627 0.0
C558 C 0.48504 0.52899 0.60368 0.0
C559 C 0.5334 0.52325 0.58379 0.0
C560 C 0.49991 0.55529 0.58672 0.0
C561 C 0.48826 0.56421 0.55612 0.0
C562 C 0.46146 0.54702 0.54218 0.0
C563 C 0.44655 0.5208 0.55968 0.0
C564 C 0.45822 0.51192 0.59021 0.0
H565 H 0.54652 0.51414 0.57901 0.0
H566 H 0.51797 0.51605 0.55803 0.0
H567 H 0.54631 0.54562 0.58083 0.0
H568 H 0.52048 0.56895 0.59729 0.0
H569 H 0.50028 0.58454 0.54336 0.0
H570 H 0.1934 0.53076 0.12142 0.0
H571 H 0.2283 0.52852 0.16349 0.0
H572 H 0.24238 0.59966 0.23357 0.0
H573 H 0.20674 0.60143 0.19285 0.0
H574 H 0.28064 0.56306 0.16937 0.0
H575 H 0.23538 0.55043 0.32955 0.0
H576 H 0.21667 0.54733 0.28151 0.0
H577 H 0.23962 0.58033 0.30338 0.0
C578 C 0.20366 0.54576 0.14612 0.0
C579 C 0.19704 0.56611 0.15402 0.0
C580 C 0.22368 0.54448 0.17009 0.0
C581 C 0.23765 0.56361 0.20225 0.0
C582 C 0.23134 0.58417 0.20984 0.0
H583 H 0.39461 0.60192 0.30461 0.0
H584 H 0.35722 0.60016 0.26388 0.0
C585 C 0.21104 0.58525 0.1863 0.0
C586 C 0.25956 0.56269 0.22658 0.0
H587 H 0.28202 0.56226 0.32721 0.0
C588 C 0.28083 0.56266 0.2039 0.0
C589 C 0.25961 0.56173 0.27161 0.0
C590 C 0.23644 0.55965 0.29791 0.0
C591 C 0.30237 0.56222 0.22495 0.0
C592 C 0.30314 0.56273 0.27 0.0
C593 C 0.28161 0.56222 0.29268 0.0
C594 C 0.32598 0.56367 0.29436 0.0
C595 C 0.32375 0.56068 0.1986 0.0
C596 C 0.32084 0.54428 0.32608 0.0
C597 C 0.34213 0.54556 0.35009 0.0
C598 C 0.36907 0.56616 0.34264 0.0
C599 C 0.37417 0.58555 0.3108 0.0
C600 C 0.35281 0.58448 0.28725 0.0
H601 H 0.31579 0.55172 0.16675 0.0
H602 H 0.34112 0.58149 0.19362 0.0
H603 H 0.33132 0.54836 0.2147 0.0
H604 H 0.3003 0.52812 0.33232 0.0
H605 H 0.33742 0.53035 0.37443 0.0
H606 H 0.66238 0.20539 0.27611 0.0
H607 H 0.69869 0.24056 0.31896 0.0
H608 H 0.6409 0.22983 0.41666 0.0
H609 H 0.60419 0.19494 0.37365 0.0
H610 H 0.67477 0.28312 0.39761 0.0
H611 H 0.73455 0.23182 0.42461 0.0
H612 H 0.72827 0.23443 0.3693 0.0
H613 H 0.70027 0.21415 0.4043 0.0
C614 C 0.65732 0.21031 0.30683 0.0
C615 C 0.6303 0.19721 0.32145 0.0
C616 C 0.67819 0.23034 0.33142 0.0
C617 C 0.67258 0.23748 0.37131 0.0
C618 C 0.64568 0.2245 0.38604 0.0
H619 H 0.79345 0.33794 0.55953 0.0
H620 H 0.75671 0.30074 0.52001 0.0
C621 C 0.62474 0.20453 0.3614 0.0
C622 C 0.69461 0.2593 0.39686 0.0
H623 H 0.75626 0.27892 0.44226 0.0
C624 C 0.69252 0.28214 0.4076 0.0
C625 C 0.71758 0.25782 0.41032 0.0
C626 C 0.72024 0.23312 0.40194 0.0
C627 C 0.71303 0.30382 0.43072 0.0
C628 C 0.73654 0.30286 0.44257 0.0
C629 C 0.73838 0.27976 0.43263 0.0
C630 C 0.75929 0.32546 0.46587 0.0
C631 C 0.70913 0.32734 0.44277 0.0
C632 C 0.77329 0.35161 0.44815 0.0
C633 C 0.79424 0.37301 0.47073 0.0
C634 C 0.8018 0.36859 0.51133 0.0
C635 C 0.78817 0.34215 0.52843 0.0
C636 C 0.76715 0.32082 0.50589 0.0
H637 H 0.68737 0.32159 0.44187 0.0
H638 H 0.71719 0.33496 0.47514 0.0
H639 H 0.72022 0.34417 0.41978 0.0
H640 H 0.76798 0.35549 0.41685 0.0
H641 H 0.80438 0.39302 0.45641 0.0
H642 H 0.41196 0.80482 0.62319 0.0
H643 H 0.41269 0.76825 0.58354 0.0
H644 H 0.45536 0.75605 0.68694 0.0
H645 H 0.45532 0.79295 0.72653 0.0
H646 H 0.47691 0.75561 0.60956 0.0
H647 H 0.36519 0.6876 0.6076 0.0
H648 H 0.37593 0.7206 0.58569 0.0
H649 H 0.38172 0.7173 0.64112 0.0
C650 C 0.42157 0.79443 0.63754 0.0
C651 C 0.43345 0.80179 0.67822 0.0
C652 C 0.42178 0.77338 0.61491 0.0
C653 C 0.43359 0.75908 0.63266 0.0
C654 C 0.44598 0.76672 0.67278 0.0
H655 H 0.40824 0.60371 0.54012 0.0
H656 H 0.40995 0.6404 0.58305 0.0
C657 C 0.44591 0.78785 0.69537 0.0
C658 C 0.43328 0.73628 0.60928 0.0
H659 H 0.391 0.67475 0.5637 0.0
C660 C 0.45813 0.73787 0.59967 0.0
C661 C 0.40874 0.71295 0.59706 0.0
C662 C 0.38137 0.7093 0.60874 0.0
C663 C 0.45914 0.717 0.57736 0.0
C664 C 0.43463 0.69422 0.56355 0.0
C665 C 0.40977 0.69237 0.57395 0.0
C666 C 0.43432 0.67216 0.53798 0.0
C667 C 0.48641 0.71939 0.56936 0.0
C668 C 0.44726 0.67783 0.49824 0.0
C669 C 0.44648 0.65697 0.47371 0.0
C670 C 0.43243 0.62991 0.48821 0.0
C671 C 0.4193 0.62429 0.52797 0.0
C672 C 0.42022 0.64522 0.55256 0.0
H673 H 0.50198 0.73356 0.59222 0.0
H674 H 0.48515 0.6993 0.57176 0.0
H675 H 0.49336 0.72746 0.5368 0.0
H676 H 0.4577 0.69837 0.48589 0.0
H677 H 0.45665 0.66208 0.44313 0.0
H678 H 0.60435 0.40803 0.79178 0.0
H679 H 0.64108 0.40897 0.75005 0.0
H680 H 0.69909 0.45965 0.84512 0.0
H681 H 0.66275 0.45934 0.88669 0.0
H682 H 0.7166 0.47746 0.76382 0.0
H683 H 0.68005 0.36717 0.77826 0.0
H684 H 0.6554 0.37476 0.7565 0.0
H685 H 0.66677 0.38414 0.81049 0.0
C686 C 0.62491 0.41944 0.80384 0.0
C687 C 0.63051 0.43351 0.84276 0.0
C688 C 0.64586 0.41979 0.78004 0.0
C689 C 0.67273 0.43399 0.79487 0.0
C690 C 0.67847 0.44846 0.83321 0.0
H691 H 0.80652 0.41405 0.70828 0.0
H692 H 0.77083 0.41565 0.74921 0.0
C693 C 0.6576 0.44822 0.85695 0.0
C694 C 0.69499 0.43393 0.77045 0.0
H695 H 0.71701 0.39228 0.73133 0.0
C696 C 0.71673 0.45886 0.75674 0.0
C697 C 0.6953 0.40966 0.76187 0.0
C698 C 0.67328 0.38242 0.77786 0.0
C699 C 0.73867 0.46016 0.73423 0.0
C700 C 0.73855 0.43581 0.72444 0.0
C701 C 0.71695 0.41091 0.73857 0.0
C702 C 0.76072 0.43566 0.69984 0.0
C703 C 0.76201 0.48765 0.72196 0.0
C704 C 0.76679 0.44626 0.6584 0.0
C705 C 0.78733 0.44559 0.63501 0.0
C706 C 0.80199 0.43396 0.6524 0.0
C707 C 0.79572 0.42321 0.69388 0.0
C708 C 0.77528 0.42406 0.71733 0.0
H709 H 0.76268 0.50409 0.74197 0.0
H710 H 0.78174 0.48822 0.72492 0.0
H711 H 0.7595 0.49199 0.68834 0.0
H712 H 0.75538 0.45472 0.64388 0.0
H713 H 0.7914 0.45386 0.60305 0.0
H714 H 0.3935 0.80482 0.87373 0.0
H715 H 0.35619 0.76834 0.91355 0.0
H716 H 0.30102 0.75689 0.81101 0.0
H717 H 0.33797 0.79368 0.77125 0.0
H718 H 0.27951 0.75647 0.88895 0.0
H719 H 0.3223 0.68766 0.88861 0.0
H720 H 0.34489 0.72055 0.91059 0.0
H721 H 0.33552 0.71747 0.85532 0.0
C722 C 0.37343 0.79462 0.85961 0.0
C723 C 0.36883 0.80215 0.81912 0.0
C724 C 0.35217 0.77363 0.88233 0.0
C725 C 0.32596 0.75955 0.86486 0.0
C726 C 0.32114 0.76738 0.82494 0.0
H727 H 0.19544 0.60424 0.95637 0.0
H728 H 0.23053 0.64105 0.91375 0.0
C729 C 0.34234 0.78844 0.80226 0.0
C730 C 0.30348 0.73679 0.8883 0.0
H731 H 0.28386 0.67491 0.93291 0.0
C732 C 0.28039 0.73858 0.89844 0.0
C733 C 0.30449 0.71327 0.89998 0.0
C734 C 0.328 0.70941 0.88772 0.0
C735 C 0.2585 0.71772 0.92074 0.0
C736 C 0.26002 0.69472 0.93398 0.0
C737 C 0.28286 0.69268 0.92308 0.0
C738 C 0.23821 0.6726 0.95941 0.0
C739 C 0.23381 0.72034 0.9293 0.0
C740 C 0.23106 0.6781 0.99938 0.0
C741 C 0.21091 0.65718 0.02373 0.0
C742 C 0.1977 0.63021 0.00881 0.0
C743 C 0.2051 0.62474 0.96884 0.0
C744 C 0.22518 0.64575 0.94443 0.0
H745 H 0.23249 0.73473 0.9068 0.0
H746 H 0.21486 0.70037 0.92682 0.0
H747 H 0.23512 0.72827 0.96201 0.0
H748 H 0.24131 0.69857 0.01203 0.0
H749 H 0.20595 0.66216 0.05448 0.0
H750 H 0.53116 0.33867 0.95679 0.0
H751 H 0.52907 0.30167 0.99905 0.0
H752 H 0.60138 0.3588 0.06668 0.0
H753 H 0.60298 0.39609 0.02581 0.0
H754 H 0.56316 0.28338 0.00378 0.0
H755 H 0.55345 0.3176 0.16439 0.0
H756 H 0.54991 0.33305 0.11648 0.0
H757 H 0.58311 0.34281 0.13714 0.0
C758 C 0.54645 0.34346 0.98099 0.0
C759 C 0.56709 0.37043 0.98817 0.0
C760 C 0.54526 0.32223 0.00508 0.0
C761 C 0.56477 0.32746 0.03662 0.0
C762 C 0.58561 0.35431 0.04347 0.0
H763 H 0.60214 0.20775 0.13756 0.0
H764 H 0.60062 0.24365 0.0972 0.0
C765 C 0.58659 0.37562 0.01984 0.0
C766 C 0.56392 0.30466 0.06099 0.0
H767 H 0.56451 0.28225 0.16161 0.0
C768 C 0.56324 0.28304 0.03831 0.0
C769 C 0.56359 0.30397 0.10605 0.0
C770 C 0.56226 0.32546 0.13242 0.0
C771 C 0.56273 0.26101 0.05937 0.0
C772 C 0.56383 0.26103 0.10439 0.0
C773 C 0.564 0.28239 0.12709 0.0
C774 C 0.56469 0.23906 0.12867 0.0
C775 C 0.56045 0.23774 0.03308 0.0
C776 C 0.54555 0.2251 0.16081 0.0
C777 C 0.54668 0.20491 0.18458 0.0
C778 C 0.56689 0.19812 0.17647 0.0
C779 C 0.58607 0.21217 0.14427 0.0
C780 C 0.58513 0.23262 0.12093 0.0
H781 H 0.55119 0.23671 0.00148 0.0
H782 H 0.58105 0.24078 0.02752 0.0
H783 H 0.54807 0.21799 0.04953 0.0
H784 H 0.52968 0.22982 0.16753 0.0
H785 H 0.53166 0.19463 0.20923 0.0
loop_
_geom_bond_atom_site_label_1
_geom_bond_atom_site_label_2
_geom_bond_distance
_geom_bond_site_symmetry_2
_ccdc_geom_bond_type
Co0 O2 2.143 . S
Co0 O8 2.074 . S
Co0 O11 2.093 1_554 S
Co0 O24 2.097 . S
Co0 N41 2.151 . S
Co0 N49 2.214 1_554 S
Co1 O2 2.160 . S
Co1 O7 2.058 . S
Co1 O17 2.057 . S
Co1 O32 2.037 . S
Co1 N36 2.145 . S
Co1 N57 2.257 . S
O2 Co0 2.143 . S
O2 Co1 2.160 . S
C3 O4 1.278 1_556 S
C3 O11 1.224 . S
O4 C3 1.278 1_554 S
C5 O6 1.245 . S
C5 O17 1.232 . S
O6 C5 1.245 . S
O7 Co1 2.058 . S
O7 C33 1.269 . S
O8 Co0 2.074 . S
O8 C33 1.257 . S
H9 C34 0.930 . S
H10 C40 0.930 . S
O11 Co0 2.093 1_556 S
O11 C3 1.224 . S
H12 C44 0.929 . S
H13 C46 0.930 . S
H14 C47 0.930 1_554 S
H15 C45 0.929 . S
H16 C48 0.928 . S
O17 Co1 2.057 . S
O17 C5 1.232 . S
H18 C37 0.929 . S
H19 C38 0.929 . S
H20 C50 0.931 . S
H21 C42 0.929 . S
H22 C51 0.930 . S
H23 C43 0.931 . S
O24 Co0 2.097 . S
O24 C52 1.214 . S
H25 C53 0.929 . S
H26 C54 0.929 . S
H27 C55 0.930 . S
H28 C56 0.929 . S
H29 C58 0.930 . S
H30 C35 0.930 . S
H31 C39 0.930 . S
O32 Co1 2.037 . S
O32 C52 1.234 . S
C33 O7 1.269 . S
C33 O8 1.257 . S
C34 H9 0.930 . S
C34 C37 1.388 . S
C34 C39 1.418 . S
C35 H30 0.930 . S
C35 C38 1.404 . S
C35 C39 1.353 . S
N36 Co1 2.145 . S
N36 C37 1.397 . S
N36 C38 1.334 . S
C37 H18 0.929 . S
C37 C34 1.388 . S
C37 N36 1.397 . S
C38 H19 0.929 . S
C38 C35 1.404 . S
C38 N36 1.334 . S
C39 H31 0.930 . S
C39 C34 1.418 . S
C39 C35 1.353 . S
C40 H10 0.930 . S
C40 N41 1.330 . S
C40 C42 1.446 . S
N41 Co0 2.151 . S
N41 C40 1.330 . S
N41 C45 1.418 . S
C42 H21 0.929 . S
C42 C40 1.446 . S
C42 C43 1.332 . S
C43 H23 0.931 . S
C43 C42 1.332 . S
C43 C44 1.267 . S
C44 H12 0.929 . S
C44 C43 1.267 . S
C44 C45 1.251 . S
C45 H15 0.929 . S
C45 N41 1.418 . S
C45 C44 1.251 . S
C46 H13 0.930 . S
C46 C48 1.406 . S
C46 C51 1.261 . S
C47 H14 0.930 1_556 S
C47 N49 1.325 . S
C47 C50 1.357 . S
C48 H16 0.928 . S
C48 C46 1.406 . S
C48 N49 1.261 . S
N49 Co0 2.214 1_556 S
N49 C47 1.325 . S
N49 C48 1.261 . S
C50 H20 0.931 . S
C50 C47 1.357 . S
C50 C51 1.312 . S
C51 H22 0.930 . S
C51 C46 1.261 . S
C51 C50 1.312 . S
C52 O24 1.214 . S
C52 O32 1.234 . S
C53 H25 0.929 . S
C53 C56 1.391 . S
C53 C58 1.391 . S
C54 H26 0.929 . S
C54 C55 1.390 . S
C54 N57 1.391 . S
C55 H27 0.930 . S
C55 C54 1.390 . S
C55 C56 1.392 . S
C56 H28 0.929 . S
C56 C53 1.391 . S
C56 C55 1.392 . S
N57 Co1 2.257 . S
N57 C54 1.391 . S
N57 C58 1.388 . S
C58 H29 0.930 . S
C58 C53 1.391 . S
C58 N57 1.388 . S
Co59 O61 2.143 . S
Co59 O67 2.074 . S
Co59 O70 2.093 . S
Co59 O83 2.097 . S
Co59 N100 2.151 . S
Co59 N108 2.214 . S
Co60 O61 2.160 . S
Co60 O66 2.058 . S
Co60 O76 2.057 . S
Co60 O91 2.037 . S
Co60 N95 2.145 . S
Co60 N116 2.257 . S
O61 Co59 2.143 . S
O61 Co60 2.160 . S
C62 O63 1.278 . S
C62 O70 1.224 . S
O63 C62 1.278 . S
C64 O65 1.245 . S
C64 O76 1.232 . S
O65 C64 1.245 . S
O66 Co60 2.058 . S
O66 C92 1.269 . S
O67 Co59 2.074 . S
O67 C92 1.257 . S
H68 C93 0.930 . S
H69 C99 0.930 . S
O70 Co59 2.093 . S
O70 C62 1.224 . S
H71 C103 0.929 . S
H72 C105 0.930 . S
H73 C106 0.930 . S
H74 C104 0.929 . S
H75 C107 0.928 . S
O76 Co60 2.057 . S
O76 C64 1.232 . S
H77 C96 0.929 . S
H78 C97 0.929 . S
H79 C109 0.931 . S
H80 C101 0.929 . S
H81 C110 0.930 . S
H82 C102 0.931 . S
O83 Co59 2.097 . S
O83 C111 1.214 . S
H84 C112 0.929 . S
H85 C113 0.929 . S
H86 C114 0.930 . S
H87 C115 0.929 . S
H88 C117 0.930 . S
H89 C94 0.930 . S
H90 C98 0.930 . S
O91 Co60 2.037 . S
O91 C111 1.234 . S
C92 O66 1.269 . S
C92 O67 1.257 . S
C93 H68 0.930 . S
C93 C96 1.388 . S
C93 C98 1.418 . S
C94 H89 0.930 . S
C94 C97 1.404 . S
C94 C98 1.353 . S
N95 Co60 2.145 . S
N95 C96 1.397 . S
N95 C97 1.334 . S
C96 H77 0.929 . S
C96 C93 1.388 . S
C96 N95 1.397 . S
C97 H78 0.929 . S
C97 C94 1.404 . S
C97 N95 1.334 . S
C98 H90 0.930 . S
C98 C93 1.418 . S
C98 C94 1.353 . S
C99 H69 0.930 . S
C99 N100 1.330 . S
C99 C101 1.446 . S
N100 Co59 2.151 . S
N100 C99 1.330 . S
N100 C104 1.418 . S
C101 H80 0.929 . S
C101 C99 1.446 . S
C101 C102 1.332 . S
C102 H82 0.931 . S
C102 C101 1.332 . S
C102 C103 1.267 . S
C103 H71 0.929 . S
C103 C102 1.267 . S
C103 C104 1.251 . S
C104 H74 0.929 . S
C104 N100 1.418 . S
C104 C103 1.251 . S
C105 H72 0.930 . S
C105 C107 1.406 . S
C105 C110 1.261 . S
C106 H73 0.930 . S
C106 N108 1.325 . S
C106 C109 1.357 . S
C107 H75 0.928 . S
C107 C105 1.406 . S
C107 N108 1.261 . S
N108 Co59 2.214 . S
N108 C106 1.325 . S
N108 C107 1.261 . S
C109 H79 0.931 . S
C109 C106 1.357 . S
C109 C110 1.312 . S
C110 H81 0.930 . S
C110 C105 1.261 . S
C110 C109 1.312 . S
C111 O83 1.214 . S
C111 O91 1.234 . S
C112 H84 0.929 . S
C112 C115 1.391 . S
C112 C117 1.391 . S
C113 H85 0.929 . S
C113 C114 1.390 . S
C113 N116 1.391 . S
C114 H86 0.930 . S
C114 C113 1.390 . S
C114 C115 1.392 . S
C115 H87 0.929 . S
C115 C112 1.391 . S
C115 C114 1.392 . S
N116 Co60 2.257 . S
N116 C113 1.391 . S
N116 C117 1.388 . S
C117 H88 0.930 . S
C117 C112 1.391 . S
C117 N116 1.388 . S
Co118 O120 2.143 . S
Co118 O126 2.074 . S
Co118 O129 2.093 . S
Co118 O142 2.097 . S
Co118 N159 2.151 . S
Co118 N167 2.214 . S
Co119 O120 2.160 . S
Co119 O125 2.058 . S
Co119 O135 2.057 . S
Co119 O150 2.037 . S
Co119 N154 2.145 . S
Co119 N175 2.257 . S
O120 Co118 2.143 . S
O120 Co119 2.160 . S
C121 O122 1.278 . S
C121 O129 1.224 . S
O122 C121 1.278 . S
C123 O124 1.245 . S
C123 O135 1.232 . S
O124 C123 1.245 . S
O125 Co119 2.058 . S
O125 C151 1.269 . S
O126 Co118 2.074 . S
O126 C151 1.257 . S
H127 C152 0.930 . S
H128 C158 0.930 . S
O129 Co118 2.093 . S
O129 C121 1.224 . S
H130 C162 0.929 . S
H131 C164 0.930 . S
H132 C165 0.930 . S
H133 C163 0.929 . S
H134 C166 0.928 . S
O135 Co119 2.057 . S
O135 C123 1.232 . S
H136 C155 0.929 . S
H137 C156 0.929 . S
H138 C168 0.931 . S
H139 C160 0.929 . S
H140 C169 0.930 . S
H141 C161 0.931 . S
O142 Co118 2.097 . S
O142 C170 1.214 . S
H143 C171 0.929 . S
H144 C172 0.929 . S
H145 C173 0.930 . S
H146 C174 0.929 . S
H147 C176 0.930 . S
H148 C153 0.930 . S
H149 C157 0.930 . S
O150 Co119 2.037 . S
O150 C170 1.234 . S
C151 O125 1.269 . S
C151 O126 1.257 . S
C152 H127 0.930 . S
C152 C155 1.388 . S
C152 C157 1.418 . S
C153 H148 0.930 . S
C153 C156 1.404 . S
C153 C157 1.353 . S
N154 Co119 2.145 . S
N154 C155 1.397 . S
N154 C156 1.334 . S
C155 H136 0.929 . S
C155 C152 1.388 . S
C155 N154 1.397 . S
C156 H137 0.929 . S
C156 C153 1.404 . S
C156 N154 1.334 . S
C157 H149 0.930 . S
C157 C152 1.418 . S
C157 C153 1.353 . S
C158 H128 0.930 . S
C158 N159 1.330 . S
C158 C160 1.446 . S
N159 Co118 2.151 . S
N159 C158 1.330 . S
N159 C163 1.418 . S
C160 H139 0.929 . S
C160 C158 1.446 . S
C160 C161 1.332 . S
C161 H141 0.931 . S
C161 C160 1.332 . S
C161 C162 1.267 . S
C162 H130 0.929 . S
C162 C161 1.267 . S
C162 C163 1.251 . S
C163 H133 0.929 . S
C163 N159 1.418 . S
C163 C162 1.251 . S
C164 H131 0.930 . S
C164 C166 1.406 . S
C164 C169 1.261 . S
C165 H132 0.930 . S
C165 N167 1.325 . S
C165 C168 1.357 . S
C166 H134 0.928 . S
C166 C164 1.406 . S
C166 N167 1.261 . S
N167 Co118 2.214 . S
N167 C165 1.325 . S
N167 C166 1.261 . S
C168 H138 0.931 . S
C168 C165 1.357 . S
C168 C169 1.312 . S
C169 H140 0.930 . S
C169 C164 1.261 . S
C169 C168 1.312 . S
C170 O142 1.214 . S
C170 O150 1.234 . S
C171 H143 0.929 . S
C171 C174 1.391 . S
C171 C176 1.391 . S
C172 H144 0.929 . S
C172 C173 1.390 . S
C172 N175 1.391 . S
C173 H145 0.930 . S
C173 C172 1.390 . S
C173 C174 1.392 . S
C174 H146 0.929 . S
C174 C171 1.391 . S
C174 C173 1.392 . S
N175 Co119 2.257 . S
N175 C172 1.391 . S
N175 C176 1.388 . S
C176 H147 0.930 . S
C176 C171 1.391 . S
C176 N175 1.388 . S
Co177 O179 2.143 . S
Co177 O185 2.074 . S
Co177 O188 2.093 . S
Co177 O201 2.097 . S
Co177 N218 2.151 . S
Co177 N226 2.214 . S
Co178 O179 2.160 . S
Co178 O184 2.058 . S
Co178 O194 2.057 . S
Co178 O209 2.037 . S
Co178 N213 2.145 . S
Co178 N234 2.257 . S
O179 Co177 2.143 . S
O179 Co178 2.160 . S
C180 O181 1.278 . S
C180 O188 1.224 . S
O181 C180 1.278 . S
C182 O183 1.245 . S
C182 O194 1.232 . S
O183 C182 1.245 . S
O184 Co178 2.058 . S
O184 C210 1.269 . S
O185 Co177 2.074 . S
O185 C210 1.257 . S
H186 C211 0.930 . S
H187 C217 0.930 . S
O188 Co177 2.093 . S
O188 C180 1.224 . S
H189 C221 0.929 . S
H190 C223 0.930 . S
H191 C224 0.930 . S
H192 C222 0.929 . S
H193 C225 0.928 . S
O194 Co178 2.057 . S
O194 C182 1.232 . S
H195 C214 0.929 . S
H196 C215 0.929 . S
H197 C227 0.931 . S
H198 C219 0.929 . S
H199 C228 0.930 . S
H200 C220 0.931 . S
O201 Co177 2.097 . S
O201 C229 1.214 . S
H202 C230 0.929 . S
H203 C231 0.929 . S
H204 C232 0.930 . S
H205 C233 0.929 . S
H206 C235 0.930 . S
H207 C212 0.930 . S
H208 C216 0.930 . S
O209 Co178 2.037 . S
O209 C229 1.234 . S
C210 O184 1.269 . S
C210 O185 1.257 . S
C211 H186 0.930 . S
C211 C214 1.388 . S
C211 C216 1.418 . S
C212 H207 0.930 . S
C212 C215 1.404 . S
C212 C216 1.353 . S
N213 Co178 2.145 . S
N213 C214 1.397 . S
N213 C215 1.334 . S
C214 H195 0.929 . S
C214 C211 1.388 . S
C214 N213 1.397 . S
C215 H196 0.929 . S
C215 C212 1.404 . S
C215 N213 1.334 . S
C216 H208 0.930 . S
C216 C211 1.418 . S
C216 C212 1.353 . S
C217 H187 0.930 . S
C217 N218 1.330 . S
C217 C219 1.446 . S
N218 Co177 2.151 . S
N218 C217 1.330 . S
N218 C222 1.418 . S
C219 H198 0.929 . S
C219 C217 1.446 . S
C219 C220 1.332 . S
C220 H200 0.931 . S
C220 C219 1.332 . S
C220 C221 1.267 . S
C221 H189 0.929 . S
C221 C220 1.267 . S
C221 C222 1.251 . S
C222 H192 0.929 . S
C222 N218 1.418 . S
C222 C221 1.251 . S
C223 H190 0.930 . S
C223 C225 1.406 . S
C223 C228 1.261 . S
C224 H191 0.930 . S
C224 N226 1.325 . S
C224 C227 1.357 . S
C225 H193 0.928 . S
C225 C223 1.406 . S
C225 N226 1.261 . S
N226 Co177 2.214 . S
N226 C224 1.325 . S
N226 C225 1.261 . S
C227 H197 0.931 . S
C227 C224 1.357 . S
C227 C228 1.312 . S
C228 H199 0.930 . S
C228 C223 1.261 . S
C228 C227 1.312 . S
C229 O201 1.214 . S
C229 O209 1.234 . S
C230 H202 0.929 . S
C230 C233 1.391 . S
C230 C235 1.391 . S
C231 H203 0.929 . S
C231 C232 1.390 . S
C231 N234 1.391 . S
C232 H204 0.930 . S
C232 C231 1.390 . S
C232 C233 1.392 . S
C233 H205 0.929 . S
C233 C230 1.391 . S
C233 C232 1.392 . S
N234 Co178 2.257 . S
N234 C231 1.391 . S
N234 C235 1.388 . S
C235 H206 0.930 . S
C235 C230 1.391 . S
C235 N234 1.388 . S
Co236 O238 2.143 . S
Co236 O244 2.074 . S
Co236 O247 2.093 . S
Co236 O260 2.097 . S
Co236 N277 2.151 . S
Co236 N285 2.214 . S
Co237 O238 2.160 . S
Co237 O243 2.058 . S
Co237 O253 2.057 . S
Co237 O268 2.037 . S
Co237 N272 2.145 . S
Co237 N293 2.257 . S
O238 Co236 2.143 . S
O238 Co237 2.160 . S
C239 O240 1.278 . S
C239 O247 1.224 . S
O240 C239 1.278 . S
C241 O242 1.245 . S
C241 O253 1.232 . S
O242 C241 1.245 . S
O243 Co237 2.058 . S
O243 C269 1.269 . S
O244 Co236 2.074 . S
O244 C269 1.257 . S
H245 C270 0.930 . S
H246 C276 0.930 . S
O247 Co236 2.093 . S
O247 C239 1.224 . S
H248 C280 0.929 . S
H249 C282 0.930 . S
H250 C283 0.930 . S
H251 C281 0.929 . S
H252 C284 0.928 . S
O253 Co237 2.057 . S
O253 C241 1.232 . S
H254 C273 0.929 . S
H255 C274 0.929 . S
H256 C286 0.931 . S
H257 C278 0.929 . S
H258 C287 0.930 . S
H259 C279 0.931 . S
O260 Co236 2.097 . S
O260 C288 1.214 . S
H261 C289 0.929 . S
H262 C290 0.929 . S
H263 C291 0.930 . S
H264 C292 0.929 . S
H265 C294 0.930 . S
H266 C271 0.930 . S
H267 C275 0.930 . S
O268 Co237 2.037 . S
O268 C288 1.234 . S
C269 O243 1.269 . S
C269 O244 1.257 . S
C270 H245 0.930 . S
C270 C273 1.388 . S
C270 C275 1.418 . S
C271 H266 0.930 . S
C271 C274 1.404 . S
C271 C275 1.353 . S
N272 Co237 2.145 . S
N272 C273 1.397 . S
N272 C274 1.334 . S
C273 H254 0.929 . S
C273 C270 1.388 . S
C273 N272 1.397 . S
C274 H255 0.929 . S
C274 C271 1.404 . S
C274 N272 1.334 . S
C275 H267 0.930 . S
C275 C270 1.418 . S
C275 C271 1.353 . S
C276 H246 0.930 . S
C276 N277 1.330 . S
C276 C278 1.446 . S
N277 Co236 2.151 . S
N277 C276 1.330 . S
N277 C281 1.418 . S
C278 H257 0.929 . S
C278 C276 1.446 . S
C278 C279 1.332 . S
C279 H259 0.931 . S
C279 C278 1.332 . S
C279 C280 1.267 . S
C280 H248 0.929 . S
C280 C279 1.267 . S
C280 C281 1.251 . S
C281 H251 0.929 . S
C281 N277 1.418 . S
C281 C280 1.251 . S
C282 H249 0.930 . S
C282 C284 1.406 . S
C282 C287 1.261 . S
C283 H250 0.930 . S
C283 N285 1.325 . S
C283 C286 1.357 . S
C284 H252 0.928 . S
C284 C282 1.406 . S
C284 N285 1.261 . S
N285 Co236 2.214 . S
N285 C283 1.325 . S
N285 C284 1.261 . S
C286 H256 0.931 . S
C286 C283 1.357 . S
C286 C287 1.312 . S
C287 H258 0.930 . S
C287 C282 1.261 . S
C287 C286 1.312 . S
C288 O260 1.214 . S
C288 O268 1.234 . S
C289 H261 0.929 . S
C289 C292 1.391 . S
C289 C294 1.391 . S
C290 H262 0.929 . S
C290 C291 1.390 . S
C290 N293 1.391 . S
C291 H263 0.930 . S
C291 C290 1.390 . S
C291 C292 1.392 . S
C292 H264 0.929 . S
C292 C289 1.391 . S
C292 C291 1.392 . S
N293 Co237 2.257 . S
N293 C290 1.391 . S
N293 C294 1.388 . S
C294 H265 0.930 . S
C294 C289 1.391 . S
C294 N293 1.388 . S
Co295 O297 2.143 . S
Co295 O303 2.074 . S
Co295 O306 2.093 1_556 S
Co295 O319 2.097 . S
Co295 N336 2.151 . S
Co295 N344 2.214 1_556 S
Co296 O297 2.160 . S
Co296 O302 2.058 . S
Co296 O312 2.057 . S
Co296 O327 2.037 . S
Co296 N331 2.145 . S
Co296 N352 2.257 . S
O297 Co295 2.143 . S
O297 Co296 2.160 . S
C298 O299 1.278 1_554 S
C298 O306 1.224 . S
O299 C298 1.278 1_556 S
C300 O301 1.245 . S
C300 O312 1.232 . S
O301 C300 1.245 . S
O302 Co296 2.058 . S
O302 C328 1.269 . S
O303 Co295 2.074 . S
O303 C328 1.257 . S
H304 C329 0.930 . S
H305 C335 0.930 . S
O306 Co295 2.093 1_554 S
O306 C298 1.224 . S
H307 C339 0.929 . S
H308 C341 0.930 . S
H309 C342 0.930 1_556 S
H310 C340 0.929 . S
H311 C343 0.928 . S
O312 Co296 2.057 . S
O312 C300 1.232 . S
H313 C332 0.929 . S
H314 C333 0.929 . S
H315 C345 0.931 . S
H316 C337 0.929 . S
H317 C346 0.930 . S
H318 C338 0.931 . S
O319 Co295 2.097 . S
O319 C347 1.214 . S
H320 C348 0.929 . S
H321 C349 0.929 . S
H322 C350 0.930 . S
H323 C351 0.929 . S
H324 C353 0.930 . S
H325 C330 0.930 . S
H326 C334 0.930 . S
O327 Co296 2.037 . S
O327 C347 1.234 . S
C328 O302 1.269 . S
C328 O303 1.257 . S
C329 H304 0.930 . S
C329 C332 1.388 . S
C329 C334 1.418 . S
C330 H325 0.930 . S
C330 C333 1.404 . S
C330 C334 1.353 . S
N331 Co296 2.145 . S
N331 C332 1.397 . S
N331 C333 1.334 . S
C332 H313 0.929 . S
C332 C329 1.388 . S
C332 N331 1.397 . S
C333 H314 0.929 . S
C333 C330 1.404 . S
C333 N331 1.334 . S
C334 H326 0.930 . S
C334 C329 1.418 . S
C334 C330 1.353 . S
C335 H305 0.930 . S
C335 N336 1.330 . S
C335 C337 1.446 . S
N336 Co295 2.151 . S
N336 C335 1.330 . S
N336 C340 1.418 . S
C337 H316 0.929 . S
C337 C335 1.446 . S
C337 C338 1.332 . S
C338 H318 0.931 . S
C338 C337 1.332 . S
C338 C339 1.267 . S
C339 H307 0.929 . S
C339 C338 1.267 . S
C339 C340 1.251 . S
C340 H310 0.929 . S
C340 N336 1.418 . S
C340 C339 1.251 . S
C341 H308 0.930 . S
C341 C343 1.406 . S
C341 C346 1.261 . S
C342 H309 0.930 1_554 S
C342 N344 1.325 . S
C342 C345 1.357 . S
C343 H311 0.928 . S
C343 C341 1.406 . S
C343 N344 1.261 . S
N344 Co295 2.214 1_554 S
N344 C342 1.325 . S
N344 C343 1.261 . S
C345 H315 0.931 . S
C345 C342 1.357 . S
C345 C346 1.312 . S
C346 H317 0.930 . S
C346 C341 1.261 . S
C346 C345 1.312 . S
C347 O319 1.214 . S
C347 O327 1.234 . S
C348 H320 0.929 . S
C348 C351 1.391 . S
C348 C353 1.391 . S
C349 H321 0.929 . S
C349 C350 1.390 . S
C349 N352 1.391 . S
C350 H322 0.930 . S
C350 C349 1.390 . S
C350 C351 1.392 . S
C351 H323 0.929 . S
C351 C348 1.391 . S
C351 C350 1.392 . S
N352 Co296 2.257 . S
N352 C349 1.391 . S
N352 C353 1.388 . S
C353 H324 0.930 . S
C353 C348 1.391 . S
C353 N352 1.388 . S
H354 C362 0.920 1_554 S
H355 C364 0.930 . S
H356 C366 0.930 . S
H357 C369 0.929 . S
H358 C372 0.930 . S
H359 C374 0.960 . S
H360 C374 0.960 . S
H361 C374 0.960 . S
C362 H354 0.920 1_556 S
C362 C363 1.377 . S
C362 C364 1.384 . S
C363 C362 1.377 . S
C363 C369 1.390 . S
C364 H355 0.930 . S
C364 C362 1.384 . S
C364 C365 1.372 . S
C365 C364 1.372 . S
C365 C366 1.400 . S
C365 C370 1.490 . S
C366 H356 0.930 . S
C366 C365 1.400 . S
C366 C369 1.386 . S
H367 C383 0.930 . S
H368 C384 0.931 . S
C369 H357 0.929 . S
C369 C363 1.390 . S
C369 C366 1.386 . S
C370 C365 1.490 . S
C370 C372 1.395 1_455 S
C370 C373 1.403 . S
H371 C377 0.930 . S
C372 H358 0.930 . S
C372 C370 1.395 1_655 S
C372 C375 1.403 . S
C373 C370 1.403 . S
C373 C374 1.524 . S
C373 C377 1.400 . S
C374 H359 0.960 . S
C374 H360 0.960 . S
C374 H361 0.960 . S
C374 C373 1.524 . S
C375 C372 1.403 . S
C375 C376 1.392 . S
C375 C379 1.495 . S
C376 C375 1.392 . S
C376 C377 1.385 1_655 S
C376 C378 1.478 . S
C377 H371 0.930 . S
C377 C373 1.400 . S
C377 C376 1.385 1_455 S
C378 C376 1.478 . S
C378 C380 1.381 . S
C378 C384 1.383 . S
C379 C375 1.495 . S
C379 H385 0.959 . S
C379 H386 0.961 . S
C379 H387 0.960 . S
C380 C378 1.381 . S
C380 C381 1.394 . S
C380 H388 0.930 . S
C381 C380 1.394 . S
C381 C382 1.383 . S
C381 H389 0.929 . S
C382 C381 1.383 . S
C382 C383 1.377 . S
C383 H367 0.930 . S
C383 C382 1.377 . S
C383 C384 1.379 . S
C384 H368 0.931 . S
C384 C378 1.383 . S
C384 C383 1.379 . S
H385 C379 0.959 . S
H386 C379 0.961 . S
H387 C379 0.960 . S
H388 C380 0.930 . S
H389 C381 0.929 . S
H390 C398 0.929 . S
H391 C400 0.930 . S
H392 C402 0.930 . S
H393 C405 0.929 . S
H394 C408 0.930 . S
H395 C410 0.960 . S
H396 C410 0.960 . S
H397 C410 0.960 . S
C398 H390 0.929 . S
C398 C399 1.377 . S
C398 C400 1.384 . S
C399 C398 1.377 . S
C399 C405 1.390 . S
C400 H391 0.930 . S
C400 C398 1.384 . S
C400 C401 1.372 . S
C401 C400 1.372 . S
C401 C402 1.400 . S
C401 C406 1.490 . S
C402 H392 0.930 . S
C402 C401 1.400 . S
C402 C405 1.386 . S
H403 C419 0.930 . S
H404 C420 0.931 . S
C405 H393 0.929 . S
C405 C399 1.390 . S
C405 C402 1.386 . S
C406 C401 1.490 . S
C406 C408 1.395 1_556 S
C406 C409 1.403 1_565 S
H407 C413 0.932 . S
C408 H394 0.930 . S
C408 C406 1.395 1_554 S
C408 C411 1.403 . S
C409 C406 1.403 1_545 S
C409 C410 1.524 . S
C409 C413 1.413 . S
C410 H395 0.960 . S
C410 H396 0.960 . S
C410 H397 0.960 . S
C410 C409 1.524 . S
C411 C408 1.403 . S
C411 C412 1.392 1_565 S
C411 C415 1.495 . S
C412 C411 1.392 1_545 S
C412 C413 1.370 1_554 S
C412 C414 1.478 . S
C413 H407 0.932 . S
C413 C409 1.413 . S
C413 C412 1.370 1_556 S
C414 C412 1.478 . S
C414 C416 1.381 . S
C414 C420 1.383 . S
C415 C411 1.495 . S
C415 H421 0.959 . S
C415 H422 0.961 . S
C415 H423 0.960 . S
C416 C414 1.381 . S
C416 C417 1.394 . S
C416 H424 0.930 . S
C417 C416 1.394 . S
C417 C418 1.383 . S
C417 H425 0.929 . S
C418 C417 1.383 . S
C418 C419 1.377 . S
C419 H403 0.930 . S
C419 C418 1.377 . S
C419 C420 1.379 . S
C420 H404 0.931 . S
C420 C414 1.383 . S
C420 C419 1.379 . S
H421 C415 0.959 . S
H422 C415 0.961 . S
H423 C415 0.960 . S
H424 C416 0.930 . S
H425 C417 0.929 . S
H426 C434 0.929 . S
H427 C436 0.930 . S
H428 C438 0.930 . S
H429 C441 0.929 . S
H430 C444 0.930 . S
H431 C446 0.960 . S
H432 C446 0.960 . S
H433 C446 0.960 . S
C434 H426 0.929 . S
C434 C435 1.377 . S
C434 C436 1.384 . S
C435 C434 1.377 . S
C435 C441 1.390 . S
C436 H427 0.930 . S
C436 C434 1.384 . S
C436 C437 1.372 . S
C437 C436 1.372 . S
C437 C438 1.400 . S
C437 C442 1.490 . S
C438 H428 0.930 . S
C438 C437 1.400 . S
C438 C441 1.386 . S
H439 C455 0.930 . S
H440 C456 0.931 . S
C441 H429 0.929 . S
C441 C435 1.390 . S
C441 C438 1.386 . S
C442 C437 1.490 . S
C442 C444 1.395 . S
C442 C445 1.403 . S
H443 C449 0.930 . S
C444 H430 0.930 . S
C444 C442 1.395 . S
C444 C447 1.403 . S
C445 C442 1.403 . S
C445 C446 1.524 . S
C445 C449 1.400 . S
C446 H431 0.960 . S
C446 H432 0.960 . S
C446 H433 0.960 . S
C446 C445 1.524 . S
C447 C444 1.403 . S
C447 C448 1.392 . S
C447 C451 1.495 . S
C448 C447 1.392 . S
C448 C449 1.385 . S
C448 C450 1.478 . S
C449 H443 0.930 . S
C449 C445 1.400 . S
C449 C448 1.385 . S
C450 C448 1.478 . S
C450 C452 1.381 . S
C450 C456 1.383 . S
C451 C447 1.495 . S
C451 H457 0.959 . S
C451 H458 0.961 . S
C451 H459 0.960 . S
C452 C450 1.381 . S
C452 C453 1.394 . S
C452 H460 0.930 . S
C453 C452 1.394 . S
C453 C454 1.383 . S
C453 H461 0.929 . S
C454 C453 1.383 . S
C454 C455 1.377 . S
C455 H439 0.930 . S
C455 C454 1.377 . S
C455 C456 1.379 . S
C456 H440 0.931 . S
C456 C450 1.383 . S
C456 C455 1.379 . S
H457 C451 0.959 . S
H458 C451 0.961 . S
H459 C451 0.960 . S
H460 C452 0.930 . S
H461 C453 0.929 . S
H462 C470 0.929 . S
H463 C472 0.930 . S
H464 C474 0.930 . S
H465 C477 0.929 . S
H466 C480 0.930 . S
H467 C482 0.960 . S
H468 C482 0.960 1_655 S
H469 C482 0.960 . S
C470 H462 0.929 . S
C470 C471 1.377 . S
C470 C472 1.384 . S
C471 C470 1.377 . S
C471 C477 1.390 . S
C472 H463 0.930 . S
C472 C470 1.384 . S
C472 C473 1.372 . S
C473 C472 1.372 . S
C473 C474 1.400 . S
C473 C478 1.490 . S
C474 H464 0.930 . S
C474 C473 1.400 . S
C474 C477 1.386 . S
H475 C491 0.930 . S
H476 C492 0.931 . S
C477 H465 0.929 . S
C477 C471 1.390 . S
C477 C474 1.386 . S
C478 C473 1.490 . S
C478 C480 1.395 . S
C478 C481 1.403 1_655 S
H479 C485 0.930 . S
C480 H466 0.930 . S
C480 C478 1.395 . S
C480 C483 1.403 . S
C481 C478 1.403 1_455 S
C481 C482 1.524 . S
C481 C485 1.400 . S
C482 H467 0.960 . S
C482 H468 0.960 1_455 S
C482 H469 0.960 . S
C482 C481 1.524 . S
C483 C480 1.403 . S
C483 C484 1.392 1_655 S
C483 C487 1.495 . S
C484 C483 1.392 1_455 S
C484 C485 1.385 . S
C484 C486 1.478 . S
C485 H479 0.930 . S
C485 C481 1.400 . S
C485 C484 1.385 . S
C486 C484 1.478 . S
C486 C488 1.381 . S
C486 C492 1.383 . S
C487 C483 1.495 . S
C487 H493 0.959 . S
C487 H494 0.961 . S
C487 H495 0.960 . S
C488 C486 1.381 . S
C488 C489 1.394 . S
C488 H496 0.930 . S
C489 C488 1.394 . S
C489 C490 1.383 . S
C489 H497 0.929 . S
C490 C489 1.383 . S
C490 C491 1.377 . S
C491 H475 0.930 . S
C491 C490 1.377 . S
C491 C492 1.379 . S
C492 H476 0.931 . S
C492 C486 1.383 . S
C492 C491 1.379 . S
H493 C487 0.959 . S
H494 C487 0.961 . S
H495 C487 0.960 . S
H496 C488 0.930 . S
H497 C489 0.929 . S
H498 C506 0.929 . S
H499 C508 0.930 . S
H500 C510 0.930 . S
H501 C513 0.929 . S
H502 C516 0.930 . S
H503 C518 0.960 . S
H504 C518 0.960 1_545 S
H505 C518 0.960 . S
C506 H498 0.929 . S
C506 C507 1.377 . S
C506 C508 1.384 . S
C507 C506 1.377 . S
C507 C513 1.390 . S
C508 H499 0.930 . S
C508 C506 1.384 . S
C508 C509 1.372 . S
C509 C508 1.372 . S
C509 C510 1.400 . S
C509 C514 1.490 . S
C510 H500 0.930 . S
C510 C509 1.400 . S
C510 C513 1.386 . S
H511 C527 0.930 . S
H512 C528 0.931 . S
C513 H501 0.929 . S
C513 C507 1.390 . S
C513 C510 1.386 . S
C514 C509 1.490 . S
C514 C516 1.395 . S
C514 C517 1.403 1_545 S
H515 C521 0.930 . S
C516 H502 0.930 . S
C516 C514 1.395 . S
C516 C519 1.403 . S
C517 C514 1.403 1_565 S
C517 C518 1.524 . S
C517 C521 1.400 . S
C518 H503 0.960 . S
C518 H504 0.960 1_565 S
C518 H505 0.960 . S
C518 C517 1.524 . S
C519 C516 1.403 . S
C519 C520 1.392 1_545 S
C519 C523 1.495 . S
C520 C519 1.392 1_565 S
C520 C521 1.385 . S
C520 C522 1.478 . S
C521 H515 0.930 . S
C521 C517 1.400 . S
C521 C520 1.385 . S
C522 C520 1.478 . S
C522 C524 1.381 . S
C522 C528 1.383 . S
C523 C519 1.495 . S
C523 H529 0.959 . S
C523 H530 0.961 1_545 S
C523 H531 0.960 . S
C524 C522 1.381 . S
C524 C525 1.394 . S
C524 H532 0.930 . S
C525 C524 1.394 . S
C525 C526 1.383 . S
C525 H533 0.929 . S
C526 C525 1.383 . S
C526 C527 1.377 . S
C527 H511 0.930 . S
C527 C526 1.377 . S
C527 C528 1.379 . S
C528 H512 0.931 . S
C528 C522 1.383 . S
C528 C527 1.379 . S
H529 C523 0.959 . S
H530 C523 0.961 1_565 S
H531 C523 0.960 . S
H532 C524 0.930 . S
H533 C525 0.929 . S
H534 C542 0.929 . S
H535 C544 0.930 . S
H536 C546 0.930 . S
H537 C549 0.929 . S
H538 C552 0.930 . S
H539 C554 0.960 . S
H540 C554 0.960 . S
H541 C554 0.960 . S
C542 H534 0.929 . S
C542 C543 1.377 . S
C542 C544 1.384 . S
C543 C542 1.377 . S
C543 C549 1.390 . S
C544 H535 0.930 . S
C544 C542 1.384 . S
C544 C545 1.372 . S
C545 C544 1.372 . S
C545 C546 1.400 . S
C545 C550 1.490 . S
C546 H536 0.930 . S
C546 C545 1.400 . S
C546 C549 1.386 . S
H547 C563 0.930 . S
H548 C564 0.931 . S
C549 H537 0.929 . S
C549 C543 1.390 . S
C549 C546 1.386 . S
C550 C545 1.490 . S
C550 C552 1.395 . S
C550 C553 1.403 . S
H551 C557 0.930 . S
C552 H538 0.930 . S
C552 C550 1.395 . S
C552 C555 1.403 . S
C553 C550 1.403 . S
C553 C554 1.524 . S
C553 C557 1.400 . S
C554 H539 0.960 . S
C554 H540 0.960 . S
C554 H541 0.960 . S
C554 C553 1.524 . S
C555 C552 1.403 . S
C555 C556 1.392 . S
C555 C559 1.495 . S
C556 C555 1.392 . S
C556 C557 1.385 . S
C556 C558 1.478 . S
C557 H551 0.930 . S
C557 C553 1.400 . S
C557 C556 1.385 . S
C558 C556 1.478 . S
C558 C560 1.381 . S
C558 C564 1.383 . S
C559 C555 1.495 . S
C559 H565 0.959 . S
C559 H566 0.961 . S
C559 H567 0.960 . S
C560 C558 1.381 . S
C560 C561 1.394 . S
C560 H568 0.930 . S
C561 C560 1.394 . S
C561 C562 1.383 . S
C561 H569 0.929 . S
C562 C561 1.383 . S
C562 C563 1.377 . S
C563 H547 0.930 . S
C563 C562 1.377 . S
C563 C564 1.379 . S
C564 H548 0.931 . S
C564 C558 1.383 . S
C564 C563 1.379 . S
H565 C559 0.959 . S
H566 C559 0.961 . S
H567 C559 0.960 . S
H568 C560 0.930 . S
H569 C561 0.929 . S
H570 C578 0.929 . S
H571 C580 0.930 . S
H572 C582 0.930 . S
H573 C585 0.929 . S
H574 C588 0.930 . S
H575 C590 0.960 . S
H576 C590 0.960 . S
H577 C590 0.960 . S
C578 H570 0.929 . S
C578 C579 1.377 . S
C578 C580 1.384 . S
C579 C578 1.377 . S
C579 C585 1.390 . S
C580 H571 0.930 . S
C580 C578 1.384 . S
C580 C581 1.372 . S
C581 C580 1.372 . S
C581 C582 1.400 . S
C581 C586 1.490 . S
C582 H572 0.930 . S
C582 C581 1.400 . S
C582 C585 1.386 . S
H583 C599 0.930 . S
H584 C600 0.931 . S
C585 H573 0.929 . S
C585 C579 1.390 . S
C585 C582 1.386 . S
C586 C581 1.490 . S
C586 C588 1.395 . S
C586 C589 1.403 . S
H587 C593 0.930 . S
C588 H574 0.930 . S
C588 C586 1.395 . S
C588 C591 1.403 . S
C589 C586 1.403 . S
C589 C590 1.524 . S
C589 C593 1.400 . S
C590 H575 0.960 . S
C590 H576 0.960 . S
C590 H577 0.960 . S
C590 C589 1.524 . S
C591 C588 1.403 . S
C591 C592 1.392 . S
C591 C595 1.495 . S
C592 C591 1.392 . S
C592 C593 1.385 . S
C592 C594 1.478 . S
C593 H587 0.930 . S
C593 C589 1.400 . S
C593 C592 1.385 . S
C594 C592 1.478 . S
C594 C596 1.381 . S
C594 C600 1.383 . S
C595 C591 1.495 . S
C595 H601 0.959 . S
C595 H602 0.961 . S
C595 H603 0.960 . S
C596 C594 1.381 . S
C596 C597 1.394 . S
C596 H604 0.930 . S
C597 C596 1.394 . S
C597 C598 1.383 . S
C597 H605 0.929 . S
C598 C597 1.383 . S
C598 C599 1.377 . S
C599 H583 0.930 . S
C599 C598 1.377 . S
C599 C600 1.379 . S
C600 H584 0.931 . S
C600 C594 1.383 . S
C600 C599 1.379 . S
H601 C595 0.959 . S
H602 C595 0.961 . S
H603 C595 0.960 . S
H604 C596 0.930 . S
H605 C597 0.929 . S
H606 C614 0.929 . S
H607 C616 0.930 . S
H608 C618 0.930 . S
H609 C621 0.929 . S
H610 C624 0.930 . S
H611 C626 0.960 . S
H612 C626 0.960 . S
H613 C626 0.960 . S
C614 H606 0.929 . S
C614 C615 1.377 . S
C614 C616 1.384 . S
C615 C614 1.377 . S
C615 C621 1.390 . S
C616 H607 0.930 . S
C616 C614 1.384 . S
C616 C617 1.372 . S
C617 C616 1.372 . S
C617 C618 1.400 . S
C617 C622 1.490 . S
C618 H608 0.930 . S
C618 C617 1.400 . S
C618 C621 1.386 . S
H619 C635 0.930 . S
H620 C636 0.931 . S
C621 H609 0.929 . S
C621 C615 1.390 . S
C621 C618 1.386 . S
C622 C617 1.490 . S
C622 C624 1.395 . S
C622 C625 1.403 . S
H623 C629 0.930 . S
C624 H610 0.930 . S
C624 C622 1.395 . S
C624 C627 1.403 . S
C625 C622 1.403 . S
C625 C626 1.524 . S
C625 C629 1.400 . S
C626 H611 0.960 . S
C626 H612 0.960 . S
C626 H613 0.960 . S
C626 C625 1.524 . S
C627 C624 1.403 . S
C627 C628 1.392 . S
C627 C631 1.495 . S
C628 C627 1.392 . S
C628 C629 1.385 . S
C628 C630 1.478 . S
C629 H623 0.930 . S
C629 C625 1.400 . S
C629 C628 1.385 . S
C630 C628 1.478 . S
C630 C632 1.381 . S
C630 C636 1.383 . S
C631 C627 1.495 . S
C631 H637 0.959 . S
C631 H638 0.961 . S
C631 H639 0.960 . S
C632 C630 1.381 . S
C632 C633 1.394 . S
C632 H640 0.930 . S
C633 C632 1.394 . S
C633 C634 1.383 . S
C633 H641 0.929 . S
C634 C633 1.383 . S
C634 C635 1.377 . S
C635 H619 0.930 . S
C635 C634 1.377 . S
C635 C636 1.379 . S
C636 H620 0.931 . S
C636 C630 1.383 . S
C636 C635 1.379 . S
H637 C631 0.959 . S
H638 C631 0.961 . S
H639 C631 0.960 . S
H640 C632 0.930 . S
H641 C633 0.929 . S
H642 C650 0.929 . S
H643 C652 0.930 . S
H644 C654 0.930 . S
H645 C657 0.929 . S
H646 C660 0.930 . S
H647 C662 0.960 . S
H648 C662 0.960 . S
H649 C662 0.960 . S
C650 H642 0.929 . S
C650 C651 1.377 . S
C650 C652 1.384 . S
C651 C650 1.377 . S
C651 C657 1.390 . S
C652 H643 0.930 . S
C652 C650 1.384 . S
C652 C653 1.372 . S
C653 C652 1.372 . S
C653 C654 1.400 . S
C653 C658 1.490 . S
C654 H644 0.930 . S
C654 C653 1.400 . S
C654 C657 1.386 . S
H655 C671 0.930 . S
H656 C672 0.931 . S
C657 H645 0.929 . S
C657 C651 1.390 . S
C657 C654 1.386 . S
C658 C653 1.490 . S
C658 C660 1.395 . S
C658 C661 1.403 . S
H659 C665 0.930 . S
C660 H646 0.930 . S
C660 C658 1.395 . S
C660 C663 1.403 . S
C661 C658 1.403 . S
C661 C662 1.524 . S
C661 C665 1.400 . S
C662 H647 0.960 . S
C662 H648 0.960 . S
C662 H649 0.960 . S
C662 C661 1.524 . S
C663 C660 1.403 . S
C663 C664 1.392 . S
C663 C667 1.495 . S
C664 C663 1.392 . S
C664 C665 1.385 . S
C664 C666 1.478 . S
C665 H659 0.930 . S
C665 C661 1.400 . S
C665 C664 1.385 . S
C666 C664 1.478 . S
C666 C668 1.381 . S
C666 C672 1.383 . S
C667 C663 1.495 . S
C667 H673 0.959 . S
C667 H674 0.961 . S
C667 H675 0.960 . S
C668 C666 1.381 . S
C668 C669 1.394 . S
C668 H676 0.930 . S
C669 C668 1.394 . S
C669 C670 1.383 . S
C669 H677 0.929 . S
C670 C669 1.383 . S
C670 C671 1.377 . S
C671 H655 0.930 . S
C671 C670 1.377 . S
C671 C672 1.379 . S
C672 H656 0.931 . S
C672 C666 1.383 . S
C672 C671 1.379 . S
H673 C667 0.959 . S
H674 C667 0.961 . S
H675 C667 0.960 . S
H676 C668 0.930 . S
H677 C669 0.929 . S
H678 C686 0.929 . S
H679 C688 0.930 . S
H680 C690 0.930 . S
H681 C693 0.929 . S
H682 C696 0.930 . S
H683 C698 0.960 . S
H684 C698 0.960 . S
H685 C698 0.960 . S
C686 H678 0.929 . S
C686 C687 1.377 . S
C686 C688 1.384 . S
C687 C686 1.377 . S
C687 C693 1.390 . S
C688 H679 0.930 . S
C688 C686 1.384 . S
C688 C689 1.372 . S
C689 C688 1.372 . S
C689 C690 1.400 . S
C689 C694 1.490 . S
C690 H680 0.930 . S
C690 C689 1.400 . S
C690 C693 1.386 . S
H691 C707 0.930 . S
H692 C708 0.931 . S
C693 H681 0.929 . S
C693 C687 1.390 . S
C693 C690 1.386 . S
C694 C689 1.490 . S
C694 C696 1.395 . S
C694 C697 1.403 . S
H695 C701 0.930 . S
C696 H682 0.930 . S
C696 C694 1.395 . S
C696 C699 1.403 . S
C697 C694 1.403 . S
C697 C698 1.524 . S
C697 C701 1.400 . S
C698 H683 0.960 . S
C698 H684 0.960 . S
C698 H685 0.960 . S
C698 C697 1.524 . S
C699 C696 1.403 . S
C699 C700 1.392 . S
C699 C703 1.495 . S
C700 C699 1.392 . S
C700 C701 1.385 . S
C700 C702 1.478 . S
C701 H695 0.930 . S
C701 C697 1.400 . S
C701 C700 1.385 . S
C702 C700 1.478 . S
C702 C704 1.381 . S
C702 C708 1.383 . S
C703 C699 1.495 . S
C703 H709 0.959 . S
C703 H710 0.961 . S
C703 H711 0.960 . S
C704 C702 1.381 . S
C704 C705 1.394 . S
C704 H712 0.930 . S
C705 C704 1.394 . S
C705 C706 1.383 . S
C705 H713 0.929 . S
C706 C705 1.383 . S
C706 C707 1.377 . S
C707 H691 0.930 . S
C707 C706 1.377 . S
C707 C708 1.379 . S
C708 H692 0.931 . S
C708 C702 1.383 . S
C708 C707 1.379 . S
H709 C703 0.959 . S
H710 C703 0.961 . S
H711 C703 0.960 . S
H712 C704 0.930 . S
H713 C705 0.929 . S
H714 C722 0.929 . S
H715 C724 0.930 . S
H716 C726 0.930 . S
H717 C729 0.929 . S
H718 C732 0.930 . S
H719 C734 0.960 . S
H720 C734 0.960 . S
H721 C734 0.960 . S
C722 H714 0.929 . S
C722 C723 1.377 . S
C722 C724 1.384 . S
C723 C722 1.377 . S
C723 C729 1.390 . S
C724 H715 0.930 . S
C724 C722 1.384 . S
C724 C725 1.372 . S
C725 C724 1.372 . S
C725 C726 1.400 . S
C725 C730 1.490 . S
C726 H716 0.930 . S
C726 C725 1.400 . S
C726 C729 1.386 . S
H727 C743 0.930 . S
H728 C744 0.931 . S
C729 H717 0.929 . S
C729 C723 1.390 . S
C729 C726 1.386 . S
C730 C725 1.490 . S
C730 C732 1.395 . S
C730 C733 1.403 . S
H731 C737 0.930 . S
C732 H718 0.930 . S
C732 C730 1.395 . S
C732 C735 1.403 . S
C733 C730 1.403 . S
C733 C734 1.524 . S
C733 C737 1.400 . S
C734 H719 0.960 . S
C734 H720 0.960 . S
C734 H721 0.960 . S
C734 C733 1.524 . S
C735 C732 1.403 . S
C735 C736 1.392 . S
C735 C739 1.495 . S
C736 C735 1.392 . S
C736 C737 1.385 . S
C736 C738 1.478 . S
C737 H731 0.930 . S
C737 C733 1.400 . S
C737 C736 1.385 . S
C738 C736 1.478 . S
C738 C740 1.381 1_556 S
C738 C744 1.383 . S
C739 C735 1.495 . S
C739 H745 0.959 . S
C739 H746 0.961 . S
C739 H747 0.960 1_556 S
C740 C738 1.381 1_554 S
C740 C741 1.394 . S
C740 H748 0.930 . S
C741 C740 1.394 . S
C741 C742 1.383 . S
C741 H749 0.929 . S
C742 C741 1.383 . S
C742 C743 1.377 1_554 S
C743 H727 0.930 . S
C743 C742 1.377 1_556 S
C743 C744 1.379 . S
C744 H728 0.931 . S
C744 C738 1.383 . S
C744 C743 1.379 . S
H745 C739 0.959 . S
H746 C739 0.961 . S
H747 C739 0.960 1_554 S
H748 C740 0.930 . S
H749 C741 0.929 . S
H750 C758 0.928 1_556 S
H751 C760 0.930 . S
H752 C762 0.930 . S
H753 C765 0.929 . S
H754 C768 0.930 . S
H755 C770 0.960 . S
H756 C770 0.960 . S
H757 C770 0.960 . S
C758 H750 0.928 1_554 S
C758 C759 1.377 1_554 S
C758 C760 1.384 . S
C759 C758 1.377 1_556 S
C759 C765 1.390 . S
C760 H751 0.930 . S
C760 C758 1.384 . S
C760 C761 1.372 . S
C761 C760 1.372 . S
C761 C762 1.400 . S
C761 C766 1.490 . S
C762 H752 0.930 . S
C762 C761 1.400 . S
C762 C765 1.386 1_554 S
H763 C779 0.930 . S
H764 C780 0.931 . S
C765 H753 0.929 . S
C765 C759 1.390 . S
C765 C762 1.386 1_556 S
C766 C761 1.490 . S
C766 C768 1.395 . S
C766 C769 1.403 . S
H767 C773 0.930 . S
C768 H754 0.930 . S
C768 C766 1.395 . S
C768 C771 1.403 . S
C769 C766 1.403 . S
C769 C770 1.524 . S
C769 C773 1.400 . S
C770 H755 0.960 . S
C770 H756 0.960 . S
C770 H757 0.960 . S
C770 C769 1.524 . S
C771 C768 1.403 . S
C771 C772 1.392 . S
C771 C775 1.495 . S
C772 C771 1.392 . S
C772 C773 1.385 . S
C772 C774 1.478 . S
C773 H767 0.930 . S
C773 C769 1.400 . S
C773 C772 1.385 . S
C774 C772 1.478 . S
C774 C776 1.381 . S
C774 C780 1.383 . S
C775 C771 1.495 . S
C775 H781 0.959 . S
C775 H782 0.961 . S
C775 H783 0.960 . S
C776 C774 1.381 . S
C776 C777 1.394 . S
C776 H784 0.930 . S
C777 C776 1.394 . S
C777 C778 1.383 . S
C777 H785 0.929 . S
C778 C777 1.383 . S
C778 C779 1.377 . S
C779 H763 0.930 . S
C779 C778 1.377 . S
C779 C780 1.379 . S
C780 H764 0.931 . S
C780 C774 1.383 . S
C780 C779 1.379 . S
H781 C775 0.959 . S
H782 C775 0.961 . S
H783 C775 0.960 . S
H784 C776 0.930 . S
H785 C777 0.929 . S
C363 C3 1.236 . S
C382 C182 1.230 . S
C399 C241 1.238 . S
C418 C62 1.245 . S
C435 C123 1.239 . S
C454 C298 1.238 . S
C471 C180 1.231 . S
C490 C5 1.243 . S
C507 C64 1.238 . S
C526 C239 1.246 . S
C543 C300 1.239 . S
C562 C121 1.232 . S
C579 C33 1.493 . S
C598 C151 1.482 . S
C615 C92 1.496 . S
C634 C229 1.491 . S
C651 C288 1.496 . S
C670 C170 1.490 . S
C687 C328 1.491 . S
C706 C210 1.496 . S
C723 C269 1.492 . S
C742 C52 1.497 . S
C759 C347 1.497 . S
C778 C111 1.490 . S
