# Generated by pormake.
# Topology ukf, (4)-cn, num edge types: 1
# Building blocks:
#     Node 0, Type 0, BuildingBlock: GALJAG_clean_sbu_0, # of connection points: 4
#     Node 1, Type 0, BuildingBlock: GALJAG_clean_sbu_0, # of connection points: 4
#     Node 2, Type 0, BuildingBlock: GALJAG_clean_sbu_0, # of connection points: 4
#     Node 3, Type 0, BuildingBlock: GALJAG_clean_sbu_0, # of connection points: 4
#     Node 4, Type 0, BuildingBlock: GALJAG_clean_sbu_0, # of connection points: 4
#     Node 5, Type 0, BuildingBlock: GALJAG_clean_sbu_0, # of connection points: 4
#     Node 6, Type 0, BuildingBlock: GALJAG_clean_sbu_0, # of connection points: 4
#     Node 7, Type 0, BuildingBlock: GALJAG_clean_sbu_0, # of connection points: 4
#     Node 8, Type 0, BuildingBlock: GALJAG_clean_sbu_0, # of connection points: 4
#     Node 9, Type 0, BuildingBlock: GALJAG_clean_sbu_0, # of connection points: 4
#     Node 10, Type 0, BuildingBlock: GALJAG_clean_sbu_0, # of connection points: 4
#     Node 11, Type 0, BuildingBlock: GALJAG_clean_sbu_0, # of connection points: 4
#     Edge 12, Type (0, 0), BuildingBlock: XIVTED_clean_linker_0, # of connection points: 2
#     Edge 13, Type (0, 0), BuildingBlock: XIVTED_clean_linker_0, # of connection points: 2
#     Edge 14, Type (0, 0), BuildingBlock: XIVTED_clean_linker_0, # of connection points: 2
#     Edge 15, Type (0, 0), BuildingBlock: XIVTED_clean_linker_0, # of connection points: 2
#     Edge 16, Type (0, 0), BuildingBlock: XIVTED_clean_linker_0, # of connection points: 2
#     Edge 17, Type (0, 0), BuildingBlock: XIVTED_clean_linker_0, # of connection points: 2
#     Edge 18, Type (0, 0), BuildingBlock: XIVTED_clean_linker_0, # of connection points: 2
#     Edge 19, Type (0, 0), BuildingBlock: XIVTED_clean_linker_0, # of connection points: 2
#     Edge 20, Type (0, 0), BuildingBlock: XIVTED_clean_linker_0, # of connection points: 2
#     Edge 21, Type (0, 0), BuildingBlock: XIVTED_clean_linker_0, # of connection points: 2
#     Edge 22, Type (0, 0), BuildingBlock: XIVTED_clean_linker_0, # of connection points: 2
#     Edge 23, Type (0, 0), BuildingBlock: XIVTED_clean_linker_0, # of connection points: 2
#     Edge 24, Type (0, 0), BuildingBlock: XIVTED_clean_linker_0, # of connection points: 2
#     Edge 25, Type (0, 0), BuildingBlock: XIVTED_clean_linker_0, # of connection points: 2
#     Edge 26, Type (0, 0), BuildingBlock: XIVTED_clean_linker_0, # of connection points: 2
#     Edge 27, Type (0, 0), BuildingBlock: XIVTED_clean_linker_0, # of connection points: 2
#     Edge 28, Type (0, 0), BuildingBlock: XIVTED_clean_linker_0, # of connection points: 2
#     Edge 29, Type (0, 0), BuildingBlock: XIVTED_clean_linker_0, # of connection points: 2
#     Edge 30, Type (0, 0), BuildingBlock: XIVTED_clean_linker_0, # of connection points: 2
#     Edge 31, Type (0, 0), BuildingBlock: XIVTED_clean_linker_0, # of connection points: 2
#     Edge 32, Type (0, 0), BuildingBlock: XIVTED_clean_linker_0, # of connection points: 2
#     Edge 33, Type (0, 0), BuildingBlock: XIVTED_clean_linker_0, # of connection points: 2
#     Edge 34, Type (0, 0), BuildingBlock: XIVTED_clean_linker_0, # of connection points: 2
#     Edge 35, Type (0, 0), BuildingBlock: XIVTED_clean_linker_0, # of connection points: 2
# Relax obj value: 0.079
# Max RMSD: 0.071
# Mean RMSD: 0.071
data_MOF--net-ukf--node1-GALJAG_clean_sbu_0--edge1-XIVTED_clean_linker_0
_symmetry_space_group_name_H-M    P1
_symmetry_Int_Tables_number       1
_symmetry_cell_setting            triclinic
loop_
_symmetry_equiv_pos_as_xyz
'x, y, z'
_cell_length_a     31.761056
_cell_length_b     31.769156
_cell_length_c     69.188099
_cell_angle_alpha  90.010468
_cell_angle_beta   89.987738
_cell_angle_gamma 119.9612
loop_
_atom_site_label
_atom_site_type_symbol
_atom_site_fract_x
_atom_site_fract_y
_atom_site_fract_z
_atom_type_partial_charge
In0 In 0.40446 0.21773 0.05689 0.0
O1 O 0.41165 0.18565 0.08528 0.0
O2 O 0.37657 0.22782 0.08599 0.0
C3 C 0.47364 0.20745 0.03849 0.0
C4 C 0.43783 0.31423 0.05344 0.0
C5 C 0.32347 0.14481 0.04023 0.0
O6 O 0.47267 0.21069 0.05665 0.0
O7 O 0.43985 0.20936 0.02973 0.0
O8 O 0.34501 0.18748 0.03352 0.0
O9 O 0.34125 0.13982 0.05574 0.0
C10 C 0.39101 0.20326 0.09534 0.0
O11 O 0.3933 0.283 0.05155 0.0
O12 O 0.46489 0.29668 0.05696 0.0
In13 In 0.18475 0.40766 0.39046 0.0
O14 O 0.10594 0.3929 0.38771 0.0
O15 O 0.16339 0.46593 0.38907 0.0
C16 C 0.1822 0.32887 0.37415 0.0
C17 C 0.19084 0.40242 0.42922 0.0
C18 C 0.26151 0.47348 0.36994 0.0
O19 O 0.15383 0.3439 0.36898 0.0
O20 O 0.20985 0.35211 0.38801 0.0
O21 O 0.26373 0.46773 0.38789 0.0
O22 O 0.22064 0.44593 0.36235 0.0
C23 C 0.11834 0.43742 0.38778 0.0
O24 O 0.22069 0.4384 0.41936 0.0
O25 O 0.15753 0.36833 0.41953 0.0
In26 In 0.77763 0.18326 0.72517 0.0
O27 O 0.71399 0.10419 0.72257 0.0
O28 O 0.69803 0.16147 0.72293 0.0
C29 C 0.85387 0.18157 0.70842 0.0
C30 C 0.78898 0.18838 0.76394 0.0
C31 C 0.78917 0.26109 0.70526 0.0
O32 O 0.81049 0.15347 0.7032 0.0
O33 O 0.85828 0.2084 0.7226 0.0
O34 O 0.79583 0.26223 0.72329 0.0
O35 O 0.77676 0.22077 0.69733 0.0
C36 C 0.68175 0.11641 0.72202 0.0
O37 O 0.78144 0.21768 0.75433 0.0
O38 O 0.79108 0.15611 0.754 0.0
In39 In 0.60137 0.77128 0.05534 0.0
O40 O 0.54353 0.69175 0.05333 0.0
O41 O 0.61672 0.7075 0.0531 0.0
C42 C 0.68086 0.8467 0.03903 0.0
C43 C 0.60494 0.78171 0.09411 0.0
C44 C 0.53614 0.78455 0.03536 0.0
O45 O 0.66097 0.85078 0.05413 0.0
O46 O 0.66218 0.80388 0.03258 0.0
O47 O 0.56144 0.76863 0.02767 0.0
O48 O 0.54385 0.79399 0.05316 0.0
C49 C 0.57225 0.67535 0.05256 0.0
O50 O 0.56904 0.77515 0.08406 0.0
O51 O 0.63962 0.7831 0.08462 0.0
In52 In 0.82231 0.59855 0.39022 0.0
O53 O 0.90108 0.61345 0.38697 0.0
O54 O 0.84401 0.54054 0.38981 0.0
C55 C 0.82419 0.67716 0.37406 0.0
C56 C 0.81684 0.60463 0.42893 0.0
C57 C 0.74548 0.53244 0.3698 0.0
O58 O 0.84964 0.65983 0.36766 0.0
O59 O 0.80004 0.65642 0.38901 0.0
O60 O 0.74306 0.53873 0.38769 0.0
O61 O 0.78651 0.55954 0.36226 0.0
C62 C 0.8889 0.56903 0.38784 0.0
O63 O 0.78594 0.56897 0.41917 0.0
O64 O 0.85084 0.63784 0.41915 0.0
In65 In 0.22415 0.82484 0.72423 0.0
O66 O 0.28926 0.90178 0.71968 0.0
O67 O 0.30332 0.84399 0.72474 0.0
C68 C 0.15101 0.8313 0.70684 0.0
C69 C 0.20758 0.82192 0.7626 0.0
C70 C 0.21622 0.74668 0.70564 0.0
O71 O 0.19442 0.85493 0.70098 0.0
O72 O 0.14531 0.80693 0.72195 0.0
O73 O 0.21783 0.75003 0.72384 0.0
O74 O 0.21879 0.78271 0.69691 0.0
C75 C 0.32069 0.8887 0.72158 0.0
O76 O 0.19175 0.78421 0.75232 0.0
O77 O 0.23138 0.86144 0.7535 0.0
In78 In 0.77881 0.59893 0.61206 0.0
O79 O 0.78315 0.56759 0.58316 0.0
O80 O 0.78874 0.63717 0.5829 0.0
C81 C 0.79156 0.53374 0.63226 0.0
C82 C 0.68289 0.56954 0.61548 0.0
C83 C 0.85594 0.67858 0.62742 0.0
O84 O 0.79767 0.53864 0.6142 0.0
O85 O 0.77934 0.56189 0.6401 0.0
O86 O 0.81341 0.66152 0.63404 0.0
O87 O 0.8589 0.65686 0.61268 0.0
C88 C 0.78819 0.60313 0.57324 0.0
O89 O 0.71503 0.61403 0.61524 0.0
O90 O 0.69931 0.54092 0.61414 0.0
In91 In 0.18525 0.77673 0.94492 0.0
O92 O 0.22443 0.81063 0.91671 0.0
O93 O 0.14732 0.76731 0.91585 0.0
C94 C 0.26556 0.78753 0.96274 0.0
C95 C 0.12288 0.67999 0.94813 0.0
C96 C 0.17607 0.84836 0.96225 0.0
O97 O 0.26056 0.7839 0.94461 0.0
O98 O 0.23026 0.78581 0.97176 0.0
O99 O 0.19808 0.85397 0.94648 0.0
O100 O 0.15627 0.80568 0.96891 0.0
C101 C 0.18627 0.79296 0.90661 0.0
O102 O 0.1091 0.71086 0.95008 0.0
O103 O 0.16754 0.69801 0.94462 0.0
In104 In 0.40493 0.1824 0.27801 0.0
O105 O 0.41386 0.22203 0.2496 0.0
O106 O 0.37532 0.14466 0.24902 0.0
C107 C 0.47358 0.26094 0.29692 0.0
C108 C 0.43907 0.11971 0.28075 0.0
C109 C 0.32438 0.17572 0.29461 0.0
O110 O 0.47202 0.25834 0.27871 0.0
O111 O 0.44068 0.22413 0.30546 0.0
O112 O 0.3458 0.15467 0.30155 0.0
O113 O 0.34189 0.19743 0.27888 0.0
C114 C 0.3915 0.18382 0.23961 0.0
O115 O 0.39461 0.10618 0.28324 0.0
O116 O 0.46555 0.16422 0.27699 0.0
In117 In 0.22611 0.40826 0.61236 0.0
O118 O 0.22035 0.43744 0.58318 0.0
O119 O 0.21612 0.36843 0.5836 0.0
C120 C 0.21482 0.4749 0.63216 0.0
C121 C 0.32213 0.43796 0.61525 0.0
C122 C 0.14935 0.32982 0.62858 0.0
O123 O 0.20587 0.46764 0.61431 0.0
O124 O 0.22916 0.44842 0.63997 0.0
O125 O 0.19203 0.34745 0.6351 0.0
O126 O 0.14606 0.35024 0.6135 0.0
C127 C 0.21578 0.40158 0.57362 0.0
O128 O 0.28996 0.39353 0.61617 0.0
O129 O 0.30569 0.46636 0.61297 0.0
In130 In 0.82716 0.22339 0.947 0.0
O131 O 0.8479 0.30268 0.94877 0.0
O132 O 0.90588 0.28773 0.94956 0.0
C133 C 0.83102 0.14763 0.96308 0.0
C134 C 0.82135 0.21316 0.90822 0.0
C135 C 0.74916 0.21053 0.96724 0.0
O136 O 0.85582 0.19048 0.96944 0.0
O137 O 0.80647 0.14368 0.94819 0.0
O138 O 0.79028 0.22547 0.97487 0.0
O139 O 0.74725 0.20181 0.94935 0.0
C140 C 0.89305 0.31953 0.94982 0.0
O141 O 0.7909 0.21826 0.91817 0.0
O142 O 0.85509 0.21297 0.91784 0.0
In143 In 0.59884 0.82268 0.2769 0.0
O144 O 0.5683 0.78773 0.24781 0.0
O145 O 0.63933 0.84949 0.24802 0.0
C146 C 0.53251 0.74474 0.29671 0.0
C147 C 0.56926 0.88917 0.28025 0.0
C148 C 0.67673 0.8245 0.29375 0.0
O149 O 0.53719 0.74411 0.2786 0.0
O150 O 0.56134 0.78455 0.30476 0.0
O151 O 0.66153 0.85278 0.29885 0.0
O152 O 0.65424 0.79741 0.27964 0.0
C153 C 0.60507 0.81693 0.23815 0.0
O154 O 0.54083 0.84402 0.27993 0.0
O155 O 0.61372 0.90175 0.27897 0.0
H156 H 0.15316 0.85085 1.00026 0.0
H157 H 0.29521 0.14154 0.00258 0.0
H158 H 0.21061 0.94144 0.9497 0.0
H159 H 0.26776 0.05142 0.05294 0.0
H160 H 0.24577 0.06837 0.9833 0.0
H161 H 0.1763 0.92363 0.01974 0.0
C162 C 0.16962 0.88592 0.99318 0.0
C163 C 0.18048 0.89018 0.97337 0.0
C164 C 0.2499 0.06468 0.99864 0.0
C165 C 0.20738 0.97355 0.99557 0.0
C166 C 0.27788 0.10646 0.00967 0.0
C167 C 0.28604 0.1025 0.02935 0.0
C168 C 0.22981 0.01868 0.00736 0.0
C169 C 0.26278 0.05609 0.03777 0.0
C170 C 0.18309 0.92748 0.00432 0.0
C171 C 0.20198 0.93656 0.96496 0.0
N172 N 0.23616 0.01598 0.02671 0.0
N173 N 0.21518 0.97646 0.97613 0.0
H174 H 0.14026 0.28559 0.33964 0.0
H175 H 0.26659 0.21001 0.28098 0.0
H176 H 0.23773 0.28844 0.3837 0.0
H177 H 0.30064 0.15832 0.33299 0.0
H178 H 0.21947 0.23634 0.30006 0.0
H179 H 0.1611 0.23518 0.31956 0.0
C180 C 0.16563 0.27515 0.34517 0.0
C181 C 0.18787 0.29187 0.36324 0.0
C182 C 0.23574 0.21781 0.30732 0.0
C183 C 0.21309 0.23542 0.34012 0.0
C184 C 0.26298 0.20297 0.29638 0.0
C185 C 0.28766 0.18202 0.30541 0.0
C186 C 0.2335 0.21211 0.32751 0.0
C187 C 0.28206 0.17417 0.32544 0.0
C188 C 0.17803 0.24685 0.33359 0.0
C189 C 0.22018 0.27688 0.36975 0.0
N190 N 0.25637 0.19009 0.33586 0.0
N191 N 0.23211 0.24988 0.35815 0.0
H192 H 0.85502 0.14349 0.67297 0.0
H193 H 0.05654 0.27748 0.61501 0.0
H194 H 0.94983 0.23555 0.71817 0.0
H195 H 0.1426 0.30085 0.66631 0.0
H196 H 0.98301 0.22915 0.63392 0.0
H197 H 0.92616 0.16667 0.65247 0.0
C198 C 0.89085 0.16809 0.67867 0.0
C199 C 0.89647 0.18819 0.69719 0.0
C200 C 0.01787 0.24341 0.641 0.0
C201 C 0.97794 0.21601 0.67366 0.0
C202 C 0.05997 0.27136 0.63019 0.0
C203 C 0.10575 0.29325 0.6391 0.0
C204 C 0.02149 0.23771 0.66098 0.0
C205 C 0.10804 0.28446 0.65885 0.0
C206 C 0.93144 0.18182 0.66686 0.0
C207 C 0.94378 0.21965 0.70389 0.0
N208 N 0.06644 0.25815 0.6692 0.0
N209 N 0.98264 0.23286 0.69208 0.0
H210 H 0.7099 0.85156 0.00142 0.0
H211 H 0.85619 0.14259 1.00052 0.0
H212 H 0.73452 0.94 0.05211 0.0
H213 H 0.79044 0.05427 0.94998 0.0
H214 H 0.83141 0.06852 0.0194 0.0
H215 H 0.75898 0.92553 0.98248 0.0
C216 C 0.72654 0.88645 0.00866 0.0
C217 C 0.71776 0.88972 0.02832 0.0
C218 C 0.82315 0.06546 0.0041 0.0
C219 C 0.77369 0.97433 0.00675 0.0
C220 C 0.83754 0.10769 0.9933 0.0
C221 C 0.82493 0.1045 0.9737 0.0
C222 C 0.79637 0.01979 0.99519 0.0
C223 C 0.80053 0.05833 0.9651 0.0
C224 C 0.75428 0.92864 0.99781 0.0
C225 C 0.74005 0.93589 0.03694 0.0
N226 N 0.7867 0.01777 0.97593 0.0
N227 N 0.76666 0.9764 0.02608 0.0
H228 H 0.7158 0.86289 0.32919 0.0
H229 H 0.78332 0.72932 0.38748 0.0
H230 H 0.71878 0.77042 0.28418 0.0
H231 H 0.84673 0.70614 0.33634 0.0
H232 H 0.75798 0.7774 0.36844 0.0
H233 H 0.76375 0.83991 0.34979 0.0
C234 C 0.72708 0.83824 0.32355 0.0
C235 C 0.71267 0.81797 0.30505 0.0
C236 C 0.77877 0.76323 0.36143 0.0
C237 C 0.76635 0.79042 0.32871 0.0
C238 C 0.793 0.73543 0.37231 0.0
C239 C 0.81714 0.71368 0.36348 0.0
C240 C 0.78824 0.76889 0.34147 0.0
C241 C 0.82838 0.72245 0.34375 0.0
C242 C 0.75394 0.82463 0.33542 0.0
C243 C 0.72859 0.78646 0.29845 0.0
N244 N 0.81299 0.74859 0.33332 0.0
N245 N 0.75424 0.77338 0.31031 0.0
H246 H 0.94867 0.72847 0.61359 0.0
H247 H 0.1514 0.86494 0.67028 0.0
H248 H 0.86331 0.71259 0.66441 0.0
H249 H 0.05509 0.78355 0.71704 0.0
H250 H 0.0807 0.84135 0.64952 0.0
H251 H 0.02245 0.77864 0.63204 0.0
C252 C 0.94546 0.73662 0.62855 0.0
C253 C 0.89978 0.71622 0.63749 0.0
C254 C 0.07495 0.82858 0.6643 0.0
C255 C 0.98441 0.7741 0.65884 0.0
C256 C 0.11535 0.84263 0.67625 0.0
C257 C 0.10915 0.82552 0.69532 0.0
C258 C 0.02804 0.79693 0.67148 0.0
C259 C 0.06158 0.79705 0.70234 0.0
C260 C 0.98773 0.76568 0.63909 0.0
C261 C 0.89779 0.72771 0.65693 0.0
N262 N 0.02291 0.78327 0.69038 0.0
N263 N 0.93955 0.75512 0.66705 0.0
H264 H 0.74361 0.22286 0.00603 0.0
H265 H 0.47918 0.19396 0.99986 0.0
H266 H 0.65936 0.18703 0.9535 0.0
H267 H 0.55537 0.21178 0.05357 0.0
H268 H 0.54464 0.19069 0.98268 0.0
H269 H 0.67492 0.21826 0.0238 0.0
C270 C 0.71054 0.21381 0.99826 0.0
C271 C 0.70716 0.20548 0.97826 0.0
C272 C 0.54699 0.19507 0.99823 0.0
C273 C 0.62856 0.20038 0.99846 0.0
C274 C 0.50966 0.19701 0.00804 0.0
C275 C 0.51202 0.20333 0.02815 0.0
C276 C 0.58715 0.19981 0.00859 0.0
C277 C 0.55221 0.20693 0.03805 0.0
C278 C 0.67134 0.21115 0.00841 0.0
C279 C 0.66348 0.19378 0.96891 0.0
N280 N 0.58838 0.20539 0.02814 0.0
N281 N 0.62596 0.19184 0.97908 0.0
H282 H 0.26797 0.48731 0.33086 0.0
H283 H 0.52244 0.73416 0.33584 0.0
H284 H 0.34914 0.54433 0.38369 0.0
H285 H 0.4575 0.66032 0.28234 0.0
H286 H 0.45809 0.666 0.35368 0.0
H287 H 0.33586 0.5515 0.31278 0.0
C288 C 0.30018 0.51325 0.33863 0.0
C289 C 0.30297 0.51067 0.35879 0.0
C290 C 0.45805 0.66455 0.33805 0.0
C291 C 0.38054 0.58423 0.33826 0.0
C292 C 0.49469 0.70348 0.32786 0.0
C293 C 0.49513 0.70285 0.3076 0.0
C294 C 0.42131 0.62496 0.32789 0.0
C295 C 0.45845 0.66219 0.29797 0.0
C296 C 0.33894 0.5498 0.32831 0.0
C297 C 0.34553 0.54508 0.36815 0.0
N298 N 0.42277 0.62496 0.30821 0.0
N299 N 0.38256 0.58066 0.35781 0.0
H300 H 0.78629 0.27015 0.66614 0.0
H301 H 0.78871 0.52214 0.67142 0.0
H302 H 0.80298 0.34736 0.71949 0.0
H303 H 0.8047 0.46078 0.61816 0.0
H304 H 0.79217 0.45764 0.68936 0.0
H305 H 0.79112 0.33878 0.64827 0.0
C306 C 0.79114 0.30166 0.67408 0.0
C307 C 0.79408 0.3031 0.69431 0.0
C308 C 0.79525 0.45845 0.67376 0.0
C309 C 0.79938 0.38156 0.674 0.0
C310 C 0.79319 0.49519 0.66352 0.0
C311 C 0.79627 0.49662 0.64329 0.0
C312 C 0.79993 0.42265 0.66367 0.0
C313 C 0.80216 0.46094 0.63376 0.0
C314 C 0.79402 0.34085 0.66388 0.0
C315 C 0.80052 0.34482 0.70389 0.0
N316 N 0.80346 0.42517 0.64403 0.0
N317 N 0.80263 0.38231 0.69365 0.0
H318 H 0.34225 0.78281 0.94709 0.0
H319 H 0.47217 0.81093 0.04932 0.0
H320 H 0.28625 0.80174 0.00123 0.0
H321 H 0.51604 0.77035 0.99675 0.0
H322 H 0.40859 0.8159 0.0313 0.0
H323 H 0.41106 0.78622 0.96444 0.0
C324 C 0.3446 0.78793 0.96261 0.0
C325 C 0.30846 0.79177 0.97277 0.0
C326 C 0.43222 0.80606 0.02369 0.0
C327 C 0.38687 0.79571 0.99268 0.0
C328 C 0.46855 0.80331 0.03396 0.0
C329 C 0.49919 0.78998 0.02451 0.0
C330 C 0.42662 0.79554 0.00381 0.0
C331 C 0.49301 0.78055 0.0046 0.0
C332 C 0.38379 0.78978 0.97251 0.0
C333 C 0.31323 0.7984 0.99286 0.0
N334 N 0.45732 0.7834 0.9949 0.0
N335 N 0.35167 0.80007 0.00216 0.0
H336 H 0.47964 0.27659 0.33581 0.0
H337 H 0.74059 0.5165 0.33088 0.0
H338 H 0.55383 0.34069 0.28227 0.0
H339 H 0.65645 0.46371 0.38329 0.0
H340 H 0.67285 0.45236 0.31276 0.0
H341 H 0.54432 0.34477 0.35345 0.0
C342 C 0.50952 0.30516 0.32776 0.0
C343 C 0.51154 0.303 0.30756 0.0
C344 C 0.66909 0.45494 0.32821 0.0
C345 C 0.58577 0.38103 0.32765 0.0
C346 C 0.70775 0.49148 0.33856 0.0
C347 C 0.7041 0.49524 0.35861 0.0
C348 C 0.62662 0.42173 0.33802 0.0
C349 C 0.66075 0.46203 0.36784 0.0
C350 C 0.54639 0.34411 0.33784 0.0
C351 C 0.55096 0.34099 0.29785 0.0
N352 N 0.62376 0.42647 0.35747 0.0
N353 N 0.58671 0.37839 0.30801 0.0
H354 H 0.19308 0.54214 0.61802 0.0
H355 H 0.21779 0.66809 0.72091 0.0
H356 H 0.22722 0.49343 0.67088 0.0
H357 H 0.20623 0.72927 0.66684 0.0
H358 H 0.21386 0.59952 0.70322 0.0
H359 H 0.19008 0.60675 0.63611 0.0
C360 C 0.1997 0.54492 0.63345 0.0
C361 C 0.21061 0.51259 0.64298 0.0
C362 C 0.2121 0.62791 0.69523 0.0
C363 C 0.2073 0.58628 0.66374 0.0
C364 C 0.21427 0.66698 0.70532 0.0
C365 C 0.21253 0.70442 0.6953 0.0
C366 C 0.20794 0.62625 0.67499 0.0
C367 C 0.2079 0.70122 0.67511 0.0
C368 C 0.1981 0.58184 0.64376 0.0
C369 C 0.21887 0.51776 0.66298 0.0
N370 N 0.20581 0.66282 0.66561 0.0
N371 N 0.21712 0.55399 0.6727 0.0
H372 H 0.39968 0.13679 0.11743 0.0
H373 H 0.40397 0.26033 0.21748 0.0
H374 H 0.37118 0.25582 0.12136 0.0
H375 H 0.36771 0.11037 0.21366 0.0
H376 H 0.39924 0.26298 0.1822 0.0
H377 H 0.39519 0.12969 0.15272 0.0
C378 C 0.39228 0.16128 0.12573 0.0
C379 C 0.38584 0.19698 0.11651 0.0
C380 C 0.39197 0.22942 0.18911 0.0
C381 C 0.3813 0.18948 0.15679 0.0
C382 C 0.39482 0.22792 0.2092 0.0
C383 C 0.38626 0.18508 0.21846 0.0
C384 C 0.38143 0.18805 0.17818 0.0
C385 C 0.37444 0.14408 0.20707 0.0
C386 C 0.38956 0.1571 0.14583 0.0
C387 C 0.37624 0.22773 0.12793 0.0
N388 N 0.37288 0.14672 0.18749 0.0
N389 N 0.37478 0.22363 0.14751 0.0
H390 H 0.24655 0.47817 0.45306 0.0
H391 H 0.18639 0.32259 0.54979 0.0
H392 H 0.14385 0.32426 0.45368 0.0
H393 H 0.23496 0.47596 0.54911 0.0
H394 H 0.17952 0.32123 0.51435 0.0
H395 H 0.25235 0.47686 0.4882 0.0
C396 C 0.22529 0.44403 0.4606 0.0
C397 C 0.19456 0.40127 0.45047 0.0
C398 C 0.19156 0.35506 0.52203 0.0
C399 C 0.20132 0.39947 0.4907 0.0
C400 C 0.19566 0.35591 0.54218 0.0
C401 C 0.21122 0.39945 0.55235 0.0
C402 C 0.204 0.39824 0.51205 0.0
C403 C 0.22267 0.44158 0.54184 0.0
C404 C 0.22849 0.44336 0.48067 0.0
C405 C 0.1678 0.35806 0.46099 0.0
N406 N 0.21913 0.43999 0.52227 0.0
N407 N 0.17198 0.35818 0.48059 0.0
H408 H 0.87012 0.1843 0.88366 0.0
H409 H 0.767 0.24174 0.78836 0.0
H410 H 0.76418 0.23152 0.88445 0.0
H411 H 0.82311 0.14293 0.7878 0.0
H412 H 0.77543 0.24733 0.82347 0.0
H413 H 0.86267 0.17727 0.84828 0.0
C414 C 0.84539 0.19323 0.87639 0.0
C415 C 0.8177 0.20849 0.88696 0.0
C416 C 0.78583 0.22435 0.81569 0.0
C417 C 0.80942 0.20103 0.8467 0.0
C418 C 0.7812 0.22127 0.79564 0.0
C419 C 0.79428 0.19173 0.78518 0.0
C420 C 0.80436 0.19826 0.82538 0.0
C421 C 0.81242 0.16595 0.79537 0.0
C422 C 0.84104 0.18904 0.85626 0.0
C423 C 0.78611 0.2195 0.87687 0.0
N424 N 0.8172 0.17 0.81495 0.0
N425 N 0.78307 0.21584 0.85731 0.0
H426 H 0.52878 0.76259 0.11763 0.0
H427 H 0.68464 0.86219 0.2143 0.0
H428 H 0.68265 0.81341 0.11884 0.0
H429 H 0.52997 0.76266 0.21378 0.0
H430 H 0.68597 0.85391 0.179 0.0
H431 H 0.52977 0.77184 0.15267 0.0
C432 C 0.56283 0.77575 0.12529 0.0
C433 C 0.60569 0.78715 0.11534 0.0
C434 C 0.65185 0.83388 0.18667 0.0
C435 C 0.60715 0.79817 0.15547 0.0
C436 C 0.65102 0.83873 0.20675 0.0
C437 C 0.60713 0.81304 0.21694 0.0
C438 C 0.60834 0.8038 0.17676 0.0
C439 C 0.56463 0.78302 0.2065 0.0
C440 C 0.56333 0.78088 0.1453 0.0
C441 C 0.64877 0.80403 0.126 0.0
N442 N 0.56625 0.77945 0.187 0.0
N443 N 0.6485 0.8093 0.14552 0.0
H444 H 0.76724 0.52708 0.54939 0.0
H445 H 0.86582 0.68321 0.45297 0.0
H446 H 0.81933 0.68119 0.54878 0.0
H447 H 0.76011 0.53012 0.45317 0.0
H448 H 0.85897 0.68423 0.48835 0.0
H449 H 0.77449 0.52842 0.51422 0.0
C450 C 0.7803 0.56125 0.54184 0.0
C451 C 0.79261 0.60409 0.55198 0.0
C452 C 0.83725 0.65054 0.48058 0.0
C453 C 0.80139 0.60592 0.51175 0.0
C454 C 0.84127 0.64988 0.46046 0.0
C455 C 0.81346 0.60652 0.45017 0.0
C456 C 0.80591 0.60734 0.49042 0.0
C457 C 0.7821 0.56437 0.46053 0.0
C458 C 0.78425 0.56194 0.52177 0.0
C459 C 0.80926 0.64733 0.54147 0.0
N460 N 0.77943 0.56576 0.48009 0.0
N461 N 0.81348 0.64724 0.52188 0.0
H462 H 0.26126 0.86119 0.885 0.0
H463 H 0.14249 0.74449 0.78402 0.0
H464 H 0.11417 0.74186 0.88031 0.0
H465 H 0.25701 0.89374 0.78921 0.0
H466 H 0.13466 0.73959 0.81928 0.0
H467 H 0.26397 0.87082 0.84982 0.0
C468 C 0.22948 0.83715 0.87656 0.0
C469 C 0.18745 0.80062 0.88553 0.0
C470 C 0.16121 0.77351 0.81268 0.0
C471 C 0.19051 0.81107 0.84536 0.0
C472 C 0.1658 0.7763 0.7926 0.0
C473 C 0.2005 0.81958 0.78373 0.0
C474 C 0.19218 0.81401 0.82399 0.0
C475 C 0.22972 0.85973 0.79549 0.0
C476 C 0.231 0.84279 0.85652 0.0
C477 C 0.14725 0.77054 0.87394 0.0
N478 N 0.22528 0.85583 0.81506 0.0
N479 N 0.14993 0.77609 0.85441 0.0
H480 H 0.62486 0.62792 0.0534 0.0
H481 H 0.38746 0.36259 0.0478 0.0
H482 H 0.47836 0.60239 0.04934 0.0
H483 H 0.5325 0.38667 0.05605 0.0
H484 H 0.42078 0.45066 0.04657 0.0
H485 H 0.59253 0.53977 0.05264 0.0
C486 C 0.58597 0.6038 0.05228 0.0
C487 C 0.55427 0.6225 0.05149 0.0
C488 C 0.44535 0.43669 0.04861 0.0
C489 C 0.517 0.5218 0.05062 0.0
C490 C 0.42631 0.38641 0.04929 0.0
C491 C 0.45721 0.36728 0.05208 0.0
C492 C 0.4957 0.46812 0.0507 0.0
C493 C 0.50731 0.39985 0.05392 0.0
C494 C 0.56751 0.55352 0.05187 0.0
C495 C 0.50417 0.5896 0.05005 0.0
N496 N 0.52497 0.44861 0.05323 0.0
N497 N 0.48714 0.54098 0.04968 0.0
H498 H 0.98866 0.62163 0.3854 0.0
H499 H 0.01848 0.38482 0.38665 0.0
H500 H 0.8681 0.47481 0.38819 0.0
H501 H 0.13931 0.5317 0.38676 0.0
H502 H 0.96258 0.41701 0.38591 0.0
H503 H 0.04459 0.58945 0.3846 0.0
C504 C 0.97399 0.58268 0.38579 0.0
C505 C 0.9237 0.5509 0.3869 0.0
C506 C 1.00135 0.44219 0.38606 0.0
C507 C 0.98729 0.51374 0.386 0.0
C508 C 0.03322 0.42379 0.38646 0.0
C509 C 0.08358 0.45559 0.3868 0.0
C510 C 0.02 0.49277 0.38597 0.0
C511 C 0.10072 0.50581 0.38654 0.0
C512 C 0.00588 0.56429 0.38535 0.0
C513 C 0.90663 0.5007 0.38738 0.0
N514 N 0.06905 0.52281 0.38617 0.0
N515 N 0.9383 0.48372 0.38694 0.0
H516 H 0.63461 0.01645 0.72242 0.0
H517 H 0.36874 0.98766 0.71668 0.0
H518 H 0.60855 0.13714 0.71892 0.0
H519 H 0.39347 0.86689 0.72417 0.0
H520 H 0.4568 0.04273 0.71584 0.0
H521 H 0.54651 0.96049 0.72143 0.0
C522 C 0.61039 0.03114 0.72137 0.0
C523 C 0.62892 0.08149 0.7208 0.0
C524 C 0.44298 0.00417 0.71763 0.0
C525 C 0.52825 0.01789 0.71968 0.0
C526 C 0.39269 0.97274 0.7181 0.0
C527 C 0.37375 0.92266 0.72054 0.0
C528 C 0.47458 0.98538 0.7196 0.0
C529 C 0.4065 0.90529 0.7223 0.0
C530 C 0.56012 0.99924 0.72084 0.0
C531 C 0.59588 0.09858 0.71945 0.0
N532 N 0.45524 0.93656 0.72181 0.0
N533 N 0.54728 0.06691 0.71896 0.0
H534 H 0.6357 0.62228 0.61634 0.0
H535 H 0.36933 0.38552 0.61846 0.0
H536 H 0.6097 0.47539 0.61735 0.0
H537 H 0.39539 0.5322 0.61469 0.0
H538 H 0.4574 0.41778 0.61954 0.0
H539 H 0.54765 0.59016 0.61725 0.0
C540 C 0.6115 0.58333 0.61683 0.0
C541 C 0.63004 0.55149 0.61672 0.0
C542 C 0.44382 0.4429 0.61852 0.0
C543 C 0.52936 0.5144 0.61773 0.0
C544 C 0.39355 0.42446 0.61792 0.0
C545 C 0.37501 0.45618 0.61643 0.0
C546 C 0.47571 0.49343 0.61766 0.0
C547 C 0.40807 0.50637 0.61579 0.0
C548 C 0.56124 0.56497 0.61732 0.0
C549 C 0.59701 0.5013 0.61736 0.0
N550 N 0.45671 0.5234 0.61637 0.0
N551 N 0.54837 0.48434 0.6178 0.0
H552 H 0.14639 0.60839 0.94575 0.0
H553 H 0.87085 0.39167 0.9528 0.0
H554 H 0.02402 0.63052 0.95348 0.0
H555 H 0.99314 0.36812 0.94905 0.0
H556 H 0.92666 0.4791 0.95333 0.0
H557 H 0.09135 0.52061 0.94714 0.0
C558 C 0.1079 0.59477 0.94778 0.0
C559 C 0.08973 0.62685 0.94946 0.0
C560 C 0.94143 0.45494 0.95245 0.0
C561 C 0.02643 0.52622 0.95103 0.0
C562 C 0.90955 0.40492 0.95214 0.0
C563 C 0.92737 0.3725 0.95083 0.0
C564 C 0.9917 0.47298 0.95137 0.0
C565 C 0.97786 0.39181 0.95006 0.0
C566 C 0.0765 0.5446 0.94859 0.0
C567 C 0.03958 0.60713 0.9521 0.0
N568 N 0.00828 0.44084 0.95026 0.0
N569 N 0.00968 0.5581 0.95275 0.0
H570 H 0.47574 0.86764 0.28577 0.0
H571 H 0.53357 0.14258 0.27637 0.0
H572 H 0.62051 0.98907 0.27774 0.0
H573 H 0.39031 0.02126 0.2873 0.0
H574 H 0.56631 0.08747 0.27721 0.0
H575 H 0.44432 0.92366 0.28683 0.0
C576 C 0.50101 0.9062 0.28427 0.0
C577 C 0.55087 0.92371 0.28161 0.0
C578 C 0.52776 0.07286 0.27948 0.0
C579 C 0.51493 0.98827 0.28274 0.0
C580 C 0.50897 0.1043 0.279 0.0
C581 C 0.45905 0.08645 0.28174 0.0
C582 C 0.49642 0.02305 0.28268 0.0
C583 C 0.42898 0.03656 0.2851 0.0
C584 C 0.48298 0.9382 0.28489 0.0
C585 C 0.58183 0.97403 0.27981 0.0
N586 N 0.44812 0.00661 0.28542 0.0
N587 N 0.56332 0.00455 0.28033 0.0
loop_
_geom_bond_atom_site_label_1
_geom_bond_atom_site_label_2
_geom_bond_distance
_geom_bond_site_symmetry_2
_ccdc_geom_bond_type
In0 O1 2.294 . S
In0 O2 2.326 . S
In0 O6 2.266 . S
In0 O7 2.326 . S
In0 O8 2.266 . S
In0 O9 2.326 . S
In0 O11 2.294 . S
In0 O12 2.326 . S
O1 In0 2.294 . S
O1 C10 1.240 . S
O2 In0 2.326 . S
O2 C10 1.252 . S
C3 O6 1.252 . S
C3 O7 1.260 . S
C4 O11 1.240 . S
C4 O12 1.252 . S
C5 O8 1.252 . S
C5 O9 1.260 . S
O6 In0 2.266 . S
O6 C3 1.252 . S
O7 In0 2.326 . S
O7 C3 1.260 . S
O8 In0 2.266 . S
O8 C5 1.252 . S
O9 In0 2.326 . S
O9 C5 1.260 . S
C10 O1 1.240 . S
C10 O2 1.252 . S
O11 In0 2.294 . S
O11 C4 1.240 . S
O12 In0 2.326 . S
O12 C4 1.252 . S
In13 O14 2.294 . S
In13 O15 2.326 . S
In13 O19 2.266 . S
In13 O20 2.326 . S
In13 O21 2.266 . S
In13 O22 2.326 . S
In13 O24 2.294 . S
In13 O25 2.326 . S
O14 In13 2.294 . S
O14 C23 1.240 . S
O15 In13 2.326 . S
O15 C23 1.252 . S
C16 O19 1.252 . S
C16 O20 1.260 . S
C17 O24 1.240 . S
C17 O25 1.252 . S
C18 O21 1.252 . S
C18 O22 1.260 . S
O19 In13 2.266 . S
O19 C16 1.252 . S
O20 In13 2.326 . S
O20 C16 1.260 . S
O21 In13 2.266 . S
O21 C18 1.252 . S
O22 In13 2.326 . S
O22 C18 1.260 . S
C23 O14 1.240 . S
C23 O15 1.252 . S
O24 In13 2.294 . S
O24 C17 1.240 . S
O25 In13 2.326 . S
O25 C17 1.252 . S
In26 O27 2.294 . S
In26 O28 2.326 . S
In26 O32 2.266 . S
In26 O33 2.326 . S
In26 O34 2.266 . S
In26 O35 2.326 . S
In26 O37 2.294 . S
In26 O38 2.326 . S
O27 In26 2.294 . S
O27 C36 1.240 . S
O28 In26 2.326 . S
O28 C36 1.252 . S
C29 O32 1.252 . S
C29 O33 1.260 . S
C30 O37 1.240 . S
C30 O38 1.252 . S
C31 O34 1.252 . S
C31 O35 1.260 . S
O32 In26 2.266 . S
O32 C29 1.252 . S
O33 In26 2.326 . S
O33 C29 1.260 . S
O34 In26 2.266 . S
O34 C31 1.252 . S
O35 In26 2.326 . S
O35 C31 1.260 . S
C36 O27 1.240 . S
C36 O28 1.252 . S
O37 In26 2.294 . S
O37 C30 1.240 . S
O38 In26 2.326 . S
O38 C30 1.252 . S
In39 O40 2.294 . S
In39 O41 2.326 . S
In39 O45 2.266 . S
In39 O46 2.326 . S
In39 O47 2.266 . S
In39 O48 2.326 . S
In39 O50 2.294 . S
In39 O51 2.326 . S
O40 In39 2.294 . S
O40 C49 1.240 . S
O41 In39 2.326 . S
O41 C49 1.252 . S
C42 O45 1.252 . S
C42 O46 1.260 . S
C43 O50 1.240 . S
C43 O51 1.252 . S
C44 O47 1.252 . S
C44 O48 1.260 . S
O45 In39 2.266 . S
O45 C42 1.252 . S
O46 In39 2.326 . S
O46 C42 1.260 . S
O47 In39 2.266 . S
O47 C44 1.252 . S
O48 In39 2.326 . S
O48 C44 1.260 . S
C49 O40 1.240 . S
C49 O41 1.252 . S
O50 In39 2.294 . S
O50 C43 1.240 . S
O51 In39 2.326 . S
O51 C43 1.252 . S
In52 O53 2.294 . S
In52 O54 2.326 . S
In52 O58 2.266 . S
In52 O59 2.326 . S
In52 O60 2.266 . S
In52 O61 2.326 . S
In52 O63 2.294 . S
In52 O64 2.326 . S
O53 In52 2.294 . S
O53 C62 1.240 . S
O54 In52 2.326 . S
O54 C62 1.252 . S
C55 O58 1.252 . S
C55 O59 1.260 . S
C56 O63 1.240 . S
C56 O64 1.252 . S
C57 O60 1.252 . S
C57 O61 1.260 . S
O58 In52 2.266 . S
O58 C55 1.252 . S
O59 In52 2.326 . S
O59 C55 1.260 . S
O60 In52 2.266 . S
O60 C57 1.252 . S
O61 In52 2.326 . S
O61 C57 1.260 . S
C62 O53 1.240 . S
C62 O54 1.252 . S
O63 In52 2.294 . S
O63 C56 1.240 . S
O64 In52 2.326 . S
O64 C56 1.252 . S
In65 O66 2.294 . S
In65 O67 2.326 . S
In65 O71 2.266 . S
In65 O72 2.326 . S
In65 O73 2.266 . S
In65 O74 2.326 . S
In65 O76 2.294 . S
In65 O77 2.326 . S
O66 In65 2.294 . S
O66 C75 1.240 . S
O67 In65 2.326 . S
O67 C75 1.252 . S
C68 O71 1.252 . S
C68 O72 1.260 . S
C69 O76 1.240 . S
C69 O77 1.252 . S
C70 O73 1.252 . S
C70 O74 1.260 . S
O71 In65 2.266 . S
O71 C68 1.252 . S
O72 In65 2.326 . S
O72 C68 1.260 . S
O73 In65 2.266 . S
O73 C70 1.252 . S
O74 In65 2.326 . S
O74 C70 1.260 . S
C75 O66 1.240 . S
C75 O67 1.252 . S
O76 In65 2.294 . S
O76 C69 1.240 . S
O77 In65 2.326 . S
O77 C69 1.252 . S
In78 O79 2.294 . S
In78 O80 2.326 . S
In78 O84 2.266 . S
In78 O85 2.326 . S
In78 O86 2.266 . S
In78 O87 2.326 . S
In78 O89 2.294 . S
In78 O90 2.326 . S
O79 In78 2.294 . S
O79 C88 1.240 . S
O80 In78 2.326 . S
O80 C88 1.252 . S
C81 O84 1.252 . S
C81 O85 1.260 . S
C82 O89 1.240 . S
C82 O90 1.252 . S
C83 O86 1.252 . S
C83 O87 1.260 . S
O84 In78 2.266 . S
O84 C81 1.252 . S
O85 In78 2.326 . S
O85 C81 1.260 . S
O86 In78 2.266 . S
O86 C83 1.252 . S
O87 In78 2.326 . S
O87 C83 1.260 . S
C88 O79 1.240 . S
C88 O80 1.252 . S
O89 In78 2.294 . S
O89 C82 1.240 . S
O90 In78 2.326 . S
O90 C82 1.252 . S
In91 O92 2.294 . S
In91 O93 2.326 . S
In91 O97 2.266 . S
In91 O98 2.326 . S
In91 O99 2.266 . S
In91 O100 2.326 . S
In91 O102 2.294 . S
In91 O103 2.326 . S
O92 In91 2.294 . S
O92 C101 1.240 . S
O93 In91 2.326 . S
O93 C101 1.252 . S
C94 O97 1.252 . S
C94 O98 1.260 . S
C95 O102 1.240 . S
C95 O103 1.252 . S
C96 O99 1.252 . S
C96 O100 1.260 . S
O97 In91 2.266 . S
O97 C94 1.252 . S
O98 In91 2.326 . S
O98 C94 1.260 . S
O99 In91 2.266 . S
O99 C96 1.252 . S
O100 In91 2.326 . S
O100 C96 1.260 . S
C101 O92 1.240 . S
C101 O93 1.252 . S
O102 In91 2.294 . S
O102 C95 1.240 . S
O103 In91 2.326 . S
O103 C95 1.252 . S
In104 O105 2.294 . S
In104 O106 2.326 . S
In104 O110 2.266 . S
In104 O111 2.326 . S
In104 O112 2.266 . S
In104 O113 2.326 . S
In104 O115 2.294 . S
In104 O116 2.326 . S
O105 In104 2.294 . S
O105 C114 1.240 . S
O106 In104 2.326 . S
O106 C114 1.252 . S
C107 O110 1.252 . S
C107 O111 1.260 . S
C108 O115 1.240 . S
C108 O116 1.252 . S
C109 O112 1.252 . S
C109 O113 1.260 . S
O110 In104 2.266 . S
O110 C107 1.252 . S
O111 In104 2.326 . S
O111 C107 1.260 . S
O112 In104 2.266 . S
O112 C109 1.252 . S
O113 In104 2.326 . S
O113 C109 1.260 . S
C114 O105 1.240 . S
C114 O106 1.252 . S
O115 In104 2.294 . S
O115 C108 1.240 . S
O116 In104 2.326 . S
O116 C108 1.252 . S
In117 O118 2.294 . S
In117 O119 2.326 . S
In117 O123 2.266 . S
In117 O124 2.326 . S
In117 O125 2.266 . S
In117 O126 2.326 . S
In117 O128 2.294 . S
In117 O129 2.326 . S
O118 In117 2.294 . S
O118 C127 1.240 . S
O119 In117 2.326 . S
O119 C127 1.252 . S
C120 O123 1.252 . S
C120 O124 1.260 . S
C121 O128 1.240 . S
C121 O129 1.252 . S
C122 O125 1.252 . S
C122 O126 1.260 . S
O123 In117 2.266 . S
O123 C120 1.252 . S
O124 In117 2.326 . S
O124 C120 1.260 . S
O125 In117 2.266 . S
O125 C122 1.252 . S
O126 In117 2.326 . S
O126 C122 1.260 . S
C127 O118 1.240 . S
C127 O119 1.252 . S
O128 In117 2.294 . S
O128 C121 1.240 . S
O129 In117 2.326 . S
O129 C121 1.252 . S
In130 O131 2.294 . S
In130 O132 2.326 . S
In130 O136 2.266 . S
In130 O137 2.326 . S
In130 O138 2.266 . S
In130 O139 2.326 . S
In130 O141 2.294 . S
In130 O142 2.326 . S
O131 In130 2.294 . S
O131 C140 1.240 . S
O132 In130 2.326 . S
O132 C140 1.252 . S
C133 O136 1.252 . S
C133 O137 1.260 . S
C134 O141 1.240 . S
C134 O142 1.252 . S
C135 O138 1.252 . S
C135 O139 1.260 . S
O136 In130 2.266 . S
O136 C133 1.252 . S
O137 In130 2.326 . S
O137 C133 1.260 . S
O138 In130 2.266 . S
O138 C135 1.252 . S
O139 In130 2.326 . S
O139 C135 1.260 . S
C140 O131 1.240 . S
C140 O132 1.252 . S
O141 In130 2.294 . S
O141 C134 1.240 . S
O142 In130 2.326 . S
O142 C134 1.252 . S
In143 O144 2.294 . S
In143 O145 2.326 . S
In143 O149 2.266 . S
In143 O150 2.326 . S
In143 O151 2.266 . S
In143 O152 2.326 . S
In143 O154 2.294 . S
In143 O155 2.326 . S
O144 In143 2.294 . S
O144 C153 1.240 . S
O145 In143 2.326 . S
O145 C153 1.252 . S
C146 O149 1.252 . S
C146 O150 1.260 . S
C147 O154 1.240 . S
C147 O155 1.252 . S
C148 O151 1.252 . S
C148 O152 1.260 . S
O149 In143 2.266 . S
O149 C146 1.252 . S
O150 In143 2.326 . S
O150 C146 1.260 . S
O151 In143 2.266 . S
O151 C148 1.252 . S
O152 In143 2.326 . S
O152 C148 1.260 . S
C153 O144 1.240 . S
C153 O145 1.252 . S
O154 In143 2.294 . S
O154 C147 1.240 . S
O155 In143 2.326 . S
O155 C147 1.252 . S
H156 C162 0.930 . S
H157 C166 0.930 . S
H158 C171 0.929 . S
H159 C169 0.929 . S
H160 C164 0.929 1_556 S
H161 C170 0.929 1_554 S
C162 H156 0.930 . S
C162 C163 1.367 . S
C162 C170 1.378 . S
C163 C162 1.367 . S
C163 C171 1.433 . S
C164 H160 0.929 1_554 S
C164 C166 1.378 . S
C164 C168 1.350 . S
C165 C168 1.463 1_566 S
C165 C170 1.350 . S
C165 N173 1.427 . S
C166 H157 0.930 . S
C166 C164 1.378 . S
C166 C167 1.367 . S
C167 C166 1.367 . S
C167 C169 1.433 . S
C168 C164 1.350 . S
C168 C165 1.463 1_544 S
C168 N172 1.427 . S
C169 H159 0.929 . S
C169 C167 1.433 . S
C169 N172 1.384 . S
C170 H161 0.929 1_556 S
C170 C162 1.378 . S
C170 C165 1.350 . S
C171 H158 0.929 . S
C171 C163 1.433 . S
C171 N173 1.384 . S
N172 C168 1.427 . S
N172 C169 1.384 . S
N173 C165 1.427 . S
N173 C171 1.384 . S
H174 C180 0.930 . S
H175 C184 0.930 . S
H176 C189 0.929 . S
H177 C187 0.929 . S
H178 C182 0.929 . S
H179 C188 0.929 . S
C180 H174 0.930 . S
C180 C181 1.367 . S
C180 C188 1.378 . S
C181 C180 1.367 . S
C181 C189 1.433 . S
C182 H178 0.929 . S
C182 C184 1.378 . S
C182 C186 1.350 . S
C183 C186 1.463 . S
C183 C188 1.350 . S
C183 N191 1.427 . S
C184 H175 0.930 . S
C184 C182 1.378 . S
C184 C185 1.367 . S
C185 C184 1.367 . S
C185 C187 1.433 . S
C186 C182 1.350 . S
C186 C183 1.463 . S
C186 N190 1.427 . S
C187 H177 0.929 . S
C187 C185 1.433 . S
C187 N190 1.384 . S
C188 H179 0.929 . S
C188 C180 1.378 . S
C188 C183 1.350 . S
C189 H176 0.929 . S
C189 C181 1.433 . S
C189 N191 1.384 . S
N190 C186 1.427 . S
N190 C187 1.384 . S
N191 C183 1.427 . S
N191 C189 1.384 . S
H192 C198 0.930 . S
H193 C202 0.930 . S
H194 C207 0.929 . S
H195 C205 0.929 . S
H196 C200 0.929 . S
H197 C206 0.929 . S
C198 H192 0.930 . S
C198 C199 1.367 . S
C198 C206 1.378 . S
C199 C198 1.367 . S
C199 C207 1.433 . S
C200 H196 0.929 . S
C200 C202 1.378 . S
C200 C204 1.350 . S
C201 C204 1.463 1_655 S
C201 C206 1.350 . S
C201 N209 1.427 . S
C202 H193 0.930 . S
C202 C200 1.378 . S
C202 C203 1.367 . S
C203 C202 1.367 . S
C203 C205 1.433 . S
C204 C200 1.350 . S
C204 C201 1.463 1_455 S
C204 N208 1.427 . S
C205 H195 0.929 . S
C205 C203 1.433 . S
C205 N208 1.384 . S
C206 H197 0.929 . S
C206 C198 1.378 . S
C206 C201 1.350 . S
C207 H194 0.929 . S
C207 C199 1.433 . S
C207 N209 1.384 . S
N208 C204 1.427 . S
N208 C205 1.384 . S
N209 C201 1.427 . S
N209 C207 1.384 . S
H210 C216 0.930 . S
H211 C220 0.930 . S
H212 C225 0.929 . S
H213 C223 0.929 . S
H214 C218 0.929 1_554 S
H215 C224 0.929 1_556 S
C216 H210 0.930 . S
C216 C217 1.367 . S
C216 C224 1.378 . S
C217 C216 1.367 . S
C217 C225 1.433 . S
C218 H214 0.929 1_556 S
C218 C220 1.378 . S
C218 C222 1.350 . S
C219 C222 1.463 1_564 S
C219 C224 1.350 . S
C219 N227 1.427 . S
C220 H211 0.930 . S
C220 C218 1.378 . S
C220 C221 1.367 . S
C221 C220 1.367 . S
C221 C223 1.433 . S
C222 C218 1.350 . S
C222 C219 1.463 1_546 S
C222 N226 1.427 . S
C223 H213 0.929 . S
C223 C221 1.433 . S
C223 N226 1.384 . S
C224 H215 0.929 1_554 S
C224 C216 1.378 . S
C224 C219 1.350 . S
C225 H212 0.929 . S
C225 C217 1.433 . S
C225 N227 1.384 . S
N226 C222 1.427 . S
N226 C223 1.384 . S
N227 C219 1.427 . S
N227 C225 1.384 . S
H228 C234 0.930 . S
H229 C238 0.930 . S
H230 C243 0.929 . S
H231 C241 0.929 . S
H232 C236 0.929 . S
H233 C242 0.929 . S
C234 H228 0.930 . S
C234 C235 1.367 . S
C234 C242 1.378 . S
C235 C234 1.367 . S
C235 C243 1.433 . S
C236 H232 0.929 . S
C236 C238 1.378 . S
C236 C240 1.350 . S
C237 C240 1.463 . S
C237 C242 1.350 . S
C237 N245 1.427 . S
C238 H229 0.930 . S
C238 C236 1.378 . S
C238 C239 1.367 . S
C239 C238 1.367 . S
C239 C241 1.433 . S
C240 C236 1.350 . S
C240 C237 1.463 . S
C240 N244 1.427 . S
C241 H231 0.929 . S
C241 C239 1.433 . S
C241 N244 1.384 . S
C242 H233 0.929 . S
C242 C234 1.378 . S
C242 C237 1.350 . S
C243 H230 0.929 . S
C243 C235 1.433 . S
C243 N245 1.384 . S
N244 C240 1.427 . S
N244 C241 1.384 . S
N245 C237 1.427 . S
N245 C243 1.384 . S
H246 C252 0.930 . S
H247 C256 0.930 . S
H248 C261 0.929 . S
H249 C259 0.929 . S
H250 C254 0.929 . S
H251 C260 0.929 . S
C252 H246 0.930 . S
C252 C253 1.367 . S
C252 C260 1.378 . S
C253 C252 1.367 . S
C253 C261 1.433 . S
C254 H250 0.929 . S
C254 C256 1.378 . S
C254 C258 1.350 . S
C255 C258 1.463 1_655 S
C255 C260 1.350 . S
C255 N263 1.427 . S
C256 H247 0.930 . S
C256 C254 1.378 . S
C256 C257 1.367 . S
C257 C256 1.367 . S
C257 C259 1.433 . S
C258 C254 1.350 . S
C258 C255 1.463 1_455 S
C258 N262 1.427 . S
C259 H249 0.929 . S
C259 C257 1.433 . S
C259 N262 1.384 . S
C260 H251 0.929 . S
C260 C252 1.378 . S
C260 C255 1.350 . S
C261 H248 0.929 . S
C261 C253 1.433 . S
C261 N263 1.384 . S
N262 C258 1.427 . S
N262 C259 1.384 . S
N263 C255 1.427 . S
N263 C261 1.384 . S
H264 C270 0.930 . S
H265 C274 0.930 . S
H266 C279 0.929 . S
H267 C277 0.929 . S
H268 C272 0.929 . S
H269 C278 0.929 . S
C270 H264 0.930 . S
C270 C271 1.367 . S
C270 C278 1.378 . S
C271 C270 1.367 . S
C271 C279 1.433 . S
C272 H268 0.929 . S
C272 C274 1.378 . S
C272 C276 1.350 . S
C273 C276 1.463 1_556 S
C273 C278 1.350 . S
C273 N281 1.427 . S
C274 H265 0.930 . S
C274 C272 1.378 . S
C274 C275 1.367 . S
C275 C274 1.367 . S
C275 C277 1.433 . S
C276 C272 1.350 . S
C276 C273 1.463 1_554 S
C276 N280 1.427 . S
C277 H267 0.929 . S
C277 C275 1.433 . S
C277 N280 1.384 . S
C278 H269 0.929 . S
C278 C270 1.378 . S
C278 C273 1.350 . S
C279 H266 0.929 . S
C279 C271 1.433 . S
C279 N281 1.384 . S
N280 C276 1.427 . S
N280 C277 1.384 . S
N281 C273 1.427 . S
N281 C279 1.384 . S
H282 C288 0.930 . S
H283 C292 0.930 . S
H284 C297 0.929 . S
H285 C295 0.929 . S
H286 C290 0.929 . S
H287 C296 0.929 . S
C288 H282 0.930 . S
C288 C289 1.367 . S
C288 C296 1.378 . S
C289 C288 1.367 . S
C289 C297 1.433 . S
C290 H286 0.929 . S
C290 C292 1.378 . S
C290 C294 1.350 . S
C291 C294 1.463 . S
C291 C296 1.350 . S
C291 N299 1.427 . S
C292 H283 0.930 . S
C292 C290 1.378 . S
C292 C293 1.367 . S
C293 C292 1.367 . S
C293 C295 1.433 . S
C294 C290 1.350 . S
C294 C291 1.463 . S
C294 N298 1.427 . S
C295 H285 0.929 . S
C295 C293 1.433 . S
C295 N298 1.384 . S
C296 H287 0.929 . S
C296 C288 1.378 . S
C296 C291 1.350 . S
C297 H284 0.929 . S
C297 C289 1.433 . S
C297 N299 1.384 . S
N298 C294 1.427 . S
N298 C295 1.384 . S
N299 C291 1.427 . S
N299 C297 1.384 . S
H300 C306 0.930 . S
H301 C310 0.930 . S
H302 C315 0.929 . S
H303 C313 0.929 . S
H304 C308 0.929 . S
H305 C314 0.929 . S
C306 H300 0.930 . S
C306 C307 1.367 . S
C306 C314 1.378 . S
C307 C306 1.367 . S
C307 C315 1.433 . S
C308 H304 0.929 . S
C308 C310 1.378 . S
C308 C312 1.350 . S
C309 C312 1.463 . S
C309 C314 1.350 . S
C309 N317 1.427 . S
C310 H301 0.930 . S
C310 C308 1.378 . S
C310 C311 1.367 . S
C311 C310 1.367 . S
C311 C313 1.433 . S
C312 C308 1.350 . S
C312 C309 1.463 . S
C312 N316 1.427 . S
C313 H303 0.929 . S
C313 C311 1.433 . S
C313 N316 1.384 . S
C314 H305 0.929 . S
C314 C306 1.378 . S
C314 C309 1.350 . S
C315 H302 0.929 . S
C315 C307 1.433 . S
C315 N317 1.384 . S
N316 C312 1.427 . S
N316 C313 1.384 . S
N317 C309 1.427 . S
N317 C315 1.384 . S
H318 C324 0.930 . S
H319 C328 0.930 . S
H320 C333 0.929 . S
H321 C331 0.929 . S
H322 C326 0.929 . S
H323 C332 0.929 . S
C324 H318 0.930 . S
C324 C325 1.367 . S
C324 C332 1.378 . S
C325 C324 1.367 . S
C325 C333 1.433 . S
C326 H322 0.929 . S
C326 C328 1.378 . S
C326 C330 1.350 . S
C327 C330 1.463 1_556 S
C327 C332 1.350 . S
C327 N335 1.427 . S
C328 H319 0.930 . S
C328 C326 1.378 . S
C328 C329 1.367 . S
C329 C328 1.367 . S
C329 C331 1.433 . S
C330 C326 1.350 . S
C330 C327 1.463 1_554 S
C330 N334 1.427 . S
C331 H321 0.929 . S
C331 C329 1.433 . S
C331 N334 1.384 . S
C332 H323 0.929 . S
C332 C324 1.378 . S
C332 C327 1.350 . S
C333 H320 0.929 . S
C333 C325 1.433 . S
C333 N335 1.384 . S
N334 C330 1.427 . S
N334 C331 1.384 . S
N335 C327 1.427 . S
N335 C333 1.384 . S
H336 C342 0.930 . S
H337 C346 0.930 . S
H338 C351 0.929 . S
H339 C349 0.929 . S
H340 C344 0.929 . S
H341 C350 0.929 . S
C342 H336 0.930 . S
C342 C343 1.367 . S
C342 C350 1.378 . S
C343 C342 1.367 . S
C343 C351 1.433 . S
C344 H340 0.929 . S
C344 C346 1.378 . S
C344 C348 1.350 . S
C345 C348 1.463 . S
C345 C350 1.350 . S
C345 N353 1.427 . S
C346 H337 0.930 . S
C346 C344 1.378 . S
C346 C347 1.367 . S
C347 C346 1.367 . S
C347 C349 1.433 . S
C348 C344 1.350 . S
C348 C345 1.463 . S
C348 N352 1.427 . S
C349 H339 0.929 . S
C349 C347 1.433 . S
C349 N352 1.384 . S
C350 H341 0.929 . S
C350 C342 1.378 . S
C350 C345 1.350 . S
C351 H338 0.929 . S
C351 C343 1.433 . S
C351 N353 1.384 . S
N352 C348 1.427 . S
N352 C349 1.384 . S
N353 C345 1.427 . S
N353 C351 1.384 . S
H354 C360 0.930 . S
H355 C364 0.930 . S
H356 C369 0.929 . S
H357 C367 0.929 . S
H358 C362 0.929 . S
H359 C368 0.929 . S
C360 H354 0.930 . S
C360 C361 1.367 . S
C360 C368 1.378 . S
C361 C360 1.367 . S
C361 C369 1.433 . S
C362 H358 0.929 . S
C362 C364 1.378 . S
C362 C366 1.350 . S
C363 C366 1.463 . S
C363 C368 1.350 . S
C363 N371 1.427 . S
C364 H355 0.930 . S
C364 C362 1.378 . S
C364 C365 1.367 . S
C365 C364 1.367 . S
C365 C367 1.433 . S
C366 C362 1.350 . S
C366 C363 1.463 . S
C366 N370 1.427 . S
C367 H357 0.929 . S
C367 C365 1.433 . S
C367 N370 1.384 . S
C368 H359 0.929 . S
C368 C360 1.378 . S
C368 C363 1.350 . S
C369 H356 0.929 . S
C369 C361 1.433 . S
C369 N371 1.384 . S
N370 C366 1.427 . S
N370 C367 1.384 . S
N371 C363 1.427 . S
N371 C369 1.384 . S
H372 C378 0.930 . S
H373 C382 0.930 . S
H374 C387 0.929 . S
H375 C385 0.929 . S
H376 C380 0.929 . S
H377 C386 0.929 . S
C378 H372 0.930 . S
C378 C379 1.367 . S
C378 C386 1.378 . S
C379 C378 1.367 . S
C379 C387 1.433 . S
C380 H376 0.929 . S
C380 C382 1.378 . S
C380 C384 1.350 . S
C381 C384 1.463 . S
C381 C386 1.350 . S
C381 N389 1.427 . S
C382 H373 0.930 . S
C382 C380 1.378 . S
C382 C383 1.367 . S
C383 C382 1.367 . S
C383 C385 1.433 . S
C384 C380 1.350 . S
C384 C381 1.463 . S
C384 N388 1.427 . S
C385 H375 0.929 . S
C385 C383 1.433 . S
C385 N388 1.384 . S
C386 H377 0.929 . S
C386 C378 1.378 . S
C386 C381 1.350 . S
C387 H374 0.929 . S
C387 C379 1.433 . S
C387 N389 1.384 . S
N388 C384 1.427 . S
N388 C385 1.384 . S
N389 C381 1.427 . S
N389 C387 1.384 . S
H390 C396 0.930 . S
H391 C400 0.930 . S
H392 C405 0.929 . S
H393 C403 0.929 . S
H394 C398 0.929 . S
H395 C404 0.929 . S
C396 H390 0.930 . S
C396 C397 1.367 . S
C396 C404 1.378 . S
C397 C396 1.367 . S
C397 C405 1.433 . S
C398 H394 0.929 . S
C398 C400 1.378 . S
C398 C402 1.350 . S
C399 C402 1.463 . S
C399 C404 1.350 . S
C399 N407 1.427 . S
C400 H391 0.930 . S
C400 C398 1.378 . S
C400 C401 1.367 . S
C401 C400 1.367 . S
C401 C403 1.433 . S
C402 C398 1.350 . S
C402 C399 1.463 . S
C402 N406 1.427 . S
C403 H393 0.929 . S
C403 C401 1.433 . S
C403 N406 1.384 . S
C404 H395 0.929 . S
C404 C396 1.378 . S
C404 C399 1.350 . S
C405 H392 0.929 . S
C405 C397 1.433 . S
C405 N407 1.384 . S
N406 C402 1.427 . S
N406 C403 1.384 . S
N407 C399 1.427 . S
N407 C405 1.384 . S
H408 C414 0.930 . S
H409 C418 0.930 . S
H410 C423 0.929 . S
H411 C421 0.929 . S
H412 C416 0.929 . S
H413 C422 0.929 . S
C414 H408 0.930 . S
C414 C415 1.367 . S
C414 C422 1.378 . S
C415 C414 1.367 . S
C415 C423 1.433 . S
C416 H412 0.929 . S
C416 C418 1.378 . S
C416 C420 1.350 . S
C417 C420 1.463 . S
C417 C422 1.350 . S
C417 N425 1.427 . S
C418 H409 0.930 . S
C418 C416 1.378 . S
C418 C419 1.367 . S
C419 C418 1.367 . S
C419 C421 1.433 . S
C420 C416 1.350 . S
C420 C417 1.463 . S
C420 N424 1.427 . S
C421 H411 0.929 . S
C421 C419 1.433 . S
C421 N424 1.384 . S
C422 H413 0.929 . S
C422 C414 1.378 . S
C422 C417 1.350 . S
C423 H410 0.929 . S
C423 C415 1.433 . S
C423 N425 1.384 . S
N424 C420 1.427 . S
N424 C421 1.384 . S
N425 C417 1.427 . S
N425 C423 1.384 . S
H426 C432 0.930 . S
H427 C436 0.930 . S
H428 C441 0.929 . S
H429 C439 0.929 . S
H430 C434 0.929 . S
H431 C440 0.929 . S
C432 H426 0.930 . S
C432 C433 1.367 . S
C432 C440 1.378 . S
C433 C432 1.367 . S
C433 C441 1.433 . S
C434 H430 0.929 . S
C434 C436 1.378 . S
C434 C438 1.350 . S
C435 C438 1.463 . S
C435 C440 1.350 . S
C435 N443 1.427 . S
C436 H427 0.930 . S
C436 C434 1.378 . S
C436 C437 1.367 . S
C437 C436 1.367 . S
C437 C439 1.433 . S
C438 C434 1.350 . S
C438 C435 1.463 . S
C438 N442 1.427 . S
C439 H429 0.929 . S
C439 C437 1.433 . S
C439 N442 1.384 . S
C440 H431 0.929 . S
C440 C432 1.378 . S
C440 C435 1.350 . S
C441 H428 0.929 . S
C441 C433 1.433 . S
C441 N443 1.384 . S
N442 C438 1.427 . S
N442 C439 1.384 . S
N443 C435 1.427 . S
N443 C441 1.384 . S
H444 C450 0.930 . S
H445 C454 0.930 . S
H446 C459 0.929 . S
H447 C457 0.929 . S
H448 C452 0.929 . S
H449 C458 0.929 . S
C450 H444 0.930 . S
C450 C451 1.367 . S
C450 C458 1.378 . S
C451 C450 1.367 . S
C451 C459 1.433 . S
C452 H448 0.929 . S
C452 C454 1.378 . S
C452 C456 1.350 . S
C453 C456 1.463 . S
C453 C458 1.350 . S
C453 N461 1.427 . S
C454 H445 0.930 . S
C454 C452 1.378 . S
C454 C455 1.367 . S
C455 C454 1.367 . S
C455 C457 1.433 . S
C456 C452 1.350 . S
C456 C453 1.463 . S
C456 N460 1.427 . S
C457 H447 0.929 . S
C457 C455 1.433 . S
C457 N460 1.384 . S
C458 H449 0.929 . S
C458 C450 1.378 . S
C458 C453 1.350 . S
C459 H446 0.929 . S
C459 C451 1.433 . S
C459 N461 1.384 . S
N460 C456 1.427 . S
N460 C457 1.384 . S
N461 C453 1.427 . S
N461 C459 1.384 . S
H462 C468 0.930 . S
H463 C472 0.930 . S
H464 C477 0.929 . S
H465 C475 0.929 . S
H466 C470 0.929 . S
H467 C476 0.929 . S
C468 H462 0.930 . S
C468 C469 1.367 . S
C468 C476 1.378 . S
C469 C468 1.367 . S
C469 C477 1.433 . S
C470 H466 0.929 . S
C470 C472 1.378 . S
C470 C474 1.350 . S
C471 C474 1.463 . S
C471 C476 1.350 . S
C471 N479 1.427 . S
C472 H463 0.930 . S
C472 C470 1.378 . S
C472 C473 1.367 . S
C473 C472 1.367 . S
C473 C475 1.433 . S
C474 C470 1.350 . S
C474 C471 1.463 . S
C474 N478 1.427 . S
C475 H465 0.929 . S
C475 C473 1.433 . S
C475 N478 1.384 . S
C476 H467 0.929 . S
C476 C468 1.378 . S
C476 C471 1.350 . S
C477 H464 0.929 . S
C477 C469 1.433 . S
C477 N479 1.384 . S
N478 C474 1.427 . S
N478 C475 1.384 . S
N479 C471 1.427 . S
N479 C477 1.384 . S
H480 C486 0.930 . S
H481 C490 0.930 . S
H482 C495 0.929 . S
H483 C493 0.929 . S
H484 C488 0.929 . S
H485 C494 0.929 . S
C486 H480 0.930 . S
C486 C487 1.367 . S
C486 C494 1.378 . S
C487 C486 1.367 . S
C487 C495 1.433 . S
C488 H484 0.929 . S
C488 C490 1.378 . S
C488 C492 1.350 . S
C489 C492 1.463 . S
C489 C494 1.350 . S
C489 N497 1.427 . S
C490 H481 0.930 . S
C490 C488 1.378 . S
C490 C491 1.367 . S
C491 C490 1.367 . S
C491 C493 1.433 . S
C492 C488 1.350 . S
C492 C489 1.463 . S
C492 N496 1.427 . S
C493 H483 0.929 . S
C493 C491 1.433 . S
C493 N496 1.384 . S
C494 H485 0.929 . S
C494 C486 1.378 . S
C494 C489 1.350 . S
C495 H482 0.929 . S
C495 C487 1.433 . S
C495 N497 1.384 . S
N496 C492 1.427 . S
N496 C493 1.384 . S
N497 C489 1.427 . S
N497 C495 1.384 . S
H498 C504 0.930 . S
H499 C508 0.930 . S
H500 C513 0.929 . S
H501 C511 0.929 . S
H502 C506 0.929 1_655 S
H503 C512 0.929 1_455 S
C504 H498 0.930 . S
C504 C505 1.367 . S
C504 C512 1.378 . S
C505 C504 1.367 . S
C505 C513 1.433 . S
C506 H502 0.929 1_455 S
C506 C508 1.378 . S
C506 C510 1.350 . S
C507 C510 1.463 1_655 S
C507 C512 1.350 . S
C507 N515 1.427 . S
C508 H499 0.930 . S
C508 C506 1.378 . S
C508 C509 1.367 . S
C509 C508 1.367 . S
C509 C511 1.433 . S
C510 C506 1.350 . S
C510 C507 1.463 1_455 S
C510 N514 1.427 . S
C511 H501 0.929 . S
C511 C509 1.433 . S
C511 N514 1.384 . S
C512 H503 0.929 1_655 S
C512 C504 1.378 . S
C512 C507 1.350 . S
C513 H500 0.929 . S
C513 C505 1.433 . S
C513 N515 1.384 . S
N514 C510 1.427 . S
N514 C511 1.384 . S
N515 C507 1.427 . S
N515 C513 1.384 . S
H516 C522 0.930 . S
H517 C526 0.930 . S
H518 C531 0.929 . S
H519 C529 0.929 . S
H520 C524 0.929 . S
H521 C530 0.929 . S
C522 H516 0.930 . S
C522 C523 1.367 . S
C522 C530 1.378 1_545 S
C523 C522 1.367 . S
C523 C531 1.433 . S
C524 H520 0.929 . S
C524 C526 1.378 1_545 S
C524 C528 1.350 1_545 S
C525 C528 1.463 1_545 S
C525 C530 1.350 1_545 S
C525 N533 1.427 . S
C526 H517 0.930 . S
C526 C524 1.378 1_565 S
C526 C527 1.367 . S
C527 C526 1.367 . S
C527 C529 1.433 . S
C528 C524 1.350 1_565 S
C528 C525 1.463 1_565 S
C528 N532 1.427 . S
C529 H519 0.929 . S
C529 C527 1.433 . S
C529 N532 1.384 . S
C530 H521 0.929 . S
C530 C522 1.378 1_565 S
C530 C525 1.350 1_565 S
C531 H518 0.929 . S
C531 C523 1.433 . S
C531 N533 1.384 . S
N532 C528 1.427 . S
N532 C529 1.384 . S
N533 C525 1.427 . S
N533 C531 1.384 . S
H534 C540 0.930 . S
H535 C544 0.930 . S
H536 C549 0.929 . S
H537 C547 0.929 . S
H538 C542 0.929 . S
H539 C548 0.929 . S
C540 H534 0.930 . S
C540 C541 1.367 . S
C540 C548 1.378 . S
C541 C540 1.367 . S
C541 C549 1.433 . S
C542 H538 0.929 . S
C542 C544 1.378 . S
C542 C546 1.350 . S
C543 C546 1.463 . S
C543 C548 1.350 . S
C543 N551 1.427 . S
C544 H535 0.930 . S
C544 C542 1.378 . S
C544 C545 1.367 . S
C545 C544 1.367 . S
C545 C547 1.433 . S
C546 C542 1.350 . S
C546 C543 1.463 . S
C546 N550 1.427 . S
C547 H537 0.929 . S
C547 C545 1.433 . S
C547 N550 1.384 . S
C548 H539 0.929 . S
C548 C540 1.378 . S
C548 C543 1.350 . S
C549 H536 0.929 . S
C549 C541 1.433 . S
C549 N551 1.384 . S
N550 C546 1.427 . S
N550 C547 1.384 . S
N551 C543 1.427 . S
N551 C549 1.384 . S
H552 C558 0.930 . S
H553 C562 0.930 . S
H554 C567 0.929 . S
H555 C565 0.929 . S
H556 C560 0.929 . S
H557 C566 0.929 . S
C558 H552 0.930 . S
C558 C559 1.367 . S
C558 C566 1.378 . S
C559 C558 1.367 . S
C559 C567 1.433 . S
C560 H556 0.929 . S
C560 C562 1.378 . S
C560 C564 1.350 . S
C561 C564 1.463 1_455 S
C561 C566 1.350 . S
C561 N569 1.427 . S
C562 H553 0.930 . S
C562 C560 1.378 . S
C562 C563 1.367 . S
C563 C562 1.367 . S
C563 C565 1.433 . S
C564 C560 1.350 . S
C564 C561 1.463 1_655 S
C564 N568 1.427 . S
C565 H555 0.929 . S
C565 C563 1.433 . S
C565 N568 1.384 . S
C566 H557 0.929 . S
C566 C558 1.378 . S
C566 C561 1.350 . S
C567 H554 0.929 . S
C567 C559 1.433 . S
C567 N569 1.384 . S
N568 C564 1.427 . S
N568 C565 1.384 . S
N569 C561 1.427 . S
N569 C567 1.384 . S
H570 C576 0.930 . S
H571 C580 0.930 . S
H572 C585 0.929 . S
H573 C583 0.929 . S
H574 C578 0.929 . S
H575 C584 0.929 . S
C576 H570 0.930 . S
C576 C577 1.367 . S
C576 C584 1.378 . S
C577 C576 1.367 . S
C577 C585 1.433 . S
C578 H574 0.929 . S
C578 C580 1.378 . S
C578 C582 1.350 . S
C579 C582 1.463 1_565 S
C579 C584 1.350 . S
C579 N587 1.427 . S
C580 H571 0.930 . S
C580 C578 1.378 . S
C580 C581 1.367 . S
C581 C580 1.367 . S
C581 C583 1.433 . S
C582 C578 1.350 . S
C582 C579 1.463 1_545 S
C582 N586 1.427 . S
C583 H573 0.929 . S
C583 C581 1.433 . S
C583 N586 1.384 . S
C584 H575 0.929 . S
C584 C576 1.378 . S
C584 C579 1.350 . S
C585 H572 0.929 . S
C585 C577 1.433 . S
C585 N587 1.384 . S
N586 C582 1.427 . S
N586 C583 1.384 . S
N587 C579 1.427 . S
N587 C585 1.384 . S
C163 C96 1.443 . S
C167 C5 1.450 . S
C181 C16 1.452 . S
C185 C109 1.444 . S
C199 C29 1.451 . S
C203 C122 1.443 . S
C217 C42 1.443 . S
C221 C133 1.450 . S
C235 C148 1.450 . S
C239 C55 1.443 . S
C253 C83 1.444 . S
C257 C68 1.452 . S
C271 C135 1.221 . S
C275 C3 1.223 . S
C289 C18 1.224 . S
C293 C146 1.224 . S
C307 C31 1.224 . S
C311 C81 1.223 . S
C325 C94 1.221 . S
C329 C44 1.222 . S
C343 C107 1.224 . S
C347 C57 1.223 . S
C361 C120 1.220 . S
C365 C70 1.220 . S
C379 C10 1.667 . S
C383 C114 1.666 . S
C397 C17 1.665 . S
C401 C127 1.669 . S
C415 C134 1.670 . S
C419 C30 1.667 . S
C433 C43 1.665 . S
C437 C153 1.670 . S
C451 C88 1.666 . S
C455 C56 1.670 . S
C469 C101 1.667 . S
C473 C69 1.666 . S
C487 C49 1.625 . S
C491 C4 1.625 . S
C505 C62 1.628 . S
C509 C23 1.628 . S
C523 C36 1.629 . S
C527 C75 1.629 . S
C541 C82 1.629 . S
C545 C121 1.629 . S
C559 C95 1.625 . S
C563 C140 1.626 . S
C577 C147 1.627 . S
C581 C108 1.626 . S
