# Generated by pormake.
# Topology ukt, (4)-cn, num edge types: 1
# Building blocks:
#     Node 0, Type 0, BuildingBlock: NAHDIM_clean_sbu_0, # of connection points: 4
#     Node 1, Type 0, BuildingBlock: NAHDIM_clean_sbu_0, # of connection points: 4
#     Node 2, Type 0, BuildingBlock: NAHDIM_clean_sbu_0, # of connection points: 4
#     Node 3, Type 0, BuildingBlock: NAHDIM_clean_sbu_0, # of connection points: 4
#     Node 4, Type 0, BuildingBlock: NAHDIM_clean_sbu_0, # of connection points: 4
#     Node 5, Type 0, BuildingBlock: NAHDIM_clean_sbu_0, # of connection points: 4
#     Node 6, Type 0, BuildingBlock: NAHDIM_clean_sbu_0, # of connection points: 4
#     Node 7, Type 0, BuildingBlock: NAHDIM_clean_sbu_0, # of connection points: 4
#     Node 8, Type 0, BuildingBlock: NAHDIM_clean_sbu_0, # of connection points: 4
#     Node 9, Type 0, BuildingBlock: NAHDIM_clean_sbu_0, # of connection points: 4
#     Node 10, Type 0, BuildingBlock: NAHDIM_clean_sbu_0, # of connection points: 4
#     Node 11, Type 0, BuildingBlock: NAHDIM_clean_sbu_0, # of connection points: 4
#     Node 12, Type 0, BuildingBlock: NAHDIM_clean_sbu_0, # of connection points: 4
#     Node 13, Type 0, BuildingBlock: NAHDIM_clean_sbu_0, # of connection points: 4
#     Node 14, Type 0, BuildingBlock: NAHDIM_clean_sbu_0, # of connection points: 4
#     Node 15, Type 0, BuildingBlock: NAHDIM_clean_sbu_0, # of connection points: 4
#     Edge 16, Type (0, 0), BuildingBlock: XIVTED_clean_linker_0, # of connection points: 2
#     Edge 17, Type (0, 0), BuildingBlock: XIVTED_clean_linker_0, # of connection points: 2
#     Edge 18, Type (0, 0), BuildingBlock: XIVTED_clean_linker_0, # of connection points: 2
#     Edge 19, Type (0, 0), BuildingBlock: XIVTED_clean_linker_0, # of connection points: 2
#     Edge 20, Type (0, 0), BuildingBlock: XIVTED_clean_linker_0, # of connection points: 2
#     Edge 21, Type (0, 0), BuildingBlock: XIVTED_clean_linker_0, # of connection points: 2
#     Edge 22, Type (0, 0), BuildingBlock: XIVTED_clean_linker_0, # of connection points: 2
#     Edge 23, Type (0, 0), BuildingBlock: XIVTED_clean_linker_0, # of connection points: 2
#     Edge 24, Type (0, 0), BuildingBlock: XIVTED_clean_linker_0, # of connection points: 2
#     Edge 25, Type (0, 0), BuildingBlock: XIVTED_clean_linker_0, # of connection points: 2
#     Edge 26, Type (0, 0), BuildingBlock: XIVTED_clean_linker_0, # of connection points: 2
#     Edge 27, Type (0, 0), BuildingBlock: XIVTED_clean_linker_0, # of connection points: 2
#     Edge 28, Type (0, 0), BuildingBlock: XIVTED_clean_linker_0, # of connection points: 2
#     Edge 29, Type (0, 0), BuildingBlock: XIVTED_clean_linker_0, # of connection points: 2
#     Edge 30, Type (0, 0), BuildingBlock: XIVTED_clean_linker_0, # of connection points: 2
#     Edge 31, Type (0, 0), BuildingBlock: XIVTED_clean_linker_0, # of connection points: 2
#     Edge 32, Type (0, 0), BuildingBlock: XIVTED_clean_linker_0, # of connection points: 2
#     Edge 33, Type (0, 0), BuildingBlock: XIVTED_clean_linker_0, # of connection points: 2
#     Edge 34, Type (0, 0), BuildingBlock: XIVTED_clean_linker_0, # of connection points: 2
#     Edge 35, Type (0, 0), BuildingBlock: XIVTED_clean_linker_0, # of connection points: 2
#     Edge 36, Type (0, 0), BuildingBlock: XIVTED_clean_linker_0, # of connection points: 2
#     Edge 37, Type (0, 0), BuildingBlock: XIVTED_clean_linker_0, # of connection points: 2
#     Edge 38, Type (0, 0), BuildingBlock: XIVTED_clean_linker_0, # of connection points: 2
#     Edge 39, Type (0, 0), BuildingBlock: XIVTED_clean_linker_0, # of connection points: 2
#     Edge 40, Type (0, 0), BuildingBlock: XIVTED_clean_linker_0, # of connection points: 2
#     Edge 41, Type (0, 0), BuildingBlock: XIVTED_clean_linker_0, # of connection points: 2
#     Edge 42, Type (0, 0), BuildingBlock: XIVTED_clean_linker_0, # of connection points: 2
#     Edge 43, Type (0, 0), BuildingBlock: XIVTED_clean_linker_0, # of connection points: 2
#     Edge 44, Type (0, 0), BuildingBlock: XIVTED_clean_linker_0, # of connection points: 2
#     Edge 45, Type (0, 0), BuildingBlock: XIVTED_clean_linker_0, # of connection points: 2
#     Edge 46, Type (0, 0), BuildingBlock: XIVTED_clean_linker_0, # of connection points: 2
#     Edge 47, Type (0, 0), BuildingBlock: XIVTED_clean_linker_0, # of connection points: 2
# Relax obj value: 0.319
# Max RMSD: 0.219
# Mean RMSD: 0.219
data_MOF--net-ukt--node1-NAHDIM_clean_sbu_0--edge1-XIVTED_clean_linker_0
_symmetry_space_group_name_H-M    P1
_symmetry_Int_Tables_number       1
_symmetry_cell_setting            triclinic
loop_
_symmetry_equiv_pos_as_xyz
'x, y, z'
_cell_length_a     42.698413
_cell_length_b     42.776256
_cell_length_c     35.250174
_cell_angle_alpha  89.65478
_cell_angle_beta   90.141822
_cell_angle_gamma 90.027949
loop_
_atom_site_label
_atom_site_type_symbol
_atom_site_fract_x
_atom_site_fract_y
_atom_site_fract_z
_atom_type_partial_charge
C0 C 0.50869 0.08952 0.06971 0.0
O1 O 0.52215 0.08671 0.1031 0.0
O2 O 0.50874 0.17647 0.11445 0.0
Zn3 Zn 0.53255 0.15103 0.07671 0.0
O4 O 0.57012 0.13109 0.10087 0.0
C5 C 0.52925 0.19611 0.01577 0.0
O6 O 0.49917 0.1954 0.02347 0.0
O7 O 0.50781 0.11621 0.05371 0.0
C8 C 0.59441 0.14548 0.11203 0.0
O9 O 0.59516 0.17616 0.11007 0.0
C10 C 0.49991 0.16565 0.14628 0.0
O11 O 0.50493 0.13606 0.15434 0.0
O12 O 0.54787 0.17906 0.03494 0.0
C13 C 0.40214 0.52683 0.05952 0.0
O14 O 0.40581 0.5482 0.08576 0.0
O15 O 0.31586 0.52671 0.11096 0.0
Zn16 Zn 0.33822 0.54511 0.06619 0.0
O17 O 0.35393 0.58829 0.0774 0.0
C18 C 0.28721 0.53044 0.01376 0.0
O19 O 0.28387 0.50472 0.0339 0.0
O20 O 0.37466 0.51979 0.04862 0.0
C21 C 0.33598 0.61185 0.07452 0.0
O22 O 0.306 0.60738 0.06801 0.0
C23 C 0.32929 0.52029 0.14223 0.0
O24 O 0.3596 0.52482 0.14559 0.0
O25 O 0.30851 0.54981 0.02256 0.0
C26 C 0.94705 0.41886 0.10621 0.0
O27 O 0.92087 0.42204 0.1253 0.0
O28 O 0.93768 0.33729 0.16634 0.0
Zn29 Zn 0.93163 0.35426 0.11344 0.0
O30 O 0.88684 0.36592 0.10291 0.0
C31 C 0.95734 0.29635 0.08264 0.0
O32 O 0.97184 0.29368 0.11542 0.0
O33 O 0.95784 0.39158 0.10069 0.0
C34 C 0.868 0.3449 0.09172 0.0
O35 O 0.87717 0.31558 0.09202 0.0
C36 C 0.91657 0.33945 0.19152 0.0
O37 O 0.89096 0.35531 0.18389 0.0
O38 O 0.94101 0.32054 0.07588 0.0
C39 C 0.10634 0.95939 0.06608 0.0
O40 O 0.11138 0.94034 0.09483 0.0
O41 O 0.19682 0.95884 0.09255 0.0
Zn42 Zn 0.169 0.94257 0.05056 0.0
O43 O 0.15618 0.8983 0.06125 0.0
C44 C 0.20677 0.96248 0.98414 0.0
O45 O 0.20947 0.98999 0.00019 0.0
O46 O 0.12897 0.96632 0.04423 0.0
C47 C 0.17436 0.87513 0.0568 0.0
O48 O 0.20386 0.88016 0.04822 0.0
C49 C 0.22632 0.95514 0.09042 0.0
O50 O 0.23813 0.94153 0.06039 0.0
O51 O 0.19122 0.94105 0.00057 0.0
C52 C 0.5292 0.39682 0.41859 0.0
O53 O 0.54481 0.39875 0.3866 0.0
O54 O 0.5244 0.30808 0.37813 0.0
Zn55 Zn 0.54991 0.33397 0.41379 0.0
O56 O 0.58821 0.35099 0.38814 0.0
C57 C 0.54634 0.29362 0.4799 0.0
O58 O 0.51596 0.29686 0.47542 0.0
O59 O 0.52636 0.3704 0.43488 0.0
C60 C 0.61272 0.33486 0.38278 0.0
O61 O 0.6123 0.30488 0.39109 0.0
C62 C 0.51101 0.31913 0.34878 0.0
O63 O 0.51286 0.34924 0.34158 0.0
O64 O 0.56481 0.30725 0.45698 0.0
C65 C 0.09215 0.52227 0.41585 0.0
O66 O 0.09255 0.53087 0.37999 0.0
O67 O 0.17204 0.5312 0.36841 0.0
Zn68 Zn 0.14936 0.55253 0.41086 0.0
O69 O 0.12583 0.58945 0.39065 0.0
C70 C 0.18909 0.55581 0.47907 0.0
O71 O 0.17965 0.52719 0.48652 0.0
O72 O 0.11669 0.52615 0.43569 0.0
C73 C 0.13856 0.6133 0.37567 0.0
O74 O 0.16899 0.61342 0.3702 0.0
C75 C 0.19895 0.51906 0.37313 0.0
O76 O 0.21147 0.51863 0.40719 0.0
O77 O 0.17947 0.56964 0.44927 0.0
C78 C 0.97185 0.10023 0.4565 0.0
O79 O 0.95071 0.10046 0.42932 0.0
O80 O 0.94023 0.17954 0.42544 0.0
Zn81 Zn 0.93895 0.15474 0.47404 0.0
O82 O 0.89849 0.13093 0.47856 0.0
C83 C 0.95857 0.2072 0.51962 0.0
O84 O 0.98127 0.20934 0.49464 0.0
O85 O 0.97368 0.12365 0.47835 0.0
C86 C 0.8976 0.10976 0.50401 0.0
O87 O 0.92275 0.10443 0.52459 0.0
C88 C 0.91989 0.20108 0.42208 0.0
O89 O 0.89927 0.20483 0.4493 0.0
O90 O 0.93929 0.18471 0.5173 0.0
C91 C 0.42045 0.97145 0.42698 0.0
O92 O 0.43009 0.95346 0.39929 0.0
O93 O 0.3436 0.96833 0.35497 0.0
Zn94 Zn 0.36124 0.94849 0.40225 0.0
O95 O 0.3836 0.90869 0.38942 0.0
C96 C 0.32887 0.91534 0.46128 0.0
O97 O 0.35604 0.9012 0.46463 0.0
O98 O 0.39121 0.97525 0.4318 0.0
C99 C 0.36993 0.88464 0.37647 0.0
O100 O 0.33988 0.88605 0.3685 0.0
C101 C 0.35712 0.96542 0.32312 0.0
O102 O 0.38466 0.95179 0.32182 0.0
O103 O 0.32557 0.93695 0.43666 0.0
C104 C 0.47081 0.89993 0.91222 0.0
O105 O 0.46113 0.90364 0.87708 0.0
O106 O 0.46007 0.8188 0.86196 0.0
Zn107 Zn 0.43823 0.84366 0.90194 0.0
O108 O 0.40317 0.86935 0.88039 0.0
C109 C 0.43531 0.79919 0.96411 0.0
O110 O 0.46586 0.8029 0.96486 0.0
O111 O 0.46611 0.87389 0.92874 0.0
C112 C 0.37762 0.85793 0.86832 0.0
O113 O 0.37462 0.82742 0.86625 0.0
C114 C 0.46318 0.82857 0.8281 0.0
O115 O 0.45306 0.85662 0.81901 0.0
O116 O 0.41918 0.81424 0.93983 0.0
C117 C 0.58174 0.46293 0.89617 0.0
O118 O 0.57645 0.44488 0.86682 0.0
O119 O 0.65754 0.4506 0.8371 0.0
Zn120 Zn 0.64108 0.43588 0.88737 0.0
O121 O 0.61909 0.39429 0.88425 0.0
C122 C 0.70199 0.41875 0.91377 0.0
O123 O 0.70575 0.41199 0.87777 0.0
O124 O 0.60947 0.46515 0.90899 0.0
C125 C 0.63087 0.36818 0.87498 0.0
O126 O 0.65999 0.36698 0.86324 0.0
C127 C 0.64527 0.44275 0.80572 0.0
O128 O 0.62022 0.42492 0.80574 0.0
O129 O 0.67638 0.43079 0.92458 0.0
C130 C 0.01311 0.58911 0.92856 0.0
O131 O 0.02849 0.58053 0.89812 0.0
O132 O 0.02924 0.66291 0.8617 0.0
Zn133 Zn 0.04502 0.64472 0.9109 0.0
O134 O 0.08263 0.61769 0.90175 0.0
C135 C 0.08086 0.67646 0.96847 0.0
O136 O 0.0947 0.64915 0.97165 0.0
O137 O 0.01406 0.6176 0.93847 0.0
C138 C 0.10831 0.62705 0.88763 0.0
O139 O 0.11073 0.65612 0.87574 0.0
C140 C 0.03236 0.64862 0.83044 0.0
O141 O 0.04395 0.62018 0.83058 0.0
O142 O 0.05848 0.67988 0.94492 0.0
C143 C 0.88921 0.01395 0.9833 0.0
O144 O 0.88615 0.03138 0.95268 0.0
O145 O 0.81035 0.04432 0.95338 0.0
Zn146 Zn 0.8371 0.04941 0.00022 0.0
O147 O 0.86385 0.08784 0.99753 0.0
C148 C 0.7862 0.03739 0.05268 0.0
O149 O 0.78208 0.01203 0.0324 0.0
O150 O 0.86774 0.01473 0.00815 0.0
C151 C 0.86628 0.10871 0.97195 0.0
O152 O 0.84873 0.10727 0.94135 0.0
C153 C 0.78666 0.0622 0.95052 0.0
O154 O 0.78176 0.08309 0.97703 0.0
O155 O 0.80913 0.05524 0.04516 0.0
C156 C 0.46781 0.59167 0.55457 0.0
O157 O 0.44804 0.59024 0.58302 0.0
O158 O 0.46497 0.68117 0.59276 0.0
Zn159 Zn 0.44622 0.65446 0.55223 0.0
O160 O 0.40403 0.63852 0.56793 0.0
C161 C 0.4599 0.69816 0.49124 0.0
O162 O 0.48832 0.69801 0.50562 0.0
O163 O 0.47255 0.61776 0.53815 0.0
C164 C 0.38069 0.65683 0.56951 0.0
O165 O 0.38509 0.68692 0.56392 0.0
C166 C 0.47311 0.67138 0.62538 0.0
O167 O 0.47051 0.64149 0.63354 0.0
O168 O 0.43894 0.68103 0.50616 0.0
C169 C 0.884 0.48947 0.53769 0.0
O170 O 0.8835 0.47749 0.5721 0.0
O171 O 0.79964 0.4662 0.57211 0.0
Zn172 Zn 0.83043 0.452 0.53246 0.0
O173 O 0.85696 0.41739 0.55341 0.0
C174 C 0.79357 0.45054 0.46248 0.0
O175 O 0.79264 0.4811 0.4658 0.0
O176 O 0.86076 0.48476 0.5159 0.0
C177 C 0.84893 0.39667 0.5774 0.0
O178 O 0.82044 0.3969 0.59137 0.0
C179 C 0.77151 0.4565 0.57044 0.0
O180 O 0.76293 0.43878 0.54196 0.0
O181 O 0.80842 0.43444 0.48698 0.0
C182 C 0.04412 0.89433 0.55882 0.0
O183 O 0.06425 0.89281 0.58703 0.0
O184 O 0.0468 0.80558 0.59498 0.0
Zn185 Zn 0.06314 0.83135 0.55109 0.0
O186 O 0.10693 0.846 0.56123 0.0
C187 C 0.04382 0.79285 0.48585 0.0
O188 O 0.01514 0.79442 0.49911 0.0
O189 O 0.03776 0.86966 0.54047 0.0
C190 C 0.1304 0.82782 0.56028 0.0
O191 O 0.12582 0.79766 0.55609 0.0
C192 C 0.0497 0.77599 0.59451 0.0
O193 O 0.06273 0.76273 0.56499 0.0
O194 O 0.06595 0.80633 0.50344 0.0
C195 C 0.57513 0.03324 0.62674 0.0
O196 O 0.5676 0.05602 0.64982 0.0
O197 O 0.65158 0.04498 0.69603 0.0
Zn198 Zn 0.6364 0.05547 0.64333 0.0
O199 O 0.61844 0.09878 0.64028 0.0
C200 C 0.69666 0.0373 0.61278 0.0
O201 O 0.69654 0.0168 0.64068 0.0
O202 O 0.60387 0.0265 0.62226 0.0
C203 C 0.63581 0.12266 0.63616 0.0
O204 O 0.66637 0.11925 0.63732 0.0
C205 C 0.64417 0.0613 0.72463 0.0
O206 O 0.62364 0.08393 0.72047 0.0
O207 O 0.6733 0.0553 0.60833 0.0
H208 H 0.49812 0.24283 0.97783 0.0
H209 H 0.65372 0.30841 0.87961 0.0
H210 H 0.58886 0.19899 0.98774 0.0
H211 H 0.5688 0.36207 0.89226 0.0
H212 H 0.62686 0.26288 0.90641 0.0
H213 H 0.52066 0.28154 0.93442 0.0
C214 C 0.5227 0.24114 0.9706 0.0
C215 C 0.54174 0.21791 0.98684 0.0
C216 C 0.61401 0.28452 0.90283 0.0
C217 C 0.5676 0.26201 0.93715 0.0
C218 C 0.62927 0.31048 0.88733 0.0
C219 C 0.61361 0.33921 0.88426 0.0
C220 C 0.58288 0.28733 0.91513 0.0
C221 C 0.58191 0.34048 0.89464 0.0
C222 C 0.53554 0.26325 0.94585 0.0
C223 C 0.5734 0.21674 0.97626 0.0
N224 N 0.56767 0.31501 0.90997 0.0
N225 N 0.58538 0.23862 0.95229 0.0
H226 H 0.11082 0.56556 0.90888 0.0
H227 H 0.29081 0.57873 0.96297 0.0
H228 H 0.16983 0.64349 0.87759 0.0
H229 H 0.23147 0.50174 0.9967 0.0
H230 H 0.24958 0.59737 0.92063 0.0
H231 H 0.15714 0.5367 0.92941 0.0
C232 C 0.13359 0.57642 0.9057 0.0
C233 C 0.13641 0.60727 0.89226 0.0
C234 C 0.24568 0.57617 0.93688 0.0
C235 C 0.18951 0.57443 0.91612 0.0
C236 C 0.26921 0.56551 0.96114 0.0
C237 C 0.26432 0.53897 0.98398 0.0
C238 C 0.21689 0.56036 0.93568 0.0
C239 C 0.23609 0.52252 0.97996 0.0
C240 C 0.16005 0.55991 0.9175 0.0
C241 C 0.16652 0.61994 0.88825 0.0
N242 N 0.21322 0.53377 0.95673 0.0
N243 N 0.19187 0.60366 0.90076 0.0
H244 H 0.86679 0.16604 0.93626 0.0
H245 H 0.98108 0.23733 0.09274 0.0
H246 H 0.91398 0.11213 0.02308 0.0
H247 H 0.92616 0.29321 0.01483 0.0
H248 H 0.9664 0.19066 0.05734 0.0
H249 H 0.89746 0.21194 0.95495 0.0
C250 C 0.88392 0.16374 0.95882 0.0
C251 C 0.88739 0.13545 0.97869 0.0
C252 C 0.95794 0.2132 0.04765 0.0
C253 C 0.92244 0.18764 0.00015 0.0
C254 C 0.96642 0.23989 0.06779 0.0
C255 C 0.95429 0.26914 0.05725 0.0
C256 C 0.93707 0.21579 0.01688 0.0
C257 C 0.93564 0.27105 0.0244 0.0
C258 C 0.90137 0.18992 0.96952 0.0
C259 C 0.91007 0.13368 0.00752 0.0
N260 N 0.92718 0.24467 0.00574 0.0
N261 N 0.92646 0.15948 0.01764 0.0
H262 H 0.37555 0.92176 0.87307 0.0
H263 H 0.19873 0.91304 0.93677 0.0
H264 H 0.31614 0.84089 0.85938 0.0
H265 H 0.25904 0.99227 0.95666 0.0
H266 H 0.23691 0.89244 0.89218 0.0
H267 H 0.32937 0.95324 0.88669 0.0
C268 C 0.35272 0.91073 0.87208 0.0
C269 C 0.34978 0.8784 0.8662 0.0
C270 C 0.2416 0.91463 0.9057 0.0
C271 C 0.29689 0.9143 0.88217 0.0
C272 C 0.21979 0.92642 0.9312 0.0
C273 C 0.22612 0.95402 0.95113 0.0
C274 C 0.27017 0.93031 0.90052 0.0
C275 C 0.25345 0.97068 0.94228 0.0
C276 C 0.32634 0.92876 0.87993 0.0
C277 C 0.31958 0.86558 0.86453 0.0
N278 N 0.27484 0.9582 0.91821 0.0
N279 N 0.29435 0.88343 0.87331 0.0
H280 H 0.60759 0.28647 0.50081 0.0
H281 H 0.57361 0.13759 0.63064 0.0
H282 H 0.51444 0.25378 0.52729 0.0
H283 H 0.66604 0.17546 0.61155 0.0
H284 H 0.55107 0.18329 0.59909 0.0
H285 H 0.62896 0.24923 0.54659 0.0
C286 C 0.59158 0.27159 0.51644 0.0
C287 C 0.55918 0.27297 0.50987 0.0
C288 C 0.57626 0.18182 0.60224 0.0
C289 C 0.58357 0.23013 0.56232 0.0
C290 C 0.58917 0.15574 0.62032 0.0
C291 C 0.62181 0.15247 0.62325 0.0
C292 C 0.59614 0.20469 0.58671 0.0
C293 C 0.64077 0.17685 0.60964 0.0
C294 C 0.60382 0.25036 0.54269 0.0
C295 C 0.53958 0.25334 0.53125 0.0
N296 N 0.62767 0.20172 0.59149 0.0
N297 N 0.55212 0.23247 0.55624 0.0
H298 H 0.32528 0.68759 0.55774 0.0
H299 H 0.2288 0.52903 0.5313 0.0
H300 H 0.36322 0.59594 0.58133 0.0
H301 H 0.2032 0.61787 0.48147 0.0
H302 H 0.27208 0.55483 0.56463 0.0
H303 H 0.27426 0.66377 0.54562 0.0
C304 C 0.32277 0.66253 0.56109 0.0
C305 C 0.3487 0.64366 0.56979 0.0
C306 C 0.25669 0.56868 0.54677 0.0
C307 C 0.29047 0.61627 0.55572 0.0
C308 C 0.23199 0.55401 0.52783 0.0
C309 C 0.21275 0.57127 0.50312 0.0
C310 C 0.26188 0.60082 0.54118 0.0
C311 C 0.21782 0.60358 0.49976 0.0
C312 C 0.29366 0.64893 0.554 0.0
C313 C 0.34397 0.61133 0.57406 0.0
N314 N 0.24203 0.61726 0.51833 0.0
N315 N 0.3155 0.59859 0.56648 0.0
H316 H 0.83582 0.3405 0.61201 0.0
H317 H 0.98764 0.26429 0.52294 0.0
H318 H 0.91086 0.39252 0.55935 0.0
H319 H 0.91129 0.21149 0.57157 0.0
H320 H 0.96635 0.31164 0.55125 0.0
H321 H 0.86905 0.29394 0.61225 0.0
C322 C 0.85947 0.34229 0.60117 0.0
C323 C 0.87031 0.37018 0.58473 0.0
C324 C 0.95456 0.28959 0.55633 0.0
C325 C 0.90833 0.31708 0.58468 0.0
C326 C 0.96679 0.2625 0.54025 0.0
C327 C 0.95075 0.23405 0.544 0.0
C328 C 0.92598 0.28819 0.576 0.0
C329 C 0.92405 0.23308 0.5672 0.0
C330 C 0.87844 0.31569 0.60126 0.0
C331 C 0.90128 0.37127 0.57148 0.0
N332 N 0.91215 0.25988 0.58169 0.0
N333 N 0.91901 0.34498 0.57118 0.0
H334 H 0.18636 0.7967 0.55442 0.0
H335 H 0.27344 0.94571 0.4725 0.0
H336 H 0.14678 0.88955 0.55689 0.0
H337 H 0.32243 0.86042 0.50074 0.0
H338 H 0.22715 0.92565 0.50506 0.0
H339 H 0.23706 0.81942 0.53742 0.0
C340 C 0.18842 0.82187 0.55198 0.0
C341 C 0.16217 0.8412 0.55656 0.0
C342 C 0.24813 0.91144 0.50454 0.0
C343 C 0.21992 0.86726 0.53665 0.0
C344 C 0.27451 0.92284 0.4858 0.0
C345 C 0.30171 0.9046 0.48368 0.0
C346 C 0.24875 0.88136 0.52072 0.0
C347 C 0.30189 0.87522 0.50166 0.0
C348 C 0.21737 0.83482 0.54226 0.0
C349 C 0.16627 0.87368 0.55325 0.0
N350 N 0.27565 0.86431 0.51902 0.0
N351 N 0.19446 0.88563 0.54295 0.0
H352 H 0.37254 0.78958 0.97383 0.0
H353 H 0.3971 0.62925 0.08508 0.0
H354 H 0.46286 0.75612 0.01148 0.0
H355 H 0.30645 0.66622 0.05403 0.0
H356 H 0.42098 0.67883 0.06641 0.0
H357 H 0.34749 0.74794 0.01024 0.0
C358 C 0.38712 0.77361 0.99001 0.0
C359 C 0.41989 0.77606 0.98916 0.0
C360 C 0.39581 0.67628 0.0642 0.0
C361 C 0.3913 0.72817 0.03086 0.0
C362 C 0.38213 0.64797 0.07493 0.0
C363 C 0.34976 0.64339 0.07051 0.0
C364 C 0.37704 0.70008 0.04864 0.0
C365 C 0.33153 0.66858 0.05755 0.0
C366 C 0.37277 0.74986 0.01091 0.0
C367 C 0.43754 0.75493 0.01104 0.0
N368 N 0.34548 0.69568 0.04652 0.0
N369 N 0.42303 0.73162 0.03063 0.0
H370 H 0.71103 0.44142 0.98549 0.0
H371 H 0.83404 0.30964 0.04228 0.0
H372 H 0.74609 0.37331 0.90637 0.0
H373 H 0.83717 0.40107 0.09341 0.0
H374 H 0.79193 0.32767 0.00055 0.0
H375 H 0.74902 0.42247 0.03281 0.0
C376 C 0.72676 0.42257 0.97809 0.0
C377 C 0.72563 0.409 0.94196 0.0
C378 C 0.80167 0.34364 0.0212 0.0
C379 C 0.76819 0.38688 0.99593 0.0
C380 C 0.82548 0.33333 0.04526 0.0
C381 C 0.83926 0.35399 0.07116 0.0
C382 C 0.79124 0.37465 0.02347 0.0
C383 C 0.8273 0.38448 0.07362 0.0
C384 C 0.74831 0.41181 0.00503 0.0
C385 C 0.74641 0.38461 0.93377 0.0
N386 N 0.80394 0.39398 0.04994 0.0
N387 N 0.76669 0.37414 0.96068 0.0
H388 H 0.05141 0.73201 0.9815 0.0
H389 H 0.20532 0.81967 0.04617 0.0
H390 H 0.13806 0.68292 0.00273 0.0
H391 H 0.11271 0.85823 0.06085 0.0
H392 H 0.18168 0.76896 0.03173 0.0
H393 H 0.07364 0.77843 0.01126 0.0
C394 C 0.07504 0.73094 0.9927 0.0
C395 C 0.09299 0.70367 0.98945 0.0
C396 C 0.16659 0.78844 0.03869 0.0
C397 C 0.1187 0.75677 0.02318 0.0
C398 C 0.18007 0.81738 0.04693 0.0
C399 C 0.16097 0.84334 0.05426 0.0
C400 C 0.13383 0.78561 0.03728 0.0
C401 C 0.12838 0.83896 0.05504 0.0
C402 C 0.08768 0.7574 0.00983 0.0
C403 C 0.12342 0.7035 0.00466 0.0
N404 N 0.11584 0.81079 0.04607 0.0
N405 N 0.1355 0.72982 0.02042 0.0
H406 H 0.60047 0.08202 0.11788 0.0
H407 H 0.78522 0.09147 0.09378 0.0
H408 H 0.65403 0.16751 0.12382 0.0
H409 H 0.72945 0.01006 0.06794 0.0
H410 H 0.73943 0.11567 0.12257 0.0
H411 H 0.64917 0.05228 0.11752 0.0
C412 C 0.62247 0.09455 0.11978 0.0
C413 C 0.6232 0.12738 0.11994 0.0
C414 C 0.73735 0.09229 0.11121 0.0
C415 C 0.67903 0.09339 0.11932 0.0
C416 C 0.76351 0.07838 0.09481 0.0
C417 C 0.76097 0.04896 0.07758 0.0
C418 C 0.70845 0.07669 0.11033 0.0
C419 C 0.73236 0.03299 0.0803 0.0
C420 C 0.65027 0.07751 0.11953 0.0
C421 C 0.65237 0.14227 0.12305 0.0
N422 N 0.70705 0.04728 0.09576 0.0
N423 N 0.67917 0.12517 0.12196 0.0
H424 H 0.49495 0.74636 0.46211 0.0
H425 H 0.345 0.82602 0.36786 0.0
H426 H 0.40424 0.70233 0.45312 0.0
H427 H 0.43214 0.87401 0.38956 0.0
H428 H 0.3704 0.77654 0.38418 0.0
H429 H 0.47623 0.78889 0.42134 0.0
C430 C 0.47128 0.74536 0.45107 0.0
C431 C 0.45092 0.72111 0.46168 0.0
C432 C 0.38409 0.79785 0.38476 0.0
C433 C 0.42933 0.7697 0.41522 0.0
C434 C 0.36963 0.8261 0.3753 0.0
C435 C 0.38629 0.85425 0.37817 0.0
C436 C 0.41539 0.79782 0.39722 0.0
C437 C 0.41823 0.85291 0.38766 0.0
C438 C 0.46058 0.76967 0.42784 0.0
C439 C 0.42058 0.72087 0.44624 0.0
N440 N 0.43161 0.82522 0.39742 0.0
N441 N 0.41057 0.74502 0.42421 0.0
H442 H 0.79517 0.389 0.44254 0.0
H443 H 0.62181 0.39646 0.36448 0.0
H444 H 0.7453 0.47493 0.4202 0.0
H445 H 0.6721 0.31073 0.3867 0.0
H446 H 0.67085 0.42539 0.36951 0.0
H447 H 0.75513 0.36043 0.40761 0.0
C448 C 0.77603 0.40195 0.42974 0.0
C449 C 0.77316 0.43431 0.43504 0.0
C450 C 0.6713 0.40019 0.37256 0.0
C451 C 0.72699 0.40166 0.39537 0.0
C452 C 0.64327 0.38361 0.36963 0.0
C453 C 0.64274 0.3512 0.3762 0.0
C454 C 0.6989 0.38427 0.38247 0.0
C455 C 0.67132 0.33577 0.38212 0.0
C456 C 0.75316 0.3856 0.40974 0.0
C457 C 0.7482 0.44992 0.41726 0.0
N458 N 0.69817 0.35252 0.3859 0.0
N459 N 0.72571 0.43335 0.39884 0.0
H460 H 0.16006 0.67259 0.36114 0.0
H461 H 0.00867 0.74506 0.45615 0.0
H462 H 0.07545 0.62082 0.38485 0.0
H463 H 0.09721 0.79273 0.44382 0.0
H464 H 0.02735 0.7044 0.41318 0.0
H465 H 0.13187 0.72113 0.37337 0.0
C466 C 0.13539 0.67144 0.36805 0.0
C467 C 0.12033 0.64259 0.37311 0.0
C468 C 0.04244 0.7241 0.4193 0.0
C469 C 0.08807 0.69794 0.38765 0.0
C470 C 0.03175 0.74734 0.44375 0.0
C471 C 0.05173 0.77183 0.45427 0.0
C472 C 0.07326 0.7255 0.40541 0.0
C473 C 0.08131 0.77381 0.43714 0.0
C474 C 0.1193 0.69918 0.37517 0.0
C475 C 0.0882 0.64255 0.38157 0.0
N476 N 0.09136 0.75068 0.41404 0.0
N477 N 0.07329 0.66978 0.38935 0.0
H478 H 0.70372 0.076 0.55136 0.0
H479 H 0.88942 0.06016 0.55202 0.0
H480 H 0.7543 0.00999 0.62148 0.0
H481 H 0.83861 0.12203 0.47677 0.0
H482 H 0.83992 0.03724 0.57249 0.0
H483 H 0.7523 0.08878 0.5185 0.0
C484 C 0.72499 0.06393 0.5596 0.0
C485 C 0.72503 0.04219 0.58959 0.0
C486 C 0.83957 0.0556 0.55122 0.0
C487 C 0.78082 0.05691 0.55221 0.0
C488 C 0.86785 0.06875 0.53954 0.0
C489 C 0.8681 0.09336 0.51305 0.0
C490 C 0.81129 0.06731 0.53655 0.0
C491 C 0.83948 0.10327 0.4975 0.0
C492 C 0.75274 0.07124 0.54078 0.0
C493 C 0.75323 0.02709 0.59875 0.0
N494 N 0.81218 0.09046 0.50984 0.0
N495 N 0.78007 0.03501 0.58044 0.0
H496 H 0.47724 0.96017 0.88739 0.0
H497 H 0.50954 0.02877 0.09425 0.0
H498 H 0.48595 0.90237 0.98776 0.0
H499 H 0.48983 0.0859 0.99562 0.0
H500 H 0.50259 0.98206 0.05567 0.0
H501 H 0.48558 0.00639 0.92622 0.0
C502 C 0.48129 0.95714 0.91753 0.0
C503 C 0.48068 0.92736 0.93439 0.0
C504 C 0.49962 0.00482 0.04254 0.0
C505 C 0.48981 0.98025 0.97909 0.0
C506 C 0.50341 0.0315 0.06458 0.0
C507 C 0.50036 0.06129 0.0481 0.0
C508 C 0.49287 0.00797 0.00371 0.0
C509 C 0.49242 0.06342 0.00953 0.0
C510 C 0.48582 0.98359 0.93974 0.0
C511 C 0.48613 0.92489 0.97359 0.0
N512 N 0.48915 0.0371 0.98858 0.0
N513 N 0.49028 0.95104 0.99467 0.0
H514 H 0.46413 0.53969 0.07206 0.0
H515 H 0.51933 0.45666 0.88097 0.0
H516 H 0.4023 0.48854 0.99769 0.0
H517 H 0.58368 0.4971 0.9617 0.0
H518 H 0.47583 0.47139 0.92173 0.0
H519 H 0.5082 0.5258 0.03143 0.0
C520 C 0.45986 0.52526 0.04743 0.0
C521 C 0.42946 0.51535 0.03818 0.0
C522 C 0.49945 0.47716 0.93048 0.0
C523 C 0.47967 0.4998 0.99133 0.0
C524 C 0.52431 0.46895 0.90707 0.0
C525 C 0.55521 0.47551 0.91804 0.0
C526 C 0.50549 0.4921 0.96509 0.0
C527 C 0.56023 0.4915 0.95218 0.0
C528 C 0.48501 0.51748 0.02415 0.0
C529 C 0.42531 0.49674 0.00591 0.0
N530 N 0.5356 0.49913 0.97461 0.0
N531 N 0.45011 0.48974 0.98353 0.0
H532 H 0.97981 0.59761 0.99438 0.0
H533 H 0.99447 0.4181 0.05434 0.0
H534 H 0.01847 0.52586 0.92267 0.0
H535 H 0.92858 0.48029 0.10795 0.0
H536 H 0.00977 0.46033 0.0116 0.0
H537 H 0.96511 0.55715 0.04065 0.0
C538 C 0.9849 0.57338 0.98818 0.0
C539 C 0.00043 0.56511 0.95462 0.0
C540 C 0.99207 0.46479 0.03284 0.0
C541 C 0.98435 0.51904 0.00763 0.0
C542 C 0.9835 0.44076 0.0575 0.0
C543 C 0.95998 0.44557 0.08457 0.0
C544 C 0.97723 0.49397 0.03536 0.0
C545 C 0.94668 0.47551 0.08733 0.0
C546 C 0.97663 0.55037 0.01464 0.0
C547 C 0.00653 0.53337 0.94809 0.0
N548 N 0.9554 0.4986 0.06286 0.0
N549 N -0.00128 0.51156 0.97449 0.0
H550 H 0.05228 0.94726 0.10513 0.0
H551 H 0.94199 0.01387 0.93971 0.0
H552 H 0.08663 0.99057 0.00236 0.0
H553 H 0.90698 0.98374 0.0488 0.0
H554 H 0.99481 -7e-05 0.95995 0.0
H555 H -0.00135 0.95693 0.08366 0.0
C556 C 0.04857 0.95905 0.07822 0.0
C557 C 0.074 0.96814 0.05552 0.0
C558 C 0.97555 -0.00385 0.97939 0.0
C559 C 0.01272 0.9788 0.03055 0.0
C560 C 0.94532 0.00388 0.96774 0.0
C561 C 0.92003 0.00025 0.99273 0.0
C562 C 0.98059 0.98466 0.01628 0.0
C563 C 0.9258 0.98709 0.02867 0.0
C564 C 0.01794 0.96441 0.06591 0.0
C565 C 0.06777 0.98322 0.02085 0.0
N566 N 0.95554 0.98 0.03949 0.0
N567 N 0.03777 0.98795 0.00937 0.0
H568 H 0.45939 0.53156 0.57957 0.0
H569 H 0.53633 0.45716 0.39442 0.0
H570 H 0.50369 0.5857 0.49087 0.0
H571 H 0.49927 0.40194 0.48697 0.0
H572 H 0.52349 0.50453 0.4291 0.0
H573 H 0.47424 0.48372 0.54671 0.0
C574 C 0.47253 0.5334 0.55341 0.0
C575 C 0.48014 0.56268 0.53781 0.0
C576 C 0.51811 0.48207 0.44182 0.0
C577 C 0.49682 0.50808 0.49987 0.0
C578 C 0.52527 0.45498 0.42193 0.0
C579 C 0.51889 0.42554 0.43784 0.0
C580 C 0.5044 0.47973 0.47789 0.0
C581 C 0.50459 0.42417 0.47362 0.0
C582 C 0.48088 0.50607 0.53459 0.0
C583 C 0.49722 0.56364 0.50387 0.0
N584 N 0.49787 0.45092 0.49249 0.0
N585 N 0.50479 0.53673 0.4859 0.0
H586 H 0.08131 0.51005 0.49115 0.0
H587 H 0.89512 0.50974 0.46517 0.0
H588 H 0.03427 0.51908 0.38303 0.0
H589 H 0.94122 0.49303 0.57259 0.0
H590 H 0.94612 0.51758 0.43569 0.0
H591 H 0.03035 0.50556 0.52216 0.0
C592 C 0.0603 0.5107 0.47387 0.0
C593 C 0.06206 0.515 0.43443 0.0
C594 C 0.94509 0.51243 0.46578 0.0
C595 C 0.00374 0.51045 0.46979 0.0
C596 C 0.91593 0.50821 0.48272 0.0
C597 C 0.91389 0.5004 0.52135 0.0
C598 C 0.97242 0.50881 0.4876 0.0
C599 C 0.94168 0.49883 0.54266 0.0
C600 C 0.03122 0.50838 0.49163 0.0
C601 C 0.03407 0.51581 0.4135 0.0
N602 N 0.96983 0.5027 0.52542 0.0
N603 N 0.00607 0.51373 0.43147 0.0
H604 H 0.05608 0.95206 0.58859 0.0
H605 H 0.96731 0.04354 0.42148 0.0
H606 H 0.00753 0.90648 0.49659 0.0
H607 H 0.01097 0.08932 0.51683 0.0
H608 H 0.98555 0.9933 0.44604 0.0
H609 H 0.04172 0.00271 0.56141 0.0
C610 C 0.04218 0.95268 0.56285 0.0
C611 C 0.03297 0.92498 0.54485 0.0
C612 C 0.99135 0.01436 0.46144 0.0
C613 C 0.01684 0.98287 0.51333 0.0
C614 C 0.98113 0.0431 0.44729 0.0
C615 C 0.9874 0.07066 0.4673 0.0
C616 C 0.00793 0.01316 0.49587 0.0
C617 C 0.00546 0.06865 0.50055 0.0
C618 C 0.03415 0.98162 0.54723 0.0
C619 C 0.01509 0.92723 0.51148 0.0
N620 N 0.01487 0.04034 0.51397 0.0
N621 N 0.00769 0.95568 0.49675 0.0
H622 H 0.58393 0.99147 0.56914 0.0
H623 H 0.40852 0.00638 0.49037 0.0
H624 H 0.51235 0.04621 0.62396 0.0
H625 H 0.48356 0.96104 0.42997 0.0
H626 H 0.44537 0.01941 0.54108 0.0
H627 H 0.54608 0.97668 0.5205 0.0
C628 C 0.56015 7e-05 0.57126 0.0
C629 C 0.55137 0.02029 0.60058 0.0
C630 C 0.45378 0.00673 0.51664 0.0
C631 C 0.50799 0.00375 0.54462 0.0
C632 C 0.43279 -0.00057 0.48757 0.0
C633 C 0.44296 0.98259 0.45583 0.0
C634 C 0.48511 -0.003 0.51404 0.0
C635 C 0.47465 0.97408 0.45385 0.0
C636 C 0.53859 0.99179 0.54329 0.0
C637 C 0.5202 0.03067 0.60181 0.0
N638 N 0.49455 0.98126 0.48262 0.0
N639 N 0.49967 0.02243 0.57408 0.0
H640 H 0.49083 0.33258 0.2766 0.0
H641 H 0.48719 0.15247 0.22083 0.0
H642 H 0.50078 0.25636 0.35658 0.0
H643 H 0.48857 0.22841 0.13957 0.0
H644 H 0.47923 0.19028 0.27152 0.0
H645 H 0.47726 0.29492 0.22733 0.0
C646 C 0.48967 0.30799 0.28397 0.0
C647 C 0.49761 0.29753 0.32054 0.0
C648 C 0.48082 0.19863 0.24252 0.0
C649 C 0.48225 0.25436 0.26434 0.0
C650 C 0.4853 0.17704 0.21354 0.0
C651 C 0.48926 0.18736 0.17601 0.0
C652 C 0.4804 0.23073 0.23389 0.0
C653 C 0.48622 0.21944 0.1682 0.0
C654 C 0.48197 0.2865 0.25581 0.0
C655 C 0.49541 0.26542 0.32857 0.0
N656 N 0.48244 0.24004 0.19698 0.0
N657 N 0.48834 0.24495 0.30056 0.0
H658 H 0.26101 0.50289 0.37095 0.0
H659 H 0.26624 0.50937 0.14462 0.0
H660 H 0.17967 0.51479 0.29929 0.0
H661 H 0.34876 0.5109 0.21567 0.0
H662 H 0.23414 0.5011 0.20087 0.0
H663 H 0.29307 0.49552 0.31434 0.0
C664 C 0.24979 0.50349 0.34337 0.0
C665 C 0.21768 0.50993 0.33981 0.0
C666 C 0.25929 0.50295 0.20415 0.0
C667 C 0.25425 0.50165 0.275 0.0
C668 C 0.27768 0.50766 0.17202 0.0
C669 C 0.31023 0.51133 0.1755 0.0
C670 C 0.2735 0.50198 0.2401 0.0
C671 C 0.32373 0.50853 0.2117 0.0
C672 C 0.26814 0.49938 0.31106 0.0
C673 C 0.2044 0.51029 0.30336 0.0
N674 N 0.30526 0.50436 0.24268 0.0
N675 N 0.2228 0.50653 0.27237 0.0
H676 H 0.9634 0.29924 0.21306 0.0
H677 H 0.87839 0.24791 0.4058 0.0
H678 H 0.87572 0.33806 0.25128 0.0
H679 H 0.96135 0.20283 0.3627 0.0
H680 H 0.87883 0.28323 0.35123 0.0
H681 H 0.96514 0.26635 0.26992 0.0
C682 C 0.94463 0.30106 0.23355 0.0
C683 C 0.9193 0.3214 0.22731 0.0
C684 C 0.89695 0.26563 0.35368 0.0
C685 C 0.92108 0.28361 0.29236 0.0
C686 C 0.89671 0.2454 0.38484 0.0
C687 C 0.91982 0.22228 0.38879 0.0
C688 C 0.92053 0.26284 0.32622 0.0
C689 C 0.943 0.22023 0.36075 0.0
C690 C 0.94559 0.28216 0.26594 0.0
C691 C 0.89565 0.32269 0.25483 0.0
N692 N 0.94277 0.24025 0.33064 0.0
N693 N 0.89707 0.30398 0.28608 0.0
H694 H 0.29758 0.98867 0.31549 0.0
H695 H 0.29016 0.95135 0.09392 0.0
H696 H 0.37679 0.9575 0.2499 0.0
H697 H 0.20969 0.97813 0.16012 0.0
H698 H 0.32359 0.96055 0.14892 0.0
H699 H 0.26673 0.99233 0.25721 0.0
C700 C 0.30865 0.983 0.28878 0.0
C701 C 0.33975 0.97236 0.28767 0.0
C702 C 0.29866 0.96467 0.15138 0.0
C703 C 0.30441 0.97628 0.22084 0.0
C704 C 0.27951 0.9594 0.11995 0.0
C705 C 0.24699 0.9636 0.12252 0.0
C706 C 0.28523 0.97411 0.18578 0.0
C707 C 0.2346 0.97435 0.15692 0.0
C708 C 0.29096 0.98502 0.25551 0.0
C709 C 0.35284 0.96553 0.2522 0.0
N710 N 0.25371 0.97895 0.1873 0.0
N711 N 0.33501 0.96729 0.22027 0.0
H712 H 0.47131 0.84074 0.75242 0.0
H713 H 0.48491 0.66027 0.70082 0.0
H714 H 0.47961 0.76702 0.83607 0.0
H715 H 0.47973 0.73463 0.61765 0.0
H716 H 0.4908 0.69937 0.75061 0.0
H717 H 0.48214 0.80281 0.70271 0.0
C718 C 0.47578 0.81665 0.76039 0.0
C719 C 0.47405 0.80695 0.79839 0.0
C720 C 0.48876 0.70711 0.72141 0.0
C721 C 0.4862 0.76333 0.74162 0.0
C722 C 0.48543 0.68478 0.69296 0.0
C723 C 0.48128 0.6942 0.65509 0.0
C724 C 0.48779 0.73905 0.71189 0.0
C725 C 0.4824 0.72629 0.64653 0.0
C726 C 0.48196 0.79498 0.73198 0.0
C727 C 0.48035 0.77548 0.80708 0.0
N728 N 0.48515 0.74755 0.67475 0.0
N729 N 0.48574 0.75472 0.77886 0.0
H730 H 0.71002 0.43931 0.57508 0.0
H731 H 0.69853 0.47749 0.79596 0.0
H732 H 0.78345 0.48479 0.63863 0.0
H733 H 0.62756 0.42741 0.73344 0.0
H734 H 0.72667 0.48693 0.73683 0.0
H735 H 0.67636 0.44157 0.63076 0.0
C736 C 0.71898 0.45008 0.60064 0.0
C737 C 0.74976 0.46151 0.60236 0.0
C738 C 0.70481 0.47411 0.73598 0.0
C739 C 0.71135 0.46398 0.66634 0.0
C740 C 0.6887 0.4687 0.76975 0.0
C741 C 0.66082 0.45129 0.76972 0.0
C742 C 0.69302 0.46195 0.70191 0.0
C743 C 0.64911 0.4407 0.73486 0.0
C744 C 0.69973 0.45133 0.63246 0.0
C745 C 0.75997 0.47547 0.63613 0.0
N746 N 0.66541 0.44597 0.70241 0.0
N747 N 0.74091 0.47601 0.66693 0.0
H748 H 0.02611 0.79573 0.66268 0.0
H749 H 0.03954 0.62633 0.75833 0.0
H750 H 0.05291 0.71246 0.60225 0.0
H751 H 0.01445 0.70959 0.81984 0.0
H752 H 0.03818 0.65647 0.69933 0.0
H753 H 0.01574 0.76367 0.71893 0.0
C754 C 0.02957 0.77069 0.66112 0.0
C755 C 0.04073 0.75681 0.62781 0.0
C756 C 0.03268 0.6681 0.72569 0.0
C757 C 0.02897 0.71999 0.6921 0.0
C758 C 0.03338 0.65087 0.75941 0.0
C759 C 0.02746 0.66552 0.79417 0.0
C760 C 0.02613 0.70027 0.72669 0.0
C761 C 0.01943 0.69736 0.79375 0.0
C762 C 0.02365 0.75239 0.69326 0.0
C763 C 0.04462 0.72423 0.6274 0.0
N764 N 0.01932 0.71374 0.7606 0.0
N765 N 0.03898 0.70698 0.65912 0.0
H766 H 0.63621 0.09373 0.79061 0.0
H767 H 0.78965 0.02249 0.88964 0.0
H768 H 0.69276 0.02134 0.74043 0.0
H769 H 0.73324 0.09582 0.93801 0.0
H770 H 0.75281 0.01931 0.83647 0.0
H771 H 0.66943 0.09189 0.84701 0.0
C772 C 0.65542 0.07722 0.79158 0.0
C773 C 0.6618 0.05781 0.76061 0.0
C774 C 0.74847 0.03603 0.85879 0.0
C775 C 0.7002 0.05578 0.82505 0.0
C776 C 0.76952 0.03788 0.88912 0.0
C777 C 0.76462 0.05957 0.91824 0.0
C778 C 0.72234 0.05599 0.85758 0.0
C779 C 0.73807 0.07885 0.91614 0.0
C780 C 0.67447 0.07624 0.82379 0.0
C781 C 0.68701 0.03682 0.76357 0.0
N782 N 0.71801 0.07666 0.88632 0.0
N783 N 0.70541 0.03653 0.79509 0.0
loop_
_geom_bond_atom_site_label_1
_geom_bond_atom_site_label_2
_geom_bond_distance
_geom_bond_site_symmetry_2
_ccdc_geom_bond_type
C0 O1 1.160 . S
C0 O7 1.185 . S
O1 C0 1.160 . S
O2 Zn3 1.899 . S
O2 C10 1.284 . S
Zn3 O2 1.899 . S
Zn3 O4 2.032 . S
Zn3 O7 2.086 . S
Zn3 O12 1.977 . S
O4 Zn3 2.032 . S
O4 C8 1.278 . S
C5 O6 1.203 . S
C5 O12 1.267 . S
O6 C5 1.203 . S
O7 C0 1.185 . S
O7 Zn3 2.086 . S
C8 O4 1.278 . S
C8 O9 1.211 . S
O9 C8 1.211 . S
C10 O2 1.284 . S
C10 O11 1.273 . S
O11 C10 1.273 . S
O12 Zn3 1.977 . S
O12 C5 1.267 . S
C13 O14 1.160 . S
C13 O20 1.185 . S
O14 C13 1.160 . S
O15 Zn16 1.899 . S
O15 C23 1.284 . S
Zn16 O15 1.899 . S
Zn16 O17 2.032 . S
Zn16 O20 2.086 . S
Zn16 O25 1.977 . S
O17 Zn16 2.032 . S
O17 C21 1.278 . S
C18 O19 1.203 . S
C18 O25 1.267 . S
O19 C18 1.203 . S
O20 C13 1.185 . S
O20 Zn16 2.086 . S
C21 O17 1.278 . S
C21 O22 1.211 . S
O22 C21 1.211 . S
C23 O15 1.284 . S
C23 O24 1.273 . S
O24 C23 1.273 . S
O25 Zn16 1.977 . S
O25 C18 1.267 . S
C26 O27 1.160 . S
C26 O33 1.185 . S
O27 C26 1.160 . S
O28 Zn29 1.899 . S
O28 C36 1.284 . S
Zn29 O28 1.899 . S
Zn29 O30 2.032 . S
Zn29 O33 2.086 . S
Zn29 O38 1.977 . S
O30 Zn29 2.032 . S
O30 C34 1.278 . S
C31 O32 1.203 . S
C31 O38 1.267 . S
O32 C31 1.203 . S
O33 C26 1.185 . S
O33 Zn29 2.086 . S
C34 O30 1.278 . S
C34 O35 1.211 . S
O35 C34 1.211 . S
C36 O28 1.284 . S
C36 O37 1.273 . S
O37 C36 1.273 . S
O38 Zn29 1.977 . S
O38 C31 1.267 . S
C39 O40 1.160 . S
C39 O46 1.185 . S
O40 C39 1.160 . S
O41 Zn42 1.899 . S
O41 C49 1.284 . S
Zn42 O41 1.899 . S
Zn42 O43 2.032 . S
Zn42 O46 2.086 . S
Zn42 O51 1.977 . S
O43 Zn42 2.032 . S
O43 C47 1.278 . S
C44 O45 1.203 . S
C44 O51 1.267 . S
O45 C44 1.203 . S
O46 C39 1.185 . S
O46 Zn42 2.086 . S
C47 O43 1.278 . S
C47 O48 1.211 . S
O48 C47 1.211 . S
C49 O41 1.284 . S
C49 O50 1.273 . S
O50 C49 1.273 . S
O51 Zn42 1.977 . S
O51 C44 1.267 . S
C52 O53 1.160 . S
C52 O59 1.185 . S
O53 C52 1.160 . S
O54 Zn55 1.899 . S
O54 C62 1.284 . S
Zn55 O54 1.899 . S
Zn55 O56 2.032 . S
Zn55 O59 2.086 . S
Zn55 O64 1.977 . S
O56 Zn55 2.032 . S
O56 C60 1.278 . S
C57 O58 1.203 . S
C57 O64 1.267 . S
O58 C57 1.203 . S
O59 C52 1.185 . S
O59 Zn55 2.086 . S
C60 O56 1.278 . S
C60 O61 1.211 . S
O61 C60 1.211 . S
C62 O54 1.284 . S
C62 O63 1.273 . S
O63 C62 1.273 . S
O64 Zn55 1.977 . S
O64 C57 1.267 . S
C65 O66 1.160 . S
C65 O72 1.185 . S
O66 C65 1.160 . S
O67 Zn68 1.899 . S
O67 C75 1.284 . S
Zn68 O67 1.899 . S
Zn68 O69 2.032 . S
Zn68 O72 2.086 . S
Zn68 O77 1.977 . S
O69 Zn68 2.032 . S
O69 C73 1.278 . S
C70 O71 1.203 . S
C70 O77 1.267 . S
O71 C70 1.203 . S
O72 C65 1.185 . S
O72 Zn68 2.086 . S
C73 O69 1.278 . S
C73 O74 1.211 . S
O74 C73 1.211 . S
C75 O67 1.284 . S
C75 O76 1.273 . S
O76 C75 1.273 . S
O77 Zn68 1.977 . S
O77 C70 1.267 . S
C78 O79 1.160 . S
C78 O85 1.185 . S
O79 C78 1.160 . S
O80 Zn81 1.899 . S
O80 C88 1.284 . S
Zn81 O80 1.899 . S
Zn81 O82 2.032 . S
Zn81 O85 2.086 . S
Zn81 O90 1.977 . S
O82 Zn81 2.032 . S
O82 C86 1.278 . S
C83 O84 1.203 . S
C83 O90 1.267 . S
O84 C83 1.203 . S
O85 C78 1.185 . S
O85 Zn81 2.086 . S
C86 O82 1.278 . S
C86 O87 1.211 . S
O87 C86 1.211 . S
C88 O80 1.284 . S
C88 O89 1.273 . S
O89 C88 1.273 . S
O90 Zn81 1.977 . S
O90 C83 1.267 . S
C91 O92 1.160 . S
C91 O98 1.185 . S
O92 C91 1.160 . S
O93 Zn94 1.899 . S
O93 C101 1.284 . S
Zn94 O93 1.899 . S
Zn94 O95 2.032 . S
Zn94 O98 2.086 . S
Zn94 O103 1.977 . S
O95 Zn94 2.032 . S
O95 C99 1.278 . S
C96 O97 1.203 . S
C96 O103 1.267 . S
O97 C96 1.203 . S
O98 C91 1.185 . S
O98 Zn94 2.086 . S
C99 O95 1.278 . S
C99 O100 1.211 . S
O100 C99 1.211 . S
C101 O93 1.284 . S
C101 O102 1.273 . S
O102 C101 1.273 . S
O103 Zn94 1.977 . S
O103 C96 1.267 . S
C104 O105 1.160 . S
C104 O111 1.185 . S
O105 C104 1.160 . S
O106 Zn107 1.899 . S
O106 C114 1.284 . S
Zn107 O106 1.899 . S
Zn107 O108 2.032 . S
Zn107 O111 2.086 . S
Zn107 O116 1.977 . S
O108 Zn107 2.032 . S
O108 C112 1.278 . S
C109 O110 1.203 . S
C109 O116 1.267 . S
O110 C109 1.203 . S
O111 C104 1.185 . S
O111 Zn107 2.086 . S
C112 O108 1.278 . S
C112 O113 1.211 . S
O113 C112 1.211 . S
C114 O106 1.284 . S
C114 O115 1.273 . S
O115 C114 1.273 . S
O116 Zn107 1.977 . S
O116 C109 1.267 . S
C117 O118 1.160 . S
C117 O124 1.185 . S
O118 C117 1.160 . S
O119 Zn120 1.899 . S
O119 C127 1.284 . S
Zn120 O119 1.899 . S
Zn120 O121 2.032 . S
Zn120 O124 2.086 . S
Zn120 O129 1.977 . S
O121 Zn120 2.032 . S
O121 C125 1.278 . S
C122 O123 1.203 . S
C122 O129 1.267 . S
O123 C122 1.203 . S
O124 C117 1.185 . S
O124 Zn120 2.086 . S
C125 O121 1.278 . S
C125 O126 1.211 . S
O126 C125 1.211 . S
C127 O119 1.284 . S
C127 O128 1.273 . S
O128 C127 1.273 . S
O129 Zn120 1.977 . S
O129 C122 1.267 . S
C130 O131 1.160 . S
C130 O137 1.185 . S
O131 C130 1.160 . S
O132 Zn133 1.899 . S
O132 C140 1.284 . S
Zn133 O132 1.899 . S
Zn133 O134 2.032 . S
Zn133 O137 2.086 . S
Zn133 O142 1.977 . S
O134 Zn133 2.032 . S
O134 C138 1.278 . S
C135 O136 1.203 . S
C135 O142 1.267 . S
O136 C135 1.203 . S
O137 C130 1.185 . S
O137 Zn133 2.086 . S
C138 O134 1.278 . S
C138 O139 1.211 . S
O139 C138 1.211 . S
C140 O132 1.284 . S
C140 O141 1.273 . S
O141 C140 1.273 . S
O142 Zn133 1.977 . S
O142 C135 1.267 . S
C143 O144 1.160 . S
C143 O150 1.185 . S
O144 C143 1.160 . S
O145 Zn146 1.899 . S
O145 C153 1.284 . S
Zn146 O145 1.899 . S
Zn146 O147 2.032 . S
Zn146 O150 2.086 . S
Zn146 O155 1.977 . S
O147 Zn146 2.032 . S
O147 C151 1.278 . S
C148 O149 1.203 . S
C148 O155 1.267 . S
O149 C148 1.203 . S
O150 C143 1.185 . S
O150 Zn146 2.086 . S
C151 O147 1.278 . S
C151 O152 1.211 . S
O152 C151 1.211 . S
C153 O145 1.284 . S
C153 O154 1.273 . S
O154 C153 1.273 . S
O155 Zn146 1.977 . S
O155 C148 1.267 . S
C156 O157 1.160 . S
C156 O163 1.185 . S
O157 C156 1.160 . S
O158 Zn159 1.899 . S
O158 C166 1.284 . S
Zn159 O158 1.899 . S
Zn159 O160 2.032 . S
Zn159 O163 2.086 . S
Zn159 O168 1.977 . S
O160 Zn159 2.032 . S
O160 C164 1.278 . S
C161 O162 1.203 . S
C161 O168 1.267 . S
O162 C161 1.203 . S
O163 C156 1.185 . S
O163 Zn159 2.086 . S
C164 O160 1.278 . S
C164 O165 1.211 . S
O165 C164 1.211 . S
C166 O158 1.284 . S
C166 O167 1.273 . S
O167 C166 1.273 . S
O168 Zn159 1.977 . S
O168 C161 1.267 . S
C169 O170 1.160 . S
C169 O176 1.185 . S
O170 C169 1.160 . S
O171 Zn172 1.899 . S
O171 C179 1.284 . S
Zn172 O171 1.899 . S
Zn172 O173 2.032 . S
Zn172 O176 2.086 . S
Zn172 O181 1.977 . S
O173 Zn172 2.032 . S
O173 C177 1.278 . S
C174 O175 1.203 . S
C174 O181 1.267 . S
O175 C174 1.203 . S
O176 C169 1.185 . S
O176 Zn172 2.086 . S
C177 O173 1.278 . S
C177 O178 1.211 . S
O178 C177 1.211 . S
C179 O171 1.284 . S
C179 O180 1.273 . S
O180 C179 1.273 . S
O181 Zn172 1.977 . S
O181 C174 1.267 . S
C182 O183 1.160 . S
C182 O189 1.185 . S
O183 C182 1.160 . S
O184 Zn185 1.899 . S
O184 C192 1.284 . S
Zn185 O184 1.899 . S
Zn185 O186 2.032 . S
Zn185 O189 2.086 . S
Zn185 O194 1.977 . S
O186 Zn185 2.032 . S
O186 C190 1.278 . S
C187 O188 1.203 . S
C187 O194 1.267 . S
O188 C187 1.203 . S
O189 C182 1.185 . S
O189 Zn185 2.086 . S
C190 O186 1.278 . S
C190 O191 1.211 . S
O191 C190 1.211 . S
C192 O184 1.284 . S
C192 O193 1.273 . S
O193 C192 1.273 . S
O194 Zn185 1.977 . S
O194 C187 1.267 . S
C195 O196 1.160 . S
C195 O202 1.185 . S
O196 C195 1.160 . S
O197 Zn198 1.899 . S
O197 C205 1.284 . S
Zn198 O197 1.899 . S
Zn198 O199 2.032 . S
Zn198 O202 2.086 . S
Zn198 O207 1.977 . S
O199 Zn198 2.032 . S
O199 C203 1.278 . S
C200 O201 1.203 . S
C200 O207 1.267 . S
O201 C200 1.203 . S
O202 C195 1.185 . S
O202 Zn198 2.086 . S
C203 O199 1.278 . S
C203 O204 1.211 . S
O204 C203 1.211 . S
C205 O197 1.284 . S
C205 O206 1.273 . S
O206 C205 1.273 . S
O207 Zn198 1.977 . S
O207 C200 1.267 . S
H208 C214 0.930 . S
H209 C218 0.930 . S
H210 C223 0.929 . S
H211 C221 0.929 . S
H212 C216 0.929 . S
H213 C222 0.929 . S
C214 H208 0.930 . S
C214 C215 1.367 . S
C214 C222 1.378 . S
C215 C214 1.367 . S
C215 C223 1.433 1_554 S
C216 H212 0.929 . S
C216 C218 1.378 . S
C216 C220 1.350 . S
C217 C220 1.463 . S
C217 C222 1.350 1_556 S
C217 N225 1.427 . S
C218 H209 0.930 . S
C218 C216 1.378 . S
C218 C219 1.367 . S
C219 C218 1.367 . S
C219 C221 1.433 . S
C220 C216 1.350 . S
C220 C217 1.463 . S
C220 N224 1.427 . S
C221 H211 0.929 . S
C221 C219 1.433 . S
C221 N224 1.384 . S
C222 H213 0.929 . S
C222 C214 1.378 . S
C222 C217 1.350 1_554 S
C223 H210 0.929 . S
C223 C215 1.433 1_556 S
C223 N225 1.384 . S
N224 C220 1.427 . S
N224 C221 1.384 . S
N225 C217 1.427 . S
N225 C223 1.384 . S
H226 C232 0.930 . S
H227 C236 0.930 . S
H228 C241 0.929 . S
H229 C239 0.929 . S
H230 C234 0.929 . S
H231 C240 0.929 1_554 S
C232 H226 0.930 . S
C232 C233 1.367 . S
C232 C240 1.378 . S
C233 C232 1.367 . S
C233 C241 1.433 . S
C234 H230 0.929 . S
C234 C236 1.378 . S
C234 C238 1.350 . S
C235 C238 1.463 . S
C235 C240 1.350 . S
C235 N243 1.427 . S
C236 H227 0.930 . S
C236 C234 1.378 . S
C236 C237 1.367 1_556 S
C237 C236 1.367 1_554 S
C237 C239 1.433 . S
C238 C234 1.350 . S
C238 C235 1.463 . S
C238 N242 1.427 1_556 S
C239 H229 0.929 . S
C239 C237 1.433 . S
C239 N242 1.384 . S
C240 H231 0.929 1_556 S
C240 C232 1.378 . S
C240 C235 1.350 . S
C241 H228 0.929 . S
C241 C233 1.433 . S
C241 N243 1.384 . S
N242 C238 1.427 1_554 S
N242 C239 1.384 . S
N243 C235 1.427 . S
N243 C241 1.384 . S
H244 C250 0.930 . S
H245 C254 0.930 . S
H246 C259 0.929 . S
H247 C257 0.929 . S
H248 C252 0.929 . S
H249 C258 0.929 . S
C250 H244 0.930 . S
C250 C251 1.367 . S
C250 C258 1.378 . S
C251 C250 1.367 . S
C251 C259 1.433 . S
C252 H248 0.929 . S
C252 C254 1.378 . S
C252 C256 1.350 1_554 S
C253 C256 1.463 . S
C253 C258 1.350 . S
C253 N261 1.427 . S
C254 H245 0.930 . S
C254 C252 1.378 . S
C254 C255 1.367 . S
C255 C254 1.367 . S
C255 C257 1.433 1_554 S
C256 C252 1.350 1_556 S
C256 C253 1.463 . S
C256 N260 1.427 . S
C257 H247 0.929 . S
C257 C255 1.433 1_556 S
C257 N260 1.384 . S
C258 H249 0.929 . S
C258 C250 1.378 . S
C258 C253 1.350 . S
C259 H246 0.929 . S
C259 C251 1.433 . S
C259 N261 1.384 . S
N260 C256 1.427 . S
N260 C257 1.384 . S
N261 C253 1.427 . S
N261 C259 1.384 . S
H262 C268 0.930 . S
H263 C272 0.930 . S
H264 C277 0.929 . S
H265 C275 0.929 . S
H266 C270 0.929 . S
H267 C276 0.929 . S
C268 H262 0.930 . S
C268 C269 1.367 . S
C268 C276 1.378 . S
C269 C268 1.367 . S
C269 C277 1.433 . S
C270 H266 0.929 . S
C270 C272 1.378 . S
C270 C274 1.350 1_554 S
C271 C274 1.463 . S
C271 C276 1.350 . S
C271 N279 1.427 . S
C272 H263 0.930 . S
C272 C270 1.378 . S
C272 C273 1.367 . S
C273 C272 1.367 . S
C273 C275 1.433 . S
C274 C270 1.350 1_556 S
C274 C271 1.463 . S
C274 N278 1.427 . S
C275 H265 0.929 . S
C275 C273 1.433 . S
C275 N278 1.384 1_554 S
C276 H267 0.929 . S
C276 C268 1.378 . S
C276 C271 1.350 . S
C277 H264 0.929 . S
C277 C269 1.433 . S
C277 N279 1.384 . S
N278 C274 1.427 . S
N278 C275 1.384 1_556 S
N279 C271 1.427 . S
N279 C277 1.384 . S
H280 C286 0.930 . S
H281 C290 0.930 . S
H282 C295 0.929 . S
H283 C293 0.929 . S
H284 C288 0.929 . S
H285 C294 0.929 . S
C286 H280 0.930 . S
C286 C287 1.367 . S
C286 C294 1.378 . S
C287 C286 1.367 . S
C287 C295 1.433 . S
C288 H284 0.929 . S
C288 C290 1.378 . S
C288 C292 1.350 . S
C289 C292 1.463 . S
C289 C294 1.350 . S
C289 N297 1.427 . S
C290 H281 0.930 . S
C290 C288 1.378 . S
C290 C291 1.367 . S
C291 C290 1.367 . S
C291 C293 1.433 . S
C292 C288 1.350 . S
C292 C289 1.463 . S
C292 N296 1.427 . S
C293 H283 0.929 . S
C293 C291 1.433 . S
C293 N296 1.384 . S
C294 H285 0.929 . S
C294 C286 1.378 . S
C294 C289 1.350 . S
C295 H282 0.929 . S
C295 C287 1.433 . S
C295 N297 1.384 . S
N296 C292 1.427 . S
N296 C293 1.384 . S
N297 C289 1.427 . S
N297 C295 1.384 . S
H298 C304 0.930 . S
H299 C308 0.930 . S
H300 C313 0.929 . S
H301 C311 0.929 . S
H302 C306 0.929 . S
H303 C312 0.929 . S
C304 H298 0.930 . S
C304 C305 1.367 . S
C304 C312 1.378 . S
C305 C304 1.367 . S
C305 C313 1.433 . S
C306 H302 0.929 . S
C306 C308 1.378 . S
C306 C310 1.350 . S
C307 C310 1.463 . S
C307 C312 1.350 . S
C307 N315 1.427 . S
C308 H299 0.930 . S
C308 C306 1.378 . S
C308 C309 1.367 . S
C309 C308 1.367 . S
C309 C311 1.433 . S
C310 C306 1.350 . S
C310 C307 1.463 . S
C310 N314 1.427 . S
C311 H301 0.929 . S
C311 C309 1.433 . S
C311 N314 1.384 . S
C312 H303 0.929 . S
C312 C304 1.378 . S
C312 C307 1.350 . S
C313 H300 0.929 . S
C313 C305 1.433 . S
C313 N315 1.384 . S
N314 C310 1.427 . S
N314 C311 1.384 . S
N315 C307 1.427 . S
N315 C313 1.384 . S
H316 C322 0.930 . S
H317 C326 0.930 . S
H318 C331 0.929 . S
H319 C329 0.929 . S
H320 C324 0.929 . S
H321 C330 0.929 . S
C322 H316 0.930 . S
C322 C323 1.367 . S
C322 C330 1.378 . S
C323 C322 1.367 . S
C323 C331 1.433 . S
C324 H320 0.929 . S
C324 C326 1.378 . S
C324 C328 1.350 . S
C325 C328 1.463 . S
C325 C330 1.350 . S
C325 N333 1.427 . S
C326 H317 0.930 . S
C326 C324 1.378 . S
C326 C327 1.367 . S
C327 C326 1.367 . S
C327 C329 1.433 . S
C328 C324 1.350 . S
C328 C325 1.463 . S
C328 N332 1.427 . S
C329 H319 0.929 . S
C329 C327 1.433 . S
C329 N332 1.384 . S
C330 H321 0.929 . S
C330 C322 1.378 . S
C330 C325 1.350 . S
C331 H318 0.929 . S
C331 C323 1.433 . S
C331 N333 1.384 . S
N332 C328 1.427 . S
N332 C329 1.384 . S
N333 C325 1.427 . S
N333 C331 1.384 . S
H334 C340 0.930 . S
H335 C344 0.930 . S
H336 C349 0.929 . S
H337 C347 0.929 . S
H338 C342 0.929 . S
H339 C348 0.929 . S
C340 H334 0.930 . S
C340 C341 1.367 . S
C340 C348 1.378 . S
C341 C340 1.367 . S
C341 C349 1.433 . S
C342 H338 0.929 . S
C342 C344 1.378 . S
C342 C346 1.350 . S
C343 C346 1.463 . S
C343 C348 1.350 . S
C343 N351 1.427 . S
C344 H335 0.930 . S
C344 C342 1.378 . S
C344 C345 1.367 . S
C345 C344 1.367 . S
C345 C347 1.433 . S
C346 C342 1.350 . S
C346 C343 1.463 . S
C346 N350 1.427 . S
C347 H337 0.929 . S
C347 C345 1.433 . S
C347 N350 1.384 . S
C348 H339 0.929 . S
C348 C340 1.378 . S
C348 C343 1.350 . S
C349 H336 0.929 . S
C349 C341 1.433 . S
C349 N351 1.384 . S
N350 C346 1.427 . S
N350 C347 1.384 . S
N351 C343 1.427 . S
N351 C349 1.384 . S
H352 C358 0.930 . S
H353 C362 0.930 1_556 S
H354 C367 0.929 . S
H355 C365 0.929 . S
H356 C360 0.925 . S
H357 C366 0.929 . S
C358 H352 0.930 . S
C358 C359 1.367 1_554 S
C358 C366 1.378 . S
C359 C358 1.367 1_556 S
C359 C367 1.433 . S
C360 H356 0.925 . S
C360 C362 1.379 1_556 S
C360 C364 1.352 1_556 S
C361 C364 1.463 . S
C361 C366 1.350 . S
C361 N369 1.427 1_554 S
C362 H353 0.930 1_554 S
C362 C360 1.379 1_554 S
C362 C363 1.367 . S
C363 C362 1.367 . S
C363 C365 1.433 . S
C364 C360 1.352 1_554 S
C364 C361 1.463 . S
C364 N368 1.427 . S
C365 H355 0.929 . S
C365 C363 1.433 . S
C365 N368 1.384 . S
C366 H357 0.929 . S
C366 C358 1.378 . S
C366 C361 1.350 . S
C367 H354 0.929 . S
C367 C359 1.433 . S
C367 N369 1.384 . S
N368 C364 1.427 . S
N368 C365 1.384 . S
N369 C361 1.427 1_556 S
N369 C367 1.384 . S
H370 C376 0.930 . S
H371 C380 0.930 . S
H372 C385 0.929 . S
H373 C383 0.929 . S
H374 C378 0.929 1_556 S
H375 C384 0.929 . S
C376 H370 0.930 . S
C376 C377 1.367 1_554 S
C376 C384 1.378 . S
C377 C376 1.367 1_556 S
C377 C385 1.433 . S
C378 H374 0.929 1_554 S
C378 C380 1.378 . S
C378 C382 1.350 . S
C379 C382 1.463 . S
C379 C384 1.350 . S
C379 N387 1.427 1_554 S
C380 H371 0.930 . S
C380 C378 1.378 . S
C380 C381 1.367 . S
C381 C380 1.367 . S
C381 C383 1.433 . S
C382 C378 1.350 . S
C382 C379 1.463 . S
C382 N386 1.427 . S
C383 H373 0.929 . S
C383 C381 1.433 . S
C383 N386 1.384 . S
C384 H375 0.929 . S
C384 C376 1.378 . S
C384 C379 1.350 . S
C385 H372 0.929 . S
C385 C377 1.433 . S
C385 N387 1.384 . S
N386 C382 1.427 . S
N386 C383 1.384 . S
N387 C379 1.427 1_556 S
N387 C385 1.384 . S
H388 C394 0.930 . S
H389 C398 0.930 . S
H390 C403 0.929 . S
H391 C401 0.929 . S
H392 C396 0.929 . S
H393 C402 0.929 . S
C394 H388 0.930 . S
C394 C395 1.367 . S
C394 C402 1.378 1_556 S
C395 C394 1.367 . S
C395 C403 1.433 . S
C396 H392 0.929 . S
C396 C398 1.378 . S
C396 C400 1.350 . S
C397 C400 1.463 . S
C397 C402 1.350 . S
C397 N405 1.427 1_554 S
C398 H389 0.930 . S
C398 C396 1.378 . S
C398 C399 1.367 . S
C399 C398 1.367 . S
C399 C401 1.433 . S
C400 C396 1.350 . S
C400 C397 1.463 . S
C400 N404 1.427 . S
C401 H391 0.929 . S
C401 C399 1.433 . S
C401 N404 1.384 . S
C402 H393 0.929 . S
C402 C394 1.378 1_554 S
C402 C397 1.350 . S
C403 H390 0.929 . S
C403 C395 1.433 . S
C403 N405 1.384 . S
N404 C400 1.427 . S
N404 C401 1.384 . S
N405 C397 1.427 1_556 S
N405 C403 1.384 . S
H406 C412 0.930 . S
H407 C416 0.930 . S
H408 C421 0.929 . S
H409 C419 0.929 . S
H410 C414 0.926 1_554 S
H411 C420 0.929 . S
C412 H406 0.930 . S
C412 C413 1.367 . S
C412 C420 1.378 . S
C413 C412 1.367 . S
C413 C421 1.433 . S
C414 H410 0.926 1_556 S
C414 C416 1.388 . S
C414 C418 1.344 1_556 S
C415 C418 1.463 . S
C415 C420 1.350 . S
C415 N423 1.427 . S
C416 H407 0.930 . S
C416 C414 1.388 . S
C416 C417 1.367 . S
C417 C416 1.367 . S
C417 C419 1.433 . S
C418 C414 1.344 1_554 S
C418 C415 1.463 . S
C418 N422 1.427 . S
C419 H409 0.929 . S
C419 C417 1.433 . S
C419 N422 1.384 1_556 S
C420 H411 0.929 . S
C420 C412 1.378 . S
C420 C415 1.350 . S
C421 H408 0.929 . S
C421 C413 1.433 . S
C421 N423 1.384 . S
N422 C418 1.427 . S
N422 C419 1.384 1_554 S
N423 C415 1.427 . S
N423 C421 1.384 . S
H424 C430 0.930 . S
H425 C434 0.930 . S
H426 C439 0.929 . S
H427 C437 0.929 . S
H428 C432 0.929 . S
H429 C438 0.929 . S
C430 H424 0.930 . S
C430 C431 1.367 . S
C430 C438 1.378 . S
C431 C430 1.367 . S
C431 C439 1.433 . S
C432 H428 0.929 . S
C432 C434 1.378 . S
C432 C436 1.350 . S
C433 C436 1.463 . S
C433 C438 1.350 . S
C433 N441 1.427 . S
C434 H425 0.930 . S
C434 C432 1.378 . S
C434 C435 1.367 . S
C435 C434 1.367 . S
C435 C437 1.433 . S
C436 C432 1.350 . S
C436 C433 1.463 . S
C436 N440 1.427 . S
C437 H427 0.929 . S
C437 C435 1.433 . S
C437 N440 1.384 . S
C438 H429 0.929 . S
C438 C430 1.378 . S
C438 C433 1.350 . S
C439 H426 0.929 . S
C439 C431 1.433 . S
C439 N441 1.384 . S
N440 C436 1.427 . S
N440 C437 1.384 . S
N441 C433 1.427 . S
N441 C439 1.384 . S
H442 C448 0.930 . S
H443 C452 0.930 . S
H444 C457 0.929 . S
H445 C455 0.929 . S
H446 C450 0.929 . S
H447 C456 0.929 . S
C448 H442 0.930 . S
C448 C449 1.367 . S
C448 C456 1.378 . S
C449 C448 1.367 . S
C449 C457 1.433 . S
C450 H446 0.929 . S
C450 C452 1.378 . S
C450 C454 1.350 . S
C451 C454 1.463 . S
C451 C456 1.350 . S
C451 N459 1.427 . S
C452 H443 0.930 . S
C452 C450 1.378 . S
C452 C453 1.367 . S
C453 C452 1.367 . S
C453 C455 1.433 . S
C454 C450 1.350 . S
C454 C451 1.463 . S
C454 N458 1.427 . S
C455 H445 0.929 . S
C455 C453 1.433 . S
C455 N458 1.384 . S
C456 H447 0.929 . S
C456 C448 1.378 . S
C456 C451 1.350 . S
C457 H444 0.929 . S
C457 C449 1.433 . S
C457 N459 1.384 . S
N458 C454 1.427 . S
N458 C455 1.384 . S
N459 C451 1.427 . S
N459 C457 1.384 . S
H460 C466 0.930 . S
H461 C470 0.930 . S
H462 C475 0.929 . S
H463 C473 0.929 . S
H464 C468 0.929 . S
H465 C474 0.929 . S
C466 H460 0.930 . S
C466 C467 1.367 . S
C466 C474 1.378 . S
C467 C466 1.367 . S
C467 C475 1.433 . S
C468 H464 0.929 . S
C468 C470 1.378 . S
C468 C472 1.350 . S
C469 C472 1.463 . S
C469 C474 1.350 . S
C469 N477 1.427 . S
C470 H461 0.930 . S
C470 C468 1.378 . S
C470 C471 1.367 . S
C471 C470 1.367 . S
C471 C473 1.433 . S
C472 C468 1.350 . S
C472 C469 1.463 . S
C472 N476 1.427 . S
C473 H463 0.929 . S
C473 C471 1.433 . S
C473 N476 1.384 . S
C474 H465 0.929 . S
C474 C466 1.378 . S
C474 C469 1.350 . S
C475 H462 0.929 . S
C475 C467 1.433 . S
C475 N477 1.384 . S
N476 C472 1.427 . S
N476 C473 1.384 . S
N477 C469 1.427 . S
N477 C475 1.384 . S
H478 C484 0.930 . S
H479 C488 0.930 . S
H480 C493 0.929 . S
H481 C491 0.929 . S
H482 C486 0.929 . S
H483 C492 0.929 . S
C484 H478 0.930 . S
C484 C485 1.367 . S
C484 C492 1.378 . S
C485 C484 1.367 . S
C485 C493 1.433 . S
C486 H482 0.929 . S
C486 C488 1.378 . S
C486 C490 1.350 . S
C487 C490 1.463 . S
C487 C492 1.350 . S
C487 N495 1.427 . S
C488 H479 0.930 . S
C488 C486 1.378 . S
C488 C489 1.367 . S
C489 C488 1.367 . S
C489 C491 1.433 . S
C490 C486 1.350 . S
C490 C487 1.463 . S
C490 N494 1.427 . S
C491 H481 0.929 . S
C491 C489 1.433 . S
C491 N494 1.384 . S
C492 H483 0.929 . S
C492 C484 1.378 . S
C492 C487 1.350 . S
C493 H480 0.929 . S
C493 C485 1.433 . S
C493 N495 1.384 . S
N494 C490 1.427 . S
N494 C491 1.384 . S
N495 C487 1.427 . S
N495 C493 1.384 . S
H496 C502 0.930 . S
H497 C506 0.930 . S
H498 C511 0.920 1_554 S
H499 C509 0.920 1_556 S
H500 C504 0.929 . S
H501 C510 0.929 . S
C502 H496 0.930 . S
C502 C503 1.367 . S
C502 C510 1.378 . S
C503 C502 1.367 . S
C503 C511 1.449 . S
C504 H500 0.929 . S
C504 C506 1.378 . S
C504 C508 1.350 . S
C505 C508 1.463 1_566 S
C505 C510 1.350 . S
C505 N513 1.427 1_556 S
C506 H497 0.930 . S
C506 C504 1.378 . S
C506 C507 1.367 . S
C507 C506 1.367 . S
C507 C509 1.449 . S
C508 C504 1.350 . S
C508 C505 1.463 1_544 S
C508 N512 1.427 1_554 S
C509 H499 0.920 1_554 S
C509 C507 1.449 . S
C509 N512 1.377 1_554 S
C510 H501 0.929 . S
C510 C502 1.378 . S
C510 C505 1.350 . S
C511 H498 0.920 1_556 S
C511 C503 1.449 . S
C511 N513 1.377 1_556 S
N512 C508 1.427 1_556 S
N512 C509 1.377 1_556 S
N513 C505 1.427 1_554 S
N513 C511 1.377 1_554 S
H514 C520 0.930 . S
H515 C524 0.930 . S
H516 C529 0.929 1_556 S
H517 C527 0.929 1_554 S
H518 C522 0.929 . S
H519 C528 0.929 . S
C520 H514 0.930 . S
C520 C521 1.367 . S
C520 C528 1.378 . S
C521 C520 1.367 . S
C521 C529 1.433 . S
C522 H518 0.929 . S
C522 C524 1.378 . S
C522 C526 1.350 . S
C523 C526 1.463 1_554 S
C523 C528 1.350 . S
C523 N531 1.427 1_554 S
C524 H515 0.930 . S
C524 C522 1.378 . S
C524 C525 1.367 . S
C525 C524 1.367 . S
C525 C527 1.433 . S
C526 C522 1.350 . S
C526 C523 1.463 1_556 S
C526 N530 1.427 1_556 S
C527 H517 0.929 1_556 S
C527 C525 1.433 . S
C527 N530 1.384 1_556 S
C528 H519 0.929 . S
C528 C520 1.378 . S
C528 C523 1.350 . S
C529 H516 0.929 1_554 S
C529 C521 1.433 . S
C529 N531 1.384 1_554 S
N530 C526 1.427 1_554 S
N530 C527 1.384 1_554 S
N531 C523 1.427 1_556 S
N531 C529 1.384 1_556 S
H532 C538 0.930 1_554 S
H533 C542 0.930 1_556 S
H534 C547 0.929 . S
H535 C545 0.929 . S
H536 C540 0.929 . S
H537 C546 0.929 . S
C538 H532 0.930 1_556 S
C538 C539 1.367 1_655 S
C538 C546 1.378 1_556 S
C539 C538 1.367 1_455 S
C539 C547 1.433 . S
C540 H536 0.929 . S
C540 C542 1.378 1_556 S
C540 C544 1.350 1_456 S
C541 C544 1.463 1_456 S
C541 C546 1.350 1_456 S
C541 N549 1.427 . S
C542 H533 0.930 1_554 S
C542 C540 1.378 1_554 S
C542 C543 1.367 1_455 S
C543 C542 1.367 1_655 S
C543 C545 1.433 . S
C544 C540 1.350 1_654 S
C544 C541 1.463 1_654 S
C544 N548 1.427 . S
C545 H535 0.929 . S
C545 C543 1.433 . S
C545 N548 1.384 . S
C546 H537 0.929 . S
C546 C538 1.378 1_554 S
C546 C541 1.350 1_654 S
C547 H534 0.929 . S
C547 C539 1.433 . S
C547 N549 1.384 . S
N548 C544 1.427 . S
N548 C545 1.384 . S
N549 C541 1.427 . S
N549 C547 1.384 . S
H550 C556 0.930 . S
H551 C560 0.930 . S
H552 C565 0.929 . S
H553 C563 0.929 . S
H554 C558 0.929 . S
H555 C564 0.929 . S
C556 H550 0.930 . S
C556 C557 1.367 . S
C556 C564 1.378 . S
C557 C556 1.367 . S
C557 C565 1.433 1_565 S
C558 H554 0.929 . S
C558 C560 1.378 . S
C558 C562 1.350 . S
C559 C562 1.463 1_464 S
C559 C564 1.350 . S
C559 N567 1.427 1_565 S
C560 H551 0.930 . S
C560 C558 1.378 . S
C560 C561 1.367 . S
C561 C560 1.367 . S
C561 C563 1.433 1_545 S
C562 C558 1.350 . S
C562 C559 1.463 1_646 S
C562 N566 1.427 1_545 S
C563 H553 0.929 . S
C563 C561 1.433 1_565 S
C563 N566 1.384 . S
C564 H555 0.929 . S
C564 C556 1.378 . S
C564 C559 1.350 . S
C565 H552 0.929 . S
C565 C557 1.433 1_545 S
C565 N567 1.384 . S
N566 C562 1.427 1_565 S
N566 C563 1.384 . S
N567 C559 1.427 1_545 S
N567 C565 1.384 . S
H568 C574 0.930 . S
H569 C578 0.930 . S
H570 C583 0.929 . S
H571 C581 0.929 . S
H572 C576 0.929 . S
H573 C582 0.929 . S
C574 H568 0.930 . S
C574 C575 1.367 . S
C574 C582 1.378 . S
C575 C574 1.367 . S
C575 C583 1.433 . S
C576 H572 0.929 . S
C576 C578 1.378 . S
C576 C580 1.350 . S
C577 C580 1.463 . S
C577 C582 1.350 . S
C577 N585 1.427 . S
C578 H569 0.930 . S
C578 C576 1.378 . S
C578 C579 1.367 . S
C579 C578 1.367 . S
C579 C581 1.433 . S
C580 C576 1.350 . S
C580 C577 1.463 . S
C580 N584 1.427 . S
C581 H571 0.929 . S
C581 C579 1.433 . S
C581 N584 1.384 . S
C582 H573 0.929 . S
C582 C574 1.378 . S
C582 C577 1.350 . S
C583 H570 0.929 . S
C583 C575 1.433 . S
C583 N585 1.384 . S
N584 C580 1.427 . S
N584 C581 1.384 . S
N585 C577 1.427 . S
N585 C583 1.384 . S
H586 C592 0.930 . S
H587 C596 0.930 . S
H588 C601 0.929 . S
H589 C599 0.929 . S
H590 C594 0.929 . S
H591 C600 0.929 . S
C592 H586 0.930 . S
C592 C593 1.367 . S
C592 C600 1.378 . S
C593 C592 1.367 . S
C593 C601 1.433 . S
C594 H590 0.929 . S
C594 C596 1.378 . S
C594 C598 1.350 . S
C595 C598 1.463 1_455 S
C595 C600 1.350 . S
C595 N603 1.427 . S
C596 H587 0.930 . S
C596 C594 1.378 . S
C596 C597 1.367 . S
C597 C596 1.367 . S
C597 C599 1.433 . S
C598 C594 1.350 . S
C598 C595 1.463 1_655 S
C598 N602 1.427 . S
C599 H589 0.929 . S
C599 C597 1.433 . S
C599 N602 1.384 . S
C600 H591 0.929 . S
C600 C592 1.378 . S
C600 C595 1.350 . S
C601 H588 0.929 . S
C601 C593 1.433 . S
C601 N603 1.384 . S
N602 C598 1.427 . S
N602 C599 1.384 . S
N603 C595 1.427 . S
N603 C601 1.384 . S
H604 C610 0.930 . S
H605 C614 0.930 . S
H606 C619 0.929 . S
H607 C617 0.929 . S
H608 C612 0.929 . S
H609 C618 0.929 . S
C610 H604 0.930 . S
C610 C611 1.367 . S
C610 C618 1.378 . S
C611 C610 1.367 . S
C611 C619 1.433 1_455 S
C612 H608 0.929 . S
C612 C614 1.378 . S
C612 C616 1.350 . S
C613 C616 1.463 1_465 S
C613 C618 1.350 . S
C613 N621 1.427 1_455 S
C614 H605 0.930 . S
C614 C612 1.378 . S
C614 C615 1.367 . S
C615 C614 1.367 . S
C615 C617 1.433 1_655 S
C616 C612 1.350 . S
C616 C613 1.463 1_645 S
C616 N620 1.427 1_655 S
C617 H607 0.929 . S
C617 C615 1.433 1_455 S
C617 N620 1.384 . S
C618 H609 0.929 . S
C618 C610 1.378 . S
C618 C613 1.350 . S
C619 H606 0.929 . S
C619 C611 1.433 1_655 S
C619 N621 1.384 . S
N620 C616 1.427 1_455 S
N620 C617 1.384 . S
N621 C613 1.427 1_655 S
N621 C619 1.384 . S
H622 C628 0.930 . S
H623 C632 0.930 . S
H624 C637 0.929 . S
H625 C635 0.929 . S
H626 C630 0.929 . S
H627 C636 0.929 . S
C628 H622 0.930 . S
C628 C629 1.367 1_565 S
C628 C636 1.378 . S
C629 C628 1.367 1_545 S
C629 C637 1.433 . S
C630 H626 0.929 . S
C630 C632 1.378 . S
C630 C634 1.350 1_545 S
C631 C634 1.463 1_545 S
C631 C636 1.350 1_545 S
C631 N639 1.427 . S
C632 H623 0.930 . S
C632 C630 1.378 . S
C632 C633 1.367 1_545 S
C633 C632 1.367 1_565 S
C633 C635 1.433 . S
C634 C630 1.350 1_565 S
C634 C631 1.463 1_565 S
C634 N638 1.427 . S
C635 H625 0.929 . S
C635 C633 1.433 . S
C635 N638 1.384 . S
C636 H627 0.929 . S
C636 C628 1.378 . S
C636 C631 1.350 1_565 S
C637 H624 0.929 . S
C637 C629 1.433 . S
C637 N639 1.384 . S
N638 C634 1.427 . S
N638 C635 1.384 . S
N639 C631 1.427 . S
N639 C637 1.384 . S
H640 C646 0.930 . S
H641 C650 0.930 . S
H642 C655 0.929 . S
H643 C653 0.929 . S
H644 C648 0.929 . S
H645 C654 0.929 . S
C646 H640 0.930 . S
C646 C647 1.367 . S
C646 C654 1.378 . S
C647 C646 1.367 . S
C647 C655 1.433 . S
C648 H644 0.929 . S
C648 C650 1.378 . S
C648 C652 1.350 . S
C649 C652 1.463 . S
C649 C654 1.350 . S
C649 N657 1.427 . S
C650 H641 0.930 . S
C650 C648 1.378 . S
C650 C651 1.367 . S
C651 C650 1.367 . S
C651 C653 1.433 . S
C652 C648 1.350 . S
C652 C649 1.463 . S
C652 N656 1.427 . S
C653 H643 0.929 . S
C653 C651 1.433 . S
C653 N656 1.384 . S
C654 H645 0.929 . S
C654 C646 1.378 . S
C654 C649 1.350 . S
C655 H642 0.929 . S
C655 C647 1.433 . S
C655 N657 1.384 . S
N656 C652 1.427 . S
N656 C653 1.384 . S
N657 C649 1.427 . S
N657 C655 1.384 . S
H658 C664 0.930 . S
H659 C668 0.930 . S
H660 C673 0.929 . S
H661 C671 0.929 . S
H662 C666 0.929 . S
H663 C672 0.929 . S
C664 H658 0.930 . S
C664 C665 1.367 . S
C664 C672 1.378 . S
C665 C664 1.367 . S
C665 C673 1.433 . S
C666 H662 0.929 . S
C666 C668 1.378 . S
C666 C670 1.350 . S
C667 C670 1.463 . S
C667 C672 1.350 . S
C667 N675 1.427 . S
C668 H659 0.930 . S
C668 C666 1.378 . S
C668 C669 1.367 . S
C669 C668 1.367 . S
C669 C671 1.433 . S
C670 C666 1.350 . S
C670 C667 1.463 . S
C670 N674 1.427 . S
C671 H661 0.929 . S
C671 C669 1.433 . S
C671 N674 1.384 . S
C672 H663 0.929 . S
C672 C664 1.378 . S
C672 C667 1.350 . S
C673 H660 0.929 . S
C673 C665 1.433 . S
C673 N675 1.384 . S
N674 C670 1.427 . S
N674 C671 1.384 . S
N675 C667 1.427 . S
N675 C673 1.384 . S
H676 C682 0.930 . S
H677 C686 0.930 . S
H678 C691 0.929 . S
H679 C689 0.929 . S
H680 C684 0.929 . S
H681 C690 0.929 . S
C682 H676 0.930 . S
C682 C683 1.367 . S
C682 C690 1.378 . S
C683 C682 1.367 . S
C683 C691 1.433 . S
C684 H680 0.929 . S
C684 C686 1.378 . S
C684 C688 1.350 . S
C685 C688 1.463 . S
C685 C690 1.350 . S
C685 N693 1.427 . S
C686 H677 0.930 . S
C686 C684 1.378 . S
C686 C687 1.367 . S
C687 C686 1.367 . S
C687 C689 1.433 . S
C688 C684 1.350 . S
C688 C685 1.463 . S
C688 N692 1.427 . S
C689 H679 0.929 . S
C689 C687 1.433 . S
C689 N692 1.384 . S
C690 H681 0.929 . S
C690 C682 1.378 . S
C690 C685 1.350 . S
C691 H678 0.929 . S
C691 C683 1.433 . S
C691 N693 1.384 . S
N692 C688 1.427 . S
N692 C689 1.384 . S
N693 C685 1.427 . S
N693 C691 1.384 . S
H694 C700 0.930 . S
H695 C704 0.930 . S
H696 C709 0.929 . S
H697 C707 0.929 . S
H698 C702 0.929 . S
H699 C708 0.929 . S
C700 H694 0.930 . S
C700 C701 1.367 . S
C700 C708 1.378 . S
C701 C700 1.367 . S
C701 C709 1.433 . S
C702 H698 0.929 . S
C702 C704 1.378 . S
C702 C706 1.350 . S
C703 C706 1.463 . S
C703 C708 1.350 . S
C703 N711 1.427 . S
C704 H695 0.930 . S
C704 C702 1.378 . S
C704 C705 1.367 . S
C705 C704 1.367 . S
C705 C707 1.433 . S
C706 C702 1.350 . S
C706 C703 1.463 . S
C706 N710 1.427 . S
C707 H697 0.929 . S
C707 C705 1.433 . S
C707 N710 1.384 . S
C708 H699 0.929 . S
C708 C700 1.378 . S
C708 C703 1.350 . S
C709 H696 0.929 . S
C709 C701 1.433 . S
C709 N711 1.384 . S
N710 C706 1.427 . S
N710 C707 1.384 . S
N711 C703 1.427 . S
N711 C709 1.384 . S
H712 C718 0.930 . S
H713 C722 0.930 . S
H714 C727 0.929 . S
H715 C725 0.929 . S
H716 C720 0.929 . S
H717 C726 0.929 . S
C718 H712 0.930 . S
C718 C719 1.367 . S
C718 C726 1.378 . S
C719 C718 1.367 . S
C719 C727 1.433 . S
C720 H716 0.929 . S
C720 C722 1.378 . S
C720 C724 1.350 . S
C721 C724 1.463 . S
C721 C726 1.350 . S
C721 N729 1.427 . S
C722 H713 0.930 . S
C722 C720 1.378 . S
C722 C723 1.367 . S
C723 C722 1.367 . S
C723 C725 1.433 . S
C724 C720 1.350 . S
C724 C721 1.463 . S
C724 N728 1.427 . S
C725 H715 0.929 . S
C725 C723 1.433 . S
C725 N728 1.384 . S
C726 H717 0.929 . S
C726 C718 1.378 . S
C726 C721 1.350 . S
C727 H714 0.929 . S
C727 C719 1.433 . S
C727 N729 1.384 . S
N728 C724 1.427 . S
N728 C725 1.384 . S
N729 C721 1.427 . S
N729 C727 1.384 . S
H730 C736 0.930 . S
H731 C740 0.930 . S
H732 C745 0.929 . S
H733 C743 0.929 . S
H734 C738 0.929 . S
H735 C744 0.929 . S
C736 H730 0.930 . S
C736 C737 1.367 . S
C736 C744 1.378 . S
C737 C736 1.367 . S
C737 C745 1.433 . S
C738 H734 0.929 . S
C738 C740 1.378 . S
C738 C742 1.350 . S
C739 C742 1.463 . S
C739 C744 1.350 . S
C739 N747 1.427 . S
C740 H731 0.930 . S
C740 C738 1.378 . S
C740 C741 1.367 . S
C741 C740 1.367 . S
C741 C743 1.433 . S
C742 C738 1.350 . S
C742 C739 1.463 . S
C742 N746 1.427 . S
C743 H733 0.929 . S
C743 C741 1.433 . S
C743 N746 1.384 . S
C744 H735 0.929 . S
C744 C736 1.378 . S
C744 C739 1.350 . S
C745 H732 0.929 . S
C745 C737 1.433 . S
C745 N747 1.384 . S
N746 C742 1.427 . S
N746 C743 1.384 . S
N747 C739 1.427 . S
N747 C745 1.384 . S
H748 C754 0.930 . S
H749 C758 0.930 . S
H750 C763 0.929 . S
H751 C761 0.929 . S
H752 C756 0.929 . S
H753 C762 0.929 . S
C754 H748 0.930 . S
C754 C755 1.367 . S
C754 C762 1.378 . S
C755 C754 1.367 . S
C755 C763 1.433 . S
C756 H752 0.929 . S
C756 C758 1.378 . S
C756 C760 1.350 . S
C757 C760 1.463 . S
C757 C762 1.350 . S
C757 N765 1.427 . S
C758 H749 0.930 . S
C758 C756 1.378 . S
C758 C759 1.367 . S
C759 C758 1.367 . S
C759 C761 1.433 . S
C760 C756 1.350 . S
C760 C757 1.463 . S
C760 N764 1.427 . S
C761 H751 0.929 . S
C761 C759 1.433 . S
C761 N764 1.384 . S
C762 H753 0.929 . S
C762 C754 1.378 . S
C762 C757 1.350 . S
C763 H750 0.929 . S
C763 C755 1.433 . S
C763 N765 1.384 . S
N764 C760 1.427 . S
N764 C761 1.384 . S
N765 C757 1.427 . S
N765 C763 1.384 . S
H766 C772 0.930 . S
H767 C776 0.930 . S
H768 C781 0.929 . S
H769 C779 0.929 . S
H770 C774 0.929 . S
H771 C780 0.929 . S
C772 H766 0.930 . S
C772 C773 1.367 . S
C772 C780 1.378 . S
C773 C772 1.367 . S
C773 C781 1.433 . S
C774 H770 0.929 . S
C774 C776 1.378 . S
C774 C778 1.350 . S
C775 C778 1.463 . S
C775 C780 1.350 . S
C775 N783 1.427 . S
C776 H767 0.930 . S
C776 C774 1.378 . S
C776 C777 1.367 . S
C777 C776 1.367 . S
C777 C779 1.433 . S
C778 C774 1.350 . S
C778 C775 1.463 . S
C778 N782 1.427 . S
C779 H769 0.929 . S
C779 C777 1.433 . S
C779 N782 1.384 . S
C780 H771 0.929 . S
C780 C772 1.378 . S
C780 C775 1.350 . S
C781 H768 0.929 . S
C781 C773 1.433 . S
C781 N783 1.384 . S
N782 C778 1.427 . S
N782 C779 1.384 . S
N783 C775 1.427 . S
N783 C781 1.384 . S
C215 C5 0.679 . S
C219 C125 0.651 . S
C233 C138 0.655 . S
C237 C18 0.672 . S
C251 C151 0.653 . S
C255 C31 0.676 . S
C269 C112 0.666 . S
C273 C44 0.656 . S
C287 C57 0.658 . S
C291 C203 0.664 . S
C305 C164 0.654 . S
C309 C70 0.674 . S
C323 C177 0.656 . S
C327 C83 0.671 . S
C341 C190 0.639 . S
C345 C96 0.695 . S
C359 C109 0.686 . S
C363 C21 0.645 . S
C377 C122 0.694 . S
C381 C34 0.639 . S
C395 C135 0.691 . S
C399 C47 0.642 . S
C413 C8 0.664 . S
C417 C148 0.658 . S
C431 C161 0.666 . S
C435 C99 0.660 . S
C449 C174 0.679 . S
C453 C60 0.650 . S
C467 C73 0.643 . S
C471 C187 0.690 . S
C485 C200 0.690 . S
C489 C86 0.642 . S
C503 C104 1.523 . S
C507 C0 1.523 . S
C521 C13 1.529 . S
C525 C117 1.529 . S
C539 C130 1.534 . S
C543 C26 1.534 . S
C557 C39 1.523 . S
C561 C143 1.523 . S
C575 C156 1.523 . S
C579 C52 1.523 . S
C593 C65 1.535 . S
C597 C169 1.535 . S
C611 C182 1.522 . S
C615 C78 1.522 . S
C629 C195 1.534 . S
C633 C91 1.534 . S
C647 C62 1.648 . S
C651 C10 1.647 . S
C665 C75 1.636 . S
C669 C23 1.643 . S
C683 C36 1.649 . S
C687 C88 1.645 . S
C701 C101 1.649 . S
C705 C49 1.641 . S
C719 C114 1.647 . S
C723 C166 1.648 . S
C737 C179 1.637 . S
C741 C127 1.644 . S
C755 C192 1.649 . S
C759 C140 1.643 . S
C773 C205 1.637 . S
C777 C153 1.646 . S
