# Generated by pormake.
# Topology sxc, (6)-cn, num edge types: 1
# Building blocks:
#     Node 0, Type 0, BuildingBlock: PAMTUU_clean_sbu_0, # of connection points: 6
#     Node 1, Type 0, BuildingBlock: PAMTUU_clean_sbu_0, # of connection points: 6
#     Node 2, Type 0, BuildingBlock: PAMTUU_clean_sbu_0, # of connection points: 6
#     Edge 3, Type (0, 0), BuildingBlock: KIFKEQ_clean_linker_1, # of connection points: 2
#     Edge 4, Type (0, 0), BuildingBlock: KIFKEQ_clean_linker_1, # of connection points: 2
#     Edge 5, Type (0, 0), BuildingBlock: KIFKEQ_clean_linker_1, # of connection points: 2
#     Edge 6, Type (0, 0), BuildingBlock: KIFKEQ_clean_linker_1, # of connection points: 2
#     Edge 7, Type (0, 0), BuildingBlock: KIFKEQ_clean_linker_1, # of connection points: 2
#     Edge 8, Type (0, 0), BuildingBlock: KIFKEQ_clean_linker_1, # of connection points: 2
#     Edge 9, Type (0, 0), BuildingBlock: KIFKEQ_clean_linker_1, # of connection points: 2
#     Edge 10, Type (0, 0), BuildingBlock: KIFKEQ_clean_linker_1, # of connection points: 2
#     Edge 11, Type (0, 0), BuildingBlock: KIFKEQ_clean_linker_1, # of connection points: 2
# Relax obj value: 0.333
# Max RMSD: 0.127
# Mean RMSD: 0.098
data_MOF--net-sxc--node1-PAMTUU_clean_sbu_0--edge1-KIFKEQ_clean_linker_1
_symmetry_space_group_name_H-M    P1
_symmetry_Int_Tables_number       1
_symmetry_cell_setting            triclinic
loop_
_symmetry_equiv_pos_as_xyz
'x, y, z'
_cell_length_a     23.055617
_cell_length_b     15.834001
_cell_length_c     46.577225
_cell_angle_alpha  83.218168
_cell_angle_beta   98.382142
_cell_angle_gamma 132.58231
loop_
_atom_site_label
_atom_site_type_symbol
_atom_site_fract_x
_atom_site_fract_y
_atom_site_fract_z
_atom_type_partial_charge
Tb0 Tb 1.04204 1.08386 0.9706 0.0
Tb1 Tb 0.23064 0.26456 0.98141 0.0
C2 C 0.15064 0.18797 0.91838 0.0
C3 C 0.85962 0.99292 0.98301 0.0
C4 C 0.82461 1.0815 0.01943 0.0
C5 C 0.83334 1.11436 -0.0101 0.0
C6 C 0.85049 1.07036 0.97187 0.0
C7 C 0.84774 0.95681 0.01229 0.0
C8 C 0.83062 1.00066 0.03024 0.0
C9 C 0.89665 0.96907 0.96611 0.0
O10 O 1.06867 0.9788 0.96341 0.0
O11 O 0.19487 1.09457 -0.01395 0.0
O12 O 0.18556 0.25711 0.02035 0.0
O13 O 1.06817 1.07425 0.01732 0.0
O14 O 0.34467 0.42121 0.974 0.0
O15 O 0.32647 0.30468 0.0089 0.0
O16 O 0.20046 0.36992 0.96751 0.0
O17 O 1.07607 0.24393 0.98209 0.0
O18 O 1.08525 1.15071 0.9276 0.0
O19 O 0.21161 0.22037 0.93642 0.0
C20 C 0.13177 0.99554 0.97448 0.0
O21 O 0.94313 1.0494 0.94732 0.0
O22 O 0.92876 0.93227 0.98097 0.0
C23 C 0.12506 1.16439 0.03281 0.0
C24 C 0.40979 0.49674 0.02006 0.0
C25 C 0.47149 0.65437 0.06384 0.0
C26 C 0.51656 0.63266 0.05515 0.0
C27 C 0.48566 0.55384 0.03363 0.0
C28 C 0.36412 0.5164 0.0289 0.0
C29 C 0.39424 0.5934 0.05074 0.0
C30 C 0.37467 0.4095 -0.00152 0.0
C31 C 0.13798 0.34866 0.97421 0.0
H32 H 0.82806 0.17532 0.98083 0.0
H33 H 0.85982 1.1007 0.94946 0.0
H34 H 0.85431 0.89747 0.02169 0.0
H35 H 0.82115 0.96991 0.05262 0.0
H36 H 0.57711 0.67986 0.06405 0.0
H37 H 0.52131 0.53865 0.02734 0.0
H38 H 0.30509 0.4727 0.01875 0.0
H39 H 0.35754 0.60688 0.05687 0.0
Tb40 Tb 0.22327 0.28212 0.30935 0.0
Tb41 Tb 1.03213 1.0954 0.3063 0.0
C42 C 0.13582 0.18576 0.36461 0.0
C43 C 0.42493 0.39968 0.32634 0.0
C44 C 0.49949 0.31535 0.34482 0.0
C45 C 0.46244 0.32182 0.36464 0.0
C46 C 0.42487 0.36307 0.35543 0.0
C47 C 0.46761 0.40155 0.30727 0.0
C48 C 0.50401 0.35877 0.31636 0.0
C49 C 0.37189 0.41928 0.31451 0.0
O50 O 0.19388 1.1213 0.3033 0.0
O51 O 1.06377 0.99033 0.31346 0.0
O52 O 1.05964 1.09829 0.26329 0.0
O53 O 0.18136 0.28059 0.26407 0.0
O54 O 0.93252 0.95067 0.32626 0.0
O55 O 0.92012 1.02723 0.28708 0.0
O56 O 1.06156 0.2599 0.29774 0.0
O57 O 0.19381 0.38573 0.31366 0.0
O58 O 0.18847 0.19807 0.35206 0.0
O59 O 1.07911 0.17351 0.34864 0.0
C60 C 0.12869 1.01489 0.30835 0.0
O61 O 0.32855 0.36529 0.29074 0.0
O62 O 0.33085 0.41199 0.33283 0.0
C63 C 1.11954 0.18909 0.24976 0.0
C64 C 0.83659 0.96391 0.3232 0.0
C65 C 0.75078 1.00245 0.3467 0.0
C66 C 0.71626 0.92734 0.32353 0.0
C67 C 0.75898 0.90828 0.31187 0.0
C68 C 0.87014 1.03546 0.347 0.0
C69 C 0.82745 1.05398 0.35876 0.0
C70 C 0.88489 0.95527 0.30888 0.0
C71 C 0.12768 0.36382 0.30536 0.0
H72 H 0.45858 0.28882 0.3867 0.0
H73 H 0.39248 0.36057 0.37069 0.0
H74 H 0.46883 0.42977 0.28482 0.0
H75 H 0.53327 0.35564 0.30087 0.0
H76 H 0.65774 0.88764 0.31347 0.0
H77 H 0.73251 0.85346 0.29338 0.0
H78 H 0.9302 1.07966 0.35603 0.0
H79 H 0.85531 1.11112 0.37681 0.0
Tb80 Tb 0.15391 0.30004 0.63828 0.0
Tb81 Tb 0.16201 1.11012 0.64601 0.0
C82 C 0.15901 0.20723 0.58381 0.0
C83 C 1.08687 0.44617 0.64429 0.0
C84 C 0.94341 0.38471 0.6508 0.0
C85 C 0.99639 0.47703 0.63218 0.0
C86 C 1.06782 0.5072 0.62879 0.0
C87 C 1.03662 0.36017 0.66458 0.0
C88 C 0.96547 0.32969 0.6678 0.0
C89 C 0.14958 0.45538 0.63567 0.0
O90 O 1.02187 1.14477 0.63891 0.0
O91 O 1.02789 1.00546 0.64485 0.0
O92 O 0.19377 0.17745 0.68916 0.0
O93 O 0.12313 0.23039 0.68228 0.0
O94 O 0.13282 0.96722 0.62888 0.0
O95 O 0.18269 1.01564 0.67309 0.0
O96 O 0.29365 0.26484 0.64388 0.0
O97 O 0.28805 0.40458 0.63967 0.0
O98 O 0.13073 0.24519 0.59418 0.0
O99 O 0.1878 0.16976 0.60117 0.0
C100 C 0.98343 1.03307 0.64183 0.0
O101 O 0.18866 0.44498 0.65666 0.0
O102 O 0.12762 0.39232 0.61381 0.0
C103 C 0.15879 0.20409 0.6998 0.0
C104 C 0.23154 0.96198 0.64689 0.0
C105 C 0.37857 1.02828 0.64396 0.0
C106 C 0.33597 0.96668 0.6684 0.0
C107 C 0.26284 0.93347 0.66978 0.0
C108 C 0.27137 1.01628 0.62163 0.0
C109 C 0.34395 1.04837 0.62012 0.0
C110 C 0.1668 0.95485 0.65173 0.0
C111 C 0.33226 0.37671 0.64173 0.0
H112 H 0.98013 0.52018 0.6188 0.0
H113 H 1.10558 0.5729 0.61282 0.0
H114 H 1.04979 0.31126 0.67662 0.0
H115 H 0.92567 0.25887 0.68245 0.0
H116 H 0.36117 0.95035 0.6872 0.0
H117 H 0.23332 0.89249 0.68954 0.0
H118 H 0.24884 1.03989 0.60364 0.0
H119 H 0.37447 1.0932 0.60073 0.0
H120 H 1.01474 0.33267 0.98269 0.0
H121 H 0.25995 0.58269 0.96517 0.0
H122 H 1.01322 0.48526 0.98269 0.0
H123 H 0.25835 0.73574 0.96476 0.0
H124 H 0.25306 0.99963 -0.00657 0.0
H125 H 0.25458 0.84706 -0.00672 0.0
H126 H 1.01397 0.62124 0.95423 0.0
H127 H 1.01221 0.77368 0.95479 0.0
C128 C 1.06857 0.42025 0.9787 0.0
C129 C 0.13752 0.44406 0.97387 0.0
C130 C 1.0675 0.50847 0.97852 0.0
C131 C 0.13557 0.6247 0.97367 0.0
C132 C 0.20466 0.6484 0.96893 0.0
C133 C 0.20558 0.55994 0.96895 0.0
C134 C 0.20019 0.91751 0.98477 0.0
C135 C 0.1324 0.9004 0.97415 0.0
C136 C 0.2013 0.82945 0.98451 0.0
C137 C 0.13448 0.71998 0.97372 0.0
C138 C 1.06659 0.7029 0.96312 0.0
C139 C 1.06562 0.79124 0.96326 0.0
H140 H 0.45226 1.13262 0.31835 0.0
H141 H 0.60849 0.36096 0.38904 0.0
H142 H 0.50693 1.0426 0.3273 0.0
H143 H 0.6639 0.2705 0.39822 0.0
H144 H 0.81648 0.21673 0.35963 0.0
H145 H 0.74833 0.27848 0.36745 0.0
H146 H 0.52502 0.928 0.36198 0.0
H147 H 0.59359 0.86522 0.3545 0.0
C148 C 0.49779 1.1623 0.33606 0.0
C149 C 0.52743 0.25456 0.35273 0.0
C150 C 0.52837 1.10999 0.34144 0.0
C151 C 0.58974 1.14975 0.36344 0.0
C152 C 0.61684 0.23871 0.38105 0.0
C153 C 0.58535 0.29026 0.37586 0.0
C154 C 0.75317 1.15205 0.36106 0.0
C155 C 0.71029 1.03609 0.35615 0.0
C156 C 0.71413 0.1876 0.3656 0.0
C157 C 0.63139 1.10811 0.36514 0.0
C158 C 0.58887 0.99116 0.36211 0.0
C159 C 0.62801 0.9554 0.35769 0.0
H160 H 0.87336 0.78555 0.64588 0.0
H161 H 0.86628 1.0511 0.63785 0.0
H162 H 0.72887 0.63973 0.64581 0.0
H163 H 0.72187 0.90614 0.63776 0.0
H164 H 0.4425 0.62434 0.63857 0.0
H165 H 0.58699 0.77022 0.63862 0.0
H166 H 0.59359 0.50367 0.64468 0.0
H167 H 0.44922 0.35868 0.64466 0.0
C168 C 0.84215 0.81507 0.64406 0.0
C169 C 0.88775 0.93634 0.64184 0.0
C170 C 0.75605 0.72839 0.644 0.0
C171 C 0.70604 0.75347 0.64175 0.0
C172 C 0.75217 0.87531 0.63957 0.0
C173 C 0.83823 0.96188 0.6396 0.0
C174 C 0.47362 0.5948 0.63993 0.0
C175 C 0.42792 0.47347 0.64163 0.0
C176 C 0.55971 0.68151 0.63996 0.0
C177 C 0.60962 0.65641 0.64168 0.0
C178 C 0.56339 0.53452 0.64334 0.0
C179 C 0.47734 0.44792 0.64332 0.0
H180 H 0.8104 1.16443 0.64098 0.0
H181 H 0.89272 0.49432 0.65794 0.0
H182 H 0.67415 1.07914 0.6387 0.0
H183 H 0.75554 0.40818 0.65689 0.0
H184 H 0.50356 0.24124 0.62377 0.0
H185 H 0.63999 0.32829 0.62493 0.0
H186 H 0.57881 1.02376 0.66871 0.0
H187 H 0.44117 0.93363 0.66568 0.0
C188 C 0.79894 0.21819 0.64464 0.0
C189 C 0.86153 0.33545 0.64992 0.0
C190 C 0.72095 0.16935 0.64346 0.0
C191 C 0.7038 0.23647 0.64789 0.0
C192 C 0.76673 0.35432 0.65306 0.0
C193 C 0.84509 0.40364 0.65383 0.0
C194 C 0.51887 0.19184 0.63308 0.0
C195 C 0.46129 1.07981 0.6443 0.0
C196 C 0.59746 0.24268 0.63423 0.0
C197 C 0.62045 0.18315 0.64692 0.0
C198 C 0.56293 1.07144 0.65836 0.0
C199 C 0.48415 1.02012 0.65692 0.0
H200 H 0.71705 1.10536 0.00534 0.0
H201 H 0.87602 1.14583 0.0765 0.0
H202 H 0.63604 1.07822 0.03886 0.0
H203 H 0.79381 1.11799 0.11081 0.0
H204 H 0.58231 0.72999 0.11091 0.0
H205 H 0.68826 0.93065 0.12091 0.0
H206 H 0.5508 1.00371 0.07344 0.0
H207 H 0.44691 0.80387 0.06133 0.0
C208 C 0.73669 1.11335 0.02825 0.0
C209 C 0.79927 1.11852 0.03839 0.0
C210 C 0.68981 1.09775 0.04791 0.0
C211 C 0.70298 1.08156 0.07785 0.0
C212 C 0.77779 1.11926 0.08783 0.0
C213 C 0.82484 1.13461 0.06816 0.0
C214 C 0.57387 0.78847 0.10299 0.0
C215 C 0.51019 0.75306 0.08269 0.0
C216 C 0.63458 0.90465 0.10909 0.0
C217 C 0.63255 0.98535 0.09388 0.0
C218 C 0.55761 0.94441 0.08258 0.0
C219 C 0.49745 0.82872 0.07562 0.0
H220 H 0.25022 0.58736 0.32241 0.0
H221 H 1.00494 0.35842 0.28861 0.0
H222 H 0.25011 0.74057 0.32366 0.0
H223 H 1.00523 0.51276 0.28902 0.0
H224 H 1.00648 0.78181 0.31768 0.0
H225 H 1.0062 0.62764 0.31715 0.0
H226 H 0.2498 0.8753 0.29713 0.0
H227 H 0.25051 1.02935 0.29848 0.0
C228 C 0.19619 0.5695 0.31499 0.0
C229 C 0.12763 0.45927 0.30535 0.0
C230 C 0.19621 0.65838 0.31553 0.0
C231 C 0.12771 0.64102 0.3064 0.0
C232 C 1.05912 0.53058 0.29669 0.0
C233 C 1.05907 0.44152 0.29622 0.0
C234 C 1.06017 0.80376 0.31322 0.0
C235 C 0.12848 0.91927 0.30814 0.0
C236 C 1.0599 0.71454 0.31268 0.0
C237 C 0.12791 0.73709 0.30702 0.0
C238 C 0.19629 0.85295 0.30201 0.0
C239 C 0.19656 0.94209 0.30258 0.0
H240 H 0.24454 0.32802 0.21632 0.0
H241 H 0.99181 1.04357 0.21071 0.0
H242 H 0.24412 0.31868 0.16456 0.0
H243 H 0.99037 1.03738 0.15853 0.0
H244 H 1.02351 0.98281 0.06977 0.0
H245 H 1.02132 0.98797 0.12182 0.0
H246 H 0.21205 0.35681 0.11861 0.0
H247 H 0.21643 0.35048 0.06732 0.0
C248 C 0.18861 0.26452 0.20394 0.0
C249 C 1.11827 0.18682 0.21776 0.0
C250 C 0.18813 0.2593 0.17406 0.0
C251 C 1.11708 0.17742 0.15693 0.0
C252 C 1.04654 1.10041 0.17082 0.0
C253 C 1.04725 1.10459 0.20082 0.0
C254 C 1.06496 1.06474 0.08026 0.0
C255 C 1.12055 0.16586 0.06432 0.0
C256 C 1.06349 1.06813 0.11016 0.0
C257 C 1.11694 0.17288 0.12485 0.0
C258 C 0.17123 0.274 0.10856 0.0
C259 C 0.17333 0.27039 0.07889 0.0
H260 H 0.20305 1.12994 0.40634 0.0
H261 H 1.08192 0.25316 0.39531 0.0
H262 H 0.2073 1.13123 0.45891 0.0
H263 H 1.09142 0.26389 0.44749 0.0
H264 H 1.05182 0.18014 0.54211 0.0
H265 H 1.04519 0.17038 0.48999 0.0
H266 H 0.2592 0.22764 0.5009 0.0
H267 H 0.2612 0.2277 0.55335 0.0
C268 C 0.17828 1.15883 0.41522 0.0
C269 C 0.14164 0.19056 0.39667 0.0
C270 C 0.18121 1.16064 0.4455 0.0
C271 C 0.14944 0.19727 0.45809 0.0
C272 C 1.11455 0.23165 0.43918 0.0
C273 C 1.10969 0.22669 0.40902 0.0
C274 C 1.09734 0.19049 0.5333 0.0
C275 C 0.15706 0.20487 0.55186 0.0
C276 C 1.09414 0.18597 0.5032 0.0
C277 C 0.15208 0.19926 0.49056 0.0
C278 C 0.21235 0.21468 0.50938 0.0
C279 C 0.21411 0.21584 0.5396 0.0
H280 H 1.04687 1.1597 0.72968 0.0
H281 H 0.27068 0.24639 0.74204 0.0
H282 H 1.04451 1.15284 0.78192 0.0
H283 H 0.27254 0.24945 0.79428 0.0
H284 H 0.22863 1.15426 0.88947 0.0
H285 H 0.22929 1.15462 0.8372 0.0
H286 H 1.08781 0.24645 0.82341 0.0
H287 H 1.08237 0.23632 0.87547 0.0
C288 C 1.09628 0.17906 0.74366 0.0
C289 C 0.15881 0.20325 0.73173 0.0
C290 C 1.09554 0.17632 0.77382 0.0
C291 C 0.15862 0.20127 0.79299 0.0
C292 C 0.22175 0.22703 0.78074 0.0
C293 C 0.22123 0.22637 0.75061 0.0
C294 C 0.19773 0.17439 0.87513 0.0
C295 C 0.15517 0.1947 0.88658 0.0
C296 C 0.19843 0.17553 0.84499 0.0
C297 C 0.15839 0.20031 0.82541 0.0
C298 C 1.11757 0.22355 0.83723 0.0
C299 C 1.11501 0.21901 0.86729 0.0
loop_
_geom_bond_atom_site_label_1
_geom_bond_atom_site_label_2
_geom_bond_distance
_geom_bond_site_symmetry_2
_ccdc_geom_bond_type
Tb0 C9 2.764 . S
Tb0 O10 2.325 . S
Tb0 O13 2.303 1_666 S
Tb0 O17 2.322 1_565 S
Tb0 O18 2.349 1_565 S
Tb0 O21 2.415 1_556 S
Tb0 O22 2.399 . S
Tb1 O11 2.322 1_545 S
Tb1 O12 2.349 . S
Tb1 O14 2.415 1_554 S
Tb1 O15 2.399 . S
Tb1 O16 2.325 . S
Tb1 O19 2.303 1_554 S
Tb1 C30 2.764 . S
C2 O18 1.261 1_455 S
C2 O19 1.257 . S
C3 C6 1.377 . S
C3 C7 1.309 1_556 S
C3 C9 1.509 . S
C4 C5 1.373 1_554 S
C4 C8 1.308 . S
C5 C4 1.373 1_556 S
C5 C6 1.429 . S
C5 H32 0.932 . S
C6 C3 1.377 . S
C6 C5 1.429 . S
C6 H33 0.930 . S
C7 C3 1.309 1_554 S
C7 C8 1.394 . S
C7 H34 0.932 . S
C8 C4 1.308 . S
C8 C7 1.394 . S
C8 H35 0.929 . S
C9 Tb0 2.764 . S
C9 C3 1.509 . S
C9 O21 1.239 1_556 S
C9 O22 1.263 . S
O10 Tb0 2.325 . S
O10 C20 1.236 1_656 S
O11 Tb1 2.322 1_565 S
O11 C20 1.257 . S
O12 Tb1 2.349 . S
O12 C23 1.261 . S
O13 Tb0 2.303 1_444 S
O13 C23 1.257 . S
O14 Tb1 2.415 1_556 S
O14 C30 1.239 1_556 S
O15 Tb1 2.399 . S
O15 C30 1.263 . S
O16 Tb1 2.325 . S
O16 C31 1.236 . S
O17 Tb0 2.322 1_545 S
O17 C31 1.257 1_656 S
O18 Tb0 2.349 1_545 S
O18 C2 1.261 1_655 S
O19 Tb1 2.303 1_556 S
O19 C2 1.257 . S
C20 O10 1.236 1_454 S
C20 O11 1.257 . S
O21 Tb0 2.415 1_554 S
O21 C9 1.239 1_554 S
O22 Tb0 2.399 . S
O22 C9 1.263 . S
C23 O12 1.261 . S
C23 O13 1.257 . S
C24 C27 1.358 . S
C24 C28 1.332 1_554 S
C24 C30 1.504 . S
C25 C26 1.373 . S
C25 C29 1.308 1_554 S
C26 C25 1.373 . S
C26 C27 1.429 . S
C26 H36 0.932 . S
C27 C24 1.358 . S
C27 C26 1.429 . S
C27 H37 0.930 . S
C28 C24 1.332 1_556 S
C28 C29 1.394 . S
C28 H38 0.932 . S
C29 C25 1.308 1_556 S
C29 C28 1.394 . S
C29 H39 0.929 . S
C30 Tb1 2.764 . S
C30 O14 1.239 1_554 S
C30 O15 1.263 . S
C30 C24 1.504 . S
C31 O16 1.236 . S
C31 O17 1.257 1_454 S
H32 C5 0.932 . S
H33 C6 0.930 . S
H34 C7 0.932 . S
H35 C8 0.929 . S
H36 C26 0.932 . S
H37 C27 0.930 . S
H38 C28 0.932 . S
H39 C29 0.929 . S
Tb40 C49 2.764 . S
Tb40 O50 2.325 1_545 S
Tb40 O53 2.303 . S
Tb40 O57 2.322 . S
Tb40 O58 2.349 . S
Tb40 O61 2.415 . S
Tb40 O62 2.399 . S
Tb41 O51 2.322 . S
Tb41 O52 2.349 . S
Tb41 O54 2.415 . S
Tb41 O55 2.399 . S
Tb41 O56 2.325 1_565 S
Tb41 O59 2.303 . S
Tb41 C70 2.764 . S
C42 O58 1.261 . S
C42 O59 1.257 1_445 S
C43 C46 1.358 . S
C43 C47 1.332 1_545 S
C43 C49 1.504 . S
C44 C45 1.373 . S
C44 C48 1.308 1_545 S
C45 C44 1.373 . S
C45 C46 1.429 . S
C45 H72 0.932 . S
C46 C43 1.358 . S
C46 C45 1.429 . S
C46 H73 0.930 . S
C47 C43 1.332 1_565 S
C47 C48 1.394 . S
C47 H74 0.932 . S
C48 C44 1.308 1_565 S
C48 C47 1.394 . S
C48 H75 0.929 . S
C49 Tb40 2.764 . S
C49 C43 1.504 . S
C49 O61 1.239 . S
C49 O62 1.263 . S
O50 Tb40 2.325 1_565 S
O50 C60 1.236 1_455 S
O51 Tb41 2.322 . S
O51 C60 1.257 . S
O52 Tb41 2.349 . S
O52 C63 1.261 . S
O53 Tb40 2.303 . S
O53 C63 1.257 1_445 S
O54 Tb41 2.415 . S
O54 C70 1.239 . S
O55 Tb41 2.399 . S
O55 C70 1.263 . S
O56 Tb41 2.325 1_545 S
O56 C71 1.236 1_655 S
O57 Tb40 2.322 . S
O57 C71 1.257 . S
O58 Tb40 2.349 . S
O58 C42 1.261 . S
O59 Tb41 2.303 . S
O59 C42 1.257 1_665 S
C60 O50 1.236 1_655 S
C60 O51 1.257 . S
O61 Tb40 2.415 . S
O61 C49 1.239 . S
O62 Tb40 2.399 . S
O62 C49 1.263 . S
C63 O52 1.261 . S
C63 O53 1.257 1_665 S
C64 C67 1.358 . S
C64 C68 1.332 1_565 S
C64 C70 1.504 . S
C65 C66 1.373 . S
C65 C69 1.308 1_565 S
C66 C65 1.373 . S
C66 C67 1.429 . S
C66 H76 0.932 . S
C67 C64 1.358 . S
C67 C66 1.429 . S
C67 H77 0.930 . S
C68 C64 1.332 1_545 S
C68 C69 1.394 . S
C68 H78 0.932 . S
C69 C65 1.308 1_545 S
C69 C68 1.394 . S
C69 H79 0.929 . S
C70 Tb41 2.764 . S
C70 O54 1.239 . S
C70 O55 1.263 . S
C70 C64 1.504 . S
C71 O56 1.236 1_455 S
C71 O57 1.257 . S
H72 C45 0.932 . S
H73 C46 0.930 . S
H74 C47 0.932 . S
H75 C48 0.929 . S
H76 C66 0.932 . S
H77 C67 0.930 . S
H78 C68 0.932 . S
H79 C69 0.929 . S
Tb80 C89 2.764 . S
Tb80 O90 2.325 . S
Tb80 O93 2.303 1_655 S
Tb80 O97 2.322 1_655 S
Tb80 O98 2.349 . S
Tb80 O101 2.415 . S
Tb80 O102 2.399 . S
Tb81 O91 2.322 1_445 S
Tb81 O92 2.349 . S
Tb81 O94 2.415 . S
Tb81 O95 2.399 . S
Tb81 O96 2.325 . S
Tb81 O99 2.303 . S
Tb81 C110 2.764 . S
C82 O98 1.261 1_455 S
C82 O99 1.257 . S
C83 C86 1.358 . S
C83 C87 1.332 . S
C83 C89 1.504 . S
C84 C85 1.373 . S
C84 C88 1.308 . S
C85 C84 1.373 . S
C85 C86 1.429 . S
C85 H112 0.932 . S
C86 C83 1.358 . S
C86 C85 1.429 . S
C86 H113 0.930 . S
C87 C83 1.332 . S
C87 C88 1.394 . S
C87 H114 0.932 . S
C88 C84 1.308 . S
C88 C87 1.394 . S
C88 H115 0.929 . S
C89 Tb80 2.764 . S
C89 C83 1.504 . S
C89 O101 1.239 . S
C89 O102 1.263 . S
O90 Tb80 2.325 . S
O90 C100 1.236 1_545 S
O91 Tb81 2.322 1_665 S
O91 C100 1.257 . S
O92 Tb81 2.349 . S
O92 C103 1.261 . S
O93 Tb80 2.303 1_455 S
O93 C103 1.257 . S
O94 Tb81 2.415 . S
O94 C110 1.239 . S
O95 Tb81 2.399 . S
O95 C110 1.263 . S
O96 Tb81 2.325 . S
O96 C111 1.236 . S
O97 Tb80 2.322 1_455 S
O97 C111 1.257 . S
O98 Tb80 2.349 . S
O98 C82 1.261 1_655 S
O99 Tb81 2.303 . S
O99 C82 1.257 . S
C100 O90 1.236 1_565 S
C100 O91 1.257 . S
O101 Tb80 2.415 . S
O101 C89 1.239 . S
O102 Tb80 2.399 . S
O102 C89 1.263 . S
C103 O92 1.261 . S
C103 O93 1.257 . S
C104 C107 1.358 . S
C104 C108 1.332 . S
C104 C110 1.504 . S
C105 C106 1.373 1_545 S
C105 C109 1.308 . S
C106 C105 1.373 1_565 S
C106 C107 1.429 1_565 S
C106 H116 0.932 . S
C107 C104 1.358 . S
C107 C106 1.429 1_545 S
C107 H117 0.930 1_545 S
C108 C104 1.332 . S
C108 C109 1.394 . S
C108 H118 0.932 . S
C109 C105 1.308 . S
C109 C108 1.394 . S
C109 H119 0.929 . S
C110 Tb81 2.764 . S
C110 O94 1.239 . S
C110 O95 1.263 . S
C110 C104 1.504 . S
C111 O96 1.236 . S
C111 O97 1.257 . S
H112 C85 0.932 . S
H113 C86 0.930 . S
H114 C87 0.932 . S
H115 C88 0.929 . S
H116 C106 0.932 . S
H117 C107 0.930 1_565 S
H118 C108 0.932 . S
H119 C109 0.929 . S
H120 C128 0.950 . S
H121 C133 0.950 . S
H122 C130 0.950 . S
H123 C132 0.950 . S
H124 C134 0.950 . S
H125 C136 0.950 . S
H126 C138 0.951 1_655 S
H127 C139 0.950 1_655 S
C128 H120 0.950 . S
C128 C129 1.386 1_556 S
C128 C130 1.391 . S
C129 C128 1.386 1_554 S
C129 C133 1.393 . S
C130 H122 0.950 . S
C130 C128 1.391 . S
C130 C131 1.400 1_556 S
C131 C130 1.400 1_554 S
C131 C132 1.398 . S
C131 C137 1.491 . S
C132 H123 0.950 . S
C132 C131 1.398 . S
C132 C133 1.391 . S
C133 H121 0.950 . S
C133 C129 1.393 . S
C133 C132 1.391 . S
C134 H124 0.950 . S
C134 C135 1.386 . S
C134 C136 1.391 . S
C135 C134 1.386 . S
C135 C139 1.393 1_554 S
C136 H125 0.950 . S
C136 C134 1.391 . S
C136 C137 1.400 . S
C137 C131 1.491 . S
C137 C136 1.400 . S
C137 C138 1.398 1_554 S
C138 H126 0.951 1_455 S
C138 C137 1.398 1_556 S
C138 C139 1.391 . S
C139 H127 0.950 1_455 S
C139 C135 1.393 1_556 S
C139 C138 1.391 . S
H140 C148 0.950 . S
H141 C153 0.950 . S
H142 C150 0.950 . S
H143 C152 0.950 . S
H144 C154 0.950 . S
H145 C156 0.950 . S
H146 C158 0.950 . S
H147 C159 0.950 . S
C148 H140 0.950 . S
C148 C149 1.386 1_565 S
C148 C150 1.391 . S
C149 C148 1.386 1_545 S
C149 C153 1.393 . S
C150 H142 0.950 . S
C150 C148 1.391 . S
C150 C151 1.400 1_565 S
C151 C150 1.400 1_545 S
C151 C152 1.398 . S
C151 C157 1.491 1_545 S
C152 H143 0.950 . S
C152 C151 1.398 . S
C152 C153 1.391 . S
C153 H141 0.950 . S
C153 C149 1.393 . S
C153 C152 1.391 . S
C154 H144 0.950 . S
C154 C155 1.386 1_545 S
C154 C156 1.391 . S
C155 C154 1.386 1_565 S
C155 C159 1.393 . S
C156 H145 0.950 . S
C156 C154 1.391 . S
C156 C157 1.400 1_545 S
C157 C151 1.491 1_565 S
C157 C156 1.400 1_565 S
C157 C158 1.398 . S
C158 H146 0.950 . S
C158 C157 1.398 . S
C158 C159 1.391 . S
C159 H147 0.950 . S
C159 C155 1.393 . S
C159 C158 1.391 . S
H160 C168 0.950 . S
H161 C173 0.950 . S
H162 C170 0.950 . S
H163 C172 0.950 . S
H164 C174 0.950 . S
H165 C176 0.950 . S
H166 C178 0.950 . S
H167 C179 0.950 . S
C168 H160 0.950 . S
C168 C169 1.386 . S
C168 C170 1.391 . S
C169 C168 1.386 . S
C169 C173 1.393 . S
C170 H162 0.950 . S
C170 C168 1.391 . S
C170 C171 1.400 . S
C171 C170 1.400 . S
C171 C172 1.398 . S
C171 C177 1.491 . S
C172 H163 0.950 . S
C172 C171 1.398 . S
C172 C173 1.391 . S
C173 H161 0.950 . S
C173 C169 1.393 . S
C173 C172 1.391 . S
C174 H164 0.950 . S
C174 C175 1.386 . S
C174 C176 1.391 . S
C175 C174 1.386 . S
C175 C179 1.393 . S
C176 H165 0.950 . S
C176 C174 1.391 . S
C176 C177 1.400 . S
C177 C171 1.491 . S
C177 C176 1.400 . S
C177 C178 1.398 . S
C178 H166 0.950 . S
C178 C177 1.398 . S
C178 C179 1.391 . S
C179 H167 0.950 . S
C179 C175 1.393 . S
C179 C178 1.391 . S
H180 C188 0.950 . S
H181 C193 0.950 . S
H182 C190 0.950 . S
H183 C192 0.950 . S
H184 C194 0.950 . S
H185 C196 0.950 . S
H186 C198 0.950 . S
H187 C199 0.950 . S
C188 H180 0.950 . S
C188 C189 1.386 . S
C188 C190 1.391 . S
C189 C188 1.386 . S
C189 C193 1.393 . S
C190 H182 0.950 . S
C190 C188 1.391 . S
C190 C191 1.400 . S
C191 C190 1.400 . S
C191 C192 1.398 . S
C191 C197 1.491 . S
C192 H183 0.950 . S
C192 C191 1.398 . S
C192 C193 1.391 . S
C193 H181 0.950 . S
C193 C189 1.393 . S
C193 C192 1.391 . S
C194 H184 0.950 . S
C194 C195 1.386 . S
C194 C196 1.391 . S
C195 C194 1.386 . S
C195 C199 1.393 1_545 S
C196 H185 0.950 . S
C196 C194 1.391 . S
C196 C197 1.400 . S
C197 C191 1.491 . S
C197 C196 1.400 . S
C197 C198 1.398 . S
C198 H186 0.950 . S
C198 C197 1.398 . S
C198 C199 1.391 1_545 S
C199 H187 0.950 . S
C199 C195 1.393 1_565 S
C199 C198 1.391 1_565 S
H200 C208 0.950 . S
H201 C213 0.950 . S
H202 C210 0.950 . S
H203 C212 0.950 . S
H204 C214 0.950 . S
H205 C216 0.950 . S
H206 C218 0.950 . S
H207 C219 0.950 . S
C208 H200 0.950 . S
C208 C209 1.386 . S
C208 C210 1.391 . S
C209 C208 1.386 . S
C209 C213 1.393 1_556 S
C210 H202 0.950 . S
C210 C208 1.391 . S
C210 C211 1.400 1_556 S
C211 C210 1.400 1_554 S
C211 C212 1.398 . S
C211 C217 1.491 . S
C212 H203 0.950 . S
C212 C211 1.398 . S
C212 C213 1.391 . S
C213 H201 0.950 . S
C213 C209 1.393 1_554 S
C213 C212 1.391 . S
C214 H204 0.950 . S
C214 C215 1.386 . S
C214 C216 1.391 . S
C215 C214 1.386 . S
C215 C219 1.393 1_554 S
C216 H205 0.950 . S
C216 C214 1.391 . S
C216 C217 1.400 . S
C217 C211 1.491 . S
C217 C216 1.400 . S
C217 C218 1.398 1_554 S
C218 H206 0.950 . S
C218 C217 1.398 1_556 S
C218 C219 1.391 . S
C219 H207 0.950 . S
C219 C215 1.393 1_556 S
C219 C218 1.391 . S
H220 C228 0.950 . S
H221 C233 0.950 . S
H222 C230 0.950 . S
H223 C232 0.950 . S
H224 C234 0.950 . S
H225 C236 0.950 . S
H226 C238 0.950 . S
H227 C239 0.950 . S
C228 H220 0.950 . S
C228 C229 1.386 . S
C228 C230 1.391 . S
C229 C228 1.386 . S
C229 C233 1.393 1_455 S
C230 H222 0.950 . S
C230 C228 1.391 . S
C230 C231 1.400 . S
C231 C230 1.400 . S
C231 C232 1.398 1_455 S
C231 C237 1.491 . S
C232 H223 0.950 . S
C232 C231 1.398 1_655 S
C232 C233 1.391 . S
C233 H221 0.950 . S
C233 C229 1.393 1_655 S
C233 C232 1.391 . S
C234 H224 0.950 . S
C234 C235 1.386 1_655 S
C234 C236 1.391 . S
C235 C234 1.386 1_455 S
C235 C239 1.393 . S
C236 H225 0.950 . S
C236 C234 1.391 . S
C236 C237 1.400 1_655 S
C237 C231 1.491 . S
C237 C236 1.400 1_455 S
C237 C238 1.398 . S
C238 H226 0.950 . S
C238 C237 1.398 . S
C238 C239 1.391 . S
C239 H227 0.950 . S
C239 C235 1.393 . S
C239 C238 1.391 . S
H240 C248 0.950 . S
H241 C253 0.950 . S
H242 C250 0.950 . S
H243 C252 0.950 . S
H244 C254 0.950 . S
H245 C256 0.950 . S
H246 C258 0.950 . S
H247 C259 0.950 . S
C248 H240 0.950 . S
C248 C249 1.386 1_545 S
C248 C250 1.391 . S
C249 C248 1.386 1_565 S
C249 C253 1.393 1_455 S
C250 H242 0.950 . S
C250 C248 1.391 . S
C250 C251 1.400 . S
C251 C250 1.400 . S
C251 C252 1.398 1_445 S
C251 C257 1.491 . S
C252 H243 0.950 . S
C252 C251 1.398 1_665 S
C252 C253 1.391 . S
C253 H241 0.950 . S
C253 C249 1.393 1_655 S
C253 C252 1.391 . S
C254 H244 0.950 . S
C254 C255 1.386 1_665 S
C254 C256 1.391 . S
C255 C254 1.386 1_445 S
C255 C259 1.393 . S
C256 H245 0.950 . S
C256 C254 1.391 . S
C256 C257 1.400 1_665 S
C257 C251 1.491 . S
C257 C256 1.400 1_445 S
C257 C258 1.398 . S
C258 H246 0.950 . S
C258 C257 1.398 . S
C258 C259 1.391 . S
C259 H247 0.950 . S
C259 C255 1.393 . S
C259 C258 1.391 . S
H260 C268 0.950 . S
H261 C273 0.950 . S
H262 C270 0.950 . S
H263 C272 0.950 . S
H264 C274 0.950 1_565 S
H265 C276 0.950 . S
H266 C278 0.950 . S
H267 C279 0.950 . S
C268 H260 0.950 . S
C268 C269 1.386 . S
C268 C270 1.391 . S
C269 C268 1.386 . S
C269 C273 1.393 1_445 S
C270 H262 0.950 . S
C270 C268 1.391 . S
C270 C271 1.400 . S
C271 C270 1.400 . S
C271 C272 1.398 1_445 S
C271 C277 1.491 . S
C272 H263 0.950 . S
C272 C271 1.398 1_665 S
C272 C273 1.391 . S
C273 H261 0.950 . S
C273 C269 1.393 1_665 S
C273 C272 1.391 . S
C274 H264 0.950 1_545 S
C274 C275 1.386 1_655 S
C274 C276 1.391 1_545 S
C275 C274 1.386 1_455 S
C275 C279 1.393 . S
C276 H265 0.950 . S
C276 C274 1.391 1_565 S
C276 C277 1.400 1_665 S
C277 C271 1.491 . S
C277 C276 1.400 1_445 S
C277 C278 1.398 . S
C278 H266 0.950 . S
C278 C277 1.398 . S
C278 C279 1.391 . S
C279 H267 0.950 . S
C279 C275 1.393 . S
C279 C278 1.391 . S
H280 C288 0.950 . S
H281 C293 0.950 . S
H282 C290 0.950 . S
H283 C292 0.950 . S
H284 C294 0.950 . S
H285 C296 0.950 . S
H286 C298 0.950 . S
H287 C299 0.950 . S
C288 H280 0.950 . S
C288 C289 1.386 1_655 S
C288 C290 1.391 . S
C289 C288 1.386 1_455 S
C289 C293 1.393 . S
C290 H282 0.950 . S
C290 C288 1.391 . S
C290 C291 1.400 1_655 S
C291 C290 1.400 1_455 S
C291 C292 1.398 . S
C291 C297 1.491 . S
C292 H283 0.950 . S
C292 C291 1.398 . S
C292 C293 1.391 . S
C293 H281 0.950 . S
C293 C289 1.393 . S
C293 C292 1.391 . S
C294 H284 0.950 . S
C294 C295 1.386 . S
C294 C296 1.391 . S
C295 C294 1.386 . S
C295 C299 1.393 1_455 S
C296 H285 0.950 . S
C296 C294 1.391 . S
C296 C297 1.400 . S
C297 C291 1.491 . S
C297 C296 1.400 . S
C297 C298 1.398 1_455 S
C298 H286 0.950 . S
C298 C297 1.398 1_655 S
C298 C299 1.391 . S
C299 H287 0.950 . S
C299 C295 1.393 1_655 S
C299 C298 1.391 . S
C129 C31 2.904 . S
C135 C20 2.904 . S
C149 C44 0.435 . S
C155 C65 0.435 . S
C169 C100 4.835 . S
C175 C111 4.835 . S
C189 C84 0.778 . S
C195 C105 0.778 . S
C209 C4 1.045 1_556 S
C215 C25 1.045 . S
C229 C71 2.866 . S
C235 C60 2.866 1_455 S
C249 C63 1.497 1_455 S
C255 C23 1.493 . S
C269 C42 1.494 . S
C275 C82 1.507 . S
C289 C103 1.455 . S
C295 C2 1.483 . S
