# Generated by pormake.
# Topology unf, (4)-cn, num edge types: 1
# Building blocks:
#     Node 0, Type 0, BuildingBlock: NAHDIM_clean_sbu_0, # of connection points: 4
#     Node 1, Type 0, BuildingBlock: NAHDIM_clean_sbu_0, # of connection points: 4
#     Node 2, Type 0, BuildingBlock: NAHDIM_clean_sbu_0, # of connection points: 4
#     Node 3, Type 0, BuildingBlock: NAHDIM_clean_sbu_0, # of connection points: 4
#     Node 4, Type 0, BuildingBlock: NAHDIM_clean_sbu_0, # of connection points: 4
#     Node 5, Type 0, BuildingBlock: NAHDIM_clean_sbu_0, # of connection points: 4
#     Node 6, Type 0, BuildingBlock: NAHDIM_clean_sbu_0, # of connection points: 4
#     Node 7, Type 0, BuildingBlock: NAHDIM_clean_sbu_0, # of connection points: 4
#     Node 8, Type 0, BuildingBlock: NAHDIM_clean_sbu_0, # of connection points: 4
#     Node 9, Type 0, BuildingBlock: NAHDIM_clean_sbu_0, # of connection points: 4
#     Node 10, Type 0, BuildingBlock: NAHDIM_clean_sbu_0, # of connection points: 4
#     Node 11, Type 0, BuildingBlock: NAHDIM_clean_sbu_0, # of connection points: 4
#     Edge 12, Type (0, 0), BuildingBlock: UVAHIK_clean_linker_0, # of connection points: 2
#     Edge 13, Type (0, 0), BuildingBlock: UVAHIK_clean_linker_0, # of connection points: 2
#     Edge 14, Type (0, 0), BuildingBlock: UVAHIK_clean_linker_0, # of connection points: 2
#     Edge 15, Type (0, 0), BuildingBlock: UVAHIK_clean_linker_0, # of connection points: 2
#     Edge 16, Type (0, 0), BuildingBlock: UVAHIK_clean_linker_0, # of connection points: 2
#     Edge 17, Type (0, 0), BuildingBlock: UVAHIK_clean_linker_0, # of connection points: 2
#     Edge 18, Type (0, 0), BuildingBlock: UVAHIK_clean_linker_0, # of connection points: 2
#     Edge 19, Type (0, 0), BuildingBlock: UVAHIK_clean_linker_0, # of connection points: 2
#     Edge 20, Type (0, 0), BuildingBlock: UVAHIK_clean_linker_0, # of connection points: 2
#     Edge 21, Type (0, 0), BuildingBlock: UVAHIK_clean_linker_0, # of connection points: 2
#     Edge 22, Type (0, 0), BuildingBlock: UVAHIK_clean_linker_0, # of connection points: 2
#     Edge 23, Type (0, 0), BuildingBlock: UVAHIK_clean_linker_0, # of connection points: 2
#     Edge 24, Type (0, 0), BuildingBlock: UVAHIK_clean_linker_0, # of connection points: 2
#     Edge 25, Type (0, 0), BuildingBlock: UVAHIK_clean_linker_0, # of connection points: 2
#     Edge 26, Type (0, 0), BuildingBlock: UVAHIK_clean_linker_0, # of connection points: 2
#     Edge 27, Type (0, 0), BuildingBlock: UVAHIK_clean_linker_0, # of connection points: 2
#     Edge 28, Type (0, 0), BuildingBlock: UVAHIK_clean_linker_0, # of connection points: 2
#     Edge 29, Type (0, 0), BuildingBlock: UVAHIK_clean_linker_0, # of connection points: 2
#     Edge 30, Type (0, 0), BuildingBlock: UVAHIK_clean_linker_0, # of connection points: 2
#     Edge 31, Type (0, 0), BuildingBlock: UVAHIK_clean_linker_0, # of connection points: 2
#     Edge 32, Type (0, 0), BuildingBlock: UVAHIK_clean_linker_0, # of connection points: 2
#     Edge 33, Type (0, 0), BuildingBlock: UVAHIK_clean_linker_0, # of connection points: 2
#     Edge 34, Type (0, 0), BuildingBlock: UVAHIK_clean_linker_0, # of connection points: 2
#     Edge 35, Type (0, 0), BuildingBlock: UVAHIK_clean_linker_0, # of connection points: 2
# Relax obj value: 0.238
# Max RMSD: 0.179
# Mean RMSD: 0.179
data_MOF--net-unf--node1-NAHDIM_clean_sbu_0--edge1-UVAHIK_clean_linker_0
_symmetry_space_group_name_H-M    P1
_symmetry_Int_Tables_number       1
_symmetry_cell_setting            triclinic
loop_
_symmetry_equiv_pos_as_xyz
'x, y, z'
_cell_length_a     47.940763
_cell_length_b     47.923754
_cell_length_c     48.42807
_cell_angle_alpha  89.985252
_cell_angle_beta   89.987987
_cell_angle_gamma 120.0472
loop_
_atom_site_label
_atom_site_type_symbol
_atom_site_fract_x
_atom_site_fract_y
_atom_site_fract_z
_atom_type_partial_charge
C0 C 0.07217 0.36399 0.14765 0.0
O1 O 0.06841 0.38828 0.14025 0.0
O2 O 0.01897 0.36412 0.09299 0.0
Zn3 Zn 0.0295 0.32936 0.10117 0.0
O4 O 0.05492 0.32838 0.06862 0.0
C5 C 0.96245 0.28298 0.11309 0.0
O6 O 0.96225 0.30753 0.12495 0.0
O7 O 0.05696 0.33737 0.13483 0.0
C8 C 0.04239 0.3102 0.04778 0.0
O9 O 0.01125 0.28969 0.04741 0.0
C10 C 0.03993 0.38911 0.0803 0.0
O11 O 0.06874 0.39293 0.07622 0.0
O12 O 0.9886 0.28676 0.10303 0.0
C13 C 0.61553 0.68961 0.15184 0.0
O14 O 0.59168 0.6761 0.13409 0.0
O15 O 0.61238 0.63516 0.09547 0.0
Zn16 Zn 0.64885 0.67773 0.10863 0.0
O17 O 0.65252 0.71185 0.08255 0.0
C18 C 0.69066 0.65064 0.10891 0.0
O19 O 0.66397 0.62394 0.11515 0.0
O20 O 0.64198 0.69076 0.14623 0.0
C21 C 0.66826 0.71927 0.06004 0.0
O22 O 0.68418 0.70464 0.05304 0.0
C23 C 0.59042 0.63426 0.08013 0.0
O24 O 0.59018 0.66107 0.07507 0.0
O25 O 0.69005 0.67672 0.10656 0.0
C26 C 0.30254 0.92837 0.14901 0.0
O27 O 0.31469 0.91721 0.13067 0.0
O28 O 0.35882 0.98057 0.09424 0.0
Zn29 Zn 0.31599 0.97473 0.10638 0.0
O30 O 0.28207 0.94531 0.07936 0.0
C31 C 0.33516 0.03656 0.08565 0.0
O32 O 0.35068 0.02737 0.06899 0.0
O33 O 0.30273 0.95449 0.14396 0.0
C34 C 0.25319 0.92712 0.08722 0.0
O35 O 0.24535 0.9286 0.11295 0.0
C36 C 0.36015 0.9607 0.07767 0.0
O37 O 0.33342 0.93429 0.07096 0.0
O38 O 0.31795 0.01765 0.10482 0.0
C39 C 0.6259 0.92266 0.34298 0.0
O40 O 0.59961 0.91877 0.35497 0.0
O41 O 0.62231 0.97269 0.39901 0.0
Zn42 Zn 0.65809 0.96384 0.38997 0.0
O43 O 0.65748 0.9339 0.41915 0.0
C44 C 0.70257 0.03219 0.38755 0.0
O45 O 0.67732 0.03296 0.37799 0.0
O46 O 0.65316 0.94208 0.35345 0.0
C47 C 0.66972 0.94348 0.44295 0.0
O48 O 0.6846 0.97442 0.44871 0.0
C49 C 0.59753 0.9516 0.41184 0.0
O50 O 0.59421 0.92306 0.41636 0.0
O51 O 0.70026 0.00512 0.39272 0.0
C52 C 0.0713 0.712 0.34539 0.0
O53 O 0.07458 0.68944 0.3578 0.0
O54 O 0.02056 0.65991 0.40227 0.0
Zn55 Zn 0.02801 0.70356 0.39103 0.0
O56 O 0.05458 0.73505 0.42049 0.0
C57 C 0.95914 0.67687 0.38599 0.0
O58 O 0.95936 0.65047 0.37909 0.0
O59 O 0.05179 0.7201 0.35519 0.0
C60 C 0.04683 0.72944 0.44582 0.0
O61 O 0.02081 0.70248 0.45284 0.0
C62 C 0.04175 0.65719 0.41587 0.0
O63 O 0.07007 0.6829 0.42001 0.0
O64 O 0.9857 0.7025 0.39058 0.0
C65 C 0.29883 0.37822 0.34607 0.0
O66 O 0.30576 0.3972 0.36762 0.0
O67 O 0.34907 0.37349 0.40395 0.0
Zn68 Zn 0.30846 0.33952 0.38548 0.0
O69 O 0.27082 0.33122 0.40912 0.0
C70 C 0.33536 0.29749 0.38473 0.0
O71 O 0.3628 0.32484 0.38608 0.0
O72 O 0.30056 0.3527 0.34825 0.0
C73 C 0.26777 0.3219 0.43406 0.0
O74 O 0.28995 0.31698 0.44516 0.0
C75 C 0.34879 0.3935 0.42103 0.0
O76 O 0.3219 0.39388 0.42513 0.0
O77 O 0.3092 0.29806 0.38319 0.0
C78 C 0.91959 0.60992 0.84424 0.0
O79 O 0.91038 0.5821 0.85632 0.0
O80 O 0.96292 0.59406 0.89853 0.0
Zn81 Zn 0.95743 0.63268 0.89318 0.0
O82 O 0.92513 0.62991 0.92108 0.0
C83 C 0.00741 0.66995 0.92808 0.0
O84 O 0.98864 0.6439 0.94247 0.0
O85 O 0.9414 0.63553 0.85554 0.0
C86 C 0.9254 0.65507 0.92966 0.0
O87 O 0.94624 0.6832 0.91912 0.0
C88 C 0.94129 0.56911 0.91081 0.0
O89 O 0.91352 0.56705 0.91644 0.0
O90 O -0.0004 0.67175 0.90333 0.0
C91 C 0.36317 0.27883 0.85416 0.0
O92 O 0.3715 0.27428 0.87885 0.0
O93 O 0.37526 0.3557 0.89699 0.0
Zn94 Zn 0.33915 0.3118 0.88646 0.0
O95 O 0.33484 0.28245 0.91773 0.0
C96 C 0.2961 0.33749 0.88702 0.0
O97 O 0.32306 0.36491 0.89048 0.0
O98 O 0.34917 0.29531 0.85171 0.0
C99 C 0.32022 0.27964 0.94034 0.0
O100 O 0.30486 0.29563 0.944 0.0
C101 C 0.39936 0.35798 0.90994 0.0
O102 O 0.40141 0.33194 0.91381 0.0
O103 O 0.29728 0.31182 0.88349 0.0
C104 C 0.73916 0.07378 0.86038 0.0
O105 O 0.75459 0.06805 0.87999 0.0
O106 O 0.64371 0.0344 0.90162 0.0
Zn107 Zn 0.68696 0.03781 0.89705 0.0
O108 O 0.71476 0.06172 0.92963 0.0
C109 C 0.65853 0.9722 0.91225 0.0
O110 O 0.63753 0.97927 0.92267 0.0
O111 O 0.70891 0.06206 0.86256 0.0
C112 C 0.70381 0.05922 0.95398 0.0
O113 O 0.67278 0.04088 0.95857 0.0
C114 C 0.64056 0.05752 0.91073 0.0
O115 O 0.6664 0.08585 0.91443 0.0
O116 O 0.68206 0.99352 0.89832 0.0
C117 C 0.36727 0.09583 0.62156 0.0
O118 O 0.36919 0.10689 0.59641 0.0
O119 O 0.38339 0.02647 0.58409 0.0
Zn120 Zn 0.34882 0.03715 0.59202 0.0
O121 O 0.34581 0.05963 0.55803 0.0
C122 C 0.30281 0.96884 0.59805 0.0
O123 O 0.32862 0.96592 0.59752 0.0
O124 O 0.35959 0.06651 0.62497 0.0
C125 C 0.32433 0.04683 0.53946 0.0
O126 O 0.30137 0.01664 0.54203 0.0
C127 C 0.40926 0.04813 0.57301 0.0
O128 O 0.41346 0.07723 0.56987 0.0
O129 O 0.30603 -0.00319 0.59725 0.0
C130 C 0.9109 0.29754 0.64156 0.0
O131 O 0.89388 0.2999 0.62138 0.0
O132 O 0.96639 0.37206 0.59426 0.0
Zn133 Zn 0.95962 0.32768 0.60098 0.0
O134 O 0.92953 0.29812 0.5718 0.0
C135 C 0.01255 0.33829 0.57036 0.0
O136 O -0.00305 0.34742 0.55372 0.0
O137 O 0.94103 0.30934 0.63822 0.0
C138 C 0.92904 0.27201 0.56611 0.0
O139 O 0.94748 0.26412 0.58022 0.0
C140 C 0.94484 0.37538 0.5819 0.0
O141 O 0.91686 0.34968 0.57669 0.0
O142 O 0.00165 0.32906 0.5946 0.0
C143 C 0.69853 0.61458 0.6471 0.0
O144 O 0.67894 0.58774 0.6341 0.0
O145 O 0.63228 0.60238 0.60143 0.0
Zn146 Zn 0.67622 0.64188 0.60574 0.0
O147 O 0.70214 0.64428 0.57233 0.0
C148 C 0.65218 0.68089 0.58691 0.0
O149 O 0.63656 0.65522 0.57126 0.0
O150 O 0.70026 0.64075 0.63938 0.0
C151 C 0.72396 0.67066 0.56212 0.0
O152 O 0.73066 0.69798 0.57398 0.0
C153 C 0.62922 0.57911 0.58661 0.0
O154 O 0.6552 0.57966 0.57724 0.0
O155 O 0.67132 0.68114 0.60519 0.0
C156 C 0.09367 0.33982 0.02118 0.0
C157 C 0.06286 0.3126 0.0241 0.0
C158 C 0.11355 0.34197 -0.00071 0.0
C159 C 0.13124 0.29205 0.95544 0.0
H160 H 0.1834 0.37146 0.91496 0.0
C161 C 0.23575 0.30649 0.88793 0.0
C162 C 0.26477 0.33556 0.892 0.0
C163 C 0.20654 0.30323 0.89686 0.0
C164 C 0.16908 0.34911 0.92611 0.0
H165 H 0.02843 0.26657 0.00613 0.0
H166 H 0.06374 0.27005 0.96808 0.0
H167 H 0.14033 0.36651 0.94511 0.0
H168 H 0.28567 0.38465 0.907 0.0
H169 H 0.23516 0.37875 0.92325 0.0
H170 H 0.16103 0.27523 0.93805 0.0
C171 C 0.07224 0.28975 0.98269 0.0
C172 C 0.14436 0.34628 0.94326 0.0
C173 C 0.0521 0.2878 0.00441 0.0
C174 C 0.26375 0.36189 0.90358 0.0
C175 C 0.23464 0.35854 0.91276 0.0
C176 C 0.15619 0.295 0.93857 0.0
C177 C 0.10321 0.31681 0.98004 0.0
C178 C 0.12581 0.31804 0.95863 0.0
C179 C 0.20579 0.32887 0.91028 0.0
C180 C 0.17603 0.32392 0.9243 0.0
H181 H 0.10255 0.35943 0.03591 0.0
H182 H 0.13747 0.36291 -0.00207 0.0
H183 H 0.11746 0.27011 0.96727 0.0
H184 H 0.23571 0.28585 0.87877 0.0
H185 H 0.18469 0.28025 0.89406 0.0
C186 C 0.64655 0.75515 0.04737 0.0
C187 C 0.66799 0.74391 0.04189 0.0
C188 C 0.6463 0.77873 0.03076 0.0
C189 C 0.67124 0.81898 0.96278 0.0
H190 H 0.6587 0.88348 8e-05 0.0
C191 C 0.68244 0.93599 0.91344 0.0
C192 C 0.65756 0.94209 0.92071 0.0
C193 C 0.68384 0.91004 0.92525 0.0
C194 C 0.66203 0.8655 0.98938 0.0
H195 H 0.7057 0.74825 0.01442 0.0
H196 H 0.70576 0.79023 0.98561 0.0
H197 H 0.66243 0.84274 0.02709 0.0
H198 H 0.61347 0.92444 0.94448 0.0
H199 H 0.61617 0.87959 0.96508 0.0
H200 H 0.67137 0.8426 0.925 0.0
C201 C 0.68884 0.78039 0.00258 0.0
C202 C 0.66407 0.84209 0.00481 0.0
C203 C 0.68893 0.75649 0.01916 0.0
C204 C 0.63315 0.92066 0.93864 0.0
C205 C 0.6347 0.89502 0.95053 0.0
C206 C 0.66953 0.84276 0.94728 0.0
C207 C 0.66771 0.79198 0.0084 0.0
C208 C 0.66802 0.81813 0.99171 0.0
C209 C 0.66054 0.89006 0.94461 0.0
C210 C 0.66425 0.86579 0.96049 0.0
H211 H 0.62979 0.74566 0.06449 0.0
H212 H 0.62915 0.78651 0.03543 0.0
H213 H 0.67417 0.80077 0.95207 0.0
H214 H 0.70154 0.95201 0.8996 0.0
H215 H 0.70398 0.90662 0.92037 0.0
C216 C 0.23496 0.90489 0.03963 0.0
C217 C 0.22933 0.90278 0.06826 0.0
C218 C 0.21296 0.88085 0.02196 0.0
C219 C 0.15381 0.79569 0.02104 0.0
H220 H 0.1146 0.81382 0.95869 0.0
C221 C 0.04016 0.69621 0.96996 0.0
C222 C 0.03575 0.69704 0.94138 0.0
C223 C 0.06612 0.72184 0.98318 0.0
C224 C 0.12578 0.80837 0.97567 0.0
H225 H 0.19622 0.87406 0.10081 0.0
H226 H 0.15823 0.83185 0.06998 0.0
H227 H 0.15583 0.85837 0.986 0.0
H228 H 0.05534 0.72532 0.90411 0.0
H229 H 0.10146 0.77007 0.92721 0.0
H230 H 0.1244 0.74594 0.01084 0.0
C231 C 0.17955 0.85217 0.06127 0.0
C232 C 0.14924 0.83387 0.99134 0.0
C233 C 0.20119 0.87641 0.07885 0.0
C234 C 0.05811 0.72404 0.92619 0.0
C235 C 0.0844 0.74972 0.93945 0.0
C236 C 0.1308 0.7703 0.00521 0.0
C237 C 0.18536 0.85407 0.03273 0.0
C238 C 0.16282 0.82762 0.01453 0.0
C239 C 0.08865 0.74889 0.96814 0.0
C240 C 0.11584 0.77624 0.98279 0.0
H241 H 0.25643 0.92501 0.0309 0.0
H242 H 0.21791 0.88274 -0.0 0.0
H243 H 0.16442 0.79036 0.03856 0.0
H244 H 0.02322 0.67593 0.98236 0.0
H245 H 0.06809 0.72064 0.00537 0.0
C246 C 0.67108 0.73964 0.59371 0.0
C247 C 0.64993 0.70997 0.58115 0.0
C248 C 0.67114 0.76772 0.58566 0.0
C249 C 0.62448 0.79717 0.54592 0.0
H250 H 0.70872 0.86906 0.52744 0.0
C251 C 0.6444 0.8868 0.45986 0.0
C252 C 0.66625 0.91972 0.46407 0.0
C253 C 0.64102 0.86409 0.47954 0.0
C254 C 0.68506 0.84947 0.53298 0.0
H255 H 0.61119 0.68618 0.55139 0.0
H256 H 0.61154 0.73489 0.53722 0.0
H257 H 0.70467 0.82356 0.55341 0.0
H258 H 0.70151 0.95472 0.49233 0.0
H259 H 0.69594 0.91467 0.52666 0.0
H260 H 0.60494 0.82243 0.52423 0.0
C261 C 0.62789 0.73661 0.55344 0.0
C262 C 0.68271 0.82342 0.54791 0.0
C263 C 0.62788 0.70867 0.5614 0.0
C264 C 0.68451 0.9295 0.48851 0.0
C265 C 0.68137 0.90664 0.50812 0.0
C266 C 0.62685 0.8231 0.53087 0.0
C267 C 0.64994 0.76657 0.56505 0.0
C268 C 0.65238 0.79651 0.55375 0.0
C269 C 0.65958 0.87372 0.50378 0.0
C270 C 0.65715 0.84901 0.52351 0.0
H271 H 0.6883 0.74139 0.60907 0.0
H272 H 0.6882 0.7904 0.59518 0.0
H273 H 0.60078 0.77711 0.5506 0.0
H274 H 0.62987 0.87849 0.44131 0.0
H275 H 0.62439 0.83883 0.47545 0.0
C276 C 0.09317 0.78293 0.45924 0.0
C277 C 0.0676 0.75264 0.4671 0.0
C278 C 0.11344 0.80468 0.47908 0.0
C279 C 0.14473 0.8091 0.54852 0.0
H280 H 0.17496 0.90024 0.53937 0.0
C281 C 0.24295 0.94356 0.59446 0.0
C282 C 0.27047 0.94026 0.5944 0.0
C283 C 0.21323 0.91815 0.58588 0.0
C284 C 0.16638 0.87486 0.54267 0.0
H285 H 0.04311 0.72146 0.502 0.0
H286 H 0.07889 0.75966 0.53681 0.0
H287 H 0.13172 0.86126 0.51024 0.0
H288 H 0.28785 0.90684 0.58751 0.0
H289 H 0.23621 0.86276 0.57204 0.0
H290 H 0.18 0.82288 0.58062 0.0
C291 C 0.08311 0.76641 0.51521 0.0
C292 C 0.14185 0.85256 0.52571 0.0
C293 C 0.06259 0.74465 0.49531 0.0
C294 C 0.26714 0.91022 0.58766 0.0
C295 C 0.23744 0.88485 0.57893 0.0
C296 C 0.16939 0.83148 0.56551 0.0
C297 C 0.10874 0.79664 0.50726 0.0
C298 C 0.13141 0.81956 0.52791 0.0
C299 C 0.21046 0.88897 0.57693 0.0
C300 C 0.18104 0.86468 0.56228 0.0
H301 H 0.0977 0.78983 0.43769 0.0
H302 H 0.13331 0.8276 0.47228 0.0
H303 H 0.13719 0.78379 0.55062 0.0
H304 H 0.24462 0.96627 0.59991 0.0
H305 H 0.19272 0.92184 0.58512 0.0
C306 C 0.04841 0.34157 0.53178 0.0
C307 C 0.04004 0.33563 0.55983 0.0
C308 C 0.07254 0.33671 0.52094 0.0
C309 C 0.14439 0.33262 0.5376 0.0
H310 H 0.12558 0.28675 0.46792 0.0
C311 C 0.23805 0.31157 0.47902 0.0
C312 C 0.24034 0.31848 0.45062 0.0
C313 C 0.21263 0.30977 0.49464 0.0
C314 C 0.13125 0.29969 0.48733 0.0
H315 H 0.05115 0.3209 0.59874 0.0
H316 H 0.09395 0.3128 0.57964 0.0
H317 H 0.08349 0.29195 0.4914 0.0
H318 H 0.21759 0.32854 0.41629 0.0
H319 H 0.1737 0.32567 0.44341 0.0
H320 H 0.19255 0.34128 0.53299 0.0
C321 C 0.08152 0.32104 0.56615 0.0
C322 C 0.10716 0.30263 0.50077 0.0
C323 C 0.05705 0.32564 0.57703 0.0
C324 C 0.21653 0.32309 0.4381 0.0
C325 C 0.19119 0.32121 0.45363 0.0
C326 C 0.16865 0.32982 0.52404 0.0
C327 C 0.08904 0.326 0.53789 0.0
C328 C 0.11371 0.31983 0.52564 0.0
C329 C 0.18898 0.31465 0.48207 0.0
C330 C 0.16251 0.31405 0.49838 0.0
H331 H 0.0359 0.3494 0.51797 0.0
H332 H 0.07828 0.34129 0.49917 0.0
H333 H 0.15003 0.34605 0.55675 0.0
H334 H 0.25605 0.30792 0.48926 0.0
H335 H 0.21143 0.3045 0.5165 0.0
C336 C 0.71869 0.61996 0.09712 0.0
C337 C 0.71959 0.64958 0.09996 0.0
C338 C 0.74403 0.61854 0.08422 0.0
C339 C 0.82782 0.66844 0.05802 0.0
H340 H 0.79833 0.60404 5e-05 0.0
C341 C 0.90451 0.68066 0.96246 0.0
C342 C 0.90354 0.6528 0.95216 0.0
C343 C 0.88411 0.67852 0.98395 0.0
C344 C 0.80707 0.62182 0.01642 0.0
H345 H 0.74881 0.7012 0.09336 0.0
H346 H 0.79268 0.69866 0.07071 0.0
H347 H 0.75986 0.60306 0.03333 0.0
H348 H 0.88068 0.60084 0.95655 0.0
H349 H 0.84512 0.59716 0.99409 0.0
H350 H 0.87493 0.68775 0.04047 0.0
C351 C 0.77257 0.67653 0.07851 0.0
C352 C 0.78503 0.62121 0.03557 0.0
C353 C 0.74727 0.67796 0.09136 0.0
C354 C 0.88188 0.62276 0.96391 0.0
C355 C 0.86146 0.62062 0.98538 0.0
C356 C 0.84989 0.66906 0.03883 0.0
C357 C 0.77076 0.6467 0.074 0.0
C358 C 0.79503 0.64489 0.05624 0.0
C359 C 0.86229 0.64847 0.99558 0.0
C360 C 0.83961 0.64613 0.0175 0.0
H361 H 0.69781 0.59769 0.10371 0.0
H362 H 0.74222 0.59526 0.08143 0.0
H363 H 0.83632 0.68675 0.07394 0.0
H364 H 0.92095 0.70417 0.95388 0.0
H365 H 0.88497 0.70036 0.99108 0.0
C366 C 0.34486 0.2494 0.96089 0.0
C367 C 0.3221 0.25963 0.96265 0.0
C368 C 0.34703 0.23049 0.98165 0.0
C369 C 0.29964 0.17078 0.03308 0.0
H370 H 0.38333 0.18515 0.05613 0.0
C371 C 0.31378 0.0743 0.09309 0.0
C372 C 0.33615 0.06743 0.08061 0.0
C373 C 0.31296 0.10217 0.08585 0.0
C374 C 0.35977 0.18089 0.05003 0.0
H375 H 0.28389 0.25824 0.98766 0.0
H376 H 0.28731 0.2243 0.02394 0.0
H377 H 0.37972 0.22651 0.0296 0.0
H378 H 0.37617 0.08506 0.05188 0.0
H379 H 0.37469 0.13327 0.03926 0.0
H380 H 0.27983 0.12439 0.05218 0.0
C381 C 0.30356 0.23129 0.00647 0.0
C382 C 0.35772 0.20455 0.03489 0.0
C383 C 0.30164 0.25067 0.98576 0.0
C384 C 0.35855 0.08958 0.06177 0.0
C385 C 0.35789 0.11742 0.05473 0.0
C386 C 0.30171 0.147 0.04818 0.0
C387 C 0.32635 0.2211 0.00458 0.0
C388 C 0.32776 0.19917 0.02533 0.0
C389 C 0.33474 0.12376 0.06628 0.0
C390 C 0.33193 0.15132 0.0558 0.0
H391 H 0.36109 0.256 0.94343 0.0
H392 H 0.36445 0.22253 0.9794 0.0
H393 H 0.27626 0.16598 0.02587 0.0
H394 H 0.29624 0.05767 0.10773 0.0
H395 H 0.29497 0.10655 0.09517 0.0
C396 C 0.93214 0.22892 0.09074 0.0
C397 C 0.93193 0.25284 0.10735 0.0
C398 C 0.90335 0.20275 0.08157 0.0
C399 C 0.81989 0.18176 0.06667 0.0
H400 H 0.81301 0.10037 0.04593 0.0
C401 C 0.71469 0.08382 0.00118 0.0
C402 C 0.72599 0.0767 0.97691 0.0
C403 C 0.73611 0.10131 0.02246 0.0
C404 C 0.81451 0.12289 0.05184 0.0
H405 H 0.90125 0.26679 0.12908 0.0
H406 H 0.85077 0.22052 0.11359 0.0
H407 H 0.85685 0.13735 0.07603 0.0
H408 H 0.76821 0.08139 0.95614 0.0
H409 H 0.8054 0.11125 0.99354 0.0
H410 H 0.7776 0.16716 0.04211 0.0
C411 C 0.87329 0.22249 0.10706 0.0
C412 C 0.83966 0.14415 0.06893 0.0
C413 C 0.90221 0.24891 0.11608 0.0
C414 C 0.75886 0.08667 0.97456 0.0
C415 C 0.78008 0.10351 0.99601 0.0
C416 C 0.79442 0.16021 0.04992 0.0
C417 C 0.87354 0.1996 0.08901 0.0
C418 C 0.84343 0.17442 0.07566 0.0
C419 C 0.76896 0.11122 0.02002 0.0
C420 C 0.79224 0.13116 0.04158 0.0
H421 H 0.95459 0.23112 0.08364 0.0
H422 H 0.90466 0.18598 0.0674 0.0
H423 H 0.82212 0.20493 0.07112 0.0
H424 H 0.68945 0.07649 0.00347 0.0
H425 H 0.72706 0.1071 0.04079 0.0
C426 C 0.29795 0.05579 0.49837 0.0
C427 C 0.32495 0.06637 0.51563 0.0
C428 C 0.29802 0.07555 0.47706 0.0
C429 C 0.35109 0.14722 0.4349 0.0
H430 H 0.27977 0.16366 0.43717 0.0
C431 C 0.36189 0.26618 0.39881 0.0
C432 C 0.33442 0.26654 0.38926 0.0
C433 C 0.3598 0.23736 0.40734 0.0
C434 C 0.29953 0.1589 0.43564 0.0
H435 H 0.3737 0.10522 0.52333 0.0
H436 H 0.37381 0.13951 0.48623 0.0
H437 H 0.27759 0.12032 0.46484 0.0
H438 H 0.28381 0.23664 0.37901 0.0
H439 H 0.28034 0.18621 0.39325 0.0
H440 H 0.37342 0.18632 0.4062 0.0
C441 C 0.35263 0.11599 0.48907 0.0
C442 C 0.29827 0.13404 0.4516 0.0
C443 C 0.35244 0.09646 0.5105 0.0
C444 C 0.30533 0.2372 0.38662 0.0
C445 C 0.3033 0.20832 0.39492 0.0
C446 C 0.35225 0.17194 0.41874 0.0
C447 C 0.32525 0.106 0.47244 0.0
C448 C 0.32445 0.12861 0.45204 0.0
C449 C 0.33024 0.2082 0.40626 0.0
C450 C 0.32692 0.17873 0.41959 0.0
H451 H 0.27645 0.03268 0.50177 0.0
H452 H 0.27665 0.06723 0.46445 0.0
H453 H 0.37142 0.14322 0.43459 0.0
H454 H 0.38468 0.28837 0.40108 0.0
H455 H 0.38099 0.23832 0.41623 0.0
C456 C 0.90888 0.22292 0.53645 0.0
C457 C 0.90874 0.25132 0.54331 0.0
C458 C 0.88977 0.20339 0.51487 0.0
C459 C 0.81656 0.18342 0.47587 0.0
H460 H 0.8469 0.14003 0.42712 0.0
C461 C 0.73211 0.09179 0.39586 0.0
C462 C 0.73149 0.06217 0.39663 0.0
C463 C 0.75712 0.11902 0.40857 0.0
C464 C 0.8381 0.15199 0.44058 0.0
H465 H 0.88878 0.28179 0.53266 0.0
H466 H 0.85546 0.24768 0.49495 0.0
H467 H 0.88402 0.17979 0.46016 0.0
H468 H 0.75778 0.03845 0.40964 0.0
H469 H 0.80109 0.08572 0.43195 0.0
H470 H 0.77045 0.15501 0.45697 0.0
C471 C 0.87015 0.24039 0.50642 0.0
C472 C 0.85931 0.17467 0.45952 0.0
C473 C 0.88929 0.25994 0.52799 0.0
C474 C 0.75744 0.06086 0.40878 0.0
C475 C 0.78242 0.08806 0.42144 0.0
C476 C 0.79536 0.16074 0.45696 0.0
C477 C 0.87009 0.21183 0.4997 0.0
C478 C 0.84858 0.19014 0.47776 0.0
C479 C 0.78203 0.11718 0.42221 0.0
C480 C 0.80572 0.14429 0.43949 0.0
H481 H 0.92361 0.21561 0.54783 0.0
H482 H 0.88988 0.18129 0.51048 0.0
H483 H 0.80744 0.19463 0.48985 0.0
H484 H 0.7126 0.09366 0.38648 0.0
H485 H 0.75644 0.14128 0.40844 0.0
C486 C 0.89944 0.64609 0.39367 0.0
C487 C 0.92856 0.67564 0.39318 0.0
C488 C 0.87175 0.64411 0.40514 0.0
C489 C 0.83658 0.69269 0.43195 0.0
H490 H 0.79765 0.6243 0.48635 0.0
C491 C 0.76855 0.69898 0.52773 0.0
C492 C 0.74211 0.67035 0.53756 0.0
C493 C 0.78671 0.69829 0.50544 0.0
C494 C 0.80772 0.64318 0.47091 0.0
H495 H 0.95079 0.72673 0.40228 0.0
H496 H 0.90275 0.72319 0.4225 0.0
H497 H 0.83682 0.62521 0.45406 0.0
H498 H 0.7131 0.61873 0.53093 0.0
H499 H 0.74457 0.61761 0.49192 0.0
H500 H 0.80812 0.7112 0.44958 0.0
C501 C 0.90116 0.70155 0.41396 0.0
C502 C 0.83017 0.64367 0.45232 0.0
C503 C 0.92881 0.70354 0.40252 0.0
C504 C 0.73356 0.64118 0.52406 0.0
C505 C 0.75163 0.64051 0.50174 0.0
C506 C 0.81405 0.69219 0.45059 0.0
C507 C 0.87263 0.67164 0.41627 0.0
C508 C 0.84539 0.66879 0.43302 0.0
C509 C 0.77873 0.66897 0.49246 0.0
C510 C 0.7999 0.6678 0.47066 0.0
H511 H 0.89837 0.6242 0.38642 0.0
H512 H 0.84995 0.62081 0.40622 0.0
H513 H 0.84761 0.71215 0.41709 0.0
H514 H 0.77573 0.72185 0.53765 0.0
H515 H 0.80768 0.72059 0.49903 0.0
C516 C 0.28015 0.41071 0.31956 0.0
C517 C 0.28362 0.38333 0.32149 0.0
C518 C 0.26144 0.41316 0.29862 0.0
C519 C 0.21986 0.37644 0.23231 0.0
H520 H 0.16044 0.4042 0.2565 0.0
C521 C 0.10388 0.34379 0.17313 0.0
C522 C 0.09663 0.36843 0.16849 0.0
C523 C 0.12879 0.34869 0.19093 0.0
C524 C 0.17715 0.39679 0.24935 0.0
H525 H 0.27159 0.33788 0.30204 0.0
H526 H 0.23862 0.34186 0.26593 0.0
H527 H 0.20208 0.40838 0.28796 0.0
H528 H 0.10929 0.41725 0.17957 0.0
H529 H 0.15272 0.42561 0.21107 0.0
H530 H 0.19412 0.36384 0.19402 0.0
C531 C 0.2506 0.36167 0.28033 0.0
C532 C 0.20112 0.39929 0.26731 0.0
C533 C 0.26944 0.35931 0.30116 0.0
C534 C 0.11427 0.39779 0.1827 0.0
C535 C 0.1391 0.40259 0.20074 0.0
C536 C 0.19576 0.37372 0.21446 0.0
C537 C 0.2457 0.38824 0.27922 0.0
C538 C 0.22245 0.38867 0.25915 0.0
C539 C 0.1469 0.37823 0.20467 0.0
C540 C 0.17384 0.38337 0.22296 0.0
H541 H 0.29099 0.42978 0.33478 0.0
H542 H 0.25869 0.43425 0.29802 0.0
H543 H 0.23625 0.3686 0.22517 0.0
H544 H 0.09074 0.32085 0.1626 0.0
H545 H 0.13389 0.32928 0.19396 0.0
C546 C 0.64183 0.72961 0.18995 0.0
C547 C 0.61386 0.70876 0.17505 0.0
C548 C 0.64168 0.75173 0.20859 0.0
C549 C 0.59022 0.77225 0.24989 0.0
H550 H 0.65998 0.86012 0.23983 0.0
C551 C 0.59372 0.87835 0.30922 0.0
C552 C 0.62376 0.90112 0.32021 0.0
C553 C 0.59147 0.85543 0.29013 0.0
C554 C 0.64052 0.83569 0.24313 0.0
H555 H 0.56325 0.69329 0.16943 0.0
H556 H 0.56298 0.73177 0.20231 0.0
H557 H 0.65799 0.81715 0.21156 0.0
H558 H 0.67513 0.91841 0.31901 0.0
H559 H 0.67117 0.87827 0.28626 0.0
H560 H 0.57306 0.79063 0.28187 0.0
C561 C 0.58503 0.7311 0.19935 0.0
C562 C 0.63941 0.81109 0.22694 0.0
C563 C 0.58523 0.70912 0.1805 0.0
C564 C 0.6516 0.90127 0.31091 0.0
C565 C 0.64934 0.87828 0.292 0.0
C566 C 0.59148 0.79685 0.26631 0.0
C567 C 0.6135 0.75325 0.21293 0.0
C568 C 0.61439 0.77911 0.23028 0.0
C569 C 0.6192 0.85473 0.28171 0.0
C570 C 0.61677 0.82885 0.26323 0.0
H571 H 0.66427 0.72988 0.18635 0.0
H572 H 0.66382 0.76819 0.21917 0.0
H573 H 0.57074 0.74777 0.25294 0.0
H574 H 0.57182 0.8777 0.31585 0.0
H575 H 0.56795 0.83801 0.28221 0.0
C576 C 0.28247 0.87855 0.17787 0.0
C577 C 0.28332 0.90778 0.17233 0.0
C578 C 0.26069 0.85683 0.19714 0.0
C579 C 0.18174 0.83276 0.22629 0.0
H580 H 0.20312 0.78837 0.28197 0.0
C581 C 0.09335 0.75859 0.31268 0.0
C582 C 0.09315 0.73093 0.32256 0.0
C583 C 0.11618 0.77857 0.29329 0.0
C584 C 0.19662 0.80013 0.26621 0.0
H585 H 0.26306 0.9378 0.18366 0.0
H586 H 0.22507 0.89983 0.21716 0.0
H587 H 0.2453 0.82748 0.25158 0.0
H588 H 0.11597 0.7018 0.31896 0.0
H589 H 0.15539 0.73629 0.28449 0.0
H590 H 0.13311 0.80528 0.24041 0.0
C591 C 0.24106 0.89365 0.20641 0.0
C592 C 0.22084 0.82266 0.24895 0.0
C593 C 0.26301 0.91548 0.18738 0.0
C594 C 0.11558 0.72303 0.31185 0.0
C595 C 0.13834 0.74295 0.29227 0.0
C596 C 0.15751 0.81006 0.24331 0.0
C597 C 0.23918 0.86382 0.211 0.0
C598 C 0.21367 0.83947 0.22908 0.0
C599 C 0.13924 0.77124 0.28309 0.0
C600 C 0.16469 0.79374 0.26373 0.0
H601 H 0.29786 0.87195 0.16665 0.0
H602 H 0.25971 0.83397 0.20028 0.0
H603 H 0.17543 0.8449 0.21073 0.0
H604 H 0.07651 0.76549 0.32056 0.0
H605 H 0.11638 0.80036 0.28703 0.0
C606 C 0.90676 0.64165 0.8106 0.0
C607 C 0.90151 0.61171 0.82022 0.0
C608 C 0.88682 0.64312 0.7903 0.0
C609 C 0.82721 0.59551 0.7364 0.0
H610 H 0.79371 0.65275 0.75141 0.0
C611 C 0.71908 0.58595 0.67667 0.0
C612 C 0.72079 0.61487 0.66838 0.0
C613 C 0.74176 0.58634 0.69499 0.0
C614 C 0.80312 0.63693 0.74672 0.0
H615 H 0.87222 0.5599 0.8151 0.0
H616 H 0.83751 0.56249 0.77972 0.0
H617 H 0.83393 0.65266 0.78214 0.0
H618 H 0.74726 0.66686 0.67332 0.0
H619 H 0.78701 0.66754 0.70509 0.0
H620 H 0.79636 0.57969 0.70103 0.0
C621 C 0.85705 0.58483 0.78782 0.0
C622 C 0.82621 0.63692 0.7643 0.0
C623 C 0.87688 0.58335 0.80819 0.0
C624 C 0.7452 0.64413 0.67936 0.0
C625 C 0.76795 0.64453 0.69764 0.0
C626 C 0.80419 0.59558 0.71877 0.0
C627 C 0.86137 0.6147 0.77909 0.0
C628 C 0.83832 0.61603 0.75944 0.0
C629 C 0.76673 0.61566 0.70538 0.0
C630 C 0.79167 0.6161 0.72386 0.0
H631 H 0.92558 0.66397 0.81938 0.0
H632 H 0.89101 0.6665 0.78367 0.0
H633 H 0.83639 0.57944 0.73193 0.0
H634 H 0.70048 0.56298 0.66872 0.0
H635 H 0.73976 0.56363 0.70097 0.0
C636 C 0.36285 0.27024 0.80303 0.0
C637 C 0.36802 0.26294 0.82999 0.0
C638 C 0.36602 0.25387 0.78044 0.0
C639 C 0.35924 0.17706 0.76221 0.0
H640 H 0.40716 0.22108 0.69639 0.0
C641 C 0.3741 0.107 0.67238 0.0
C642 C 0.37172 0.11669 0.64554 0.0
C643 C 0.37659 0.12611 0.69508 0.0
C644 C 0.39336 0.20838 0.71449 0.0
H645 H 0.38105 0.23315 0.85437 0.0
H646 H 0.38613 0.20441 0.81497 0.0
H647 H 0.40538 0.25243 0.7354 0.0
H648 H 0.37049 0.15419 0.62138 0.0
H649 H 0.37379 0.18693 0.66087 0.0
H650 H 0.34622 0.13301 0.74125 0.0
C651 C 0.37965 0.22275 0.81136 0.0
C652 C 0.39246 0.22637 0.73682 0.0
C653 C 0.37688 0.23934 0.83387 0.0
C654 C 0.37244 0.14611 0.6418 0.0
C655 C 0.37454 0.16502 0.66448 0.0
C656 C 0.35979 0.15905 0.73981 0.0
C657 C 0.374 0.22967 0.78447 0.0
C658 C 0.37538 0.21085 0.76086 0.0
C659 C 0.37637 0.15514 0.69143 0.0
C660 C 0.37682 0.17446 0.71563 0.0
H661 H 0.35606 0.28836 0.7994 0.0
H662 H 0.36137 0.2595 0.75988 0.0
H663 H 0.34554 0.1645 0.78041 0.0
H664 H 0.37388 0.08456 0.67589 0.0
H665 H 0.37859 0.11805 0.71549 0.0
C666 C 0.79088 0.11046 0.83598 0.0
C667 C 0.75715 0.0958 0.83737 0.0
C668 C 0.80812 0.13291 0.81532 0.0
C669 C 0.80176 0.18912 0.76727 0.0
H670 H 0.87352 0.18932 0.73011 0.0
C671 C 0.86099 0.26392 0.66921 0.0
C672 C 0.89458 0.27829 0.6664 0.0
C673 C 0.84504 0.24327 0.69129 0.0
C674 C 0.85383 0.18988 0.74058 0.0
H675 H 0.71498 0.09262 0.81771 0.0
H676 H 0.74505 0.13152 0.78146 0.0
H677 H 0.84372 0.14896 0.76548 0.0
H678 H 0.93791 0.28313 0.68511 0.0
H679 H 0.91003 0.24728 0.72385 0.0
H680 H 0.81175 0.22992 0.74227 0.0
C681 C 0.75821 0.12603 0.79664 0.0
C682 C 0.83672 0.1667 0.76079 0.0
C683 C 0.74097 0.10356 0.81729 0.0
C684 C 0.912 0.27235 0.68663 0.0
C685 C 0.89601 0.25164 0.70871 0.0
C686 C 0.81887 0.21228 0.74707 0.0
C687 C 0.792 0.14121 0.79559 0.0
C688 C 0.81039 0.16596 0.77426 0.0
C689 C 0.8623 0.23652 0.71106 0.0
C690 C 0.845 0.21283 0.7334 0.0
H691 H 0.8041 0.10506 0.85117 0.0
H692 H 0.83416 0.14438 0.81522 0.0
H693 H 0.78196 0.18955 0.77763 0.0
H694 H 0.84684 0.26796 0.65399 0.0
H695 H 0.81903 0.23177 0.69235 0.0
C696 C -0.00161 0.4038 0.06711 0.0
C697 C 0.03046 0.41047 0.06622 0.0
C698 C 0.98847 0.42113 0.05059 0.0
C699 C 0.0184 0.49526 0.00863 0.0
H700 H 0.93788 0.4453 0.96908 0.0
C701 C 0.98127 0.55171 0.922 0.0
C702 C 0.94962 0.5462 0.92358 0.0
C703 C 0.99063 0.53355 0.93799 0.0
C704 C 0.9603 0.45959 0.98011 0.0
H705 H 0.07762 0.44162 0.04832 0.0
H706 H 0.06029 0.47167 0.01946 0.0
H707 H 0.95533 0.41853 0.00194 0.0
H708 H 0.90246 0.51592 0.94181 0.0
H709 H 0.91884 0.48429 0.9697 0.0
H710 H 0.0234 0.53631 0.98679 0.0
C711 C 0.04282 0.45317 0.03299 0.0
C712 C 0.97023 0.44431 -0.00097 0.0
C713 C 0.05273 0.43585 0.04949 0.0
C714 C 0.92705 0.52084 0.94016 0.0
C715 C 0.93641 0.50263 0.95611 0.0
C716 C 0.00849 0.51052 0.9897 0.0
C717 C 0.01043 0.44552 0.03289 0.0
C718 C -0.00059 0.46199 0.01349 0.0
C719 C 0.96853 0.50944 0.9558 0.0
C720 C 0.97936 0.49285 0.9752 0.0
H721 H 0.98066 0.38447 0.07987 0.0
H722 H 0.96348 0.41509 0.05135 0.0
H723 H 0.04078 0.50962 0.0197 0.0
H724 H -0.00078 0.57095 0.90931 0.0
H725 H 0.0154 0.5389 0.9369 0.0
C726 C 0.57163 0.57704 0.0669 0.0
C727 C 0.56816 0.60442 0.06515 0.0
C728 C 0.55306 0.5502 0.05026 0.0
C729 C 0.47961 0.51079 0.00741 0.0
H730 H 0.52435 0.47306 0.96993 0.0
C731 C 0.41806 0.4154 0.92238 0.0
C732 C 0.42207 0.38834 0.92405 0.0
C733 C 0.43701 0.44267 0.93845 0.0
C734 C 0.51146 0.48315 0.98042 0.0
H735 H 0.54158 0.62461 0.04538 0.0
H736 H 0.50925 0.57781 0.01637 0.0
H737 H 0.55373 0.51763 0.002 0.0
H738 H 0.45002 0.36919 0.943 0.0
H739 H 0.48283 0.41661 0.97114 0.0
H740 H 0.43731 0.47624 0.98596 0.0
C741 C 0.52624 0.57704 0.03066 0.0
C742 C 0.52825 0.50861 -0.00116 0.0
C743 C 0.54486 0.6039 0.04723 0.0
C744 C 0.44632 0.38964 0.94122 0.0
C745 C 0.46523 0.41689 0.95729 0.0
C746 C 0.4628 0.4853 0.98903 0.0
C747 C 0.53056 0.55015 0.03163 0.0
C748 C 0.5125 0.52267 0.01255 0.0
C749 C 0.46034 0.44344 0.9565 0.0
C750 C 0.47854 0.47119 0.97533 0.0
H751 H 0.58932 0.57663 0.08056 0.0
H752 H 0.55654 0.52959 0.05178 0.0
H753 H 0.46674 0.52091 0.0179 0.0
H754 H 0.39968 0.41522 0.90926 0.0
H755 H 0.43308 0.463 0.93701 0.0
C756 C 0.41742 0.00059 0.0657 0.0
C757 C 0.39038 0.96963 0.06273 0.0
C758 C 0.44451 0.01044 0.04896 0.0
C759 C 0.48531 0.98033 0.00336 0.0
H760 H 0.52266 0.06518 0.97 0.0
C761 C 0.58206 0.01965 0.91952 0.0
C762 C 0.60935 0.05037 0.92282 0.0
C763 C 0.55418 0.01069 0.93485 0.0
C764 C 0.51266 0.04153 0.97931 0.0
H765 H 0.3711 0.92428 0.04066 0.0
H766 H 0.41835 0.94148 0.01152 0.0
H767 H 0.47757 0.04729 0.00206 0.0
H768 H 0.62807 0.09646 0.94353 0.0
H769 H 0.57945 0.08071 0.97045 0.0
H770 H 0.52044 0.97458 0.98085 0.0
C771 C 0.41865 0.95811 0.02681 0.0
C772 C 0.48691 0.03132 -0.00227 0.0
C773 C 0.39153 0.94829 0.04348 0.0
C774 C 0.60746 0.07262 0.94049 0.0
C775 C 0.57956 0.0636 0.95591 0.0
C776 C 0.51106 0.99054 0.98501 0.0
C777 C 0.44518 0.98949 0.02901 0.0
C778 C 0.47297 0.0006 0.00994 0.0
C779 C 0.55298 0.0322 0.95387 0.0
C780 C 0.52499 0.02123 0.97273 0.0
H781 H 0.41734 0.01761 0.08036 0.0
H782 H 0.46481 0.03459 0.05143 0.0
H783 H 0.47536 0.9567 0.01271 0.0
H784 H 0.58263 0.00202 0.90588 0.0
H785 H 0.53383 0.98657 0.93233 0.0
C786 C 0.54925 0.93785 0.44092 0.0
C787 C 0.57539 0.96057 0.42512 0.0
C788 C 0.5308 0.94723 0.45646 0.0
C789 C 0.51138 0.01221 0.46564 0.0
H790 H 0.49138 0.97948 0.54062 0.0
C791 C 0.45814 0.06242 0.54454 0.0
C792 C 0.43168 0.03942 0.55987 0.0
C793 C 0.47685 0.0533 0.52907 0.0
C794 C 0.49657 0.98863 0.51967 0.0
H795 H 0.6018 0.01068 0.41227 0.0
H796 H 0.56971 0.02705 0.43953 0.0
H797 H 0.51991 0.96174 0.51008 0.0
H798 H 0.405 0.98908 0.57203 0.0
H799 H 0.43761 0.97319 0.54498 0.0
H800 H 0.48805 0.03912 0.47526 0.0
C801 C 0.56335 0.00195 0.43979 0.0
C802 C 0.51279 0.97839 0.50214 0.0
C803 C 0.5818 0.99257 0.42421 0.0
C804 C 0.42522 0.0074 0.56043 0.0
C805 C 0.44397 -0.00171 0.54499 0.0
C806 C 0.49517 0.02247 0.48318 0.0
C807 C 0.5381 0.97952 0.45654 0.0
C808 C 0.52032 0.99002 0.47491 0.0
C809 C 0.46954 0.02101 0.52867 0.0
C810 C 0.48758 0.01077 0.51038 0.0
H811 H 0.54354 0.91296 0.44193 0.0
H812 H 0.51108 0.92926 0.46874 0.0
H813 H 0.5165 0.02132 0.44468 0.0
H814 H 0.46386 0.08732 0.54378 0.0
H815 H 0.49677 0.07145 0.51709 0.0
C816 C 0.93048 0.40934 0.55263 0.0
C817 C 0.95316 0.40661 0.56905 0.0
C818 C 0.9396 0.43712 0.53704 0.0
C819 C 0.00322 0.52227 0.5281 0.0
H820 H 0.974 0.50774 0.45201 0.0
C821 C 0.05529 0.62459 0.44776 0.0
C822 C 0.03293 0.62676 0.43045 0.0
C823 C 0.04588 0.59733 0.46417 0.0
C824 C 0.98212 0.51223 0.47326 0.0
H825 H 0.0028 0.43161 0.58314 0.0
H826 H 0.0187 0.48003 0.55588 0.0
H827 H 0.95583 0.46205 0.48331 0.0
H828 H 0.98343 0.60145 0.41599 0.0
H829 H 0.96701 0.55402 0.4447 0.0
H830 H 0.02953 0.57247 0.51803 0.0
C831 C -0.00616 0.46073 0.55511 0.0
C832 C 0.97164 0.48607 0.49122 0.0
C833 C 0.98473 0.43293 0.57069 0.0
C834 C 0.00128 0.60054 0.42907 0.0
C835 C 0.99187 0.57329 0.44549 0.0
C836 C 0.01368 0.54845 0.51013 0.0
C837 C 0.97157 0.46278 0.53757 0.0
C838 C 0.98206 0.49079 0.51884 0.0
C839 C 0.01391 0.57164 0.4636 0.0
C840 C 0.00327 0.54372 0.4825 0.0
H841 H 0.9059 0.38959 0.55103 0.0
H842 H 0.92175 0.43826 0.52413 0.0
H843 H 0.01141 0.5267 0.54933 0.0
H844 H 0.0799 0.64431 0.44922 0.0
H845 H 0.06357 0.59652 0.47754 0.0
C846 C 0.37654 0.4344 0.45832 0.0
C847 C 0.37733 0.41348 0.4384 0.0
C848 C 0.40242 0.45124 0.47634 0.0
C849 C 0.47144 0.44834 0.50654 0.0
H850 H 0.50288 0.53826 0.52371 0.0
C851 C 0.5943 0.53071 0.55784 0.0
C852 C 0.5972 0.55494 0.57593 0.0
C853 C 0.56532 0.51106 0.54413 0.0
C854 C 0.49402 0.51299 0.51954 0.0
H855 H 0.40629 0.39445 0.42133 0.0
H856 H 0.45159 0.42413 0.45258 0.0
H857 H 0.45728 0.50991 0.4925 0.0
H858 H 0.57135 0.57622 0.59517 0.0
H859 H 0.52058 0.54157 0.57147 0.0
H860 H 0.50842 0.45152 0.53335 0.0
C861 C 0.43072 0.42711 0.45453 0.0
C862 C 0.46797 0.49679 0.50157 0.0
C863 C 0.40488 0.41034 0.43647 0.0
C864 C 0.56996 0.55787 0.58125 0.0
C865 C 0.54095 0.53821 0.56751 0.0
C866 C 0.49747 0.46452 0.52455 0.0
C867 C 0.42962 0.44745 0.47487 0.0
C868 C 0.45663 0.4644 0.49463 0.0
C869 C 0.53859 0.51518 0.54825 0.0
C870 C 0.50927 0.49713 0.53102 0.0
H871 H 0.35564 0.43732 0.4604 0.0
H872 H 0.40077 0.46658 0.49191 0.0
H873 H 0.46284 0.42319 0.50201 0.0
H874 H 0.61481 0.52776 0.55332 0.0
H875 H 0.5644 0.49372 0.52929 0.0
loop_
_geom_bond_atom_site_label_1
_geom_bond_atom_site_label_2
_geom_bond_distance
_geom_bond_site_symmetry_2
_ccdc_geom_bond_type
C0 O1 1.160 . S
C0 O7 1.185 . S
O1 C0 1.160 . S
O2 Zn3 1.899 . S
O2 C10 1.284 . S
Zn3 O2 1.899 . S
Zn3 O4 2.032 . S
Zn3 O7 2.086 . S
Zn3 O12 1.977 . S
O4 Zn3 2.032 . S
O4 C8 1.278 . S
C5 O6 1.203 . S
C5 O12 1.267 1_655 S
O6 C5 1.203 . S
O7 C0 1.185 . S
O7 Zn3 2.086 . S
C8 O4 1.278 . S
C8 O9 1.211 . S
O9 C8 1.211 . S
C10 O2 1.284 . S
C10 O11 1.273 . S
O11 C10 1.273 . S
O12 Zn3 1.977 . S
O12 C5 1.267 1_455 S
C13 O14 1.160 . S
C13 O20 1.185 . S
O14 C13 1.160 . S
O15 Zn16 1.899 . S
O15 C23 1.284 . S
Zn16 O15 1.899 . S
Zn16 O17 2.032 . S
Zn16 O20 2.086 . S
Zn16 O25 1.977 . S
O17 Zn16 2.032 . S
O17 C21 1.278 . S
C18 O19 1.203 . S
C18 O25 1.267 . S
O19 C18 1.203 . S
O20 C13 1.185 . S
O20 Zn16 2.086 . S
C21 O17 1.278 . S
C21 O22 1.211 . S
O22 C21 1.211 . S
C23 O15 1.284 . S
C23 O24 1.273 . S
O24 C23 1.273 . S
O25 Zn16 1.977 . S
O25 C18 1.267 . S
C26 O27 1.160 . S
C26 O33 1.185 . S
O27 C26 1.160 . S
O28 Zn29 1.899 . S
O28 C36 1.284 . S
Zn29 O28 1.899 . S
Zn29 O30 2.032 . S
Zn29 O33 2.086 . S
Zn29 O38 1.977 . S
O30 Zn29 2.032 . S
O30 C34 1.278 . S
C31 O32 1.203 . S
C31 O38 1.267 1_545 S
O32 C31 1.203 . S
O33 C26 1.185 . S
O33 Zn29 2.086 . S
C34 O30 1.278 . S
C34 O35 1.211 . S
O35 C34 1.211 . S
C36 O28 1.284 . S
C36 O37 1.273 . S
O37 C36 1.273 . S
O38 Zn29 1.977 . S
O38 C31 1.267 1_565 S
C39 O40 1.160 . S
C39 O46 1.185 . S
O40 C39 1.160 . S
O41 Zn42 1.899 . S
O41 C49 1.284 . S
Zn42 O41 1.899 . S
Zn42 O43 2.032 . S
Zn42 O46 2.086 . S
Zn42 O51 1.977 . S
O43 Zn42 2.032 . S
O43 C47 1.278 . S
C44 O45 1.203 . S
C44 O51 1.267 1_545 S
O45 C44 1.203 . S
O46 C39 1.185 . S
O46 Zn42 2.086 . S
C47 O43 1.278 . S
C47 O48 1.211 . S
O48 C47 1.211 . S
C49 O41 1.284 . S
C49 O50 1.273 . S
O50 C49 1.273 . S
O51 Zn42 1.977 . S
O51 C44 1.267 1_565 S
C52 O53 1.160 . S
C52 O59 1.185 . S
O53 C52 1.160 . S
O54 Zn55 1.899 . S
O54 C62 1.284 . S
Zn55 O54 1.899 . S
Zn55 O56 2.032 . S
Zn55 O59 2.086 . S
Zn55 O64 1.977 . S
O56 Zn55 2.032 . S
O56 C60 1.278 . S
C57 O58 1.203 . S
C57 O64 1.267 1_655 S
O58 C57 1.203 . S
O59 C52 1.185 . S
O59 Zn55 2.086 . S
C60 O56 1.278 . S
C60 O61 1.211 . S
O61 C60 1.211 . S
C62 O54 1.284 . S
C62 O63 1.273 . S
O63 C62 1.273 . S
O64 Zn55 1.977 . S
O64 C57 1.267 1_455 S
C65 O66 1.160 . S
C65 O72 1.185 . S
O66 C65 1.160 . S
O67 Zn68 1.899 . S
O67 C75 1.284 . S
Zn68 O67 1.899 . S
Zn68 O69 2.032 . S
Zn68 O72 2.086 . S
Zn68 O77 1.977 . S
O69 Zn68 2.032 . S
O69 C73 1.278 . S
C70 O71 1.203 . S
C70 O77 1.267 . S
O71 C70 1.203 . S
O72 C65 1.185 . S
O72 Zn68 2.086 . S
C73 O69 1.278 . S
C73 O74 1.211 . S
O74 C73 1.211 . S
C75 O67 1.284 . S
C75 O76 1.273 . S
O76 C75 1.273 . S
O77 Zn68 1.977 . S
O77 C70 1.267 . S
C78 O79 1.160 . S
C78 O85 1.185 . S
O79 C78 1.160 . S
O80 Zn81 1.899 . S
O80 C88 1.284 . S
Zn81 O80 1.899 . S
Zn81 O82 2.032 . S
Zn81 O85 2.086 . S
Zn81 O90 1.977 . S
O82 Zn81 2.032 . S
O82 C86 1.278 . S
C83 O84 1.203 . S
C83 O90 1.267 1_455 S
O84 C83 1.203 . S
O85 C78 1.185 . S
O85 Zn81 2.086 . S
C86 O82 1.278 . S
C86 O87 1.211 . S
O87 C86 1.211 . S
C88 O80 1.284 . S
C88 O89 1.273 . S
O89 C88 1.273 . S
O90 Zn81 1.977 . S
O90 C83 1.267 1_655 S
C91 O92 1.160 . S
C91 O98 1.185 . S
O92 C91 1.160 . S
O93 Zn94 1.899 . S
O93 C101 1.284 . S
Zn94 O93 1.899 . S
Zn94 O95 2.032 . S
Zn94 O98 2.086 . S
Zn94 O103 1.977 . S
O95 Zn94 2.032 . S
O95 C99 1.278 . S
C96 O97 1.203 . S
C96 O103 1.267 . S
O97 C96 1.203 . S
O98 C91 1.185 . S
O98 Zn94 2.086 . S
C99 O95 1.278 . S
C99 O100 1.211 . S
O100 C99 1.211 . S
C101 O93 1.284 . S
C101 O102 1.273 . S
O102 C101 1.273 . S
O103 Zn94 1.977 . S
O103 C96 1.267 . S
C104 O105 1.160 . S
C104 O111 1.185 . S
O105 C104 1.160 . S
O106 Zn107 1.899 . S
O106 C114 1.284 . S
Zn107 O106 1.899 . S
Zn107 O108 2.032 . S
Zn107 O111 2.086 . S
Zn107 O116 1.977 . S
O108 Zn107 2.032 . S
O108 C112 1.278 . S
C109 O110 1.203 . S
C109 O116 1.267 1_565 S
O110 C109 1.203 . S
O111 C104 1.185 . S
O111 Zn107 2.086 . S
C112 O108 1.278 . S
C112 O113 1.211 . S
O113 C112 1.211 . S
C114 O106 1.284 . S
C114 O115 1.273 . S
O115 C114 1.273 . S
O116 Zn107 1.977 . S
O116 C109 1.267 1_545 S
C117 O118 1.160 . S
C117 O124 1.185 . S
O118 C117 1.160 . S
O119 Zn120 1.899 . S
O119 C127 1.284 . S
Zn120 O119 1.899 . S
Zn120 O121 2.032 . S
Zn120 O124 2.086 . S
Zn120 O129 1.977 . S
O121 Zn120 2.032 . S
O121 C125 1.278 . S
C122 O123 1.203 . S
C122 O129 1.267 1_565 S
O123 C122 1.203 . S
O124 C117 1.185 . S
O124 Zn120 2.086 . S
C125 O121 1.278 . S
C125 O126 1.211 . S
O126 C125 1.211 . S
C127 O119 1.284 . S
C127 O128 1.273 . S
O128 C127 1.273 . S
O129 Zn120 1.977 . S
O129 C122 1.267 1_545 S
C130 O131 1.160 . S
C130 O137 1.185 . S
O131 C130 1.160 . S
O132 Zn133 1.899 . S
O132 C140 1.284 . S
Zn133 O132 1.899 . S
Zn133 O134 2.032 . S
Zn133 O137 2.086 . S
Zn133 O142 1.977 . S
O134 Zn133 2.032 . S
O134 C138 1.278 . S
C135 O136 1.203 . S
C135 O142 1.267 1_455 S
O136 C135 1.203 . S
O137 C130 1.185 . S
O137 Zn133 2.086 . S
C138 O134 1.278 . S
C138 O139 1.211 . S
O139 C138 1.211 . S
C140 O132 1.284 . S
C140 O141 1.273 . S
O141 C140 1.273 . S
O142 Zn133 1.977 . S
O142 C135 1.267 1_655 S
C143 O144 1.160 . S
C143 O150 1.185 . S
O144 C143 1.160 . S
O145 Zn146 1.899 . S
O145 C153 1.284 . S
Zn146 O145 1.899 . S
Zn146 O147 2.032 . S
Zn146 O150 2.086 . S
Zn146 O155 1.977 . S
O147 Zn146 2.032 . S
O147 C151 1.278 . S
C148 O149 1.203 . S
C148 O155 1.267 . S
O149 C148 1.203 . S
O150 C143 1.185 . S
O150 Zn146 2.086 . S
C151 O147 1.278 . S
C151 O152 1.211 . S
O152 C151 1.211 . S
C153 O145 1.284 . S
C153 O154 1.273 . S
O154 C153 1.273 . S
O155 Zn146 1.977 . S
O155 C148 1.267 . S
C156 C157 1.349 . S
C156 C158 1.327 . S
C156 H181 0.950 . S
C157 C156 1.349 . S
C157 C173 1.349 . S
C158 C156 1.327 . S
C158 C177 1.429 . S
C158 H182 0.950 . S
C159 C176 1.574 . S
C159 C178 1.368 1_556 S
C159 H183 0.949 . S
H160 C164 0.949 . S
C161 C162 1.349 . S
C161 C163 1.327 . S
C161 H184 0.950 . S
C162 C161 1.349 . S
C162 C174 1.349 . S
C163 C161 1.327 . S
C163 C179 1.429 . S
C163 H185 0.950 . S
C164 H160 0.949 . S
C164 C172 1.574 . S
C164 C180 1.368 1_554 S
H165 C173 0.950 . S
H166 C171 0.950 1_556 S
H167 C172 0.949 . S
H168 C174 0.950 . S
H169 C175 0.950 . S
H170 C176 0.949 . S
C171 H166 0.950 1_554 S
C171 C173 1.327 . S
C171 C177 1.429 . S
C172 C164 1.574 . S
C172 H167 0.949 . S
C172 C178 1.368 . S
C173 C157 1.349 . S
C173 H165 0.950 . S
C173 C171 1.327 . S
C174 C162 1.349 . S
C174 H168 0.950 . S
C174 C175 1.327 . S
C175 H169 0.950 . S
C175 C174 1.327 . S
C175 C179 1.429 . S
C176 C159 1.574 . S
C176 H170 0.949 . S
C176 C180 1.368 . S
C177 C158 1.429 . S
C177 C171 1.429 . S
C177 C178 1.523 . S
C178 C159 1.368 1_554 S
C178 C172 1.368 . S
C178 C177 1.523 . S
C179 C163 1.429 . S
C179 C175 1.429 . S
C179 C180 1.523 . S
C180 C164 1.368 1_556 S
C180 C176 1.368 . S
C180 C179 1.523 . S
H181 C156 0.950 . S
H182 C158 0.950 . S
H183 C159 0.949 . S
H184 C161 0.950 . S
H185 C163 0.950 . S
C186 C187 1.349 . S
C186 C188 1.327 . S
C186 H211 0.950 . S
C187 C186 1.349 . S
C187 C203 1.349 . S
C188 C186 1.327 . S
C188 C207 1.429 . S
C188 H212 0.950 . S
C189 C206 1.574 . S
C189 C208 1.368 1_556 S
C189 H213 0.949 . S
H190 C194 0.941 1_554 S
C191 C192 1.349 . S
C191 C193 1.327 . S
C191 H214 0.950 . S
C192 C191 1.349 . S
C192 C204 1.349 . S
C193 C191 1.327 . S
C193 C209 1.429 . S
C193 H215 0.950 . S
C194 H190 0.941 1_556 S
C194 C202 1.554 1_556 S
C194 C210 1.399 . S
H195 C203 0.950 . S
H196 C201 0.950 1_556 S
H197 C202 0.949 . S
H198 C204 0.950 1_545 S
H199 C205 0.950 . S
H200 C206 0.949 . S
C201 H196 0.950 1_554 S
C201 C203 1.327 . S
C201 C207 1.429 . S
C202 C194 1.554 1_554 S
C202 H197 0.949 . S
C202 C208 1.368 . S
C203 C187 1.349 . S
C203 H195 0.950 . S
C203 C201 1.327 . S
C204 C192 1.349 . S
C204 H198 0.950 1_565 S
C204 C205 1.327 . S
C205 H199 0.950 . S
C205 C204 1.327 . S
C205 C209 1.429 . S
C206 C189 1.574 . S
C206 H200 0.949 . S
C206 C210 1.368 . S
C207 C188 1.429 . S
C207 C201 1.429 . S
C207 C208 1.523 . S
C208 C189 1.368 1_554 S
C208 C202 1.368 . S
C208 C207 1.523 . S
C209 C193 1.429 . S
C209 C205 1.429 . S
C209 C210 1.523 . S
C210 C194 1.399 . S
C210 C206 1.368 . S
C210 C209 1.523 . S
H211 C186 0.950 . S
H212 C188 0.950 . S
H213 C189 0.949 . S
H214 C191 0.950 . S
H215 C193 0.950 . S
C216 C217 1.349 . S
C216 C218 1.327 . S
C216 H241 0.950 . S
C217 C216 1.349 . S
C217 C233 1.349 . S
C218 C216 1.327 . S
C218 C237 1.429 . S
C218 H242 0.950 1_554 S
C219 C236 1.574 . S
C219 C238 1.368 . S
C219 H243 0.949 . S
H220 C224 0.949 . S
C221 C222 1.349 . S
C221 C223 1.327 . S
C221 H244 0.950 . S
C222 C221 1.349 . S
C222 C234 1.349 . S
C223 C221 1.327 . S
C223 C239 1.429 . S
C223 H245 0.950 . S
C224 H220 0.949 . S
C224 C232 1.574 . S
C224 C240 1.368 . S
H225 C233 0.950 . S
H226 C231 0.950 . S
H227 C232 0.949 . S
H228 C234 0.950 . S
H229 C235 0.950 . S
H230 C236 0.949 . S
C231 H226 0.950 . S
C231 C233 1.327 . S
C231 C237 1.429 . S
C232 C224 1.574 . S
C232 H227 0.949 . S
C232 C238 1.368 1_556 S
C233 C217 1.349 . S
C233 H225 0.950 . S
C233 C231 1.327 . S
C234 C222 1.349 . S
C234 H228 0.950 . S
C234 C235 1.327 . S
C235 H229 0.950 . S
C235 C234 1.327 . S
C235 C239 1.429 . S
C236 C219 1.574 . S
C236 H230 0.949 . S
C236 C240 1.368 1_554 S
C237 C218 1.429 . S
C237 C231 1.429 . S
C237 C238 1.523 . S
C238 C219 1.368 . S
C238 C232 1.368 1_554 S
C238 C237 1.523 . S
C239 C223 1.429 . S
C239 C235 1.429 . S
C239 C240 1.523 . S
C240 C224 1.368 . S
C240 C236 1.368 1_556 S
C240 C239 1.523 . S
H241 C216 0.950 . S
H242 C218 0.950 1_556 S
H243 C219 0.949 . S
H244 C221 0.950 . S
H245 C223 0.950 . S
C246 C247 1.349 . S
C246 C248 1.327 . S
C246 H271 0.950 . S
C247 C246 1.349 . S
C247 C263 1.349 . S
C248 C246 1.327 . S
C248 C267 1.429 . S
C248 H272 0.950 . S
C249 C266 1.574 . S
C249 C268 1.368 . S
C249 H273 0.949 . S
H250 C254 0.949 . S
C251 C252 1.349 . S
C251 C253 1.327 . S
C251 H274 0.950 . S
C252 C251 1.349 . S
C252 C264 1.349 . S
C253 C251 1.327 . S
C253 C269 1.429 . S
C253 H275 0.950 . S
C254 H250 0.949 . S
C254 C262 1.574 . S
C254 C270 1.368 . S
H255 C263 0.950 . S
H256 C261 0.950 . S
H257 C262 0.949 . S
H258 C264 0.950 . S
H259 C265 0.950 . S
H260 C266 0.949 . S
C261 H256 0.950 . S
C261 C263 1.327 . S
C261 C267 1.429 . S
C262 C254 1.574 . S
C262 H257 0.949 . S
C262 C268 1.368 . S
C263 C247 1.349 . S
C263 H255 0.950 . S
C263 C261 1.327 . S
C264 C252 1.349 . S
C264 H258 0.950 . S
C264 C265 1.327 . S
C265 H259 0.950 . S
C265 C264 1.327 . S
C265 C269 1.429 . S
C266 C249 1.574 . S
C266 H260 0.949 . S
C266 C270 1.368 . S
C267 C248 1.429 . S
C267 C261 1.429 . S
C267 C268 1.523 . S
C268 C249 1.368 . S
C268 C262 1.368 . S
C268 C267 1.523 . S
C269 C253 1.429 . S
C269 C265 1.429 . S
C269 C270 1.523 . S
C270 C254 1.368 . S
C270 C266 1.368 . S
C270 C269 1.523 . S
H271 C246 0.950 . S
H272 C248 0.950 . S
H273 C249 0.949 . S
H274 C251 0.950 . S
H275 C253 0.950 . S
C276 C277 1.349 . S
C276 C278 1.327 . S
C276 H301 0.950 . S
C277 C276 1.349 . S
C277 C293 1.349 . S
C278 C276 1.327 . S
C278 C297 1.429 . S
C278 H302 0.950 . S
C279 C296 1.574 . S
C279 C298 1.368 . S
C279 H303 0.949 . S
H280 C284 0.949 . S
C281 C282 1.349 . S
C281 C283 1.327 . S
C281 H304 0.950 . S
C282 C281 1.349 . S
C282 C294 1.349 . S
C283 C281 1.327 . S
C283 C299 1.429 . S
C283 H305 0.950 . S
C284 H280 0.949 . S
C284 C292 1.574 . S
C284 C300 1.368 . S
H285 C293 0.950 . S
H286 C291 0.950 . S
H287 C292 0.949 . S
H288 C294 0.950 1_545 S
H289 C295 0.950 . S
H290 C296 0.949 . S
C291 H286 0.950 . S
C291 C293 1.327 . S
C291 C297 1.429 . S
C292 C284 1.574 . S
C292 H287 0.949 . S
C292 C298 1.368 . S
C293 C277 1.349 . S
C293 H285 0.950 . S
C293 C291 1.327 . S
C294 C282 1.349 . S
C294 H288 0.950 1_565 S
C294 C295 1.327 . S
C295 H289 0.950 . S
C295 C294 1.327 . S
C295 C299 1.429 . S
C296 C279 1.574 . S
C296 H290 0.949 . S
C296 C300 1.368 . S
C297 C278 1.429 . S
C297 C291 1.429 . S
C297 C298 1.523 . S
C298 C279 1.368 . S
C298 C292 1.368 . S
C298 C297 1.523 . S
C299 C283 1.429 . S
C299 C295 1.429 . S
C299 C300 1.523 . S
C300 C284 1.368 . S
C300 C296 1.368 . S
C300 C299 1.523 . S
H301 C276 0.950 . S
H302 C278 0.950 . S
H303 C279 0.949 . S
H304 C281 0.950 . S
H305 C283 0.950 . S
C306 C307 1.349 . S
C306 C308 1.327 . S
C306 H331 0.950 1_455 S
C307 C306 1.349 . S
C307 C323 1.349 . S
C308 C306 1.327 . S
C308 C327 1.429 . S
C308 H332 0.950 . S
C309 C326 1.574 . S
C309 C328 1.368 . S
C309 H333 0.949 . S
H310 C314 0.949 . S
C311 C312 1.349 . S
C311 C313 1.327 . S
C311 H334 0.950 . S
C312 C311 1.349 . S
C312 C324 1.349 . S
C313 C311 1.327 . S
C313 C329 1.429 . S
C313 H335 0.950 . S
C314 H310 0.949 . S
C314 C322 1.574 . S
C314 C330 1.368 . S
H315 C323 0.950 . S
H316 C321 0.950 . S
H317 C322 0.949 . S
H318 C324 0.950 . S
H319 C325 0.950 . S
H320 C326 0.949 . S
C321 H316 0.950 . S
C321 C323 1.327 . S
C321 C327 1.429 . S
C322 C314 1.574 . S
C322 H317 0.949 . S
C322 C328 1.368 . S
C323 C307 1.349 . S
C323 H315 0.950 . S
C323 C321 1.327 . S
C324 C312 1.349 . S
C324 H318 0.950 . S
C324 C325 1.327 . S
C325 H319 0.950 . S
C325 C324 1.327 . S
C325 C329 1.429 . S
C326 C309 1.574 . S
C326 H320 0.949 . S
C326 C330 1.368 . S
C327 C308 1.429 . S
C327 C321 1.429 . S
C327 C328 1.523 . S
C328 C309 1.368 . S
C328 C322 1.368 . S
C328 C327 1.523 . S
C329 C313 1.429 . S
C329 C325 1.429 . S
C329 C330 1.523 . S
C330 C314 1.368 . S
C330 C326 1.368 . S
C330 C329 1.523 . S
H331 C306 0.950 1_655 S
H332 C308 0.950 . S
H333 C309 0.949 . S
H334 C311 0.950 . S
H335 C313 0.950 . S
C336 C337 1.349 . S
C336 C338 1.327 . S
C336 H361 0.950 . S
C337 C336 1.349 . S
C337 C353 1.349 . S
C338 C336 1.327 . S
C338 C357 1.429 . S
C338 H362 0.950 . S
C339 C356 1.574 . S
C339 C358 1.368 . S
C339 H363 0.949 . S
H340 C344 0.949 . S
C341 C342 1.349 . S
C341 C343 1.327 . S
C341 H364 0.950 . S
C342 C341 1.349 . S
C342 C354 1.349 . S
C343 C341 1.327 . S
C343 C359 1.429 . S
C343 H365 0.950 . S
C344 H340 0.949 . S
C344 C352 1.574 1_556 S
C344 C360 1.368 . S
H345 C353 0.950 . S
H346 C351 0.950 . S
H347 C352 0.949 . S
H348 C354 0.950 . S
H349 C355 0.950 . S
H350 C356 0.949 . S
C351 H346 0.950 . S
C351 C353 1.327 . S
C351 C357 1.429 . S
C352 C344 1.574 1_554 S
C352 H347 0.949 . S
C352 C358 1.368 . S
C353 C337 1.349 . S
C353 H345 0.950 . S
C353 C351 1.327 . S
C354 C342 1.349 . S
C354 H348 0.950 . S
C354 C355 1.327 . S
C355 H349 0.950 . S
C355 C354 1.327 . S
C355 C359 1.429 . S
C356 C339 1.574 . S
C356 H350 0.949 . S
C356 C360 1.368 1_554 S
C357 C338 1.429 . S
C357 C351 1.429 . S
C357 C358 1.523 . S
C358 C339 1.368 . S
C358 C352 1.368 . S
C358 C357 1.523 . S
C359 C343 1.429 . S
C359 C355 1.429 . S
C359 C360 1.523 . S
C360 C344 1.368 . S
C360 C356 1.368 1_556 S
C360 C359 1.523 . S
H361 C336 0.950 . S
H362 C338 0.950 . S
H363 C339 0.949 . S
H364 C341 0.950 . S
H365 C343 0.950 . S
C366 C367 1.349 . S
C366 C368 1.327 . S
C366 H391 0.950 . S
C367 C366 1.349 . S
C367 C383 1.349 . S
C368 C366 1.327 . S
C368 C387 1.429 . S
C368 H392 0.950 . S
C369 C386 1.574 . S
C369 C388 1.368 1_554 S
C369 H393 0.949 . S
H370 C374 0.949 . S
C371 C372 1.349 . S
C371 C373 1.327 . S
C371 H394 0.950 . S
C372 C371 1.349 . S
C372 C384 1.349 . S
C373 C371 1.327 . S
C373 C389 1.429 . S
C373 H395 0.950 . S
C374 H370 0.949 . S
C374 C382 1.574 . S
C374 C390 1.368 1_556 S
H375 C383 0.950 . S
H376 C381 0.950 1_554 S
H377 C382 0.949 . S
H378 C384 0.950 . S
H379 C385 0.950 . S
H380 C386 0.949 . S
C381 H376 0.950 1_556 S
C381 C383 1.327 . S
C381 C387 1.429 . S
C382 C374 1.574 . S
C382 H377 0.949 . S
C382 C388 1.368 . S
C383 C367 1.349 . S
C383 H375 0.950 . S
C383 C381 1.327 . S
C384 C372 1.349 . S
C384 H378 0.950 . S
C384 C385 1.327 . S
C385 H379 0.950 . S
C385 C384 1.327 . S
C385 C389 1.429 . S
C386 C369 1.574 . S
C386 H380 0.949 . S
C386 C390 1.368 . S
C387 C368 1.429 . S
C387 C381 1.429 . S
C387 C388 1.523 . S
C388 C369 1.368 1_556 S
C388 C382 1.368 . S
C388 C387 1.523 . S
C389 C373 1.429 . S
C389 C385 1.429 . S
C389 C390 1.523 . S
C390 C374 1.368 1_554 S
C390 C386 1.368 . S
C390 C389 1.523 . S
H391 C366 0.950 . S
H392 C368 0.950 . S
H393 C369 0.949 . S
H394 C371 0.950 . S
H395 C373 0.950 . S
C396 C397 1.349 . S
C396 C398 1.327 . S
C396 H421 0.953 1_655 S
C397 C396 1.349 . S
C397 C413 1.349 . S
C398 C396 1.327 . S
C398 C417 1.429 . S
C398 H422 0.950 . S
C399 C416 1.574 . S
C399 C418 1.368 . S
C399 H423 0.949 . S
H400 C404 0.949 . S
C401 C402 1.349 . S
C401 C403 1.327 . S
C401 H424 0.950 . S
C402 C401 1.349 . S
C402 C414 1.349 . S
C403 C401 1.327 . S
C403 C419 1.429 . S
C403 H425 0.950 . S
C404 H400 0.949 . S
C404 C412 1.574 1_556 S
C404 C420 1.368 . S
H405 C413 0.950 . S
H406 C411 0.950 . S
H407 C412 0.949 . S
H408 C414 0.950 . S
H409 C415 0.950 . S
H410 C416 0.949 . S
C411 H406 0.950 . S
C411 C413 1.327 . S
C411 C417 1.429 . S
C412 C404 1.574 1_554 S
C412 H407 0.949 . S
C412 C418 1.368 . S
C413 C397 1.349 . S
C413 H405 0.950 . S
C413 C411 1.327 . S
C414 C402 1.349 . S
C414 H408 0.950 . S
C414 C415 1.327 . S
C415 H409 0.950 . S
C415 C414 1.327 . S
C415 C419 1.429 . S
C416 C399 1.574 . S
C416 H410 0.949 . S
C416 C420 1.368 1_554 S
C417 C398 1.429 . S
C417 C411 1.429 . S
C417 C418 1.523 . S
C418 C399 1.368 . S
C418 C412 1.368 . S
C418 C417 1.523 . S
C419 C403 1.429 . S
C419 C415 1.429 . S
C419 C420 1.523 . S
C420 C404 1.368 . S
C420 C416 1.368 1_556 S
C420 C419 1.523 . S
H421 C396 0.953 1_455 S
H422 C398 0.950 . S
H423 C399 0.949 . S
H424 C401 0.950 . S
H425 C403 0.950 . S
C426 C427 1.349 . S
C426 C428 1.327 . S
C426 H451 0.950 . S
C427 C426 1.349 . S
C427 C443 1.349 . S
C428 C426 1.327 . S
C428 C447 1.429 . S
C428 H452 0.950 . S
C429 C446 1.574 . S
C429 C448 1.368 . S
C429 H453 0.949 . S
H430 C434 0.949 . S
C431 C432 1.349 . S
C431 C433 1.327 . S
C431 H454 0.950 . S
C432 C431 1.349 . S
C432 C444 1.349 . S
C433 C431 1.327 . S
C433 C449 1.429 . S
C433 H455 0.950 . S
C434 H430 0.949 . S
C434 C442 1.574 . S
C434 C450 1.368 . S
H435 C443 0.950 . S
H436 C441 0.950 . S
H437 C442 0.949 . S
H438 C444 0.950 . S
H439 C445 0.950 . S
H440 C446 0.949 . S
C441 H436 0.950 . S
C441 C443 1.327 . S
C441 C447 1.429 . S
C442 C434 1.574 . S
C442 H437 0.949 . S
C442 C448 1.368 . S
C443 C427 1.349 . S
C443 H435 0.950 . S
C443 C441 1.327 . S
C444 C432 1.349 . S
C444 H438 0.950 . S
C444 C445 1.327 . S
C445 H439 0.950 . S
C445 C444 1.327 . S
C445 C449 1.429 . S
C446 C429 1.574 . S
C446 H440 0.949 . S
C446 C450 1.368 . S
C447 C428 1.429 . S
C447 C441 1.429 . S
C447 C448 1.523 . S
C448 C429 1.368 . S
C448 C442 1.368 . S
C448 C447 1.523 . S
C449 C433 1.429 . S
C449 C445 1.429 . S
C449 C450 1.523 . S
C450 C434 1.368 . S
C450 C446 1.368 . S
C450 C449 1.523 . S
H451 C426 0.950 . S
H452 C428 0.950 . S
H453 C429 0.949 . S
H454 C431 0.950 . S
H455 C433 0.950 . S
C456 C457 1.349 . S
C456 C458 1.327 . S
C456 H481 0.950 . S
C457 C456 1.349 . S
C457 C473 1.349 . S
C458 C456 1.327 . S
C458 C477 1.429 . S
C458 H482 0.950 . S
C459 C476 1.574 . S
C459 C478 1.368 . S
C459 H483 0.949 . S
H460 C464 0.949 . S
C461 C462 1.349 . S
C461 C463 1.327 . S
C461 H484 0.950 . S
C462 C461 1.349 . S
C462 C474 1.349 . S
C463 C461 1.327 . S
C463 C479 1.429 . S
C463 H485 0.950 . S
C464 H460 0.949 . S
C464 C472 1.574 . S
C464 C480 1.368 . S
H465 C473 0.950 . S
H466 C471 0.950 . S
H467 C472 0.949 . S
H468 C474 0.950 . S
H469 C475 0.950 . S
H470 C476 0.949 . S
C471 H466 0.950 . S
C471 C473 1.327 . S
C471 C477 1.429 . S
C472 C464 1.574 . S
C472 H467 0.949 . S
C472 C478 1.368 . S
C473 C457 1.349 . S
C473 H465 0.950 . S
C473 C471 1.327 . S
C474 C462 1.349 . S
C474 H468 0.950 . S
C474 C475 1.327 . S
C475 H469 0.950 . S
C475 C474 1.327 . S
C475 C479 1.429 . S
C476 C459 1.574 . S
C476 H470 0.949 . S
C476 C480 1.368 . S
C477 C458 1.429 . S
C477 C471 1.429 . S
C477 C478 1.523 . S
C478 C459 1.368 . S
C478 C472 1.368 . S
C478 C477 1.523 . S
C479 C463 1.429 . S
C479 C475 1.429 . S
C479 C480 1.523 . S
C480 C464 1.368 . S
C480 C476 1.368 . S
C480 C479 1.523 . S
H481 C456 0.950 . S
H482 C458 0.950 . S
H483 C459 0.949 . S
H484 C461 0.950 . S
H485 C463 0.950 . S
C486 C487 1.349 . S
C486 C488 1.327 . S
C486 H511 0.950 . S
C487 C486 1.349 . S
C487 C503 1.349 . S
C488 C486 1.327 . S
C488 C507 1.429 . S
C488 H512 0.950 . S
C489 C506 1.574 . S
C489 C508 1.368 . S
C489 H513 0.949 . S
H490 C494 0.949 . S
C491 C492 1.349 . S
C491 C493 1.327 . S
C491 H514 0.950 . S
C492 C491 1.349 . S
C492 C504 1.349 . S
C493 C491 1.327 . S
C493 C509 1.429 . S
C493 H515 0.950 . S
C494 H490 0.949 . S
C494 C502 1.574 . S
C494 C510 1.368 . S
H495 C503 0.950 . S
H496 C501 0.950 . S
H497 C502 0.949 . S
H498 C504 0.950 . S
H499 C505 0.950 . S
H500 C506 0.949 . S
C501 H496 0.950 . S
C501 C503 1.327 . S
C501 C507 1.429 . S
C502 C494 1.574 . S
C502 H497 0.949 . S
C502 C508 1.368 . S
C503 C487 1.349 . S
C503 H495 0.950 . S
C503 C501 1.327 . S
C504 C492 1.349 . S
C504 H498 0.950 . S
C504 C505 1.327 . S
C505 H499 0.950 . S
C505 C504 1.327 . S
C505 C509 1.429 . S
C506 C489 1.574 . S
C506 H500 0.949 . S
C506 C510 1.368 . S
C507 C488 1.429 . S
C507 C501 1.429 . S
C507 C508 1.523 . S
C508 C489 1.368 . S
C508 C502 1.368 . S
C508 C507 1.523 . S
C509 C493 1.429 . S
C509 C505 1.429 . S
C509 C510 1.523 . S
C510 C494 1.368 . S
C510 C506 1.368 . S
C510 C509 1.523 . S
H511 C486 0.950 . S
H512 C488 0.950 . S
H513 C489 0.949 . S
H514 C491 0.950 . S
H515 C493 0.950 . S
C516 C517 1.349 . S
C516 C518 1.327 . S
C516 H541 0.950 . S
C517 C516 1.349 . S
C517 C533 1.349 . S
C518 C516 1.327 . S
C518 C537 1.429 . S
C518 H542 0.950 . S
C519 C536 1.574 . S
C519 C538 1.368 . S
C519 H543 0.949 . S
H520 C524 0.949 . S
C521 C522 1.349 . S
C521 C523 1.327 . S
C521 H544 0.950 . S
C522 C521 1.349 . S
C522 C534 1.349 . S
C523 C521 1.327 . S
C523 C539 1.429 . S
C523 H545 0.950 . S
C524 H520 0.949 . S
C524 C532 1.574 . S
C524 C540 1.368 . S
H525 C533 0.950 . S
H526 C531 0.950 . S
H527 C532 0.949 . S
H528 C534 0.950 . S
H529 C535 0.950 . S
H530 C536 0.949 . S
C531 H526 0.950 . S
C531 C533 1.327 . S
C531 C537 1.429 . S
C532 C524 1.574 . S
C532 H527 0.949 . S
C532 C538 1.368 . S
C533 C517 1.349 . S
C533 H525 0.950 . S
C533 C531 1.327 . S
C534 C522 1.349 . S
C534 H528 0.950 . S
C534 C535 1.327 . S
C535 H529 0.950 . S
C535 C534 1.327 . S
C535 C539 1.429 . S
C536 C519 1.574 . S
C536 H530 0.949 . S
C536 C540 1.368 . S
C537 C518 1.429 . S
C537 C531 1.429 . S
C537 C538 1.523 . S
C538 C519 1.368 . S
C538 C532 1.368 . S
C538 C537 1.523 . S
C539 C523 1.429 . S
C539 C535 1.429 . S
C539 C540 1.523 . S
C540 C524 1.368 . S
C540 C536 1.368 . S
C540 C539 1.523 . S
H541 C516 0.950 . S
H542 C518 0.950 . S
H543 C519 0.949 . S
H544 C521 0.950 . S
H545 C523 0.950 . S
C546 C547 1.349 . S
C546 C548 1.327 . S
C546 H571 0.950 . S
C547 C546 1.349 . S
C547 C563 1.349 . S
C548 C546 1.327 . S
C548 C567 1.429 . S
C548 H572 0.950 . S
C549 C566 1.574 . S
C549 C568 1.368 . S
C549 H573 0.949 . S
H550 C554 0.949 . S
C551 C552 1.349 . S
C551 C553 1.327 . S
C551 H574 0.950 . S
C552 C551 1.349 . S
C552 C564 1.349 . S
C553 C551 1.327 . S
C553 C569 1.429 . S
C553 H575 0.950 . S
C554 H550 0.949 . S
C554 C562 1.574 . S
C554 C570 1.368 . S
H555 C563 0.950 . S
H556 C561 0.950 . S
H557 C562 0.949 . S
H558 C564 0.950 . S
H559 C565 0.950 . S
H560 C566 0.949 . S
C561 H556 0.950 . S
C561 C563 1.327 . S
C561 C567 1.429 . S
C562 C554 1.574 . S
C562 H557 0.949 . S
C562 C568 1.368 . S
C563 C547 1.349 . S
C563 H555 0.950 . S
C563 C561 1.327 . S
C564 C552 1.349 . S
C564 H558 0.950 . S
C564 C565 1.327 . S
C565 H559 0.950 . S
C565 C564 1.327 . S
C565 C569 1.429 . S
C566 C549 1.574 . S
C566 H560 0.949 . S
C566 C570 1.368 . S
C567 C548 1.429 . S
C567 C561 1.429 . S
C567 C568 1.523 . S
C568 C549 1.368 . S
C568 C562 1.368 . S
C568 C567 1.523 . S
C569 C553 1.429 . S
C569 C565 1.429 . S
C569 C570 1.523 . S
C570 C554 1.368 . S
C570 C566 1.368 . S
C570 C569 1.523 . S
H571 C546 0.950 . S
H572 C548 0.950 . S
H573 C549 0.949 . S
H574 C551 0.950 . S
H575 C553 0.950 . S
C576 C577 1.349 . S
C576 C578 1.327 . S
C576 H601 0.950 . S
C577 C576 1.349 . S
C577 C593 1.349 . S
C578 C576 1.327 . S
C578 C597 1.429 . S
C578 H602 0.950 . S
C579 C596 1.574 . S
C579 C598 1.368 . S
C579 H603 0.949 . S
H580 C584 0.949 . S
C581 C582 1.349 . S
C581 C583 1.327 . S
C581 H604 0.950 . S
C582 C581 1.349 . S
C582 C594 1.349 . S
C583 C581 1.327 . S
C583 C599 1.429 . S
C583 H605 0.950 . S
C584 H580 0.949 . S
C584 C592 1.574 . S
C584 C600 1.368 . S
H585 C593 0.950 . S
H586 C591 0.950 . S
H587 C592 0.949 . S
H588 C594 0.950 . S
H589 C595 0.950 . S
H590 C596 0.949 . S
C591 H586 0.950 . S
C591 C593 1.327 . S
C591 C597 1.429 . S
C592 C584 1.574 . S
C592 H587 0.949 . S
C592 C598 1.368 . S
C593 C577 1.349 . S
C593 H585 0.950 . S
C593 C591 1.327 . S
C594 C582 1.349 . S
C594 H588 0.950 . S
C594 C595 1.327 . S
C595 H589 0.950 . S
C595 C594 1.327 . S
C595 C599 1.429 . S
C596 C579 1.574 . S
C596 H590 0.949 . S
C596 C600 1.368 . S
C597 C578 1.429 . S
C597 C591 1.429 . S
C597 C598 1.523 . S
C598 C579 1.368 . S
C598 C592 1.368 . S
C598 C597 1.523 . S
C599 C583 1.429 . S
C599 C595 1.429 . S
C599 C600 1.523 . S
C600 C584 1.368 . S
C600 C596 1.368 . S
C600 C599 1.523 . S
H601 C576 0.950 . S
H602 C578 0.950 . S
H603 C579 0.949 . S
H604 C581 0.950 . S
H605 C583 0.950 . S
C606 C607 1.349 . S
C606 C608 1.327 . S
C606 H631 0.950 . S
C607 C606 1.349 . S
C607 C623 1.349 . S
C608 C606 1.327 . S
C608 C627 1.429 . S
C608 H632 0.950 . S
C609 C626 1.574 . S
C609 C628 1.368 . S
C609 H633 0.949 . S
H610 C614 0.949 . S
C611 C612 1.349 . S
C611 C613 1.327 . S
C611 H634 0.950 . S
C612 C611 1.349 . S
C612 C624 1.349 . S
C613 C611 1.327 . S
C613 C629 1.429 . S
C613 H635 0.950 . S
C614 H610 0.949 . S
C614 C622 1.574 . S
C614 C630 1.368 . S
H615 C623 0.950 . S
H616 C621 0.950 . S
H617 C622 0.949 . S
H618 C624 0.950 . S
H619 C625 0.950 . S
H620 C626 0.949 . S
C621 H616 0.950 . S
C621 C623 1.327 . S
C621 C627 1.429 . S
C622 C614 1.574 . S
C622 H617 0.949 . S
C622 C628 1.368 . S
C623 C607 1.349 . S
C623 H615 0.950 . S
C623 C621 1.327 . S
C624 C612 1.349 . S
C624 H618 0.950 . S
C624 C625 1.327 . S
C625 H619 0.950 . S
C625 C624 1.327 . S
C625 C629 1.429 . S
C626 C609 1.574 . S
C626 H620 0.949 . S
C626 C630 1.368 . S
C627 C608 1.429 . S
C627 C621 1.429 . S
C627 C628 1.523 . S
C628 C609 1.368 . S
C628 C622 1.368 . S
C628 C627 1.523 . S
C629 C613 1.429 . S
C629 C625 1.429 . S
C629 C630 1.523 . S
C630 C614 1.368 . S
C630 C626 1.368 . S
C630 C629 1.523 . S
H631 C606 0.950 . S
H632 C608 0.950 . S
H633 C609 0.949 . S
H634 C611 0.950 . S
H635 C613 0.950 . S
C636 C637 1.349 . S
C636 C638 1.327 . S
C636 H661 0.950 . S
C637 C636 1.349 . S
C637 C653 1.349 . S
C638 C636 1.327 . S
C638 C657 1.429 . S
C638 H662 0.950 . S
C639 C656 1.574 . S
C639 C658 1.368 . S
C639 H663 0.949 . S
H640 C644 0.949 . S
C641 C642 1.349 . S
C641 C643 1.327 . S
C641 H664 0.950 . S
C642 C641 1.349 . S
C642 C654 1.349 . S
C643 C641 1.327 . S
C643 C659 1.429 . S
C643 H665 0.950 . S
C644 H640 0.949 . S
C644 C652 1.574 . S
C644 C660 1.368 . S
H645 C653 0.950 . S
H646 C651 0.950 . S
H647 C652 0.949 . S
H648 C654 0.950 . S
H649 C655 0.950 . S
H650 C656 0.949 . S
C651 H646 0.950 . S
C651 C653 1.327 . S
C651 C657 1.429 . S
C652 C644 1.574 . S
C652 H647 0.949 . S
C652 C658 1.368 . S
C653 C637 1.349 . S
C653 H645 0.950 . S
C653 C651 1.327 . S
C654 C642 1.349 . S
C654 H648 0.950 . S
C654 C655 1.327 . S
C655 H649 0.950 . S
C655 C654 1.327 . S
C655 C659 1.429 . S
C656 C639 1.574 . S
C656 H650 0.949 . S
C656 C660 1.368 . S
C657 C638 1.429 . S
C657 C651 1.429 . S
C657 C658 1.523 . S
C658 C639 1.368 . S
C658 C652 1.368 . S
C658 C657 1.523 . S
C659 C643 1.429 . S
C659 C655 1.429 . S
C659 C660 1.523 . S
C660 C644 1.368 . S
C660 C656 1.368 . S
C660 C659 1.523 . S
H661 C636 0.950 . S
H662 C638 0.950 . S
H663 C639 0.949 . S
H664 C641 0.950 . S
H665 C643 0.950 . S
C666 C667 1.349 . S
C666 C668 1.327 . S
C666 H691 0.950 . S
C667 C666 1.349 . S
C667 C683 1.349 . S
C668 C666 1.327 . S
C668 C687 1.429 . S
C668 H692 0.950 . S
C669 C686 1.574 . S
C669 C688 1.368 . S
C669 H693 0.949 . S
H670 C674 0.949 . S
C671 C672 1.349 . S
C671 C673 1.327 . S
C671 H694 0.950 . S
C672 C671 1.349 . S
C672 C684 1.349 . S
C673 C671 1.327 . S
C673 C689 1.429 . S
C673 H695 0.950 . S
C674 H670 0.949 . S
C674 C682 1.574 . S
C674 C690 1.368 . S
H675 C683 0.950 . S
H676 C681 0.950 . S
H677 C682 0.949 . S
H678 C684 0.950 . S
H679 C685 0.950 . S
H680 C686 0.949 . S
C681 H676 0.950 . S
C681 C683 1.327 . S
C681 C687 1.429 . S
C682 C674 1.574 . S
C682 H677 0.949 . S
C682 C688 1.368 . S
C683 C667 1.349 . S
C683 H675 0.950 . S
C683 C681 1.327 . S
C684 C672 1.349 . S
C684 H678 0.950 . S
C684 C685 1.327 . S
C685 H679 0.950 . S
C685 C684 1.327 . S
C685 C689 1.429 . S
C686 C669 1.574 . S
C686 H680 0.949 . S
C686 C690 1.368 . S
C687 C668 1.429 . S
C687 C681 1.429 . S
C687 C688 1.523 . S
C688 C669 1.368 . S
C688 C682 1.368 . S
C688 C687 1.523 . S
C689 C673 1.429 . S
C689 C685 1.429 . S
C689 C690 1.523 . S
C690 C674 1.368 . S
C690 C686 1.368 . S
C690 C689 1.523 . S
H691 C666 0.950 . S
H692 C668 0.950 . S
H693 C669 0.949 . S
H694 C671 0.950 . S
H695 C673 0.950 . S
C696 C697 1.349 . S
C696 C698 1.327 . S
C696 H721 0.950 1_455 S
C697 C696 1.349 . S
C697 C713 1.349 . S
C698 C696 1.327 . S
C698 C717 1.429 . S
C698 H722 0.950 1_455 S
C699 C716 1.574 . S
C699 C718 1.368 . S
C699 H723 0.949 . S
H700 C704 0.949 . S
C701 C702 1.349 . S
C701 C703 1.327 . S
C701 H724 0.950 1_655 S
C702 C701 1.349 . S
C702 C714 1.349 . S
C703 C701 1.327 . S
C703 C719 1.429 . S
C703 H725 0.950 1_655 S
C704 H700 0.949 . S
C704 C712 1.574 . S
C704 C720 1.368 . S
H705 C713 0.950 . S
H706 C711 0.950 . S
H707 C712 0.949 . S
H708 C714 0.950 . S
H709 C715 0.950 . S
H710 C716 0.949 . S
C711 H706 0.950 . S
C711 C713 1.327 . S
C711 C717 1.429 . S
C712 C704 1.574 . S
C712 H707 0.949 . S
C712 C718 1.368 1_656 S
C713 C697 1.349 . S
C713 H705 0.950 . S
C713 C711 1.327 . S
C714 C702 1.349 . S
C714 H708 0.950 . S
C714 C715 1.327 . S
C715 H709 0.950 . S
C715 C714 1.327 . S
C715 C719 1.429 . S
C716 C699 1.574 . S
C716 H710 0.949 . S
C716 C720 1.368 1_454 S
C717 C698 1.429 . S
C717 C711 1.429 . S
C717 C718 1.523 . S
C718 C699 1.368 . S
C718 C712 1.368 1_454 S
C718 C717 1.523 . S
C719 C703 1.429 . S
C719 C715 1.429 . S
C719 C720 1.523 . S
C720 C704 1.368 . S
C720 C716 1.368 1_656 S
C720 C719 1.523 . S
H721 C696 0.950 1_655 S
H722 C698 0.950 1_655 S
H723 C699 0.949 . S
H724 C701 0.950 1_455 S
H725 C703 0.950 1_455 S
C726 C727 1.349 . S
C726 C728 1.327 . S
C726 H751 0.950 . S
C727 C726 1.349 . S
C727 C743 1.349 . S
C728 C726 1.327 . S
C728 C747 1.429 . S
C728 H752 0.950 . S
C729 C746 1.574 1_554 S
C729 C748 1.368 . S
C729 H753 0.949 . S
H730 C734 0.949 . S
C731 C732 1.349 . S
C731 C733 1.327 . S
C731 H754 0.950 . S
C732 C731 1.349 . S
C732 C744 1.349 . S
C733 C731 1.327 . S
C733 C749 1.429 . S
C733 H755 0.950 . S
C734 H730 0.949 . S
C734 C742 1.574 1_556 S
C734 C750 1.368 . S
H735 C743 0.950 . S
H736 C741 0.950 . S
H737 C742 0.949 . S
H738 C744 0.950 . S
H739 C745 0.950 . S
H740 C746 0.949 . S
C741 H736 0.950 . S
C741 C743 1.327 . S
C741 C747 1.429 . S
C742 C734 1.574 1_554 S
C742 H737 0.949 . S
C742 C748 1.368 . S
C743 C727 1.349 . S
C743 H735 0.950 . S
C743 C741 1.327 . S
C744 C732 1.349 . S
C744 H738 0.950 . S
C744 C745 1.327 . S
C745 H739 0.950 . S
C745 C744 1.327 . S
C745 C749 1.429 . S
C746 C729 1.574 1_556 S
C746 H740 0.949 . S
C746 C750 1.368 . S
C747 C728 1.429 . S
C747 C741 1.429 . S
C747 C748 1.523 . S
C748 C729 1.368 . S
C748 C742 1.368 . S
C748 C747 1.523 . S
C749 C733 1.429 . S
C749 C745 1.429 . S
C749 C750 1.523 . S
C750 C734 1.368 . S
C750 C746 1.368 . S
C750 C749 1.523 . S
H751 C726 0.950 . S
H752 C728 0.950 . S
H753 C729 0.949 . S
H754 C731 0.950 . S
H755 C733 0.950 . S
C756 C757 1.349 . S
C756 C758 1.323 . S
C756 H781 0.950 1_565 S
C757 C756 1.349 . S
C757 C773 1.349 . S
C758 C756 1.323 . S
C758 C777 1.452 . S
C758 H782 0.930 1_565 S
C759 C776 1.574 . S
C759 C778 1.368 . S
C759 H783 0.949 . S
H760 C764 0.949 . S
C761 C762 1.349 . S
C761 C763 1.323 . S
C761 H784 0.950 1_545 S
C762 C761 1.349 . S
C762 C774 1.349 . S
C763 C761 1.323 . S
C763 C779 1.452 . S
C763 H785 0.930 1_545 S
C764 H760 0.949 . S
C764 C772 1.574 . S
C764 C780 1.368 . S
H765 C773 0.950 . S
H766 C771 0.950 . S
H767 C772 0.949 . S
H768 C774 0.950 . S
H769 C775 0.950 . S
H770 C776 0.949 . S
C771 H766 0.950 . S
C771 C773 1.327 . S
C771 C777 1.429 . S
C772 C764 1.574 . S
C772 H767 0.949 . S
C772 C778 1.368 1_546 S
C773 C757 1.349 . S
C773 H765 0.950 . S
C773 C771 1.327 . S
C774 C762 1.349 . S
C774 H768 0.950 . S
C774 C775 1.327 . S
C775 H769 0.950 . S
C775 C774 1.327 . S
C775 C779 1.429 . S
C776 C759 1.574 . S
C776 H770 0.949 . S
C776 C780 1.368 1_564 S
C777 C758 1.452 . S
C777 C771 1.429 . S
C777 C778 1.523 . S
C778 C759 1.368 . S
C778 C772 1.368 1_564 S
C778 C777 1.523 . S
C779 C763 1.452 . S
C779 C775 1.429 . S
C779 C780 1.523 . S
C780 C764 1.368 . S
C780 C776 1.368 1_546 S
C780 C779 1.523 . S
H781 C756 0.950 1_545 S
H782 C758 0.930 1_545 S
H783 C759 0.949 . S
H784 C761 0.950 1_565 S
H785 C763 0.930 1_565 S
C786 C787 1.349 . S
C786 C788 1.327 . S
C786 H811 0.950 . S
C787 C786 1.349 . S
C787 C803 1.349 . S
C788 C786 1.327 . S
C788 C807 1.429 . S
C788 H812 0.950 . S
C789 C806 1.574 . S
C789 C808 1.368 1_545 S
C789 H813 0.949 . S
H790 C794 0.949 . S
C791 C792 1.349 . S
C791 C793 1.327 . S
C791 H814 0.950 . S
C792 C791 1.349 . S
C792 C804 1.349 . S
C793 C791 1.327 . S
C793 C809 1.429 . S
C793 H815 0.950 . S
C794 H790 0.949 . S
C794 C802 1.574 . S
C794 C810 1.368 1_565 S
H795 C803 0.950 . S
H796 C801 0.950 1_545 S
H797 C802 0.949 . S
H798 C804 0.950 . S
H799 C805 0.950 1_565 S
H800 C806 0.949 . S
C801 H796 0.950 1_565 S
C801 C803 1.327 . S
C801 C807 1.429 . S
C802 C794 1.574 . S
C802 H797 0.949 . S
C802 C808 1.368 . S
C803 C787 1.349 . S
C803 H795 0.950 . S
C803 C801 1.327 . S
C804 C792 1.349 . S
C804 H798 0.950 . S
C804 C805 1.327 . S
C805 H799 0.950 1_545 S
C805 C804 1.327 . S
C805 C809 1.429 . S
C806 C789 1.574 . S
C806 H800 0.949 . S
C806 C810 1.368 . S
C807 C788 1.429 . S
C807 C801 1.429 . S
C807 C808 1.523 . S
C808 C789 1.368 1_565 S
C808 C802 1.368 . S
C808 C807 1.523 . S
C809 C793 1.429 . S
C809 C805 1.429 . S
C809 C810 1.523 . S
C810 C794 1.368 1_545 S
C810 C806 1.368 . S
C810 C809 1.523 . S
H811 C786 0.950 . S
H812 C788 0.950 . S
H813 C789 0.949 . S
H814 C791 0.950 . S
H815 C793 0.950 . S
C816 C817 1.349 . S
C816 C818 1.327 . S
C816 H841 0.950 . S
C817 C816 1.349 . S
C817 C833 1.349 . S
C818 C816 1.327 . S
C818 C837 1.429 . S
C818 H842 0.950 . S
C819 C836 1.574 . S
C819 C838 1.368 1_455 S
C819 H843 0.949 . S
H820 C824 0.949 . S
C821 C822 1.349 . S
C821 C823 1.327 . S
C821 H844 0.950 . S
C822 C821 1.349 . S
C822 C834 1.349 . S
C823 C821 1.327 . S
C823 C839 1.429 . S
C823 H845 0.950 . S
C824 H820 0.949 . S
C824 C832 1.574 . S
C824 C840 1.368 1_655 S
H825 C833 0.950 . S
H826 C831 0.950 . S
H827 C832 0.949 . S
H828 C834 0.950 . S
H829 C835 0.950 . S
H830 C836 0.949 . S
C831 H826 0.950 . S
C831 C833 1.327 . S
C831 C837 1.429 . S
C832 C824 1.574 . S
C832 H827 0.949 . S
C832 C838 1.368 . S
C833 C817 1.349 . S
C833 H825 0.950 . S
C833 C831 1.327 . S
C834 C822 1.349 . S
C834 H828 0.950 . S
C834 C835 1.327 . S
C835 H829 0.950 . S
C835 C834 1.327 . S
C835 C839 1.429 . S
C836 C819 1.574 . S
C836 H830 0.949 . S
C836 C840 1.368 . S
C837 C818 1.429 . S
C837 C831 1.429 . S
C837 C838 1.523 . S
C838 C819 1.368 1_655 S
C838 C832 1.368 . S
C838 C837 1.523 . S
C839 C823 1.429 . S
C839 C835 1.429 . S
C839 C840 1.523 . S
C840 C824 1.368 1_455 S
C840 C836 1.368 . S
C840 C839 1.523 . S
H841 C816 0.950 . S
H842 C818 0.950 . S
H843 C819 0.949 . S
H844 C821 0.950 . S
H845 C823 0.950 . S
C846 C847 1.349 . S
C846 C848 1.327 . S
C846 H871 0.950 . S
C847 C846 1.349 . S
C847 C863 1.349 . S
C848 C846 1.327 . S
C848 C867 1.429 . S
C848 H872 0.950 . S
C849 C866 1.574 . S
C849 C868 1.368 . S
C849 H873 0.949 . S
H850 C854 0.949 . S
C851 C852 1.349 . S
C851 C853 1.327 . S
C851 H874 0.950 . S
C852 C851 1.349 . S
C852 C864 1.349 . S
C853 C851 1.327 . S
C853 C869 1.429 . S
C853 H875 0.950 . S
C854 H850 0.949 . S
C854 C862 1.574 . S
C854 C870 1.368 . S
H855 C863 0.950 . S
H856 C861 0.950 . S
H857 C862 0.949 . S
H858 C864 0.950 . S
H859 C865 0.950 . S
H860 C866 0.949 . S
C861 H856 0.950 . S
C861 C863 1.327 . S
C861 C867 1.429 . S
C862 C854 1.574 . S
C862 H857 0.949 . S
C862 C868 1.368 . S
C863 C847 1.349 . S
C863 H855 0.950 . S
C863 C861 1.327 . S
C864 C852 1.349 . S
C864 H858 0.950 . S
C864 C865 1.327 . S
C865 H859 0.950 . S
C865 C864 1.327 . S
C865 C869 1.429 . S
C866 C849 1.574 . S
C866 H860 0.949 . S
C866 C870 1.368 . S
C867 C848 1.429 . S
C867 C861 1.429 . S
C867 C868 1.523 . S
C868 C849 1.368 . S
C868 C862 1.368 . S
C868 C867 1.523 . S
C869 C853 1.429 . S
C869 C865 1.429 . S
C869 C870 1.523 . S
C870 C854 1.368 . S
C870 C866 1.368 . S
C870 C869 1.523 . S
H871 C846 0.950 . S
H872 C848 0.950 . S
H873 C849 0.949 . S
H874 C851 0.950 . S
H875 C853 0.950 . S
C157 C8 0.479 . S
C162 C96 0.515 . S
C187 C21 0.479 . S
C192 C109 0.515 . S
C217 C34 0.479 . S
C222 C83 0.515 . S
C247 C148 0.515 . S
C252 C47 0.479 . S
C277 C60 0.479 . S
C282 C122 0.515 . S
C307 C135 0.515 . S
C312 C73 0.479 . S
C337 C18 0.515 . S
C342 C86 0.479 . S
C367 C99 0.479 . S
C372 C31 0.515 . S
C397 C5 0.515 . S
C402 C112 0.479 . S
C427 C125 0.479 . S
C432 C70 0.515 . S
C457 C138 0.479 . S
C462 C44 0.515 . S
C487 C57 0.515 . S
C492 C151 0.479 . S
C517 C65 1.687 . S
C522 C0 1.687 . S
C547 C13 1.687 . S
C552 C39 1.687 . S
C577 C26 1.687 . S
C582 C52 1.687 . S
C607 C78 1.687 . S
C612 C143 1.687 . S
C637 C91 1.687 . S
C642 C117 1.687 . S
C667 C104 1.687 . S
C672 C130 1.687 . S
C697 C10 1.482 . S
C702 C88 1.482 . S
C727 C23 1.482 . S
C732 C101 1.482 . S
C757 C36 1.482 . S
C762 C114 1.482 . S
C787 C49 1.482 . S
C792 C127 1.482 . S
C817 C140 1.482 . S
C822 C62 1.482 . S
C847 C75 1.482 . S
C852 C153 1.482 . S
