# Generated by pormake.
# Topology fno, (5)-cn, num edge types: 1
# Building blocks:
#     Node 0, Type 0, BuildingBlock: XOMCOT_clean_sbu_1, # of connection points: 5
#     Node 1, Type 0, BuildingBlock: XOMCOT_clean_sbu_1, # of connection points: 5
#     Node 2, Type 0, BuildingBlock: XOMCOT_clean_sbu_1, # of connection points: 5
#     Node 3, Type 0, BuildingBlock: XOMCOT_clean_sbu_1, # of connection points: 5
#     Node 4, Type 0, BuildingBlock: XOMCOT_clean_sbu_1, # of connection points: 5
#     Node 5, Type 0, BuildingBlock: XOMCOT_clean_sbu_1, # of connection points: 5
#     Node 6, Type 0, BuildingBlock: XOMCOT_clean_sbu_1, # of connection points: 5
#     Node 7, Type 0, BuildingBlock: XOMCOT_clean_sbu_1, # of connection points: 5
#     Node 8, Type 0, BuildingBlock: XOMCOT_clean_sbu_1, # of connection points: 5
#     Node 9, Type 0, BuildingBlock: XOMCOT_clean_sbu_1, # of connection points: 5
#     Node 10, Type 0, BuildingBlock: XOMCOT_clean_sbu_1, # of connection points: 5
#     Node 11, Type 0, BuildingBlock: XOMCOT_clean_sbu_1, # of connection points: 5
#     Node 12, Type 0, BuildingBlock: XOMCOT_clean_sbu_1, # of connection points: 5
#     Node 13, Type 0, BuildingBlock: XOMCOT_clean_sbu_1, # of connection points: 5
#     Node 14, Type 0, BuildingBlock: XOMCOT_clean_sbu_1, # of connection points: 5
#     Node 15, Type 0, BuildingBlock: XOMCOT_clean_sbu_1, # of connection points: 5
#     Node 16, Type 0, BuildingBlock: XOMCOT_clean_sbu_1, # of connection points: 5
#     Node 17, Type 0, BuildingBlock: XOMCOT_clean_sbu_1, # of connection points: 5
#     Node 18, Type 0, BuildingBlock: XOMCOT_clean_sbu_1, # of connection points: 5
#     Node 19, Type 0, BuildingBlock: XOMCOT_clean_sbu_1, # of connection points: 5
#     Node 20, Type 0, BuildingBlock: XOMCOT_clean_sbu_1, # of connection points: 5
#     Node 21, Type 0, BuildingBlock: XOMCOT_clean_sbu_1, # of connection points: 5
#     Node 22, Type 0, BuildingBlock: XOMCOT_clean_sbu_1, # of connection points: 5
#     Node 23, Type 0, BuildingBlock: XOMCOT_clean_sbu_1, # of connection points: 5
#     Node 24, Type 0, BuildingBlock: XOMCOT_clean_sbu_1, # of connection points: 5
#     Node 25, Type 0, BuildingBlock: XOMCOT_clean_sbu_1, # of connection points: 5
#     Node 26, Type 0, BuildingBlock: XOMCOT_clean_sbu_1, # of connection points: 5
#     Node 27, Type 0, BuildingBlock: XOMCOT_clean_sbu_1, # of connection points: 5
#     Node 28, Type 0, BuildingBlock: XOMCOT_clean_sbu_1, # of connection points: 5
#     Node 29, Type 0, BuildingBlock: XOMCOT_clean_sbu_1, # of connection points: 5
#     Node 30, Type 0, BuildingBlock: XOMCOT_clean_sbu_1, # of connection points: 5
#     Node 31, Type 0, BuildingBlock: XOMCOT_clean_sbu_1, # of connection points: 5
#     Node 32, Type 0, BuildingBlock: XOMCOT_clean_sbu_1, # of connection points: 5
#     Node 33, Type 0, BuildingBlock: XOMCOT_clean_sbu_1, # of connection points: 5
#     Node 34, Type 0, BuildingBlock: XOMCOT_clean_sbu_1, # of connection points: 5
#     Node 35, Type 0, BuildingBlock: XOMCOT_clean_sbu_1, # of connection points: 5
#     Node 36, Type 0, BuildingBlock: XOMCOT_clean_sbu_1, # of connection points: 5
#     Node 37, Type 0, BuildingBlock: XOMCOT_clean_sbu_1, # of connection points: 5
#     Node 38, Type 0, BuildingBlock: XOMCOT_clean_sbu_1, # of connection points: 5
#     Node 39, Type 0, BuildingBlock: XOMCOT_clean_sbu_1, # of connection points: 5
#     Node 40, Type 0, BuildingBlock: XOMCOT_clean_sbu_1, # of connection points: 5
#     Node 41, Type 0, BuildingBlock: XOMCOT_clean_sbu_1, # of connection points: 5
#     Node 42, Type 0, BuildingBlock: XOMCOT_clean_sbu_1, # of connection points: 5
#     Node 43, Type 0, BuildingBlock: XOMCOT_clean_sbu_1, # of connection points: 5
#     Node 44, Type 0, BuildingBlock: XOMCOT_clean_sbu_1, # of connection points: 5
#     Node 45, Type 0, BuildingBlock: XOMCOT_clean_sbu_1, # of connection points: 5
#     Node 46, Type 0, BuildingBlock: XOMCOT_clean_sbu_1, # of connection points: 5
#     Node 47, Type 0, BuildingBlock: XOMCOT_clean_sbu_1, # of connection points: 5
#     Edge 48, Type (0, 0), BuildingBlock: EZIPEK_clean_linker_0, # of connection points: 2
#     Edge 49, Type (0, 0), BuildingBlock: EZIPEK_clean_linker_0, # of connection points: 2
#     Edge 50, Type (0, 0), BuildingBlock: EZIPEK_clean_linker_0, # of connection points: 2
#     Edge 51, Type (0, 0), BuildingBlock: EZIPEK_clean_linker_0, # of connection points: 2
#     Edge 52, Type (0, 0), BuildingBlock: EZIPEK_clean_linker_0, # of connection points: 2
#     Edge 53, Type (0, 0), BuildingBlock: EZIPEK_clean_linker_0, # of connection points: 2
#     Edge 54, Type (0, 0), BuildingBlock: EZIPEK_clean_linker_0, # of connection points: 2
#     Edge 55, Type (0, 0), BuildingBlock: EZIPEK_clean_linker_0, # of connection points: 2
#     Edge 56, Type (0, 0), BuildingBlock: EZIPEK_clean_linker_0, # of connection points: 2
#     Edge 57, Type (0, 0), BuildingBlock: EZIPEK_clean_linker_0, # of connection points: 2
#     Edge 58, Type (0, 0), BuildingBlock: EZIPEK_clean_linker_0, # of connection points: 2
#     Edge 59, Type (0, 0), BuildingBlock: EZIPEK_clean_linker_0, # of connection points: 2
#     Edge 60, Type (0, 0), BuildingBlock: EZIPEK_clean_linker_0, # of connection points: 2
#     Edge 61, Type (0, 0), BuildingBlock: EZIPEK_clean_linker_0, # of connection points: 2
#     Edge 62, Type (0, 0), BuildingBlock: EZIPEK_clean_linker_0, # of connection points: 2
#     Edge 63, Type (0, 0), BuildingBlock: EZIPEK_clean_linker_0, # of connection points: 2
#     Edge 64, Type (0, 0), BuildingBlock: EZIPEK_clean_linker_0, # of connection points: 2
#     Edge 65, Type (0, 0), BuildingBlock: EZIPEK_clean_linker_0, # of connection points: 2
#     Edge 66, Type (0, 0), BuildingBlock: EZIPEK_clean_linker_0, # of connection points: 2
#     Edge 67, Type (0, 0), BuildingBlock: EZIPEK_clean_linker_0, # of connection points: 2
#     Edge 68, Type (0, 0), BuildingBlock: EZIPEK_clean_linker_0, # of connection points: 2
#     Edge 69, Type (0, 0), BuildingBlock: EZIPEK_clean_linker_0, # of connection points: 2
#     Edge 70, Type (0, 0), BuildingBlock: EZIPEK_clean_linker_0, # of connection points: 2
#     Edge 71, Type (0, 0), BuildingBlock: EZIPEK_clean_linker_0, # of connection points: 2
#     Edge 72, Type (0, 0), BuildingBlock: EZIPEK_clean_linker_0, # of connection points: 2
#     Edge 73, Type (0, 0), BuildingBlock: EZIPEK_clean_linker_0, # of connection points: 2
#     Edge 74, Type (0, 0), BuildingBlock: EZIPEK_clean_linker_0, # of connection points: 2
#     Edge 75, Type (0, 0), BuildingBlock: EZIPEK_clean_linker_0, # of connection points: 2
#     Edge 76, Type (0, 0), BuildingBlock: EZIPEK_clean_linker_0, # of connection points: 2
#     Edge 77, Type (0, 0), BuildingBlock: EZIPEK_clean_linker_0, # of connection points: 2
#     Edge 78, Type (0, 0), BuildingBlock: EZIPEK_clean_linker_0, # of connection points: 2
#     Edge 79, Type (0, 0), BuildingBlock: EZIPEK_clean_linker_0, # of connection points: 2
#     Edge 80, Type (0, 0), BuildingBlock: EZIPEK_clean_linker_0, # of connection points: 2
#     Edge 81, Type (0, 0), BuildingBlock: EZIPEK_clean_linker_0, # of connection points: 2
#     Edge 82, Type (0, 0), BuildingBlock: EZIPEK_clean_linker_0, # of connection points: 2
#     Edge 83, Type (0, 0), BuildingBlock: EZIPEK_clean_linker_0, # of connection points: 2
#     Edge 84, Type (0, 0), BuildingBlock: EZIPEK_clean_linker_0, # of connection points: 2
#     Edge 85, Type (0, 0), BuildingBlock: EZIPEK_clean_linker_0, # of connection points: 2
#     Edge 86, Type (0, 0), BuildingBlock: EZIPEK_clean_linker_0, # of connection points: 2
#     Edge 87, Type (0, 0), BuildingBlock: EZIPEK_clean_linker_0, # of connection points: 2
#     Edge 88, Type (0, 0), BuildingBlock: EZIPEK_clean_linker_0, # of connection points: 2
#     Edge 89, Type (0, 0), BuildingBlock: EZIPEK_clean_linker_0, # of connection points: 2
#     Edge 90, Type (0, 0), BuildingBlock: EZIPEK_clean_linker_0, # of connection points: 2
#     Edge 91, Type (0, 0), BuildingBlock: EZIPEK_clean_linker_0, # of connection points: 2
#     Edge 92, Type (0, 0), BuildingBlock: EZIPEK_clean_linker_0, # of connection points: 2
#     Edge 93, Type (0, 0), BuildingBlock: EZIPEK_clean_linker_0, # of connection points: 2
#     Edge 94, Type (0, 0), BuildingBlock: EZIPEK_clean_linker_0, # of connection points: 2
#     Edge 95, Type (0, 0), BuildingBlock: EZIPEK_clean_linker_0, # of connection points: 2
#     Edge 96, Type (0, 0), BuildingBlock: EZIPEK_clean_linker_0, # of connection points: 2
#     Edge 97, Type (0, 0), BuildingBlock: EZIPEK_clean_linker_0, # of connection points: 2
#     Edge 98, Type (0, 0), BuildingBlock: EZIPEK_clean_linker_0, # of connection points: 2
#     Edge 99, Type (0, 0), BuildingBlock: EZIPEK_clean_linker_0, # of connection points: 2
#     Edge 100, Type (0, 0), BuildingBlock: EZIPEK_clean_linker_0, # of connection points: 2
#     Edge 101, Type (0, 0), BuildingBlock: EZIPEK_clean_linker_0, # of connection points: 2
#     Edge 102, Type (0, 0), BuildingBlock: EZIPEK_clean_linker_0, # of connection points: 2
#     Edge 103, Type (0, 0), BuildingBlock: EZIPEK_clean_linker_0, # of connection points: 2
#     Edge 104, Type (0, 0), BuildingBlock: EZIPEK_clean_linker_0, # of connection points: 2
#     Edge 105, Type (0, 0), BuildingBlock: EZIPEK_clean_linker_0, # of connection points: 2
#     Edge 106, Type (0, 0), BuildingBlock: EZIPEK_clean_linker_0, # of connection points: 2
#     Edge 107, Type (0, 0), BuildingBlock: EZIPEK_clean_linker_0, # of connection points: 2
#     Edge 108, Type (0, 0), BuildingBlock: EZIPEK_clean_linker_0, # of connection points: 2
#     Edge 109, Type (0, 0), BuildingBlock: EZIPEK_clean_linker_0, # of connection points: 2
#     Edge 110, Type (0, 0), BuildingBlock: EZIPEK_clean_linker_0, # of connection points: 2
#     Edge 111, Type (0, 0), BuildingBlock: EZIPEK_clean_linker_0, # of connection points: 2
#     Edge 112, Type (0, 0), BuildingBlock: EZIPEK_clean_linker_0, # of connection points: 2
#     Edge 113, Type (0, 0), BuildingBlock: EZIPEK_clean_linker_0, # of connection points: 2
#     Edge 114, Type (0, 0), BuildingBlock: EZIPEK_clean_linker_0, # of connection points: 2
#     Edge 115, Type (0, 0), BuildingBlock: EZIPEK_clean_linker_0, # of connection points: 2
#     Edge 116, Type (0, 0), BuildingBlock: EZIPEK_clean_linker_0, # of connection points: 2
#     Edge 117, Type (0, 0), BuildingBlock: EZIPEK_clean_linker_0, # of connection points: 2
#     Edge 118, Type (0, 0), BuildingBlock: EZIPEK_clean_linker_0, # of connection points: 2
#     Edge 119, Type (0, 0), BuildingBlock: EZIPEK_clean_linker_0, # of connection points: 2
#     Edge 120, Type (0, 0), BuildingBlock: EZIPEK_clean_linker_0, # of connection points: 2
#     Edge 121, Type (0, 0), BuildingBlock: EZIPEK_clean_linker_0, # of connection points: 2
#     Edge 122, Type (0, 0), BuildingBlock: EZIPEK_clean_linker_0, # of connection points: 2
#     Edge 123, Type (0, 0), BuildingBlock: EZIPEK_clean_linker_0, # of connection points: 2
#     Edge 124, Type (0, 0), BuildingBlock: EZIPEK_clean_linker_0, # of connection points: 2
#     Edge 125, Type (0, 0), BuildingBlock: EZIPEK_clean_linker_0, # of connection points: 2
#     Edge 126, Type (0, 0), BuildingBlock: EZIPEK_clean_linker_0, # of connection points: 2
#     Edge 127, Type (0, 0), BuildingBlock: EZIPEK_clean_linker_0, # of connection points: 2
#     Edge 128, Type (0, 0), BuildingBlock: EZIPEK_clean_linker_0, # of connection points: 2
#     Edge 129, Type (0, 0), BuildingBlock: EZIPEK_clean_linker_0, # of connection points: 2
#     Edge 130, Type (0, 0), BuildingBlock: EZIPEK_clean_linker_0, # of connection points: 2
#     Edge 131, Type (0, 0), BuildingBlock: EZIPEK_clean_linker_0, # of connection points: 2
#     Edge 132, Type (0, 0), BuildingBlock: EZIPEK_clean_linker_0, # of connection points: 2
#     Edge 133, Type (0, 0), BuildingBlock: EZIPEK_clean_linker_0, # of connection points: 2
#     Edge 134, Type (0, 0), BuildingBlock: EZIPEK_clean_linker_0, # of connection points: 2
#     Edge 135, Type (0, 0), BuildingBlock: EZIPEK_clean_linker_0, # of connection points: 2
#     Edge 136, Type (0, 0), BuildingBlock: EZIPEK_clean_linker_0, # of connection points: 2
#     Edge 137, Type (0, 0), BuildingBlock: EZIPEK_clean_linker_0, # of connection points: 2
#     Edge 138, Type (0, 0), BuildingBlock: EZIPEK_clean_linker_0, # of connection points: 2
#     Edge 139, Type (0, 0), BuildingBlock: EZIPEK_clean_linker_0, # of connection points: 2
#     Edge 140, Type (0, 0), BuildingBlock: EZIPEK_clean_linker_0, # of connection points: 2
#     Edge 141, Type (0, 0), BuildingBlock: EZIPEK_clean_linker_0, # of connection points: 2
#     Edge 142, Type (0, 0), BuildingBlock: EZIPEK_clean_linker_0, # of connection points: 2
#     Edge 143, Type (0, 0), BuildingBlock: EZIPEK_clean_linker_0, # of connection points: 2
#     Edge 144, Type (0, 0), BuildingBlock: EZIPEK_clean_linker_0, # of connection points: 2
#     Edge 145, Type (0, 0), BuildingBlock: EZIPEK_clean_linker_0, # of connection points: 2
#     Edge 146, Type (0, 0), BuildingBlock: EZIPEK_clean_linker_0, # of connection points: 2
#     Edge 147, Type (0, 0), BuildingBlock: EZIPEK_clean_linker_0, # of connection points: 2
#     Edge 148, Type (0, 0), BuildingBlock: EZIPEK_clean_linker_0, # of connection points: 2
#     Edge 149, Type (0, 0), BuildingBlock: EZIPEK_clean_linker_0, # of connection points: 2
#     Edge 150, Type (0, 0), BuildingBlock: EZIPEK_clean_linker_0, # of connection points: 2
#     Edge 151, Type (0, 0), BuildingBlock: EZIPEK_clean_linker_0, # of connection points: 2
#     Edge 152, Type (0, 0), BuildingBlock: EZIPEK_clean_linker_0, # of connection points: 2
#     Edge 153, Type (0, 0), BuildingBlock: EZIPEK_clean_linker_0, # of connection points: 2
#     Edge 154, Type (0, 0), BuildingBlock: EZIPEK_clean_linker_0, # of connection points: 2
#     Edge 155, Type (0, 0), BuildingBlock: EZIPEK_clean_linker_0, # of connection points: 2
#     Edge 156, Type (0, 0), BuildingBlock: EZIPEK_clean_linker_0, # of connection points: 2
#     Edge 157, Type (0, 0), BuildingBlock: EZIPEK_clean_linker_0, # of connection points: 2
#     Edge 158, Type (0, 0), BuildingBlock: EZIPEK_clean_linker_0, # of connection points: 2
#     Edge 159, Type (0, 0), BuildingBlock: EZIPEK_clean_linker_0, # of connection points: 2
#     Edge 160, Type (0, 0), BuildingBlock: EZIPEK_clean_linker_0, # of connection points: 2
#     Edge 161, Type (0, 0), BuildingBlock: EZIPEK_clean_linker_0, # of connection points: 2
#     Edge 162, Type (0, 0), BuildingBlock: EZIPEK_clean_linker_0, # of connection points: 2
#     Edge 163, Type (0, 0), BuildingBlock: EZIPEK_clean_linker_0, # of connection points: 2
#     Edge 164, Type (0, 0), BuildingBlock: EZIPEK_clean_linker_0, # of connection points: 2
#     Edge 165, Type (0, 0), BuildingBlock: EZIPEK_clean_linker_0, # of connection points: 2
#     Edge 166, Type (0, 0), BuildingBlock: EZIPEK_clean_linker_0, # of connection points: 2
#     Edge 167, Type (0, 0), BuildingBlock: EZIPEK_clean_linker_0, # of connection points: 2
# Relax obj value: 0.409
# Max RMSD: 0.279
# Mean RMSD: 0.182
data_MOF--net-fno--node1-XOMCOT_clean_sbu_1--edge1-EZIPEK_clean_linker_0
_symmetry_space_group_name_H-M    P1
_symmetry_Int_Tables_number       1
_symmetry_cell_setting            triclinic
loop_
_symmetry_equiv_pos_as_xyz
'x, y, z'
_cell_length_a     44.292804
_cell_length_b     43.264798
_cell_length_c     43.870176
_cell_angle_alpha  91.648403
_cell_angle_beta   91.129369
_cell_angle_gamma 93.117545
loop_
_atom_site_label
_atom_site_type_symbol
_atom_site_fract_x
_atom_site_fract_y
_atom_site_fract_z
_atom_type_partial_charge
C0 C 0.11679 0.32815 0.06754 0.0
C1 C 0.12286 0.33311 0.03724 0.0
N2 N 0.11971 0.36334 0.03253 0.0
N3 N 0.10968 0.35518 0.08112 0.0
C4 C 0.11113 0.37567 0.05895 0.0
H5 H 0.121 0.30732 0.0796 0.0
Co6 Co 0.11376 0.36539 0.12188 0.0
C7 C 0.09461 0.43189 0.13212 0.0
O8 O 0.08624 0.42526 0.15976 0.0
N9 N 0.11947 0.37418 0.16354 0.0
C10 C 0.13955 0.39202 0.20792 0.0
C11 C 0.14167 0.393 0.17695 0.0
C12 C 0.10413 0.3621 0.18707 0.0
N13 N 0.11587 0.37277 0.2141 0.0
O14 O 0.07055 0.35292 0.12709 0.0
H15 H 0.15821 0.40725 0.16529 0.0
H16 H 0.0849 0.34582 0.18475 0.0
O17 O 0.10382 0.40982 0.11514 0.0
C18 C 0.06343 0.32394 0.12908 0.0
O19 O 0.08521 0.30453 0.12939 0.0
N20 N 0.15534 0.37575 0.11573 0.0
C21 C 0.21697 0.3928 0.11778 0.0
C22 C 0.19602 0.41299 0.10681 0.0
C23 C 0.1656 0.40363 0.10478 0.0
C24 C 0.17549 0.35484 0.12463 0.0
C25 C 0.20663 0.36276 0.12542 0.0
H26 H 0.15061 0.41982 0.09558 0.0
H27 H 0.16725 0.33249 0.13241 0.0
H28 H 0.11081 0.40002 0.06272 0.0
H29 H 0.13228 0.31696 0.0212 0.0
H30 H 0.15353 0.40525 0.2247 0.0
H31 H 0.20313 0.4361 0.1 0.0
H32 H 0.22232 0.34621 0.13327 0.0
C33 C 0.94242 0.86051 0.30207 0.0
C34 C 0.93001 0.86346 0.27312 0.0
N35 N 0.90153 0.85064 0.27251 0.0
N36 N 0.92209 0.8455 0.31964 0.0
C37 C 0.89847 0.83798 0.30018 0.0
H38 H 0.96328 0.872 0.31069 0.0
Co39 Co 0.92177 0.84785 0.36334 0.0
C40 C 0.8559 0.84789 0.37932 0.0
O41 O 0.86529 0.86111 0.40521 0.0
N42 N 0.92219 0.84973 0.40815 0.0
C43 C 0.91064 0.83413 0.45515 0.0
C44 C 0.91137 0.82564 0.42458 0.0
C45 C 0.92939 0.87213 0.43021 0.0
N46 N 0.92173 0.86354 0.4586 0.0
O47 O 0.93513 0.8034 0.36452 0.0
H48 H 0.90261 0.8037 0.41469 0.0
H49 H 0.93943 0.89473 0.42644 0.0
O50 O 0.87601 0.8362 0.36206 0.0
C51 C 0.96208 0.79792 0.37419 0.0
O52 O 0.97957 0.8214 0.38484 0.0
N53 N 0.91122 0.89075 0.3608 0.0
C54 C 0.88608 0.94806 0.36675 0.0
C55 C 0.87346 0.92579 0.34628 0.0
C56 C 0.88639 0.89741 0.34363 0.0
C57 C 0.9278 0.91498 0.37456 0.0
C58 C 0.9147 0.94358 0.37969 0.0
H59 H 0.87487 0.88036 0.32894 0.0
H60 H 0.95042 0.91173 0.38306 0.0
H61 H 0.87779 0.82685 0.30719 0.0
H62 H 0.93949 0.87785 0.25551 0.0
H63 H 0.90185 0.82008 0.47334 0.0
H64 H 0.8524 0.92939 0.33432 0.0
H65 H 0.92611 0.96133 0.3943 0.0
C66 C 0.46185 0.66432 0.69008 0.0
C67 C 0.4553 0.66195 0.72053 0.0
N68 N 0.42742 0.67212 0.7249 0.0
N69 N 0.43775 0.67511 0.67535 0.0
C70 C 0.41818 0.68184 0.69753 0.0
H71 H 0.48116 0.65521 0.67889 0.0
Co72 Co 0.42975 0.67119 0.63342 0.0
C73 C 0.36119 0.65687 0.64432 0.0
O74 O 0.36542 0.62726 0.64403 0.0
N75 N 0.42151 0.66856 0.5913 0.0
C76 C 0.39861 0.6537 0.54737 0.0
C77 C 0.3963 0.65448 0.57826 0.0
C78 C 0.43924 0.67584 0.56747 0.0
N79 N 0.42559 0.6669 0.5406 0.0
O80 O 0.439 0.71612 0.63082 0.0
H81 H 0.37884 0.64202 0.59017 0.0
H82 H 0.4623 0.68535 0.56975 0.0
O83 O 0.38376 0.67651 0.63983 0.0
C84 C 0.46776 0.72152 0.62911 0.0
O85 O 0.48502 0.69779 0.62863 0.0
N86 N 0.42571 0.6258 0.63564 0.0
C87 C 0.40575 0.56362 0.63309 0.0
C88 C 0.40714 0.5803 0.66084 0.0
C89 C 0.41878 0.61075 0.66188 0.0
C90 C 0.4314 0.60759 0.61047 0.0
C91 C 0.42081 0.57647 0.60834 0.0
H92 H 0.41842 0.6224 0.68345 0.0
H93 H 0.44253 0.61722 0.59104 0.0
H94 H 0.39627 0.69074 0.69338 0.0
H95 H 0.46889 0.6513 0.73767 0.0
H96 H 0.38284 0.64197 0.53114 0.0
H97 H 0.39746 0.57068 0.68123 0.0
H98 H 0.42253 0.56338 0.58709 0.0
C99 C 0.62631 0.19707 0.93374 0.0
C100 C 0.63327 0.19104 0.9635 0.0
N101 N 0.61328 0.1692 0.97413 0.0
N102 N 0.60297 0.17803 0.92409 0.0
C103 C 0.5949 0.16217 0.94917 0.0
H104 H 0.64005 0.21133 0.91896 0.0
Co105 Co 0.59498 0.16741 0.88249 0.0
C106 C 0.59961 0.0964 0.88461 0.0
O107 O 0.61676 0.09762 0.86052 0.0
N108 N 0.58702 0.15685 0.83998 0.0
C109 C 0.58326 0.12465 0.79982 0.0
C110 C 0.57473 0.12957 0.82927 0.0
C111 C 0.59784 0.17038 0.81447 0.0
N112 N 0.59754 0.15065 0.7896 0.0
O113 O 0.55169 0.17839 0.88681 0.0
H114 H 0.56229 0.113 0.84264 0.0
H115 H 0.60647 0.19419 0.81446 0.0
O116 O 0.58774 0.12143 0.89467 0.0
C117 C 0.54639 0.20526 0.87635 0.0
O118 O 0.56882 0.22107 0.86387 0.0
N119 N 0.63734 0.16144 0.87757 0.0
C120 C 0.69575 0.14923 0.86048 0.0
C121 C 0.68202 0.13313 0.88414 0.0
C122 C 0.65337 0.14082 0.89339 0.0
C123 C 0.65276 0.18116 0.85894 0.0
C124 C 0.68206 0.17524 0.84968 0.0
H125 H 0.64369 0.12919 0.91231 0.0
H126 H 0.64211 0.20123 0.85069 0.0
H127 H 0.57808 0.14325 0.94757 0.0
H128 H 0.65405 0.1998 0.97468 0.0
H129 H 0.58073 0.10237 0.78807 0.0
H130 H 0.69317 0.11458 0.89507 0.0
H131 H 0.69348 0.1901 0.83358 0.0
C132 C 0.09746 0.69061 0.43866 0.0
C133 C 0.10238 0.68417 0.46909 0.0
N134 N 0.10831 0.65408 0.47072 0.0
N135 N 0.09983 0.66453 0.42141 0.0
C136 C 0.10662 0.64292 0.44182 0.0
H137 H 0.09171 0.71266 0.42981 0.0
Co138 Co 0.09385 0.65839 0.37889 0.0
C139 C 0.08975 0.58806 0.37244 0.0
O140 O 0.10565 0.59132 0.34763 0.0
N141 N 0.08751 0.65226 0.3356 0.0
C142 C 0.07425 0.62809 0.29137 0.0
C143 C 0.06729 0.63169 0.32173 0.0
C144 C 0.10395 0.66353 0.31216 0.0
N145 N 0.09757 0.64812 0.2853 0.0
O146 O 0.05116 0.67298 0.38184 0.0
H147 H 0.05031 0.61793 0.33347 0.0
H148 H 0.12173 0.68145 0.31457 0.0
O149 O 0.08167 0.6129 0.38637 0.0
C150 C 0.04776 0.70092 0.373 0.0
O151 O 0.07157 0.71624 0.36249 0.0
N152 N 0.1359 0.64887 0.37575 0.0
C153 C 0.19559 0.63836 0.36034 0.0
C154 C 0.17923 0.61748 0.37821 0.0
C155 C 0.14961 0.62331 0.38598 0.0
C156 C 0.15346 0.67171 0.36297 0.0
C157 C 0.18291 0.66648 0.35378 0.0
H158 H 0.13805 0.60643 0.39955 0.0
H159 H 0.1441 0.69377 0.3587 0.0
H160 H 0.10948 0.61905 0.43617 0.0
H161 H 0.10077 0.69999 0.48849 0.0
H162 H 0.06411 0.61071 0.27551 0.0
H163 H 0.189 0.59639 0.38541 0.0
H164 H 0.19561 0.68412 0.34159 0.0
C165 C 0.60328 0.83165 0.5558 0.0
C166 C 0.60492 0.83879 0.52554 0.0
N167 N 0.60562 0.86978 0.52374 0.0
N168 N 0.60317 0.85805 0.57288 0.0
C169 C 0.60367 0.88088 0.55259 0.0
H170 H 0.60522 0.80891 0.56498 0.0
Co171 Co 0.61188 0.85802 0.61415 0.0
C172 C 0.61418 0.92323 0.63764 0.0
O173 O 0.63589 0.91443 0.65573 0.0
N174 N 0.62049 0.8554 0.65644 0.0
C175 C 0.64204 0.84746 0.70164 0.0
C176 C 0.6455 0.84575 0.67077 0.0
C177 C 0.60157 0.86149 0.67953 0.0
N178 N 0.61445 0.8573 0.70716 0.0
O179 O 0.56977 0.84198 0.62108 0.0
H180 H 0.66514 0.83714 0.66029 0.0
H181 H 0.57885 0.86897 0.67615 0.0
O182 O 0.6007 0.90232 0.61989 0.0
C183 C 0.56434 0.81275 0.62376 0.0
O184 O 0.5872 0.79466 0.62364 0.0
N185 N 0.65323 0.87243 0.60561 0.0
C186 C 0.71373 0.89383 0.60267 0.0
C187 C 0.69077 0.91312 0.59518 0.0
C188 C 0.6608 0.9018 0.59613 0.0
C189 C 0.67555 0.85193 0.60705 0.0
C190 C 0.70617 0.86238 0.60699 0.0
H191 H 0.64404 0.91749 0.58976 0.0
H192 H 0.66969 0.82767 0.61034 0.0
H193 H 0.60607 0.90518 0.55863 0.0
H194 H 0.60862 0.8228 0.50671 0.0
H195 H 0.65831 0.84132 0.71887 0.0
H196 H 0.69588 0.93714 0.58994 0.0
H197 H 0.72362 0.84637 0.61131 0.0
C198 C 0.45686 0.36195 0.7966 0.0
C199 C 0.44558 0.35758 0.76699 0.0
N200 N 0.41933 0.34018 0.7675 0.0
N201 N 0.43843 0.34651 0.81575 0.0
C202 C 0.41835 0.33046 0.79674 0.0
H203 H 0.47501 0.37839 0.80392 0.0
Co204 Co 0.43395 0.35328 0.85898 0.0
C205 C 0.36697 0.36346 0.83273 0.0
O206 O 0.37455 0.36468 0.8043 0.0
N207 N 0.4287 0.35905 0.90325 0.0
C208 C 0.40116 0.36936 0.94385 0.0
C209 C 0.40127 0.35504 0.9157 0.0
C210 C 0.446 0.37179 0.92718 0.0
N211 N 0.42944 0.38003 0.95201 0.0
O212 O 0.43489 0.3075 0.86417 0.0
H213 H 0.38142 0.34409 0.90449 0.0
H214 H 0.47025 0.37557 0.92606 0.0
O215 O 0.3868 0.35677 0.85346 0.0
C216 C 0.46234 0.30088 0.87095 0.0
O217 O 0.48262 0.32405 0.87467 0.0
N218 N 0.43788 0.39747 0.85474 0.0
C219 C 0.42519 0.4573 0.87032 0.0
C220 C 0.41076 0.44243 0.84499 0.0
C221 C 0.4191 0.413 0.83643 0.0
C222 C 0.4578 0.41468 0.87331 0.0
C223 C 0.45194 0.44544 0.88133 0.0
H224 H 0.4094 0.40252 0.8162 0.0
H225 H 0.47659 0.40395 0.8839 0.0
H226 H 0.39963 0.3163 0.80528 0.0
H227 H 0.45344 0.37039 0.74755 0.0
H228 H 0.38092 0.3729 0.95658 0.0
H229 H 0.39198 0.45237 0.83331 0.0
H230 H 0.46586 0.45846 0.89827 0.0
C231 C 0.96138 0.17823 0.19399 0.0
C232 C 0.95782 0.17237 0.22448 0.0
N233 N 0.92867 0.17587 0.23107 0.0
N234 N 0.93456 0.18516 0.18158 0.0
C235 C 0.91516 0.18393 0.20497 0.0
H236 H 0.98171 0.17543 0.18118 0.0
Co237 Co 0.92738 0.18677 0.13969 0.0
C238 C 0.8586 0.20259 0.15334 0.0
O239 O 0.86033 0.22576 0.1734 0.0
N240 N 0.92031 0.18882 0.09723 0.0
C241 C 0.8962 0.19897 0.05393 0.0
C242 C 0.89878 0.20574 0.08461 0.0
C243 C 0.93223 0.17397 0.07306 0.0
N244 N 0.91694 0.1786 0.04686 0.0
O245 O 0.93833 0.2309 0.14094 0.0
H246 H 0.88495 0.2214 0.09701 0.0
H247 H 0.9513 0.15959 0.07421 0.0
O248 O 0.88336 0.19169 0.14455 0.0
C249 C 0.96624 0.23456 0.134 0.0
O250 O 0.98099 0.20979 0.12733 0.0
N251 N 0.91972 0.14344 0.13863 0.0
C252 C 0.90607 0.08052 0.13103 0.0
C253 C 0.88945 0.09818 0.15094 0.0
C254 C 0.89656 0.12971 0.15437 0.0
C255 C 0.93932 0.12538 0.12366 0.0
C256 C 0.93216 0.0938 0.11824 0.0
H257 H 0.88251 0.14297 0.16892 0.0
H258 H 0.96025 0.13555 0.11537 0.0
H259 H 0.89111 0.18614 0.20273 0.0
H260 H 0.97471 0.1643 0.24007 0.0
H261 H 0.88016 0.208 0.03801 0.0
H262 H 0.8703 0.08791 0.1627 0.0
H263 H 0.94643 0.08011 0.10406 0.0
C264 C 0.14471 0.07015 0.38494 0.0
C265 C 0.17557 0.07484 0.38782 0.0
N266 N 0.18283 0.10449 0.38165 0.0
N267 N 0.13239 0.09686 0.37739 0.0
C268 C 0.15648 0.11723 0.37472 0.0
H269 H 0.13204 0.04878 0.38933 0.0
Co270 Co 0.09043 0.1021 0.37652 0.0
C271 C 0.08351 0.17282 0.3825 0.0
O272 O 0.05529 0.16801 0.3904 0.0
N273 N 0.04729 0.10605 0.37621 0.0
C274 C 0.99983 0.1174 0.36411 0.0
C275 C 0.02931 0.11683 0.35405 0.0
C276 C 0.02772 0.09933 0.39896 0.0
N277 N 0.9991 0.10634 0.39246 0.0
O278 O 0.09014 0.0958 0.33226 0.0
H279 H 0.03728 0.1249 0.33237 0.0
H280 H 0.03385 0.09027 0.42064 0.0
O281 O 0.0989 0.14927 0.37522 0.0
C282 C 0.08765 0.06626 0.32789 0.0
O283 O 0.08356 0.04918 0.35191 0.0
N284 N 0.09091 0.10252 0.419 0.0
C285 C 0.07675 0.09437 0.47935 0.0
C286 C 0.08355 0.124 0.46861 0.0
C287 C 0.09114 0.12756 0.43851 0.0
C288 C 0.08688 0.07323 0.42976 0.0
C289 C 0.07965 0.06854 0.46016 0.0
H290 H 0.09582 0.15057 0.43146 0.0
H291 H 0.08645 0.05351 0.41408 0.0
H292 H 0.15496 0.14105 0.36845 0.0
H293 H 0.19139 0.05821 0.39518 0.0
H294 H 0.98062 0.12578 0.35184 0.0
H295 H 0.08242 0.14443 0.48336 0.0
H296 H 0.07512 0.04534 0.46818 0.0
C297 C 0.2015 0.96577 0.62505 0.0
C298 C 0.19039 0.99358 0.63421 0.0
N299 N 0.16764 1.00032 0.61502 0.0
N300 N 0.1855 0.95417 0.6005 0.0
C301 C 0.16588 0.97643 0.5941 0.0
H302 H 0.21796 0.95318 0.6375 0.0
Co303 Co 0.18431 0.91124 0.5894 0.0
C304 C 0.1186 0.89601 0.5831 0.0
O305 O 0.12401 0.87202 0.59971 0.0
N306 N 0.18384 0.86868 0.5775 0.0
C307 C 0.17021 0.82158 0.55921 0.0
C308 C 0.16501 0.85242 0.55767 0.0
C309 C 0.20291 0.84752 0.58716 0.0
N310 N 0.19394 0.81822 0.57836 0.0
O311 O 0.20129 0.92008 0.54854 0.0
H312 H 0.14755 0.86199 0.54387 0.0
H313 H 0.22331 0.85393 0.60001 0.0
O314 O 0.14125 0.91377 0.5753 0.0
C315 C 0.22922 0.91358 0.54613 0.0
O316 O 0.24382 0.90587 0.57087 0.0
N317 N 0.16994 0.90174 0.63052 0.0
C318 C 0.14267 0.88294 0.6852 0.0
C319 C 0.13499 0.91028 0.67127 0.0
C320 C 0.14806 0.91853 0.64369 0.0
C321 C 0.18096 0.87817 0.64673 0.0
C322 C 0.16618 0.86682 0.67236 0.0
H323 H 0.13966 0.93789 0.63248 0.0
H324 H 0.20133 0.86792 0.64047 0.0
H325 H 0.14881 0.97391 0.57616 0.0
H326 H 0.1973 1.00697 0.65464 0.0
H327 H 0.15616 0.80286 0.5486 0.0
H328 H 0.11787 0.92446 0.68077 0.0
H329 H 0.17381 0.84604 0.68252 0.0
C330 C 0.43041 0.94359 0.85267 0.0
C331 C 0.46071 0.94077 0.85967 0.0
N332 N 0.46366 0.93725 0.8899 0.0
N333 N 0.41402 0.94175 0.87835 0.0
C334 C 0.43553 0.93937 0.90067 0.0
H335 H 0.42129 0.94398 0.82986 0.0
Co336 Co 0.37131 0.9333 0.88489 0.0
C337 C 0.37854 0.88519 0.9364 0.0
O338 O 0.35921 0.86423 0.92406 0.0
N339 N 0.32846 0.92523 0.89407 0.0
C340 C 0.29222 0.90611 0.92394 0.0
C341 C 0.32077 0.91919 0.92296 0.0
C342 C 0.30146 0.91968 0.87854 0.0
N343 N 0.27926 0.90653 0.89605 0.0
O344 O 0.36014 0.95813 0.8478 0.0
H345 H 0.33504 0.92335 0.94271 0.0
H346 H 0.29812 0.92476 0.85478 0.0
O347 O 0.38325 0.91124 0.92345 0.0
C348 C 0.36226 0.95639 0.81848 0.0
O349 O 0.37326 0.93192 0.80534 0.0
N350 N 0.37177 0.89508 0.86149 0.0
C351 C 0.35865 0.83249 0.85488 0.0
C352 C 0.38688 0.84329 0.86659 0.0
C353 C 0.39318 0.8751 0.86937 0.0
C354 C 0.34853 0.88442 0.84231 0.0
C355 C 0.3417 0.8526 0.83826 0.0
H356 H 0.41254 0.88313 0.88293 0.0
H357 H 0.33341 0.90005 0.83244 0.0
H358 H 0.43076 0.93631 0.92446 0.0
H359 H 0.47854 0.93798 0.84346 0.0
H360 H 0.28185 0.89672 0.94407 0.0
H361 H 0.40175 0.8277 0.8775 0.0
H362 H 0.32122 0.84418 0.82617 0.0
C363 C 0.34513 0.06859 0.10346 0.0
C364 C 0.3493 0.03783 0.10899 0.0
N365 N 0.37626 0.03073 0.098 0.0
N366 N 0.36999 0.08143 0.09036 0.0
C367 C 0.38722 0.05687 0.08518 0.0
H368 H 0.32571 0.08098 0.11017 0.0
Co369 Co 0.38037 0.1249 0.0863 0.0
C370 C 0.44348 0.10187 0.09401 0.0
O371 O 0.43422 0.08727 0.11826 0.0
N372 N 0.39076 0.16676 0.08161 0.0
C373 C 0.41594 0.20853 0.06495 0.0
C374 C 0.40885 0.17758 0.05945 0.0
C375 C 0.38642 0.19172 0.09993 0.0
N376 N 0.40209 0.21717 0.09053 0.0
O377 O 0.36635 0.12213 0.04278 0.0
H378 H 0.4173 0.16352 0.04106 0.0
H379 H 0.37338 0.19098 0.12054 0.0
O380 O 0.4244 0.11624 0.07771 0.0
C381 C 0.34051 0.13438 0.04003 0.0
O382 O 0.3282 0.14517 0.06487 0.0
N383 N 0.38931 0.13019 0.1292 0.0
C384 C 0.39717 0.14081 0.19206 0.0
C385 C 0.42073 0.14799 0.17239 0.0
C386 C 0.41597 0.14347 0.14099 0.0
C387 C 0.36545 0.12582 0.14814 0.0
C388 C 0.36901 0.13034 0.17972 0.0
H389 H 0.43363 0.15123 0.1262 0.0
H390 H 0.34315 0.12006 0.13884 0.0
H391 H 0.40829 0.05802 0.07351 0.0
H392 H 0.33476 0.02258 0.12211 0.0
H393 H 0.43065 0.22345 0.05165 0.0
H394 H 0.44247 0.15732 0.1812 0.0
H395 H 0.34994 0.12584 0.19435 0.0
C396 C 0.17673 0.96251 0.2035 0.0
C397 C 0.20764 0.96308 0.20005 0.0
N398 N 0.21625 0.93385 0.20156 0.0
N399 N 0.16597 0.9329 0.20637 0.0
C400 C 0.19096 0.91642 0.20692 0.0
H401 H 0.16284 0.98188 0.20061 0.0
Co402 Co 0.12594 0.91592 0.20639 0.0
C403 C 0.15554 0.86576 0.16411 0.0
O404 O 0.17406 0.88475 0.14993 0.0
N405 N 0.08602 0.89712 0.20944 0.0
C406 C 0.0496 0.86057 0.20111 0.0
C407 C 0.07991 0.86641 0.20559 0.0
C408 C 0.0582 0.90854 0.21208 0.0
N409 N 0.03546 0.88726 0.20448 0.0
O410 O 0.11396 0.95413 0.22939 0.0
H411 H 0.09636 0.84895 0.2048 0.0
H412 H 0.05521 0.93237 0.21778 0.0
O413 O 0.13839 0.87614 0.18504 0.0
C414 C 0.10461 0.98117 0.22434 0.0
O415 O 0.09949 0.98926 0.19618 0.0
N416 N 0.11677 0.93217 0.16557 0.0
C417 C 0.1035 0.92253 0.10343 0.0
C418 C 0.13314 0.93023 0.1134 0.0
C419 C 0.13917 0.93528 0.14461 0.0
C420 C 0.08771 0.93316 0.15461 0.0
C421 C 0.08032 0.92641 0.12397 0.0
H422 H 0.16234 0.93833 0.15141 0.0
H423 H 0.06984 0.93879 0.16903 0.0
H424 H 0.19057 0.89163 0.20925 0.0
H425 H 0.22209 0.98278 0.19382 0.0
H426 H 0.03893 0.83822 0.19442 0.0
H427 H 0.15171 0.92935 0.09775 0.0
H428 H 0.05682 0.92354 0.11661 0.0
C429 C 0.38276 0.8382 0.42708 0.0
C430 C 0.38347 0.80877 0.41413 0.0
N431 N 0.36894 0.80834 0.38689 0.0
N432 N 0.36792 0.85646 0.40813 0.0
C433 C 0.35938 0.83733 0.38394 0.0
H434 H 0.39413 0.84635 0.44808 0.0
Co435 Co 0.36914 0.90033 0.41308 0.0
C436 C 0.34364 0.90661 0.34412 0.0
O437 O 0.31621 0.91597 0.3398 0.0
N438 N 0.36994 0.94372 0.41807 0.0
C439 C 0.33589 1.0035 0.42722 0.0
C440 C 0.34067 0.96469 0.3985 0.0
C441 C 0.38382 0.96278 0.45348 0.0
N442 N 0.36368 0.99846 0.45833 0.0
O443 O 0.3273 0.89927 0.43014 0.0
H444 H 0.33152 0.98619 0.40488 0.0
H445 H 0.39891 0.95357 0.47016 0.0
O446 O 0.35378 0.9041 0.37139 0.0
C447 C 0.32371 0.89596 0.45898 0.0
O448 O 0.34708 0.88828 0.47544 0.0
N449 N 0.40971 0.90203 0.39912 0.0
C450 C 0.46957 0.90479 0.37837 0.0
C451 C 0.44579 0.88988 0.3611 0.0
C452 C 0.41652 0.88811 0.37208 0.0
C453 C 0.43268 0.91476 0.41747 0.0
C454 C 0.46277 0.9162 0.40766 0.0
H455 H 0.39938 0.87529 0.35859 0.0
H456 H 0.42795 0.92337 0.44005 0.0
H457 H 0.34832 0.84485 0.36358 0.0
H458 H 0.395 0.78956 0.42334 0.0
H459 H 0.32393 0.02538 0.42472 0.0
H460 H 0.44971 0.87893 0.33923 0.0
H461 H 0.48048 0.92638 0.42276 0.0
C462 C 0.42186 0.06458 0.71083 0.0
C463 C 0.45255 0.06247 0.70679 0.0
N464 N 0.45794 0.06524 0.67684 0.0
N465 N 0.40822 0.06788 0.68342 0.0
C466 C 0.43058 0.06596 0.66331 0.0
H467 H 0.41094 0.06697 0.73249 0.0
Co468 Co 0.37039 0.08172 0.67323 0.0
C469 C 0.40738 0.12132 0.62387 0.0
O470 O 0.42747 0.13569 0.64229 0.0
N471 N 0.33211 0.09729 0.66084 0.0
C472 C 0.30729 0.13678 0.64288 0.0
C473 C 0.3345 0.12547 0.64791 0.0
C474 C 0.30159 0.09186 0.6626 0.0
N475 N 0.28636 0.11616 0.65226 0.0
O476 O 0.35438 0.05787 0.70879 0.0
H477 H 0.35493 0.13945 0.64523 0.0
H478 H 0.2908 0.07152 0.67224 0.0
O479 O 0.38766 0.10223 0.63521 0.0
C480 C 0.33415 0.04839 0.72749 0.0
O481 O 0.30647 0.0575 0.72485 0.0
N482 N 0.37672 0.11803 0.7001 0.0
C483 C 0.36464 0.17927 0.69767 0.0
C484 C 0.39493 0.17091 0.69797 0.0
C485 C 0.4005 0.13919 0.69865 0.0
C486 C 0.35126 0.12756 0.71378 0.0
C487 C 0.34361 0.15809 0.71054 0.0
H488 H 0.42291 0.13165 0.69494 0.0
H489 H 0.33329 0.11104 0.71927 0.0
H490 H 0.42755 0.06797 0.639 0.0
H491 H 0.46977 0.06331 0.7247 0.0
H492 H 0.30305 0.15952 0.63465 0.0
H493 H 0.41327 0.18768 0.69373 0.0
H494 H 0.32011 0.16315 0.71316 0.0
C495 C 0.18964 0.23957 0.95557 0.0
C496 C 0.19316 0.27001 0.94666 0.0
N497 N 0.20903 0.27063 0.92075 0.0
N498 N 0.20328 0.22109 0.93535 0.0
C499 C 0.21729 0.2412 0.91643 0.0
H500 H 0.17457 0.23118 0.97297 0.0
Co501 Co 0.19325 0.17829 0.9261 0.0
C502 C 0.19316 0.20359 0.85921 0.0
O503 O 0.18263 0.2305 0.86602 0.0
N504 N 0.18316 0.13556 0.91543 0.0
C505 C 0.15814 0.09826 0.88743 0.0
C506 C 0.16676 0.12884 0.88949 0.0
C507 C 0.18315 0.10788 0.9295 0.0
N508 N 0.16811 0.08493 0.91251 0.0
O509 O 0.23649 0.16906 0.93259 0.0
H510 H 0.15789 0.14579 0.87472 0.0
H511 H 0.19156 0.10508 0.9525 0.0
O512 O 0.1984 0.18452 0.88056 0.0
C513 C 0.24308 0.15896 0.95912 0.0
O514 O 0.22124 0.15541 0.97873 0.0
N515 N 0.15057 0.18593 0.92332 0.0
C516 C 0.0911 0.18142 0.90183 0.0
C517 C 0.10882 0.20884 0.89854 0.0
C518 C 0.13866 0.21053 0.90961 0.0
C519 C 0.13095 0.1634 0.93391 0.0
C520 C 0.10158 0.15938 0.92165 0.0
H521 H 0.15214 0.23115 0.90641 0.0
H522 H 0.13905 0.14622 0.94892 0.0
H523 H 0.23053 0.23399 0.89733 0.0
H524 H 0.18182 0.28944 0.95633 0.0
H525 H 0.14295 0.0871 0.87033 0.0
H526 H 0.1006 0.22755 0.88536 0.0
H527 H 0.08781 0.13871 0.92647 0.0
C528 C 0.88422 0.32199 0.95061 0.0
C529 C 0.88211 0.29129 0.94042 0.0
N530 N 0.86641 0.28922 0.91367 0.0
N531 N 0.86969 0.33937 0.93059 0.0
C532 C 0.85709 0.31822 0.90992 0.0
H533 H 0.89843 0.33139 0.96935 0.0
Co534 Co 0.87571 0.38318 0.92519 0.0
C535 C 0.8769 0.35967 0.85744 0.0
O536 O 0.89289 0.33595 0.86326 0.0
N537 N 0.88153 0.42628 0.91754 0.0
C538 C 0.9031 0.46591 0.89303 0.0
C539 C 0.8979 0.43474 0.89304 0.0
C540 C 0.87677 0.45364 0.93216 0.0
N541 N 0.88995 0.47787 0.91751 0.0
O542 O 0.83214 0.38862 0.93377 0.0
H543 H 0.90804 0.41891 0.87731 0.0
H544 H 0.8648 0.45583 0.95329 0.0
O545 O 0.8683 0.37756 0.87925 0.0
C546 C 0.82836 0.39706 0.96184 0.0
O547 O 0.85238 0.40003 0.97994 0.0
N548 N 0.91924 0.37998 0.92216 0.0
C549 C 0.97643 0.3935 0.89981 0.0
C550 C 0.96256 0.36375 0.89536 0.0
C551 C 0.934 0.35731 0.90751 0.0
C552 C 0.93653 0.40463 0.93444 0.0
C553 C 0.96408 0.41341 0.92141 0.0
H554 H 0.92367 0.33464 0.90444 0.0
H555 H 0.92701 0.42043 0.95069 0.0
H556 H 0.84345 0.32433 0.89058 0.0
H557 H 0.89418 0.27266 0.95009 0.0
H558 H 0.91574 0.47901 0.87638 0.0
H559 H 0.9728 0.34641 0.88124 0.0
H560 H 0.97484 0.43595 0.92721 0.0
C561 C 0.93266 0.58077 0.21802 0.0
C562 C 0.96232 0.58193 0.20907 0.0
N563 N 0.96219 0.58252 0.17846 0.0
N564 N 0.91443 0.58086 0.19302 0.0
C565 C 0.93314 0.58109 0.16944 0.0
H566 H 0.92506 0.58328 0.24118 0.0
Co567 Co 0.87499 0.59131 0.19346 0.0
C568 C 0.85898 0.60384 0.12547 0.0
O569 O 0.84283 0.62622 0.13591 0.0
N570 N 0.83455 0.60204 0.19697 0.0
C571 C 0.79576 0.62534 0.21689 0.0
C572 C 0.82499 0.61807 0.22148 0.0
C573 C 0.8093 0.59685 0.17932 0.0
N574 N 0.78582 0.61239 0.19013 0.0
O575 O 0.86255 0.5484 0.20127 0.0
H576 H 0.83819 0.62414 0.24185 0.0
H577 H 0.80833 0.58193 0.15913 0.0
O578 O 0.87142 0.58639 0.14535 0.0
C579 C 0.86067 0.54506 0.23023 0.0
O580 O 0.86493 0.56971 0.24827 0.0
N581 N 0.88834 0.63341 0.18991 0.0
C582 C 0.88093 0.69441 0.18043 0.0
C583 C 0.89373 0.67638 0.15772 0.0
C584 C 0.89869 0.64584 0.16362 0.0
C585 C 0.88541 0.65275 0.21466 0.0
C586 C 0.88078 0.68402 0.21034 0.0
H587 H 0.9075 0.63187 0.14561 0.0
H588 H 0.88351 0.64349 0.23715 0.0
H589 H 0.92627 0.58507 0.14655 0.0
H590 H 0.98218 0.58578 0.22375 0.0
H591 H 0.78281 0.63962 0.23188 0.0
H592 H 0.89692 0.68473 0.13488 0.0
H593 H 0.87369 0.69856 0.22909 0.0
C594 C 0.71276 0.72772 0.43927 0.0
C595 C 0.71358 0.75783 0.42962 0.0
N596 N 0.72071 0.75768 0.39988 0.0
N597 N 0.71993 0.70871 0.41592 0.0
C598 C 0.72626 0.728 0.39291 0.0
H599 H 0.70317 0.71993 0.46037 0.0
Co600 Co 0.70498 0.66736 0.41106 0.0
C601 C 0.72104 0.66262 0.33869 0.0
O602 O 0.74759 0.66079 0.32616 0.0
N603 N 0.68891 0.62596 0.40496 0.0
C604 C 0.65884 0.5885 0.38273 0.0
C605 C 0.66783 0.61892 0.38271 0.0
C606 C 0.69324 0.59819 0.41757 0.0
N607 N 0.67484 0.57525 0.4044 0.0
O608 O 0.74444 0.6524 0.42888 0.0
H609 H 0.65941 0.63479 0.36667 0.0
H610 H 0.7099 0.59461 0.43522 0.0
O611 O 0.72012 0.66437 0.36814 0.0
C612 C 0.75014 0.65566 0.45791 0.0
O613 O 0.72991 0.66855 0.47486 0.0
N614 N 0.66705 0.68216 0.39793 0.0
C615 C 0.60952 0.68385 0.37161 0.0
C616 C 0.63457 0.69787 0.35763 0.0
C617 C 0.66301 0.69751 0.37158 0.0
C618 C 0.64238 0.67329 0.41447 0.0
C619 C 0.61318 0.67362 0.40151 0.0
H620 H 0.68181 0.70736 0.35972 0.0
H621 H 0.64556 0.66252 0.43617 0.0
H622 H 0.73066 0.72015 0.37003 0.0
H623 H 0.70553 0.77754 0.4422 0.0
H624 H 0.64272 0.57653 0.36699 0.0
H625 H 0.63239 0.70759 0.33532 0.0
H626 H 0.5941 0.66364 0.41359 0.0
C627 C 0.9297 0.44227 0.34754 0.0
C628 C 0.95995 0.44629 0.3559 0.0
N629 N 0.96222 0.44613 0.38654 0.0
N630 N 0.91298 0.43934 0.37284 0.0
C631 C 0.93339 0.44461 0.39599 0.0
H632 H 0.92114 0.43772 0.32467 0.0
Co633 Co 0.87254 0.42278 0.37753 0.0
C634 C 0.9068 0.38842 0.43191 0.0
O635 O 0.93303 0.38527 0.4193 0.0
N636 N 0.83071 0.40764 0.38465 0.0
C637 C 0.79705 0.38 0.41124 0.0
C638 C 0.82383 0.3968 0.41238 0.0
C639 C 0.80454 0.40039 0.36811 0.0
N640 N 0.78395 0.38235 0.38359 0.0
O641 O 0.86107 0.44489 0.33906 0.0
H642 H 0.83728 0.40017 0.433 0.0
H643 H 0.80129 0.40688 0.34468 0.0
O644 O 0.88551 0.40196 0.41767 0.0
C645 C 0.859 0.43943 0.30997 0.0
O646 O 0.86071 0.41116 0.29895 0.0
N647 N 0.88024 0.38493 0.35501 0.0
C648 C 0.88025 0.32256 0.36556 0.0
C649 C 0.90656 0.34174 0.37042 0.0
C650 C 0.90673 0.37221 0.36181 0.0
C651 C 0.85771 0.36551 0.3424 0.0
C652 C 0.8578 0.33357 0.34642 0.0
H653 H 0.92665 0.38631 0.36665 0.0
H654 H 0.83851 0.37449 0.33147 0.0
H655 H 0.92743 0.44462 0.41967 0.0
H656 H 0.97883 0.44529 0.34066 0.0
H657 H 0.78843 0.36626 0.42969 0.0
H658 H 0.92585 0.33495 0.38357 0.0
H659 H 0.83853 0.31879 0.33854 0.0
C660 C 0.65822 0.5774 0.88269 0.0
C661 C 0.6876 0.58862 0.88731 0.0
N662 N 0.68895 0.61897 0.8816 0.0
N663 N 0.64098 0.60053 0.87392 0.0
C664 C 0.66065 0.62563 0.87304 0.0
H665 H 0.64976 0.55455 0.88824 0.0
Co666 Co 0.59841 0.60015 0.87158 0.0
C667 C 0.59114 0.6617 0.91056 0.0
O668 O 0.57324 0.65032 0.93137 0.0
N669 N 0.55568 0.601 0.86893 0.0
C670 C 0.50907 0.60846 0.85123 0.0
C671 C 0.53846 0.60277 0.84335 0.0
C672 C 0.53612 0.6055 0.89185 0.0
N673 N 0.50794 0.61002 0.88186 0.0
O674 O 0.59754 0.558 0.84985 0.0
H675 H 0.54709 0.60174 0.82047 0.0
H676 H 0.54223 0.60672 0.91573 0.0
O677 O 0.6006 0.64412 0.88902 0.0
C678 C 0.60104 0.52886 0.85334 0.0
O679 O 0.60516 0.51823 0.88074 0.0
N680 N 0.59574 0.58286 0.91117 0.0
C681 C 0.58056 0.57461 0.97197 0.0
C682 C 0.60413 0.59571 0.96393 0.0
C683 C 0.61222 0.59831 0.93379 0.0
C684 C 0.57538 0.55937 0.91852 0.0
C685 C 0.56836 0.55403 0.94906 0.0
H686 H 0.62961 0.61545 0.92845 0.0
H687 H 0.56224 0.54663 0.90081 0.0
H688 H 0.6541 0.64875 0.86818 0.0
H689 H 0.70621 0.57596 0.89595 0.0
H690 H 0.49051 0.61283 0.8358 0.0
H691 H 0.61547 0.61145 0.98063 0.0
H692 H 0.55253 0.5351 0.95423 0.0
C693 C 0.91516 0.70273 0.99038 0.0
C694 C 0.91133 0.69299 0.02003 0.0
N695 N 0.90581 0.66203 0.01929 0.0
N696 N 0.91202 0.67812 0.97074 0.0
C697 C 0.90669 0.65373 0.98935 0.0
H698 H 0.918 0.7265 0.98349 0.0
Co699 Co 0.90809 0.67806 0.92678 0.0
C700 C 0.88952 0.60854 0.92305 0.0
O701 O 0.86079 0.61361 0.92078 0.0
N702 N 0.90347 0.67499 0.88226 0.0
C703 C 0.88145 0.65618 0.83858 0.0
C704 C 0.87935 0.65857 0.86936 0.0
C705 C 0.92054 0.68202 0.8575 0.0
N706 N 0.9074 0.67061 0.83083 0.0
O707 O 0.95329 0.68416 0.92319 0.0
H708 H 0.86096 0.64807 0.88139 0.0
H709 H 0.94229 0.69439 0.85884 0.0
O710 O 0.90952 0.63129 0.92548 0.0
C711 C 0.96147 0.71295 0.91956 0.0
O712 O 0.94011 0.7328 0.91844 0.0
N713 N 0.86456 0.67955 0.93046 0.0
C714 C 0.80277 0.67717 0.91752 0.0
C715 C 0.8142 0.66069 0.94183 0.0
C716 C 0.84524 0.6633 0.94889 0.0
C717 C 0.85269 0.7014 0.91239 0.0
C718 C 0.82179 0.69996 0.90471 0.0
H719 H 0.85355 0.64861 0.96613 0.0
H720 H 0.86768 0.71756 0.90081 0.0
H721 H 0.90018 0.63058 0.98122 0.0
H722 H 0.91042 0.70779 0.04027 0.0
H723 H 0.8657 0.64348 0.823 0.0
H724 H 0.79973 0.64423 0.9537 0.0
H725 H 0.81338 0.71461 0.88719 0.0
C726 C 0.05725 0.19374 0.61302 0.0
C727 C 0.04848 0.18339 0.5841 0.0
N728 N 0.04594 0.15234 0.58403 0.0
N729 N 0.05952 0.16931 0.6314 0.0
C730 C 0.05085 0.14468 0.61309 0.0
H731 H 0.06514 0.21715 0.61851 0.0
Co732 Co 0.07926 0.1662 0.66997 0.0
C733 C 0.09014 0.09725 0.65495 0.0
O734 O 0.06519 0.08724 0.66814 0.0
N735 N 0.09846 0.16145 0.70972 0.0
C736 C 0.1272 0.13597 0.74152 0.0
C737 C 0.10705 0.13339 0.71801 0.0
C738 C 0.11091 0.18047 0.73259 0.0
N739 N 0.12948 0.16546 0.7518 0.0
O740 O 0.05968 0.20525 0.68354 0.0
H741 H 0.0998 0.11147 0.70809 0.0
H742 H 0.10731 0.20497 0.73453 0.0
O743 O 0.09678 0.12638 0.65529 0.0
C744 C 0.06137 0.23397 0.67647 0.0
O745 O 0.08561 0.24523 0.66303 0.0
N746 N 0.11564 0.18689 0.65498 0.0
C747 C 0.17672 0.17846 0.64909 0.0
C748 C 0.15607 0.16685 0.62664 0.0
C749 C 0.12585 0.17258 0.62937 0.0
C750 C 0.13595 0.20499 0.67238 0.0
C751 C 0.1672 0.20128 0.66959 0.0
H752 H 0.11064 0.15879 0.61483 0.0
H753 H 0.12821 0.21988 0.69031 0.0
H754 H 0.05161 0.12101 0.61972 0.0
H755 H 0.04906 0.19714 0.56386 0.0
H756 H 0.13954 0.11708 0.75024 0.0
H757 H 0.16233 0.15011 0.60936 0.0
H758 H 0.18321 0.21308 0.68549 0.0
C759 C 0.56706 0.36236 0.33552 0.0
C760 C 0.56866 0.36732 0.30476 0.0
N761 N 0.59287 0.35331 0.29424 0.0
N762 N 0.59089 0.34646 0.34459 0.0
C763 C 0.60438 0.33888 0.31825 0.0
H764 H 0.55065 0.37171 0.35061 0.0
Co765 Co 0.60246 0.34294 0.38588 0.0
C766 C 0.66459 0.34078 0.35635 0.0
O767 O 0.65783 0.36504 0.3408 0.0
N768 N 0.61127 0.34009 0.42676 0.0
C769 C 0.6377 0.34466 0.47008 0.0
C770 C 0.63735 0.33358 0.44064 0.0
C771 C 0.59506 0.35331 0.44878 0.0
N772 N 0.6111 0.35718 0.47514 0.0
O773 O 0.58429 0.30013 0.3852 0.0
H774 H 0.65572 0.32369 0.42968 0.0
H775 H 0.57273 0.36161 0.44493 0.0
O776 O 0.64464 0.32879 0.37445 0.0
C777 C 0.55614 0.2976 0.39184 0.0
O778 O 0.54204 0.32314 0.3969 0.0
N779 N 0.6183 0.38555 0.38901 0.0
C780 C 0.63938 0.4474 0.39884 0.0
C781 C 0.65876 0.42348 0.40247 0.0
C782 C 0.64756 0.3929 0.39865 0.0
C783 C 0.59866 0.40882 0.38739 0.0
C784 C 0.60879 0.43999 0.39187 0.0
H785 H 0.66276 0.37532 0.40423 0.0
H786 H 0.57482 0.40343 0.38394 0.0
H787 H 0.62378 0.32497 0.31656 0.0
H788 H 0.55523 0.38282 0.29192 0.0
H789 H 0.65637 0.34448 0.48638 0.0
H790 H 0.68233 0.4284 0.40884 0.0
H791 H 0.59291 0.45805 0.39013 0.0
C792 C 0.39619 0.81233 0.09486 0.0
C793 C 0.39121 0.81326 0.06374 0.0
N794 N 0.40707 0.83804 0.05339 0.0
N795 N 0.41488 0.83662 0.10418 0.0
C796 C 0.42166 0.85132 0.07817 0.0
H797 H 0.38473 0.79661 0.11011 0.0
Co798 Co 0.41977 0.85061 0.14523 0.0
C799 C 0.41887 0.92071 0.14217 0.0
O800 O 0.40022 0.91889 0.16509 0.0
N801 N 0.4247 0.8641 0.18741 0.0
C802 C 0.4329 0.89909 0.22486 0.0
C803 C 0.44215 0.88907 0.19687 0.0
C804 C 0.40934 0.85618 0.21287 0.0
N805 N 0.41221 0.87829 0.23572 0.0
O806 O 0.46221 0.83858 0.14627 0.0
H807 H 0.45836 0.90141 0.18296 0.0
H808 H 0.39616 0.83461 0.21449 0.0
O809 O 0.42992 0.89549 0.1315 0.0
C810 C 0.46345 0.80989 0.15292 0.0
O811 O 0.43775 0.79362 0.1555 0.0
N812 N 0.37796 0.85833 0.1449 0.0
C813 C 0.31996 0.87567 0.15583 0.0
C814 C 0.33672 0.88968 0.13285 0.0
C815 C 0.3653 0.87947 0.12669 0.0
C816 C 0.35959 0.84033 0.16252 0.0
C817 C 0.33026 0.84886 0.16865 0.0
H818 H 0.3782 0.89074 0.10924 0.0
H819 H 0.36822 0.82032 0.17316 0.0
H820 H 0.43562 0.87222 0.07745 0.0
H821 H 0.3753 0.79845 0.05021 0.0
H822 H 0.44 0.92123 0.23549 0.0
H823 H 0.32856 0.90932 0.12101 0.0
H824 H 0.31672 0.83609 0.18486 0.0
C825 C 0.90331 0.30713 0.59263 0.0
C826 C 0.90056 0.30704 0.56108 0.0
N827 N 0.90804 0.33582 0.5518 0.0
N828 N 0.913 0.33567 0.60313 0.0
C829 C 0.91603 0.35222 0.57753 0.0
H830 H 0.89745 0.28794 0.60705 0.0
Co831 Co 0.91525 0.351 0.64405 0.0
C832 C 0.91544 0.41669 0.61784 0.0
O833 O 0.88764 0.41295 0.60751 0.0
N834 N 0.91724 0.36845 0.68496 0.0
C835 C 0.89812 0.39949 0.72007 0.0
C836 C 0.9047 0.39591 0.69017 0.0
C837 C 0.9194 0.35643 0.71323 0.0
N838 N 0.90681 0.37464 0.73485 0.0
O839 O 0.9577 0.33968 0.64758 0.0
H840 H 0.89585 0.4103 0.6729 0.0
H841 H 0.92668 0.33341 0.71726 0.0
O842 O 0.92825 0.39439 0.63083 0.0
C843 C 0.95883 0.31246 0.65847 0.0
O844 O 0.93315 0.29786 0.66526 0.0
N845 N 0.87225 0.35618 0.64275 0.0
C846 C 0.81582 0.37463 0.65962 0.0
C847 C 0.82383 0.37427 0.62859 0.0
C848 C 0.8525 0.36448 0.62048 0.0
C849 C 0.85993 0.34627 0.66912 0.0
C850 C 0.83387 0.35873 0.67973 0.0
H851 H 0.85917 0.36545 0.59697 0.0
H852 H 0.87238 0.33177 0.68355 0.0
H853 H 0.92344 0.37613 0.57719 0.0
H854 H 0.89273 0.28769 0.54627 0.0
H855 H 0.88516 0.41774 0.72979 0.0
H856 H 0.80925 0.38351 0.61139 0.0
H857 H 0.82864 0.35649 0.70359 0.0
C858 C 0.39311 0.20282 0.46556 0.0
C859 C 0.39122 0.2002 0.49682 0.0
N860 N 0.4079 0.17665 0.50517 0.0
N861 N 0.41066 0.1808 0.4543 0.0
C862 C 0.42004 0.16604 0.4792 0.0
H863 H 0.38 0.21765 0.45166 0.0
Co864 Co 0.41029 0.16568 0.41362 0.0
C865 C 0.43186 0.10015 0.4206 0.0
O866 O 0.45293 0.10274 0.40006 0.0
N867 N 0.40839 0.14965 0.37314 0.0
C868 C 0.39034 0.11882 0.33474 0.0
C869 C 0.39233 0.12288 0.36564 0.0
C870 C 0.41615 0.16142 0.3459 0.0
N871 N 0.40533 0.1429 0.32222 0.0
O872 O 0.4542 0.17665 0.41097 0.0
H873 H 0.38143 0.10761 0.38163 0.0
H874 H 0.42819 0.18357 0.34334 0.0
O875 O 0.41652 0.12347 0.42768 0.0
C876 C 0.46024 0.20477 0.40331 0.0
O877 O 0.43755 0.22218 0.39759 0.0
N878 N 0.36794 0.15844 0.41537 0.0
C879 C 0.30568 0.14788 0.40693 0.0
C880 C 0.32191 0.12945 0.42651 0.0
C881 C 0.35313 0.13536 0.43078 0.0
C882 C 0.35214 0.17782 0.39791 0.0
C883 C 0.3209 0.17301 0.39341 0.0
H884 H 0.36536 0.12064 0.44554 0.0
H885 H 0.36414 0.19636 0.38635 0.0
H886 H 0.43381 0.14651 0.47818 0.0
H887 H 0.3768 0.21281 0.51181 0.0
H888 H 0.37848 0.09976 0.32222 0.0
H889 H 0.31068 0.11015 0.43768 0.0
H890 H 0.30893 0.18792 0.3785 0.0
C891 C 0.56952 0.68249 0.10574 0.0
C892 C 0.56459 0.67016 0.07668 0.0
N893 N 0.5583 0.63955 0.07876 0.0
N894 N 0.56667 0.65966 0.12609 0.0
C895 C 0.5581 0.63416 0.10895 0.0
H896 H 0.57794 0.70591 0.1113 0.0
Co897 Co 0.58042 0.66269 0.1673 0.0
C898 C 0.59863 0.59467 0.17696 0.0
O899 O 0.57959 0.58833 0.19877 0.0
N900 N 0.59258 0.66542 0.20964 0.0
C901 C 0.5882 0.66449 0.26038 0.0
C902 C 0.5728 0.66571 0.2327 0.0
C903 C 0.61973 0.6634 0.2243 0.0
N904 N 0.61779 0.66328 0.25486 0.0
O905 O 0.56192 0.70393 0.16924 0.0
H906 H 0.54853 0.66598 0.22953 0.0
H907 H 0.64088 0.66201 0.2134 0.0
O908 O 0.59831 0.62105 0.16439 0.0
C909 C 0.56166 0.72998 0.18392 0.0
O910 O 0.57923 0.7352 0.20818 0.0
N911 N 0.61925 0.6792 0.15414 0.0
C912 C 0.68048 0.67114 0.15362 0.0
C913 C 0.66202 0.6574 0.13063 0.0
C914 C 0.63135 0.66134 0.13166 0.0
C915 C 0.63808 0.69968 0.17072 0.0
C916 C 0.66931 0.69494 0.17195 0.0
H917 H 0.61756 0.64466 0.11852 0.0
H918 H 0.62893 0.71511 0.18751 0.0
H919 H 0.55293 0.61189 0.11837 0.0
H920 H 0.56866 0.68202 0.05563 0.0
H921 H 0.57857 0.66364 0.28267 0.0
H922 H 0.67013 0.63934 0.11573 0.0
H923 H 0.68351 0.70673 0.18951 0.0
C924 C 0.05213 0.84304 0.83547 0.0
C925 C 0.05448 0.84028 0.80413 0.0
N926 N 0.08293 0.84929 0.79679 0.0
N927 N 0.07913 0.85305 0.84798 0.0
C928 C 0.09735 0.85584 0.82372 0.0
H929 H 0.0319 0.83814 0.84824 0.0
Co930 Co 0.08843 0.86013 0.88997 0.0
C931 C 0.15702 0.8701 0.87233 0.0
O932 O 0.15313 0.89566 0.85807 0.0
N933 N 0.09874 0.86683 0.93187 0.0
C934 C 0.12411 0.89067 0.97096 0.0
C935 C 0.12393 0.88432 0.94043 0.0
C936 C 0.08342 0.86343 0.95814 0.0
N937 N 0.09863 0.87786 0.98203 0.0
O938 O 0.0801 0.81459 0.89662 0.0
H939 H 0.13951 0.89529 0.925 0.0
H940 H 0.06065 0.85328 0.95937 0.0
O941 O 0.13419 0.85471 0.8837 0.0
C942 C 0.05271 0.80742 0.90459 0.0
O943 O 0.03442 0.83002 0.90851 0.0
N944 N 0.09093 0.90514 0.88514 0.0
C945 C 0.10904 0.96694 0.89687 0.0
C946 C 0.11267 0.95343 0.86778 0.0
C947 C 0.10211 0.92257 0.86195 0.0
C948 C 0.07918 0.92101 0.90919 0.0
C949 C 0.09003 0.95114 0.91695 0.0
H950 H 0.10571 0.91255 0.83972 0.0
H951 H 0.06409 0.90921 0.92451 0.0
H952 H 0.12081 0.86324 0.82516 0.0
H953 H 0.0365 0.83304 0.78799 0.0
H954 H 0.14049 0.90566 0.98375 0.0
H955 H 0.125 0.9659 0.85048 0.0
H956 H 0.08447 0.9615 0.93876 0.0
C957 C 0.98839 0.95202 0.66874 0.0
C958 C 0.01746 0.94927 0.6586 0.0
N959 N 0.01675 0.94913 0.62782 0.0
N960 N 0.96951 0.95372 0.64447 0.0
C961 C 0.98778 0.95384 0.62023 0.0
H962 H 0.98105 0.94875 0.69185 0.0
Co963 Co 0.92817 0.9423 0.6441 0.0
C964 C 0.91448 0.91922 0.57754 0.0
O965 O 0.89461 0.89859 0.58774 0.0
N966 N 0.88608 0.93049 0.64438 0.0
C967 C 0.84304 0.90424 0.65477 0.0
C968 C 0.87297 0.90887 0.66229 0.0
C969 C 0.8626 0.94011 0.6273 0.0
N970 N 0.83632 0.92381 0.63282 0.0
O971 O 0.91876 0.98659 0.64644 0.0
H972 H 0.88365 0.89737 0.68058 0.0
H973 H 0.8648 0.95834 0.61097 0.0
O974 O 0.928 0.93894 0.59671 0.0
C975 C 0.91434 0.99428 0.67458 0.0
O976 O 0.91509 0.97253 0.6948 0.0
N977 N 0.93823 0.90019 0.64779 0.0
C978 C 0.93747 0.83725 0.65749 0.0
C979 C 0.94417 0.84858 0.62889 0.0
C980 C 0.9453 0.88023 0.62483 0.0
C981 C 0.93819 0.88991 0.67698 0.0
C982 C 0.93692 0.85808 0.68245 0.0
H983 H 0.95108 0.88803 0.6031 0.0
H984 H 0.93554 0.90619 0.69579 0.0
H985 H 0.97984 0.95537 0.5971 0.0
H986 H 0.03662 0.94312 0.67244 0.0
H987 H 0.82699 0.88832 0.66535 0.0
H988 H 0.9468 0.83303 0.60941 0.0
H989 H 0.93308 0.84994 0.70523 0.0
C990 C 0.78813 0.08669 0.41207 0.0
C991 C 0.78659 0.05764 0.39796 0.0
N992 N 0.81008 0.04233 0.40852 0.0
N993 N 0.81239 0.08921 0.4313 0.0
C994 C 0.82399 0.06113 0.42981 0.0
H995 H 0.77547 0.10607 0.40509 0.0
Co996 Co 0.83548 0.12576 0.43906 0.0
C997 C 0.89439 0.10623 0.46691 0.0
O998 O 0.89178 0.12561 0.49015 0.0
N999 N 0.85921 0.16265 0.44498 0.0
C1000 C 0.89459 0.19431 0.42638 0.0
C1001 C 0.88722 0.16482 0.43326 0.0
C1002 C 0.85059 0.1922 0.44603 0.0
N1003 N 0.87152 0.21189 0.4336 0.0
O1004 O 0.82255 0.1261 0.48198 0.0
H1005 H 0.89957 0.14596 0.42436 0.0
H1006 H 0.82842 0.19844 0.45303 0.0
O1007 O 0.87202 0.1026 0.44805 0.0
C1008 C 0.79766 0.13916 0.48703 0.0
O1009 O 0.78454 0.15277 0.46434 0.0
N1010 N 0.84543 0.12633 0.39721 0.0
C1011 C 0.86731 0.14034 0.33995 0.0
C1012 C 0.87788 0.11523 0.3556 0.0
C1013 C 0.86618 0.10819 0.38402 0.0
C1014 C 0.83281 0.14891 0.38096 0.0
C1015 C 0.84347 0.15639 0.35214 0.0
H1016 H 0.87478 0.08888 0.39568 0.0
H1017 H 0.81557 0.16228 0.39119 0.0
H1018 H 0.84474 0.05554 0.44089 0.0
H1019 H 0.77219 0.05011 0.37863 0.0
H1020 H 0.91411 0.20146 0.4133 0.0
H1021 H 0.89561 0.10171 0.34631 0.0
H1022 H 0.83434 0.17549 0.34021 0.0
C1023 C 0.59641 0.09633 0.17116 0.0
C1024 C 0.56581 0.09556 0.16403 0.0
N1025 N 0.56247 0.09518 0.13346 0.0
N1026 N 0.61218 0.09654 0.14518 0.0
C1027 C 0.5907 0.0955 0.12263 0.0
H1028 H 0.60654 0.09798 0.19382 0.0
Co1029 Co 0.65439 0.10241 0.14207 0.0
C1030 C 0.64887 0.08647 0.06853 0.0
O1031 O 0.65714 0.05913 0.05921 0.0
N1032 N 0.69721 0.10824 0.13818 0.0
C1033 C 0.74116 0.10732 0.11454 0.0
C1034 C 0.71237 0.09423 0.11577 0.0
C1035 C 0.71857 0.12807 0.15198 0.0
N1036 N 0.74529 0.1287 0.13735 0.0
O1037 O 0.65912 0.05799 0.15186 0.0
H1038 H 0.7029 0.07627 0.1003 0.0
H1039 H 0.71476 0.14251 0.17182 0.0
O1040 O 0.65063 0.09379 0.09716 0.0
C1041 C 0.66703 0.05324 0.17971 0.0
O1042 O 0.67244 0.07747 0.1981 0.0
N1043 N 0.64972 0.14543 0.13615 0.0
C1044 C 0.64751 0.21031 0.12858 0.0
C1045 C 0.63457 0.18829 0.10699 0.0
C1046 C 0.63526 0.1566 0.11152 0.0
C1047 C 0.66019 0.16569 0.15873 0.0
C1048 C 0.66079 0.19781 0.15483 0.0
H1049 H 0.62404 0.14124 0.09487 0.0
H1050 H 0.66892 0.15695 0.17975 0.0
H1051 H 0.59524 0.09627 0.0986 0.0
H1052 H 0.54753 0.0966 0.17998 0.0
H1053 H 0.75779 0.10176 0.09776 0.0
H1054 H 0.62481 0.19452 0.08559 0.0
H1055 H 0.67284 0.21175 0.17222 0.0
C1056 C 0.66473 0.94184 0.92624 0.0
C1057 C 0.66131 0.9724 0.91925 0.0
N1058 N 0.63176 0.97788 0.92086 0.0
N1059 N 0.63749 0.9283 0.93246 0.0
C1060 C 0.6179 0.95101 0.92907 0.0
H1061 H 0.6856 0.92997 0.92598 0.0
Co1062 Co 0.62955 0.88601 0.93862 0.0
C1063 C 0.56262 0.87845 0.94359 0.0
O1064 O 0.56492 0.85149 0.92952 0.0
N1065 N 0.62184 0.84275 0.94496 0.0
C1066 C 0.60472 0.80012 0.96799 0.0
C1067 C 0.6097 0.83172 0.9708 0.0
C1068 C 0.62479 0.81689 0.92706 0.0
N1069 N 0.61398 0.79086 0.94038 0.0
O1070 O 0.64535 0.89134 0.981 0.0
H1071 H 0.60386 0.84599 0.99023 0.0
H1072 H 0.63409 0.81668 0.90455 0.0
O1073 O 0.58723 0.8945 0.95038 0.0
C1074 C 0.67168 0.88097 0.98534 0.0
O1075 O 0.68457 0.86725 0.96231 0.0
N1076 N 0.6179 0.88148 0.89699 0.0
C1077 C 0.60836 0.8747 0.83424 0.0
C1078 C 0.58725 0.88899 0.85228 0.0
C1079 C 0.593 0.89321 0.88348 0.0
C1080 C 0.63957 0.86945 0.87928 0.0
C1081 C 0.63504 0.86527 0.84784 0.0
H1082 H 0.57774 0.90684 0.89615 0.0
H1083 H 0.66049 0.86287 0.88977 0.0
H1084 H 0.59378 0.94787 0.93116 0.0
H1085 H 0.67898 0.98914 0.91294 0.0
H1086 H 0.59481 0.78503 0.98481 0.0
H1087 H 0.56701 0.89772 0.84215 0.0
H1088 H 0.65223 0.85499 0.83423 0.0
C1089 C 0.84884 0.07573 0.83506 0.0
C1090 C 0.81783 0.07263 0.83731 0.0
N1091 N 0.80593 0.09654 0.82318 0.0
N1092 N 0.8563 0.10135 0.81947 0.0
C1093 C 0.82958 0.11169 0.81026 0.0
H1094 H 0.86497 0.06209 0.84672 0.0
Co1095 Co 0.89536 0.11978 0.81788 0.0
C1096 C 0.86021 0.18342 0.82803 0.0
O1097 O 0.83256 0.17149 0.83053 0.0
N1098 N 0.93549 0.13771 0.81544 0.0
C1099 C 0.97108 0.17539 0.80896 0.0
C1100 C 0.9424 0.16401 0.80048 0.0
C1101 C 0.96163 0.13218 0.83049 0.0
N1102 N 0.9828 0.15552 0.82831 0.0
O1103 O 0.89374 0.11421 0.77272 0.0
H1104 H 0.92665 0.17569 0.78628 0.0
H1105 H 0.96527 0.11249 0.84415 0.0
O1106 O 0.88146 0.16532 0.82045 0.0
C1107 C 0.9048 0.08815 0.76517 0.0
O1108 O 0.91609 0.07187 0.78705 0.0
N1109 N 0.89759 0.12117 0.86182 0.0
C1110 C 0.90713 0.13113 0.92436 0.0
C1111 C 0.8819 0.14238 0.90984 0.0
C1112 C 0.87755 0.13696 0.87867 0.0
C1113 C 0.91808 0.10446 0.87698 0.0
C1114 C 0.92463 0.11053 0.90807 0.0
H1115 H 0.85764 0.14503 0.86856 0.0
H1116 H 0.92985 0.08686 0.86489 0.0
H1117 H 0.82744 0.13107 0.79557 0.0
H1118 H 0.80552 0.05698 0.85204 0.0
H1119 H 0.98181 0.19736 0.80285 0.0
H1120 H 0.86643 0.15643 0.92222 0.0
H1121 H 0.94304 0.09945 0.91918 0.0
C1122 C 0.64226 0.20786 0.5738 0.0
C1123 C 0.64214 0.23866 0.58332 0.0
N1124 N 0.6547 0.24166 0.61156 0.0
N1125 N 0.65486 0.19131 0.59588 0.0
C1126 C 0.66366 0.21301 0.61777 0.0
H1127 H 0.63098 0.19774 0.55351 0.0
Co1128 Co 0.64908 0.14749 0.6007 0.0
C1129 C 0.63748 0.1697 0.66809 0.0
O1130 O 0.62161 0.19314 0.6608 0.0
N1131 N 0.64192 0.10347 0.60884 0.0
C1132 C 0.61349 0.06673 0.63163 0.0
C1133 C 0.61955 0.09747 0.62892 0.0
C1134 C 0.64979 0.07439 0.60035 0.0
N1135 N 0.63234 0.05193 0.6138 0.0
O1136 O 0.69328 0.14317 0.59867 0.0
H1137 H 0.60696 0.11474 0.6404 0.0
H1138 H 0.66763 0.06953 0.58497 0.0
O1139 O 0.64927 0.15303 0.64712 0.0
C1140 C 0.69976 0.14204 0.57008 0.0
O1141 O 0.6775 0.14436 0.55017 0.0
N1142 N 0.60641 0.15014 0.59506 0.0
C1143 C 0.54905 0.1274 0.60567 0.0
C1144 C 0.55679 0.15903 0.61204 0.0
C1145 C 0.58676 0.16974 0.60762 0.0
C1146 C 0.59458 0.12614 0.57691 0.0
C1147 C 0.56686 0.11211 0.58449 0.0
H1148 H 0.59424 0.19248 0.6157 0.0
H1149 H 0.60931 0.11328 0.56249 0.0
H1150 H 0.67457 0.20769 0.63907 0.0
H1151 H 0.63136 0.25688 0.57153 0.0
H1152 H 0.59665 0.05585 0.64602 0.0
H1153 H 0.54204 0.17332 0.62505 0.0
H1154 H 0.56205 0.08822 0.57723 0.0
C1155 C 0.73814 0.96575 0.33938 0.0
C1156 C 0.76815 0.95917 0.34401 0.0
N1157 N 0.77266 0.93115 0.33099 0.0
N1158 N 0.72415 0.94268 0.32227 0.0
C1159 C 0.74676 0.92454 0.31448 0.0
H1160 H 0.72657 0.9838 0.35115 0.0
Co1161 Co 0.6823 0.93 0.31931 0.0
C1162 C 0.71088 0.86422 0.33298 0.0
O1163 O 0.73698 0.87423 0.34463 0.0
N1164 N 0.63985 0.91626 0.31589 0.0
C1165 C 0.60163 0.88138 0.32048 0.0
C1166 C 0.63085 0.88606 0.31208 0.0
C1167 C 0.61361 0.92986 0.32283 0.0
N1168 N 0.59 0.90884 0.32704 0.0
O1169 O 0.68406 0.93268 0.27434 0.0
H1170 H 0.64464 0.86753 0.30494 0.0
H1171 H 0.6121 0.95464 0.32526 0.0
O1172 O 0.69186 0.8833 0.32246 0.0
C1173 C 0.67603 0.96006 0.26787 0.0
O1174 O 0.6681 0.97824 0.29048 0.0
N1175 N 0.67901 0.93299 0.36247 0.0
C1176 C 0.65773 0.92789 0.42102 0.0
C1177 C 0.68232 0.91144 0.41189 0.0
C1178 C 0.69334 0.91537 0.38284 0.0
C1179 C 0.65932 0.95375 0.37317 0.0
C1180 C 0.64803 0.95147 0.40267 0.0
H1181 H 0.71272 0.90366 0.37711 0.0
H1182 H 0.65083 0.97077 0.35816 0.0
H1183 H 0.74289 0.90387 0.30022 0.0
H1184 H 0.78348 0.97116 0.36042 0.0
H1185 H 0.58998 0.85887 0.32225 0.0
H1186 H 0.69205 0.89464 0.42651 0.0
H1187 H 0.63053 0.96625 0.41023 0.0
C1188 C 0.81992 0.81844 0.07847 0.0
C1189 C 0.82506 0.78784 0.08343 0.0
N1190 N 0.82141 0.7831 0.11335 0.0
N1191 N 0.81305 0.8323 0.10518 0.0
C1192 C 0.81223 0.80969 0.12537 0.0
H1193 H 0.82476 0.83067 0.05782 0.0
Co1194 Co 0.81705 0.87424 0.11239 0.0
C1195 C 0.82095 0.88729 0.1804 0.0
O1196 O 0.83648 0.91233 0.17282 0.0
N1197 N 0.82036 0.91754 0.11713 0.0
C1198 C 0.80957 0.9656 0.13112 0.0
C1199 C 0.79872 0.93519 0.12872 0.0
C1200 C 0.84345 0.93807 0.11124 0.0
N1201 N 0.83777 0.96692 0.12043 0.0
O1202 O 0.77422 0.87687 0.10033 0.0
H1203 H 0.77698 0.92626 0.1364 0.0
H1204 H 0.86436 0.93274 0.10093 0.0
O1205 O 0.80814 0.87007 0.15856 0.0
C1206 C 0.7693 0.8842 0.07261 0.0
O1207 O 0.79263 0.89097 0.05554 0.0
N1208 N 0.85966 0.87011 0.12231 0.0
C1209 C 0.9193 0.87339 0.14486 0.0
C1210 C 0.89607 0.85895 0.16104 0.0
C1211 C 0.86739 0.85533 0.1482 0.0
C1212 C 0.88256 0.87967 0.10374 0.0
C1213 C 0.91281 0.88187 0.11473 0.0
H1214 H 0.85134 0.8415 0.16034 0.0
H1215 H 0.87734 0.88719 0.08102 0.0
H1216 H 0.80922 0.81337 0.14934 0.0
H1217 H 0.83517 0.77198 0.0676 0.0
H1218 H 0.7981 0.98502 0.14061 0.0
H1219 H 0.89992 0.85037 0.18366 0.0
H1220 H 0.93052 0.89143 0.10055 0.0
C1221 C 0.14695 0.70522 0.07585 0.0
C1222 C 0.14543 0.73661 0.08159 0.0
N1223 N 0.1583 0.74343 0.10916 0.0
N1224 N 0.16036 0.6922 0.09985 0.0
C1225 C 0.16739 0.71633 0.11955 0.0
H1226 H 0.13696 0.69232 0.05634 0.0
Co1227 Co 0.16043 0.64898 0.1049 0.0
C1228 C 0.16975 0.66159 0.17697 0.0
O1229 O 0.19296 0.6817 0.18009 0.0
N1230 N 0.16066 0.60485 0.11082 0.0
C1231 C 0.17478 0.56214 0.13382 0.0
C1232 C 0.18147 0.59317 0.1297 0.0
C1233 C 0.14171 0.57972 0.10343 0.0
N1234 N 0.14962 0.55377 0.11743 0.0
O1235 O 0.20396 0.65056 0.10119 0.0
H1236 H 0.19971 0.6068 0.14118 0.0
H1237 H 0.12181 0.58002 0.08903 0.0
O1238 O 0.161 0.65289 0.15001 0.0
C1239 C 0.20903 0.64367 0.07324 0.0
O1240 O 0.18577 0.63686 0.05475 0.0
N1241 N 0.11858 0.64811 0.10486 0.0
C1242 C 0.05808 0.63448 0.11041 0.0
C1243 C 0.07276 0.65667 0.13015 0.0
C1244 C 0.10331 0.66372 0.12654 0.0
C1245 C 0.10309 0.63331 0.08107 0.0
C1246 C 0.07227 0.62551 0.08361 0.0
H1247 H 0.11505 0.67945 0.14288 0.0
H1248 H 0.11523 0.62468 0.06173 0.0
H1249 H 0.17739 0.71431 0.14176 0.0
H1250 H 0.13425 0.75285 0.06748 0.0
H1251 H 0.1865 0.54727 0.14895 0.0
H1252 H 0.06167 0.66592 0.14993 0.0
H1253 H 0.06076 0.60994 0.06686 0.0
C1254 C 0.22842 0.4635 0.85209 0.0
C1255 C 0.2591 0.4612 0.85188 0.0
N1256 N 0.26637 0.44075 0.82961 0.0
N1257 N 0.21535 0.44337 0.83125 0.0
C1258 C 0.23898 0.43133 0.81684 0.0
H1259 H 0.21689 0.47714 0.86858 0.0
Co1260 Co 0.17449 0.42776 0.82777 0.0
C1261 C 0.21031 0.37084 0.84188 0.0
O1262 O 0.2272 0.38947 0.86014 0.0
N1263 N 0.13387 0.41304 0.82434 0.0
C1264 C 0.09365 0.38165 0.83241 0.0
C1265 C 0.12357 0.38325 0.82549 0.0
C1266 C 0.1091 0.42932 0.82946 0.0
N1267 N 0.08441 0.4106 0.83499 0.0
O1268 O 0.17537 0.43468 0.78292 0.0
H1269 H 0.13723 0.36386 0.82454 0.0
H1270 H 0.10977 0.45433 0.83136 0.0
O1271 O 0.18908 0.38258 0.82569 0.0
C1272 C 0.16732 0.46223 0.77717 0.0
O1273 O 0.16026 0.4801 0.80037 0.0
N1274 N 0.17095 0.4254 0.87079 0.0
C1275 C 0.15983 0.42595 0.93313 0.0
C1276 C 0.16216 0.39807 0.9168 0.0
C1277 C 0.16656 0.39825 0.88567 0.0
C1278 C 0.16659 0.45273 0.88604 0.0
C1279 C 0.16195 0.45372 0.91755 0.0
H1280 H 0.16448 0.37627 0.87374 0.0
H1281 H 0.16626 0.47392 0.87357 0.0
H1282 H 0.23542 0.41235 0.80045 0.0
H1283 H 0.27384 0.47134 0.86975 0.0
H1284 H 0.0802 0.36087 0.83759 0.0
H1285 H 0.15922 0.37605 0.92789 0.0
H1286 H 0.15956 0.47575 0.92933 0.0
C1287 C 0.31831 0.30542 0.58946 0.0
C1288 C 0.32026 0.27428 0.5936 0.0
N1289 N 0.31017 0.26703 0.62168 0.0
N1290 N 0.30787 0.3184 0.61495 0.0
C1291 C 0.30237 0.29463 0.63372 0.0
H1292 H 0.32719 0.31831 0.57054 0.0
Co1293 Co 0.31133 0.36059 0.62368 0.0
C1294 C 0.3055 0.35045 0.6973 0.0
O1295 O 0.28123 0.34852 0.71399 0.0
N1296 N 0.31397 0.40396 0.6327 0.0
C1297 C 0.2997 0.44998 0.65008 0.0
C1298 C 0.29201 0.41869 0.6474 0.0
C1299 C 0.33452 0.42713 0.6263 0.0
N1300 N 0.32649 0.45491 0.63683 0.0
O1301 O 0.26829 0.36349 0.60925 0.0
H1302 H 0.27169 0.40728 0.65592 0.0
H1303 H 0.355 0.42461 0.614 0.0
O1304 O 0.30142 0.3544 0.66826 0.0
C1305 C 0.26533 0.37915 0.58489 0.0
O1306 O 0.2892 0.39552 0.57582 0.0
N1307 N 0.3528 0.35687 0.63257 0.0
C1308 C 0.41331 0.35938 0.64951 0.0
C1309 C 0.39274 0.33938 0.66386 0.0
C1310 C 0.36279 0.33725 0.65379 0.0
C1311 C 0.37345 0.37059 0.61392 0.0
C1312 C 0.40407 0.37307 0.62251 0.0
H1313 H 0.34762 0.32063 0.664 0.0
H1314 H 0.36601 0.38074 0.59303 0.0
H1315 H 0.29686 0.29833 0.65729 0.0
H1316 H 0.3319 0.25952 0.57807 0.0
H1317 H 0.28707 0.46756 0.66134 0.0
H1318 H 0.39953 0.32616 0.68316 0.0
H1319 H 0.41997 0.38666 0.60921 0.0
C1320 C 0.09381 0.61679 0.68748 0.0
C1321 C 0.06288 0.61827 0.6831 0.0
N1322 N 0.05472 0.60335 0.65654 0.0
N1323 N 0.10515 0.60027 0.66427 0.0
C1324 C 0.0802 0.58979 0.64786 0.0
H1325 H 0.10752 0.63029 0.70426 0.0
Co1326 Co 0.14632 0.60372 0.65145 0.0
C1327 C 0.11237 0.60465 0.58627 0.0
O1328 O 0.08839 0.61796 0.5959 0.0
N1329 N 0.18772 0.60847 0.63755 0.0
C1330 C 0.22077 0.63598 0.60996 0.0
C1331 C 0.19163 0.62522 0.61221 0.0
C1332 C 0.21631 0.60905 0.65015 0.0
N1333 N 0.23684 0.62605 0.63359 0.0
O1334 O 0.14958 0.5583 0.65814 0.0
H1335 H 0.17368 0.63367 0.59846 0.0
H1336 H 0.2214 0.59977 0.67219 0.0
O1337 O 0.13338 0.59761 0.60548 0.0
C1338 C 0.15942 0.55285 0.68531 0.0
O1339 O 0.16774 0.57672 0.70327 0.0
N1340 N 0.14522 0.64789 0.65054 0.0
C1341 C 0.16382 0.70755 0.6356 0.0
C1342 C 0.13551 0.69496 0.6256 0.0
C1343 C 0.1264 0.66508 0.63395 0.0
C1344 C 0.16908 0.66272 0.66613 0.0
C1345 C 0.17981 0.69215 0.65783 0.0
H1346 H 0.10471 0.65615 0.62681 0.0
H1347 H 0.18219 0.65014 0.68215 0.0
H1348 H 0.08109 0.57498 0.62769 0.0
H1349 H 0.04861 0.63333 0.6958 0.0
H1350 H 0.22923 0.65195 0.59314 0.0
H1351 H 0.12146 0.70734 0.61015 0.0
H1352 H 0.20117 0.70189 0.66722 0.0
C1353 C 0.48911 0.44638 0.17199 0.0
C1354 C 0.51989 0.44651 0.16749 0.0
N1355 N 0.52547 0.457 0.1394 0.0
N1356 N 0.47536 0.45712 0.14704 0.0
C1357 C 0.49845 0.46591 0.12899 0.0
H1358 H 0.47724 0.43545 0.19048 0.0
Co1359 Co 0.43392 0.44866 0.13739 0.0
C1360 C 0.45804 0.44352 0.06759 0.0
O1361 O 0.48602 0.43669 0.07338 0.0
N1362 N 0.39248 0.43893 0.12762 0.0
C1363 C 0.35577 0.40886 0.10479 0.0
C1364 C 0.38592 0.41596 0.10654 0.0
C1365 C 0.36501 0.44548 0.13861 0.0
N1366 N 0.34249 0.42731 0.12479 0.0
O1367 O 0.42715 0.4942 0.14176 0.0
H1368 H 0.40237 0.40391 0.09373 0.0
H1369 H 0.36159 0.46219 0.15682 0.0
O1370 O 0.44001 0.44858 0.09003 0.0
C1371 C 0.41979 0.50192 0.16927 0.0
O1372 O 0.4159 0.47968 0.18879 0.0
N1373 N 0.43929 0.40521 0.13901 0.0
C1374 C 0.42884 0.34128 0.13426 0.0
C1375 C 0.45137 0.35607 0.11719 0.0
C1376 C 0.45617 0.38815 0.1199 0.0
C1377 C 0.42079 0.39048 0.15926 0.0
C1378 C 0.41433 0.3585 0.15653 0.0
H1379 H 0.47241 0.39896 0.10569 0.0
H1380 H 0.40826 0.40402 0.17525 0.0
H1381 H 0.49549 0.47717 0.10764 0.0
H1382 H 0.53598 0.43505 0.18155 0.0
H1383 H 0.34429 0.39129 0.08999 0.0
H1384 H 0.46359 0.34322 0.10032 0.0
H1385 H 0.39706 0.34764 0.17043 0.0
C1386 C 0.72494 0.48006 0.12428 0.0
C1387 C 0.71715 0.50717 0.13908 0.0
N1388 N 0.68775 0.51104 0.13291 0.0
N1389 N 0.7006 0.46705 0.10874 0.0
C1390 C 0.67863 0.48704 0.11408 0.0
H1391 H 0.74616 0.46912 0.12703 0.0
Co1392 Co 0.69501 0.42469 0.09644 0.0
C1393 C 0.62895 0.41469 0.08135 0.0
O1394 O 0.63149 0.38649 0.09101 0.0
N1395 N 0.68973 0.3819 0.08441 0.0
C1396 C 0.67917 0.34072 0.05388 0.0
C1397 C 0.68321 0.37231 0.05546 0.0
C1398 C 0.6894 0.35512 0.09988 0.0
N1399 N 0.68375 0.32924 0.0819 0.0
O1400 O 0.71437 0.43178 0.05601 0.0
H1401 H 0.67984 0.38749 0.03667 0.0
H1402 H 0.69094 0.35436 0.12425 0.0
O1403 O 0.6532 0.43239 0.08015 0.0
C1404 C 0.74215 0.42454 0.05398 0.0
O1405 O 0.75691 0.41937 0.07944 0.0
N1406 N 0.67946 0.4171 0.13588 0.0
C1407 C 0.65817 0.39711 0.19147 0.0
C1408 C 0.64104 0.41613 0.17371 0.0
C1409 C 0.65236 0.42643 0.14627 0.0
C1410 C 0.69828 0.40276 0.15527 0.0
C1411 C 0.68765 0.39134 0.18284 0.0
H1412 H 0.63874 0.44146 0.13354 0.0
H1413 H 0.7208 0.39783 0.14809 0.0
H1414 H 0.65545 0.48284 0.10698 0.0
H1415 H 0.73134 0.52175 0.1546 0.0
H1416 H 0.67163 0.32846 0.0333 0.0
H1417 H 0.61876 0.42233 0.18065 0.0
H1418 H 0.7019 0.37766 0.19685 0.0
C1419 C 0.85439 0.56592 0.59701 0.0
C1420 C 0.86107 0.53537 0.60031 0.0
N1421 N 0.89057 0.53476 0.60804 0.0
N1422 N 0.8798 0.58412 0.60167 0.0
C1423 C 0.90118 0.56443 0.6093 0.0
H1424 H 0.83241 0.57437 0.59221 0.0
Co1425 Co 0.88553 0.62681 0.59932 0.0
C1426 C 0.95293 0.63662 0.58267 0.0
O1427 O 0.95059 0.66627 0.57867 0.0
N1428 N 0.89142 0.67037 0.59782 0.0
C1429 C 0.90006 0.71852 0.58177 0.0
C1430 C 0.89301 0.68816 0.57295 0.0
C1431 C 0.89666 0.69092 0.6215 0.0
N1432 N 0.90252 0.71982 0.61227 0.0
O1433 O 0.86903 0.62486 0.55476 0.0
H1434 H 0.89126 0.67958 0.54976 0.0
H1435 H 0.8971 0.68538 0.64526 0.0
O1436 O 0.92866 0.62017 0.58783 0.0
C1437 C 0.84116 0.63167 0.55002 0.0
O1438 O 0.82551 0.63888 0.57407 0.0
N1439 N 0.89736 0.62856 0.64192 0.0
C1440 C 0.90833 0.64236 0.70426 0.0
C1441 C 0.93226 0.63786 0.68462 0.0
C1442 C 0.92635 0.63066 0.6537 0.0
C1443 C 0.8737 0.63093 0.66121 0.0
C1444 C 0.87867 0.63811 0.69242 0.0
H1445 H 0.94548 0.62797 0.63966 0.0
H1446 H 0.85082 0.62907 0.65197 0.0
H1447 H 0.92402 0.57157 0.61627 0.0
H1448 H 0.84562 0.51521 0.59726 0.0
H1449 H 0.90396 0.73792 0.56703 0.0
H1450 H 0.95545 0.64048 0.69304 0.0
H1451 H 0.85956 0.6411 0.70703 0.0
C1452 C 0.67241 0.46636 0.69962 0.0
C1453 C 0.70368 0.46755 0.70027 0.0
N1454 N 0.71268 0.43838 0.70223 0.0
N1455 N 0.66198 0.43666 0.70185 0.0
C1456 C 0.68703 0.42077 0.70542 0.0
H1457 H 0.65833 0.48547 0.6953 0.0
Co1458 Co 0.62281 0.41943 0.69429 0.0
C1459 C 0.65447 0.35826 0.67429 0.0
O1460 O 0.67412 0.37293 0.65732 0.0
N1461 N 0.58395 0.4001 0.68686 0.0
C1462 C 0.54999 0.36924 0.66107 0.0
C1463 C 0.57962 0.37863 0.66391 0.0
C1464 C 0.55615 0.40211 0.69872 0.0
N1465 N 0.53513 0.38407 0.68282 0.0
O1466 O 0.61628 0.42066 0.73848 0.0
H1467 H 0.597 0.37086 0.64929 0.0
H1468 H 0.55122 0.41637 0.71818 0.0
O1469 O 0.63668 0.37392 0.69126 0.0
C1470 C 0.60737 0.44829 0.74373 0.0
O1471 O 0.60272 0.4655 0.72006 0.0
N1472 N 0.62683 0.42601 0.65156 0.0
C1473 C 0.62025 0.41939 0.58947 0.0
C1474 C 0.64915 0.41922 0.60292 0.0
C1475 C 0.65212 0.42411 0.63445 0.0
C1476 C 0.60134 0.43591 0.63759 0.0
C1477 C 0.59677 0.43091 0.60636 0.0
H1478 H 0.67433 0.42438 0.64487 0.0
H1479 H 0.58279 0.4436 0.65098 0.0
H1480 H 0.68682 0.39622 0.70853 0.0
H1481 H 0.71846 0.48779 0.69652 0.0
H1482 H 0.53989 0.35299 0.64406 0.0
H1483 H 0.66845 0.4129 0.58978 0.0
H1484 H 0.57462 0.43344 0.59613 0.0
C1485 C 0.31008 0.57523 0.92473 0.0
C1486 C 0.31782 0.54565 0.91679 0.0
N1487 N 0.34734 0.54364 0.92382 0.0
N1488 N 0.33471 0.59142 0.93649 0.0
C1489 C 0.35658 0.57108 0.93671 0.0
H1490 H 0.28897 0.58534 0.919 0.0
Co1491 Co 0.33873 0.63416 0.93817 0.0
C1492 C 0.40496 0.65166 0.93939 0.0
O1493 O 0.39762 0.67387 0.92134 0.0
N1494 N 0.34081 0.67791 0.94019 0.0
C1495 C 0.35823 0.72636 0.95083 0.0
C1496 C 0.35696 0.69639 0.96072 0.0
C1497 C 0.32944 0.69787 0.92043 0.0
N1498 N 0.34133 0.72681 0.9251 0.0
O1499 O 0.32632 0.63433 0.98048 0.0
H1500 H 0.36942 0.68813 0.98002 0.0
H1501 H 0.31395 0.69181 0.90185 0.0
O1502 O 0.38343 0.6339 0.94993 0.0
C1503 C 0.29883 0.64076 0.98459 0.0
O1504 O 0.28193 0.64682 0.9608 0.0
N1505 N 0.34947 0.63276 0.89583 0.0
C1506 C 0.37013 0.64259 0.83748 0.0
C1507 C 0.38632 0.62483 0.85729 0.0
C1508 C 0.37536 0.61981 0.88624 0.0
C1509 C 0.33029 0.6433 0.87429 0.0
C1510 C 0.34083 0.65025 0.84527 0.0
H1511 H 0.38888 0.60665 0.90108 0.0
H1512 H 0.30726 0.64761 0.87997 0.0
H1513 H 0.37982 0.57715 0.94228 0.0
H1514 H 0.30405 0.52842 0.90365 0.0
H1515 H 0.37176 0.74586 0.96069 0.0
H1516 H 0.40796 0.61627 0.85102 0.0
H1517 H 0.32652 0.66168 0.8293 0.0
C1518 C 0.16825 0.4437 0.42481 0.0
C1519 C 0.16533 0.4742 0.41714 0.0
N1520 N 0.13871 0.48336 0.42739 0.0
N1521 N 0.14293 0.43278 0.43853 0.0
C1522 C 0.12727 0.45879 0.44258 0.0
H1523 H 0.18682 0.42981 0.41849 0.0
Co1524 Co 0.13031 0.38903 0.44278 0.0
C1525 C 0.07033 0.4176 0.43656 0.0
O1526 O 0.08065 0.42965 0.41138 0.0
N1527 N 0.11849 0.34598 0.4465 0.0
C1528 C 0.09209 0.30238 0.45721 0.0
C1529 C 0.09813 0.33322 0.46558 0.0
C1530 C 0.12495 0.32213 0.42713 0.0
N1531 N 0.1088 0.29551 0.43287 0.0
O1532 O 0.146 0.39188 0.48593 0.0
H1533 H 0.08721 0.34588 0.48348 0.0
H1534 H 0.13986 0.32471 0.408 0.0
O1535 O 0.08743 0.40091 0.45295 0.0
C1536 C 0.16889 0.37526 0.49042 0.0
O1537 O 0.17598 0.35614 0.4682 0.0
N1538 N 0.11902 0.38438 0.40095 0.0
C1539 C 0.10543 0.37359 0.33952 0.0
C1540 C 0.08388 0.36609 0.3611 0.0
C1541 C 0.09154 0.37071 0.39181 0.0
C1542 C 0.14084 0.38951 0.37994 0.0
C1543 C 0.13432 0.38496 0.34895 0.0
H1544 H 0.07545 0.36296 0.40835 0.0
H1545 H 0.16374 0.39582 0.387 0.0
H1546 H 0.10661 0.45968 0.45478 0.0
H1547 H 0.18013 0.48748 0.40245 0.0
H1548 H 0.07588 0.28648 0.46755 0.0
H1549 H 0.06165 0.35628 0.35431 0.0
H1550 H 0.15174 0.38983 0.33249 0.0
C1551 C 0.35772 0.58327 0.32355 0.0
C1552 C 0.32719 0.58132 0.32987 0.0
N1553 N 0.31543 0.60845 0.32316 0.0
N1554 N 0.36529 0.61175 0.3134 0.0
C1555 C 0.33863 0.62586 0.31196 0.0
H1556 H 0.37384 0.56624 0.32896 0.0
Co1557 Co 0.40459 0.63135 0.31175 0.0
C1558 C 0.37608 0.69229 0.33406 0.0
O1559 O 0.37659 0.68296 0.36205 0.0
N1560 N 0.4433 0.65349 0.31027 0.0
C1561 C 0.47765 0.68799 0.33051 0.0
C1562 C 0.44788 0.67988 0.32748 0.0
C1563 C 0.4718 0.64644 0.30248 0.0
N1564 N 0.49312 0.66681 0.31558 0.0
O1565 O 0.40271 0.62574 0.26621 0.0
H1566 H 0.43165 0.69027 0.34167 0.0
H1567 H 0.47686 0.62526 0.29045 0.0
O1568 O 0.38591 0.67475 0.31232 0.0
C1569 C 0.41346 0.59926 0.25908 0.0
O1570 O 0.42451 0.58336 0.28137 0.0
N1571 N 0.40965 0.62921 0.35599 0.0
C1572 C 0.42465 0.63508 0.41773 0.0
C1573 C 0.39433 0.63155 0.40822 0.0
C1574 C 0.3874 0.62697 0.37714 0.0
C1575 C 0.43847 0.62454 0.36615 0.0
C1576 C 0.44693 0.62944 0.39669 0.0
H1577 H 0.36418 0.624 0.3704 0.0
H1578 H 0.45555 0.61811 0.3506 0.0
H1579 H 0.33634 0.64931 0.30496 0.0
H1580 H 0.315 0.56224 0.34045 0.0
H1581 H 0.48744 0.70632 0.34557 0.0
H1582 H 0.37632 0.63347 0.42441 0.0
H1583 H 0.47053 0.62937 0.40365 0.0
C1584 C 0.16311 0.38825 1.00641 0.0
C1585 C 0.13137 0.38235 1.00888 0.0
C1586 C 0.12237 0.42384 0.97401 0.0
C1587 C 0.15292 0.42393 0.96584 0.0
N1588 N 0.20399 0.41661 0.98076 0.0
N1589 N 0.08055 0.39526 0.99688 0.0
C1590 C 0.17392 0.40943 0.98443 0.0
C1591 C 0.11093 0.40069 0.9934 0.0
N1592 N 0.18254 0.37355 0.02489 0.0
N1593 N 0.10498 0.44677 0.96438 0.0
H1594 H 0.07158 0.37729 1.00991 0.0
H1595 H 0.06421 0.40722 0.98557 0.0
H1596 H 0.11369 0.46452 0.95101 0.0
H1597 H 0.08369 0.45043 0.97303 0.0
H1598 H 0.20581 0.37413 0.0222 0.0
H1599 H 0.17538 0.3603 0.0431 0.0
H1600 H 0.22129 0.40826 0.99403 0.0
H1601 H 0.21133 0.43292 0.96502 0.0
C1602 C 0.86796 0.89044 0.25203 0.0
C1603 C 0.87637 0.85906 0.25294 0.0
C1604 C 0.83368 0.8443 0.21728 0.0
C1605 C 0.82997 0.87589 0.21157 0.0
N1606 N 0.83179 0.92681 0.23445 0.0
N1607 N 0.86658 0.80582 0.23669 0.0
C1608 C 0.84354 0.89827 0.23254 0.0
C1609 C 0.85859 0.8358 0.23607 0.0
N1610 N 0.88368 0.91302 0.2691 0.0
N1611 N 0.81226 0.82282 0.20648 0.0
H1612 H 0.8848 0.79908 0.24991 0.0
H1613 H 0.85668 0.78828 0.22244 0.0
H1614 H 0.79252 0.82956 0.19575 0.0
H1615 H 0.81228 0.7994 0.21132 0.0
H1616 H 0.8815 0.9366 0.26631 0.0
H1617 H 0.89999 0.90855 0.28544 0.0
H1618 H 0.83824 0.94378 0.25093 0.0
H1619 H 0.81286 0.93203 0.22138 0.0
C1620 C 0.42887 0.68607 0.48913 0.0
C1621 C 0.43782 0.6647 0.51074 0.0
C1622 C 0.44391 0.62539 0.47066 0.0
C1623 C 0.43289 0.64608 0.44913 0.0
N1624 N 0.4235 0.69853 0.43582 0.0
N1625 N 0.46303 0.61881 0.52221 0.0
C1626 C 0.42837 0.67738 0.4577 0.0
C1627 C 0.44888 0.63606 0.5013 0.0
N1628 N 0.41893 0.71379 0.49918 0.0
N1629 N 0.44768 0.59518 0.46231 0.0
H1630 H 0.46695 0.62686 0.54464 0.0
H1631 H 0.4735 0.59847 0.51675 0.0
H1632 H 0.44396 0.58646 0.44007 0.0
H1633 H 0.45257 0.57822 0.47774 0.0
H1634 H 0.40853 0.72925 0.48516 0.0
H1635 H 0.42026 0.72064 0.52222 0.0
H1636 H 0.42227 0.72214 0.44052 0.0
H1637 H 0.42321 0.69281 0.41253 0.0
C1638 C 0.62418 0.13324 0.70962 0.0
C1639 C 0.63796 0.16161 0.701 0.0
C1640 C 0.63436 0.17873 0.75436 0.0
C1641 C 0.61156 0.15472 0.75964 0.0
N1642 N 0.57927 0.11427 0.7335 0.0
N1643 N 0.65645 0.21303 0.71714 0.0
C1644 C 0.6049 0.13312 0.73486 0.0
C1645 C 0.64273 0.18516 0.72391 0.0
N1646 N 0.6306 0.10635 0.6952 0.0
N1647 N 0.6509 0.19261 0.77777 0.0
H1648 H 0.66526 0.21743 0.6957 0.0
H1649 H 0.6579 0.23177 0.73271 0.0
H1650 H 0.6512 0.18272 0.7989 0.0
H1651 H 0.66847 0.20919 0.77464 0.0
H1652 H 0.62124 0.08496 0.70181 0.0
H1653 H 0.64869 0.10573 0.68035 0.0
H1654 H 0.57486 0.09815 0.71557 0.0
H1655 H 0.56054 0.11884 0.74659 0.0
C1656 C 0.13952 0.63147 0.51119 0.0
C1657 C 0.11077 0.63568 0.49754 0.0
C1658 C 0.08704 0.60206 0.53528 0.0
C1659 C 0.11474 0.60302 0.55215 0.0
N1660 N 0.16843 0.60289 0.54762 0.0
N1661 N 0.05712 0.62391 0.49508 0.0
C1662 C 0.14155 0.6131 0.53764 0.0
C1663 C 0.08455 0.62007 0.50882 0.0
N1664 N 0.16463 0.64584 0.49932 0.0
N1665 N 0.06325 0.58386 0.54516 0.0
H1666 H 0.05474 0.63684 0.47556 0.0
H1667 H 0.03659 0.61579 0.50377 0.0
H1668 H 0.06541 0.57009 0.56418 0.0
H1669 H 0.04268 0.58024 0.53339 0.0
H1670 H 0.18591 0.64643 0.5099 0.0
H1671 H 0.1636 0.65877 0.47963 0.0
H1672 H 0.18891 0.60767 0.53701 0.0
H1673 H 0.16929 0.58654 0.5646 0.0
C1674 C 0.59798 0.84008 0.78814 0.0
C1675 C 0.60315 0.87044 0.80091 0.0
C1676 C 0.60112 0.89163 0.74988 0.0
C1677 C 0.60254 0.86137 0.73719 0.0
N1678 N 0.60055 0.80637 0.74319 0.0
N1679 N 0.61154 0.92548 0.7941 0.0
C1680 C 0.59991 0.83542 0.75609 0.0
C1681 C 0.60469 0.89644 0.78188 0.0
N1682 N 0.59112 0.81593 0.80667 0.0
N1683 N 0.59663 0.91571 0.73129 0.0
H1684 H 0.61499 0.93006 0.8174 0.0
H1685 H 0.6163 0.94473 0.78095 0.0
H1686 H 0.59324 0.91256 0.70787 0.0
H1687 H 0.59277 0.93799 0.73938 0.0
H1688 H 0.58467 0.79365 0.79856 0.0
H1689 H 0.58938 0.81875 0.83026 0.0
H1690 H 0.60248 0.78644 0.75565 0.0
H1691 H 0.60039 0.8025 0.7196 0.0
C1692 C 0.41837 0.3962 1.0061 0.0
C1693 C 0.43742 0.39864 0.98023 0.0
C1694 C 0.46792 0.43903 1.01061 0.0
C1695 C 0.44714 0.43699 0.0349 0.0
N1696 N 0.39394 0.4287 0.04237 0.0
N1697 N 0.47518 0.43265 0.95659 0.0
C1698 C 0.41957 0.42024 0.02875 0.0
C1699 C 0.46096 0.42291 0.98203 0.0
N1700 N 0.40033 0.37032 1.01056 0.0
N1701 N 0.49389 0.45733 0.01437 0.0
H1702 H 0.46881 0.42441 0.93509 0.0
H1703 H 0.4903 0.45195 0.95637 0.0
H1704 H 0.4975 0.47286 0.0329 0.0
H1705 H 0.5119 0.45644 0.99948 0.0
H1706 H 0.38641 0.36855 0.02941 0.0
H1707 H 0.40245 0.34979 0.99792 0.0
H1708 H 0.37287 0.41772 0.03688 0.0
H1709 H 0.3938 0.44892 0.05594 0.0
C1710 C 0.89658 0.13814 0.25886 0.0
C1711 C 0.91359 0.16681 0.2584 0.0
C1712 C 0.9009 0.17802 0.31132 0.0
C1713 C 0.88215 0.15021 0.31143 0.0
N1714 N 0.85799 0.1064 0.28362 0.0
N1715 N 0.93183 0.21447 0.2835 0.0
C1716 C 0.87884 0.13093 0.28467 0.0
C1717 C 0.91553 0.18683 0.28436 0.0
N1718 N 0.89857 0.1173 0.23511 0.0
N1719 N 0.90567 0.19663 0.33671 0.0
H1720 H 0.94284 0.22188 0.26397 0.0
H1721 H 0.93387 0.22999 0.30219 0.0
H1722 H 0.89653 0.19204 0.35794 0.0
H1723 H 0.89653 0.19204 0.35794 0.0
H1724 H 0.88903 0.09477 0.23505 0.0
H1725 H 0.91233 0.12167 0.21655 0.0
H1726 H 0.8524 0.09324 0.26388 0.0
H1727 H 0.84422 0.10085 0.30191 0.0
C1728 C 0.95101 0.11972 0.46167 0.0
C1729 C 0.9253 0.09947 0.45466 0.0
C1730 C 0.95069 0.08052 0.40866 0.0
C1731 C 0.97394 0.10414 0.41319 0.0
N1732 N 0.99553 0.14768 0.44293 0.0
N1733 N 0.90793 0.05152 0.43004 0.0
C1734 C 0.97403 0.12393 0.43961 0.0
C1735 C 0.92729 0.07715 0.4305 0.0
N1736 N 0.95466 0.13303 0.49019 0.0
N1737 N 0.95082 0.06164 0.3832 0.0
H1738 H 0.89347 0.04722 0.44809 0.0
H1739 H 0.90859 0.03314 0.41427 0.0
H1740 H 0.96843 0.06259 0.36776 0.0
H1741 H 0.93287 0.04628 0.37648 0.0
H1742 H 0.97388 0.14638 0.49741 0.0
H1743 H 0.94097 0.12645 0.50818 0.0
H1744 H 0.99511 0.16505 0.45982 0.0
H1745 H 0.01235 0.15163 0.42703 0.0
C1746 C 0.19597 0.76148 0.57564 0.0
C1747 C 0.19992 0.78947 0.59308 0.0
C1748 C 0.18372 0.763 0.63882 0.0
C1749 C 0.17755 0.7354 0.62121 0.0
N1750 N 0.18561 0.70582 0.57471 0.0
N1751 N 0.21638 0.80911 0.64309 0.0
C1752 C 0.18628 0.73375 0.59013 0.0
C1753 C 0.19947 0.78819 0.62533 0.0
N1754 N 0.20074 0.76206 0.54503 0.0
N1755 N 0.17414 0.76557 0.66814 0.0
H1756 H 0.23337 0.82332 0.63398 0.0
H1757 H 0.21767 0.80811 0.66679 0.0
H1758 H 0.16199 0.74776 0.67882 0.0
H1759 H 0.17594 0.78643 0.68073 0.0
H1760 H 0.19485 0.74373 0.52981 0.0
H1761 H 0.21012 0.78184 0.53491 0.0
H1762 H 0.19394 0.70268 0.5529 0.0
H1763 H 0.17864 0.68513 0.5846 0.0
C1764 C 0.48888 0.89017 0.90518 0.0
C1765 C 0.48795 0.92291 0.9059 0.0
C1766 C 0.53049 0.92614 0.94327 0.0
C1767 C 0.53288 0.89362 0.93982 0.0
N1768 N 0.50371 0.84543 0.93235 0.0
N1769 N 0.50726 0.97251 0.92555 0.0
C1770 C 0.50856 0.87585 0.92553 0.0
C1771 C 0.5084 0.94104 0.92533 0.0
N1772 N 0.47227 0.87267 0.88389 0.0
N1773 N 0.54753 0.94207 0.96538 0.0
H1774 H 0.49118 0.98351 0.91267 0.0
H1775 H 0.52308 0.98766 0.9368 0.0
H1776 H 0.56108 0.9308 0.98076 0.0
H1777 H 0.54609 0.96556 0.97051 0.0
H1778 H 0.47408 0.84886 0.8809 0.0
H1779 H 0.45957 0.88232 0.8668 0.0
H1780 H 0.48512 0.8317 0.92406 0.0
H1781 H 0.51623 0.83531 0.94946 0.0
C1782 C 0.40035 0.30311 0.09878 0.0
C1783 C 0.41817 0.30895 0.12589 0.0
C1784 C 0.42254 0.25322 0.13168 0.0
C1785 C 0.4047 0.24757 0.1047 0.0
N1786 N 0.37143 0.26546 0.06617 0.0
N1787 N 0.44105 0.28999 0.17151 0.0
C1788 C 0.39196 0.27213 0.08943 0.0
C1789 C 0.42739 0.28408 0.14359 0.0
N1790 N 0.39206 0.32719 0.08157 0.0
N1791 N 0.43643 0.22932 0.14468 0.0
H1792 H 0.44614 0.31237 0.18028 0.0
H1793 H 0.4453 0.27285 0.18695 0.0
H1794 H 0.434 0.20674 0.13584 0.0
H1795 H 0.45211 0.23208 0.16267 0.0
H1796 H 0.38256 0.32434 0.05974 0.0
H1797 H 0.39591 0.35028 0.08855 0.0
H1798 H 0.35904 0.28196 0.05548 0.0
H1799 H 0.3648 0.24277 0.05929 0.0
C1800 C 0.98422 0.86367 0.20032 0.0
C1801 C 1.00362 0.89017 0.19635 0.0
C1802 C 0.96394 0.90941 0.16252 0.0
C1803 C 0.94953 0.87928 0.16049 0.0
N1804 N 0.9523 0.82543 0.1729 0.0
N1805 N 1.00954 0.94063 0.17283 0.0
C1806 C 0.96148 0.85571 0.17818 0.0
C1807 C 0.99296 0.91382 0.17722 0.0
N1808 N 0.98845 0.84545 0.2247 0.0
N1809 N 0.9493 0.93436 0.15254 0.0
H1810 H 0.02528 0.95024 0.18848 0.0
H1811 H 1.00552 0.95464 0.15437 0.0
H1812 H 0.92728 0.93277 0.14364 0.0
H1813 H 0.95773 0.95714 0.15633 0.0
H1814 H 0.97378 0.82655 0.22932 0.0
H1815 H 1.00468 0.8516 0.24172 0.0
H1816 H 0.96201 0.80739 0.18416 0.0
H1817 H 0.93775 0.81851 0.15475 0.0
C1818 C 0.39293 0.77673 0.34663 0.0
C1819 C 0.36735 0.78289 0.36447 0.0
C1820 C 0.34178 0.73452 0.34435 0.0
C1821 C 0.36913 0.72569 0.3313 0.0
N1822 N 0.41642 0.74215 0.31012 0.0
N1823 N 0.31684 0.76888 0.37954 0.0
C1824 C 0.39336 0.74822 0.32914 0.0
C1825 C 0.34128 0.76244 0.36246 0.0
N1826 N 0.41709 0.79776 0.34754 0.0
N1827 N 0.31643 0.71562 0.33936 0.0
H1828 H 0.31596 0.78932 0.39262 0.0
H1829 H 0.29816 0.75356 0.38194 0.0
H1830 H 0.31681 0.69578 0.32528 0.0
H1831 H 0.29498 0.72081 0.34651 0.0
H1832 H 0.43758 0.79431 0.33714 0.0
H1833 H 0.41668 0.8189 0.35952 0.0
H1834 H 0.43495 0.75731 0.30653 0.0
H1835 H 0.41543 0.72241 0.29583 0.0
C1836 C 0.50877 0.08378 0.61302 0.0
C1837 C 0.5271 0.10949 0.6251 0.0
C1838 C 0.50001 0.1056 0.67298 0.0
C1839 C 0.48485 0.07741 0.66237 0.0
N1840 N 0.48099 0.03597 0.62459 0.0
N1841 N 0.54725 0.13514 0.67197 0.0
C1842 C 0.49186 0.06503 0.63331 0.0
C1843 C 0.52507 0.11737 0.65677 0.0
N1844 N 0.50448 0.07921 0.58228 0.0
N1845 N 0.48993 0.12246 0.69714 0.0
H1846 H 0.56858 0.13981 0.66316 0.0
H1847 H 0.54584 0.14171 0.69488 0.0
H1848 H 0.47067 0.11654 0.70918 0.0
H1849 H 0.49895 0.14466 0.70296 0.0
H1850 H 0.48937 0.06209 0.5728 0.0
H1851 H 0.51245 0.09518 0.56658 0.0
H1852 H 0.48703 0.02512 0.60424 0.0
H1853 H 0.46846 0.02192 0.63924 0.0
C1854 C 0.23773 0.30555 0.88628 0.0
C1855 C 0.20948 0.29386 0.89723 0.0
C1856 C 0.18443 0.31922 0.85461 0.0
C1857 C 0.21111 0.33688 0.84925 0.0
N1858 N 0.26448 0.33556 0.84804 0.0
N1859 N 0.15445 0.29268 0.89166 0.0
C1860 C 0.23832 0.32633 0.86151 0.0
C1861 C 0.18235 0.30141 0.88132 0.0
N1862 N 0.2638 0.2982 0.90083 0.0
N1863 N 0.16263 0.31635 0.83234 0.0
H1864 H 0.15088 0.28135 0.91186 0.0
H1865 H 0.13462 0.29997 0.88161 0.0
H1866 H 0.16628 0.32605 0.81109 0.0
H1867 H 0.14349 0.30132 0.83362 0.0
H1868 H 0.28515 0.30755 0.89565 0.0
H1869 H 0.26385 0.28408 0.9197 0.0
H1870 H 0.28557 0.32747 0.85342 0.0
H1871 H 0.2636 0.34909 0.82881 0.0
C1872 C 0.42085 0.97836 0.14737 0.0
C1873 C 0.42167 0.9519 0.12766 0.0
C1874 C 0.40004 0.98116 0.08604 0.0
C1875 C 0.39402 1.00526 0.10723 0.0
N1876 N 0.40326 0.03008 0.15658 0.0
N1877 N 0.42709 0.93452 0.07605 0.0
C1878 C 0.40628 1.00503 0.13741 0.0
C1879 C 0.41572 0.95513 0.09612 0.0
N1880 N 0.43459 0.97762 0.17548 0.0
N1881 N 0.39043 0.98324 0.05648 0.0
H1882 H 0.44397 0.92049 0.08336 0.0
H1883 H 0.4239 0.93467 0.0525 0.0
H1884 H 0.37899 1.00211 0.04885 0.0
H1885 H 0.39309 0.96621 0.03976 0.0
H1886 H 0.43643 0.99611 0.19119 0.0
H1887 H 0.44642 0.95861 0.1821 0.0
H1888 H 0.40923 0.03086 0.17963 0.0
H1889 H 0.39418 0.05044 0.14943 0.0
C1890 C 0.91222 0.55993 0.94253 0.0
C1891 C 0.89677 0.57554 0.91936 0.0
C1892 C 0.87214 0.52656 0.90075 0.0
C1893 C 0.88832 0.5106 0.92267 0.0
N1894 N 0.92717 0.51053 0.96154 0.0
N1895 N 0.87113 0.57204 0.87038 0.0
C1896 C 0.90929 0.52688 0.94293 0.0
C1897 C 0.87962 0.55818 0.89653 0.0
N1898 N 0.9294 0.5765 0.96405 0.0
N1899 N 0.84969 0.51107 0.88373 0.0
H1900 H 0.8781 0.59485 0.86601 0.0
H1901 H 0.86052 0.56005 0.85184 0.0
H1902 H 0.84369 0.48771 0.88678 0.0
H1903 H 0.83526 0.52203 0.86899 0.0
H1904 H 0.93774 0.56703 0.98387 0.0
H1905 H 0.93531 0.59993 0.9619 0.0
H1906 H 0.94514 0.52052 0.9747 0.0
H1907 H 0.92478 0.48645 0.96256 0.0
C1908 C 0.7566 0.63625 0.14913 0.0
C1909 C 0.75723 0.61895 0.17609 0.0
C1910 C 0.70499 0.63118 0.18463 0.0
C1911 C 0.70751 0.65448 0.16239 0.0
N1912 N 0.73633 0.67944 0.12321 0.0
N1913 N 0.73107 0.59824 0.21898 0.0
C1914 C 0.73364 0.65724 0.14466 0.0
C1915 C 0.73102 0.61604 0.19377 0.0
N1916 N 0.77635 0.63081 0.12666 0.0
N1917 N 0.6774 0.62166 0.19508 0.0
H1918 H 0.74881 0.58417 0.22402 0.0
H1919 H 0.71431 0.59847 0.23531 0.0
H1920 H 0.65752 0.62739 0.18421 0.0
H1921 H 0.6742 0.60502 0.21148 0.0
H1922 H 0.77567 0.64132 0.10562 0.0
H1923 H 0.78912 0.61157 0.12708 0.0
H1924 H 0.75623 0.68417 0.11152 0.0
H1925 H 0.71952 0.69486 0.11902 0.0
C1926 C 0.66709 0.4938 0.37769 0.0
C1927 C 0.65162 0.48002 0.40228 0.0
C1928 C 0.65807 0.52887 0.43215 0.0
C1929 C 0.67385 0.54229 0.40772 0.0
N1930 N 0.70041 0.53616 0.36114 0.0
N1931 N 0.63922 0.48174 0.45552 0.0
C1932 C 0.68088 0.52399 0.38189 0.0
C1933 C 0.64928 0.49672 0.43042 0.0
N1934 N 0.66748 0.47859 0.34998 0.0
N1935 N 0.65009 0.54722 0.45616 0.0
H1936 H 0.63311 0.45814 0.45494 0.0
H1937 H 0.63969 0.49201 0.4773 0.0
H1938 H 0.65694 0.57065 0.4582 0.0
H1939 H 0.63548 0.53965 0.47305 0.0
H1940 H 0.67535 0.4889 0.33028 0.0
H1941 H 0.65775 0.45631 0.34615 0.0
H1942 H 0.70833 0.52354 0.34268 0.0
H1943 H 0.71092 0.55825 0.36434 0.0
C1944 C 0.26756 0.89359 0.14878 0.0
C1945 C 0.2932 0.89065 0.1679 0.0
C1946 C 0.26772 0.91628 0.20992 0.0
C1947 C 0.24352 0.92191 0.18985 0.0
N1948 N 0.22565 0.92495 0.13784 0.0
N1949 N 0.32119 0.90842 0.21356 0.0
C1950 C 0.24493 0.91322 0.15853 0.0
C1951 C 0.29434 0.90447 0.19776 0.0
N1952 N 0.26453 0.87739 0.12162 0.0
N1953 N 0.2653 0.92241 0.24041 0.0
H1954 H 0.34169 0.903 0.20402 0.0
H1955 H 0.32349 0.92029 0.23456 0.0
H1956 H 0.24625 0.93205 0.24957 0.0
H1957 H 0.28123 0.91589 0.25648 0.0
H1958 H 0.24472 0.87663 0.1083 0.0
H1959 H 0.28058 0.86235 0.11397 0.0
H1960 H 0.22719 0.92104 0.11438 0.0
H1961 H 0.21081 0.94173 0.14393 0.0
C1962 C 0.1607 0.05584 0.62751 0.0
C1963 C 0.14777 0.02594 0.61953 0.0
C1964 C 0.09762 0.04676 0.62682 0.0
C1965 C 0.1107 0.0743 0.64084 0.0
N1966 N 0.15801 0.10163 0.65804 0.0
N1967 N 0.10224 0.99227 0.62004 0.0
C1968 C 0.14296 0.07816 0.64195 0.0
C1969 C 0.11576 0.02119 0.62118 0.0
N1970 N 0.19055 0.0628 0.62256 0.0
N1971 N 0.0679 0.04499 0.61779 0.0
H1972 H 0.11349 0.97259 0.6149 0.0
H1973 H 0.08013 0.98811 0.62726 0.0
H1974 H 0.05433 0.06393 0.61853 0.0
H1975 H 0.05803 0.0258 0.60592 0.0
H1976 H 0.20092 0.08435 0.62868 0.0
H1977 H 0.20397 0.04786 0.61042 0.0
H1978 H 0.14769 0.1178 0.67175 0.0
H1979 H 0.14769 0.1178 0.67175 0.0
C1980 C 0.7176 0.34452 0.33589 0.0
C1981 C 0.69772 0.33567 0.35953 0.0
C1982 C 0.73331 0.35821 0.39675 0.0
C1983 C 0.7548 0.36678 0.37424 0.0
N1984 N 0.77012 0.35309 0.32294 0.0
N1985 N 0.70225 0.31313 0.40838 0.0
C1986 C 0.74792 0.35572 0.34364 0.0
C1987 C 0.71024 0.33573 0.38893 0.0
N1988 N 0.70768 0.34182 0.30629 0.0
N1989 N 0.73276 0.37288 0.42457 0.0
H1990 H 0.68714 0.29474 0.40146 0.0
H1991 H 0.71252 0.31212 0.42995 0.0
H1992 H 0.74534 0.39354 0.4296 0.0
H1993 H 0.71651 0.36653 0.44053 0.0
H1994 H 0.72023 0.35058 0.28829 0.0
H1995 H 0.68639 0.33159 0.30034 0.0
H1996 H 0.76618 0.34349 0.30107 0.0
H1997 H 0.79272 0.35555 0.32942 0.0
C1998 C 0.74623 0.67415 0.92219 0.0
C1999 C 0.7719 0.6686 0.90449 0.0
C2000 C 0.73936 0.63862 0.86693 0.0
C2001 C 0.71512 0.63978 0.88718 0.0
N2002 N 0.6949 0.6575 0.93459 0.0
N2003 N 0.79317 0.64522 0.85954 0.0
C2004 C 0.71821 0.65771 0.91475 0.0
C2005 C 0.76847 0.6512 0.8764 0.0
N2006 N 0.74873 0.6953 0.94596 0.0
N2007 N 0.73424 0.62529 0.83857 0.0
H2008 H 0.81449 0.65546 0.8644 0.0
H2009 H 0.79286 0.62913 0.84142 0.0
H2010 H 0.71299 0.61581 0.83148 0.0
H2011 H 0.75004 0.62599 0.82131 0.0
H2012 H 0.73033 0.70261 0.95811 0.0
H2013 H 0.76902 0.70772 0.95167 0.0
H2014 H 0.69665 0.66716 0.9566 0.0
H2015 H 0.67416 0.64587 0.92956 0.0
C2016 C 0.89896 0.60339 0.08277 0.0
C2017 C 0.86905 0.60751 0.09243 0.0
C2018 C 0.86205 0.64265 0.04966 0.0
C2019 C 0.89338 0.64298 0.04352 0.0
N2020 N 0.94193 0.6229 0.05368 0.0
N2021 N 0.81957 0.61517 0.07265 0.0
C2022 C 0.91186 0.62281 0.05973 0.0
C2023 C 0.84977 0.62269 0.0722 0.0
N2024 N 0.91337 0.57843 0.09253 0.0
N2025 N 0.84401 0.66188 0.0344 0.0
H2026 H 0.81132 0.5969 0.08568 0.0
H2027 H 0.80394 0.62327 0.05717 0.0
H2028 H 0.85199 0.67611 0.01721 0.0
H2029 H 0.82172 0.66524 0.04027 0.0
H2030 H 0.93438 0.57237 0.08476 0.0
H2031 H 0.90221 0.56174 0.10559 0.0
H2032 H 0.95736 0.61134 0.06678 0.0
H2033 H 0.95161 0.63641 0.03671 0.0
C2034 C 0.18119 0.16199 0.82005 0.0
C2035 C 0.18983 0.19306 0.82655 0.0
C2036 C 0.1665 0.20529 0.77736 0.0
C2037 C 0.14931 0.17633 0.77729 0.0
N2038 N 0.13682 0.13049 0.80648 0.0
N2039 N 0.19626 0.24453 0.80733 0.0
C2040 C 0.15582 0.15541 0.80079 0.0
C2041 C 0.18423 0.21489 0.80381 0.0
N2042 N 0.197 0.13895 0.83193 0.0
N2043 N 0.16788 0.22245 0.75191 0.0
H2044 H 0.21245 0.25087 0.82433 0.0
H2045 H 0.18969 0.2626 0.79392 0.0
H2046 H 0.15837 0.21438 0.73135 0.0
H2047 H 0.1818 0.24249 0.75013 0.0
H2048 H 0.19171 0.11567 0.82619 0.0
H2049 H 0.21671 0.14377 0.84507 0.0
H2050 H 0.1411 0.11553 0.82406 0.0
H2051 H 0.11525 0.12736 0.79652 0.0
C2052 C 0.60761 0.42053 0.53367 0.0
C2053 C 0.6134 0.40325 0.55987 0.0
C2054 C 0.60623 0.35467 0.53004 0.0
C2055 C 0.60354 0.372 0.50344 0.0
N2056 N 0.59266 0.42017 0.48027 0.0
N2057 N 0.61351 0.35406 0.58479 0.0
C2058 C 0.60106 0.40455 0.50537 0.0
C2059 C 0.61105 0.37029 0.55864 0.0
N2060 N 0.61028 0.45219 0.53555 0.0
N2061 N 0.6056 0.32308 0.52719 0.0
H2062 H 0.61948 0.36448 0.60582 0.0
H2063 H 0.60893 0.33033 0.58619 0.0
H2064 H 0.59964 0.31138 0.5066 0.0
H2065 H 0.61121 0.30842 0.54453 0.0
H2066 H 0.60932 0.46631 0.51681 0.0
H2067 H 0.61532 0.46461 0.5559 0.0
H2068 H 0.58628 0.44297 0.48118 0.0
H2069 H 0.58971 0.40992 0.45866 0.0
C2070 C 0.36542 0.86904 0.26843 0.0
C2071 C 0.39561 0.88194 0.26434 0.0
C2072 C 0.38987 0.91356 0.31138 0.0
C2073 C 0.36179 0.89778 0.31713 0.0
N2074 N 0.32644 0.85484 0.30424 0.0
N2075 N 0.43917 0.90744 0.29036 0.0
C2076 C 0.35094 0.87349 0.29683 0.0
C2077 C 0.40861 0.90159 0.28837 0.0
N2078 N 0.34895 0.8552 0.24485 0.0
N2079 N 0.39894 0.93968 0.32803 0.0
H2080 H 0.45401 0.89415 0.2781 0.0
H2081 H 0.44986 0.92215 0.30694 0.0
H2082 H 0.38592 0.94889 0.34527 0.0
H2083 H 0.41814 0.9534 0.32293 0.0
H2084 H 0.32637 0.84744 0.2465 0.0
H2085 H 0.35552 0.85678 0.22258 0.0
H2086 H 0.3199 0.83453 0.2919 0.0
H2087 H 0.31442 0.85798 0.32419 0.0
C2088 C 0.88069 0.3556 0.47225 0.0
C2089 C 0.90404 0.37738 0.46389 0.0
C2090 C 0.93187 0.36652 0.51104 0.0
C2091 C 0.90684 0.34823 0.52136 0.0
N2092 N 0.85398 0.33229 0.51418 0.0
N2093 N 0.94844 0.40915 0.48016 0.0
C2094 C 0.88016 0.34474 0.50269 0.0
C2095 C 0.92852 0.38462 0.48486 0.0
N2096 N 0.8601 0.34373 0.45093 0.0
N2097 N 0.95938 0.36556 0.52545 0.0
H2098 H 0.94612 0.4239 0.46205 0.0
H2099 H 0.96511 0.41686 0.49613 0.0
H2100 H 0.96319 0.35085 0.54339 0.0
H2101 H 0.97903 0.37645 0.51725 0.0
H2102 H 0.84433 0.32574 0.45536 0.0
H2103 H 0.86093 0.34961 0.42809 0.0
H2104 H 0.83341 0.33163 0.50215 0.0
H2105 H 0.85212 0.32591 0.53681 0.0
C2106 C 0.42041 0.12157 0.27282 0.0
C2107 C 0.4084 0.14621 0.2898 0.0
C2108 C 0.39442 0.17048 0.24205 0.0
C2109 C 0.40223 0.14346 0.22558 0.0
N2110 N 0.41919 0.09139 0.22545 0.0
N2111 N 0.38036 0.19242 0.29088 0.0
C2112 C 0.41441 0.11849 0.24099 0.0
C2113 C 0.39477 0.17052 0.27454 0.0
N2114 N 0.43782 0.10124 0.28741 0.0
N2115 N 0.38672 0.19601 0.22667 0.0
H2116 H 0.37942 0.19272 0.31459 0.0
H2117 H 0.36726 0.2088 0.28086 0.0
H2118 H 0.38573 0.19648 0.2029 0.0
H2119 H 0.38383 0.21741 0.2374 0.0
H2120 H 0.44925 0.08407 0.27608 0.0
H2121 H 0.4433 0.1037 0.31064 0.0
H2122 H 0.42452 0.07117 0.23619 0.0
H2123 H 0.41552 0.08836 0.20197 0.0
C2124 C 0.54007 0.58527 1.01113 0.0
C2125 C 0.5698 0.57628 1.00422 0.0
C2126 C 0.59063 0.60671 0.04748 0.0
C2127 C 0.56159 0.61673 0.05456 0.0
N2128 N 0.50784 0.61139 0.04722 0.0
N2129 N 0.61874 0.56604 0.02425 0.0
C2130 C 0.53589 0.6042 0.0379 0.0
C2131 C 0.59297 0.58178 0.02642 0.0
N2132 N 0.51625 0.57683 0.99193 0.0
N2133 N 0.61608 0.62281 0.05826 0.0
H2134 H 0.62065 0.54824 1.0079 0.0
H2135 H 0.6367 0.56907 0.03986 0.0
H2136 H 0.61528 0.64404 0.06974 0.0
H2137 H 0.63777 0.61746 0.05183 0.0
H2138 H 0.4948 0.58521 0.99394 0.0
H2139 H 0.51763 0.56108 0.97383 0.0
H2140 H 0.48774 0.60164 0.03763 0.0
H2141 H 0.50481 0.62611 0.06606 0.0
C2142 C 0.09444 0.87315 0.71506 0.0
C2143 C 0.12642 0.87174 0.71306 0.0
C2144 C 0.1259 0.84556 0.7618 0.0
C2145 C 0.09591 0.85395 0.767 0.0
N2146 N 0.0545 0.8839 0.74962 0.0
N2147 N 0.17316 0.86367 0.74088 0.0
C2148 C 0.08075 0.86993 0.7439 0.0
C2149 C 0.14244 0.85972 0.73813 0.0
N2150 N 0.07687 0.87651 0.6896 0.0
N2151 N 0.13852 0.82389 0.77921 0.0
H2152 H 0.18605 0.87771 0.72659 0.0
H2153 H 0.18515 0.85632 0.75975 0.0
H2154 H 0.12631 0.81189 0.79567 0.0
H2155 H 0.1597 0.81558 0.77467 0.0
H2156 H 0.05331 0.87575 0.69025 0.0
H2157 H 0.0855 0.87601 0.66765 0.0
H2158 H 0.04424 0.89762 0.73368 0.0
H2159 H 0.04522 0.88525 0.77119 0.0
C2160 C 0.06408 0.88677 0.59543 0.0
C2161 C 0.08649 0.90562 0.58127 0.0
C2162 C 0.05289 0.94875 0.58486 0.0
C2163 C 0.0373 0.93314 0.60837 0.0
N2164 N 0.02316 0.88427 0.63096 0.0
N2165 N 0.09617 0.95059 0.55132 0.0
C2166 C 0.04118 0.90105 0.61191 0.0
C2167 C 0.07882 0.93538 0.57205 0.0
N2168 N 0.06417 0.85532 0.5919 0.0
N2169 N 0.04287 0.97605 0.57502 0.0
H2170 H 0.11221 0.93936 0.53863 0.0
H2171 H 0.09439 0.97379 0.54632 0.0
H2172 H 0.02429 0.9862 0.58449 0.0
H2173 H 0.05182 0.98786 0.55665 0.0
H2174 H 0.04719 0.84019 0.59984 0.0
H2175 H 0.07935 0.84481 0.57751 0.0
H2176 H 0.02731 0.86179 0.63711 0.0
H2177 H 1.0045 0.89315 0.64142 0.0
C2178 C 0.84651 0.2835 0.39445 0.0
C2179 C 0.87543 0.29378 0.38337 0.0
C2180 C 0.89762 0.25995 0.41917 0.0
C2181 C 0.86984 0.24291 0.42253 0.0
N2182 N 0.81721 0.23676 0.40397 0.0
N2183 N 0.92707 0.27853 0.37786 0.0
C2184 C 0.84374 0.25402 0.40772 0.0
C2185 C 0.90084 0.27824 0.39359 0.0
N2186 N 0.82227 0.30165 0.39432 0.0
N2187 N 0.92144 0.25669 0.43869 0.0
H2188 H 0.92888 0.28822 0.3564 0.0
H2189 H 0.94533 0.26594 0.38478 0.0
H2190 H 0.91917 0.24373 0.45832 0.0
H2191 H 0.94201 0.2693 0.43639 0.0
H2192 H 0.80169 0.29444 0.40373 0.0
H2193 H 0.82387 0.32505 0.3895 0.0
H2194 H 0.79899 0.2447 0.39155 0.0
H2195 H 0.81445 0.21364 0.40923 0.0
C2196 C 0.52065 0.07285 0.0999 0.0
C2197 C 0.53495 0.09873 0.11593 0.0
C2198 C 0.49371 0.13088 0.10014 0.0
C2199 C 0.47686 0.10384 0.08952 0.0
N2200 N 0.47682 0.05176 0.06995 0.0
N2201 N 0.53741 0.15308 0.12915 0.0
C2202 C 0.49143 0.07564 0.08621 0.0
C2203 C 0.52231 0.12812 0.115 0.0
N2204 N 0.53466 0.04549 0.09902 0.0
N2205 N 0.48251 0.15907 0.09523 0.0
H2206 H 0.55911 0.15197 0.13859 0.0
H2207 H 0.52819 0.17449 0.13255 0.0
H2208 H 0.46261 0.16109 0.08262 0.0
H2209 H 0.49401 0.18016 0.10079 0.0
H2210 H 0.52554 0.02509 0.08868 0.0
H2211 H 0.55586 0.04311 0.10919 0.0
H2212 H 0.48528 0.03007 0.06619 0.0
H2213 H 0.45651 0.05477 0.05825 0.0
C2214 C 0.62893 0.73713 0.94424 0.0
C2215 C 0.61271 0.7592 0.92858 0.0
C2216 C 0.58964 0.71741 0.89497 0.0
C2217 C 0.60192 0.69504 0.91407 0.0
N2218 N 0.63134 0.68404 0.9591 0.0
N2219 N 0.57566 0.77069 0.89031 0.0
C2220 C 0.62125 0.70503 0.93919 0.0
C2221 C 0.59286 0.74952 0.9039 0.0
N2222 N 0.65204 0.74708 0.96379 0.0
N2223 N 0.57445 0.70797 0.86865 0.0
H2224 H 0.57715 0.79414 0.89657 0.0
H2225 H 0.55836 0.76477 0.87445 0.0
H2226 H 0.57117 0.68471 0.86186 0.0
H2227 H 0.56734 0.72318 0.85235 0.0
H2228 H 0.66682 0.73225 0.97383 0.0
H2229 H 0.6583 0.77053 0.96742 0.0
H2230 H 0.64232 0.69025 0.97976 0.0
H2231 H 0.62702 0.66033 0.95595 0.0
C2232 C 0.03831 0.16204 0.83314 0.0
C2233 C 1.00984 0.16103 0.84707 0.0
C2234 C 0.03447 0.17206 0.89737 0.0
C2235 C 0.06291 0.17489 0.88308 0.0
N2236 N 0.09198 0.17519 0.83695 0.0
N2237 N 0.97992 0.16812 0.89169 0.0
C2238 C 0.06482 0.17075 0.85083 0.0
C2239 C 1.0077 0.16654 0.87905 0.0
N2240 N 0.04002 0.15295 0.80315 0.0
N2241 N 0.03306 0.17499 0.92845 0.0
H2242 H 0.95982 0.16442 0.8792 0.0
H2243 H 0.97661 0.17509 0.91416 0.0
H2244 H 0.05155 0.18246 0.94234 0.0
H2245 H 0.014 0.16878 0.94084 0.0
H2246 H 0.06025 0.14988 0.79206 0.0
H2247 H 0.02094 0.14589 0.78988 0.0
H2248 H 0.09382 0.17828 0.81361 0.0
H2249 H 0.11267 0.17737 0.84872 0.0
C2250 C 0.6815 0.28298 0.64409 0.0
C2251 C 0.65401 0.26818 0.63287 0.0
C2252 C 0.62585 0.30602 0.66323 0.0
C2253 C 0.65325 0.32332 0.67025 0.0
N2254 N 0.70646 0.32112 0.67914 0.0
N2255 N 0.59942 0.26473 0.63296 0.0
C2256 C 0.68085 0.30932 0.66438 0.0
C2257 C 0.62598 0.27932 0.64304 0.0
N2258 N 0.70829 0.27328 0.63347 0.0
N2259 N 0.60026 0.31371 0.67774 0.0
H2260 H 0.59853 0.24414 0.62013 0.0
H2261 H 0.57834 0.2737 0.63606 0.0
H2262 H 0.60088 0.3305 0.69528 0.0
H2263 H 0.57956 0.30121 0.67541 0.0
H2264 H 0.72908 0.2851 0.63794 0.0
H2265 H 0.70954 0.25468 0.61799 0.0
H2266 H 0.72686 0.31031 0.67867 0.0
H2267 H 0.70603 0.33981 0.69471 0.0
C2268 C 0.55072 0.9348 0.35968 0.0
C2269 C 0.55904 0.91202 0.33754 0.0
C2270 C 0.51184 0.88271 0.34777 0.0
C2271 C 0.50104 0.90747 0.36562 0.0
N2272 N 0.50855 0.96231 0.37866 0.0
N2273 N 0.53808 0.87267 0.30156 0.0
C2274 C 0.51989 0.93523 0.36863 0.0
C2275 C 0.53653 0.88869 0.32863 0.0
N2276 N 0.57165 0.95481 0.37374 0.0
N2277 N 0.49979 0.85318 0.34985 0.0
H2278 H 0.5541 0.87872 0.28533 0.0
H2279 H 0.52115 0.85628 0.29414 0.0
H2280 H 0.48398 0.84695 0.36621 0.0
H2281 H 0.5085 0.83461 0.33781 0.0
H2282 H 0.56619 0.96995 0.39148 0.0
H2283 H 0.59462 0.95347 0.37081 0.0
H2284 H 0.52136 0.98329 0.37907 0.0
H2285 H 0.48564 0.96454 0.38264 0.0
C2286 C 0.86832 0.76477 0.1362 0.0
C2287 C 0.83639 0.76141 0.13157 0.0
C2288 C 0.83293 0.71939 0.16755 0.0
C2289 C 0.86505 0.72171 0.17089 0.0
N2290 N 0.91275 0.74904 0.16405 0.0
N2291 N 0.78775 0.73966 0.14492 0.0
C2292 C 0.8825 0.74545 0.15703 0.0
C2293 C 0.81854 0.74005 0.14817 0.0
N2294 N 0.88496 0.78637 0.12058 0.0
N2295 N 0.81645 0.69642 0.18155 0.0
H2296 H 0.77694 0.75327 0.12925 0.0
H2297 H 0.77269 0.72698 0.15822 0.0
H2298 H 0.8258 0.68147 0.19674 0.0
H2299 H 0.79341 0.69149 0.17803 0.0
H2300 H 0.90838 0.78723 0.11937 0.0
H2301 H 0.87547 0.80322 0.10761 0.0
H2302 H 0.92759 0.76549 0.15492 0.0
H2303 H 0.92302 0.73596 0.18057 0.0
C2304 C 0.58823 0.03908 0.88196 0.0
C2305 C 0.59751 0.06571 0.9002 0.0
C2306 C 0.62222 0.03165 0.93624 0.0
C2307 C 0.61789 1.00665 0.91498 0.0
N2308 N 0.59696 0.98567 0.86739 0.0
N2309 N 0.62147 0.08656 0.94666 0.0
C2310 C 0.60045 1.00995 0.88798 0.0
C2311 C 0.6135 0.06162 0.92821 0.0
N2312 N 0.56751 0.04186 0.85892 0.0
N2313 N 0.63435 0.02643 0.96439 0.0
H2314 H 0.61205 0.10751 0.94355 0.0
H2315 H 0.63741 0.08656 0.96443 0.0
H2316 H 0.64085 1.00463 0.97065 0.0
H2317 H 0.63572 0.04279 0.98231 0.0
H2318 H 0.55784 0.02318 0.84602 0.0
H2319 H 0.55757 0.06272 0.8551 0.0
H2320 H 0.58713 0.98728 0.84578 0.0
H2321 H 0.60589 0.96427 0.87113 0.0
C2322 C 0.11485 0.474 0.09647 0.0
C2323 C 0.10085 0.46573 0.12413 0.0
C2324 C 0.11326 0.51877 0.1443 0.0
C2325 C 0.13202 0.52462 0.119 0.0
N2326 N 0.15199 0.50727 0.0714 0.0
N2327 N 0.0726 0.48673 0.16541 0.0
C2328 C 0.13307 0.50209 0.09511 0.0
C2329 C 0.09597 0.49 0.14571 0.0
N2330 N 0.10698 0.45739 0.0705 0.0
N2331 N 0.1124 0.54062 0.16728 0.0
H2332 H 0.05666 0.46809 0.16359 0.0
H2333 H 0.06617 0.5043 0.18021 0.0
H2334 H 0.12382 0.56221 0.16629 0.0
H2335 H 0.10192 0.53675 0.18796 0.0
H2336 H 0.11514 0.46281 0.04907 0.0
H2337 H 0.08822 0.44171 0.07021 0.0
H2338 H 0.1561 0.49026 0.05491 0.0
H2339 H 0.16521 0.52785 0.0697 0.0
C2340 C 0.33758 0.40632 0.85712 0.0
C2341 C 0.33797 0.37908 0.8382 0.0
C2342 C 0.29702 0.39931 0.80674 0.0
C2343 C 0.29441 0.42427 0.82777 0.0
N2344 N 0.32626 0.46015 0.8581 0.0
N2345 N 0.31357 0.3476 0.79751 0.0
C2346 C 0.31837 0.43029 0.84928 0.0
C2347 C 0.31602 0.37499 0.81395 0.0
N2348 N 0.35545 0.40987 0.88259 0.0
N2349 N 0.28493 0.40111 0.77809 0.0
H2350 H 0.32635 0.32886 0.80298 0.0
H2351 H 0.29668 0.34248 0.78098 0.0
H2352 H 0.27529 0.42121 0.77082 0.0
H2353 H 0.28871 0.38512 0.76061 0.0
H2354 H 0.35257 0.42732 0.89898 0.0
H2355 H 0.37058 0.39379 0.8888 0.0
H2356 H 0.34507 0.46635 0.87197 0.0
H2357 H 0.31694 0.47875 0.84737 0.0
C2358 C 0.39147 0.51151 0.65295 0.0
C2359 C 0.38714 0.53393 0.63058 0.0
C2360 C 0.34235 0.50295 0.61106 0.0
C2361 C 0.34481 0.48329 0.636 0.0
N2362 N 0.36771 0.47479 0.68514 0.0
N2363 N 0.35349 0.55426 0.5925 0.0
C2364 C 0.36809 0.48921 0.65811 0.0
C2365 C 0.36135 0.53053 0.61043 0.0
N2366 N 0.41742 0.51215 0.67032 0.0
N2367 N 0.3218 0.49531 0.58814 0.0
H2368 H 0.36542 0.57565 0.59242 0.0
H2369 H 0.33326 0.55379 0.57992 0.0
H2370 H 0.30696 0.47576 0.58877 0.0
H2371 H 0.32105 0.50714 0.56779 0.0
H2372 H 0.4207 0.4963 0.68742 0.0
H2373 H 0.43606 0.52715 0.66619 0.0
H2374 H 0.3493 0.4608 0.69194 0.0
H2375 H 0.3493 0.4608 0.69194 0.0
C2376 C 0.75431 0.11197 0.8103 0.0
C2377 C 0.77852 0.11098 0.83174 0.0
C2378 C 0.75091 0.14272 0.86799 0.0
C2379 C 0.72507 0.13946 0.84859 0.0
N2380 N 0.70101 0.12 0.80148 0.0
N2381 N 0.79868 0.1232 0.88276 0.0
C2382 C 0.72649 0.12411 0.81957 0.0
C2383 C 0.77654 0.12582 0.86105 0.0
N2384 N 0.75806 0.10121 0.78113 0.0
N2385 N 0.75119 0.16272 0.89273 0.0
H2386 H 0.81832 0.11183 0.87909 0.0
H2387 H 0.7965 0.1302 0.90549 0.0
H2388 H 0.7328 0.17575 0.89823 0.0
H2389 H 0.77056 0.16888 0.90585 0.0
H2390 H 0.74262 0.10412 0.76338 0.0
H2391 H 0.77781 0.09115 0.77429 0.0
H2392 H 0.69977 0.10637 0.78151 0.0
H2393 H 0.68036 0.12874 0.80737 0.0
C2394 C 0.86573 1.00074 0.36123 0.0
C2395 C 0.86663 0.97291 0.3773 0.0
C2396 C 0.82626 0.9895 0.41048 0.0
C2397 C 0.82493 0.01706 0.39443 0.0
N2398 N 0.83913 0.04693 0.35083 0.0
N2399 N 0.84439 0.93941 0.41531 0.0
C2400 C 0.84337 0.02209 0.36859 0.0
C2401 C 0.84601 0.9669 0.40112 0.0
N2402 N 0.88681 1.00706 0.33959 0.0
N2403 N 0.80819 0.98471 0.43495 0.0
H2404 H 0.85736 0.92087 0.40945 0.0
H2405 H 0.85736 0.92087 0.40945 0.0
H2406 H 0.79249 1.00049 0.44188 0.0
H2407 H 0.80893 0.96495 0.44801 0.0
H2408 H 0.88971 0.02836 0.32929 0.0
H2409 H 0.90314 0.99163 0.33355 0.0
H2410 H 0.84946 0.05015 0.32998 0.0
H2411 H 0.82347 0.06334 0.35563 0.0
C2412 C 0.31067 0.6628 0.66846 0.0
C2413 C 0.3286 0.66407 0.64197 0.0
C2414 C 0.28774 0.63625 0.61305 0.0
C2415 C 0.26862 0.63589 0.63871 0.0
N2416 N 0.26015 0.65765 0.68904 0.0
N2417 N 0.32671 0.66634 0.58766 0.0
C2418 C 0.27951 0.6517 0.66609 0.0
C2419 C 0.3145 0.65563 0.61377 0.0
N2420 N 0.32347 0.6724 0.6958 0.0
N2421 N 0.28065 0.61756 0.58809 0.0
H2422 H 0.34483 0.68284 0.58851 0.0
H2423 H 0.3165 0.66191 0.56623 0.0
H2424 H 0.26229 0.60136 0.58764 0.0
H2425 H 0.295 0.61587 0.56961 0.0
H2426 H 0.31315 0.6687 0.71662 0.0
H2427 H 0.34495 0.68352 0.69715 0.0
H2428 H 0.26638 0.67137 0.70828 0.0
H2429 H 0.23717 0.65138 0.68759 0.0
C2430 C 0.29635 0.41101 0.15202 0.0
C2431 C 0.31025 0.42666 0.12769 0.0
C2432 C 0.2644 0.41759 0.09637 0.0
C2433 C 0.24939 0.40386 0.12137 0.0
N2434 N 0.24929 0.39547 0.17574 0.0
N2435 N 0.30547 0.45222 0.08033 0.0
C2436 C 0.26478 0.40295 0.15013 0.0
C2437 C 0.2932 0.43282 0.10131 0.0
N2438 N 0.31356 0.40246 0.17615 0.0
N2439 N 0.25224 0.41424 0.06753 0.0
H2440 H 0.32687 0.4633 0.08371 0.0
H2441 H 0.29333 0.45953 0.06152 0.0
H2442 H 0.23228 0.40108 0.06253 0.0
H2443 H 0.26362 0.42151 0.04822 0.0
H2444 H 0.30529 0.38774 0.19282 0.0
H2445 H 0.33662 0.40857 0.17832 0.0
H2446 H 0.2592 0.39689 0.19751 0.0
H2447 H 0.22592 0.39103 0.17574 0.0
C2448 C 0.65753 0.91945 0.47678 0.0
C2449 C 0.64146 0.9182 0.44856 0.0
C2450 C 0.59927 0.88928 0.47197 0.0
C2451 C 0.61727 0.88689 0.4986 0.0
N2452 N 0.66662 0.89218 0.52287 0.0
N2453 N 0.59896 0.89686 0.41759 0.0
C2454 C 0.64722 0.90015 0.50025 0.0
C2455 C 0.61261 0.90203 0.44564 0.0
N2456 N 0.68294 0.93857 0.48085 0.0
N2457 N 0.56958 0.87903 0.47191 0.0
H2458 H 0.60841 0.90462 0.39745 0.0
H2459 H 0.57948 0.88254 0.41393 0.0
H2460 H 0.55963 0.86912 0.49094 0.0
H2461 H 0.55446 0.88267 0.45404 0.0
H2462 H 0.69413 0.9421 0.50189 0.0
H2463 H 0.69092 0.95317 0.4639 0.0
H2464 H 0.68949 0.89923 0.52366 0.0
H2465 H 0.66073 0.87537 0.53854 0.0
C2466 C 0.34282 0.31983 0.72849 0.0
C2467 C 0.33596 0.3476 0.71373 0.0
C2468 C 0.3835 0.37176 0.73641 0.0
C2469 C 0.39255 0.3426 0.74728 0.0
N2470 N 0.38175 0.28765 0.74773 0.0
N2471 N 0.35347 0.39871 0.70052 0.0
C2472 C 0.37235 0.31637 0.74162 0.0
C2473 C 0.35753 0.37295 0.71662 0.0
N2474 N 0.32105 0.29666 0.73083 0.0
N2475 N 0.39727 0.39906 0.74718 0.0
H2476 H 0.33348 0.40235 0.68878 0.0
H2477 H 0.37135 0.41471 0.69711 0.0
H2478 H 0.41365 0.40085 0.76438 0.0
H2479 H 0.38932 0.4206 0.74209 0.0
H2480 H 0.32317 0.27944 0.74669 0.0
H2481 H 0.30006 0.29651 0.71966 0.0
H2482 H 0.36907 0.26735 0.74163 0.0
H2483 H 0.40355 0.28419 0.75592 0.0
C2484 C 0.91357 0.13271 1.01128 0.0
C2485 C 0.92075 0.16477 0.01703 0.0
C2486 C 0.92361 0.17346 0.96242 0.0
C2487 C 0.91481 0.14167 0.9563 0.0
N2488 N 0.89896 0.09136 0.97438 0.0
N2489 N 0.9407 0.21348 0.99967 0.0
C2490 C 0.90984 0.12114 0.98061 0.0
C2491 C 0.92825 0.18442 0.99296 0.0
N2492 N 0.91021 0.11343 0.03518 0.0
N2493 N 0.92594 0.19359 0.93905 0.0
H2494 H 0.94497 0.22157 0.02207 0.0
H2495 H 0.94949 0.22837 0.98345 0.0
H2496 H 0.92425 0.18634 0.91629 0.0
H2497 H 0.92791 0.21757 0.94206 0.0
H2498 H 0.90884 0.08939 0.033 0.0
H2499 H 0.91072 0.12136 0.05776 0.0
H2500 H 0.8915 0.07604 0.99081 0.0
H2501 H 0.89544 0.08215 0.95231 0.0
C2502 C 0.16614 0.65416 0.23462 0.0
C2503 C 0.15245 0.6513 0.20492 0.0
C2504 C 0.10263 0.64551 0.22848 0.0
C2505 C 0.11602 0.64842 0.25809 0.0
N2506 N 0.16137 0.64105 0.28751 0.0
N2507 N 0.11011 0.6237 0.17849 0.0
C2508 C 0.1481 0.64893 0.26077 0.0
C2509 C 0.12134 0.64095 0.20297 0.0
N2510 N 0.19668 0.65954 0.23814 0.0
N2511 N 0.07223 0.64761 0.22427 0.0
H2512 H 0.12384 0.61569 0.16137 0.0
H2513 H 0.08815 0.6136 0.17776 0.0
H2514 H 0.05804 0.65353 0.24193 0.0
H2515 H 0.06199 0.64687 0.20262 0.0
H2516 H 0.20693 0.66735 0.25875 0.0
H2517 H 0.21175 0.65556 0.2207 0.0
H2518 H 0.18459 0.63961 0.29042 0.0
H2519 H 0.14896 0.63168 0.30529 0.0
C2520 C 0.6408 0.16048 0.02368 0.0
C2521 C 0.61715 0.15169 1.00233 0.0
C2522 C 0.61076 0.1017 0.02811 0.0
C2523 C 0.63792 0.10873 0.04549 0.0
N2524 N 0.68112 0.1441 0.05621 0.0
N2525 N 0.56939 0.12249 0.99976 0.0
C2526 C 0.65362 0.13789 0.04215 0.0
C2527 C 0.59915 0.1244 1.00848 0.0
N2528 N 0.64814 0.19111 0.02935 0.0
N2529 N 0.59586 0.07339 0.03028 0.0
H2530 H 0.55876 0.14181 0.99206 0.0
H2531 H 0.55433 0.10421 1.00507 0.0
H2532 H 0.60209 0.05702 0.04586 0.0
H2533 H 0.57849 0.06544 0.0152 0.0
H2534 H 0.66395 0.19932 0.04597 0.0
H2535 H 0.63475 0.20803 0.02066 0.0
H2536 H 0.69463 0.16401 0.05226 0.0
H2537 H 0.69157 0.12811 0.06954 0.0
C2538 C 0.10744 0.34149 0.25932 0.0
C2539 C 0.1034 0.36912 0.24367 0.0
C2540 C 0.09031 0.39624 0.29068 0.0
C2541 C 0.09821 0.36989 0.30677 0.0
N2542 N 0.10628 0.31535 0.30769 0.0
N2543 N 0.0845 0.41986 0.24144 0.0
C2544 C 0.10379 0.3416 0.29139 0.0
C2545 C 0.09226 0.39548 0.25851 0.0
N2546 N 0.11675 0.31609 0.24368 0.0
N2547 N 0.08198 0.42206 0.30645 0.0
H2548 H 0.08498 0.41888 0.2177 0.0
H2549 H 0.07624 0.44026 0.25014 0.0
H2550 H 0.07918 0.4225 0.33002 0.0
H2551 H 0.0777 0.443 0.29666 0.0
H2552 H 0.12264 0.29576 0.25379 0.0
H2553 H 0.11934 0.3156 0.22012 0.0
H2554 H 0.10844 0.29341 0.29795 0.0
H2555 H 0.10417 0.31517 0.33132 0.0
C2556 C 0.9477 0.89669 0.5362 0.0
C2557 C 0.92312 0.9151 0.5444 0.0
C2558 C 0.90173 0.90505 0.49239 0.0
C2559 C 0.92325 0.88244 0.4867 0.0
N2560 N 0.9662 0.85577 0.50368 0.0
N2561 N 0.87917 0.94066 0.52849 0.0
C2562 C 0.9461 0.8781 0.50877 0.0
C2563 C 0.90112 0.92074 0.52162 0.0
N2564 N 0.97369 0.89866 0.55329 0.0
N2565 N 0.88141 0.91084 0.46992 0.0
H2566 H 0.87993 0.954 0.54875 0.0
H2567 H 0.86029 0.94393 0.51475 0.0
H2568 H 0.88004 0.89777 0.44969 0.0
H2569 H 0.86677 0.92879 0.47085 0.0
H2570 H 0.99335 0.88801 0.54729 0.0
H2571 H 0.97672 0.91434 0.57137 0.0
H2572 H 0.98093 0.84848 0.52049 0.0
H2573 H 0.96672 0.84308 0.48313 0.0
C2574 C 0.42166 0.68193 0.77979 0.0
C2575 C 0.40998 0.66809 0.75216 0.0
C2576 C 0.37128 0.63849 0.78065 0.0
C2577 C 0.3836 0.6518 0.80825 0.0
N2578 N 0.42248 0.68591 0.83392 0.0
N2579 N 0.37095 0.63345 0.72706 0.0
C2580 C 0.40915 0.67327 0.80786 0.0
C2581 C 0.38404 0.64693 0.75268 0.0
N2582 N 0.44507 0.70379 0.77933 0.0
N2583 N 0.34779 0.61656 0.78084 0.0
H2584 H 0.37725 0.63832 0.705 0.0
H2585 H 0.37725 0.63832 0.705 0.0
H2586 H 0.33869 0.60773 0.80073 0.0
H2587 H 0.33792 0.60639 0.76092 0.0
H2588 H 0.45469 0.71439 0.79916 0.0
H2589 H 0.45393 0.71207 0.75906 0.0
H2590 H 0.41535 0.68121 0.8559 0.0
H2591 H 0.41535 0.68121 0.8559 0.0
C2592 C 0.46584 0.59954 0.91705 0.0
C2593 C 0.48417 0.62095 0.90074 0.0
C2594 C 0.45863 0.66382 0.92505 0.0
C2595 C 0.43703 0.64213 0.93687 0.0
N2596 N 0.43188 0.59238 0.95931 0.0
N2597 N 0.50091 0.67354 0.8914 0.0
C2598 C 0.44402 0.61068 0.93747 0.0
C2599 C 0.48169 0.65323 0.90577 0.0
N2600 N 0.46867 0.56856 0.91221 0.0
N2601 N 0.45728 0.69438 0.93334 0.0
H2602 H 0.51846 0.66628 0.87793 0.0
H2603 H 0.49894 0.69739 0.89168 0.0
H2604 H 0.44157 0.7018 0.94905 0.0
H2605 H 0.47295 0.71175 0.9272 0.0
H2606 H 0.45374 0.55174 0.92094 0.0
H2607 H 0.48469 0.55991 0.89756 0.0
H2608 H 0.43785 0.56972 0.96253 0.0
H2609 H 0.41837 0.60135 0.97629 0.0
C2610 C 0.65612 0.27708 0.07693 0.0
C2611 C 0.67735 0.29776 0.0927 0.0
C2612 C 0.67019 0.26614 0.13815 0.0
C2613 C 0.65036 0.24482 0.12134 0.0
N2614 N 0.61002 0.24669 0.08385 0.0
N2615 N 0.71266 0.30313 0.13544 0.0
C2616 C 0.63875 0.25527 0.09341 0.0
C2617 C 0.68666 0.28984 0.12263 0.0
N2618 N 0.65552 0.27454 0.04599 0.0
N2619 N 0.66929 0.26747 0.16916 0.0
H2620 H 0.72727 0.31763 0.12318 0.0
H2621 H 0.72132 0.29647 0.15639 0.0
H2622 H 0.65248 0.25502 0.18077 0.0
H2623 H 0.68153 0.28441 0.1824 0.0
H2624 H 0.63967 0.26001 0.03393 0.0
H2625 H 0.67458 0.28109 0.03365 0.0
H2626 H 0.6003 0.25546 0.06425 0.0
H2627 H 0.59537 0.23378 0.09759 0.0
C2628 C 1.00165 0.4595 0.42656 0.0
C2629 C 0.98805 0.43782 0.40485 0.0
C2630 C 0.01887 0.39787 0.4262 0.0
C2631 C 0.03759 0.42079 0.4413 0.0
N2632 N 0.0443 0.47266 0.46138 0.0
N2633 N 0.98802 0.38624 0.38132 0.0
C2634 C 0.02767 0.45134 0.44371 0.0
C2635 C 0.99758 0.4068 0.40407 0.0
N2636 N 0.99003 0.48791 0.43018 0.0
N2637 N 0.02262 0.36757 0.43208 0.0
H2638 H 0.97505 0.39227 0.36272 0.0
H2639 H 0.99621 0.36419 0.37894 0.0
H2640 H 0.0384 0.36132 0.44848 0.0
H2641 H 1.00824 0.34953 0.42315 0.0
H2642 H 0.99726 0.50402 0.44722 0.0
H2643 H 0.97198 0.49474 0.41679 0.0
H2644 H 0.04124 0.49635 0.46153 0.0
H2645 H 0.06149 0.46592 0.47595 0.0
C2646 C 0.8969 0.79541 0.65412 0.0
C2647 C 0.92803 0.80405 0.65906 0.0
C2648 C 0.94139 0.75262 0.64082 0.0
C2649 C 0.91083 0.74648 0.63131 0.0
N2650 N 0.85869 0.75899 0.63288 0.0
N2651 N 0.97974 0.79043 0.66167 0.0
C2652 C 0.88839 0.76676 0.63963 0.0
C2653 C 0.95021 0.78207 0.6545 0.0
N2654 N 0.87481 0.81483 0.66144 0.0
N2655 N 0.96173 0.73043 0.63611 0.0
H2656 H 0.98605 0.81157 0.67273 0.0
H2657 H 0.99786 0.77696 0.65677 0.0
H2658 H 0.95565 0.70904 0.62556 0.0
H2659 H 0.98415 0.73236 0.64371 0.0
H2660 H 0.87886 0.83639 0.67245 0.0
H2661 H 0.87886 0.83639 0.67245 0.0
H2662 H 0.84141 0.77358 0.63823 0.0
H2663 H 0.85153 0.73788 0.62226 0.0
C2664 C 0.48462 0.405 0.67767 0.0
C2665 C 0.50298 0.38062 0.68571 0.0
C2666 C 0.4626 0.34241 0.6712 0.0
C2667 C 0.44379 0.36663 0.66335 0.0
N2668 N 0.43379 0.42098 0.66945 0.0
N2669 N 0.50621 0.32818 0.70072 0.0
C2670 C 0.45372 0.39799 0.67003 0.0
C2671 C 0.49034 0.35007 0.6867 0.0
N2672 N 0.49695 0.43439 0.67511 0.0
N2673 N 0.45543 0.31252 0.66164 0.0
H2674 H 0.52703 0.3338 0.71168 0.0
H2675 H 0.49734 0.30574 0.70402 0.0
H2676 H 0.43674 0.30617 0.64759 0.0
H2677 H 0.46989 0.29461 0.66477 0.0
H2678 H 0.48523 0.45211 0.66554 0.0
H2679 H 0.51938 0.44071 0.68082 0.0
H2680 H 0.43954 0.44359 0.67712 0.0
H2681 H 0.41087 0.41694 0.6642 0.0
C2682 C 0.89418 0.25172 0.88073 0.0
C2683 C 0.86667 0.26458 0.88998 0.0
C2684 C 0.84113 0.23404 0.84783 0.0
C2685 C 0.86624 0.21499 0.84442 0.0
N2686 N 0.91817 0.20717 0.86072 0.0
N2687 N 0.81261 0.26437 0.88313 0.0
C2688 C 0.89335 0.2244 0.8614 0.0
C2689 C 0.83979 0.25482 0.87358 0.0
N2690 N 0.92138 0.26582 0.88958 0.0
N2691 N 0.81869 0.23285 0.82599 0.0
H2692 H 0.81052 0.27815 0.90279 0.0
H2693 H 0.79206 0.25579 0.87339 0.0
H2694 H 0.82003 0.21969 0.80578 0.0
H2695 H 0.80104 0.24785 0.82624 0.0
H2696 H 0.94178 0.26038 0.87989 0.0
H2697 H 0.92358 0.28516 0.90401 0.0
H2698 H 0.93779 0.21277 0.87358 0.0
H2699 H 0.91881 0.18573 0.85011 0.0
C2700 C 0.03079 0.58696 0.1304 0.0
C2701 C 0.03026 0.61826 0.12101 0.0
C2702 C 0.98651 0.62615 0.15212 0.0
C2703 C 0.98594 0.59464 0.16 0.0
N2704 N 1.00227 0.54331 0.15129 0.0
N2705 N 1.00247 0.6641 0.11551 0.0
C2706 C 1.0063 0.5744 0.14715 0.0
C2707 C 1.00611 0.63655 0.1292 0.0
N2708 N 0.05542 0.56993 0.12558 0.0
N2709 N 0.96952 0.64639 0.16773 0.0
H2710 H 0.0167 0.67195 0.09833 0.0
H2711 H 0.98376 0.67726 0.11899 0.0
H2712 H 0.95647 0.63974 0.18618 0.0
H2713 H 0.9709 0.67019 0.16449 0.0
H2714 H 0.05766 0.5482 0.13465 0.0
H2715 H 0.07471 0.57816 0.11472 0.0
H2716 H 0.01457 0.52692 0.13979 0.0
H2717 H 0.98488 0.53386 0.16445 0.0
C2718 C 0.68564 0.79495 0.37799 0.0
C2719 C 0.71392 0.78088 0.37783 0.0
C2720 C 0.72722 0.81115 0.33324 0.0
C2721 C 0.70354 0.83111 0.33938 0.0
N2722 N 0.66084 0.84246 0.37067 0.0
N2723 N 0.76313 0.77785 0.35585 0.0
C2724 C 0.68244 0.82285 0.36217 0.0
C2725 C 0.73495 0.78913 0.35514 0.0
N2726 N 0.66161 0.7814 0.39248 0.0
N2727 N 0.74374 0.81519 0.30759 0.0
H2728 H 0.77031 0.76342 0.37285 0.0
H2729 H 0.78027 0.78529 0.34144 0.0
H2730 H 0.73862 0.83187 0.29181 0.0
H2731 H 0.76024 0.80031 0.30081 0.0
H2732 H 0.64 0.78979 0.39128 0.0
H2733 H 0.66238 0.75974 0.40218 0.0
H2734 H 0.6475 0.83896 0.38972 0.0
H2735 H 0.65772 0.8632 0.36008 0.0
C2736 C 0.92811 0.46177 0.58706 0.0
C2737 C 0.9294 0.44849 0.61609 0.0
C2738 C 0.91497 0.49685 0.64026 0.0
C2739 C 0.90798 0.50784 0.611 0.0
N2740 N 0.91525 0.50584 0.55694 0.0
N2741 N 0.9393 0.45764 0.66934 0.0
C2742 C 0.91737 0.49201 0.58442 0.0
C2743 C 0.92812 0.46769 0.64248 0.0
N2744 N 0.93555 0.44428 0.56225 0.0
N2745 N 0.90755 0.51352 0.66563 0.0
H2746 H 0.95013 0.43682 0.67017 0.0
H2747 H 0.94053 0.47092 0.68954 0.0
H2748 H 0.89815 0.53506 0.66434 0.0
H2749 H 0.9094 0.50546 0.68768 0.0
H2750 H 0.93319 0.4508 0.53974 0.0
H2751 H 0.94502 0.42292 0.56485 0.0
H2752 H 0.92218 0.49618 0.53644 0.0
H2753 H 0.90753 0.52807 0.55492 0.0
C2754 C 0.39495 0.01869 0.42753 0.0
C2755 C 0.3852 0.02255 0.45578 0.0
C2756 C 0.41571 0.06899 0.46517 0.0
C2757 C 0.42214 0.06942 0.43327 0.0
N2758 N 0.41793 0.04191 0.38351 0.0
N2759 N 0.38146 0.04882 0.50385 0.0
C2760 C 0.41259 0.04286 0.41395 0.0
C2761 C 0.39387 0.04687 0.47581 0.0
N2762 N 0.38054 0.99152 0.41472 0.0
N2763 N 0.43208 0.08818 0.48511 0.0
H2764 H 0.36572 0.03176 0.5109 0.0
H2765 H 0.38552 0.06789 0.51872 0.0
H2766 H 0.45136 0.10069 0.47801 0.0
H2767 H 0.42902 0.08833 0.50861 0.0
H2768 H 0.38969 0.98588 0.39327 0.0
H2769 H 0.34412 0.96481 0.44065 0.0
H2770 H 0.40999 0.0235 0.36918 0.0
H2771 H 0.42993 0.05958 0.3726 0.0
C2772 C 0.24181 0.13239 0.68043 0.0
C2773 C 0.2552 0.12375 0.65262 0.0
C2774 C 0.22245 0.1576 0.62532 0.0
C2775 C 0.20613 0.16326 0.65219 0.0
N2776 N 0.19698 0.14918 0.70476 0.0
N2777 N 0.25308 0.12195 0.59801 0.0
C2778 C 0.21482 0.14878 0.67972 0.0
C2779 C 0.24318 0.13396 0.62486 0.0
N2780 N 0.25556 0.12641 0.70757 0.0
N2781 N 0.21899 0.17566 0.60059 0.0
H2782 H 0.26858 0.10459 0.5975 0.0
H2783 H 0.24373 0.12701 0.57686 0.0
H2784 H 0.20526 0.19452 0.6009 0.0
H2785 H 0.23222 0.17398 0.58129 0.0
H2786 H 0.24879 0.13573 0.72836 0.0
H2787 H 0.27493 0.11393 0.70911 0.0
H2788 H 0.20114 0.13623 0.72392 0.0
H2789 H 0.1764 0.15954 0.70547 0.0
C2790 C 0.10947 0.02268 0.91623 0.0
C2791 C 0.1256 0.99676 0.90655 0.0
C2792 C 0.1732 0.02875 0.91075 0.0
C2793 C 0.15697 0.05435 0.92029 0.0
N2794 N 0.11201 0.07351 0.94133 0.0
N2795 N 0.17376 0.973 0.90387 0.0
C2796 C 0.12589 0.0502 0.92662 0.0
C2797 C 0.15785 0.99908 0.90679 0.0
N2798 N 0.07866 0.02194 0.91336 0.0
N2799 N 0.20297 0.03336 0.90387 0.0
H2800 H 0.16336 0.95079 0.90206 0.0
H2801 H 0.19721 0.97318 0.90628 0.0
H2802 H 0.21466 0.05479 0.90767 0.0
H2803 H 0.21541 0.01656 0.89318 0.0
H2804 H 0.06606 0.04122 0.91742 0.0
H2805 H 0.0658 1.003 0.90398 0.0
H2806 H 0.0898 0.07142 0.94871 0.0
H2807 H 0.12411 0.09368 0.94897 0.0
C2808 C 0.78473 0.42225 0.66091 0.0
C2809 C 0.78985 0.39213 0.67135 0.0
C2810 C 0.75103 0.3998 0.70941 0.0
C2811 C 0.74117 0.42583 0.69392 0.0
N2812 N 0.74506 0.45517 0.64743 0.0
N2813 N 0.77104 0.34958 0.70186 0.0
C2814 C 0.757 0.43549 0.66759 0.0
C2815 C 0.77113 0.38008 0.69474 0.0
N2816 N 0.80642 0.43895 0.64577 0.0
N2817 N 0.74086 0.39371 0.73787 0.0
H2818 H 0.78166 0.33322 0.68852 0.0
H2819 H 0.75729 0.33995 0.71853 0.0
H2820 H 0.727 0.40862 0.74952 0.0
H2821 H 0.74895 0.37602 0.75088 0.0
H2822 H 0.80363 0.46175 0.63958 0.0
H2823 H 0.82834 0.43177 0.64322 0.0
H2824 H 0.75577 0.46077 0.62718 0.0
H2825 H 0.72304 0.46223 0.64837 0.0
C2826 C 0.63771 0.55354 0.18795 0.0
C2827 C 0.62155 0.57166 0.16699 0.0
C2828 C 0.65501 0.55445 0.12657 0.0
C2829 C 0.66815 0.53348 0.14594 0.0
N2830 N 0.66791 0.50867 0.1943 0.0
N2831 N 0.60818 0.57608 0.11408 0.0
C2832 C 0.65835 0.53171 0.17651 0.0
C2833 C 0.62871 0.56898 0.1357 0.0
N2834 N 0.6347 0.55793 0.21864 0.0
N2835 N 0.66717 0.56007 0.09889 0.0
H2836 H 0.5862 0.58006 0.11999 0.0
H2837 H 0.61109 0.5707 0.0911 0.0
H2838 H 0.68621 0.54921 0.09122 0.0
H2839 H 0.66017 0.57811 0.08568 0.0
H2840 H 0.6481 0.5474 0.23467 0.0
H2841 H 0.62151 0.57474 0.22811 0.0
H2842 H 0.65913 0.50419 0.21569 0.0
H2843 H 0.68272 0.49241 0.18649 0.0
C2844 C 0.22614 0.89419 0.91154 0.0
C2845 C 0.24854 0.89373 0.88863 0.0
C2846 C 0.21008 0.86578 0.85514 0.0
C2847 C 0.18935 0.86452 0.87938 0.0
N2848 N 0.18619 0.86268 0.93368 0.0
N2849 N 0.26239 0.86921 0.84075 0.0
C2850 C 0.20028 0.87362 0.90866 0.0
C2851 C 0.24081 0.87657 0.86093 0.0
N2852 N 0.22817 0.91558 0.935 0.0
N2853 N 0.20013 0.85732 0.82636 0.0
H2854 H 0.28509 0.8747 0.84482 0.0
H2855 H 0.25803 0.85451 0.82175 0.0
H2856 H 0.17829 0.84773 0.82208 0.0
H2857 H 0.21309 0.86119 0.80713 0.0
H2858 H 0.21126 0.91711 0.95114 0.0
H2859 H 0.24437 0.93404 0.93571 0.0
H2860 H 0.19434 0.86816 0.95579 0.0
H2861 H 0.16866 0.84556 0.93158 0.0
C2862 C 0.26469 0.12674 0.37008 0.0
C2863 C 0.27314 0.13985 0.39937 0.0
C2864 C 0.2206 0.13258 0.41586 0.0
C2865 C 0.21228 0.11984 0.38658 0.0
N2866 N 0.22395 0.10967 0.33438 0.0
N2867 N 0.25871 0.1605 0.44823 0.0
C2868 C 0.23365 0.11866 0.36319 0.0
C2869 C 0.25089 0.14439 0.42172 0.0
N2870 N 0.2865 0.12052 0.34947 0.0
N2871 N 0.1996 0.13233 0.43826 0.0
H2872 H 0.28066 0.16947 0.45315 0.0
H2873 H 0.2432 0.16707 0.46438 0.0
H2874 H 0.17707 0.12478 0.43424 0.0
H2875 H 0.20463 0.13804 0.46107 0.0
H2876 H 0.2822 0.10832 0.32892 0.0
H2877 H 0.3095 0.12558 0.35371 0.0
H2878 H 0.23753 0.11092 0.31532 0.0
H2879 H 0.20134 0.1032 0.3292 0.0
C2880 C 0.43479 0.14341 0.5786 0.0
C2881 C 0.40757 0.12951 0.59031 0.0
C2882 C 0.3817 0.14242 0.54209 0.0
C2883 C 0.40744 0.16109 0.53396 0.0
N2884 N 0.45791 0.18129 0.54529 0.0
N2885 N 0.35495 0.11285 0.57992 0.0
C2886 C 0.43379 0.16207 0.55249 0.0
C2887 C 0.38098 0.128 0.57107 0.0
N2888 N 0.46203 0.13708 0.59129 0.0
N2889 N 0.35855 0.13703 0.52123 0.0
H2890 H 0.35437 0.09558 0.59585 0.0
H2891 H 0.33378 0.11675 0.57046 0.0
H2892 H 0.35855 0.14689 0.49984 0.0
H2893 H 0.3406 0.12085 0.52395 0.0
H2894 H 0.48274 0.1445 0.58242 0.0
H2895 H 0.46383 0.12083 0.60813 0.0
H2896 H 0.47674 0.18567 0.55968 0.0
H2897 H 0.45783 0.19494 0.52605 0.0
C2898 C 0.67709 0.63477 0.30919 0.0
C2899 C 0.69376 0.66288 0.31755 0.0
C2900 C 0.66091 0.69084 0.28273 0.0
C2901 C 0.64291 0.66322 0.27661 0.0
N2902 N 0.63149 0.6096 0.286 0.0
N2903 N 0.70714 0.71572 0.30466 0.0
C2904 C 0.6504 0.63538 0.2904 0.0
C2905 C 0.68735 0.69036 0.30193 0.0
N2906 N 0.68794 0.60723 0.31758 0.0
N2907 N 0.65161 0.71792 0.27141 0.0
H2908 H 0.7268 0.71621 0.31812 0.0
H2909 H 0.7055 0.73546 0.29187 0.0
H2910 H 0.63233 0.71885 0.25748 0.0
H2911 H 0.6613 0.73968 0.2777 0.0
H2912 H 0.67892 0.58574 0.30953 0.0
H2913 H 0.70747 0.60589 0.33105 0.0
H2914 H 0.63352 0.58939 0.29801 0.0
H2915 H 0.61229 0.60928 0.27182 0.0
C2916 C 0.10624 0.87811 0.06541 0.0
C2917 C 0.09704 0.90858 0.07243 0.0
C2918 C 0.07759 0.9125 0.0201 0.0
C2919 C 0.0895 0.88365 0.01271 0.0
N2920 N 0.10846 0.83582 0.0277 0.0
N2921 N 0.07493 0.95546 0.05669 0.0
C2922 C 0.10137 0.86533 0.03546 0.0
C2923 C 0.08232 0.92577 0.04998 0.0
N2924 N 0.12107 0.86216 0.08697 0.0
N2925 N 0.06221 0.92712 0.998 0.0
H2926 H 0.0789 0.96622 0.07806 0.0
H2927 H 0.06643 0.97033 0.04085 0.0
H2928 H 0.05832 0.91704 0.97634 0.0
H2929 H 0.05126 0.94754 1.00146 0.0
H2930 H 0.13101 0.84127 0.08287 0.0
H2931 H 0.12475 0.87063 0.10915 0.0
H2932 H 0.11561 0.81974 0.04306 0.0
H2933 H 0.1049 0.82663 1.00556 0.0
C2934 C 0.90184 0.39415 0.78745 0.0
C2935 C 0.89818 0.36892 0.76599 0.0
C2936 C 0.86873 0.34009 0.80396 0.0
C2937 C 0.87251 0.3659 0.82458 0.0
N2938 N 0.87684 0.42125 0.82764 0.0
N2939 N 0.87053 0.32025 0.75221 0.0
C2940 C 0.88419 0.39423 0.81386 0.0
C2941 C 0.8794 0.34245 0.77366 0.0
N2942 N 0.92228 0.41813 0.78257 0.0
N2943 N 0.85536 0.31307 0.81377 0.0
H2944 H 0.87849 0.31975 0.73027 0.0
H2945 H 0.85366 0.30307 0.75573 0.0
H2946 H 0.84474 0.31187 0.83477 0.0
H2947 H 0.85576 0.29199 0.80173 0.0
H2948 H 0.92679 0.43615 0.7986 0.0
H2949 H 0.93696 0.41794 0.76424 0.0
H2950 H 0.88359 0.44288 0.81942 0.0
H2951 H 0.86071 0.42147 0.84467 0.0
C2952 C 0.41169 0.85296 0.96909 0.0
C2953 C 0.39292 0.8785 0.96657 0.0
C2954 C 0.38328 0.87658 0.02122 0.0
C2955 C 0.40283 0.85191 0.02409 0.0
N2956 N 0.43968 0.81988 1.00221 0.0
N2957 N 0.37048 0.92105 0.99235 0.0
C2958 C 0.41835 0.84114 0.99839 0.0
C2959 C 0.38191 0.89248 0.99338 0.0
N2960 N 0.42293 0.83989 0.94339 0.0
N2961 N 0.36479 0.88362 0.04458 0.0
H2962 H 0.37352 0.93498 0.97357 0.0
H2963 H 0.36181 0.93243 1.01118 0.0
H2964 H 0.36334 0.87017 0.06381 0.0
H2965 H 0.34836 0.89988 0.04321 0.0
H2966 H 0.43297 0.81868 0.94282 0.0
H2967 H 0.42161 0.85041 0.92245 0.0
H2968 H 0.45397 0.81298 0.98504 0.0
H2969 H 0.44441 0.81074 0.02344 0.0
C2970 C 0.92824 0.6395 0.78962 0.0
C2971 C 0.91841 0.66844 0.80009 0.0
C2972 C 0.90985 0.68299 0.74697 0.0
C2973 C 0.91436 0.65203 0.73701 0.0
N2974 N 0.9276 0.60029 0.7488 0.0
N2975 N 0.89997 0.71803 0.78959 0.0
C2976 C 0.92409 0.63025 0.75826 0.0
C2977 C 0.90986 0.69053 0.77887 0.0
N2978 N 0.94057 0.62058 0.81028 0.0
N2979 N 0.90581 0.70516 0.72591 0.0
H2980 H 0.90086 0.72416 0.8128 0.0
H2981 H 0.88987 0.73396 0.77588 0.0
H2982 H 0.90576 0.70037 0.70246 0.0
H2983 H 0.90505 0.72864 0.73152 0.0
H2984 H 0.95042 0.6 0.80442 0.0
H2985 H 0.94324 0.62714 0.83331 0.0
H2986 H 0.93158 0.58249 0.76355 0.0
H2987 H 0.92459 0.59261 0.72614 0.0
C2988 C 0.03694 0.09505 0.51798 0.0
C2989 C 0.0678 0.09212 0.51126 0.0
C2990 C 0.08345 0.1285 0.55131 0.0
C2991 C 0.05277 0.13229 0.55877 0.0
N2992 N 1.00059 0.11417 0.55392 0.0
N2993 N 0.11895 0.0939 0.52982 0.0
C2994 C 0.02949 0.11348 0.54389 0.0
C2995 C 0.09028 0.10355 0.53205 0.0
N2996 N 0.01523 0.08191 0.49849 0.0
N2997 N 0.10553 0.15061 0.55906 0.0
H2998 H 0.1241 0.07652 0.51402 0.0
H2999 H 0.13619 0.10106 0.54541 0.0
H3000 H 0.10084 0.17216 0.56827 0.0
H3001 H 0.12787 0.14928 0.55226 0.0
H3002 H 0.99225 0.0851 0.50061 0.0
H3003 H 0.02072 0.06802 0.47978 0.0
H3004 H 0.98293 0.09936 0.54534 0.0
H3005 H 0.99487 0.12856 0.57217 0.0
C3006 C 0.62388 0.35691 0.21512 0.0
C3007 C 0.64446 0.38323 0.21872 0.0
C3008 C 0.6304 0.38999 0.27194 0.0
C3009 C 0.6104 0.36322 0.26868 0.0
N3010 N 0.59038 0.31896 0.23944 0.0
N3011 N 0.67173 0.42136 0.2513 0.0
C3012 C 0.60792 0.34594 0.24087 0.0
C3013 C 0.64917 0.39862 0.24743 0.0
N3014 N 0.61921 0.34297 0.18691 0.0
N3015 N 0.63048 0.40799 0.29804 0.0
H3016 H 0.68525 0.42905 0.23355 0.0
H3017 H 0.67874 0.43087 0.27251 0.0
H3018 H 0.61785 0.40223 0.31701 0.0
H3019 H 0.64136 0.42989 0.30013 0.0
H3020 H 0.60227 0.32589 0.18185 0.0
H3021 H 0.63171 0.34937 0.16796 0.0
H3022 H 0.58935 0.30351 0.22079 0.0
H3023 H 0.57799 0.31114 0.25797 0.0
C3024 C 0.5939 0.45972 0.08831 0.0
C3025 C 0.59807 0.42764 0.08413 0.0
C3026 C 0.55103 0.41546 0.11063 0.0
C3027 C 0.54949 0.44727 0.11976 0.0
N3028 N 0.56838 0.50003 0.11597 0.0
N3029 N 0.5713 0.37857 0.07492 0.0
C3030 C 0.57032 0.4696 0.10766 0.0
C3031 C 0.57354 0.40664 0.09008 0.0
N3032 N 0.61069 0.48028 0.07177 0.0
N3033 N 0.53204 0.39322 0.12248 0.0
H3034 H 0.58667 0.37274 0.05822 0.0
H3035 H 0.55252 0.36308 0.07599 0.0
H3036 H 0.51471 0.39792 0.13713 0.0
H3037 H 0.53493 0.36959 0.11952 0.0
H3038 H 0.60747 0.50394 0.07175 0.0
H3039 H 0.62596 0.47286 0.05566 0.0
H3040 H 0.58457 0.51718 0.11059 0.0
H3041 H 0.55136 0.50768 0.12998 0.0
C3042 C 0.32523 0.77813 0.91157 0.0
C3043 C 0.34063 0.75145 0.90384 0.0
C3044 C 0.35891 0.7752 0.85702 0.0
C3045 C 0.34551 0.80277 0.86602 0.0
N3046 N 0.3086 0.82793 0.89678 0.0
N3047 N 0.36673 0.72158 0.86637 0.0
C3048 C 0.32608 0.80334 0.89155 0.0
C3049 C 0.35547 0.74892 0.87549 0.0
N3050 N 0.3106 0.77957 0.93868 0.0
N3051 N 0.3766 0.77498 0.83182 0.0
H3052 H 0.36877 0.70308 0.88067 0.0
H3053 H 0.37242 0.71675 0.84391 0.0
H3054 H 0.37792 0.79343 0.81698 0.0
H3055 H 0.39062 0.75725 0.82609 0.0
H3056 H 0.30226 0.79971 0.94798 0.0
H3057 H 0.30804 0.76062 0.95276 0.0
H3058 H 0.29172 0.82824 0.91294 0.0
H3059 H 0.30924 0.84746 0.8836 0.0
C3060 C 0.98717 0.59415 0.60077 0.0
C3061 C 0.98343 0.62538 0.59301 0.0
C3062 C 0.02839 0.64162 0.62435 0.0
C3063 C 0.0302 0.61096 0.63556 0.0
N3064 N 0.01104 0.55791 0.63398 0.0
N3065 N 0.01234 0.67224 0.58236 0.0
C3066 C 1.00977 0.58707 0.62314 0.0
C3067 C 1.00754 0.64726 0.60033 0.0
N3068 N 0.97097 0.57125 0.58464 0.0
N3069 N 0.04597 0.66593 0.6366 0.0
H3070 H 1.00021 0.67455 0.562 0.0
H3071 H 0.03122 0.68763 0.58482 0.0
H3072 H 0.0628 0.66413 0.65305 0.0
H3073 H 0.04217 0.68888 0.63181 0.0
H3074 H 0.97398 0.54774 0.58695 0.0
H3075 H 0.95639 0.57619 0.56665 0.0
H3076 H 0.9951 0.53995 0.62844 0.0
H3077 H 0.02703 0.55232 0.65043 0.0
C3078 C 0.08585 0.26101 0.39113 0.0
C3079 C 0.10731 0.26628 0.41542 0.0
C3080 C 0.12156 0.21204 0.41 0.0
C3081 C 0.09729 0.20548 0.38836 0.0
N3082 N 0.06052 0.22487 0.35384 0.0
N3083 N 0.14565 0.24788 0.44824 0.0
C3084 C 0.08095 0.23057 0.3774 0.0
C3085 C 0.12555 0.24217 0.42445 0.0
N3086 N 0.06961 0.28518 0.38201 0.0
N3087 N 0.14104 0.18974 0.41677 0.0
H3088 H 0.14969 0.26991 0.45829 0.0
H3089 H 0.1571 0.23084 0.45918 0.0
H3090 H 0.13857 0.16734 0.40791 0.0
H3091 H 0.16106 0.19385 0.42939 0.0
H3092 H 0.05355 0.28409 0.36439 0.0
H3093 H 0.07242 0.30711 0.39241 0.0
H3094 H 0.04669 0.24109 0.3448 0.0
H3095 H 0.05809 0.20342 0.34227 0.0
C3096 C 0.56785 0.64682 0.34976 0.0
C3097 C 0.58064 0.67762 0.3537 0.0
C3098 C 0.54222 0.69456 0.3181 0.0
C3099 C 0.52544 0.66595 0.32037 0.0
N3100 N 0.52231 0.61456 0.34116 0.0
N3101 N 0.57645 0.73208 0.34439 0.0
C3102 C 0.53834 0.64178 0.33664 0.0
C3103 C 0.56707 0.70189 0.33832 0.0
N3104 N 0.58415 0.62218 0.35737 0.0
N3105 N 0.53325 0.71515 0.29726 0.0
H3106 H 0.59305 0.73868 0.36084 0.0
H3107 H 0.56545 0.75063 0.3355 0.0
H3108 H 0.51484 0.70985 0.28242 0.0
H3109 H 0.54578 0.73554 0.29277 0.0
H3110 H 0.57686 0.5993 0.3521 0.0
H3111 H 0.6063 0.62462 0.3657 0.0
H3112 H 0.52924 0.59845 0.3567 0.0
H3113 H 0.50169 0.6084 0.33053 0.0
C3114 C 0.12827 0.81458 0.1465 0.0
C3115 C 0.15551 0.83204 0.15498 0.0
C3116 C 0.18478 0.79027 0.13302 0.0
C3117 C 0.15766 0.77246 0.12625 0.0
N3118 N 0.10452 0.7637 0.13468 0.0
N3119 N 0.2096 0.83205 0.1636 0.0
C3120 C 0.1297 0.78335 0.13575 0.0
C3121 C 0.18377 0.81845 0.1505 0.0
N3122 N 0.10126 0.82832 0.14597 0.0
N3123 N 0.21138 0.78081 0.12176 0.0
H3124 H 0.20959 0.8518 0.17777 0.0
H3125 H 0.23042 0.82195 0.16316 0.0
H3126 H 0.21268 0.76032 0.10885 0.0
H3127 H 0.2315 0.79448 0.12307 0.0
H3128 H 0.08131 0.8173 0.13722 0.0
H3129 H 0.09942 0.85184 0.15062 0.0
H3130 H 0.08404 0.76945 0.14403 0.0
H3131 H 0.10509 0.74058 0.12734 0.0
C3132 C 0.05458 0.42722 0.87866 0.0
C3133 C 0.05569 0.41749 0.84772 0.0
C3134 C 1.0018 0.4012 0.84919 0.0
C3135 C 1.00316 0.40376 0.88162 0.0
N3136 N 0.03352 0.41522 0.92725 0.0
N3137 N 0.03019 0.39581 0.80273 0.0
C3138 C 0.03003 0.41629 0.89637 0.0
C3139 C 0.029 0.40505 0.83266 0.0
N3140 N 0.07714 0.44622 0.89155 0.0
N3141 N 0.97461 0.3958 0.83421 0.0
H3142 H 0.04949 0.40014 0.78988 0.0
H3143 H 0.01279 0.38278 0.79127 0.0
H3144 H 0.95405 0.39472 0.84542 0.0
H3145 H 0.97225 0.39552 0.81055 0.0
H3146 H 0.07478 0.45729 0.91269 0.0
H3147 H 0.09599 0.45426 0.87985 0.0
H3148 H 0.05406 0.42127 0.93816 0.0
H3149 H 0.01759 0.40478 0.94139 0.0
C3150 C 0.32826 0.22159 0.69045 0.0
C3151 C 0.3528 0.20497 0.67879 0.0
C3152 C 0.3365 0.21821 0.62714 0.0
C3153 C 0.31718 0.23989 0.63911 0.0
N3154 N 0.28169 0.24687 0.67872 0.0
N3155 N 0.38301 0.194 0.63372 0.0
C3156 C 0.30915 0.23729 0.67004 0.0
C3157 C 0.35793 0.20533 0.64658 0.0
N3158 N 0.32355 0.22241 0.72113 0.0
N3159 N 0.33172 0.20672 0.59809 0.0
H3160 H 0.40131 0.18651 0.64577 0.0
H3161 H 0.38738 0.19606 0.61055 0.0
H3162 H 0.31273 0.21221 0.58525 0.0
H3163 H 0.3435 0.18848 0.58901 0.0
H3164 H 0.30521 0.23213 0.73135 0.0
H3165 H 0.3391 0.21424 0.73673 0.0
H3166 H 0.27285 0.24407 0.7003 0.0
H3167 H 0.26619 0.25453 0.66274 0.0
C3168 C 0.1104 0.53167 0.43301 0.0
C3169 C 0.12081 0.50728 0.41436 0.0
C3170 C 0.09731 0.53038 0.36946 0.0
C3171 C 0.09082 0.5569 0.38764 0.0
N3172 N 0.07459 0.57195 0.43761 0.0
N3173 N 0.11524 0.47813 0.36679 0.0
C3174 C 0.09234 0.55447 0.41982 0.0
C3175 C 0.11149 0.50501 0.38307 0.0
N3176 N 0.11847 0.53359 0.46318 0.0
N3177 N 0.08921 0.52946 0.33921 0.0
H3178 H 0.12378 0.45865 0.3765 0.0
H3179 H 0.10804 0.47399 0.34431 0.0
H3180 H 0.07497 0.54544 0.33006 0.0
H3181 H 0.09608 0.51316 0.3233 0.0
H3182 H 0.11409 0.55256 0.47729 0.0
H3183 H 0.13147 0.51716 0.47337 0.0
H3184 H 0.07269 0.56908 0.461 0.0
H3185 H 0.05907 0.58649 0.42824 0.0
C3186 C 0.63251 0.97804 0.65126 0.0
C3187 C 0.61446 0.95763 0.63137 0.0
C3188 C 0.61194 1.00062 0.59542 0.0
C3189 C 0.63323 0.01868 0.61389 0.0
N3190 N 0.66797 0.02254 0.65629 0.0
N3191 N 0.58214 0.95236 0.58616 0.0
C3192 C 0.64529 1.0062 0.64041 0.0
C3193 C 0.6029 0.96964 0.60368 0.0
N3194 N 0.6352 0.97188 0.6815 0.0
N3195 N 0.59905 1.01423 0.57104 0.0
H3196 H 0.56948 0.93362 0.59453 0.0
H3197 H 0.57654 0.95726 0.56373 0.0
H3198 H 0.60621 0.0364 0.56445 0.0
H3199 H 0.58107 1.00431 0.55789 0.0
H3200 H 0.64599 0.98715 0.69754 0.0
H3201 H 0.62282 0.95369 0.69115 0.0
H3202 H 0.67949 1.01364 0.67474 0.0
H3203 H 0.67707 0.04375 0.64892 0.0
C3204 C 0.80823 0.87616 0.38695 0.0
C3205 C 0.82606 0.85892 0.36702 0.0
C3206 C 0.80379 0.88483 0.3236 0.0
C3207 C 0.79126 0.90717 0.34357 0.0
N3208 N 0.776 0.9185 0.39578 0.0
N3209 N 0.82358 0.83463 0.31709 0.0
C3210 C 0.79185 0.90126 0.37575 0.0
C3211 C 0.81866 0.85935 0.33563 0.0
N3212 N 0.80511 0.86652 0.41618 0.0
N3213 N 0.80148 0.88757 0.29284 0.0
H3214 H 0.83108 0.81395 0.32543 0.0
H3215 H 0.83108 0.81395 0.32543 0.0
H3216 H 0.79331 0.90708 0.28276 0.0
H3217 H 0.80894 0.87069 0.27775 0.0
H3218 H 0.79061 0.87581 0.43194 0.0
H3219 H 0.81477 0.84646 0.42354 0.0
H3220 H 0.78022 0.91936 0.41921 0.0
H3221 H 0.75803 0.93151 0.38961 0.0
C3222 C 0.88178 0.99766 0.14264 0.0
C3223 C 0.85848 0.99346 0.12002 0.0
C3224 C 0.8718 0.04402 0.09969 0.0
C3225 C 0.89444 0.04871 0.12301 0.0
N3226 N 0.9262 0.02817 0.16166 0.0
N3227 N 0.83582 1.00803 0.0729 0.0
C3228 C 0.90127 0.02474 0.14275 0.0
C3229 C 0.85505 1.01522 0.0971 0.0
N3230 N 0.88421 0.97645 0.16483 0.0
N3231 N 0.86537 0.06766 0.08112 0.0
H3232 H 0.82311 0.987 0.07089 0.0
H3233 H 0.83419 0.02159 0.05379 0.0
H3234 H 0.8779 0.08871 0.08198 0.0
H3235 H 0.84688 0.06712 0.06607 0.0
H3236 H 0.89839 0.9796 0.18399 0.0
H3237 H 0.87064 0.95615 0.16486 0.0
H3238 H 0.93404 1.01056 0.17486 0.0
H3239 H 0.94066 0.04806 0.16214 0.0
C3240 C 0.28156 0.64026 0.35485 0.0
C3241 C 0.28549 0.61809 0.33078 0.0
C3242 C 0.23037 0.60796 0.32708 0.0
C3243 C 0.2265 0.63136 0.35001 0.0
N3244 N 0.24825 0.67171 0.38409 0.0
N3245 N 0.26377 0.58542 0.29021 0.0
C3246 C 0.25206 0.64813 0.36327 0.0
C3247 C 0.25983 0.60325 0.31587 0.0
N3248 N 0.30607 0.65289 0.37078 0.0
N3249 N 0.20603 0.58974 0.31644 0.0
H3250 H 0.28512 0.58203 0.28145 0.0
H3251 H 0.24605 0.57643 0.27612 0.0
H3252 H 0.18395 0.59291 0.32314 0.0
H3253 H 0.20784 0.57016 0.30237 0.0
H3254 H 0.305 0.66462 0.39176 0.0
H3255 H 0.32772 0.65129 0.36302 0.0
H3256 H 0.26546 0.68791 0.391 0.0
H3257 H 0.2275 0.6762 0.39357 0.0
C3258 C 0.37894 0.52698 0.8813 0.0
C3259 C 0.36761 0.52231 0.91093 0.0
C3260 C 0.39744 0.47693 0.91611 0.0
C3261 C 0.40979 0.48227 0.88678 0.0
N3262 N 0.41839 0.51676 0.84543 0.0
N3263 N 0.37053 0.49775 0.95908 0.0
C3264 C 0.40248 0.50882 0.87067 0.0
C3265 C 0.37855 0.49895 0.92922 0.0
N3266 N 0.36654 0.5481 0.86296 0.0
N3267 N 0.40165 0.44984 0.93047 0.0
H3268 H 0.35551 0.51282 0.96873 0.0
H3269 H 0.38041 0.48346 0.9747 0.0
H3270 H 0.41377 0.4321 0.92122 0.0
H3271 H 0.39051 0.44347 0.95021 0.0
H3272 H 0.37172 0.55031 0.84005 0.0
H3273 H 0.34918 0.56179 0.86992 0.0
H3274 H 0.41606 0.53745 0.83427 0.0
H3275 H 0.43618 0.50403 0.83758 0.0
C3276 C 0.77201 0.18135 0.14578 0.0
C3277 C 0.77266 0.14848 0.14287 0.0
C3278 C 0.82664 0.15486 0.13362 0.0
C3279 C 0.82812 0.18606 0.14477 0.0
N3280 N 0.79925 0.23063 0.15703 0.0
N3281 N 0.80339 0.10422 0.14123 0.0
C3282 C 0.79989 0.19975 0.15009 0.0
C3283 C 0.80095 0.13541 0.13953 0.0
N3284 N 0.74538 0.1953 0.14154 0.0
N3285 N 0.84738 0.14451 0.11391 0.0
H3286 H 0.78554 0.08944 0.14806 0.0
H3287 H 0.82395 0.0939 0.13882 0.0
H3288 H 0.86399 0.15903 0.10468 0.0
H3289 H 0.84482 0.12261 0.10338 0.0
H3290 H 0.74387 0.2192 0.14062 0.0
H3291 H 0.72522 0.18309 0.13532 0.0
H3292 H 0.78027 0.24066 0.16583 0.0
H3293 H 0.81742 0.24629 0.15341 0.0
C3294 C 0.76697 0.90466 0.58486 0.0
C3295 C 0.74514 0.90727 0.60795 0.0
C3296 C 0.7834 0.93331 0.64244 0.0
C3297 C 0.8059 0.92667 0.62112 0.0
N3298 N 0.81949 0.913 0.57008 0.0
N3299 N 0.73069 0.92799 0.65693 0.0
C3300 C 0.79767 0.91489 0.59146 0.0
C3301 C 0.75274 0.92321 0.63611 0.0
N3302 N 0.75827 0.89171 0.55702 0.0
N3303 N 0.79225 0.94808 0.66938 0.0
H3304 H 0.70828 0.91969 0.65373 0.0
H3305 H 0.73402 0.9405 0.67739 0.0
H3306 H 0.81444 0.95696 0.67326 0.0
H3307 H 0.77822 0.95209 0.68761 0.0
H3308 H 0.77279 0.8877 0.53921 0.0
H3309 H 0.7359 0.88458 0.55157 0.0
H3310 H 0.81569 0.90565 0.54752 0.0
H3311 H 0.84182 0.92053 0.57469 0.0
C3312 C 0.9912 0.28441 0.15683 0.0
C3313 C 0.98262 0.26544 0.1308 0.0
C3314 C 0.02126 0.29322 0.10084 0.0
C3315 C 0.03138 0.3106 0.1274 0.0
N3316 N 0.01943 0.33067 0.17699 0.0
N3317 N 0.98278 0.25805 0.07634 0.0
C3318 C 0.01405 0.30886 0.15421 0.0
C3319 C 0.99545 0.27211 0.10218 0.0
N3320 N 0.97893 0.27788 0.18437 0.0
N3321 N 0.0371 0.29617 0.07459 0.0
H3322 H 0.96359 0.24296 0.0769 0.0
H3323 H 0.98935 0.26336 0.05437 0.0
H3324 H 0.05446 0.31316 0.07235 0.0
H3325 H 0.03368 0.28146 0.0555 0.0
H3326 H 0.98678 0.28834 0.2049 0.0
H3327 H 0.96173 0.26076 0.18684 0.0
H3328 H 1.00641 0.33211 0.19643 0.0
H3329 H 0.03476 0.34953 0.17451 0.0
C3330 C 1.00557 0.72837 0.40083 0.0
C3331 C 0.01813 0.71754 0.37313 0.0
C3332 C 0.98735 0.75444 0.34497 0.0
C3333 C 0.97572 0.76619 0.37276 0.0
N3334 N 0.96848 0.75939 0.42627 0.0
N3335 N 0.01486 0.71473 0.31842 0.0
C3336 C 0.98314 0.75138 0.40037 0.0
C3337 C 1.00687 0.72883 0.34511 0.0
N3338 N 0.01633 0.71792 0.42782 0.0
N3339 N 0.98117 0.76897 0.3185 0.0
H3340 H 0.02865 0.6959 0.31795 0.0
H3341 H 1.0057 0.71957 0.29717 0.0
H3342 H 0.96626 0.78678 0.31737 0.0
H3343 H 0.99186 0.76455 0.29804 0.0
H3344 H 0.01133 0.72737 0.44908 0.0
H3345 H 0.03144 0.70031 0.42884 0.0
H3346 H 0.97039 0.74802 0.44674 0.0
H3347 H 0.95214 0.77587 0.42644 0.0
C3348 C 0.52538 0.78446 0.65568 0.0
C3349 C 0.53301 0.79807 0.62752 0.0
C3350 C 0.48936 0.76875 0.60252 0.0
C3351 C 0.48343 0.75328 0.63008 0.0
N3352 N 0.49005 0.7519 0.68435 0.0
N3353 N 0.51837 0.80901 0.57607 0.0
C3354 C 0.49956 0.7632 0.65718 0.0
C3355 C 0.51346 0.79231 0.60163 0.0
N3356 N 0.54365 0.79109 0.68073 0.0
N3357 N 0.47285 0.75964 0.57689 0.0
H3358 H 0.53588 0.82603 0.57486 0.0
H3359 H 0.50403 0.80782 0.55697 0.0
H3360 H 0.45421 0.74387 0.57756 0.0
H3361 H 0.47777 0.76698 0.55508 0.0
H3362 H 0.54193 0.77957 0.70116 0.0
H3363 H 0.56139 0.80793 0.68068 0.0
H3364 H 0.49914 0.75933 0.70552 0.0
H3365 H 0.47102 0.73672 0.68576 0.0
C3366 C 0.47925 0.24955 0.84837 0.0
C3367 C 0.47361 0.2685 0.87448 0.0
C3368 C 0.50932 0.23833 0.90462 0.0
C3369 C 0.51636 0.22067 0.8781 0.0
N3370 N 0.5028 0.20426 0.82675 0.0
N3371 N 0.47733 0.27574 0.92886 0.0
C3372 C 0.49936 0.22455 0.8507 0.0
C3373 C 0.48666 0.26093 0.90308 0.0
N3374 N 0.46683 0.25669 0.8209 0.0
N3375 N 0.52564 0.23475 0.93091 0.0
H3376 H 0.46079 0.29203 0.92818 0.0
H3377 H 0.48377 0.2701 0.95086 0.0
H3378 H 0.54125 0.21767 0.933 0.0
H3379 H 0.52469 0.24927 0.95015 0.0
H3380 H 0.47259 0.2466 0.80015 0.0
H3381 H 0.4513 0.27382 0.8188 0.0
H3382 H 0.48971 0.20374 0.80677 0.0
H3383 H 0.51722 0.18601 0.8281 0.0
C3384 C 0.11758 0.03329 0.25219 0.0
C3385 C 0.1003 1.00434 0.25021 0.0
C3386 C 0.06917 0.02327 0.29189 0.0
C3387 C 0.08949 0.04942 0.29751 0.0
N3388 N 0.13637 0.07669 0.28489 0.0
N3389 N 0.06386 0.96989 0.27441 0.0
C3390 C 0.1145 0.05396 0.278 0.0
C3391 C 0.07732 0.99878 0.27185 0.0
N3392 N 0.13722 0.04115 0.22975 0.0
N3393 N 0.04176 0.02189 0.30567 0.0
H3394 H 0.07095 0.95069 0.26243 0.0
H3395 H 0.04861 0.9643 0.29146 0.0
H3396 H 0.03462 0.03998 0.31955 0.0
H3397 H 0.02495 1.00464 0.30042 0.0
H3398 H 0.14784 0.06315 0.22844 0.0
H3399 H 0.14114 0.02666 0.21109 0.0
H3400 H 0.15691 0.07853 0.27372 0.0
H3401 H 0.13515 0.09229 0.30328 0.0
C3402 C 0.29741 0.92986 0.49789 0.0
C3403 C 0.29545 0.90494 0.47565 0.0
C3404 C 0.2444 0.89008 0.49474 0.0
C3405 C 0.2469 0.91483 0.51695 0.0
N3406 N 0.27147 0.96334 0.53308 0.0
N3407 N 0.26422 0.8651 0.44923 0.0
C3408 C 0.27198 0.9364 0.5161 0.0
C3409 C 0.26782 0.88651 0.47268 0.0
N3410 N 0.32419 0.9465 0.50297 0.0
N3411 N 0.22039 0.86904 0.49578 0.0
H3412 H 0.28112 0.86137 0.43353 0.0
H3413 H 0.24389 0.85272 0.44397 0.0
H3414 H 0.20246 0.87208 0.51039 0.0
H3415 H 0.2187 0.84827 0.48314 0.0
H3416 H 0.32819 0.96227 0.52116 0.0
H3417 H 0.34334 0.94277 0.4905 0.0
H3418 H 0.28751 0.98169 0.5314 0.0
H3419 H 0.25307 0.96855 0.54647 0.0
C3420 C 0.36122 0.03389 0.77665 0.0
C3421 C 0.34119 0.02542 0.75163 0.0
C3422 C 0.33006 0.97488 0.77512 0.0
C3423 C 0.3527 0.98185 0.79809 0.0
N3424 N 0.39261 0.01704 0.81848 0.0
N3425 N 0.30962 0.98586 0.72505 0.0
C3426 C 0.36893 1.0112 0.79835 0.0
C3427 C 0.32636 0.99539 0.75044 0.0
N3428 N 0.37204 0.06396 0.78038 0.0
N3429 N 0.31136 0.9489 0.77737 0.0
H3430 H 0.30662 0.99989 0.70641 0.0
H3431 H 0.30101 0.96317 0.72119 0.0
H3432 H 0.31298 0.93379 0.79535 0.0
H3433 H 0.29239 0.94399 0.7633 0.0
H3434 H 0.38406 0.07246 0.79977 0.0
H3435 H 0.36688 0.08107 0.76515 0.0
H3436 H 0.40767 0.0363 0.81741 0.0
H3437 H 0.39853 1.00152 0.83502 0.0
C3438 C 0.2816 0.12102 0.97497 0.0
C3439 C 0.27467 0.15221 0.96984 0.0
C3440 C 0.32016 0.16966 1.00056 0.0
C3441 C 0.32378 0.13888 1.01017 0.0
N3442 N 0.30858 0.08481 1.00568 0.0
N3443 N 0.28791 0.20655 0.97697 0.0
C3444 C 0.30505 0.11434 0.99657 0.0
C3445 C 0.29456 0.1766 0.9819 0.0
N3446 N 0.26552 0.09781 0.95908 0.0
N3447 N 0.34136 0.19232 1.00962 0.0
H3448 H 0.27023 0.21226 0.96248 0.0
H3449 H 0.29895 0.22566 0.98805 0.0
H3450 H 0.36018 0.18763 0.02295 0.0
H3451 H 0.3419 0.21483 1.00183 0.0
H3452 H 0.27041 0.07458 0.95969 0.0
H3453 H 0.24882 0.10236 0.94295 0.0
H3454 H 0.29367 0.06611 0.9997 0.0
H3455 H 0.32616 0.07927 0.02039 0.0
C3456 C 0.76448 0.43794 1.00194 0.0
C3457 C 0.75679 0.41552 0.02406 0.0
C3458 C 0.78619 0.37759 0.995 0.0
C3459 C 0.79805 0.40134 0.9764 0.0
N3460 N 0.79675 0.45351 0.95976 0.0
N3461 N 0.75968 0.36297 0.04075 0.0
C3462 C 0.7862 0.43124 0.97887 0.0
C3463 C 0.76712 0.38492 0.01997 0.0
N3464 N 0.75141 0.46581 1.00334 0.0
N3465 N 0.79336 0.3478 0.98859 0.0
H3466 H 0.74461 0.36651 0.05824 0.0
H3467 H 0.76941 0.34167 0.04171 0.0
H3468 H 0.80712 0.34212 0.97043 0.0
H3469 H 0.78364 0.32855 0.99909 0.0
H3470 H 0.75398 0.48256 0.98692 0.0
H3471 H 0.73617 0.47142 0.02017 0.0
H3472 H 0.79227 0.47681 0.96196 0.0
H3473 H 0.81064 0.44837 0.94157 0.0
C3474 C 0.88092 0.49394 0.24476 0.0
C3475 C 0.85698 0.51437 0.24516 0.0
C3476 C 0.83429 0.48617 0.28819 0.0
C3477 C 0.85812 0.46536 0.28764 0.0
N3478 N 0.90153 0.44649 0.26116 0.0
N3479 N 0.80801 0.52672 0.26286 0.0
C3480 C 0.88045 0.46823 0.26451 0.0
C3481 C 0.83283 0.50945 0.26565 0.0
N3482 N 0.90536 0.50022 0.22691 0.0
N3483 N 0.81297 0.48368 0.31022 0.0
H3484 H 0.80618 0.54333 0.24621 0.0
H3485 H 0.78824 0.52293 0.27494 0.0
H3486 H 0.81178 0.46567 0.3255 0.0
H3487 H 0.79718 0.50016 0.31441 0.0
H3488 H 0.92576 0.48954 0.22916 0.0
H3489 H 0.90606 0.5175 0.21088 0.0
H3490 H 0.91496 0.44471 0.24204 0.0
H3491 H 0.90479 0.4289 0.27628 0.0
C3492 C 0.80691 0.65791 0.47328 0.0
C3493 C 0.77737 0.64297 0.47452 0.0
C3494 C 0.79615 0.61182 0.51695 0.0
C3495 C 0.82385 0.62999 0.51914 0.0
N3496 N 0.85907 0.66357 0.49352 0.0
N3497 N 0.744 0.60578 0.49881 0.0
C3498 C 0.8303 0.651 0.49536 0.0
C3499 C 0.77229 0.61966 0.49647 0.0
N3500 N 0.81208 0.67967 0.45176 0.0
N3501 N 0.79326 0.58586 0.53378 0.0
H3502 H 0.72629 0.60956 0.48364 0.0
H3503 H 0.73749 0.59197 0.51685 0.0
H3504 H 0.81126 0.57858 0.54683 0.0
H3505 H 0.77505 0.56963 0.53173 0.0
H3506 H 0.83201 0.69328 0.45014 0.0
H3507 H 0.79579 0.68449 0.43533 0.0
H3508 H 0.86633 0.67923 0.47734 0.0
H3509 H 0.87658 0.65568 0.50687 0.0
C3510 C 0.5773 0.50286 0.80523 0.0
C3511 C 0.60214 0.50658 0.8262 0.0
C3512 C 0.62935 0.4681 0.79544 0.0
C3513 C 0.60411 0.46369 0.7749 0.0
N3514 N 0.55215 0.47374 0.76318 0.0
N3515 N 0.65083 0.48998 0.84311 0.0
C3516 C 0.57763 0.48028 0.78073 0.0
C3517 C 0.62765 0.48809 0.82199 0.0
N3518 N 0.5532 0.52108 0.80858 0.0
N3519 N 0.65596 0.45522 0.78842 0.0
H3520 H 0.65302 0.5069 0.86045 0.0
H3521 H 0.6674 0.47386 0.84425 0.0
H3522 H 0.65833 0.44015 0.76982 0.0
H3523 H 0.67643 0.461 0.79979 0.0
H3524 H 0.53663 0.52333 0.79176 0.0
H3525 H 0.55031 0.53533 0.82772 0.0
H3526 H 0.53099 0.48169 0.76812 0.0
H3527 H 0.55144 0.45816 0.74477 0.0
C3528 C 1.00539 0.74531 0.94401 0.0
C3529 C 0.99391 0.72643 0.91888 0.0
C3530 C 0.03016 0.75433 0.88555 0.0
C3531 C 0.03981 0.77484 0.91021 0.0
N3532 N 0.04407 0.78303 0.9644 0.0
N3533 N 1.00344 0.70563 0.86908 0.0
C3534 C 0.02983 0.76792 0.93997 0.0
C3535 C 1.00904 0.72857 0.89069 0.0
N3536 N 0.99204 0.74231 0.97162 0.0
N3537 N 0.04005 0.7603 0.85694 0.0
H3538 H 0.98997 0.68584 0.8737 0.0
H3539 H 0.01474 0.70441 0.84853 0.0
H3540 H 0.05643 0.77786 0.85289 0.0
H3541 H 0.03128 0.7487 0.83733 0.0
H3542 H 0.99631 0.75767 0.99009 0.0
H3543 H 0.97585 0.72454 0.9756 0.0
H3544 H 0.03967 0.77801 0.987 0.0
H3545 H 0.06272 0.79844 0.96175 0.0
C3546 C 0.98704 0.26477 0.64763 0.0
C3547 C 0.98724 0.29487 0.66136 0.0
C3548 C 0.03573 0.28458 0.68723 0.0
C3549 C 0.03367 0.25323 0.67584 0.0
N3550 N 1.00098 0.21203 0.65219 0.0
N3551 N 1.00995 0.33197 0.69802 0.0
C3552 C 1.00743 0.24285 0.65823 0.0
C3553 C 0.01121 0.30448 0.68212 0.0
N3554 N 0.96771 0.25723 0.62357 0.0
N3555 N 0.06107 0.29534 0.70328 0.0
H3556 H 0.9928 0.34714 0.69445 0.0
H3557 H 0.0247 0.3388 0.71604 0.0
H3558 H 0.078 0.28093 0.70994 0.0
H3559 H 0.06581 0.31865 0.70896 0.0
H3560 H 0.96863 0.23682 0.61049 0.0
H3561 H 0.95328 0.27302 0.61446 0.0
H3562 H 0.98081 0.20347 0.64168 0.0
H3563 H 0.01338 0.19458 0.66103 0.0
C3564 C 0.5073 0.22265 0.37517 0.0
C3565 C 0.49173 0.21998 0.40311 0.0
C3566 C 0.5254 0.26224 0.42587 0.0
C3567 C 0.53896 0.26707 0.39704 0.0
N3568 N 0.54754 0.24813 0.34607 0.0
N3569 N 0.48993 0.23195 0.45669 0.0
C3570 C 0.53162 0.24578 0.37235 0.0
C3571 C 0.5023 0.23805 0.42904 0.0
N3572 N 0.49785 0.20369 0.35102 0.0
N3573 N 0.53428 0.2815 0.45005 0.0
H3574 H 0.47339 0.21418 0.45939 0.0
H3575 H 0.49714 0.24271 0.47725 0.0
H3576 H 0.55273 0.29746 0.44913 0.0
H3577 H 0.52352 0.28213 0.47089 0.0
H3578 H 0.50545 0.20591 0.32888 0.0
H3579 H 0.48182 0.18539 0.35336 0.0
H3580 H 0.54507 0.23247 0.32766 0.0
H3581 H 0.56484 0.26504 0.34325 0.0
C3582 C 0.54001 0.7707 0.14963 0.0
C3583 C 0.53808 0.75274 0.17634 0.0
C3584 C 0.49282 0.78012 0.19085 0.0
C3585 C 0.4921 0.79473 0.1622 0.0
N3586 N 0.51437 0.80245 0.11322 0.0
N3587 N 0.50986 0.73762 0.22041 0.0
C3588 C 0.51573 0.78986 0.14137 0.0
C3589 C 0.5138 0.75688 0.19648 0.0
N3590 N 0.56544 0.77007 0.13257 0.0
N3591 N 0.4738 0.78915 0.21318 0.0
H3592 H 0.52446 0.72022 0.22529 0.0
H3593 H 0.49065 0.737 0.23375 0.0
H3594 H 0.45894 0.8068 0.21028 0.0
H3595 H 0.47505 0.78166 0.2355 0.0
H3596 H 0.5698 0.78476 0.1146 0.0
H3597 H 0.58347 0.75657 0.1381 0.0
H3598 H 0.52885 0.79707 0.09567 0.0
H3599 H 0.4975 0.81702 0.10684 0.0
C3600 C 0.87916 0.05883 0.71961 0.0
C3601 C 0.90549 0.07436 0.73307 0.0
C3602 C 0.93715 0.04446 0.69821 0.0
C3603 C 0.91106 0.02696 0.68677 0.0
N3604 N 0.85716 0.02229 0.68059 0.0
N3605 N 0.95849 0.08801 0.72976 0.0
C3606 C 0.882 0.03606 0.69539 0.0
C3607 C 0.93413 0.06921 0.72029 0.0
N3608 N 0.8516 0.06454 0.73133 0.0
N3609 N 0.96498 0.0361 0.68918 0.0
H3610 H 0.95655 0.10622 0.74563 0.0
H3611 H 0.97981 0.08741 0.72029 0.0
H3612 H 0.96761 0.0193 0.67203 0.0
H3613 H 0.98531 0.04498 0.69903 0.0
H3614 H 0.83162 0.05195 0.72525 0.0
H3615 H 0.84892 0.08175 0.74805 0.0
H3616 H 0.83515 0.02873 0.68387 0.0
H3617 H 0.85906 1.0058 0.66297 0.0
C3618 C 0.77684 0.16227 0.53574 0.0
C3619 C 0.78033 0.13596 0.51615 0.0
C3620 C 0.73483 0.11068 0.53783 0.0
C3621 C 0.73076 0.13712 0.55732 0.0
N3622 N 0.75156 0.18549 0.57904 0.0
N3623 N 0.76781 0.08209 0.50499 0.0
C3624 C 0.75327 0.1619 0.5579 0.0
C3625 C 0.7612 0.10908 0.51969 0.0
N3626 N 0.79536 0.18814 0.53216 0.0
N3627 N 0.71237 0.08783 0.53491 0.0
H3628 H 0.78666 0.08036 0.49132 0.0
H3629 H 0.75651 0.06085 0.50878 0.0
H3630 H 0.69276 0.08804 0.54744 0.0
H3631 H 0.71202 0.07004 0.51839 0.0
H3632 H 0.79219 0.20947 0.54285 0.0
H3633 H 0.81352 0.18841 0.51733 0.0
H3634 H 0.76828 0.20315 0.58249 0.0
H3635 H 0.73436 0.186 0.59492 0.0
C3636 C 0.69989 1.01475 0.20471 0.0
C3637 C 0.67095 0.02155 0.1928 0.0
C3638 C 0.64872 0.97692 0.22055 0.0
C3639 C 0.67659 0.97391 0.23656 0.0
N3640 N 0.72926 0.98919 0.24325 0.0
N3641 N 0.61764 1.00818 0.18829 0.0
C3642 C 0.70248 0.9922 0.22791 0.0
C3643 C 0.6454 1.00184 0.19987 0.0
N3644 N 0.72496 0.03011 0.1937 0.0
N3645 N 0.62528 0.95603 0.22569 0.0
H3646 H 0.61473 0.02542 0.17252 0.0
H3647 H 0.59742 0.99729 0.19498 0.0
H3648 H 0.62746 0.93789 0.24065 0.0
H3649 H 0.60485 0.95494 0.21351 0.0
H3650 H 0.74702 0.02494 0.19929 0.0
H3651 H 0.72355 0.04636 0.17664 0.0
H3652 H 0.74822 1.00421 0.24119 0.0
H3653 H 0.73206 0.97198 0.2591 0.0
C3654 C 0.70574 0.91259 0.02295 0.0
C3655 C 0.68916 0.88436 0.0151 0.0
C3656 C 0.72059 0.85705 0.05173 0.0
C3657 C 0.73818 0.88498 0.05837 0.0
N3658 N 0.74287 0.94049 0.05667 0.0
N3659 N 0.67543 0.83185 0.02752 0.0
C3660 C 0.72908 0.91315 0.04606 0.0
C3661 C 0.69483 0.85733 0.0315 0.0
N3662 N 0.70031 0.93849 1.00707 0.0
N3663 N 0.72962 0.82989 0.06311 0.0
H3664 H 0.65654 0.83167 0.01297 0.0
H3665 H 0.67631 0.81216 0.04052 0.0
H3666 H 0.74772 0.82887 0.07853 0.0
H3667 H 0.72024 0.80817 0.05621 0.0
H3668 H 0.71402 0.95881 1.00861 0.0
H3669 H 0.68253 0.93919 0.99122 0.0
H3670 H 0.73589 0.96216 0.05081 0.0
H3671 H 0.75975 0.94145 0.07366 0.0
C3672 C 0.28039 0.66794 0.03145 0.0
C3673 C 0.28445 0.63976 0.01506 0.0
C3674 C 0.2481 0.61291 0.04819 0.0
C3675 C 0.23986 0.64192 0.06039 0.0
N3676 N 0.24881 0.69716 0.06535 0.0
N3677 N 0.27375 0.58488 1.00838 0.0
C3678 C 0.25674 0.66944 0.0531 0.0
C3679 C 0.26922 0.61193 0.02407 0.0
N3680 N 0.29901 0.69326 0.02588 0.0
N3681 N 0.23529 0.58636 0.05963 0.0
H3682 H 0.29006 0.58326 0.99165 0.0
H3683 H 0.26077 0.56439 1.01101 0.0
H3684 H 0.21997 0.58674 0.07739 0.0
H3685 H 0.24163 0.56423 0.05361 0.0
H3686 H 0.29907 0.71405 0.03841 0.0
H3687 H 0.31636 0.69243 1.01021 0.0
H3688 H 0.25761 0.71857 0.05845 0.0
H3689 H 0.23237 0.69875 0.08194 0.0
C3690 C 0.18742 0.50748 0.70517 0.0
C3691 C 0.15937 0.52108 0.69936 0.0
C3692 C 0.13544 0.48508 0.73595 0.0
C3693 C 0.16428 0.47553 0.7456 0.0
N3694 N 0.21789 0.47648 0.7384 0.0
N3695 N 0.10621 0.52222 0.70884 0.0
C3696 C 0.19025 0.48589 0.7294 0.0
C3697 C 0.13313 0.50917 0.71422 0.0
N3698 N 0.21143 0.51558 0.68749 0.0
N3699 N 0.11014 0.47095 0.74783 0.0
H3700 H 0.10355 0.53864 0.69218 0.0
H3701 H 0.08692 0.51782 0.72152 0.0
H3702 H 0.11135 0.45318 0.76334 0.0
H3703 H 0.08821 0.47466 0.74043 0.0
H3704 H 0.23206 0.5052 0.68844 0.0
H3705 H 0.20967 0.53112 0.66984 0.0
H3706 H 0.23833 0.48552 0.73026 0.0
H3707 H 0.22039 0.46003 0.75506 0.0
C3708 C 0.2447 0.37321 0.53121 0.0
C3709 C 0.23839 0.37568 0.5628 0.0
C3710 C 0.18406 0.37843 0.54808 0.0
C3711 C 0.19167 0.38012 0.51668 0.0
N3712 N 0.23159 0.38995 0.48098 0.0
N3713 N 0.20147 0.38483 0.60121 0.0
C3714 C 0.22272 0.38092 0.50917 0.0
C3715 C 0.20781 0.37942 0.5713 0.0
N3716 N 0.27142 0.36213 0.52189 0.0
N3717 N 0.15442 0.37493 0.55575 0.0
H3718 H 0.21807 0.38549 0.61844 0.0
H3719 H 0.18027 0.39078 0.60853 0.0
H3720 H 0.13685 0.37453 0.53954 0.0
H3721 H 0.14747 0.37039 0.5778 0.0
H3722 H 0.27597 0.35769 0.49899 0.0
H3723 H 0.28719 0.3536 0.53703 0.0
H3724 H 0.25428 0.39319 0.4753 0.0
H3725 H 0.21651 0.39791 0.46478 0.0
C3726 C 0.38722 0.56911 0.2139 0.0
C3727 C 0.41384 0.5842 0.22724 0.0
C3728 C 0.44465 0.55119 0.19407 0.0
C3729 C 0.41811 0.53494 0.18193 0.0
N3730 N 0.36438 0.53405 0.17414 0.0
N3731 N 0.46717 0.59563 0.22349 0.0
C3732 C 0.38948 0.54597 0.18982 0.0
C3733 C 0.44229 0.57718 0.21496 0.0
N3734 N 0.35981 0.57558 0.22551 0.0
N3735 N 0.47224 0.54064 0.18697 0.0
H3736 H 0.46561 0.61511 0.23782 0.0
H3737 H 0.48841 0.59367 0.21409 0.0
H3738 H 0.47472 0.52281 0.17085 0.0
H3739 H 0.4924 0.54855 0.19786 0.0
H3740 H 0.3397 0.56306 0.21967 0.0
H3741 H 0.35746 0.59299 0.2421 0.0
H3742 H 0.34289 0.54222 0.17675 0.0
H3743 H 0.36584 0.51787 0.1562 0.0
loop_
_geom_bond_atom_site_label_1
_geom_bond_atom_site_label_2
_geom_bond_distance
_geom_bond_site_symmetry_2
_ccdc_geom_bond_type
C0 C1 1.351 . S
C0 N3 1.368 . S
C0 H5 0.931 . S
C1 C0 1.351 . S
C1 N2 1.373 . S
C1 H29 0.930 . S
N2 C1 1.373 . S
N2 C4 1.340 . S
N3 C0 1.368 . S
N3 C4 1.321 . S
N3 Co6 2.135 . S
C4 N2 1.340 . S
C4 N3 1.321 . S
C4 H28 0.930 . S
H5 C0 0.931 . S
Co6 N3 2.135 . S
Co6 N9 2.121 . S
Co6 O14 2.055 . S
Co6 O17 2.039 . S
Co6 N20 2.140 . S
C7 O8 1.227 . S
C7 O17 1.265 . S
O8 C7 1.227 . S
N9 Co6 2.121 . S
N9 C11 1.375 . S
N9 C12 1.313 . S
C10 C11 1.338 . S
C10 N13 1.377 . S
C10 H30 0.930 . S
C11 N9 1.375 . S
C11 C10 1.338 . S
C11 H15 0.931 . S
C12 N9 1.313 . S
C12 N13 1.344 . S
C12 H16 0.930 . S
N13 C10 1.377 . S
N13 C12 1.344 . S
O14 Co6 2.055 . S
O14 C18 1.253 . S
H15 C11 0.931 . S
H16 C12 0.930 . S
O17 Co6 2.039 . S
O17 C7 1.265 . S
C18 O14 1.253 . S
C18 O19 1.227 . S
O19 C18 1.227 . S
N20 Co6 2.140 . S
N20 C23 1.346 . S
N20 C24 1.345 . S
C21 C22 1.387 . S
C21 C25 1.391 . S
C22 C21 1.387 . S
C22 C23 1.369 . S
C22 H31 0.929 . S
C23 N20 1.346 . S
C23 C22 1.369 . S
C23 H26 0.928 . S
C24 N20 1.345 . S
C24 C25 1.371 . S
C24 H27 0.931 . S
C25 C21 1.391 . S
C25 C24 1.371 . S
C25 H32 0.930 . S
H26 C23 0.928 . S
H27 C24 0.931 . S
H28 C4 0.930 . S
H29 C1 0.930 . S
H30 C10 0.930 . S
H31 C22 0.929 . S
H32 C25 0.930 . S
C33 C34 1.351 . S
C33 N36 1.368 . S
C33 H38 0.931 . S
C34 C33 1.351 . S
C34 N35 1.373 . S
C34 H62 0.930 . S
N35 C34 1.373 . S
N35 C37 1.340 . S
N36 C33 1.368 . S
N36 C37 1.321 . S
N36 Co39 2.135 . S
C37 N35 1.340 . S
C37 N36 1.321 . S
C37 H61 0.930 . S
H38 C33 0.931 . S
Co39 N36 2.135 . S
Co39 N42 2.121 . S
Co39 O47 2.055 . S
Co39 O50 2.039 . S
Co39 N53 2.140 . S
C40 O41 1.227 . S
C40 O50 1.265 . S
O41 C40 1.227 . S
N42 Co39 2.121 . S
N42 C44 1.375 . S
N42 C45 1.313 . S
C43 C44 1.338 . S
C43 N46 1.377 . S
C43 H63 0.930 . S
C44 N42 1.375 . S
C44 C43 1.338 . S
C44 H48 0.931 . S
C45 N42 1.313 . S
C45 N46 1.344 . S
C45 H49 0.930 . S
N46 C43 1.377 . S
N46 C45 1.344 . S
O47 Co39 2.055 . S
O47 C51 1.253 . S
H48 C44 0.931 . S
H49 C45 0.930 . S
O50 Co39 2.039 . S
O50 C40 1.265 . S
C51 O47 1.253 . S
C51 O52 1.227 . S
O52 C51 1.227 . S
N53 Co39 2.140 . S
N53 C56 1.346 . S
N53 C57 1.345 . S
C54 C55 1.387 . S
C54 C58 1.391 . S
C55 C54 1.387 . S
C55 C56 1.369 . S
C55 H64 0.929 . S
C56 N53 1.346 . S
C56 C55 1.369 . S
C56 H59 0.928 . S
C57 N53 1.345 . S
C57 C58 1.371 . S
C57 H60 0.931 . S
C58 C54 1.391 . S
C58 C57 1.371 . S
C58 H65 0.930 . S
H59 C56 0.928 . S
H60 C57 0.931 . S
H61 C37 0.930 . S
H62 C34 0.930 . S
H63 C43 0.930 . S
H64 C55 0.929 . S
H65 C58 0.930 . S
C66 C67 1.351 . S
C66 N69 1.368 . S
C66 H71 0.931 . S
C67 C66 1.351 . S
C67 N68 1.373 . S
C67 H95 0.930 . S
N68 C67 1.373 . S
N68 C70 1.340 . S
N69 C66 1.368 . S
N69 C70 1.321 . S
N69 Co72 2.135 . S
C70 N68 1.340 . S
C70 N69 1.321 . S
C70 H94 0.930 . S
H71 C66 0.931 . S
Co72 N69 2.135 . S
Co72 N75 2.121 . S
Co72 O80 2.055 . S
Co72 O83 2.039 . S
Co72 N86 2.140 . S
C73 O74 1.227 . S
C73 O83 1.265 . S
O74 C73 1.227 . S
N75 Co72 2.121 . S
N75 C77 1.375 . S
N75 C78 1.313 . S
C76 C77 1.338 . S
C76 N79 1.377 . S
C76 H96 0.930 . S
C77 N75 1.375 . S
C77 C76 1.338 . S
C77 H81 0.931 . S
C78 N75 1.313 . S
C78 N79 1.344 . S
C78 H82 0.930 . S
N79 C76 1.377 . S
N79 C78 1.344 . S
O80 Co72 2.055 . S
O80 C84 1.253 . S
H81 C77 0.931 . S
H82 C78 0.930 . S
O83 Co72 2.039 . S
O83 C73 1.265 . S
C84 O80 1.253 . S
C84 O85 1.227 . S
O85 C84 1.227 . S
N86 Co72 2.140 . S
N86 C89 1.346 . S
N86 C90 1.345 . S
C87 C88 1.387 . S
C87 C91 1.391 . S
C88 C87 1.387 . S
C88 C89 1.369 . S
C88 H97 0.929 . S
C89 N86 1.346 . S
C89 C88 1.369 . S
C89 H92 0.928 . S
C90 N86 1.345 . S
C90 C91 1.371 . S
C90 H93 0.931 . S
C91 C87 1.391 . S
C91 C90 1.371 . S
C91 H98 0.930 . S
H92 C89 0.928 . S
H93 C90 0.931 . S
H94 C70 0.930 . S
H95 C67 0.930 . S
H96 C76 0.930 . S
H97 C88 0.929 . S
H98 C91 0.930 . S
C99 C100 1.351 . S
C99 N102 1.368 . S
C99 H104 0.931 . S
C100 C99 1.351 . S
C100 N101 1.373 . S
C100 H128 0.930 . S
N101 C100 1.373 . S
N101 C103 1.340 . S
N102 C99 1.368 . S
N102 C103 1.321 . S
N102 Co105 2.135 . S
C103 N101 1.340 . S
C103 N102 1.321 . S
C103 H127 0.930 . S
H104 C99 0.931 . S
Co105 N102 2.135 . S
Co105 N108 2.121 . S
Co105 O113 2.055 . S
Co105 O116 2.039 . S
Co105 N119 2.140 . S
C106 O107 1.227 . S
C106 O116 1.265 . S
O107 C106 1.227 . S
N108 Co105 2.121 . S
N108 C110 1.375 . S
N108 C111 1.313 . S
C109 C110 1.338 . S
C109 N112 1.377 . S
C109 H129 0.930 . S
C110 N108 1.375 . S
C110 C109 1.338 . S
C110 H114 0.931 . S
C111 N108 1.313 . S
C111 N112 1.344 . S
C111 H115 0.930 . S
N112 C109 1.377 . S
N112 C111 1.344 . S
O113 Co105 2.055 . S
O113 C117 1.253 . S
H114 C110 0.931 . S
H115 C111 0.930 . S
O116 Co105 2.039 . S
O116 C106 1.265 . S
C117 O113 1.253 . S
C117 O118 1.227 . S
O118 C117 1.227 . S
N119 Co105 2.140 . S
N119 C122 1.346 . S
N119 C123 1.345 . S
C120 C121 1.387 . S
C120 C124 1.391 . S
C121 C120 1.387 . S
C121 C122 1.369 . S
C121 H130 0.929 . S
C122 N119 1.346 . S
C122 C121 1.369 . S
C122 H125 0.928 . S
C123 N119 1.345 . S
C123 C124 1.371 . S
C123 H126 0.931 . S
C124 C120 1.391 . S
C124 C123 1.371 . S
C124 H131 0.930 . S
H125 C122 0.928 . S
H126 C123 0.931 . S
H127 C103 0.930 . S
H128 C100 0.930 . S
H129 C109 0.930 . S
H130 C121 0.929 . S
H131 C124 0.930 . S
C132 C133 1.351 . S
C132 N135 1.368 . S
C132 H137 0.931 . S
C133 C132 1.351 . S
C133 N134 1.373 . S
C133 H161 0.930 . S
N134 C133 1.373 . S
N134 C136 1.340 . S
N135 C132 1.368 . S
N135 C136 1.321 . S
N135 Co138 2.135 . S
C136 N134 1.340 . S
C136 N135 1.321 . S
C136 H160 0.930 . S
H137 C132 0.931 . S
Co138 N135 2.135 . S
Co138 N141 2.121 . S
Co138 O146 2.055 . S
Co138 O149 2.039 . S
Co138 N152 2.140 . S
C139 O140 1.227 . S
C139 O149 1.265 . S
O140 C139 1.227 . S
N141 Co138 2.121 . S
N141 C143 1.375 . S
N141 C144 1.313 . S
C142 C143 1.338 . S
C142 N145 1.377 . S
C142 H162 0.930 . S
C143 N141 1.375 . S
C143 C142 1.338 . S
C143 H147 0.931 . S
C144 N141 1.313 . S
C144 N145 1.344 . S
C144 H148 0.930 . S
N145 C142 1.377 . S
N145 C144 1.344 . S
O146 Co138 2.055 . S
O146 C150 1.253 . S
H147 C143 0.931 . S
H148 C144 0.930 . S
O149 Co138 2.039 . S
O149 C139 1.265 . S
C150 O146 1.253 . S
C150 O151 1.227 . S
O151 C150 1.227 . S
N152 Co138 2.140 . S
N152 C155 1.346 . S
N152 C156 1.345 . S
C153 C154 1.387 . S
C153 C157 1.391 . S
C154 C153 1.387 . S
C154 C155 1.369 . S
C154 H163 0.929 . S
C155 N152 1.346 . S
C155 C154 1.369 . S
C155 H158 0.928 . S
C156 N152 1.345 . S
C156 C157 1.371 . S
C156 H159 0.931 . S
C157 C153 1.391 . S
C157 C156 1.371 . S
C157 H164 0.930 . S
H158 C155 0.928 . S
H159 C156 0.931 . S
H160 C136 0.930 . S
H161 C133 0.930 . S
H162 C142 0.930 . S
H163 C154 0.929 . S
H164 C157 0.930 . S
C165 C166 1.351 . S
C165 N168 1.368 . S
C165 H170 0.931 . S
C166 C165 1.351 . S
C166 N167 1.373 . S
C166 H194 0.930 . S
N167 C166 1.373 . S
N167 C169 1.340 . S
N168 C165 1.368 . S
N168 C169 1.321 . S
N168 Co171 2.135 . S
C169 N167 1.340 . S
C169 N168 1.321 . S
C169 H193 0.930 . S
H170 C165 0.931 . S
Co171 N168 2.135 . S
Co171 N174 2.121 . S
Co171 O179 2.055 . S
Co171 O182 2.039 . S
Co171 N185 2.140 . S
C172 O173 1.227 . S
C172 O182 1.265 . S
O173 C172 1.227 . S
N174 Co171 2.121 . S
N174 C176 1.375 . S
N174 C177 1.313 . S
C175 C176 1.338 . S
C175 N178 1.377 . S
C175 H195 0.930 . S
C176 N174 1.375 . S
C176 C175 1.338 . S
C176 H180 0.931 . S
C177 N174 1.313 . S
C177 N178 1.344 . S
C177 H181 0.930 . S
N178 C175 1.377 . S
N178 C177 1.344 . S
O179 Co171 2.055 . S
O179 C183 1.253 . S
H180 C176 0.931 . S
H181 C177 0.930 . S
O182 Co171 2.039 . S
O182 C172 1.265 . S
C183 O179 1.253 . S
C183 O184 1.227 . S
O184 C183 1.227 . S
N185 Co171 2.140 . S
N185 C188 1.346 . S
N185 C189 1.345 . S
C186 C187 1.387 . S
C186 C190 1.391 . S
C187 C186 1.387 . S
C187 C188 1.369 . S
C187 H196 0.929 . S
C188 N185 1.346 . S
C188 C187 1.369 . S
C188 H191 0.928 . S
C189 N185 1.345 . S
C189 C190 1.371 . S
C189 H192 0.931 . S
C190 C186 1.391 . S
C190 C189 1.371 . S
C190 H197 0.930 . S
H191 C188 0.928 . S
H192 C189 0.931 . S
H193 C169 0.930 . S
H194 C166 0.930 . S
H195 C175 0.930 . S
H196 C187 0.929 . S
H197 C190 0.930 . S
C198 C199 1.351 . S
C198 N201 1.368 . S
C198 H203 0.931 . S
C199 C198 1.351 . S
C199 N200 1.373 . S
C199 H227 0.930 . S
N200 C199 1.373 . S
N200 C202 1.340 . S
N201 C198 1.368 . S
N201 C202 1.321 . S
N201 Co204 2.135 . S
C202 N200 1.340 . S
C202 N201 1.321 . S
C202 H226 0.930 . S
H203 C198 0.931 . S
Co204 N201 2.135 . S
Co204 N207 2.121 . S
Co204 O212 2.055 . S
Co204 O215 2.039 . S
Co204 N218 2.140 . S
C205 O206 1.227 . S
C205 O215 1.265 . S
O206 C205 1.227 . S
N207 Co204 2.121 . S
N207 C209 1.375 . S
N207 C210 1.313 . S
C208 C209 1.338 . S
C208 N211 1.377 . S
C208 H228 0.930 . S
C209 N207 1.375 . S
C209 C208 1.338 . S
C209 H213 0.931 . S
C210 N207 1.313 . S
C210 N211 1.344 . S
C210 H214 0.930 . S
N211 C208 1.377 . S
N211 C210 1.344 . S
O212 Co204 2.055 . S
O212 C216 1.253 . S
H213 C209 0.931 . S
H214 C210 0.930 . S
O215 Co204 2.039 . S
O215 C205 1.265 . S
C216 O212 1.253 . S
C216 O217 1.227 . S
O217 C216 1.227 . S
N218 Co204 2.140 . S
N218 C221 1.346 . S
N218 C222 1.345 . S
C219 C220 1.387 . S
C219 C223 1.391 . S
C220 C219 1.387 . S
C220 C221 1.369 . S
C220 H229 0.929 . S
C221 N218 1.346 . S
C221 C220 1.369 . S
C221 H224 0.928 . S
C222 N218 1.345 . S
C222 C223 1.371 . S
C222 H225 0.931 . S
C223 C219 1.391 . S
C223 C222 1.371 . S
C223 H230 0.930 . S
H224 C221 0.928 . S
H225 C222 0.931 . S
H226 C202 0.930 . S
H227 C199 0.930 . S
H228 C208 0.930 . S
H229 C220 0.929 . S
H230 C223 0.930 . S
C231 C232 1.351 . S
C231 N234 1.368 . S
C231 H236 0.931 . S
C232 C231 1.351 . S
C232 N233 1.373 . S
C232 H260 0.930 . S
N233 C232 1.373 . S
N233 C235 1.340 . S
N234 C231 1.368 . S
N234 C235 1.321 . S
N234 Co237 2.135 . S
C235 N233 1.340 . S
C235 N234 1.321 . S
C235 H259 0.930 . S
H236 C231 0.931 . S
Co237 N234 2.135 . S
Co237 N240 2.121 . S
Co237 O245 2.055 . S
Co237 O248 2.039 . S
Co237 N251 2.140 . S
C238 O239 1.227 . S
C238 O248 1.265 . S
O239 C238 1.227 . S
N240 Co237 2.121 . S
N240 C242 1.375 . S
N240 C243 1.313 . S
C241 C242 1.338 . S
C241 N244 1.377 . S
C241 H261 0.930 . S
C242 N240 1.375 . S
C242 C241 1.338 . S
C242 H246 0.931 . S
C243 N240 1.313 . S
C243 N244 1.344 . S
C243 H247 0.930 . S
N244 C241 1.377 . S
N244 C243 1.344 . S
O245 Co237 2.055 . S
O245 C249 1.253 . S
H246 C242 0.931 . S
H247 C243 0.930 . S
O248 Co237 2.039 . S
O248 C238 1.265 . S
C249 O245 1.253 . S
C249 O250 1.227 . S
O250 C249 1.227 . S
N251 Co237 2.140 . S
N251 C254 1.346 . S
N251 C255 1.345 . S
C252 C253 1.387 . S
C252 C256 1.391 . S
C253 C252 1.387 . S
C253 C254 1.369 . S
C253 H262 0.929 . S
C254 N251 1.346 . S
C254 C253 1.369 . S
C254 H257 0.928 . S
C255 N251 1.345 . S
C255 C256 1.371 . S
C255 H258 0.931 . S
C256 C252 1.391 . S
C256 C255 1.371 . S
C256 H263 0.930 . S
H257 C254 0.928 . S
H258 C255 0.931 . S
H259 C235 0.930 . S
H260 C232 0.930 . S
H261 C241 0.930 . S
H262 C253 0.929 . S
H263 C256 0.930 . S
C264 C265 1.351 . S
C264 N267 1.368 . S
C264 H269 0.931 . S
C265 C264 1.351 . S
C265 N266 1.373 . S
C265 H293 0.930 . S
N266 C265 1.373 . S
N266 C268 1.340 . S
N267 C264 1.368 . S
N267 C268 1.321 . S
N267 Co270 2.135 . S
C268 N266 1.340 . S
C268 N267 1.321 . S
C268 H292 0.930 . S
H269 C264 0.931 . S
Co270 N267 2.135 . S
Co270 N273 2.121 . S
Co270 O278 2.055 . S
Co270 O281 2.039 . S
Co270 N284 2.140 . S
C271 O272 1.227 . S
C271 O281 1.265 . S
O272 C271 1.227 . S
N273 Co270 2.121 . S
N273 C275 1.375 . S
N273 C276 1.313 . S
C274 C275 1.338 . S
C274 N277 1.377 1_455 S
C274 H294 0.930 1_455 S
C275 N273 1.375 . S
C275 C274 1.338 . S
C275 H279 0.931 . S
C276 N273 1.313 . S
C276 N277 1.344 1_455 S
C276 H280 0.930 . S
N277 C274 1.377 1_655 S
N277 C276 1.344 1_655 S
O278 Co270 2.055 . S
O278 C282 1.253 . S
H279 C275 0.931 . S
H280 C276 0.930 . S
O281 Co270 2.039 . S
O281 C271 1.265 . S
C282 O278 1.253 . S
C282 O283 1.227 . S
O283 C282 1.227 . S
N284 Co270 2.140 . S
N284 C287 1.346 . S
N284 C288 1.345 . S
C285 C286 1.387 . S
C285 C289 1.391 . S
C286 C285 1.387 . S
C286 C287 1.369 . S
C286 H295 0.929 . S
C287 N284 1.346 . S
C287 C286 1.369 . S
C287 H290 0.928 . S
C288 N284 1.345 . S
C288 C289 1.371 . S
C288 H291 0.931 . S
C289 C285 1.391 . S
C289 C288 1.371 . S
C289 H296 0.930 . S
H290 C287 0.928 . S
H291 C288 0.931 . S
H292 C268 0.930 . S
H293 C265 0.930 . S
H294 C274 0.930 1_655 S
H295 C286 0.929 . S
H296 C289 0.930 . S
C297 C298 1.351 . S
C297 N300 1.368 . S
C297 H302 0.931 . S
C298 C297 1.351 . S
C298 N299 1.373 . S
C298 H326 0.930 1_565 S
N299 C298 1.373 . S
N299 C301 1.340 . S
N300 C297 1.368 . S
N300 C301 1.321 . S
N300 Co303 2.135 . S
C301 N299 1.340 . S
C301 N300 1.321 . S
C301 H325 0.930 . S
H302 C297 0.931 . S
Co303 N300 2.135 . S
Co303 N306 2.121 . S
Co303 O311 2.055 . S
Co303 O314 2.039 . S
Co303 N317 2.140 . S
C304 O305 1.227 . S
C304 O314 1.265 . S
O305 C304 1.227 . S
N306 Co303 2.121 . S
N306 C308 1.375 . S
N306 C309 1.313 . S
C307 C308 1.338 . S
C307 N310 1.377 . S
C307 H327 0.930 . S
C308 N306 1.375 . S
C308 C307 1.338 . S
C308 H312 0.931 . S
C309 N306 1.313 . S
C309 N310 1.344 . S
C309 H313 0.930 . S
N310 C307 1.377 . S
N310 C309 1.344 . S
O311 Co303 2.055 . S
O311 C315 1.253 . S
H312 C308 0.931 . S
H313 C309 0.930 . S
O314 Co303 2.039 . S
O314 C304 1.265 . S
C315 O311 1.253 . S
C315 O316 1.227 . S
O316 C315 1.227 . S
N317 Co303 2.140 . S
N317 C320 1.346 . S
N317 C321 1.345 . S
C318 C319 1.387 . S
C318 C322 1.391 . S
C319 C318 1.387 . S
C319 C320 1.369 . S
C319 H328 0.929 . S
C320 N317 1.346 . S
C320 C319 1.369 . S
C320 H323 0.928 . S
C321 N317 1.345 . S
C321 C322 1.371 . S
C321 H324 0.931 . S
C322 C318 1.391 . S
C322 C321 1.371 . S
C322 H329 0.930 . S
H323 C320 0.928 . S
H324 C321 0.931 . S
H325 C301 0.930 . S
H326 C298 0.930 1_545 S
H327 C307 0.930 . S
H328 C319 0.929 . S
H329 C322 0.930 . S
C330 C331 1.351 . S
C330 N333 1.368 . S
C330 H335 0.931 . S
C331 C330 1.351 . S
C331 N332 1.373 . S
C331 H359 0.930 . S
N332 C331 1.373 . S
N332 C334 1.340 . S
N333 C330 1.368 . S
N333 C334 1.321 . S
N333 Co336 2.135 . S
C334 N332 1.340 . S
C334 N333 1.321 . S
C334 H358 0.930 . S
H335 C330 0.931 . S
Co336 N333 2.135 . S
Co336 N339 2.121 . S
Co336 O344 2.055 . S
Co336 O347 2.039 . S
Co336 N350 2.140 . S
C337 O338 1.227 . S
C337 O347 1.265 . S
O338 C337 1.227 . S
N339 Co336 2.121 . S
N339 C341 1.375 . S
N339 C342 1.313 . S
C340 C341 1.338 . S
C340 N343 1.377 . S
C340 H360 0.930 . S
C341 N339 1.375 . S
C341 C340 1.338 . S
C341 H345 0.931 . S
C342 N339 1.313 . S
C342 N343 1.344 . S
C342 H346 0.930 . S
N343 C340 1.377 . S
N343 C342 1.344 . S
O344 Co336 2.055 . S
O344 C348 1.253 . S
H345 C341 0.931 . S
H346 C342 0.930 . S
O347 Co336 2.039 . S
O347 C337 1.265 . S
C348 O344 1.253 . S
C348 O349 1.227 . S
O349 C348 1.227 . S
N350 Co336 2.140 . S
N350 C353 1.346 . S
N350 C354 1.345 . S
C351 C352 1.387 . S
C351 C355 1.391 . S
C352 C351 1.387 . S
C352 C353 1.369 . S
C352 H361 0.929 . S
C353 N350 1.346 . S
C353 C352 1.369 . S
C353 H356 0.928 . S
C354 N350 1.345 . S
C354 C355 1.371 . S
C354 H357 0.931 . S
C355 C351 1.391 . S
C355 C354 1.371 . S
C355 H362 0.930 . S
H356 C353 0.928 . S
H357 C354 0.931 . S
H358 C334 0.930 . S
H359 C331 0.930 . S
H360 C340 0.930 . S
H361 C352 0.929 . S
H362 C355 0.930 . S
C363 C364 1.351 . S
C363 N366 1.368 . S
C363 H368 0.931 . S
C364 C363 1.351 . S
C364 N365 1.373 . S
C364 H392 0.930 . S
N365 C364 1.373 . S
N365 C367 1.340 . S
N366 C363 1.368 . S
N366 C367 1.321 . S
N366 Co369 2.135 . S
C367 N365 1.340 . S
C367 N366 1.321 . S
C367 H391 0.930 . S
H368 C363 0.931 . S
Co369 N366 2.135 . S
Co369 N372 2.121 . S
Co369 O377 2.055 . S
Co369 O380 2.039 . S
Co369 N383 2.140 . S
C370 O371 1.227 . S
C370 O380 1.265 . S
O371 C370 1.227 . S
N372 Co369 2.121 . S
N372 C374 1.375 . S
N372 C375 1.313 . S
C373 C374 1.338 . S
C373 N376 1.377 . S
C373 H393 0.930 . S
C374 N372 1.375 . S
C374 C373 1.338 . S
C374 H378 0.931 . S
C375 N372 1.313 . S
C375 N376 1.344 . S
C375 H379 0.930 . S
N376 C373 1.377 . S
N376 C375 1.344 . S
O377 Co369 2.055 . S
O377 C381 1.253 . S
H378 C374 0.931 . S
H379 C375 0.930 . S
O380 Co369 2.039 . S
O380 C370 1.265 . S
C381 O377 1.253 . S
C381 O382 1.227 . S
O382 C381 1.227 . S
N383 Co369 2.140 . S
N383 C386 1.346 . S
N383 C387 1.345 . S
C384 C385 1.387 . S
C384 C388 1.391 . S
C385 C384 1.387 . S
C385 C386 1.369 . S
C385 H394 0.929 . S
C386 N383 1.346 . S
C386 C385 1.369 . S
C386 H389 0.928 . S
C387 N383 1.345 . S
C387 C388 1.371 . S
C387 H390 0.931 . S
C388 C384 1.391 . S
C388 C387 1.371 . S
C388 H395 0.930 . S
H389 C386 0.928 . S
H390 C387 0.931 . S
H391 C367 0.930 . S
H392 C364 0.930 . S
H393 C373 0.930 . S
H394 C385 0.929 . S
H395 C388 0.930 . S
C396 C397 1.351 . S
C396 N399 1.368 . S
C396 H401 0.931 . S
C397 C396 1.351 . S
C397 N398 1.373 . S
C397 H425 0.930 . S
N398 C397 1.373 . S
N398 C400 1.340 . S
N399 C396 1.368 . S
N399 C400 1.321 . S
N399 Co402 2.135 . S
C400 N398 1.340 . S
C400 N399 1.321 . S
C400 H424 0.930 . S
H401 C396 0.931 . S
Co402 N399 2.135 . S
Co402 N405 2.121 . S
Co402 O410 2.055 . S
Co402 O413 2.039 . S
Co402 N416 2.140 . S
C403 O404 1.227 . S
C403 O413 1.265 . S
O404 C403 1.227 . S
N405 Co402 2.121 . S
N405 C407 1.375 . S
N405 C408 1.313 . S
C406 C407 1.338 . S
C406 N409 1.377 . S
C406 H426 0.930 1_455 S
C407 N405 1.375 . S
C407 C406 1.338 . S
C407 H411 0.931 . S
C408 N405 1.313 . S
C408 N409 1.344 . S
C408 H412 0.930 . S
N409 C406 1.377 . S
N409 C408 1.344 . S
O410 Co402 2.055 . S
O410 C414 1.253 . S
H411 C407 0.931 . S
H412 C408 0.930 . S
O413 Co402 2.039 . S
O413 C403 1.265 . S
C414 O410 1.253 . S
C414 O415 1.227 . S
O415 C414 1.227 . S
N416 Co402 2.140 . S
N416 C419 1.346 . S
N416 C420 1.345 . S
C417 C418 1.387 . S
C417 C421 1.391 . S
C418 C417 1.387 . S
C418 C419 1.369 . S
C418 H427 0.929 . S
C419 N416 1.346 . S
C419 C418 1.369 . S
C419 H422 0.928 . S
C420 N416 1.345 . S
C420 C421 1.371 . S
C420 H423 0.931 . S
C421 C417 1.391 . S
C421 C420 1.371 . S
C421 H428 0.930 . S
H422 C419 0.928 . S
H423 C420 0.931 . S
H424 C400 0.930 . S
H425 C397 0.930 . S
H426 C406 0.930 1_655 S
H427 C418 0.929 . S
H428 C421 0.930 . S
C429 C430 1.351 . S
C429 N432 1.368 . S
C429 H434 0.931 . S
C430 C429 1.351 . S
C430 N431 1.373 . S
C430 H458 0.930 . S
N431 C430 1.373 . S
N431 C433 1.340 . S
N432 C429 1.368 . S
N432 C433 1.321 . S
N432 Co435 2.135 . S
C433 N431 1.340 . S
C433 N432 1.321 . S
C433 H457 0.930 . S
H434 C429 0.931 . S
Co435 N432 2.135 . S
Co435 N438 2.121 . S
Co435 O443 2.055 . S
Co435 O446 2.039 . S
Co435 N449 2.140 . S
C436 O437 1.227 . S
C436 O446 1.265 . S
O437 C436 1.227 . S
N438 Co435 2.121 . S
N438 C440 1.375 . S
N438 C441 1.313 . S
C439 C440 1.338 . S
C439 N442 1.377 . S
C439 H459 0.930 . S
C440 N438 1.375 . S
C440 C439 1.338 . S
C440 H444 0.931 . S
C441 N438 1.313 . S
C441 N442 1.344 . S
C441 H445 0.930 . S
N442 C439 1.377 . S
N442 C441 1.344 . S
O443 Co435 2.055 . S
O443 C447 1.253 . S
H444 C440 0.931 . S
H445 C441 0.930 . S
O446 Co435 2.039 . S
O446 C436 1.265 . S
C447 O443 1.253 . S
C447 O448 1.227 . S
O448 C447 1.227 . S
N449 Co435 2.140 . S
N449 C452 1.346 . S
N449 C453 1.345 . S
C450 C451 1.387 . S
C450 C454 1.391 . S
C451 C450 1.387 . S
C451 C452 1.369 . S
C451 H460 0.929 . S
C452 N449 1.346 . S
C452 C451 1.369 . S
C452 H455 0.928 . S
C453 N449 1.345 . S
C453 C454 1.371 . S
C453 H456 0.931 . S
C454 C450 1.391 . S
C454 C453 1.371 . S
C454 H461 0.930 . S
H455 C452 0.928 . S
H456 C453 0.931 . S
H457 C433 0.930 . S
H458 C430 0.930 . S
H459 C439 0.930 . S
H460 C451 0.929 . S
H461 C454 0.930 . S
C462 C463 1.351 . S
C462 N465 1.368 . S
C462 H467 0.931 . S
C463 C462 1.351 . S
C463 N464 1.373 . S
C463 H491 0.930 . S
N464 C463 1.373 . S
N464 C466 1.340 . S
N465 C462 1.368 . S
N465 C466 1.321 . S
N465 Co468 2.135 . S
C466 N464 1.340 . S
C466 N465 1.321 . S
C466 H490 0.930 . S
H467 C462 0.931 . S
Co468 N465 2.135 . S
Co468 N471 2.121 . S
Co468 O476 2.055 . S
Co468 O479 2.039 . S
Co468 N482 2.140 . S
C469 O470 1.227 . S
C469 O479 1.265 . S
O470 C469 1.227 . S
N471 Co468 2.121 . S
N471 C473 1.375 . S
N471 C474 1.313 . S
C472 C473 1.338 . S
C472 N475 1.377 . S
C472 H492 0.930 . S
C473 N471 1.375 . S
C473 C472 1.338 . S
C473 H477 0.931 . S
C474 N471 1.313 . S
C474 N475 1.344 . S
C474 H478 0.930 . S
N475 C472 1.377 . S
N475 C474 1.344 . S
O476 Co468 2.055 . S
O476 C480 1.253 . S
H477 C473 0.931 . S
H478 C474 0.930 . S
O479 Co468 2.039 . S
O479 C469 1.265 . S
C480 O476 1.253 . S
C480 O481 1.227 . S
O481 C480 1.227 . S
N482 Co468 2.140 . S
N482 C485 1.346 . S
N482 C486 1.345 . S
C483 C484 1.387 . S
C483 C487 1.391 . S
C484 C483 1.387 . S
C484 C485 1.369 . S
C484 H493 0.929 . S
C485 N482 1.346 . S
C485 C484 1.369 . S
C485 H488 0.928 . S
C486 N482 1.345 . S
C486 C487 1.371 . S
C486 H489 0.931 . S
C487 C483 1.391 . S
C487 C486 1.371 . S
C487 H494 0.930 . S
H488 C485 0.928 . S
H489 C486 0.931 . S
H490 C466 0.930 . S
H491 C463 0.930 . S
H492 C472 0.930 . S
H493 C484 0.929 . S
H494 C487 0.930 . S
C495 C496 1.351 . S
C495 N498 1.368 . S
C495 H500 0.931 . S
C496 C495 1.351 . S
C496 N497 1.373 . S
C496 H524 0.930 . S
N497 C496 1.373 . S
N497 C499 1.340 . S
N498 C495 1.368 . S
N498 C499 1.321 . S
N498 Co501 2.135 . S
C499 N497 1.340 . S
C499 N498 1.321 . S
C499 H523 0.930 . S
H500 C495 0.931 . S
Co501 N498 2.135 . S
Co501 N504 2.121 . S
Co501 O509 2.055 . S
Co501 O512 2.039 . S
Co501 N515 2.140 . S
C502 O503 1.227 . S
C502 O512 1.265 . S
O503 C502 1.227 . S
N504 Co501 2.121 . S
N504 C506 1.375 . S
N504 C507 1.313 . S
C505 C506 1.338 . S
C505 N508 1.377 . S
C505 H525 0.930 . S
C506 N504 1.375 . S
C506 C505 1.338 . S
C506 H510 0.931 . S
C507 N504 1.313 . S
C507 N508 1.344 . S
C507 H511 0.930 . S
N508 C505 1.377 . S
N508 C507 1.344 . S
O509 Co501 2.055 . S
O509 C513 1.253 . S
H510 C506 0.931 . S
H511 C507 0.930 . S
O512 Co501 2.039 . S
O512 C502 1.265 . S
C513 O509 1.253 . S
C513 O514 1.227 . S
O514 C513 1.227 . S
N515 Co501 2.140 . S
N515 C518 1.346 . S
N515 C519 1.345 . S
C516 C517 1.387 . S
C516 C520 1.391 . S
C517 C516 1.387 . S
C517 C518 1.369 . S
C517 H526 0.929 . S
C518 N515 1.346 . S
C518 C517 1.369 . S
C518 H521 0.928 . S
C519 N515 1.345 . S
C519 C520 1.371 . S
C519 H522 0.931 . S
C520 C516 1.391 . S
C520 C519 1.371 . S
C520 H527 0.930 . S
H521 C518 0.928 . S
H522 C519 0.931 . S
H523 C499 0.930 . S
H524 C496 0.930 . S
H525 C505 0.930 . S
H526 C517 0.929 . S
H527 C520 0.930 . S
C528 C529 1.351 . S
C528 N531 1.368 . S
C528 H533 0.931 . S
C529 C528 1.351 . S
C529 N530 1.373 . S
C529 H557 0.930 . S
N530 C529 1.373 . S
N530 C532 1.340 . S
N531 C528 1.368 . S
N531 C532 1.321 . S
N531 Co534 2.135 . S
C532 N530 1.340 . S
C532 N531 1.321 . S
C532 H556 0.930 . S
H533 C528 0.931 . S
Co534 N531 2.135 . S
Co534 N537 2.121 . S
Co534 O542 2.055 . S
Co534 O545 2.039 . S
Co534 N548 2.140 . S
C535 O536 1.227 . S
C535 O545 1.265 . S
O536 C535 1.227 . S
N537 Co534 2.121 . S
N537 C539 1.375 . S
N537 C540 1.313 . S
C538 C539 1.338 . S
C538 N541 1.377 . S
C538 H558 0.930 . S
C539 N537 1.375 . S
C539 C538 1.338 . S
C539 H543 0.931 . S
C540 N537 1.313 . S
C540 N541 1.344 . S
C540 H544 0.930 . S
N541 C538 1.377 . S
N541 C540 1.344 . S
O542 Co534 2.055 . S
O542 C546 1.253 . S
H543 C539 0.931 . S
H544 C540 0.930 . S
O545 Co534 2.039 . S
O545 C535 1.265 . S
C546 O542 1.253 . S
C546 O547 1.227 . S
O547 C546 1.227 . S
N548 Co534 2.140 . S
N548 C551 1.346 . S
N548 C552 1.345 . S
C549 C550 1.387 . S
C549 C553 1.391 . S
C550 C549 1.387 . S
C550 C551 1.369 . S
C550 H559 0.929 . S
C551 N548 1.346 . S
C551 C550 1.369 . S
C551 H554 0.928 . S
C552 N548 1.345 . S
C552 C553 1.371 . S
C552 H555 0.931 . S
C553 C549 1.391 . S
C553 C552 1.371 . S
C553 H560 0.930 . S
H554 C551 0.928 . S
H555 C552 0.931 . S
H556 C532 0.930 . S
H557 C529 0.930 . S
H558 C538 0.930 . S
H559 C550 0.929 . S
H560 C553 0.930 . S
C561 C562 1.351 . S
C561 N564 1.368 . S
C561 H566 0.931 . S
C562 C561 1.351 . S
C562 N563 1.373 . S
C562 H590 0.930 . S
N563 C562 1.373 . S
N563 C565 1.340 . S
N564 C561 1.368 . S
N564 C565 1.321 . S
N564 Co567 2.135 . S
C565 N563 1.340 . S
C565 N564 1.321 . S
C565 H589 0.930 . S
H566 C561 0.931 . S
Co567 N564 2.135 . S
Co567 N570 2.121 . S
Co567 O575 2.055 . S
Co567 O578 2.039 . S
Co567 N581 2.140 . S
C568 O569 1.227 . S
C568 O578 1.265 . S
O569 C568 1.227 . S
N570 Co567 2.121 . S
N570 C572 1.375 . S
N570 C573 1.313 . S
C571 C572 1.338 . S
C571 N574 1.377 . S
C571 H591 0.930 . S
C572 N570 1.375 . S
C572 C571 1.338 . S
C572 H576 0.931 . S
C573 N570 1.313 . S
C573 N574 1.344 . S
C573 H577 0.930 . S
N574 C571 1.377 . S
N574 C573 1.344 . S
O575 Co567 2.055 . S
O575 C579 1.253 . S
H576 C572 0.931 . S
H577 C573 0.930 . S
O578 Co567 2.039 . S
O578 C568 1.265 . S
C579 O575 1.253 . S
C579 O580 1.227 . S
O580 C579 1.227 . S
N581 Co567 2.140 . S
N581 C584 1.346 . S
N581 C585 1.345 . S
C582 C583 1.387 . S
C582 C586 1.391 . S
C583 C582 1.387 . S
C583 C584 1.369 . S
C583 H592 0.929 . S
C584 N581 1.346 . S
C584 C583 1.369 . S
C584 H587 0.928 . S
C585 N581 1.345 . S
C585 C586 1.371 . S
C585 H588 0.931 . S
C586 C582 1.391 . S
C586 C585 1.371 . S
C586 H593 0.930 . S
H587 C584 0.928 . S
H588 C585 0.931 . S
H589 C565 0.930 . S
H590 C562 0.930 . S
H591 C571 0.930 . S
H592 C583 0.929 . S
H593 C586 0.930 . S
C594 C595 1.351 . S
C594 N597 1.368 . S
C594 H599 0.931 . S
C595 C594 1.351 . S
C595 N596 1.373 . S
C595 H623 0.930 . S
N596 C595 1.373 . S
N596 C598 1.340 . S
N597 C594 1.368 . S
N597 C598 1.321 . S
N597 Co600 2.135 . S
C598 N596 1.340 . S
C598 N597 1.321 . S
C598 H622 0.930 . S
H599 C594 0.931 . S
Co600 N597 2.135 . S
Co600 N603 2.121 . S
Co600 O608 2.055 . S
Co600 O611 2.039 . S
Co600 N614 2.140 . S
C601 O602 1.227 . S
C601 O611 1.265 . S
O602 C601 1.227 . S
N603 Co600 2.121 . S
N603 C605 1.375 . S
N603 C606 1.313 . S
C604 C605 1.338 . S
C604 N607 1.377 . S
C604 H624 0.930 . S
C605 N603 1.375 . S
C605 C604 1.338 . S
C605 H609 0.931 . S
C606 N603 1.313 . S
C606 N607 1.344 . S
C606 H610 0.930 . S
N607 C604 1.377 . S
N607 C606 1.344 . S
O608 Co600 2.055 . S
O608 C612 1.253 . S
H609 C605 0.931 . S
H610 C606 0.930 . S
O611 Co600 2.039 . S
O611 C601 1.265 . S
C612 O608 1.253 . S
C612 O613 1.227 . S
O613 C612 1.227 . S
N614 Co600 2.140 . S
N614 C617 1.346 . S
N614 C618 1.345 . S
C615 C616 1.387 . S
C615 C619 1.391 . S
C616 C615 1.387 . S
C616 C617 1.369 . S
C616 H625 0.929 . S
C617 N614 1.346 . S
C617 C616 1.369 . S
C617 H620 0.928 . S
C618 N614 1.345 . S
C618 C619 1.371 . S
C618 H621 0.931 . S
C619 C615 1.391 . S
C619 C618 1.371 . S
C619 H626 0.930 . S
H620 C617 0.928 . S
H621 C618 0.931 . S
H622 C598 0.930 . S
H623 C595 0.930 . S
H624 C604 0.930 . S
H625 C616 0.929 . S
H626 C619 0.930 . S
C627 C628 1.351 . S
C627 N630 1.368 . S
C627 H632 0.931 . S
C628 C627 1.351 . S
C628 N629 1.373 . S
C628 H656 0.930 . S
N629 C628 1.373 . S
N629 C631 1.340 . S
N630 C627 1.368 . S
N630 C631 1.321 . S
N630 Co633 2.135 . S
C631 N629 1.340 . S
C631 N630 1.321 . S
C631 H655 0.930 . S
H632 C627 0.931 . S
Co633 N630 2.135 . S
Co633 N636 2.121 . S
Co633 O641 2.055 . S
Co633 O644 2.039 . S
Co633 N647 2.140 . S
C634 O635 1.227 . S
C634 O644 1.265 . S
O635 C634 1.227 . S
N636 Co633 2.121 . S
N636 C638 1.375 . S
N636 C639 1.313 . S
C637 C638 1.338 . S
C637 N640 1.377 . S
C637 H657 0.930 . S
C638 N636 1.375 . S
C638 C637 1.338 . S
C638 H642 0.931 . S
C639 N636 1.313 . S
C639 N640 1.344 . S
C639 H643 0.930 . S
N640 C637 1.377 . S
N640 C639 1.344 . S
O641 Co633 2.055 . S
O641 C645 1.253 . S
H642 C638 0.931 . S
H643 C639 0.930 . S
O644 Co633 2.039 . S
O644 C634 1.265 . S
C645 O641 1.253 . S
C645 O646 1.227 . S
O646 C645 1.227 . S
N647 Co633 2.140 . S
N647 C650 1.346 . S
N647 C651 1.345 . S
C648 C649 1.387 . S
C648 C652 1.391 . S
C649 C648 1.387 . S
C649 C650 1.369 . S
C649 H658 0.929 . S
C650 N647 1.346 . S
C650 C649 1.369 . S
C650 H653 0.928 . S
C651 N647 1.345 . S
C651 C652 1.371 . S
C651 H654 0.931 . S
C652 C648 1.391 . S
C652 C651 1.371 . S
C652 H659 0.930 . S
H653 C650 0.928 . S
H654 C651 0.931 . S
H655 C631 0.930 . S
H656 C628 0.930 . S
H657 C637 0.930 . S
H658 C649 0.929 . S
H659 C652 0.930 . S
C660 C661 1.351 . S
C660 N663 1.368 . S
C660 H665 0.931 . S
C661 C660 1.351 . S
C661 N662 1.373 . S
C661 H689 0.930 . S
N662 C661 1.373 . S
N662 C664 1.340 . S
N663 C660 1.368 . S
N663 C664 1.321 . S
N663 Co666 2.135 . S
C664 N662 1.340 . S
C664 N663 1.321 . S
C664 H688 0.930 . S
H665 C660 0.931 . S
Co666 N663 2.135 . S
Co666 N669 2.121 . S
Co666 O674 2.055 . S
Co666 O677 2.039 . S
Co666 N680 2.140 . S
C667 O668 1.227 . S
C667 O677 1.265 . S
O668 C667 1.227 . S
N669 Co666 2.121 . S
N669 C671 1.375 . S
N669 C672 1.313 . S
C670 C671 1.338 . S
C670 N673 1.377 . S
C670 H690 0.930 . S
C671 N669 1.375 . S
C671 C670 1.338 . S
C671 H675 0.931 . S
C672 N669 1.313 . S
C672 N673 1.344 . S
C672 H676 0.930 . S
N673 C670 1.377 . S
N673 C672 1.344 . S
O674 Co666 2.055 . S
O674 C678 1.253 . S
H675 C671 0.931 . S
H676 C672 0.930 . S
O677 Co666 2.039 . S
O677 C667 1.265 . S
C678 O674 1.253 . S
C678 O679 1.227 . S
O679 C678 1.227 . S
N680 Co666 2.140 . S
N680 C683 1.346 . S
N680 C684 1.345 . S
C681 C682 1.387 . S
C681 C685 1.391 . S
C682 C681 1.387 . S
C682 C683 1.369 . S
C682 H691 0.929 . S
C683 N680 1.346 . S
C683 C682 1.369 . S
C683 H686 0.928 . S
C684 N680 1.345 . S
C684 C685 1.371 . S
C684 H687 0.931 . S
C685 C681 1.391 . S
C685 C684 1.371 . S
C685 H692 0.930 . S
H686 C683 0.928 . S
H687 C684 0.931 . S
H688 C664 0.930 . S
H689 C661 0.930 . S
H690 C670 0.930 . S
H691 C682 0.929 . S
H692 C685 0.930 . S
C693 C694 1.351 . S
C693 N696 1.368 . S
C693 H698 0.931 . S
C694 C693 1.351 . S
C694 N695 1.373 . S
C694 H722 0.930 1_556 S
N695 C694 1.373 . S
N695 C697 1.340 . S
N696 C693 1.368 . S
N696 C697 1.321 . S
N696 Co699 2.135 . S
C697 N695 1.340 . S
C697 N696 1.321 . S
C697 H721 0.930 . S
H698 C693 0.931 . S
Co699 N696 2.135 . S
Co699 N702 2.121 . S
Co699 O707 2.055 . S
Co699 O710 2.039 . S
Co699 N713 2.140 . S
C700 O701 1.227 . S
C700 O710 1.265 . S
O701 C700 1.227 . S
N702 Co699 2.121 . S
N702 C704 1.375 . S
N702 C705 1.313 . S
C703 C704 1.338 . S
C703 N706 1.377 . S
C703 H723 0.930 . S
C704 N702 1.375 . S
C704 C703 1.338 . S
C704 H708 0.931 . S
C705 N702 1.313 . S
C705 N706 1.344 . S
C705 H709 0.930 . S
N706 C703 1.377 . S
N706 C705 1.344 . S
O707 Co699 2.055 . S
O707 C711 1.253 . S
H708 C704 0.931 . S
H709 C705 0.930 . S
O710 Co699 2.039 . S
O710 C700 1.265 . S
C711 O707 1.253 . S
C711 O712 1.227 . S
O712 C711 1.227 . S
N713 Co699 2.140 . S
N713 C716 1.346 . S
N713 C717 1.345 . S
C714 C715 1.387 . S
C714 C718 1.391 . S
C715 C714 1.387 . S
C715 C716 1.369 . S
C715 H724 0.929 . S
C716 N713 1.346 . S
C716 C715 1.369 . S
C716 H719 0.928 . S
C717 N713 1.345 . S
C717 C718 1.371 . S
C717 H720 0.931 . S
C718 C714 1.391 . S
C718 C717 1.371 . S
C718 H725 0.930 . S
H719 C716 0.928 . S
H720 C717 0.931 . S
H721 C697 0.930 . S
H722 C694 0.930 1_554 S
H723 C703 0.930 . S
H724 C715 0.929 . S
H725 C718 0.930 . S
C726 C727 1.351 . S
C726 N729 1.368 . S
C726 H731 0.931 . S
C727 C726 1.351 . S
C727 N728 1.373 . S
C727 H755 0.930 . S
N728 C727 1.373 . S
N728 C730 1.340 . S
N729 C726 1.368 . S
N729 C730 1.321 . S
N729 Co732 2.135 . S
C730 N728 1.340 . S
C730 N729 1.321 . S
C730 H754 0.930 . S
H731 C726 0.931 . S
Co732 N729 2.135 . S
Co732 N735 2.121 . S
Co732 O740 2.055 . S
Co732 O743 2.039 . S
Co732 N746 2.140 . S
C733 O734 1.227 . S
C733 O743 1.265 . S
O734 C733 1.227 . S
N735 Co732 2.121 . S
N735 C737 1.375 . S
N735 C738 1.313 . S
C736 C737 1.338 . S
C736 N739 1.377 . S
C736 H756 0.930 . S
C737 N735 1.375 . S
C737 C736 1.338 . S
C737 H741 0.931 . S
C738 N735 1.313 . S
C738 N739 1.344 . S
C738 H742 0.930 . S
N739 C736 1.377 . S
N739 C738 1.344 . S
O740 Co732 2.055 . S
O740 C744 1.253 . S
H741 C737 0.931 . S
H742 C738 0.930 . S
O743 Co732 2.039 . S
O743 C733 1.265 . S
C744 O740 1.253 . S
C744 O745 1.227 . S
O745 C744 1.227 . S
N746 Co732 2.140 . S
N746 C749 1.346 . S
N746 C750 1.345 . S
C747 C748 1.387 . S
C747 C751 1.391 . S
C748 C747 1.387 . S
C748 C749 1.369 . S
C748 H757 0.929 . S
C749 N746 1.346 . S
C749 C748 1.369 . S
C749 H752 0.928 . S
C750 N746 1.345 . S
C750 C751 1.371 . S
C750 H753 0.931 . S
C751 C747 1.391 . S
C751 C750 1.371 . S
C751 H758 0.930 . S
H752 C749 0.928 . S
H753 C750 0.931 . S
H754 C730 0.930 . S
H755 C727 0.930 . S
H756 C736 0.930 . S
H757 C748 0.929 . S
H758 C751 0.930 . S
C759 C760 1.351 . S
C759 N762 1.368 . S
C759 H764 0.931 . S
C760 C759 1.351 . S
C760 N761 1.373 . S
C760 H788 0.930 . S
N761 C760 1.373 . S
N761 C763 1.340 . S
N762 C759 1.368 . S
N762 C763 1.321 . S
N762 Co765 2.135 . S
C763 N761 1.340 . S
C763 N762 1.321 . S
C763 H787 0.930 . S
H764 C759 0.931 . S
Co765 N762 2.135 . S
Co765 N768 2.121 . S
Co765 O773 2.055 . S
Co765 O776 2.039 . S
Co765 N779 2.140 . S
C766 O767 1.227 . S
C766 O776 1.265 . S
O767 C766 1.227 . S
N768 Co765 2.121 . S
N768 C770 1.375 . S
N768 C771 1.313 . S
C769 C770 1.338 . S
C769 N772 1.377 . S
C769 H789 0.930 . S
C770 N768 1.375 . S
C770 C769 1.338 . S
C770 H774 0.931 . S
C771 N768 1.313 . S
C771 N772 1.344 . S
C771 H775 0.930 . S
N772 C769 1.377 . S
N772 C771 1.344 . S
O773 Co765 2.055 . S
O773 C777 1.253 . S
H774 C770 0.931 . S
H775 C771 0.930 . S
O776 Co765 2.039 . S
O776 C766 1.265 . S
C777 O773 1.253 . S
C777 O778 1.227 . S
O778 C777 1.227 . S
N779 Co765 2.140 . S
N779 C782 1.346 . S
N779 C783 1.345 . S
C780 C781 1.387 . S
C780 C784 1.391 . S
C781 C780 1.387 . S
C781 C782 1.369 . S
C781 H790 0.929 . S
C782 N779 1.346 . S
C782 C781 1.369 . S
C782 H785 0.928 . S
C783 N779 1.345 . S
C783 C784 1.371 . S
C783 H786 0.931 . S
C784 C780 1.391 . S
C784 C783 1.371 . S
C784 H791 0.930 . S
H785 C782 0.928 . S
H786 C783 0.931 . S
H787 C763 0.930 . S
H788 C760 0.930 . S
H789 C769 0.930 . S
H790 C781 0.929 . S
H791 C784 0.930 . S
C792 C793 1.351 . S
C792 N795 1.368 . S
C792 H797 0.931 . S
C793 C792 1.351 . S
C793 N794 1.373 . S
C793 H821 0.930 . S
N794 C793 1.373 . S
N794 C796 1.340 . S
N795 C792 1.368 . S
N795 C796 1.321 . S
N795 Co798 2.135 . S
C796 N794 1.340 . S
C796 N795 1.321 . S
C796 H820 0.930 . S
H797 C792 0.931 . S
Co798 N795 2.135 . S
Co798 N801 2.121 . S
Co798 O806 2.055 . S
Co798 O809 2.039 . S
Co798 N812 2.140 . S
C799 O800 1.227 . S
C799 O809 1.265 . S
O800 C799 1.227 . S
N801 Co798 2.121 . S
N801 C803 1.375 . S
N801 C804 1.313 . S
C802 C803 1.338 . S
C802 N805 1.377 . S
C802 H822 0.930 . S
C803 N801 1.375 . S
C803 C802 1.338 . S
C803 H807 0.931 . S
C804 N801 1.313 . S
C804 N805 1.344 . S
C804 H808 0.930 . S
N805 C802 1.377 . S
N805 C804 1.344 . S
O806 Co798 2.055 . S
O806 C810 1.253 . S
H807 C803 0.931 . S
H808 C804 0.930 . S
O809 Co798 2.039 . S
O809 C799 1.265 . S
C810 O806 1.253 . S
C810 O811 1.227 . S
O811 C810 1.227 . S
N812 Co798 2.140 . S
N812 C815 1.346 . S
N812 C816 1.345 . S
C813 C814 1.387 . S
C813 C817 1.391 . S
C814 C813 1.387 . S
C814 C815 1.369 . S
C814 H823 0.929 . S
C815 N812 1.346 . S
C815 C814 1.369 . S
C815 H818 0.928 . S
C816 N812 1.345 . S
C816 C817 1.371 . S
C816 H819 0.931 . S
C817 C813 1.391 . S
C817 C816 1.371 . S
C817 H824 0.930 . S
H818 C815 0.928 . S
H819 C816 0.931 . S
H820 C796 0.930 . S
H821 C793 0.930 . S
H822 C802 0.930 . S
H823 C814 0.929 . S
H824 C817 0.930 . S
C825 C826 1.351 . S
C825 N828 1.368 . S
C825 H830 0.931 . S
C826 C825 1.351 . S
C826 N827 1.373 . S
C826 H854 0.930 . S
N827 C826 1.373 . S
N827 C829 1.340 . S
N828 C825 1.368 . S
N828 C829 1.321 . S
N828 Co831 2.135 . S
C829 N827 1.340 . S
C829 N828 1.321 . S
C829 H853 0.930 . S
H830 C825 0.931 . S
Co831 N828 2.135 . S
Co831 N834 2.121 . S
Co831 O839 2.055 . S
Co831 O842 2.039 . S
Co831 N845 2.140 . S
C832 O833 1.227 . S
C832 O842 1.265 . S
O833 C832 1.227 . S
N834 Co831 2.121 . S
N834 C836 1.375 . S
N834 C837 1.313 . S
C835 C836 1.338 . S
C835 N838 1.377 . S
C835 H855 0.930 . S
C836 N834 1.375 . S
C836 C835 1.338 . S
C836 H840 0.931 . S
C837 N834 1.313 . S
C837 N838 1.344 . S
C837 H841 0.930 . S
N838 C835 1.377 . S
N838 C837 1.344 . S
O839 Co831 2.055 . S
O839 C843 1.253 . S
H840 C836 0.931 . S
H841 C837 0.930 . S
O842 Co831 2.039 . S
O842 C832 1.265 . S
C843 O839 1.253 . S
C843 O844 1.227 . S
O844 C843 1.227 . S
N845 Co831 2.140 . S
N845 C848 1.346 . S
N845 C849 1.345 . S
C846 C847 1.387 . S
C846 C850 1.391 . S
C847 C846 1.387 . S
C847 C848 1.369 . S
C847 H856 0.929 . S
C848 N845 1.346 . S
C848 C847 1.369 . S
C848 H851 0.928 . S
C849 N845 1.345 . S
C849 C850 1.371 . S
C849 H852 0.931 . S
C850 C846 1.391 . S
C850 C849 1.371 . S
C850 H857 0.930 . S
H851 C848 0.928 . S
H852 C849 0.931 . S
H853 C829 0.930 . S
H854 C826 0.930 . S
H855 C835 0.930 . S
H856 C847 0.929 . S
H857 C850 0.930 . S
C858 C859 1.351 . S
C858 N861 1.368 . S
C858 H863 0.931 . S
C859 C858 1.351 . S
C859 N860 1.373 . S
C859 H887 0.930 . S
N860 C859 1.373 . S
N860 C862 1.340 . S
N861 C858 1.368 . S
N861 C862 1.321 . S
N861 Co864 2.135 . S
C862 N860 1.340 . S
C862 N861 1.321 . S
C862 H886 0.930 . S
H863 C858 0.931 . S
Co864 N861 2.135 . S
Co864 N867 2.121 . S
Co864 O872 2.055 . S
Co864 O875 2.039 . S
Co864 N878 2.140 . S
C865 O866 1.227 . S
C865 O875 1.265 . S
O866 C865 1.227 . S
N867 Co864 2.121 . S
N867 C869 1.375 . S
N867 C870 1.313 . S
C868 C869 1.338 . S
C868 N871 1.377 . S
C868 H888 0.930 . S
C869 N867 1.375 . S
C869 C868 1.338 . S
C869 H873 0.931 . S
C870 N867 1.313 . S
C870 N871 1.344 . S
C870 H874 0.930 . S
N871 C868 1.377 . S
N871 C870 1.344 . S
O872 Co864 2.055 . S
O872 C876 1.253 . S
H873 C869 0.931 . S
H874 C870 0.930 . S
O875 Co864 2.039 . S
O875 C865 1.265 . S
C876 O872 1.253 . S
C876 O877 1.227 . S
O877 C876 1.227 . S
N878 Co864 2.140 . S
N878 C881 1.346 . S
N878 C882 1.345 . S
C879 C880 1.387 . S
C879 C883 1.391 . S
C880 C879 1.387 . S
C880 C881 1.369 . S
C880 H889 0.929 . S
C881 N878 1.346 . S
C881 C880 1.369 . S
C881 H884 0.928 . S
C882 N878 1.345 . S
C882 C883 1.371 . S
C882 H885 0.931 . S
C883 C879 1.391 . S
C883 C882 1.371 . S
C883 H890 0.930 . S
H884 C881 0.928 . S
H885 C882 0.931 . S
H886 C862 0.930 . S
H887 C859 0.930 . S
H888 C868 0.930 . S
H889 C880 0.929 . S
H890 C883 0.930 . S
C891 C892 1.351 . S
C891 N894 1.368 . S
C891 H896 0.931 . S
C892 C891 1.351 . S
C892 N893 1.373 . S
C892 H920 0.930 . S
N893 C892 1.373 . S
N893 C895 1.340 . S
N894 C891 1.368 . S
N894 C895 1.321 . S
N894 Co897 2.135 . S
C895 N893 1.340 . S
C895 N894 1.321 . S
C895 H919 0.930 . S
H896 C891 0.931 . S
Co897 N894 2.135 . S
Co897 N900 2.121 . S
Co897 O905 2.055 . S
Co897 O908 2.039 . S
Co897 N911 2.140 . S
C898 O899 1.227 . S
C898 O908 1.265 . S
O899 C898 1.227 . S
N900 Co897 2.121 . S
N900 C902 1.375 . S
N900 C903 1.313 . S
C901 C902 1.338 . S
C901 N904 1.377 . S
C901 H921 0.930 . S
C902 N900 1.375 . S
C902 C901 1.338 . S
C902 H906 0.931 . S
C903 N900 1.313 . S
C903 N904 1.344 . S
C903 H907 0.930 . S
N904 C901 1.377 . S
N904 C903 1.344 . S
O905 Co897 2.055 . S
O905 C909 1.253 . S
H906 C902 0.931 . S
H907 C903 0.930 . S
O908 Co897 2.039 . S
O908 C898 1.265 . S
C909 O905 1.253 . S
C909 O910 1.227 . S
O910 C909 1.227 . S
N911 Co897 2.140 . S
N911 C914 1.346 . S
N911 C915 1.345 . S
C912 C913 1.387 . S
C912 C916 1.391 . S
C913 C912 1.387 . S
C913 C914 1.369 . S
C913 H922 0.929 . S
C914 N911 1.346 . S
C914 C913 1.369 . S
C914 H917 0.928 . S
C915 N911 1.345 . S
C915 C916 1.371 . S
C915 H918 0.931 . S
C916 C912 1.391 . S
C916 C915 1.371 . S
C916 H923 0.930 . S
H917 C914 0.928 . S
H918 C915 0.931 . S
H919 C895 0.930 . S
H920 C892 0.930 . S
H921 C901 0.930 . S
H922 C913 0.929 . S
H923 C916 0.930 . S
C924 C925 1.351 . S
C924 N927 1.368 . S
C924 H929 0.931 . S
C925 C924 1.351 . S
C925 N926 1.373 . S
C925 H953 0.930 . S
N926 C925 1.373 . S
N926 C928 1.340 . S
N927 C924 1.368 . S
N927 C928 1.321 . S
N927 Co930 2.135 . S
C928 N926 1.340 . S
C928 N927 1.321 . S
C928 H952 0.930 . S
H929 C924 0.931 . S
Co930 N927 2.135 . S
Co930 N933 2.121 . S
Co930 O938 2.055 . S
Co930 O941 2.039 . S
Co930 N944 2.140 . S
C931 O932 1.227 . S
C931 O941 1.265 . S
O932 C931 1.227 . S
N933 Co930 2.121 . S
N933 C935 1.375 . S
N933 C936 1.313 . S
C934 C935 1.338 . S
C934 N937 1.377 . S
C934 H954 0.930 . S
C935 N933 1.375 . S
C935 C934 1.338 . S
C935 H939 0.931 . S
C936 N933 1.313 . S
C936 N937 1.344 . S
C936 H940 0.930 . S
N937 C934 1.377 . S
N937 C936 1.344 . S
O938 Co930 2.055 . S
O938 C942 1.253 . S
H939 C935 0.931 . S
H940 C936 0.930 . S
O941 Co930 2.039 . S
O941 C931 1.265 . S
C942 O938 1.253 . S
C942 O943 1.227 . S
O943 C942 1.227 . S
N944 Co930 2.140 . S
N944 C947 1.346 . S
N944 C948 1.345 . S
C945 C946 1.387 . S
C945 C949 1.391 . S
C946 C945 1.387 . S
C946 C947 1.369 . S
C946 H955 0.929 . S
C947 N944 1.346 . S
C947 C946 1.369 . S
C947 H950 0.928 . S
C948 N944 1.345 . S
C948 C949 1.371 . S
C948 H951 0.931 . S
C949 C945 1.391 . S
C949 C948 1.371 . S
C949 H956 0.930 . S
H950 C947 0.928 . S
H951 C948 0.931 . S
H952 C928 0.930 . S
H953 C925 0.930 . S
H954 C934 0.930 . S
H955 C946 0.929 . S
H956 C949 0.930 . S
C957 C958 1.351 1_655 S
C957 N960 1.368 . S
C957 H962 0.931 . S
C958 C957 1.351 1_455 S
C958 N959 1.373 . S
C958 H986 0.930 . S
N959 C958 1.373 . S
N959 C961 1.340 1_455 S
N960 C957 1.368 . S
N960 C961 1.321 . S
N960 Co963 2.135 . S
C961 N959 1.340 1_655 S
C961 N960 1.321 . S
C961 H985 0.930 . S
H962 C957 0.931 . S
Co963 N960 2.135 . S
Co963 N966 2.121 . S
Co963 O971 2.055 . S
Co963 O974 2.039 . S
Co963 N977 2.140 . S
C964 O965 1.227 . S
C964 O974 1.265 . S
O965 C964 1.227 . S
N966 Co963 2.121 . S
N966 C968 1.375 . S
N966 C969 1.313 . S
C967 C968 1.338 . S
C967 N970 1.377 . S
C967 H987 0.930 . S
C968 N966 1.375 . S
C968 C967 1.338 . S
C968 H972 0.931 . S
C969 N966 1.313 . S
C969 N970 1.344 . S
C969 H973 0.930 . S
N970 C967 1.377 . S
N970 C969 1.344 . S
O971 Co963 2.055 . S
O971 C975 1.253 . S
H972 C968 0.931 . S
H973 C969 0.930 . S
O974 Co963 2.039 . S
O974 C964 1.265 . S
C975 O971 1.253 . S
C975 O976 1.227 . S
O976 C975 1.227 . S
N977 Co963 2.140 . S
N977 C980 1.346 . S
N977 C981 1.345 . S
C978 C979 1.387 . S
C978 C982 1.391 . S
C979 C978 1.387 . S
C979 C980 1.369 . S
C979 H988 0.929 . S
C980 N977 1.346 . S
C980 C979 1.369 . S
C980 H983 0.928 . S
C981 N977 1.345 . S
C981 C982 1.371 . S
C981 H984 0.931 . S
C982 C978 1.391 . S
C982 C981 1.371 . S
C982 H989 0.930 . S
H983 C980 0.928 . S
H984 C981 0.931 . S
H985 C961 0.930 . S
H986 C958 0.930 . S
H987 C967 0.930 . S
H988 C979 0.929 . S
H989 C982 0.930 . S
C990 C991 1.351 . S
C990 N993 1.368 . S
C990 H995 0.931 . S
C991 C990 1.351 . S
C991 N992 1.373 . S
C991 H1019 0.950 . S
N992 C991 1.373 . S
N992 C994 1.340 . S
N993 C990 1.368 . S
N993 C994 1.321 . S
N993 Co996 2.135 . S
C994 N992 1.340 . S
C994 N993 1.321 . S
C994 H1018 0.930 . S
H995 C990 0.931 . S
Co996 N993 2.135 . S
Co996 N999 2.121 . S
Co996 O1004 2.055 . S
Co996 O1007 2.039 . S
Co996 N1010 2.140 . S
C997 O998 1.227 . S
C997 O1007 1.265 . S
O998 C997 1.227 . S
N999 Co996 2.121 . S
N999 C1001 1.375 . S
N999 C1002 1.313 . S
C1000 C1001 1.338 . S
C1000 N1003 1.377 . S
C1000 H1020 0.930 . S
C1001 N999 1.375 . S
C1001 C1000 1.338 . S
C1001 H1005 0.931 . S
C1002 N999 1.313 . S
C1002 N1003 1.344 . S
C1002 H1006 0.930 . S
N1003 C1000 1.377 . S
N1003 C1002 1.344 . S
O1004 Co996 2.055 . S
O1004 C1008 1.253 . S
H1005 C1001 0.931 . S
H1006 C1002 0.930 . S
O1007 Co996 2.039 . S
O1007 C997 1.265 . S
C1008 O1004 1.253 . S
C1008 O1009 1.227 . S
O1009 C1008 1.227 . S
N1010 Co996 2.140 . S
N1010 C1013 1.346 . S
N1010 C1014 1.345 . S
C1011 C1012 1.387 . S
C1011 C1015 1.391 . S
C1012 C1011 1.387 . S
C1012 C1013 1.369 . S
C1012 H1021 0.929 . S
C1013 N1010 1.346 . S
C1013 C1012 1.369 . S
C1013 H1016 0.928 . S
C1014 N1010 1.345 . S
C1014 C1015 1.371 . S
C1014 H1017 0.931 . S
C1015 C1011 1.391 . S
C1015 C1014 1.371 . S
C1015 H1022 0.930 . S
H1016 C1013 0.928 . S
H1017 C1014 0.931 . S
H1018 C994 0.930 . S
H1019 C991 0.950 . S
H1020 C1000 0.930 . S
H1021 C1012 0.929 . S
H1022 C1015 0.930 . S
C1023 C1024 1.351 . S
C1023 N1026 1.368 . S
C1023 H1028 0.931 . S
C1024 C1023 1.351 . S
C1024 N1025 1.373 . S
C1024 H1052 0.930 . S
N1025 C1024 1.373 . S
N1025 C1027 1.340 . S
N1026 C1023 1.368 . S
N1026 C1027 1.321 . S
N1026 Co1029 2.135 . S
C1027 N1025 1.340 . S
C1027 N1026 1.321 . S
C1027 H1051 0.930 . S
H1028 C1023 0.931 . S
Co1029 N1026 2.135 . S
Co1029 N1032 2.121 . S
Co1029 O1037 2.055 . S
Co1029 O1040 2.039 . S
Co1029 N1043 2.140 . S
C1030 O1031 1.227 . S
C1030 O1040 1.265 . S
O1031 C1030 1.227 . S
N1032 Co1029 2.121 . S
N1032 C1034 1.375 . S
N1032 C1035 1.313 . S
C1033 C1034 1.338 . S
C1033 N1036 1.377 . S
C1033 H1053 0.930 . S
C1034 N1032 1.375 . S
C1034 C1033 1.338 . S
C1034 H1038 0.931 . S
C1035 N1032 1.313 . S
C1035 N1036 1.344 . S
C1035 H1039 0.930 . S
N1036 C1033 1.377 . S
N1036 C1035 1.344 . S
O1037 Co1029 2.055 . S
O1037 C1041 1.253 . S
H1038 C1034 0.931 . S
H1039 C1035 0.930 . S
O1040 Co1029 2.039 . S
O1040 C1030 1.265 . S
C1041 O1037 1.253 . S
C1041 O1042 1.227 . S
O1042 C1041 1.227 . S
N1043 Co1029 2.140 . S
N1043 C1046 1.346 . S
N1043 C1047 1.345 . S
C1044 C1045 1.387 . S
C1044 C1048 1.391 . S
C1045 C1044 1.387 . S
C1045 C1046 1.369 . S
C1045 H1054 0.929 . S
C1046 N1043 1.346 . S
C1046 C1045 1.369 . S
C1046 H1049 0.928 . S
C1047 N1043 1.345 . S
C1047 C1048 1.371 . S
C1047 H1050 0.931 . S
C1048 C1044 1.391 . S
C1048 C1047 1.371 . S
C1048 H1055 0.930 . S
H1049 C1046 0.928 . S
H1050 C1047 0.931 . S
H1051 C1027 0.930 . S
H1052 C1024 0.930 . S
H1053 C1033 0.930 . S
H1054 C1045 0.929 . S
H1055 C1048 0.930 . S
C1056 C1057 1.351 . S
C1056 N1059 1.368 . S
C1056 H1061 0.931 . S
C1057 C1056 1.351 . S
C1057 N1058 1.373 . S
C1057 H1085 0.930 . S
N1058 C1057 1.373 . S
N1058 C1060 1.340 . S
N1059 C1056 1.368 . S
N1059 C1060 1.321 . S
N1059 Co1062 2.135 . S
C1060 N1058 1.340 . S
C1060 N1059 1.321 . S
C1060 H1084 0.930 . S
H1061 C1056 0.931 . S
Co1062 N1059 2.135 . S
Co1062 N1065 2.121 . S
Co1062 O1070 2.055 . S
Co1062 O1073 2.039 . S
Co1062 N1076 2.140 . S
C1063 O1064 1.227 . S
C1063 O1073 1.265 . S
O1064 C1063 1.227 . S
N1065 Co1062 2.121 . S
N1065 C1067 1.375 . S
N1065 C1068 1.313 . S
C1066 C1067 1.338 . S
C1066 N1069 1.377 . S
C1066 H1086 0.930 . S
C1067 N1065 1.375 . S
C1067 C1066 1.338 . S
C1067 H1071 0.931 . S
C1068 N1065 1.313 . S
C1068 N1069 1.344 . S
C1068 H1072 0.930 . S
N1069 C1066 1.377 . S
N1069 C1068 1.344 . S
O1070 Co1062 2.055 . S
O1070 C1074 1.253 . S
H1071 C1067 0.931 . S
H1072 C1068 0.930 . S
O1073 Co1062 2.039 . S
O1073 C1063 1.265 . S
C1074 O1070 1.253 . S
C1074 O1075 1.227 . S
O1075 C1074 1.227 . S
N1076 Co1062 2.140 . S
N1076 C1079 1.346 . S
N1076 C1080 1.345 . S
C1077 C1078 1.387 . S
C1077 C1081 1.391 . S
C1078 C1077 1.387 . S
C1078 C1079 1.369 . S
C1078 H1087 0.929 . S
C1079 N1076 1.346 . S
C1079 C1078 1.369 . S
C1079 H1082 0.928 . S
C1080 N1076 1.345 . S
C1080 C1081 1.371 . S
C1080 H1083 0.931 . S
C1081 C1077 1.391 . S
C1081 C1080 1.371 . S
C1081 H1088 0.930 . S
H1082 C1079 0.928 . S
H1083 C1080 0.931 . S
H1084 C1060 0.930 . S
H1085 C1057 0.930 . S
H1086 C1066 0.930 . S
H1087 C1078 0.929 . S
H1088 C1081 0.930 . S
C1089 C1090 1.351 . S
C1089 N1092 1.368 . S
C1089 H1094 0.931 . S
C1090 C1089 1.351 . S
C1090 N1091 1.373 . S
C1090 H1118 0.930 . S
N1091 C1090 1.373 . S
N1091 C1093 1.340 . S
N1092 C1089 1.368 . S
N1092 C1093 1.321 . S
N1092 Co1095 2.135 . S
C1093 N1091 1.340 . S
C1093 N1092 1.321 . S
C1093 H1117 0.930 . S
H1094 C1089 0.931 . S
Co1095 N1092 2.135 . S
Co1095 N1098 2.121 . S
Co1095 O1103 2.055 . S
Co1095 O1106 2.039 . S
Co1095 N1109 2.140 . S
C1096 O1097 1.227 . S
C1096 O1106 1.265 . S
O1097 C1096 1.227 . S
N1098 Co1095 2.121 . S
N1098 C1100 1.375 . S
N1098 C1101 1.313 . S
C1099 C1100 1.338 . S
C1099 N1102 1.377 . S
C1099 H1119 0.930 . S
C1100 N1098 1.375 . S
C1100 C1099 1.338 . S
C1100 H1104 0.931 . S
C1101 N1098 1.313 . S
C1101 N1102 1.344 . S
C1101 H1105 0.930 . S
N1102 C1099 1.377 . S
N1102 C1101 1.344 . S
O1103 Co1095 2.055 . S
O1103 C1107 1.253 . S
H1104 C1100 0.931 . S
H1105 C1101 0.930 . S
O1106 Co1095 2.039 . S
O1106 C1096 1.265 . S
C1107 O1103 1.253 . S
C1107 O1108 1.227 . S
O1108 C1107 1.227 . S
N1109 Co1095 2.140 . S
N1109 C1112 1.346 . S
N1109 C1113 1.345 . S
C1110 C1111 1.387 . S
C1110 C1114 1.391 . S
C1111 C1110 1.387 . S
C1111 C1112 1.369 . S
C1111 H1120 0.929 . S
C1112 N1109 1.346 . S
C1112 C1111 1.369 . S
C1112 H1115 0.928 . S
C1113 N1109 1.345 . S
C1113 C1114 1.371 . S
C1113 H1116 0.931 . S
C1114 C1110 1.391 . S
C1114 C1113 1.371 . S
C1114 H1121 0.930 . S
H1115 C1112 0.928 . S
H1116 C1113 0.931 . S
H1117 C1093 0.930 . S
H1118 C1090 0.930 . S
H1119 C1099 0.930 . S
H1120 C1111 0.929 . S
H1121 C1114 0.930 . S
C1122 C1123 1.351 . S
C1122 N1125 1.368 . S
C1122 H1127 0.931 . S
C1123 C1122 1.351 . S
C1123 N1124 1.373 . S
C1123 H1151 0.930 . S
N1124 C1123 1.373 . S
N1124 C1126 1.340 . S
N1125 C1122 1.368 . S
N1125 C1126 1.321 . S
N1125 Co1128 2.135 . S
C1126 N1124 1.340 . S
C1126 N1125 1.321 . S
C1126 H1150 0.930 . S
H1127 C1122 0.931 . S
Co1128 N1125 2.135 . S
Co1128 N1131 2.121 . S
Co1128 O1136 2.055 . S
Co1128 O1139 2.039 . S
Co1128 N1142 2.140 . S
C1129 O1130 1.227 . S
C1129 O1139 1.265 . S
O1130 C1129 1.227 . S
N1131 Co1128 2.121 . S
N1131 C1133 1.375 . S
N1131 C1134 1.313 . S
C1132 C1133 1.338 . S
C1132 N1135 1.377 . S
C1132 H1152 0.930 . S
C1133 N1131 1.375 . S
C1133 C1132 1.338 . S
C1133 H1137 0.931 . S
C1134 N1131 1.313 . S
C1134 N1135 1.344 . S
C1134 H1138 0.930 . S
N1135 C1132 1.377 . S
N1135 C1134 1.344 . S
O1136 Co1128 2.055 . S
O1136 C1140 1.253 . S
H1137 C1133 0.931 . S
H1138 C1134 0.930 . S
O1139 Co1128 2.039 . S
O1139 C1129 1.265 . S
C1140 O1136 1.253 . S
C1140 O1141 1.227 . S
O1141 C1140 1.227 . S
N1142 Co1128 2.140 . S
N1142 C1145 1.346 . S
N1142 C1146 1.345 . S
C1143 C1144 1.387 . S
C1143 C1147 1.391 . S
C1144 C1143 1.387 . S
C1144 C1145 1.369 . S
C1144 H1153 0.929 . S
C1145 N1142 1.346 . S
C1145 C1144 1.369 . S
C1145 H1148 0.928 . S
C1146 N1142 1.345 . S
C1146 C1147 1.371 . S
C1146 H1149 0.931 . S
C1147 C1143 1.391 . S
C1147 C1146 1.371 . S
C1147 H1154 0.930 . S
H1148 C1145 0.928 . S
H1149 C1146 0.931 . S
H1150 C1126 0.930 . S
H1151 C1123 0.930 . S
H1152 C1132 0.930 . S
H1153 C1144 0.929 . S
H1154 C1147 0.930 . S
C1155 C1156 1.351 . S
C1155 N1158 1.368 . S
C1155 H1160 0.931 . S
C1156 C1155 1.351 . S
C1156 N1157 1.373 . S
C1156 H1184 0.930 . S
N1157 C1156 1.373 . S
N1157 C1159 1.340 . S
N1158 C1155 1.368 . S
N1158 C1159 1.321 . S
N1158 Co1161 2.135 . S
C1159 N1157 1.340 . S
C1159 N1158 1.321 . S
C1159 H1183 0.930 . S
H1160 C1155 0.931 . S
Co1161 N1158 2.135 . S
Co1161 N1164 2.121 . S
Co1161 O1169 2.055 . S
Co1161 O1172 2.039 . S
Co1161 N1175 2.140 . S
C1162 O1163 1.227 . S
C1162 O1172 1.265 . S
O1163 C1162 1.227 . S
N1164 Co1161 2.121 . S
N1164 C1166 1.375 . S
N1164 C1167 1.313 . S
C1165 C1166 1.338 . S
C1165 N1168 1.377 . S
C1165 H1185 0.930 . S
C1166 N1164 1.375 . S
C1166 C1165 1.338 . S
C1166 H1170 0.931 . S
C1167 N1164 1.313 . S
C1167 N1168 1.344 . S
C1167 H1171 0.930 . S
N1168 C1165 1.377 . S
N1168 C1167 1.344 . S
O1169 Co1161 2.055 . S
O1169 C1173 1.253 . S
H1170 C1166 0.931 . S
H1171 C1167 0.930 . S
O1172 Co1161 2.039 . S
O1172 C1162 1.265 . S
C1173 O1169 1.253 . S
C1173 O1174 1.227 . S
O1174 C1173 1.227 . S
N1175 Co1161 2.140 . S
N1175 C1178 1.346 . S
N1175 C1179 1.345 . S
C1176 C1177 1.387 . S
C1176 C1180 1.391 . S
C1177 C1176 1.387 . S
C1177 C1178 1.369 . S
C1177 H1186 0.929 . S
C1178 N1175 1.346 . S
C1178 C1177 1.369 . S
C1178 H1181 0.928 . S
C1179 N1175 1.345 . S
C1179 C1180 1.371 . S
C1179 H1182 0.931 . S
C1180 C1176 1.391 . S
C1180 C1179 1.371 . S
C1180 H1187 0.930 . S
H1181 C1178 0.928 . S
H1182 C1179 0.931 . S
H1183 C1159 0.930 . S
H1184 C1156 0.930 . S
H1185 C1165 0.930 . S
H1186 C1177 0.929 . S
H1187 C1180 0.930 . S
C1188 C1189 1.351 . S
C1188 N1191 1.368 . S
C1188 H1193 0.931 . S
C1189 C1188 1.351 . S
C1189 N1190 1.373 . S
C1189 H1217 0.930 . S
N1190 C1189 1.373 . S
N1190 C1192 1.340 . S
N1191 C1188 1.368 . S
N1191 C1192 1.321 . S
N1191 Co1194 2.135 . S
C1192 N1190 1.340 . S
C1192 N1191 1.321 . S
C1192 H1216 0.930 . S
H1193 C1188 0.931 . S
Co1194 N1191 2.135 . S
Co1194 N1197 2.121 . S
Co1194 O1202 2.055 . S
Co1194 O1205 2.039 . S
Co1194 N1208 2.140 . S
C1195 O1196 1.227 . S
C1195 O1205 1.265 . S
O1196 C1195 1.227 . S
N1197 Co1194 2.121 . S
N1197 C1199 1.375 . S
N1197 C1200 1.313 . S
C1198 C1199 1.338 . S
C1198 N1201 1.377 . S
C1198 H1218 0.930 . S
C1199 N1197 1.375 . S
C1199 C1198 1.338 . S
C1199 H1203 0.931 . S
C1200 N1197 1.313 . S
C1200 N1201 1.344 . S
C1200 H1204 0.930 . S
N1201 C1198 1.377 . S
N1201 C1200 1.344 . S
O1202 Co1194 2.055 . S
O1202 C1206 1.253 . S
H1203 C1199 0.931 . S
H1204 C1200 0.930 . S
O1205 Co1194 2.039 . S
O1205 C1195 1.265 . S
C1206 O1202 1.253 . S
C1206 O1207 1.227 . S
O1207 C1206 1.227 . S
N1208 Co1194 2.140 . S
N1208 C1211 1.346 . S
N1208 C1212 1.345 . S
C1209 C1210 1.387 . S
C1209 C1213 1.391 . S
C1210 C1209 1.387 . S
C1210 C1211 1.369 . S
C1210 H1219 0.929 . S
C1211 N1208 1.346 . S
C1211 C1210 1.369 . S
C1211 H1214 0.928 . S
C1212 N1208 1.345 . S
C1212 C1213 1.371 . S
C1212 H1215 0.931 . S
C1213 C1209 1.391 . S
C1213 C1212 1.371 . S
C1213 H1220 0.930 . S
H1214 C1211 0.928 . S
H1215 C1212 0.931 . S
H1216 C1192 0.930 . S
H1217 C1189 0.930 . S
H1218 C1198 0.930 . S
H1219 C1210 0.929 . S
H1220 C1213 0.930 . S
C1221 C1222 1.351 . S
C1221 N1224 1.368 . S
C1221 H1226 0.931 . S
C1222 C1221 1.351 . S
C1222 N1223 1.373 . S
C1222 H1250 0.930 . S
N1223 C1222 1.373 . S
N1223 C1225 1.340 . S
N1224 C1221 1.368 . S
N1224 C1225 1.321 . S
N1224 Co1227 2.135 . S
C1225 N1223 1.340 . S
C1225 N1224 1.321 . S
C1225 H1249 0.930 . S
H1226 C1221 0.931 . S
Co1227 N1224 2.135 . S
Co1227 N1230 2.121 . S
Co1227 O1235 2.055 . S
Co1227 O1238 2.039 . S
Co1227 N1241 2.140 . S
C1228 O1229 1.227 . S
C1228 O1238 1.265 . S
O1229 C1228 1.227 . S
N1230 Co1227 2.121 . S
N1230 C1232 1.375 . S
N1230 C1233 1.313 . S
C1231 C1232 1.338 . S
C1231 N1234 1.377 . S
C1231 H1251 0.930 . S
C1232 N1230 1.375 . S
C1232 C1231 1.338 . S
C1232 H1236 0.931 . S
C1233 N1230 1.313 . S
C1233 N1234 1.344 . S
C1233 H1237 0.930 . S
N1234 C1231 1.377 . S
N1234 C1233 1.344 . S
O1235 Co1227 2.055 . S
O1235 C1239 1.253 . S
H1236 C1232 0.931 . S
H1237 C1233 0.930 . S
O1238 Co1227 2.039 . S
O1238 C1228 1.265 . S
C1239 O1235 1.253 . S
C1239 O1240 1.227 . S
O1240 C1239 1.227 . S
N1241 Co1227 2.140 . S
N1241 C1244 1.346 . S
N1241 C1245 1.345 . S
C1242 C1243 1.387 . S
C1242 C1246 1.391 . S
C1243 C1242 1.387 . S
C1243 C1244 1.369 . S
C1243 H1252 0.929 . S
C1244 N1241 1.346 . S
C1244 C1243 1.369 . S
C1244 H1247 0.928 . S
C1245 N1241 1.345 . S
C1245 C1246 1.371 . S
C1245 H1248 0.931 . S
C1246 C1242 1.391 . S
C1246 C1245 1.371 . S
C1246 H1253 0.930 . S
H1247 C1244 0.928 . S
H1248 C1245 0.931 . S
H1249 C1225 0.930 . S
H1250 C1222 0.930 . S
H1251 C1231 0.930 . S
H1252 C1243 0.929 . S
H1253 C1246 0.930 . S
C1254 C1255 1.351 . S
C1254 N1257 1.368 . S
C1254 H1259 0.931 . S
C1255 C1254 1.351 . S
C1255 N1256 1.373 . S
C1255 H1283 0.930 . S
N1256 C1255 1.373 . S
N1256 C1258 1.340 . S
N1257 C1254 1.368 . S
N1257 C1258 1.321 . S
N1257 Co1260 2.135 . S
C1258 N1256 1.340 . S
C1258 N1257 1.321 . S
C1258 H1282 0.930 . S
H1259 C1254 0.931 . S
Co1260 N1257 2.135 . S
Co1260 N1263 2.121 . S
Co1260 O1268 2.055 . S
Co1260 O1271 2.039 . S
Co1260 N1274 2.140 . S
C1261 O1262 1.227 . S
C1261 O1271 1.265 . S
O1262 C1261 1.227 . S
N1263 Co1260 2.121 . S
N1263 C1265 1.375 . S
N1263 C1266 1.313 . S
C1264 C1265 1.338 . S
C1264 N1267 1.377 . S
C1264 H1284 0.930 . S
C1265 N1263 1.375 . S
C1265 C1264 1.338 . S
C1265 H1269 0.931 . S
C1266 N1263 1.313 . S
C1266 N1267 1.344 . S
C1266 H1270 0.930 . S
N1267 C1264 1.377 . S
N1267 C1266 1.344 . S
O1268 Co1260 2.055 . S
O1268 C1272 1.253 . S
H1269 C1265 0.931 . S
H1270 C1266 0.930 . S
O1271 Co1260 2.039 . S
O1271 C1261 1.265 . S
C1272 O1268 1.253 . S
C1272 O1273 1.227 . S
O1273 C1272 1.227 . S
N1274 Co1260 2.140 . S
N1274 C1277 1.346 . S
N1274 C1278 1.345 . S
C1275 C1276 1.387 . S
C1275 C1279 1.391 . S
C1276 C1275 1.387 . S
C1276 C1277 1.369 . S
C1276 H1285 0.929 . S
C1277 N1274 1.346 . S
C1277 C1276 1.369 . S
C1277 H1280 0.928 . S
C1278 N1274 1.345 . S
C1278 C1279 1.371 . S
C1278 H1281 0.931 . S
C1279 C1275 1.391 . S
C1279 C1278 1.371 . S
C1279 H1286 0.930 . S
H1280 C1277 0.928 . S
H1281 C1278 0.931 . S
H1282 C1258 0.930 . S
H1283 C1255 0.930 . S
H1284 C1264 0.930 . S
H1285 C1276 0.929 . S
H1286 C1279 0.930 . S
C1287 C1288 1.351 . S
C1287 N1290 1.368 . S
C1287 H1292 0.931 . S
C1288 C1287 1.351 . S
C1288 N1289 1.373 . S
C1288 H1316 0.930 . S
N1289 C1288 1.373 . S
N1289 C1291 1.340 . S
N1290 C1287 1.368 . S
N1290 C1291 1.321 . S
N1290 Co1293 2.135 . S
C1291 N1289 1.340 . S
C1291 N1290 1.321 . S
C1291 H1315 0.930 . S
H1292 C1287 0.931 . S
Co1293 N1290 2.135 . S
Co1293 N1296 2.121 . S
Co1293 O1301 2.055 . S
Co1293 O1304 2.039 . S
Co1293 N1307 2.140 . S
C1294 O1295 1.227 . S
C1294 O1304 1.265 . S
O1295 C1294 1.227 . S
N1296 Co1293 2.121 . S
N1296 C1298 1.375 . S
N1296 C1299 1.313 . S
C1297 C1298 1.338 . S
C1297 N1300 1.377 . S
C1297 H1317 0.930 . S
C1298 N1296 1.375 . S
C1298 C1297 1.338 . S
C1298 H1302 0.931 . S
C1299 N1296 1.313 . S
C1299 N1300 1.344 . S
C1299 H1303 0.930 . S
N1300 C1297 1.377 . S
N1300 C1299 1.344 . S
O1301 Co1293 2.055 . S
O1301 C1305 1.253 . S
H1302 C1298 0.931 . S
H1303 C1299 0.930 . S
O1304 Co1293 2.039 . S
O1304 C1294 1.265 . S
C1305 O1301 1.253 . S
C1305 O1306 1.227 . S
O1306 C1305 1.227 . S
N1307 Co1293 2.140 . S
N1307 C1310 1.346 . S
N1307 C1311 1.345 . S
C1308 C1309 1.387 . S
C1308 C1312 1.391 . S
C1309 C1308 1.387 . S
C1309 C1310 1.369 . S
C1309 H1318 0.929 . S
C1310 N1307 1.346 . S
C1310 C1309 1.369 . S
C1310 H1313 0.928 . S
C1311 N1307 1.345 . S
C1311 C1312 1.371 . S
C1311 H1314 0.931 . S
C1312 C1308 1.391 . S
C1312 C1311 1.371 . S
C1312 H1319 0.930 . S
H1313 C1310 0.928 . S
H1314 C1311 0.931 . S
H1315 C1291 0.930 . S
H1316 C1288 0.930 . S
H1317 C1297 0.930 . S
H1318 C1309 0.929 . S
H1319 C1312 0.930 . S
C1320 C1321 1.351 . S
C1320 N1323 1.368 . S
C1320 H1325 0.931 . S
C1321 C1320 1.351 . S
C1321 N1322 1.373 . S
C1321 H1349 0.930 . S
N1322 C1321 1.373 . S
N1322 C1324 1.340 . S
N1323 C1320 1.368 . S
N1323 C1324 1.321 . S
N1323 Co1326 2.135 . S
C1324 N1322 1.340 . S
C1324 N1323 1.321 . S
C1324 H1348 0.930 . S
H1325 C1320 0.931 . S
Co1326 N1323 2.135 . S
Co1326 N1329 2.121 . S
Co1326 O1334 2.055 . S
Co1326 O1337 2.039 . S
Co1326 N1340 2.140 . S
C1327 O1328 1.227 . S
C1327 O1337 1.265 . S
O1328 C1327 1.227 . S
N1329 Co1326 2.121 . S
N1329 C1331 1.375 . S
N1329 C1332 1.313 . S
C1330 C1331 1.338 . S
C1330 N1333 1.377 . S
C1330 H1350 0.930 . S
C1331 N1329 1.375 . S
C1331 C1330 1.338 . S
C1331 H1335 0.931 . S
C1332 N1329 1.313 . S
C1332 N1333 1.344 . S
C1332 H1336 0.930 . S
N1333 C1330 1.377 . S
N1333 C1332 1.344 . S
O1334 Co1326 2.055 . S
O1334 C1338 1.253 . S
H1335 C1331 0.931 . S
H1336 C1332 0.930 . S
O1337 Co1326 2.039 . S
O1337 C1327 1.265 . S
C1338 O1334 1.253 . S
C1338 O1339 1.227 . S
O1339 C1338 1.227 . S
N1340 Co1326 2.140 . S
N1340 C1343 1.346 . S
N1340 C1344 1.345 . S
C1341 C1342 1.387 . S
C1341 C1345 1.391 . S
C1342 C1341 1.387 . S
C1342 C1343 1.369 . S
C1342 H1351 0.929 . S
C1343 N1340 1.346 . S
C1343 C1342 1.369 . S
C1343 H1346 0.928 . S
C1344 N1340 1.345 . S
C1344 C1345 1.371 . S
C1344 H1347 0.931 . S
C1345 C1341 1.391 . S
C1345 C1344 1.371 . S
C1345 H1352 0.930 . S
H1346 C1343 0.928 . S
H1347 C1344 0.931 . S
H1348 C1324 0.930 . S
H1349 C1321 0.930 . S
H1350 C1330 0.930 . S
H1351 C1342 0.929 . S
H1352 C1345 0.930 . S
C1353 C1354 1.351 . S
C1353 N1356 1.368 . S
C1353 H1358 0.931 . S
C1354 C1353 1.351 . S
C1354 N1355 1.373 . S
C1354 H1382 0.930 . S
N1355 C1354 1.373 . S
N1355 C1357 1.340 . S
N1356 C1353 1.368 . S
N1356 C1357 1.321 . S
N1356 Co1359 2.135 . S
C1357 N1355 1.340 . S
C1357 N1356 1.321 . S
C1357 H1381 0.930 . S
H1358 C1353 0.931 . S
Co1359 N1356 2.135 . S
Co1359 N1362 2.121 . S
Co1359 O1367 2.055 . S
Co1359 O1370 2.039 . S
Co1359 N1373 2.140 . S
C1360 O1361 1.227 . S
C1360 O1370 1.265 . S
O1361 C1360 1.227 . S
N1362 Co1359 2.121 . S
N1362 C1364 1.375 . S
N1362 C1365 1.313 . S
C1363 C1364 1.338 . S
C1363 N1366 1.377 . S
C1363 H1383 0.930 . S
C1364 N1362 1.375 . S
C1364 C1363 1.338 . S
C1364 H1368 0.931 . S
C1365 N1362 1.313 . S
C1365 N1366 1.344 . S
C1365 H1369 0.930 . S
N1366 C1363 1.377 . S
N1366 C1365 1.344 . S
O1367 Co1359 2.055 . S
O1367 C1371 1.253 . S
H1368 C1364 0.931 . S
H1369 C1365 0.930 . S
O1370 Co1359 2.039 . S
O1370 C1360 1.265 . S
C1371 O1367 1.253 . S
C1371 O1372 1.227 . S
O1372 C1371 1.227 . S
N1373 Co1359 2.140 . S
N1373 C1376 1.346 . S
N1373 C1377 1.345 . S
C1374 C1375 1.387 . S
C1374 C1378 1.391 . S
C1375 C1374 1.387 . S
C1375 C1376 1.369 . S
C1375 H1384 0.929 . S
C1376 N1373 1.346 . S
C1376 C1375 1.369 . S
C1376 H1379 0.928 . S
C1377 N1373 1.345 . S
C1377 C1378 1.371 . S
C1377 H1380 0.931 . S
C1378 C1374 1.391 . S
C1378 C1377 1.371 . S
C1378 H1385 0.930 . S
H1379 C1376 0.928 . S
H1380 C1377 0.931 . S
H1381 C1357 0.930 . S
H1382 C1354 0.930 . S
H1383 C1363 0.930 . S
H1384 C1375 0.929 . S
H1385 C1378 0.930 . S
C1386 C1387 1.351 . S
C1386 N1389 1.368 . S
C1386 H1391 0.931 . S
C1387 C1386 1.351 . S
C1387 N1388 1.373 . S
C1387 H1415 0.930 . S
N1388 C1387 1.373 . S
N1388 C1390 1.340 . S
N1389 C1386 1.368 . S
N1389 C1390 1.321 . S
N1389 Co1392 2.135 . S
C1390 N1388 1.340 . S
C1390 N1389 1.321 . S
C1390 H1414 0.930 . S
H1391 C1386 0.931 . S
Co1392 N1389 2.135 . S
Co1392 N1395 2.121 . S
Co1392 O1400 2.055 . S
Co1392 O1403 2.039 . S
Co1392 N1406 2.140 . S
C1393 O1394 1.227 . S
C1393 O1403 1.265 . S
O1394 C1393 1.227 . S
N1395 Co1392 2.121 . S
N1395 C1397 1.375 . S
N1395 C1398 1.313 . S
C1396 C1397 1.338 . S
C1396 N1399 1.377 . S
C1396 H1416 0.930 . S
C1397 N1395 1.375 . S
C1397 C1396 1.338 . S
C1397 H1401 0.931 . S
C1398 N1395 1.313 . S
C1398 N1399 1.344 . S
C1398 H1402 0.930 . S
N1399 C1396 1.377 . S
N1399 C1398 1.344 . S
O1400 Co1392 2.055 . S
O1400 C1404 1.253 . S
H1401 C1397 0.931 . S
H1402 C1398 0.930 . S
O1403 Co1392 2.039 . S
O1403 C1393 1.265 . S
C1404 O1400 1.253 . S
C1404 O1405 1.227 . S
O1405 C1404 1.227 . S
N1406 Co1392 2.140 . S
N1406 C1409 1.346 . S
N1406 C1410 1.345 . S
C1407 C1408 1.387 . S
C1407 C1411 1.391 . S
C1408 C1407 1.387 . S
C1408 C1409 1.369 . S
C1408 H1417 0.929 . S
C1409 N1406 1.346 . S
C1409 C1408 1.369 . S
C1409 H1412 0.928 . S
C1410 N1406 1.345 . S
C1410 C1411 1.371 . S
C1410 H1413 0.931 . S
C1411 C1407 1.391 . S
C1411 C1410 1.371 . S
C1411 H1418 0.930 . S
H1412 C1409 0.928 . S
H1413 C1410 0.931 . S
H1414 C1390 0.930 . S
H1415 C1387 0.930 . S
H1416 C1396 0.930 . S
H1417 C1408 0.929 . S
H1418 C1411 0.930 . S
C1419 C1420 1.351 . S
C1419 N1422 1.368 . S
C1419 H1424 0.931 . S
C1420 C1419 1.351 . S
C1420 N1421 1.373 . S
C1420 H1448 0.930 . S
N1421 C1420 1.373 . S
N1421 C1423 1.340 . S
N1422 C1419 1.368 . S
N1422 C1423 1.321 . S
N1422 Co1425 2.135 . S
C1423 N1421 1.340 . S
C1423 N1422 1.321 . S
C1423 H1447 0.930 . S
H1424 C1419 0.931 . S
Co1425 N1422 2.135 . S
Co1425 N1428 2.121 . S
Co1425 O1433 2.055 . S
Co1425 O1436 2.039 . S
Co1425 N1439 2.140 . S
C1426 O1427 1.227 . S
C1426 O1436 1.265 . S
O1427 C1426 1.227 . S
N1428 Co1425 2.121 . S
N1428 C1430 1.375 . S
N1428 C1431 1.313 . S
C1429 C1430 1.338 . S
C1429 N1432 1.377 . S
C1429 H1449 0.930 . S
C1430 N1428 1.375 . S
C1430 C1429 1.338 . S
C1430 H1434 0.931 . S
C1431 N1428 1.313 . S
C1431 N1432 1.344 . S
C1431 H1435 0.930 . S
N1432 C1429 1.377 . S
N1432 C1431 1.344 . S
O1433 Co1425 2.055 . S
O1433 C1437 1.253 . S
H1434 C1430 0.931 . S
H1435 C1431 0.930 . S
O1436 Co1425 2.039 . S
O1436 C1426 1.265 . S
C1437 O1433 1.253 . S
C1437 O1438 1.227 . S
O1438 C1437 1.227 . S
N1439 Co1425 2.140 . S
N1439 C1442 1.346 . S
N1439 C1443 1.345 . S
C1440 C1441 1.387 . S
C1440 C1444 1.391 . S
C1441 C1440 1.387 . S
C1441 C1442 1.369 . S
C1441 H1450 0.929 . S
C1442 N1439 1.346 . S
C1442 C1441 1.369 . S
C1442 H1445 0.928 . S
C1443 N1439 1.345 . S
C1443 C1444 1.371 . S
C1443 H1446 0.931 . S
C1444 C1440 1.391 . S
C1444 C1443 1.371 . S
C1444 H1451 0.930 . S
H1445 C1442 0.928 . S
H1446 C1443 0.931 . S
H1447 C1423 0.930 . S
H1448 C1420 0.930 . S
H1449 C1429 0.930 . S
H1450 C1441 0.929 . S
H1451 C1444 0.930 . S
C1452 C1453 1.351 . S
C1452 N1455 1.368 . S
C1452 H1457 0.931 . S
C1453 C1452 1.351 . S
C1453 N1454 1.373 . S
C1453 H1481 0.930 . S
N1454 C1453 1.373 . S
N1454 C1456 1.340 . S
N1455 C1452 1.368 . S
N1455 C1456 1.321 . S
N1455 Co1458 2.135 . S
C1456 N1454 1.340 . S
C1456 N1455 1.321 . S
C1456 H1480 0.930 . S
H1457 C1452 0.931 . S
Co1458 N1455 2.135 . S
Co1458 N1461 2.121 . S
Co1458 O1466 2.055 . S
Co1458 O1469 2.039 . S
Co1458 N1472 2.140 . S
C1459 O1460 1.227 . S
C1459 O1469 1.265 . S
O1460 C1459 1.227 . S
N1461 Co1458 2.121 . S
N1461 C1463 1.375 . S
N1461 C1464 1.313 . S
C1462 C1463 1.338 . S
C1462 N1465 1.377 . S
C1462 H1482 0.930 . S
C1463 N1461 1.375 . S
C1463 C1462 1.338 . S
C1463 H1467 0.931 . S
C1464 N1461 1.313 . S
C1464 N1465 1.344 . S
C1464 H1468 0.930 . S
N1465 C1462 1.377 . S
N1465 C1464 1.344 . S
O1466 Co1458 2.055 . S
O1466 C1470 1.253 . S
H1467 C1463 0.931 . S
H1468 C1464 0.930 . S
O1469 Co1458 2.039 . S
O1469 C1459 1.265 . S
C1470 O1466 1.253 . S
C1470 O1471 1.227 . S
O1471 C1470 1.227 . S
N1472 Co1458 2.140 . S
N1472 C1475 1.346 . S
N1472 C1476 1.345 . S
C1473 C1474 1.387 . S
C1473 C1477 1.391 . S
C1474 C1473 1.387 . S
C1474 C1475 1.369 . S
C1474 H1483 0.929 . S
C1475 N1472 1.346 . S
C1475 C1474 1.369 . S
C1475 H1478 0.928 . S
C1476 N1472 1.345 . S
C1476 C1477 1.371 . S
C1476 H1479 0.931 . S
C1477 C1473 1.391 . S
C1477 C1476 1.371 . S
C1477 H1484 0.930 . S
H1478 C1475 0.928 . S
H1479 C1476 0.931 . S
H1480 C1456 0.930 . S
H1481 C1453 0.930 . S
H1482 C1462 0.930 . S
H1483 C1474 0.929 . S
H1484 C1477 0.930 . S
C1485 C1486 1.351 . S
C1485 N1488 1.368 . S
C1485 H1490 0.931 . S
C1486 C1485 1.351 . S
C1486 N1487 1.373 . S
C1486 H1514 0.930 . S
N1487 C1486 1.373 . S
N1487 C1489 1.340 . S
N1488 C1485 1.368 . S
N1488 C1489 1.321 . S
N1488 Co1491 2.135 . S
C1489 N1487 1.340 . S
C1489 N1488 1.321 . S
C1489 H1513 0.930 . S
H1490 C1485 0.931 . S
Co1491 N1488 2.135 . S
Co1491 N1494 2.121 . S
Co1491 O1499 2.055 . S
Co1491 O1502 2.039 . S
Co1491 N1505 2.140 . S
C1492 O1493 1.227 . S
C1492 O1502 1.265 . S
O1493 C1492 1.227 . S
N1494 Co1491 2.121 . S
N1494 C1496 1.375 . S
N1494 C1497 1.313 . S
C1495 C1496 1.338 . S
C1495 N1498 1.377 . S
C1495 H1515 0.930 . S
C1496 N1494 1.375 . S
C1496 C1495 1.338 . S
C1496 H1500 0.931 . S
C1497 N1494 1.313 . S
C1497 N1498 1.344 . S
C1497 H1501 0.930 . S
N1498 C1495 1.377 . S
N1498 C1497 1.344 . S
O1499 Co1491 2.055 . S
O1499 C1503 1.253 . S
H1500 C1496 0.931 . S
H1501 C1497 0.930 . S
O1502 Co1491 2.039 . S
O1502 C1492 1.265 . S
C1503 O1499 1.253 . S
C1503 O1504 1.227 . S
O1504 C1503 1.227 . S
N1505 Co1491 2.140 . S
N1505 C1508 1.346 . S
N1505 C1509 1.345 . S
C1506 C1507 1.387 . S
C1506 C1510 1.391 . S
C1507 C1506 1.387 . S
C1507 C1508 1.369 . S
C1507 H1516 0.929 . S
C1508 N1505 1.346 . S
C1508 C1507 1.369 . S
C1508 H1511 0.928 . S
C1509 N1505 1.345 . S
C1509 C1510 1.371 . S
C1509 H1512 0.931 . S
C1510 C1506 1.391 . S
C1510 C1509 1.371 . S
C1510 H1517 0.930 . S
H1511 C1508 0.928 . S
H1512 C1509 0.931 . S
H1513 C1489 0.930 . S
H1514 C1486 0.930 . S
H1515 C1495 0.930 . S
H1516 C1507 0.929 . S
H1517 C1510 0.930 . S
C1518 C1519 1.351 . S
C1518 N1521 1.368 . S
C1518 H1523 0.931 . S
C1519 C1518 1.351 . S
C1519 N1520 1.373 . S
C1519 H1547 0.930 . S
N1520 C1519 1.373 . S
N1520 C1522 1.340 . S
N1521 C1518 1.368 . S
N1521 C1522 1.321 . S
N1521 Co1524 2.135 . S
C1522 N1520 1.340 . S
C1522 N1521 1.321 . S
C1522 H1546 0.930 . S
H1523 C1518 0.931 . S
Co1524 N1521 2.135 . S
Co1524 N1527 2.121 . S
Co1524 O1532 2.055 . S
Co1524 O1535 2.039 . S
Co1524 N1538 2.140 . S
C1525 O1526 1.227 . S
C1525 O1535 1.265 . S
O1526 C1525 1.227 . S
N1527 Co1524 2.121 . S
N1527 C1529 1.375 . S
N1527 C1530 1.313 . S
C1528 C1529 1.338 . S
C1528 N1531 1.377 . S
C1528 H1548 0.930 . S
C1529 N1527 1.375 . S
C1529 C1528 1.338 . S
C1529 H1533 0.931 . S
C1530 N1527 1.313 . S
C1530 N1531 1.344 . S
C1530 H1534 0.930 . S
N1531 C1528 1.377 . S
N1531 C1530 1.344 . S
O1532 Co1524 2.055 . S
O1532 C1536 1.253 . S
H1533 C1529 0.931 . S
H1534 C1530 0.930 . S
O1535 Co1524 2.039 . S
O1535 C1525 1.265 . S
C1536 O1532 1.253 . S
C1536 O1537 1.227 . S
O1537 C1536 1.227 . S
N1538 Co1524 2.140 . S
N1538 C1541 1.346 . S
N1538 C1542 1.345 . S
C1539 C1540 1.387 . S
C1539 C1543 1.391 . S
C1540 C1539 1.387 . S
C1540 C1541 1.369 . S
C1540 H1549 0.929 . S
C1541 N1538 1.346 . S
C1541 C1540 1.369 . S
C1541 H1544 0.928 . S
C1542 N1538 1.345 . S
C1542 C1543 1.371 . S
C1542 H1545 0.931 . S
C1543 C1539 1.391 . S
C1543 C1542 1.371 . S
C1543 H1550 0.930 . S
H1544 C1541 0.928 . S
H1545 C1542 0.931 . S
H1546 C1522 0.930 . S
H1547 C1519 0.930 . S
H1548 C1528 0.930 . S
H1549 C1540 0.929 . S
H1550 C1543 0.930 . S
C1551 C1552 1.351 . S
C1551 N1554 1.368 . S
C1551 H1556 0.931 . S
C1552 C1551 1.351 . S
C1552 N1553 1.373 . S
C1552 H1580 0.930 . S
N1553 C1552 1.373 . S
N1553 C1555 1.340 . S
N1554 C1551 1.368 . S
N1554 C1555 1.321 . S
N1554 Co1557 2.135 . S
C1555 N1553 1.340 . S
C1555 N1554 1.321 . S
C1555 H1579 0.930 . S
H1556 C1551 0.931 . S
Co1557 N1554 2.135 . S
Co1557 N1560 2.121 . S
Co1557 O1565 2.055 . S
Co1557 O1568 2.039 . S
Co1557 N1571 2.140 . S
C1558 O1559 1.227 . S
C1558 O1568 1.265 . S
O1559 C1558 1.227 . S
N1560 Co1557 2.121 . S
N1560 C1562 1.375 . S
N1560 C1563 1.313 . S
C1561 C1562 1.338 . S
C1561 N1564 1.377 . S
C1561 H1581 0.930 . S
C1562 N1560 1.375 . S
C1562 C1561 1.338 . S
C1562 H1566 0.931 . S
C1563 N1560 1.313 . S
C1563 N1564 1.344 . S
C1563 H1567 0.930 . S
N1564 C1561 1.377 . S
N1564 C1563 1.344 . S
O1565 Co1557 2.055 . S
O1565 C1569 1.253 . S
H1566 C1562 0.931 . S
H1567 C1563 0.930 . S
O1568 Co1557 2.039 . S
O1568 C1558 1.265 . S
C1569 O1565 1.253 . S
C1569 O1570 1.227 . S
O1570 C1569 1.227 . S
N1571 Co1557 2.140 . S
N1571 C1574 1.346 . S
N1571 C1575 1.345 . S
C1572 C1573 1.387 . S
C1572 C1576 1.391 . S
C1573 C1572 1.387 . S
C1573 C1574 1.369 . S
C1573 H1582 0.929 . S
C1574 N1571 1.346 . S
C1574 C1573 1.369 . S
C1574 H1577 0.928 . S
C1575 N1571 1.345 . S
C1575 C1576 1.371 . S
C1575 H1578 0.931 . S
C1576 C1572 1.391 . S
C1576 C1575 1.371 . S
C1576 H1583 0.930 . S
H1577 C1574 0.928 . S
H1578 C1575 0.931 . S
H1579 C1555 0.930 . S
H1580 C1552 0.930 . S
H1581 C1561 0.930 . S
H1582 C1573 0.929 . S
H1583 C1576 0.930 . S
C1584 C1585 1.363 . S
C1584 C1590 1.379 . S
C1584 N1592 1.356 . S
C1585 C1584 1.363 . S
C1585 C1591 1.363 . S
C1586 C1587 1.363 . S
C1586 C1591 1.379 . S
C1586 N1593 1.356 . S
C1587 C1586 1.363 . S
C1587 C1590 1.363 . S
N1588 C1590 1.356 . S
N1588 H1600 0.984 . S
N1588 H1601 0.985 . S
N1589 C1591 1.356 1_554 S
N1589 H1594 0.984 . S
N1589 H1595 0.985 . S
C1590 C1584 1.379 . S
C1590 C1587 1.363 . S
C1590 N1588 1.356 . S
C1591 C1585 1.363 . S
C1591 C1586 1.379 . S
C1591 N1589 1.356 1_556 S
N1592 C1584 1.356 . S
N1592 H1598 0.984 . S
N1592 H1599 0.984 1_556 S
N1593 C1586 1.356 . S
N1593 H1596 0.984 . S
N1593 H1597 0.985 . S
H1594 N1589 0.984 . S
H1595 N1589 0.985 . S
H1596 N1593 0.984 . S
H1597 N1593 0.985 . S
H1598 N1592 0.984 . S
H1599 N1592 0.984 1_554 S
H1600 N1588 0.984 . S
H1601 N1588 0.985 . S
C1602 C1603 1.363 . S
C1602 C1608 1.379 . S
C1602 N1610 1.356 . S
C1603 C1602 1.363 . S
C1603 C1609 1.363 . S
C1604 C1605 1.363 . S
C1604 C1609 1.379 . S
C1604 N1611 1.356 . S
C1605 C1604 1.363 . S
C1605 C1608 1.363 . S
N1606 C1608 1.356 . S
N1606 H1618 0.984 . S
N1606 H1619 0.985 . S
N1607 C1609 1.356 . S
N1607 H1612 0.984 . S
N1607 H1613 0.985 . S
C1608 C1602 1.379 . S
C1608 C1605 1.363 . S
C1608 N1606 1.356 . S
C1609 C1603 1.363 . S
C1609 C1604 1.379 . S
C1609 N1607 1.356 . S
N1610 C1602 1.356 . S
N1610 H1616 0.984 . S
N1610 H1617 0.984 . S
N1611 C1604 1.356 . S
N1611 H1614 0.984 . S
N1611 H1615 0.985 . S
H1612 N1607 0.984 . S
H1613 N1607 0.985 . S
H1614 N1611 0.984 . S
H1615 N1611 0.985 . S
H1616 N1610 0.984 . S
H1617 N1610 0.984 . S
H1618 N1606 0.984 . S
H1619 N1606 0.985 . S
C1620 C1621 1.363 . S
C1620 C1626 1.379 . S
C1620 N1628 1.356 . S
C1621 C1620 1.363 . S
C1621 C1627 1.363 . S
C1622 C1623 1.363 . S
C1622 C1627 1.379 . S
C1622 N1629 1.356 . S
C1623 C1622 1.363 . S
C1623 C1626 1.363 . S
N1624 C1626 1.356 . S
N1624 H1636 0.984 . S
N1624 H1637 0.985 . S
N1625 C1627 1.356 . S
N1625 H1630 0.984 . S
N1625 H1631 0.985 . S
C1626 C1620 1.379 . S
C1626 C1623 1.363 . S
C1626 N1624 1.356 . S
C1627 C1621 1.363 . S
C1627 C1622 1.379 . S
C1627 N1625 1.356 . S
N1628 C1620 1.356 . S
N1628 H1634 0.984 . S
N1628 H1635 0.984 . S
N1629 C1622 1.356 . S
N1629 H1632 0.984 . S
N1629 H1633 0.985 . S
H1630 N1625 0.984 . S
H1631 N1625 0.985 . S
H1632 N1629 0.984 . S
H1633 N1629 0.985 . S
H1634 N1628 0.984 . S
H1635 N1628 0.984 . S
H1636 N1624 0.984 . S
H1637 N1624 0.985 . S
C1638 C1639 1.363 . S
C1638 C1644 1.379 . S
C1638 N1646 1.356 . S
C1639 C1638 1.363 . S
C1639 C1645 1.363 . S
C1640 C1641 1.363 . S
C1640 C1645 1.379 . S
C1640 N1647 1.356 . S
C1641 C1640 1.363 . S
C1641 C1644 1.363 . S
N1642 C1644 1.356 . S
N1642 H1654 0.984 . S
N1642 H1655 0.985 . S
N1643 C1645 1.356 . S
N1643 H1648 0.984 . S
N1643 H1649 0.985 . S
C1644 C1638 1.379 . S
C1644 C1641 1.363 . S
C1644 N1642 1.356 . S
C1645 C1639 1.363 . S
C1645 C1640 1.379 . S
C1645 N1643 1.356 . S
N1646 C1638 1.356 . S
N1646 H1652 0.984 . S
N1646 H1653 0.984 . S
N1647 C1640 1.356 . S
N1647 H1650 0.984 . S
N1647 H1651 0.985 . S
H1648 N1643 0.984 . S
H1649 N1643 0.985 . S
H1650 N1647 0.984 . S
H1651 N1647 0.985 . S
H1652 N1646 0.984 . S
H1653 N1646 0.984 . S
H1654 N1642 0.984 . S
H1655 N1642 0.985 . S
C1656 C1657 1.363 . S
C1656 C1662 1.379 . S
C1656 N1664 1.356 . S
C1657 C1656 1.363 . S
C1657 C1663 1.363 . S
C1658 C1659 1.363 . S
C1658 C1663 1.379 . S
C1658 N1665 1.356 . S
C1659 C1658 1.363 . S
C1659 C1662 1.363 . S
N1660 C1662 1.356 . S
N1660 H1672 0.984 . S
N1660 H1673 0.985 . S
N1661 C1663 1.356 . S
N1661 H1666 0.984 . S
N1661 H1667 0.985 . S
C1662 C1656 1.379 . S
C1662 C1659 1.363 . S
C1662 N1660 1.356 . S
C1663 C1657 1.363 . S
C1663 C1658 1.379 . S
C1663 N1661 1.356 . S
N1664 C1656 1.356 . S
N1664 H1670 0.984 . S
N1664 H1671 0.984 . S
N1665 C1658 1.356 . S
N1665 H1668 0.984 . S
N1665 H1669 0.985 . S
H1666 N1661 0.984 . S
H1667 N1661 0.985 . S
H1668 N1665 0.984 . S
H1669 N1665 0.985 . S
H1670 N1664 0.984 . S
H1671 N1664 0.984 . S
H1672 N1660 0.984 . S
H1673 N1660 0.985 . S
C1674 C1675 1.363 . S
C1674 C1680 1.379 . S
C1674 N1682 1.356 . S
C1675 C1674 1.363 . S
C1675 C1681 1.363 . S
C1676 C1677 1.363 . S
C1676 C1681 1.379 . S
C1676 N1683 1.356 . S
C1677 C1676 1.363 . S
C1677 C1680 1.363 . S
N1678 C1680 1.356 . S
N1678 H1690 0.984 . S
N1678 H1691 0.985 . S
N1679 C1681 1.356 . S
N1679 H1684 0.984 . S
N1679 H1685 0.985 . S
C1680 C1674 1.379 . S
C1680 C1677 1.363 . S
C1680 N1678 1.356 . S
C1681 C1675 1.363 . S
C1681 C1676 1.379 . S
C1681 N1679 1.356 . S
N1682 C1674 1.356 . S
N1682 H1688 0.984 . S
N1682 H1689 0.984 . S
N1683 C1676 1.356 . S
N1683 H1686 0.984 . S
N1683 H1687 0.985 . S
H1684 N1679 0.984 . S
H1685 N1679 0.985 . S
H1686 N1683 0.984 . S
H1687 N1683 0.985 . S
H1688 N1682 0.984 . S
H1689 N1682 0.984 . S
H1690 N1678 0.984 . S
H1691 N1678 0.985 . S
C1692 C1693 1.363 1_554 S
C1692 C1698 1.379 . S
C1692 N1700 1.357 . S
C1693 C1692 1.363 1_556 S
C1693 C1699 1.363 . S
C1694 C1695 1.363 . S
C1694 C1699 1.379 1_554 S
C1694 N1701 1.356 . S
C1695 C1694 1.363 . S
C1695 C1698 1.363 . S
N1696 C1698 1.356 . S
N1696 H1708 0.984 . S
N1696 H1709 0.985 . S
N1697 C1699 1.356 . S
N1697 H1702 0.984 . S
N1697 H1703 0.985 . S
C1698 C1692 1.379 . S
C1698 C1695 1.363 . S
C1698 N1696 1.356 . S
C1699 C1693 1.363 . S
C1699 C1694 1.379 1_556 S
C1699 N1697 1.356 . S
N1700 C1692 1.357 . S
N1700 H1706 0.989 . S
N1700 H1707 0.979 1_554 S
N1701 C1694 1.356 . S
N1701 H1704 0.984 . S
N1701 H1705 0.985 1_554 S
H1702 N1697 0.984 . S
H1703 N1697 0.985 . S
H1704 N1701 0.984 . S
H1705 N1701 0.985 1_556 S
H1706 N1700 0.989 . S
H1707 N1700 0.979 1_556 S
H1708 N1696 0.984 . S
H1709 N1696 0.985 . S
C1710 C1711 1.363 . S
C1710 C1716 1.379 . S
C1710 N1718 1.356 . S
C1711 C1710 1.363 . S
C1711 C1717 1.363 . S
C1712 C1713 1.363 . S
C1712 C1717 1.379 . S
C1712 N1719 1.356 . S
C1713 C1712 1.363 . S
C1713 C1716 1.363 . S
N1714 C1716 1.356 . S
N1714 H1726 0.984 . S
N1714 H1727 0.985 . S
N1715 C1717 1.356 . S
N1715 H1720 0.984 . S
N1715 H1721 0.985 . S
C1716 C1710 1.379 . S
C1716 C1713 1.363 . S
C1716 N1714 1.356 . S
C1717 C1711 1.363 . S
C1717 C1712 1.379 . S
C1717 N1715 1.356 . S
N1718 C1710 1.356 . S
N1718 H1724 0.984 . S
N1718 H1725 0.984 . S
N1719 C1712 1.356 . S
N1719 H1722 0.984 . S
N1719 H1723 0.985 . S
H1720 N1715 0.984 . S
H1721 N1715 0.985 . S
H1722 N1719 0.984 . S
H1723 N1719 0.985 . S
H1724 N1718 0.984 . S
H1725 N1718 0.984 . S
H1726 N1714 0.984 . S
H1727 N1714 0.985 . S
C1728 C1729 1.363 . S
C1728 C1734 1.379 . S
C1728 N1736 1.356 . S
C1729 C1728 1.363 . S
C1729 C1735 1.363 . S
C1730 C1731 1.363 . S
C1730 C1735 1.379 . S
C1730 N1737 1.356 . S
C1731 C1730 1.363 . S
C1731 C1734 1.363 . S
N1732 C1734 1.356 1_455 S
N1732 H1744 0.984 . S
N1732 H1745 0.985 . S
N1733 C1735 1.356 . S
N1733 H1738 0.984 . S
N1733 H1739 0.985 . S
C1734 C1728 1.379 . S
C1734 C1731 1.363 . S
C1734 N1732 1.356 1_655 S
C1735 C1729 1.363 . S
C1735 C1730 1.379 . S
C1735 N1733 1.356 . S
N1736 C1728 1.356 . S
N1736 H1742 0.984 . S
N1736 H1743 0.984 . S
N1737 C1730 1.356 . S
N1737 H1740 0.984 . S
N1737 H1741 0.985 . S
H1738 N1733 0.984 . S
H1739 N1733 0.985 . S
H1740 N1737 0.984 . S
H1741 N1737 0.985 . S
H1742 N1736 0.984 . S
H1743 N1736 0.984 . S
H1744 N1732 0.984 . S
H1745 N1732 0.985 . S
C1746 C1747 1.363 . S
C1746 C1752 1.379 . S
C1746 N1754 1.356 . S
C1747 C1746 1.363 . S
C1747 C1753 1.363 . S
C1748 C1749 1.363 . S
C1748 C1753 1.379 . S
C1748 N1755 1.356 . S
C1749 C1748 1.363 . S
C1749 C1752 1.363 . S
N1750 C1752 1.356 . S
N1750 H1762 0.984 . S
N1750 H1763 0.985 . S
N1751 C1753 1.356 . S
N1751 H1756 0.984 . S
N1751 H1757 0.985 . S
C1752 C1746 1.379 . S
C1752 C1749 1.363 . S
C1752 N1750 1.356 . S
C1753 C1747 1.363 . S
C1753 C1748 1.379 . S
C1753 N1751 1.356 . S
N1754 C1746 1.356 . S
N1754 H1760 0.984 . S
N1754 H1761 0.984 . S
N1755 C1748 1.356 . S
N1755 H1758 0.984 . S
N1755 H1759 0.985 . S
H1756 N1751 0.984 . S
H1757 N1751 0.985 . S
H1758 N1755 0.984 . S
H1759 N1755 0.985 . S
H1760 N1754 0.984 . S
H1761 N1754 0.984 . S
H1762 N1750 0.984 . S
H1763 N1750 0.985 . S
C1764 C1765 1.363 . S
C1764 C1770 1.379 . S
C1764 N1772 1.356 . S
C1765 C1764 1.363 . S
C1765 C1771 1.363 . S
C1766 C1767 1.363 . S
C1766 C1771 1.379 . S
C1766 N1773 1.356 . S
C1767 C1766 1.363 . S
C1767 C1770 1.363 . S
N1768 C1770 1.356 . S
N1768 H1780 0.984 . S
N1768 H1781 0.985 . S
N1769 C1771 1.356 . S
N1769 H1774 0.984 . S
N1769 H1775 0.985 . S
C1770 C1764 1.379 . S
C1770 C1767 1.363 . S
C1770 N1768 1.356 . S
C1771 C1765 1.363 . S
C1771 C1766 1.379 . S
C1771 N1769 1.356 . S
N1772 C1764 1.356 . S
N1772 H1778 0.984 . S
N1772 H1779 0.984 . S
N1773 C1766 1.356 . S
N1773 H1776 0.984 . S
N1773 H1777 0.985 . S
H1774 N1769 0.984 . S
H1775 N1769 0.985 . S
H1776 N1773 0.984 . S
H1777 N1773 0.985 . S
H1778 N1772 0.984 . S
H1779 N1772 0.984 . S
H1780 N1768 0.984 . S
H1781 N1768 0.985 . S
C1782 C1783 1.363 . S
C1782 C1788 1.379 . S
C1782 N1790 1.356 . S
C1783 C1782 1.363 . S
C1783 C1789 1.363 . S
C1784 C1785 1.363 . S
C1784 C1789 1.379 . S
C1784 N1791 1.356 . S
C1785 C1784 1.363 . S
C1785 C1788 1.363 . S
N1786 C1788 1.356 . S
N1786 H1798 0.984 . S
N1786 H1799 0.985 . S
N1787 C1789 1.356 . S
N1787 H1792 0.984 . S
N1787 H1793 0.985 . S
C1788 C1782 1.379 . S
C1788 C1785 1.363 . S
C1788 N1786 1.356 . S
C1789 C1783 1.363 . S
C1789 C1784 1.379 . S
C1789 N1787 1.356 . S
N1790 C1782 1.356 . S
N1790 H1796 0.984 . S
N1790 H1797 0.984 . S
N1791 C1784 1.356 . S
N1791 H1794 0.984 . S
N1791 H1795 0.985 . S
H1792 N1787 0.984 . S
H1793 N1787 0.985 . S
H1794 N1791 0.984 . S
H1795 N1791 0.985 . S
H1796 N1790 0.984 . S
H1797 N1790 0.984 . S
H1798 N1786 0.984 . S
H1799 N1786 0.985 . S
C1800 C1801 1.363 . S
C1800 C1806 1.379 . S
C1800 N1808 1.356 1_655 S
C1801 C1800 1.363 . S
C1801 C1807 1.363 . S
C1802 C1803 1.363 . S
C1802 C1807 1.379 . S
C1802 N1809 1.356 . S
C1803 C1802 1.363 . S
C1803 C1806 1.363 . S
N1804 C1806 1.356 . S
N1804 H1816 0.984 . S
N1804 H1817 0.985 . S
N1805 C1807 1.356 . S
N1805 H1810 0.984 . S
N1805 H1811 0.985 . S
C1806 C1800 1.379 . S
C1806 C1803 1.363 . S
C1806 N1804 1.356 . S
C1807 C1801 1.363 . S
C1807 C1802 1.379 . S
C1807 N1805 1.356 . S
N1808 C1800 1.356 1_455 S
N1808 H1814 0.984 . S
N1808 H1815 0.984 . S
N1809 C1802 1.356 . S
N1809 H1812 0.984 . S
N1809 H1813 0.985 . S
H1810 N1805 0.984 . S
H1811 N1805 0.985 . S
H1812 N1809 0.984 . S
H1813 N1809 0.985 . S
H1814 N1808 0.984 . S
H1815 N1808 0.984 . S
H1816 N1804 0.984 . S
H1817 N1804 0.985 . S
C1818 C1819 1.363 . S
C1818 C1824 1.379 . S
C1818 N1826 1.356 . S
C1819 C1818 1.363 . S
C1819 C1825 1.363 . S
C1820 C1821 1.363 . S
C1820 C1825 1.379 . S
C1820 N1827 1.356 . S
C1821 C1820 1.363 . S
C1821 C1824 1.363 . S
N1822 C1824 1.356 . S
N1822 H1834 0.984 . S
N1822 H1835 0.985 . S
N1823 C1825 1.356 . S
N1823 H1828 0.984 . S
N1823 H1829 0.985 . S
C1824 C1818 1.379 . S
C1824 C1821 1.363 . S
C1824 N1822 1.356 . S
C1825 C1819 1.363 . S
C1825 C1820 1.379 . S
C1825 N1823 1.356 . S
N1826 C1818 1.356 . S
N1826 H1832 0.984 . S
N1826 H1833 0.984 . S
N1827 C1820 1.356 . S
N1827 H1830 0.984 . S
N1827 H1831 0.985 . S
H1828 N1823 0.984 . S
H1829 N1823 0.985 . S
H1830 N1827 0.984 . S
H1831 N1827 0.985 . S
H1832 N1826 0.984 . S
H1833 N1826 0.984 . S
H1834 N1822 0.984 . S
H1835 N1822 0.985 . S
C1836 C1837 1.363 . S
C1836 C1842 1.379 . S
C1836 N1844 1.356 . S
C1837 C1836 1.363 . S
C1837 C1843 1.363 . S
C1838 C1839 1.363 . S
C1838 C1843 1.379 . S
C1838 N1845 1.356 . S
C1839 C1838 1.363 . S
C1839 C1842 1.363 . S
N1840 C1842 1.356 . S
N1840 H1852 0.984 . S
N1840 H1853 0.985 . S
N1841 C1843 1.356 . S
N1841 H1846 0.984 . S
N1841 H1847 0.985 . S
C1842 C1836 1.379 . S
C1842 C1839 1.363 . S
C1842 N1840 1.356 . S
C1843 C1837 1.363 . S
C1843 C1838 1.379 . S
C1843 N1841 1.356 . S
N1844 C1836 1.356 . S
N1844 H1850 0.984 . S
N1844 H1851 0.984 . S
N1845 C1838 1.356 . S
N1845 H1848 0.984 . S
N1845 H1849 0.985 . S
H1846 N1841 0.984 . S
H1847 N1841 0.985 . S
H1848 N1845 0.984 . S
H1849 N1845 0.985 . S
H1850 N1844 0.984 . S
H1851 N1844 0.984 . S
H1852 N1840 0.984 . S
H1853 N1840 0.985 . S
C1854 C1855 1.363 . S
C1854 C1860 1.379 . S
C1854 N1862 1.356 . S
C1855 C1854 1.363 . S
C1855 C1861 1.363 . S
C1856 C1857 1.363 . S
C1856 C1861 1.379 . S
C1856 N1863 1.356 . S
C1857 C1856 1.363 . S
C1857 C1860 1.363 . S
N1858 C1860 1.356 . S
N1858 H1870 0.984 . S
N1858 H1871 0.985 . S
N1859 C1861 1.356 . S
N1859 H1864 0.984 . S
N1859 H1865 0.985 . S
C1860 C1854 1.379 . S
C1860 C1857 1.363 . S
C1860 N1858 1.356 . S
C1861 C1855 1.363 . S
C1861 C1856 1.379 . S
C1861 N1859 1.356 . S
N1862 C1854 1.356 . S
N1862 H1868 0.984 . S
N1862 H1869 0.984 . S
N1863 C1856 1.356 . S
N1863 H1866 0.984 . S
N1863 H1867 0.985 . S
H1864 N1859 0.984 . S
H1865 N1859 0.985 . S
H1866 N1863 0.984 . S
H1867 N1863 0.985 . S
H1868 N1862 0.984 . S
H1869 N1862 0.984 . S
H1870 N1858 0.984 . S
H1871 N1858 0.985 . S
C1872 C1873 1.363 . S
C1872 C1878 1.379 . S
C1872 N1880 1.356 . S
C1873 C1872 1.363 . S
C1873 C1879 1.363 . S
C1874 C1875 1.363 . S
C1874 C1879 1.379 . S
C1874 N1881 1.356 . S
C1875 C1874 1.363 . S
C1875 C1878 1.363 . S
N1876 C1878 1.356 1_545 S
N1876 H1888 0.984 . S
N1876 H1889 0.985 . S
N1877 C1879 1.356 . S
N1877 H1882 0.984 . S
N1877 H1883 0.985 . S
C1878 C1872 1.379 . S
C1878 C1875 1.363 . S
C1878 N1876 1.356 1_565 S
C1879 C1873 1.363 . S
C1879 C1874 1.379 . S
C1879 N1877 1.356 . S
N1880 C1872 1.356 . S
N1880 H1886 0.984 . S
N1880 H1887 0.984 . S
N1881 C1874 1.356 . S
N1881 H1884 0.984 1_565 S
N1881 H1885 0.985 . S
H1882 N1877 0.984 . S
H1883 N1877 0.985 . S
H1884 N1881 0.984 1_545 S
H1885 N1881 0.985 . S
H1886 N1880 0.984 . S
H1887 N1880 0.984 . S
H1888 N1876 0.984 . S
H1889 N1876 0.985 . S
C1890 C1891 1.363 . S
C1890 C1896 1.379 . S
C1890 N1898 1.356 . S
C1891 C1890 1.363 . S
C1891 C1897 1.363 . S
C1892 C1893 1.363 . S
C1892 C1897 1.379 . S
C1892 N1899 1.356 . S
C1893 C1892 1.363 . S
C1893 C1896 1.363 . S
N1894 C1896 1.356 . S
N1894 H1906 0.984 . S
N1894 H1907 0.985 . S
N1895 C1897 1.356 . S
N1895 H1900 0.984 . S
N1895 H1901 0.985 . S
C1896 C1890 1.379 . S
C1896 C1893 1.363 . S
C1896 N1894 1.356 . S
C1897 C1891 1.363 . S
C1897 C1892 1.379 . S
C1897 N1895 1.356 . S
N1898 C1890 1.356 . S
N1898 H1904 0.984 . S
N1898 H1905 0.984 . S
N1899 C1892 1.356 . S
N1899 H1902 0.984 . S
N1899 H1903 0.985 . S
H1900 N1895 0.984 . S
H1901 N1895 0.985 . S
H1902 N1899 0.984 . S
H1903 N1899 0.985 . S
H1904 N1898 0.984 . S
H1905 N1898 0.984 . S
H1906 N1894 0.984 . S
H1907 N1894 0.985 . S
C1908 C1909 1.363 . S
C1908 C1914 1.379 . S
C1908 N1916 1.356 . S
C1909 C1908 1.363 . S
C1909 C1915 1.363 . S
C1910 C1911 1.363 . S
C1910 C1915 1.379 . S
C1910 N1917 1.356 . S
C1911 C1910 1.363 . S
C1911 C1914 1.363 . S
N1912 C1914 1.356 . S
N1912 H1924 0.984 . S
N1912 H1925 0.985 . S
N1913 C1915 1.356 . S
N1913 H1918 0.984 . S
N1913 H1919 0.985 . S
C1914 C1908 1.379 . S
C1914 C1911 1.363 . S
C1914 N1912 1.356 . S
C1915 C1909 1.363 . S
C1915 C1910 1.379 . S
C1915 N1913 1.356 . S
N1916 C1908 1.356 . S
N1916 H1922 0.984 . S
N1916 H1923 0.984 . S
N1917 C1910 1.356 . S
N1917 H1920 0.984 . S
N1917 H1921 0.985 . S
H1918 N1913 0.984 . S
H1919 N1913 0.985 . S
H1920 N1917 0.984 . S
H1921 N1917 0.985 . S
H1922 N1916 0.984 . S
H1923 N1916 0.984 . S
H1924 N1912 0.984 . S
H1925 N1912 0.985 . S
C1926 C1927 1.363 . S
C1926 C1932 1.379 . S
C1926 N1934 1.356 . S
C1927 C1926 1.363 . S
C1927 C1933 1.363 . S
C1928 C1929 1.363 . S
C1928 C1933 1.379 . S
C1928 N1935 1.356 . S
C1929 C1928 1.363 . S
C1929 C1932 1.363 . S
N1930 C1932 1.356 . S
N1930 H1942 0.984 . S
N1930 H1943 0.985 . S
N1931 C1933 1.356 . S
N1931 H1936 0.984 . S
N1931 H1937 0.985 . S
C1932 C1926 1.379 . S
C1932 C1929 1.363 . S
C1932 N1930 1.356 . S
C1933 C1927 1.363 . S
C1933 C1928 1.379 . S
C1933 N1931 1.356 . S
N1934 C1926 1.356 . S
N1934 H1940 0.984 . S
N1934 H1941 0.984 . S
N1935 C1928 1.356 . S
N1935 H1938 0.984 . S
N1935 H1939 0.985 . S
H1936 N1931 0.984 . S
H1937 N1931 0.985 . S
H1938 N1935 0.984 . S
H1939 N1935 0.985 . S
H1940 N1934 0.984 . S
H1941 N1934 0.984 . S
H1942 N1930 0.984 . S
H1943 N1930 0.985 . S
C1944 C1945 1.363 . S
C1944 C1950 1.379 . S
C1944 N1952 1.356 . S
C1945 C1944 1.363 . S
C1945 C1951 1.363 . S
C1946 C1947 1.363 . S
C1946 C1951 1.379 . S
C1946 N1953 1.356 . S
C1947 C1946 1.363 . S
C1947 C1950 1.363 . S
N1948 C1950 1.356 . S
N1948 H1960 0.984 . S
N1948 H1961 0.985 . S
N1949 C1951 1.356 . S
N1949 H1954 0.984 . S
N1949 H1955 0.985 . S
C1950 C1944 1.379 . S
C1950 C1947 1.363 . S
C1950 N1948 1.356 . S
C1951 C1945 1.363 . S
C1951 C1946 1.379 . S
C1951 N1949 1.356 . S
N1952 C1944 1.356 . S
N1952 H1958 0.984 . S
N1952 H1959 0.984 . S
N1953 C1946 1.356 . S
N1953 H1956 0.984 . S
N1953 H1957 0.985 . S
H1954 N1949 0.984 . S
H1955 N1949 0.985 . S
H1956 N1953 0.984 . S
H1957 N1953 0.985 . S
H1958 N1952 0.984 . S
H1959 N1952 0.984 . S
H1960 N1948 0.984 . S
H1961 N1948 0.985 . S
C1962 C1963 1.363 . S
C1962 C1968 1.379 . S
C1962 N1970 1.356 . S
C1963 C1962 1.363 . S
C1963 C1969 1.363 1_545 S
C1964 C1965 1.363 . S
C1964 C1969 1.379 1_545 S
C1964 N1971 1.356 1_545 S
C1965 C1964 1.363 . S
C1965 C1968 1.363 . S
N1966 C1968 1.356 . S
N1966 H1978 0.984 . S
N1966 H1979 0.985 . S
N1967 C1969 1.356 . S
N1967 H1972 0.984 . S
N1967 H1973 0.985 . S
C1968 C1962 1.379 . S
C1968 C1965 1.363 . S
C1968 N1966 1.356 . S
C1969 C1963 1.363 1_565 S
C1969 C1964 1.379 1_565 S
C1969 N1967 1.356 . S
N1970 C1962 1.356 . S
N1970 H1976 0.984 . S
N1970 H1977 0.984 . S
N1971 C1964 1.356 1_565 S
N1971 H1974 0.984 1_565 S
N1971 H1975 0.985 . S
H1972 N1967 0.984 . S
H1973 N1967 0.985 . S
H1974 N1971 0.984 1_545 S
H1975 N1971 0.985 . S
H1976 N1970 0.984 . S
H1977 N1970 0.984 . S
H1978 N1966 0.984 . S
H1979 N1966 0.985 . S
C1980 C1981 1.363 . S
C1980 C1986 1.379 . S
C1980 N1988 1.356 . S
C1981 C1980 1.363 . S
C1981 C1987 1.363 . S
C1982 C1983 1.363 . S
C1982 C1987 1.379 . S
C1982 N1989 1.356 . S
C1983 C1982 1.363 . S
C1983 C1986 1.363 . S
N1984 C1986 1.356 . S
N1984 H1996 0.984 . S
N1984 H1997 0.985 . S
N1985 C1987 1.356 . S
N1985 H1990 0.984 . S
N1985 H1991 0.985 . S
C1986 C1980 1.379 . S
C1986 C1983 1.363 . S
C1986 N1984 1.356 . S
C1987 C1981 1.363 . S
C1987 C1982 1.379 . S
C1987 N1985 1.356 . S
N1988 C1980 1.356 . S
N1988 H1994 0.984 . S
N1988 H1995 0.984 . S
N1989 C1982 1.356 . S
N1989 H1992 0.984 . S
N1989 H1993 0.985 . S
H1990 N1985 0.984 . S
H1991 N1985 0.985 . S
H1992 N1989 0.984 . S
H1993 N1989 0.985 . S
H1994 N1988 0.984 . S
H1995 N1988 0.984 . S
H1996 N1984 0.984 . S
H1997 N1984 0.985 . S
C1998 C1999 1.363 . S
C1998 C2004 1.379 . S
C1998 N2006 1.356 . S
C1999 C1998 1.363 . S
C1999 C2005 1.363 . S
C2000 C2001 1.363 . S
C2000 C2005 1.379 . S
C2000 N2007 1.356 . S
C2001 C2000 1.363 . S
C2001 C2004 1.363 . S
N2002 C2004 1.356 . S
N2002 H2014 0.984 . S
N2002 H2015 0.985 . S
N2003 C2005 1.356 . S
N2003 H2008 0.984 . S
N2003 H2009 0.985 . S
C2004 C1998 1.379 . S
C2004 C2001 1.363 . S
C2004 N2002 1.356 . S
C2005 C1999 1.363 . S
C2005 C2000 1.379 . S
C2005 N2003 1.356 . S
N2006 C1998 1.356 . S
N2006 H2012 0.984 . S
N2006 H2013 0.984 . S
N2007 C2000 1.356 . S
N2007 H2010 0.984 . S
N2007 H2011 0.985 . S
H2008 N2003 0.984 . S
H2009 N2003 0.985 . S
H2010 N2007 0.984 . S
H2011 N2007 0.985 . S
H2012 N2006 0.984 . S
H2013 N2006 0.984 . S
H2014 N2002 0.984 . S
H2015 N2002 0.985 . S
C2016 C2017 1.363 . S
C2016 C2022 1.379 . S
C2016 N2024 1.356 . S
C2017 C2016 1.363 . S
C2017 C2023 1.363 . S
C2018 C2019 1.363 . S
C2018 C2023 1.379 . S
C2018 N2025 1.356 . S
C2019 C2018 1.363 . S
C2019 C2022 1.363 . S
N2020 C2022 1.356 . S
N2020 H2032 0.984 . S
N2020 H2033 0.985 . S
N2021 C2023 1.356 . S
N2021 H2026 0.984 . S
N2021 H2027 0.985 . S
C2022 C2016 1.379 . S
C2022 C2019 1.363 . S
C2022 N2020 1.356 . S
C2023 C2017 1.363 . S
C2023 C2018 1.379 . S
C2023 N2021 1.356 . S
N2024 C2016 1.356 . S
N2024 H2030 0.984 . S
N2024 H2031 0.984 . S
N2025 C2018 1.356 . S
N2025 H2028 0.984 1_554 S
N2025 H2029 0.986 . S
H2026 N2021 0.984 . S
H2027 N2021 0.985 . S
H2028 N2025 0.984 1_556 S
H2029 N2025 0.986 . S
H2030 N2024 0.984 . S
H2031 N2024 0.984 . S
H2032 N2020 0.984 . S
H2033 N2020 0.985 . S
C2034 C2035 1.363 . S
C2034 C2040 1.379 . S
C2034 N2042 1.356 . S
C2035 C2034 1.363 . S
C2035 C2041 1.363 . S
C2036 C2037 1.363 . S
C2036 C2041 1.379 . S
C2036 N2043 1.356 . S
C2037 C2036 1.363 . S
C2037 C2040 1.363 . S
N2038 C2040 1.356 . S
N2038 H2050 0.984 . S
N2038 H2051 0.985 . S
N2039 C2041 1.356 . S
N2039 H2044 0.984 . S
N2039 H2045 0.985 . S
C2040 C2034 1.379 . S
C2040 C2037 1.363 . S
C2040 N2038 1.356 . S
C2041 C2035 1.363 . S
C2041 C2036 1.379 . S
C2041 N2039 1.356 . S
N2042 C2034 1.356 . S
N2042 H2048 0.984 . S
N2042 H2049 0.984 . S
N2043 C2036 1.356 . S
N2043 H2046 0.984 . S
N2043 H2047 0.985 . S
H2044 N2039 0.984 . S
H2045 N2039 0.985 . S
H2046 N2043 0.984 . S
H2047 N2043 0.985 . S
H2048 N2042 0.984 . S
H2049 N2042 0.984 . S
H2050 N2038 0.984 . S
H2051 N2038 0.985 . S
C2052 C2053 1.363 . S
C2052 C2058 1.379 . S
C2052 N2060 1.356 . S
C2053 C2052 1.363 . S
C2053 C2059 1.363 . S
C2054 C2055 1.363 . S
C2054 C2059 1.379 . S
C2054 N2061 1.356 . S
C2055 C2054 1.363 . S
C2055 C2058 1.363 . S
N2056 C2058 1.356 . S
N2056 H2068 0.984 . S
N2056 H2069 0.985 . S
N2057 C2059 1.356 . S
N2057 H2062 0.984 . S
N2057 H2063 0.985 . S
C2058 C2052 1.379 . S
C2058 C2055 1.363 . S
C2058 N2056 1.356 . S
C2059 C2053 1.363 . S
C2059 C2054 1.379 . S
C2059 N2057 1.356 . S
N2060 C2052 1.356 . S
N2060 H2066 0.984 . S
N2060 H2067 0.984 . S
N2061 C2054 1.356 . S
N2061 H2064 0.984 . S
N2061 H2065 0.985 . S
H2062 N2057 0.984 . S
H2063 N2057 0.985 . S
H2064 N2061 0.984 . S
H2065 N2061 0.985 . S
H2066 N2060 0.984 . S
H2067 N2060 0.984 . S
H2068 N2056 0.984 . S
H2069 N2056 0.985 . S
C2070 C2071 1.363 . S
C2070 C2076 1.379 . S
C2070 N2078 1.356 . S
C2071 C2070 1.363 . S
C2071 C2077 1.363 . S
C2072 C2073 1.363 . S
C2072 C2077 1.379 . S
C2072 N2079 1.356 . S
C2073 C2072 1.363 . S
C2073 C2076 1.363 . S
N2074 C2076 1.356 . S
N2074 H2086 0.984 . S
N2074 H2087 0.985 . S
N2075 C2077 1.356 . S
N2075 H2080 0.984 . S
N2075 H2081 0.985 . S
C2076 C2070 1.379 . S
C2076 C2073 1.363 . S
C2076 N2074 1.356 . S
C2077 C2071 1.363 . S
C2077 C2072 1.379 . S
C2077 N2075 1.356 . S
N2078 C2070 1.356 . S
N2078 H2084 0.984 . S
N2078 H2085 0.984 . S
N2079 C2072 1.356 . S
N2079 H2082 0.984 . S
N2079 H2083 0.985 . S
H2080 N2075 0.984 . S
H2081 N2075 0.985 . S
H2082 N2079 0.984 . S
H2083 N2079 0.985 . S
H2084 N2078 0.984 . S
H2085 N2078 0.984 . S
H2086 N2074 0.984 . S
H2087 N2074 0.985 . S
C2088 C2089 1.363 . S
C2088 C2094 1.379 . S
C2088 N2096 1.356 . S
C2089 C2088 1.363 . S
C2089 C2095 1.363 . S
C2090 C2091 1.363 . S
C2090 C2095 1.379 . S
C2090 N2097 1.356 . S
C2091 C2090 1.363 . S
C2091 C2094 1.363 . S
N2092 C2094 1.356 . S
N2092 H2104 0.984 . S
N2092 H2105 0.985 . S
N2093 C2095 1.356 . S
N2093 H2098 0.984 . S
N2093 H2099 0.985 . S
C2094 C2088 1.379 . S
C2094 C2091 1.363 . S
C2094 N2092 1.356 . S
C2095 C2089 1.363 . S
C2095 C2090 1.379 . S
C2095 N2093 1.356 . S
N2096 C2088 1.356 . S
N2096 H2102 0.984 . S
N2096 H2103 0.984 . S
N2097 C2090 1.356 . S
N2097 H2100 0.984 . S
N2097 H2101 0.985 . S
H2098 N2093 0.984 . S
H2099 N2093 0.985 . S
H2100 N2097 0.984 . S
H2101 N2097 0.985 . S
H2102 N2096 0.984 . S
H2103 N2096 0.984 . S
H2104 N2092 0.984 . S
H2105 N2092 0.985 . S
C2106 C2107 1.363 . S
C2106 C2112 1.379 . S
C2106 N2114 1.356 . S
C2107 C2106 1.363 . S
C2107 C2113 1.363 . S
C2108 C2109 1.363 . S
C2108 C2113 1.379 . S
C2108 N2115 1.356 . S
C2109 C2108 1.363 . S
C2109 C2112 1.363 . S
N2110 C2112 1.356 . S
N2110 H2122 0.984 . S
N2110 H2123 0.985 . S
N2111 C2113 1.356 . S
N2111 H2116 0.984 . S
N2111 H2117 0.985 . S
C2112 C2106 1.379 . S
C2112 C2109 1.363 . S
C2112 N2110 1.356 . S
C2113 C2107 1.363 . S
C2113 C2108 1.379 . S
C2113 N2111 1.356 . S
N2114 C2106 1.356 . S
N2114 H2120 0.984 . S
N2114 H2121 0.984 . S
N2115 C2108 1.356 . S
N2115 H2118 0.984 . S
N2115 H2119 0.985 . S
H2116 N2111 0.984 . S
H2117 N2111 0.985 . S
H2118 N2115 0.984 . S
H2119 N2115 0.985 . S
H2120 N2114 0.984 . S
H2121 N2114 0.984 . S
H2122 N2110 0.984 . S
H2123 N2110 0.985 . S
C2124 C2125 1.363 1_554 S
C2124 C2130 1.379 . S
C2124 N2132 1.356 1_554 S
C2125 C2124 1.363 1_556 S
C2125 C2131 1.364 . S
C2126 C2127 1.363 . S
C2126 C2131 1.374 1_554 S
C2126 N2133 1.356 . S
C2127 C2126 1.363 . S
C2127 C2130 1.363 . S
N2128 C2130 1.356 . S
N2128 H2140 0.984 . S
N2128 H2141 0.985 . S
N2129 C2131 1.361 . S
N2129 H2134 0.984 . S
N2129 H2135 0.985 . S
C2130 C2124 1.379 . S
C2130 C2127 1.363 . S
C2130 N2128 1.356 . S
C2131 C2125 1.364 . S
C2131 C2126 1.374 1_556 S
C2131 N2129 1.361 . S
N2132 C2124 1.356 1_556 S
N2132 H2138 0.984 1_556 S
N2132 H2139 0.984 . S
N2133 C2126 1.356 . S
N2133 H2136 0.984 . S
N2133 H2137 0.985 . S
H2134 N2129 0.984 . S
H2135 N2129 0.985 . S
H2136 N2133 0.984 . S
H2137 N2133 0.985 . S
H2138 N2132 0.984 1_554 S
H2139 N2132 0.984 . S
H2140 N2128 0.984 . S
H2141 N2128 0.985 . S
C2142 C2143 1.363 . S
C2142 C2148 1.379 . S
C2142 N2150 1.356 . S
C2143 C2142 1.363 . S
C2143 C2149 1.363 . S
C2144 C2145 1.363 . S
C2144 C2149 1.379 . S
C2144 N2151 1.356 . S
C2145 C2144 1.363 . S
C2145 C2148 1.363 . S
N2146 C2148 1.356 . S
N2146 H2158 0.984 . S
N2146 H2159 0.985 . S
N2147 C2149 1.356 . S
N2147 H2152 0.984 . S
N2147 H2153 0.985 . S
C2148 C2142 1.379 . S
C2148 C2145 1.363 . S
C2148 N2146 1.356 . S
C2149 C2143 1.363 . S
C2149 C2144 1.379 . S
C2149 N2147 1.356 . S
N2150 C2142 1.356 . S
N2150 H2156 0.984 . S
N2150 H2157 0.984 . S
N2151 C2144 1.356 . S
N2151 H2154 0.984 . S
N2151 H2155 0.985 . S
H2152 N2147 0.984 . S
H2153 N2147 0.985 . S
H2154 N2151 0.984 . S
H2155 N2151 0.985 . S
H2156 N2150 0.984 . S
H2157 N2150 0.984 . S
H2158 N2146 0.984 . S
H2159 N2146 0.985 . S
C2160 C2161 1.363 . S
C2160 C2166 1.379 . S
C2160 N2168 1.356 . S
C2161 C2160 1.363 . S
C2161 C2167 1.363 . S
C2162 C2163 1.363 . S
C2162 C2167 1.379 . S
C2162 N2169 1.356 . S
C2163 C2162 1.363 . S
C2163 C2166 1.363 . S
N2164 C2166 1.356 . S
N2164 H2176 0.984 . S
N2164 H2177 0.985 1_455 S
N2165 C2167 1.356 . S
N2165 H2170 0.984 . S
N2165 H2171 0.985 . S
C2166 C2160 1.379 . S
C2166 C2163 1.363 . S
C2166 N2164 1.356 . S
C2167 C2161 1.363 . S
C2167 C2162 1.379 . S
C2167 N2165 1.356 . S
N2168 C2160 1.356 . S
N2168 H2174 0.984 . S
N2168 H2175 0.984 . S
N2169 C2162 1.356 . S
N2169 H2172 0.984 . S
N2169 H2173 0.985 . S
H2170 N2165 0.984 . S
H2171 N2165 0.985 . S
H2172 N2169 0.984 . S
H2173 N2169 0.985 . S
H2174 N2168 0.984 . S
H2175 N2168 0.984 . S
H2176 N2164 0.984 . S
H2177 N2164 0.985 1_655 S
C2178 C2179 1.363 . S
C2178 C2184 1.379 . S
C2178 N2186 1.356 . S
C2179 C2178 1.363 . S
C2179 C2185 1.363 . S
C2180 C2181 1.363 . S
C2180 C2185 1.379 . S
C2180 N2187 1.356 . S
C2181 C2180 1.363 . S
C2181 C2184 1.363 . S
N2182 C2184 1.356 . S
N2182 H2194 0.984 . S
N2182 H2195 0.985 . S
N2183 C2185 1.356 . S
N2183 H2188 0.984 . S
N2183 H2189 0.985 . S
C2184 C2178 1.379 . S
C2184 C2181 1.363 . S
C2184 N2182 1.356 . S
C2185 C2179 1.363 . S
C2185 C2180 1.379 . S
C2185 N2183 1.356 . S
N2186 C2178 1.356 . S
N2186 H2192 0.984 . S
N2186 H2193 0.984 . S
N2187 C2180 1.356 . S
N2187 H2190 0.984 . S
N2187 H2191 0.985 . S
H2188 N2183 0.984 . S
H2189 N2183 0.985 . S
H2190 N2187 0.984 . S
H2191 N2187 0.985 . S
H2192 N2186 0.984 . S
H2193 N2186 0.984 . S
H2194 N2182 0.984 . S
H2195 N2182 0.985 . S
C2196 C2197 1.363 . S
C2196 C2202 1.379 . S
C2196 N2204 1.356 . S
C2197 C2196 1.363 . S
C2197 C2203 1.363 . S
C2198 C2199 1.363 . S
C2198 C2203 1.379 . S
C2198 N2205 1.356 . S
C2199 C2198 1.363 . S
C2199 C2202 1.363 . S
N2200 C2202 1.356 . S
N2200 H2212 0.984 . S
N2200 H2213 0.985 . S
N2201 C2203 1.356 . S
N2201 H2206 0.984 . S
N2201 H2207 0.985 . S
C2202 C2196 1.379 . S
C2202 C2199 1.363 . S
C2202 N2200 1.356 . S
C2203 C2197 1.363 . S
C2203 C2198 1.379 . S
C2203 N2201 1.356 . S
N2204 C2196 1.356 . S
N2204 H2210 0.984 . S
N2204 H2211 0.984 . S
N2205 C2198 1.356 . S
N2205 H2208 0.984 . S
N2205 H2209 0.985 . S
H2206 N2201 0.984 . S
H2207 N2201 0.985 . S
H2208 N2205 0.984 . S
H2209 N2205 0.985 . S
H2210 N2204 0.984 . S
H2211 N2204 0.984 . S
H2212 N2200 0.984 . S
H2213 N2200 0.985 . S
C2214 C2215 1.363 . S
C2214 C2220 1.379 . S
C2214 N2222 1.356 . S
C2215 C2214 1.363 . S
C2215 C2221 1.363 . S
C2216 C2217 1.363 . S
C2216 C2221 1.379 . S
C2216 N2223 1.356 . S
C2217 C2216 1.363 . S
C2217 C2220 1.363 . S
N2218 C2220 1.356 . S
N2218 H2230 0.984 . S
N2218 H2231 0.985 . S
N2219 C2221 1.356 . S
N2219 H2224 0.984 . S
N2219 H2225 0.985 . S
C2220 C2214 1.379 . S
C2220 C2217 1.363 . S
C2220 N2218 1.356 . S
C2221 C2215 1.363 . S
C2221 C2216 1.379 . S
C2221 N2219 1.356 . S
N2222 C2214 1.356 . S
N2222 H2228 0.984 . S
N2222 H2229 0.984 . S
N2223 C2216 1.356 . S
N2223 H2226 0.984 . S
N2223 H2227 0.985 . S
H2224 N2219 0.984 . S
H2225 N2219 0.985 . S
H2226 N2223 0.984 . S
H2227 N2223 0.985 . S
H2228 N2222 0.984 . S
H2229 N2222 0.984 . S
H2230 N2218 0.984 . S
H2231 N2218 0.985 . S
C2232 C2233 1.363 . S
C2232 C2238 1.379 . S
C2232 N2240 1.356 . S
C2233 C2232 1.363 . S
C2233 C2239 1.363 . S
C2234 C2235 1.363 . S
C2234 C2239 1.379 . S
C2234 N2241 1.356 . S
C2235 C2234 1.363 . S
C2235 C2238 1.363 . S
N2236 C2238 1.356 . S
N2236 H2248 0.984 . S
N2236 H2249 0.985 . S
N2237 C2239 1.356 1_655 S
N2237 H2242 0.984 . S
N2237 H2243 0.985 . S
C2238 C2232 1.379 . S
C2238 C2235 1.363 . S
C2238 N2236 1.356 . S
C2239 C2233 1.363 . S
C2239 C2234 1.379 . S
C2239 N2237 1.356 1_455 S
N2240 C2232 1.356 . S
N2240 H2246 0.984 . S
N2240 H2247 0.984 . S
N2241 C2234 1.356 . S
N2241 H2244 0.984 . S
N2241 H2245 0.985 . S
H2242 N2237 0.984 . S
H2243 N2237 0.985 . S
H2244 N2241 0.984 . S
H2245 N2241 0.985 . S
H2246 N2240 0.984 . S
H2247 N2240 0.984 . S
H2248 N2236 0.984 . S
H2249 N2236 0.985 . S
C2250 C2251 1.363 . S
C2250 C2256 1.379 . S
C2250 N2258 1.356 . S
C2251 C2250 1.363 . S
C2251 C2257 1.363 . S
C2252 C2253 1.363 . S
C2252 C2257 1.379 . S
C2252 N2259 1.356 . S
C2253 C2252 1.363 . S
C2253 C2256 1.363 . S
N2254 C2256 1.356 . S
N2254 H2266 0.984 . S
N2254 H2267 0.985 . S
N2255 C2257 1.356 . S
N2255 H2260 0.984 . S
N2255 H2261 0.985 . S
C2256 C2250 1.379 . S
C2256 C2253 1.363 . S
C2256 N2254 1.356 . S
C2257 C2251 1.363 . S
C2257 C2252 1.379 . S
C2257 N2255 1.356 . S
N2258 C2250 1.356 . S
N2258 H2264 0.984 . S
N2258 H2265 0.984 . S
N2259 C2252 1.356 . S
N2259 H2262 0.984 . S
N2259 H2263 0.985 . S
H2260 N2255 0.984 . S
H2261 N2255 0.985 . S
H2262 N2259 0.984 . S
H2263 N2259 0.985 . S
H2264 N2258 0.984 . S
H2265 N2258 0.984 . S
H2266 N2254 0.984 . S
H2267 N2254 0.985 . S
C2268 C2269 1.363 . S
C2268 C2274 1.379 . S
C2268 N2276 1.356 . S
C2269 C2268 1.363 . S
C2269 C2275 1.363 . S
C2270 C2271 1.363 . S
C2270 C2275 1.379 . S
C2270 N2277 1.356 . S
C2271 C2270 1.363 . S
C2271 C2274 1.363 . S
N2272 C2274 1.356 . S
N2272 H2284 0.984 . S
N2272 H2285 0.985 . S
N2273 C2275 1.356 . S
N2273 H2278 0.984 . S
N2273 H2279 0.985 . S
C2274 C2268 1.379 . S
C2274 C2271 1.363 . S
C2274 N2272 1.356 . S
C2275 C2269 1.363 . S
C2275 C2270 1.379 . S
C2275 N2273 1.356 . S
N2276 C2268 1.356 . S
N2276 H2282 0.984 . S
N2276 H2283 0.984 . S
N2277 C2270 1.356 . S
N2277 H2280 0.984 . S
N2277 H2281 0.985 . S
H2278 N2273 0.984 . S
H2279 N2273 0.985 . S
H2280 N2277 0.984 . S
H2281 N2277 0.985 . S
H2282 N2276 0.984 . S
H2283 N2276 0.984 . S
H2284 N2272 0.984 . S
H2285 N2272 0.985 . S
C2286 C2287 1.363 . S
C2286 C2292 1.379 . S
C2286 N2294 1.356 . S
C2287 C2286 1.363 . S
C2287 C2293 1.363 . S
C2288 C2289 1.363 . S
C2288 C2293 1.379 . S
C2288 N2295 1.356 . S
C2289 C2288 1.363 . S
C2289 C2292 1.363 . S
N2290 C2292 1.356 . S
N2290 H2302 0.984 . S
N2290 H2303 0.985 . S
N2291 C2293 1.356 . S
N2291 H2296 0.984 . S
N2291 H2297 0.985 . S
C2292 C2286 1.379 . S
C2292 C2289 1.363 . S
C2292 N2290 1.356 . S
C2293 C2287 1.363 . S
C2293 C2288 1.379 . S
C2293 N2291 1.356 . S
N2294 C2286 1.356 . S
N2294 H2300 0.984 . S
N2294 H2301 0.984 . S
N2295 C2288 1.356 . S
N2295 H2298 0.984 . S
N2295 H2299 0.985 . S
H2296 N2291 0.984 . S
H2297 N2291 0.985 . S
H2298 N2295 0.984 . S
H2299 N2295 0.985 . S
H2300 N2294 0.984 . S
H2301 N2294 0.984 . S
H2302 N2290 0.984 . S
H2303 N2290 0.985 . S
C2304 C2305 1.363 . S
C2304 C2310 1.379 1_545 S
C2304 N2312 1.356 . S
C2305 C2304 1.363 . S
C2305 C2311 1.363 . S
C2306 C2307 1.363 1_545 S
C2306 C2311 1.379 . S
C2306 N2313 1.356 . S
C2307 C2306 1.363 1_565 S
C2307 C2310 1.363 . S
N2308 C2310 1.356 . S
N2308 H2320 0.984 . S
N2308 H2321 0.985 . S
N2309 C2311 1.356 . S
N2309 H2314 0.984 . S
N2309 H2315 0.985 . S
C2310 C2304 1.379 1_565 S
C2310 C2307 1.363 . S
C2310 N2308 1.356 . S
C2311 C2305 1.363 . S
C2311 C2306 1.379 . S
C2311 N2309 1.356 . S
N2312 C2304 1.356 . S
N2312 H2318 0.984 . S
N2312 H2319 0.984 . S
N2313 C2306 1.356 . S
N2313 H2316 0.984 1_545 S
N2313 H2317 0.985 . S
H2314 N2309 0.984 . S
H2315 N2309 0.985 . S
H2316 N2313 0.984 1_565 S
H2317 N2313 0.985 . S
H2318 N2312 0.984 . S
H2319 N2312 0.984 . S
H2320 N2308 0.984 . S
H2321 N2308 0.985 . S
C2322 C2323 1.363 . S
C2322 C2328 1.379 . S
C2322 N2330 1.356 . S
C2323 C2322 1.363 . S
C2323 C2329 1.363 . S
C2324 C2325 1.363 . S
C2324 C2329 1.379 . S
C2324 N2331 1.356 . S
C2325 C2324 1.363 . S
C2325 C2328 1.363 . S
N2326 C2328 1.356 . S
N2326 H2338 0.984 . S
N2326 H2339 0.985 . S
N2327 C2329 1.356 . S
N2327 H2332 0.984 . S
N2327 H2333 0.985 . S
C2328 C2322 1.379 . S
C2328 C2325 1.363 . S
C2328 N2326 1.356 . S
C2329 C2323 1.363 . S
C2329 C2324 1.379 . S
C2329 N2327 1.356 . S
N2330 C2322 1.356 . S
N2330 H2336 0.984 . S
N2330 H2337 0.984 . S
N2331 C2324 1.356 . S
N2331 H2334 0.984 . S
N2331 H2335 0.985 . S
H2332 N2327 0.984 . S
H2333 N2327 0.985 . S
H2334 N2331 0.984 . S
H2335 N2331 0.985 . S
H2336 N2330 0.984 . S
H2337 N2330 0.984 . S
H2338 N2326 0.984 . S
H2339 N2326 0.985 . S
C2340 C2341 1.363 . S
C2340 C2346 1.379 . S
C2340 N2348 1.356 . S
C2341 C2340 1.363 . S
C2341 C2347 1.363 . S
C2342 C2343 1.363 . S
C2342 C2347 1.379 . S
C2342 N2349 1.356 . S
C2343 C2342 1.363 . S
C2343 C2346 1.363 . S
N2344 C2346 1.356 . S
N2344 H2356 0.984 . S
N2344 H2357 0.985 . S
N2345 C2347 1.356 . S
N2345 H2350 0.984 . S
N2345 H2351 0.985 . S
C2346 C2340 1.379 . S
C2346 C2343 1.363 . S
C2346 N2344 1.356 . S
C2347 C2341 1.363 . S
C2347 C2342 1.379 . S
C2347 N2345 1.356 . S
N2348 C2340 1.356 . S
N2348 H2354 0.984 . S
N2348 H2355 0.984 . S
N2349 C2342 1.356 . S
N2349 H2352 0.984 . S
N2349 H2353 0.985 . S
H2350 N2345 0.984 . S
H2351 N2345 0.985 . S
H2352 N2349 0.984 . S
H2353 N2349 0.985 . S
H2354 N2348 0.984 . S
H2355 N2348 0.984 . S
H2356 N2344 0.984 . S
H2357 N2344 0.985 . S
C2358 C2359 1.363 . S
C2358 C2364 1.379 . S
C2358 N2366 1.356 . S
C2359 C2358 1.363 . S
C2359 C2365 1.363 . S
C2360 C2361 1.363 . S
C2360 C2365 1.379 . S
C2360 N2367 1.356 . S
C2361 C2360 1.363 . S
C2361 C2364 1.363 . S
N2362 C2364 1.356 . S
N2362 H2374 0.984 . S
N2362 H2375 0.985 . S
N2363 C2365 1.356 . S
N2363 H2368 0.984 . S
N2363 H2369 0.985 . S
C2364 C2358 1.379 . S
C2364 C2361 1.363 . S
C2364 N2362 1.356 . S
C2365 C2359 1.363 . S
C2365 C2360 1.379 . S
C2365 N2363 1.356 . S
N2366 C2358 1.356 . S
N2366 H2372 0.984 . S
N2366 H2373 0.984 . S
N2367 C2360 1.356 . S
N2367 H2370 0.984 . S
N2367 H2371 0.985 . S
H2368 N2363 0.984 . S
H2369 N2363 0.985 . S
H2370 N2367 0.984 . S
H2371 N2367 0.985 . S
H2372 N2366 0.984 . S
H2373 N2366 0.984 . S
H2374 N2362 0.984 . S
H2375 N2362 0.985 . S
C2376 C2377 1.363 . S
C2376 C2382 1.379 . S
C2376 N2384 1.356 . S
C2377 C2376 1.363 . S
C2377 C2383 1.363 . S
C2378 C2379 1.363 . S
C2378 C2383 1.379 . S
C2378 N2385 1.356 . S
C2379 C2378 1.363 . S
C2379 C2382 1.363 . S
N2380 C2382 1.356 . S
N2380 H2392 0.984 . S
N2380 H2393 0.985 . S
N2381 C2383 1.356 . S
N2381 H2386 0.984 . S
N2381 H2387 0.985 . S
C2382 C2376 1.379 . S
C2382 C2379 1.363 . S
C2382 N2380 1.356 . S
C2383 C2377 1.363 . S
C2383 C2378 1.379 . S
C2383 N2381 1.356 . S
N2384 C2376 1.356 . S
N2384 H2390 0.984 . S
N2384 H2391 0.984 . S
N2385 C2378 1.356 . S
N2385 H2388 0.984 . S
N2385 H2389 0.985 . S
H2386 N2381 0.984 . S
H2387 N2381 0.985 . S
H2388 N2385 0.984 . S
H2389 N2385 0.985 . S
H2390 N2384 0.984 . S
H2391 N2384 0.984 . S
H2392 N2380 0.984 . S
H2393 N2380 0.985 . S
C2394 C2395 1.363 . S
C2394 C2400 1.379 1_565 S
C2394 N2402 1.356 1_565 S
C2395 C2394 1.363 . S
C2395 C2401 1.363 . S
C2396 C2397 1.363 . S
C2396 C2401 1.379 . S
C2396 N2403 1.356 . S
C2397 C2396 1.363 . S
C2397 C2400 1.363 1_565 S
N2398 C2400 1.356 . S
N2398 H2410 0.984 . S
N2398 H2411 0.985 . S
N2399 C2401 1.356 . S
N2399 H2404 0.984 . S
N2399 H2405 0.985 . S
C2400 C2394 1.379 1_545 S
C2400 C2397 1.363 1_545 S
C2400 N2398 1.356 . S
C2401 C2395 1.363 . S
C2401 C2396 1.379 . S
C2401 N2399 1.356 . S
N2402 C2394 1.356 1_545 S
N2402 H2408 0.984 . S
N2402 H2409 0.984 1_545 S
N2403 C2396 1.356 . S
N2403 H2406 0.984 . S
N2403 H2407 0.985 . S
H2404 N2399 0.984 . S
H2405 N2399 0.985 . S
H2406 N2403 0.984 . S
H2407 N2403 0.985 . S
H2408 N2402 0.984 . S
H2409 N2402 0.984 1_565 S
H2410 N2398 0.984 . S
H2411 N2398 0.985 . S
C2412 C2413 1.363 . S
C2412 C2418 1.379 . S
C2412 N2420 1.356 . S
C2413 C2412 1.363 . S
C2413 C2419 1.363 . S
C2414 C2415 1.363 . S
C2414 C2419 1.379 . S
C2414 N2421 1.356 . S
C2415 C2414 1.363 . S
C2415 C2418 1.363 . S
N2416 C2418 1.356 . S
N2416 H2428 0.984 . S
N2416 H2429 0.985 . S
N2417 C2419 1.356 . S
N2417 H2422 0.984 . S
N2417 H2423 0.985 . S
C2418 C2412 1.379 . S
C2418 C2415 1.363 . S
C2418 N2416 1.356 . S
C2419 C2413 1.363 . S
C2419 C2414 1.379 . S
C2419 N2417 1.356 . S
N2420 C2412 1.356 . S
N2420 H2426 0.984 . S
N2420 H2427 0.984 . S
N2421 C2414 1.356 . S
N2421 H2424 0.984 . S
N2421 H2425 0.985 . S
H2422 N2417 0.984 . S
H2423 N2417 0.985 . S
H2424 N2421 0.984 . S
H2425 N2421 0.985 . S
H2426 N2420 0.984 . S
H2427 N2420 0.984 . S
H2428 N2416 0.984 . S
H2429 N2416 0.985 . S
C2430 C2431 1.363 . S
C2430 C2436 1.379 . S
C2430 N2438 1.356 . S
C2431 C2430 1.363 . S
C2431 C2437 1.363 . S
C2432 C2433 1.363 . S
C2432 C2437 1.379 . S
C2432 N2439 1.356 . S
C2433 C2432 1.363 . S
C2433 C2436 1.363 . S
N2434 C2436 1.356 . S
N2434 H2446 0.984 . S
N2434 H2447 0.985 . S
N2435 C2437 1.356 . S
N2435 H2440 0.984 . S
N2435 H2441 0.985 . S
C2436 C2430 1.379 . S
C2436 C2433 1.363 . S
C2436 N2434 1.356 . S
C2437 C2431 1.363 . S
C2437 C2432 1.379 . S
C2437 N2435 1.356 . S
N2438 C2430 1.356 . S
N2438 H2444 0.984 . S
N2438 H2445 0.984 . S
N2439 C2432 1.356 . S
N2439 H2442 0.984 . S
N2439 H2443 0.985 . S
H2440 N2435 0.984 . S
H2441 N2435 0.985 . S
H2442 N2439 0.984 . S
H2443 N2439 0.985 . S
H2444 N2438 0.984 . S
H2445 N2438 0.984 . S
H2446 N2434 0.984 . S
H2447 N2434 0.985 . S
C2448 C2449 1.363 . S
C2448 C2454 1.379 . S
C2448 N2456 1.356 . S
C2449 C2448 1.363 . S
C2449 C2455 1.363 . S
C2450 C2451 1.363 . S
C2450 C2455 1.379 . S
C2450 N2457 1.356 . S
C2451 C2450 1.363 . S
C2451 C2454 1.363 . S
N2452 C2454 1.356 . S
N2452 H2464 0.984 . S
N2452 H2465 0.985 . S
N2453 C2455 1.356 . S
N2453 H2458 0.984 . S
N2453 H2459 0.985 . S
C2454 C2448 1.379 . S
C2454 C2451 1.363 . S
C2454 N2452 1.356 . S
C2455 C2449 1.363 . S
C2455 C2450 1.379 . S
C2455 N2453 1.356 . S
N2456 C2448 1.356 . S
N2456 H2462 0.984 . S
N2456 H2463 0.984 . S
N2457 C2450 1.356 . S
N2457 H2460 0.984 . S
N2457 H2461 0.985 . S
H2458 N2453 0.984 . S
H2459 N2453 0.985 . S
H2460 N2457 0.984 . S
H2461 N2457 0.985 . S
H2462 N2456 0.984 . S
H2463 N2456 0.984 . S
H2464 N2452 0.984 . S
H2465 N2452 0.985 . S
C2466 C2467 1.363 . S
C2466 C2472 1.379 . S
C2466 N2474 1.356 . S
C2467 C2466 1.363 . S
C2467 C2473 1.363 . S
C2468 C2469 1.363 . S
C2468 C2473 1.379 . S
C2468 N2475 1.356 . S
C2469 C2468 1.363 . S
C2469 C2472 1.363 . S
N2470 C2472 1.356 . S
N2470 H2482 0.984 . S
N2470 H2483 0.985 . S
N2471 C2473 1.356 . S
N2471 H2476 0.984 . S
N2471 H2477 0.985 . S
C2472 C2466 1.379 . S
C2472 C2469 1.363 . S
C2472 N2470 1.356 . S
C2473 C2467 1.363 . S
C2473 C2468 1.379 . S
C2473 N2471 1.356 . S
N2474 C2466 1.356 . S
N2474 H2480 0.984 . S
N2474 H2481 0.984 . S
N2475 C2468 1.356 . S
N2475 H2478 0.984 . S
N2475 H2479 0.985 . S
H2476 N2471 0.984 . S
H2477 N2471 0.985 . S
H2478 N2475 0.984 . S
H2479 N2475 0.985 . S
H2480 N2474 0.984 . S
H2481 N2474 0.984 . S
H2482 N2470 0.984 . S
H2483 N2470 0.985 . S
C2484 C2485 1.363 . S
C2484 C2490 1.379 . S
C2484 N2492 1.356 1_556 S
C2485 C2484 1.363 . S
C2485 C2491 1.363 . S
C2486 C2487 1.363 . S
C2486 C2491 1.379 . S
C2486 N2493 1.356 . S
C2487 C2486 1.363 . S
C2487 C2490 1.363 . S
N2488 C2490 1.356 . S
N2488 H2500 0.984 . S
N2488 H2501 0.985 . S
N2489 C2491 1.359 . S
N2489 H2494 0.981 1_556 S
N2489 H2495 0.986 . S
C2490 C2484 1.379 . S
C2490 C2487 1.363 . S
C2490 N2488 1.356 . S
C2491 C2485 1.363 . S
C2491 C2486 1.379 . S
C2491 N2489 1.359 . S
N2492 C2484 1.356 1_554 S
N2492 H2498 0.984 . S
N2492 H2499 0.984 . S
N2493 C2486 1.356 . S
N2493 H2496 0.984 . S
N2493 H2497 0.985 . S
H2494 N2489 0.981 1_554 S
H2495 N2489 0.986 . S
H2496 N2493 0.984 . S
H2497 N2493 0.985 . S
H2498 N2492 0.984 . S
H2499 N2492 0.984 . S
H2500 N2488 0.984 . S
H2501 N2488 0.985 . S
C2502 C2503 1.363 . S
C2502 C2508 1.379 . S
C2502 N2510 1.356 . S
C2503 C2502 1.363 . S
C2503 C2509 1.363 . S
C2504 C2505 1.363 . S
C2504 C2509 1.379 . S
C2504 N2511 1.356 . S
C2505 C2504 1.363 . S
C2505 C2508 1.363 . S
N2506 C2508 1.356 . S
N2506 H2518 0.984 . S
N2506 H2519 0.985 . S
N2507 C2509 1.356 . S
N2507 H2512 0.984 . S
N2507 H2513 0.985 . S
C2508 C2502 1.379 . S
C2508 C2505 1.363 . S
C2508 N2506 1.356 . S
C2509 C2503 1.363 . S
C2509 C2504 1.379 . S
C2509 N2507 1.356 . S
N2510 C2502 1.356 . S
N2510 H2516 0.984 . S
N2510 H2517 0.984 . S
N2511 C2504 1.356 . S
N2511 H2514 0.984 . S
N2511 H2515 0.985 . S
H2512 N2507 0.984 . S
H2513 N2507 0.985 . S
H2514 N2511 0.984 . S
H2515 N2511 0.985 . S
H2516 N2510 0.984 . S
H2517 N2510 0.984 . S
H2518 N2506 0.984 . S
H2519 N2506 0.985 . S
C2520 C2521 1.363 1_554 S
C2520 C2526 1.379 . S
C2520 N2528 1.356 . S
C2521 C2520 1.363 1_556 S
C2521 C2527 1.363 . S
C2522 C2523 1.398 . S
C2522 C2527 1.351 1_554 S
C2522 N2529 1.362 . S
C2523 C2522 1.398 . S
C2523 C2526 1.363 . S
N2524 C2526 1.356 . S
N2524 H2536 0.984 . S
N2524 H2537 0.985 . S
N2525 C2527 1.356 . S
N2525 H2530 0.984 . S
N2525 H2531 0.985 . S
C2526 C2520 1.379 . S
C2526 C2523 1.363 . S
C2526 N2524 1.356 . S
C2527 C2521 1.363 . S
C2527 C2522 1.351 1_556 S
C2527 N2525 1.356 . S
N2528 C2520 1.356 . S
N2528 H2534 0.984 . S
N2528 H2535 0.984 1_554 S
N2529 C2522 1.362 . S
N2529 H2532 0.984 . S
N2529 H2533 0.985 1_554 S
H2530 N2525 0.984 . S
H2531 N2525 0.985 . S
H2532 N2529 0.984 . S
H2533 N2529 0.985 1_556 S
H2534 N2528 0.984 . S
H2535 N2528 0.984 1_556 S
H2536 N2524 0.984 . S
H2537 N2524 0.985 . S
C2538 C2539 1.363 . S
C2538 C2544 1.379 . S
C2538 N2546 1.356 . S
C2539 C2538 1.363 . S
C2539 C2545 1.363 . S
C2540 C2541 1.363 . S
C2540 C2545 1.379 . S
C2540 N2547 1.356 . S
C2541 C2540 1.363 . S
C2541 C2544 1.363 . S
N2542 C2544 1.356 . S
N2542 H2554 0.984 . S
N2542 H2555 0.985 . S
N2543 C2545 1.356 . S
N2543 H2548 0.984 . S
N2543 H2549 0.985 . S
C2544 C2538 1.379 . S
C2544 C2541 1.363 . S
C2544 N2542 1.356 . S
C2545 C2539 1.363 . S
C2545 C2540 1.379 . S
C2545 N2543 1.356 . S
N2546 C2538 1.356 . S
N2546 H2552 0.984 . S
N2546 H2553 0.984 . S
N2547 C2540 1.356 . S
N2547 H2550 0.984 . S
N2547 H2551 0.985 . S
H2548 N2543 0.984 . S
H2549 N2543 0.985 . S
H2550 N2547 0.984 . S
H2551 N2547 0.985 . S
H2552 N2546 0.984 . S
H2553 N2546 0.984 . S
H2554 N2542 0.984 . S
H2555 N2542 0.985 . S
C2556 C2557 1.363 . S
C2556 C2562 1.379 . S
C2556 N2564 1.356 . S
C2557 C2556 1.363 . S
C2557 C2563 1.363 . S
C2558 C2559 1.363 . S
C2558 C2563 1.379 . S
C2558 N2565 1.356 . S
C2559 C2558 1.363 . S
C2559 C2562 1.363 . S
N2560 C2562 1.356 . S
N2560 H2572 0.984 . S
N2560 H2573 0.985 . S
N2561 C2563 1.356 . S
N2561 H2566 0.984 . S
N2561 H2567 0.985 . S
C2562 C2556 1.379 . S
C2562 C2559 1.363 . S
C2562 N2560 1.356 . S
C2563 C2557 1.363 . S
C2563 C2558 1.379 . S
C2563 N2561 1.356 . S
N2564 C2556 1.356 . S
N2564 H2570 0.984 . S
N2564 H2571 0.984 . S
N2565 C2558 1.356 . S
N2565 H2568 0.984 . S
N2565 H2569 0.985 . S
H2566 N2561 0.984 . S
H2567 N2561 0.985 . S
H2568 N2565 0.984 . S
H2569 N2565 0.985 . S
H2570 N2564 0.984 . S
H2571 N2564 0.984 . S
H2572 N2560 0.984 . S
H2573 N2560 0.985 . S
C2574 C2575 1.363 . S
C2574 C2580 1.379 . S
C2574 N2582 1.356 . S
C2575 C2574 1.363 . S
C2575 C2581 1.363 . S
C2576 C2577 1.363 . S
C2576 C2581 1.379 . S
C2576 N2583 1.356 . S
C2577 C2576 1.363 . S
C2577 C2580 1.363 . S
N2578 C2580 1.356 . S
N2578 H2590 0.984 . S
N2578 H2591 0.985 . S
N2579 C2581 1.356 . S
N2579 H2584 0.984 . S
N2579 H2585 0.985 . S
C2580 C2574 1.379 . S
C2580 C2577 1.363 . S
C2580 N2578 1.356 . S
C2581 C2575 1.363 . S
C2581 C2576 1.379 . S
C2581 N2579 1.356 . S
N2582 C2574 1.356 . S
N2582 H2588 0.984 . S
N2582 H2589 0.984 . S
N2583 C2576 1.356 . S
N2583 H2586 0.984 . S
N2583 H2587 0.985 . S
H2584 N2579 0.984 . S
H2585 N2579 0.985 . S
H2586 N2583 0.984 . S
H2587 N2583 0.985 . S
H2588 N2582 0.984 . S
H2589 N2582 0.984 . S
H2590 N2578 0.984 . S
H2591 N2578 0.985 . S
C2592 C2593 1.363 . S
C2592 C2598 1.379 . S
C2592 N2600 1.356 . S
C2593 C2592 1.363 . S
C2593 C2599 1.363 . S
C2594 C2595 1.363 . S
C2594 C2599 1.379 . S
C2594 N2601 1.356 . S
C2595 C2594 1.363 . S
C2595 C2598 1.363 . S
N2596 C2598 1.356 . S
N2596 H2608 0.984 . S
N2596 H2609 0.985 . S
N2597 C2599 1.356 . S
N2597 H2602 0.984 . S
N2597 H2603 0.985 . S
C2598 C2592 1.379 . S
C2598 C2595 1.363 . S
C2598 N2596 1.356 . S
C2599 C2593 1.363 . S
C2599 C2594 1.379 . S
C2599 N2597 1.356 . S
N2600 C2592 1.356 . S
N2600 H2606 0.984 . S
N2600 H2607 0.984 . S
N2601 C2594 1.356 . S
N2601 H2604 0.984 . S
N2601 H2605 0.985 . S
H2602 N2597 0.984 . S
H2603 N2597 0.985 . S
H2604 N2601 0.984 . S
H2605 N2601 0.985 . S
H2606 N2600 0.984 . S
H2607 N2600 0.984 . S
H2608 N2596 0.984 . S
H2609 N2596 0.985 . S
C2610 C2611 1.363 . S
C2610 C2616 1.379 . S
C2610 N2618 1.356 . S
C2611 C2610 1.363 . S
C2611 C2617 1.363 . S
C2612 C2613 1.363 . S
C2612 C2617 1.379 . S
C2612 N2619 1.356 . S
C2613 C2612 1.363 . S
C2613 C2616 1.363 . S
N2614 C2616 1.356 . S
N2614 H2626 0.984 . S
N2614 H2627 0.985 . S
N2615 C2617 1.356 . S
N2615 H2620 0.984 . S
N2615 H2621 0.985 . S
C2616 C2610 1.379 . S
C2616 C2613 1.363 . S
C2616 N2614 1.356 . S
C2617 C2611 1.363 . S
C2617 C2612 1.379 . S
C2617 N2615 1.356 . S
N2618 C2610 1.356 . S
N2618 H2624 0.984 . S
N2618 H2625 0.984 . S
N2619 C2612 1.356 . S
N2619 H2622 0.984 . S
N2619 H2623 0.985 . S
H2620 N2615 0.984 . S
H2621 N2615 0.985 . S
H2622 N2619 0.984 . S
H2623 N2619 0.985 . S
H2624 N2618 0.984 . S
H2625 N2618 0.984 . S
H2626 N2614 0.984 . S
H2627 N2614 0.985 . S
C2628 C2629 1.363 . S
C2628 C2634 1.379 1_655 S
C2628 N2636 1.356 . S
C2629 C2628 1.363 . S
C2629 C2635 1.363 . S
C2630 C2631 1.363 . S
C2630 C2635 1.379 1_455 S
C2630 N2637 1.356 . S
C2631 C2630 1.363 . S
C2631 C2634 1.363 . S
N2632 C2634 1.356 . S
N2632 H2644 0.984 . S
N2632 H2645 0.985 . S
N2633 C2635 1.356 . S
N2633 H2638 0.984 . S
N2633 H2639 0.985 . S
C2634 C2628 1.379 1_455 S
C2634 C2631 1.363 . S
C2634 N2632 1.356 . S
C2635 C2629 1.363 . S
C2635 C2630 1.379 1_655 S
C2635 N2633 1.356 . S
N2636 C2628 1.356 . S
N2636 H2642 0.984 . S
N2636 H2643 0.984 . S
N2637 C2630 1.356 . S
N2637 H2640 0.984 . S
N2637 H2641 0.985 . S
H2638 N2633 0.984 . S
H2639 N2633 0.985 . S
H2640 N2637 0.984 . S
H2641 N2637 0.985 . S
H2642 N2636 0.984 . S
H2643 N2636 0.984 . S
H2644 N2632 0.984 . S
H2645 N2632 0.985 . S
C2646 C2647 1.363 . S
C2646 C2652 1.379 . S
C2646 N2654 1.356 . S
C2647 C2646 1.363 . S
C2647 C2653 1.363 . S
C2648 C2649 1.363 . S
C2648 C2653 1.379 . S
C2648 N2655 1.356 . S
C2649 C2648 1.363 . S
C2649 C2652 1.363 . S
N2650 C2652 1.356 . S
N2650 H2662 0.984 . S
N2650 H2663 0.985 . S
N2651 C2653 1.356 . S
N2651 H2656 0.984 . S
N2651 H2657 0.985 . S
C2652 C2646 1.379 . S
C2652 C2649 1.363 . S
C2652 N2650 1.356 . S
C2653 C2647 1.363 . S
C2653 C2648 1.379 . S
C2653 N2651 1.356 . S
N2654 C2646 1.356 . S
N2654 H2660 0.984 . S
N2654 H2661 0.984 . S
N2655 C2648 1.356 . S
N2655 H2658 0.984 . S
N2655 H2659 0.985 . S
H2656 N2651 0.984 . S
H2657 N2651 0.985 . S
H2658 N2655 0.984 . S
H2659 N2655 0.985 . S
H2660 N2654 0.984 . S
H2661 N2654 0.984 . S
H2662 N2650 0.984 . S
H2663 N2650 0.985 . S
C2664 C2665 1.363 . S
C2664 C2670 1.379 . S
C2664 N2672 1.356 . S
C2665 C2664 1.363 . S
C2665 C2671 1.363 . S
C2666 C2667 1.363 . S
C2666 C2671 1.379 . S
C2666 N2673 1.356 . S
C2667 C2666 1.363 . S
C2667 C2670 1.363 . S
N2668 C2670 1.356 . S
N2668 H2680 0.984 . S
N2668 H2681 0.985 . S
N2669 C2671 1.356 . S
N2669 H2674 0.984 . S
N2669 H2675 0.985 . S
C2670 C2664 1.379 . S
C2670 C2667 1.363 . S
C2670 N2668 1.356 . S
C2671 C2665 1.363 . S
C2671 C2666 1.379 . S
C2671 N2669 1.356 . S
N2672 C2664 1.356 . S
N2672 H2678 0.984 . S
N2672 H2679 0.984 . S
N2673 C2666 1.356 . S
N2673 H2676 0.984 . S
N2673 H2677 0.985 . S
H2674 N2669 0.984 . S
H2675 N2669 0.985 . S
H2676 N2673 0.984 . S
H2677 N2673 0.985 . S
H2678 N2672 0.984 . S
H2679 N2672 0.984 . S
H2680 N2668 0.984 . S
H2681 N2668 0.985 . S
C2682 C2683 1.363 . S
C2682 C2688 1.379 . S
C2682 N2690 1.356 . S
C2683 C2682 1.363 . S
C2683 C2689 1.363 . S
C2684 C2685 1.363 . S
C2684 C2689 1.379 . S
C2684 N2691 1.356 . S
C2685 C2684 1.363 . S
C2685 C2688 1.363 . S
N2686 C2688 1.356 . S
N2686 H2698 0.984 . S
N2686 H2699 0.985 . S
N2687 C2689 1.356 . S
N2687 H2692 0.984 . S
N2687 H2693 0.985 . S
C2688 C2682 1.379 . S
C2688 C2685 1.363 . S
C2688 N2686 1.356 . S
C2689 C2683 1.363 . S
C2689 C2684 1.379 . S
C2689 N2687 1.356 . S
N2690 C2682 1.356 . S
N2690 H2696 0.984 . S
N2690 H2697 0.984 . S
N2691 C2684 1.356 . S
N2691 H2694 0.984 . S
N2691 H2695 0.985 . S
H2692 N2687 0.984 . S
H2693 N2687 0.985 . S
H2694 N2691 0.984 . S
H2695 N2691 0.985 . S
H2696 N2690 0.984 . S
H2697 N2690 0.984 . S
H2698 N2686 0.984 . S
H2699 N2686 0.985 . S
C2700 C2701 1.363 1_655 S
C2700 C2706 1.379 . S
C2700 N2708 1.356 . S
C2701 C2700 1.363 1_455 S
C2701 C2707 1.363 . S
C2702 C2703 1.363 . S
C2702 C2707 1.379 1_655 S
C2702 N2709 1.356 . S
C2703 C2702 1.363 . S
C2703 C2706 1.363 . S
N2704 C2706 1.356 . S
N2704 H2716 0.984 . S
N2704 H2717 0.985 . S
N2705 C2707 1.356 . S
N2705 H2710 0.984 . S
N2705 H2711 0.985 . S
C2706 C2700 1.379 . S
C2706 C2703 1.363 . S
C2706 N2704 1.356 . S
C2707 C2701 1.363 . S
C2707 C2702 1.379 1_455 S
C2707 N2705 1.356 . S
N2708 C2700 1.356 . S
N2708 H2714 0.984 . S
N2708 H2715 0.984 1_655 S
N2709 C2702 1.356 . S
N2709 H2712 0.984 . S
N2709 H2713 0.985 . S
H2710 N2705 0.984 . S
H2711 N2705 0.985 . S
H2712 N2709 0.984 . S
H2713 N2709 0.985 . S
H2714 N2708 0.984 . S
H2715 N2708 0.984 1_455 S
H2716 N2704 0.984 . S
H2717 N2704 0.985 . S
C2718 C2719 1.363 . S
C2718 C2724 1.379 . S
C2718 N2726 1.356 . S
C2719 C2718 1.363 . S
C2719 C2725 1.363 . S
C2720 C2721 1.363 . S
C2720 C2725 1.379 . S
C2720 N2727 1.356 . S
C2721 C2720 1.363 . S
C2721 C2724 1.363 . S
N2722 C2724 1.356 . S
N2722 H2734 0.984 . S
N2722 H2735 0.985 . S
N2723 C2725 1.356 . S
N2723 H2728 0.984 . S
N2723 H2729 0.985 . S
C2724 C2718 1.379 . S
C2724 C2721 1.363 . S
C2724 N2722 1.356 . S
C2725 C2719 1.363 . S
C2725 C2720 1.379 . S
C2725 N2723 1.356 . S
N2726 C2718 1.356 . S
N2726 H2732 0.984 . S
N2726 H2733 0.984 . S
N2727 C2720 1.356 . S
N2727 H2730 0.984 . S
N2727 H2731 0.985 . S
H2728 N2723 0.984 . S
H2729 N2723 0.985 . S
H2730 N2727 0.984 . S
H2731 N2727 0.985 . S
H2732 N2726 0.984 . S
H2733 N2726 0.984 . S
H2734 N2722 0.984 . S
H2735 N2722 0.985 . S
C2736 C2737 1.363 . S
C2736 C2742 1.379 . S
C2736 N2744 1.356 . S
C2737 C2736 1.363 . S
C2737 C2743 1.363 . S
C2738 C2739 1.363 . S
C2738 C2743 1.379 . S
C2738 N2745 1.356 . S
C2739 C2738 1.363 . S
C2739 C2742 1.363 . S
N2740 C2742 1.356 . S
N2740 H2752 0.984 . S
N2740 H2753 0.985 . S
N2741 C2743 1.356 . S
N2741 H2746 0.984 . S
N2741 H2747 0.985 . S
C2742 C2736 1.379 . S
C2742 C2739 1.363 . S
C2742 N2740 1.356 . S
C2743 C2737 1.363 . S
C2743 C2738 1.379 . S
C2743 N2741 1.356 . S
N2744 C2736 1.356 . S
N2744 H2750 0.984 . S
N2744 H2751 0.984 . S
N2745 C2738 1.356 . S
N2745 H2748 0.984 . S
N2745 H2749 0.985 . S
H2746 N2741 0.984 . S
H2747 N2741 0.985 . S
H2748 N2745 0.984 . S
H2749 N2745 0.985 . S
H2750 N2744 0.984 . S
H2751 N2744 0.984 . S
H2752 N2740 0.984 . S
H2753 N2740 0.985 . S
C2754 C2755 1.363 . S
C2754 C2760 1.379 . S
C2754 N2762 1.356 1_545 S
C2755 C2754 1.363 . S
C2755 C2761 1.363 . S
C2756 C2757 1.363 . S
C2756 C2761 1.379 . S
C2756 N2763 1.356 . S
C2757 C2756 1.363 . S
C2757 C2760 1.363 . S
N2758 C2760 1.356 . S
N2758 H2770 0.984 . S
N2758 H2771 0.985 . S
N2759 C2761 1.356 . S
N2759 H2764 0.984 1_545 S
N2759 H2765 0.985 . S
C2760 C2754 1.379 . S
C2760 C2757 1.363 . S
C2760 N2758 1.356 . S
C2761 C2755 1.363 . S
C2761 C2756 1.379 . S
C2761 N2759 1.356 . S
N2762 C2754 1.356 1_565 S
N2762 H2768 0.984 . S
N2762 H2769 0.984 . S
N2763 C2756 1.356 . S
N2763 H2766 0.984 . S
N2763 H2767 0.985 . S
H2764 N2759 0.984 1_565 S
H2765 N2759 0.985 . S
H2766 N2763 0.984 . S
H2767 N2763 0.985 . S
H2768 N2762 0.984 . S
H2769 N2762 0.984 . S
H2770 N2758 0.984 . S
H2771 N2758 0.985 . S
C2772 C2773 1.363 . S
C2772 C2778 1.379 . S
C2772 N2780 1.356 . S
C2773 C2772 1.363 . S
C2773 C2779 1.363 . S
C2774 C2775 1.363 . S
C2774 C2779 1.379 . S
C2774 N2781 1.356 . S
C2775 C2774 1.363 . S
C2775 C2778 1.363 . S
N2776 C2778 1.356 . S
N2776 H2788 0.984 . S
N2776 H2789 0.985 . S
N2777 C2779 1.356 . S
N2777 H2782 0.984 . S
N2777 H2783 0.985 . S
C2778 C2772 1.379 . S
C2778 C2775 1.363 . S
C2778 N2776 1.356 . S
C2779 C2773 1.363 . S
C2779 C2774 1.379 . S
C2779 N2777 1.356 . S
N2780 C2772 1.356 . S
N2780 H2786 0.984 . S
N2780 H2787 0.984 . S
N2781 C2774 1.356 . S
N2781 H2784 0.984 . S
N2781 H2785 0.985 . S
H2782 N2777 0.984 . S
H2783 N2777 0.985 . S
H2784 N2781 0.984 . S
H2785 N2781 0.985 . S
H2786 N2780 0.984 . S
H2787 N2780 0.984 . S
H2788 N2776 0.984 . S
H2789 N2776 0.985 . S
C2790 C2791 1.363 1_545 S
C2790 C2796 1.379 . S
C2790 N2798 1.356 . S
C2791 C2790 1.363 1_565 S
C2791 C2797 1.363 . S
C2792 C2793 1.363 . S
C2792 C2797 1.379 1_545 S
C2792 N2799 1.356 . S
C2793 C2792 1.363 . S
C2793 C2796 1.363 . S
N2794 C2796 1.356 . S
N2794 H2806 0.984 . S
N2794 H2807 0.985 . S
N2795 C2797 1.356 . S
N2795 H2800 0.984 . S
N2795 H2801 0.985 . S
C2796 C2790 1.379 . S
C2796 C2793 1.363 . S
C2796 N2794 1.356 . S
C2797 C2791 1.363 . S
C2797 C2792 1.379 1_565 S
C2797 N2795 1.356 . S
N2798 C2790 1.356 . S
N2798 H2804 0.984 . S
N2798 H2805 0.984 1_545 S
N2799 C2792 1.356 . S
N2799 H2802 0.984 . S
N2799 H2803 0.985 . S
H2800 N2795 0.984 . S
H2801 N2795 0.985 . S
H2802 N2799 0.984 . S
H2803 N2799 0.985 . S
H2804 N2798 0.984 . S
H2805 N2798 0.984 1_565 S
H2806 N2794 0.984 . S
H2807 N2794 0.985 . S
C2808 C2809 1.363 . S
C2808 C2814 1.379 . S
C2808 N2816 1.356 . S
C2809 C2808 1.363 . S
C2809 C2815 1.363 . S
C2810 C2811 1.363 . S
C2810 C2815 1.379 . S
C2810 N2817 1.356 . S
C2811 C2810 1.363 . S
C2811 C2814 1.363 . S
N2812 C2814 1.356 . S
N2812 H2824 0.984 . S
N2812 H2825 0.985 . S
N2813 C2815 1.356 . S
N2813 H2818 0.984 . S
N2813 H2819 0.985 . S
C2814 C2808 1.379 . S
C2814 C2811 1.363 . S
C2814 N2812 1.356 . S
C2815 C2809 1.363 . S
C2815 C2810 1.379 . S
C2815 N2813 1.356 . S
N2816 C2808 1.356 . S
N2816 H2822 0.984 . S
N2816 H2823 0.984 . S
N2817 C2810 1.356 . S
N2817 H2820 0.984 . S
N2817 H2821 0.985 . S
H2818 N2813 0.984 . S
H2819 N2813 0.985 . S
H2820 N2817 0.984 . S
H2821 N2817 0.985 . S
H2822 N2816 0.984 . S
H2823 N2816 0.984 . S
H2824 N2812 0.984 . S
H2825 N2812 0.985 . S
C2826 C2827 1.363 . S
C2826 C2832 1.379 . S
C2826 N2834 1.356 . S
C2827 C2826 1.363 . S
C2827 C2833 1.363 . S
C2828 C2829 1.363 . S
C2828 C2833 1.379 . S
C2828 N2835 1.356 . S
C2829 C2828 1.363 . S
C2829 C2832 1.363 . S
N2830 C2832 1.356 . S
N2830 H2842 0.984 . S
N2830 H2843 0.985 . S
N2831 C2833 1.356 . S
N2831 H2836 0.984 . S
N2831 H2837 0.985 . S
C2832 C2826 1.379 . S
C2832 C2829 1.363 . S
C2832 N2830 1.356 . S
C2833 C2827 1.363 . S
C2833 C2828 1.379 . S
C2833 N2831 1.356 . S
N2834 C2826 1.356 . S
N2834 H2840 0.984 . S
N2834 H2841 0.984 . S
N2835 C2828 1.356 . S
N2835 H2838 0.984 . S
N2835 H2839 0.985 . S
H2836 N2831 0.984 . S
H2837 N2831 0.985 . S
H2838 N2835 0.984 . S
H2839 N2835 0.985 . S
H2840 N2834 0.984 . S
H2841 N2834 0.984 . S
H2842 N2830 0.984 . S
H2843 N2830 0.985 . S
C2844 C2845 1.363 . S
C2844 C2850 1.379 . S
C2844 N2852 1.356 . S
C2845 C2844 1.363 . S
C2845 C2851 1.363 . S
C2846 C2847 1.363 . S
C2846 C2851 1.379 . S
C2846 N2853 1.356 . S
C2847 C2846 1.363 . S
C2847 C2850 1.363 . S
N2848 C2850 1.356 . S
N2848 H2860 0.984 . S
N2848 H2861 0.985 . S
N2849 C2851 1.356 . S
N2849 H2854 0.984 . S
N2849 H2855 0.985 . S
C2850 C2844 1.379 . S
C2850 C2847 1.363 . S
C2850 N2848 1.356 . S
C2851 C2845 1.363 . S
C2851 C2846 1.379 . S
C2851 N2849 1.356 . S
N2852 C2844 1.356 . S
N2852 H2858 0.984 . S
N2852 H2859 0.984 . S
N2853 C2846 1.356 . S
N2853 H2856 0.984 . S
N2853 H2857 0.985 . S
H2854 N2849 0.984 . S
H2855 N2849 0.985 . S
H2856 N2853 0.984 . S
H2857 N2853 0.985 . S
H2858 N2852 0.984 . S
H2859 N2852 0.984 . S
H2860 N2848 0.984 . S
H2861 N2848 0.985 . S
C2862 C2863 1.363 . S
C2862 C2868 1.379 . S
C2862 N2870 1.356 . S
C2863 C2862 1.363 . S
C2863 C2869 1.363 . S
C2864 C2865 1.363 . S
C2864 C2869 1.379 . S
C2864 N2871 1.356 . S
C2865 C2864 1.363 . S
C2865 C2868 1.363 . S
N2866 C2868 1.356 . S
N2866 H2878 0.984 . S
N2866 H2879 0.985 . S
N2867 C2869 1.356 . S
N2867 H2872 0.984 . S
N2867 H2873 0.985 . S
C2868 C2862 1.379 . S
C2868 C2865 1.363 . S
C2868 N2866 1.356 . S
C2869 C2863 1.363 . S
C2869 C2864 1.379 . S
C2869 N2867 1.356 . S
N2870 C2862 1.356 . S
N2870 H2876 0.984 . S
N2870 H2877 0.984 . S
N2871 C2864 1.356 . S
N2871 H2874 0.984 . S
N2871 H2875 0.985 . S
H2872 N2867 0.984 . S
H2873 N2867 0.985 . S
H2874 N2871 0.984 . S
H2875 N2871 0.985 . S
H2876 N2870 0.984 . S
H2877 N2870 0.984 . S
H2878 N2866 0.984 . S
H2879 N2866 0.985 . S
C2880 C2881 1.363 . S
C2880 C2886 1.379 . S
C2880 N2888 1.356 . S
C2881 C2880 1.363 . S
C2881 C2887 1.363 . S
C2882 C2883 1.363 . S
C2882 C2887 1.379 . S
C2882 N2889 1.356 . S
C2883 C2882 1.363 . S
C2883 C2886 1.363 . S
N2884 C2886 1.356 . S
N2884 H2896 0.984 . S
N2884 H2897 0.985 . S
N2885 C2887 1.356 . S
N2885 H2890 0.984 . S
N2885 H2891 0.985 . S
C2886 C2880 1.379 . S
C2886 C2883 1.363 . S
C2886 N2884 1.356 . S
C2887 C2881 1.363 . S
C2887 C2882 1.379 . S
C2887 N2885 1.356 . S
N2888 C2880 1.356 . S
N2888 H2894 0.984 . S
N2888 H2895 0.984 . S
N2889 C2882 1.356 . S
N2889 H2892 0.984 . S
N2889 H2893 0.985 . S
H2890 N2885 0.984 . S
H2891 N2885 0.985 . S
H2892 N2889 0.984 . S
H2893 N2889 0.985 . S
H2894 N2888 0.984 . S
H2895 N2888 0.984 . S
H2896 N2884 0.984 . S
H2897 N2884 0.985 . S
C2898 C2899 1.363 . S
C2898 C2904 1.379 . S
C2898 N2906 1.356 . S
C2899 C2898 1.363 . S
C2899 C2905 1.363 . S
C2900 C2901 1.363 . S
C2900 C2905 1.379 . S
C2900 N2907 1.356 . S
C2901 C2900 1.363 . S
C2901 C2904 1.363 . S
N2902 C2904 1.356 . S
N2902 H2914 0.984 . S
N2902 H2915 0.985 . S
N2903 C2905 1.356 . S
N2903 H2908 0.984 . S
N2903 H2909 0.985 . S
C2904 C2898 1.379 . S
C2904 C2901 1.363 . S
C2904 N2902 1.356 . S
C2905 C2899 1.363 . S
C2905 C2900 1.379 . S
C2905 N2903 1.356 . S
N2906 C2898 1.356 . S
N2906 H2912 0.984 . S
N2906 H2913 0.984 . S
N2907 C2900 1.356 . S
N2907 H2910 0.984 . S
N2907 H2911 0.985 . S
H2908 N2903 0.984 . S
H2909 N2903 0.985 . S
H2910 N2907 0.984 . S
H2911 N2907 0.985 . S
H2912 N2906 0.984 . S
H2913 N2906 0.984 . S
H2914 N2902 0.984 . S
H2915 N2902 0.985 . S
C2916 C2917 1.363 . S
C2916 C2922 1.379 . S
C2916 N2924 1.356 . S
C2917 C2916 1.363 . S
C2917 C2923 1.363 . S
C2918 C2919 1.361 1_554 S
C2918 C2923 1.379 . S
C2918 N2925 1.356 1_554 S
C2919 C2918 1.361 1_556 S
C2919 C2922 1.340 1_556 S
N2920 C2922 1.356 . S
N2920 H2932 0.984 . S
N2920 H2933 0.985 1_554 S
N2921 C2923 1.356 . S
N2921 H2926 0.984 . S
N2921 H2927 0.985 . S
C2922 C2916 1.379 . S
C2922 C2919 1.340 1_554 S
C2922 N2920 1.356 . S
C2923 C2917 1.363 . S
C2923 C2918 1.379 . S
C2923 N2921 1.356 . S
N2924 C2916 1.356 . S
N2924 H2930 0.984 . S
N2924 H2931 0.984 . S
N2925 C2918 1.356 1_556 S
N2925 H2928 0.984 . S
N2925 H2929 0.985 . S
H2926 N2921 0.984 . S
H2927 N2921 0.985 . S
H2928 N2925 0.984 . S
H2929 N2925 0.985 . S
H2930 N2924 0.984 . S
H2931 N2924 0.984 . S
H2932 N2920 0.984 . S
H2933 N2920 0.985 1_556 S
C2934 C2935 1.363 . S
C2934 C2940 1.379 . S
C2934 N2942 1.356 . S
C2935 C2934 1.363 . S
C2935 C2941 1.363 . S
C2936 C2937 1.363 . S
C2936 C2941 1.379 . S
C2936 N2943 1.356 . S
C2937 C2936 1.363 . S
C2937 C2940 1.363 . S
N2938 C2940 1.356 . S
N2938 H2950 0.984 . S
N2938 H2951 0.985 . S
N2939 C2941 1.356 . S
N2939 H2944 0.984 . S
N2939 H2945 0.985 . S
C2940 C2934 1.379 . S
C2940 C2937 1.363 . S
C2940 N2938 1.356 . S
C2941 C2935 1.363 . S
C2941 C2936 1.379 . S
C2941 N2939 1.356 . S
N2942 C2934 1.356 . S
N2942 H2948 0.984 . S
N2942 H2949 0.984 . S
N2943 C2936 1.356 . S
N2943 H2946 0.984 . S
N2943 H2947 0.985 . S
H2944 N2939 0.984 . S
H2945 N2939 0.985 . S
H2946 N2943 0.984 . S
H2947 N2943 0.985 . S
H2948 N2942 0.984 . S
H2949 N2942 0.984 . S
H2950 N2938 0.984 . S
H2951 N2938 0.985 . S
C2952 C2953 1.363 . S
C2952 C2958 1.379 . S
C2952 N2960 1.356 . S
C2953 C2952 1.363 . S
C2953 C2959 1.363 1_556 S
C2954 C2955 1.363 . S
C2954 C2959 1.379 . S
C2954 N2961 1.356 . S
C2955 C2954 1.363 . S
C2955 C2958 1.363 1_554 S
N2956 C2958 1.356 . S
N2956 H2968 0.984 . S
N2956 H2969 0.985 1_556 S
N2957 C2959 1.353 1_556 S
N2957 H2962 1.020 . S
N2957 H2963 0.954 1_556 S
C2958 C2952 1.379 . S
C2958 C2955 1.363 1_556 S
C2958 N2956 1.356 . S
C2959 C2953 1.363 1_554 S
C2959 C2954 1.379 . S
C2959 N2957 1.353 1_554 S
N2960 C2952 1.356 . S
N2960 H2966 0.984 . S
N2960 H2967 0.984 . S
N2961 C2954 1.356 . S
N2961 H2964 0.984 . S
N2961 H2965 0.985 . S
H2962 N2957 1.020 . S
H2963 N2957 0.954 1_554 S
H2964 N2961 0.984 . S
H2965 N2961 0.985 . S
H2966 N2960 0.984 . S
H2967 N2960 0.984 . S
H2968 N2956 0.984 . S
H2969 N2956 0.985 1_554 S
C2970 C2971 1.363 . S
C2970 C2976 1.379 . S
C2970 N2978 1.356 . S
C2971 C2970 1.363 . S
C2971 C2977 1.363 . S
C2972 C2973 1.363 . S
C2972 C2977 1.379 . S
C2972 N2979 1.356 . S
C2973 C2972 1.363 . S
C2973 C2976 1.363 . S
N2974 C2976 1.356 . S
N2974 H2986 0.984 . S
N2974 H2987 0.985 . S
N2975 C2977 1.356 . S
N2975 H2980 0.984 . S
N2975 H2981 0.985 . S
C2976 C2970 1.379 . S
C2976 C2973 1.363 . S
C2976 N2974 1.356 . S
C2977 C2971 1.363 . S
C2977 C2972 1.379 . S
C2977 N2975 1.356 . S
N2978 C2970 1.356 . S
N2978 H2984 0.984 . S
N2978 H2985 0.984 . S
N2979 C2972 1.356 . S
N2979 H2982 0.984 . S
N2979 H2983 0.985 . S
H2980 N2975 0.984 . S
H2981 N2975 0.985 . S
H2982 N2979 0.984 . S
H2983 N2979 0.985 . S
H2984 N2978 0.984 . S
H2985 N2978 0.984 . S
H2986 N2974 0.984 . S
H2987 N2974 0.985 . S
C2988 C2989 1.363 . S
C2988 C2994 1.379 . S
C2988 N2996 1.356 . S
C2989 C2988 1.363 . S
C2989 C2995 1.363 . S
C2990 C2991 1.363 . S
C2990 C2995 1.379 . S
C2990 N2997 1.356 . S
C2991 C2990 1.363 . S
C2991 C2994 1.363 . S
N2992 C2994 1.356 . S
N2992 H3004 0.984 . S
N2992 H3005 0.985 . S
N2993 C2995 1.356 . S
N2993 H2998 0.984 . S
N2993 H2999 0.985 . S
C2994 C2988 1.379 . S
C2994 C2991 1.363 . S
C2994 N2992 1.356 . S
C2995 C2989 1.363 . S
C2995 C2990 1.379 . S
C2995 N2993 1.356 . S
N2996 C2988 1.356 . S
N2996 H3002 0.984 . S
N2996 H3003 0.984 . S
N2997 C2990 1.356 . S
N2997 H3000 0.984 . S
N2997 H3001 0.985 . S
H2998 N2993 0.984 . S
H2999 N2993 0.985 . S
H3000 N2997 0.984 . S
H3001 N2997 0.985 . S
H3002 N2996 0.984 . S
H3003 N2996 0.984 . S
H3004 N2992 0.984 . S
H3005 N2992 0.985 . S
C3006 C3007 1.363 . S
C3006 C3012 1.379 . S
C3006 N3014 1.356 . S
C3007 C3006 1.363 . S
C3007 C3013 1.363 . S
C3008 C3009 1.363 . S
C3008 C3013 1.379 . S
C3008 N3015 1.356 . S
C3009 C3008 1.363 . S
C3009 C3012 1.363 . S
N3010 C3012 1.356 . S
N3010 H3022 0.984 . S
N3010 H3023 0.985 . S
N3011 C3013 1.356 . S
N3011 H3016 0.984 . S
N3011 H3017 0.985 . S
C3012 C3006 1.379 . S
C3012 C3009 1.363 . S
C3012 N3010 1.356 . S
C3013 C3007 1.363 . S
C3013 C3008 1.379 . S
C3013 N3011 1.356 . S
N3014 C3006 1.356 . S
N3014 H3020 0.984 . S
N3014 H3021 0.984 . S
N3015 C3008 1.356 . S
N3015 H3018 0.984 . S
N3015 H3019 0.985 . S
H3016 N3011 0.984 . S
H3017 N3011 0.985 . S
H3018 N3015 0.984 . S
H3019 N3015 0.985 . S
H3020 N3014 0.984 . S
H3021 N3014 0.984 . S
H3022 N3010 0.984 . S
H3023 N3010 0.985 . S
C3024 C3025 1.363 . S
C3024 C3030 1.379 . S
C3024 N3032 1.356 . S
C3025 C3024 1.363 . S
C3025 C3031 1.363 . S
C3026 C3027 1.363 . S
C3026 C3031 1.379 . S
C3026 N3033 1.356 . S
C3027 C3026 1.363 . S
C3027 C3030 1.363 . S
N3028 C3030 1.356 . S
N3028 H3040 0.984 . S
N3028 H3041 0.985 . S
N3029 C3031 1.356 . S
N3029 H3034 0.984 . S
N3029 H3035 0.985 . S
C3030 C3024 1.379 . S
C3030 C3027 1.363 . S
C3030 N3028 1.356 . S
C3031 C3025 1.363 . S
C3031 C3026 1.379 . S
C3031 N3029 1.356 . S
N3032 C3024 1.356 . S
N3032 H3038 0.984 . S
N3032 H3039 0.984 . S
N3033 C3026 1.356 . S
N3033 H3036 0.984 . S
N3033 H3037 0.985 . S
H3034 N3029 0.984 . S
H3035 N3029 0.985 . S
H3036 N3033 0.984 . S
H3037 N3033 0.985 . S
H3038 N3032 0.984 . S
H3039 N3032 0.984 . S
H3040 N3028 0.984 . S
H3041 N3028 0.985 . S
C3042 C3043 1.363 . S
C3042 C3048 1.379 . S
C3042 N3050 1.356 . S
C3043 C3042 1.363 . S
C3043 C3049 1.363 . S
C3044 C3045 1.363 . S
C3044 C3049 1.379 . S
C3044 N3051 1.356 . S
C3045 C3044 1.363 . S
C3045 C3048 1.363 . S
N3046 C3048 1.356 . S
N3046 H3058 0.984 . S
N3046 H3059 0.985 . S
N3047 C3049 1.356 . S
N3047 H3052 0.984 . S
N3047 H3053 0.985 . S
C3048 C3042 1.379 . S
C3048 C3045 1.363 . S
C3048 N3046 1.356 . S
C3049 C3043 1.363 . S
C3049 C3044 1.379 . S
C3049 N3047 1.356 . S
N3050 C3042 1.356 . S
N3050 H3056 0.984 . S
N3050 H3057 0.984 . S
N3051 C3044 1.356 . S
N3051 H3054 0.984 . S
N3051 H3055 0.985 . S
H3052 N3047 0.984 . S
H3053 N3047 0.985 . S
H3054 N3051 0.984 . S
H3055 N3051 0.985 . S
H3056 N3050 0.984 . S
H3057 N3050 0.984 . S
H3058 N3046 0.984 . S
H3059 N3046 0.985 . S
C3060 C3061 1.363 . S
C3060 C3066 1.379 1_655 S
C3060 N3068 1.356 . S
C3061 C3060 1.363 . S
C3061 C3067 1.363 . S
C3062 C3063 1.363 . S
C3062 C3067 1.379 1_455 S
C3062 N3069 1.356 . S
C3063 C3062 1.363 . S
C3063 C3066 1.363 . S
N3064 C3066 1.356 . S
N3064 H3076 0.984 . S
N3064 H3077 0.985 . S
N3065 C3067 1.356 . S
N3065 H3070 0.984 . S
N3065 H3071 0.985 . S
C3066 C3060 1.379 1_455 S
C3066 C3063 1.363 . S
C3066 N3064 1.356 . S
C3067 C3061 1.363 . S
C3067 C3062 1.379 1_655 S
C3067 N3065 1.356 . S
N3068 C3060 1.356 . S
N3068 H3074 0.984 . S
N3068 H3075 0.984 . S
N3069 C3062 1.356 . S
N3069 H3072 0.984 . S
N3069 H3073 0.985 . S
H3070 N3065 0.984 . S
H3071 N3065 0.985 . S
H3072 N3069 0.984 . S
H3073 N3069 0.985 . S
H3074 N3068 0.984 . S
H3075 N3068 0.984 . S
H3076 N3064 0.984 . S
H3077 N3064 0.985 . S
C3078 C3079 1.363 . S
C3078 C3084 1.379 . S
C3078 N3086 1.356 . S
C3079 C3078 1.363 . S
C3079 C3085 1.363 . S
C3080 C3081 1.363 . S
C3080 C3085 1.379 . S
C3080 N3087 1.356 . S
C3081 C3080 1.363 . S
C3081 C3084 1.363 . S
N3082 C3084 1.356 . S
N3082 H3094 0.984 . S
N3082 H3095 0.985 . S
N3083 C3085 1.356 . S
N3083 H3088 0.984 . S
N3083 H3089 0.985 . S
C3084 C3078 1.379 . S
C3084 C3081 1.363 . S
C3084 N3082 1.356 . S
C3085 C3079 1.363 . S
C3085 C3080 1.379 . S
C3085 N3083 1.356 . S
N3086 C3078 1.356 . S
N3086 H3092 0.984 . S
N3086 H3093 0.984 . S
N3087 C3080 1.356 . S
N3087 H3090 0.984 . S
N3087 H3091 0.985 . S
H3088 N3083 0.984 . S
H3089 N3083 0.985 . S
H3090 N3087 0.984 . S
H3091 N3087 0.985 . S
H3092 N3086 0.984 . S
H3093 N3086 0.984 . S
H3094 N3082 0.984 . S
H3095 N3082 0.985 . S
C3096 C3097 1.363 . S
C3096 C3102 1.379 . S
C3096 N3104 1.356 . S
C3097 C3096 1.363 . S
C3097 C3103 1.363 . S
C3098 C3099 1.363 . S
C3098 C3103 1.379 . S
C3098 N3105 1.356 . S
C3099 C3098 1.363 . S
C3099 C3102 1.363 . S
N3100 C3102 1.356 . S
N3100 H3112 0.984 . S
N3100 H3113 0.985 . S
N3101 C3103 1.356 . S
N3101 H3106 0.984 . S
N3101 H3107 0.985 . S
C3102 C3096 1.379 . S
C3102 C3099 1.363 . S
C3102 N3100 1.356 . S
C3103 C3097 1.363 . S
C3103 C3098 1.379 . S
C3103 N3101 1.356 . S
N3104 C3096 1.356 . S
N3104 H3110 0.984 . S
N3104 H3111 0.984 . S
N3105 C3098 1.356 . S
N3105 H3108 0.984 . S
N3105 H3109 0.985 . S
H3106 N3101 0.984 . S
H3107 N3101 0.985 . S
H3108 N3105 0.984 . S
H3109 N3105 0.985 . S
H3110 N3104 0.984 . S
H3111 N3104 0.984 . S
H3112 N3100 0.984 . S
H3113 N3100 0.985 . S
C3114 C3115 1.363 . S
C3114 C3120 1.379 . S
C3114 N3122 1.356 . S
C3115 C3114 1.363 . S
C3115 C3121 1.363 . S
C3116 C3117 1.363 . S
C3116 C3121 1.379 . S
C3116 N3123 1.356 . S
C3117 C3116 1.363 . S
C3117 C3120 1.363 . S
N3118 C3120 1.356 . S
N3118 H3130 0.984 . S
N3118 H3131 0.985 . S
N3119 C3121 1.356 . S
N3119 H3124 0.984 . S
N3119 H3125 0.985 . S
C3120 C3114 1.379 . S
C3120 C3117 1.363 . S
C3120 N3118 1.356 . S
C3121 C3115 1.363 . S
C3121 C3116 1.379 . S
C3121 N3119 1.356 . S
N3122 C3114 1.356 . S
N3122 H3128 0.984 . S
N3122 H3129 0.984 . S
N3123 C3116 1.356 . S
N3123 H3126 0.984 . S
N3123 H3127 0.985 . S
H3124 N3119 0.984 . S
H3125 N3119 0.985 . S
H3126 N3123 0.984 . S
H3127 N3123 0.985 . S
H3128 N3122 0.984 . S
H3129 N3122 0.984 . S
H3130 N3118 0.984 . S
H3131 N3118 0.985 . S
C3132 C3133 1.363 . S
C3132 C3138 1.379 . S
C3132 N3140 1.356 . S
C3133 C3132 1.363 . S
C3133 C3139 1.363 . S
C3134 C3135 1.363 1_655 S
C3134 C3139 1.379 1_655 S
C3134 N3141 1.356 . S
C3135 C3134 1.363 1_455 S
C3135 C3138 1.363 . S
N3136 C3138 1.356 . S
N3136 H3148 0.984 . S
N3136 H3149 0.985 . S
N3137 C3139 1.356 . S
N3137 H3142 0.984 . S
N3137 H3143 0.985 . S
C3138 C3132 1.379 . S
C3138 C3135 1.363 . S
C3138 N3136 1.356 . S
C3139 C3133 1.363 . S
C3139 C3134 1.379 1_455 S
C3139 N3137 1.356 . S
N3140 C3132 1.356 . S
N3140 H3146 0.984 . S
N3140 H3147 0.984 . S
N3141 C3134 1.356 . S
N3141 H3144 0.984 . S
N3141 H3145 0.985 . S
H3142 N3137 0.984 . S
H3143 N3137 0.985 . S
H3144 N3141 0.984 . S
H3145 N3141 0.985 . S
H3146 N3140 0.984 . S
H3147 N3140 0.984 . S
H3148 N3136 0.984 . S
H3149 N3136 0.985 . S
C3150 C3151 1.363 . S
C3150 C3156 1.379 . S
C3150 N3158 1.356 . S
C3151 C3150 1.363 . S
C3151 C3157 1.363 . S
C3152 C3153 1.363 . S
C3152 C3157 1.379 . S
C3152 N3159 1.356 . S
C3153 C3152 1.363 . S
C3153 C3156 1.363 . S
N3154 C3156 1.356 . S
N3154 H3166 0.984 . S
N3154 H3167 0.985 . S
N3155 C3157 1.356 . S
N3155 H3160 0.984 . S
N3155 H3161 0.985 . S
C3156 C3150 1.379 . S
C3156 C3153 1.363 . S
C3156 N3154 1.356 . S
C3157 C3151 1.363 . S
C3157 C3152 1.379 . S
C3157 N3155 1.356 . S
N3158 C3150 1.356 . S
N3158 H3164 0.984 . S
N3158 H3165 0.984 . S
N3159 C3152 1.356 . S
N3159 H3162 0.984 . S
N3159 H3163 0.985 . S
H3160 N3155 0.984 . S
H3161 N3155 0.985 . S
H3162 N3159 0.984 . S
H3163 N3159 0.985 . S
H3164 N3158 0.984 . S
H3165 N3158 0.984 . S
H3166 N3154 0.984 . S
H3167 N3154 0.985 . S
C3168 C3169 1.363 . S
C3168 C3174 1.379 . S
C3168 N3176 1.356 . S
C3169 C3168 1.363 . S
C3169 C3175 1.363 . S
C3170 C3171 1.363 . S
C3170 C3175 1.379 . S
C3170 N3177 1.356 . S
C3171 C3170 1.363 . S
C3171 C3174 1.363 . S
N3172 C3174 1.356 . S
N3172 H3184 0.984 . S
N3172 H3185 0.985 . S
N3173 C3175 1.356 . S
N3173 H3178 0.984 . S
N3173 H3179 0.985 . S
C3174 C3168 1.379 . S
C3174 C3171 1.363 . S
C3174 N3172 1.356 . S
C3175 C3169 1.363 . S
C3175 C3170 1.379 . S
C3175 N3173 1.356 . S
N3176 C3168 1.356 . S
N3176 H3182 0.984 . S
N3176 H3183 0.984 . S
N3177 C3170 1.356 . S
N3177 H3180 0.984 . S
N3177 H3181 0.985 . S
H3178 N3173 0.984 . S
H3179 N3173 0.985 . S
H3180 N3177 0.984 . S
H3181 N3177 0.985 . S
H3182 N3176 0.984 . S
H3183 N3176 0.984 . S
H3184 N3172 0.984 . S
H3185 N3172 0.985 . S
C3186 C3187 1.363 . S
C3186 C3192 1.379 . S
C3186 N3194 1.356 . S
C3187 C3186 1.363 . S
C3187 C3193 1.363 . S
C3188 C3189 1.363 1_565 S
C3188 C3193 1.379 . S
C3188 N3195 1.356 1_565 S
C3189 C3188 1.363 1_545 S
C3189 C3192 1.363 1_545 S
N3190 C3192 1.356 1_545 S
N3190 H3202 0.984 . S
N3190 H3203 0.985 . S
N3191 C3193 1.356 . S
N3191 H3196 0.984 . S
N3191 H3197 0.985 . S
C3192 C3186 1.379 . S
C3192 C3189 1.363 1_565 S
C3192 N3190 1.356 1_565 S
C3193 C3187 1.363 . S
C3193 C3188 1.379 . S
C3193 N3191 1.356 . S
N3194 C3186 1.356 . S
N3194 H3200 0.984 . S
N3194 H3201 0.984 . S
N3195 C3188 1.356 1_545 S
N3195 H3198 0.984 . S
N3195 H3199 0.985 1_545 S
H3196 N3191 0.984 . S
H3197 N3191 0.985 . S
H3198 N3195 0.984 . S
H3199 N3195 0.985 1_565 S
H3200 N3194 0.984 . S
H3201 N3194 0.984 . S
H3202 N3190 0.984 . S
H3203 N3190 0.985 . S
C3204 C3205 1.363 . S
C3204 C3210 1.379 . S
C3204 N3212 1.356 . S
C3205 C3204 1.363 . S
C3205 C3211 1.363 . S
C3206 C3207 1.363 . S
C3206 C3211 1.379 . S
C3206 N3213 1.356 . S
C3207 C3206 1.363 . S
C3207 C3210 1.363 . S
N3208 C3210 1.356 . S
N3208 H3220 0.984 . S
N3208 H3221 0.985 . S
N3209 C3211 1.356 . S
N3209 H3214 0.984 . S
N3209 H3215 0.985 . S
C3210 C3204 1.379 . S
C3210 C3207 1.363 . S
C3210 N3208 1.356 . S
C3211 C3205 1.363 . S
C3211 C3206 1.379 . S
C3211 N3209 1.356 . S
N3212 C3204 1.356 . S
N3212 H3218 0.984 . S
N3212 H3219 0.984 . S
N3213 C3206 1.356 . S
N3213 H3216 0.984 . S
N3213 H3217 0.985 . S
H3214 N3209 0.984 . S
H3215 N3209 0.985 . S
H3216 N3213 0.984 . S
H3217 N3213 0.985 . S
H3218 N3212 0.984 . S
H3219 N3212 0.984 . S
H3220 N3208 0.984 . S
H3221 N3208 0.985 . S
C3222 C3223 1.363 . S
C3222 C3228 1.379 . S
C3222 N3230 1.356 . S
C3223 C3222 1.363 . S
C3223 C3229 1.363 1_565 S
C3224 C3225 1.363 . S
C3224 C3229 1.379 . S
C3224 N3231 1.356 . S
C3225 C3224 1.363 . S
C3225 C3228 1.363 1_545 S
N3226 C3228 1.357 . S
N3226 H3238 1.000 . S
N3226 H3239 0.968 1_565 S
N3227 C3229 1.356 1_565 S
N3227 H3232 0.984 . S
N3227 H3233 0.985 1_565 S
C3228 C3222 1.379 . S
C3228 C3225 1.363 1_565 S
C3228 N3226 1.357 . S
C3229 C3223 1.363 1_545 S
C3229 C3224 1.379 . S
C3229 N3227 1.356 1_545 S
N3230 C3222 1.356 . S
N3230 H3236 0.984 . S
N3230 H3237 0.984 . S
N3231 C3224 1.356 . S
N3231 H3234 0.984 . S
N3231 H3235 0.985 . S
H3232 N3227 0.984 . S
H3233 N3227 0.985 1_545 S
H3234 N3231 0.984 . S
H3235 N3231 0.985 . S
H3236 N3230 0.984 . S
H3237 N3230 0.984 . S
H3238 N3226 1.000 . S
H3239 N3226 0.968 1_545 S
C3240 C3241 1.363 . S
C3240 C3246 1.379 . S
C3240 N3248 1.356 . S
C3241 C3240 1.363 . S
C3241 C3247 1.363 . S
C3242 C3243 1.363 . S
C3242 C3247 1.379 . S
C3242 N3249 1.356 . S
C3243 C3242 1.363 . S
C3243 C3246 1.363 . S
N3244 C3246 1.356 . S
N3244 H3256 0.984 . S
N3244 H3257 0.985 . S
N3245 C3247 1.356 . S
N3245 H3250 0.984 . S
N3245 H3251 0.985 . S
C3246 C3240 1.379 . S
C3246 C3243 1.363 . S
C3246 N3244 1.356 . S
C3247 C3241 1.363 . S
C3247 C3242 1.379 . S
C3247 N3245 1.356 . S
N3248 C3240 1.356 . S
N3248 H3254 0.984 . S
N3248 H3255 0.984 . S
N3249 C3242 1.356 . S
N3249 H3252 0.984 . S
N3249 H3253 0.985 . S
H3250 N3245 0.984 . S
H3251 N3245 0.985 . S
H3252 N3249 0.984 . S
H3253 N3249 0.985 . S
H3254 N3248 0.984 . S
H3255 N3248 0.984 . S
H3256 N3244 0.984 . S
H3257 N3244 0.985 . S
C3258 C3259 1.363 . S
C3258 C3264 1.379 . S
C3258 N3266 1.356 . S
C3259 C3258 1.363 . S
C3259 C3265 1.363 . S
C3260 C3261 1.363 . S
C3260 C3265 1.379 . S
C3260 N3267 1.356 . S
C3261 C3260 1.363 . S
C3261 C3264 1.363 . S
N3262 C3264 1.356 . S
N3262 H3274 0.984 . S
N3262 H3275 0.985 . S
N3263 C3265 1.356 . S
N3263 H3268 0.984 . S
N3263 H3269 0.985 . S
C3264 C3258 1.379 . S
C3264 C3261 1.363 . S
C3264 N3262 1.356 . S
C3265 C3259 1.363 . S
C3265 C3260 1.379 . S
C3265 N3263 1.356 . S
N3266 C3258 1.356 . S
N3266 H3272 0.984 . S
N3266 H3273 0.984 . S
N3267 C3260 1.356 . S
N3267 H3270 0.984 . S
N3267 H3271 0.985 . S
H3268 N3263 0.984 . S
H3269 N3263 0.985 . S
H3270 N3267 0.984 . S
H3271 N3267 0.985 . S
H3272 N3266 0.984 . S
H3273 N3266 0.984 . S
H3274 N3262 0.984 . S
H3275 N3262 0.985 . S
C3276 C3277 1.363 . S
C3276 C3282 1.379 . S
C3276 N3284 1.356 . S
C3277 C3276 1.363 . S
C3277 C3283 1.363 . S
C3278 C3279 1.363 . S
C3278 C3283 1.379 . S
C3278 N3285 1.356 . S
C3279 C3278 1.363 . S
C3279 C3282 1.363 . S
N3280 C3282 1.356 . S
N3280 H3292 0.984 . S
N3280 H3293 0.985 . S
N3281 C3283 1.356 . S
N3281 H3286 0.984 . S
N3281 H3287 0.985 . S
C3282 C3276 1.379 . S
C3282 C3279 1.363 . S
C3282 N3280 1.356 . S
C3283 C3277 1.363 . S
C3283 C3278 1.379 . S
C3283 N3281 1.356 . S
N3284 C3276 1.356 . S
N3284 H3290 0.984 . S
N3284 H3291 0.984 . S
N3285 C3278 1.356 . S
N3285 H3288 0.984 . S
N3285 H3289 0.985 . S
H3286 N3281 0.984 . S
H3287 N3281 0.985 . S
H3288 N3285 0.984 . S
H3289 N3285 0.985 . S
H3290 N3284 0.984 . S
H3291 N3284 0.984 . S
H3292 N3280 0.984 . S
H3293 N3280 0.985 . S
C3294 C3295 1.363 . S
C3294 C3300 1.379 . S
C3294 N3302 1.356 . S
C3295 C3294 1.363 . S
C3295 C3301 1.363 . S
C3296 C3297 1.363 . S
C3296 C3301 1.379 . S
C3296 N3303 1.356 . S
C3297 C3296 1.363 . S
C3297 C3300 1.363 . S
N3298 C3300 1.356 . S
N3298 H3310 0.984 . S
N3298 H3311 0.985 . S
N3299 C3301 1.356 . S
N3299 H3304 0.984 . S
N3299 H3305 0.985 . S
C3300 C3294 1.379 . S
C3300 C3297 1.363 . S
C3300 N3298 1.356 . S
C3301 C3295 1.363 . S
C3301 C3296 1.379 . S
C3301 N3299 1.356 . S
N3302 C3294 1.356 . S
N3302 H3308 0.984 . S
N3302 H3309 0.984 . S
N3303 C3296 1.356 . S
N3303 H3306 0.984 . S
N3303 H3307 0.985 . S
H3304 N3299 0.984 . S
H3305 N3299 0.985 . S
H3306 N3303 0.984 . S
H3307 N3303 0.985 . S
H3308 N3302 0.984 . S
H3309 N3302 0.984 . S
H3310 N3298 0.984 . S
H3311 N3298 0.985 . S
C3312 C3313 1.363 . S
C3312 C3318 1.379 1_655 S
C3312 N3320 1.356 . S
C3313 C3312 1.363 . S
C3313 C3319 1.363 1_655 S
C3314 C3315 1.363 . S
C3314 C3319 1.379 . S
C3314 N3321 1.356 . S
C3315 C3314 1.363 . S
C3315 C3318 1.363 . S
N3316 C3318 1.356 . S
N3316 H3328 0.984 . S
N3316 H3329 0.985 . S
N3317 C3319 1.356 . S
N3317 H3322 0.984 1_455 S
N3317 H3323 0.985 . S
C3318 C3312 1.379 1_455 S
C3318 C3315 1.363 . S
C3318 N3316 1.356 . S
C3319 C3313 1.363 1_455 S
C3319 C3314 1.379 . S
C3319 N3317 1.356 . S
N3320 C3312 1.356 . S
N3320 H3326 0.984 . S
N3320 H3327 0.984 . S
N3321 C3314 1.356 . S
N3321 H3324 0.984 . S
N3321 H3325 0.985 . S
H3322 N3317 0.984 1_655 S
H3323 N3317 0.985 . S
H3324 N3321 0.984 . S
H3325 N3321 0.985 . S
H3326 N3320 0.984 . S
H3327 N3320 0.984 . S
H3328 N3316 0.984 . S
H3329 N3316 0.985 . S
C3330 C3331 1.363 . S
C3330 C3336 1.379 1_455 S
C3330 N3338 1.356 . S
C3331 C3330 1.363 . S
C3331 C3337 1.363 . S
C3332 C3333 1.363 1_455 S
C3332 C3337 1.379 . S
C3332 N3339 1.356 . S
C3333 C3332 1.363 1_655 S
C3333 C3336 1.363 . S
N3334 C3336 1.356 . S
N3334 H3346 0.984 . S
N3334 H3347 0.985 . S
N3335 C3337 1.356 . S
N3335 H3340 0.984 . S
N3335 H3341 0.985 . S
C3336 C3330 1.379 1_655 S
C3336 C3333 1.363 . S
C3336 N3334 1.356 . S
C3337 C3331 1.363 . S
C3337 C3332 1.379 . S
C3337 N3335 1.356 . S
N3338 C3330 1.356 . S
N3338 H3344 0.974 1_455 S
N3338 H3345 0.984 . S
N3339 C3332 1.356 . S
N3339 H3342 0.984 1_455 S
N3339 H3343 0.985 . S
H3340 N3335 0.984 . S
H3341 N3335 0.985 . S
H3342 N3339 0.984 1_655 S
H3343 N3339 0.985 . S
H3344 N3338 0.974 1_655 S
H3345 N3338 0.984 . S
H3346 N3334 0.984 . S
H3347 N3334 0.985 . S
C3348 C3349 1.363 . S
C3348 C3354 1.379 . S
C3348 N3356 1.356 . S
C3349 C3348 1.363 . S
C3349 C3355 1.363 . S
C3350 C3351 1.363 . S
C3350 C3355 1.379 . S
C3350 N3357 1.356 . S
C3351 C3350 1.363 . S
C3351 C3354 1.363 . S
N3352 C3354 1.356 . S
N3352 H3364 0.984 . S
N3352 H3365 0.985 . S
N3353 C3355 1.356 . S
N3353 H3358 0.984 . S
N3353 H3359 0.985 . S
C3354 C3348 1.379 . S
C3354 C3351 1.363 . S
C3354 N3352 1.356 . S
C3355 C3349 1.363 . S
C3355 C3350 1.379 . S
C3355 N3353 1.356 . S
N3356 C3348 1.356 . S
N3356 H3362 0.984 . S
N3356 H3363 0.984 . S
N3357 C3350 1.356 . S
N3357 H3360 0.984 . S
N3357 H3361 0.985 . S
H3358 N3353 0.984 . S
H3359 N3353 0.985 . S
H3360 N3357 0.984 . S
H3361 N3357 0.985 . S
H3362 N3356 0.984 . S
H3363 N3356 0.984 . S
H3364 N3352 0.984 . S
H3365 N3352 0.985 . S
C3366 C3367 1.363 . S
C3366 C3372 1.379 . S
C3366 N3374 1.356 . S
C3367 C3366 1.363 . S
C3367 C3373 1.363 . S
C3368 C3369 1.363 . S
C3368 C3373 1.379 . S
C3368 N3375 1.356 . S
C3369 C3368 1.363 . S
C3369 C3372 1.363 . S
N3370 C3372 1.356 . S
N3370 H3382 0.984 . S
N3370 H3383 0.985 . S
N3371 C3373 1.356 . S
N3371 H3376 0.984 . S
N3371 H3377 0.985 . S
C3372 C3366 1.379 . S
C3372 C3369 1.363 . S
C3372 N3370 1.356 . S
C3373 C3367 1.363 . S
C3373 C3368 1.379 . S
C3373 N3371 1.356 . S
N3374 C3366 1.356 . S
N3374 H3380 0.984 . S
N3374 H3381 0.984 . S
N3375 C3368 1.356 . S
N3375 H3378 0.984 . S
N3375 H3379 0.985 . S
H3376 N3371 0.984 . S
H3377 N3371 0.985 . S
H3378 N3375 0.984 . S
H3379 N3375 0.985 . S
H3380 N3374 0.984 . S
H3381 N3374 0.984 . S
H3382 N3370 0.984 . S
H3383 N3370 0.985 . S
C3384 C3385 1.363 . S
C3384 C3390 1.379 1_565 S
C3384 N3392 1.356 . S
C3385 C3384 1.363 . S
C3385 C3391 1.363 . S
C3386 C3387 1.363 1_565 S
C3386 C3391 1.379 . S
C3386 N3393 1.356 . S
C3387 C3386 1.363 1_545 S
C3387 C3390 1.363 . S
N3388 C3390 1.356 . S
N3388 H3400 0.984 . S
N3388 H3401 0.985 . S
N3389 C3391 1.356 . S
N3389 H3394 0.984 . S
N3389 H3395 0.985 . S
C3390 C3384 1.379 1_545 S
C3390 C3387 1.363 . S
C3390 N3388 1.356 . S
C3391 C3385 1.363 . S
C3391 C3386 1.379 . S
C3391 N3389 1.356 . S
N3392 C3384 1.356 . S
N3392 H3398 0.984 . S
N3392 H3399 0.984 . S
N3393 C3386 1.356 . S
N3393 H3396 0.984 1_565 S
N3393 H3397 0.985 . S
H3394 N3389 0.984 . S
H3395 N3389 0.985 . S
H3396 N3393 0.984 1_545 S
H3397 N3393 0.985 . S
H3398 N3392 0.984 . S
H3399 N3392 0.984 . S
H3400 N3388 0.984 . S
H3401 N3388 0.985 . S
C3402 C3403 1.363 . S
C3402 C3408 1.379 . S
C3402 N3410 1.356 . S
C3403 C3402 1.363 . S
C3403 C3409 1.363 . S
C3404 C3405 1.363 . S
C3404 C3409 1.379 . S
C3404 N3411 1.356 . S
C3405 C3404 1.363 . S
C3405 C3408 1.363 . S
N3406 C3408 1.356 . S
N3406 H3418 0.984 . S
N3406 H3419 0.985 . S
N3407 C3409 1.356 . S
N3407 H3412 0.984 . S
N3407 H3413 0.985 . S
C3408 C3402 1.379 . S
C3408 C3405 1.363 . S
C3408 N3406 1.356 . S
C3409 C3403 1.363 . S
C3409 C3404 1.379 . S
C3409 N3407 1.356 . S
N3410 C3402 1.356 . S
N3410 H3416 0.984 . S
N3410 H3417 0.984 . S
N3411 C3404 1.356 . S
N3411 H3414 0.984 . S
N3411 H3415 0.985 . S
H3412 N3407 0.984 . S
H3413 N3407 0.985 . S
H3414 N3411 0.984 . S
H3415 N3411 0.985 . S
H3416 N3410 0.984 . S
H3417 N3410 0.984 . S
H3418 N3406 0.984 . S
H3419 N3406 0.985 . S
C3420 C3421 1.363 . S
C3420 C3426 1.379 . S
C3420 N3428 1.356 . S
C3421 C3420 1.363 . S
C3421 C3427 1.363 1_545 S
C3422 C3423 1.363 . S
C3422 C3427 1.379 . S
C3422 N3429 1.356 . S
C3423 C3422 1.363 . S
C3423 C3426 1.363 1_565 S
N3424 C3426 1.356 . S
N3424 H3436 0.984 . S
N3424 H3437 0.985 1_545 S
N3425 C3427 1.356 . S
N3425 H3430 0.984 . S
N3425 H3431 0.985 . S
C3426 C3420 1.379 . S
C3426 C3423 1.363 1_545 S
C3426 N3424 1.356 . S
C3427 C3421 1.363 1_565 S
C3427 C3422 1.379 . S
C3427 N3425 1.356 . S
N3428 C3420 1.356 . S
N3428 H3434 0.984 . S
N3428 H3435 0.984 . S
N3429 C3422 1.356 . S
N3429 H3432 0.984 . S
N3429 H3433 0.985 . S
H3430 N3425 0.984 . S
H3431 N3425 0.985 . S
H3432 N3429 0.984 . S
H3433 N3429 0.985 . S
H3434 N3428 0.984 . S
H3435 N3428 0.984 . S
H3436 N3424 0.984 . S
H3437 N3424 0.985 1_565 S
C3438 C3439 1.363 . S
C3438 C3444 1.379 1_556 S
C3438 N3446 1.356 . S
C3439 C3438 1.363 . S
C3439 C3445 1.363 . S
C3440 C3441 1.363 . S
C3440 C3445 1.379 1_554 S
C3440 N3447 1.356 . S
C3441 C3440 1.363 . S
C3441 C3444 1.363 . S
N3442 C3444 1.356 . S
N3442 H3454 0.984 . S
N3442 H3455 0.985 . S
N3443 C3445 1.356 . S
N3443 H3448 0.984 . S
N3443 H3449 0.985 . S
C3444 C3438 1.379 1_554 S
C3444 C3441 1.363 . S
C3444 N3442 1.356 . S
C3445 C3439 1.363 . S
C3445 C3440 1.379 1_556 S
C3445 N3443 1.356 . S
N3446 C3438 1.356 . S
N3446 H3452 0.984 . S
N3446 H3453 0.984 . S
N3447 C3440 1.356 . S
N3447 H3450 0.984 . S
N3447 H3451 0.985 . S
H3448 N3443 0.984 . S
H3449 N3443 0.985 . S
H3450 N3447 0.984 . S
H3451 N3447 0.985 . S
H3452 N3446 0.984 . S
H3453 N3446 0.984 . S
H3454 N3442 0.984 . S
H3455 N3442 0.985 . S
C3456 C3457 1.363 . S
C3456 C3462 1.379 1_554 S
C3456 N3464 1.356 . S
C3457 C3456 1.363 . S
C3457 C3463 1.363 . S
C3458 C3459 1.363 1_554 S
C3458 C3463 1.379 . S
C3458 N3465 1.356 1_554 S
C3459 C3458 1.363 1_556 S
C3459 C3462 1.363 . S
N3460 C3462 1.356 . S
N3460 H3472 0.984 . S
N3460 H3473 0.985 . S
N3461 C3463 1.356 . S
N3461 H3466 0.984 . S
N3461 H3467 0.985 . S
C3462 C3456 1.379 1_556 S
C3462 C3459 1.363 . S
C3462 N3460 1.356 . S
C3463 C3457 1.363 . S
C3463 C3458 1.379 . S
C3463 N3461 1.356 . S
N3464 C3456 1.356 . S
N3464 H3470 0.984 1_554 S
N3464 H3471 0.984 . S
N3465 C3458 1.356 1_556 S
N3465 H3468 0.984 . S
N3465 H3469 0.985 1_556 S
H3466 N3461 0.984 . S
H3467 N3461 0.985 . S
H3468 N3465 0.984 . S
H3469 N3465 0.985 1_554 S
H3470 N3464 0.984 1_556 S
H3471 N3464 0.984 . S
H3472 N3460 0.984 . S
H3473 N3460 0.985 . S
C3474 C3475 1.363 . S
C3474 C3480 1.379 . S
C3474 N3482 1.356 . S
C3475 C3474 1.363 . S
C3475 C3481 1.363 . S
C3476 C3477 1.363 . S
C3476 C3481 1.379 . S
C3476 N3483 1.356 . S
C3477 C3476 1.363 . S
C3477 C3480 1.363 . S
N3478 C3480 1.356 . S
N3478 H3490 0.984 . S
N3478 H3491 0.985 . S
N3479 C3481 1.356 . S
N3479 H3484 0.984 . S
N3479 H3485 0.985 . S
C3480 C3474 1.379 . S
C3480 C3477 1.363 . S
C3480 N3478 1.356 . S
C3481 C3475 1.363 . S
C3481 C3476 1.379 . S
C3481 N3479 1.356 . S
N3482 C3474 1.356 . S
N3482 H3488 0.984 . S
N3482 H3489 0.984 . S
N3483 C3476 1.356 . S
N3483 H3486 0.984 . S
N3483 H3487 0.985 . S
H3484 N3479 0.984 . S
H3485 N3479 0.985 . S
H3486 N3483 0.984 . S
H3487 N3483 0.985 . S
H3488 N3482 0.984 . S
H3489 N3482 0.984 . S
H3490 N3478 0.984 . S
H3491 N3478 0.985 . S
C3492 C3493 1.363 . S
C3492 C3498 1.379 . S
C3492 N3500 1.356 . S
C3493 C3492 1.363 . S
C3493 C3499 1.363 . S
C3494 C3495 1.363 . S
C3494 C3499 1.379 . S
C3494 N3501 1.356 . S
C3495 C3494 1.363 . S
C3495 C3498 1.363 . S
N3496 C3498 1.356 . S
N3496 H3508 0.984 . S
N3496 H3509 0.985 . S
N3497 C3499 1.356 . S
N3497 H3502 0.984 . S
N3497 H3503 0.985 . S
C3498 C3492 1.379 . S
C3498 C3495 1.363 . S
C3498 N3496 1.356 . S
C3499 C3493 1.363 . S
C3499 C3494 1.379 . S
C3499 N3497 1.356 . S
N3500 C3492 1.356 . S
N3500 H3506 0.984 . S
N3500 H3507 0.984 . S
N3501 C3494 1.356 . S
N3501 H3504 0.984 . S
N3501 H3505 0.985 . S
H3502 N3497 0.984 . S
H3503 N3497 0.985 . S
H3504 N3501 0.984 . S
H3505 N3501 0.985 . S
H3506 N3500 0.984 . S
H3507 N3500 0.984 . S
H3508 N3496 0.984 . S
H3509 N3496 0.985 . S
C3510 C3511 1.363 . S
C3510 C3516 1.379 . S
C3510 N3518 1.356 . S
C3511 C3510 1.363 . S
C3511 C3517 1.363 . S
C3512 C3513 1.363 . S
C3512 C3517 1.379 . S
C3512 N3519 1.356 . S
C3513 C3512 1.363 . S
C3513 C3516 1.363 . S
N3514 C3516 1.356 . S
N3514 H3526 0.984 . S
N3514 H3527 0.985 . S
N3515 C3517 1.356 . S
N3515 H3520 0.984 . S
N3515 H3521 0.985 . S
C3516 C3510 1.379 . S
C3516 C3513 1.363 . S
C3516 N3514 1.356 . S
C3517 C3511 1.363 . S
C3517 C3512 1.379 . S
C3517 N3515 1.356 . S
N3518 C3510 1.356 . S
N3518 H3524 0.984 . S
N3518 H3525 0.984 . S
N3519 C3512 1.356 . S
N3519 H3522 0.984 . S
N3519 H3523 0.985 . S
H3520 N3515 0.984 . S
H3521 N3515 0.985 . S
H3522 N3519 0.984 . S
H3523 N3519 0.985 . S
H3524 N3518 0.984 . S
H3525 N3518 0.984 . S
H3526 N3514 0.984 . S
H3527 N3514 0.985 . S
C3528 C3529 1.363 . S
C3528 C3534 1.379 . S
C3528 N3536 1.356 . S
C3529 C3528 1.363 . S
C3529 C3535 1.363 . S
C3530 C3531 1.363 . S
C3530 C3535 1.379 1_455 S
C3530 N3537 1.356 . S
C3531 C3530 1.363 . S
C3531 C3534 1.363 1_455 S
N3532 C3534 1.356 1_455 S
N3532 H3544 0.984 1_455 S
N3532 H3545 0.985 . S
N3533 C3535 1.356 . S
N3533 H3538 0.984 . S
N3533 H3539 0.985 . S
C3534 C3528 1.379 . S
C3534 C3531 1.363 1_655 S
C3534 N3532 1.356 1_655 S
C3535 C3529 1.363 . S
C3535 C3530 1.379 1_655 S
C3535 N3533 1.356 . S
N3536 C3528 1.356 . S
N3536 H3542 0.984 . S
N3536 H3543 0.984 . S
N3537 C3530 1.356 . S
N3537 H3540 0.984 . S
N3537 H3541 0.985 . S
H3538 N3533 0.984 . S
H3539 N3533 0.985 . S
H3540 N3537 0.984 . S
H3541 N3537 0.985 . S
H3542 N3536 0.984 . S
H3543 N3536 0.984 . S
H3544 N3532 0.984 1_655 S
H3545 N3532 0.985 . S
C3546 C3547 1.363 . S
C3546 C3552 1.379 . S
C3546 N3554 1.356 . S
C3547 C3546 1.363 . S
C3547 C3553 1.363 . S
C3548 C3549 1.363 . S
C3548 C3553 1.379 1_455 S
C3548 N3555 1.356 . S
C3549 C3548 1.363 . S
C3549 C3552 1.363 1_455 S
N3550 C3552 1.356 . S
N3550 H3562 0.984 . S
N3550 H3563 0.985 1_655 S
N3551 C3553 1.356 . S
N3551 H3556 0.984 . S
N3551 H3557 0.970 1_655 S
C3552 C3546 1.379 . S
C3552 C3549 1.363 1_655 S
C3552 N3550 1.356 . S
C3553 C3547 1.363 . S
C3553 C3548 1.379 1_655 S
C3553 N3551 1.356 . S
N3554 C3546 1.356 . S
N3554 H3560 0.984 . S
N3554 H3561 0.984 . S
N3555 C3548 1.356 . S
N3555 H3558 0.984 . S
N3555 H3559 0.985 . S
H3556 N3551 0.984 . S
H3557 N3551 0.970 1_455 S
H3558 N3555 0.984 . S
H3559 N3555 0.985 . S
H3560 N3554 0.984 . S
H3561 N3554 0.984 . S
H3562 N3550 0.984 . S
H3563 N3550 0.985 1_455 S
C3564 C3565 1.363 . S
C3564 C3570 1.379 . S
C3564 N3572 1.356 . S
C3565 C3564 1.363 . S
C3565 C3571 1.363 . S
C3566 C3567 1.363 . S
C3566 C3571 1.379 . S
C3566 N3573 1.356 . S
C3567 C3566 1.363 . S
C3567 C3570 1.363 . S
N3568 C3570 1.356 . S
N3568 H3580 0.984 . S
N3568 H3581 0.985 . S
N3569 C3571 1.356 . S
N3569 H3574 0.984 . S
N3569 H3575 0.985 . S
C3570 C3564 1.379 . S
C3570 C3567 1.363 . S
C3570 N3568 1.356 . S
C3571 C3565 1.363 . S
C3571 C3566 1.379 . S
C3571 N3569 1.356 . S
N3572 C3564 1.356 . S
N3572 H3578 0.984 . S
N3572 H3579 0.984 . S
N3573 C3566 1.356 . S
N3573 H3576 0.984 . S
N3573 H3577 0.985 . S
H3574 N3569 0.984 . S
H3575 N3569 0.985 . S
H3576 N3573 0.984 . S
H3577 N3573 0.985 . S
H3578 N3572 0.984 . S
H3579 N3572 0.984 . S
H3580 N3568 0.984 . S
H3581 N3568 0.985 . S
C3582 C3583 1.363 . S
C3582 C3588 1.379 . S
C3582 N3590 1.356 . S
C3583 C3582 1.363 . S
C3583 C3589 1.363 . S
C3584 C3585 1.363 . S
C3584 C3589 1.379 . S
C3584 N3591 1.356 . S
C3585 C3584 1.363 . S
C3585 C3588 1.363 . S
N3586 C3588 1.356 . S
N3586 H3598 0.984 . S
N3586 H3599 0.985 . S
N3587 C3589 1.356 . S
N3587 H3592 0.984 . S
N3587 H3593 0.985 . S
C3588 C3582 1.379 . S
C3588 C3585 1.363 . S
C3588 N3586 1.356 . S
C3589 C3583 1.363 . S
C3589 C3584 1.379 . S
C3589 N3587 1.356 . S
N3590 C3582 1.356 . S
N3590 H3596 0.984 . S
N3590 H3597 0.984 . S
N3591 C3584 1.356 . S
N3591 H3594 0.984 . S
N3591 H3595 0.985 . S
H3592 N3587 0.984 . S
H3593 N3587 0.985 . S
H3594 N3591 0.984 . S
H3595 N3591 0.985 . S
H3596 N3590 0.984 . S
H3597 N3590 0.984 . S
H3598 N3586 0.984 . S
H3599 N3586 0.985 . S
C3600 C3601 1.363 . S
C3600 C3606 1.379 . S
C3600 N3608 1.356 . S
C3601 C3600 1.363 . S
C3601 C3607 1.363 . S
C3602 C3603 1.362 1_545 S
C3602 C3607 1.385 . S
C3602 N3609 1.350 1_545 S
C3603 C3602 1.362 1_565 S
C3603 C3606 1.363 1_565 S
N3604 C3606 1.356 . S
N3604 H3616 0.984 . S
N3604 H3617 0.985 1_545 S
N3605 C3607 1.356 . S
N3605 H3610 0.984 . S
N3605 H3611 0.985 . S
C3606 C3600 1.379 . S
C3606 C3603 1.363 1_545 S
C3606 N3604 1.356 . S
C3607 C3601 1.363 . S
C3607 C3602 1.385 . S
C3607 N3605 1.356 . S
N3608 C3600 1.356 . S
N3608 H3614 0.984 . S
N3608 H3615 0.984 . S
N3609 C3602 1.350 1_565 S
N3609 H3612 0.984 . S
N3609 H3613 0.985 . S
H3610 N3605 0.984 . S
H3611 N3605 0.985 . S
H3612 N3609 0.984 . S
H3613 N3609 0.985 . S
H3614 N3608 0.984 . S
H3615 N3608 0.984 . S
H3616 N3604 0.984 . S
H3617 N3604 0.985 1_565 S
C3618 C3619 1.363 . S
C3618 C3624 1.379 . S
C3618 N3626 1.356 . S
C3619 C3618 1.363 . S
C3619 C3625 1.363 . S
C3620 C3621 1.363 . S
C3620 C3625 1.379 . S
C3620 N3627 1.356 . S
C3621 C3620 1.363 . S
C3621 C3624 1.363 . S
N3622 C3624 1.356 . S
N3622 H3634 0.984 . S
N3622 H3635 0.985 . S
N3623 C3625 1.356 . S
N3623 H3628 0.984 . S
N3623 H3629 0.985 . S
C3624 C3618 1.379 . S
C3624 C3621 1.363 . S
C3624 N3622 1.356 . S
C3625 C3619 1.363 . S
C3625 C3620 1.379 . S
C3625 N3623 1.356 . S
N3626 C3618 1.356 . S
N3626 H3632 0.984 . S
N3626 H3633 0.984 . S
N3627 C3620 1.356 . S
N3627 H3630 0.984 . S
N3627 H3631 0.985 . S
H3628 N3623 0.984 . S
H3629 N3623 0.985 . S
H3630 N3627 0.984 . S
H3631 N3627 0.985 . S
H3632 N3626 0.984 . S
H3633 N3626 0.984 . S
H3634 N3622 0.984 . S
H3635 N3622 0.985 . S
C3636 C3637 1.363 . S
C3636 C3642 1.379 . S
C3636 N3644 1.356 . S
C3637 C3636 1.363 . S
C3637 C3643 1.363 1_545 S
C3638 C3639 1.363 . S
C3638 C3643 1.379 . S
C3638 N3645 1.356 . S
C3639 C3638 1.363 . S
C3639 C3642 1.363 1_565 S
N3640 C3642 1.356 . S
N3640 H3652 0.984 . S
N3640 H3653 0.985 1_545 S
N3641 C3643 1.356 . S
N3641 H3646 0.984 1_565 S
N3641 H3647 0.985 . S
C3642 C3636 1.379 . S
C3642 C3639 1.363 1_545 S
C3642 N3640 1.356 . S
C3643 C3637 1.363 1_565 S
C3643 C3638 1.379 . S
C3643 N3641 1.356 . S
N3644 C3636 1.356 . S
N3644 H3650 0.984 . S
N3644 H3651 0.984 . S
N3645 C3638 1.356 . S
N3645 H3648 0.984 . S
N3645 H3649 0.985 . S
H3646 N3641 0.984 1_545 S
H3647 N3641 0.985 . S
H3648 N3645 0.984 . S
H3649 N3645 0.985 . S
H3650 N3644 0.984 . S
H3651 N3644 0.984 . S
H3652 N3640 0.984 . S
H3653 N3640 0.985 1_565 S
C3654 C3655 1.363 . S
C3654 C3660 1.379 1_556 S
C3654 N3662 1.356 . S
C3655 C3654 1.363 . S
C3655 C3661 1.363 1_556 S
C3656 C3657 1.363 . S
C3656 C3661 1.379 . S
C3656 N3663 1.356 . S
C3657 C3656 1.363 . S
C3657 C3660 1.363 . S
N3658 C3660 1.356 . S
N3658 H3670 0.984 . S
N3658 H3671 0.985 . S
N3659 C3661 1.356 . S
N3659 H3664 0.984 1_554 S
N3659 H3665 0.985 . S
C3660 C3654 1.379 1_554 S
C3660 C3657 1.363 . S
C3660 N3658 1.356 . S
C3661 C3655 1.363 1_554 S
C3661 C3656 1.379 . S
C3661 N3659 1.356 . S
N3662 C3654 1.356 . S
N3662 H3668 0.984 . S
N3662 H3669 0.984 . S
N3663 C3656 1.356 . S
N3663 H3666 0.984 . S
N3663 H3667 0.985 . S
H3664 N3659 0.984 1_556 S
H3665 N3659 0.985 . S
H3666 N3663 0.984 . S
H3667 N3663 0.985 . S
H3668 N3662 0.984 . S
H3669 N3662 0.984 . S
H3670 N3658 0.984 . S
H3671 N3658 0.985 . S
C3672 C3673 1.363 . S
C3672 C3678 1.379 1_556 S
C3672 N3680 1.356 . S
C3673 C3672 1.363 . S
C3673 C3679 1.363 . S
C3674 C3675 1.363 1_556 S
C3674 C3679 1.379 . S
C3674 N3681 1.356 . S
C3675 C3674 1.363 1_554 S
C3675 C3678 1.363 . S
N3676 C3678 1.356 . S
N3676 H3688 0.984 . S
N3676 H3689 0.985 . S
N3677 C3679 1.356 . S
N3677 H3682 0.984 . S
N3677 H3683 0.985 . S
C3678 C3672 1.379 1_554 S
C3678 C3675 1.363 . S
C3678 N3676 1.356 . S
C3679 C3673 1.363 . S
C3679 C3674 1.379 . S
C3679 N3677 1.356 . S
N3680 C3672 1.356 . S
N3680 H3686 0.984 . S
N3680 H3687 0.984 . S
N3681 C3674 1.356 . S
N3681 H3684 0.984 1_556 S
N3681 H3685 0.985 . S
H3682 N3677 0.984 . S
H3683 N3677 0.985 . S
H3684 N3681 0.984 1_554 S
H3685 N3681 0.985 . S
H3686 N3680 0.984 . S
H3687 N3680 0.984 . S
H3688 N3676 0.984 . S
H3689 N3676 0.985 . S
C3690 C3691 1.363 . S
C3690 C3696 1.379 . S
C3690 N3698 1.356 . S
C3691 C3690 1.363 . S
C3691 C3697 1.363 . S
C3692 C3693 1.363 . S
C3692 C3697 1.379 . S
C3692 N3699 1.356 . S
C3693 C3692 1.363 . S
C3693 C3696 1.363 . S
N3694 C3696 1.356 . S
N3694 H3706 0.984 . S
N3694 H3707 0.985 . S
N3695 C3697 1.356 . S
N3695 H3700 0.984 . S
N3695 H3701 0.985 . S
C3696 C3690 1.379 . S
C3696 C3693 1.363 . S
C3696 N3694 1.356 . S
C3697 C3691 1.363 . S
C3697 C3692 1.379 . S
C3697 N3695 1.356 . S
N3698 C3690 1.356 . S
N3698 H3704 0.984 . S
N3698 H3705 0.984 . S
N3699 C3692 1.356 . S
N3699 H3702 0.984 . S
N3699 H3703 0.985 . S
H3700 N3695 0.984 . S
H3701 N3695 0.985 . S
H3702 N3699 0.984 . S
H3703 N3699 0.985 . S
H3704 N3698 0.984 . S
H3705 N3698 0.984 . S
H3706 N3694 0.984 . S
H3707 N3694 0.985 . S
C3708 C3709 1.363 . S
C3708 C3714 1.379 . S
C3708 N3716 1.356 . S
C3709 C3708 1.363 . S
C3709 C3715 1.363 . S
C3710 C3711 1.363 . S
C3710 C3715 1.379 . S
C3710 N3717 1.356 . S
C3711 C3710 1.363 . S
C3711 C3714 1.363 . S
N3712 C3714 1.356 . S
N3712 H3724 0.984 . S
N3712 H3725 0.985 . S
N3713 C3715 1.356 . S
N3713 H3718 0.984 . S
N3713 H3719 0.985 . S
C3714 C3708 1.379 . S
C3714 C3711 1.363 . S
C3714 N3712 1.356 . S
C3715 C3709 1.363 . S
C3715 C3710 1.379 . S
C3715 N3713 1.356 . S
N3716 C3708 1.356 . S
N3716 H3722 0.984 . S
N3716 H3723 0.984 . S
N3717 C3710 1.356 . S
N3717 H3720 0.984 . S
N3717 H3721 0.985 . S
H3718 N3713 0.984 . S
H3719 N3713 0.985 . S
H3720 N3717 0.984 . S
H3721 N3717 0.985 . S
H3722 N3716 0.984 . S
H3723 N3716 0.984 . S
H3724 N3712 0.984 . S
H3725 N3712 0.985 . S
C3726 C3727 1.363 . S
C3726 C3732 1.379 . S
C3726 N3734 1.356 . S
C3727 C3726 1.363 . S
C3727 C3733 1.363 . S
C3728 C3729 1.363 . S
C3728 C3733 1.379 . S
C3728 N3735 1.356 . S
C3729 C3728 1.363 . S
C3729 C3732 1.363 . S
N3730 C3732 1.356 . S
N3730 H3742 0.984 . S
N3730 H3743 0.985 . S
N3731 C3733 1.356 . S
N3731 H3736 0.984 . S
N3731 H3737 0.985 . S
C3732 C3726 1.379 . S
C3732 C3729 1.363 . S
C3732 N3730 1.356 . S
C3733 C3727 1.363 . S
C3733 C3728 1.379 . S
C3733 N3731 1.356 . S
N3734 C3726 1.356 . S
N3734 H3740 0.984 . S
N3734 H3741 0.984 . S
N3735 C3728 1.356 . S
N3735 H3738 0.984 . S
N3735 H3739 0.985 . S
H3736 N3731 0.984 . S
H3737 N3731 0.985 . S
H3738 N3735 0.984 . S
H3739 N3735 0.985 . S
H3740 N3734 0.984 . S
H3741 N3734 0.984 . S
H3742 N3730 0.984 . S
H3743 N3730 0.985 . S
C1585 N2 1.329 1_556 S
C1587 C1275 1.135 . S
C1603 N35 1.255 . S
C1605 C1195 1.038 . S
C1621 N79 0.976 . S
C1623 C1572 1.013 . S
C1639 C1129 1.384 . S
C1641 N112 1.379 . S
C1657 N134 1.300 . S
C1659 C1327 1.140 . S
C1675 C1077 1.171 . S
C1677 N178 1.129 . S
C1693 N211 1.363 . S
C1695 C1360 1.366 . S
C1711 N233 1.236 . S
C1713 C1011 1.079 . S
C1729 C997 1.158 . S
C1731 N277 1.126 . S
C1747 N310 1.285 . S
C1749 C1341 1.359 . S
C1765 N332 1.262 . S
C1767 C1063 1.185 . S
C1783 C1374 1.180 . S
C1785 N376 1.141 . S
C1801 N409 1.186 1_655 S
C1803 C1209 1.203 . S
C1819 N431 1.216 . S
C1821 C1558 1.070 . S
C1837 C1143 1.077 . S
C1839 N464 1.209 . S
C1855 N497 1.154 . S
C1857 C1261 1.021 . S
C1873 C799 1.212 . S
C1875 N365 1.336 1_565 S
C1891 C700 1.049 . S
C1893 N541 1.044 . S
C1909 N574 1.301 . S
C1911 C912 1.337 . S
C1927 C780 1.186 . S
C1929 N607 1.153 . S
C1945 C813 1.190 . S
C1947 N398 1.272 . S
C1963 N299 1.708 1_545 S
C1965 C733 1.344 . S
C1981 C766 1.049 . S
C1983 N640 1.054 . S
C1999 C714 1.127 . S
C2001 N662 1.218 . S
C2017 C568 1.252 . S
C2019 N695 1.499 1_554 S
C2035 C502 1.314 . S
C2037 N739 1.362 . S
C2053 C1473 1.001 . S
C2055 N772 0.982 . S
C2071 N805 1.111 . S
C2073 C436 1.126 . S
C2089 C634 1.286 . S
C2091 N827 1.468 . S
C2107 N871 1.223 . S
C2109 C384 1.311 . S
C2125 C681 0.884 . S
C2127 N893 0.933 . S
C2143 C318 1.167 . S
C2145 N926 1.305 . S
C2161 C304 0.856 . S
C2163 N959 0.904 . S
C2179 C648 1.163 . S
C2181 N1003 1.107 . S
C2197 N1025 1.093 . S
C2199 C370 1.035 . S
C2215 N1069 1.424 . S
C2217 C667 1.441 . S
C2233 N1102 1.389 1_455 S
C2235 C516 1.401 . S
C2251 N1124 1.262 . S
C2253 C1459 1.091 . S
C2269 N1168 1.458 . S
C2271 C450 1.511 . S
C2287 N1190 1.063 . S
C2289 C582 0.962 . S
C2305 C106 1.295 . S
C2307 N1058 1.422 . S
C2323 C7 1.068 . S
C2325 N1234 1.035 . S
C2341 C205 1.135 . S
C2343 N1256 1.382 . S
C2359 C87 1.249 . S
C2361 N1300 1.243 . S
C2377 N1091 1.227 . S
C2379 C120 1.147 . S
C2395 C54 1.265 . S
C2397 N992 1.550 1_565 S
C2413 C73 1.111 . S
C2415 N1333 1.126 . S
C2431 N1366 1.197 . S
C2433 C21 1.238 . S
C2449 C1176 1.135 . S
C2451 N167 1.329 . S
C2467 C1294 1.038 . S
C2469 N200 1.255 . S
C2485 N244 0.976 1_556 S
C2487 C1110 1.013 . S
C2503 C1228 1.384 . S
C2505 N145 1.379 . S
C2521 N101 1.300 . S
C2523 C1030 1.139 . S
C2539 N13 1.129 . S
C2541 C1539 1.171 . S
C2557 C964 1.366 . S
C2559 N46 1.363 . S
C2575 N68 1.236 . S
C2577 C1506 1.079 . S
C2593 N673 1.126 . S
C2595 C1492 1.158 . S
C2611 N1399 1.285 . S
C2613 C1044 1.359 . S
C2629 N629 1.262 . S
C2631 C1525 1.185 . S
C2647 C978 1.180 . S
C2649 N1432 1.141 . S
C2665 N1465 1.186 . S
C2667 C1308 1.203 . S
C2683 N530 1.216 . S
C2685 C1096 1.070 . S
C2701 C1242 1.077 . S
C2703 N563 1.209 . S
C2719 N596 1.154 . S
C2721 C1162 1.021 . S
C2737 C832 1.212 . S
C2739 N1421 1.336 . S
C2755 N442 1.044 1_545 S
C2757 C865 1.049 . S
C2773 N475 1.301 . S
C2775 C747 1.337 . S
C2791 C945 1.186 . S
C2793 N508 1.153 . S
C2809 C846 1.190 . S
C2811 N1454 1.272 . S
C2827 C898 1.344 . S
C2829 N1388 1.708 . S
C2845 N343 1.054 . S
C2847 C931 1.049 . S
C2863 C879 1.127 . S
C2865 N266 1.218 . S
C2881 C469 1.252 . S
C2883 N860 1.499 . S
C2899 C601 1.313 . S
C2901 N904 1.362 . S
C2917 C417 1.002 . S
C2919 N937 1.011 . S
C2935 N838 1.111 . S
C2937 C535 1.126 . S
C2953 C337 1.286 . S
C2955 N794 1.468 . S
C2971 N706 1.223 . S
C2973 C1440 1.311 . S
C2989 C285 0.884 . S
C2991 N728 0.933 . S
C3007 C1407 1.167 . S
C3009 N761 1.305 . S
C3025 C1393 0.856 . S
C3027 N1355 0.905 . S
C3043 N1498 1.107 . S
C3045 C351 1.162 . S
C3061 C1426 1.035 . S
C3063 N1322 1.093 . S
C3079 N1531 1.424 . S
C3081 C271 1.441 . S
C3097 C615 1.401 . S
C3099 N1564 1.389 . S
C3115 C403 1.091 . S
C3117 N1223 1.262 . S
C3133 N1267 1.458 . S
C3135 C549 1.511 1_455 S
C3151 C483 0.962 . S
C3153 N1289 1.063 . S
C3169 N1520 1.422 . S
C3171 C139 1.295 . S
C3187 C172 1.068 . S
C3189 N1135 1.035 . S
C3205 C40 1.135 . S
C3207 N1157 1.382 . S
C3223 N1201 1.243 . S
C3225 C252 1.249 . S
C3241 N1553 1.227 . S
C3243 C153 1.147 . S
C3259 N1487 1.550 . S
C3261 C219 1.265 . S
C3277 N1036 1.126 . S
C3279 C238 1.111 . S
C3295 C186 1.238 . S
C3297 N970 1.197 . S
C3313 C249 2.596 . S
C3315 C18 2.593 . S
C3331 C150 2.452 . S
C3333 C51 2.452 . S
C3349 C183 2.593 . S
C3351 C84 2.596 . S
C3367 C216 2.452 . S
C3369 C117 2.452 . S
C3385 C414 2.478 . S
C3387 C282 2.478 . S
C3403 C447 2.516 . S
C3405 C315 2.516 . S
C3421 C480 2.520 . S
C3423 C348 2.519 . S
C3439 C513 2.613 . S
C3441 C381 2.613 . S
C3457 C1404 2.517 . S
C3459 C546 2.516 . S
C3475 C579 2.520 . S
C3477 C645 2.519 . S
C3493 C612 2.613 . S
C3495 C1437 2.613 . S
C3511 C678 2.478 . S
C3513 C1470 2.478 . S
C3529 C711 2.485 . S
C3531 C942 2.487 . S
C3547 C843 2.632 . S
C3549 C744 2.622 . S
C3565 C876 2.485 . S
C3567 C777 2.487 . S
C3583 C909 2.622 . S
C3585 C810 2.632 . S
C3601 C1107 2.583 . S
C3603 C975 2.587 . S
C3619 C1008 2.503 . S
C3621 C1140 2.506 . S
C3637 C1041 2.494 . S
C3639 C1173 2.495 . S
C3655 C1074 2.474 . S
C3657 C1206 2.474 . S
C3673 C1503 2.503 . S
C3675 C1239 2.506 . S
C3691 C1338 2.494 . S
C3693 C1272 2.495 . S
C3709 C1305 2.474 . S
C3711 C1536 2.473 . S
C3727 C1569 2.583 . S
C3729 C1371 2.587 . S
