# Generated by pormake.
# Topology uof, (4)-cn, num edge types: 1
# Building blocks:
#     Node 0, Type 0, BuildingBlock: UXUYUI_clean_sbu_0, # of connection points: 4
#     Node 1, Type 0, BuildingBlock: UXUYUI_clean_sbu_0, # of connection points: 4
#     Node 2, Type 0, BuildingBlock: UXUYUI_clean_sbu_0, # of connection points: 4
#     Node 3, Type 0, BuildingBlock: UXUYUI_clean_sbu_0, # of connection points: 4
#     Node 4, Type 0, BuildingBlock: UXUYUI_clean_sbu_0, # of connection points: 4
#     Node 5, Type 0, BuildingBlock: UXUYUI_clean_sbu_0, # of connection points: 4
#     Node 6, Type 0, BuildingBlock: UXUYUI_clean_sbu_0, # of connection points: 4
#     Node 7, Type 0, BuildingBlock: UXUYUI_clean_sbu_0, # of connection points: 4
#     Node 8, Type 0, BuildingBlock: UXUYUI_clean_sbu_0, # of connection points: 4
#     Node 9, Type 0, BuildingBlock: UXUYUI_clean_sbu_0, # of connection points: 4
#     Node 10, Type 0, BuildingBlock: UXUYUI_clean_sbu_0, # of connection points: 4
#     Node 11, Type 0, BuildingBlock: UXUYUI_clean_sbu_0, # of connection points: 4
#     Edge 12, Type (0, 0), BuildingBlock: AJUNOK_clean_linker_0, # of connection points: 2
#     Edge 13, Type (0, 0), BuildingBlock: AJUNOK_clean_linker_0, # of connection points: 2
#     Edge 14, Type (0, 0), BuildingBlock: AJUNOK_clean_linker_0, # of connection points: 2
#     Edge 15, Type (0, 0), BuildingBlock: AJUNOK_clean_linker_0, # of connection points: 2
#     Edge 16, Type (0, 0), BuildingBlock: AJUNOK_clean_linker_0, # of connection points: 2
#     Edge 17, Type (0, 0), BuildingBlock: AJUNOK_clean_linker_0, # of connection points: 2
#     Edge 18, Type (0, 0), BuildingBlock: AJUNOK_clean_linker_0, # of connection points: 2
#     Edge 19, Type (0, 0), BuildingBlock: AJUNOK_clean_linker_0, # of connection points: 2
#     Edge 20, Type (0, 0), BuildingBlock: AJUNOK_clean_linker_0, # of connection points: 2
#     Edge 21, Type (0, 0), BuildingBlock: AJUNOK_clean_linker_0, # of connection points: 2
#     Edge 22, Type (0, 0), BuildingBlock: AJUNOK_clean_linker_0, # of connection points: 2
#     Edge 23, Type (0, 0), BuildingBlock: AJUNOK_clean_linker_0, # of connection points: 2
#     Edge 24, Type (0, 0), BuildingBlock: AJUNOK_clean_linker_0, # of connection points: 2
#     Edge 25, Type (0, 0), BuildingBlock: AJUNOK_clean_linker_0, # of connection points: 2
#     Edge 26, Type (0, 0), BuildingBlock: AJUNOK_clean_linker_0, # of connection points: 2
#     Edge 27, Type (0, 0), BuildingBlock: AJUNOK_clean_linker_0, # of connection points: 2
#     Edge 28, Type (0, 0), BuildingBlock: AJUNOK_clean_linker_0, # of connection points: 2
#     Edge 29, Type (0, 0), BuildingBlock: AJUNOK_clean_linker_0, # of connection points: 2
#     Edge 30, Type (0, 0), BuildingBlock: AJUNOK_clean_linker_0, # of connection points: 2
#     Edge 31, Type (0, 0), BuildingBlock: AJUNOK_clean_linker_0, # of connection points: 2
#     Edge 32, Type (0, 0), BuildingBlock: AJUNOK_clean_linker_0, # of connection points: 2
#     Edge 33, Type (0, 0), BuildingBlock: AJUNOK_clean_linker_0, # of connection points: 2
#     Edge 34, Type (0, 0), BuildingBlock: AJUNOK_clean_linker_0, # of connection points: 2
#     Edge 35, Type (0, 0), BuildingBlock: AJUNOK_clean_linker_0, # of connection points: 2
# Relax obj value: 0.353
# Max RMSD: 0.222
# Mean RMSD: 0.221
data_MOF--net-uof--node1-UXUYUI_clean_sbu_0--edge1-AJUNOK_clean_linker_0
_symmetry_space_group_name_H-M    P1
_symmetry_Int_Tables_number       1
_symmetry_cell_setting            triclinic
loop_
_symmetry_equiv_pos_as_xyz
'x, y, z'
_cell_length_a     38.296705
_cell_length_b     38.298562
_cell_length_c     74.263173
_cell_angle_alpha  90.002335
_cell_angle_beta   90.016592
_cell_angle_gamma 120.00548
loop_
_atom_site_label
_atom_site_type_symbol
_atom_site_fract_x
_atom_site_fract_y
_atom_site_fract_z
_atom_type_partial_charge
Li0 Li 0.20401 0.33598 0.21376 0.0
Li1 Li 0.23769 0.32807 0.24167 0.0
Li2 Li 0.2795 0.37456 0.21709 0.0
Li3 Li 0.24357 0.30135 0.2124 0.0
C4 C 0.23673 0.41274 0.22842 0.0
N5 N 0.2332 0.48092 0.21949 0.0
C6 C 0.22442 0.43114 0.24119 0.0
C7 C 0.24727 0.429 0.21109 0.0
C8 C 0.22282 0.46559 0.23642 0.0
C9 C 0.2453 0.4635 0.20685 0.0
C10 C 0.17121 0.24635 0.23009 0.0
C11 C 0.16497 0.1838 0.24042 0.0
N12 N 0.12484 0.16464 0.23664 0.0
C13 C 0.12997 0.22607 0.22626 0.0
C14 C 0.18892 0.22511 0.23721 0.0
C15 C 0.10702 0.18474 0.22969 0.0
C16 C 0.14177 0.29989 0.18977 0.0
N17 N 0.1555 0.32899 0.20265 0.0
C18 C 0.09739 0.33641 0.19865 0.0
C19 C 0.13438 0.34763 0.20714 0.0
C20 C 0.08196 0.30551 0.1856 0.0
C21 C 0.10511 0.28766 0.18109 0.0
H22 H 0.15901 0.28535 0.18656 0.0
H23 H 0.14579 0.37064 0.21746 0.0
C24 C 0.27388 0.34503 0.27528 0.0
N25 N 0.23877 0.31917 0.26686 0.0
C26 C 0.28224 0.33611 0.29242 0.0
C27 C 0.21732 0.27496 0.29229 0.0
C28 C 0.21011 0.28516 0.27515 0.0
C29 C 0.25415 0.30021 0.30097 0.0
H30 H 0.29651 0.37131 0.26818 0.0
H31 H 0.18254 0.26495 0.26815 0.0
C32 C 0.26071 0.34922 0.17918 0.0
N33 N 0.29089 0.3622 0.14456 0.0
C34 C 0.29304 0.34341 0.17504 0.0
C35 C 0.24364 0.36149 0.16574 0.0
C36 C 0.30787 0.35015 0.15744 0.0
C37 C 0.25936 0.36796 0.14831 0.0
C38 C 0.31561 0.3255 0.23424 0.0
C39 C 0.35232 0.3448 0.22497 0.0
C40 C 0.31011 0.29844 0.24807 0.0
C41 C 0.38296 0.33691 0.22978 0.0
C42 C 0.34148 0.29132 0.25246 0.0
N43 N 0.37696 0.31056 0.24332 0.0
C44 C 0.35393 0.43252 0.22951 0.0
C45 C 0.35049 0.43354 0.19767 0.0
C46 C 0.39595 0.45557 0.22901 0.0
N47 N 0.33226 0.42062 0.21397 0.0
C48 C 0.39261 0.45672 0.19655 0.0
C49 C 0.41593 0.46671 0.21235 0.0
H50 H 0.33877 0.42114 0.24225 0.0
H51 H 0.3328 0.42365 0.18548 0.0
C52 C 0.20909 0.22965 0.19296 0.0
N53 N 0.24407 0.25777 0.20077 0.0
C54 C 0.20652 0.19548 0.18505 0.0
C55 C 0.27668 0.22102 0.19245 0.0
C56 C 0.27776 0.25445 0.20036 0.0
C57 C 0.24051 0.19071 0.18503 0.0
H58 H 0.18299 0.23351 0.19315 0.0
H59 H 0.30555 0.27764 0.20604 0.0
O60 O 0.2378 0.37866 0.23287 0.0
O61 O 0.19413 0.28673 0.22667 0.0
O62 O 0.24569 0.343 0.19629 0.0
O63 O 0.28545 0.33339 0.22992 0.0
H64 H 0.21604 0.4188 0.25464 0.0
H65 H 0.25687 0.41525 0.20101 0.0
H66 H 0.21328 0.48011 0.24616 0.0
H67 H 0.25337 0.47641 0.1935 0.0
H68 H 0.17829 0.16696 0.2459 0.0
H69 H 0.11582 0.24211 0.22074 0.0
H70 H 0.22085 0.24031 0.24006 0.0
H71 H 0.07503 0.16864 0.22683 0.0
H72 H 0.08103 0.35162 0.20233 0.0
H73 H 0.09444 0.26352 0.17129 0.0
H74 H 0.3113 0.35598 0.29848 0.0
H75 H 0.19487 0.24709 0.2985 0.0
H76 H 0.30687 0.33439 0.18535 0.0
H77 H 0.21861 0.36616 0.16879 0.0
H78 H 0.33299 0.34595 0.15403 0.0
H79 H 0.24653 0.37759 0.13778 0.0
H80 H 0.35693 0.36511 0.21396 0.0
H81 H 0.28202 0.28311 0.25541 0.0
H82 H 0.41145 0.35162 0.2227 0.0
H83 H 0.33762 0.27052 0.26316 0.0
H84 H 0.41277 0.46291 0.2415 0.0
H85 H 0.40679 0.46441 0.18342 0.0
H86 H 0.17818 0.17276 0.17928 0.0
H87 H 0.30388 0.21896 0.19211 0.0
Li88 Li 0.87943 0.20647 0.54399 0.0
Li89 Li 0.91843 0.23947 0.57287 0.0
Li90 Li 0.92106 0.28117 0.54583 0.0
Li91 Li 0.94971 0.23841 0.54475 0.0
C92 C 0.83663 0.22455 0.56985 0.0
N93 N 0.76315 0.18379 0.58719 0.0
C94 C 0.82843 0.19258 0.58141 0.0
C95 C 0.80753 0.23583 0.56708 0.0
C96 C 0.79109 0.17237 0.59008 0.0
C97 C 0.77052 0.2148 0.57596 0.0
C98 C 0.92373 0.16373 0.56041 0.0
C99 C 0.95111 0.12837 0.57672 0.0
N100 N 0.94673 0.10592 0.5618 0.0
C101 C 0.91956 0.14035 0.54524 0.0
C102 C 0.93963 0.15771 0.57629 0.0
C103 C 0.93134 0.11127 0.54622 0.0
C104 C 0.84705 0.15034 0.51647 0.0
N105 N 0.83583 0.15852 0.53262 0.0
C106 C 0.77524 0.09377 0.53215 0.0
C107 C 0.80015 0.13137 0.54038 0.0
C108 C 0.78757 0.08406 0.51599 0.0
C109 C 0.82337 0.11339 0.50792 0.0
H110 H 0.87593 0.17146 0.51073 0.0
H111 H 0.79185 0.13783 0.55332 0.0
C112 C 0.95218 0.28473 0.60308 0.0
N113 N 0.92715 0.24559 0.59846 0.0
C114 C 0.96903 0.29485 0.62022 0.0
C115 C 0.93104 0.22449 0.62841 0.0
C116 C 0.91576 0.21551 0.61079 0.0
C117 C 0.95869 0.26465 0.63325 0.0
H118 H 0.96096 0.30815 0.59307 0.0
H119 H 0.89606 0.1845 0.60684 0.0
C120 C 0.89585 0.25069 0.5124 0.0
N121 N 0.85209 0.26087 0.48536 0.0
C122 C 0.90916 0.25581 0.49455 0.0
C123 C 0.86019 0.25067 0.51646 0.0
C124 C 0.88666 0.26095 0.48109 0.0
C125 C 0.83852 0.25587 0.50261 0.0
C126 C 0.0055 0.30106 0.56171 0.0
C127 C 0.03037 0.33148 0.5497 0.0
C128 C 0.02262 0.28717 0.57444 0.0
C129 C 0.07207 0.34747 0.55058 0.0
C130 C 0.06445 0.30397 0.57491 0.0
N131 N 0.08811 0.3335 0.56306 0.0
C132 C 0.92351 0.35402 0.55377 0.0
C133 C 0.95489 0.35449 0.52619 0.0
C134 C 0.94001 0.39583 0.55294 0.0
N135 N 0.93192 0.33446 0.54071 0.0
C136 C 0.97218 0.39638 0.52487 0.0
C137 C 0.96597 0.41774 0.53869 0.0
H138 H 0.90584 0.33744 0.56534 0.0
H139 H 0.96204 0.33835 0.51626 0.0
C140 C 0.01482 0.22164 0.54387 0.0
N141 N 0.9943 0.23669 0.53487 0.0
C142 C 0.04755 0.22154 0.53579 0.0
C143 C 0.03863 0.25423 0.50973 0.0
C144 C 0.00579 0.25323 0.51823 0.0
C145 C 0.05948 0.23781 0.51851 0.0
H146 H 0.00639 0.2104 0.55741 0.0
H147 H 0.98969 0.2661 0.51165 0.0
O148 O 0.87293 0.24483 0.56124 0.0
O149 O 0.9117 0.19187 0.55989 0.0
O150 O 0.91784 0.24566 0.52567 0.0
O151 O 0.96454 0.28437 0.5608 0.0
H152 H 0.85038 0.18309 0.58345 0.0
H153 H 0.81351 0.26055 0.55815 0.0
H154 H 0.78426 0.14747 0.59903 0.0
H155 H 0.74768 0.22315 0.57393 0.0
H156 H 0.9636 0.12351 0.5889 0.0
H157 H 0.90783 0.14486 0.53279 0.0
H158 H 0.9436 0.17583 0.58808 0.0
H159 H 0.92832 0.09301 0.53456 0.0
H160 H 0.74785 0.07175 0.53883 0.0
H161 H 0.8339 0.10709 0.49547 0.0
H162 H 0.99129 0.32597 0.6229 0.0
H163 H 0.92202 0.20018 0.638 0.0
H164 H 0.93656 0.25573 0.49111 0.0
H165 H 0.84912 0.24655 0.53009 0.0
H166 H 0.89665 0.26495 0.46723 0.0
H167 H 0.81088 0.25588 0.50558 0.0
H168 H 0.01762 0.34235 0.53968 0.0
H169 H 0.00379 0.26313 0.58364 0.0
H170 H 0.09169 0.37092 0.54131 0.0
H171 H 0.07809 0.29335 0.58461 0.0
H172 H 0.93369 0.41101 0.56367 0.0
H173 H 0.99204 0.41212 0.51369 0.0
H174 H 0.06376 0.2095 0.54304 0.0
H175 H 0.04746 0.26734 0.49642 0.0
Li176 Li 0.67686 0.90711 0.91096 0.0
Li177 Li 0.67142 0.86841 0.88216 0.0
Li178 Li 0.70495 0.94134 0.88238 0.0
Li179 Li 0.63194 0.90415 0.88546 0.0
C180 C 0.76083 0.92861 0.89565 0.0
N181 N 0.84354 0.97602 0.89278 0.0
C182 C 0.78231 0.91691 0.88434 0.0
C183 C 0.78138 0.96427 0.90559 0.0
C184 C 0.82414 0.94132 0.88307 0.0
C185 C 0.82321 0.98788 0.90392 0.0
C186 C 0.59547 0.82076 0.89666 0.0
C187 C 0.542 0.77622 0.87669 0.0
N188 N 0.53257 0.74506 0.88816 0.0
C189 C 0.58529 0.78836 0.90827 0.0
C190 C 0.57376 0.81474 0.88074 0.0
C191 C 0.55337 0.75028 0.90373 0.0
C192 C 0.65673 0.92375 0.94443 0.0
N193 N 0.68343 0.9154 0.93623 0.0
C194 C 0.7269 0.93888 0.96189 0.0
C195 C 0.71752 0.92158 0.94471 0.0
C196 C 0.70102 0.95004 0.9703 0.0
C197 C 0.66509 0.94141 0.96149 0.0
H198 H 0.63053 0.91968 0.93711 0.0
H199 H 0.73857 0.9153 0.93774 0.0
C200 C 0.69708 0.83866 0.85438 0.0
N201 N 0.6779 0.82697 0.87053 0.0
C202 C 0.70906 0.8145 0.84527 0.0
C203 C 0.68087 0.76591 0.86938 0.0
C204 C 0.66942 0.79121 0.87811 0.0
C205 C 0.70124 0.77759 0.85275 0.0
H206 H 0.70475 0.86779 0.84891 0.0
H207 H 0.65502 0.78292 0.89116 0.0
C208 C 0.67751 0.98774 0.90236 0.0
N209 N 0.68763 0.06346 0.90838 0.0
C210 C 0.66381 0.00515 0.8897 0.0
C211 C 0.69697 0.00916 0.91795 0.0
C212 C 0.66899 0.04335 0.89304 0.0
C213 C 0.70171 0.04734 0.92076 0.0
C214 C 0.65426 0.90827 0.8482 0.0
C215 C 0.66575 0.94648 0.8413 0.0
C216 C 0.63157 0.87408 0.83758 0.0
C217 C 0.65417 0.9498 0.82383 0.0
C218 C 0.62054 0.87867 0.8202 0.0
N219 N 0.63199 0.91612 0.81373 0.0
C220 C 0.76435 0.97828 0.85666 0.0
C221 C 0.76376 0.02456 0.87771 0.0
C222 C 0.79705 0.00935 0.8477 0.0
N223 N 0.74843 0.98643 0.87132 0.0
C224 C 0.79587 0.0566 0.86896 0.0
C225 C 0.81281 0.04915 0.85373 0.0
H226 H 0.75184 0.94749 0.8521 0.0
H227 H 0.75159 0.0303 0.88966 0.0
C228 C 0.57301 0.91931 0.89775 0.0
N229 N 0.5864 0.91181 0.88207 0.0
C230 C 0.55032 0.93868 0.89761 0.0
C231 C 0.55288 0.93966 0.86512 0.0
C232 C 0.57537 0.91997 0.86587 0.0
C233 C 0.54172 0.95095 0.88118 0.0
H234 H 0.58272 0.91315 0.91044 0.0
H235 H 0.58632 0.91399 0.85356 0.0
O236 O 0.71978 0.90568 0.89672 0.0
O237 O 0.62729 0.85792 0.90069 0.0
O238 O 0.67193 0.94996 0.89958 0.0
O239 O 0.66563 0.90427 0.86516 0.0
H240 H 0.76685 0.88939 0.87658 0.0
H241 H 0.76508 0.97401 0.91421 0.0
H242 H 0.84117 0.93273 0.87433 0.0
H243 H 0.83948 0.01574 0.9114 0.0
H244 H 0.52493 0.77109 0.8644 0.0
H245 H 0.60208 0.79257 0.92059 0.0
H246 H 0.58143 0.83946 0.87156 0.0
H247 H 0.5452 0.72488 0.91256 0.0
H248 H 0.7548 0.94483 0.96825 0.0
H249 H 0.6448 0.95046 0.96719 0.0
H250 H 0.72591 0.82558 0.83286 0.0
H251 H 0.67454 0.73788 0.87571 0.0
H252 H 0.64949 0.98947 0.87738 0.0
H253 H 0.70882 0.99674 0.92766 0.0
H254 H 0.65823 0.05704 0.88343 0.0
H255 H 0.71668 0.0642 0.93277 0.0
H256 H 0.68318 0.97323 0.84937 0.0
H257 H 0.62256 0.8443 0.84273 0.0
H258 H 0.66277 0.97915 0.8183 0.0
H259 H 0.60293 0.85248 0.81183 0.0
H260 H 0.8101 1.00222 0.83634 0.0
H261 H 0.80728 0.08691 0.87405 0.0
H262 H 0.54131 0.94575 0.91029 0.0
H263 H 0.54661 0.94829 0.85216 0.0
Li264 Li 0.80335 0.67135 0.21267 0.0
Li265 Li 0.7709 0.67773 0.24174 0.0
Li266 Li 0.72725 0.63107 0.21715 0.0
Li267 Li 0.76353 0.70309 0.21293 0.0
C268 C 0.77268 0.5942 0.22763 0.0
N269 N 0.77766 0.52673 0.21891 0.0
C270 C 0.78629 0.5769 0.24037 0.0
C271 C 0.76156 0.57722 0.21045 0.0
C272 C 0.78861 0.54278 0.2357 0.0
C273 C 0.7643 0.54309 0.20631 0.0
C274 C 0.83171 0.76094 0.22662 0.0
C275 C 0.83097 0.82144 0.235 0.0
N276 N 0.86522 0.84373 0.22529 0.0
C277 C 0.86715 0.7845 0.2169 0.0
C278 C 0.81371 0.7796 0.23591 0.0
C279 C 0.88354 0.82629 0.21634 0.0
C280 C 0.86392 0.7061 0.18766 0.0
N281 N 0.85169 0.67833 0.20109 0.0
C282 C 0.91209 0.67453 0.19777 0.0
C283 C 0.87461 0.6619 0.20612 0.0
C284 C 0.92602 0.70461 0.18442 0.0
C285 C 0.90094 0.71968 0.17914 0.0
H286 H 0.84557 0.71914 0.1841 0.0
H287 H 0.86459 0.64017 0.21697 0.0
C288 C 0.73742 0.65994 0.27616 0.0
N289 N 0.77131 0.68614 0.26704 0.0
C290 C 0.72991 0.66982 0.29329 0.0
C291 C 0.79357 0.73224 0.29179 0.0
C292 C 0.79989 0.72115 0.27468 0.0
C293 C 0.75748 0.70709 0.30101 0.0
H294 H 0.7148 0.63277 0.26957 0.0
H295 H 0.82642 0.74159 0.26708 0.0
C296 C 0.74651 0.66751 0.17956 0.0
N297 N 0.7213 0.68106 0.14674 0.0
C298 C 0.71183 0.67077 0.17848 0.0
C299 C 0.76809 0.67062 0.16389 0.0
C300 C 0.69965 0.67778 0.1618 0.0
C301 C 0.75494 0.6776 0.14744 0.0
C302 C 0.69145 0.67832 0.23559 0.0
C303 C 0.6551 0.66004 0.22602 0.0
C304 C 0.69593 0.70303 0.25032 0.0
C305 C 0.62391 0.66665 0.23135 0.0
C306 C 0.66405 0.70892 0.25522 0.0
N307 N 0.62899 0.69075 0.24572 0.0
C308 C 0.65282 0.57074 0.22941 0.0
C309 C 0.65705 0.57449 0.19756 0.0
C310 C 0.6108 0.54739 0.2286 0.0
N311 N 0.67482 0.58496 0.21405 0.0
C312 C 0.61502 0.55125 0.19613 0.0
C313 C 0.59128 0.53886 0.21182 0.0
H314 H 0.66762 0.58052 0.24234 0.0
H315 H 0.67511 0.58651 0.18555 0.0
C316 C 0.78927 0.76523 0.18811 0.0
N317 N 0.76222 0.74686 0.20163 0.0
C318 C 0.79248 0.79914 0.17968 0.0
C319 C 0.73956 0.79436 0.19911 0.0
C320 C 0.73737 0.76054 0.20714 0.0
C321 C 0.76774 0.81423 0.18538 0.0
H322 H 0.80884 0.75388 0.1841 0.0
H323 H 0.71634 0.7459 0.21793 0.0
O324 O 0.7708 0.6279 0.23198 0.0
O325 O 0.81443 0.71983 0.22689 0.0
O326 O 0.75916 0.66099 0.19582 0.0
O327 O 0.72228 0.67183 0.23071 0.0
H328 H 0.79509 0.58981 0.25371 0.0
H329 H 0.75094 0.59014 0.2004 0.0
H330 H 0.79914 0.52909 0.24542 0.0
H331 H 0.75582 0.52962 0.19307 0.0
H332 H 0.81704 0.83617 0.24194 0.0
H333 H 0.88191 0.77077 0.20986 0.0
H334 H 0.78623 0.76186 0.24344 0.0
H335 H 0.91084 0.84484 0.20878 0.0
H336 H 0.93072 0.66228 0.20224 0.0
H337 H 0.91044 0.74269 0.16884 0.0
H338 H 0.70169 0.64965 0.29992 0.0
H339 H 0.81596 0.76084 0.29746 0.0
H340 H 0.69482 0.66848 0.19045 0.0
H341 H 0.79454 0.66735 0.16437 0.0
H342 H 0.67303 0.68068 0.16082 0.0
H343 H 0.77142 0.68017 0.13521 0.0
H344 H 0.65078 0.64089 0.21459 0.0
H345 H 0.72377 0.71781 0.25784 0.0
H346 H 0.59566 0.65258 0.22407 0.0
H347 H 0.6672 0.72799 0.26657 0.0
H348 H 0.59366 0.53856 0.24101 0.0
H349 H 0.60116 0.54458 0.18293 0.0
H350 H 0.81456 0.81387 0.1691 0.0
H351 H 0.71951 0.80491 0.20358 0.0
Li352 Li 0.1334 0.80363 0.54718 0.0
Li353 Li 0.09388 0.77082 0.57524 0.0
Li354 Li 0.09159 0.72929 0.54913 0.0
Li355 Li 0.05989 0.7713 0.54798 0.0
C356 C 0.17909 0.7835 0.56812 0.0
N357 N 0.26059 0.82148 0.57551 0.0
C358 C 0.19444 0.80779 0.5834 0.0
C359 C 0.20501 0.77827 0.55665 0.0
C360 C 0.23579 0.82677 0.58691 0.0
C361 C 0.24618 0.79784 0.5606 0.0
C362 C 0.08559 0.84483 0.56136 0.0
C363 C 0.0336 0.86133 0.5674 0.0
N364 N 0.05555 0.89693 0.55857 0.0
C365 C 0.10781 0.88177 0.55251 0.0
C366 C 0.04835 0.83469 0.56902 0.0
C367 C 0.09205 0.90763 0.55119 0.0
C368 C 0.16604 0.85995 0.51983 0.0
N369 N 0.1773 0.85041 0.53562 0.0
C370 C 0.24055 0.91243 0.53462 0.0
C371 C 0.21404 0.87562 0.54301 0.0
C372 C 0.22875 0.92395 0.51875 0.0
C373 C 0.19121 0.89653 0.5112 0.0
H374 H 0.13634 0.84009 0.51441 0.0
H375 H 0.22231 0.8681 0.55571 0.0
C376 C 0.08585 0.73823 0.61032 0.0
N377 N 0.08744 0.76946 0.60091 0.0
C378 C 0.06896 0.72907 0.62758 0.0
C379 C 0.05917 0.78658 0.62576 0.0
C380 C 0.07596 0.79444 0.60851 0.0
C381 C 0.05428 0.75273 0.63528 0.0
H382 H 0.09487 0.71862 0.60391 0.0
H383 H 0.07746 0.81901 0.60079 0.0
C384 C 0.09849 0.7499 0.51417 0.0
N385 N 0.1072 0.7158 0.48298 0.0
C386 C 0.06531 0.72761 0.50296 0.0
C387 C 0.13613 0.7551 0.50951 0.0
C388 C 0.07031 0.71051 0.48725 0.0
C389 C 0.13991 0.73757 0.49368 0.0
C390 C 0.02232 0.701 0.57683 0.0
C391 C 0.0244 0.66691 0.58189 0.0
C392 C 0.99618 0.71042 0.58598 0.0
C393 C 1.00043 0.64295 0.59607 0.0
C394 C 0.97282 0.68579 0.60013 0.0
N395 N 0.9754 0.65284 0.60483 0.0
C396 C 0.10323 0.66036 0.5475 0.0
C397 C 0.04314 0.65328 0.53491 0.0
C398 C 0.08846 0.61887 0.54559 0.0
N399 N 0.08011 0.67643 0.54246 0.0
C400 C 0.0273 0.61187 0.53274 0.0
C401 C 0.04948 0.59391 0.5386 0.0
H402 H 0.13217 0.6793 0.55382 0.0
H403 H 0.02494 0.66668 0.53153 0.0
C404 C 0.02329 0.80409 0.52663 0.0
N405 N 0.01623 0.77316 0.5378 0.0
C406 C 0.99111 0.80579 0.51884 0.0
C407 C 0.94533 0.74279 0.53358 0.0
C408 C 0.97836 0.74255 0.54122 0.0
C409 C 0.95158 0.77494 0.52239 0.0
H410 H 0.05392 0.8274 0.52382 0.0
H411 H 0.97386 0.71765 0.54964 0.0
O412 O 0.13876 0.76447 0.56453 0.0
O413 O 0.10036 0.81891 0.56259 0.0
O414 O 0.09407 0.76645 0.52968 0.0
O415 O 0.04606 0.72526 0.56316 0.0
H416 H 0.17464 0.81201 0.59242 0.0
H417 H 0.19343 0.75925 0.54485 0.0
H418 H 0.24818 0.84575 0.59866 0.0
H419 H 0.26667 0.79419 0.55182 0.0
H420 H 0.00464 0.85364 0.57311 0.0
H421 H 0.13699 0.89055 0.54679 0.0
H422 H 0.03071 0.80626 0.5759 0.0
H423 H 0.10888 0.93623 0.54431 0.0
H424 H 0.26958 0.93197 0.54076 0.0
H425 H 0.18041 0.90401 0.49914 0.0
H426 H 0.0659 0.70282 0.63453 0.0
H427 H 0.0479 0.80536 0.63113 0.0
H428 H 0.03599 0.72343 0.50642 0.0
H429 H 0.1621 0.77247 0.51804 0.0
H430 H 0.04488 0.69303 0.47846 0.0
H431 H 0.16885 0.74127 0.4899 0.0
H432 H 0.0447 0.65929 0.57516 0.0
H433 H 0.99417 0.73666 0.5823 0.0
H434 H 1.00192 0.61662 0.60017 0.0
H435 H 0.95273 0.69294 0.60741 0.0
H436 H 0.10679 0.60628 0.55002 0.0
H437 H 0.99705 0.59376 0.52745 0.0
H438 H 0.99701 0.83085 0.51014 0.0
H439 H 0.91533 0.71772 0.53608 0.0
Li440 Li 0.32694 0.09136 0.90943 0.0
Li441 Li 0.33449 0.13099 0.88065 0.0
Li442 Li 0.29978 0.05874 0.88065 0.0
Li443 Li 0.37218 0.09385 0.88454 0.0
C444 C 0.24456 0.07357 0.89288 0.0
N445 N 0.16208 0.02943 0.88793 0.0
C446 C 0.22598 0.08601 0.88024 0.0
C447 C 0.22119 0.03889 0.90311 0.0
C448 C 0.18423 0.06324 0.87792 0.0
C449 C 0.17954 0.01692 0.90037 0.0
C450 C 0.41164 0.17548 0.89501 0.0
C451 C 0.46219 0.21655 0.87315 0.0
N452 N 0.48015 0.24643 0.8856 0.0
C453 C 0.43056 0.20655 0.90759 0.0
C454 C 0.4275 0.18045 0.87764 0.0
C455 C 0.46519 0.24221 0.90257 0.0
C456 C 0.34545 0.07376 0.94307 0.0
N457 N 0.31947 0.08297 0.93475 0.0
C458 C 0.27634 0.06158 0.96056 0.0
C459 C 0.28585 0.07811 0.94322 0.0
C460 C 0.30167 0.04995 0.96917 0.0
C461 C 0.33702 0.05697 0.9603 0.0
H462 H 0.37129 0.07681 0.93579 0.0
H463 H 0.26532 0.08502 0.93618 0.0
C464 C 0.31799 0.16571 0.85142 0.0
N465 N 0.32905 0.17318 0.86904 0.0
C466 C 0.30505 0.18894 0.84217 0.0
C467 C 0.31589 0.22824 0.86914 0.0
C468 C 0.3288 0.20414 0.87794 0.0
C469 C 0.3029 0.22014 0.85109 0.0
H470 H 0.31693 0.14012 0.84479 0.0
H471 H 0.33652 0.20879 0.89209 0.0
C472 C 0.32214 0.00971 0.90234 0.0
N473 N 0.30517 0.93283 0.91152 0.0
C474 C 0.33886 0.99056 0.89247 0.0
C475 C 0.29684 0.9897 0.91693 0.0
C476 C 0.3299 0.95171 0.89731 0.0
C477 C 0.28861 0.95086 0.92133 0.0
C478 C 0.3485 0.07998 0.84819 0.0
C479 C 0.33795 0.03941 0.84736 0.0
C480 C 0.36728 0.10512 0.83343 0.0
C481 C 0.34639 0.02464 0.83175 0.0
C482 C 0.37523 0.08921 0.81806 0.0
N483 N 0.36471 0.04964 0.81755 0.0
C484 C 0.24233 0.02391 0.85396 0.0
C485 C 0.23609 0.97714 0.87645 0.0
C486 C 0.20849 0.99427 0.84503 0.0
N487 N 0.25523 0.0149 0.86939 0.0
C488 C 0.2024 0.94649 0.86788 0.0
C489 C 0.188 0.95511 0.85211 0.0
H490 H 0.25808 0.05439 0.84878 0.0
H491 H 0.2464 0.97075 0.88881 0.0
C492 C 0.42897 0.07612 0.89751 0.0
N493 N 0.41802 0.08634 0.88183 0.0
C494 C 0.45335 0.05858 0.89736 0.0
C495 C 0.45701 0.06459 0.86496 0.0
C496 C 0.4327 0.08231 0.86574 0.0
C497 C 0.46674 0.05153 0.88089 0.0
H498 H 0.41624 0.07882 0.91007 0.0
H499 H 0.42394 0.09071 0.85341 0.0
O500 O 0.28553 0.09467 0.89491 0.0
O501 O 0.37747 0.14064 0.8997 0.0
O502 O 0.33119 0.04813 0.89806 0.0
O503 O 0.34068 0.09527 0.86333 0.0
H504 H 0.24364 0.11272 0.87219 0.0
H505 H 0.23518 0.02854 0.91277 0.0
H506 H 0.16947 0.07236 0.86811 0.0
H507 H 0.16113 0.98979 0.90806 0.0
H508 H 0.47482 0.22082 0.85976 0.0
H509 H 0.41853 0.20314 0.92107 0.0
H510 H 0.41331 0.15679 0.86771 0.0
H511 H 0.48015 0.26655 0.91217 0.0
H512 H 0.24885 0.05676 0.96694 0.0
H513 H 0.35685 0.04752 0.96617 0.0
H514 H 0.29532 0.18152 0.82831 0.0
H515 H 0.31394 0.25141 0.87668 0.0
H516 H 0.3587 0.00548 0.88122 0.0
H517 H 0.28317 0.0037 0.92461 0.0
H518 H 0.34268 0.93661 0.88978 0.0
H519 H 0.26896 0.93502 0.93254 0.0
H520 H 0.32348 0.01952 0.85861 0.0
H521 H 0.37599 0.13669 0.8339 0.0
H522 H 0.33842 0.99331 0.83093 0.0
H523 H 0.38985 0.10836 0.80656 0.0
H524 H 0.19816 1.00194 0.83288 0.0
H525 H 0.18788 0.91636 0.8735 0.0
H526 H 0.45957 0.0484 0.90993 0.0
H527 H 0.46702 0.05993 0.852 0.0
Li528 Li 0.70641 0.76356 0.45561 0.0
Li529 Li 0.6342 0.72669 0.45104 0.0
Li530 Li 0.6807 0.76946 0.42648 0.0
Li531 Li 0.67192 0.80159 0.45498 0.0
C532 C 0.684 0.69162 0.43457 0.0
N533 N 0.69967 0.63003 0.42719 0.0
C534 C 0.66751 0.65714 0.4454 0.0
C535 C 0.70847 0.69472 0.41998 0.0
C536 C 0.67578 0.62635 0.44145 0.0
C537 C 0.71604 0.66328 0.41648 0.0
C538 C 0.65588 0.73817 0.48803 0.0
C539 C 0.62686 0.72398 0.51781 0.0
N540 N 0.63752 0.69525 0.51988 0.0
C541 C 0.66656 0.70852 0.49046 0.0
C542 C 0.63591 0.74603 0.50182 0.0
C543 C 0.65702 0.68716 0.50665 0.0
C544 C 0.76264 0.78603 0.4828 0.0
N545 N 0.75005 0.76366 0.46749 0.0
C546 C 0.80136 0.74614 0.47025 0.0
C547 C 0.76875 0.74405 0.46103 0.0
C548 C 0.81491 0.7689 0.48612 0.0
C549 C 0.7954 0.78929 0.49235 0.0
H550 H 0.74747 0.80179 0.48741 0.0
H551 H 0.75894 0.72731 0.44865 0.0
C552 C 0.57739 0.6524 0.43784 0.0
N553 N 0.58828 0.67338 0.45358 0.0
C554 C 0.5532 0.61045 0.4379 0.0
C555 C 0.54983 0.61236 0.47033 0.0
C556 C 0.57382 0.65443 0.46964 0.0
C557 C 0.54014 0.58981 0.45434 0.0
H558 H 0.59003 0.66803 0.4253 0.0
H559 H 0.58261 0.67143 0.48201 0.0
C560 C 0.76245 0.83376 0.44372 0.0
N561 N 0.84472 0.8723 0.44933 0.0
C562 C 0.78065 0.86569 0.45595 0.0
C563 C 0.7861 0.82162 0.43423 0.0
C564 C 0.8223 0.88476 0.45861 0.0
C565 C 0.82764 0.84143 0.4373 0.0
C566 C 0.59556 0.76933 0.4399 0.0
C567 C 0.578 0.78279 0.42722 0.0
C568 C 0.57829 0.75741 0.45698 0.0
C569 C 0.54331 0.78409 0.43185 0.0
C570 C 0.5436 0.75912 0.46109 0.0
N571 N 0.52697 0.77233 0.44855 0.0
C572 C 0.66357 0.73433 0.39252 0.0
C573 C 0.72449 0.79714 0.39343 0.0
C574 C 0.67314 0.72614 0.37547 0.0
N575 N 0.68966 0.76883 0.40129 0.0
C576 C 0.73524 0.79019 0.37634 0.0
C577 C 0.70987 0.75377 0.36737 0.0
H578 H 0.63657 0.71195 0.39928 0.0
H579 H 0.74505 0.82398 0.40083 0.0
C580 C 0.69046 0.85403 0.48373 0.0
N581 N 0.67737 0.84933 0.4664 0.0
C582 C 0.70426 0.89072 0.49264 0.0
C583 C 0.68938 0.91714 0.46604 0.0
C584 C 0.67586 0.8797 0.45755 0.0
C585 C 0.70507 0.9233 0.48363 0.0
H586 H 0.69266 0.83006 0.49032 0.0
H587 H 0.66631 0.87567 0.44362 0.0
O588 O 0.67566 0.72183 0.43799 0.0
O589 O 0.66492 0.75962 0.47232 0.0
O590 O 0.72157 0.81393 0.44132 0.0
O591 O 0.62978 0.76839 0.43559 0.0
H592 H 0.64836 0.65396 0.45669 0.0
H593 H 0.72194 0.72133 0.41157 0.0
H594 H 0.66314 0.5995 0.4497 0.0
H595 H 0.735 0.66536 0.40526 0.0
H596 H 0.61132 0.72967 0.52857 0.0
H597 H 0.68196 0.70197 0.47997 0.0
H598 H 0.62724 0.76874 0.50013 0.0
H599 H 0.66507 0.6641 0.5087 0.0
H600 H 0.81581 0.73011 0.46503 0.0
H601 H 0.80569 0.80799 0.5043 0.0
H602 H 0.5469 0.59417 0.42529 0.0
H603 H 0.54008 0.5975 0.48326 0.0
H604 H 0.76282 0.87549 0.46339 0.0
H605 H 0.77238 0.79658 0.42491 0.0
H606 H 0.83677 0.90939 0.4681 0.0
H607 H 0.84626 0.8321 0.43019 0.0
H608 H 0.59112 0.79224 0.41396 0.0
H609 H 0.59143 0.74691 0.46697 0.0
H610 H 0.5294 0.79449 0.42218 0.0
H611 H 0.52989 0.74997 0.47425 0.0
H612 H 0.65272 0.6978 0.36897 0.0
H613 H 0.76409 0.81201 0.37069 0.0
H614 H 0.71589 0.89415 0.50622 0.0
H615 H 0.68978 0.94166 0.4586 0.0
Li616 Li 0.94833 0.71093 0.78786 0.0
Li617 Li 0.91427 0.63704 0.78701 0.0
Li618 Li 0.91343 0.67757 0.76007 0.0
Li619 Li 0.87623 0.67372 0.78884 0.0
C620 C 0.99606 0.68537 0.76646 0.0
N621 N 0.07181 0.70232 0.75527 0.0
C622 C 0.01627 0.66865 0.77551 0.0
C623 C 0.01466 0.71107 0.75182 0.0
C624 C 0.05446 0.67748 0.76962 0.0
C625 C 0.05288 0.71917 0.74635 0.0
C626 C 0.89539 0.65129 0.82169 0.0
C627 C 0.84055 0.5929 0.83576 0.0
N628 N 0.85617 0.60851 0.85221 0.0
C629 C 0.91087 0.66684 0.83871 0.0
C630 C 0.85994 0.6141 0.82015 0.0
C631 C 0.89062 0.64471 0.854 0.0
C632 C 0.98289 0.77967 0.80875 0.0
N633 N 0.99253 0.75714 0.79792 0.0
C634 C 0.06254 0.80022 0.80379 0.0
C635 C 0.03143 0.76675 0.79529 0.0
C636 C 0.05345 0.824 0.81505 0.0
C637 C 0.01309 0.81382 0.81729 0.0
H638 H 0.95163 0.77097 0.81079 0.0
H639 H 0.03859 0.74831 0.78692 0.0
C640 C 0.92731 0.57452 0.77755 0.0
N641 N 0.92387 0.59373 0.79226 0.0
C642 C 0.94532 0.55069 0.77901 0.0
C643 C 0.95371 0.56473 0.81093 0.0
C644 C 0.93597 0.58879 0.80883 0.0
C645 C 0.95965 0.54637 0.79578 0.0
H646 H 0.91869 0.58009 0.76446 0.0
H647 H 0.9345 0.60561 0.8202 0.0
C648 C 0.92811 0.76157 0.77207 0.0
N649 N 0.96532 0.84462 0.7703 0.0
C650 C 0.91014 0.78171 0.78007 0.0
C651 C 0.96476 0.78362 0.76299 0.0
C652 C 0.92948 0.82373 0.77907 0.0
C653 C 0.98318 0.8256 0.7623 0.0
C654 C 0.8289 0.6111 0.76504 0.0
C655 C 0.8198 0.63137 0.75187 0.0
C656 C 0.79872 0.57376 0.77141 0.0
C657 C 0.7804 0.61387 0.74529 0.0
C658 C 0.75969 0.55732 0.76452 0.0
N659 N 0.75141 0.57754 0.75172 0.0
C660 C 0.93232 0.65735 0.7267 0.0
C661 C 0.92464 0.71503 0.72587 0.0
C662 C 0.95064 0.66672 0.70975 0.0
N663 N 0.9211 0.68224 0.73462 0.0
C664 C 0.94272 0.72546 0.70887 0.0
C665 C 0.95754 0.70208 0.70095 0.0
H666 H 0.93008 0.63207 0.73418 0.0
H667 H 0.91588 0.73455 0.73254 0.0
C668 C 0.84836 0.70597 0.81434 0.0
N669 N 0.83387 0.67916 0.80048 0.0
C670 C 0.82365 0.71746 0.8233 0.0
C671 C 0.76854 0.67257 0.80407 0.0
C672 C 0.79453 0.662 0.79536 0.0
C673 C 0.78326 0.70132 0.81805 0.0
H674 H 0.8798 0.71964 0.81805 0.0
H675 H 0.78337 0.64082 0.78434 0.0
O676 O 0.95833 0.67653 0.77189 0.0
O677 O 0.91475 0.67284 0.80665 0.0
O678 O 0.90985 0.72048 0.77312 0.0
O679 O 0.86715 0.62767 0.77171 0.0
H680 H 1.00287 0.64937 0.78707 0.0
H681 H 0.99992 0.72475 0.74474 0.0
H682 H 0.07035 0.66465 0.77648 0.0
H683 H 0.0675 0.7389 0.73501 0.0
H684 H 0.81308 0.56406 0.83479 0.0
H685 H 0.93823 0.69572 0.84008 0.0
H686 H 0.84755 0.60177 0.80706 0.0
H687 H 0.90226 0.65634 0.86728 0.0
H688 H 0.09334 0.80694 0.80189 0.0
H689 H 0.00494 0.8319 0.82558 0.0
H690 H 0.94946 0.53704 0.76702 0.0
H691 H 0.96497 0.5626 0.82403 0.0
H692 H 0.88154 0.76512 0.78696 0.0
H693 H 0.97907 0.76852 0.75675 0.0
H694 H 0.91599 0.83972 0.78526 0.0
H695 H 0.0117 0.84305 0.75544 0.0
H696 H 0.8428 0.66042 0.74689 0.0
H697 H 0.80539 0.55767 0.78158 0.0
H698 H 0.77283 0.62922 0.73512 0.0
H699 H 0.73598 0.52848 0.76936 0.0
H700 H 0.96167 0.64794 0.70414 0.0
H701 H 0.94659 0.75244 0.70233 0.0
H702 H 0.83655 0.73994 0.83385 0.0
H703 H 0.7374 0.65866 0.79978 0.0
Li704 Li 0.23798 0.94542 0.12402 0.0
Li705 Li 0.27912 0.91315 0.12088 0.0
Li706 Li 0.23688 0.91363 0.09561 0.0
Li707 Li 0.20564 0.872 0.12307 0.0
C708 C 0.3069 0.9862 0.09502 0.0
N709 N 0.35618 0.04057 0.06922 0.0
C710 C 0.34294 0.98789 0.09006 0.0
C711 C 0.2957 0.01182 0.08663 0.0
C712 C 0.36747 0.01563 0.07703 0.0
C713 C 0.32104 0.03914 0.07366 0.0
C714 C 0.2649 0.91144 0.1561 0.0
C715 C 0.29415 0.88256 0.17558 0.0
N716 N 0.3101 0.91633 0.18597 0.0
C717 C 0.28135 0.94577 0.16701 0.0
C718 C 0.27111 0.87946 0.16044 0.0
C719 C 0.3042 0.9477 0.18204 0.0
C720 C 0.20904 0.9809 0.14831 0.0
N721 N 0.23701 0.98871 0.13531 0.0
C722 C 0.26481 0.05952 0.13887 0.0
C723 C 0.26512 0.02698 0.13074 0.0
C724 C 0.23586 0.05222 0.15203 0.0
C725 C 0.20786 0.0126 0.15692 0.0
H726 H 0.18785 0.95007 0.15199 0.0
H727 H 0.28806 0.0323 0.12098 0.0
C728 C 0.35014 0.90477 0.11908 0.0
N729 N 0.33282 0.92501 0.12639 0.0
C730 C 0.392 0.92088 0.12025 0.0
C731 C 0.39681 0.97711 0.13709 0.0
C732 C 0.35519 0.96031 0.1354 0.0
C733 C 0.41588 0.95798 0.12903 0.0
H734 H 0.33187 0.87741 0.1115 0.0
H735 H 0.34104 0.97679 0.14031 0.0
C736 C 0.16454 0.92186 0.11248 0.0
N737 N 0.11434 0.95286 0.11929 0.0
C738 C 0.13156 0.90162 0.12405 0.0
C739 C 0.1719 0.95785 0.10436 0.0
C740 C 0.10653 0.91776 0.12731 0.0
C741 C 0.14624 0.97307 0.108 0.0
C742 C 0.21981 0.82727 0.10121 0.0
C743 C 0.19522 0.81433 0.08594 0.0
C744 C 0.21974 0.79895 0.11308 0.0
C745 C 0.1707 0.77303 0.08283 0.0
C746 C 0.19473 0.75792 0.10952 0.0
N747 N 0.17093 0.74592 0.09459 0.0
C748 C 0.26969 0.92508 0.06068 0.0
C749 C 0.21281 0.93387 0.0627 0.0
C750 C 0.27881 0.94258 0.04356 0.0
N751 N 0.23809 0.92254 0.07013 0.0
C752 C 0.22076 0.95145 0.04558 0.0
C753 C 0.25509 0.95748 0.03612 0.0
H754 H 0.28946 0.91607 0.06696 0.0
H755 H 0.18783 0.93144 0.07044 0.0
C756 C 0.1571 0.82582 0.15196 0.0
N757 N 0.15886 0.82614 0.13365 0.0
C758 C 0.12062 0.8018 0.16089 0.0
C759 C 0.08848 0.77652 0.13212 0.0
C760 C 0.12569 0.80133 0.12367 0.0
C761 C 0.0854 0.77788 0.15094 0.0
H762 H 0.18332 0.8464 0.15965 0.0
H763 H 0.12729 0.80306 0.10914 0.0
O764 O 0.28285 0.9598 0.10807 0.0
O765 O 0.24278 0.90912 0.14123 0.0
O766 O 0.18965 0.90672 0.10924 0.0
O767 O 0.2435 0.8675 0.10463 0.0
H768 H 0.35195 0.96797 0.09609 0.0
H769 H 0.26774 0.01066 0.09008 0.0
H770 H 0.39547 0.01731 0.07311 0.0
H771 H 0.31276 0.05917 0.0671 0.0
H772 H 0.29938 0.85812 0.17907 0.0
H773 H 0.27682 0.97079 0.16382 0.0
H774 H 0.25845 0.85266 0.15214 0.0
H775 H 0.3173 0.97415 0.19056 0.0
H776 H 0.28721 0.09001 0.13515 0.0
H777 H 0.18548 0.00637 0.16723 0.0
H778 H 0.40569 0.90518 0.11392 0.0
H779 H 0.4142 0.00598 0.14374 0.0
H780 H 0.12542 0.87396 0.1306 0.0
H781 H 0.19748 0.97421 0.09556 0.0
H782 H 0.08098 0.90243 0.13626 0.0
H783 H 0.15176 1.00101 0.10188 0.0
H784 H 0.19489 0.83596 0.07666 0.0
H785 H 0.23866 0.80859 0.12496 0.0
H786 H 0.15139 0.76252 0.07109 0.0
H787 H 0.19422 0.73562 0.11862 0.0
H788 H 0.30507 0.94589 0.03653 0.0
H789 H 0.20161 0.96233 0.04026 0.0
H790 H 0.1195 0.8036 0.17542 0.0
H791 H 0.06187 0.75877 0.12398 0.0
Li792 Li 0.37562 0.27753 0.45021 0.0
Li793 Li 0.30333 0.24226 0.45426 0.0
Li794 Li 0.33644 0.2026 0.45446 0.0
Li795 Li 0.32945 0.23445 0.42554 0.0
C796 C 0.35284 0.26271 0.48786 0.0
N797 N 0.37105 0.2972 0.52172 0.0
C798 C 0.34336 0.29243 0.4924 0.0
C799 C 0.37136 0.25036 0.50057 0.0
C800 C 0.35286 0.30954 0.50958 0.0
C801 C 0.3804 0.26823 0.51761 0.0
C802 C 0.32943 0.31506 0.43361 0.0
C803 C 0.30509 0.35021 0.41512 0.0
N804 N 0.3197 0.38082 0.42731 0.0
C805 C 0.34399 0.34678 0.44599 0.0
C806 C 0.30965 0.31669 0.41808 0.0
C807 C 0.33884 0.37977 0.44255 0.0
C808 C 0.43345 0.35136 0.43723 0.0
N809 N 0.42157 0.3306 0.45299 0.0
C810 C 0.45666 0.39204 0.46977 0.0
C811 C 0.4342 0.34984 0.46911 0.0
C812 C 0.46618 0.41439 0.45371 0.0
C813 C 0.45609 0.39342 0.43727 0.0
H814 H 0.42252 0.33541 0.42462 0.0
H815 H 0.42453 0.33293 0.48149 0.0
C816 C 0.24784 0.22447 0.48142 0.0
N817 N 0.26055 0.24469 0.46557 0.0
C818 C 0.21538 0.22295 0.49051 0.0
C819 C 0.20955 0.26294 0.46672 0.0
C820 C 0.24223 0.26378 0.45811 0.0
C821 C 0.1957 0.24206 0.48303 0.0
H822 H 0.2628 0.20921 0.48688 0.0
H823 H 0.25208 0.27863 0.44527 0.0
C824 C 0.41326 0.23323 0.43994 0.0
N825 N 0.48046 0.22839 0.44941 0.0
C826 C 0.42993 0.21782 0.42776 0.0
C827 C 0.43074 0.2462 0.45693 0.0
C828 C 0.46392 0.21561 0.4328 0.0
C829 C 0.46471 0.24352 0.46146 0.0
C830 C 0.24621 0.17389 0.44192 0.0
C831 C 0.22471 0.14223 0.45398 0.0
C832 C 0.22584 0.18886 0.43175 0.0
C833 C 0.18315 0.12629 0.4558 0.0
C834 C 0.18426 0.17209 0.43395 0.0
N835 N 0.16397 0.14145 0.44584 0.0
C836 C 0.30886 0.14666 0.48187 0.0
C837 C 0.34251 0.12972 0.45981 0.0
C838 C 0.29708 0.11071 0.4911 0.0
N839 N 0.33067 0.15532 0.46642 0.0
C840 C 0.33169 0.09336 0.46879 0.0
C841 C 0.30833 0.08325 0.48463 0.0
H842 H 0.29899 0.16701 0.48662 0.0
H843 H 0.35931 0.13689 0.44734 0.0
C844 C 0.34897 0.26858 0.3915 0.0
N845 N 0.32152 0.23477 0.40028 0.0
C846 C 0.34 0.27781 0.37455 0.0
C847 C 0.27588 0.21579 0.37543 0.0
C848 C 0.28615 0.20766 0.39238 0.0
C849 C 0.30228 0.25213 0.36669 0.0
H850 H 0.37654 0.28989 0.39825 0.0
H851 H 0.26473 0.18114 0.39972 0.0
O852 O 0.34366 0.24528 0.47117 0.0
O853 O 0.33508 0.2829 0.43646 0.0
O854 O 0.37961 0.23491 0.43528 0.0
O855 O 0.28713 0.19086 0.4404 0.0
H856 H 0.32882 0.3022 0.48279 0.0
H857 H 0.37876 0.22728 0.49728 0.0
H858 H 0.34576 0.33261 0.51326 0.0
H859 H 0.39482 0.25904 0.52757 0.0
H860 H 0.28989 0.35186 0.40314 0.0
H861 H 0.35933 0.34616 0.45808 0.0
H862 H 0.29761 0.29221 0.40846 0.0
H863 H 0.35017 0.40461 0.45198 0.0
H864 H 0.46416 0.40701 0.48273 0.0
H865 H 0.46387 0.40941 0.42456 0.0
H866 H 0.20581 0.20707 0.50322 0.0
H867 H 0.19473 0.27768 0.46052 0.0
H868 H 0.41661 0.20752 0.41458 0.0
H869 H 0.4183 0.25823 0.46653 0.0
H870 H 0.47712 0.20369 0.42352 0.0
H871 H 0.47855 0.25344 0.47456 0.0
H872 H 0.23992 0.13019 0.46192 0.0
H873 H 0.24212 0.21391 0.42262 0.0
H874 H 0.16617 0.10193 0.46516 0.0
H875 H 0.1682 0.18368 0.42631 0.0
H876 H 0.27786 0.10384 0.50279 0.0
H877 H 0.3409 0.07307 0.46324 0.0
H878 H 0.36154 0.30569 0.36805 0.0
H879 H 0.24658 0.19515 0.36977 0.0
Li880 Li 0.05595 0.2941 0.79229 0.0
Li881 Li 0.09224 0.36792 0.79 0.0
Li882 Li 0.08551 0.32352 0.76345 0.0
Li883 Li 0.12928 0.32992 0.78946 0.0
C884 C 1.00268 0.30998 0.77877 0.0
N885 N 0.91998 0.27306 0.78253 0.0
C886 C 0.9857 0.32751 0.78957 0.0
C887 C 0.97761 0.27379 0.76981 0.0
C888 C 0.94381 0.30836 0.7913 0.0
C889 C 0.93588 0.25553 0.77192 0.0
C890 C 0.11174 0.35455 0.82475 0.0
C891 C 0.16864 0.40403 0.84181 0.0
N892 N 0.14423 0.39663 0.85631 0.0
C893 C 0.08728 0.34714 0.83987 0.0
C894 C 0.15279 0.38299 0.82575 0.0
C895 C 0.10424 0.36885 0.85568 0.0
C896 C 0.00407 0.21231 0.79861 0.0
N897 N 0.01269 0.24998 0.80346 0.0
C898 C 0.95813 0.22365 0.82428 0.0
C899 C 0.99084 0.25632 0.8161 0.0
C900 C 0.94814 0.18446 0.81925 0.0
C901 C 0.97149 0.17878 0.80635 0.0
H902 H 0.02255 0.20833 0.78879 0.0
H903 H 0.99864 0.28672 0.81967 0.0
C904 C 0.07688 0.4269 0.77936 0.0
N905 N 0.08551 0.41322 0.79465 0.0
C906 C 0.06032 0.45205 0.78029 0.0
C907 C 0.06409 0.45081 0.81273 0.0
C908 C 0.08034 0.42528 0.81119 0.0
C909 C 0.05247 0.46333 0.79713 0.0
H910 H 0.08025 0.41591 0.76643 0.0
H911 H 0.08659 0.41344 0.82318 0.0
C912 C 0.09366 0.25871 0.76326 0.0
N913 N 0.10333 0.2151 0.73604 0.0
C914 C 0.13213 0.26573 0.75887 0.0
C915 C 0.06012 0.22962 0.75378 0.0
C916 C 0.13638 0.2433 0.74508 0.0
C917 C 0.06565 0.20789 0.74006 0.0
C918 C 0.17459 0.40186 0.77152 0.0
C919 C 0.19952 0.39805 0.75891 0.0
C920 C 0.1905 0.43508 0.78309 0.0
C921 C 0.24037 0.42735 0.7583 0.0
C922 C 0.23151 0.46364 0.7821 0.0
N923 N 0.25539 0.4592 0.76984 0.0
C924 C 0.04172 0.32552 0.73434 0.0
C925 C 0.08844 0.30603 0.72484 0.0
C926 C 0.02439 0.31809 0.7173 0.0
N927 N 0.07225 0.31821 0.73805 0.0
C928 C 0.07249 0.29907 0.70731 0.0
C929 C 0.03971 0.30484 0.7034 0.0
H930 H 0.02995 0.33641 0.74472 0.0
H931 H 0.1132 0.30105 0.72789 0.0
C932 C 0.15437 0.29083 0.81136 0.0
N933 N 0.17156 0.32208 0.79954 0.0
C934 C 0.17735 0.27682 0.81997 0.0
C935 C 0.2362 0.32772 0.80441 0.0
C936 C 0.21187 0.34098 0.79605 0.0
C937 C 0.21879 0.29485 0.81643 0.0
H938 H 0.12229 0.27627 0.8139 0.0
H939 H 0.22511 0.36566 0.78659 0.0
O940 O 0.04367 0.32804 0.77699 0.0
O941 O 0.0955 0.33353 0.80918 0.0
O942 O 0.0888 0.28011 0.77679 0.0
O943 O 0.13453 0.37376 0.77221 0.0
H944 H 0.00457 0.35538 0.79667 0.0
H945 H 0.99031 0.2598 0.76144 0.0
H946 H 0.93026 0.32152 0.79965 0.0
H947 H 0.91613 0.22741 0.76515 0.0
H948 H 0.20037 0.42618 0.84275 0.0
H949 H 0.0555 0.32503 0.83939 0.0
H950 H 0.1723 0.38857 0.81431 0.0
H951 H 0.08561 0.36361 0.86745 0.0
H952 H 0.94056 0.22885 0.83424 0.0
H953 H 0.96482 0.14881 0.80245 0.0
H954 H 0.05161 0.46064 0.76792 0.0
H955 H 0.05941 0.45951 0.82598 0.0
H956 H 0.15844 0.28833 0.76595 0.0
H957 H 0.03018 0.22413 0.75685 0.0
H958 H 0.16596 0.2484 0.74153 0.0
H959 H 0.03998 0.18537 0.73258 0.0
H960 H 0.18746 0.3726 0.74978 0.0
H961 H 0.17136 0.43875 0.79272 0.0
H962 H 0.26014 0.42472 0.74869 0.0
H963 H 0.24432 0.48938 0.79105 0.0
H964 H 0.99847 0.32184 0.71526 0.0
H965 H 0.08548 0.2891 0.69698 0.0
H966 H 0.16264 0.25171 0.82923 0.0
H967 H 0.26794 0.3422 0.80108 0.0
Li968 Li 0.7279 0.09031 0.12075 0.0
Li969 Li 0.77022 0.05859 0.12325 0.0
Li970 Li 0.80266 0.13142 0.12322 0.0
Li971 Li 0.76996 0.09067 0.09545 0.0
C972 C 0.75256 0.10589 0.15583 0.0
N973 N 0.72923 0.13117 0.18599 0.0
C974 C 0.73687 0.08047 0.17074 0.0
C975 C 0.75644 0.14413 0.15621 0.0
C976 C 0.7252 0.0938 0.18587 0.0
C977 C 0.74449 0.15638 0.1716 0.0
C978 C 0.70002 0.01698 0.09495 0.0
C979 C 0.68548 0.96331 0.07395 0.0
N980 N 0.64985 0.96111 0.06981 0.0
C981 C 0.66338 0.01437 0.09035 0.0
C982 C 0.71122 0.99131 0.08662 0.0
C983 C 0.63844 0.98593 0.07763 0.0
C984 C 0.65633 0.0958 0.11697 0.0
N985 N 0.67493 0.0795 0.12657 0.0
C986 C 0.61219 0.03065 0.13965 0.0
C987 C 0.65395 0.0481 0.13802 0.0
C988 C 0.59177 0.04514 0.12911 0.0
C989 C 0.61442 0.07891 0.11804 0.0
H990 H 0.67358 0.11999 0.10757 0.0
H991 H 0.66931 0.03487 0.145 0.0
C992 C 0.80219 0.02381 0.14609 0.0
N993 N 0.77192 0.01564 0.13431 0.0
C994 C 0.80404 0.99239 0.15461 0.0
C995 C 0.74271 0.94506 0.13912 0.0
C996 C 0.74215 0.97736 0.13088 0.0
C997 C 0.77391 0.95253 0.15114 0.0
H998 H 0.82487 0.05473 0.14883 0.0
H999 H 0.71768 0.97191 0.12197 0.0
C1000 C 0.78654 0.17549 0.09882 0.0
N1001 N 0.83076 0.25316 0.08574 0.0
C1002 C 0.81328 0.18395 0.0845 0.0
C1003 C 0.78221 0.20642 0.10647 0.0
C1004 C 0.83533 0.22344 0.07806 0.0
C1005 C 0.80491 0.24554 0.09969 0.0
C1006 C 0.84393 0.08308 0.11057 0.0
C1007 C 0.87974 0.10523 0.12027 0.0
C1008 C 0.83499 0.04613 0.10296 0.0
C1009 C 0.9056 0.08969 0.12247 0.0
C1010 C 0.86158 0.03157 0.10548 0.0
N1011 N 0.89603 0.05345 0.11512 0.0
C1012 C 0.85686 0.16689 0.15153 0.0
C1013 C 0.87712 0.21009 0.12619 0.0
C1014 C 0.89306 0.19237 0.16035 0.0
N1015 N 0.84951 0.17576 0.13469 0.0
C1016 C 0.91393 0.2366 0.13459 0.0
C1017 C 0.92251 0.22765 0.15187 0.0
H1018 H 0.83563 0.13863 0.15776 0.0
H1019 H 0.87158 0.2161 0.1126 0.0
C1020 C 0.73567 0.07927 0.06082 0.0
N1021 N 0.7677 0.08203 0.06998 0.0
C1022 C 0.72588 0.06152 0.04375 0.0
C1023 C 0.78406 0.05276 0.04527 0.0
C1024 C 0.79269 0.07061 0.06233 0.0
C1025 C 0.74933 0.04653 0.0361 0.0
H1026 H 0.71606 0.08821 0.06731 0.0
H1027 H 0.81789 0.07304 0.06989 0.0
O1028 O 0.76361 0.09307 0.14084 0.0
O1029 O 0.72442 0.04403 0.10774 0.0
O1030 O 0.76467 0.13713 0.10536 0.0
O1031 O 0.81799 0.09764 0.10845 0.0
H1032 H 0.73362 0.05071 0.17058 0.0
H1033 H 0.76851 0.16408 0.14473 0.0
H1034 H 0.71292 0.07444 0.19752 0.0
H1035 H 0.74731 0.18591 0.17211 0.0
H1036 H 0.69381 0.94328 0.06742 0.0
H1037 H 0.65414 0.03397 0.09649 0.0
H1038 H 0.73937 0.9928 0.08995 0.0
H1039 H 0.60997 0.98356 0.07399 0.0
H1040 H 0.59576 0.00452 0.14823 0.0
H1041 H 0.59969 0.0911 0.10981 0.0
H1042 H 0.8287 0.99913 0.16372 0.0
H1043 H 0.71867 0.91463 0.13639 0.0
H1044 H 0.81728 0.16043 0.07853 0.0
H1045 H 0.76153 0.20027 0.11754 0.0
H1046 H 0.85622 0.23049 0.06701 0.0
H1047 H 0.80195 0.26982 0.10551 0.0
H1048 H 0.88765 0.13417 0.12601 0.0
H1049 H 0.80758 0.02861 0.09538 0.0
H1050 H 0.9333 0.10646 0.13002 0.0
H1051 H 0.85479 0.00285 0.09979 0.0
H1052 H 0.89875 0.18325 0.17332 0.0
H1053 H 0.93592 0.26324 0.12745 0.0
H1054 H 0.69929 0.05801 0.03695 0.0
H1055 H 0.80298 0.04174 0.03981 0.0
C1056 C 0.99829 0.26354 0.15023 0.0
C1057 C 0.96317 0.25244 0.16034 0.0
C1058 C 0.03656 0.28208 0.15836 0.0
C1059 C 0.04152 0.29047 0.17698 0.0
H1060 H 0.9961 0.25633 0.13602 0.0
H1061 H 0.06247 0.2891 0.15003 0.0
S1062 S 0.95953 0.27035 0.20927 0.0
N1063 N 0.93621 0.25403 0.18977 0.0
N1064 N 0.0078 0.28768 0.20513 0.0
C1065 C 0.00682 0.28103 0.18712 0.0
C1066 C 0.96782 0.26225 0.17881 0.0
C1067 C 0.72561 0.02494 0.50246 0.0
C1068 C 0.76589 0.04255 0.50832 0.0
C1069 C 0.70602 0.98654 0.49426 0.0
C1070 C 0.72584 0.96419 0.492 0.0
H1071 H 0.70943 0.04125 0.50392 0.0
H1072 H 0.67511 0.97408 0.48982 0.0
S1073 S 0.83124 0.99683 0.50527 0.0
N1074 N 0.82467 0.03459 0.51141 0.0
N1075 N 0.7881 0.96284 0.4962 0.0
C1076 C 0.76598 0.98147 0.49797 0.0
C1077 C 0.78592 0.0205 0.50608 0.0
C1078 C 0.73927 0.73976 0.85395 0.0
C1079 C 0.71733 0.75345 0.84385 0.0
C1080 C 0.75914 0.72161 0.84558 0.0
C1081 C 0.75783 0.71616 0.82676 0.0
H1082 H 0.74255 0.74459 0.86837 0.0
H1083 H 0.77643 0.71252 0.85392 0.0
S1084 S 0.70194 0.74395 0.79433 0.0
N1085 N 0.69306 0.75758 0.81412 0.0
N1086 N 0.73122 0.72463 0.79838 0.0
C1087 C 0.73466 0.72826 0.81659 0.0
C1088 C 0.71435 0.74667 0.82512 0.0
C1089 C 0.97994 0.69919 0.1671 0.0
C1090 C 0.96747 0.72271 0.17677 0.0
C1091 C 0.01808 0.717 0.15869 0.0
C1092 C 0.04528 0.75875 0.16 0.0
H1093 H 0.95972 0.66705 0.16567 0.0
H1094 H 0.02639 0.69803 0.15116 0.0
S1095 S 0.02721 0.83328 0.18396 0.0
N1096 N 0.98554 0.78974 0.18725 0.0
N1097 N 0.05685 0.82294 0.17169 0.0
C1098 C 0.03325 0.78233 0.16984 0.0
C1099 C 0.99448 0.76439 0.17816 0.0
C1100 C 0.2762 0.00755 0.48339 0.0
C1101 C 0.29302 0.0432 0.49368 0.0
C1102 C 0.25703 0.96933 0.49159 0.0
C1103 C 0.25372 0.96492 0.51048 0.0
H1104 H 0.27635 0.00906 0.46882 0.0
H1105 H 0.24391 0.94293 0.483 0.0
S1106 S 0.29561 0.04886 0.54364 0.0
N1107 N 0.3081 0.07157 0.52388 0.0
N1108 N 0.27053 1.00008 0.53924 0.0
C1109 C 0.27179 1.00038 0.52095 0.0
C1110 C 0.29167 0.03931 0.51259 0.0
C1111 C 0.24636 0.21755 0.83299 0.0
C1112 C 0.28331 0.24082 0.84201 0.0
C1113 C 0.2264 0.23543 0.82458 0.0
C1114 C 0.24242 0.27751 0.82473 0.0
H1115 H 0.23225 0.18499 0.83267 0.0
H1116 H 0.19799 0.21598 0.8179 0.0
S1117 S 0.33882 0.35234 0.84609 0.0
N1118 N 0.33568 0.30846 0.85021 0.0
N1119 N 0.29788 0.34211 0.83456 0.0
C1120 C 0.27963 0.30131 0.83348 0.0
C1121 C 0.29999 0.28299 0.84214 0.0
C1122 C 0.52188 0.4854 0.22131 0.0
C1123 C 0.54653 0.51981 0.21093 0.0
C1124 C 0.47982 0.46848 0.22159 0.0
C1125 C 0.46066 0.48538 0.21157 0.0
H1126 H 0.53522 0.47142 0.2293 0.0
H1127 H 0.46212 0.44176 0.22968 0.0
S1128 S 0.51161 0.57691 0.18303 0.0
N1129 N 0.54874 0.57112 0.19089 0.0
N1130 N 0.46973 0.53918 0.19138 0.0
C1131 C 0.4849 0.51975 0.20111 0.0
C1132 C 0.52778 0.537 0.20082 0.0
C1133 C 0.00986 0.5267 0.52317 0.0
C1134 C 0.03046 0.54912 0.53855 0.0
C1135 C 0.98939 0.48432 0.52324 0.0
C1136 C 0.98827 0.4627 0.53877 0.0
H1137 H 0.00944 0.54205 0.51099 0.0
H1138 H 0.97372 0.46836 0.51115 0.0
S1139 S 0.03794 0.507 0.58245 0.0
N1140 N 0.04848 0.54637 0.56969 0.0
N1141 N 0.0109 0.46701 0.56971 0.0
C1142 C 0.00919 0.48477 0.55415 0.0
C1143 C 0.03009 0.52785 0.55406 0.0
C1144 C 0.47393 0.99404 0.86896 0.0
C1145 C 0.48795 0.02787 0.88035 0.0
C1146 C 0.49149 0.96941 0.8692 0.0
C1147 C 0.5237 0.97762 0.88086 0.0
H1148 H 0.44847 0.98591 0.86013 0.0
H1149 H 0.47922 0.94328 0.86046 0.0
S1150 S 0.57464 0.06533 0.91176 0.0
N1151 N 0.53791 0.06999 0.90257 0.0
N1152 N 0.57116 0.02415 0.90292 0.0
C1153 C 0.53882 0.01214 0.89188 0.0
C1154 C 0.52089 0.03709 0.89166 0.0
C1155 C 0.5344 0.52536 0.46566 0.0
C1156 C 0.51934 0.54499 0.45478 0.0
C1157 C 0.51708 0.4832 0.46532 0.0
C1158 C 0.48405 0.45907 0.45407 0.0
H1159 H 0.56045 0.54283 0.47417 0.0
H1160 H 0.53014 0.46948 0.47367 0.0
S1161 S 0.43052 0.49547 0.42457 0.0
N1162 N 0.46779 0.53694 0.43344 0.0
N1163 N 0.43485 0.45789 0.43295 0.0
C1164 C 0.46796 0.47833 0.44356 0.0
C1165 C 0.4857 0.52118 0.44386 0.0
C1166 C 0.0171 0.5376 0.78569 0.0
C1167 C 0.98366 0.52571 0.79706 0.0
C1168 C 0.03992 0.51819 0.78625 0.0
C1169 C 0.0301 0.48591 0.79813 0.0
H1170 H 0.02575 0.56219 0.77627 0.0
H1171 H 0.06533 0.5284 0.77717 0.0
S1172 S 0.94431 0.44242 0.83029 0.0
N1173 N 0.94158 0.47968 0.82047 0.0
N1174 N 0.98372 0.44239 0.82128 0.0
C1175 C 0.99682 0.47395 0.80969 0.0
C1176 C 0.9738 0.49402 0.80921 0.0
C1177 C 0.48263 0.99285 0.14497 0.0
C1178 C 0.46067 0.97852 0.12884 0.0
C1179 C 0.52499 0.01441 0.14498 0.0
C1180 C 0.54694 0.02315 0.1288 0.0
H1181 H 0.4669 0.98728 0.1577 0.0
H1182 H 0.5407 0.02471 0.15771 0.0
S1183 S 0.50386 0.99248 0.08293 0.0
N1184 N 0.46409 0.97468 0.09627 0.0
N1185 N 0.54359 0.01509 0.09628 0.0
C1186 C 0.52535 0.00896 0.11259 0.0
C1187 C 0.48228 0.98664 0.11261 0.0
C1188 C 0.22124 0.10834 0.15169 0.0
C1189 C 0.23574 0.08622 0.16092 0.0
C1190 C 0.22232 0.14189 0.15972 0.0
C1191 C 0.23839 0.15443 0.17709 0.0
H1192 H 0.20923 0.09972 0.13818 0.0
H1193 H 0.21128 0.15859 0.15215 0.0
S1194 S 0.27963 0.10565 0.20669 0.0
N1195 N 0.26615 0.07827 0.18811 0.0
N1196 N 0.26821 0.14144 0.20338 0.0
C1197 C 0.25272 0.13219 0.18645 0.0
C1198 C 0.25135 0.09795 0.1783 0.0
C1199 C 0.12645 0.27479 0.50364 0.0
C1200 C 0.09394 0.23817 0.50967 0.0
C1201 C 0.1594 0.2758 0.49505 0.0
C1202 C 0.16068 0.24019 0.49217 0.0
H1203 H 0.12652 0.30283 0.50573 0.0
H1204 H 0.18419 0.30465 0.49077 0.0
S1205 S 0.08138 0.13639 0.50419 0.0
N1206 N 0.06391 0.16543 0.51154 0.0
N1207 N 0.12574 0.16715 0.4951 0.0
C1208 C 0.12805 0.20332 0.49792 0.0
C1209 C 0.09465 0.20236 0.50676 0.0
C1210 C 0.91182 0.14558 0.84645 0.0
C1211 C 0.91364 0.14953 0.82764 0.0
C1212 C 0.87928 0.11268 0.85474 0.0
C1213 C 0.84731 0.08293 0.8445 0.0
H1214 H 0.93591 0.16788 0.85477 0.0
H1215 H 0.87929 0.11044 0.86929 0.0
S1216 S 0.83717 0.08122 0.79476 0.0
N1217 N 0.88086 0.12209 0.79896 0.0
N1218 N 0.81884 0.06053 0.81456 0.0
C1219 C 0.84873 0.08681 0.82564 0.0
C1220 C 0.88212 0.12011 0.81721 0.0
C1221 C 0.77017 0.88586 0.14986 0.0
C1222 C 0.77438 0.91855 0.16015 0.0
C1223 C 0.76874 0.85241 0.15813 0.0
C1224 C 0.77114 0.85053 0.17694 0.0
H1225 H 0.76784 0.88612 0.13533 0.0
H1226 H 0.7649 0.8275 0.1498 0.0
S1227 S 0.78338 0.92867 0.20983 0.0
N1228 N 0.78137 0.94728 0.19005 0.0
N1229 N 0.77936 0.88447 0.20561 0.0
C1230 C 0.77599 0.88325 0.18737 0.0
C1231 C 0.77753 0.91733 0.17895 0.0
C1232 C 0.88488 0.78038 0.48632 0.0
C1233 C 0.84981 0.77179 0.49588 0.0
C1234 C 0.91795 0.78206 0.49508 0.0
C1235 C 0.91707 0.7752 0.51371 0.0
H1236 H 0.88674 0.78576 0.47193 0.0
H1237 H 0.94407 0.78793 0.48714 0.0
S1238 S 0.83284 0.75275 0.54494 0.0
N1239 N 0.81613 0.7566 0.52496 0.0
N1240 N 0.87902 0.7611 0.54159 0.0
C1241 C 0.88249 0.76733 0.5235 0.0
C1242 C 0.8487 0.76541 0.51455 0.0
C1243 C 0.15395 0.91731 0.82423 0.0
C1244 C 0.1523 0.92307 0.84282 0.0
C1245 C 0.12144 0.88566 0.81529 0.0
C1246 C 0.08619 0.8587 0.82464 0.0
H1247 H 0.18094 0.93679 0.81661 0.0
H1248 H 0.12405 0.88205 0.80096 0.0
S1249 S 0.0663 0.86203 0.87333 0.0
N1250 N 0.112 0.90081 0.87015 0.0
N1251 N 0.05131 0.84014 0.85347 0.0
C1252 C 0.08385 0.86463 0.84318 0.0
C1253 C 0.11687 0.89706 0.85225 0.0
C1254 C 0.2724 0.23779 0.33559 0.0
C1255 C 0.28941 0.26457 0.35016 0.0
C1256 C 0.26028 0.24926 0.31988 0.0
C1257 C 0.26462 0.28787 0.3182 0.0
H1258 H 0.26908 0.20802 0.33621 0.0
H1259 H 0.24829 0.22806 0.3088 0.0
S1260 S 0.30305 0.36741 0.35329 0.0
N1261 N 0.30688 0.33019 0.36247 0.0
N1262 N 0.28436 0.35172 0.33294 0.0
C1263 C 0.28054 0.31448 0.33286 0.0
C1264 C 0.29284 0.30284 0.34883 0.0
C1265 C 0.99203 0.25052 0.65931 0.0
C1266 C 0.97839 0.27499 0.65138 0.0
C1267 C 0.01249 0.26074 0.67589 0.0
C1268 C 0.02048 0.29602 0.6852 0.0
H1269 H 0.98735 0.22344 0.65256 0.0
H1270 H 0.02157 0.24045 0.68158 0.0
S1271 S 0.99179 0.37087 0.6702 0.0
N1272 N 0.97346 0.33566 0.65451 0.0
N1273 N 0.01457 0.35641 0.68477 0.0
C1274 C 0.00757 0.32109 0.67727 0.0
C1275 C 0.98594 0.31022 0.66063 0.0
C1276 C 0.76385 0.02995 0.00525 0.0
C1277 C 0.73627 0.02204 0.01931 0.0
C1278 C 0.75235 0.00626 0.98958 0.0
C1279 C 0.71292 0.97343 0.98744 0.0
H1280 H 0.79445 0.05496 0.00629 0.0
H1281 H 0.77438 0.01419 0.97894 0.0
S1282 S 0.63038 0.93788 0.02103 0.0
N1283 N 0.66838 0.97791 0.03043 0.0
N1284 N 0.64707 0.93286 1.00126 0.0
C1285 C 0.68532 0.96474 0.00157 0.0
C1286 C 0.69691 0.98913 0.01741 0.0
C1287 C 0.73217 0.69409 0.33285 0.0
C1288 C 0.7472 0.72042 0.31804 0.0
C1289 C 0.72028 0.70521 0.3487 0.0
C1290 C 0.72282 0.74306 0.35036 0.0
H1291 H 0.72964 0.66465 0.3322 0.0
H1292 H 0.70927 0.68407 0.35982 0.0
S1293 S 0.75758 0.82196 0.31507 0.0
N1294 N 0.76234 0.78539 0.30576 0.0
N1295 N 0.74016 0.80629 0.33559 0.0
C1296 C 0.7377 0.76964 0.33565 0.0
C1297 C 0.74981 0.75832 0.31949 0.0
C1298 C 0.99877 0.70057 0.65444 0.0
C1299 C 0.03097 0.74032 0.65238 0.0
C1300 C 0.97498 0.68851 0.67008 0.0
C1301 C 0.98241 0.71574 0.68426 0.0
H1302 H 0.99143 0.67878 0.64373 0.0
H1303 H 0.95029 0.65773 0.67099 0.0
S1304 S 0.06546 0.82219 0.68622 0.0
N1305 N 0.07043 0.8062 0.66626 0.0
N1306 N 0.0261 0.78355 0.6957 0.0
C1307 C 0.01502 0.75537 0.6825 0.0
C1308 C 0.03916 0.76764 0.66657 0.0
C1309 C 0.23937 0.97287 0.00522 0.0
C1310 C 0.26742 0.98143 0.01916 0.0
C1311 C 0.25048 0.99558 0.98925 0.0
C1312 C 0.28997 0.02797 0.98667 0.0
H1313 H 0.20877 0.94803 0.00656 0.0
H1314 H 0.22814 0.98713 0.9787 0.0
S1315 S 0.3735 0.06536 0.01985 0.0
N1316 N 0.33568 0.02607 0.02975 0.0
N1317 N 0.35627 0.06917 1.0 0.0
C1318 C 0.31795 0.03748 1.00071 0.0
C1319 C 0.30676 0.01414 0.01687 0.0
loop_
_geom_bond_atom_site_label_1
_geom_bond_atom_site_label_2
_geom_bond_distance
_geom_bond_site_symmetry_2
_ccdc_geom_bond_type
Li0 N17 1.990 . S
Li0 O60 1.956 . S
Li0 O61 1.970 . S
Li0 O62 1.961 . S
Li1 N25 1.990 . S
Li1 O60 1.970 . S
Li1 O61 1.956 . S
Li1 O63 1.961 . S
Li2 N47 1.990 . S
Li2 O60 1.961 . S
Li2 O62 1.956 . S
Li2 O63 1.970 . S
Li3 N53 1.990 . S
Li3 O61 1.961 . S
Li3 O62 1.970 . S
Li3 O63 1.956 . S
C4 C6 1.348 . S
C4 C7 1.356 . S
C4 O60 1.325 . S
N5 C8 1.314 . S
N5 C9 1.279 . S
C6 C4 1.348 . S
C6 C8 1.353 . S
C6 H64 0.929 . S
C7 C4 1.356 . S
C7 C9 1.358 . S
C7 H65 0.930 . S
C8 N5 1.314 . S
C8 C6 1.353 . S
C8 H66 0.930 . S
C9 N5 1.279 . S
C9 C7 1.358 . S
C9 H67 0.930 . S
C10 C13 1.348 . S
C10 C14 1.356 . S
C10 O61 1.325 . S
C11 N12 1.279 . S
C11 C14 1.358 . S
C11 H68 0.930 . S
N12 C11 1.279 . S
N12 C15 1.314 . S
C13 C10 1.348 . S
C13 C15 1.353 . S
C13 H69 0.929 . S
C14 C10 1.356 . S
C14 C11 1.358 . S
C14 H70 0.930 . S
C15 N12 1.314 . S
C15 C13 1.353 . S
C15 H71 0.930 . S
C16 N17 1.314 . S
C16 C21 1.353 . S
C16 H22 0.930 . S
N17 Li0 1.990 . S
N17 C16 1.314 . S
N17 C19 1.279 . S
C18 C19 1.358 . S
C18 C20 1.356 . S
C18 H72 0.930 . S
C19 N17 1.279 . S
C19 C18 1.358 . S
C19 H23 0.930 . S
C20 C18 1.356 . S
C20 C21 1.348 . S
C21 C16 1.353 . S
C21 C20 1.348 . S
C21 H73 0.929 . S
H22 C16 0.930 . S
H23 C19 0.930 . S
C24 N25 1.314 . S
C24 C26 1.353 . S
C24 H30 0.930 . S
N25 Li1 1.990 . S
N25 C24 1.314 . S
N25 C28 1.279 . S
C26 C24 1.353 . S
C26 C29 1.348 . S
C26 H74 0.929 . S
C27 C28 1.358 . S
C27 C29 1.356 . S
C27 H75 0.930 . S
C28 N25 1.279 . S
C28 C27 1.358 . S
C28 H31 0.930 . S
C29 C26 1.348 . S
C29 C27 1.356 . S
H30 C24 0.930 . S
H31 C28 0.930 . S
C32 C34 1.348 . S
C32 C35 1.356 . S
C32 O62 1.325 . S
N33 C36 1.314 . S
N33 C37 1.279 . S
C34 C32 1.348 . S
C34 C36 1.353 . S
C34 H76 0.929 . S
C35 C32 1.356 . S
C35 C37 1.358 . S
C35 H77 0.930 . S
C36 N33 1.314 . S
C36 C34 1.353 . S
C36 H78 0.930 . S
C37 N33 1.279 . S
C37 C35 1.358 . S
C37 H79 0.930 . S
C38 C39 1.348 . S
C38 C40 1.356 . S
C38 O63 1.325 . S
C39 C38 1.348 . S
C39 C41 1.353 . S
C39 H80 0.929 . S
C40 C38 1.356 . S
C40 C42 1.358 . S
C40 H81 0.930 . S
C41 C39 1.353 . S
C41 N43 1.314 . S
C41 H82 0.930 . S
C42 C40 1.358 . S
C42 N43 1.279 . S
C42 H83 0.930 . S
N43 C41 1.314 . S
N43 C42 1.279 . S
C44 C46 1.353 . S
C44 N47 1.314 . S
C44 H50 0.930 . S
C45 N47 1.279 . S
C45 C48 1.358 . S
C45 H51 0.930 . S
C46 C44 1.353 . S
C46 C49 1.348 . S
C46 H84 0.929 . S
N47 Li2 1.990 . S
N47 C44 1.314 . S
N47 C45 1.279 . S
C48 C45 1.358 . S
C48 C49 1.356 . S
C48 H85 0.930 . S
C49 C46 1.348 . S
C49 C48 1.356 . S
H50 C44 0.930 . S
H51 C45 0.930 . S
C52 N53 1.314 . S
C52 C54 1.353 . S
C52 H58 0.930 . S
N53 Li3 1.990 . S
N53 C52 1.314 . S
N53 C56 1.279 . S
C54 C52 1.353 . S
C54 C57 1.348 . S
C54 H86 0.929 . S
C55 C56 1.358 . S
C55 C57 1.356 . S
C55 H87 0.930 . S
C56 N53 1.279 . S
C56 C55 1.358 . S
C56 H59 0.930 . S
C57 C54 1.348 . S
C57 C55 1.356 . S
H58 C52 0.930 . S
H59 C56 0.930 . S
O60 Li0 1.956 . S
O60 Li1 1.970 . S
O60 Li2 1.961 . S
O60 C4 1.325 . S
O61 Li0 1.970 . S
O61 Li1 1.956 . S
O61 Li3 1.961 . S
O61 C10 1.325 . S
O62 Li0 1.961 . S
O62 Li2 1.956 . S
O62 Li3 1.970 . S
O62 C32 1.325 . S
O63 Li1 1.961 . S
O63 Li2 1.970 . S
O63 Li3 1.956 . S
O63 C38 1.325 . S
H64 C6 0.929 . S
H65 C7 0.930 . S
H66 C8 0.930 . S
H67 C9 0.930 . S
H68 C11 0.930 . S
H69 C13 0.929 . S
H70 C14 0.930 . S
H71 C15 0.930 . S
H72 C18 0.930 . S
H73 C21 0.929 . S
H74 C26 0.929 . S
H75 C27 0.930 . S
H76 C34 0.929 . S
H77 C35 0.930 . S
H78 C36 0.930 . S
H79 C37 0.930 . S
H80 C39 0.929 . S
H81 C40 0.930 . S
H82 C41 0.930 . S
H83 C42 0.930 . S
H84 C46 0.929 . S
H85 C48 0.930 . S
H86 C54 0.929 . S
H87 C55 0.930 . S
Li88 N105 1.990 . S
Li88 O148 1.956 . S
Li88 O149 1.970 . S
Li88 O150 1.961 . S
Li89 N113 1.990 . S
Li89 O148 1.970 . S
Li89 O149 1.956 . S
Li89 O151 1.961 . S
Li90 N135 1.990 . S
Li90 O148 1.961 . S
Li90 O150 1.956 . S
Li90 O151 1.970 . S
Li91 N141 1.990 1_655 S
Li91 O149 1.961 . S
Li91 O150 1.970 . S
Li91 O151 1.956 . S
C92 C94 1.348 . S
C92 C95 1.356 . S
C92 O148 1.325 . S
N93 C96 1.314 . S
N93 C97 1.279 . S
C94 C92 1.348 . S
C94 C96 1.353 . S
C94 H152 0.929 . S
C95 C92 1.356 . S
C95 C97 1.358 . S
C95 H153 0.930 . S
C96 N93 1.314 . S
C96 C94 1.353 . S
C96 H154 0.930 . S
C97 N93 1.279 . S
C97 C95 1.358 . S
C97 H155 0.930 . S
C98 C101 1.348 . S
C98 C102 1.356 . S
C98 O149 1.325 . S
C99 N100 1.279 . S
C99 C102 1.358 . S
C99 H156 0.930 1_655 S
N100 C99 1.279 . S
N100 C103 1.314 . S
C101 C98 1.348 . S
C101 C103 1.353 . S
C101 H157 0.929 . S
C102 C98 1.356 . S
C102 C99 1.358 . S
C102 H158 0.930 1_655 S
C103 N100 1.314 . S
C103 C101 1.353 . S
C103 H159 0.930 . S
C104 N105 1.314 . S
C104 C109 1.353 . S
C104 H110 0.930 . S
N105 Li88 1.990 . S
N105 C104 1.314 . S
N105 C107 1.279 . S
C106 C107 1.358 . S
C106 C108 1.356 . S
C106 H160 0.930 . S
C107 N105 1.279 . S
C107 C106 1.358 . S
C107 H111 0.930 . S
C108 C106 1.356 . S
C108 C109 1.348 . S
C109 C104 1.353 . S
C109 C108 1.348 . S
C109 H161 0.929 . S
H110 C104 0.930 . S
H111 C107 0.930 . S
C112 N113 1.314 . S
C112 C114 1.353 . S
C112 H118 0.930 . S
N113 Li89 1.990 . S
N113 C112 1.314 . S
N113 C116 1.279 . S
C114 C112 1.353 . S
C114 C117 1.348 . S
C114 H162 0.929 . S
C115 C116 1.358 . S
C115 C117 1.356 . S
C115 H163 0.930 . S
C116 N113 1.279 . S
C116 C115 1.358 . S
C116 H119 0.930 . S
C117 C114 1.348 . S
C117 C115 1.356 . S
H118 C112 0.930 . S
H119 C116 0.930 . S
C120 C122 1.348 . S
C120 C123 1.356 . S
C120 O150 1.325 . S
N121 C124 1.314 . S
N121 C125 1.279 . S
C122 C120 1.348 . S
C122 C124 1.353 . S
C122 H164 0.929 . S
C123 C120 1.356 . S
C123 C125 1.358 . S
C123 H165 0.930 . S
C124 N121 1.314 . S
C124 C122 1.353 . S
C124 H166 0.930 . S
C125 N121 1.279 . S
C125 C123 1.358 . S
C125 H167 0.930 . S
C126 C127 1.348 . S
C126 C128 1.356 . S
C126 O151 1.325 1_455 S
C127 C126 1.348 . S
C127 C129 1.353 . S
C127 H168 0.929 . S
C128 C126 1.356 . S
C128 C130 1.358 . S
C128 H169 0.930 . S
C129 C127 1.353 . S
C129 N131 1.314 . S
C129 H170 0.930 . S
C130 C128 1.358 . S
C130 N131 1.279 . S
C130 H171 0.930 . S
N131 C129 1.314 . S
N131 C130 1.279 . S
C132 C134 1.353 . S
C132 N135 1.314 . S
C132 H138 0.930 . S
C133 N135 1.279 . S
C133 C136 1.358 . S
C133 H139 0.930 . S
C134 C132 1.353 . S
C134 C137 1.348 . S
C134 H172 0.929 . S
N135 Li90 1.990 . S
N135 C132 1.314 . S
N135 C133 1.279 . S
C136 C133 1.358 . S
C136 C137 1.356 . S
C136 H173 0.930 . S
C137 C134 1.348 . S
C137 C136 1.356 . S
H138 C132 0.930 . S
H139 C133 0.930 . S
C140 N141 1.314 . S
C140 C142 1.353 . S
C140 H146 0.930 . S
N141 Li91 1.990 1_455 S
N141 C140 1.314 . S
N141 C144 1.279 . S
C142 C140 1.353 . S
C142 C145 1.348 . S
C142 H174 0.929 . S
C143 C144 1.358 . S
C143 C145 1.356 . S
C143 H175 0.930 . S
C144 N141 1.279 . S
C144 C143 1.358 . S
C144 H147 0.930 . S
C145 C142 1.348 . S
C145 C143 1.356 . S
H146 C140 0.930 . S
H147 C144 0.930 . S
O148 Li88 1.956 . S
O148 Li89 1.970 . S
O148 Li90 1.961 . S
O148 C92 1.325 . S
O149 Li88 1.970 . S
O149 Li89 1.956 . S
O149 Li91 1.961 . S
O149 C98 1.325 . S
O150 Li88 1.961 . S
O150 Li90 1.956 . S
O150 Li91 1.970 . S
O150 C120 1.325 . S
O151 Li89 1.961 . S
O151 Li90 1.970 . S
O151 Li91 1.956 . S
O151 C126 1.325 1_655 S
H152 C94 0.929 . S
H153 C95 0.930 . S
H154 C96 0.930 . S
H155 C97 0.930 . S
H156 C99 0.930 1_455 S
H157 C101 0.929 . S
H158 C102 0.930 1_455 S
H159 C103 0.930 . S
H160 C106 0.930 . S
H161 C109 0.929 . S
H162 C114 0.929 . S
H163 C115 0.930 . S
H164 C122 0.929 . S
H165 C123 0.930 . S
H166 C124 0.930 . S
H167 C125 0.930 . S
H168 C127 0.929 . S
H169 C128 0.930 . S
H170 C129 0.930 . S
H171 C130 0.930 . S
H172 C134 0.929 . S
H173 C136 0.930 . S
H174 C142 0.929 . S
H175 C143 0.930 . S
Li176 N193 1.990 . S
Li176 O236 1.956 . S
Li176 O237 1.970 . S
Li176 O238 1.961 . S
Li177 N201 1.990 . S
Li177 O236 1.970 . S
Li177 O237 1.956 . S
Li177 O239 1.961 . S
Li178 N223 1.990 1_565 S
Li178 O236 1.961 . S
Li178 O238 1.956 . S
Li178 O239 1.970 . S
Li179 N229 1.990 . S
Li179 O237 1.961 . S
Li179 O238 1.970 . S
Li179 O239 1.956 . S
C180 C182 1.348 . S
C180 C183 1.356 . S
C180 O236 1.325 . S
N181 C184 1.314 . S
N181 C185 1.279 . S
C182 C180 1.348 . S
C182 C184 1.353 . S
C182 H240 0.929 . S
C183 C180 1.356 . S
C183 C185 1.358 . S
C183 H241 0.930 1_565 S
C184 N181 1.314 . S
C184 C182 1.353 . S
C184 H242 0.930 . S
C185 N181 1.279 . S
C185 C183 1.358 . S
C185 H243 0.930 1_565 S
C186 C189 1.348 . S
C186 C190 1.356 . S
C186 O237 1.325 . S
C187 N188 1.279 . S
C187 C190 1.358 . S
C187 H244 0.930 . S
N188 C187 1.279 . S
N188 C191 1.314 . S
C189 C186 1.348 . S
C189 C191 1.353 . S
C189 H245 0.929 . S
C190 C186 1.356 . S
C190 C187 1.358 . S
C190 H246 0.930 . S
C191 N188 1.314 . S
C191 C189 1.353 . S
C191 H247 0.930 . S
C192 N193 1.314 . S
C192 C197 1.353 . S
C192 H198 0.930 . S
N193 Li176 1.990 . S
N193 C192 1.314 . S
N193 C195 1.279 . S
C194 C195 1.358 . S
C194 C196 1.356 . S
C194 H248 0.930 . S
C195 N193 1.279 . S
C195 C194 1.358 . S
C195 H199 0.930 . S
C196 C194 1.356 . S
C196 C197 1.348 . S
C197 C192 1.353 . S
C197 C196 1.348 . S
C197 H249 0.929 . S
H198 C192 0.930 . S
H199 C195 0.930 . S
C200 N201 1.314 . S
C200 C202 1.353 . S
C200 H206 0.930 . S
N201 Li177 1.990 . S
N201 C200 1.314 . S
N201 C204 1.279 . S
C202 C200 1.353 . S
C202 C205 1.348 . S
C202 H250 0.929 . S
C203 C204 1.358 . S
C203 C205 1.356 . S
C203 H251 0.930 . S
C204 N201 1.279 . S
C204 C203 1.358 . S
C204 H207 0.930 . S
C205 C202 1.348 . S
C205 C203 1.356 . S
H206 C200 0.930 . S
H207 C204 0.930 . S
C208 C210 1.348 . S
C208 C211 1.356 . S
C208 O238 1.325 1_545 S
N209 C212 1.314 . S
N209 C213 1.279 . S
C210 C208 1.348 . S
C210 C212 1.353 . S
C210 H252 0.929 . S
C211 C208 1.356 . S
C211 C213 1.358 . S
C211 H253 0.930 . S
C212 N209 1.314 . S
C212 C210 1.353 . S
C212 H254 0.930 . S
C213 N209 1.279 . S
C213 C211 1.358 . S
C213 H255 0.930 . S
C214 C215 1.348 . S
C214 C216 1.356 . S
C214 O239 1.325 . S
C215 C214 1.348 . S
C215 C217 1.353 . S
C215 H256 0.929 . S
C216 C214 1.356 . S
C216 C218 1.358 . S
C216 H257 0.930 . S
C217 C215 1.353 . S
C217 N219 1.314 . S
C217 H258 0.930 . S
C218 C216 1.358 . S
C218 N219 1.279 . S
C218 H259 0.930 . S
N219 C217 1.314 . S
N219 C218 1.279 . S
C220 C222 1.353 . S
C220 N223 1.314 . S
C220 H226 0.930 . S
C221 N223 1.279 . S
C221 C224 1.358 . S
C221 H227 0.930 . S
C222 C220 1.353 . S
C222 C225 1.348 . S
C222 H260 0.929 . S
N223 Li178 1.990 1_545 S
N223 C220 1.314 . S
N223 C221 1.279 . S
C224 C221 1.358 . S
C224 C225 1.356 . S
C224 H261 0.930 . S
C225 C222 1.348 . S
C225 C224 1.356 . S
H226 C220 0.930 . S
H227 C221 0.930 . S
C228 N229 1.314 . S
C228 C230 1.353 . S
C228 H234 0.930 . S
N229 Li179 1.990 . S
N229 C228 1.314 . S
N229 C232 1.279 . S
C230 C228 1.353 . S
C230 C233 1.348 . S
C230 H262 0.929 . S
C231 C232 1.358 . S
C231 C233 1.356 . S
C231 H263 0.930 . S
C232 N229 1.279 . S
C232 C231 1.358 . S
C232 H235 0.930 . S
C233 C230 1.348 . S
C233 C231 1.356 . S
H234 C228 0.930 . S
H235 C232 0.930 . S
O236 Li176 1.956 . S
O236 Li177 1.970 . S
O236 Li178 1.961 . S
O236 C180 1.325 . S
O237 Li176 1.970 . S
O237 Li177 1.956 . S
O237 Li179 1.961 . S
O237 C186 1.325 . S
O238 Li176 1.961 . S
O238 Li178 1.956 . S
O238 Li179 1.970 . S
O238 C208 1.325 1_565 S
O239 Li177 1.961 . S
O239 Li178 1.970 . S
O239 Li179 1.956 . S
O239 C214 1.325 . S
H240 C182 0.929 . S
H241 C183 0.930 1_545 S
H242 C184 0.930 . S
H243 C185 0.930 1_545 S
H244 C187 0.930 . S
H245 C189 0.929 . S
H246 C190 0.930 . S
H247 C191 0.930 . S
H248 C194 0.930 . S
H249 C197 0.929 . S
H250 C202 0.929 . S
H251 C203 0.930 . S
H252 C210 0.929 . S
H253 C211 0.930 . S
H254 C212 0.930 . S
H255 C213 0.930 . S
H256 C215 0.929 . S
H257 C216 0.930 . S
H258 C217 0.930 . S
H259 C218 0.930 . S
H260 C222 0.929 . S
H261 C224 0.930 . S
H262 C230 0.929 . S
H263 C231 0.930 . S
Li264 N281 1.990 . S
Li264 O324 1.956 . S
Li264 O325 1.970 . S
Li264 O326 1.961 . S
Li265 N289 1.990 . S
Li265 O324 1.970 . S
Li265 O325 1.956 . S
Li265 O327 1.961 . S
Li266 N311 1.990 . S
Li266 O324 1.961 . S
Li266 O326 1.956 . S
Li266 O327 1.970 . S
Li267 N317 1.990 . S
Li267 O325 1.961 . S
Li267 O326 1.970 . S
Li267 O327 1.956 . S
C268 C270 1.348 . S
C268 C271 1.356 . S
C268 O324 1.325 . S
N269 C272 1.314 . S
N269 C273 1.279 . S
C270 C268 1.348 . S
C270 C272 1.353 . S
C270 H328 0.929 . S
C271 C268 1.356 . S
C271 C273 1.358 . S
C271 H329 0.930 . S
C272 N269 1.314 . S
C272 C270 1.353 . S
C272 H330 0.930 . S
C273 N269 1.279 . S
C273 C271 1.358 . S
C273 H331 0.930 . S
C274 C277 1.348 . S
C274 C278 1.356 . S
C274 O325 1.325 . S
C275 N276 1.279 . S
C275 C278 1.358 . S
C275 H332 0.930 . S
N276 C275 1.279 . S
N276 C279 1.314 . S
C277 C274 1.348 . S
C277 C279 1.353 . S
C277 H333 0.929 . S
C278 C274 1.356 . S
C278 C275 1.358 . S
C278 H334 0.930 . S
C279 N276 1.314 . S
C279 C277 1.353 . S
C279 H335 0.930 . S
C280 N281 1.314 . S
C280 C285 1.353 . S
C280 H286 0.930 . S
N281 Li264 1.990 . S
N281 C280 1.314 . S
N281 C283 1.279 . S
C282 C283 1.358 . S
C282 C284 1.356 . S
C282 H336 0.930 . S
C283 N281 1.279 . S
C283 C282 1.358 . S
C283 H287 0.930 . S
C284 C282 1.356 . S
C284 C285 1.348 . S
C285 C280 1.353 . S
C285 C284 1.348 . S
C285 H337 0.929 . S
H286 C280 0.930 . S
H287 C283 0.930 . S
C288 N289 1.314 . S
C288 C290 1.353 . S
C288 H294 0.930 . S
N289 Li265 1.990 . S
N289 C288 1.314 . S
N289 C292 1.279 . S
C290 C288 1.353 . S
C290 C293 1.348 . S
C290 H338 0.929 . S
C291 C292 1.358 . S
C291 C293 1.356 . S
C291 H339 0.930 . S
C292 N289 1.279 . S
C292 C291 1.358 . S
C292 H295 0.930 . S
C293 C290 1.348 . S
C293 C291 1.356 . S
H294 C288 0.930 . S
H295 C292 0.930 . S
C296 C298 1.348 . S
C296 C299 1.356 . S
C296 O326 1.325 . S
N297 C300 1.314 . S
N297 C301 1.279 . S
C298 C296 1.348 . S
C298 C300 1.353 . S
C298 H340 0.929 . S
C299 C296 1.356 . S
C299 C301 1.358 . S
C299 H341 0.930 . S
C300 N297 1.314 . S
C300 C298 1.353 . S
C300 H342 0.930 . S
C301 N297 1.279 . S
C301 C299 1.358 . S
C301 H343 0.930 . S
C302 C303 1.348 . S
C302 C304 1.356 . S
C302 O327 1.325 . S
C303 C302 1.348 . S
C303 C305 1.353 . S
C303 H344 0.929 . S
C304 C302 1.356 . S
C304 C306 1.358 . S
C304 H345 0.930 . S
C305 C303 1.353 . S
C305 N307 1.314 . S
C305 H346 0.930 . S
C306 C304 1.358 . S
C306 N307 1.279 . S
C306 H347 0.930 . S
N307 C305 1.314 . S
N307 C306 1.279 . S
C308 C310 1.353 . S
C308 N311 1.314 . S
C308 H314 0.930 . S
C309 N311 1.279 . S
C309 C312 1.358 . S
C309 H315 0.930 . S
C310 C308 1.353 . S
C310 C313 1.348 . S
C310 H348 0.929 . S
N311 Li266 1.990 . S
N311 C308 1.314 . S
N311 C309 1.279 . S
C312 C309 1.358 . S
C312 C313 1.356 . S
C312 H349 0.930 . S
C313 C310 1.348 . S
C313 C312 1.356 . S
H314 C308 0.930 . S
H315 C309 0.930 . S
C316 N317 1.314 . S
C316 C318 1.353 . S
C316 H322 0.930 . S
N317 Li267 1.990 . S
N317 C316 1.314 . S
N317 C320 1.279 . S
C318 C316 1.353 . S
C318 C321 1.348 . S
C318 H350 0.929 . S
C319 C320 1.358 . S
C319 C321 1.356 . S
C319 H351 0.930 . S
C320 N317 1.279 . S
C320 C319 1.358 . S
C320 H323 0.930 . S
C321 C318 1.348 . S
C321 C319 1.356 . S
H322 C316 0.930 . S
H323 C320 0.930 . S
O324 Li264 1.956 . S
O324 Li265 1.970 . S
O324 Li266 1.961 . S
O324 C268 1.325 . S
O325 Li264 1.970 . S
O325 Li265 1.956 . S
O325 Li267 1.961 . S
O325 C274 1.325 . S
O326 Li264 1.961 . S
O326 Li266 1.956 . S
O326 Li267 1.970 . S
O326 C296 1.325 . S
O327 Li265 1.961 . S
O327 Li266 1.970 . S
O327 Li267 1.956 . S
O327 C302 1.325 . S
H328 C270 0.929 . S
H329 C271 0.930 . S
H330 C272 0.930 . S
H331 C273 0.930 . S
H332 C275 0.930 . S
H333 C277 0.929 . S
H334 C278 0.930 . S
H335 C279 0.930 . S
H336 C282 0.930 . S
H337 C285 0.929 . S
H338 C290 0.929 . S
H339 C291 0.930 . S
H340 C298 0.929 . S
H341 C299 0.930 . S
H342 C300 0.930 . S
H343 C301 0.930 . S
H344 C303 0.929 . S
H345 C304 0.930 . S
H346 C305 0.930 . S
H347 C306 0.930 . S
H348 C310 0.929 . S
H349 C312 0.930 . S
H350 C318 0.929 . S
H351 C319 0.930 . S
Li352 N369 1.990 . S
Li352 O412 1.956 . S
Li352 O413 1.970 . S
Li352 O414 1.961 . S
Li353 N377 1.990 . S
Li353 O412 1.970 . S
Li353 O413 1.956 . S
Li353 O415 1.961 . S
Li354 N399 1.990 . S
Li354 O412 1.961 . S
Li354 O414 1.956 . S
Li354 O415 1.970 . S
Li355 N405 1.990 1_455 S
Li355 O413 1.961 . S
Li355 O414 1.970 . S
Li355 O415 1.956 . S
C356 C358 1.348 . S
C356 C359 1.356 . S
C356 O412 1.325 . S
N357 C360 1.314 . S
N357 C361 1.279 . S
C358 C356 1.348 . S
C358 C360 1.353 . S
C358 H416 0.929 . S
C359 C356 1.356 . S
C359 C361 1.358 . S
C359 H417 0.930 . S
C360 N357 1.314 . S
C360 C358 1.353 . S
C360 H418 0.930 . S
C361 N357 1.279 . S
C361 C359 1.358 . S
C361 H419 0.930 . S
C362 C365 1.348 . S
C362 C366 1.356 . S
C362 O413 1.325 . S
C363 N364 1.279 . S
C363 C366 1.358 . S
C363 H420 0.930 1_455 S
N364 C363 1.279 . S
N364 C367 1.314 . S
C365 C362 1.348 . S
C365 C367 1.353 . S
C365 H421 0.929 . S
C366 C362 1.356 . S
C366 C363 1.358 . S
C366 H422 0.930 1_455 S
C367 N364 1.314 . S
C367 C365 1.353 . S
C367 H423 0.930 . S
C368 N369 1.314 . S
C368 C373 1.353 . S
C368 H374 0.930 . S
N369 Li352 1.990 . S
N369 C368 1.314 . S
N369 C371 1.279 . S
C370 C371 1.358 . S
C370 C372 1.356 . S
C370 H424 0.930 . S
C371 N369 1.279 . S
C371 C370 1.358 . S
C371 H375 0.930 . S
C372 C370 1.356 . S
C372 C373 1.348 . S
C373 C368 1.353 . S
C373 C372 1.348 . S
C373 H425 0.929 . S
H374 C368 0.930 . S
H375 C371 0.930 . S
C376 N377 1.314 . S
C376 C378 1.353 . S
C376 H382 0.930 . S
N377 Li353 1.990 . S
N377 C376 1.314 . S
N377 C380 1.279 . S
C378 C376 1.353 . S
C378 C381 1.348 . S
C378 H426 0.929 . S
C379 C380 1.358 . S
C379 C381 1.356 . S
C379 H427 0.930 . S
C380 N377 1.279 . S
C380 C379 1.358 . S
C380 H383 0.930 . S
C381 C378 1.348 . S
C381 C379 1.356 . S
H382 C376 0.930 . S
H383 C380 0.930 . S
C384 C386 1.348 . S
C384 C387 1.356 . S
C384 O414 1.325 . S
N385 C388 1.314 . S
N385 C389 1.279 . S
C386 C384 1.348 . S
C386 C388 1.353 . S
C386 H428 0.929 . S
C387 C384 1.356 . S
C387 C389 1.358 . S
C387 H429 0.930 . S
C388 N385 1.314 . S
C388 C386 1.353 . S
C388 H430 0.930 . S
C389 N385 1.279 . S
C389 C387 1.358 . S
C389 H431 0.930 . S
C390 C391 1.348 . S
C390 C392 1.356 . S
C390 O415 1.325 1_655 S
C391 C390 1.348 . S
C391 C393 1.353 . S
C391 H432 0.929 . S
C392 C390 1.356 . S
C392 C394 1.358 . S
C392 H433 0.930 . S
C393 C391 1.353 . S
C393 N395 1.314 . S
C393 H434 0.930 . S
C394 C392 1.358 . S
C394 N395 1.279 . S
C394 H435 0.930 . S
N395 C393 1.314 . S
N395 C394 1.279 . S
C396 C398 1.353 . S
C396 N399 1.314 . S
C396 H402 0.930 . S
C397 N399 1.279 . S
C397 C400 1.358 . S
C397 H403 0.930 . S
C398 C396 1.353 . S
C398 C401 1.348 . S
C398 H436 0.929 . S
N399 Li354 1.990 . S
N399 C396 1.314 . S
N399 C397 1.279 . S
C400 C397 1.358 . S
C400 C401 1.356 . S
C400 H437 0.930 . S
C401 C398 1.348 . S
C401 C400 1.356 . S
H402 C396 0.930 . S
H403 C397 0.930 . S
C404 N405 1.314 . S
C404 C406 1.353 . S
C404 H410 0.930 . S
N405 Li355 1.990 1_655 S
N405 C404 1.314 . S
N405 C408 1.279 . S
C406 C404 1.353 . S
C406 C409 1.348 . S
C406 H438 0.929 . S
C407 C408 1.358 . S
C407 C409 1.356 . S
C407 H439 0.930 . S
C408 N405 1.279 . S
C408 C407 1.358 . S
C408 H411 0.930 . S
C409 C406 1.348 . S
C409 C407 1.356 . S
H410 C404 0.930 . S
H411 C408 0.930 . S
O412 Li352 1.956 . S
O412 Li353 1.970 . S
O412 Li354 1.961 . S
O412 C356 1.325 . S
O413 Li352 1.970 . S
O413 Li353 1.956 . S
O413 Li355 1.961 . S
O413 C362 1.325 . S
O414 Li352 1.961 . S
O414 Li354 1.956 . S
O414 Li355 1.970 . S
O414 C384 1.325 . S
O415 Li353 1.961 . S
O415 Li354 1.970 . S
O415 Li355 1.956 . S
O415 C390 1.325 1_455 S
H416 C358 0.929 . S
H417 C359 0.930 . S
H418 C360 0.930 . S
H419 C361 0.930 . S
H420 C363 0.930 1_655 S
H421 C365 0.929 . S
H422 C366 0.930 1_655 S
H423 C367 0.930 . S
H424 C370 0.930 . S
H425 C373 0.929 . S
H426 C378 0.929 . S
H427 C379 0.930 . S
H428 C386 0.929 . S
H429 C387 0.930 . S
H430 C388 0.930 . S
H431 C389 0.930 . S
H432 C391 0.929 . S
H433 C392 0.930 . S
H434 C393 0.930 . S
H435 C394 0.930 . S
H436 C398 0.929 . S
H437 C400 0.930 . S
H438 C406 0.929 . S
H439 C407 0.930 . S
Li440 N457 1.990 . S
Li440 O500 1.956 . S
Li440 O501 1.970 . S
Li440 O502 1.961 . S
Li441 N465 1.990 . S
Li441 O500 1.970 . S
Li441 O501 1.956 . S
Li441 O503 1.961 . S
Li442 N487 1.990 1_545 S
Li442 O500 1.961 . S
Li442 O502 1.956 . S
Li442 O503 1.970 . S
Li443 N493 1.990 . S
Li443 O501 1.961 . S
Li443 O502 1.970 . S
Li443 O503 1.956 . S
C444 C446 1.348 . S
C444 C447 1.356 . S
C444 O500 1.325 . S
N445 C448 1.314 . S
N445 C449 1.279 . S
C446 C444 1.348 . S
C446 C448 1.353 . S
C446 H504 0.929 . S
C447 C444 1.356 . S
C447 C449 1.358 . S
C447 H505 0.930 1_545 S
C448 N445 1.314 . S
C448 C446 1.353 . S
C448 H506 0.930 . S
C449 N445 1.279 . S
C449 C447 1.358 . S
C449 H507 0.930 1_545 S
C450 C453 1.348 . S
C450 C454 1.356 . S
C450 O501 1.325 . S
C451 N452 1.279 . S
C451 C454 1.358 . S
C451 H508 0.930 . S
N452 C451 1.279 . S
N452 C455 1.314 . S
C453 C450 1.348 . S
C453 C455 1.353 . S
C453 H509 0.929 . S
C454 C450 1.356 . S
C454 C451 1.358 . S
C454 H510 0.930 . S
C455 N452 1.314 . S
C455 C453 1.353 . S
C455 H511 0.930 . S
C456 N457 1.314 . S
C456 C461 1.353 . S
C456 H462 0.930 . S
N457 Li440 1.990 . S
N457 C456 1.314 . S
N457 C459 1.279 . S
C458 C459 1.358 . S
C458 C460 1.356 . S
C458 H512 0.930 . S
C459 N457 1.279 . S
C459 C458 1.358 . S
C459 H463 0.930 . S
C460 C458 1.356 . S
C460 C461 1.348 . S
C461 C456 1.353 . S
C461 C460 1.348 . S
C461 H513 0.929 . S
H462 C456 0.930 . S
H463 C459 0.930 . S
C464 N465 1.314 . S
C464 C466 1.353 . S
C464 H470 0.930 . S
N465 Li441 1.990 . S
N465 C464 1.314 . S
N465 C468 1.279 . S
C466 C464 1.353 . S
C466 C469 1.348 . S
C466 H514 0.929 . S
C467 C468 1.358 . S
C467 C469 1.356 . S
C467 H515 0.930 . S
C468 N465 1.279 . S
C468 C467 1.358 . S
C468 H471 0.930 . S
C469 C466 1.348 . S
C469 C467 1.356 . S
H470 C464 0.930 . S
H471 C468 0.930 . S
C472 C474 1.348 . S
C472 C475 1.356 . S
C472 O502 1.325 1_565 S
N473 C476 1.314 . S
N473 C477 1.279 . S
C474 C472 1.348 . S
C474 C476 1.353 . S
C474 H516 0.929 . S
C475 C472 1.356 . S
C475 C477 1.358 . S
C475 H517 0.930 . S
C476 N473 1.314 . S
C476 C474 1.353 . S
C476 H518 0.930 . S
C477 N473 1.279 . S
C477 C475 1.358 . S
C477 H519 0.930 . S
C478 C479 1.348 . S
C478 C480 1.356 . S
C478 O503 1.325 . S
C479 C478 1.348 . S
C479 C481 1.353 . S
C479 H520 0.929 . S
C480 C478 1.356 . S
C480 C482 1.358 . S
C480 H521 0.930 . S
C481 C479 1.353 . S
C481 N483 1.314 . S
C481 H522 0.930 . S
C482 C480 1.358 . S
C482 N483 1.279 . S
C482 H523 0.930 . S
N483 C481 1.314 . S
N483 C482 1.279 . S
C484 C486 1.353 . S
C484 N487 1.314 . S
C484 H490 0.930 . S
C485 N487 1.279 . S
C485 C488 1.358 . S
C485 H491 0.930 . S
C486 C484 1.353 . S
C486 C489 1.348 . S
C486 H524 0.929 . S
N487 Li442 1.990 1_565 S
N487 C484 1.314 . S
N487 C485 1.279 . S
C488 C485 1.358 . S
C488 C489 1.356 . S
C488 H525 0.930 . S
C489 C486 1.348 . S
C489 C488 1.356 . S
H490 C484 0.930 . S
H491 C485 0.930 . S
C492 N493 1.314 . S
C492 C494 1.353 . S
C492 H498 0.930 . S
N493 Li443 1.990 . S
N493 C492 1.314 . S
N493 C496 1.279 . S
C494 C492 1.353 . S
C494 C497 1.348 . S
C494 H526 0.929 . S
C495 C496 1.358 . S
C495 C497 1.356 . S
C495 H527 0.930 . S
C496 N493 1.279 . S
C496 C495 1.358 . S
C496 H499 0.930 . S
C497 C494 1.348 . S
C497 C495 1.356 . S
H498 C492 0.930 . S
H499 C496 0.930 . S
O500 Li440 1.956 . S
O500 Li441 1.970 . S
O500 Li442 1.961 . S
O500 C444 1.325 . S
O501 Li440 1.970 . S
O501 Li441 1.956 . S
O501 Li443 1.961 . S
O501 C450 1.325 . S
O502 Li440 1.961 . S
O502 Li442 1.956 . S
O502 Li443 1.970 . S
O502 C472 1.325 1_545 S
O503 Li441 1.961 . S
O503 Li442 1.970 . S
O503 Li443 1.956 . S
O503 C478 1.325 . S
H504 C446 0.929 . S
H505 C447 0.930 1_565 S
H506 C448 0.930 . S
H507 C449 0.930 1_565 S
H508 C451 0.930 . S
H509 C453 0.929 . S
H510 C454 0.930 . S
H511 C455 0.930 . S
H512 C458 0.930 . S
H513 C461 0.929 . S
H514 C466 0.929 . S
H515 C467 0.930 . S
H516 C474 0.929 . S
H517 C475 0.930 . S
H518 C476 0.930 . S
H519 C477 0.930 . S
H520 C479 0.929 . S
H521 C480 0.930 . S
H522 C481 0.930 . S
H523 C482 0.930 . S
H524 C486 0.929 . S
H525 C488 0.930 . S
H526 C494 0.929 . S
H527 C495 0.930 . S
Li528 N545 1.990 . S
Li528 O588 1.956 . S
Li528 O589 1.970 . S
Li528 O590 1.961 . S
Li529 N553 1.990 . S
Li529 O588 1.970 . S
Li529 O589 1.956 . S
Li529 O591 1.961 . S
Li530 N575 1.990 . S
Li530 O588 1.961 . S
Li530 O590 1.956 . S
Li530 O591 1.970 . S
Li531 N581 1.990 . S
Li531 O589 1.961 . S
Li531 O590 1.970 . S
Li531 O591 1.956 . S
C532 C534 1.348 . S
C532 C535 1.356 . S
C532 O588 1.325 . S
N533 C536 1.314 . S
N533 C537 1.279 . S
C534 C532 1.348 . S
C534 C536 1.353 . S
C534 H592 0.929 . S
C535 C532 1.356 . S
C535 C537 1.358 . S
C535 H593 0.930 . S
C536 N533 1.314 . S
C536 C534 1.353 . S
C536 H594 0.930 . S
C537 N533 1.279 . S
C537 C535 1.358 . S
C537 H595 0.930 . S
C538 C541 1.348 . S
C538 C542 1.356 . S
C538 O589 1.325 . S
C539 N540 1.279 . S
C539 C542 1.358 . S
C539 H596 0.930 . S
N540 C539 1.279 . S
N540 C543 1.314 . S
C541 C538 1.348 . S
C541 C543 1.353 . S
C541 H597 0.929 . S
C542 C538 1.356 . S
C542 C539 1.358 . S
C542 H598 0.930 . S
C543 N540 1.314 . S
C543 C541 1.353 . S
C543 H599 0.930 . S
C544 N545 1.314 . S
C544 C549 1.353 . S
C544 H550 0.930 . S
N545 Li528 1.990 . S
N545 C544 1.314 . S
N545 C547 1.279 . S
C546 C547 1.358 . S
C546 C548 1.356 . S
C546 H600 0.930 . S
C547 N545 1.279 . S
C547 C546 1.358 . S
C547 H551 0.930 . S
C548 C546 1.356 . S
C548 C549 1.348 . S
C549 C544 1.353 . S
C549 C548 1.348 . S
C549 H601 0.929 . S
H550 C544 0.930 . S
H551 C547 0.930 . S
C552 N553 1.314 . S
C552 C554 1.353 . S
C552 H558 0.930 . S
N553 Li529 1.990 . S
N553 C552 1.314 . S
N553 C556 1.279 . S
C554 C552 1.353 . S
C554 C557 1.348 . S
C554 H602 0.929 . S
C555 C556 1.358 . S
C555 C557 1.356 . S
C555 H603 0.930 . S
C556 N553 1.279 . S
C556 C555 1.358 . S
C556 H559 0.930 . S
C557 C554 1.348 . S
C557 C555 1.356 . S
H558 C552 0.930 . S
H559 C556 0.930 . S
C560 C562 1.348 . S
C560 C563 1.356 . S
C560 O590 1.325 . S
N561 C564 1.314 . S
N561 C565 1.279 . S
C562 C560 1.348 . S
C562 C564 1.353 . S
C562 H604 0.929 . S
C563 C560 1.356 . S
C563 C565 1.358 . S
C563 H605 0.930 . S
C564 N561 1.314 . S
C564 C562 1.353 . S
C564 H606 0.930 . S
C565 N561 1.279 . S
C565 C563 1.358 . S
C565 H607 0.930 . S
C566 C567 1.348 . S
C566 C568 1.356 . S
C566 O591 1.325 . S
C567 C566 1.348 . S
C567 C569 1.353 . S
C567 H608 0.929 . S
C568 C566 1.356 . S
C568 C570 1.358 . S
C568 H609 0.930 . S
C569 C567 1.353 . S
C569 N571 1.314 . S
C569 H610 0.930 . S
C570 C568 1.358 . S
C570 N571 1.279 . S
C570 H611 0.930 . S
N571 C569 1.314 . S
N571 C570 1.279 . S
C572 C574 1.353 . S
C572 N575 1.314 . S
C572 H578 0.930 . S
C573 N575 1.279 . S
C573 C576 1.358 . S
C573 H579 0.930 . S
C574 C572 1.353 . S
C574 C577 1.348 . S
C574 H612 0.929 . S
N575 Li530 1.990 . S
N575 C572 1.314 . S
N575 C573 1.279 . S
C576 C573 1.358 . S
C576 C577 1.356 . S
C576 H613 0.930 . S
C577 C574 1.348 . S
C577 C576 1.356 . S
H578 C572 0.930 . S
H579 C573 0.930 . S
C580 N581 1.314 . S
C580 C582 1.353 . S
C580 H586 0.930 . S
N581 Li531 1.990 . S
N581 C580 1.314 . S
N581 C584 1.279 . S
C582 C580 1.353 . S
C582 C585 1.348 . S
C582 H614 0.929 . S
C583 C584 1.358 . S
C583 C585 1.356 . S
C583 H615 0.930 . S
C584 N581 1.279 . S
C584 C583 1.358 . S
C584 H587 0.930 . S
C585 C582 1.348 . S
C585 C583 1.356 . S
H586 C580 0.930 . S
H587 C584 0.930 . S
O588 Li528 1.956 . S
O588 Li529 1.970 . S
O588 Li530 1.961 . S
O588 C532 1.325 . S
O589 Li528 1.970 . S
O589 Li529 1.956 . S
O589 Li531 1.961 . S
O589 C538 1.325 . S
O590 Li528 1.961 . S
O590 Li530 1.956 . S
O590 Li531 1.970 . S
O590 C560 1.325 . S
O591 Li529 1.961 . S
O591 Li530 1.970 . S
O591 Li531 1.956 . S
O591 C566 1.325 . S
H592 C534 0.929 . S
H593 C535 0.930 . S
H594 C536 0.930 . S
H595 C537 0.930 . S
H596 C539 0.930 . S
H597 C541 0.929 . S
H598 C542 0.930 . S
H599 C543 0.930 . S
H600 C546 0.930 . S
H601 C549 0.929 . S
H602 C554 0.929 . S
H603 C555 0.930 . S
H604 C562 0.929 . S
H605 C563 0.930 . S
H606 C564 0.930 . S
H607 C565 0.930 . S
H608 C567 0.929 . S
H609 C568 0.930 . S
H610 C569 0.930 . S
H611 C570 0.930 . S
H612 C574 0.929 . S
H613 C576 0.930 . S
H614 C582 0.929 . S
H615 C583 0.930 . S
Li616 N633 1.990 1_655 S
Li616 O676 1.956 . S
Li616 O677 1.970 . S
Li616 O678 1.961 . S
Li617 N641 1.990 . S
Li617 O676 1.970 . S
Li617 O677 1.956 . S
Li617 O679 1.961 . S
Li618 N663 1.990 . S
Li618 O676 1.961 . S
Li618 O678 1.956 . S
Li618 O679 1.970 . S
Li619 N669 1.990 . S
Li619 O677 1.961 . S
Li619 O678 1.970 . S
Li619 O679 1.956 . S
C620 C622 1.348 . S
C620 C623 1.356 . S
C620 O676 1.325 1_455 S
N621 C624 1.314 . S
N621 C625 1.279 . S
C622 C620 1.348 . S
C622 C624 1.353 . S
C622 H680 0.929 . S
C623 C620 1.356 . S
C623 C625 1.358 . S
C623 H681 0.930 . S
C624 N621 1.314 . S
C624 C622 1.353 . S
C624 H682 0.930 . S
C625 N621 1.279 . S
C625 C623 1.358 . S
C625 H683 0.930 . S
C626 C629 1.348 . S
C626 C630 1.356 . S
C626 O677 1.325 . S
C627 N628 1.279 . S
C627 C630 1.358 . S
C627 H684 0.930 . S
N628 C627 1.279 . S
N628 C631 1.314 . S
C629 C626 1.348 . S
C629 C631 1.353 . S
C629 H685 0.929 . S
C630 C626 1.356 . S
C630 C627 1.358 . S
C630 H686 0.930 . S
C631 N628 1.314 . S
C631 C629 1.353 . S
C631 H687 0.930 . S
C632 N633 1.314 . S
C632 C637 1.353 . S
C632 H638 0.930 . S
N633 Li616 1.990 1_455 S
N633 C632 1.314 . S
N633 C635 1.279 . S
C634 C635 1.358 . S
C634 C636 1.356 . S
C634 H688 0.930 . S
C635 N633 1.279 . S
C635 C634 1.358 . S
C635 H639 0.930 . S
C636 C634 1.356 . S
C636 C637 1.348 . S
C637 C632 1.353 . S
C637 C636 1.348 . S
C637 H689 0.929 . S
H638 C632 0.930 . S
H639 C635 0.930 . S
C640 N641 1.314 . S
C640 C642 1.353 . S
C640 H646 0.930 . S
N641 Li617 1.990 . S
N641 C640 1.314 . S
N641 C644 1.279 . S
C642 C640 1.353 . S
C642 C645 1.348 . S
C642 H690 0.929 . S
C643 C644 1.358 . S
C643 C645 1.356 . S
C643 H691 0.930 . S
C644 N641 1.279 . S
C644 C643 1.358 . S
C644 H647 0.930 . S
C645 C642 1.348 . S
C645 C643 1.356 . S
H646 C640 0.930 . S
H647 C644 0.930 . S
C648 C650 1.348 . S
C648 C651 1.356 . S
C648 O678 1.325 . S
N649 C652 1.314 . S
N649 C653 1.279 . S
C650 C648 1.348 . S
C650 C652 1.353 . S
C650 H692 0.929 . S
C651 C648 1.356 . S
C651 C653 1.358 . S
C651 H693 0.930 1_655 S
C652 N649 1.314 . S
C652 C650 1.353 . S
C652 H694 0.930 . S
C653 N649 1.279 . S
C653 C651 1.358 . S
C653 H695 0.930 1_655 S
C654 C655 1.348 . S
C654 C656 1.356 . S
C654 O679 1.325 . S
C655 C654 1.348 . S
C655 C657 1.353 . S
C655 H696 0.929 . S
C656 C654 1.356 . S
C656 C658 1.358 . S
C656 H697 0.930 . S
C657 C655 1.353 . S
C657 N659 1.314 . S
C657 H698 0.930 . S
C658 C656 1.358 . S
C658 N659 1.279 . S
C658 H699 0.930 . S
N659 C657 1.314 . S
N659 C658 1.279 . S
C660 C662 1.353 . S
C660 N663 1.314 . S
C660 H666 0.930 . S
C661 N663 1.279 . S
C661 C664 1.358 . S
C661 H667 0.930 . S
C662 C660 1.353 . S
C662 C665 1.348 . S
C662 H700 0.929 . S
N663 Li618 1.990 . S
N663 C660 1.314 . S
N663 C661 1.279 . S
C664 C661 1.358 . S
C664 C665 1.356 . S
C664 H701 0.930 . S
C665 C662 1.348 . S
C665 C664 1.356 . S
H666 C660 0.930 . S
H667 C661 0.930 . S
C668 N669 1.314 . S
C668 C670 1.353 . S
C668 H674 0.930 . S
N669 Li619 1.990 . S
N669 C668 1.314 . S
N669 C672 1.279 . S
C670 C668 1.353 . S
C670 C673 1.348 . S
C670 H702 0.929 . S
C671 C672 1.358 . S
C671 C673 1.356 . S
C671 H703 0.930 . S
C672 N669 1.279 . S
C672 C671 1.358 . S
C672 H675 0.930 . S
C673 C670 1.348 . S
C673 C671 1.356 . S
H674 C668 0.930 . S
H675 C672 0.930 . S
O676 Li616 1.956 . S
O676 Li617 1.970 . S
O676 Li618 1.961 . S
O676 C620 1.325 1_655 S
O677 Li616 1.970 . S
O677 Li617 1.956 . S
O677 Li619 1.961 . S
O677 C626 1.325 . S
O678 Li616 1.961 . S
O678 Li618 1.956 . S
O678 Li619 1.970 . S
O678 C648 1.325 . S
O679 Li617 1.961 . S
O679 Li618 1.970 . S
O679 Li619 1.956 . S
O679 C654 1.325 . S
H680 C622 0.929 . S
H681 C623 0.930 . S
H682 C624 0.930 . S
H683 C625 0.930 . S
H684 C627 0.930 . S
H685 C629 0.929 . S
H686 C630 0.930 . S
H687 C631 0.930 . S
H688 C634 0.930 . S
H689 C637 0.929 . S
H690 C642 0.929 . S
H691 C643 0.930 . S
H692 C650 0.929 . S
H693 C651 0.930 1_455 S
H694 C652 0.930 . S
H695 C653 0.930 1_455 S
H696 C655 0.929 . S
H697 C656 0.930 . S
H698 C657 0.930 . S
H699 C658 0.930 . S
H700 C662 0.929 . S
H701 C664 0.930 . S
H702 C670 0.929 . S
H703 C671 0.930 . S
Li704 N721 1.990 1_565 S
Li704 O764 1.956 . S
Li704 O765 1.970 . S
Li704 O766 1.961 . S
Li705 N729 1.990 . S
Li705 O764 1.970 . S
Li705 O765 1.956 . S
Li705 O767 1.961 . S
Li706 N751 1.990 . S
Li706 O764 1.961 . S
Li706 O766 1.956 . S
Li706 O767 1.970 . S
Li707 N757 1.990 . S
Li707 O765 1.961 . S
Li707 O766 1.970 . S
Li707 O767 1.956 . S
C708 C710 1.348 . S
C708 C711 1.356 . S
C708 O764 1.325 1_545 S
N709 C712 1.314 . S
N709 C713 1.279 . S
C710 C708 1.348 . S
C710 C712 1.353 . S
C710 H768 0.929 . S
C711 C708 1.356 . S
C711 C713 1.358 . S
C711 H769 0.930 . S
C712 N709 1.314 . S
C712 C710 1.353 . S
C712 H770 0.930 . S
C713 N709 1.279 . S
C713 C711 1.358 . S
C713 H771 0.930 . S
C714 C717 1.348 . S
C714 C718 1.356 . S
C714 O765 1.325 . S
C715 N716 1.279 . S
C715 C718 1.358 . S
C715 H772 0.930 . S
N716 C715 1.279 . S
N716 C719 1.314 . S
C717 C714 1.348 . S
C717 C719 1.353 . S
C717 H773 0.929 . S
C718 C714 1.356 . S
C718 C715 1.358 . S
C718 H774 0.930 . S
C719 N716 1.314 . S
C719 C717 1.353 . S
C719 H775 0.930 . S
C720 N721 1.314 . S
C720 C725 1.353 . S
C720 H726 0.930 . S
N721 Li704 1.990 1_545 S
N721 C720 1.314 . S
N721 C723 1.279 . S
C722 C723 1.358 . S
C722 C724 1.356 . S
C722 H776 0.930 . S
C723 N721 1.279 . S
C723 C722 1.358 . S
C723 H727 0.930 . S
C724 C722 1.356 . S
C724 C725 1.348 . S
C725 C720 1.353 . S
C725 C724 1.348 . S
C725 H777 0.929 . S
H726 C720 0.930 . S
H727 C723 0.930 . S
C728 N729 1.314 . S
C728 C730 1.353 . S
C728 H734 0.930 . S
N729 Li705 1.990 . S
N729 C728 1.314 . S
N729 C732 1.279 . S
C730 C728 1.353 . S
C730 C733 1.348 . S
C730 H778 0.929 . S
C731 C732 1.358 . S
C731 C733 1.356 . S
C731 H779 0.930 . S
C732 N729 1.279 . S
C732 C731 1.358 . S
C732 H735 0.930 . S
C733 C730 1.348 . S
C733 C731 1.356 . S
H734 C728 0.930 . S
H735 C732 0.930 . S
C736 C738 1.348 . S
C736 C739 1.356 . S
C736 O766 1.325 . S
N737 C740 1.314 . S
N737 C741 1.279 . S
C738 C736 1.348 . S
C738 C740 1.353 . S
C738 H780 0.929 . S
C739 C736 1.356 . S
C739 C741 1.358 . S
C739 H781 0.930 1_565 S
C740 N737 1.314 . S
C740 C738 1.353 . S
C740 H782 0.930 . S
C741 N737 1.279 . S
C741 C739 1.358 . S
C741 H783 0.930 1_565 S
C742 C743 1.348 . S
C742 C744 1.356 . S
C742 O767 1.325 . S
C743 C742 1.348 . S
C743 C745 1.353 . S
C743 H784 0.929 . S
C744 C742 1.356 . S
C744 C746 1.358 . S
C744 H785 0.930 . S
C745 C743 1.353 . S
C745 N747 1.314 . S
C745 H786 0.930 . S
C746 C744 1.358 . S
C746 N747 1.279 . S
C746 H787 0.930 . S
N747 C745 1.314 . S
N747 C746 1.279 . S
C748 C750 1.353 . S
C748 N751 1.314 . S
C748 H754 0.930 . S
C749 N751 1.279 . S
C749 C752 1.358 . S
C749 H755 0.930 . S
C750 C748 1.353 . S
C750 C753 1.348 . S
C750 H788 0.929 . S
N751 Li706 1.990 . S
N751 C748 1.314 . S
N751 C749 1.279 . S
C752 C749 1.358 . S
C752 C753 1.356 . S
C752 H789 0.930 . S
C753 C750 1.348 . S
C753 C752 1.356 . S
H754 C748 0.930 . S
H755 C749 0.930 . S
C756 N757 1.314 . S
C756 C758 1.353 . S
C756 H762 0.930 . S
N757 Li707 1.990 . S
N757 C756 1.314 . S
N757 C760 1.279 . S
C758 C756 1.353 . S
C758 C761 1.348 . S
C758 H790 0.929 . S
C759 C760 1.358 . S
C759 C761 1.356 . S
C759 H791 0.930 . S
C760 N757 1.279 . S
C760 C759 1.358 . S
C760 H763 0.930 . S
C761 C758 1.348 . S
C761 C759 1.356 . S
H762 C756 0.930 . S
H763 C760 0.930 . S
O764 Li704 1.956 . S
O764 Li705 1.970 . S
O764 Li706 1.961 . S
O764 C708 1.325 1_565 S
O765 Li704 1.970 . S
O765 Li705 1.956 . S
O765 Li707 1.961 . S
O765 C714 1.325 . S
O766 Li704 1.961 . S
O766 Li706 1.956 . S
O766 Li707 1.970 . S
O766 C736 1.325 . S
O767 Li705 1.961 . S
O767 Li706 1.970 . S
O767 Li707 1.956 . S
O767 C742 1.325 . S
H768 C710 0.929 . S
H769 C711 0.930 . S
H770 C712 0.930 . S
H771 C713 0.930 . S
H772 C715 0.930 . S
H773 C717 0.929 . S
H774 C718 0.930 . S
H775 C719 0.930 . S
H776 C722 0.930 . S
H777 C725 0.929 . S
H778 C730 0.929 . S
H779 C731 0.930 . S
H780 C738 0.929 . S
H781 C739 0.930 1_545 S
H782 C740 0.930 . S
H783 C741 0.930 1_545 S
H784 C743 0.929 . S
H785 C744 0.930 . S
H786 C745 0.930 . S
H787 C746 0.930 . S
H788 C750 0.929 . S
H789 C752 0.930 . S
H790 C758 0.929 . S
H791 C759 0.930 . S
Li792 N809 1.990 . S
Li792 O852 1.956 . S
Li792 O853 1.970 . S
Li792 O854 1.961 . S
Li793 N817 1.990 . S
Li793 O852 1.970 . S
Li793 O853 1.956 . S
Li793 O855 1.961 . S
Li794 N839 1.990 . S
Li794 O852 1.961 . S
Li794 O854 1.956 . S
Li794 O855 1.970 . S
Li795 N845 1.990 . S
Li795 O853 1.961 . S
Li795 O854 1.970 . S
Li795 O855 1.956 . S
C796 C798 1.348 . S
C796 C799 1.356 . S
C796 O852 1.325 . S
N797 C800 1.314 . S
N797 C801 1.279 . S
C798 C796 1.348 . S
C798 C800 1.353 . S
C798 H856 0.929 . S
C799 C796 1.356 . S
C799 C801 1.358 . S
C799 H857 0.930 . S
C800 N797 1.314 . S
C800 C798 1.353 . S
C800 H858 0.930 . S
C801 N797 1.279 . S
C801 C799 1.358 . S
C801 H859 0.930 . S
C802 C805 1.348 . S
C802 C806 1.356 . S
C802 O853 1.325 . S
C803 N804 1.279 . S
C803 C806 1.358 . S
C803 H860 0.930 . S
N804 C803 1.279 . S
N804 C807 1.314 . S
C805 C802 1.348 . S
C805 C807 1.353 . S
C805 H861 0.929 . S
C806 C802 1.356 . S
C806 C803 1.358 . S
C806 H862 0.930 . S
C807 N804 1.314 . S
C807 C805 1.353 . S
C807 H863 0.930 . S
C808 N809 1.314 . S
C808 C813 1.353 . S
C808 H814 0.930 . S
N809 Li792 1.990 . S
N809 C808 1.314 . S
N809 C811 1.279 . S
C810 C811 1.358 . S
C810 C812 1.356 . S
C810 H864 0.930 . S
C811 N809 1.279 . S
C811 C810 1.358 . S
C811 H815 0.930 . S
C812 C810 1.356 . S
C812 C813 1.348 . S
C813 C808 1.353 . S
C813 C812 1.348 . S
C813 H865 0.929 . S
H814 C808 0.930 . S
H815 C811 0.930 . S
C816 N817 1.314 . S
C816 C818 1.353 . S
C816 H822 0.930 . S
N817 Li793 1.990 . S
N817 C816 1.314 . S
N817 C820 1.279 . S
C818 C816 1.353 . S
C818 C821 1.348 . S
C818 H866 0.929 . S
C819 C820 1.358 . S
C819 C821 1.356 . S
C819 H867 0.930 . S
C820 N817 1.279 . S
C820 C819 1.358 . S
C820 H823 0.930 . S
C821 C818 1.348 . S
C821 C819 1.356 . S
H822 C816 0.930 . S
H823 C820 0.930 . S
C824 C826 1.348 . S
C824 C827 1.356 . S
C824 O854 1.325 . S
N825 C828 1.314 . S
N825 C829 1.279 . S
C826 C824 1.348 . S
C826 C828 1.353 . S
C826 H868 0.929 . S
C827 C824 1.356 . S
C827 C829 1.358 . S
C827 H869 0.930 . S
C828 N825 1.314 . S
C828 C826 1.353 . S
C828 H870 0.930 . S
C829 N825 1.279 . S
C829 C827 1.358 . S
C829 H871 0.930 . S
C830 C831 1.348 . S
C830 C832 1.356 . S
C830 O855 1.325 . S
C831 C830 1.348 . S
C831 C833 1.353 . S
C831 H872 0.929 . S
C832 C830 1.356 . S
C832 C834 1.358 . S
C832 H873 0.930 . S
C833 C831 1.353 . S
C833 N835 1.314 . S
C833 H874 0.930 . S
C834 C832 1.358 . S
C834 N835 1.279 . S
C834 H875 0.930 . S
N835 C833 1.314 . S
N835 C834 1.279 . S
C836 C838 1.353 . S
C836 N839 1.314 . S
C836 H842 0.930 . S
C837 N839 1.279 . S
C837 C840 1.358 . S
C837 H843 0.930 . S
C838 C836 1.353 . S
C838 C841 1.348 . S
C838 H876 0.929 . S
N839 Li794 1.990 . S
N839 C836 1.314 . S
N839 C837 1.279 . S
C840 C837 1.358 . S
C840 C841 1.356 . S
C840 H877 0.930 . S
C841 C838 1.348 . S
C841 C840 1.356 . S
H842 C836 0.930 . S
H843 C837 0.930 . S
C844 N845 1.314 . S
C844 C846 1.353 . S
C844 H850 0.930 . S
N845 Li795 1.990 . S
N845 C844 1.314 . S
N845 C848 1.279 . S
C846 C844 1.353 . S
C846 C849 1.348 . S
C846 H878 0.929 . S
C847 C848 1.358 . S
C847 C849 1.356 . S
C847 H879 0.930 . S
C848 N845 1.279 . S
C848 C847 1.358 . S
C848 H851 0.930 . S
C849 C846 1.348 . S
C849 C847 1.356 . S
H850 C844 0.930 . S
H851 C848 0.930 . S
O852 Li792 1.956 . S
O852 Li793 1.970 . S
O852 Li794 1.961 . S
O852 C796 1.325 . S
O853 Li792 1.970 . S
O853 Li793 1.956 . S
O853 Li795 1.961 . S
O853 C802 1.325 . S
O854 Li792 1.961 . S
O854 Li794 1.956 . S
O854 Li795 1.970 . S
O854 C824 1.325 . S
O855 Li793 1.961 . S
O855 Li794 1.970 . S
O855 Li795 1.956 . S
O855 C830 1.325 . S
H856 C798 0.929 . S
H857 C799 0.930 . S
H858 C800 0.930 . S
H859 C801 0.930 . S
H860 C803 0.930 . S
H861 C805 0.929 . S
H862 C806 0.930 . S
H863 C807 0.930 . S
H864 C810 0.930 . S
H865 C813 0.929 . S
H866 C818 0.929 . S
H867 C819 0.930 . S
H868 C826 0.929 . S
H869 C827 0.930 . S
H870 C828 0.930 . S
H871 C829 0.930 . S
H872 C831 0.929 . S
H873 C832 0.930 . S
H874 C833 0.930 . S
H875 C834 0.930 . S
H876 C838 0.929 . S
H877 C840 0.930 . S
H878 C846 0.929 . S
H879 C847 0.930 . S
Li880 N897 1.990 1_455 S
Li880 O940 1.956 . S
Li880 O941 1.970 . S
Li880 O942 1.961 . S
Li881 N905 1.990 . S
Li881 O940 1.970 . S
Li881 O941 1.956 . S
Li881 O943 1.961 . S
Li882 N927 1.990 . S
Li882 O940 1.961 . S
Li882 O942 1.956 . S
Li882 O943 1.970 . S
Li883 N933 1.990 . S
Li883 O941 1.961 . S
Li883 O942 1.970 . S
Li883 O943 1.956 . S
C884 C886 1.348 . S
C884 C887 1.356 . S
C884 O940 1.325 1_655 S
N885 C888 1.314 . S
N885 C889 1.279 . S
C886 C884 1.348 . S
C886 C888 1.353 . S
C886 H944 0.929 . S
C887 C884 1.356 . S
C887 C889 1.358 . S
C887 H945 0.930 . S
C888 N885 1.314 . S
C888 C886 1.353 . S
C888 H946 0.930 . S
C889 N885 1.279 . S
C889 C887 1.358 . S
C889 H947 0.930 . S
C890 C893 1.348 . S
C890 C894 1.356 . S
C890 O941 1.325 . S
C891 N892 1.279 . S
C891 C894 1.358 . S
C891 H948 0.930 . S
N892 C891 1.279 . S
N892 C895 1.314 . S
C893 C890 1.348 . S
C893 C895 1.353 . S
C893 H949 0.929 . S
C894 C890 1.356 . S
C894 C891 1.358 . S
C894 H950 0.930 . S
C895 N892 1.314 . S
C895 C893 1.353 . S
C895 H951 0.930 . S
C896 N897 1.314 . S
C896 C901 1.353 . S
C896 H902 0.930 . S
N897 Li880 1.990 1_655 S
N897 C896 1.314 . S
N897 C899 1.279 . S
C898 C899 1.358 . S
C898 C900 1.356 . S
C898 H952 0.930 . S
C899 N897 1.279 . S
C899 C898 1.358 . S
C899 H903 0.930 . S
C900 C898 1.356 . S
C900 C901 1.348 . S
C901 C896 1.353 . S
C901 C900 1.348 . S
C901 H953 0.929 . S
H902 C896 0.930 . S
H903 C899 0.930 . S
C904 N905 1.314 . S
C904 C906 1.353 . S
C904 H910 0.930 . S
N905 Li881 1.990 . S
N905 C904 1.314 . S
N905 C908 1.279 . S
C906 C904 1.353 . S
C906 C909 1.348 . S
C906 H954 0.929 . S
C907 C908 1.358 . S
C907 C909 1.356 . S
C907 H955 0.930 . S
C908 N905 1.279 . S
C908 C907 1.358 . S
C908 H911 0.930 . S
C909 C906 1.348 . S
C909 C907 1.356 . S
H910 C904 0.930 . S
H911 C908 0.930 . S
C912 C914 1.348 . S
C912 C915 1.356 . S
C912 O942 1.325 . S
N913 C916 1.314 . S
N913 C917 1.279 . S
C914 C912 1.348 . S
C914 C916 1.353 . S
C914 H956 0.929 . S
C915 C912 1.356 . S
C915 C917 1.358 . S
C915 H957 0.930 1_455 S
C916 N913 1.314 . S
C916 C914 1.353 . S
C916 H958 0.930 . S
C917 N913 1.279 . S
C917 C915 1.358 . S
C917 H959 0.930 1_455 S
C918 C919 1.348 . S
C918 C920 1.356 . S
C918 O943 1.325 . S
C919 C918 1.348 . S
C919 C921 1.353 . S
C919 H960 0.929 . S
C920 C918 1.356 . S
C920 C922 1.358 . S
C920 H961 0.930 . S
C921 C919 1.353 . S
C921 N923 1.314 . S
C921 H962 0.930 . S
C922 C920 1.358 . S
C922 N923 1.279 . S
C922 H963 0.930 . S
N923 C921 1.314 . S
N923 C922 1.279 . S
C924 C926 1.353 . S
C924 N927 1.314 . S
C924 H930 0.930 . S
C925 N927 1.279 . S
C925 C928 1.358 . S
C925 H931 0.930 . S
C926 C924 1.353 . S
C926 C929 1.348 . S
C926 H964 0.929 . S
N927 Li882 1.990 . S
N927 C924 1.314 . S
N927 C925 1.279 . S
C928 C925 1.358 . S
C928 C929 1.356 . S
C928 H965 0.930 . S
C929 C926 1.348 . S
C929 C928 1.356 . S
H930 C924 0.930 . S
H931 C925 0.930 . S
C932 N933 1.314 . S
C932 C934 1.353 . S
C932 H938 0.930 . S
N933 Li883 1.990 . S
N933 C932 1.314 . S
N933 C936 1.279 . S
C934 C932 1.353 . S
C934 C937 1.348 . S
C934 H966 0.929 . S
C935 C936 1.358 . S
C935 C937 1.356 . S
C935 H967 0.930 . S
C936 N933 1.279 . S
C936 C935 1.358 . S
C936 H939 0.930 . S
C937 C934 1.348 . S
C937 C935 1.356 . S
H938 C932 0.930 . S
H939 C936 0.930 . S
O940 Li880 1.956 . S
O940 Li881 1.970 . S
O940 Li882 1.961 . S
O940 C884 1.325 1_455 S
O941 Li880 1.970 . S
O941 Li881 1.956 . S
O941 Li883 1.961 . S
O941 C890 1.325 . S
O942 Li880 1.961 . S
O942 Li882 1.956 . S
O942 Li883 1.970 . S
O942 C912 1.325 . S
O943 Li881 1.961 . S
O943 Li882 1.970 . S
O943 Li883 1.956 . S
O943 C918 1.325 . S
H944 C886 0.929 . S
H945 C887 0.930 . S
H946 C888 0.930 . S
H947 C889 0.930 . S
H948 C891 0.930 . S
H949 C893 0.929 . S
H950 C894 0.930 . S
H951 C895 0.930 . S
H952 C898 0.930 . S
H953 C901 0.929 . S
H954 C906 0.929 . S
H955 C907 0.930 . S
H956 C914 0.929 . S
H957 C915 0.930 1_655 S
H958 C916 0.930 . S
H959 C917 0.930 1_655 S
H960 C919 0.929 . S
H961 C920 0.930 . S
H962 C921 0.930 . S
H963 C922 0.930 . S
H964 C926 0.929 . S
H965 C928 0.930 . S
H966 C934 0.929 . S
H967 C935 0.930 . S
Li968 N985 1.990 . S
Li968 O1028 1.956 . S
Li968 O1029 1.970 . S
Li968 O1030 1.961 . S
Li969 N993 1.990 1_545 S
Li969 O1028 1.970 . S
Li969 O1029 1.956 . S
Li969 O1031 1.961 . S
Li970 N1015 1.990 . S
Li970 O1028 1.961 . S
Li970 O1030 1.956 . S
Li970 O1031 1.970 . S
Li971 N1021 1.990 . S
Li971 O1029 1.961 . S
Li971 O1030 1.970 . S
Li971 O1031 1.956 . S
C972 C974 1.348 . S
C972 C975 1.356 . S
C972 O1028 1.325 . S
N973 C976 1.314 . S
N973 C977 1.279 . S
C974 C972 1.348 . S
C974 C976 1.353 . S
C974 H1032 0.929 . S
C975 C972 1.356 . S
C975 C977 1.358 . S
C975 H1033 0.930 . S
C976 N973 1.314 . S
C976 C974 1.353 . S
C976 H1034 0.930 . S
C977 N973 1.279 . S
C977 C975 1.358 . S
C977 H1035 0.930 . S
C978 C981 1.348 . S
C978 C982 1.356 . S
C978 O1029 1.325 1_565 S
C979 N980 1.279 . S
C979 C982 1.358 . S
C979 H1036 0.930 . S
N980 C979 1.279 . S
N980 C983 1.314 . S
C981 C978 1.348 . S
C981 C983 1.353 . S
C981 H1037 0.929 . S
C982 C978 1.356 . S
C982 C979 1.358 . S
C982 H1038 0.930 . S
C983 N980 1.314 . S
C983 C981 1.353 . S
C983 H1039 0.930 . S
C984 N985 1.314 . S
C984 C989 1.353 . S
C984 H990 0.930 . S
N985 Li968 1.990 . S
N985 C984 1.314 . S
N985 C987 1.279 . S
C986 C987 1.358 . S
C986 C988 1.356 . S
C986 H1040 0.930 . S
C987 N985 1.279 . S
C987 C986 1.358 . S
C987 H991 0.930 . S
C988 C986 1.356 . S
C988 C989 1.348 . S
C989 C984 1.353 . S
C989 C988 1.348 . S
C989 H1041 0.929 . S
H990 C984 0.930 . S
H991 C987 0.930 . S
C992 N993 1.314 . S
C992 C994 1.353 . S
C992 H998 0.930 . S
N993 Li969 1.990 1_565 S
N993 C992 1.314 . S
N993 C996 1.279 . S
C994 C992 1.353 . S
C994 C997 1.348 . S
C994 H1042 0.929 . S
C995 C996 1.358 . S
C995 C997 1.356 . S
C995 H1043 0.930 . S
C996 N993 1.279 . S
C996 C995 1.358 . S
C996 H999 0.930 . S
C997 C994 1.348 . S
C997 C995 1.356 . S
H998 C992 0.930 . S
H999 C996 0.930 . S
C1000 C1002 1.348 . S
C1000 C1003 1.356 . S
C1000 O1030 1.325 . S
N1001 C1004 1.314 . S
N1001 C1005 1.279 . S
C1002 C1000 1.348 . S
C1002 C1004 1.353 . S
C1002 H1044 0.929 . S
C1003 C1000 1.356 . S
C1003 C1005 1.358 . S
C1003 H1045 0.930 . S
C1004 N1001 1.314 . S
C1004 C1002 1.353 . S
C1004 H1046 0.930 . S
C1005 N1001 1.279 . S
C1005 C1003 1.358 . S
C1005 H1047 0.930 . S
C1006 C1007 1.348 . S
C1006 C1008 1.356 . S
C1006 O1031 1.325 . S
C1007 C1006 1.348 . S
C1007 C1009 1.353 . S
C1007 H1048 0.929 . S
C1008 C1006 1.356 . S
C1008 C1010 1.358 . S
C1008 H1049 0.930 1_545 S
C1009 C1007 1.353 . S
C1009 N1011 1.314 . S
C1009 H1050 0.930 . S
C1010 C1008 1.358 . S
C1010 N1011 1.279 . S
C1010 H1051 0.930 1_545 S
N1011 C1009 1.314 . S
N1011 C1010 1.279 . S
C1012 C1014 1.353 . S
C1012 N1015 1.314 . S
C1012 H1018 0.930 . S
C1013 N1015 1.279 . S
C1013 C1016 1.358 . S
C1013 H1019 0.930 . S
C1014 C1012 1.353 . S
C1014 C1017 1.348 . S
C1014 H1052 0.929 . S
N1015 Li970 1.990 . S
N1015 C1012 1.314 . S
N1015 C1013 1.279 . S
C1016 C1013 1.358 . S
C1016 C1017 1.356 . S
C1016 H1053 0.930 . S
C1017 C1014 1.348 . S
C1017 C1016 1.356 . S
H1018 C1012 0.930 . S
H1019 C1013 0.930 . S
C1020 N1021 1.314 . S
C1020 C1022 1.353 . S
C1020 H1026 0.930 . S
N1021 Li971 1.990 . S
N1021 C1020 1.314 . S
N1021 C1024 1.279 . S
C1022 C1020 1.353 . S
C1022 C1025 1.348 . S
C1022 H1054 0.929 . S
C1023 C1024 1.358 . S
C1023 C1025 1.356 . S
C1023 H1055 0.930 . S
C1024 N1021 1.279 . S
C1024 C1023 1.358 . S
C1024 H1027 0.930 . S
C1025 C1022 1.348 . S
C1025 C1023 1.356 . S
H1026 C1020 0.930 . S
H1027 C1024 0.930 . S
O1028 Li968 1.956 . S
O1028 Li969 1.970 . S
O1028 Li970 1.961 . S
O1028 C972 1.325 . S
O1029 Li968 1.970 . S
O1029 Li969 1.956 . S
O1029 Li971 1.961 . S
O1029 C978 1.325 1_545 S
O1030 Li968 1.961 . S
O1030 Li970 1.956 . S
O1030 Li971 1.970 . S
O1030 C1000 1.325 . S
O1031 Li969 1.961 . S
O1031 Li970 1.970 . S
O1031 Li971 1.956 . S
O1031 C1006 1.325 . S
H1032 C974 0.929 . S
H1033 C975 0.930 . S
H1034 C976 0.930 . S
H1035 C977 0.930 . S
H1036 C979 0.930 . S
H1037 C981 0.929 . S
H1038 C982 0.930 . S
H1039 C983 0.930 . S
H1040 C986 0.930 . S
H1041 C989 0.929 . S
H1042 C994 0.929 . S
H1043 C995 0.930 . S
H1044 C1002 0.929 . S
H1045 C1003 0.930 . S
H1046 C1004 0.930 . S
H1047 C1005 0.930 . S
H1048 C1007 0.929 . S
H1049 C1008 0.930 1_565 S
H1050 C1009 0.930 . S
H1051 C1010 0.930 1_565 S
H1052 C1014 0.929 . S
H1053 C1016 0.930 . S
H1054 C1022 0.929 . S
H1055 C1023 0.930 . S
C1056 C1057 1.369 . S
C1056 C1058 1.419 1_655 S
C1056 H1060 0.930 . S
C1057 C1056 1.369 . S
C1057 C1066 1.429 . S
C1058 C1056 1.419 1_455 S
C1058 C1059 1.363 . S
C1058 H1061 0.929 . S
C1059 C1058 1.363 . S
C1059 C1065 1.428 . S
H1060 C1056 0.930 . S
H1061 C1058 0.929 . S
S1062 N1063 1.613 . S
S1062 N1064 1.610 1_655 S
N1063 S1062 1.613 . S
N1063 C1066 1.350 . S
N1064 S1062 1.610 1_455 S
N1064 C1065 1.351 . S
C1065 C1059 1.428 . S
C1065 N1064 1.351 . S
C1065 C1066 1.434 1_455 S
C1066 C1057 1.429 . S
C1066 N1063 1.350 . S
C1066 C1065 1.434 1_655 S
C1067 C1068 1.369 . S
C1067 C1069 1.419 1_545 S
C1067 H1071 0.930 . S
C1068 C1067 1.369 . S
C1068 C1077 1.429 . S
C1069 C1067 1.419 1_565 S
C1069 C1070 1.363 . S
C1069 H1072 0.929 . S
C1070 C1069 1.363 . S
C1070 C1076 1.428 . S
H1071 C1067 0.930 . S
H1072 C1069 0.929 . S
S1073 N1074 1.613 1_565 S
S1073 N1075 1.610 . S
N1074 S1073 1.613 1_545 S
N1074 C1077 1.350 . S
N1075 S1073 1.610 . S
N1075 C1076 1.351 . S
C1076 C1070 1.428 . S
C1076 N1075 1.351 . S
C1076 C1077 1.434 1_565 S
C1077 C1068 1.429 . S
C1077 N1074 1.350 . S
C1077 C1076 1.434 1_545 S
C1078 C1079 1.369 . S
C1078 C1080 1.419 . S
C1078 H1082 0.930 . S
C1079 C1078 1.369 . S
C1079 C1088 1.429 . S
C1080 C1078 1.419 . S
C1080 C1081 1.363 . S
C1080 H1083 0.929 . S
C1081 C1080 1.363 . S
C1081 C1087 1.428 . S
H1082 C1078 0.930 . S
H1083 C1080 0.929 . S
S1084 N1085 1.613 . S
S1084 N1086 1.610 . S
N1085 S1084 1.613 . S
N1085 C1088 1.350 . S
N1086 S1084 1.610 . S
N1086 C1087 1.351 . S
C1087 C1081 1.428 . S
C1087 N1086 1.351 . S
C1087 C1088 1.434 . S
C1088 C1079 1.429 . S
C1088 N1085 1.350 . S
C1088 C1087 1.434 . S
C1089 C1090 1.369 . S
C1089 C1091 1.419 1_655 S
C1089 H1093 0.930 . S
C1090 C1089 1.369 . S
C1090 C1099 1.429 . S
C1091 C1089 1.419 1_455 S
C1091 C1092 1.363 . S
C1091 H1094 0.929 . S
C1092 C1091 1.363 . S
C1092 C1098 1.428 . S
H1093 C1089 0.930 . S
H1094 C1091 0.929 . S
S1095 N1096 1.613 1_455 S
S1095 N1097 1.610 . S
N1096 S1095 1.613 1_655 S
N1096 C1099 1.350 . S
N1097 S1095 1.610 . S
N1097 C1098 1.351 . S
C1098 C1092 1.428 . S
C1098 N1097 1.351 . S
C1098 C1099 1.434 1_455 S
C1099 C1090 1.429 . S
C1099 N1096 1.350 . S
C1099 C1098 1.434 1_655 S
C1100 C1101 1.369 . S
C1100 C1102 1.419 1_545 S
C1100 H1104 0.930 . S
C1101 C1100 1.369 . S
C1101 C1110 1.429 . S
C1102 C1100 1.419 1_565 S
C1102 C1103 1.363 . S
C1102 H1105 0.929 . S
C1103 C1102 1.363 . S
C1103 C1109 1.428 . S
H1104 C1100 0.930 . S
H1105 C1102 0.929 . S
S1106 N1107 1.613 . S
S1106 N1108 1.610 1_545 S
N1107 S1106 1.613 . S
N1107 C1110 1.350 . S
N1108 S1106 1.610 1_565 S
N1108 C1109 1.351 . S
C1109 C1103 1.428 . S
C1109 N1108 1.351 . S
C1109 C1110 1.434 1_565 S
C1110 C1101 1.429 . S
C1110 N1107 1.350 . S
C1110 C1109 1.434 1_545 S
C1111 C1112 1.369 . S
C1111 C1113 1.419 . S
C1111 H1115 0.930 . S
C1112 C1111 1.369 . S
C1112 C1121 1.429 . S
C1113 C1111 1.419 . S
C1113 C1114 1.363 . S
C1113 H1116 0.929 . S
C1114 C1113 1.363 . S
C1114 C1120 1.428 . S
H1115 C1111 0.930 . S
H1116 C1113 0.929 . S
S1117 N1118 1.613 . S
S1117 N1119 1.610 . S
N1118 S1117 1.613 . S
N1118 C1121 1.350 . S
N1119 S1117 1.610 . S
N1119 C1120 1.351 . S
C1120 C1114 1.428 . S
C1120 N1119 1.351 . S
C1120 C1121 1.434 . S
C1121 C1112 1.429 . S
C1121 N1118 1.350 . S
C1121 C1120 1.434 . S
C1122 C1123 1.369 . S
C1122 C1124 1.419 . S
C1122 H1126 0.930 . S
C1123 C1122 1.369 . S
C1123 C1132 1.429 . S
C1124 C1122 1.419 . S
C1124 C1125 1.363 . S
C1124 H1127 0.929 . S
C1125 C1124 1.363 . S
C1125 C1131 1.428 . S
H1126 C1122 0.930 . S
H1127 C1124 0.929 . S
S1128 N1129 1.613 . S
S1128 N1130 1.610 . S
N1129 S1128 1.613 . S
N1129 C1132 1.350 . S
N1130 S1128 1.610 . S
N1130 C1131 1.351 . S
C1131 C1125 1.428 . S
C1131 N1130 1.351 . S
C1131 C1132 1.434 . S
C1132 C1123 1.429 . S
C1132 N1129 1.350 . S
C1132 C1131 1.434 . S
C1133 C1134 1.369 . S
C1133 C1135 1.419 1_455 S
C1133 H1137 0.930 . S
C1134 C1133 1.369 . S
C1134 C1143 1.429 . S
C1135 C1133 1.419 1_655 S
C1135 C1136 1.363 . S
C1135 H1138 0.929 . S
C1136 C1135 1.363 . S
C1136 C1142 1.428 . S
H1137 C1133 0.930 . S
H1138 C1135 0.929 . S
S1139 N1140 1.613 . S
S1139 N1141 1.610 1_455 S
N1140 S1139 1.613 . S
N1140 C1143 1.350 . S
N1141 S1139 1.610 1_655 S
N1141 C1142 1.351 . S
C1142 C1136 1.428 . S
C1142 N1141 1.351 . S
C1142 C1143 1.434 1_655 S
C1143 C1134 1.429 . S
C1143 N1140 1.350 . S
C1143 C1142 1.434 1_455 S
C1144 C1145 1.369 . S
C1144 C1146 1.419 1_545 S
C1144 H1148 0.930 . S
C1145 C1144 1.369 . S
C1145 C1154 1.429 . S
C1146 C1144 1.419 1_565 S
C1146 C1147 1.363 . S
C1146 H1149 0.929 . S
C1147 C1146 1.363 . S
C1147 C1153 1.428 . S
H1148 C1144 0.930 . S
H1149 C1146 0.929 . S
S1150 N1151 1.613 . S
S1150 N1152 1.610 1_545 S
N1151 S1150 1.613 . S
N1151 C1154 1.350 . S
N1152 S1150 1.610 1_565 S
N1152 C1153 1.351 . S
C1153 C1147 1.428 . S
C1153 N1152 1.351 . S
C1153 C1154 1.434 1_565 S
C1154 C1145 1.429 . S
C1154 N1151 1.350 . S
C1154 C1153 1.434 1_545 S
C1155 C1156 1.369 . S
C1155 C1157 1.419 . S
C1155 H1159 0.930 . S
C1156 C1155 1.369 . S
C1156 C1165 1.429 . S
C1157 C1155 1.419 . S
C1157 C1158 1.363 . S
C1157 H1160 0.929 . S
C1158 C1157 1.363 . S
C1158 C1164 1.428 . S
H1159 C1155 0.930 . S
H1160 C1157 0.929 . S
S1161 N1162 1.613 . S
S1161 N1163 1.610 . S
N1162 S1161 1.613 . S
N1162 C1165 1.350 . S
N1163 S1161 1.610 . S
N1163 C1164 1.351 . S
C1164 C1158 1.428 . S
C1164 N1163 1.351 . S
C1164 C1165 1.434 . S
C1165 C1156 1.429 . S
C1165 N1162 1.350 . S
C1165 C1164 1.434 . S
C1166 C1167 1.369 . S
C1166 C1168 1.419 1_655 S
C1166 H1170 0.930 . S
C1167 C1166 1.369 . S
C1167 C1176 1.429 . S
C1168 C1166 1.419 1_455 S
C1168 C1169 1.363 . S
C1168 H1171 0.929 . S
C1169 C1168 1.363 . S
C1169 C1175 1.428 . S
H1170 C1166 0.930 . S
H1171 C1168 0.929 . S
S1172 N1173 1.613 . S
S1172 N1174 1.610 1_655 S
N1173 S1172 1.613 . S
N1173 C1176 1.350 . S
N1174 S1172 1.610 1_455 S
N1174 C1175 1.351 . S
C1175 C1169 1.428 . S
C1175 N1174 1.351 . S
C1175 C1176 1.434 1_455 S
C1176 C1167 1.429 . S
C1176 N1173 1.350 . S
C1176 C1175 1.434 1_655 S
C1177 C1178 1.369 . S
C1177 C1179 1.419 1_565 S
C1177 H1181 0.930 . S
C1178 C1177 1.369 . S
C1178 C1187 1.429 . S
C1179 C1177 1.419 1_545 S
C1179 C1180 1.363 . S
C1179 H1182 0.929 . S
C1180 C1179 1.363 . S
C1180 C1186 1.428 . S
H1181 C1177 0.930 . S
H1182 C1179 0.929 . S
S1183 N1184 1.613 1_545 S
S1183 N1185 1.610 . S
N1184 S1183 1.613 1_565 S
N1184 C1187 1.350 . S
N1185 S1183 1.610 . S
N1185 C1186 1.351 . S
C1186 C1180 1.428 . S
C1186 N1185 1.351 . S
C1186 C1187 1.434 1_545 S
C1187 C1178 1.429 . S
C1187 N1184 1.350 . S
C1187 C1186 1.434 1_565 S
C1188 C1189 1.369 . S
C1188 C1190 1.419 . S
C1188 H1192 0.930 . S
C1189 C1188 1.369 . S
C1189 C1198 1.429 . S
C1190 C1188 1.419 . S
C1190 C1191 1.363 . S
C1190 H1193 0.929 . S
C1191 C1190 1.363 . S
C1191 C1197 1.428 . S
H1192 C1188 0.930 . S
H1193 C1190 0.929 . S
S1194 N1195 1.613 . S
S1194 N1196 1.610 . S
N1195 S1194 1.613 . S
N1195 C1198 1.350 . S
N1196 S1194 1.610 . S
N1196 C1197 1.351 . S
C1197 C1191 1.428 . S
C1197 N1196 1.351 . S
C1197 C1198 1.434 . S
C1198 C1189 1.429 . S
C1198 N1195 1.350 . S
C1198 C1197 1.434 . S
C1199 C1200 1.369 . S
C1199 C1201 1.419 . S
C1199 H1203 0.930 . S
C1200 C1199 1.369 . S
C1200 C1209 1.429 . S
C1201 C1199 1.419 . S
C1201 C1202 1.363 . S
C1201 H1204 0.929 . S
C1202 C1201 1.363 . S
C1202 C1208 1.428 . S
H1203 C1199 0.930 . S
H1204 C1201 0.929 . S
S1205 N1206 1.613 . S
S1205 N1207 1.610 . S
N1206 S1205 1.613 . S
N1206 C1209 1.350 . S
N1207 S1205 1.610 . S
N1207 C1208 1.351 . S
C1208 C1202 1.428 . S
C1208 N1207 1.351 . S
C1208 C1209 1.434 . S
C1209 C1200 1.429 . S
C1209 N1206 1.350 . S
C1209 C1208 1.434 . S
C1210 C1211 1.369 . S
C1210 C1212 1.419 . S
C1210 H1214 0.930 . S
C1211 C1210 1.369 . S
C1211 C1220 1.429 . S
C1212 C1210 1.419 . S
C1212 C1213 1.363 . S
C1212 H1215 0.929 . S
C1213 C1212 1.363 . S
C1213 C1219 1.428 . S
H1214 C1210 0.930 . S
H1215 C1212 0.929 . S
S1216 N1217 1.613 . S
S1216 N1218 1.610 . S
N1217 S1216 1.613 . S
N1217 C1220 1.350 . S
N1218 S1216 1.610 . S
N1218 C1219 1.351 . S
C1219 C1213 1.428 . S
C1219 N1218 1.351 . S
C1219 C1220 1.434 . S
C1220 C1211 1.429 . S
C1220 N1217 1.350 . S
C1220 C1219 1.434 . S
C1221 C1222 1.369 . S
C1221 C1223 1.419 . S
C1221 H1225 0.930 . S
C1222 C1221 1.369 . S
C1222 C1231 1.429 . S
C1223 C1221 1.419 . S
C1223 C1224 1.363 . S
C1223 H1226 0.929 . S
C1224 C1223 1.363 . S
C1224 C1230 1.428 . S
H1225 C1221 0.930 . S
H1226 C1223 0.929 . S
S1227 N1228 1.613 . S
S1227 N1229 1.610 . S
N1228 S1227 1.613 . S
N1228 C1231 1.350 . S
N1229 S1227 1.610 . S
N1229 C1230 1.351 . S
C1230 C1224 1.428 . S
C1230 N1229 1.351 . S
C1230 C1231 1.434 . S
C1231 C1222 1.429 . S
C1231 N1228 1.350 . S
C1231 C1230 1.434 . S
C1232 C1233 1.369 . S
C1232 C1234 1.419 . S
C1232 H1236 0.930 . S
C1233 C1232 1.369 . S
C1233 C1242 1.429 . S
C1234 C1232 1.419 . S
C1234 C1235 1.363 . S
C1234 H1237 0.929 . S
C1235 C1234 1.363 . S
C1235 C1241 1.428 . S
H1236 C1232 0.930 . S
H1237 C1234 0.929 . S
S1238 N1239 1.613 . S
S1238 N1240 1.610 . S
N1239 S1238 1.613 . S
N1239 C1242 1.350 . S
N1240 S1238 1.610 . S
N1240 C1241 1.351 . S
C1241 C1235 1.428 . S
C1241 N1240 1.351 . S
C1241 C1242 1.434 . S
C1242 C1233 1.429 . S
C1242 N1239 1.350 . S
C1242 C1241 1.434 . S
C1243 C1244 1.369 . S
C1243 C1245 1.419 . S
C1243 H1247 0.930 . S
C1244 C1243 1.369 . S
C1244 C1253 1.429 . S
C1245 C1243 1.419 . S
C1245 C1246 1.363 . S
C1245 H1248 0.929 . S
C1246 C1245 1.363 . S
C1246 C1252 1.428 . S
H1247 C1243 0.930 . S
H1248 C1245 0.929 . S
S1249 N1250 1.613 . S
S1249 N1251 1.610 . S
N1250 S1249 1.613 . S
N1250 C1253 1.350 . S
N1251 S1249 1.610 . S
N1251 C1252 1.351 . S
C1252 C1246 1.428 . S
C1252 N1251 1.351 . S
C1252 C1253 1.434 . S
C1253 C1244 1.429 . S
C1253 N1250 1.350 . S
C1253 C1252 1.434 . S
C1254 C1255 1.369 . S
C1254 C1256 1.419 . S
C1254 H1258 0.930 . S
C1255 C1254 1.369 . S
C1255 C1264 1.429 . S
C1256 C1254 1.419 . S
C1256 C1257 1.363 . S
C1256 H1259 0.929 . S
C1257 C1256 1.363 . S
C1257 C1263 1.428 . S
H1258 C1254 0.930 . S
H1259 C1256 0.929 . S
S1260 N1261 1.613 . S
S1260 N1262 1.610 . S
N1261 S1260 1.613 . S
N1261 C1264 1.350 . S
N1262 S1260 1.610 . S
N1262 C1263 1.351 . S
C1263 C1257 1.428 . S
C1263 N1262 1.351 . S
C1263 C1264 1.434 . S
C1264 C1255 1.429 . S
C1264 N1261 1.350 . S
C1264 C1263 1.434 . S
C1265 C1266 1.369 . S
C1265 C1267 1.419 1_655 S
C1265 H1269 0.930 . S
C1266 C1265 1.369 . S
C1266 C1275 1.429 . S
C1267 C1265 1.419 1_455 S
C1267 C1268 1.363 . S
C1267 H1270 0.929 . S
C1268 C1267 1.363 . S
C1268 C1274 1.428 . S
H1269 C1265 0.930 . S
H1270 C1267 0.929 . S
S1271 N1272 1.613 1_455 S
S1271 N1273 1.610 . S
N1272 S1271 1.613 1_655 S
N1272 C1275 1.350 . S
N1273 S1271 1.610 . S
N1273 C1274 1.351 . S
C1274 C1268 1.428 . S
C1274 N1273 1.351 . S
C1274 C1275 1.434 1_455 S
C1275 C1266 1.429 . S
C1275 N1272 1.350 . S
C1275 C1274 1.434 1_655 S
C1276 C1277 1.321 1_556 S
C1276 C1278 1.461 . S
C1276 H1280 0.937 . S
C1277 C1276 1.321 1_554 S
C1277 C1286 1.429 1_545 S
C1278 C1276 1.461 . S
C1278 C1279 1.363 1_545 S
C1278 H1281 0.929 . S
C1279 C1278 1.363 1_565 S
C1279 C1285 1.428 1_556 S
H1280 C1276 0.937 . S
H1281 C1278 0.929 . S
S1282 N1283 1.613 . S
S1282 N1284 1.610 . S
N1283 S1282 1.613 . S
N1283 C1286 1.350 . S
N1284 S1282 1.610 . S
N1284 C1285 1.351 . S
C1285 C1279 1.428 1_554 S
C1285 N1284 1.351 . S
C1285 C1286 1.434 . S
C1286 C1277 1.429 1_565 S
C1286 N1283 1.350 . S
C1286 C1285 1.434 . S
C1287 C1288 1.369 . S
C1287 C1289 1.419 . S
C1287 H1291 0.930 . S
C1288 C1287 1.369 . S
C1288 C1297 1.429 . S
C1289 C1287 1.419 . S
C1289 C1290 1.363 . S
C1289 H1292 0.929 . S
C1290 C1289 1.363 . S
C1290 C1296 1.428 . S
H1291 C1287 0.930 . S
H1292 C1289 0.929 . S
S1293 N1294 1.613 . S
S1293 N1295 1.610 . S
N1294 S1293 1.613 . S
N1294 C1297 1.350 . S
N1295 S1293 1.610 . S
N1295 C1296 1.351 . S
C1296 C1290 1.428 . S
C1296 N1295 1.351 . S
C1296 C1297 1.434 . S
C1297 C1288 1.429 . S
C1297 N1294 1.350 . S
C1297 C1296 1.434 . S
C1298 C1299 1.369 . S
C1298 C1300 1.419 1_455 S
C1298 H1302 0.930 . S
C1299 C1298 1.369 . S
C1299 C1308 1.429 . S
C1300 C1298 1.419 1_655 S
C1300 C1301 1.363 . S
C1300 H1303 0.929 . S
C1301 C1300 1.363 . S
C1301 C1307 1.428 . S
H1302 C1298 0.930 . S
H1303 C1300 0.929 . S
S1304 N1305 1.613 . S
S1304 N1306 1.610 1_455 S
N1305 S1304 1.613 . S
N1305 C1308 1.350 . S
N1306 S1304 1.610 1_655 S
N1306 C1307 1.351 . S
C1307 C1301 1.428 . S
C1307 N1306 1.351 . S
C1307 C1308 1.434 1_655 S
C1308 C1299 1.429 . S
C1308 N1305 1.350 . S
C1308 C1307 1.434 1_455 S
C1309 C1310 1.353 1_556 S
C1309 C1311 1.433 . S
C1309 H1313 0.932 . S
C1310 C1309 1.353 1_554 S
C1310 C1319 1.429 1_565 S
C1311 C1309 1.433 . S
C1311 C1312 1.363 1_565 S
C1311 H1314 0.929 . S
C1312 C1311 1.363 1_545 S
C1312 C1318 1.428 1_556 S
H1313 C1309 0.932 . S
H1314 C1311 0.929 . S
S1315 N1316 1.613 . S
S1315 N1317 1.610 . S
N1316 S1315 1.613 . S
N1316 C1319 1.350 . S
N1317 S1315 1.610 . S
N1317 C1318 1.351 . S
C1318 C1312 1.428 1_554 S
C1318 N1317 1.351 . S
C1318 C1319 1.434 . S
C1319 C1310 1.429 1_545 S
C1319 N1316 1.350 . S
C1319 C1318 1.434 . S
C1057 C1017 1.810 . S
C1059 C20 1.809 . S
C1068 C108 1.804 . S
C1070 C585 1.805 . S
C1079 C205 1.807 . S
C1081 C673 1.807 . S
C1090 C284 1.804 . S
C1092 C761 1.805 . S
C1101 C841 1.809 . S
C1103 C372 1.809 . S
C1112 C469 1.810 . S
C1114 C937 1.809 . S
C1123 C313 2.011 . S
C1125 C49 2.019 . S
C1134 C401 2.017 . S
C1136 C137 2.011 . S
C1145 C497 2.019 . S
C1147 C233 2.011 . S
C1156 C557 2.019 . S
C1158 C812 2.011 . S
C1167 C645 2.016 . S
C1169 C909 2.016 . S
C1178 C733 2.014 . S
C1180 C988 2.014 . S
C1189 C724 0.327 . S
C1191 C57 0.298 . S
C1200 C145 0.315 . S
C1202 C821 0.304 . S
C1211 C900 0.294 . S
C1213 C225 0.323 . S
C1222 C997 0.305 . S
C1224 C321 0.312 . S
C1233 C548 0.315 . S
C1235 C409 0.304 . S
C1244 C489 0.295 . S
C1246 C636 0.321 . S
C1255 C849 1.775 . S
C1257 C29 1.782 . S
C1266 C117 1.777 . S
C1268 C929 1.780 . S
C1277 C1025 1.775 . S
C1279 C196 1.782 . S
C1288 C293 1.781 . S
C1290 C577 1.779 . S
C1299 C381 1.782 . S
C1301 C665 1.778 . S
C1310 C753 1.775 . S
C1312 C460 1.782 . S
