# Generated by pormake.
# Topology zfk, (5)-cn, num edge types: 1
# Building blocks:
#     Node 0, Type 0, BuildingBlock: BEQFEK_clean_sbu_0, # of connection points: 5
#     Node 1, Type 0, BuildingBlock: BEQFEK_clean_sbu_0, # of connection points: 5
#     Node 2, Type 0, BuildingBlock: BEQFEK_clean_sbu_0, # of connection points: 5
#     Node 3, Type 0, BuildingBlock: BEQFEK_clean_sbu_0, # of connection points: 5
#     Node 4, Type 0, BuildingBlock: BEQFEK_clean_sbu_0, # of connection points: 5
#     Node 5, Type 0, BuildingBlock: BEQFEK_clean_sbu_0, # of connection points: 5
#     Node 6, Type 0, BuildingBlock: BEQFEK_clean_sbu_0, # of connection points: 5
#     Node 7, Type 0, BuildingBlock: BEQFEK_clean_sbu_0, # of connection points: 5
#     Node 8, Type 0, BuildingBlock: BEQFEK_clean_sbu_0, # of connection points: 5
#     Node 9, Type 0, BuildingBlock: BEQFEK_clean_sbu_0, # of connection points: 5
#     Node 10, Type 0, BuildingBlock: BEQFEK_clean_sbu_0, # of connection points: 5
#     Node 11, Type 0, BuildingBlock: BEQFEK_clean_sbu_0, # of connection points: 5
#     Node 12, Type 0, BuildingBlock: BEQFEK_clean_sbu_0, # of connection points: 5
#     Node 13, Type 0, BuildingBlock: BEQFEK_clean_sbu_0, # of connection points: 5
#     Node 14, Type 0, BuildingBlock: BEQFEK_clean_sbu_0, # of connection points: 5
#     Node 15, Type 0, BuildingBlock: BEQFEK_clean_sbu_0, # of connection points: 5
#     Edge 16, Type (0, 0), BuildingBlock: MIFKUJ_clean_linker_0, # of connection points: 2
#     Edge 17, Type (0, 0), BuildingBlock: MIFKUJ_clean_linker_0, # of connection points: 2
#     Edge 18, Type (0, 0), BuildingBlock: MIFKUJ_clean_linker_0, # of connection points: 2
#     Edge 19, Type (0, 0), BuildingBlock: MIFKUJ_clean_linker_0, # of connection points: 2
#     Edge 20, Type (0, 0), BuildingBlock: MIFKUJ_clean_linker_0, # of connection points: 2
#     Edge 21, Type (0, 0), BuildingBlock: MIFKUJ_clean_linker_0, # of connection points: 2
#     Edge 22, Type (0, 0), BuildingBlock: MIFKUJ_clean_linker_0, # of connection points: 2
#     Edge 23, Type (0, 0), BuildingBlock: MIFKUJ_clean_linker_0, # of connection points: 2
#     Edge 24, Type (0, 0), BuildingBlock: MIFKUJ_clean_linker_0, # of connection points: 2
#     Edge 25, Type (0, 0), BuildingBlock: MIFKUJ_clean_linker_0, # of connection points: 2
#     Edge 26, Type (0, 0), BuildingBlock: MIFKUJ_clean_linker_0, # of connection points: 2
#     Edge 27, Type (0, 0), BuildingBlock: MIFKUJ_clean_linker_0, # of connection points: 2
#     Edge 28, Type (0, 0), BuildingBlock: MIFKUJ_clean_linker_0, # of connection points: 2
#     Edge 29, Type (0, 0), BuildingBlock: MIFKUJ_clean_linker_0, # of connection points: 2
#     Edge 30, Type (0, 0), BuildingBlock: MIFKUJ_clean_linker_0, # of connection points: 2
#     Edge 31, Type (0, 0), BuildingBlock: MIFKUJ_clean_linker_0, # of connection points: 2
#     Edge 32, Type (0, 0), BuildingBlock: MIFKUJ_clean_linker_0, # of connection points: 2
#     Edge 33, Type (0, 0), BuildingBlock: MIFKUJ_clean_linker_0, # of connection points: 2
#     Edge 34, Type (0, 0), BuildingBlock: MIFKUJ_clean_linker_0, # of connection points: 2
#     Edge 35, Type (0, 0), BuildingBlock: MIFKUJ_clean_linker_0, # of connection points: 2
#     Edge 36, Type (0, 0), BuildingBlock: MIFKUJ_clean_linker_0, # of connection points: 2
#     Edge 37, Type (0, 0), BuildingBlock: MIFKUJ_clean_linker_0, # of connection points: 2
#     Edge 38, Type (0, 0), BuildingBlock: MIFKUJ_clean_linker_0, # of connection points: 2
#     Edge 39, Type (0, 0), BuildingBlock: MIFKUJ_clean_linker_0, # of connection points: 2
#     Edge 40, Type (0, 0), BuildingBlock: MIFKUJ_clean_linker_0, # of connection points: 2
#     Edge 41, Type (0, 0), BuildingBlock: MIFKUJ_clean_linker_0, # of connection points: 2
#     Edge 42, Type (0, 0), BuildingBlock: MIFKUJ_clean_linker_0, # of connection points: 2
#     Edge 43, Type (0, 0), BuildingBlock: MIFKUJ_clean_linker_0, # of connection points: 2
#     Edge 44, Type (0, 0), BuildingBlock: MIFKUJ_clean_linker_0, # of connection points: 2
#     Edge 45, Type (0, 0), BuildingBlock: MIFKUJ_clean_linker_0, # of connection points: 2
#     Edge 46, Type (0, 0), BuildingBlock: MIFKUJ_clean_linker_0, # of connection points: 2
#     Edge 47, Type (0, 0), BuildingBlock: MIFKUJ_clean_linker_0, # of connection points: 2
#     Edge 48, Type (0, 0), BuildingBlock: MIFKUJ_clean_linker_0, # of connection points: 2
#     Edge 49, Type (0, 0), BuildingBlock: MIFKUJ_clean_linker_0, # of connection points: 2
#     Edge 50, Type (0, 0), BuildingBlock: MIFKUJ_clean_linker_0, # of connection points: 2
#     Edge 51, Type (0, 0), BuildingBlock: MIFKUJ_clean_linker_0, # of connection points: 2
#     Edge 52, Type (0, 0), BuildingBlock: MIFKUJ_clean_linker_0, # of connection points: 2
#     Edge 53, Type (0, 0), BuildingBlock: MIFKUJ_clean_linker_0, # of connection points: 2
#     Edge 54, Type (0, 0), BuildingBlock: MIFKUJ_clean_linker_0, # of connection points: 2
#     Edge 55, Type (0, 0), BuildingBlock: MIFKUJ_clean_linker_0, # of connection points: 2
# Relax obj value: 0.179
# Max RMSD: 0.142
# Mean RMSD: 0.142
data_MOF--net-zfk--node1-BEQFEK_clean_sbu_0--edge1-MIFKUJ_clean_linker_0
_symmetry_space_group_name_H-M    P1
_symmetry_Int_Tables_number       1
_symmetry_cell_setting            triclinic
loop_
_symmetry_equiv_pos_as_xyz
'x, y, z'
_cell_length_a     39.294127
_cell_length_b     39.349508
_cell_length_c     91.794886
_cell_angle_alpha  90.016806
_cell_angle_beta   90.042221
_cell_angle_gamma 89.986823
loop_
_atom_site_label
_atom_site_type_symbol
_atom_site_fract_x
_atom_site_fract_y
_atom_site_fract_z
_atom_type_partial_charge
Co0 Co 0.02911 0.34182 0.10068 0.0
Co1 Co 0.05079 0.34588 0.13422 0.0
C2 C 0.99785 0.29773 0.12442 0.0
O3 O 0.00158 0.30802 0.11133 0.0
O4 O 0.01453 0.31089 0.13496 0.0
C5 C 0.98864 0.32871 0.07463 0.0
O6 O 0.96547 0.31798 0.08385 0.0
C7 C 0.05549 0.3576 0.16668 0.0
C8 C 0.10815 0.37706 0.16792 0.0
C9 C 0.07977 0.37031 0.17636 0.0
N10 N 0.06902 0.35729 0.15316 0.0
N11 N 0.10064 0.36855 0.15411 0.0
C12 C 0.01949 0.34816 0.17 0.0
H13 H 0.00346 0.35068 0.16009 0.0
H14 H 0.00923 0.36433 0.17888 0.0
H15 H 0.01871 0.32128 0.17363 0.0
C16 C 0.01884 0.41553 0.10563 0.0
N17 N 0.02739 0.38423 0.11029 0.0
N18 N 0.03565 0.38569 0.1242 0.0
C19 C 0.03223 0.41797 0.12885 0.0
C20 C 0.02146 0.4379 0.11726 0.0
C21 C 0.00808 0.42345 0.09038 0.0
H22 H 0.98833 0.40504 0.08686 0.0
H23 H 0.998 0.44971 0.08944 0.0
H24 H 0.03025 0.42042 0.08301 0.0
O25 O 0.07569 0.32401 0.10045 0.0
O26 O 0.0892 0.32392 0.12391 0.0
H27 H 0.0689 0.42516 0.14574 0.0
H28 H 0.03655 0.45722 0.14549 0.0
C29 C 0.04145 0.42977 0.14386 0.0
H30 H 0.02676 0.41504 0.152 0.0
H31 H 0.11692 0.37119 0.1452 0.0
O32 O 0.01574 0.34227 0.07956 0.0
C33 C 0.09618 0.31691 0.11071 0.0
Co34 Co 0.15087 0.03447 0.59853 0.0
Co35 Co 0.14194 0.05554 0.63173 0.0
C36 C 0.20812 0.03175 0.62116 0.0
O37 O 0.19487 0.02899 0.60854 0.0
O38 O 0.19044 0.04067 0.63219 0.0
C39 C 0.17465 0.99092 0.57516 0.0
O40 O 0.18747 0.97239 0.58573 0.0
C41 C 0.13082 0.06134 0.66421 0.0
C42 C 0.09127 0.10129 0.66412 0.0
C43 C 0.10949 0.08018 0.67333 0.0
N44 N 0.12494 0.07085 0.65031 0.0
N45 N 0.10156 0.095 0.65045 0.0
C46 C 0.15433 0.03312 0.66839 0.0
H47 H 0.15899 0.01617 0.65893 0.0
H48 H 0.14359 0.01832 0.6776 0.0
H49 H 0.17904 0.04407 0.67189 0.0
C50 C 0.08815 0.99636 0.60524 0.0
N51 N 0.11552 0.01442 0.60943 0.0
N52 N 0.11278 0.02183 0.62338 0.0
C53 C 0.08394 0.00789 0.62857 0.0
C54 C 0.06703 0.99168 0.6172 0.0
C55 C 0.0807 0.98732 0.58974 0.0
H56 H 0.10279 0.97358 0.58506 0.0
H57 H 0.0576 0.97123 0.58883 0.0
H58 H 0.07713 0.01098 0.58333 0.0
O59 O 0.14331 0.08335 0.59644 0.0
O60 O 0.14061 0.09738 0.61978 0.0
H61 H 0.06119 0.04159 0.64394 0.0
H62 H 0.04869 -0.0019 0.64636 0.0
C63 C 0.07018 0.01494 0.64347 0.0
H64 H 0.0906 0.01139 0.65164 0.0
H65 H 0.09199 0.10672 0.6411 0.0
O66 O 0.15633 0.01655 0.57833 0.0
C67 C 0.14071 0.10564 0.60639 0.0
Co68 Co 0.47032 0.14711 0.10124 0.0
Co69 Co 0.44603 0.14016 0.13426 0.0
C70 C 0.47169 0.20528 0.12319 0.0
O71 O 0.47523 0.19152 0.11074 0.0
O72 O 0.4617 0.18826 0.13422 0.0
C73 C 0.51319 0.17287 0.07825 0.0
O74 O 0.52846 0.18875 0.08901 0.0
C75 C 0.43857 0.13192 0.16694 0.0
C76 C 0.39345 0.09846 0.16718 0.0
C77 C 0.4163 0.1148 0.17627 0.0
N78 N 0.42917 0.12558 0.15304 0.0
N79 N 0.40216 0.10559 0.15338 0.0
C80 C 0.46728 0.15493 0.17106 0.0
H81 H 0.46078 0.16963 0.181 0.0
H82 H 0.47339 0.17249 0.16199 0.0
H83 H 0.4902 0.13938 0.1734 0.0
C84 C 0.50876 0.08553 0.10956 0.0
N85 N 0.4895 0.1126 0.11303 0.0
N86 N 0.47996 0.11013 0.12675 0.0
C87 C 0.49308 0.08147 0.13246 0.0
C88 C 0.51166 0.06472 0.12174 0.0
C89 C 0.52104 0.07821 0.09446 0.0
H90 H 0.53348 0.10119 0.08993 0.0
H91 H 0.53926 0.05665 0.09434 0.0
H92 H 0.49891 0.0721 0.08742 0.0
O93 O 0.42141 0.13949 0.09857 0.0
O94 O 0.40517 0.13826 0.12168 0.0
H95 H 0.45523 0.06217 0.14696 0.0
H96 H 0.49661 0.04425 0.15002 0.0
C97 C 0.48288 0.06777 0.14705 0.0
H98 H 0.48788 0.08724 0.1555 0.0
H99 H 0.38956 0.09673 0.14412 0.0
O100 O 0.48976 0.15158 0.08117 0.0
C101 C 0.39817 0.13753 0.10815 0.0
Co102 Co 0.33352 0.47981 0.60679 0.0
Co103 Co 0.34766 0.45104 0.6388 0.0
C104 C 0.28737 0.49413 0.63261 0.0
O105 O 0.2965 0.49737 0.61935 0.0
O106 O 0.3051 0.47724 0.64175 0.0
C107 C 0.29759 0.49665 0.58159 0.0
O108 O 0.2735 0.48563 0.59031 0.0
C109 C 0.36414 0.44306 0.67063 0.0
C110 C 0.39331 0.3951 0.66984 0.0
C111 C 0.38208 0.42007 0.67932 0.0
N112 N 0.36508 0.43205 0.65671 0.0
N113 N 0.3823 0.40321 0.65641 0.0
C114 C 0.34855 0.47606 0.67516 0.0
H115 H 0.34691 0.49362 0.66572 0.0
H116 H 0.36361 0.48794 0.68404 0.0
H117 H 0.32239 0.4713 0.67922 0.0
C118 C 0.40506 0.50279 0.61065 0.0
N119 N 0.37638 0.488 0.6156 0.0
N120 N 0.38145 0.47741 0.62906 0.0
C121 C 0.41324 0.48584 0.63316 0.0
C122 C 0.42921 0.50222 0.62169 0.0
C123 C 0.40943 0.51586 0.59548 0.0
H124 H 0.38863 0.53401 0.59295 0.0
H125 H 0.43444 0.52856 0.59407 0.0
H126 H 0.40728 0.49437 0.58771 0.0
O127 O 0.32508 0.43092 0.60473 0.0
O128 O 0.33428 0.41112 0.62699 0.0
H129 H 0.45488 0.48644 0.64878 0.0
H130 H 0.41273 0.48408 0.65645 0.0
C131 C 0.4291 0.47555 0.64733 0.0
H132 H 0.43114 0.44748 0.64773 0.0
H133 H 0.38707 0.38932 0.64695 0.0
O134 O 0.32794 0.49835 0.58649 0.0
C135 C 0.32559 0.40651 0.61378 0.0
Co136 Co 0.0198 0.17025 0.90277 0.0
Co137 Co 0.03777 0.1585 0.86922 0.0
C138 C 0.99591 0.21672 0.87809 0.0
O139 O -0.0018 0.20712 0.89134 0.0
O140 O 0.00973 0.20003 0.86774 0.0
C141 C 0.9817 0.19175 0.92869 0.0
O142 O 0.95791 0.2015 0.91954 0.0
C143 C 0.04567 0.14574 0.83676 0.0
C144 C 0.08878 0.10977 0.83781 0.0
C145 C 0.0675 0.12626 0.82809 0.0
N146 N 0.0538 0.14052 0.85089 0.0
N147 N 0.07964 0.11905 0.85132 0.0
C148 C 0.01915 0.1704 0.83179 0.0
H149 H 0.01467 0.19008 0.8402 0.0
H150 H 0.99494 0.15657 0.82991 0.0
H151 H 0.02697 0.18276 0.82145 0.0
C152 C 0.00027 0.09725 0.89977 0.0
N153 N 0.01025 0.1274 0.89426 0.0
N154 N 0.01519 0.12405 0.88012 0.0
C155 C 0.00705 0.09223 0.87612 0.0
C156 C -0.0018 0.0738 0.88844 0.0
C157 C 0.99621 0.0904 0.9157 0.0
H158 H 0.0108 0.10918 0.9222 0.0
H159 H 0.9689 0.0926 0.91861 0.0
H160 H 0.00488 0.06432 0.91843 0.0
O161 O 0.06878 0.17858 0.90245 0.0
O162 O 0.08049 0.17208 0.87903 0.0
H163 H 0.03235 0.07143 0.8575 0.0
H164 H 0.98866 0.05842 0.85935 0.0
C165 C 0.00654 0.08003 0.86066 0.0
H166 H -0.00129 0.10097 0.8533 0.0
H167 H 0.09121 0.11083 0.86093 0.0
O168 O 0.00764 0.17596 0.92386 0.0
C169 C 0.08976 0.17908 0.89196 0.0
Co170 Co 0.33755 0.02291 0.40595 0.0
Co171 Co 0.35037 0.04454 0.37303 0.0
C172 C 0.28751 0.00785 0.38168 0.0
O173 O 0.29807 0.00658 0.39479 0.0
O174 O 0.30496 0.02183 0.37158 0.0
C175 C 0.31946 0.98112 0.43142 0.0
O176 O 0.31261 0.9564 0.42225 0.0
C177 C 0.36303 0.04949 0.34067 0.0
C178 C 0.40014 0.09168 0.34066 0.0
C179 C 0.38338 0.06925 0.33154 0.0
N180 N 0.36792 0.0598 0.35453 0.0
N181 N 0.38985 0.08527 0.35434 0.0
C182 C 0.34095 0.02016 0.33646 0.0
H183 H 0.3152 0.02977 0.33369 0.0
H184 H 0.33853 0.00215 0.34571 0.0
H185 H 0.35148 0.00689 0.32679 0.0
C186 C 0.40679 0.99514 0.40235 0.0
N187 N 0.37833 0.00926 0.39691 0.0
N188 N 0.38319 0.01697 0.38309 0.0
C189 C 0.41485 0.00726 0.37926 0.0
C190 C 0.431 0.9934 0.39137 0.0
C191 C 0.41132 0.986 0.41805 0.0
H192 H 0.39023 0.96911 0.4215 0.0
H193 H 0.43598 0.973 0.41998 0.0
H194 H 0.40996 0.00942 0.42476 0.0
O195 O 0.33497 0.07259 0.40681 0.0
O196 O 0.34279 0.08741 0.3838 0.0
H197 H 0.43735 0.04299 0.36467 0.0
H198 H 0.45448 0.00101 0.36292 0.0
C199 C 0.43086 0.0156 0.36489 0.0
H200 H 0.41271 0.01009 0.35596 0.0
H201 H 0.39825 0.09799 0.36365 0.0
O202 O 0.33204 0.00877 0.42667 0.0
C203 C 0.33709 0.09524 0.39701 0.0
Co204 Co 0.48246 0.34016 0.9092 0.0
Co205 Co 0.47029 0.3536 0.87533 0.0
C206 C 0.50324 0.29034 0.88518 0.0
O207 O 0.50055 0.30058 0.89831 0.0
O208 O 0.49339 0.30856 0.87445 0.0
C209 C 0.52166 0.32327 0.93543 0.0
O210 O 0.54787 0.31978 0.92668 0.0
C211 C 0.46228 0.36478 0.84266 0.0
C212 C 0.42626 0.40783 0.84361 0.0
C213 C 0.44313 0.38682 0.83391 0.0
N214 N 0.45693 0.37293 0.85679 0.0
N215 N 0.43527 0.39859 0.85714 0.0
C216 C 0.48272 0.33479 0.83782 0.0
H217 H 0.48522 0.31605 0.84676 0.0
H218 H 0.50857 0.34345 0.83469 0.0
H219 H 0.4707 0.32248 0.82823 0.0
C220 C 0.50709 0.41093 0.90733 0.0
N221 N 0.49746 0.38158 0.90102 0.0
N222 N 0.4951 0.38609 0.88683 0.0
C223 C 0.50499 0.41807 0.88369 0.0
C224 C 0.51226 0.43512 0.89655 0.0
C225 C 0.50696 0.41669 0.92343 0.0
H226 H 0.48151 0.41019 0.92787 0.0
H227 H 0.52573 0.39941 0.92861 0.0
H228 H 0.51339 0.4434 0.9262 0.0
O229 O 0.43287 0.33727 0.90814 0.0
O230 O 0.4257 0.34395 0.88439 0.0
H231 H 0.47841 0.4461 0.86733 0.0
H232 H 0.52326 0.45389 0.86782 0.0
C233 C 0.50355 0.43384 0.86888 0.0
H234 H 0.50766 0.4144 0.86032 0.0
H235 H 0.42606 0.40947 0.86673 0.0
O236 O 0.49344 0.33364 0.93028 0.0
C237 C 0.41371 0.33826 0.89702 0.0
Co238 Co 0.1653 0.47749 0.40484 0.0
Co239 Co 0.15113 0.45318 0.37202 0.0
C240 C 0.21589 0.48631 0.37988 0.0
O241 O 0.2055 0.48945 0.39296 0.0
O242 O 0.19722 0.47321 0.36998 0.0
C243 C 0.20228 0.48977 0.43019 0.0
O244 O 0.22451 0.47459 0.42171 0.0
C245 C 0.13828 0.44236 0.33969 0.0
C246 C 0.09969 0.40176 0.34128 0.0
C247 C 0.11757 0.42107 0.33125 0.0
N248 N 0.13238 0.43586 0.35393 0.0
N249 N 0.10935 0.41147 0.35468 0.0
C250 C 0.16447 0.46701 0.33442 0.0
H251 H 0.18354 0.47219 0.34301 0.0
H252 H 0.15179 0.49131 0.33156 0.0
H253 H 0.17746 0.45699 0.32458 0.0
C254 C 0.09707 0.50774 0.40039 0.0
N255 N 0.12498 0.49178 0.39535 0.0
N256 N 0.12008 0.48334 0.3816 0.0
C257 C 0.08923 0.49461 0.37739 0.0
C258 C 0.07342 0.51011 0.38918 0.0
C259 C 0.09229 0.51798 0.41594 0.0
H260 H 0.08997 0.4948 0.42275 0.0
H261 H 0.11502 0.53217 0.41974 0.0
H262 H 0.06922 0.53393 0.41733 0.0
O263 O 0.16599 0.42794 0.40683 0.0
O264 O 0.15845 0.41191 0.3839 0.0
H265 H 0.06432 0.46005 0.36296 0.0
H266 H 0.05162 0.50345 0.36047 0.0
C267 C 0.0735 0.48669 0.36291 0.0
H268 H 0.09272 0.48966 0.35418 0.0
H269 H 0.10027 0.4013 0.36443 0.0
O270 O 0.17255 0.49558 0.42516 0.0
C271 C 0.16401 0.4048 0.39722 0.0
Co272 Co 0.96535 0.65458 0.91439 0.0
Co273 Co 0.9457 0.64502 0.88087 0.0
C274 C 0.96908 0.71101 0.89151 0.0
O275 O 0.97079 0.69836 0.90426 0.0
O276 O 0.96149 0.69298 0.88042 0.0
C277 C 0.00719 0.68104 0.93766 0.0
O278 O 0.0237 0.69558 0.9269 0.0
C279 C 0.93919 0.63493 0.84819 0.0
C280 C 0.89973 0.59499 0.84825 0.0
C281 C 0.91981 0.61416 0.83897 0.0
N282 N 0.93089 0.62782 0.86215 0.0
N283 N 0.90717 0.60403 0.86198 0.0
C284 C 0.96409 0.66187 0.84394 0.0
H285 H 0.96787 0.68017 0.85297 0.0
H286 H 0.98896 0.64983 0.84147 0.0
H287 H 0.95512 0.67557 0.83409 0.0
C288 C 0.00247 0.59095 0.90816 0.0
N289 N 0.98534 0.61866 0.90369 0.0
N290 N 0.97853 0.61568 0.88969 0.0
C291 C 0.99202 0.58641 0.88475 0.0
C292 C 0.00712 0.56932 0.89635 0.0
C293 C 0.01052 0.58372 0.92379 0.0
H294 H 0.98643 0.58006 0.92989 0.0
H295 H 0.02383 0.60588 0.92861 0.0
H296 H 0.02668 0.56072 0.92492 0.0
O297 O 0.91626 0.6478 0.91609 0.0
O298 O 0.90325 0.64527 0.8926 0.0
H299 H 0.95899 0.56293 0.8693 0.0
H300 H 0.00284 0.55164 0.86689 0.0
C301 C 0.98541 0.57263 0.8698 0.0
H302 H 0.98845 0.59315 0.86166 0.0
H303 H 0.8961 0.59379 0.87133 0.0
O304 O 0.98307 0.66055 0.93471 0.0
C305 C 0.89436 0.64592 0.90593 0.0
Co306 Co 0.83228 0.9654 0.41108 0.0
Co307 Co 0.84458 0.94388 0.37798 0.0
C308 C 0.78803 0.98994 0.38602 0.0
O309 O 0.7969 0.98867 0.39939 0.0
O310 O 0.80446 0.97409 0.37613 0.0
C311 C 0.82392 0.0069 0.43826 0.0
O312 O 0.82873 0.03479 0.43068 0.0
C313 C 0.85956 0.93717 0.34569 0.0
C314 C 0.88791 0.88872 0.34635 0.0
C315 C 0.87642 0.91356 0.33686 0.0
N316 N 0.86151 0.92661 0.35967 0.0
N317 N 0.87841 0.89759 0.35987 0.0
C318 C 0.84051 0.96816 0.34096 0.0
H319 H 0.82138 0.97551 0.34923 0.0
H320 H 0.85869 0.98952 0.33966 0.0
H321 H 0.82768 0.96364 0.33036 0.0
C322 C 0.90551 0.98454 0.40817 0.0
N323 N 0.8759 0.97265 0.40277 0.0
N324 N 0.88007 0.9652 0.38887 0.0
C325 C 0.91209 0.97305 0.38492 0.0
C326 C 0.9293 0.98549 0.39699 0.0
C327 C 0.91068 0.99477 0.4237 0.0
H328 H 0.89829 0.97603 0.43101 0.0
H329 H 0.89833 0.01976 0.42553 0.0
H330 H 0.93811 0.99701 0.42642 0.0
O331 O 0.82082 0.91688 0.41105 0.0
O332 O 0.828 0.9026 0.38794 0.0
H333 H 0.92939 0.93876 0.3685 0.0
H334 H 0.95181 0.97844 0.36858 0.0
C335 C 0.92653 0.96653 0.37009 0.0
H336 H 0.90885 0.97643 0.36169 0.0
H337 H 0.88347 0.88373 0.36932 0.0
O338 O 0.82647 0.9781 0.43206 0.0
C339 C 0.81946 0.89504 0.40089 0.0
Co340 Co 0.50984 0.83235 0.91043 0.0
Co341 Co 0.53541 0.84467 0.87789 0.0
C342 C 0.48813 0.78839 0.88467 0.0
O343 O 0.48777 0.7975 0.898 0.0
O344 O 0.50532 0.80463 0.87516 0.0
C345 C 0.47743 0.80106 0.9351 0.0
O346 O 0.46821 0.77892 0.92515 0.0
C347 C 0.54357 0.85762 0.8459 0.0
C348 C 0.59071 0.88823 0.84621 0.0
C349 C 0.56631 0.87495 0.83694 0.0
N350 N 0.55409 0.86083 0.85981 0.0
N351 N 0.58247 0.87885 0.85984 0.0
C352 C 0.51148 0.83999 0.84149 0.0
H353 H 0.49244 0.84154 0.85039 0.0
H354 H 0.50088 0.8513 0.83138 0.0
H355 H 0.51713 0.81278 0.83944 0.0
C356 C 0.49334 0.90618 0.9074 0.0
N357 N 0.5044 0.87626 0.90201 0.0
N358 N 0.51326 0.88054 0.88828 0.0
C359 C 0.50727 0.91305 0.88444 0.0
C360 C 0.49462 0.93049 0.89642 0.0
C361 C 0.48277 0.91139 0.92288 0.0
H362 H 0.46499 0.89089 0.92617 0.0
H363 H 0.47047 0.93653 0.92443 0.0
H364 H 0.50555 0.90963 0.93 0.0
O365 O 0.55818 0.81963 0.91146 0.0
O366 O 0.57551 0.82802 0.88877 0.0
H367 H 0.5447 0.93055 0.86937 0.0
H368 H 0.50528 0.95318 0.86814 0.0
C369 C 0.51667 0.92782 0.86995 0.0
H370 H 0.5082 0.91055 0.86113 0.0
H371 H 0.59603 0.88513 0.86924 0.0
O372 O 0.49348 0.8277 0.93116 0.0
C373 C 0.5813 0.81866 0.9018 0.0
Co374 Co 0.65965 0.50858 0.41154 0.0
Co375 Co 0.64443 0.53159 0.37884 0.0
C376 C 0.7117 0.50443 0.3868 0.0
O377 O 0.70151 0.50053 0.3999 0.0
O378 O 0.69211 0.51593 0.37686 0.0
C379 C 0.69314 0.47517 0.43584 0.0
O380 O 0.7155 0.46653 0.42588 0.0
C381 C 0.63176 0.54029 0.34669 0.0
C382 C 0.5884 0.576 0.34764 0.0
C383 C 0.6088 0.55821 0.338 0.0
N384 N 0.62487 0.54715 0.36079 0.0
N385 N 0.59915 0.56878 0.36118 0.0
C386 C 0.65831 0.51557 0.34184 0.0
H387 H 0.66312 0.49646 0.35049 0.0
H388 H 0.65038 0.50268 0.33163 0.0
H389 H 0.68237 0.52949 0.33974 0.0
C390 C 0.59447 0.47224 0.40658 0.0
N391 N 0.62117 0.49049 0.40177 0.0
N392 N 0.61629 0.49823 0.38796 0.0
C393 C 0.5869 0.4841 0.38345 0.0
C394 C 0.57175 0.46754 0.39514 0.0
C395 C 0.58953 0.46227 0.42216 0.0
H396 H 0.61261 0.44891 0.42613 0.0
H397 H 0.56698 0.44557 0.4235 0.0
H398 H 0.5863 0.48552 0.42886 0.0
O399 O 0.65525 0.55813 0.41374 0.0
O400 O 0.64632 0.57315 0.39081 0.0
H401 H 0.55905 0.51576 0.36877 0.0
H402 H 0.55186 0.47122 0.366 0.0
C403 C 0.57137 0.49041 0.36879 0.0
H404 H 0.59138 0.48977 0.36031 0.0
H405 H 0.58858 0.57829 0.37078 0.0
O406 O 0.66632 0.49096 0.43193 0.0
C407 C 0.65054 0.5809 0.40413 0.0
Co408 Co 0.97758 0.84476 0.10711 0.0
Co409 Co 0.96145 0.85509 0.14076 0.0
C410 C 0.00079 0.79581 0.13092 0.0
O411 O -0.00123 0.80661 0.11785 0.0
O412 O 0.98745 0.81196 0.14154 0.0
C413 C 0.01763 0.83258 0.08026 0.0
O414 O 0.04515 0.83239 0.08839 0.0
C415 C 0.95804 0.86635 0.17328 0.0
C416 C 0.91526 0.90282 0.17383 0.0
C417 C 0.93814 0.88588 0.18269 0.0
N418 N 0.94735 0.87189 0.15951 0.0
N419 N 0.92158 0.89345 0.16002 0.0
C420 C 0.98752 0.84412 0.17715 0.0
H421 H 0.00568 0.84275 0.16791 0.0
H422 H 0.00062 0.85377 0.18704 0.0
H423 H 0.97807 0.81808 0.17941 0.0
C424 C 0.99567 0.91773 0.11029 0.0
N425 N 0.9885 0.88687 0.11587 0.0
N426 N 0.98498 0.88954 0.1301 0.0
C427 C 0.99168 0.92173 0.13407 0.0
C428 C 0.99752 0.94101 0.12167 0.0
C429 C 0.99551 0.92552 0.09434 0.0
H430 H 0.98164 0.90555 0.08822 0.0
H431 H 0.02216 0.92642 0.09038 0.0
H432 H 0.98361 0.95062 0.09222 0.0
O433 O 0.9284 0.83834 0.10765 0.0
O434 O 0.91746 0.84498 0.13114 0.0
H435 H 0.96565 0.94123 0.1528 0.0
H436 H 0.00819 0.95703 0.15058 0.0
C437 C 0.99181 0.93419 0.14949 0.0
H438 H 0.00128 0.91397 0.15686 0.0
H439 H 0.90847 0.9021 0.15085 0.0
O440 O 0.98902 0.83949 0.08602 0.0
C441 C 0.90757 0.83903 0.11819 0.0
Co442 Co 0.66803 0.97318 0.61018 0.0
Co443 Co 0.65568 0.94395 0.64228 0.0
C444 C 0.71389 0.98911 0.63602 0.0
O445 O 0.70431 0.99181 0.62281 0.0
O446 O 0.69743 0.9712 0.64519 0.0
C447 C 0.70018 0.00728 0.58607 0.0
O448 O 0.72286 0.01465 0.59609 0.0
C449 C 0.64177 0.93268 0.67427 0.0
C450 C 0.6107 0.88605 0.67268 0.0
C451 C 0.62388 0.90901 0.68264 0.0
N452 N 0.63873 0.92409 0.66008 0.0
N453 N 0.62024 0.8961 0.65931 0.0
C454 C 0.66255 0.96199 0.67962 0.0
H455 H 0.68284 0.96835 0.67173 0.0
H456 H 0.64584 0.98453 0.68085 0.0
H457 H 0.67424 0.95606 0.69033 0.0
C458 C 0.59522 0.9925 0.61424 0.0
N459 N 0.62494 0.97968 0.61912 0.0
N460 N 0.62097 0.96939 0.63269 0.0
C461 C 0.58897 0.97625 0.63696 0.0
C462 C 0.57135 0.99056 0.6254 0.0
C463 C 0.58923 0.00362 0.59887 0.0
H464 H 0.60588 0.98918 0.59134 0.0
H465 H 0.59561 0.031 0.59791 0.0
H466 H 0.56221 5e-05 0.59571 0.0
O467 O 0.67747 0.92451 0.60795 0.0
O468 O 0.66902 0.90438 0.63022 0.0
H469 H 0.56933 0.94266 0.65322 0.0
H470 H 0.55252 0.98527 0.6542 0.0
C471 C 0.57569 0.96997 0.65201 0.0
H472 H 0.5954 0.97672 0.66014 0.0
H473 H 0.61401 0.88387 0.64958 0.0
O474 O 0.67297 0.99194 0.58983 0.0
C475 C 0.67719 0.89997 0.61694 0.0
Co476 Co 0.51722 0.66537 0.1101 0.0
Co477 Co 0.53979 0.65172 0.14306 0.0
C478 C 0.49808 0.71155 0.13538 0.0
O479 O 0.49756 0.70237 0.12204 0.0
O480 O 0.51304 0.69391 0.14513 0.0
C481 C 0.47572 0.67218 0.08234 0.0
O482 O 0.44755 0.66401 0.08919 0.0
C483 C 0.54725 0.63663 0.17528 0.0
C484 C 0.59572 0.60823 0.17445 0.0
C485 C 0.57125 0.62011 0.18402 0.0
N486 N 0.5573 0.63428 0.16124 0.0
N487 N 0.58627 0.61724 0.16093 0.0
C488 C 0.51638 0.65567 0.18017 0.0
H489 H 0.5088 0.67479 0.17193 0.0
H490 H 0.49502 0.63752 0.18155 0.0
H491 H 0.52118 0.66837 0.19077 0.0
C492 C 0.49818 0.59233 0.11282 0.0
N493 N 0.50837 0.62224 0.11851 0.0
N494 N 0.51592 0.61779 0.1324 0.0
C495 C 0.50974 0.58532 0.13603 0.0
C496 C 0.49897 0.56794 0.12376 0.0
C497 C 0.49185 0.58654 0.09695 0.0
H498 H 0.50866 0.60314 0.09035 0.0
H499 H 0.46506 0.59326 0.09444 0.0
H500 H 0.49605 0.55954 0.09394 0.0
O501 O 0.56624 0.67365 0.10962 0.0
O502 O 0.58147 0.66485 0.13254 0.0
H503 H 0.5427 0.56572 0.15256 0.0
H504 H 0.50105 0.54653 0.15229 0.0
C505 C 0.51519 0.57074 0.15091 0.0
H506 H 0.50649 0.58908 0.15928 0.0
H507 H 0.59981 0.61193 0.15143 0.0
O508 O 0.50387 0.67217 0.0892 0.0
C509 C 0.58877 0.67298 0.11952 0.0
Co510 Co 0.83551 0.51032 0.61092 0.0
Co511 Co 0.85075 0.5397 0.64269 0.0
C512 C 0.78651 0.5029 0.6362 0.0
O513 O 0.79626 0.49765 0.62316 0.0
O514 O 0.80505 0.51885 0.64534 0.0
C515 C 0.79945 0.50054 0.58568 0.0
O516 O 0.77965 0.51949 0.59388 0.0
C517 C 0.86575 0.5471 0.67469 0.0
C518 C 0.89692 0.59378 0.67423 0.0
C519 C 0.8839 0.56948 0.68361 0.0
N520 N 0.86829 0.55782 0.66076 0.0
N521 N 0.88675 0.58588 0.66066 0.0
C522 C 0.84823 0.51496 0.67903 0.0
H523 H 0.84637 0.49744 0.66958 0.0
H524 H 0.86207 0.50241 0.6881 0.0
H525 H 0.82207 0.52105 0.68275 0.0
C526 C 0.90508 0.48299 0.6152 0.0
N527 N 0.87682 0.49835 0.62022 0.0
N528 N 0.88241 0.50928 0.6336 0.0
C529 C 0.91422 0.50048 0.63757 0.0
C530 C 0.92974 0.48366 0.62604 0.0
C531 C 0.90932 0.47104 0.59985 0.0
H532 H 0.88688 0.45568 0.5966 0.0
H533 H 0.93288 0.45574 0.59856 0.0
H534 H 0.91051 0.49343 0.59252 0.0
O535 O 0.83349 0.55967 0.60812 0.0
O536 O 0.8437 0.58017 0.63019 0.0
H537 H 0.95656 0.50116 0.65286 0.0
H538 H 0.91489 0.50602 0.66075 0.0
C539 C 0.93106 0.51255 0.65127 0.0
H540 H 0.9339 0.54055 0.65082 0.0
H541 H 0.89277 0.59946 0.65128 0.0
O542 O 0.82791 0.49083 0.59093 0.0
C543 C 0.83683 0.58462 0.61677 0.0
H544 H 0.92615 0.20882 0.94515 0.0
H545 H 0.92556 0.23224 0.96986 0.0
H546 H 0.03531 0.22782 0.9711 0.0
H547 H 0.03575 0.20255 0.94681 0.0
H548 H 0.01498 0.21173 0.99601 0.0
H549 H 0.98544 0.30492 0.96473 0.0
H550 H 0.95273 0.3355 0.94585 0.0
H551 H 0.86188 0.32582 0.97145 0.0
H552 H 0.89394 0.29493 0.9904 0.0
H553 H 0.03904 0.32915 0.054 0.0
H554 H 0.03613 0.30697 0.02912 0.0
H555 H 0.92943 0.28535 0.03475 0.0
H556 H 0.93217 0.30707 0.05976 0.0
H557 H 0.94722 0.31509 1.00685 0.0
H558 H 0.98063 0.22282 0.03858 0.0
H559 H 0.01648 0.19625 0.05748 0.0
H560 H 0.10465 0.20871 0.03039 0.0
H561 H 0.06937 0.23584 0.01142 0.0
C562 C 0.9501 0.21252 0.95078 0.0
C563 C 0.98096 0.20369 0.94404 0.0
C564 C 0.94981 0.2263 0.96487 0.0
C565 C 0.98045 0.23269 0.97235 0.0
C566 C 0.01125 0.22326 0.96567 0.0
C567 C 0.01149 0.20872 0.95175 0.0
C568 C 0.98061 0.24912 0.98709 0.0
C569 C 0.00046 0.23459 0.99823 0.0
C570 C 0.96135 0.27876 0.99028 0.0
C571 C 0.94202 0.29731 0.9789 0.0
C572 C 0.95843 0.30911 0.96626 0.0
C573 C 0.94004 0.32652 0.95557 0.0
C574 C 0.90525 0.33247 0.95742 0.0
C575 C 0.88881 0.32113 0.97001 0.0
C576 C 0.90709 0.30371 0.98074 0.0
C577 C 0.01479 0.32019 0.0499 0.0
C578 C 0.98584 0.31981 0.05892 0.0
C579 C 0.01324 0.30736 0.03568 0.0
C580 C 0.98265 0.2942 0.03012 0.0
C581 C 0.95331 0.29532 0.03883 0.0
C582 C 0.95494 0.30772 0.05313 0.0
C583 C 0.98169 0.27777 0.01551 0.0
C584 C 0.96169 0.29226 1.00448 0.0
C585 C 0.00127 0.24851 0.01235 0.0
C586 C 0.0224 0.23166 0.02364 0.0
C587 C 0.0077 0.22012 0.0367 0.0
C588 C 0.02791 0.20492 0.04742 0.0
C589 C 0.06284 0.20088 0.04516 0.0
C590 C 0.0776 0.2119 0.03214 0.0
C591 C 0.0575 0.22716 0.0214 0.0
H592 H 0.07846 0.18915 0.05347 0.0
H593 H 0.89106 0.34595 0.94913 0.0
H594 H 0.30254 0.03372 0.44919 0.0
H595 H 0.27843 0.03121 0.47354 0.0
H596 H 0.28642 0.92178 0.47304 0.0
H597 H 0.30863 0.92419 0.44808 0.0
H598 H 0.23013 0.93617 0.4846 0.0
H599 H 0.34174 0.97748 0.49396 0.0
H600 H 0.39233 0.01395 0.49111 0.0
H601 H 0.33358 0.10146 0.5033 0.0
H602 H 0.28252 0.0656 0.50605 0.0
H603 H 0.20559 0.93464 0.56351 0.0
H604 H 0.23005 0.92872 0.53904 0.0
H605 H 0.19526 0.02944 0.52814 0.0
H606 H 0.17015 0.03533 0.55237 0.0
H607 H 0.26816 0.015 0.52351 0.0
H608 H 0.15579 0.96983 0.51309 0.0
H609 H 0.10789 0.93036 0.5169 0.0
H610 H 0.17351 0.84546 0.50822 0.0
H611 H 0.22194 0.88445 0.50456 0.0
C612 C 0.29958 0.0091 0.45431 0.0
C613 C 0.30785 0.97914 0.44675 0.0
C614 C 0.28589 0.00768 0.46833 0.0
C615 C 0.28126 0.97634 0.47541 0.0
C616 C 0.2898 0.94632 0.4679 0.0
C617 C 0.30269 0.9477 0.45367 0.0
C618 C 0.26637 0.97513 0.49038 0.0
C619 C 0.23898 0.95301 0.49315 0.0
C620 C 0.2775 0.9972 0.50166 0.0
C621 C 0.30823 0.01886 0.50011 0.0
C622 C 0.33956 0.00453 0.49595 0.0
C623 C 0.36833 0.0251 0.49437 0.0
C624 C 0.36615 0.06 0.497 0.0
C625 C 0.33522 0.07441 0.50126 0.0
C626 C 0.30637 0.05397 0.50286 0.0
C627 C 0.20268 0.95531 0.55582 0.0
C628 C 0.18591 0.98546 0.5599 0.0
C629 C 0.21667 0.95188 0.54186 0.0
C630 C 0.21455 0.9787 0.53182 0.0
C631 C 0.1972 0.00848 0.53575 0.0
C632 C 0.18271 0.0117 0.54958 0.0
C633 C 0.23188 0.9766 0.51749 0.0
C634 C 0.25972 -0.00197 0.51492 0.0
C635 C 0.2217 0.95341 0.50657 0.0
C636 C 0.19257 0.93002 0.50872 0.0
C637 C 0.16008 0.94273 0.51214 0.0
C638 C 0.13282 0.92045 0.51424 0.0
C639 C 0.13767 0.88542 0.51285 0.0
C640 C 0.16979 0.8726 0.50932 0.0
C641 C 0.19715 0.89478 0.50722 0.0
H642 H 0.11653 0.86821 0.51448 0.0
H643 H 0.38845 0.07588 0.49575 0.0
H644 H 0.56437 0.21334 0.06788 0.0
H645 H 0.56973 0.2377 0.04351 0.0
H646 H 0.47954 0.18379 0.02988 0.0
H647 H 0.47476 0.15842 0.05408 0.0
H648 H 0.52114 0.18432 0.00835 0.0
H649 H 0.47825 0.26936 0.04006 0.0
H650 H 0.47554 0.30683 0.06156 0.0
H651 H 0.57026 0.35302 0.04929 0.0
H652 H 0.57383 0.31541 0.02782 0.0
H653 H 0.46878 0.3045 0.95296 0.0
H654 H 0.47172 0.27816 0.97708 0.0
H655 H 0.58099 0.28707 0.97664 0.0
H656 H 0.57844 0.31257 0.95222 0.0
H657 H 0.53172 0.30973 1.00475 0.0
H658 H 0.56982 0.21896 0.97162 0.0
H659 H 0.56252 0.18415 0.94948 0.0
H660 H 0.46435 0.15159 0.96453 0.0
H661 H 0.47087 0.18671 0.98664 0.0
C662 C 0.54596 0.20625 0.05964 0.0
C663 C 0.51902 0.18405 0.06299 0.0
C664 C 0.54889 0.22043 0.04571 0.0
C665 C 0.52459 0.21329 0.03488 0.0
C666 C 0.49858 0.18989 0.03801 0.0
C667 C 0.49587 0.17536 0.05189 0.0
C668 C 0.52554 0.23106 0.0205 0.0
C669 C 0.52338 0.21174 0.00765 0.0
C670 C 0.52822 0.26695 0.01941 0.0
C671 C 0.52649 0.28931 0.03242 0.0
C672 C 0.49868 0.28727 0.04202 0.0
C673 C 0.49696 0.30857 0.05419 0.0
C674 C 0.52272 0.33226 0.05679 0.0
C675 C 0.55033 0.33463 0.04726 0.0
C676 C 0.55223 0.31332 0.03509 0.0
C677 C 0.49346 0.30123 0.95803 0.0
C678 C 0.52342 0.31065 0.95065 0.0
C679 C 0.49506 0.28607 0.97179 0.0
C680 C 0.52655 0.28057 0.97858 0.0
C681 C 0.55645 0.29107 0.97154 0.0
C682 C 0.55494 0.30561 0.95761 0.0
C683 C 0.52803 0.26288 0.99283 0.0
C684 C 0.53016 0.28228 1.00559 0.0
C685 C 0.52434 0.22723 0.99386 0.0
C686 C 0.52067 0.20575 0.98069 0.0
C687 C 0.54654 0.20465 0.97013 0.0
C688 C 0.54257 0.18481 0.9576 0.0
C689 C 0.51294 0.16575 0.95557 0.0
C690 C 0.48727 0.16641 0.9661 0.0
C691 C 0.49109 0.18625 0.97863 0.0
H692 H 0.50991 0.15042 0.94587 0.0
H693 H 0.52117 0.34889 0.06614 0.0
H694 H 0.16042 0.5045 0.45348 0.0
H695 H 0.1772 0.51111 0.47909 0.0
H696 H 0.28266 0.49934 0.46703 0.0
H697 H 0.26604 0.49181 0.44167 0.0
H698 H 0.27075 0.46138 0.48928 0.0
H699 H 0.24634 0.57788 0.47782 0.0
H700 H 0.21162 0.62583 0.46896 0.0
H701 H 0.13637 0.60517 0.50167 0.0
H702 H 0.17045 0.5568 0.51062 0.0
H703 H 0.34147 0.50373 0.55836 0.0
H704 H 0.3263 0.50842 0.53248 0.0
H705 H 0.21984 0.50907 0.54383 0.0
H706 H 0.2347 0.50451 0.56957 0.0
H707 H 0.23321 0.55434 0.52203 0.0
H708 H 0.25683 0.43687 0.53274 0.0
H709 H 0.29156 0.38897 0.54165 0.0
H710 H 0.36872 0.41203 0.51006 0.0
H711 H 0.33464 0.46042 0.5011 0.0
C712 C 0.18719 0.50376 0.45629 0.0
C713 C 0.21184 0.49752 0.44552 0.0
C714 C 0.19681 0.50762 0.47094 0.0
C715 C 0.23132 0.5059 0.47508 0.0
C716 C 0.2559 0.5006 0.46422 0.0
C717 C 0.24631 0.4964 0.44967 0.0
C718 C 0.24198 0.50793 0.4907 0.0
C719 C 0.26295 0.48208 0.49633 0.0
C720 C 0.23129 0.53441 0.50012 0.0
C721 C 0.21079 0.56352 0.49479 0.0
C722 C 0.22226 0.58341 0.48305 0.0
C723 C 0.20272 0.61069 0.47803 0.0
C724 C 0.17176 0.61849 0.48473 0.0
C725 C 0.16033 0.59907 0.49649 0.0
C726 C 0.17976 0.57174 0.50155 0.0
C727 C 0.31487 0.50538 0.55535 0.0
C728 C 0.28933 0.50352 0.56605 0.0
C729 C 0.30621 0.50788 0.54055 0.0
C730 C 0.27186 0.50871 0.53617 0.0
C731 C 0.24646 0.50844 0.54689 0.0
C732 C 0.25506 0.5057 0.56163 0.0
C733 C 0.26214 0.50802 0.52045 0.0
C734 C 0.24122 0.53391 0.51487 0.0
C735 C 0.27292 0.48164 0.51104 0.0
C736 C 0.29337 0.45249 0.51637 0.0
C737 C 0.28133 0.4319 0.52778 0.0
C738 C 0.30087 0.40464 0.53282 0.0
C739 C 0.33237 0.39753 0.52645 0.0
C740 C 0.34435 0.41762 0.515 0.0
C741 C 0.32493 0.44495 0.50993 0.0
H742 H 0.34746 0.3764 0.53037 0.0
H743 H 0.15667 0.63962 0.48082 0.0
H744 H 0.07242 0.82914 0.06173 0.0
H745 H 0.07423 0.80319 0.03735 0.0
H746 H 0.96764 0.77864 0.04061 0.0
H747 H 0.9653 0.80531 0.06464 0.0
H748 H 0.01701 0.72219 0.03246 0.0
H749 H 0.98019 0.83617 0.02003 0.0
H750 H 0.98524 0.89861 0.01985 0.0
H751 H 0.08212 0.89097 0.99848 0.0
H752 H 0.07786 0.82838 0.99875 0.0
H753 H 0.96819 0.66816 0.96179 0.0
H754 H 0.97426 0.69271 0.98607 0.0
H755 H 0.06592 0.74402 0.97247 0.0
H756 H 0.05934 0.72039 0.948 0.0
H757 H 0.02883 0.78677 0.98635 0.0
H758 H 0.06544 0.67418 0.99667 0.0
H759 H 0.06365 0.61159 0.99736 0.0
H760 H 0.97271 0.61516 0.02321 0.0
H761 H 0.97357 0.67781 0.02246 0.0
C762 C 0.04931 0.81857 0.05716 0.0
C763 C 0.01871 0.81944 0.0651 0.0
C764 C 0.05039 0.80373 0.04327 0.0
C765 C 0.02108 0.7889 0.03723 0.0
C766 C 0.99053 0.78989 0.04509 0.0
C767 C 0.98923 0.80536 0.05879 0.0
C768 C 0.0222 0.77172 0.02284 0.0
C769 C 0.01929 0.73621 0.02233 0.0
C770 C 0.0263 0.79003 0.00973 0.0
C771 C 0.02893 0.8276 0.0096 0.0
C772 C 0.00275 0.84778 0.01545 0.0
C773 C 0.00542 0.88321 0.0153 0.0
C774 C 0.03404 0.89875 0.00921 0.0
C775 C 0.06001 0.87889 1.00323 0.0
C776 C 0.05747 0.84345 1.00338 0.0
C777 C 0.98995 0.68425 0.964 0.0
C778 C 0.01328 0.69227 0.95291 0.0
C779 C 0.99347 0.69824 0.97795 0.0
C780 C 0.02075 0.7201 0.98123 0.0
C781 C 0.0446 0.72735 0.97026 0.0
C782 C 0.04089 0.71365 0.95627 0.0
C783 C 0.02328 0.73686 0.9958 0.0
C784 C 0.02685 0.77242 0.9964 0.0
C785 C 0.02025 0.71846 0.00903 0.0
C786 C 0.01939 0.68074 0.00937 0.0
C787 C 0.04485 0.66164 1.00237 0.0
C788 C 0.04404 0.62614 1.0028 0.0
C789 C 0.01803 0.60941 0.01029 0.0
C790 C 0.9928 0.62815 0.01739 0.0
C791 C 0.99345 0.66367 0.01697 0.0
H792 H 0.01747 0.58192 0.01062 0.0
H793 H 0.03605 0.92618 0.00909 0.0
H794 H 0.8349 0.05716 0.45849 0.0
H795 H 0.81291 0.05982 0.48356 0.0
H796 H 0.76147 0.96424 0.4772 0.0
H797 H 0.78421 0.9608 0.45242 0.0
H798 H 0.72113 0.02419 0.4901 0.0
H799 H 0.82302 0.95552 0.49546 0.0
H800 H 0.88434 0.94403 0.49264 0.0
H801 H 0.90796 0.03344 0.5175 0.0
H802 H 0.8467 0.04576 0.52026 0.0
H803 H 0.67023 0.9786 0.56197 0.0
H804 H 0.68999 0.98154 0.53674 0.0
H805 H 0.76982 0.05059 0.54965 0.0
H806 H 0.75098 0.04667 0.57492 0.0
H807 H 0.7961 0.00651 0.53293 0.0
H808 H 0.69665 0.07533 0.52907 0.0
H809 H 0.63607 0.0905 0.53164 0.0
H810 H 0.6081 0.00712 0.50392 0.0
H811 H 0.66852 0.99116 0.50134 0.0
C812 C 0.81906 0.03666 0.46248 0.0
C813 C 0.81153 0.00866 0.45352 0.0
C814 C 0.8065 0.03823 0.47677 0.0
C815 C 0.78552 0.01224 0.4822 0.0
C816 C 0.77757 0.98455 0.47321 0.0
C817 C 0.7908 0.98255 0.45909 0.0
C818 C 0.77211 0.01364 0.49732 0.0
C819 C 0.73735 0.02004 0.4995 0.0
C820 C 0.79352 0.00918 0.50954 0.0
C821 C 0.83031 0.00181 0.50789 0.0
C822 C 0.84129 0.97295 0.50018 0.0
C823 C 0.87603 0.96623 0.49863 0.0
C824 C 0.90004 0.98806 0.50484 0.0
C825 C 0.88933 0.0166 0.51266 0.0
C826 C 0.85461 0.02345 0.51423 0.0
C827 C 0.69164 0.99485 0.55939 0.0
C828 C 0.70891 0.0125 0.57048 0.0
C829 C 0.70293 0.99659 0.54492 0.0
C830 C 0.73132 0.01657 0.54115 0.0
C831 C 0.74796 0.0349 0.55219 0.0
C832 C 0.73699 0.03281 0.56666 0.0
C833 C 0.74475 0.01709 0.5259 0.0
C834 C 0.77964 0.01096 0.52363 0.0
C835 C 0.72348 0.02237 0.51361 0.0
C836 C 0.6871 0.03185 0.51513 0.0
C837 C 0.67757 0.06006 0.52361 0.0
C838 C 0.64326 0.06883 0.52506 0.0
C839 C 0.61824 0.04973 0.51798 0.0
C840 C 0.6275 0.02186 0.50941 0.0
C841 C 0.66178 0.01296 0.50795 0.0
H842 H 0.59169 0.05657 0.51911 0.0
H843 H 0.92693 0.9828 0.50364 0.0
H844 H 0.51222 0.82652 0.95865 0.0
H845 H 0.51012 0.80586 0.98387 0.0
H846 H 0.43148 0.73466 0.97203 0.0
H847 H 0.43383 0.75465 0.94681 0.0
H848 H 0.4207 0.77084 0.99956 0.0
H849 H 0.50585 0.70409 0.97399 0.0
H850 H 0.55751 0.69717 0.95901 0.0
H851 H 0.61615 0.751 0.99103 0.0
H852 H 0.56481 0.75841 1.00618 0.0
H853 H 0.42541 0.66348 0.06181 0.0
H854 H 0.42401 0.68583 0.03691 0.0
H855 H 0.52171 0.73335 0.04378 0.0
H856 H 0.52396 0.70968 0.06828 0.0
H857 H 0.52226 0.71009 0.01837 0.0
H858 H 0.441 0.77777 0.04419 0.0
H859 H 0.39076 0.78933 0.0595 0.0
H860 H 0.32635 0.74082 0.02792 0.0
H861 H 0.3763 0.7286 0.0125 0.0
C862 C 0.49408 0.80688 0.96147 0.0
C863 C 0.47317 0.79226 0.95072 0.0
C864 C 0.49304 0.79498 0.97586 0.0
C865 C 0.47075 0.7686 0.9798 0.0
C866 C 0.44881 0.75505 0.96924 0.0
C867 C 0.45024 0.76651 0.95482 0.0
C868 C 0.47146 0.75388 0.99472 0.0
C869 C 0.44273 0.75724 1.00367 0.0
C870 C 0.50052 0.7369 1.00018 0.0
C871 C 0.53144 0.73209 0.99115 0.0
C872 C 0.52971 0.71466 0.97778 0.0
C873 C 0.55893 0.71062 0.96927 0.0
C874 C 0.59003 0.72379 0.97402 0.0
C875 C 0.59203 0.74087 0.98734 0.0
C876 C 0.5629 0.74493 0.99591 0.0
C877 C 0.44663 0.67856 0.05797 0.0
C878 C 0.47477 0.68475 0.06706 0.0
C879 C 0.44572 0.69161 0.04374 0.0
C880 C 0.47247 0.71196 0.03843 0.0
C881 C 0.50071 0.71778 0.0475 0.0
C882 C 0.50194 0.70421 0.06157 0.0
C883 C 0.47141 0.72709 0.02346 0.0
C884 C 0.50012 0.72373 0.01441 0.0
C885 C 0.44251 0.74468 0.01803 0.0
C886 C 0.41243 0.75196 0.02727 0.0
C887 C 0.41615 0.76935 0.04056 0.0
C888 C 0.38773 0.77606 0.04925 0.0
C889 C 0.3554 0.76573 0.0447 0.0
C890 C 0.35142 0.74876 0.03144 0.0
C891 C 0.37977 0.74195 0.02272 0.0
H892 H 0.33342 0.77095 0.05144 0.0
H893 H 0.6126 0.72067 0.9674 0.0
H894 H 0.65716 0.49764 0.45961 0.0
H895 H 0.67535 0.49725 0.48511 0.0
H896 H 0.76712 0.44408 0.47313 0.0
H897 H 0.749 0.44401 0.44766 0.0
H898 H 0.74226 0.42036 0.49881 0.0
H899 H 0.76876 0.52877 0.47801 0.0
H900 H 0.75676 0.58197 0.46478 0.0
H901 H 0.68352 0.61022 0.4973 0.0
H902 H 0.69472 0.55691 0.51062 0.0
H903 H 0.83456 0.46556 0.56429 0.0
H904 H 0.81697 0.45671 0.53885 0.0
H905 H 0.72295 0.50966 0.54734 0.0
H906 H 0.7402 0.51869 0.57249 0.0
H907 H 0.75195 0.53275 0.52295 0.0
H908 H 0.72525 0.42334 0.54356 0.0
H909 H 0.73762 0.36993 0.55657 0.0
H910 H 0.81247 0.34383 0.5244 0.0
H911 H 0.80085 0.39734 0.51129 0.0
C912 C 0.68098 0.48541 0.46241 0.0
C913 C 0.70172 0.47111 0.45153 0.0
C914 C 0.69145 0.48536 0.477 0.0
C915 C 0.72292 0.47115 0.48103 0.0
C916 C 0.74283 0.45531 0.47031 0.0
C917 C 0.73241 0.45537 0.45572 0.0
C918 C 0.73586 0.47439 0.49624 0.0
C919 C 0.74476 0.44496 0.50404 0.0
C920 C 0.73892 0.50644 0.50315 0.0
C921 C 0.73234 0.53868 0.49524 0.0
C922 C 0.74992 0.54621 0.48229 0.0
C923 C 0.74328 0.5764 0.47478 0.0
C924 C 0.71933 0.59942 0.48017 0.0
C925 C 0.70203 0.59234 0.49312 0.0
C926 C 0.70853 0.56215 0.50066 0.0
C927 C 0.81005 0.47506 0.56074 0.0
C928 C 0.78888 0.49289 0.57046 0.0
C929 C 0.79998 0.46993 0.54621 0.0
C930 C 0.76855 0.48249 0.54116 0.0
C931 C 0.74734 0.49986 0.55092 0.0
C932 C 0.75728 0.50491 0.56536 0.0
C933 C 0.75781 0.47868 0.52565 0.0
C934 C 0.74949 0.50811 0.51775 0.0
C935 C 0.75544 0.44666 0.51867 0.0
C936 C 0.76246 0.41452 0.52654 0.0
C937 C 0.74456 0.40635 0.53933 0.0
C938 C 0.75139 0.37603 0.54671 0.0
C939 C 0.77589 0.35355 0.54134 0.0
C940 C 0.79355 0.3613 0.52856 0.0
C941 C 0.78683 0.39161 0.52114 0.0
H942 H 0.78114 0.33008 0.54707 0.0
H943 H 0.71422 0.62277 0.47434 0.0
H944 H -0.00045 0.25632 0.14843 0.0
H945 H 0.99018 0.19501 0.14792 0.0
H946 H 0.94909 0.2029 0.10447 0.0
H947 H 0.95729 0.26412 0.10503 0.0
H948 H 0.92264 0.14975 0.11765 0.0
H949 H 0.03255 0.19586 0.1095 0.0
H950 H 0.08365 0.22982 0.11489 0.0
H951 H 0.10478 0.16716 0.15211 0.0
H952 H 0.05323 0.1333 0.14715 0.0
H953 H 0.03721 0.98601 0.10643 0.0
H954 H 0.03042 0.04819 0.10533 0.0
H955 H 0.94371 0.04121 0.13405 0.0
H956 H 0.94894 0.97982 0.13427 0.0
H957 H 0.03524 0.09495 0.12489 0.0
H958 H 0.88645 0.10059 0.12839 0.0
H959 H 0.83724 0.06804 0.11924 0.0
H960 H 0.89801 0.02871 0.08423 0.0
H961 H 0.94744 0.06139 0.09302 0.0
C962 C 0.9871 0.24528 0.13902 0.0
C963 C 0.98026 0.26492 0.12656 0.0
C964 C 0.982 0.21016 0.1387 0.0
C965 C 0.97027 0.19438 0.12592 0.0
C966 C 0.95874 0.21452 0.11434 0.0
C967 C 0.96355 0.2496 0.11469 0.0
C968 C 0.975 0.15744 0.1237 0.0
C969 C 0.94714 0.13766 0.11935 0.0
C970 C 0.00749 0.1421 0.1251 0.0
C971 C 0.03869 0.16231 0.12807 0.0
C972 C 0.0478 0.18959 0.11896 0.0
C973 C 0.07687 0.20886 0.12194 0.0
C974 C 0.09735 0.20079 0.1339 0.0
C975 C 0.0888 0.17345 0.14289 0.0
C976 C 0.05964 0.15423 0.14 0.0
C977 C 0.01659 -0.00204 0.11235 0.0
C978 C 0.99406 0.97831 0.12068 0.0
C979 C 0.01278 0.03334 0.11178 0.0
C980 C 0.98633 0.04936 0.1195 0.0
C981 C 0.96392 0.02952 0.12778 0.0
C982 C 0.96738 0.9944 0.12815 0.0
C983 C 0.98248 0.08684 0.11948 0.0
C984 C 0.01064 0.10689 0.12326 0.0
C985 C 0.95057 0.10262 0.11695 0.0
C986 C 0.92074 0.08329 0.11145 0.0
C987 C 0.88927 0.08517 0.11869 0.0
C988 C 0.86134 0.06665 0.11357 0.0
C989 C 0.86452 0.04626 0.10118 0.0
C990 C 0.89561 0.04443 0.09385 0.0
C991 C 0.9236 0.06292 0.09891 0.0
H992 H 0.84288 0.03192 0.09725 0.0
H993 H 0.11997 0.21553 0.13615 0.0
H994 H 0.24832 0.0328 0.64585 0.0
H995 H 0.31056 0.02763 0.64694 0.0
H996 H 0.31406 0.01722 0.60016 0.0
H997 H 0.25267 0.02106 0.59901 0.0
H998 H 0.35354 0.97303 0.61132 0.0
H999 H 0.33734 0.09349 0.61788 0.0
H1000 H 0.31433 0.14514 0.62956 0.0
H1001 H 0.35995 0.11608 0.6702 0.0
H1002 H 0.38329 0.06431 0.65875 0.0
H1003 H 0.5378 0.04689 0.61533 0.0
H1004 H 0.47583 0.05598 0.61459 0.0
H1005 H 0.46025 0.95679 0.63349 0.0
H1006 H 0.52152 0.9472 0.63366 0.0
H1007 H 0.42749 0.05799 0.6357 0.0
H1008 H 0.39141 0.92017 0.61909 0.0
H1009 H 0.41546 0.87274 0.60483 0.0
H1010 H 0.47433 0.94317 0.57953 0.0
H1011 H 0.45027 0.99102 0.59348 0.0
C1012 C 0.26241 0.02912 0.63583 0.0
C1013 C 0.24542 0.02713 0.62237 0.0
C1014 C 0.29797 0.02649 0.63645 0.0
C1015 C 0.31702 0.02233 0.6236 0.0
C1016 C 0.29999 0.02024 0.61022 0.0
C1017 C 0.26471 0.02244 0.60961 0.0
C1018 C 0.35467 0.01934 0.62387 0.0
C1019 C 0.36964 0.99161 0.61669 0.0
C1020 C 0.37579 0.04389 0.6306 0.0
C1021 C 0.36172 0.07489 0.63751 0.0
C1022 C 0.34222 0.09801 0.62933 0.0
C1023 C 0.32918 0.12731 0.6359 0.0
C1024 C 0.33548 0.13376 0.65062 0.0
C1025 C 0.35502 0.11101 0.6588 0.0
C1026 C 0.36825 0.08175 0.65227 0.0
C1027 C 0.52098 0.02705 0.61919 0.0
C1028 C 0.53427 0.99646 0.62461 0.0
C1029 C 0.48574 0.03234 0.6189 0.0
C1030 C 0.46347 0.00699 0.62393 0.0
C1031 C 0.47691 0.97656 0.62943 0.0
C1032 C 0.51192 0.97122 0.62962 0.0
C1033 C 0.42611 0.01166 0.6232 0.0
C1034 C 0.41127 0.0395 0.63034 0.0
C1035 C 0.40502 0.98776 0.61604 0.0
C1036 C 0.41926 0.95915 0.60743 0.0
C1037 C 0.40937 0.92554 0.61044 0.0
C1038 C 0.42302 0.89858 0.60242 0.0
C1039 C 0.44648 0.90493 0.59131 0.0
C1040 C 0.45625 0.93827 0.58817 0.0
C1041 C 0.44264 0.96532 0.59614 0.0
H1042 H 0.45705 0.88402 0.58513 0.0
H1043 H 0.32532 0.15644 0.65569 0.0
H1044 H 0.44655 0.52874 0.11373 0.0
H1045 H 0.44366 0.46622 0.11393 0.0
H1046 H 0.54605 0.46195 0.13094 0.0
H1047 H 0.54917 0.52386 0.13036 0.0
H1048 H 0.53771 0.41471 0.11133 0.0
H1049 H 0.47819 0.45375 0.15337 0.0
H1050 H 0.43552 0.48699 0.16695 0.0
H1051 H 0.35506 0.43572 0.14414 0.0
H1052 H 0.3973 0.40254 0.13024 0.0
H1053 H 0.47511 0.24516 0.14783 0.0
H1054 H 0.48263 0.30712 0.14879 0.0
H1055 H 0.48584 0.31068 0.10183 0.0
H1056 H 0.47946 0.24951 0.10075 0.0
H1057 H 0.44486 0.35817 0.13878 0.0
H1058 H 0.53972 0.37163 0.09021 0.0
H1059 H 0.58569 0.33848 0.07868 0.0
H1060 H 0.60285 0.28513 0.1188 0.0
H1061 H 0.55738 0.31829 0.13063 0.0
C1062 C 0.46846 0.51422 0.11729 0.0
C1063 C 0.49787 0.53074 0.12222 0.0
C1064 C 0.46676 0.4787 0.11752 0.0
C1065 C 0.49446 0.45954 0.1227 0.0
C1066 C 0.52435 0.47621 0.12698 0.0
C1067 C 0.52604 0.51151 0.12672 0.0
C1068 C 0.49233 0.42215 0.12407 0.0
C1069 C 0.51738 0.40231 0.11729 0.0
C1070 C 0.46642 0.40614 0.13227 0.0
C1071 C 0.44092 0.4259 0.14066 0.0
C1072 C 0.4514 0.44975 0.15116 0.0
C1073 C 0.42729 0.46856 0.15893 0.0
C1074 C 0.3926 0.46353 0.15638 0.0
C1075 C 0.38194 0.43962 0.14608 0.0
C1076 C 0.40596 0.42079 0.13826 0.0
C1077 C 0.47775 0.2592 0.13774 0.0
C1078 C 0.47712 0.24235 0.12424 0.0
C1079 C 0.48188 0.29453 0.1383 0.0
C1080 C 0.48533 0.31337 0.12538 0.0
C1081 C 0.48406 0.29659 0.11194 0.0
C1082 C 0.48035 0.2615 0.11137 0.0
C1083 C 0.4898 0.35069 0.12573 0.0
C1084 C 0.46523 0.37054 0.13284 0.0
C1085 C 0.51676 0.36678 0.11817 0.0
C1086 C 0.54477 0.34718 0.11125 0.0
C1087 C 0.55336 0.3529 0.09658 0.0
C1088 C 0.57933 0.33409 0.08999 0.0
C1089 C 0.59704 0.30958 0.09798 0.0
C1090 C 0.58898 0.30399 0.1126 0.0
C1091 C 0.56308 0.32277 0.11925 0.0
H1092 H 0.61709 0.29501 0.09285 0.0
H1093 H 0.37397 0.47811 0.16241 0.0
H1094 H 0.2461 0.53881 0.61829 0.0
H1095 H 0.18409 0.53981 0.61932 0.0
H1096 H 0.18606 0.47042 0.65566 0.0
H1097 H 0.24819 0.46931 0.65476 0.0
H1098 H 0.15128 0.44585 0.63172 0.0
H1099 H 0.15309 0.5475 0.66028 0.0
H1100 H 0.16986 0.6061 0.66652 0.0
H1101 H 0.12506 0.64247 0.62679 0.0
H1102 H 0.10844 0.584 0.62021 0.0
H1103 H 0.97034 0.44046 0.64128 0.0
H1104 H 0.03267 0.44222 0.64263 0.0
H1105 H 0.03429 0.51869 0.60894 0.0
H1106 H 0.972 0.51707 0.60771 0.0
H1107 H 0.06728 0.53975 0.63265 0.0
H1108 H 0.06766 0.44123 0.60291 0.0
H1109 H 0.05562 0.38327 0.59415 0.0
H1110 H 0.09969 0.34151 0.63302 0.0
H1111 H 0.11144 0.39926 0.64217 0.0
C1112 C 0.23342 0.52477 0.62687 0.0
C1113 C 0.25204 0.50365 0.63633 0.0
C1114 C 0.19795 0.52537 0.62744 0.0
C1115 C 0.18054 0.50493 0.63748 0.0
C1116 C 0.19911 0.48628 0.6478 0.0
C1117 C 0.23464 0.4859 0.64734 0.0
C1118 C 0.14356 0.49915 0.63572 0.0
C1119 C 0.13269 0.46618 0.63221 0.0
C1120 C 0.11981 0.52608 0.63577 0.0
C1121 C 0.12976 0.56129 0.6397 0.0
C1122 C 0.14707 0.56794 0.65281 0.0
C1123 C 0.15649 0.60115 0.65642 0.0
C1124 C 0.14859 0.62798 0.64704 0.0
C1125 C 0.13118 0.62166 0.63404 0.0
C1126 C 0.12171 0.58849 0.63038 0.0
C1127 C 0.98423 0.45679 0.63387 0.0
C1128 C 0.9667 0.4786 0.62439 0.0
C1129 C 0.01973 0.45783 0.63464 0.0
C1130 C 0.0381 0.48071 0.62593 0.0
C1131 C 0.02059 0.50094 0.61579 0.0
C1132 C 0.98512 0.4998 0.61499 0.0
C1133 C 0.0749 0.48631 0.62855 0.0
C1134 C 0.08574 0.51927 0.63222 0.0
C1135 C 0.09879 0.45943 0.6284 0.0
C1136 C 0.08989 0.42468 0.62335 0.0
C1137 C 0.07419 0.41974 0.60973 0.0
C1138 C 0.06757 0.3869 0.60466 0.0
C1139 C 0.07673 0.35873 0.61305 0.0
C1140 C 0.09246 0.36335 0.62656 0.0
C1141 C 0.09906 0.39614 0.6317 0.0
H1142 H 0.07177 0.33332 0.60907 0.0
H1143 H 0.1559 0.65367 0.64986 0.0
H1144 H 0.05215 0.5319 0.88043 0.0
H1145 H 0.04935 0.47026 0.87634 0.0
H1146 H 0.97163 0.46187 0.90928 0.0
H1147 H 0.9732 0.52347 0.9129 0.0
H1148 H 0.02543 0.40652 0.90793 0.0
H1149 H 0.94052 0.46791 0.87905 0.0
H1150 H 0.92254 0.51225 0.86168 0.0
H1151 H 0.99191 0.47286 0.82974 0.0
H1152 H 0.01028 0.42824 0.84696 0.0
H1153 H 0.95141 0.25305 0.89462 0.0
H1154 H 0.94954 0.31493 0.89594 0.0
H1155 H 0.01251 0.32152 0.85759 0.0
H1156 H 0.01407 0.25955 0.85604 0.0
H1157 H 0.96919 0.37792 0.86098 0.0
H1158 H 0.05019 0.31329 0.88807 0.0
H1159 H 0.0681 0.26722 0.90456 0.0
H1160 H 0.01154 0.31261 0.93948 0.0
H1161 H 0.99226 0.35845 0.92305 0.0
C1162 C 0.03509 0.51668 0.88701 0.0
C1163 C 0.01266 0.53226 0.89685 0.0
C1164 C 0.0335 0.48164 0.88467 0.0
C1165 C 0.01 0.46182 0.89241 0.0
C1166 C 0.9899 0.47689 0.90323 0.0
C1167 C 0.99101 0.51198 0.90536 0.0
C1168 C 0.00362 0.42626 0.88815 0.0
C1169 C 0.01291 0.40019 0.89775 0.0
C1170 C 0.98802 0.41824 0.87469 0.0
C1171 C 0.97703 0.44502 0.86434 0.0
C1172 C 0.95213 0.46888 0.86837 0.0
C1173 C 0.94179 0.49398 0.85853 0.0
C1174 C 0.95621 0.4955 0.84464 0.0
C1175 C 0.98082 0.47173 0.84051 0.0
C1176 C 0.99113 0.44647 0.85029 0.0
C1177 C 0.9636 0.26766 0.88609 0.0
C1178 C 0.98361 0.25155 0.87545 0.0
C1179 C 0.96258 0.303 0.88688 0.0
C1180 C 0.98186 0.32257 0.87715 0.0
C1181 C 0.9978 0.30673 0.86529 0.0
C1182 C -0.00142 0.27128 0.8644 0.0
C1183 C 0.99038 0.35809 0.88088 0.0
C1184 C 0.98174 0.38415 0.87116 0.0
C1185 C 0.00706 0.36606 0.89416 0.0
C1186 C 0.01942 0.33914 0.90425 0.0
C1187 C 0.04125 0.3133 0.89922 0.0
C1188 C 0.05158 0.28717 0.90855 0.0
C1189 C 0.04079 0.28691 0.92304 0.0
C1190 C 0.01971 0.31281 0.92823 0.0
C1191 C 0.00903 0.33885 0.91891 0.0
H1192 H 0.04885 0.2667 0.93026 0.0
H1193 H 0.94823 0.51502 0.83706 0.0
H1194 H 0.9774 0.95057 0.41196 0.0
H1195 H 0.03925 0.95504 0.40894 0.0
H1196 H 0.02525 0.04032 0.37998 0.0
H1197 H 0.96337 0.03566 0.38299 0.0
H1198 H 0.06498 0.9918 0.36789 0.0
H1199 H 0.06027 0.05159 0.41333 0.0
H1200 H 0.04481 0.06062 0.43906 0.0
H1201 H 0.10131 0.97165 0.45128 0.0
H1202 H 0.11672 0.9618 0.42558 0.0
H1203 H 0.24175 0.03716 0.36316 0.0
H1204 H 0.17981 0.032 0.3647 0.0
H1205 H 0.19081 0.95154 0.39631 0.0
H1206 H 0.25258 0.95744 0.39515 0.0
H1207 H 0.15215 -0.00076 0.40683 0.0
H1208 H 0.15636 0.93861 0.36148 0.0
H1209 H 0.17165 0.92906 0.33576 0.0
H1210 H 0.11622 0.01855 0.32335 0.0
H1211 H 0.10096 0.0289 0.34904 0.0
C1212 C 0.98773 0.97088 0.40534 0.0
C1213 C 0.96598 0.9929 0.39775 0.0
C1214 C 0.02295 0.97335 0.40355 0.0
C1215 C 0.03684 -0.00201 0.3942 0.0
C1216 C 0.01506 0.02107 0.38719 0.0
C1217 C 0.97987 0.01861 0.389 0.0
C1218 C 0.07377 -0.00195 0.39091 0.0
C1219 C 0.08411 0.99393 0.37637 0.0
C1220 C 0.09861 -9e-05 0.40202 0.0
C1221 C 0.08938 0.00579 0.4175 0.0
C1222 C 0.06916 0.03378 0.42148 0.0
C1223 C 0.06045 0.03908 0.43607 0.0
C1224 C 0.072 0.01668 0.4468 0.0
C1225 C 0.09235 0.98897 0.44296 0.0
C1226 C 0.10111 0.98353 0.42838 0.0
C1227 C 0.23094 0.01752 0.37001 0.0
C1228 C 0.25188 -0.00222 0.37908 0.0
C1229 C 0.1955 0.01466 0.37094 0.0
C1230 C 0.1806 0.99154 0.38072 0.0
C1231 C 0.20169 0.9698 0.3888 0.0
C1232 C 0.23698 0.97299 0.38805 0.0
C1233 C 0.14351 0.99253 0.38379 0.0
C1234 C 0.1331 0.99701 0.39832 0.0
C1235 C 0.11865 0.99088 0.37267 0.0
C1236 C 0.1278 0.98471 0.35721 0.0
C1237 C 0.14767 0.95642 0.35329 0.0
C1238 C 0.15628 0.95083 0.33871 0.0
C1239 C 0.14499 0.97324 0.32793 0.0
C1240 C 0.12498 0.00124 0.33171 0.0
C1241 C 0.11632 0.00696 0.34628 0.0
H1242 H 0.15168 0.96886 0.31665 0.0
H1243 H 0.06523 0.02083 0.45809 0.0
H1244 H 0.54393 0.25057 0.90207 0.0
H1245 H 0.54456 0.18847 0.90266 0.0
H1246 H 0.47976 0.18568 0.86475 0.0
H1247 H 0.4794 0.24793 0.86397 0.0
H1248 H 0.45349 0.15122 0.88917 0.0
H1249 H 0.55679 0.15534 0.86163 0.0
H1250 H 0.61515 0.17398 0.85589 0.0
H1251 H 0.65079 0.1329 0.89646 0.0
H1252 H 0.59252 0.11442 0.90254 0.0
H1253 H 0.45128 0.97062 0.88101 0.0
H1254 H 0.45314 0.03264 0.87897 0.0
H1255 H 0.53062 0.03615 0.91231 0.0
H1256 H 0.52942 0.97392 0.91397 0.0
H1257 H 0.5506 0.07079 0.88961 0.0
H1258 H 0.44818 0.06678 0.91746 0.0
H1259 H 0.38972 0.0505 0.92421 0.0
H1260 H 0.35189 0.0934 0.88436 0.0
H1261 H 0.41021 0.10926 0.8772 0.0
C1262 C 0.53082 0.23671 0.89355 0.0
C1263 C 0.51166 0.2541 0.88296 0.0
C1264 C 0.53113 0.20124 0.89392 0.0
C1265 C 0.51204 0.18251 0.8838 0.0
C1266 C 0.49464 0.19972 0.87266 0.0
C1267 C 0.49476 0.23527 0.87213 0.0
C1268 C 0.50737 0.14544 0.88588 0.0
C1269 C 0.47455 0.1334 0.88897 0.0
C1270 C 0.53513 0.12265 0.88622 0.0
C1271 C 0.57021 0.13377 0.8826 0.0
C1272 C 0.577 0.15055 0.86939 0.0
C1273 C 0.61009 0.16103 0.86606 0.0
C1274 C 0.63665 0.1547 0.87582 0.0
C1275 C 0.63019 0.13781 0.88892 0.0
C1276 C 0.59714 0.1273 0.8923 0.0
C1277 C 0.46812 0.98482 0.88811 0.0
C1278 C 0.49034 0.96772 0.89758 0.0
C1279 C 0.46914 0.02023 0.88698 0.0
C1280 C 0.49207 0.03918 0.89548 0.0
C1281 C 0.51284 0.02211 0.90559 0.0
C1282 C 0.51193 0.98665 0.90665 0.0
C1283 C 0.49652 0.07626 0.8929 0.0
C1284 C 0.52936 0.08841 0.88974 0.0
C1285 C 0.46874 0.09921 0.89261 0.0
C1286 C 0.4337 0.08883 0.89671 0.0
C1287 C 0.42748 0.07233 0.91004 0.0
C1288 C 0.39433 0.06324 0.91395 0.0
C1289 C 0.36712 0.07079 0.90469 0.0
C1290 C 0.373 0.08745 0.8915 0.0
C1291 C 0.4061 0.09647 0.8875 0.0
H1292 H 0.34147 0.06382 0.90777 0.0
H1293 H 0.66225 0.16282 0.87322 0.0
H1294 H 0.52446 0.49829 0.412 0.0
H1295 H 0.46271 0.49515 0.40904 0.0
H1296 H 0.475 0.41653 0.37668 0.0
H1297 H 0.53702 0.41937 0.37983 0.0
H1298 H 0.43865 0.47061 0.36646 0.0
H1299 H 0.43522 0.39808 0.40782 0.0
H1300 H 0.44767 0.37881 0.43282 0.0
H1301 H 0.39767 0.46701 0.45015 0.0
H1302 H 0.38536 0.48711 0.42525 0.0
H1303 H 0.25586 0.45423 0.35978 0.0
H1304 H 0.31767 0.44797 0.36123 0.0
H1305 H 0.32082 0.52142 0.39611 0.0
H1306 H 0.2591 0.52734 0.3949 0.0
H1307 H 0.34878 0.46239 0.40417 0.0
H1308 H 0.35691 0.53729 0.36271 0.0
H1309 H 0.34456 0.55652 0.33769 0.0
H1310 H 0.38557 0.46355 0.3206 0.0
H1311 H 0.39776 0.44357 0.34554 0.0
C1312 C 0.51387 0.47941 0.4047 0.0
C1313 C 0.53525 0.45913 0.3961 0.0
C1314 C 0.47863 0.47773 0.40295 0.0
C1315 C 0.4643 0.45572 0.39258 0.0
C1316 C 0.48559 0.43377 0.3847 0.0
C1317 C 0.52087 0.43527 0.38654 0.0
C1318 C 0.42772 0.45864 0.38889 0.0
C1319 C 0.41887 0.46816 0.37463 0.0
C1320 C 0.40211 0.45613 0.39963 0.0
C1321 C 0.40962 0.44425 0.41465 0.0
C1322 C 0.42715 0.41354 0.41696 0.0
C1323 C 0.43412 0.40243 0.43111 0.0
C1324 C 0.42353 0.42171 0.44306 0.0
C1325 C 0.40589 0.45212 0.44088 0.0
C1326 C 0.39887 0.46336 0.42675 0.0
C1327 C 0.26986 0.47007 0.36735 0.0
C1328 C 0.25264 0.4911 0.3773 0.0
C1329 C 0.30521 0.46632 0.36822 0.0
C1330 C 0.32377 0.48393 0.3789 0.0
C1331 C 0.30691 0.5073 0.3879 0.0
C1332 C 0.27168 0.51087 0.38711 0.0
C1333 C 0.35986 0.47544 0.38186 0.0
C1334 C 0.36854 0.46467 0.39598 0.0
C1335 C 0.38527 0.47682 0.37099 0.0
C1336 C 0.37789 0.48878 0.356 0.0
C1337 C 0.36301 0.52082 0.35363 0.0
C1338 C 0.3561 0.53188 0.33946 0.0
C1339 C 0.36418 0.51123 0.32757 0.0
C1340 C 0.37927 0.4795 0.32982 0.0
C1341 C 0.38621 0.46831 0.34397 0.0
H1342 H 0.35882 0.51984 0.31661 0.0
H1343 H 0.42894 0.41305 0.45401 0.0
H1344 H 0.95281 0.7574 0.91202 0.0
H1345 H 0.95619 0.81911 0.91035 0.0
H1346 H 0.99549 0.81092 0.86666 0.0
H1347 H 0.99119 0.74847 0.86805 0.0
H1348 H 0.0321 0.85473 0.89303 0.0
H1349 H 0.92955 0.83599 0.86399 0.0
H1350 H 0.87263 0.81122 0.86012 0.0
H1351 H 0.83562 0.86231 0.89829 0.0
H1352 H 0.89257 0.88676 0.90258 0.0
H1353 H 0.03784 0.02649 0.87531 0.0
H1354 H 0.03087 0.96526 0.87528 0.0
H1355 H 0.94594 0.97463 0.90484 0.0
H1356 H 0.95114 0.03685 0.90385 0.0
H1357 H 0.93136 0.92895 0.88574 0.0
H1358 H 0.02682 0.94731 0.91615 0.0
H1359 H 0.08231 0.97028 0.9239 0.0
H1360 H 0.13137 0.91866 0.88845 0.0
H1361 H 0.07607 0.89575 0.88035 0.0
C1362 C 0.96231 0.76863 0.90204 0.0
C1363 C 0.9721 0.74818 0.89019 0.0
C1364 C 0.96399 0.80385 0.90111 0.0
C1365 C 0.97594 0.81929 0.8884 0.0
C1366 C 0.98606 0.79916 0.87653 0.0
C1367 C 0.98363 0.7637 0.87733 0.0
C1368 C 0.97874 0.85655 0.88793 0.0
C1369 C 0.01035 0.87114 0.89111 0.0
C1370 C 0.94975 0.87745 0.88633 0.0
C1371 C 0.91545 0.86293 0.88369 0.0
C1372 C 0.9094 0.84163 0.87166 0.0
C1373 C 0.87709 0.82773 0.86936 0.0
C1374 C 0.85052 0.83521 0.87895 0.0
C1375 C 0.8562 0.85663 0.89084 0.0
C1376 C 0.8885 0.87047 0.89322 0.0
C1377 C 0.0172 0.01565 0.88157 0.0
C1378 C 0.99461 0.03646 0.88937 0.0
C1379 C 0.01365 0.9805 0.88177 0.0
C1380 C 0.98824 0.96519 0.89024 0.0
C1381 C 0.96579 0.98588 0.89823 0.0
C1382 C 0.96894 0.02133 0.89778 0.0
C1383 C 0.98515 0.92761 0.89048 0.0
C1384 C 0.95337 0.91281 0.88748 0.0
C1385 C 0.01384 0.90638 0.89274 0.0
C1386 C 0.04722 0.92005 0.89757 0.0
C1387 C 0.0494 0.94106 0.90994 0.0
C1388 C 0.08083 0.95404 0.91441 0.0
C1389 C 0.11034 0.946 0.90666 0.0
C1390 C 0.10848 0.92489 0.89444 0.0
C1391 C 0.0771 0.91187 0.88991 0.0
H1392 H 0.13465 0.95607 0.91014 0.0
H1393 H 0.82555 0.82435 0.87718 0.0
H1394 H 0.75238 0.03698 0.4016 0.0
H1395 H 0.69063 0.04374 0.40124 0.0
H1396 H 0.68452 0.97946 0.36326 0.0
H1397 H 0.74634 0.97327 0.36331 0.0
H1398 H 0.63222 0.02575 0.36404 0.0
H1399 H 0.68529 0.94474 0.39591 0.0
H1400 H 0.72575 0.92687 0.41495 0.0
H1401 H 0.67596 0.99189 0.44587 0.0
H1402 H 0.63577 0.01094 0.42688 0.0
H1403 H 0.47217 0.95008 0.37642 0.0
H1404 H 0.53456 0.95225 0.37531 0.0
H1405 H 0.53527 0.02867 0.40901 0.0
H1406 H 0.47293 0.02733 0.4098 0.0
H1407 H 0.58973 0.97674 0.41049 0.0
H1408 H 0.53718 0.05804 0.37778 0.0
H1409 H 0.49647 0.07378 0.35847 0.0
H1410 H 0.54465 0.00387 0.32907 0.0
H1411 H 0.5854 0.98736 0.3483 0.0
C1412 C 0.73803 0.02543 0.39282 0.0
C1413 C 0.75406 0.00392 0.3827 0.0
C1414 C 0.70274 0.02921 0.39266 0.0
C1415 C 0.68305 0.0111 0.38254 0.0
C1416 C 0.6993 0.99331 0.37127 0.0
C1417 C 0.73469 0.98985 0.3713 0.0
C1418 C 0.64622 0.00608 0.38512 0.0
C1419 C 0.62297 0.01489 0.37416 0.0
C1420 C 0.63419 0.99176 0.39834 0.0
C1421 C 0.65774 0.9796 0.40991 0.0
C1422 C 0.68313 0.95548 0.40673 0.0
C1423 C 0.70607 0.94518 0.41751 0.0
C1424 C 0.70348 0.95831 0.43161 0.0
C1425 C 0.67795 0.98178 0.43494 0.0
C1426 C 0.65513 0.99239 0.42416 0.0
C1427 C 0.4858 0.9668 0.38377 0.0
C1428 C 0.46802 0.98881 0.39306 0.0
C1429 C 0.52127 0.96801 0.38314 0.0
C1430 C 0.53928 0.99093 0.39196 0.0
C1431 C 0.52169 0.01085 0.40213 0.0
C1432 C 0.4862 0.00997 0.40261 0.0
C1433 C 0.57592 0.99672 0.38949 0.0
C1434 C 0.59908 0.98782 0.40044 0.0
C1435 C 0.58789 0.01059 0.37623 0.0
C1436 C 0.56414 0.02125 0.36451 0.0
C1437 C 0.53897 0.04589 0.36722 0.0
C1438 C 0.51591 0.05496 0.35629 0.0
C1439 C 0.51789 0.03975 0.34257 0.0
C1440 C 0.54311 0.01559 0.33972 0.0
C1441 C 0.56623 0.0064 0.35062 0.0
H1442 H 0.49994 0.04674 0.33413 0.0
H1443 H 0.72119 0.95022 0.43995 0.0
H1444 H 0.45672 0.47122 0.90401 0.0
H1445 H 0.44862 0.53274 0.90144 0.0
H1446 H 0.5541 0.54393 0.88944 0.0
H1447 H 0.562 0.48201 0.89164 0.0
H1448 H 0.51905 0.59755 0.9107 0.0
H1449 H 0.51502 0.54309 0.8628 0.0
H1450 H 0.49496 0.49791 0.84626 0.0
H1451 H 0.39133 0.52681 0.85441 0.0
H1452 H 0.41083 0.57199 0.87113 0.0
H1453 H 0.50672 0.74674 0.86215 0.0
H1454 H 0.50332 0.68476 0.8627 0.0
H1455 H 0.43797 0.68992 0.90033 0.0
H1456 H 0.44098 0.75182 0.89982 0.0
H1457 H 0.45481 0.62802 0.86588 0.0
H1458 H 0.4828 0.64404 0.92687 0.0
H1459 H 0.50075 0.68932 0.94383 0.0
H1460 H 0.55735 0.73749 0.90958 0.0
H1461 H 0.53999 0.69245 0.89251 0.0
C1462 C 0.47836 0.48703 0.90126 0.0
C1463 C 0.51005 0.47228 0.89817 0.0
C1464 C 0.4737 0.522 0.89974 0.0
C1465 C 0.50077 0.54269 0.89526 0.0
C1466 C 0.53303 0.52827 0.89302 0.0
C1467 C 0.53755 0.49311 0.8943 0.0
C1468 C 0.49427 0.57857 0.89142 0.0
C1469 C 0.50505 0.60427 0.90093 0.0
C1470 C 0.47608 0.58715 0.87864 0.0
C1471 C 0.46436 0.5607 0.86829 0.0
C1472 C 0.48796 0.53968 0.86112 0.0
C1473 C 0.4767 0.51412 0.8517 0.0
C1474 C 0.44189 0.50942 0.84932 0.0
C1475 C 0.41828 0.53045 0.85628 0.0
C1476 C 0.42942 0.55609 0.8657 0.0
C1477 C 0.49025 0.73482 0.87011 0.0
C1478 C 0.47498 0.7541 0.88124 0.0
C1479 C 0.48838 0.69932 0.87041 0.0
C1480 C 0.47121 0.68291 0.88181 0.0
C1481 C 0.4518 0.70222 0.89159 0.0
C1482 C 0.45362 0.73761 0.89129 0.0
C1483 C 0.47922 0.64707 0.88524 0.0
C1484 C 0.46877 0.62136 0.87568 0.0
C1485 C 0.49783 0.63852 0.89798 0.0
C1486 C 0.50985 0.66494 0.90837 0.0
C1487 C 0.49929 0.66415 0.92299 0.0
C1488 C 0.50932 0.68983 0.93263 0.0
C1489 C 0.53019 0.71629 0.9278 0.0
C1490 C 0.54114 0.71707 0.91333 0.0
C1491 C 0.53111 0.69152 0.90366 0.0
H1492 H 0.53783 0.73618 0.93526 0.0
H1493 H 0.43322 0.48954 0.84206 0.0
H1494 H 0.75006 0.53679 0.36622 0.0
H1495 H 0.8122 0.54007 0.36552 0.0
H1496 H 0.81836 0.46678 0.40039 0.0
H1497 H 0.7564 0.46395 0.40133 0.0
H1498 H 0.85371 0.52136 0.40696 0.0
H1499 H 0.84391 0.44875 0.36483 0.0
H1500 H 0.82303 0.43211 0.34052 0.0
H1501 H 0.86646 0.52247 0.32206 0.0
H1502 H 0.88723 0.53988 0.34631 0.0
H1503 H 0.02859 0.47806 0.4068 0.0
H1504 H 0.96647 0.48148 0.40587 0.0
H1505 H 0.97329 0.55959 0.373 0.0
H1506 H 0.0357 0.55615 0.37398 0.0
H1507 H 0.93129 0.5086 0.36473 0.0
H1508 H 0.94469 0.57884 0.40674 0.0
H1509 H 0.966 0.59485 0.43106 0.0
H1510 H 0.91586 0.50841 0.44984 0.0
H1511 H 0.89466 0.49156 0.42559 0.0
C1512 C 0.7647 0.52061 0.37343 0.0
C1513 C 0.7484 0.50028 0.3839 0.0
C1514 C 0.80024 0.52258 0.37305 0.0
C1515 C 0.81995 0.50383 0.38298 0.0
C1516 C 0.80366 0.48177 0.39274 0.0
C1517 C 0.76825 0.48005 0.39322 0.0
C1518 C 0.85723 0.50913 0.38412 0.0
C1519 C 0.87073 0.51812 0.39776 0.0
C1520 C 0.87925 0.50626 0.372 0.0
C1521 C 0.86681 0.49579 0.35741 0.0
C1522 C 0.84876 0.46521 0.35561 0.0
C1523 C 0.837 0.45561 0.34183 0.0
C1524 C 0.84333 0.47627 0.32976 0.0
C1525 C 0.86153 0.50653 0.33142 0.0
C1526 C 0.87333 0.51626 0.34518 0.0
C1527 C 0.01677 0.49662 0.3997 0.0
C1528 C 0.03665 0.51687 0.39046 0.0
C1529 C 0.98134 0.4985 0.39913 0.0
C1530 C 0.96527 0.52083 0.38937 0.0
C1531 C 0.98521 0.54214 0.38057 0.0
C1532 C 0.0207 0.54029 0.38117 0.0
C1533 C 0.92778 0.51995 0.38766 0.0
C1534 C 0.91423 0.512 0.37391 0.0
C1535 C 0.90567 0.52367 0.39969 0.0
C1536 C 0.9183 0.53379 0.41431 0.0
C1537 C 0.93842 0.56308 0.41603 0.0
C1538 C 0.95045 0.57234 0.42981 0.0
C1539 C 0.94235 0.55262 0.44198 0.0
C1540 C 0.92214 0.52364 0.4404 0.0
C1541 C 0.91007 0.51425 0.42664 0.0
H1542 H 0.95168 0.55983 0.45264 0.0
H1543 H 0.8342 0.46879 0.3191 0.0
H1544 H 0.98037 0.74965 0.15124 0.0
H1545 H 0.98895 0.68826 0.14998 0.0
H1546 H 0.05833 0.70177 0.11401 0.0
H1547 H 0.04875 0.76305 0.11488 0.0
H1548 H 0.01063 0.66009 0.10655 0.0
H1549 H 0.08356 0.66937 0.14819 0.0
H1550 H 0.10029 0.68649 0.17302 0.0
H1551 H 0.01753 0.62867 0.19082 0.0
H1552 H -0.0 0.61156 0.16608 0.0
H1553 H 0.05514 0.48406 0.10069 0.0
H1554 H 0.05434 0.54609 0.10349 0.0
H1555 H 0.97793 0.53687 0.13701 0.0
H1556 H 0.9788 0.47489 0.1342 0.0
H1557 H 0.03115 0.57588 0.14574 0.0
H1558 H 0.95764 0.56823 0.10404 0.0
H1559 H 0.94088 0.55125 0.07919 0.0
H1560 H 0.02558 0.60646 0.06153 0.0
H1561 H 0.04318 0.62333 0.08631 0.0
C1562 C -0.00161 0.73962 0.14342 0.0
C1563 C 0.01372 0.76102 0.13309 0.0
C1564 C 0.00327 0.70447 0.14269 0.0
C1565 C 0.02417 0.69034 0.13184 0.0
C1566 C 0.04185 0.71207 0.12238 0.0
C1567 C 0.03654 0.74708 0.12294 0.0
C1568 C 0.02422 0.65316 0.12914 0.0
C1569 C 0.01584 0.64171 0.11508 0.0
C1570 C 0.02982 0.62913 0.14035 0.0
C1571 C 0.04029 0.63943 0.15525 0.0
C1572 C 0.06875 0.66053 0.15739 0.0
C1573 C 0.07841 0.67019 0.17145 0.0
C1574 C 0.05993 0.65874 0.18349 0.0
C1575 C 0.0318 0.63754 0.18149 0.0
C1576 C 0.02201 0.62783 0.16744 0.0
C1577 C 0.03768 0.49548 0.1084 0.0
C1578 C 0.01712 0.47506 0.11728 0.0
C1579 C 0.03729 0.53078 0.11003 0.0
C1580 C 0.01614 0.54602 0.1205 0.0
C1581 C 0.99457 0.52557 0.12895 0.0
C1582 C 0.99494 0.49034 0.12729 0.0
C1583 C 0.01777 0.58306 0.12319 0.0
C1584 C 0.02629 0.59439 0.13723 0.0
C1585 C 0.0124 0.60702 0.11196 0.0
C1586 C 0.00195 0.59673 0.09705 0.0
C1587 C 0.9729 0.57647 0.09487 0.0
C1588 C 0.96321 0.56692 0.0808 0.0
C1589 C 0.98221 0.57769 0.0688 0.0
C1590 C 0.01092 0.59808 0.07084 0.0
C1591 C 0.02076 0.60766 0.0849 0.0
H1592 H 0.97465 0.57031 0.0579 0.0
H1593 H 0.06746 0.66625 0.19437 0.0
H1594 H 0.74964 0.03987 0.62294 0.0
H1595 H 0.81158 0.0432 0.62193 0.0
H1596 H 0.81905 0.96677 0.65544 0.0
H1597 H 0.757 0.96345 0.65661 0.0
H1598 H 0.87471 0.01429 0.65508 0.0
H1599 H 0.81331 0.93888 0.62286 0.0
H1600 H 0.76809 0.92558 0.6051 0.0
H1601 H 0.80991 -0.00162 0.57523 0.0
H1602 H 0.85508 0.01252 0.59294 0.0
H1603 H 0.03228 0.94499 0.63323 0.0
H1604 H 0.97064 0.9448 0.63766 0.0
H1605 H 0.95765 0.02325 0.60532 0.0
H1606 H 0.01917 0.02413 0.60118 0.0
H1607 H 0.90486 0.97274 0.6056 0.0
H1608 H 0.96388 0.05027 0.63789 0.0
H1609 H 0.00807 0.0659 0.65579 0.0
H1610 H 0.97116 0.98937 0.68512 0.0
H1611 H 0.92663 0.97337 0.66739 0.0
C1612 C 0.76443 0.02478 0.63052 0.0
C1613 C 0.74858 0.00074 0.63957 0.0
C1614 C 0.7998 0.02669 0.62992 0.0
C1615 C 0.81967 0.00443 0.63828 0.0
C1616 C 0.804 0.98388 0.6488 0.0
C1617 C 0.76852 0.9821 0.64948 0.0
C1618 C 0.85549 -0.00172 0.63421 0.0
C1619 C 0.88132 0.00485 0.64434 0.0
C1620 C 0.86396 0.98613 0.62013 0.0
C1621 C 0.83743 0.97695 0.60927 0.0
C1622 C 0.81277 0.95216 0.61254 0.0
C1623 C 0.78716 0.94447 0.60248 0.0
C1624 C 0.78614 0.96113 0.58905 0.0
C1625 C 0.81076 0.98548 0.58564 0.0
C1626 C 0.83639 0.99333 0.59568 0.0
C1627 C 0.01603 0.96145 0.62682 0.0
C1628 C 0.03021 0.9847 0.61697 0.0
C1629 C 0.98101 0.96145 0.62938 0.0
C1630 C 0.95986 0.9844 0.62196 0.0
C1631 C 0.97366 0.00543 0.61115 0.0
C1632 C 0.0087 0.00574 0.60873 0.0
C1633 C 0.9241 0.98897 0.62644 0.0
C1634 C 0.89824 0.98201 0.61637 0.0
C1635 C 0.91564 0.00073 0.64056 0.0
C1636 C 0.94217 0.01041 0.65128 0.0
C1637 C 0.96532 0.03665 0.64813 0.0
C1638 C 0.99036 0.04563 0.65825 0.0
C1639 C 0.99256 0.0285 0.67154 0.0
C1640 C 0.96949 0.00256 0.6748 0.0
C1641 C 0.94426 0.99361 0.66475 0.0
H1642 H 0.01206 0.03539 0.67934 0.0
H1643 H 0.76626 0.95519 0.58128 0.0
H1644 H 0.51932 0.75062 0.15827 0.0
H1645 H 0.52198 0.81257 0.15818 0.0
H1646 H 0.45957 0.81511 0.11952 0.0
H1647 H 0.45707 0.75319 0.11942 0.0
H1648 H 0.52301 0.84235 0.1154 0.0
H1649 H 0.43244 0.85078 0.15075 0.0
H1650 H 0.40388 0.83899 0.17412 0.0
H1651 H 0.48838 0.88206 0.19736 0.0
H1652 H 0.51767 0.8937 0.17413 0.0
H1653 H 0.48656 0.01568 0.10408 0.0
H1654 H 0.49005 0.95439 0.10786 0.0
H1655 H 0.55751 0.97019 0.14434 0.0
H1656 H 0.55485 0.03189 0.14026 0.0
H1657 H 0.49915 0.93336 0.15133 0.0
H1658 H 0.58821 0.92848 0.11673 0.0
H1659 H 0.61901 0.93938 0.09382 0.0
H1660 H 0.54036 0.88866 0.06969 0.0
H1661 H 0.50882 0.87786 0.09243 0.0
C1662 C 0.50489 0.76435 0.15012 0.0
C1663 C 0.48859 0.74702 0.13865 0.0
C1664 C 0.50657 0.79982 0.15006 0.0
C1665 C 0.49152 0.81827 0.13868 0.0
C1666 C 0.47173 0.80119 0.12828 0.0
C1667 C 0.47017 0.76582 0.12829 0.0
C1668 C 0.50069 0.85423 0.13623 0.0
C1669 C 0.51732 0.86237 0.12316 0.0
C1670 C 0.49499 0.87985 0.14673 0.0
C1671 C 0.47742 0.87276 0.1607 0.0
C1672 C 0.44509 0.85743 0.16085 0.0
C1673 C 0.42873 0.85085 0.17407 0.0
C1674 C 0.44435 0.85967 0.18722 0.0
C1675 C 0.47633 0.87519 0.18717 0.0
C1676 C 0.49281 0.88181 0.17398 0.0
C1677 C 0.50325 0.00601 0.11251 0.0
C1678 C 0.5204 0.02829 0.12192 0.0
C1679 C 0.50508 0.97103 0.11472 0.0
C1680 C 0.52389 0.95787 0.12642 0.0
C1681 C 0.5428 0.97997 0.13528 0.0
C1682 C 0.54137 0.01502 0.13292 0.0
C1683 C 0.52031 0.9216 0.13026 0.0
C1684 C 0.505 0.9133 0.14361 0.0
C1685 C 0.52744 0.8957 0.12007 0.0
C1686 C 0.54597 0.90267 0.10629 0.0
C1687 C 0.57727 0.92 0.10652 0.0
C1688 C 0.59491 0.92608 0.09357 0.0
C1689 C 0.58161 0.91481 0.0803 0.0
C1690 C 0.55063 0.89741 0.07997 0.0
C1691 C 0.53287 0.89127 0.09289 0.0
H1692 H 0.59534 0.91949 0.07029 0.0
H1693 H 0.43163 0.85456 0.19744 0.0
H1694 H 0.4766 0.46855 0.60598 0.0
H1695 H 0.53841 0.47079 0.6097 0.0
H1696 H 0.52558 0.55361 0.64001 0.0
H1697 H 0.46369 0.55121 0.63633 0.0
H1698 H 0.58527 0.5589 0.62204 0.0
H1699 H 0.52979 0.4806 0.65432 0.0
H1700 H 0.49118 0.4334 0.66056 0.0
H1701 H 0.54938 0.36577 0.6336 0.0
H1702 H 0.58824 0.41266 0.62712 0.0
H1703 H 0.7456 0.5371 0.65523 0.0
H1704 H 0.68328 0.53766 0.65482 0.0
H1705 H 0.68345 0.45542 0.62376 0.0
H1706 H 0.74561 0.4549 0.624 0.0
H1707 H 0.62925 0.45219 0.64401 0.0
H1708 H 0.68372 0.53175 0.61122 0.0
H1709 H 0.72231 0.57916 0.60527 0.0
H1710 H 0.66543 0.6453 0.63341 0.0
H1711 H 0.62687 0.59807 0.63974 0.0
C1712 C 0.48721 0.48799 0.61301 0.0
C1713 C 0.46579 0.5098 0.62085 0.0
C1714 C 0.52234 0.48909 0.61523 0.0
C1715 C 0.53638 0.51205 0.62529 0.0
C1716 C 0.51518 0.53574 0.63222 0.0
C1717 C 0.47999 0.53446 0.63007 0.0
C1718 C 0.57244 0.50881 0.6297 0.0
C1719 C 0.59485 0.5358 0.62703 0.0
C1720 C 0.58481 0.47856 0.63615 0.0
C1721 C 0.56174 0.4502 0.64013 0.0
C1722 C 0.53422 0.45572 0.64964 0.0
C1723 C 0.51231 0.42902 0.65324 0.0
C1724 C 0.51773 0.39665 0.64743 0.0
C1725 C 0.54518 0.39087 0.63807 0.0
C1726 C 0.5672 0.41748 0.63446 0.0
C1727 C 0.73235 0.51827 0.64875 0.0
C1728 C 0.75042 0.49615 0.63954 0.0
C1729 C 0.69678 0.51884 0.64843 0.0
C1730 C 0.67893 0.49703 0.63904 0.0
C1731 C 0.69683 0.47257 0.63101 0.0
C1732 C 0.73232 0.47228 0.63118 0.0
C1733 C 0.64222 0.50212 0.63621 0.0
C1734 C 0.61965 0.47543 0.63916 0.0
C1735 C 0.62973 0.53272 0.63006 0.0
C1736 C 0.65267 0.56124 0.62611 0.0
C1737 C 0.67962 0.55632 0.61625 0.0
C1738 C 0.70146 0.58318 0.61278 0.0
C1739 C 0.69638 0.61521 0.61899 0.0
C1740 C 0.66937 0.62047 0.62863 0.0
C1741 C 0.64752 0.59365 0.63216 0.0
H1742 H 0.71335 0.63594 0.61632 0.0
H1743 H 0.50071 0.37603 0.65021 0.0
H1744 H 0.09768 0.36454 0.31656 0.0
H1745 H 0.08874 0.35716 0.29055 0.0
H1746 H 0.12069 0.4605 0.28302 0.0
H1747 H 0.12771 0.46879 0.30924 0.0
H1748 H 0.06807 0.44744 0.26665 0.0
H1749 H 0.17296 0.38982 0.2752 0.0
H1750 H 0.21244 0.34985 0.28715 0.0
H1751 H 0.14872 0.26605 0.27474 0.0
H1752 H 0.1086 0.30558 0.26288 0.0
H1753 H 0.10406 0.42529 0.19077 0.0
H1754 H 0.1067 0.43468 0.21709 0.0
H1755 H 0.05506 0.33952 0.22431 0.0
H1756 H 0.052 0.33015 0.19784 0.0
H1757 H 0.1168 0.34825 0.2406 0.0
H1758 H 0.01298 0.40856 0.23105 0.0
H1759 H 0.97644 0.45017 0.21846 0.0
H1760 H 0.04252 0.53115 0.232 0.0
H1761 H 0.07977 0.48994 0.2445 0.0
C1762 C 0.10297 0.3858 0.30942 0.0
C1763 C 0.11434 0.41705 0.31512 0.0
C1764 C 0.09806 0.3814 0.29447 0.0
C1765 C 0.10477 0.40797 0.28468 0.0
C1766 C 0.11571 0.43941 0.29029 0.0
C1767 C 0.12033 0.44396 0.30535 0.0
C1768 C 0.09967 0.40292 0.26868 0.0
C1769 C 0.07916 0.426 0.26095 0.0
C1770 C 0.11351 0.37458 0.26117 0.0
C1771 C 0.13761 0.35071 0.26827 0.0
C1772 C 0.16723 0.36289 0.27512 0.0
C1773 C 0.18975 0.34032 0.28186 0.0
C1774 C 0.18305 0.30545 0.28174 0.0
C1775 C 0.15386 0.29308 0.27484 0.0
C1776 C 0.13123 0.31555 0.26809 0.0
C1777 C 0.09279 0.40659 0.19796 0.0
C1778 C 0.07753 0.37713 0.19224 0.0
C1779 C 0.09427 0.41203 0.213 0.0
C1780 C 0.08097 0.38789 0.22268 0.0
C1781 C 0.06534 0.35856 0.21702 0.0
C1782 C 0.06333 0.35337 0.20191 0.0
C1783 C 0.08519 0.39265 0.23868 0.0
C1784 C 0.10565 0.36958 0.24637 0.0
C1785 C 0.07176 0.42124 0.24607 0.0
C1786 C 0.04935 0.4461 0.2386 0.0
C1787 C 0.0199 0.4352 0.23124 0.0
C1788 C -0.00098 0.45872 0.22414 0.0
C1789 C 0.0072 0.49327 0.2244 0.0
C1790 C 0.03624 0.50437 0.23179 0.0
C1791 C 0.05722 0.48094 0.2389 0.0
H1792 H 0.991 0.51145 0.21889 0.0
H1793 H 0.20051 0.28801 0.28696 0.0
H1794 H 0.05066 0.08992 0.68812 0.0
H1795 H 0.04261 0.0955 0.71435 0.0
H1796 H 0.14924 0.07512 0.72127 0.0
H1797 H 0.15753 0.06954 0.6949 0.0
H1798 H 0.10929 0.04371 0.74181 0.0
H1799 H 0.12044 0.15563 0.72178 0.0
H1800 H 0.10721 0.20276 0.70501 0.0
H1801 H 0.00434 0.20524 0.72073 0.0
H1802 H 0.01683 0.15776 0.73746 0.0
H1803 H 0.12454 0.11308 0.81246 0.0
H1804 H 0.1299 0.10307 0.78637 0.0
H1805 H 0.0224 0.12083 0.78089 0.0
H1806 H 0.01658 0.13016 0.80716 0.0
H1807 H 0.06155 0.15285 0.75967 0.0
H1808 H 0.05115 0.04173 0.78026 0.0
H1809 H 0.06487 0.99488 0.7971 0.0
H1810 H 0.16688 0.99122 0.78044 0.0
H1811 H 0.15392 0.03843 0.76364 0.0
C1812 C 0.07241 0.08629 0.69521 0.0
C1813 C 0.10475 0.07916 0.68938 0.0
C1814 C 0.06775 0.08958 0.71022 0.0
C1815 C 0.09541 0.0863 0.71979 0.0
C1816 C 0.12751 0.07778 0.71409 0.0
C1817 C 0.13219 0.07434 0.699 0.0
C1818 C 0.09088 0.09317 0.73563 0.0
C1819 C 0.09928 0.06773 0.74572 0.0
C1820 C 0.07704 0.12424 0.74075 0.0
C1821 C 0.06949 0.15292 0.73077 0.0
C1822 C 0.09493 0.16605 0.72158 0.0
C1823 C 0.08757 0.19286 0.7121 0.0
C1824 C 0.05493 0.20693 0.71178 0.0
C1825 C 0.0296 0.19428 0.72098 0.0
C1826 C 0.03681 0.16744 0.73047 0.0
C1827 C 0.10194 0.115 0.80574 0.0
C1828 C 0.07018 0.12294 0.81196 0.0
C1829 C 0.10509 0.10917 0.7908 0.0
C1830 C 0.07653 0.11088 0.78167 0.0
C1831 C 0.04483 0.11949 0.78773 0.0
C1832 C 0.0416 0.12519 0.80276 0.0
C1833 C 0.08 0.10342 0.76584 0.0
C1834 C 0.07145 0.12879 0.75575 0.0
C1835 C 0.09378 0.07232 0.76073 0.0
C1836 C 0.10165 0.04385 0.77079 0.0
C1837 C 0.0766 0.03113 0.78027 0.0
C1838 C 0.08422 0.00447 0.78979 0.0
C1839 C 0.11675 0.99014 0.78986 0.0
C1840 C 0.1417 0.00238 0.78038 0.0
C1841 C 0.13422 0.02907 0.77085 0.0
H1842 H 0.1226 0.96949 0.79724 0.0
H1843 H 0.04929 0.22769 0.70443 0.0
H1844 H 0.3344 0.06139 0.31037 0.0
H1845 H 0.34178 0.06743 0.28401 0.0
H1846 H 0.4497 0.08197 0.29017 0.0
H1847 H 0.44217 0.07695 0.3165 0.0
H1848 H 0.42849 0.12737 0.27241 0.0
H1849 H 0.41344 0.00682 0.27509 0.0
H1850 H 0.38506 0.95325 0.28191 0.0
H1851 H 0.29669 0.98224 0.25733 0.0
H1852 H 0.32436 0.03622 0.25053 0.0
H1853 H 0.46952 0.11468 0.19613 0.0
H1854 H 0.46578 0.10612 0.22251 0.0
H1855 H 0.35646 0.09986 0.21931 0.0
H1856 H 0.35998 0.1086 0.19307 0.0
H1857 H 0.38077 0.04887 0.23542 0.0
H1858 H 0.39668 0.17049 0.23342 0.0
H1859 H 0.42638 0.22331 0.22655 0.0
H1860 H 0.51538 0.19057 0.24981 0.0
H1861 H 0.48635 0.13732 0.25666 0.0
C1862 C 0.35977 0.06507 0.30607 0.0
C1863 C 0.38775 0.06832 0.31549 0.0
C1864 C 0.36401 0.06862 0.29097 0.0
C1865 C 0.39641 0.07489 0.28499 0.0
C1866 C 0.42444 0.07729 0.29444 0.0
C1867 C 0.42013 0.07425 0.30949 0.0
C1868 C 0.40102 0.08059 0.26901 0.0
C1869 C 0.41849 0.10985 0.26436 0.0
C1870 C 0.38753 0.0582 0.25838 0.0
C1871 C 0.37087 0.02571 0.26241 0.0
C1872 C 0.38786 0.00189 0.27123 0.0
C1873 C 0.37192 0.97143 0.27507 0.0
C1874 C 0.33906 0.96438 0.27009 0.0
C1875 C 0.32212 0.98775 0.2612 0.0
C1876 C 0.33794 0.01826 0.25734 0.0
C1877 C 0.44465 0.11244 0.20107 0.0
C1878 C 0.41502 0.11291 0.19246 0.0
C1879 C 0.44254 0.10723 0.21617 0.0
C1880 C 0.41078 0.10247 0.22296 0.0
C1881 C 0.38125 0.10333 0.21438 0.0
C1882 C 0.38334 0.10845 0.19935 0.0
C1883 C 0.40803 0.09566 0.2389 0.0
C1884 C 0.39091 0.06622 0.24352 0.0
C1885 C 0.42206 0.11772 0.24949 0.0
C1886 C 0.43946 0.14978 0.24542 0.0
C1887 C 0.42268 0.17444 0.23697 0.0
C1888 C 0.43937 0.20447 0.2331 0.0
C1889 C 0.47278 0.21025 0.2377 0.0
C1890 C 0.48953 0.18604 0.24623 0.0
C1891 C 0.47295 0.15594 0.25012 0.0
H1892 H 0.48566 0.23351 0.23469 0.0
H1893 H 0.32676 0.94079 0.27308 0.0
H1894 H 0.38699 0.40863 0.81945 0.0
H1895 H 0.37832 0.41457 0.79336 0.0
H1896 H 0.47876 0.37448 0.78544 0.0
H1897 H 0.4883 0.36987 0.81175 0.0
H1898 H 0.467 0.42813 0.76838 0.0
H1899 H 0.40614 0.3262 0.77933 0.0
H1900 H 0.36543 0.28983 0.79253 0.0
H1901 H 0.28336 0.35573 0.78001 0.0
H1902 H 0.32366 0.39279 0.76691 0.0
H1903 H 0.4394 0.39767 0.69275 0.0
H1904 H 0.45075 0.39315 0.71883 0.0
H1905 H 0.35291 0.43782 0.7281 0.0
H1906 H 0.34107 0.44177 0.70193 0.0
H1907 H 0.36421 0.38102 0.74431 0.0
H1908 H 0.42585 0.48294 0.73331 0.0
H1909 H 0.46694 0.51849 0.71992 0.0
H1910 H 0.54809 0.45128 0.73226 0.0
H1911 H 0.50738 0.41502 0.74556 0.0
C1912 C 0.40732 0.40088 0.81222 0.0
C1913 C 0.43813 0.38804 0.81781 0.0
C1914 C 0.40218 0.40411 0.79723 0.0
C1915 C 0.42757 0.39435 0.78734 0.0
C1916 C 0.45859 0.38183 0.79283 0.0
C1917 C 0.46384 0.37871 0.80791 0.0
C1918 C 0.42173 0.39808 0.77134 0.0
C1919 C 0.44481 0.41733 0.76308 0.0
C1920 C 0.39234 0.38475 0.76442 0.0
C1921 C 0.36799 0.36243 0.77224 0.0
C1922 C 0.37945 0.33308 0.77948 0.0
C1923 C 0.35644 0.31231 0.78693 0.0
C1924 C 0.32184 0.3205 0.78713 0.0
C1925 C 0.31017 0.34944 0.77986 0.0
C1926 C 0.33309 0.37031 0.7724 0.0
C1927 C 0.42038 0.40687 0.70033 0.0
C1928 C 0.38952 0.42058 0.69522 0.0
C1929 C 0.427 0.4044 0.71526 0.0
C1930 C 0.40287 0.41548 0.72548 0.0
C1931 C 0.37203 0.42932 0.72043 0.0
C1932 C 0.36545 0.43197 0.70544 0.0
C1933 C 0.40936 0.4112 0.74138 0.0
C1934 C 0.38641 0.39178 0.74962 0.0
C1935 C 0.43894 0.42423 0.74824 0.0
C1936 C 0.4635 0.44609 0.74032 0.0
C1937 C 0.45241 0.47558 0.73307 0.0
C1938 C 0.47564 0.49589 0.72552 0.0
C1939 C 0.51009 0.48711 0.72521 0.0
C1940 C 0.52139 0.45803 0.73249 0.0
C1941 C 0.49825 0.43761 0.74005 0.0
H1942 H 0.52803 0.50286 0.71936 0.0
H1943 H 0.30407 0.3044 0.79291 0.0
H1944 H 0.86637 0.59297 0.82258 0.0
H1945 H 0.8637 0.58388 0.79637 0.0
H1946 H 0.96696 0.61924 0.79203 0.0
H1947 H 0.97043 0.62731 0.81842 0.0
H1948 H 0.92121 0.6462 0.77071 0.0
H1949 H 0.95471 0.53883 0.79008 0.0
H1950 H 0.95119 0.48978 0.8067 0.0
H1951 H 0.85199 0.46553 0.79005 0.0
H1952 H 0.85463 0.51486 0.7735 0.0
H1953 H 0.9401 0.59153 0.69796 0.0
H1954 H 0.94871 0.59739 0.72417 0.0
H1955 H 0.84943 0.55446 0.73197 0.0
H1956 H 0.84057 0.54861 0.70566 0.0
H1957 H 0.89614 0.53081 0.75163 0.0
H1958 H 0.86149 0.63973 0.73324 0.0
H1959 H 0.86424 0.68968 0.71707 0.0
H1960 H 0.9654 0.71134 0.73215 0.0
H1961 H 0.96344 0.6612 0.74828 0.0
C1962 C 0.88863 0.59896 0.81612 0.0
C1963 C 0.91847 0.61145 0.82275 0.0
C1964 C 0.88699 0.5937 0.80109 0.0
C1965 C 0.91515 0.60072 0.79223 0.0
C1966 C 0.94483 0.61384 0.79867 0.0
C1967 C 0.94663 0.61883 0.8138 0.0
C1968 C 0.91342 0.5937 0.77631 0.0
C1969 C 0.91634 0.62088 0.76652 0.0
C1970 C 0.90626 0.56077 0.77085 0.0
C1971 C 0.90474 0.53076 0.78064 0.0
C1972 C 0.93202 0.52321 0.79004 0.0
C1973 C 0.9302 0.49533 0.79944 0.0
C1974 C 0.90135 0.4746 0.79946 0.0
C1975 C 0.8743 0.48164 0.79004 0.0
C1976 C 0.87596 0.50955 0.78063 0.0
C1977 C 0.92014 0.58303 0.70524 0.0
C1978 C 0.88972 0.56934 0.69965 0.0
C1979 C 0.9251 0.58649 0.72024 0.0
C1980 C 0.89956 0.57682 0.73008 0.0
C1981 C 0.86956 0.56206 0.7246 0.0
C1982 C 0.86461 0.55847 0.70952 0.0
C1983 C 0.90375 0.58338 0.746 0.0
C1984 C 0.90123 0.5561 0.7558 0.0
C1985 C 0.91126 0.61625 0.75148 0.0
C1986 C 0.91244 0.64652 0.74185 0.0
C1987 C 0.88442 0.65499 0.73303 0.0
C1988 C 0.88582 0.68336 0.72388 0.0
C1989 C 0.91501 0.70362 0.72356 0.0
C1990 C 0.94283 0.69559 0.7324 0.0
C1991 C 0.94158 0.66722 0.74155 0.0
H1992 H 0.91605 0.72557 0.71647 0.0
H1993 H 0.89999 0.45303 0.80675 0.0
H1994 H 0.92869 0.94312 0.19856 0.0
H1995 H 0.92168 0.94815 0.22492 0.0
H1996 H 0.94013 0.84067 0.22963 0.0
H1997 H 0.94709 0.83548 0.20314 0.0
H1998 H 0.88114 0.86273 0.2436 0.0
H1999 H -0.00136 0.89578 0.24131 0.0
H2000 H 0.0477 0.92884 0.23242 0.0
H2001 H 0.0005 0.02119 0.247 0.0
H2002 H 0.95091 0.98872 0.25581 0.0
H2003 H 0.88485 0.85733 0.32017 0.0
H2004 H 0.89763 0.8537 0.29432 0.0
H2005 H 0.89313 0.96294 0.29096 0.0
H2006 H 0.88229 0.9669 0.31713 0.0
H2007 H 0.94537 0.94043 0.27612 0.0
H2008 H 0.82797 0.91006 0.27775 0.0
H2009 H 0.777 0.87918 0.2861 0.0
H2010 H 0.821 0.78483 0.27204 0.0
H2011 H 0.87246 0.8151 0.26377 0.0
C2012 C 0.93186 0.92064 0.20524 0.0
C2013 C 0.93884 0.88897 0.19879 0.0
C2014 C 0.92792 0.92358 0.22031 0.0
C2015 C 0.93057 0.89484 0.22928 0.0
C2016 C 0.93817 0.86322 0.22292 0.0
C2017 C 0.94252 0.86033 0.2078 0.0
C2018 C 0.92313 0.89764 0.24513 0.0
C2019 C 0.89556 0.87924 0.25078 0.0
C2020 C 0.94106 0.92026 0.25435 0.0
C2021 C 0.97091 0.93983 0.24911 0.0
C2022 C -0.00142 0.92316 0.24252 0.0
C2023 C 0.02652 0.94179 0.23751 0.0
C2024 C 0.02718 0.9771 0.23911 0.0
C2025 C -6e-05 0.99384 0.24576 0.0
C2026 C 0.97193 0.97533 0.25077 0.0
C2027 C 0.88639 0.8807 0.31397 0.0
C2028 C 0.88166 0.91241 0.32079 0.0
C2029 C 0.89348 0.87853 0.2991 0.0
C2030 C 0.89564 0.90798 0.29054 0.0
C2031 C 0.8912 0.93978 0.29728 0.0
C2032 C 0.88438 0.942 0.31226 0.0
C2033 C 0.90342 0.90532 0.27466 0.0
C2034 C 0.93096 0.92382 0.26898 0.0
C2035 C 0.88515 0.88313 0.26533 0.0
C2036 C 0.85421 0.86483 0.27026 0.0
C2037 C 0.82689 0.8827 0.27654 0.0
C2038 C 0.79789 0.86531 0.28124 0.0
C2039 C 0.7958 0.83006 0.27964 0.0
C2040 C 0.82267 0.81213 0.27329 0.0
C2041 C 0.85175 0.82939 0.26858 0.0
H2042 H 0.77332 0.81664 0.28328 0.0
H2043 H 0.04883 0.99147 0.23523 0.0
H2044 H 0.55314 0.82713 0.81588 0.0
H2045 H 0.56027 0.83359 0.78945 0.0
H2046 H 0.58805 0.93866 0.79551 0.0
H2047 H 0.58121 0.93226 0.82188 0.0
H2048 H 0.54323 0.9272 0.77143 0.0
H2049 H 0.6489 0.88541 0.79148 0.0
H2050 H 0.68441 0.84561 0.80561 0.0
H2051 H 0.65392 0.76361 0.77762 0.0
H2052 H 0.61779 0.80288 0.76345 0.0
H2053 H 0.61961 0.96099 0.70298 0.0
H2054 H 0.60902 0.95569 0.72907 0.0
H2055 H 0.60182 0.8468 0.72452 0.0
H2056 H 0.61449 0.85176 0.69862 0.0
H2057 H 0.63513 0.86007 0.74806 0.0
H2058 H 0.53029 0.90013 0.72765 0.0
H2059 H 0.49318 0.93844 0.71351 0.0
H2060 H 0.51926 0.02135 0.74181 0.0
H2061 H 0.55692 0.98362 0.75601 0.0
C2062 C 0.55998 0.85176 0.81154 0.0
C2063 C 0.56636 0.87928 0.82091 0.0
C2064 C 0.56432 0.85537 0.79646 0.0
C2065 C 0.57483 0.88659 0.79053 0.0
C2066 C 0.57986 0.91439 0.79984 0.0
C2067 C 0.57604 0.91067 0.81489 0.0
C2068 C 0.58251 0.8899 0.77475 0.0
C2069 C 0.5635 0.91277 0.76631 0.0
C2070 C 0.60853 0.8706 0.76805 0.0
C2071 C 0.63035 0.847 0.77651 0.0
C2072 C 0.64953 0.85884 0.78842 0.0
C2073 C 0.66981 0.83639 0.79642 0.0
C2074 C 0.67134 0.80208 0.79254 0.0
C2075 C 0.65266 0.79018 0.78062 0.0
C2076 C 0.63229 0.81252 0.7726 0.0
C2077 C 0.61686 0.93584 0.70755 0.0
C2078 C 0.61873 0.90675 0.69868 0.0
C2079 C 0.61006 0.93287 0.72249 0.0
C2080 C 0.60418 0.90084 0.7288 0.0
C2081 C 0.60628 0.87181 0.71997 0.0
C2082 C 0.61339 0.87473 0.70511 0.0
C2083 C 0.59572 0.89734 0.74457 0.0
C2084 C 0.61469 0.87446 0.75308 0.0
C2085 C 0.5694 0.9164 0.75128 0.0
C2086 C 0.54669 0.93913 0.7428 0.0
C2087 C 0.52831 0.92659 0.73079 0.0
C2088 C 0.50715 0.94819 0.72278 0.0
C2089 C 0.50394 0.98233 0.72674 0.0
C2090 C 0.52181 0.99492 0.73875 0.0
C2091 C 0.54305 0.97343 0.74679 0.0
H2092 H 0.48753 -0.00099 0.72052 0.0
H2093 H 0.68707 0.78474 0.79874 0.0
H2094 H 0.62816 0.6177 0.20067 0.0
H2095 H 0.63294 0.60565 0.22664 0.0
H2096 H 0.52366 0.59917 0.22986 0.0
H2097 H 0.51865 0.61097 0.20372 0.0
H2098 H 0.55167 0.6342 0.25285 0.0
H2099 H 0.57077 0.52768 0.22889 0.0
H2100 H 0.59759 0.48894 0.21117 0.0
H2101 H 0.69528 0.50687 0.2307 0.0
H2102 H 0.66911 0.54613 0.24842 0.0
H2103 H 0.54987 0.5604 0.3227 0.0
H2104 H 0.54233 0.56876 0.29654 0.0
H2105 H 0.6513 0.5692 0.29081 0.0
H2106 H 0.65893 0.56009 0.31704 0.0
H2107 H 0.62186 0.53623 0.26893 0.0
H2108 H 0.60378 0.64393 0.29228 0.0
H2109 H 0.57775 0.68354 0.30986 0.0
H2110 H 0.47916 0.66441 0.2914 0.0
H2111 H 0.50456 0.62432 0.27381 0.0
C2112 C 0.60505 0.6139 0.20689 0.0
C2113 C 0.57299 0.61568 0.20009 0.0
C2114 C 0.60787 0.60689 0.22175 0.0
C2115 C 0.57871 0.60104 0.23018 0.0
C2116 C 0.54653 0.60364 0.22356 0.0
C2117 C 0.54368 0.61072 0.20862 0.0
C2118 C 0.5821 0.59177 0.24585 0.0
C2119 C 0.56656 0.61247 0.25636 0.0
C2120 C 0.60224 0.56389 0.25047 0.0
C2121 C 0.61801 0.54007 0.2399 0.0
C2122 C 0.59801 0.52355 0.22934 0.0
C2123 C 0.61309 0.50147 0.21931 0.0
C2124 C 0.64812 0.49551 0.21979 0.0
C2125 C 0.66814 0.51154 0.23033 0.0
C2126 C 0.6532 0.53368 0.24038 0.0
C2127 C 0.57225 0.5619 0.31584 0.0
C2128 C 0.605 0.55942 0.32193 0.0
C2129 C 0.5679 0.56689 0.30089 0.0
C2130 C 0.59623 0.57037 0.29169 0.0
C2131 C 0.62902 0.56668 0.29766 0.0
C2132 C 0.63338 0.56126 0.31266 0.0
C2133 C 0.59156 0.57876 0.27597 0.0
C2134 C 0.60687 0.55791 0.26544 0.0
C2135 C 0.57132 0.6066 0.27133 0.0
C2136 C 0.55603 0.63089 0.28182 0.0
C2137 C 0.57652 0.648 0.29203 0.0
C2138 C 0.56188 0.67056 0.30199 0.0
C2139 C 0.52681 0.67642 0.30177 0.0
C2140 C 0.50631 0.65981 0.29156 0.0
C2141 C 0.52082 0.63719 0.28159 0.0
H2142 H 0.51553 0.69389 0.30949 0.0
H2143 H 0.65975 0.47841 0.21201 0.0
H2144 H 0.37317 0.15499 0.08136 0.0
H2145 H 0.31589 0.17605 0.07635 0.0
H2146 H 0.28476 0.14842 0.11981 0.0
H2147 H 0.34182 0.12718 0.12492 0.0
H2148 H 0.23141 0.14456 0.09932 0.0
H2149 H 0.31939 0.2221 0.11585 0.0
H2150 H 0.37599 0.24897 0.11429 0.0
H2151 H 0.35166 0.28758 0.07179 0.0
H2152 H 0.29508 0.26037 0.073 0.0
H2153 H 0.13394 0.27937 0.12968 0.0
H2154 H 0.18011 0.24009 0.12383 0.0
H2155 H 0.17376 0.26861 0.07857 0.0
H2156 H 0.12661 0.30731 0.08421 0.0
H2157 H 0.24294 0.26977 0.09472 0.0
H2158 H 0.1483 0.2001 0.08151 0.0
H2159 H 0.09321 0.17066 0.08383 0.0
H2160 H 0.12982 0.11734 0.12151 0.0
H2161 H 0.18497 0.14693 0.11959 0.0
C2162 C 0.35384 0.1522 0.08968 0.0
C2163 C 0.36221 0.14028 0.10367 0.0
C2164 C 0.32113 0.16426 0.08678 0.0
C2165 C 0.29649 0.16442 0.09783 0.0
C2166 C 0.30357 0.14866 0.11118 0.0
C2167 C 0.33627 0.13674 0.11411 0.0
C2168 C 0.26615 0.18633 0.09661 0.0
C2169 C 0.23378 0.17191 0.09826 0.0
C2170 C 0.2695 0.22198 0.09509 0.0
C2171 C 0.30322 0.23885 0.09443 0.0
C2172 C 0.32622 0.23611 0.10613 0.0
C2173 C 0.35828 0.25141 0.10531 0.0
C2174 C 0.36746 0.26988 0.09293 0.0
C2175 C 0.34454 0.27318 0.08136 0.0
C2176 C 0.31249 0.25782 0.0821 0.0
C2177 C 0.14248 0.27754 0.11849 0.0
C2178 C 0.12667 0.29645 0.1074 0.0
C2179 C 0.16857 0.25484 0.11516 0.0
C2180 C 0.17973 0.25121 0.10076 0.0
C2181 C 0.16501 0.27089 0.08972 0.0
C2182 C 0.13831 0.29307 0.09298 0.0
C2183 C 0.20815 0.22805 0.09756 0.0
C2184 C 0.24033 0.24235 0.09531 0.0
C2185 C 0.20456 0.1924 0.09875 0.0
C2186 C 0.17077 0.17595 0.10045 0.0
C2187 C 0.14448 0.18249 0.09043 0.0
C2188 C 0.1133 0.1656 0.09161 0.0
C2189 C 0.10814 0.14193 0.10274 0.0
C2190 C 0.13397 0.13547 0.11282 0.0
C2191 C 0.16518 0.15234 0.1117 0.0
H2192 H 0.08404 0.12877 0.1036 0.0
H2193 H 0.39229 0.2817 0.09231 0.0
H2194 H 0.29155 0.39148 0.58859 0.0
H2195 H 0.25609 0.34169 0.58398 0.0
H2196 H 0.28851 0.29788 0.62476 0.0
H2197 H 0.32411 0.34752 0.62951 0.0
H2198 H 0.28296 0.25023 0.60326 0.0
H2199 H 0.21762 0.34158 0.62361 0.0
H2200 H 0.19428 0.39962 0.62512 0.0
H2201 H 0.14319 0.38556 0.58421 0.0
H2202 H 0.16691 0.32766 0.58227 0.0
H2203 H 0.12692 0.1607 0.6235 0.0
H2204 H 0.15197 0.21708 0.62058 0.0
H2205 H 0.18993 0.18855 0.57826 0.0
H2206 H 0.16475 0.13227 0.58096 0.0
H2207 H 0.15885 0.27301 0.59957 0.0
H2208 H 0.27694 0.19688 0.58258 0.0
H2209 H 0.2977 0.13768 0.58367 0.0
H2210 H 0.24059 0.12097 0.62287 0.0
H2211 H 0.22026 0.18028 0.62222 0.0
C2212 C 0.29182 0.37093 0.59644 0.0
C2213 C 0.31037 0.37365 0.60952 0.0
C2214 C 0.27135 0.34262 0.59381 0.0
C2215 C 0.26924 0.31654 0.60417 0.0
C2216 C 0.28968 0.31792 0.61669 0.0
C2217 C 0.31001 0.34631 0.61938 0.0
C2218 C 0.24414 0.2889 0.60248 0.0
C2219 C 0.2559 0.25527 0.6023 0.0
C2220 C 0.20871 0.29554 0.60156 0.0
C2221 C 0.19455 0.33046 0.60268 0.0
C2222 C 0.20178 0.351 0.61484 0.0
C2223 C 0.18842 0.38387 0.61578 0.0
C2224 C 0.16747 0.39636 0.60471 0.0
C2225 C 0.15963 0.37592 0.59272 0.0
C2226 C 0.17305 0.34309 0.59169 0.0
C2227 C 0.13938 0.16689 0.61331 0.0
C2228 C 0.1447 0.14183 0.60263 0.0
C2229 C 0.15349 0.19917 0.61164 0.0
C2230 C 0.1733 0.20649 0.59935 0.0
C2231 C 0.17486 0.18309 0.58786 0.0
C2232 C 0.16045 0.15093 0.58944 0.0
C2233 C 0.19788 0.23469 0.6 0.0
C2234 C 0.18602 0.26823 0.60016 0.0
C2235 C 0.23315 0.22804 0.60131 0.0
C2236 C 0.24667 0.19285 0.60221 0.0
C2237 C 0.269 0.18062 0.59148 0.0
C2238 C 0.2807 0.14706 0.59202 0.0
C2239 C 0.27026 0.12552 0.60327 0.0
C2240 C 0.24845 0.13761 0.6141 0.0
C2241 C 0.2369 0.17121 0.61367 0.0
H2242 H 0.27921 0.09952 0.60363 0.0
H2243 H 0.15718 0.42181 0.60543 0.0
H2244 H 0.11748 0.2007 0.91769 0.0
H2245 H 0.17343 0.22632 0.92135 0.0
H2246 H 0.19692 0.21077 0.87592 0.0
H2247 H 0.14137 0.18457 0.87219 0.0
H2248 H 0.25111 0.19756 0.89279 0.0
H2249 H 0.16916 0.28824 0.88738 0.0
H2250 H 0.11673 0.31984 0.8932 0.0
H2251 H 0.1512 0.33376 0.93721 0.0
H2252 H 0.204 0.30229 0.93159 0.0
H2253 H 0.36951 0.32311 0.87508 0.0
H2254 H 0.31437 0.29529 0.87735 0.0
H2255 H 0.3213 0.30108 0.92415 0.0
H2256 H 0.37705 0.3286 0.92207 0.0
H2257 H 0.25359 0.31718 0.91004 0.0
H2258 H 0.34124 0.2318 0.9129 0.0
H2259 H 0.39356 0.20244 0.90503 0.0
H2260 H 0.34739 0.17944 0.86379 0.0
H2261 H 0.29499 0.20919 0.87132 0.0
C2262 C 0.13472 0.20226 0.90852 0.0
C2263 C 0.12487 0.19085 0.89461 0.0
C2264 C 0.1666 0.21706 0.91062 0.0
C2265 C 0.18899 0.22089 0.89885 0.0
C2266 C 0.1799 0.20809 0.88514 0.0
C2267 C 0.1481 0.19321 0.88302 0.0
C2268 C 0.22123 0.23972 0.90058 0.0
C2269 C 0.25167 0.22372 0.89652 0.0
C2270 C 0.2219 0.27366 0.90569 0.0
C2271 C 0.1903 0.29264 0.90911 0.0
C2272 C 0.16546 0.29788 0.89832 0.0
C2273 C 0.13572 0.31583 0.90157 0.0
C2274 C 0.13053 0.32865 0.91559 0.0
C2275 C 0.15522 0.32375 0.92636 0.0
C2276 C 0.18511 0.30596 0.92314 0.0
C2277 C 0.35914 0.31913 0.88588 0.0
C2278 C 0.37783 0.32772 0.89842 0.0
C2279 C 0.3277 0.3031 0.88713 0.0
C2280 C 0.31429 0.29579 0.9009 0.0
C2281 C 0.33157 0.30644 0.91345 0.0
C2282 C 0.36332 0.32212 0.91222 0.0
C2283 C 0.28322 0.27513 0.90203 0.0
C2284 C 0.25306 0.29081 0.90658 0.0
C2285 C 0.28275 0.24101 0.89719 0.0
C2286 C 0.31427 0.22305 0.89263 0.0
C2287 C 0.34235 0.2208 0.9021 0.0
C2288 C 0.37201 0.20402 0.89771 0.0
C2289 C 0.37383 0.18919 0.8839 0.0
C2290 C 0.34596 0.191 0.87448 0.0
C2291 C 0.31627 0.2078 0.8788 0.0
H2292 H 0.39681 0.17626 0.88051 0.0
H2293 H 0.10744 0.34247 0.9181 0.0
H2294 H 0.17843 0.37919 0.42433 0.0
H2295 H 0.20969 0.32667 0.42955 0.0
H2296 H 0.20698 0.30024 0.38401 0.0
H2297 H 0.17525 0.35192 0.37865 0.0
H2298 H 0.19603 0.24849 0.41715 0.0
H2299 H 0.29773 0.3004 0.37879 0.0
H2300 H 0.3211 0.35549 0.3707 0.0
H2301 H 0.29682 0.39964 0.41218 0.0
H2302 H 0.27381 0.34469 0.42059 0.0
H2303 H 0.33321 0.14958 0.37857 0.0
H2304 H 0.30731 0.20455 0.38368 0.0
H2305 H 0.29552 0.17664 0.42884 0.0
H2306 H 0.32089 0.12121 0.4238 0.0
H2307 H 0.31635 0.25875 0.40118 0.0
H2308 H 0.21544 0.20146 0.43929 0.0
H2309 H 0.18951 0.14585 0.44494 0.0
H2310 H 0.20911 0.11192 0.40127 0.0
H2311 H 0.23471 0.16745 0.39533 0.0
C2312 C 0.18356 0.3617 0.41549 0.0
C2313 C 0.17476 0.36997 0.40104 0.0
C2314 C 0.20145 0.33182 0.41851 0.0
C2315 C 0.21098 0.31021 0.4071 0.0
C2316 C 0.19996 0.31697 0.39289 0.0
C2317 C 0.18174 0.34649 0.38988 0.0
C2318 C 0.23515 0.28228 0.40952 0.0
C2319 C 0.22261 0.2508 0.4141 0.0
C2320 C 0.26946 0.28549 0.40513 0.0
C2321 C 0.28372 0.31852 0.40025 0.0
C2322 C 0.29749 0.32184 0.3862 0.0
C2323 C 0.31066 0.35303 0.38156 0.0
C2324 C 0.31034 0.38106 0.39091 0.0
C2325 C 0.29691 0.37794 0.40493 0.0
C2326 C 0.28373 0.3468 0.40962 0.0
C2327 C 0.32578 0.15532 0.38966 0.0
C2328 C 0.32844 0.13073 0.40071 0.0
C2329 C 0.3111 0.18684 0.39258 0.0
C2330 C 0.2989 0.19431 0.40657 0.0
C2331 C 0.30427 0.17105 0.41791 0.0
C2332 C 0.31883 0.13942 0.415 0.0
C2333 C 0.2773 0.22462 0.40875 0.0
C2334 C 0.29018 0.25654 0.40481 0.0
C2335 C 0.24315 0.22172 0.41357 0.0
C2336 C 0.22738 0.18841 0.41695 0.0
C2337 C 0.21413 0.18214 0.4309 0.0
C2338 C 0.19949 0.15064 0.43415 0.0
C2339 C 0.19779 0.12532 0.42349 0.0
C2340 C 0.21056 0.1315 0.40954 0.0
C2341 C 0.22516 0.16296 0.40623 0.0
H2342 H 0.18648 0.10096 0.42603 0.0
H2343 H 0.3206 0.40514 0.38731 0.0
H2344 H 0.83955 0.63409 0.88835 0.0
H2345 H 0.78275 0.65837 0.89137 0.0
H2346 H 0.81068 0.69543 0.93394 0.0
H2347 H 0.8674 0.67098 0.93113 0.0
H2348 H 0.72819 0.65862 0.91227 0.0
H2349 H 0.79109 0.78248 0.9319 0.0
H2350 H 0.84758 0.80995 0.93155 0.0
H2351 H 0.87236 0.75763 0.89191 0.0
H2352 H 0.81575 0.73053 0.89183 0.0
H2353 H 0.59734 0.77984 0.92555 0.0
H2354 H 0.64919 0.74661 0.92934 0.0
H2355 H 0.69133 0.78726 0.88962 0.0
H2356 H 0.63962 0.82046 0.88569 0.0
H2357 H 0.73853 0.78439 0.91143 0.0
H2358 H 0.65631 0.7108 0.88859 0.0
H2359 H 0.60267 0.67916 0.88534 0.0
H2360 H 0.61762 0.62982 0.92656 0.0
H2361 H 0.67138 0.66124 0.93006 0.0
C2362 C 0.83323 0.64637 0.89857 0.0
C2363 C 0.8581 0.65117 0.90939 0.0
C2364 C 0.80076 0.66012 0.90028 0.0
C2365 C 0.79295 0.67913 0.91276 0.0
C2366 C 0.81651 0.68101 0.9242 0.0
C2367 C 0.84886 0.66693 0.92257 0.0
C2368 C 0.76258 0.70112 0.91277 0.0
C2369 C 0.73031 0.68611 0.91231 0.0
C2370 C 0.76569 0.73694 0.91238 0.0
C2371 C 0.79938 0.75404 0.91202 0.0
C2372 C 0.80855 0.77696 0.92308 0.0
C2373 C 0.84058 0.79246 0.92295 0.0
C2374 C 0.86364 0.78529 0.91178 0.0
C2375 C 0.85457 0.76291 0.90062 0.0
C2376 C 0.8225 0.74752 0.90065 0.0
C2377 C 0.61787 0.78219 0.91775 0.0
C2378 C 0.61433 0.80267 0.90527 0.0
C2379 C 0.64735 0.763 0.91989 0.0
C2380 C 0.67382 0.76423 0.90967 0.0
C2381 C 0.67109 0.78594 0.89761 0.0
C2382 C 0.64153 0.80487 0.89538 0.0
C2383 C 0.70388 0.74193 0.91114 0.0
C2384 C 0.73623 0.75692 0.91178 0.0
C2385 C 0.70085 0.70608 0.91136 0.0
C2386 C 0.66766 0.68862 0.90965 0.0
C2387 C 0.64793 0.69353 0.89705 0.0
C2388 C 0.61761 0.67549 0.89512 0.0
C2389 C 0.60679 0.65244 0.90573 0.0
C2390 C 0.62608 0.64763 0.91835 0.0
C2391 C 0.6565 0.6655 0.9203 0.0
H2392 H 0.58351 0.6382 0.90416 0.0
H2393 H 0.88841 0.79729 0.91171 0.0
H2394 H 0.64461 0.63581 0.3862 0.0
H2395 H 0.66942 0.69172 0.39024 0.0
H2396 H 0.69405 0.66423 0.43445 0.0
H2397 H 0.66976 0.60768 0.43051 0.0
H2398 H 0.6691 0.74325 0.42335 0.0
H2399 H 0.75463 0.65018 0.42092 0.0
H2400 H 0.77484 0.59667 0.40985 0.0
H2401 H 0.77491 0.64365 0.36764 0.0
H2402 H 0.75413 0.69726 0.37845 0.0
H2403 H 0.79812 0.86958 0.42711 0.0
H2404 H 0.76708 0.81671 0.43137 0.0
H2405 H 0.77402 0.79242 0.38562 0.0
H2406 H 0.80575 0.84461 0.38132 0.0
H2407 H 0.78395 0.7377 0.40089 0.0
H2408 H 0.69919 0.82593 0.40006 0.0
H2409 H 0.67232 0.87996 0.40728 0.0
H2410 H 0.66602 0.8453 0.45155 0.0
H2411 H 0.69258 0.7908 0.44452 0.0
C2412 C 0.65432 0.64184 0.39694 0.0
C2413 C 0.65596 0.61698 0.40793 0.0
C2414 C 0.66834 0.67389 0.39923 0.0
C2415 C 0.68379 0.68169 0.41256 0.0
C2416 C 0.68214 0.65845 0.42409 0.0
C2417 C 0.66833 0.62615 0.42179 0.0
C2418 C 0.70672 0.71115 0.41334 0.0
C2419 C 0.69457 0.74203 0.41882 0.0
C2420 C 0.73932 0.7095 0.4069 0.0
C2421 C 0.75259 0.67757 0.40047 0.0
C2422 C 0.75872 0.64899 0.40927 0.0
C2423 C 0.7703 0.61867 0.40305 0.0
C2424 C 0.7761 0.61676 0.38805 0.0
C2425 C 0.77039 0.64517 0.37925 0.0
C2426 C 0.75874 0.67552 0.38542 0.0
C2427 C 0.79345 0.85276 0.41799 0.0
C2428 C 0.80429 0.8614 0.40386 0.0
C2429 C 0.77547 0.82269 0.42043 0.0
C2430 C 0.76774 0.80095 0.40877 0.0
C2431 C 0.77966 0.80888 0.39477 0.0
C2432 C 0.79781 0.83876 0.39233 0.0
C2433 C 0.7466 0.77026 0.41098 0.0
C2434 C 0.75896 0.73901 0.40588 0.0
C2435 C 0.71394 0.77183 0.41749 0.0
C2436 C 0.69819 0.80452 0.42181 0.0
C2437 C 0.69226 0.82994 0.41135 0.0
C2438 C 0.67701 0.8606 0.4154 0.0
C2439 C 0.66769 0.8662 0.42989 0.0
C2440 C 0.67334 0.84098 0.44034 0.0
C2441 C 0.68836 0.81014 0.43632 0.0
H2442 H 0.65597 0.89001 0.43301 0.0
H2443 H 0.78511 0.59332 0.38326 0.0
H2444 H 0.85402 0.84439 0.13706 0.0
H2445 H 0.79734 0.81972 0.13404 0.0
H2446 H 0.82369 0.78717 0.09063 0.0
H2447 H 0.88029 0.81185 0.09345 0.0
H2448 H 0.74265 0.82444 0.11279 0.0
H2449 H 0.8013 0.70194 0.0902 0.0
H2450 H 0.85649 0.67193 0.08993 0.0
H2451 H 0.8824 0.71618 0.13124 0.0
H2452 H 0.82718 0.74597 0.13186 0.0
H2453 H 0.60886 0.70948 0.09574 0.0
H2454 H 0.66279 0.73952 0.09261 0.0
H2455 H 0.69971 0.69692 0.13292 0.0
H2456 H 0.64588 0.66688 0.13622 0.0
H2457 H 0.74853 0.69841 0.11075 0.0
H2458 H 0.66562 0.77185 0.13382 0.0
H2459 H 0.61066 0.8019 0.13551 0.0
H2460 H 0.63295 0.85595 0.09604 0.0
H2461 H 0.68784 0.82579 0.09398 0.0
C2462 C 0.84753 0.83261 0.12676 0.0
C2463 C 0.87178 0.82956 0.11558 0.0
C2464 C 0.8151 0.81877 0.12503 0.0
C2465 C 0.80669 0.80144 0.11218 0.0
C2466 C 0.82995 0.80039 0.10064 0.0
C2467 C 0.86226 0.81446 0.10229 0.0
C2468 C 0.77553 0.78074 0.11163 0.0
C2469 C 0.7438 0.79692 0.1122 0.0
C2470 C 0.77735 0.74487 0.11106 0.0
C2471 C 0.81032 0.7265 0.11097 0.0
C2472 C 0.81875 0.70515 0.09924 0.0
C2473 C 0.85003 0.68818 0.09903 0.0
C2474 C 0.87299 0.69225 0.11053 0.0
C2475 C 0.86466 0.71316 0.12231 0.0
C2476 C 0.83339 0.73011 0.12259 0.0
C2477 C 0.6287 0.70592 0.10379 0.0
C2478 C 0.62306 0.68607 0.11631 0.0
C2479 C 0.65936 0.72324 0.10201 0.0
C2480 C 0.68483 0.7207 0.11264 0.0
C2481 C 0.68017 0.6992 0.12464 0.0
C2482 C 0.64943 0.68213 0.12652 0.0
C2483 C 0.71552 0.74204 0.11182 0.0
C2484 C 0.74725 0.72595 0.11105 0.0
C2485 C 0.71361 0.77796 0.11238 0.0
C2486 C 0.68067 0.79624 0.11365 0.0
C2487 C 0.65867 0.7899 0.12543 0.0
C2488 C 0.62756 0.807 0.12647 0.0
C2489 C 0.61829 0.83075 0.11587 0.0
C2490 C 0.64015 0.83751 0.10423 0.0
C2491 C 0.67126 0.82042 0.10312 0.0
H2492 H 0.59421 0.84396 0.1167 0.0
H2493 H 0.89721 0.67914 0.11034 0.0
H2494 H 0.71092 0.88441 0.59177 0.0
H2495 H 0.73813 0.83049 0.58552 0.0
H2496 H 0.70019 0.7861 0.62528 0.0
H2497 H 0.67277 0.83976 0.63161 0.0
H2498 H 0.78817 0.80032 0.60138 0.0
H2499 H 0.68712 0.70146 0.61998 0.0
H2500 H 0.62477 0.69462 0.62023 0.0
H2501 H 0.61572 0.7639 0.5843 0.0
H2502 H 0.67807 0.77065 0.58365 0.0
H2503 H 0.84691 0.6451 0.6308 0.0
H2504 H 0.82272 0.70015 0.6242 0.0
H2505 H 0.78191 0.65697 0.58468 0.0
H2506 H 0.806 0.60181 0.59115 0.0
H2507 H 0.73344 0.68676 0.60142 0.0
H2508 H 0.84102 0.71668 0.58186 0.0
H2509 H 0.90345 0.72267 0.58129 0.0
H2510 H 0.8994 0.79055 0.61787 0.0
H2511 H 0.83698 0.78459 0.61881 0.0
C2512 C 0.70776 0.86298 0.59905 0.0
C2513 C 0.68974 0.86636 0.61222 0.0
C2514 C 0.72346 0.83227 0.59548 0.0
C2515 C 0.72101 0.80436 0.6049 0.0
C2516 C 0.70199 0.80726 0.61777 0.0
C2517 C 0.68647 0.83799 0.6214 0.0
C2518 C 0.74063 0.77304 0.60201 0.0
C2519 C 0.77623 0.77546 0.60124 0.0
C2520 C 0.7249 0.74075 0.6016 0.0
C2521 C 0.68732 0.73673 0.60184 0.0
C2522 C 0.67186 0.71508 0.61208 0.0
C2523 C 0.6365 0.71124 0.6123 0.0
C2524 C 0.61628 0.72889 0.60231 0.0
C2525 C 0.6314 0.75034 0.59206 0.0
C2526 C 0.66676 0.75421 0.59177 0.0
C2527 C 0.8335 0.64749 0.62053 0.0
C2528 C 0.82813 0.61904 0.61156 0.0
C2529 C 0.81983 0.679 0.61674 0.0
C2530 C 0.80059 0.68254 0.60395 0.0
C2531 C 0.79677 0.65468 0.59458 0.0
C2532 C 0.81065 0.62322 0.5983 0.0
C2533 C 0.78097 0.714 0.60142 0.0
C2534 C 0.74536 0.71161 0.60126 0.0
C2535 C 0.79669 0.74626 0.60097 0.0
C2536 C 0.83427 0.75003 0.60044 0.0
C2537 C 0.85345 0.73269 0.58985 0.0
C2538 C 0.88885 0.73612 0.58945 0.0
C2539 C 0.90539 0.75695 0.59955 0.0
C2540 C 0.88655 0.77443 0.61005 0.0
C2541 C 0.85115 0.77108 0.61051 0.0
H2542 H 0.93279 0.75957 0.59922 0.0
H2543 H 0.58891 0.72591 0.60251 0.0
loop_
_geom_bond_atom_site_label_1
_geom_bond_atom_site_label_2
_geom_bond_distance
_geom_bond_site_symmetry_2
_ccdc_geom_bond_type
Co0 O3 1.970 . S
Co0 N17 1.989 . S
Co0 O25 1.967 . S
Co0 O32 1.920 . S
Co1 O4 1.966 . S
Co1 N10 2.022 . S
Co1 N18 1.993 . S
Co1 O26 1.941 . S
C2 O3 1.258 . S
C2 O4 1.263 . S
O3 Co0 1.970 . S
O3 C2 1.258 . S
O4 Co1 1.966 . S
O4 C2 1.263 . S
C5 O6 1.235 . S
C5 O32 1.289 . S
O6 C5 1.235 . S
C7 C9 1.400 . S
C7 N10 1.351 . S
C7 C12 1.501 . S
C8 C9 1.387 . S
C8 N11 1.341 . S
C9 C7 1.400 . S
C9 C8 1.387 . S
N10 Co1 2.022 . S
N10 C7 1.351 . S
N10 N11 1.365 . S
N11 C8 1.341 . S
N11 N10 1.365 . S
N11 H31 0.862 . S
C12 C7 1.501 . S
C12 H13 0.961 . S
C12 H14 0.961 . S
C12 H15 0.960 . S
H13 C12 0.961 . S
H14 C12 0.961 . S
H15 C12 0.960 . S
C16 N17 1.342 . S
C16 C20 1.401 . S
C16 C21 1.499 . S
N17 Co0 1.989 . S
N17 C16 1.342 . S
N17 N18 1.388 . S
N18 Co1 1.993 . S
N18 N17 1.388 . S
N18 C19 1.346 . S
C19 N18 1.346 . S
C19 C20 1.396 . S
C19 C29 1.510 . S
C20 C16 1.401 . S
C20 C19 1.396 . S
C21 C16 1.499 . S
C21 H22 0.959 . S
C21 H23 0.960 . S
C21 H24 0.961 . S
H22 C21 0.959 . S
H23 C21 0.960 . S
H24 C21 0.961 . S
O25 Co0 1.967 . S
O25 C33 1.258 . S
O26 Co1 1.941 . S
O26 C33 1.266 . S
H27 C29 0.959 . S
H28 C29 0.961 . S
C29 C19 1.510 . S
C29 H27 0.959 . S
C29 H28 0.961 . S
C29 H30 0.960 . S
H30 C29 0.960 . S
H31 N11 0.862 . S
O32 Co0 1.920 . S
O32 C5 1.289 . S
C33 O25 1.258 . S
C33 O26 1.266 . S
Co34 O37 1.970 . S
Co34 N51 1.989 . S
Co34 O59 1.967 . S
Co34 O66 1.920 . S
Co35 O38 1.966 . S
Co35 N44 2.022 . S
Co35 N52 1.993 . S
Co35 O60 1.941 . S
C36 O37 1.258 . S
C36 O38 1.263 . S
O37 Co34 1.970 . S
O37 C36 1.258 . S
O38 Co35 1.966 . S
O38 C36 1.263 . S
C39 O40 1.235 . S
C39 O66 1.289 . S
O40 C39 1.235 . S
C41 C43 1.400 . S
C41 N44 1.351 . S
C41 C46 1.501 . S
C42 C43 1.387 . S
C42 N45 1.341 . S
C43 C41 1.400 . S
C43 C42 1.387 . S
N44 Co35 2.022 . S
N44 C41 1.351 . S
N44 N45 1.365 . S
N45 C42 1.341 . S
N45 N44 1.365 . S
N45 H65 0.862 . S
C46 C41 1.501 . S
C46 H47 0.961 . S
C46 H48 0.961 . S
C46 H49 0.960 . S
H47 C46 0.961 . S
H48 C46 0.961 . S
H49 C46 0.960 . S
C50 N51 1.342 . S
C50 C54 1.401 . S
C50 C55 1.499 . S
N51 Co34 1.989 . S
N51 C50 1.342 . S
N51 N52 1.388 . S
N52 Co35 1.993 . S
N52 N51 1.388 . S
N52 C53 1.346 . S
C53 N52 1.346 . S
C53 C54 1.396 . S
C53 C63 1.510 . S
C54 C50 1.401 . S
C54 C53 1.396 . S
C55 C50 1.499 . S
C55 H56 0.959 . S
C55 H57 0.960 . S
C55 H58 0.961 . S
H56 C55 0.959 . S
H57 C55 0.960 . S
H58 C55 0.961 . S
O59 Co34 1.967 . S
O59 C67 1.258 . S
O60 Co35 1.941 . S
O60 C67 1.266 . S
H61 C63 0.959 . S
H62 C63 0.961 . S
C63 C53 1.510 . S
C63 H61 0.959 . S
C63 H62 0.961 . S
C63 H64 0.960 . S
H64 C63 0.960 . S
H65 N45 0.862 . S
O66 Co34 1.920 . S
O66 C39 1.289 . S
C67 O59 1.258 . S
C67 O60 1.266 . S
Co68 O71 1.970 . S
Co68 N85 1.989 . S
Co68 O93 1.967 . S
Co68 O100 1.920 . S
Co69 O72 1.966 . S
Co69 N78 2.022 . S
Co69 N86 1.993 . S
Co69 O94 1.941 . S
C70 O71 1.258 . S
C70 O72 1.263 . S
O71 Co68 1.970 . S
O71 C70 1.258 . S
O72 Co69 1.966 . S
O72 C70 1.263 . S
C73 O74 1.235 . S
C73 O100 1.289 . S
O74 C73 1.235 . S
C75 C77 1.400 . S
C75 N78 1.351 . S
C75 C80 1.501 . S
C76 C77 1.387 . S
C76 N79 1.341 . S
C77 C75 1.400 . S
C77 C76 1.387 . S
N78 Co69 2.022 . S
N78 C75 1.351 . S
N78 N79 1.365 . S
N79 C76 1.341 . S
N79 N78 1.365 . S
N79 H99 0.862 . S
C80 C75 1.501 . S
C80 H81 0.961 . S
C80 H82 0.961 . S
C80 H83 0.960 . S
H81 C80 0.961 . S
H82 C80 0.961 . S
H83 C80 0.960 . S
C84 N85 1.342 . S
C84 C88 1.401 . S
C84 C89 1.499 . S
N85 Co68 1.989 . S
N85 C84 1.342 . S
N85 N86 1.388 . S
N86 Co69 1.993 . S
N86 N85 1.388 . S
N86 C87 1.346 . S
C87 N86 1.346 . S
C87 C88 1.396 . S
C87 C97 1.510 . S
C88 C84 1.401 . S
C88 C87 1.396 . S
C89 C84 1.499 . S
C89 H90 0.959 . S
C89 H91 0.960 . S
C89 H92 0.961 . S
H90 C89 0.959 . S
H91 C89 0.960 . S
H92 C89 0.961 . S
O93 Co68 1.967 . S
O93 C101 1.258 . S
O94 Co69 1.941 . S
O94 C101 1.266 . S
H95 C97 0.959 . S
H96 C97 0.961 . S
C97 C87 1.510 . S
C97 H95 0.959 . S
C97 H96 0.961 . S
C97 H98 0.960 . S
H98 C97 0.960 . S
H99 N79 0.862 . S
O100 Co68 1.920 . S
O100 C73 1.289 . S
C101 O93 1.258 . S
C101 O94 1.266 . S
Co102 O105 1.970 . S
Co102 N119 1.989 . S
Co102 O127 1.967 . S
Co102 O134 1.920 . S
Co103 O106 1.966 . S
Co103 N112 2.022 . S
Co103 N120 1.993 . S
Co103 O128 1.941 . S
C104 O105 1.258 . S
C104 O106 1.263 . S
O105 Co102 1.970 . S
O105 C104 1.258 . S
O106 Co103 1.966 . S
O106 C104 1.263 . S
C107 O108 1.235 . S
C107 O134 1.289 . S
O108 C107 1.235 . S
C109 C111 1.400 . S
C109 N112 1.351 . S
C109 C114 1.501 . S
C110 C111 1.387 . S
C110 N113 1.341 . S
C111 C109 1.400 . S
C111 C110 1.387 . S
N112 Co103 2.022 . S
N112 C109 1.351 . S
N112 N113 1.365 . S
N113 C110 1.341 . S
N113 N112 1.365 . S
N113 H133 0.862 . S
C114 C109 1.501 . S
C114 H115 0.961 . S
C114 H116 0.961 . S
C114 H117 0.960 . S
H115 C114 0.961 . S
H116 C114 0.961 . S
H117 C114 0.960 . S
C118 N119 1.342 . S
C118 C122 1.401 . S
C118 C123 1.499 . S
N119 Co102 1.989 . S
N119 C118 1.342 . S
N119 N120 1.388 . S
N120 Co103 1.993 . S
N120 N119 1.388 . S
N120 C121 1.346 . S
C121 N120 1.346 . S
C121 C122 1.396 . S
C121 C131 1.510 . S
C122 C118 1.401 . S
C122 C121 1.396 . S
C123 C118 1.499 . S
C123 H124 0.959 . S
C123 H125 0.960 . S
C123 H126 0.961 . S
H124 C123 0.959 . S
H125 C123 0.960 . S
H126 C123 0.961 . S
O127 Co102 1.967 . S
O127 C135 1.258 . S
O128 Co103 1.941 . S
O128 C135 1.266 . S
H129 C131 0.959 . S
H130 C131 0.961 . S
C131 C121 1.510 . S
C131 H129 0.959 . S
C131 H130 0.961 . S
C131 H132 0.960 . S
H132 C131 0.960 . S
H133 N113 0.862 . S
O134 Co102 1.920 . S
O134 C107 1.289 . S
C135 O127 1.258 . S
C135 O128 1.266 . S
Co136 O139 1.970 . S
Co136 N153 1.989 . S
Co136 O161 1.967 . S
Co136 O168 1.920 . S
Co137 O140 1.966 . S
Co137 N146 2.022 . S
Co137 N154 1.993 . S
Co137 O162 1.941 . S
C138 O139 1.258 . S
C138 O140 1.263 . S
O139 Co136 1.970 . S
O139 C138 1.258 . S
O140 Co137 1.966 . S
O140 C138 1.263 . S
C141 O142 1.235 . S
C141 O168 1.289 . S
O142 C141 1.235 . S
C143 C145 1.400 . S
C143 N146 1.351 . S
C143 C148 1.501 . S
C144 C145 1.387 . S
C144 N147 1.341 . S
C145 C143 1.400 . S
C145 C144 1.387 . S
N146 Co137 2.022 . S
N146 C143 1.351 . S
N146 N147 1.365 . S
N147 C144 1.341 . S
N147 N146 1.365 . S
N147 H167 0.862 . S
C148 C143 1.501 . S
C148 H149 0.961 . S
C148 H150 0.961 . S
C148 H151 0.960 . S
H149 C148 0.961 . S
H150 C148 0.961 . S
H151 C148 0.960 . S
C152 N153 1.342 . S
C152 C156 1.401 . S
C152 C157 1.499 . S
N153 Co136 1.989 . S
N153 C152 1.342 . S
N153 N154 1.388 . S
N154 Co137 1.993 . S
N154 N153 1.388 . S
N154 C155 1.346 . S
C155 N154 1.346 . S
C155 C156 1.396 . S
C155 C165 1.510 . S
C156 C152 1.401 . S
C156 C155 1.396 . S
C157 C152 1.499 . S
C157 H158 0.959 . S
C157 H159 0.960 . S
C157 H160 0.961 . S
H158 C157 0.959 . S
H159 C157 0.960 . S
H160 C157 0.961 . S
O161 Co136 1.967 . S
O161 C169 1.258 . S
O162 Co137 1.941 . S
O162 C169 1.266 . S
H163 C165 0.959 . S
H164 C165 0.961 . S
C165 C155 1.510 . S
C165 H163 0.959 . S
C165 H164 0.961 . S
C165 H166 0.960 . S
H166 C165 0.960 . S
H167 N147 0.862 . S
O168 Co136 1.920 . S
O168 C141 1.289 . S
C169 O161 1.258 . S
C169 O162 1.266 . S
Co170 O173 1.970 . S
Co170 N187 1.989 . S
Co170 O195 1.967 . S
Co170 O202 1.920 . S
Co171 O174 1.966 . S
Co171 N180 2.022 . S
Co171 N188 1.993 . S
Co171 O196 1.941 . S
C172 O173 1.258 . S
C172 O174 1.263 . S
O173 Co170 1.970 . S
O173 C172 1.258 . S
O174 Co171 1.966 . S
O174 C172 1.263 . S
C175 O176 1.235 . S
C175 O202 1.289 . S
O176 C175 1.235 . S
C177 C179 1.400 . S
C177 N180 1.351 . S
C177 C182 1.501 . S
C178 C179 1.387 . S
C178 N181 1.341 . S
C179 C177 1.400 . S
C179 C178 1.387 . S
N180 Co171 2.022 . S
N180 C177 1.351 . S
N180 N181 1.365 . S
N181 C178 1.341 . S
N181 N180 1.365 . S
N181 H201 0.862 . S
C182 C177 1.501 . S
C182 H183 0.961 . S
C182 H184 0.961 . S
C182 H185 0.960 . S
H183 C182 0.961 . S
H184 C182 0.961 . S
H185 C182 0.960 . S
C186 N187 1.342 . S
C186 C190 1.401 . S
C186 C191 1.499 . S
N187 Co170 1.989 . S
N187 C186 1.342 . S
N187 N188 1.388 . S
N188 Co171 1.993 . S
N188 N187 1.388 . S
N188 C189 1.346 . S
C189 N188 1.346 . S
C189 C190 1.396 . S
C189 C199 1.510 . S
C190 C186 1.401 . S
C190 C189 1.396 . S
C191 C186 1.499 . S
C191 H192 0.959 . S
C191 H193 0.960 . S
C191 H194 0.961 . S
H192 C191 0.959 . S
H193 C191 0.960 . S
H194 C191 0.961 . S
O195 Co170 1.967 . S
O195 C203 1.258 . S
O196 Co171 1.941 . S
O196 C203 1.266 . S
H197 C199 0.959 . S
H198 C199 0.961 . S
C199 C189 1.510 . S
C199 H197 0.959 . S
C199 H198 0.961 . S
C199 H200 0.960 . S
H200 C199 0.960 . S
H201 N181 0.862 . S
O202 Co170 1.920 . S
O202 C175 1.289 . S
C203 O195 1.258 . S
C203 O196 1.266 . S
Co204 O207 1.970 . S
Co204 N221 1.989 . S
Co204 O229 1.967 . S
Co204 O236 1.920 . S
Co205 O208 1.966 . S
Co205 N214 2.022 . S
Co205 N222 1.993 . S
Co205 O230 1.941 . S
C206 O207 1.258 . S
C206 O208 1.263 . S
O207 Co204 1.970 . S
O207 C206 1.258 . S
O208 Co205 1.966 . S
O208 C206 1.263 . S
C209 O210 1.235 . S
C209 O236 1.289 . S
O210 C209 1.235 . S
C211 C213 1.400 . S
C211 N214 1.351 . S
C211 C216 1.501 . S
C212 C213 1.387 . S
C212 N215 1.341 . S
C213 C211 1.400 . S
C213 C212 1.387 . S
N214 Co205 2.022 . S
N214 C211 1.351 . S
N214 N215 1.365 . S
N215 C212 1.341 . S
N215 N214 1.365 . S
N215 H235 0.862 . S
C216 C211 1.501 . S
C216 H217 0.961 . S
C216 H218 0.961 . S
C216 H219 0.960 . S
H217 C216 0.961 . S
H218 C216 0.961 . S
H219 C216 0.960 . S
C220 N221 1.342 . S
C220 C224 1.401 . S
C220 C225 1.499 . S
N221 Co204 1.989 . S
N221 C220 1.342 . S
N221 N222 1.388 . S
N222 Co205 1.993 . S
N222 N221 1.388 . S
N222 C223 1.346 . S
C223 N222 1.346 . S
C223 C224 1.396 . S
C223 C233 1.510 . S
C224 C220 1.401 . S
C224 C223 1.396 . S
C225 C220 1.499 . S
C225 H226 0.959 . S
C225 H227 0.960 . S
C225 H228 0.961 . S
H226 C225 0.959 . S
H227 C225 0.960 . S
H228 C225 0.961 . S
O229 Co204 1.967 . S
O229 C237 1.258 . S
O230 Co205 1.941 . S
O230 C237 1.266 . S
H231 C233 0.959 . S
H232 C233 0.961 . S
C233 C223 1.510 . S
C233 H231 0.959 . S
C233 H232 0.961 . S
C233 H234 0.960 . S
H234 C233 0.960 . S
H235 N215 0.862 . S
O236 Co204 1.920 . S
O236 C209 1.289 . S
C237 O229 1.258 . S
C237 O230 1.266 . S
Co238 O241 1.970 . S
Co238 N255 1.989 . S
Co238 O263 1.967 . S
Co238 O270 1.920 . S
Co239 O242 1.966 . S
Co239 N248 2.022 . S
Co239 N256 1.993 . S
Co239 O264 1.941 . S
C240 O241 1.258 . S
C240 O242 1.263 . S
O241 Co238 1.970 . S
O241 C240 1.258 . S
O242 Co239 1.966 . S
O242 C240 1.263 . S
C243 O244 1.235 . S
C243 O270 1.289 . S
O244 C243 1.235 . S
C245 C247 1.400 . S
C245 N248 1.351 . S
C245 C250 1.501 . S
C246 C247 1.387 . S
C246 N249 1.341 . S
C247 C245 1.400 . S
C247 C246 1.387 . S
N248 Co239 2.022 . S
N248 C245 1.351 . S
N248 N249 1.365 . S
N249 C246 1.341 . S
N249 N248 1.365 . S
N249 H269 0.862 . S
C250 C245 1.501 . S
C250 H251 0.961 . S
C250 H252 0.961 . S
C250 H253 0.960 . S
H251 C250 0.961 . S
H252 C250 0.961 . S
H253 C250 0.960 . S
C254 N255 1.342 . S
C254 C258 1.401 . S
C254 C259 1.499 . S
N255 Co238 1.989 . S
N255 C254 1.342 . S
N255 N256 1.388 . S
N256 Co239 1.993 . S
N256 N255 1.388 . S
N256 C257 1.346 . S
C257 N256 1.346 . S
C257 C258 1.396 . S
C257 C267 1.510 . S
C258 C254 1.401 . S
C258 C257 1.396 . S
C259 C254 1.499 . S
C259 H260 0.959 . S
C259 H261 0.960 . S
C259 H262 0.961 . S
H260 C259 0.959 . S
H261 C259 0.960 . S
H262 C259 0.961 . S
O263 Co238 1.967 . S
O263 C271 1.258 . S
O264 Co239 1.941 . S
O264 C271 1.266 . S
H265 C267 0.959 . S
H266 C267 0.961 . S
C267 C257 1.510 . S
C267 H265 0.959 . S
C267 H266 0.961 . S
C267 H268 0.960 . S
H268 C267 0.960 . S
H269 N249 0.862 . S
O270 Co238 1.920 . S
O270 C243 1.289 . S
C271 O263 1.258 . S
C271 O264 1.266 . S
Co272 O275 1.970 . S
Co272 N289 1.989 . S
Co272 O297 1.967 . S
Co272 O304 1.920 . S
Co273 O276 1.966 . S
Co273 N282 2.022 . S
Co273 N290 1.993 . S
Co273 O298 1.941 . S
C274 O275 1.258 . S
C274 O276 1.263 . S
O275 Co272 1.970 . S
O275 C274 1.258 . S
O276 Co273 1.966 . S
O276 C274 1.263 . S
C277 O278 1.235 . S
C277 O304 1.289 . S
O278 C277 1.235 . S
C279 C281 1.400 . S
C279 N282 1.351 . S
C279 C284 1.501 . S
C280 C281 1.387 . S
C280 N283 1.341 . S
C281 C279 1.400 . S
C281 C280 1.387 . S
N282 Co273 2.022 . S
N282 C279 1.351 . S
N282 N283 1.365 . S
N283 C280 1.341 . S
N283 N282 1.365 . S
N283 H303 0.862 . S
C284 C279 1.501 . S
C284 H285 0.961 . S
C284 H286 0.961 . S
C284 H287 0.960 . S
H285 C284 0.961 . S
H286 C284 0.961 . S
H287 C284 0.960 . S
C288 N289 1.342 . S
C288 C292 1.401 . S
C288 C293 1.499 . S
N289 Co272 1.989 . S
N289 C288 1.342 . S
N289 N290 1.388 . S
N290 Co273 1.993 . S
N290 N289 1.388 . S
N290 C291 1.346 . S
C291 N290 1.346 . S
C291 C292 1.396 . S
C291 C301 1.510 . S
C292 C288 1.401 . S
C292 C291 1.396 . S
C293 C288 1.499 . S
C293 H294 0.959 . S
C293 H295 0.960 . S
C293 H296 0.961 . S
H294 C293 0.959 . S
H295 C293 0.960 . S
H296 C293 0.961 . S
O297 Co272 1.967 . S
O297 C305 1.258 . S
O298 Co273 1.941 . S
O298 C305 1.266 . S
H299 C301 0.959 . S
H300 C301 0.961 . S
C301 C291 1.510 . S
C301 H299 0.959 . S
C301 H300 0.961 . S
C301 H302 0.960 . S
H302 C301 0.960 . S
H303 N283 0.862 . S
O304 Co272 1.920 . S
O304 C277 1.289 . S
C305 O297 1.258 . S
C305 O298 1.266 . S
Co306 O309 1.970 . S
Co306 N323 1.989 . S
Co306 O331 1.967 . S
Co306 O338 1.920 . S
Co307 O310 1.966 . S
Co307 N316 2.022 . S
Co307 N324 1.993 . S
Co307 O332 1.941 . S
C308 O309 1.258 . S
C308 O310 1.263 . S
O309 Co306 1.970 . S
O309 C308 1.258 . S
O310 Co307 1.966 . S
O310 C308 1.263 . S
C311 O312 1.235 . S
C311 O338 1.289 . S
O312 C311 1.235 . S
C313 C315 1.400 . S
C313 N316 1.351 . S
C313 C318 1.501 . S
C314 C315 1.387 . S
C314 N317 1.341 . S
C315 C313 1.400 . S
C315 C314 1.387 . S
N316 Co307 2.022 . S
N316 C313 1.351 . S
N316 N317 1.365 . S
N317 C314 1.341 . S
N317 N316 1.365 . S
N317 H337 0.862 . S
C318 C313 1.501 . S
C318 H319 0.961 . S
C318 H320 0.961 . S
C318 H321 0.960 . S
H319 C318 0.961 . S
H320 C318 0.961 . S
H321 C318 0.960 . S
C322 N323 1.342 . S
C322 C326 1.401 . S
C322 C327 1.499 . S
N323 Co306 1.989 . S
N323 C322 1.342 . S
N323 N324 1.388 . S
N324 Co307 1.993 . S
N324 N323 1.388 . S
N324 C325 1.346 . S
C325 N324 1.346 . S
C325 C326 1.396 . S
C325 C335 1.510 . S
C326 C322 1.401 . S
C326 C325 1.396 . S
C327 C322 1.499 . S
C327 H328 0.959 . S
C327 H329 0.960 . S
C327 H330 0.961 . S
H328 C327 0.959 . S
H329 C327 0.960 . S
H330 C327 0.961 . S
O331 Co306 1.967 . S
O331 C339 1.258 . S
O332 Co307 1.941 . S
O332 C339 1.266 . S
H333 C335 0.959 . S
H334 C335 0.961 . S
C335 C325 1.510 . S
C335 H333 0.959 . S
C335 H334 0.961 . S
C335 H336 0.960 . S
H336 C335 0.960 . S
H337 N317 0.862 . S
O338 Co306 1.920 . S
O338 C311 1.289 . S
C339 O331 1.258 . S
C339 O332 1.266 . S
Co340 O343 1.970 . S
Co340 N357 1.989 . S
Co340 O365 1.967 . S
Co340 O372 1.920 . S
Co341 O344 1.966 . S
Co341 N350 2.022 . S
Co341 N358 1.993 . S
Co341 O366 1.941 . S
C342 O343 1.258 . S
C342 O344 1.263 . S
O343 Co340 1.970 . S
O343 C342 1.258 . S
O344 Co341 1.966 . S
O344 C342 1.263 . S
C345 O346 1.235 . S
C345 O372 1.289 . S
O346 C345 1.235 . S
C347 C349 1.400 . S
C347 N350 1.351 . S
C347 C352 1.501 . S
C348 C349 1.387 . S
C348 N351 1.341 . S
C349 C347 1.400 . S
C349 C348 1.387 . S
N350 Co341 2.022 . S
N350 C347 1.351 . S
N350 N351 1.365 . S
N351 C348 1.341 . S
N351 N350 1.365 . S
N351 H371 0.862 . S
C352 C347 1.501 . S
C352 H353 0.961 . S
C352 H354 0.961 . S
C352 H355 0.960 . S
H353 C352 0.961 . S
H354 C352 0.961 . S
H355 C352 0.960 . S
C356 N357 1.342 . S
C356 C360 1.401 . S
C356 C361 1.499 . S
N357 Co340 1.989 . S
N357 C356 1.342 . S
N357 N358 1.388 . S
N358 Co341 1.993 . S
N358 N357 1.388 . S
N358 C359 1.346 . S
C359 N358 1.346 . S
C359 C360 1.396 . S
C359 C369 1.510 . S
C360 C356 1.401 . S
C360 C359 1.396 . S
C361 C356 1.499 . S
C361 H362 0.959 . S
C361 H363 0.960 . S
C361 H364 0.961 . S
H362 C361 0.959 . S
H363 C361 0.960 . S
H364 C361 0.961 . S
O365 Co340 1.967 . S
O365 C373 1.258 . S
O366 Co341 1.941 . S
O366 C373 1.266 . S
H367 C369 0.959 . S
H368 C369 0.961 . S
C369 C359 1.510 . S
C369 H367 0.959 . S
C369 H368 0.961 . S
C369 H370 0.960 . S
H370 C369 0.960 . S
H371 N351 0.862 . S
O372 Co340 1.920 . S
O372 C345 1.289 . S
C373 O365 1.258 . S
C373 O366 1.266 . S
Co374 O377 1.970 . S
Co374 N391 1.989 . S
Co374 O399 1.967 . S
Co374 O406 1.920 . S
Co375 O378 1.966 . S
Co375 N384 2.022 . S
Co375 N392 1.993 . S
Co375 O400 1.941 . S
C376 O377 1.258 . S
C376 O378 1.263 . S
O377 Co374 1.970 . S
O377 C376 1.258 . S
O378 Co375 1.966 . S
O378 C376 1.263 . S
C379 O380 1.235 . S
C379 O406 1.289 . S
O380 C379 1.235 . S
C381 C383 1.400 . S
C381 N384 1.351 . S
C381 C386 1.501 . S
C382 C383 1.387 . S
C382 N385 1.341 . S
C383 C381 1.400 . S
C383 C382 1.387 . S
N384 Co375 2.022 . S
N384 C381 1.351 . S
N384 N385 1.365 . S
N385 C382 1.341 . S
N385 N384 1.365 . S
N385 H405 0.862 . S
C386 C381 1.501 . S
C386 H387 0.961 . S
C386 H388 0.961 . S
C386 H389 0.960 . S
H387 C386 0.961 . S
H388 C386 0.961 . S
H389 C386 0.960 . S
C390 N391 1.342 . S
C390 C394 1.401 . S
C390 C395 1.499 . S
N391 Co374 1.989 . S
N391 C390 1.342 . S
N391 N392 1.388 . S
N392 Co375 1.993 . S
N392 N391 1.388 . S
N392 C393 1.346 . S
C393 N392 1.346 . S
C393 C394 1.396 . S
C393 C403 1.510 . S
C394 C390 1.401 . S
C394 C393 1.396 . S
C395 C390 1.499 . S
C395 H396 0.959 . S
C395 H397 0.960 . S
C395 H398 0.961 . S
H396 C395 0.959 . S
H397 C395 0.960 . S
H398 C395 0.961 . S
O399 Co374 1.967 . S
O399 C407 1.258 . S
O400 Co375 1.941 . S
O400 C407 1.266 . S
H401 C403 0.959 . S
H402 C403 0.961 . S
C403 C393 1.510 . S
C403 H401 0.959 . S
C403 H402 0.961 . S
C403 H404 0.960 . S
H404 C403 0.960 . S
H405 N385 0.862 . S
O406 Co374 1.920 . S
O406 C379 1.289 . S
C407 O399 1.258 . S
C407 O400 1.266 . S
Co408 O411 1.970 . S
Co408 N425 1.989 . S
Co408 O433 1.967 . S
Co408 O440 1.920 . S
Co409 O412 1.966 . S
Co409 N418 2.022 . S
Co409 N426 1.993 . S
Co409 O434 1.941 . S
C410 O411 1.258 . S
C410 O412 1.263 . S
O411 Co408 1.970 . S
O411 C410 1.258 . S
O412 Co409 1.966 . S
O412 C410 1.263 . S
C413 O414 1.235 . S
C413 O440 1.289 . S
O414 C413 1.235 . S
C415 C417 1.400 . S
C415 N418 1.351 . S
C415 C420 1.501 . S
C416 C417 1.387 . S
C416 N419 1.341 . S
C417 C415 1.400 . S
C417 C416 1.387 . S
N418 Co409 2.022 . S
N418 C415 1.351 . S
N418 N419 1.365 . S
N419 C416 1.341 . S
N419 N418 1.365 . S
N419 H439 0.862 . S
C420 C415 1.501 . S
C420 H421 0.961 . S
C420 H422 0.961 . S
C420 H423 0.960 . S
H421 C420 0.961 . S
H422 C420 0.961 . S
H423 C420 0.960 . S
C424 N425 1.342 . S
C424 C428 1.401 . S
C424 C429 1.499 . S
N425 Co408 1.989 . S
N425 C424 1.342 . S
N425 N426 1.388 . S
N426 Co409 1.993 . S
N426 N425 1.388 . S
N426 C427 1.346 . S
C427 N426 1.346 . S
C427 C428 1.396 . S
C427 C437 1.510 . S
C428 C424 1.401 . S
C428 C427 1.396 . S
C429 C424 1.499 . S
C429 H430 0.959 . S
C429 H431 0.960 . S
C429 H432 0.961 . S
H430 C429 0.959 . S
H431 C429 0.960 . S
H432 C429 0.961 . S
O433 Co408 1.967 . S
O433 C441 1.258 . S
O434 Co409 1.941 . S
O434 C441 1.266 . S
H435 C437 0.959 . S
H436 C437 0.961 . S
C437 C427 1.510 . S
C437 H435 0.959 . S
C437 H436 0.961 . S
C437 H438 0.960 . S
H438 C437 0.960 . S
H439 N419 0.862 . S
O440 Co408 1.920 . S
O440 C413 1.289 . S
C441 O433 1.258 . S
C441 O434 1.266 . S
Co442 O445 1.970 . S
Co442 N459 1.989 . S
Co442 O467 1.967 . S
Co442 O474 1.920 . S
Co443 O446 1.966 . S
Co443 N452 2.022 . S
Co443 N460 1.993 . S
Co443 O468 1.941 . S
C444 O445 1.258 . S
C444 O446 1.263 . S
O445 Co442 1.970 . S
O445 C444 1.258 . S
O446 Co443 1.966 . S
O446 C444 1.263 . S
C447 O448 1.235 . S
C447 O474 1.289 . S
O448 C447 1.235 . S
C449 C451 1.400 . S
C449 N452 1.351 . S
C449 C454 1.501 . S
C450 C451 1.387 . S
C450 N453 1.341 . S
C451 C449 1.400 . S
C451 C450 1.387 . S
N452 Co443 2.022 . S
N452 C449 1.351 . S
N452 N453 1.365 . S
N453 C450 1.341 . S
N453 N452 1.365 . S
N453 H473 0.862 . S
C454 C449 1.501 . S
C454 H455 0.961 . S
C454 H456 0.961 . S
C454 H457 0.960 . S
H455 C454 0.961 . S
H456 C454 0.961 . S
H457 C454 0.960 . S
C458 N459 1.342 . S
C458 C462 1.401 . S
C458 C463 1.499 . S
N459 Co442 1.989 . S
N459 C458 1.342 . S
N459 N460 1.388 . S
N460 Co443 1.993 . S
N460 N459 1.388 . S
N460 C461 1.346 . S
C461 N460 1.346 . S
C461 C462 1.396 . S
C461 C471 1.510 . S
C462 C458 1.401 . S
C462 C461 1.396 . S
C463 C458 1.499 . S
C463 H464 0.959 . S
C463 H465 0.960 . S
C463 H466 0.961 . S
H464 C463 0.959 . S
H465 C463 0.960 . S
H466 C463 0.961 . S
O467 Co442 1.967 . S
O467 C475 1.258 . S
O468 Co443 1.941 . S
O468 C475 1.266 . S
H469 C471 0.959 . S
H470 C471 0.961 . S
C471 C461 1.510 . S
C471 H469 0.959 . S
C471 H470 0.961 . S
C471 H472 0.960 . S
H472 C471 0.960 . S
H473 N453 0.862 . S
O474 Co442 1.920 . S
O474 C447 1.289 . S
C475 O467 1.258 . S
C475 O468 1.266 . S
Co476 O479 1.970 . S
Co476 N493 1.989 . S
Co476 O501 1.967 . S
Co476 O508 1.920 . S
Co477 O480 1.966 . S
Co477 N486 2.022 . S
Co477 N494 1.993 . S
Co477 O502 1.941 . S
C478 O479 1.258 . S
C478 O480 1.263 . S
O479 Co476 1.970 . S
O479 C478 1.258 . S
O480 Co477 1.966 . S
O480 C478 1.263 . S
C481 O482 1.235 . S
C481 O508 1.289 . S
O482 C481 1.235 . S
C483 C485 1.400 . S
C483 N486 1.351 . S
C483 C488 1.501 . S
C484 C485 1.387 . S
C484 N487 1.341 . S
C485 C483 1.400 . S
C485 C484 1.387 . S
N486 Co477 2.022 . S
N486 C483 1.351 . S
N486 N487 1.365 . S
N487 C484 1.341 . S
N487 N486 1.365 . S
N487 H507 0.862 . S
C488 C483 1.501 . S
C488 H489 0.961 . S
C488 H490 0.961 . S
C488 H491 0.960 . S
H489 C488 0.961 . S
H490 C488 0.961 . S
H491 C488 0.960 . S
C492 N493 1.342 . S
C492 C496 1.401 . S
C492 C497 1.499 . S
N493 Co476 1.989 . S
N493 C492 1.342 . S
N493 N494 1.388 . S
N494 Co477 1.993 . S
N494 N493 1.388 . S
N494 C495 1.346 . S
C495 N494 1.346 . S
C495 C496 1.396 . S
C495 C505 1.510 . S
C496 C492 1.401 . S
C496 C495 1.396 . S
C497 C492 1.499 . S
C497 H498 0.959 . S
C497 H499 0.960 . S
C497 H500 0.961 . S
H498 C497 0.959 . S
H499 C497 0.960 . S
H500 C497 0.961 . S
O501 Co476 1.967 . S
O501 C509 1.258 . S
O502 Co477 1.941 . S
O502 C509 1.266 . S
H503 C505 0.959 . S
H504 C505 0.961 . S
C505 C495 1.510 . S
C505 H503 0.959 . S
C505 H504 0.961 . S
C505 H506 0.960 . S
H506 C505 0.960 . S
H507 N487 0.862 . S
O508 Co476 1.920 . S
O508 C481 1.289 . S
C509 O501 1.258 . S
C509 O502 1.266 . S
Co510 O513 1.970 . S
Co510 N527 1.989 . S
Co510 O535 1.967 . S
Co510 O542 1.920 . S
Co511 O514 1.966 . S
Co511 N520 2.022 . S
Co511 N528 1.993 . S
Co511 O536 1.941 . S
C512 O513 1.258 . S
C512 O514 1.263 . S
O513 Co510 1.970 . S
O513 C512 1.258 . S
O514 Co511 1.966 . S
O514 C512 1.263 . S
C515 O516 1.235 . S
C515 O542 1.289 . S
O516 C515 1.235 . S
C517 C519 1.400 . S
C517 N520 1.351 . S
C517 C522 1.501 . S
C518 C519 1.387 . S
C518 N521 1.341 . S
C519 C517 1.400 . S
C519 C518 1.387 . S
N520 Co511 2.022 . S
N520 C517 1.351 . S
N520 N521 1.365 . S
N521 C518 1.341 . S
N521 N520 1.365 . S
N521 H541 0.862 . S
C522 C517 1.501 . S
C522 H523 0.961 . S
C522 H524 0.961 . S
C522 H525 0.960 . S
H523 C522 0.961 . S
H524 C522 0.961 . S
H525 C522 0.960 . S
C526 N527 1.342 . S
C526 C530 1.401 . S
C526 C531 1.499 . S
N527 Co510 1.989 . S
N527 C526 1.342 . S
N527 N528 1.388 . S
N528 Co511 1.993 . S
N528 N527 1.388 . S
N528 C529 1.346 . S
C529 N528 1.346 . S
C529 C530 1.396 . S
C529 C539 1.510 . S
C530 C526 1.401 . S
C530 C529 1.396 . S
C531 C526 1.499 . S
C531 H532 0.959 . S
C531 H533 0.960 . S
C531 H534 0.961 . S
H532 C531 0.959 . S
H533 C531 0.960 . S
H534 C531 0.961 . S
O535 Co510 1.967 . S
O535 C543 1.258 . S
O536 Co511 1.941 . S
O536 C543 1.266 . S
H537 C539 0.959 . S
H538 C539 0.961 . S
C539 C529 1.510 . S
C539 H537 0.959 . S
C539 H538 0.961 . S
C539 H540 0.960 . S
H540 C539 0.960 . S
H541 N521 0.862 . S
O542 Co510 1.920 . S
O542 C515 1.289 . S
C543 O535 1.258 . S
C543 O536 1.266 . S
H544 C562 0.951 1_655 S
H545 C564 0.951 1_655 S
H546 C566 0.950 . S
H547 C567 0.950 . S
H548 C569 0.950 . S
H549 C572 0.950 . S
H550 C573 0.950 . S
H551 C575 0.950 . S
H552 C576 0.950 . S
H553 C577 0.951 . S
H554 C579 0.951 . S
H555 C581 0.950 1_655 S
H556 C582 0.950 1_655 S
H557 C584 0.950 1_655 S
H558 C587 0.950 . S
H559 C588 0.950 . S
H560 C590 0.950 . S
H561 C591 0.950 . S
C562 H544 0.951 1_455 S
C562 C563 1.366 . S
C562 C564 1.388 . S
C563 C562 1.366 . S
C563 C567 1.385 . S
C564 H545 0.951 1_455 S
C564 C562 1.388 . S
C564 C565 1.366 . S
C565 C564 1.366 . S
C565 C566 1.414 . S
C565 C568 1.499 . S
C566 H546 0.950 . S
C566 C565 1.414 . S
C566 C567 1.374 . S
C567 H547 0.950 . S
C567 C563 1.385 . S
C567 C566 1.374 . S
C568 C565 1.499 . S
C568 C569 1.373 . S
C568 C570 1.389 . S
C569 H548 0.950 . S
C569 C568 1.373 . S
C569 C585 1.377 1_556 S
C570 C568 1.389 . S
C570 C571 1.524 1_455 S
C570 C584 1.377 1_556 S
C571 C570 1.524 1_655 S
C571 C572 1.397 . S
C571 C576 1.363 . S
C572 H549 0.950 . S
C572 C571 1.397 . S
C572 C573 1.334 . S
C573 H550 0.950 . S
C573 C572 1.334 . S
C573 C574 1.287 . S
C574 C573 1.287 . S
C574 C575 1.524 . S
C574 H593 0.913 . S
C575 H551 0.950 . S
C575 C574 1.524 . S
C575 C576 1.415 . S
C576 H552 0.950 . S
C576 C571 1.363 . S
C576 C575 1.415 . S
C577 H553 0.951 . S
C577 C578 1.366 . S
C577 C579 1.388 . S
C578 C577 1.366 . S
C578 C582 1.385 . S
C579 H554 0.951 . S
C579 C577 1.388 . S
C579 C580 1.366 . S
C580 C579 1.366 . S
C580 C581 1.414 . S
C580 C583 1.499 . S
C581 H555 0.950 1_455 S
C581 C580 1.414 . S
C581 C582 1.374 . S
C582 H556 0.950 1_455 S
C582 C578 1.385 . S
C582 C581 1.374 . S
C583 C580 1.499 . S
C583 C584 1.373 . S
C583 C585 1.389 . S
C584 H557 0.950 1_455 S
C584 C570 1.377 1_554 S
C584 C583 1.373 . S
C585 C569 1.377 1_554 S
C585 C583 1.389 . S
C585 C586 1.524 . S
C586 C585 1.524 . S
C586 C587 1.397 . S
C586 C591 1.363 . S
C587 H558 0.950 . S
C587 C586 1.397 . S
C587 C588 1.334 . S
C588 H559 0.950 . S
C588 C587 1.334 . S
C588 C589 1.287 . S
C589 C588 1.287 . S
C589 C590 1.524 . S
C589 H592 0.999 . S
C590 H560 0.950 . S
C590 C589 1.524 . S
C590 C591 1.415 . S
C591 H561 0.950 . S
C591 C586 1.363 . S
C591 C590 1.415 . S
H592 C589 0.999 . S
H593 C574 0.913 . S
H594 C612 0.951 . S
H595 C614 0.951 . S
H596 C616 0.950 1_565 S
H597 C617 0.950 1_565 S
H598 C619 0.950 1_565 S
H599 C622 0.950 . S
H600 C623 0.950 . S
H601 C625 0.950 . S
H602 C626 0.950 . S
H603 C627 0.951 1_565 S
H604 C629 0.951 1_565 S
H605 C631 0.950 . S
H606 C632 0.950 . S
H607 C634 0.950 . S
H608 C637 0.950 1_545 S
H609 C638 0.950 . S
H610 C640 0.950 . S
H611 C641 0.950 . S
C612 H594 0.951 . S
C612 C613 1.366 . S
C612 C614 1.388 . S
C613 C612 1.366 . S
C613 C617 1.385 . S
C614 H595 0.951 . S
C614 C612 1.388 . S
C614 C615 1.366 . S
C615 C614 1.366 . S
C615 C616 1.414 . S
C615 C618 1.499 . S
C616 H596 0.950 1_545 S
C616 C615 1.414 . S
C616 C617 1.374 . S
C617 H597 0.950 1_545 S
C617 C613 1.385 . S
C617 C616 1.374 . S
C618 C615 1.499 . S
C618 C619 1.373 . S
C618 C620 1.389 . S
C619 H598 0.950 1_545 S
C619 C618 1.373 . S
C619 C635 1.377 . S
C620 C618 1.389 . S
C620 C621 1.524 . S
C620 C634 1.377 . S
C621 C620 1.524 . S
C621 C622 1.397 . S
C621 C626 1.363 . S
C622 H599 0.950 . S
C622 C621 1.397 . S
C622 C623 1.334 . S
C623 H600 0.950 . S
C623 C622 1.334 . S
C623 C624 1.287 . S
C624 C623 1.287 . S
C624 C625 1.524 . S
C624 H643 0.913 . S
C625 H601 0.950 . S
C625 C624 1.524 . S
C625 C626 1.415 . S
C626 H602 0.950 . S
C626 C621 1.363 . S
C626 C625 1.415 . S
C627 H603 0.951 1_545 S
C627 C628 1.366 . S
C627 C629 1.388 . S
C628 C627 1.366 . S
C628 C632 1.385 . S
C629 H604 0.951 1_545 S
C629 C627 1.388 . S
C629 C630 1.366 . S
C630 C629 1.366 . S
C630 C631 1.414 . S
C630 C633 1.499 . S
C631 H605 0.950 . S
C631 C630 1.414 . S
C631 C632 1.374 . S
C632 H606 0.950 . S
C632 C628 1.385 . S
C632 C631 1.374 . S
C633 C630 1.499 . S
C633 C634 1.373 . S
C633 C635 1.389 . S
C634 H607 0.950 . S
C634 C620 1.377 . S
C634 C633 1.373 . S
C635 C619 1.377 . S
C635 C633 1.389 . S
C635 C636 1.524 1_545 S
C636 C635 1.524 1_565 S
C636 C637 1.397 . S
C636 C641 1.363 . S
C637 H608 0.950 1_565 S
C637 C636 1.397 . S
C637 C638 1.334 . S
C638 H609 0.950 . S
C638 C637 1.334 . S
C638 C639 1.287 . S
C639 C638 1.287 . S
C639 C640 1.524 . S
C639 H642 0.999 . S
C640 H610 0.950 . S
C640 C639 1.524 . S
C640 C641 1.415 . S
C641 H611 0.950 . S
C641 C636 1.363 . S
C641 C640 1.415 . S
H642 C639 0.999 . S
H643 C624 0.913 . S
H644 C662 0.951 . S
H645 C664 0.951 . S
H646 C666 0.950 . S
H647 C667 0.950 . S
H648 C669 0.950 . S
H649 C672 0.950 . S
H650 C673 0.950 . S
H651 C675 0.950 . S
H652 C676 0.950 . S
H653 C677 0.951 . S
H654 C679 0.951 . S
H655 C681 0.950 . S
H656 C682 0.950 . S
H657 C684 0.950 . S
H658 C687 0.950 . S
H659 C688 0.950 . S
H660 C690 0.950 . S
H661 C691 0.950 . S
C662 H644 0.951 . S
C662 C663 1.366 . S
C662 C664 1.388 . S
C663 C662 1.366 . S
C663 C667 1.385 . S
C664 H645 0.951 . S
C664 C662 1.388 . S
C664 C665 1.366 . S
C665 C664 1.366 . S
C665 C666 1.414 . S
C665 C668 1.499 . S
C666 H646 0.950 . S
C666 C665 1.414 . S
C666 C667 1.374 . S
C667 H647 0.950 . S
C667 C663 1.385 . S
C667 C666 1.374 . S
C668 C665 1.499 . S
C668 C669 1.373 . S
C668 C670 1.389 . S
C669 H648 0.950 . S
C669 C668 1.373 . S
C669 C685 1.377 1_554 S
C670 C668 1.389 . S
C670 C671 1.524 . S
C670 C684 1.377 1_554 S
C671 C670 1.524 . S
C671 C672 1.397 . S
C671 C676 1.363 . S
C672 H649 0.950 . S
C672 C671 1.397 . S
C672 C673 1.334 . S
C673 H650 0.950 . S
C673 C672 1.334 . S
C673 C674 1.287 . S
C674 C673 1.287 . S
C674 C675 1.524 . S
C674 H693 0.913 . S
C675 H651 0.950 . S
C675 C674 1.524 . S
C675 C676 1.415 . S
C676 H652 0.950 . S
C676 C671 1.363 . S
C676 C675 1.415 . S
C677 H653 0.951 . S
C677 C678 1.366 . S
C677 C679 1.388 . S
C678 C677 1.366 . S
C678 C682 1.385 . S
C679 H654 0.951 . S
C679 C677 1.388 . S
C679 C680 1.366 . S
C680 C679 1.366 . S
C680 C681 1.414 . S
C680 C683 1.499 . S
C681 H655 0.950 . S
C681 C680 1.414 . S
C681 C682 1.374 . S
C682 H656 0.950 . S
C682 C678 1.385 . S
C682 C681 1.374 . S
C683 C680 1.499 . S
C683 C684 1.373 . S
C683 C685 1.389 . S
C684 H657 0.950 . S
C684 C670 1.377 1_556 S
C684 C683 1.373 . S
C685 C669 1.377 1_556 S
C685 C683 1.389 . S
C685 C686 1.524 . S
C686 C685 1.524 . S
C686 C687 1.397 . S
C686 C691 1.363 . S
C687 H658 0.950 . S
C687 C686 1.397 . S
C687 C688 1.334 . S
C688 H659 0.950 . S
C688 C687 1.334 . S
C688 C689 1.287 . S
C689 C688 1.287 . S
C689 C690 1.524 . S
C689 H692 0.999 . S
C690 H660 0.950 . S
C690 C689 1.524 . S
C690 C691 1.415 . S
C691 H661 0.950 . S
C691 C686 1.363 . S
C691 C690 1.415 . S
H692 C689 0.999 . S
H693 C674 0.913 . S
H694 C712 0.951 . S
H695 C714 0.951 . S
H696 C716 0.950 . S
H697 C717 0.950 . S
H698 C719 0.950 . S
H699 C722 0.950 . S
H700 C723 0.950 . S
H701 C725 0.950 . S
H702 C726 0.950 . S
H703 C727 0.951 . S
H704 C729 0.951 . S
H705 C731 0.950 . S
H706 C732 0.950 . S
H707 C734 0.950 . S
H708 C737 0.950 . S
H709 C738 0.950 . S
H710 C740 0.950 . S
H711 C741 0.950 . S
C712 H694 0.951 . S
C712 C713 1.366 . S
C712 C714 1.388 . S
C713 C712 1.366 . S
C713 C717 1.385 . S
C714 H695 0.951 . S
C714 C712 1.388 . S
C714 C715 1.366 . S
C715 C714 1.366 . S
C715 C716 1.414 . S
C715 C718 1.499 . S
C716 H696 0.950 . S
C716 C715 1.414 . S
C716 C717 1.374 . S
C717 H697 0.950 . S
C717 C713 1.385 . S
C717 C716 1.374 . S
C718 C715 1.499 . S
C718 C719 1.373 . S
C718 C720 1.389 . S
C719 H698 0.950 . S
C719 C718 1.373 . S
C719 C735 1.377 . S
C720 C718 1.389 . S
C720 C721 1.524 . S
C720 C734 1.377 . S
C721 C720 1.524 . S
C721 C722 1.397 . S
C721 C726 1.363 . S
C722 H699 0.950 . S
C722 C721 1.397 . S
C722 C723 1.334 . S
C723 H700 0.950 . S
C723 C722 1.334 . S
C723 C724 1.287 . S
C724 C723 1.287 . S
C724 C725 1.524 . S
C724 H743 0.913 . S
C725 H701 0.950 . S
C725 C724 1.524 . S
C725 C726 1.415 . S
C726 H702 0.950 . S
C726 C721 1.363 . S
C726 C725 1.415 . S
C727 H703 0.951 . S
C727 C728 1.366 . S
C727 C729 1.388 . S
C728 C727 1.366 . S
C728 C732 1.385 . S
C729 H704 0.951 . S
C729 C727 1.388 . S
C729 C730 1.366 . S
C730 C729 1.366 . S
C730 C731 1.414 . S
C730 C733 1.499 . S
C731 H705 0.950 . S
C731 C730 1.414 . S
C731 C732 1.374 . S
C732 H706 0.950 . S
C732 C728 1.385 . S
C732 C731 1.374 . S
C733 C730 1.499 . S
C733 C734 1.373 . S
C733 C735 1.389 . S
C734 H707 0.950 . S
C734 C720 1.377 . S
C734 C733 1.373 . S
C735 C719 1.377 . S
C735 C733 1.389 . S
C735 C736 1.524 . S
C736 C735 1.524 . S
C736 C737 1.397 . S
C736 C741 1.363 . S
C737 H708 0.950 . S
C737 C736 1.397 . S
C737 C738 1.334 . S
C738 H709 0.950 . S
C738 C737 1.334 . S
C738 C739 1.287 . S
C739 C738 1.287 . S
C739 C740 1.524 . S
C739 H742 0.999 . S
C740 H710 0.950 . S
C740 C739 1.524 . S
C740 C741 1.415 . S
C741 H711 0.950 . S
C741 C736 1.363 . S
C741 C740 1.415 . S
H742 C739 0.999 . S
H743 C724 0.913 . S
H744 C762 0.951 1_455 S
H745 C764 0.949 1_455 S
H746 C766 0.950 . S
H747 C767 0.950 . S
H748 C769 0.950 . S
H749 C772 0.950 . S
H750 C773 0.950 . S
H751 C775 0.950 . S
H752 C776 0.950 . S
H753 C777 0.951 . S
H754 C779 0.951 . S
H755 C781 0.950 1_455 S
H756 C782 0.950 1_455 S
H757 C784 0.950 . S
H758 C787 0.950 . S
H759 C788 0.950 . S
H760 C790 0.950 . S
H761 C791 0.950 . S
C762 H744 0.951 1_655 S
C762 C763 1.366 . S
C762 C764 1.388 . S
C763 C762 1.366 . S
C763 C767 1.385 . S
C764 H745 0.949 1_655 S
C764 C762 1.388 . S
C764 C765 1.366 . S
C765 C764 1.366 . S
C765 C766 1.414 . S
C765 C768 1.499 . S
C766 H746 0.950 . S
C766 C765 1.414 . S
C766 C767 1.374 . S
C767 H747 0.950 . S
C767 C763 1.385 . S
C767 C766 1.374 . S
C768 C765 1.499 . S
C768 C769 1.373 . S
C768 C770 1.389 . S
C769 H748 0.950 . S
C769 C768 1.373 . S
C769 C785 1.377 1_554 S
C770 C768 1.389 . S
C770 C771 1.524 . S
C770 C784 1.377 1_554 S
C771 C770 1.524 . S
C771 C772 1.397 . S
C771 C776 1.363 1_554 S
C772 H749 0.950 . S
C772 C771 1.397 . S
C772 C773 1.334 . S
C773 H750 0.950 . S
C773 C772 1.334 . S
C773 C774 1.287 . S
C774 C773 1.287 . S
C774 C775 1.524 1_554 S
C774 H793 0.913 . S
C775 H751 0.950 . S
C775 C774 1.524 1_556 S
C775 C776 1.415 . S
C776 H752 0.950 . S
C776 C771 1.363 1_556 S
C776 C775 1.415 . S
C777 H753 0.951 . S
C777 C778 1.366 . S
C777 C779 1.388 . S
C778 C777 1.366 . S
C778 C782 1.385 . S
C779 H754 0.951 . S
C779 C777 1.388 . S
C779 C780 1.366 . S
C780 C779 1.366 . S
C780 C781 1.414 . S
C780 C783 1.499 . S
C781 H755 0.950 1_655 S
C781 C780 1.414 . S
C781 C782 1.374 . S
C782 H756 0.950 1_655 S
C782 C778 1.385 . S
C782 C781 1.374 . S
C783 C780 1.499 . S
C783 C784 1.373 . S
C783 C785 1.389 . S
C784 H757 0.950 . S
C784 C770 1.377 1_556 S
C784 C783 1.373 . S
C785 C769 1.377 1_556 S
C785 C783 1.389 . S
C785 C786 1.524 . S
C786 C785 1.524 . S
C786 C787 1.397 1_655 S
C786 C791 1.363 1_556 S
C787 H758 0.950 . S
C787 C786 1.397 1_455 S
C787 C788 1.334 . S
C788 H759 0.950 . S
C788 C787 1.334 . S
C788 C789 1.287 . S
C789 C788 1.287 . S
C789 C790 1.524 1_456 S
C789 H792 0.999 . S
C790 H760 0.950 . S
C790 C789 1.524 1_654 S
C790 C791 1.415 . S
C791 H761 0.950 . S
C791 C786 1.363 1_554 S
C791 C790 1.415 . S
H792 C789 0.999 . S
H793 C774 0.913 . S
H794 C812 0.951 . S
H795 C814 0.951 . S
H796 C816 0.950 . S
H797 C817 0.950 . S
H798 C819 0.950 . S
H799 C822 0.950 . S
H800 C823 0.950 . S
H801 C825 0.950 . S
H802 C826 0.950 . S
H803 C827 0.951 . S
H804 C829 0.951 . S
H805 C831 0.950 . S
H806 C832 0.950 . S
H807 C834 0.950 . S
H808 C837 0.950 . S
H809 C838 0.950 . S
H810 C840 0.950 . S
H811 C841 0.950 1_565 S
C812 H794 0.951 . S
C812 C813 1.366 . S
C812 C814 1.388 . S
C813 C812 1.366 . S
C813 C817 1.385 . S
C814 H795 0.951 . S
C814 C812 1.388 . S
C814 C815 1.366 . S
C815 C814 1.366 . S
C815 C816 1.414 . S
C815 C818 1.499 . S
C816 H796 0.950 . S
C816 C815 1.414 . S
C816 C817 1.374 . S
C817 H797 0.950 . S
C817 C813 1.385 . S
C817 C816 1.374 . S
C818 C815 1.499 . S
C818 C819 1.373 . S
C818 C820 1.389 . S
C819 H798 0.950 . S
C819 C818 1.373 . S
C819 C835 1.377 . S
C820 C818 1.389 . S
C820 C821 1.524 . S
C820 C834 1.377 . S
C821 C820 1.524 . S
C821 C822 1.397 . S
C821 C826 1.363 . S
C822 H799 0.950 . S
C822 C821 1.397 . S
C822 C823 1.334 . S
C823 H800 0.950 . S
C823 C822 1.334 . S
C823 C824 1.287 . S
C824 C823 1.287 . S
C824 C825 1.524 . S
C824 H843 0.913 . S
C825 H801 0.950 . S
C825 C824 1.524 . S
C825 C826 1.415 . S
C826 H802 0.950 . S
C826 C821 1.363 . S
C826 C825 1.415 . S
C827 H803 0.951 . S
C827 C828 1.366 . S
C827 C829 1.388 . S
C828 C827 1.366 . S
C828 C832 1.385 . S
C829 H804 0.951 . S
C829 C827 1.388 . S
C829 C830 1.366 . S
C830 C829 1.366 . S
C830 C831 1.414 . S
C830 C833 1.499 . S
C831 H805 0.950 . S
C831 C830 1.414 . S
C831 C832 1.374 . S
C832 H806 0.950 . S
C832 C828 1.385 . S
C832 C831 1.374 . S
C833 C830 1.499 . S
C833 C834 1.373 . S
C833 C835 1.389 . S
C834 H807 0.950 . S
C834 C820 1.377 . S
C834 C833 1.373 . S
C835 C819 1.377 . S
C835 C833 1.389 . S
C835 C836 1.524 1_565 S
C836 C835 1.524 1_545 S
C836 C837 1.397 . S
C836 C841 1.363 . S
C837 H808 0.950 . S
C837 C836 1.397 . S
C837 C838 1.334 . S
C838 H809 0.950 . S
C838 C837 1.334 . S
C838 C839 1.287 . S
C839 C838 1.287 . S
C839 C840 1.524 . S
C839 H842 0.999 . S
C840 H810 0.950 . S
C840 C839 1.524 . S
C840 C841 1.415 . S
C841 H811 0.950 1_545 S
C841 C836 1.363 . S
C841 C840 1.415 . S
H842 C839 0.999 . S
H843 C824 0.913 . S
H844 C862 0.951 . S
H845 C864 0.951 . S
H846 C866 0.950 . S
H847 C867 0.950 . S
H848 C869 0.950 . S
H849 C872 0.950 . S
H850 C873 0.950 . S
H851 C875 0.950 . S
H852 C876 0.950 1_554 S
H853 C877 0.951 . S
H854 C879 0.951 . S
H855 C881 0.950 . S
H856 C882 0.950 . S
H857 C884 0.950 . S
H858 C887 0.950 . S
H859 C888 0.950 . S
H860 C890 0.950 . S
H861 C891 0.950 1_556 S
C862 H844 0.951 . S
C862 C863 1.366 . S
C862 C864 1.388 . S
C863 C862 1.366 . S
C863 C867 1.385 . S
C864 H845 0.951 . S
C864 C862 1.388 . S
C864 C865 1.366 . S
C865 C864 1.366 . S
C865 C866 1.414 . S
C865 C868 1.499 . S
C866 H846 0.950 . S
C866 C865 1.414 . S
C866 C867 1.374 . S
C867 H847 0.950 . S
C867 C863 1.385 . S
C867 C866 1.374 . S
C868 C865 1.499 . S
C868 C869 1.373 . S
C868 C870 1.389 . S
C869 H848 0.950 . S
C869 C868 1.373 . S
C869 C885 1.377 1_556 S
C870 C868 1.389 . S
C870 C871 1.524 . S
C870 C884 1.377 1_556 S
C871 C870 1.524 . S
C871 C872 1.397 . S
C871 C876 1.363 . S
C872 H849 0.950 . S
C872 C871 1.397 . S
C872 C873 1.334 . S
C873 H850 0.950 . S
C873 C872 1.334 . S
C873 C874 1.287 . S
C874 C873 1.287 . S
C874 C875 1.524 . S
C874 H893 0.913 . S
C875 H851 0.950 . S
C875 C874 1.524 . S
C875 C876 1.415 . S
C876 H852 0.950 1_556 S
C876 C871 1.363 . S
C876 C875 1.415 . S
C877 H853 0.951 . S
C877 C878 1.366 . S
C877 C879 1.388 . S
C878 C877 1.366 . S
C878 C882 1.385 . S
C879 H854 0.951 . S
C879 C877 1.388 . S
C879 C880 1.366 . S
C880 C879 1.366 . S
C880 C881 1.414 . S
C880 C883 1.499 . S
C881 H855 0.950 . S
C881 C880 1.414 . S
C881 C882 1.374 . S
C882 H856 0.950 . S
C882 C878 1.385 . S
C882 C881 1.374 . S
C883 C880 1.499 . S
C883 C884 1.373 . S
C883 C885 1.389 . S
C884 H857 0.950 . S
C884 C870 1.377 1_554 S
C884 C883 1.373 . S
C885 C869 1.377 1_554 S
C885 C883 1.389 . S
C885 C886 1.524 . S
C886 C885 1.524 . S
C886 C887 1.397 . S
C886 C891 1.363 . S
C887 H858 0.950 . S
C887 C886 1.397 . S
C887 C888 1.334 . S
C888 H859 0.950 . S
C888 C887 1.334 . S
C888 C889 1.287 . S
C889 C888 1.287 . S
C889 C890 1.524 . S
C889 H892 0.999 . S
C890 H860 0.950 . S
C890 C889 1.524 . S
C890 C891 1.415 . S
C891 H861 0.950 1_554 S
C891 C886 1.363 . S
C891 C890 1.415 . S
H892 C889 0.999 . S
H893 C874 0.913 . S
H894 C912 0.951 . S
H895 C914 0.951 . S
H896 C916 0.950 . S
H897 C917 0.950 . S
H898 C919 0.950 . S
H899 C922 0.950 . S
H900 C923 0.950 . S
H901 C925 0.950 . S
H902 C926 0.950 . S
H903 C927 0.951 . S
H904 C929 0.951 . S
H905 C931 0.950 . S
H906 C932 0.950 . S
H907 C934 0.950 . S
H908 C937 0.950 . S
H909 C938 0.950 . S
H910 C940 0.950 . S
H911 C941 0.950 . S
C912 H894 0.951 . S
C912 C913 1.366 . S
C912 C914 1.388 . S
C913 C912 1.366 . S
C913 C917 1.385 . S
C914 H895 0.951 . S
C914 C912 1.388 . S
C914 C915 1.366 . S
C915 C914 1.366 . S
C915 C916 1.414 . S
C915 C918 1.499 . S
C916 H896 0.950 . S
C916 C915 1.414 . S
C916 C917 1.374 . S
C917 H897 0.950 . S
C917 C913 1.385 . S
C917 C916 1.374 . S
C918 C915 1.499 . S
C918 C919 1.373 . S
C918 C920 1.389 . S
C919 H898 0.950 . S
C919 C918 1.373 . S
C919 C935 1.377 . S
C920 C918 1.389 . S
C920 C921 1.524 . S
C920 C934 1.377 . S
C921 C920 1.524 . S
C921 C922 1.397 . S
C921 C926 1.363 . S
C922 H899 0.950 . S
C922 C921 1.397 . S
C922 C923 1.334 . S
C923 H900 0.950 . S
C923 C922 1.334 . S
C923 C924 1.287 . S
C924 C923 1.287 . S
C924 C925 1.524 . S
C924 H943 0.913 . S
C925 H901 0.950 . S
C925 C924 1.524 . S
C925 C926 1.415 . S
C926 H902 0.950 . S
C926 C921 1.363 . S
C926 C925 1.415 . S
C927 H903 0.951 . S
C927 C928 1.366 . S
C927 C929 1.388 . S
C928 C927 1.366 . S
C928 C932 1.385 . S
C929 H904 0.951 . S
C929 C927 1.388 . S
C929 C930 1.366 . S
C930 C929 1.366 . S
C930 C931 1.414 . S
C930 C933 1.499 . S
C931 H905 0.950 . S
C931 C930 1.414 . S
C931 C932 1.374 . S
C932 H906 0.950 . S
C932 C928 1.385 . S
C932 C931 1.374 . S
C933 C930 1.499 . S
C933 C934 1.373 . S
C933 C935 1.389 . S
C934 H907 0.950 . S
C934 C920 1.377 . S
C934 C933 1.373 . S
C935 C919 1.377 . S
C935 C933 1.389 . S
C935 C936 1.524 . S
C936 C935 1.524 . S
C936 C937 1.397 . S
C936 C941 1.363 . S
C937 H908 0.950 . S
C937 C936 1.397 . S
C937 C938 1.334 . S
C938 H909 0.950 . S
C938 C937 1.334 . S
C938 C939 1.287 . S
C939 C938 1.287 . S
C939 C940 1.524 . S
C939 H942 0.999 . S
C940 H910 0.950 . S
C940 C939 1.524 . S
C940 C941 1.415 . S
C941 H911 0.950 . S
C941 C936 1.363 . S
C941 C940 1.415 . S
H942 C939 0.999 . S
H943 C924 0.913 . S
H944 C962 0.951 . S
H945 C964 0.960 . S
H946 C966 0.950 . S
H947 C967 0.950 . S
H948 C969 0.950 . S
H949 C972 0.950 . S
H950 C973 0.950 . S
H951 C975 0.950 . S
H952 C976 0.950 . S
H953 C977 0.951 . S
H954 C979 0.951 1_545 S
H955 C981 0.950 1_545 S
H956 C982 0.950 . S
H957 C984 0.950 . S
H958 C987 0.950 . S
H959 C988 0.950 . S
H960 C990 0.950 . S
H961 C991 0.950 . S
C962 H944 0.951 . S
C962 C963 1.366 . S
C962 C964 1.388 . S
C963 C962 1.366 . S
C963 C967 1.385 . S
C964 H945 0.960 . S
C964 C962 1.388 . S
C964 C965 1.366 . S
C965 C964 1.366 . S
C965 C966 1.414 . S
C965 C968 1.499 . S
C966 H946 0.950 . S
C966 C965 1.414 . S
C966 C967 1.374 . S
C967 H947 0.950 . S
C967 C963 1.385 . S
C967 C966 1.374 . S
C968 C965 1.499 . S
C968 C969 1.373 1_455 S
C968 C970 1.389 . S
C969 H948 0.950 . S
C969 C968 1.373 1_655 S
C969 C985 1.377 . S
C970 C968 1.389 . S
C970 C971 1.524 . S
C970 C984 1.377 . S
C971 C970 1.524 . S
C971 C972 1.397 . S
C971 C976 1.363 . S
C972 H949 0.950 . S
C972 C971 1.397 . S
C972 C973 1.334 . S
C973 H950 0.950 . S
C973 C972 1.334 . S
C973 C974 1.287 . S
C974 C973 1.287 . S
C974 C975 1.524 . S
C974 H993 0.913 . S
C975 H951 0.950 . S
C975 C974 1.524 . S
C975 C976 1.415 . S
C976 H952 0.950 . S
C976 C971 1.363 . S
C976 C975 1.415 . S
C977 H953 0.951 . S
C977 C978 1.366 . S
C977 C979 1.388 . S
C978 C977 1.366 . S
C978 C982 1.385 . S
C979 H954 0.951 1_565 S
C979 C977 1.388 . S
C979 C980 1.366 1_565 S
C980 C979 1.366 1_545 S
C980 C981 1.414 1_545 S
C980 C983 1.499 . S
C981 H955 0.950 1_565 S
C981 C980 1.414 1_565 S
C981 C982 1.374 . S
C982 H956 0.950 . S
C982 C978 1.385 . S
C982 C981 1.374 . S
C983 C980 1.499 . S
C983 C984 1.373 1_655 S
C983 C985 1.389 . S
C984 H957 0.950 . S
C984 C970 1.377 . S
C984 C983 1.373 1_455 S
C985 C969 1.377 . S
C985 C983 1.389 . S
C985 C986 1.524 . S
C986 C985 1.524 . S
C986 C987 1.397 . S
C986 C991 1.363 . S
C987 H958 0.950 . S
C987 C986 1.397 . S
C987 C988 1.334 . S
C988 H959 0.950 . S
C988 C987 1.334 . S
C988 C989 1.287 . S
C989 C988 1.287 . S
C989 C990 1.524 . S
C989 H992 0.999 . S
C990 H960 0.950 . S
C990 C989 1.524 . S
C990 C991 1.415 . S
C991 H961 0.950 . S
C991 C986 1.363 . S
C991 C990 1.415 . S
H992 C989 0.999 . S
H993 C974 0.913 . S
H994 C1012 0.951 . S
H995 C1014 0.947 1_565 S
H996 C1016 0.950 . S
H997 C1017 0.950 . S
H998 C1019 0.950 . S
H999 C1022 0.950 . S
H1000 C1023 0.950 . S
H1001 C1025 0.950 . S
H1002 C1026 0.950 . S
H1003 C1027 0.951 . S
H1004 C1029 0.951 . S
H1005 C1031 0.950 . S
H1006 C1032 0.950 . S
H1007 C1034 0.950 . S
H1008 C1037 0.950 . S
H1009 C1038 0.950 . S
H1010 C1040 0.950 . S
H1011 C1041 0.950 . S
C1012 H994 0.951 . S
C1012 C1013 1.366 . S
C1012 C1014 1.388 . S
C1013 C1012 1.366 . S
C1013 C1017 1.385 . S
C1014 H995 0.947 1_545 S
C1014 C1012 1.388 . S
C1014 C1015 1.366 . S
C1015 C1014 1.366 . S
C1015 C1016 1.414 . S
C1015 C1018 1.499 . S
C1016 H996 0.950 . S
C1016 C1015 1.414 . S
C1016 C1017 1.374 . S
C1017 H997 0.950 . S
C1017 C1013 1.385 . S
C1017 C1016 1.374 . S
C1018 C1015 1.499 . S
C1018 C1019 1.373 1_545 S
C1018 C1020 1.389 . S
C1019 H998 0.950 . S
C1019 C1018 1.373 1_565 S
C1019 C1035 1.377 . S
C1020 C1018 1.389 . S
C1020 C1021 1.524 . S
C1020 C1034 1.377 . S
C1021 C1020 1.524 . S
C1021 C1022 1.397 . S
C1021 C1026 1.363 . S
C1022 H999 0.950 . S
C1022 C1021 1.397 . S
C1022 C1023 1.334 . S
C1023 H1000 0.950 . S
C1023 C1022 1.334 . S
C1023 C1024 1.287 . S
C1024 C1023 1.287 . S
C1024 C1025 1.524 . S
C1024 H1043 0.913 . S
C1025 H1001 0.950 . S
C1025 C1024 1.524 . S
C1025 C1026 1.415 . S
C1026 H1002 0.950 . S
C1026 C1021 1.363 . S
C1026 C1025 1.415 . S
C1027 H1003 0.951 . S
C1027 C1028 1.366 . S
C1027 C1029 1.388 . S
C1028 C1027 1.366 . S
C1028 C1032 1.385 . S
C1029 H1004 0.951 . S
C1029 C1027 1.388 . S
C1029 C1030 1.366 . S
C1030 C1029 1.366 . S
C1030 C1031 1.414 . S
C1030 C1033 1.499 . S
C1031 H1005 0.950 . S
C1031 C1030 1.414 . S
C1031 C1032 1.374 . S
C1032 H1006 0.950 . S
C1032 C1028 1.385 . S
C1032 C1031 1.374 . S
C1033 C1030 1.499 . S
C1033 C1034 1.373 1_565 S
C1033 C1035 1.389 . S
C1034 H1007 0.950 . S
C1034 C1020 1.377 . S
C1034 C1033 1.373 1_545 S
C1035 C1019 1.377 . S
C1035 C1033 1.389 . S
C1035 C1036 1.524 . S
C1036 C1035 1.524 . S
C1036 C1037 1.397 . S
C1036 C1041 1.363 . S
C1037 H1008 0.950 . S
C1037 C1036 1.397 . S
C1037 C1038 1.334 . S
C1038 H1009 0.950 . S
C1038 C1037 1.334 . S
C1038 C1039 1.287 . S
C1039 C1038 1.287 . S
C1039 C1040 1.524 . S
C1039 H1042 0.999 . S
C1040 H1010 0.950 . S
C1040 C1039 1.524 . S
C1040 C1041 1.415 . S
C1041 H1011 0.950 . S
C1041 C1036 1.363 . S
C1041 C1040 1.415 . S
H1042 C1039 0.999 . S
H1043 C1024 0.913 . S
H1044 C1062 0.951 . S
H1045 C1064 0.951 . S
H1046 C1066 0.950 . S
H1047 C1067 0.950 . S
H1048 C1069 0.950 . S
H1049 C1072 0.950 . S
H1050 C1073 0.950 . S
H1051 C1075 0.950 . S
H1052 C1076 0.950 . S
H1053 C1077 0.951 . S
H1054 C1079 0.951 . S
H1055 C1081 0.950 . S
H1056 C1082 0.950 . S
H1057 C1084 0.950 . S
H1058 C1087 0.950 . S
H1059 C1088 0.950 . S
H1060 C1090 0.950 . S
H1061 C1091 0.950 . S
C1062 H1044 0.951 . S
C1062 C1063 1.366 . S
C1062 C1064 1.388 . S
C1063 C1062 1.366 . S
C1063 C1067 1.385 . S
C1064 H1045 0.951 . S
C1064 C1062 1.388 . S
C1064 C1065 1.366 . S
C1065 C1064 1.366 . S
C1065 C1066 1.414 . S
C1065 C1068 1.499 . S
C1066 H1046 0.950 . S
C1066 C1065 1.414 . S
C1066 C1067 1.374 . S
C1067 H1047 0.950 . S
C1067 C1063 1.385 . S
C1067 C1066 1.374 . S
C1068 C1065 1.499 . S
C1068 C1069 1.373 . S
C1068 C1070 1.389 . S
C1069 H1048 0.950 . S
C1069 C1068 1.373 . S
C1069 C1085 1.377 . S
C1070 C1068 1.389 . S
C1070 C1071 1.524 . S
C1070 C1084 1.377 . S
C1071 C1070 1.524 . S
C1071 C1072 1.397 . S
C1071 C1076 1.363 . S
C1072 H1049 0.950 . S
C1072 C1071 1.397 . S
C1072 C1073 1.334 . S
C1073 H1050 0.950 . S
C1073 C1072 1.334 . S
C1073 C1074 1.287 . S
C1074 C1073 1.287 . S
C1074 C1075 1.524 . S
C1074 H1093 0.913 . S
C1075 H1051 0.950 . S
C1075 C1074 1.524 . S
C1075 C1076 1.415 . S
C1076 H1052 0.950 . S
C1076 C1071 1.363 . S
C1076 C1075 1.415 . S
C1077 H1053 0.951 . S
C1077 C1078 1.366 . S
C1077 C1079 1.388 . S
C1078 C1077 1.366 . S
C1078 C1082 1.385 . S
C1079 H1054 0.951 . S
C1079 C1077 1.388 . S
C1079 C1080 1.366 . S
C1080 C1079 1.366 . S
C1080 C1081 1.414 . S
C1080 C1083 1.499 . S
C1081 H1055 0.950 . S
C1081 C1080 1.414 . S
C1081 C1082 1.374 . S
C1082 H1056 0.950 . S
C1082 C1078 1.385 . S
C1082 C1081 1.374 . S
C1083 C1080 1.499 . S
C1083 C1084 1.373 . S
C1083 C1085 1.389 . S
C1084 H1057 0.950 . S
C1084 C1070 1.377 . S
C1084 C1083 1.373 . S
C1085 C1069 1.377 . S
C1085 C1083 1.389 . S
C1085 C1086 1.524 . S
C1086 C1085 1.524 . S
C1086 C1087 1.397 . S
C1086 C1091 1.363 . S
C1087 H1058 0.950 . S
C1087 C1086 1.397 . S
C1087 C1088 1.334 . S
C1088 H1059 0.950 . S
C1088 C1087 1.334 . S
C1088 C1089 1.287 . S
C1089 C1088 1.287 . S
C1089 C1090 1.524 . S
C1089 H1092 0.999 . S
C1090 H1060 0.950 . S
C1090 C1089 1.524 . S
C1090 C1091 1.415 . S
C1091 H1061 0.950 . S
C1091 C1086 1.363 . S
C1091 C1090 1.415 . S
H1092 C1089 0.999 . S
H1093 C1074 0.913 . S
H1094 C1112 0.951 . S
H1095 C1114 0.951 . S
H1096 C1116 0.950 . S
H1097 C1117 0.950 . S
H1098 C1119 0.950 . S
H1099 C1122 0.950 . S
H1100 C1123 0.950 . S
H1101 C1125 0.950 . S
H1102 C1126 0.950 . S
H1103 C1127 0.951 . S
H1104 C1129 0.941 1_455 S
H1105 C1131 0.950 1_455 S
H1106 C1132 0.950 . S
H1107 C1134 0.950 . S
H1108 C1137 0.950 . S
H1109 C1138 0.953 . S
H1110 C1140 0.950 . S
H1111 C1141 0.950 . S
C1112 H1094 0.951 . S
C1112 C1113 1.366 . S
C1112 C1114 1.388 . S
C1113 C1112 1.366 . S
C1113 C1117 1.385 . S
C1114 H1095 0.951 . S
C1114 C1112 1.388 . S
C1114 C1115 1.366 . S
C1115 C1114 1.366 . S
C1115 C1116 1.414 . S
C1115 C1118 1.499 . S
C1116 H1096 0.950 . S
C1116 C1115 1.414 . S
C1116 C1117 1.374 . S
C1117 H1097 0.950 . S
C1117 C1113 1.385 . S
C1117 C1116 1.374 . S
C1118 C1115 1.499 . S
C1118 C1119 1.373 . S
C1118 C1120 1.389 . S
C1119 H1098 0.950 . S
C1119 C1118 1.373 . S
C1119 C1135 1.377 . S
C1120 C1118 1.389 . S
C1120 C1121 1.524 . S
C1120 C1134 1.377 . S
C1121 C1120 1.524 . S
C1121 C1122 1.397 . S
C1121 C1126 1.363 . S
C1122 H1099 0.950 . S
C1122 C1121 1.397 . S
C1122 C1123 1.334 . S
C1123 H1100 0.950 . S
C1123 C1122 1.334 . S
C1123 C1124 1.287 . S
C1124 C1123 1.287 . S
C1124 C1125 1.524 . S
C1124 H1143 0.913 . S
C1125 H1101 0.950 . S
C1125 C1124 1.524 . S
C1125 C1126 1.415 . S
C1126 H1102 0.950 . S
C1126 C1121 1.363 . S
C1126 C1125 1.415 . S
C1127 H1103 0.951 . S
C1127 C1128 1.366 . S
C1127 C1129 1.388 . S
C1128 C1127 1.366 . S
C1128 C1132 1.385 . S
C1129 H1104 0.941 1_655 S
C1129 C1127 1.388 . S
C1129 C1130 1.366 1_655 S
C1130 C1129 1.366 1_455 S
C1130 C1131 1.414 1_455 S
C1130 C1133 1.499 . S
C1131 H1105 0.950 1_655 S
C1131 C1130 1.414 1_655 S
C1131 C1132 1.374 . S
C1132 H1106 0.950 . S
C1132 C1128 1.385 . S
C1132 C1131 1.374 . S
C1133 C1130 1.499 . S
C1133 C1134 1.373 . S
C1133 C1135 1.389 . S
C1134 H1107 0.950 . S
C1134 C1120 1.377 . S
C1134 C1133 1.373 . S
C1135 C1119 1.377 . S
C1135 C1133 1.389 . S
C1135 C1136 1.524 . S
C1136 C1135 1.524 . S
C1136 C1137 1.397 . S
C1136 C1141 1.363 . S
C1137 H1108 0.950 . S
C1137 C1136 1.397 . S
C1137 C1138 1.331 1_455 S
C1138 H1109 0.953 . S
C1138 C1137 1.331 1_655 S
C1138 C1139 1.286 1_655 S
C1139 C1138 1.286 1_455 S
C1139 C1140 1.524 . S
C1139 H1142 0.999 1_455 S
C1140 H1110 0.950 . S
C1140 C1139 1.524 . S
C1140 C1141 1.415 . S
C1141 H1111 0.950 . S
C1141 C1136 1.363 . S
C1141 C1140 1.415 . S
H1142 C1139 0.999 1_655 S
H1143 C1124 0.913 . S
H1144 C1162 0.951 . S
H1145 C1164 0.951 . S
H1146 C1166 0.950 . S
H1147 C1167 0.950 . S
H1148 C1169 0.950 . S
H1149 C1172 0.950 . S
H1150 C1173 0.950 . S
H1151 C1175 0.950 . S
H1152 C1176 0.950 . S
H1153 C1177 0.951 . S
H1154 C1179 0.951 . S
H1155 C1181 0.950 . S
H1156 C1182 0.950 . S
H1157 C1184 0.950 . S
H1158 C1187 0.950 . S
H1159 C1188 0.950 . S
H1160 C1190 0.950 . S
H1161 C1191 0.950 . S
C1162 H1144 0.951 . S
C1162 C1163 1.366 1_455 S
C1162 C1164 1.388 . S
C1163 C1162 1.366 1_655 S
C1163 C1167 1.385 . S
C1164 H1145 0.951 . S
C1164 C1162 1.388 . S
C1164 C1165 1.366 1_455 S
C1165 C1164 1.366 1_655 S
C1165 C1166 1.414 . S
C1165 C1168 1.499 . S
C1166 H1146 0.950 . S
C1166 C1165 1.414 . S
C1166 C1167 1.374 . S
C1167 H1147 0.950 . S
C1167 C1163 1.385 . S
C1167 C1166 1.374 . S
C1168 C1165 1.499 . S
C1168 C1169 1.373 . S
C1168 C1170 1.389 1_655 S
C1169 H1148 0.950 . S
C1169 C1168 1.373 . S
C1169 C1185 1.377 . S
C1170 C1168 1.389 1_455 S
C1170 C1171 1.524 . S
C1170 C1184 1.377 . S
C1171 C1170 1.524 . S
C1171 C1172 1.397 . S
C1171 C1176 1.363 . S
C1172 H1149 0.950 . S
C1172 C1171 1.397 . S
C1172 C1173 1.334 . S
C1173 H1150 0.950 . S
C1173 C1172 1.334 . S
C1173 C1174 1.287 . S
C1174 C1173 1.287 . S
C1174 C1175 1.524 . S
C1174 H1193 0.913 . S
C1175 H1151 0.950 . S
C1175 C1174 1.524 . S
C1175 C1176 1.415 . S
C1176 H1152 0.950 . S
C1176 C1171 1.363 . S
C1176 C1175 1.415 . S
C1177 H1153 0.951 . S
C1177 C1178 1.366 1_655 S
C1177 C1179 1.388 . S
C1178 C1177 1.366 1_455 S
C1178 C1182 1.385 . S
C1179 H1154 0.951 . S
C1179 C1177 1.388 . S
C1179 C1180 1.366 1_655 S
C1180 C1179 1.366 1_455 S
C1180 C1181 1.414 . S
C1180 C1183 1.499 . S
C1181 H1155 0.950 . S
C1181 C1180 1.414 . S
C1181 C1182 1.374 . S
C1182 H1156 0.950 . S
C1182 C1178 1.385 . S
C1182 C1181 1.374 . S
C1183 C1180 1.499 . S
C1183 C1184 1.373 . S
C1183 C1185 1.389 1_455 S
C1184 H1157 0.950 . S
C1184 C1170 1.377 . S
C1184 C1183 1.373 . S
C1185 C1169 1.377 . S
C1185 C1183 1.389 1_655 S
C1185 C1186 1.524 . S
C1186 C1185 1.524 . S
C1186 C1187 1.397 . S
C1186 C1191 1.363 . S
C1187 H1158 0.950 . S
C1187 C1186 1.397 . S
C1187 C1188 1.334 . S
C1188 H1159 0.950 . S
C1188 C1187 1.334 . S
C1188 C1189 1.287 . S
C1189 C1188 1.287 . S
C1189 C1190 1.524 . S
C1189 H1192 0.999 . S
C1190 H1160 0.950 . S
C1190 C1189 1.524 . S
C1190 C1191 1.415 . S
C1191 H1161 0.950 . S
C1191 C1186 1.363 . S
C1191 C1190 1.415 . S
H1192 C1189 0.999 . S
H1193 C1174 0.913 . S
H1194 C1212 0.951 . S
H1195 C1214 0.951 . S
H1196 C1216 0.950 . S
H1197 C1217 0.950 . S
H1198 C1219 0.950 . S
H1199 C1222 0.950 1_545 S
H1200 C1223 0.950 . S
H1201 C1225 0.950 . S
H1202 C1226 0.950 . S
H1203 C1227 0.951 . S
H1204 C1229 0.951 . S
H1205 C1231 0.950 . S
H1206 C1232 0.950 . S
H1207 C1234 0.950 . S
H1208 C1237 0.950 1_565 S
H1209 C1238 0.950 . S
H1210 C1240 0.950 . S
H1211 C1241 0.950 . S
C1212 H1194 0.951 . S
C1212 C1213 1.366 . S
C1212 C1214 1.388 1_655 S
C1213 C1212 1.366 . S
C1213 C1217 1.385 1_565 S
C1214 H1195 0.951 . S
C1214 C1212 1.388 1_455 S
C1214 C1215 1.366 . S
C1215 C1214 1.366 . S
C1215 C1216 1.414 1_465 S
C1215 C1218 1.499 . S
C1216 H1196 0.950 . S
C1216 C1215 1.414 1_645 S
C1216 C1217 1.374 . S
C1217 H1197 0.950 . S
C1217 C1213 1.385 1_545 S
C1217 C1216 1.374 . S
C1218 C1215 1.499 . S
C1218 C1219 1.373 1_565 S
C1218 C1220 1.389 . S
C1219 H1198 0.950 . S
C1219 C1218 1.373 1_545 S
C1219 C1235 1.377 . S
C1220 C1218 1.389 . S
C1220 C1221 1.524 . S
C1220 C1234 1.377 . S
C1221 C1220 1.524 . S
C1221 C1222 1.397 . S
C1221 C1226 1.363 . S
C1222 H1199 0.950 1_565 S
C1222 C1221 1.397 . S
C1222 C1223 1.334 . S
C1223 H1200 0.950 . S
C1223 C1222 1.334 . S
C1223 C1224 1.287 . S
C1224 C1223 1.287 . S
C1224 C1225 1.524 . S
C1224 H1243 0.913 . S
C1225 H1201 0.950 . S
C1225 C1224 1.524 . S
C1225 C1226 1.415 . S
C1226 H1202 0.950 . S
C1226 C1221 1.363 . S
C1226 C1225 1.415 . S
C1227 H1203 0.951 . S
C1227 C1228 1.366 . S
C1227 C1229 1.388 . S
C1228 C1227 1.366 . S
C1228 C1232 1.385 1_545 S
C1229 H1204 0.951 . S
C1229 C1227 1.388 . S
C1229 C1230 1.366 . S
C1230 C1229 1.366 . S
C1230 C1231 1.414 1_545 S
C1230 C1233 1.499 . S
C1231 H1205 0.950 . S
C1231 C1230 1.414 1_565 S
C1231 C1232 1.374 . S
C1232 H1206 0.950 . S
C1232 C1228 1.385 1_565 S
C1232 C1231 1.374 . S
C1233 C1230 1.499 . S
C1233 C1234 1.373 1_545 S
C1233 C1235 1.389 . S
C1234 H1207 0.950 . S
C1234 C1220 1.377 . S
C1234 C1233 1.373 1_565 S
C1235 C1219 1.377 . S
C1235 C1233 1.389 . S
C1235 C1236 1.524 . S
C1236 C1235 1.524 . S
C1236 C1237 1.397 . S
C1236 C1241 1.363 . S
C1237 H1208 0.950 1_545 S
C1237 C1236 1.397 . S
C1237 C1238 1.334 . S
C1238 H1209 0.950 . S
C1238 C1237 1.334 . S
C1238 C1239 1.287 . S
C1239 C1238 1.287 . S
C1239 C1240 1.524 . S
C1239 H1242 0.999 . S
C1240 H1210 0.950 . S
C1240 C1239 1.524 . S
C1240 C1241 1.415 . S
C1241 H1211 0.950 . S
C1241 C1236 1.363 . S
C1241 C1240 1.415 . S
H1242 C1239 0.999 . S
H1243 C1224 0.913 . S
H1244 C1262 0.951 . S
H1245 C1264 0.951 . S
H1246 C1266 0.950 . S
H1247 C1267 0.950 . S
H1248 C1269 0.950 . S
H1249 C1272 0.950 . S
H1250 C1273 0.950 . S
H1251 C1275 0.950 . S
H1252 C1276 0.950 . S
H1253 C1277 0.951 . S
H1254 C1279 0.963 . S
H1255 C1281 0.949 . S
H1256 C1282 0.950 . S
H1257 C1284 0.950 . S
H1258 C1287 0.950 . S
H1259 C1288 0.950 1_565 S
H1260 C1290 0.950 . S
H1261 C1291 0.950 . S
C1262 H1244 0.951 . S
C1262 C1263 1.366 . S
C1262 C1264 1.388 . S
C1263 C1262 1.366 . S
C1263 C1267 1.385 . S
C1264 H1245 0.951 . S
C1264 C1262 1.388 . S
C1264 C1265 1.366 . S
C1265 C1264 1.366 . S
C1265 C1266 1.414 . S
C1265 C1268 1.499 . S
C1266 H1246 0.950 . S
C1266 C1265 1.414 . S
C1266 C1267 1.374 . S
C1267 H1247 0.950 . S
C1267 C1263 1.385 . S
C1267 C1266 1.374 . S
C1268 C1265 1.499 . S
C1268 C1269 1.373 . S
C1268 C1270 1.389 . S
C1269 H1248 0.950 . S
C1269 C1268 1.373 . S
C1269 C1285 1.377 . S
C1270 C1268 1.389 . S
C1270 C1271 1.524 . S
C1270 C1284 1.377 . S
C1271 C1270 1.524 . S
C1271 C1272 1.397 . S
C1271 C1276 1.363 . S
C1272 H1249 0.950 . S
C1272 C1271 1.397 . S
C1272 C1273 1.334 . S
C1273 H1250 0.950 . S
C1273 C1272 1.334 . S
C1273 C1274 1.287 . S
C1274 C1273 1.287 . S
C1274 C1275 1.524 . S
C1274 H1293 0.913 . S
C1275 H1251 0.950 . S
C1275 C1274 1.524 . S
C1275 C1276 1.415 . S
C1276 H1252 0.950 . S
C1276 C1271 1.363 . S
C1276 C1275 1.415 . S
C1277 H1253 0.951 . S
C1277 C1278 1.366 . S
C1277 C1279 1.388 . S
C1278 C1277 1.366 . S
C1278 C1282 1.385 . S
C1279 H1254 0.963 . S
C1279 C1277 1.388 . S
C1279 C1280 1.366 1_565 S
C1280 C1279 1.366 1_545 S
C1280 C1281 1.413 . S
C1280 C1283 1.499 . S
C1281 H1255 0.949 . S
C1281 C1280 1.413 . S
C1281 C1282 1.375 1_545 S
C1282 H1256 0.950 . S
C1282 C1278 1.385 . S
C1282 C1281 1.375 1_565 S
C1283 C1280 1.499 . S
C1283 C1284 1.373 . S
C1283 C1285 1.389 . S
C1284 H1257 0.950 . S
C1284 C1270 1.377 . S
C1284 C1283 1.373 . S
C1285 C1269 1.377 . S
C1285 C1283 1.389 . S
C1285 C1286 1.524 . S
C1286 C1285 1.524 . S
C1286 C1287 1.397 . S
C1286 C1291 1.363 . S
C1287 H1258 0.950 . S
C1287 C1286 1.397 . S
C1287 C1288 1.334 . S
C1288 H1259 0.950 1_545 S
C1288 C1287 1.334 . S
C1288 C1289 1.287 . S
C1289 C1288 1.287 . S
C1289 C1290 1.524 . S
C1289 H1292 0.999 1_545 S
C1290 H1260 0.950 . S
C1290 C1289 1.524 . S
C1290 C1291 1.415 . S
C1291 H1261 0.950 . S
C1291 C1286 1.363 . S
C1291 C1290 1.415 . S
H1292 C1289 0.999 1_565 S
H1293 C1274 0.913 . S
H1294 C1312 0.951 . S
H1295 C1314 0.951 . S
H1296 C1316 0.950 . S
H1297 C1317 0.950 . S
H1298 C1319 0.950 . S
H1299 C1322 0.950 . S
H1300 C1323 0.950 . S
H1301 C1325 0.950 . S
H1302 C1326 0.950 . S
H1303 C1327 0.951 . S
H1304 C1329 0.951 . S
H1305 C1331 0.950 . S
H1306 C1332 0.950 . S
H1307 C1334 0.950 . S
H1308 C1337 0.950 . S
H1309 C1338 0.950 . S
H1310 C1340 0.950 . S
H1311 C1341 0.950 . S
C1312 H1294 0.951 . S
C1312 C1313 1.366 . S
C1312 C1314 1.388 . S
C1313 C1312 1.366 . S
C1313 C1317 1.385 . S
C1314 H1295 0.951 . S
C1314 C1312 1.388 . S
C1314 C1315 1.366 . S
C1315 C1314 1.366 . S
C1315 C1316 1.414 . S
C1315 C1318 1.499 . S
C1316 H1296 0.950 . S
C1316 C1315 1.414 . S
C1316 C1317 1.374 . S
C1317 H1297 0.950 . S
C1317 C1313 1.385 . S
C1317 C1316 1.374 . S
C1318 C1315 1.499 . S
C1318 C1319 1.373 . S
C1318 C1320 1.389 . S
C1319 H1298 0.950 . S
C1319 C1318 1.373 . S
C1319 C1335 1.377 . S
C1320 C1318 1.389 . S
C1320 C1321 1.524 . S
C1320 C1334 1.377 . S
C1321 C1320 1.524 . S
C1321 C1322 1.397 . S
C1321 C1326 1.363 . S
C1322 H1299 0.950 . S
C1322 C1321 1.397 . S
C1322 C1323 1.334 . S
C1323 H1300 0.950 . S
C1323 C1322 1.334 . S
C1323 C1324 1.287 . S
C1324 C1323 1.287 . S
C1324 C1325 1.524 . S
C1324 H1343 0.913 . S
C1325 H1301 0.950 . S
C1325 C1324 1.524 . S
C1325 C1326 1.415 . S
C1326 H1302 0.950 . S
C1326 C1321 1.363 . S
C1326 C1325 1.415 . S
C1327 H1303 0.951 . S
C1327 C1328 1.366 . S
C1327 C1329 1.388 . S
C1328 C1327 1.366 . S
C1328 C1332 1.385 . S
C1329 H1304 0.951 . S
C1329 C1327 1.388 . S
C1329 C1330 1.366 . S
C1330 C1329 1.366 . S
C1330 C1331 1.414 . S
C1330 C1333 1.499 . S
C1331 H1305 0.950 . S
C1331 C1330 1.414 . S
C1331 C1332 1.374 . S
C1332 H1306 0.950 . S
C1332 C1328 1.385 . S
C1332 C1331 1.374 . S
C1333 C1330 1.499 . S
C1333 C1334 1.373 . S
C1333 C1335 1.389 . S
C1334 H1307 0.950 . S
C1334 C1320 1.377 . S
C1334 C1333 1.373 . S
C1335 C1319 1.377 . S
C1335 C1333 1.389 . S
C1335 C1336 1.524 . S
C1336 C1335 1.524 . S
C1336 C1337 1.397 . S
C1336 C1341 1.363 . S
C1337 H1308 0.950 . S
C1337 C1336 1.397 . S
C1337 C1338 1.334 . S
C1338 H1309 0.950 . S
C1338 C1337 1.334 . S
C1338 C1339 1.287 . S
C1339 C1338 1.287 . S
C1339 C1340 1.524 . S
C1339 H1342 0.999 . S
C1340 H1310 0.950 . S
C1340 C1339 1.524 . S
C1340 C1341 1.415 . S
C1341 H1311 0.950 . S
C1341 C1336 1.363 . S
C1341 C1340 1.415 . S
H1342 C1339 0.999 . S
H1343 C1324 0.913 . S
H1344 C1362 0.951 . S
H1345 C1364 0.951 . S
H1346 C1366 0.950 . S
H1347 C1367 0.950 . S
H1348 C1369 0.950 . S
H1349 C1372 0.950 . S
H1350 C1373 0.950 . S
H1351 C1375 0.950 . S
H1352 C1376 0.950 . S
H1353 C1377 0.951 . S
H1354 C1379 0.964 . S
H1355 C1381 0.950 . S
H1356 C1382 0.950 . S
H1357 C1384 0.950 . S
H1358 C1387 0.950 . S
H1359 C1388 0.950 . S
H1360 C1390 0.950 . S
H1361 C1391 0.950 . S
C1362 H1344 0.951 . S
C1362 C1363 1.366 . S
C1362 C1364 1.388 . S
C1363 C1362 1.366 . S
C1363 C1367 1.385 1_655 S
C1364 H1345 0.951 . S
C1364 C1362 1.388 . S
C1364 C1365 1.366 . S
C1365 C1364 1.366 . S
C1365 C1366 1.414 1_655 S
C1365 C1368 1.499 . S
C1366 H1346 0.950 . S
C1366 C1365 1.414 1_455 S
C1366 C1367 1.374 . S
C1367 H1347 0.950 . S
C1367 C1363 1.385 1_455 S
C1367 C1366 1.374 . S
C1368 C1365 1.499 . S
C1368 C1369 1.373 1_655 S
C1368 C1370 1.389 . S
C1369 H1348 0.950 . S
C1369 C1368 1.373 1_455 S
C1369 C1385 1.377 . S
C1370 C1368 1.389 . S
C1370 C1371 1.524 . S
C1370 C1384 1.377 . S
C1371 C1370 1.524 . S
C1371 C1372 1.397 . S
C1371 C1376 1.363 . S
C1372 H1349 0.950 . S
C1372 C1371 1.397 . S
C1372 C1373 1.334 . S
C1373 H1350 0.950 . S
C1373 C1372 1.334 . S
C1373 C1374 1.287 . S
C1374 C1373 1.287 . S
C1374 C1375 1.524 . S
C1374 H1393 0.913 . S
C1375 H1351 0.950 . S
C1375 C1374 1.524 . S
C1375 C1376 1.415 . S
C1376 H1352 0.950 . S
C1376 C1371 1.363 . S
C1376 C1375 1.415 . S
C1377 H1353 0.951 . S
C1377 C1378 1.366 . S
C1377 C1379 1.368 1_545 S
C1378 C1377 1.366 . S
C1378 C1382 1.385 1_455 S
C1379 H1354 0.964 . S
C1379 C1377 1.368 1_565 S
C1379 C1380 1.373 . S
C1380 C1379 1.373 . S
C1380 C1381 1.414 1_465 S
C1380 C1383 1.499 . S
C1381 H1355 0.950 . S
C1381 C1380 1.414 1_645 S
C1381 C1382 1.374 . S
C1382 H1356 0.950 . S
C1382 C1378 1.385 1_655 S
C1382 C1381 1.374 . S
C1383 C1380 1.499 . S
C1383 C1384 1.373 1_455 S
C1383 C1385 1.389 . S
C1384 H1357 0.950 . S
C1384 C1370 1.377 . S
C1384 C1383 1.373 1_655 S
C1385 C1369 1.377 . S
C1385 C1383 1.389 . S
C1385 C1386 1.524 . S
C1386 C1385 1.524 . S
C1386 C1387 1.397 . S
C1386 C1391 1.363 . S
C1387 H1358 0.950 . S
C1387 C1386 1.397 . S
C1387 C1388 1.334 . S
C1388 H1359 0.950 . S
C1388 C1387 1.334 . S
C1388 C1389 1.287 . S
C1389 C1388 1.287 . S
C1389 C1390 1.524 . S
C1389 H1392 0.999 . S
C1390 H1360 0.950 . S
C1390 C1389 1.524 . S
C1390 C1391 1.415 . S
C1391 H1361 0.950 . S
C1391 C1386 1.363 . S
C1391 C1390 1.415 . S
H1392 C1389 0.999 . S
H1393 C1374 0.913 . S
H1394 C1412 0.951 . S
H1395 C1414 0.951 1_545 S
H1396 C1416 0.950 . S
H1397 C1417 0.950 . S
H1398 C1419 0.950 . S
H1399 C1422 0.950 . S
H1400 C1423 0.950 . S
H1401 C1425 0.950 . S
H1402 C1426 0.950 . S
H1403 C1427 0.951 . S
H1404 C1429 0.951 1_565 S
H1405 C1431 0.950 . S
H1406 C1432 0.950 . S
H1407 C1434 0.950 . S
H1408 C1437 0.950 . S
H1409 C1438 0.950 . S
H1410 C1440 0.950 . S
H1411 C1441 0.950 . S
C1412 H1394 0.951 . S
C1412 C1413 1.366 . S
C1412 C1414 1.388 . S
C1413 C1412 1.366 . S
C1413 C1417 1.385 . S
C1414 H1395 0.951 1_565 S
C1414 C1412 1.388 . S
C1414 C1415 1.366 . S
C1415 C1414 1.366 . S
C1415 C1416 1.414 . S
C1415 C1418 1.499 . S
C1416 H1396 0.950 . S
C1416 C1415 1.414 . S
C1416 C1417 1.374 . S
C1417 H1397 0.950 . S
C1417 C1413 1.385 . S
C1417 C1416 1.374 . S
C1418 C1415 1.499 . S
C1418 C1419 1.373 1_565 S
C1418 C1420 1.389 . S
C1419 H1398 0.950 . S
C1419 C1418 1.373 1_545 S
C1419 C1435 1.377 . S
C1420 C1418 1.389 . S
C1420 C1421 1.524 . S
C1420 C1434 1.377 . S
C1421 C1420 1.524 . S
C1421 C1422 1.397 . S
C1421 C1426 1.363 . S
C1422 H1399 0.950 . S
C1422 C1421 1.397 . S
C1422 C1423 1.334 . S
C1423 H1400 0.950 . S
C1423 C1422 1.334 . S
C1423 C1424 1.287 . S
C1424 C1423 1.287 . S
C1424 C1425 1.524 . S
C1424 H1443 0.913 . S
C1425 H1401 0.950 . S
C1425 C1424 1.524 . S
C1425 C1426 1.415 . S
C1426 H1402 0.950 . S
C1426 C1421 1.363 . S
C1426 C1425 1.415 . S
C1427 H1403 0.951 . S
C1427 C1428 1.366 . S
C1427 C1429 1.388 . S
C1428 C1427 1.366 . S
C1428 C1432 1.385 . S
C1429 H1404 0.951 1_545 S
C1429 C1427 1.388 . S
C1429 C1430 1.366 . S
C1430 C1429 1.366 . S
C1430 C1431 1.414 . S
C1430 C1433 1.499 . S
C1431 H1405 0.950 . S
C1431 C1430 1.414 . S
C1431 C1432 1.374 . S
C1432 H1406 0.950 . S
C1432 C1428 1.385 . S
C1432 C1431 1.374 . S
C1433 C1430 1.499 . S
C1433 C1434 1.373 1_545 S
C1433 C1435 1.389 . S
C1434 H1407 0.950 . S
C1434 C1420 1.377 . S
C1434 C1433 1.373 1_565 S
C1435 C1419 1.377 . S
C1435 C1433 1.389 . S
C1435 C1436 1.524 . S
C1436 C1435 1.524 . S
C1436 C1437 1.397 . S
C1436 C1441 1.363 . S
C1437 H1408 0.950 . S
C1437 C1436 1.397 . S
C1437 C1438 1.334 . S
C1438 H1409 0.950 . S
C1438 C1437 1.334 . S
C1438 C1439 1.287 . S
C1439 C1438 1.287 . S
C1439 C1440 1.524 . S
C1439 H1442 0.999 . S
C1440 H1410 0.950 . S
C1440 C1439 1.524 . S
C1440 C1441 1.415 . S
C1441 H1411 0.950 . S
C1441 C1436 1.363 . S
C1441 C1440 1.415 . S
H1442 C1439 0.999 . S
H1443 C1424 0.913 . S
H1444 C1462 0.951 . S
H1445 C1464 0.951 . S
H1446 C1466 0.950 . S
H1447 C1467 0.950 . S
H1448 C1469 0.950 . S
H1449 C1472 0.950 . S
H1450 C1473 0.950 . S
H1451 C1475 0.950 . S
H1452 C1476 0.950 . S
H1453 C1477 0.951 . S
H1454 C1479 0.951 . S
H1455 C1481 0.950 . S
H1456 C1482 0.950 . S
H1457 C1484 0.950 . S
H1458 C1487 0.950 . S
H1459 C1488 0.950 . S
H1460 C1490 0.950 . S
H1461 C1491 0.950 . S
C1462 H1444 0.951 . S
C1462 C1463 1.366 . S
C1462 C1464 1.388 . S
C1463 C1462 1.366 . S
C1463 C1467 1.385 . S
C1464 H1445 0.951 . S
C1464 C1462 1.388 . S
C1464 C1465 1.366 . S
C1465 C1464 1.366 . S
C1465 C1466 1.414 . S
C1465 C1468 1.499 . S
C1466 H1446 0.950 . S
C1466 C1465 1.414 . S
C1466 C1467 1.374 . S
C1467 H1447 0.950 . S
C1467 C1463 1.385 . S
C1467 C1466 1.374 . S
C1468 C1465 1.499 . S
C1468 C1469 1.373 . S
C1468 C1470 1.389 . S
C1469 H1448 0.950 . S
C1469 C1468 1.373 . S
C1469 C1485 1.377 . S
C1470 C1468 1.389 . S
C1470 C1471 1.524 . S
C1470 C1484 1.377 . S
C1471 C1470 1.524 . S
C1471 C1472 1.397 . S
C1471 C1476 1.363 . S
C1472 H1449 0.950 . S
C1472 C1471 1.397 . S
C1472 C1473 1.334 . S
C1473 H1450 0.950 . S
C1473 C1472 1.334 . S
C1473 C1474 1.287 . S
C1474 C1473 1.287 . S
C1474 C1475 1.524 . S
C1474 H1493 0.913 . S
C1475 H1451 0.950 . S
C1475 C1474 1.524 . S
C1475 C1476 1.415 . S
C1476 H1452 0.950 . S
C1476 C1471 1.363 . S
C1476 C1475 1.415 . S
C1477 H1453 0.951 . S
C1477 C1478 1.366 . S
C1477 C1479 1.388 . S
C1478 C1477 1.366 . S
C1478 C1482 1.385 . S
C1479 H1454 0.951 . S
C1479 C1477 1.388 . S
C1479 C1480 1.366 . S
C1480 C1479 1.366 . S
C1480 C1481 1.414 . S
C1480 C1483 1.499 . S
C1481 H1455 0.950 . S
C1481 C1480 1.414 . S
C1481 C1482 1.374 . S
C1482 H1456 0.950 . S
C1482 C1478 1.385 . S
C1482 C1481 1.374 . S
C1483 C1480 1.499 . S
C1483 C1484 1.373 . S
C1483 C1485 1.389 . S
C1484 H1457 0.950 . S
C1484 C1470 1.377 . S
C1484 C1483 1.373 . S
C1485 C1469 1.377 . S
C1485 C1483 1.389 . S
C1485 C1486 1.524 . S
C1486 C1485 1.524 . S
C1486 C1487 1.397 . S
C1486 C1491 1.363 . S
C1487 H1458 0.950 . S
C1487 C1486 1.397 . S
C1487 C1488 1.334 . S
C1488 H1459 0.950 . S
C1488 C1487 1.334 . S
C1488 C1489 1.287 . S
C1489 C1488 1.287 . S
C1489 C1490 1.524 . S
C1489 H1492 0.999 . S
C1490 H1460 0.950 . S
C1490 C1489 1.524 . S
C1490 C1491 1.415 . S
C1491 H1461 0.950 . S
C1491 C1486 1.363 . S
C1491 C1490 1.415 . S
H1492 C1489 0.999 . S
H1493 C1474 0.913 . S
H1494 C1512 0.951 . S
H1495 C1514 0.951 . S
H1496 C1516 0.950 . S
H1497 C1517 0.950 . S
H1498 C1519 0.950 . S
H1499 C1522 0.950 . S
H1500 C1523 0.950 . S
H1501 C1525 0.950 . S
H1502 C1526 0.950 . S
H1503 C1527 0.951 . S
H1504 C1529 0.951 . S
H1505 C1531 0.950 . S
H1506 C1532 0.950 . S
H1507 C1534 0.950 . S
H1508 C1537 0.950 . S
H1509 C1538 0.950 . S
H1510 C1540 0.950 . S
H1511 C1541 0.950 . S
C1512 H1494 0.951 . S
C1512 C1513 1.366 . S
C1512 C1514 1.388 . S
C1513 C1512 1.366 . S
C1513 C1517 1.385 . S
C1514 H1495 0.951 . S
C1514 C1512 1.388 . S
C1514 C1515 1.366 . S
C1515 C1514 1.366 . S
C1515 C1516 1.414 . S
C1515 C1518 1.499 . S
C1516 H1496 0.950 . S
C1516 C1515 1.414 . S
C1516 C1517 1.374 . S
C1517 H1497 0.950 . S
C1517 C1513 1.385 . S
C1517 C1516 1.374 . S
C1518 C1515 1.499 . S
C1518 C1519 1.373 . S
C1518 C1520 1.389 . S
C1519 H1498 0.950 . S
C1519 C1518 1.373 . S
C1519 C1535 1.377 . S
C1520 C1518 1.389 . S
C1520 C1521 1.524 . S
C1520 C1534 1.377 . S
C1521 C1520 1.524 . S
C1521 C1522 1.397 . S
C1521 C1526 1.363 . S
C1522 H1499 0.950 . S
C1522 C1521 1.397 . S
C1522 C1523 1.334 . S
C1523 H1500 0.950 . S
C1523 C1522 1.334 . S
C1523 C1524 1.287 . S
C1524 C1523 1.287 . S
C1524 C1525 1.524 . S
C1524 H1543 0.913 . S
C1525 H1501 0.950 . S
C1525 C1524 1.524 . S
C1525 C1526 1.415 . S
C1526 H1502 0.950 . S
C1526 C1521 1.363 . S
C1526 C1525 1.415 . S
C1527 H1503 0.951 . S
C1527 C1528 1.366 . S
C1527 C1529 1.388 1_455 S
C1528 C1527 1.366 . S
C1528 C1532 1.385 . S
C1529 H1504 0.951 . S
C1529 C1527 1.388 1_655 S
C1529 C1530 1.366 . S
C1530 C1529 1.366 . S
C1530 C1531 1.414 1_655 S
C1530 C1533 1.499 . S
C1531 H1505 0.950 . S
C1531 C1530 1.414 1_455 S
C1531 C1532 1.374 . S
C1532 H1506 0.950 . S
C1532 C1528 1.385 . S
C1532 C1531 1.374 . S
C1533 C1530 1.499 . S
C1533 C1534 1.373 . S
C1533 C1535 1.389 . S
C1534 H1507 0.950 . S
C1534 C1520 1.377 . S
C1534 C1533 1.373 . S
C1535 C1519 1.377 . S
C1535 C1533 1.389 . S
C1535 C1536 1.524 . S
C1536 C1535 1.524 . S
C1536 C1537 1.397 . S
C1536 C1541 1.363 . S
C1537 H1508 0.950 . S
C1537 C1536 1.397 . S
C1537 C1538 1.334 . S
C1538 H1509 0.950 . S
C1538 C1537 1.334 . S
C1538 C1539 1.287 . S
C1539 C1538 1.287 . S
C1539 C1540 1.524 . S
C1539 H1542 0.999 . S
C1540 H1510 0.950 . S
C1540 C1539 1.524 . S
C1540 C1541 1.415 . S
C1541 H1511 0.950 . S
C1541 C1536 1.363 . S
C1541 C1540 1.415 . S
H1542 C1539 0.999 . S
H1543 C1524 0.913 . S
H1544 C1562 0.951 . S
H1545 C1564 0.951 . S
H1546 C1566 0.950 . S
H1547 C1567 0.950 . S
H1548 C1569 0.950 . S
H1549 C1572 0.950 . S
H1550 C1573 0.950 . S
H1551 C1575 0.950 . S
H1552 C1576 0.950 . S
H1553 C1577 0.951 . S
H1554 C1579 0.951 . S
H1555 C1581 0.950 . S
H1556 C1582 0.950 . S
H1557 C1584 0.950 . S
H1558 C1587 0.950 . S
H1559 C1588 0.950 . S
H1560 C1590 0.950 . S
H1561 C1591 0.950 . S
C1562 H1544 0.951 . S
C1562 C1563 1.366 . S
C1562 C1564 1.388 . S
C1563 C1562 1.366 . S
C1563 C1567 1.385 1_655 S
C1564 H1545 0.951 . S
C1564 C1562 1.388 . S
C1564 C1565 1.366 . S
C1565 C1564 1.366 . S
C1565 C1566 1.414 1_655 S
C1565 C1568 1.499 . S
C1566 H1546 0.950 . S
C1566 C1565 1.414 1_455 S
C1566 C1567 1.374 . S
C1567 H1547 0.950 . S
C1567 C1563 1.385 1_455 S
C1567 C1566 1.374 . S
C1568 C1565 1.499 . S
C1568 C1569 1.373 1_655 S
C1568 C1570 1.389 . S
C1569 H1548 0.950 . S
C1569 C1568 1.373 1_455 S
C1569 C1585 1.377 . S
C1570 C1568 1.389 . S
C1570 C1571 1.524 . S
C1570 C1584 1.377 . S
C1571 C1570 1.524 . S
C1571 C1572 1.397 1_655 S
C1571 C1576 1.363 . S
C1572 H1549 0.950 . S
C1572 C1571 1.397 1_455 S
C1572 C1573 1.334 . S
C1573 H1550 0.950 . S
C1573 C1572 1.334 . S
C1573 C1574 1.287 1_455 S
C1574 C1573 1.287 1_655 S
C1574 C1575 1.524 . S
C1574 H1593 0.913 . S
C1575 H1551 0.950 . S
C1575 C1574 1.524 . S
C1575 C1576 1.415 . S
C1576 H1552 0.950 . S
C1576 C1571 1.363 . S
C1576 C1575 1.415 . S
C1577 H1553 0.951 . S
C1577 C1578 1.366 . S
C1577 C1579 1.388 . S
C1578 C1577 1.366 . S
C1578 C1582 1.385 1_455 S
C1579 H1554 0.951 . S
C1579 C1577 1.388 . S
C1579 C1580 1.366 . S
C1580 C1579 1.366 . S
C1580 C1581 1.414 1_455 S
C1580 C1583 1.499 . S
C1581 H1555 0.950 . S
C1581 C1580 1.414 1_655 S
C1581 C1582 1.374 . S
C1582 H1556 0.950 . S
C1582 C1578 1.385 1_655 S
C1582 C1581 1.374 . S
C1583 C1580 1.499 . S
C1583 C1584 1.373 1_455 S
C1583 C1585 1.389 . S
C1584 H1557 0.950 . S
C1584 C1570 1.377 . S
C1584 C1583 1.373 1_655 S
C1585 C1569 1.377 . S
C1585 C1583 1.389 . S
C1585 C1586 1.524 . S
C1586 C1585 1.524 . S
C1586 C1587 1.397 1_455 S
C1586 C1591 1.363 . S
C1587 H1558 0.950 . S
C1587 C1586 1.397 1_655 S
C1587 C1588 1.334 . S
C1588 H1559 0.950 . S
C1588 C1587 1.334 . S
C1588 C1589 1.287 1_655 S
C1589 C1588 1.287 1_455 S
C1589 C1590 1.524 . S
C1589 H1592 0.999 . S
C1590 H1560 0.950 . S
C1590 C1589 1.524 . S
C1590 C1591 1.415 . S
C1591 H1561 0.950 . S
C1591 C1586 1.363 . S
C1591 C1590 1.415 . S
H1592 C1589 0.999 . S
H1593 C1574 0.913 . S
H1594 C1612 0.951 1_545 S
H1595 C1614 0.951 . S
H1596 C1616 0.950 . S
H1597 C1617 0.950 . S
H1598 C1619 0.951 . S
H1599 C1622 0.950 . S
H1600 C1623 0.950 . S
H1601 C1625 0.950 1_545 S
H1602 C1626 0.950 . S
H1603 C1627 0.951 1_565 S
H1604 C1629 0.951 . S
H1605 C1631 0.961 . S
H1606 C1632 0.950 . S
H1607 C1634 0.950 . S
H1608 C1637 0.950 . S
H1609 C1638 0.950 . S
H1610 C1640 0.950 1_565 S
H1611 C1641 0.973 . S
C1612 H1594 0.951 1_565 S
C1612 C1613 1.366 . S
C1612 C1614 1.388 1_565 S
C1613 C1612 1.366 . S
C1613 C1617 1.385 . S
C1614 H1595 0.951 . S
C1614 C1612 1.388 1_545 S
C1614 C1615 1.366 1_545 S
C1615 C1614 1.366 1_565 S
C1615 C1616 1.414 . S
C1615 C1618 1.499 . S
C1616 H1596 0.950 . S
C1616 C1615 1.414 . S
C1616 C1617 1.374 . S
C1617 H1597 0.950 . S
C1617 C1613 1.385 . S
C1617 C1616 1.374 . S
C1618 C1615 1.499 . S
C1618 C1619 1.375 . S
C1618 C1620 1.389 . S
C1619 H1598 0.951 . S
C1619 C1618 1.375 . S
C1619 C1635 1.374 1_565 S
C1620 C1618 1.389 . S
C1620 C1621 1.524 . S
C1620 C1634 1.377 1_565 S
C1621 C1620 1.524 . S
C1621 C1622 1.397 . S
C1621 C1626 1.363 1_565 S
C1622 H1599 0.950 . S
C1622 C1621 1.397 . S
C1622 C1623 1.334 . S
C1623 H1600 0.950 . S
C1623 C1622 1.334 . S
C1623 C1624 1.287 . S
C1624 C1623 1.287 . S
C1624 C1625 1.524 . S
C1624 H1643 0.913 . S
C1625 H1601 0.950 1_565 S
C1625 C1624 1.524 . S
C1625 C1626 1.415 1_565 S
C1626 H1602 0.950 . S
C1626 C1621 1.363 1_545 S
C1626 C1625 1.415 1_545 S
C1627 H1603 0.951 1_545 S
C1627 C1628 1.366 . S
C1627 C1629 1.388 1_545 S
C1628 C1627 1.366 . S
C1628 C1632 1.385 . S
C1629 H1604 0.951 . S
C1629 C1627 1.388 1_565 S
C1629 C1630 1.366 1_465 S
C1630 C1629 1.366 1_645 S
C1630 C1631 1.420 . S
C1630 C1633 1.499 . S
C1631 H1605 0.961 . S
C1631 C1630 1.420 . S
C1631 C1632 1.357 1_655 S
C1632 H1606 0.950 . S
C1632 C1628 1.385 . S
C1632 C1631 1.357 1_455 S
C1633 C1630 1.499 . S
C1633 C1634 1.373 . S
C1633 C1635 1.389 . S
C1634 H1607 0.950 . S
C1634 C1620 1.377 1_545 S
C1634 C1633 1.373 . S
C1635 C1619 1.374 1_545 S
C1635 C1633 1.389 . S
C1635 C1636 1.524 . S
C1636 C1635 1.524 . S
C1636 C1637 1.397 . S
C1636 C1641 1.348 1_545 S
C1637 H1608 0.950 . S
C1637 C1636 1.397 . S
C1637 C1638 1.334 . S
C1638 H1609 0.950 . S
C1638 C1637 1.334 . S
C1638 C1639 1.287 . S
C1639 C1638 1.287 . S
C1639 C1640 1.524 . S
C1639 H1642 0.999 . S
C1640 H1610 0.950 1_545 S
C1640 C1639 1.524 . S
C1640 C1641 1.407 1_545 S
C1641 H1611 0.973 . S
C1641 C1636 1.348 1_565 S
C1641 C1640 1.407 1_565 S
H1642 C1639 0.999 . S
H1643 C1624 0.913 . S
H1644 C1662 0.951 . S
H1645 C1664 0.951 . S
H1646 C1666 0.950 . S
H1647 C1667 0.950 . S
H1648 C1669 0.950 . S
H1649 C1672 0.950 . S
H1650 C1673 0.950 . S
H1651 C1675 0.950 . S
H1652 C1676 0.950 . S
H1653 C1677 0.951 . S
H1654 C1679 0.951 . S
H1655 C1681 0.950 . S
H1656 C1682 0.950 . S
H1657 C1684 0.950 . S
H1658 C1687 0.950 . S
H1659 C1688 0.950 . S
H1660 C1690 0.950 . S
H1661 C1691 0.950 . S
C1662 H1644 0.951 . S
C1662 C1663 1.366 . S
C1662 C1664 1.388 . S
C1663 C1662 1.366 . S
C1663 C1667 1.385 . S
C1664 H1645 0.951 . S
C1664 C1662 1.388 . S
C1664 C1665 1.366 . S
C1665 C1664 1.366 . S
C1665 C1666 1.414 . S
C1665 C1668 1.499 . S
C1666 H1646 0.950 . S
C1666 C1665 1.414 . S
C1666 C1667 1.374 . S
C1667 H1647 0.950 . S
C1667 C1663 1.385 . S
C1667 C1666 1.374 . S
C1668 C1665 1.499 . S
C1668 C1669 1.373 . S
C1668 C1670 1.389 . S
C1669 H1648 0.950 . S
C1669 C1668 1.373 . S
C1669 C1685 1.377 . S
C1670 C1668 1.389 . S
C1670 C1671 1.524 . S
C1670 C1684 1.377 . S
C1671 C1670 1.524 . S
C1671 C1672 1.397 . S
C1671 C1676 1.363 . S
C1672 H1649 0.950 . S
C1672 C1671 1.397 . S
C1672 C1673 1.334 . S
C1673 H1650 0.950 . S
C1673 C1672 1.334 . S
C1673 C1674 1.287 . S
C1674 C1673 1.287 . S
C1674 C1675 1.524 . S
C1674 H1693 0.913 . S
C1675 H1651 0.950 . S
C1675 C1674 1.524 . S
C1675 C1676 1.415 . S
C1676 H1652 0.950 . S
C1676 C1671 1.363 . S
C1676 C1675 1.415 . S
C1677 H1653 0.951 . S
C1677 C1678 1.366 . S
C1677 C1679 1.388 1_545 S
C1678 C1677 1.366 . S
C1678 C1682 1.385 . S
C1679 H1654 0.951 . S
C1679 C1677 1.388 1_565 S
C1679 C1680 1.366 . S
C1680 C1679 1.366 . S
C1680 C1681 1.414 1_565 S
C1680 C1683 1.499 . S
C1681 H1655 0.950 . S
C1681 C1680 1.414 1_545 S
C1681 C1682 1.374 . S
C1682 H1656 0.950 . S
C1682 C1678 1.385 . S
C1682 C1681 1.374 . S
C1683 C1680 1.499 . S
C1683 C1684 1.373 . S
C1683 C1685 1.389 . S
C1684 H1657 0.950 . S
C1684 C1670 1.377 . S
C1684 C1683 1.373 . S
C1685 C1669 1.377 . S
C1685 C1683 1.389 . S
C1685 C1686 1.524 . S
C1686 C1685 1.524 . S
C1686 C1687 1.397 . S
C1686 C1691 1.363 . S
C1687 H1658 0.950 . S
C1687 C1686 1.397 . S
C1687 C1688 1.334 . S
C1688 H1659 0.950 . S
C1688 C1687 1.334 . S
C1688 C1689 1.287 . S
C1689 C1688 1.287 . S
C1689 C1690 1.524 . S
C1689 H1692 0.999 . S
C1690 H1660 0.950 . S
C1690 C1689 1.524 . S
C1690 C1691 1.415 . S
C1691 H1661 0.950 . S
C1691 C1686 1.363 . S
C1691 C1690 1.415 . S
H1692 C1689 0.999 . S
H1693 C1674 0.913 . S
H1694 C1712 0.951 . S
H1695 C1714 0.951 . S
H1696 C1716 0.950 . S
H1697 C1717 0.950 . S
H1698 C1719 0.950 . S
H1699 C1722 0.950 . S
H1700 C1723 0.950 . S
H1701 C1725 0.950 . S
H1702 C1726 0.950 . S
H1703 C1727 0.951 . S
H1704 C1729 0.951 . S
H1705 C1731 0.950 . S
H1706 C1732 0.950 . S
H1707 C1734 0.950 . S
H1708 C1737 0.950 . S
H1709 C1738 0.950 . S
H1710 C1740 0.950 . S
H1711 C1741 0.950 . S
C1712 H1694 0.951 . S
C1712 C1713 1.366 . S
C1712 C1714 1.388 . S
C1713 C1712 1.366 . S
C1713 C1717 1.385 . S
C1714 H1695 0.951 . S
C1714 C1712 1.388 . S
C1714 C1715 1.366 . S
C1715 C1714 1.366 . S
C1715 C1716 1.414 . S
C1715 C1718 1.499 . S
C1716 H1696 0.950 . S
C1716 C1715 1.414 . S
C1716 C1717 1.374 . S
C1717 H1697 0.950 . S
C1717 C1713 1.385 . S
C1717 C1716 1.374 . S
C1718 C1715 1.499 . S
C1718 C1719 1.373 . S
C1718 C1720 1.389 . S
C1719 H1698 0.950 . S
C1719 C1718 1.373 . S
C1719 C1735 1.377 . S
C1720 C1718 1.389 . S
C1720 C1721 1.524 . S
C1720 C1734 1.377 . S
C1721 C1720 1.524 . S
C1721 C1722 1.397 . S
C1721 C1726 1.363 . S
C1722 H1699 0.950 . S
C1722 C1721 1.397 . S
C1722 C1723 1.334 . S
C1723 H1700 0.950 . S
C1723 C1722 1.334 . S
C1723 C1724 1.287 . S
C1724 C1723 1.287 . S
C1724 C1725 1.524 . S
C1724 H1743 0.913 . S
C1725 H1701 0.950 . S
C1725 C1724 1.524 . S
C1725 C1726 1.415 . S
C1726 H1702 0.950 . S
C1726 C1721 1.363 . S
C1726 C1725 1.415 . S
C1727 H1703 0.951 . S
C1727 C1728 1.366 . S
C1727 C1729 1.388 . S
C1728 C1727 1.366 . S
C1728 C1732 1.385 . S
C1729 H1704 0.951 . S
C1729 C1727 1.388 . S
C1729 C1730 1.366 . S
C1730 C1729 1.366 . S
C1730 C1731 1.414 . S
C1730 C1733 1.499 . S
C1731 H1705 0.950 . S
C1731 C1730 1.414 . S
C1731 C1732 1.374 . S
C1732 H1706 0.950 . S
C1732 C1728 1.385 . S
C1732 C1731 1.374 . S
C1733 C1730 1.499 . S
C1733 C1734 1.373 . S
C1733 C1735 1.389 . S
C1734 H1707 0.950 . S
C1734 C1720 1.377 . S
C1734 C1733 1.373 . S
C1735 C1719 1.377 . S
C1735 C1733 1.389 . S
C1735 C1736 1.524 . S
C1736 C1735 1.524 . S
C1736 C1737 1.397 . S
C1736 C1741 1.363 . S
C1737 H1708 0.950 . S
C1737 C1736 1.397 . S
C1737 C1738 1.334 . S
C1738 H1709 0.950 . S
C1738 C1737 1.334 . S
C1738 C1739 1.287 . S
C1739 C1738 1.287 . S
C1739 C1740 1.524 . S
C1739 H1742 0.999 . S
C1740 H1710 0.950 . S
C1740 C1739 1.524 . S
C1740 C1741 1.415 . S
C1741 H1711 0.950 . S
C1741 C1736 1.363 . S
C1741 C1740 1.415 . S
H1742 C1739 0.999 . S
H1743 C1724 0.913 . S
H1744 C1762 0.951 . S
H1745 C1764 0.951 . S
H1746 C1766 0.950 . S
H1747 C1767 0.950 . S
H1748 C1769 0.950 . S
H1749 C1772 0.950 . S
H1750 C1773 0.950 . S
H1751 C1775 0.950 . S
H1752 C1776 0.950 . S
H1753 C1777 0.951 . S
H1754 C1779 0.951 . S
H1755 C1781 0.950 . S
H1756 C1782 0.950 . S
H1757 C1784 0.950 . S
H1758 C1787 0.950 . S
H1759 C1788 0.950 . S
H1760 C1790 0.950 . S
H1761 C1791 0.950 . S
C1762 H1744 0.951 . S
C1762 C1763 1.366 . S
C1762 C1764 1.388 . S
C1763 C1762 1.366 . S
C1763 C1767 1.385 . S
C1764 H1745 0.951 . S
C1764 C1762 1.388 . S
C1764 C1765 1.366 . S
C1765 C1764 1.366 . S
C1765 C1766 1.414 . S
C1765 C1768 1.499 . S
C1766 H1746 0.950 . S
C1766 C1765 1.414 . S
C1766 C1767 1.374 . S
C1767 H1747 0.950 . S
C1767 C1763 1.385 . S
C1767 C1766 1.374 . S
C1768 C1765 1.499 . S
C1768 C1769 1.373 . S
C1768 C1770 1.389 . S
C1769 H1748 0.950 . S
C1769 C1768 1.373 . S
C1769 C1785 1.377 . S
C1770 C1768 1.389 . S
C1770 C1771 1.524 . S
C1770 C1784 1.377 . S
C1771 C1770 1.524 . S
C1771 C1772 1.397 . S
C1771 C1776 1.363 . S
C1772 H1749 0.950 . S
C1772 C1771 1.397 . S
C1772 C1773 1.334 . S
C1773 H1750 0.950 . S
C1773 C1772 1.334 . S
C1773 C1774 1.287 . S
C1774 C1773 1.287 . S
C1774 C1775 1.524 . S
C1774 H1793 0.913 . S
C1775 H1751 0.950 . S
C1775 C1774 1.524 . S
C1775 C1776 1.415 . S
C1776 H1752 0.950 . S
C1776 C1771 1.363 . S
C1776 C1775 1.415 . S
C1777 H1753 0.951 . S
C1777 C1778 1.366 . S
C1777 C1779 1.388 . S
C1778 C1777 1.366 . S
C1778 C1782 1.385 . S
C1779 H1754 0.951 . S
C1779 C1777 1.388 . S
C1779 C1780 1.366 . S
C1780 C1779 1.366 . S
C1780 C1781 1.414 . S
C1780 C1783 1.499 . S
C1781 H1755 0.950 . S
C1781 C1780 1.414 . S
C1781 C1782 1.374 . S
C1782 H1756 0.950 . S
C1782 C1778 1.385 . S
C1782 C1781 1.374 . S
C1783 C1780 1.499 . S
C1783 C1784 1.373 . S
C1783 C1785 1.389 . S
C1784 H1757 0.950 . S
C1784 C1770 1.377 . S
C1784 C1783 1.373 . S
C1785 C1769 1.377 . S
C1785 C1783 1.389 . S
C1785 C1786 1.524 . S
C1786 C1785 1.524 . S
C1786 C1787 1.397 . S
C1786 C1791 1.363 . S
C1787 H1758 0.950 . S
C1787 C1786 1.397 . S
C1787 C1788 1.334 1_455 S
C1788 H1759 0.950 . S
C1788 C1787 1.334 1_655 S
C1788 C1789 1.287 1_655 S
C1789 C1788 1.287 1_455 S
C1789 C1790 1.524 . S
C1789 H1792 0.999 1_455 S
C1790 H1760 0.950 . S
C1790 C1789 1.524 . S
C1790 C1791 1.415 . S
C1791 H1761 0.950 . S
C1791 C1786 1.363 . S
C1791 C1790 1.415 . S
H1792 C1789 0.999 1_655 S
H1793 C1774 0.913 . S
H1794 C1812 0.951 . S
H1795 C1814 0.951 . S
H1796 C1816 0.950 . S
H1797 C1817 0.950 . S
H1798 C1819 0.950 . S
H1799 C1822 0.950 . S
H1800 C1823 0.950 . S
H1801 C1825 0.950 . S
H1802 C1826 0.950 . S
H1803 C1827 0.951 . S
H1804 C1829 0.951 . S
H1805 C1831 0.950 . S
H1806 C1832 0.950 . S
H1807 C1834 0.950 . S
H1808 C1837 0.950 . S
H1809 C1838 0.950 . S
H1810 C1840 0.950 1_565 S
H1811 C1841 0.950 . S
C1812 H1794 0.951 . S
C1812 C1813 1.366 . S
C1812 C1814 1.388 . S
C1813 C1812 1.366 . S
C1813 C1817 1.385 . S
C1814 H1795 0.951 . S
C1814 C1812 1.388 . S
C1814 C1815 1.366 . S
C1815 C1814 1.366 . S
C1815 C1816 1.414 . S
C1815 C1818 1.499 . S
C1816 H1796 0.950 . S
C1816 C1815 1.414 . S
C1816 C1817 1.374 . S
C1817 H1797 0.950 . S
C1817 C1813 1.385 . S
C1817 C1816 1.374 . S
C1818 C1815 1.499 . S
C1818 C1819 1.373 . S
C1818 C1820 1.389 . S
C1819 H1798 0.950 . S
C1819 C1818 1.373 . S
C1819 C1835 1.377 . S
C1820 C1818 1.389 . S
C1820 C1821 1.524 . S
C1820 C1834 1.377 . S
C1821 C1820 1.524 . S
C1821 C1822 1.397 . S
C1821 C1826 1.363 . S
C1822 H1799 0.950 . S
C1822 C1821 1.397 . S
C1822 C1823 1.334 . S
C1823 H1800 0.950 . S
C1823 C1822 1.334 . S
C1823 C1824 1.287 . S
C1824 C1823 1.287 . S
C1824 C1825 1.524 . S
C1824 H1843 0.913 . S
C1825 H1801 0.950 . S
C1825 C1824 1.524 . S
C1825 C1826 1.415 . S
C1826 H1802 0.950 . S
C1826 C1821 1.363 . S
C1826 C1825 1.415 . S
C1827 H1803 0.951 . S
C1827 C1828 1.366 . S
C1827 C1829 1.388 . S
C1828 C1827 1.366 . S
C1828 C1832 1.385 . S
C1829 H1804 0.951 . S
C1829 C1827 1.388 . S
C1829 C1830 1.366 . S
C1830 C1829 1.366 . S
C1830 C1831 1.414 . S
C1830 C1833 1.499 . S
C1831 H1805 0.950 . S
C1831 C1830 1.414 . S
C1831 C1832 1.374 . S
C1832 H1806 0.950 . S
C1832 C1828 1.385 . S
C1832 C1831 1.374 . S
C1833 C1830 1.499 . S
C1833 C1834 1.373 . S
C1833 C1835 1.389 . S
C1834 H1807 0.950 . S
C1834 C1820 1.377 . S
C1834 C1833 1.373 . S
C1835 C1819 1.377 . S
C1835 C1833 1.389 . S
C1835 C1836 1.524 . S
C1836 C1835 1.524 . S
C1836 C1837 1.397 . S
C1836 C1841 1.363 . S
C1837 H1808 0.950 . S
C1837 C1836 1.397 . S
C1837 C1838 1.334 . S
C1838 H1809 0.950 . S
C1838 C1837 1.334 . S
C1838 C1839 1.287 1_545 S
C1839 C1838 1.287 1_565 S
C1839 C1840 1.524 1_565 S
C1839 H1842 0.999 . S
C1840 H1810 0.950 1_545 S
C1840 C1839 1.524 1_545 S
C1840 C1841 1.415 . S
C1841 H1811 0.950 . S
C1841 C1836 1.363 . S
C1841 C1840 1.415 . S
H1842 C1839 0.999 . S
H1843 C1824 0.913 . S
H1844 C1862 0.951 . S
H1845 C1864 0.951 . S
H1846 C1866 0.950 . S
H1847 C1867 0.950 . S
H1848 C1869 0.950 . S
H1849 C1872 0.950 . S
H1850 C1873 0.950 1_565 S
H1851 C1875 0.950 . S
H1852 C1876 0.950 . S
H1853 C1877 0.951 . S
H1854 C1879 0.951 . S
H1855 C1881 0.950 . S
H1856 C1882 0.950 . S
H1857 C1884 0.950 . S
H1858 C1887 0.950 . S
H1859 C1888 0.950 . S
H1860 C1890 0.950 . S
H1861 C1891 0.950 . S
C1862 H1844 0.951 . S
C1862 C1863 1.366 . S
C1862 C1864 1.388 . S
C1863 C1862 1.366 . S
C1863 C1867 1.385 . S
C1864 H1845 0.951 . S
C1864 C1862 1.388 . S
C1864 C1865 1.366 . S
C1865 C1864 1.366 . S
C1865 C1866 1.414 . S
C1865 C1868 1.499 . S
C1866 H1846 0.950 . S
C1866 C1865 1.414 . S
C1866 C1867 1.374 . S
C1867 H1847 0.950 . S
C1867 C1863 1.385 . S
C1867 C1866 1.374 . S
C1868 C1865 1.499 . S
C1868 C1869 1.373 . S
C1868 C1870 1.389 . S
C1869 H1848 0.950 . S
C1869 C1868 1.373 . S
C1869 C1885 1.377 . S
C1870 C1868 1.389 . S
C1870 C1871 1.524 . S
C1870 C1884 1.377 . S
C1871 C1870 1.524 . S
C1871 C1872 1.397 . S
C1871 C1876 1.363 . S
C1872 H1849 0.950 . S
C1872 C1871 1.397 . S
C1872 C1873 1.334 . S
C1873 H1850 0.950 1_545 S
C1873 C1872 1.334 . S
C1873 C1874 1.287 . S
C1874 C1873 1.287 . S
C1874 C1875 1.524 . S
C1874 H1893 0.913 . S
C1875 H1851 0.950 . S
C1875 C1874 1.524 . S
C1875 C1876 1.415 . S
C1876 H1852 0.950 . S
C1876 C1871 1.363 . S
C1876 C1875 1.415 . S
C1877 H1853 0.951 . S
C1877 C1878 1.366 . S
C1877 C1879 1.388 . S
C1878 C1877 1.366 . S
C1878 C1882 1.385 . S
C1879 H1854 0.951 . S
C1879 C1877 1.388 . S
C1879 C1880 1.366 . S
C1880 C1879 1.366 . S
C1880 C1881 1.414 . S
C1880 C1883 1.499 . S
C1881 H1855 0.950 . S
C1881 C1880 1.414 . S
C1881 C1882 1.374 . S
C1882 H1856 0.950 . S
C1882 C1878 1.385 . S
C1882 C1881 1.374 . S
C1883 C1880 1.499 . S
C1883 C1884 1.373 . S
C1883 C1885 1.389 . S
C1884 H1857 0.950 . S
C1884 C1870 1.377 . S
C1884 C1883 1.373 . S
C1885 C1869 1.377 . S
C1885 C1883 1.389 . S
C1885 C1886 1.524 . S
C1886 C1885 1.524 . S
C1886 C1887 1.397 . S
C1886 C1891 1.363 . S
C1887 H1858 0.950 . S
C1887 C1886 1.397 . S
C1887 C1888 1.334 . S
C1888 H1859 0.950 . S
C1888 C1887 1.334 . S
C1888 C1889 1.287 . S
C1889 C1888 1.287 . S
C1889 C1890 1.524 . S
C1889 H1892 0.999 . S
C1890 H1860 0.950 . S
C1890 C1889 1.524 . S
C1890 C1891 1.415 . S
C1891 H1861 0.950 . S
C1891 C1886 1.363 . S
C1891 C1890 1.415 . S
H1892 C1889 0.999 . S
H1893 C1874 0.913 . S
H1894 C1912 0.951 . S
H1895 C1914 0.951 . S
H1896 C1916 0.950 . S
H1897 C1917 0.950 . S
H1898 C1919 0.950 . S
H1899 C1922 0.950 . S
H1900 C1923 0.950 . S
H1901 C1925 0.950 . S
H1902 C1926 0.950 . S
H1903 C1927 0.951 . S
H1904 C1929 0.951 . S
H1905 C1931 0.950 . S
H1906 C1932 0.950 . S
H1907 C1934 0.950 . S
H1908 C1937 0.950 . S
H1909 C1938 0.950 . S
H1910 C1940 0.950 . S
H1911 C1941 0.950 . S
C1912 H1894 0.951 . S
C1912 C1913 1.366 . S
C1912 C1914 1.388 . S
C1913 C1912 1.366 . S
C1913 C1917 1.385 . S
C1914 H1895 0.951 . S
C1914 C1912 1.388 . S
C1914 C1915 1.366 . S
C1915 C1914 1.366 . S
C1915 C1916 1.414 . S
C1915 C1918 1.499 . S
C1916 H1896 0.950 . S
C1916 C1915 1.414 . S
C1916 C1917 1.374 . S
C1917 H1897 0.950 . S
C1917 C1913 1.385 . S
C1917 C1916 1.374 . S
C1918 C1915 1.499 . S
C1918 C1919 1.373 . S
C1918 C1920 1.389 . S
C1919 H1898 0.950 . S
C1919 C1918 1.373 . S
C1919 C1935 1.377 . S
C1920 C1918 1.389 . S
C1920 C1921 1.524 . S
C1920 C1934 1.377 . S
C1921 C1920 1.524 . S
C1921 C1922 1.397 . S
C1921 C1926 1.363 . S
C1922 H1899 0.950 . S
C1922 C1921 1.397 . S
C1922 C1923 1.334 . S
C1923 H1900 0.950 . S
C1923 C1922 1.334 . S
C1923 C1924 1.287 . S
C1924 C1923 1.287 . S
C1924 C1925 1.524 . S
C1924 H1943 0.913 . S
C1925 H1901 0.950 . S
C1925 C1924 1.524 . S
C1925 C1926 1.415 . S
C1926 H1902 0.950 . S
C1926 C1921 1.363 . S
C1926 C1925 1.415 . S
C1927 H1903 0.951 . S
C1927 C1928 1.366 . S
C1927 C1929 1.388 . S
C1928 C1927 1.366 . S
C1928 C1932 1.385 . S
C1929 H1904 0.951 . S
C1929 C1927 1.388 . S
C1929 C1930 1.366 . S
C1930 C1929 1.366 . S
C1930 C1931 1.414 . S
C1930 C1933 1.499 . S
C1931 H1905 0.950 . S
C1931 C1930 1.414 . S
C1931 C1932 1.374 . S
C1932 H1906 0.950 . S
C1932 C1928 1.385 . S
C1932 C1931 1.374 . S
C1933 C1930 1.499 . S
C1933 C1934 1.373 . S
C1933 C1935 1.389 . S
C1934 H1907 0.950 . S
C1934 C1920 1.377 . S
C1934 C1933 1.373 . S
C1935 C1919 1.377 . S
C1935 C1933 1.389 . S
C1935 C1936 1.524 . S
C1936 C1935 1.524 . S
C1936 C1937 1.397 . S
C1936 C1941 1.363 . S
C1937 H1908 0.950 . S
C1937 C1936 1.397 . S
C1937 C1938 1.334 . S
C1938 H1909 0.950 . S
C1938 C1937 1.334 . S
C1938 C1939 1.287 . S
C1939 C1938 1.287 . S
C1939 C1940 1.524 . S
C1939 H1942 0.999 . S
C1940 H1910 0.950 . S
C1940 C1939 1.524 . S
C1940 C1941 1.415 . S
C1941 H1911 0.950 . S
C1941 C1936 1.363 . S
C1941 C1940 1.415 . S
H1942 C1939 0.999 . S
H1943 C1924 0.913 . S
H1944 C1962 0.951 . S
H1945 C1964 0.951 . S
H1946 C1966 0.950 . S
H1947 C1967 0.950 . S
H1948 C1969 0.950 . S
H1949 C1972 0.950 . S
H1950 C1973 0.950 . S
H1951 C1975 0.950 . S
H1952 C1976 0.950 . S
H1953 C1977 0.951 . S
H1954 C1979 0.951 . S
H1955 C1981 0.950 . S
H1956 C1982 0.950 . S
H1957 C1984 0.950 . S
H1958 C1987 0.950 . S
H1959 C1988 0.950 . S
H1960 C1990 0.950 . S
H1961 C1991 0.950 . S
C1962 H1944 0.951 . S
C1962 C1963 1.366 . S
C1962 C1964 1.388 . S
C1963 C1962 1.366 . S
C1963 C1967 1.385 . S
C1964 H1945 0.951 . S
C1964 C1962 1.388 . S
C1964 C1965 1.366 . S
C1965 C1964 1.366 . S
C1965 C1966 1.414 . S
C1965 C1968 1.499 . S
C1966 H1946 0.950 . S
C1966 C1965 1.414 . S
C1966 C1967 1.374 . S
C1967 H1947 0.950 . S
C1967 C1963 1.385 . S
C1967 C1966 1.374 . S
C1968 C1965 1.499 . S
C1968 C1969 1.373 . S
C1968 C1970 1.389 . S
C1969 H1948 0.950 . S
C1969 C1968 1.373 . S
C1969 C1985 1.377 . S
C1970 C1968 1.389 . S
C1970 C1971 1.524 . S
C1970 C1984 1.377 . S
C1971 C1970 1.524 . S
C1971 C1972 1.397 . S
C1971 C1976 1.363 . S
C1972 H1949 0.950 . S
C1972 C1971 1.397 . S
C1972 C1973 1.334 . S
C1973 H1950 0.950 . S
C1973 C1972 1.334 . S
C1973 C1974 1.287 . S
C1974 C1973 1.287 . S
C1974 C1975 1.524 . S
C1974 H1993 0.913 . S
C1975 H1951 0.950 . S
C1975 C1974 1.524 . S
C1975 C1976 1.415 . S
C1976 H1952 0.950 . S
C1976 C1971 1.363 . S
C1976 C1975 1.415 . S
C1977 H1953 0.951 . S
C1977 C1978 1.366 . S
C1977 C1979 1.388 . S
C1978 C1977 1.366 . S
C1978 C1982 1.385 . S
C1979 H1954 0.951 . S
C1979 C1977 1.388 . S
C1979 C1980 1.366 . S
C1980 C1979 1.366 . S
C1980 C1981 1.414 . S
C1980 C1983 1.499 . S
C1981 H1955 0.950 . S
C1981 C1980 1.414 . S
C1981 C1982 1.374 . S
C1982 H1956 0.950 . S
C1982 C1978 1.385 . S
C1982 C1981 1.374 . S
C1983 C1980 1.499 . S
C1983 C1984 1.373 . S
C1983 C1985 1.389 . S
C1984 H1957 0.950 . S
C1984 C1970 1.377 . S
C1984 C1983 1.373 . S
C1985 C1969 1.377 . S
C1985 C1983 1.389 . S
C1985 C1986 1.524 . S
C1986 C1985 1.524 . S
C1986 C1987 1.397 . S
C1986 C1991 1.363 . S
C1987 H1958 0.950 . S
C1987 C1986 1.397 . S
C1987 C1988 1.334 . S
C1988 H1959 0.950 . S
C1988 C1987 1.334 . S
C1988 C1989 1.287 . S
C1989 C1988 1.287 . S
C1989 C1990 1.524 . S
C1989 H1992 0.999 . S
C1990 H1960 0.950 . S
C1990 C1989 1.524 . S
C1990 C1991 1.415 . S
C1991 H1961 0.950 . S
C1991 C1986 1.363 . S
C1991 C1990 1.415 . S
H1992 C1989 0.999 . S
H1993 C1974 0.913 . S
H1994 C2012 0.951 . S
H1995 C2014 0.951 . S
H1996 C2016 0.950 . S
H1997 C2017 0.950 . S
H1998 C2019 0.950 . S
H1999 C2022 0.950 . S
H2000 C2023 0.950 . S
H2001 C2025 0.950 1_545 S
H2002 C2026 0.950 . S
H2003 C2027 0.951 . S
H2004 C2029 0.951 . S
H2005 C2031 0.950 . S
H2006 C2032 0.950 . S
H2007 C2034 0.950 . S
H2008 C2037 0.950 . S
H2009 C2038 0.950 . S
H2010 C2040 0.950 . S
H2011 C2041 0.950 . S
C2012 H1994 0.951 . S
C2012 C2013 1.366 . S
C2012 C2014 1.388 . S
C2013 C2012 1.366 . S
C2013 C2017 1.385 . S
C2014 H1995 0.951 . S
C2014 C2012 1.388 . S
C2014 C2015 1.366 . S
C2015 C2014 1.366 . S
C2015 C2016 1.414 . S
C2015 C2018 1.499 . S
C2016 H1996 0.950 . S
C2016 C2015 1.414 . S
C2016 C2017 1.374 . S
C2017 H1997 0.950 . S
C2017 C2013 1.385 . S
C2017 C2016 1.374 . S
C2018 C2015 1.499 . S
C2018 C2019 1.373 . S
C2018 C2020 1.389 . S
C2019 H1998 0.950 . S
C2019 C2018 1.373 . S
C2019 C2035 1.377 . S
C2020 C2018 1.389 . S
C2020 C2021 1.524 . S
C2020 C2034 1.377 . S
C2021 C2020 1.524 . S
C2021 C2022 1.397 . S
C2021 C2026 1.363 . S
C2022 H1999 0.950 . S
C2022 C2021 1.397 . S
C2022 C2023 1.334 1_655 S
C2023 H2000 0.950 . S
C2023 C2022 1.334 1_455 S
C2023 C2024 1.287 . S
C2024 C2023 1.287 . S
C2024 C2025 1.524 1_455 S
C2024 H2043 0.913 . S
C2025 H2001 0.950 1_565 S
C2025 C2024 1.524 1_655 S
C2025 C2026 1.415 . S
C2026 H2002 0.950 . S
C2026 C2021 1.363 . S
C2026 C2025 1.415 . S
C2027 H2003 0.951 . S
C2027 C2028 1.366 . S
C2027 C2029 1.388 . S
C2028 C2027 1.366 . S
C2028 C2032 1.385 . S
C2029 H2004 0.951 . S
C2029 C2027 1.388 . S
C2029 C2030 1.366 . S
C2030 C2029 1.366 . S
C2030 C2031 1.414 . S
C2030 C2033 1.499 . S
C2031 H2005 0.950 . S
C2031 C2030 1.414 . S
C2031 C2032 1.374 . S
C2032 H2006 0.950 . S
C2032 C2028 1.385 . S
C2032 C2031 1.374 . S
C2033 C2030 1.499 . S
C2033 C2034 1.373 . S
C2033 C2035 1.389 . S
C2034 H2007 0.950 . S
C2034 C2020 1.377 . S
C2034 C2033 1.373 . S
C2035 C2019 1.377 . S
C2035 C2033 1.389 . S
C2035 C2036 1.524 . S
C2036 C2035 1.524 . S
C2036 C2037 1.397 . S
C2036 C2041 1.363 . S
C2037 H2008 0.950 . S
C2037 C2036 1.397 . S
C2037 C2038 1.334 . S
C2038 H2009 0.950 . S
C2038 C2037 1.334 . S
C2038 C2039 1.287 . S
C2039 C2038 1.287 . S
C2039 C2040 1.524 . S
C2039 H2042 0.999 . S
C2040 H2010 0.950 . S
C2040 C2039 1.524 . S
C2040 C2041 1.415 . S
C2041 H2011 0.950 . S
C2041 C2036 1.363 . S
C2041 C2040 1.415 . S
H2042 C2039 0.999 . S
H2043 C2024 0.913 . S
H2044 C2062 0.951 . S
H2045 C2064 0.951 . S
H2046 C2066 0.950 . S
H2047 C2067 0.950 . S
H2048 C2069 0.950 . S
H2049 C2072 0.950 . S
H2050 C2073 0.950 . S
H2051 C2075 0.950 . S
H2052 C2076 0.950 . S
H2053 C2077 0.951 . S
H2054 C2079 0.951 . S
H2055 C2081 0.950 . S
H2056 C2082 0.950 . S
H2057 C2084 0.950 . S
H2058 C2087 0.950 . S
H2059 C2088 0.950 . S
H2060 C2090 0.950 1_545 S
H2061 C2091 0.950 . S
C2062 H2044 0.951 . S
C2062 C2063 1.366 . S
C2062 C2064 1.388 . S
C2063 C2062 1.366 . S
C2063 C2067 1.385 . S
C2064 H2045 0.951 . S
C2064 C2062 1.388 . S
C2064 C2065 1.366 . S
C2065 C2064 1.366 . S
C2065 C2066 1.414 . S
C2065 C2068 1.499 . S
C2066 H2046 0.950 . S
C2066 C2065 1.414 . S
C2066 C2067 1.374 . S
C2067 H2047 0.950 . S
C2067 C2063 1.385 . S
C2067 C2066 1.374 . S
C2068 C2065 1.499 . S
C2068 C2069 1.373 . S
C2068 C2070 1.389 . S
C2069 H2048 0.950 . S
C2069 C2068 1.373 . S
C2069 C2085 1.377 . S
C2070 C2068 1.389 . S
C2070 C2071 1.524 . S
C2070 C2084 1.377 . S
C2071 C2070 1.524 . S
C2071 C2072 1.397 . S
C2071 C2076 1.363 . S
C2072 H2049 0.950 . S
C2072 C2071 1.397 . S
C2072 C2073 1.334 . S
C2073 H2050 0.950 . S
C2073 C2072 1.334 . S
C2073 C2074 1.287 . S
C2074 C2073 1.287 . S
C2074 C2075 1.524 . S
C2074 H2093 0.913 . S
C2075 H2051 0.950 . S
C2075 C2074 1.524 . S
C2075 C2076 1.415 . S
C2076 H2052 0.950 . S
C2076 C2071 1.363 . S
C2076 C2075 1.415 . S
C2077 H2053 0.951 . S
C2077 C2078 1.366 . S
C2077 C2079 1.388 . S
C2078 C2077 1.366 . S
C2078 C2082 1.385 . S
C2079 H2054 0.951 . S
C2079 C2077 1.388 . S
C2079 C2080 1.366 . S
C2080 C2079 1.366 . S
C2080 C2081 1.414 . S
C2080 C2083 1.499 . S
C2081 H2055 0.950 . S
C2081 C2080 1.414 . S
C2081 C2082 1.374 . S
C2082 H2056 0.950 . S
C2082 C2078 1.385 . S
C2082 C2081 1.374 . S
C2083 C2080 1.499 . S
C2083 C2084 1.373 . S
C2083 C2085 1.389 . S
C2084 H2057 0.950 . S
C2084 C2070 1.377 . S
C2084 C2083 1.373 . S
C2085 C2069 1.377 . S
C2085 C2083 1.389 . S
C2085 C2086 1.524 . S
C2086 C2085 1.524 . S
C2086 C2087 1.397 . S
C2086 C2091 1.363 . S
C2087 H2058 0.950 . S
C2087 C2086 1.397 . S
C2087 C2088 1.334 . S
C2088 H2059 0.950 . S
C2088 C2087 1.334 . S
C2088 C2089 1.287 . S
C2089 C2088 1.287 . S
C2089 C2090 1.524 . S
C2089 H2092 0.999 . S
C2090 H2060 0.950 1_565 S
C2090 C2089 1.524 . S
C2090 C2091 1.415 . S
C2091 H2061 0.950 . S
C2091 C2086 1.363 . S
C2091 C2090 1.415 . S
H2092 C2089 0.999 . S
H2093 C2074 0.913 . S
H2094 C2112 0.951 . S
H2095 C2114 0.951 . S
H2096 C2116 0.950 . S
H2097 C2117 0.950 . S
H2098 C2119 0.950 . S
H2099 C2122 0.950 . S
H2100 C2123 0.950 . S
H2101 C2125 0.950 . S
H2102 C2126 0.950 . S
H2103 C2127 0.951 . S
H2104 C2129 0.951 . S
H2105 C2131 0.950 . S
H2106 C2132 0.950 . S
H2107 C2134 0.950 . S
H2108 C2137 0.950 . S
H2109 C2138 0.950 . S
H2110 C2140 0.950 . S
H2111 C2141 0.950 . S
C2112 H2094 0.951 . S
C2112 C2113 1.366 . S
C2112 C2114 1.388 . S
C2113 C2112 1.366 . S
C2113 C2117 1.385 . S
C2114 H2095 0.951 . S
C2114 C2112 1.388 . S
C2114 C2115 1.366 . S
C2115 C2114 1.366 . S
C2115 C2116 1.414 . S
C2115 C2118 1.499 . S
C2116 H2096 0.950 . S
C2116 C2115 1.414 . S
C2116 C2117 1.374 . S
C2117 H2097 0.950 . S
C2117 C2113 1.385 . S
C2117 C2116 1.374 . S
C2118 C2115 1.499 . S
C2118 C2119 1.373 . S
C2118 C2120 1.389 . S
C2119 H2098 0.950 . S
C2119 C2118 1.373 . S
C2119 C2135 1.377 . S
C2120 C2118 1.389 . S
C2120 C2121 1.524 . S
C2120 C2134 1.377 . S
C2121 C2120 1.524 . S
C2121 C2122 1.397 . S
C2121 C2126 1.363 . S
C2122 H2099 0.950 . S
C2122 C2121 1.397 . S
C2122 C2123 1.334 . S
C2123 H2100 0.950 . S
C2123 C2122 1.334 . S
C2123 C2124 1.287 . S
C2124 C2123 1.287 . S
C2124 C2125 1.524 . S
C2124 H2143 0.913 . S
C2125 H2101 0.950 . S
C2125 C2124 1.524 . S
C2125 C2126 1.415 . S
C2126 H2102 0.950 . S
C2126 C2121 1.363 . S
C2126 C2125 1.415 . S
C2127 H2103 0.951 . S
C2127 C2128 1.366 . S
C2127 C2129 1.388 . S
C2128 C2127 1.366 . S
C2128 C2132 1.385 . S
C2129 H2104 0.951 . S
C2129 C2127 1.388 . S
C2129 C2130 1.366 . S
C2130 C2129 1.366 . S
C2130 C2131 1.414 . S
C2130 C2133 1.499 . S
C2131 H2105 0.950 . S
C2131 C2130 1.414 . S
C2131 C2132 1.374 . S
C2132 H2106 0.950 . S
C2132 C2128 1.385 . S
C2132 C2131 1.374 . S
C2133 C2130 1.499 . S
C2133 C2134 1.373 . S
C2133 C2135 1.389 . S
C2134 H2107 0.950 . S
C2134 C2120 1.377 . S
C2134 C2133 1.373 . S
C2135 C2119 1.377 . S
C2135 C2133 1.389 . S
C2135 C2136 1.524 . S
C2136 C2135 1.524 . S
C2136 C2137 1.397 . S
C2136 C2141 1.363 . S
C2137 H2108 0.950 . S
C2137 C2136 1.397 . S
C2137 C2138 1.334 . S
C2138 H2109 0.950 . S
C2138 C2137 1.334 . S
C2138 C2139 1.287 . S
C2139 C2138 1.287 . S
C2139 C2140 1.524 . S
C2139 H2142 0.999 . S
C2140 H2110 0.950 . S
C2140 C2139 1.524 . S
C2140 C2141 1.415 . S
C2141 H2111 0.950 . S
C2141 C2136 1.363 . S
C2141 C2140 1.415 . S
H2142 C2139 0.999 . S
H2143 C2124 0.913 . S
H2144 C2162 0.951 . S
H2145 C2164 0.951 . S
H2146 C2166 0.950 . S
H2147 C2167 0.950 . S
H2148 C2169 0.950 . S
H2149 C2172 0.950 . S
H2150 C2173 0.950 . S
H2151 C2175 0.950 . S
H2152 C2176 0.950 . S
H2153 C2177 0.951 . S
H2154 C2179 0.951 . S
H2155 C2181 0.950 . S
H2156 C2182 0.950 . S
H2157 C2184 0.950 . S
H2158 C2187 0.950 . S
H2159 C2188 0.950 . S
H2160 C2190 0.950 . S
H2161 C2191 0.950 . S
C2162 H2144 0.951 . S
C2162 C2163 1.366 . S
C2162 C2164 1.388 . S
C2163 C2162 1.366 . S
C2163 C2167 1.385 . S
C2164 H2145 0.951 . S
C2164 C2162 1.388 . S
C2164 C2165 1.366 . S
C2165 C2164 1.366 . S
C2165 C2166 1.414 . S
C2165 C2168 1.499 . S
C2166 H2146 0.950 . S
C2166 C2165 1.414 . S
C2166 C2167 1.374 . S
C2167 H2147 0.950 . S
C2167 C2163 1.385 . S
C2167 C2166 1.374 . S
C2168 C2165 1.499 . S
C2168 C2169 1.373 . S
C2168 C2170 1.389 . S
C2169 H2148 0.950 . S
C2169 C2168 1.373 . S
C2169 C2185 1.377 . S
C2170 C2168 1.389 . S
C2170 C2171 1.524 . S
C2170 C2184 1.377 . S
C2171 C2170 1.524 . S
C2171 C2172 1.397 . S
C2171 C2176 1.363 . S
C2172 H2149 0.950 . S
C2172 C2171 1.397 . S
C2172 C2173 1.334 . S
C2173 H2150 0.950 . S
C2173 C2172 1.334 . S
C2173 C2174 1.287 . S
C2174 C2173 1.287 . S
C2174 C2175 1.524 . S
C2174 H2193 0.913 . S
C2175 H2151 0.950 . S
C2175 C2174 1.524 . S
C2175 C2176 1.415 . S
C2176 H2152 0.950 . S
C2176 C2171 1.363 . S
C2176 C2175 1.415 . S
C2177 H2153 0.951 . S
C2177 C2178 1.366 . S
C2177 C2179 1.388 . S
C2178 C2177 1.366 . S
C2178 C2182 1.385 . S
C2179 H2154 0.951 . S
C2179 C2177 1.388 . S
C2179 C2180 1.366 . S
C2180 C2179 1.366 . S
C2180 C2181 1.414 . S
C2180 C2183 1.499 . S
C2181 H2155 0.950 . S
C2181 C2180 1.414 . S
C2181 C2182 1.374 . S
C2182 H2156 0.950 . S
C2182 C2178 1.385 . S
C2182 C2181 1.374 . S
C2183 C2180 1.499 . S
C2183 C2184 1.373 . S
C2183 C2185 1.389 . S
C2184 H2157 0.950 . S
C2184 C2170 1.377 . S
C2184 C2183 1.373 . S
C2185 C2169 1.377 . S
C2185 C2183 1.389 . S
C2185 C2186 1.524 . S
C2186 C2185 1.524 . S
C2186 C2187 1.397 . S
C2186 C2191 1.363 . S
C2187 H2158 0.950 . S
C2187 C2186 1.397 . S
C2187 C2188 1.334 . S
C2188 H2159 0.950 . S
C2188 C2187 1.334 . S
C2188 C2189 1.287 . S
C2189 C2188 1.287 . S
C2189 C2190 1.524 . S
C2189 H2192 0.999 . S
C2190 H2160 0.950 . S
C2190 C2189 1.524 . S
C2190 C2191 1.415 . S
C2191 H2161 0.950 . S
C2191 C2186 1.363 . S
C2191 C2190 1.415 . S
H2192 C2189 0.999 . S
H2193 C2174 0.913 . S
H2194 C2212 0.951 . S
H2195 C2214 0.951 . S
H2196 C2216 0.950 . S
H2197 C2217 0.950 . S
H2198 C2219 0.950 . S
H2199 C2222 0.950 . S
H2200 C2223 0.950 . S
H2201 C2225 0.950 . S
H2202 C2226 0.950 . S
H2203 C2227 0.951 . S
H2204 C2229 0.951 . S
H2205 C2231 0.950 . S
H2206 C2232 0.950 . S
H2207 C2234 0.950 . S
H2208 C2237 0.950 . S
H2209 C2238 0.950 . S
H2210 C2240 0.950 . S
H2211 C2241 0.950 . S
C2212 H2194 0.951 . S
C2212 C2213 1.366 . S
C2212 C2214 1.388 . S
C2213 C2212 1.366 . S
C2213 C2217 1.385 . S
C2214 H2195 0.951 . S
C2214 C2212 1.388 . S
C2214 C2215 1.366 . S
C2215 C2214 1.366 . S
C2215 C2216 1.414 . S
C2215 C2218 1.499 . S
C2216 H2196 0.950 . S
C2216 C2215 1.414 . S
C2216 C2217 1.374 . S
C2217 H2197 0.950 . S
C2217 C2213 1.385 . S
C2217 C2216 1.374 . S
C2218 C2215 1.499 . S
C2218 C2219 1.373 . S
C2218 C2220 1.389 . S
C2219 H2198 0.950 . S
C2219 C2218 1.373 . S
C2219 C2235 1.377 . S
C2220 C2218 1.389 . S
C2220 C2221 1.524 . S
C2220 C2234 1.377 . S
C2221 C2220 1.524 . S
C2221 C2222 1.397 . S
C2221 C2226 1.363 . S
C2222 H2199 0.950 . S
C2222 C2221 1.397 . S
C2222 C2223 1.334 . S
C2223 H2200 0.950 . S
C2223 C2222 1.334 . S
C2223 C2224 1.287 . S
C2224 C2223 1.287 . S
C2224 C2225 1.524 . S
C2224 H2243 0.913 . S
C2225 H2201 0.950 . S
C2225 C2224 1.524 . S
C2225 C2226 1.415 . S
C2226 H2202 0.950 . S
C2226 C2221 1.363 . S
C2226 C2225 1.415 . S
C2227 H2203 0.951 . S
C2227 C2228 1.366 . S
C2227 C2229 1.388 . S
C2228 C2227 1.366 . S
C2228 C2232 1.385 . S
C2229 H2204 0.951 . S
C2229 C2227 1.388 . S
C2229 C2230 1.366 . S
C2230 C2229 1.366 . S
C2230 C2231 1.414 . S
C2230 C2233 1.499 . S
C2231 H2205 0.950 . S
C2231 C2230 1.414 . S
C2231 C2232 1.374 . S
C2232 H2206 0.950 . S
C2232 C2228 1.385 . S
C2232 C2231 1.374 . S
C2233 C2230 1.499 . S
C2233 C2234 1.373 . S
C2233 C2235 1.389 . S
C2234 H2207 0.950 . S
C2234 C2220 1.377 . S
C2234 C2233 1.373 . S
C2235 C2219 1.377 . S
C2235 C2233 1.389 . S
C2235 C2236 1.524 . S
C2236 C2235 1.524 . S
C2236 C2237 1.397 . S
C2236 C2241 1.363 . S
C2237 H2208 0.950 . S
C2237 C2236 1.397 . S
C2237 C2238 1.334 . S
C2238 H2209 0.950 . S
C2238 C2237 1.334 . S
C2238 C2239 1.287 . S
C2239 C2238 1.287 . S
C2239 C2240 1.524 . S
C2239 H2242 0.999 . S
C2240 H2210 0.950 . S
C2240 C2239 1.524 . S
C2240 C2241 1.415 . S
C2241 H2211 0.950 . S
C2241 C2236 1.363 . S
C2241 C2240 1.415 . S
H2242 C2239 0.999 . S
H2243 C2224 0.913 . S
H2244 C2262 0.951 . S
H2245 C2264 0.951 . S
H2246 C2266 0.950 . S
H2247 C2267 0.950 . S
H2248 C2269 0.950 . S
H2249 C2272 0.950 . S
H2250 C2273 0.950 . S
H2251 C2275 0.950 . S
H2252 C2276 0.950 . S
H2253 C2277 0.951 . S
H2254 C2279 0.951 . S
H2255 C2281 0.950 . S
H2256 C2282 0.950 . S
H2257 C2284 0.950 . S
H2258 C2287 0.950 . S
H2259 C2288 0.950 . S
H2260 C2290 0.950 . S
H2261 C2291 0.950 . S
C2262 H2244 0.951 . S
C2262 C2263 1.366 . S
C2262 C2264 1.388 . S
C2263 C2262 1.366 . S
C2263 C2267 1.385 . S
C2264 H2245 0.951 . S
C2264 C2262 1.388 . S
C2264 C2265 1.366 . S
C2265 C2264 1.366 . S
C2265 C2266 1.414 . S
C2265 C2268 1.499 . S
C2266 H2246 0.950 . S
C2266 C2265 1.414 . S
C2266 C2267 1.374 . S
C2267 H2247 0.950 . S
C2267 C2263 1.385 . S
C2267 C2266 1.374 . S
C2268 C2265 1.499 . S
C2268 C2269 1.373 . S
C2268 C2270 1.389 . S
C2269 H2248 0.950 . S
C2269 C2268 1.373 . S
C2269 C2285 1.377 . S
C2270 C2268 1.389 . S
C2270 C2271 1.524 . S
C2270 C2284 1.377 . S
C2271 C2270 1.524 . S
C2271 C2272 1.397 . S
C2271 C2276 1.363 . S
C2272 H2249 0.950 . S
C2272 C2271 1.397 . S
C2272 C2273 1.334 . S
C2273 H2250 0.950 . S
C2273 C2272 1.334 . S
C2273 C2274 1.287 . S
C2274 C2273 1.287 . S
C2274 C2275 1.524 . S
C2274 H2293 0.913 . S
C2275 H2251 0.950 . S
C2275 C2274 1.524 . S
C2275 C2276 1.415 . S
C2276 H2252 0.950 . S
C2276 C2271 1.363 . S
C2276 C2275 1.415 . S
C2277 H2253 0.951 . S
C2277 C2278 1.366 . S
C2277 C2279 1.388 . S
C2278 C2277 1.366 . S
C2278 C2282 1.385 . S
C2279 H2254 0.951 . S
C2279 C2277 1.388 . S
C2279 C2280 1.366 . S
C2280 C2279 1.366 . S
C2280 C2281 1.414 . S
C2280 C2283 1.499 . S
C2281 H2255 0.950 . S
C2281 C2280 1.414 . S
C2281 C2282 1.374 . S
C2282 H2256 0.950 . S
C2282 C2278 1.385 . S
C2282 C2281 1.374 . S
C2283 C2280 1.499 . S
C2283 C2284 1.373 . S
C2283 C2285 1.389 . S
C2284 H2257 0.950 . S
C2284 C2270 1.377 . S
C2284 C2283 1.373 . S
C2285 C2269 1.377 . S
C2285 C2283 1.389 . S
C2285 C2286 1.524 . S
C2286 C2285 1.524 . S
C2286 C2287 1.397 . S
C2286 C2291 1.363 . S
C2287 H2258 0.950 . S
C2287 C2286 1.397 . S
C2287 C2288 1.334 . S
C2288 H2259 0.950 . S
C2288 C2287 1.334 . S
C2288 C2289 1.287 . S
C2289 C2288 1.287 . S
C2289 C2290 1.524 . S
C2289 H2292 0.999 . S
C2290 H2260 0.950 . S
C2290 C2289 1.524 . S
C2290 C2291 1.415 . S
C2291 H2261 0.950 . S
C2291 C2286 1.363 . S
C2291 C2290 1.415 . S
H2292 C2289 0.999 . S
H2293 C2274 0.913 . S
H2294 C2312 0.951 . S
H2295 C2314 0.951 . S
H2296 C2316 0.950 . S
H2297 C2317 0.950 . S
H2298 C2319 0.950 . S
H2299 C2322 0.950 . S
H2300 C2323 0.950 . S
H2301 C2325 0.950 . S
H2302 C2326 0.950 . S
H2303 C2327 0.951 . S
H2304 C2329 0.951 . S
H2305 C2331 0.950 . S
H2306 C2332 0.950 . S
H2307 C2334 0.950 . S
H2308 C2337 0.950 . S
H2309 C2338 0.950 . S
H2310 C2340 0.950 . S
H2311 C2341 0.950 . S
C2312 H2294 0.951 . S
C2312 C2313 1.366 . S
C2312 C2314 1.388 . S
C2313 C2312 1.366 . S
C2313 C2317 1.385 . S
C2314 H2295 0.951 . S
C2314 C2312 1.388 . S
C2314 C2315 1.366 . S
C2315 C2314 1.366 . S
C2315 C2316 1.414 . S
C2315 C2318 1.499 . S
C2316 H2296 0.950 . S
C2316 C2315 1.414 . S
C2316 C2317 1.374 . S
C2317 H2297 0.950 . S
C2317 C2313 1.385 . S
C2317 C2316 1.374 . S
C2318 C2315 1.499 . S
C2318 C2319 1.373 . S
C2318 C2320 1.389 . S
C2319 H2298 0.950 . S
C2319 C2318 1.373 . S
C2319 C2335 1.377 . S
C2320 C2318 1.389 . S
C2320 C2321 1.524 . S
C2320 C2334 1.377 . S
C2321 C2320 1.524 . S
C2321 C2322 1.397 . S
C2321 C2326 1.363 . S
C2322 H2299 0.950 . S
C2322 C2321 1.397 . S
C2322 C2323 1.334 . S
C2323 H2300 0.950 . S
C2323 C2322 1.334 . S
C2323 C2324 1.287 . S
C2324 C2323 1.287 . S
C2324 C2325 1.524 . S
C2324 H2343 0.913 . S
C2325 H2301 0.950 . S
C2325 C2324 1.524 . S
C2325 C2326 1.415 . S
C2326 H2302 0.950 . S
C2326 C2321 1.363 . S
C2326 C2325 1.415 . S
C2327 H2303 0.951 . S
C2327 C2328 1.366 . S
C2327 C2329 1.388 . S
C2328 C2327 1.366 . S
C2328 C2332 1.385 . S
C2329 H2304 0.951 . S
C2329 C2327 1.388 . S
C2329 C2330 1.366 . S
C2330 C2329 1.366 . S
C2330 C2331 1.414 . S
C2330 C2333 1.499 . S
C2331 H2305 0.950 . S
C2331 C2330 1.414 . S
C2331 C2332 1.374 . S
C2332 H2306 0.950 . S
C2332 C2328 1.385 . S
C2332 C2331 1.374 . S
C2333 C2330 1.499 . S
C2333 C2334 1.373 . S
C2333 C2335 1.389 . S
C2334 H2307 0.950 . S
C2334 C2320 1.377 . S
C2334 C2333 1.373 . S
C2335 C2319 1.377 . S
C2335 C2333 1.389 . S
C2335 C2336 1.524 . S
C2336 C2335 1.524 . S
C2336 C2337 1.397 . S
C2336 C2341 1.363 . S
C2337 H2308 0.950 . S
C2337 C2336 1.397 . S
C2337 C2338 1.334 . S
C2338 H2309 0.950 . S
C2338 C2337 1.334 . S
C2338 C2339 1.287 . S
C2339 C2338 1.287 . S
C2339 C2340 1.524 . S
C2339 H2342 0.999 . S
C2340 H2310 0.950 . S
C2340 C2339 1.524 . S
C2340 C2341 1.415 . S
C2341 H2311 0.950 . S
C2341 C2336 1.363 . S
C2341 C2340 1.415 . S
H2342 C2339 0.999 . S
H2343 C2324 0.913 . S
H2344 C2362 0.951 . S
H2345 C2364 0.951 . S
H2346 C2366 0.950 . S
H2347 C2367 0.950 . S
H2348 C2369 0.950 . S
H2349 C2372 0.950 . S
H2350 C2373 0.950 . S
H2351 C2375 0.950 . S
H2352 C2376 0.950 . S
H2353 C2377 0.951 . S
H2354 C2379 0.951 . S
H2355 C2381 0.950 . S
H2356 C2382 0.950 . S
H2357 C2384 0.950 . S
H2358 C2387 0.950 . S
H2359 C2388 0.950 . S
H2360 C2390 0.950 . S
H2361 C2391 0.950 . S
C2362 H2344 0.951 . S
C2362 C2363 1.366 . S
C2362 C2364 1.388 . S
C2363 C2362 1.366 . S
C2363 C2367 1.385 . S
C2364 H2345 0.951 . S
C2364 C2362 1.388 . S
C2364 C2365 1.366 . S
C2365 C2364 1.366 . S
C2365 C2366 1.414 . S
C2365 C2368 1.499 . S
C2366 H2346 0.950 . S
C2366 C2365 1.414 . S
C2366 C2367 1.374 . S
C2367 H2347 0.950 . S
C2367 C2363 1.385 . S
C2367 C2366 1.374 . S
C2368 C2365 1.499 . S
C2368 C2369 1.373 . S
C2368 C2370 1.389 . S
C2369 H2348 0.950 . S
C2369 C2368 1.373 . S
C2369 C2385 1.377 . S
C2370 C2368 1.389 . S
C2370 C2371 1.524 . S
C2370 C2384 1.377 . S
C2371 C2370 1.524 . S
C2371 C2372 1.397 . S
C2371 C2376 1.363 . S
C2372 H2349 0.950 . S
C2372 C2371 1.397 . S
C2372 C2373 1.334 . S
C2373 H2350 0.950 . S
C2373 C2372 1.334 . S
C2373 C2374 1.287 . S
C2374 C2373 1.287 . S
C2374 C2375 1.524 . S
C2374 H2393 0.913 . S
C2375 H2351 0.950 . S
C2375 C2374 1.524 . S
C2375 C2376 1.415 . S
C2376 H2352 0.950 . S
C2376 C2371 1.363 . S
C2376 C2375 1.415 . S
C2377 H2353 0.951 . S
C2377 C2378 1.366 . S
C2377 C2379 1.388 . S
C2378 C2377 1.366 . S
C2378 C2382 1.385 . S
C2379 H2354 0.951 . S
C2379 C2377 1.388 . S
C2379 C2380 1.366 . S
C2380 C2379 1.366 . S
C2380 C2381 1.414 . S
C2380 C2383 1.499 . S
C2381 H2355 0.950 . S
C2381 C2380 1.414 . S
C2381 C2382 1.374 . S
C2382 H2356 0.950 . S
C2382 C2378 1.385 . S
C2382 C2381 1.374 . S
C2383 C2380 1.499 . S
C2383 C2384 1.373 . S
C2383 C2385 1.389 . S
C2384 H2357 0.950 . S
C2384 C2370 1.377 . S
C2384 C2383 1.373 . S
C2385 C2369 1.377 . S
C2385 C2383 1.389 . S
C2385 C2386 1.524 . S
C2386 C2385 1.524 . S
C2386 C2387 1.397 . S
C2386 C2391 1.363 . S
C2387 H2358 0.950 . S
C2387 C2386 1.397 . S
C2387 C2388 1.334 . S
C2388 H2359 0.950 . S
C2388 C2387 1.334 . S
C2388 C2389 1.287 . S
C2389 C2388 1.287 . S
C2389 C2390 1.524 . S
C2389 H2392 0.999 . S
C2390 H2360 0.950 . S
C2390 C2389 1.524 . S
C2390 C2391 1.415 . S
C2391 H2361 0.950 . S
C2391 C2386 1.363 . S
C2391 C2390 1.415 . S
H2392 C2389 0.999 . S
H2393 C2374 0.913 . S
H2394 C2412 0.951 . S
H2395 C2414 0.951 . S
H2396 C2416 0.950 . S
H2397 C2417 0.950 . S
H2398 C2419 0.950 . S
H2399 C2422 0.950 . S
H2400 C2423 0.950 . S
H2401 C2425 0.950 . S
H2402 C2426 0.950 . S
H2403 C2427 0.951 . S
H2404 C2429 0.951 . S
H2405 C2431 0.950 . S
H2406 C2432 0.950 . S
H2407 C2434 0.950 . S
H2408 C2437 0.950 . S
H2409 C2438 0.950 . S
H2410 C2440 0.950 . S
H2411 C2441 0.950 . S
C2412 H2394 0.951 . S
C2412 C2413 1.366 . S
C2412 C2414 1.388 . S
C2413 C2412 1.366 . S
C2413 C2417 1.385 . S
C2414 H2395 0.951 . S
C2414 C2412 1.388 . S
C2414 C2415 1.366 . S
C2415 C2414 1.366 . S
C2415 C2416 1.414 . S
C2415 C2418 1.499 . S
C2416 H2396 0.950 . S
C2416 C2415 1.414 . S
C2416 C2417 1.374 . S
C2417 H2397 0.950 . S
C2417 C2413 1.385 . S
C2417 C2416 1.374 . S
C2418 C2415 1.499 . S
C2418 C2419 1.373 . S
C2418 C2420 1.389 . S
C2419 H2398 0.950 . S
C2419 C2418 1.373 . S
C2419 C2435 1.377 . S
C2420 C2418 1.389 . S
C2420 C2421 1.524 . S
C2420 C2434 1.377 . S
C2421 C2420 1.524 . S
C2421 C2422 1.397 . S
C2421 C2426 1.363 . S
C2422 H2399 0.950 . S
C2422 C2421 1.397 . S
C2422 C2423 1.334 . S
C2423 H2400 0.950 . S
C2423 C2422 1.334 . S
C2423 C2424 1.287 . S
C2424 C2423 1.287 . S
C2424 C2425 1.524 . S
C2424 H2443 0.913 . S
C2425 H2401 0.950 . S
C2425 C2424 1.524 . S
C2425 C2426 1.415 . S
C2426 H2402 0.950 . S
C2426 C2421 1.363 . S
C2426 C2425 1.415 . S
C2427 H2403 0.951 . S
C2427 C2428 1.366 . S
C2427 C2429 1.388 . S
C2428 C2427 1.366 . S
C2428 C2432 1.385 . S
C2429 H2404 0.951 . S
C2429 C2427 1.388 . S
C2429 C2430 1.366 . S
C2430 C2429 1.366 . S
C2430 C2431 1.414 . S
C2430 C2433 1.499 . S
C2431 H2405 0.950 . S
C2431 C2430 1.414 . S
C2431 C2432 1.374 . S
C2432 H2406 0.950 . S
C2432 C2428 1.385 . S
C2432 C2431 1.374 . S
C2433 C2430 1.499 . S
C2433 C2434 1.373 . S
C2433 C2435 1.389 . S
C2434 H2407 0.950 . S
C2434 C2420 1.377 . S
C2434 C2433 1.373 . S
C2435 C2419 1.377 . S
C2435 C2433 1.389 . S
C2435 C2436 1.524 . S
C2436 C2435 1.524 . S
C2436 C2437 1.397 . S
C2436 C2441 1.363 . S
C2437 H2408 0.950 . S
C2437 C2436 1.397 . S
C2437 C2438 1.334 . S
C2438 H2409 0.950 . S
C2438 C2437 1.334 . S
C2438 C2439 1.287 . S
C2439 C2438 1.287 . S
C2439 C2440 1.524 . S
C2439 H2442 0.999 . S
C2440 H2410 0.950 . S
C2440 C2439 1.524 . S
C2440 C2441 1.415 . S
C2441 H2411 0.950 . S
C2441 C2436 1.363 . S
C2441 C2440 1.415 . S
H2442 C2439 0.999 . S
H2443 C2424 0.913 . S
H2444 C2462 0.951 . S
H2445 C2464 0.951 . S
H2446 C2466 0.950 . S
H2447 C2467 0.950 . S
H2448 C2469 0.950 . S
H2449 C2472 0.950 . S
H2450 C2473 0.950 . S
H2451 C2475 0.950 . S
H2452 C2476 0.950 . S
H2453 C2477 0.951 . S
H2454 C2479 0.951 . S
H2455 C2481 0.950 . S
H2456 C2482 0.950 . S
H2457 C2484 0.950 . S
H2458 C2487 0.950 . S
H2459 C2488 0.950 . S
H2460 C2490 0.950 . S
H2461 C2491 0.950 . S
C2462 H2444 0.951 . S
C2462 C2463 1.366 . S
C2462 C2464 1.388 . S
C2463 C2462 1.366 . S
C2463 C2467 1.385 . S
C2464 H2445 0.951 . S
C2464 C2462 1.388 . S
C2464 C2465 1.366 . S
C2465 C2464 1.366 . S
C2465 C2466 1.414 . S
C2465 C2468 1.499 . S
C2466 H2446 0.950 . S
C2466 C2465 1.414 . S
C2466 C2467 1.374 . S
C2467 H2447 0.950 . S
C2467 C2463 1.385 . S
C2467 C2466 1.374 . S
C2468 C2465 1.499 . S
C2468 C2469 1.373 . S
C2468 C2470 1.389 . S
C2469 H2448 0.950 . S
C2469 C2468 1.373 . S
C2469 C2485 1.377 . S
C2470 C2468 1.389 . S
C2470 C2471 1.524 . S
C2470 C2484 1.377 . S
C2471 C2470 1.524 . S
C2471 C2472 1.397 . S
C2471 C2476 1.363 . S
C2472 H2449 0.950 . S
C2472 C2471 1.397 . S
C2472 C2473 1.334 . S
C2473 H2450 0.950 . S
C2473 C2472 1.334 . S
C2473 C2474 1.287 . S
C2474 C2473 1.287 . S
C2474 C2475 1.524 . S
C2474 H2493 0.913 . S
C2475 H2451 0.950 . S
C2475 C2474 1.524 . S
C2475 C2476 1.415 . S
C2476 H2452 0.950 . S
C2476 C2471 1.363 . S
C2476 C2475 1.415 . S
C2477 H2453 0.951 . S
C2477 C2478 1.366 . S
C2477 C2479 1.388 . S
C2478 C2477 1.366 . S
C2478 C2482 1.385 . S
C2479 H2454 0.951 . S
C2479 C2477 1.388 . S
C2479 C2480 1.366 . S
C2480 C2479 1.366 . S
C2480 C2481 1.414 . S
C2480 C2483 1.499 . S
C2481 H2455 0.950 . S
C2481 C2480 1.414 . S
C2481 C2482 1.374 . S
C2482 H2456 0.950 . S
C2482 C2478 1.385 . S
C2482 C2481 1.374 . S
C2483 C2480 1.499 . S
C2483 C2484 1.373 . S
C2483 C2485 1.389 . S
C2484 H2457 0.950 . S
C2484 C2470 1.377 . S
C2484 C2483 1.373 . S
C2485 C2469 1.377 . S
C2485 C2483 1.389 . S
C2485 C2486 1.524 . S
C2486 C2485 1.524 . S
C2486 C2487 1.397 . S
C2486 C2491 1.363 . S
C2487 H2458 0.950 . S
C2487 C2486 1.397 . S
C2487 C2488 1.334 . S
C2488 H2459 0.950 . S
C2488 C2487 1.334 . S
C2488 C2489 1.287 . S
C2489 C2488 1.287 . S
C2489 C2490 1.524 . S
C2489 H2492 0.999 . S
C2490 H2460 0.950 . S
C2490 C2489 1.524 . S
C2490 C2491 1.415 . S
C2491 H2461 0.950 . S
C2491 C2486 1.363 . S
C2491 C2490 1.415 . S
H2492 C2489 0.999 . S
H2493 C2474 0.913 . S
H2494 C2512 0.951 . S
H2495 C2514 0.951 . S
H2496 C2516 0.950 . S
H2497 C2517 0.950 . S
H2498 C2519 0.950 . S
H2499 C2522 0.950 . S
H2500 C2523 0.950 . S
H2501 C2525 0.950 . S
H2502 C2526 0.950 . S
H2503 C2527 0.951 . S
H2504 C2529 0.951 . S
H2505 C2531 0.950 . S
H2506 C2532 0.950 . S
H2507 C2534 0.950 . S
H2508 C2537 0.950 . S
H2509 C2538 0.950 . S
H2510 C2540 0.950 . S
H2511 C2541 0.950 . S
C2512 H2494 0.951 . S
C2512 C2513 1.366 . S
C2512 C2514 1.388 . S
C2513 C2512 1.366 . S
C2513 C2517 1.385 . S
C2514 H2495 0.951 . S
C2514 C2512 1.388 . S
C2514 C2515 1.366 . S
C2515 C2514 1.366 . S
C2515 C2516 1.414 . S
C2515 C2518 1.499 . S
C2516 H2496 0.950 . S
C2516 C2515 1.414 . S
C2516 C2517 1.374 . S
C2517 H2497 0.950 . S
C2517 C2513 1.385 . S
C2517 C2516 1.374 . S
C2518 C2515 1.499 . S
C2518 C2519 1.373 . S
C2518 C2520 1.389 . S
C2519 H2498 0.950 . S
C2519 C2518 1.373 . S
C2519 C2535 1.377 . S
C2520 C2518 1.389 . S
C2520 C2521 1.524 . S
C2520 C2534 1.377 . S
C2521 C2520 1.524 . S
C2521 C2522 1.397 . S
C2521 C2526 1.363 . S
C2522 H2499 0.950 . S
C2522 C2521 1.397 . S
C2522 C2523 1.334 . S
C2523 H2500 0.950 . S
C2523 C2522 1.334 . S
C2523 C2524 1.287 . S
C2524 C2523 1.287 . S
C2524 C2525 1.524 . S
C2524 H2543 0.913 . S
C2525 H2501 0.950 . S
C2525 C2524 1.524 . S
C2525 C2526 1.415 . S
C2526 H2502 0.950 . S
C2526 C2521 1.363 . S
C2526 C2525 1.415 . S
C2527 H2503 0.951 . S
C2527 C2528 1.366 . S
C2527 C2529 1.388 . S
C2528 C2527 1.366 . S
C2528 C2532 1.385 . S
C2529 H2504 0.951 . S
C2529 C2527 1.388 . S
C2529 C2530 1.366 . S
C2530 C2529 1.366 . S
C2530 C2531 1.414 . S
C2530 C2533 1.499 . S
C2531 H2505 0.950 . S
C2531 C2530 1.414 . S
C2531 C2532 1.374 . S
C2532 H2506 0.950 . S
C2532 C2528 1.385 . S
C2532 C2531 1.374 . S
C2533 C2530 1.499 . S
C2533 C2534 1.373 . S
C2533 C2535 1.389 . S
C2534 H2507 0.950 . S
C2534 C2520 1.377 . S
C2534 C2533 1.373 . S
C2535 C2519 1.377 . S
C2535 C2533 1.389 . S
C2535 C2536 1.524 . S
C2536 C2535 1.524 . S
C2536 C2537 1.397 . S
C2536 C2541 1.363 . S
C2537 H2508 0.950 . S
C2537 C2536 1.397 . S
C2537 C2538 1.334 . S
C2538 H2509 0.950 . S
C2538 C2537 1.334 . S
C2538 C2539 1.287 . S
C2539 C2538 1.287 . S
C2539 C2540 1.524 . S
C2539 H2542 0.999 . S
C2540 H2510 0.950 . S
C2540 C2539 1.524 . S
C2540 C2541 1.415 . S
C2541 H2511 0.950 . S
C2541 C2536 1.363 . S
C2541 C2540 1.415 . S
H2542 C2539 0.999 . S
H2543 C2524 0.913 . S
C563 C141 1.594 . S
C578 C5 1.593 . S
C613 C175 1.593 . S
C628 C39 1.593 . S
C663 C73 1.594 . S
C678 C209 1.594 . S
C713 C243 1.593 . S
C728 C107 1.593 . S
C763 C413 1.593 . S
C778 C277 1.594 . S
C813 C311 1.593 . S
C828 C447 1.593 . S
C863 C345 1.593 . S
C878 C481 1.593 . S
C913 C379 1.594 . S
C928 C515 1.594 . S
C963 C2 1.348 . S
C978 C428 1.363 . S
C1013 C36 1.348 . S
C1028 C462 1.363 . S
C1063 C496 1.364 . S
C1078 C70 1.348 . S
C1113 C104 1.347 . S
C1128 C530 1.363 . S
C1163 C292 1.363 . S
C1178 C138 1.348 . S
C1213 C326 1.363 . S
C1228 C172 1.348 . S
C1263 C206 1.347 . S
C1278 C360 1.363 . S
C1313 C394 1.364 . S
C1328 C240 1.348 . S
C1363 C274 1.348 . S
C1378 C156 1.363 . S
C1413 C308 1.348 . S
C1428 C190 1.363 . S
C1463 C224 1.364 . S
C1478 C342 1.348 . S
C1513 C376 1.347 . S
C1528 C258 1.363 . S
C1563 C410 1.347 . S
C1578 C20 1.363 . S
C1613 C444 1.348 . S
C1628 C54 1.364 . S
C1663 C478 1.347 . S
C1678 C88 1.363 . S
C1713 C122 1.364 . S
C1728 C512 1.348 . S
C1763 C247 1.637 . S
C1778 C9 1.636 . S
C1813 C43 1.638 . S
C1828 C145 1.637 . S
C1863 C179 1.635 . S
C1878 C77 1.635 . S
C1913 C213 1.637 . S
C1928 C111 1.636 . S
C1963 C281 1.636 . S
C1978 C519 1.637 . S
C2013 C417 1.636 . S
C2028 C315 1.637 . S
C2063 C349 1.637 . S
C2078 C451 1.637 . S
C2113 C485 1.637 . S
C2128 C383 1.637 . S
C2163 C101 0.505 . S
C2178 C33 0.504 . S
C2213 C135 0.504 . S
C2228 C67 0.505 . S
C2263 C169 0.503 . S
C2278 C237 0.505 . S
C2313 C271 0.505 . S
C2328 C203 0.504 . S
C2363 C305 0.504 . S
C2378 C373 0.505 . S
C2413 C407 0.505 . S
C2428 C339 0.503 . S
C2463 C441 0.504 . S
C2478 C509 0.505 . S
C2513 C475 0.504 . S
C2528 C543 0.503 . S
