# Generated by pormake.
# Topology unw, (4)-cn, num edge types: 1
# Building blocks:
#     Node 0, Type 0, BuildingBlock: ICAMEG_clean_sbu_1, # of connection points: 4
#     Node 1, Type 0, BuildingBlock: ICAMEG_clean_sbu_1, # of connection points: 4
#     Node 2, Type 0, BuildingBlock: ICAMEG_clean_sbu_1, # of connection points: 4
#     Node 3, Type 0, BuildingBlock: ICAMEG_clean_sbu_1, # of connection points: 4
#     Node 4, Type 0, BuildingBlock: ICAMEG_clean_sbu_1, # of connection points: 4
#     Node 5, Type 0, BuildingBlock: ICAMEG_clean_sbu_1, # of connection points: 4
#     Node 6, Type 0, BuildingBlock: ICAMEG_clean_sbu_1, # of connection points: 4
#     Node 7, Type 0, BuildingBlock: ICAMEG_clean_sbu_1, # of connection points: 4
#     Node 8, Type 0, BuildingBlock: ICAMEG_clean_sbu_1, # of connection points: 4
#     Node 9, Type 0, BuildingBlock: ICAMEG_clean_sbu_1, # of connection points: 4
#     Node 10, Type 0, BuildingBlock: ICAMEG_clean_sbu_1, # of connection points: 4
#     Node 11, Type 0, BuildingBlock: ICAMEG_clean_sbu_1, # of connection points: 4
#     Node 12, Type 0, BuildingBlock: ICAMEG_clean_sbu_1, # of connection points: 4
#     Node 13, Type 0, BuildingBlock: ICAMEG_clean_sbu_1, # of connection points: 4
#     Node 14, Type 0, BuildingBlock: ICAMEG_clean_sbu_1, # of connection points: 4
#     Node 15, Type 0, BuildingBlock: ICAMEG_clean_sbu_1, # of connection points: 4
#     Node 16, Type 0, BuildingBlock: ICAMEG_clean_sbu_1, # of connection points: 4
#     Node 17, Type 0, BuildingBlock: ICAMEG_clean_sbu_1, # of connection points: 4
#     Node 18, Type 0, BuildingBlock: ICAMEG_clean_sbu_1, # of connection points: 4
#     Node 19, Type 0, BuildingBlock: ICAMEG_clean_sbu_1, # of connection points: 4
#     Node 20, Type 0, BuildingBlock: ICAMEG_clean_sbu_1, # of connection points: 4
#     Node 21, Type 0, BuildingBlock: ICAMEG_clean_sbu_1, # of connection points: 4
#     Node 22, Type 0, BuildingBlock: ICAMEG_clean_sbu_1, # of connection points: 4
#     Node 23, Type 0, BuildingBlock: ICAMEG_clean_sbu_1, # of connection points: 4
#     Edge 24, Type (0, 0), BuildingBlock: XUDNAN_clean_linker_2, # of connection points: 2
#     Edge 25, Type (0, 0), BuildingBlock: XUDNAN_clean_linker_2, # of connection points: 2
#     Edge 26, Type (0, 0), BuildingBlock: XUDNAN_clean_linker_2, # of connection points: 2
#     Edge 27, Type (0, 0), BuildingBlock: XUDNAN_clean_linker_2, # of connection points: 2
#     Edge 28, Type (0, 0), BuildingBlock: XUDNAN_clean_linker_2, # of connection points: 2
#     Edge 29, Type (0, 0), BuildingBlock: XUDNAN_clean_linker_2, # of connection points: 2
#     Edge 30, Type (0, 0), BuildingBlock: XUDNAN_clean_linker_2, # of connection points: 2
#     Edge 31, Type (0, 0), BuildingBlock: XUDNAN_clean_linker_2, # of connection points: 2
#     Edge 32, Type (0, 0), BuildingBlock: XUDNAN_clean_linker_2, # of connection points: 2
#     Edge 33, Type (0, 0), BuildingBlock: XUDNAN_clean_linker_2, # of connection points: 2
#     Edge 34, Type (0, 0), BuildingBlock: XUDNAN_clean_linker_2, # of connection points: 2
#     Edge 35, Type (0, 0), BuildingBlock: XUDNAN_clean_linker_2, # of connection points: 2
#     Edge 36, Type (0, 0), BuildingBlock: XUDNAN_clean_linker_2, # of connection points: 2
#     Edge 37, Type (0, 0), BuildingBlock: XUDNAN_clean_linker_2, # of connection points: 2
#     Edge 38, Type (0, 0), BuildingBlock: XUDNAN_clean_linker_2, # of connection points: 2
#     Edge 39, Type (0, 0), BuildingBlock: XUDNAN_clean_linker_2, # of connection points: 2
#     Edge 40, Type (0, 0), BuildingBlock: XUDNAN_clean_linker_2, # of connection points: 2
#     Edge 41, Type (0, 0), BuildingBlock: XUDNAN_clean_linker_2, # of connection points: 2
#     Edge 42, Type (0, 0), BuildingBlock: XUDNAN_clean_linker_2, # of connection points: 2
#     Edge 43, Type (0, 0), BuildingBlock: XUDNAN_clean_linker_2, # of connection points: 2
#     Edge 44, Type (0, 0), BuildingBlock: XUDNAN_clean_linker_2, # of connection points: 2
#     Edge 45, Type (0, 0), BuildingBlock: XUDNAN_clean_linker_2, # of connection points: 2
#     Edge 46, Type (0, 0), BuildingBlock: XUDNAN_clean_linker_2, # of connection points: 2
#     Edge 47, Type (0, 0), BuildingBlock: XUDNAN_clean_linker_2, # of connection points: 2
#     Edge 48, Type (0, 0), BuildingBlock: XUDNAN_clean_linker_2, # of connection points: 2
#     Edge 49, Type (0, 0), BuildingBlock: XUDNAN_clean_linker_2, # of connection points: 2
#     Edge 50, Type (0, 0), BuildingBlock: XUDNAN_clean_linker_2, # of connection points: 2
#     Edge 51, Type (0, 0), BuildingBlock: XUDNAN_clean_linker_2, # of connection points: 2
#     Edge 52, Type (0, 0), BuildingBlock: XUDNAN_clean_linker_2, # of connection points: 2
#     Edge 53, Type (0, 0), BuildingBlock: XUDNAN_clean_linker_2, # of connection points: 2
#     Edge 54, Type (0, 0), BuildingBlock: XUDNAN_clean_linker_2, # of connection points: 2
#     Edge 55, Type (0, 0), BuildingBlock: XUDNAN_clean_linker_2, # of connection points: 2
#     Edge 56, Type (0, 0), BuildingBlock: XUDNAN_clean_linker_2, # of connection points: 2
#     Edge 57, Type (0, 0), BuildingBlock: XUDNAN_clean_linker_2, # of connection points: 2
#     Edge 58, Type (0, 0), BuildingBlock: XUDNAN_clean_linker_2, # of connection points: 2
#     Edge 59, Type (0, 0), BuildingBlock: XUDNAN_clean_linker_2, # of connection points: 2
#     Edge 60, Type (0, 0), BuildingBlock: XUDNAN_clean_linker_2, # of connection points: 2
#     Edge 61, Type (0, 0), BuildingBlock: XUDNAN_clean_linker_2, # of connection points: 2
#     Edge 62, Type (0, 0), BuildingBlock: XUDNAN_clean_linker_2, # of connection points: 2
#     Edge 63, Type (0, 0), BuildingBlock: XUDNAN_clean_linker_2, # of connection points: 2
#     Edge 64, Type (0, 0), BuildingBlock: XUDNAN_clean_linker_2, # of connection points: 2
#     Edge 65, Type (0, 0), BuildingBlock: XUDNAN_clean_linker_2, # of connection points: 2
#     Edge 66, Type (0, 0), BuildingBlock: XUDNAN_clean_linker_2, # of connection points: 2
#     Edge 67, Type (0, 0), BuildingBlock: XUDNAN_clean_linker_2, # of connection points: 2
#     Edge 68, Type (0, 0), BuildingBlock: XUDNAN_clean_linker_2, # of connection points: 2
#     Edge 69, Type (0, 0), BuildingBlock: XUDNAN_clean_linker_2, # of connection points: 2
#     Edge 70, Type (0, 0), BuildingBlock: XUDNAN_clean_linker_2, # of connection points: 2
#     Edge 71, Type (0, 0), BuildingBlock: XUDNAN_clean_linker_2, # of connection points: 2
# Relax obj value: 0.236
# Max RMSD: 0.173
# Mean RMSD: 0.172
data_MOF--net-unw--node1-ICAMEG_clean_sbu_1--edge1-XUDNAN_clean_linker_2
_symmetry_space_group_name_H-M    P1
_symmetry_Int_Tables_number       1
_symmetry_cell_setting            triclinic
loop_
_symmetry_equiv_pos_as_xyz
'x, y, z'
_cell_length_a     51.639433
_cell_length_b     51.647995
_cell_length_c     51.632558
_cell_angle_alpha  89.9908
_cell_angle_beta   90.014468
_cell_angle_gamma 90.042708
loop_
_atom_site_label
_atom_site_type_symbol
_atom_site_fract_x
_atom_site_fract_y
_atom_site_fract_z
_atom_type_partial_charge
Co0 Co 0.16009 0.38165 0.27514 0.0
Co1 Co 0.1199 0.34772 0.23333 0.0
O2 O 0.12802 0.37741 0.25544 0.0
C3 C 0.1588 0.42329 0.23643 0.0
O4 O 0.14929 0.40579 0.22075 0.0
C5 C 0.07994 0.3494 0.27361 0.0
O6 O 0.09874 0.35573 0.28941 0.0
O7 O 0.13292 0.3233 0.25974 0.0
O8 O 0.15723 0.34518 0.2886 0.0
H9 H 0.13791 0.26273 0.18961 0.0
H10 H 0.12742 0.42907 0.28276 0.0
O11 O 0.16412 0.41749 0.25989 0.0
H12 H 0.11644 0.37975 0.36344 0.0
H13 H 0.24964 0.41778 0.28837 0.0
H14 H 0.18347 0.36012 0.32523 0.0
H15 H 0.14243 0.36212 0.32846 0.0
H16 H 0.20895 0.41041 0.26525 0.0
O17 O 0.0846 0.34532 0.2497 0.0
H18 H 0.14814 0.30052 0.21699 0.0
H19 H 0.07311 0.33141 0.2037 0.0
H20 H 0.22377 0.36701 0.34874 0.0
H21 H 0.1011 0.44705 0.31748 0.0
H22 H 0.25738 0.39619 0.33061 0.0
H23 H 0.09543 0.42262 0.35844 0.0
O24 O 0.1813 0.36835 0.24631 0.0
H25 H 0.06803 0.42378 0.20194 0.0
H26 H 0.12821 0.35416 0.17656 0.0
H27 H 0.11284 0.38512 0.14357 0.0
H28 H 0.08253 0.42023 0.15621 0.0
H29 H 0.08405 0.39252 0.23433 0.0
H30 H 0.06193 0.2938 0.17642 0.0
H31 H 0.09451 0.25919 0.16912 0.0
O32 O 0.15525 0.34917 0.21708 0.0
C33 C 0.14661 0.3244 0.28022 0.0
C34 C 0.12359 0.27774 0.19254 0.0
C35 C 0.08093 0.29516 0.18516 0.0
N36 N 0.11137 0.31829 0.21163 0.0
C37 C 0.12931 0.29923 0.20792 0.0
C38 C 0.08736 0.31639 0.20065 0.0
C39 C 0.09922 0.27575 0.18108 0.0
C40 C 0.1264 0.41844 0.30065 0.0
N41 N 0.13904 0.39531 0.3038 0.0
C42 C 0.11083 0.4287 0.32025 0.0
C43 C 0.10756 0.41497 0.34317 0.0
C44 C 0.11946 0.39101 0.34602 0.0
C45 C 0.13489 0.38133 0.32602 0.0
C46 C 0.23485 0.40559 0.29688 0.0
C47 C 0.19707 0.37368 0.31733 0.0
C48 C 0.21137 0.40165 0.28404 0.0
N49 N 0.19232 0.38647 0.29458 0.0
C50 C 0.22033 0.37714 0.33071 0.0
C51 C 0.23923 0.39341 0.3205 0.0
C52 C 0.17742 0.3571 0.22474 0.0
C53 C 0.08117 0.40851 0.19618 0.0
C54 C 0.11502 0.3694 0.18219 0.0
C55 C 0.10636 0.38685 0.16343 0.0
C56 C 0.08934 0.40653 0.17053 0.0
N57 N 0.10691 0.37147 0.2073 0.0
C58 C 0.0902 0.39069 0.21441 0.0
Co59 Co 0.61572 0.1529 0.26664 0.0
Co60 Co 0.65155 0.11446 0.22515 0.0
O61 O 0.62165 0.1211 0.24717 0.0
C62 C 0.57364 0.1487 0.22917 0.0
O63 O 0.59156 0.14063 0.21317 0.0
C64 C 0.65335 0.07444 0.26534 0.0
O65 O 0.65012 0.0932 0.28211 0.0
O66 O 0.67539 0.12821 0.25189 0.0
O67 O 0.65219 0.15212 0.28009 0.0
H68 H 0.73641 0.13534 0.18236 0.0
H69 H 0.57924 0.10897 0.27245 0.0
O70 O 0.57941 0.1546 0.25247 0.0
H71 H 0.61513 0.12394 0.3597 0.0
H72 H 0.56305 0.21298 0.32235 0.0
H73 H 0.64599 0.20068 0.27668 0.0
H74 H 0.62843 0.15139 0.32291 0.0
H75 H 0.57153 0.17286 0.2978 0.0
O76 O 0.65434 0.07913 0.24112 0.0
H77 H 0.69817 0.14419 0.20956 0.0
H78 H 0.66931 0.06854 0.19512 0.0
H79 H 0.63847 0.24094 0.30124 0.0
H80 H 0.56525 0.08115 0.30872 0.0
H81 H 0.59673 0.24729 0.32428 0.0
H82 H 0.58329 0.08854 0.3527 0.0
O83 O 0.62697 0.17462 0.23725 0.0
H84 H 0.57736 0.06051 0.19257 0.0
H85 H 0.64521 0.12327 0.16843 0.0
H86 H 0.61497 0.10732 0.13505 0.0
H87 H 0.58074 0.07571 0.14705 0.0
H88 H 0.60784 0.07714 0.22538 0.0
H89 H 0.70739 0.05875 0.16796 0.0
H90 H 0.7412 0.09235 0.16134 0.0
O91 O 0.64933 0.14988 0.20922 0.0
C92 C 0.67346 0.14228 0.2721 0.0
C93 C 0.72175 0.12059 0.18499 0.0
C94 C 0.70548 0.07759 0.17694 0.0
N95 N 0.68138 0.10702 0.20362 0.0
C96 C 0.7 0.12553 0.20028 0.0
C97 C 0.68399 0.08322 0.19236 0.0
C98 C 0.72444 0.09645 0.17323 0.0
C99 C 0.58698 0.11243 0.29159 0.0
N100 N 0.60448 0.13186 0.29562 0.0
C101 C 0.57907 0.09656 0.31202 0.0
C102 C 0.58923 0.1007 0.33669 0.0
C103 C 0.6071 0.12055 0.34063 0.0
C104 C 0.61459 0.136 0.31973 0.0
C105 C 0.58134 0.2104 0.31246 0.0
C106 C 0.62788 0.20321 0.28685 0.0
C107 C 0.58622 0.18777 0.2985 0.0
N108 N 0.60933 0.18435 0.28608 0.0
C109 C 0.62369 0.22609 0.30063 0.0
C110 C 0.60025 0.22965 0.31353 0.0
C111 C 0.63946 0.17142 0.21626 0.0
C112 C 0.59224 0.07421 0.18708 0.0
C113 C 0.63035 0.10953 0.1738 0.0
C114 C 0.61331 0.10054 0.15481 0.0
C115 C 0.59413 0.08278 0.16156 0.0
N116 N 0.62837 0.10104 0.1988 0.0
C117 C 0.60964 0.0836 0.20555 0.0
Co118 Co 0.89818 0.65137 0.21864 0.0
Co119 Co 0.85185 0.62691 0.26012 0.0
O120 O 0.88487 0.62427 0.24183 0.0
C121 C 0.9335 0.65085 0.26345 0.0
O122 O 0.91351 0.6435 0.27722 0.0
C123 C 0.84469 0.58121 0.22595 0.0
O124 O 0.86051 0.59166 0.20904 0.0
O125 O 0.83483 0.64179 0.22903 0.0
O126 O 0.86497 0.6504 0.19875 0.0
H127 H 0.77078 0.6727 0.28818 0.0
H128 H 0.93018 0.60484 0.22862 0.0
O129 O 0.93142 0.65373 0.23899 0.0
H130 H 0.91234 0.60382 0.13479 0.0
H131 H 0.96661 0.69473 0.16442 0.0
H132 H 0.87587 0.6982 0.19397 0.0
H133 H 0.89564 0.6391 0.16232 0.0
H134 H 0.94924 0.66112 0.19362 0.0
O135 O 0.84093 0.59183 0.24789 0.0
H136 H 0.81276 0.66849 0.26584 0.0
H137 H 0.82017 0.59111 0.29269 0.0
H138 H 0.89235 0.73207 0.16457 0.0
H139 H 0.94746 0.56928 0.20178 0.0
H140 H 0.93805 0.73047 0.14963 0.0
H141 H 0.93849 0.56861 0.15452 0.0
O142 O 0.88434 0.68001 0.2405 0.0
H143 H 0.90679 0.562 0.3072 0.0
H144 H 0.85419 0.64116 0.31609 0.0
H145 H 0.87594 0.62296 0.35454 0.0
H146 H 0.90245 0.58308 0.35022 0.0
H147 H 0.88486 0.58101 0.26921 0.0
H148 H 0.77813 0.59439 0.31514 0.0
H149 H 0.75318 0.63545 0.31304 0.0
O150 O 0.86116 0.66207 0.27245 0.0
C151 C 0.84145 0.6483 0.20614 0.0
C152 C 0.78151 0.65474 0.28933 0.0
C153 C 0.78563 0.61078 0.30444 0.0
N154 N 0.81905 0.62968 0.27822 0.0
C155 C 0.80535 0.65227 0.27681 0.0
C156 C 0.80941 0.60903 0.29168 0.0
C157 C 0.77164 0.63383 0.30325 0.0
C158 C 0.92641 0.60477 0.20803 0.0
N159 N 0.91207 0.62406 0.19701 0.0
C160 C 0.93615 0.58455 0.19295 0.0
C161 C 0.93108 0.58417 0.16643 0.0
C162 C 0.9164 0.60391 0.15535 0.0
C163 C 0.90696 0.62381 0.17104 0.0
C164 C 0.94665 0.6956 0.17074 0.0
C165 C 0.89571 0.69726 0.18736 0.0
C166 C 0.93672 0.67665 0.1873 0.0
N167 N 0.91151 0.67758 0.19528 0.0
C168 C 0.90496 0.71654 0.1708 0.0
C169 C 0.93061 0.71565 0.16245 0.0
C170 C 0.87183 0.68149 0.26169 0.0
C171 C 0.89524 0.57934 0.30934 0.0
C172 C 0.86572 0.62382 0.31406 0.0
C173 C 0.87796 0.61358 0.3359 0.0
C174 C 0.89282 0.5912 0.33347 0.0
N175 N 0.86817 0.61205 0.29048 0.0
C176 C 0.8827 0.59011 0.28793 0.0
Co177 Co 0.36685 0.88014 0.24965 0.0
Co178 Co 0.39377 0.83673 0.29245 0.0
O179 O 0.39499 0.86888 0.27249 0.0
C180 C 0.36848 0.91875 0.2919 0.0
O181 O 0.37744 0.90047 0.30705 0.0
C182 C 0.43716 0.82889 0.25583 0.0
O183 O 0.42496 0.84371 0.2392 0.0
O184 O 0.37699 0.8176 0.26329 0.0
O185 O 0.36832 0.84619 0.23164 0.0
H186 H 0.35075 0.75703 0.32797 0.0
H187 H 0.41297 0.91369 0.25617 0.0
O188 O 0.36429 0.91433 0.26797 0.0
H189 H 0.41068 0.89139 0.16333 0.0
H190 H 0.31914 0.94408 0.19364 0.0
H191 H 0.32001 0.85495 0.22792 0.0
H192 H 0.37693 0.87522 0.19304 0.0
H193 H 0.35448 0.92943 0.22226 0.0
O194 O 0.42815 0.82553 0.27855 0.0
H195 H 0.35296 0.79787 0.30329 0.0
H196 H 0.43199 0.80717 0.32414 0.0
H197 H 0.28441 0.86871 0.1992 0.0
H198 H 0.447 0.9305 0.22711 0.0
H199 H 0.28382 0.91358 0.18187 0.0
H200 H 0.44601 0.91928 0.18034 0.0
O201 O 0.33943 0.86665 0.27339 0.0
H202 H 0.46104 0.89471 0.33215 0.0
H203 H 0.38316 0.84202 0.34901 0.0
H204 H 0.40356 0.866 0.38495 0.0
H205 H 0.44281 0.89256 0.37662 0.0
H206 H 0.43985 0.87059 0.29673 0.0
H207 H 0.43068 0.76634 0.34894 0.0
H208 H 0.38982 0.74102 0.35101 0.0
O209 O 0.35944 0.84675 0.30642 0.0
C210 C 0.37025 0.82309 0.24014 0.0
C211 C 0.36864 0.76795 0.3273 0.0
C212 C 0.41351 0.77315 0.33904 0.0
N213 N 0.3925 0.80499 0.31248 0.0
C214 C 0.36998 0.79112 0.31343 0.0
C215 C 0.41414 0.79623 0.32495 0.0
C216 C 0.39058 0.75896 0.3402 0.0
C217 C 0.4123 0.90894 0.2358 0.0
N218 N 0.39294 0.89364 0.22627 0.0
C219 C 0.43166 0.91842 0.21946 0.0
C220 C 0.43112 0.91209 0.19322 0.0
C221 C 0.41131 0.89643 0.18367 0.0
C222 C 0.39228 0.8873 0.20058 0.0
C223 C 0.31921 0.92446 0.20101 0.0
C224 C 0.32 0.87444 0.22028 0.0
C225 C 0.33915 0.91607 0.21725 0.0
N226 N 0.3394 0.8913 0.22658 0.0
C227 C 0.29974 0.88215 0.2041 0.0
C228 C 0.29941 0.90734 0.19441 0.0
C229 C 0.33935 0.8562 0.29574 0.0
C230 C 0.44398 0.88315 0.33604 0.0
C231 C 0.4002 0.85358 0.34523 0.0
C232 C 0.4117 0.86708 0.36566 0.0
C233 C 0.43373 0.88196 0.36098 0.0
N234 N 0.4104 0.85483 0.32084 0.0
C235 C 0.43198 0.86938 0.31608 0.0
Co236 Co 0.10934 0.65618 0.7551 0.0
Co237 Co 0.15172 0.61317 0.72662 0.0
O238 O 0.11728 0.62292 0.73903 0.0
C239 C 0.07817 0.65748 0.70717 0.0
O240 O 0.09817 0.64793 0.6948 0.0
C241 C 0.14065 0.57767 0.76991 0.0
O242 O 0.12786 0.59665 0.78085 0.0
O243 O 0.16939 0.6304 0.75624 0.0
O244 O 0.13972 0.65286 0.7786 0.0
H245 H 0.24491 0.62872 0.7032 0.0
H246 H 0.06821 0.61637 0.75123 0.0
O247 O 0.07881 0.66061 0.73163 0.0
H248 H 0.07844 0.63323 0.84468 0.0
H249 H 0.04987 0.72451 0.79103 0.0
H250 H 0.14048 0.70156 0.77155 0.0
H251 H 0.10484 0.65695 0.81268 0.0
H252 H 0.06055 0.68205 0.77195 0.0
O253 O 0.15055 0.58049 0.74747 0.0
H254 H 0.20132 0.64104 0.71825 0.0
H255 H 0.17511 0.56369 0.7084 0.0
H256 H 0.13068 0.74416 0.79074 0.0
H257 H 0.04123 0.59236 0.78254 0.0
H258 H 0.08509 0.75587 0.80061 0.0
H259 H 0.04634 0.60069 0.82965 0.0
O260 O 0.13125 0.67505 0.72952 0.0
H261 H 0.08626 0.5546 0.68476 0.0
H262 H 0.15927 0.61427 0.66944 0.0
H263 H 0.13774 0.59341 0.63223 0.0
H264 H 0.10099 0.56328 0.63979 0.0
H265 H 0.10824 0.57605 0.7214 0.0
H266 H 0.21849 0.55048 0.6934 0.0
H267 H 0.25373 0.58313 0.69066 0.0
O268 O 0.15397 0.64591 0.70649 0.0
C269 C 0.16258 0.64415 0.77553 0.0
C270 C 0.22969 0.61433 0.7042 0.0
C271 C 0.21487 0.57041 0.69874 0.0
N272 N 0.18564 0.60315 0.714 0.0
C273 C 0.20493 0.62122 0.71262 0.0
C274 C 0.19036 0.578 0.70727 0.0
C275 C 0.23463 0.58875 0.6972 0.0
C276 C 0.07036 0.62025 0.77169 0.0
N277 N 0.08797 0.6381 0.78013 0.0
C278 C 0.05511 0.60653 0.78933 0.0
C279 C 0.05801 0.61119 0.81576 0.0
C280 C 0.07603 0.62944 0.82421 0.0
C281 C 0.09096 0.64277 0.80601 0.0
C282 C 0.06982 0.7196 0.7869 0.0
C283 C 0.12061 0.70642 0.776 0.0
C284 C 0.07598 0.6956 0.77608 0.0
N285 N 0.10114 0.68924 0.7709 0.0
C286 C 0.11517 0.73061 0.78677 0.0
C287 C 0.08959 0.73718 0.79227 0.0
C288 C 0.14672 0.66904 0.7112 0.0
C289 C 0.1023 0.56763 0.68122 0.0
C290 C 0.14324 0.60124 0.67287 0.0
C291 C 0.13116 0.58945 0.65173 0.0
C292 C 0.11055 0.57253 0.65599 0.0
N293 N 0.13509 0.59624 0.69755 0.0
C294 C 0.11486 0.57975 0.70189 0.0
Co295 Co 0.38055 0.14797 0.74318 0.0
Co296 Co 0.3395 0.12274 0.78975 0.0
O297 O 0.37082 0.12147 0.76856 0.0
C298 C 0.42037 0.14921 0.78369 0.0
O299 O 0.40153 0.14437 0.79996 0.0
C300 C 0.33318 0.07643 0.75738 0.0
O301 O 0.34643 0.08874 0.73954 0.0
O302 O 0.3186 0.13454 0.75988 0.0
O303 O 0.34519 0.14606 0.72724 0.0
H304 H 0.25824 0.16364 0.82412 0.0
H305 H 0.41432 0.1021 0.75021 0.0
O306 O 0.41586 0.15094 0.75945 0.0
H307 H 0.38537 0.09868 0.65925 0.0
H308 H 0.44114 0.19098 0.68009 0.0
H309 H 0.35472 0.19398 0.72057 0.0
H310 H 0.37162 0.13442 0.6878 0.0
H311 H 0.42807 0.15789 0.71202 0.0
O312 O 0.33038 0.08633 0.77982 0.0
H313 H 0.29787 0.16145 0.79756 0.0
H314 H 0.31406 0.08623 0.82656 0.0
H315 H 0.36684 0.22728 0.68853 0.0
H316 H 0.42876 0.06614 0.72227 0.0
H317 H 0.41036 0.22592 0.66807 0.0
H318 H 0.41417 0.06423 0.67646 0.0
O319 O 0.36879 0.17657 0.76596 0.0
H320 H 0.40364 0.06477 0.83415 0.0
H321 H 0.34609 0.14024 0.84442 0.0
H322 H 0.37292 0.12594 0.8813 0.0
H323 H 0.40196 0.08795 0.87627 0.0
H324 H 0.3766 0.07986 0.79773 0.0
H325 H 0.27441 0.08745 0.8532 0.0
H326 H 0.24628 0.12643 0.85219 0.0
O327 O 0.34698 0.15937 0.7994 0.0
C328 C 0.32271 0.14161 0.7366 0.0
C329 C 0.2704 0.14659 0.82482 0.0
C330 C 0.27946 0.10382 0.84112 0.0
N331 N 0.30843 0.12389 0.8108 0.0
C332 C 0.29292 0.14529 0.80992 0.0
C333 C 0.30186 0.10322 0.82598 0.0
C334 C 0.26369 0.1257 0.84054 0.0
C335 C 0.40814 0.10154 0.73022 0.0
N336 N 0.39229 0.12039 0.72059 0.0
C337 C 0.41627 0.08108 0.71452 0.0
C338 C 0.40805 0.08 0.68883 0.0
C339 C 0.39188 0.09931 0.67916 0.0
C340 C 0.38412 0.11947 0.69543 0.0
C341 C 0.4221 0.19174 0.68881 0.0
C342 C 0.37358 0.19312 0.71155 0.0
C343 C 0.41461 0.17308 0.70691 0.0
N344 N 0.39054 0.17385 0.71788 0.0
C345 C 0.38038 0.21209 0.69351 0.0
C346 C 0.40482 0.21133 0.68207 0.0
C347 C 0.35701 0.17856 0.78751 0.0
C348 C 0.39101 0.0813 0.8366 0.0
C349 C 0.35869 0.12369 0.84211 0.0
C350 C 0.3738 0.11566 0.86305 0.0
C351 C 0.39008 0.09434 0.86022 0.0
N352 N 0.35972 0.11078 0.81902 0.0
C353 C 0.37559 0.08985 0.81609 0.0
Co354 Co 0.83804 0.37891 0.71631 0.0
Co355 Co 0.88517 0.35096 0.7548 0.0
O356 O 0.87222 0.37864 0.73261 0.0
C357 C 0.83927 0.42208 0.75278 0.0
O358 O 0.8511 0.40584 0.76823 0.0
C359 C 0.92093 0.35334 0.71047 0.0
O360 O 0.90098 0.35941 0.69598 0.0
O361 O 0.87141 0.3242 0.73104 0.0
O362 O 0.84367 0.34286 0.70303 0.0
H363 H 0.87938 0.26706 0.80376 0.0
H364 H 0.87453 0.42211 0.70608 0.0
O365 O 0.83192 0.41483 0.73032 0.0
H366 H 0.85735 0.38253 0.62087 0.0
H367 H 0.76471 0.41997 0.66698 0.0
H368 H 0.79528 0.34092 0.71093 0.0
H369 H 0.83624 0.36556 0.66024 0.0
H370 H 0.80802 0.41863 0.68721 0.0
O371 O 0.91834 0.35023 0.73482 0.0
H372 H 0.86291 0.3026 0.77642 0.0
H373 H 0.93614 0.33998 0.77954 0.0
H374 H 0.75197 0.34133 0.69083 0.0
H375 H 0.8959 0.43985 0.66719 0.0
H376 H 0.73641 0.38109 0.66866 0.0
H377 H 0.8874 0.41996 0.62422 0.0
O378 O 0.82116 0.36448 0.74762 0.0
H379 H 0.93357 0.4325 0.77653 0.0
H380 H 0.88277 0.35972 0.81184 0.0
H381 H 0.89907 0.39355 0.84139 0.0
H382 H 0.92468 0.43026 0.82375 0.0
H383 H 0.91671 0.39835 0.74765 0.0
H384 H 0.95348 0.3047 0.80668 0.0
H385 H 0.92498 0.26796 0.81905 0.0
O386 O 0.85206 0.35037 0.77478 0.0
C387 C 0.85639 0.32335 0.71147 0.0
C388 C 0.89195 0.28302 0.79859 0.0
C389 C 0.93356 0.30413 0.80021 0.0
N390 N 0.89846 0.32347 0.77665 0.0
C391 C 0.88271 0.30325 0.78321 0.0
C392 C 0.92364 0.32403 0.78481 0.0
C393 C 0.91755 0.28352 0.80714 0.0
C394 C 0.87054 0.41354 0.68741 0.0
N395 N 0.85404 0.39295 0.68539 0.0
C396 C 0.88278 0.42358 0.66548 0.0
C397 C 0.87803 0.41239 0.64137 0.0
C398 C 0.86118 0.39138 0.63948 0.0
C399 C 0.84932 0.38183 0.66184 0.0
C400 C 0.7713 0.40251 0.67652 0.0
C401 C 0.78875 0.35821 0.70112 0.0
C402 C 0.79577 0.40166 0.68802 0.0
N403 N 0.80424 0.37964 0.69999 0.0
C404 C 0.76416 0.35836 0.68986 0.0
C405 C 0.75543 0.38069 0.67746 0.0
C406 C 0.82842 0.35468 0.76905 0.0
C407 C 0.92251 0.41655 0.78446 0.0
C408 C 0.89389 0.37564 0.80403 0.0
C409 C 0.9031 0.39472 0.82086 0.0
C410 C 0.91748 0.4153 0.81095 0.0
N411 N 0.89892 0.37701 0.77808 0.0
C412 C 0.91301 0.39712 0.76822 0.0
Co413 Co 0.64831 0.882 0.76521 0.0
Co414 Co 0.60766 0.84048 0.73212 0.0
O415 O 0.61522 0.87368 0.74871 0.0
C416 C 0.64395 0.91807 0.72112 0.0
O417 O 0.63159 0.89967 0.70873 0.0
C418 C 0.57177 0.84373 0.77639 0.0
O419 O 0.5904 0.85561 0.7889 0.0
O420 O 0.6262 0.82085 0.7596 0.0
O421 O 0.64666 0.84922 0.78549 0.0
H422 H 0.62959 0.7521 0.69799 0.0
H423 H 0.60614 0.92085 0.76548 0.0
O424 O 0.65109 0.91478 0.74454 0.0
H425 H 0.62422 0.90234 0.85743 0.0
H426 H 0.71356 0.94159 0.80641 0.0
H427 H 0.69532 0.852 0.77885 0.0
H428 H 0.64926 0.88081 0.82292 0.0
H429 H 0.67163 0.93036 0.78644 0.0
O430 O 0.57493 0.83691 0.75287 0.0
H431 H 0.63886 0.79438 0.71818 0.0
H432 H 0.55983 0.81596 0.711 0.0
H433 H 0.73744 0.86233 0.79889 0.0
H434 H 0.58075 0.94299 0.79937 0.0
H435 H 0.74678 0.90742 0.81281 0.0
H436 H 0.58969 0.9337 0.84572 0.0
O437 O 0.66833 0.86415 0.73757 0.0
H438 H 0.54474 0.90648 0.69835 0.0
H439 H 0.60863 0.83972 0.67441 0.0
H440 H 0.58628 0.86425 0.64004 0.0
H441 H 0.55405 0.89788 0.65194 0.0
H442 H 0.56773 0.88164 0.73209 0.0
H443 H 0.54966 0.77384 0.69086 0.0
H444 H 0.58471 0.7416 0.68418 0.0
O445 O 0.64035 0.84311 0.7117 0.0
C446 C 0.63922 0.82636 0.77983 0.0
C447 C 0.61418 0.76603 0.70069 0.0
C448 C 0.56931 0.77821 0.69672 0.0
N449 N 0.59995 0.80769 0.71554 0.0
C450 C 0.61932 0.79003 0.71202 0.0
C451 C 0.57517 0.80201 0.70816 0.0
C452 C 0.58898 0.76014 0.69298 0.0
C453 C 0.61029 0.91691 0.78562 0.0
N454 N 0.62923 0.89969 0.79224 0.0
C455 C 0.59579 0.92942 0.80471 0.0
C456 C 0.6008 0.92417 0.83072 0.0
C457 C 0.62015 0.90657 0.8373 0.0
C458 C 0.63424 0.89441 0.81769 0.0
C459 C 0.70969 0.92186 0.8005 0.0
C460 C 0.69916 0.87161 0.78507 0.0
C461 C 0.686 0.91539 0.78916 0.0
N462 N 0.68096 0.8905 0.78171 0.0
C463 C 0.72308 0.87736 0.79632 0.0
C464 C 0.72832 0.90267 0.80409 0.0
C465 C 0.66304 0.8512 0.71724 0.0
C466 C 0.55869 0.89183 0.69292 0.0
C467 C 0.59467 0.85437 0.67973 0.0
C468 C 0.58204 0.86816 0.66019 0.0
C469 C 0.56395 0.88702 0.66688 0.0
N470 N 0.58937 0.85918 0.70521 0.0
C471 C 0.57168 0.87764 0.71193 0.0
Co472 Co 0.26722 0.15396 0.38499 0.0
Co473 Co 0.23774 0.11144 0.34263 0.0
O474 O 0.25257 0.12024 0.37629 0.0
C475 C 0.22303 0.14669 0.42039 0.0
O476 O 0.21083 0.13515 0.40133 0.0
C477 C 0.28335 0.07804 0.34909 0.0
O478 O 0.29446 0.09804 0.36008 0.0
O479 O 0.26516 0.13067 0.32374 0.0
O480 O 0.28806 0.15394 0.35253 0.0
H481 H 0.20635 0.12981 0.25236 0.0
H482 H 0.2694 0.11135 0.4234 0.0
O483 O 0.2461 0.15493 0.41742 0.0
H484 H 0.36036 0.13513 0.40661 0.0
H485 H 0.30349 0.22092 0.44587 0.0
H486 H 0.27867 0.20199 0.3556 0.0
H487 H 0.32477 0.15839 0.38484 0.0
H488 H 0.28625 0.17799 0.43392 0.0
O489 O 0.26003 0.07955 0.34103 0.0
H490 H 0.22439 0.14094 0.29517 0.0
H491 H 0.21983 0.0622 0.31847 0.0
H492 H 0.29596 0.24511 0.36665 0.0
H493 H 0.30438 0.08769 0.44574 0.0
H494 H 0.3085 0.25481 0.41209 0.0
H495 H 0.35024 0.0995 0.43731 0.0
O496 O 0.23887 0.17241 0.3667 0.0
H497 H 0.20343 0.04876 0.40868 0.0
H498 H 0.18016 0.11026 0.33942 0.0
H499 H 0.14557 0.0872 0.36301 0.0
H500 H 0.15715 0.05618 0.3979 0.0
H501 H 0.23738 0.0724 0.38473 0.0
H502 H 0.20185 0.05017 0.27584 0.0
H503 H 0.19494 0.08413 0.24247 0.0
O504 O 0.21604 0.1435 0.34341 0.0
C505 C 0.28391 0.14557 0.32967 0.0
C506 C 0.20916 0.11486 0.26678 0.0
C507 C 0.20668 0.07015 0.27995 0.0
N508 N 0.22294 0.10227 0.30936 0.0
C509 C 0.21928 0.12106 0.29108 0.0
C510 C 0.21689 0.07707 0.30403 0.0
C511 C 0.2028 0.08922 0.26123 0.0
C512 C 0.2893 0.11676 0.41984 0.0
N513 N 0.29504 0.13631 0.40296 0.0
C514 C 0.30903 0.10323 0.43246 0.0
C515 C 0.33476 0.10984 0.42769 0.0
C516 C 0.34045 0.12982 0.41046 0.0
C517 C 0.32023 0.1429 0.39817 0.0
C518 C 0.29818 0.2169 0.42599 0.0
C519 C 0.2843 0.20598 0.37536 0.0
C520 C 0.28838 0.19264 0.41912 0.0
N521 N 0.28168 0.18742 0.39404 0.0
C522 C 0.29399 0.23047 0.38153 0.0
C523 C 0.30098 0.23591 0.40703 0.0
C524 C 0.21992 0.16635 0.35207 0.0
C525 C 0.19815 0.06217 0.39347 0.0
C526 C 0.18533 0.09681 0.3546 0.0
C527 C 0.16567 0.08378 0.36786 0.0
C528 C 0.17218 0.06637 0.38743 0.0
N529 N 0.21074 0.09255 0.36062 0.0
C530 C 0.21729 0.07552 0.37977 0.0
Co531 Co 0.88094 0.23821 0.33498 0.0
Co532 Co 0.84116 0.2658 0.38114 0.0
O533 O 0.87453 0.25203 0.36965 0.0
C534 C 0.91509 0.28378 0.33907 0.0
O535 O 0.89663 0.29511 0.3523 0.0
C536 C 0.85069 0.22048 0.41478 0.0
O537 O 0.86185 0.20919 0.39496 0.0
O538 O 0.82163 0.2378 0.36314 0.0
O539 O 0.8495 0.21614 0.33769 0.0
H540 H 0.74889 0.2944 0.36966 0.0
H541 H 0.92296 0.2372 0.37404 0.0
O542 O 0.91243 0.26052 0.3313 0.0
H543 H 0.90766 0.14585 0.35083 0.0
H544 H 0.93693 0.20444 0.2627 0.0
H545 H 0.84792 0.22619 0.28955 0.0
H546 H 0.88252 0.18072 0.33002 0.0
H547 H 0.92822 0.22107 0.30663 0.0
O548 O 0.84224 0.24358 0.4129 0.0
H549 H 0.79126 0.27771 0.35532 0.0
H550 H 0.82025 0.28302 0.43213 0.0
H551 H 0.85573 0.20947 0.2455 0.0
H552 H 0.94872 0.20297 0.39519 0.0
H553 H 0.90051 0.19847 0.23182 0.0
H554 H 0.94106 0.1569 0.38365 0.0
O555 O 0.86013 0.2661 0.31833 0.0
H556 H 0.91093 0.30146 0.43882 0.0
H557 H 0.83643 0.32329 0.38321 0.0
H558 H 0.86081 0.35832 0.4047 0.0
H559 H 0.89835 0.34747 0.43276 0.0
H560 H 0.88611 0.26706 0.41679 0.0
H561 H 0.77813 0.29959 0.44735 0.0
H562 H 0.74211 0.30546 0.41599 0.0
O563 O 0.83898 0.28774 0.34957 0.0
C564 C 0.82723 0.21926 0.34786 0.0
C565 C 0.76446 0.29204 0.38349 0.0
C566 C 0.78086 0.29491 0.4271 0.0
N567 N 0.80826 0.2796 0.39283 0.0
C568 C 0.78852 0.28268 0.37547 0.0
C569 C 0.80466 0.28549 0.41838 0.0
C570 C 0.76067 0.2982 0.4095 0.0
C571 C 0.9197 0.21722 0.36877 0.0
N572 N 0.90136 0.21096 0.35075 0.0
C573 C 0.93426 0.19791 0.38087 0.0
C574 C 0.92993 0.17207 0.37441 0.0
C575 C 0.91118 0.16585 0.35601 0.0
C576 C 0.89697 0.18566 0.34433 0.0
C577 C 0.91733 0.20909 0.26845 0.0
C578 C 0.86743 0.22124 0.28381 0.0
C579 C 0.91228 0.21854 0.29329 0.0
N580 N 0.88756 0.22437 0.30071 0.0
C581 C 0.87175 0.21187 0.25881 0.0
C582 C 0.89688 0.20574 0.25114 0.0
C583 C 0.84569 0.28458 0.32603 0.0
C584 C 0.89457 0.30643 0.4267 0.0
C585 C 0.85276 0.31844 0.39536 0.0
C586 C 0.86647 0.33834 0.40751 0.0
C587 C 0.88752 0.33224 0.42326 0.0
N588 N 0.85978 0.29317 0.39886 0.0
C589 C 0.88039 0.28703 0.41427 0.0
Co590 Co 0.7391 0.83332 0.36614 0.0
Co591 Co 0.76641 0.88526 0.33392 0.0
O592 O 0.74945 0.86962 0.36394 0.0
C593 C 0.77912 0.83982 0.40579 0.0
O594 O 0.79088 0.85459 0.38882 0.0
C595 C 0.71669 0.91263 0.33746 0.0
O596 O 0.70608 0.89013 0.34257 0.0
O597 O 0.74292 0.86688 0.30949 0.0
O598 O 0.72188 0.83577 0.33165 0.0
H599 H 0.80727 0.88593 0.24559 0.0
H600 H 0.72715 0.86854 0.40981 0.0
O601 O 0.75709 0.82999 0.40048 0.0
H602 H 0.64256 0.83665 0.37891 0.0
H603 H 0.70642 0.75377 0.41208 0.0
H604 H 0.73788 0.78935 0.32922 0.0
H605 H 0.68307 0.82206 0.35821 0.0
H606 H 0.71878 0.79981 0.40854 0.0
O607 O 0.74117 0.91467 0.33503 0.0
H608 H 0.78652 0.86591 0.28368 0.0
H609 H 0.78122 0.93933 0.32034 0.0
H610 H 0.72555 0.7433 0.33183 0.0
H611 H 0.68713 0.88348 0.43123 0.0
H612 H 0.7097 0.72521 0.37351 0.0
H613 H 0.64446 0.86753 0.41574 0.0
O614 O 0.77129 0.82163 0.34898 0.0
H615 H 0.78739 0.93876 0.41241 0.0
H616 H 0.82362 0.89236 0.33724 0.0
H617 H 0.85312 0.91413 0.36789 0.0
H618 H 0.83502 0.93755 0.4058 0.0
H619 H 0.75862 0.91653 0.38138 0.0
H620 H 0.8017 0.96019 0.28254 0.0
H621 H 0.81498 0.93341 0.24486 0.0
O622 O 0.79154 0.85592 0.33153 0.0
C623 C 0.72628 0.84866 0.311 0.0
C624 C 0.80169 0.89779 0.26194 0.0
C625 C 0.79853 0.93947 0.28266 0.0
N626 N 0.78297 0.90139 0.30433 0.0
C627 C 0.79002 0.88655 0.2836 0.0
C628 C 0.78692 0.92756 0.30399 0.0
C629 C 0.80597 0.92443 0.26153 0.0
C630 C 0.70865 0.86138 0.40312 0.0
N631 N 0.70742 0.84434 0.38293 0.0
C632 C 0.68606 0.86997 0.41525 0.0
C633 C 0.66212 0.86103 0.40653 0.0
C634 C 0.66104 0.84371 0.38586 0.0
C635 C 0.68403 0.83556 0.37419 0.0
C636 C 0.71321 0.76145 0.39379 0.0
C637 C 0.73076 0.78169 0.34736 0.0
C638 C 0.72025 0.78748 0.39168 0.0
N639 N 0.72875 0.79731 0.36862 0.0
C640 C 0.72391 0.75557 0.34874 0.0
C641 C 0.71506 0.74543 0.37214 0.0
C642 C 0.79019 0.83185 0.33688 0.0
C643 C 0.79551 0.92867 0.39594 0.0
C644 C 0.81561 0.90248 0.35371 0.0
C645 C 0.83241 0.91481 0.37097 0.0
C646 C 0.82223 0.92795 0.39223 0.0
N647 N 0.78943 0.90328 0.35748 0.0
C648 C 0.77931 0.91615 0.37826 0.0
Co649 Co 0.11881 0.78283 0.3376 0.0
Co650 Co 0.15092 0.75374 0.38868 0.0
O651 O 0.12071 0.77065 0.3735 0.0
C652 C 0.08146 0.74021 0.34158 0.0
O653 O 0.09869 0.72925 0.35661 0.0
C654 C 0.14634 0.80163 0.41927 0.0
O655 O 0.14029 0.81354 0.39767 0.0
O656 O 0.17447 0.77919 0.37212 0.0
O657 O 0.15233 0.80194 0.34207 0.0
H658 H 0.24051 0.71584 0.38776 0.0
H659 H 0.07354 0.78989 0.37214 0.0
O660 O 0.08568 0.76274 0.33229 0.0
H661 H 0.10009 0.87799 0.34653 0.0
H662 H 0.07254 0.81734 0.25907 0.0
H663 H 0.15646 0.7889 0.29463 0.0
H664 H 0.12359 0.83978 0.33009 0.0
H665 H 0.07596 0.80246 0.30437 0.0
O666 O 0.14892 0.77709 0.41967 0.0
H667 H 0.20191 0.73648 0.36866 0.0
H668 H 0.16456 0.73614 0.44195 0.0
H669 H 0.15399 0.80377 0.24932 0.0
H670 H 0.04933 0.82752 0.38887 0.0
H671 H 0.11178 0.81812 0.23125 0.0
H672 H 0.06262 0.87195 0.37609 0.0
O673 O 0.13825 0.75259 0.32431 0.0
H674 H 0.07262 0.72711 0.43983 0.0
H675 H 0.14951 0.69612 0.39246 0.0
H676 H 0.11961 0.66442 0.41211 0.0
H677 H 0.08085 0.67989 0.43599 0.0
H678 H 0.10294 0.75812 0.41969 0.0
H679 H 0.20287 0.71574 0.4619 0.0
H680 H 0.24115 0.70534 0.43471 0.0
O681 O 0.15445 0.73046 0.35796 0.0
C682 C 0.1727 0.79728 0.35538 0.0
C683 C 0.22391 0.72016 0.39979 0.0
C684 C 0.20279 0.72014 0.4414 0.0
N685 N 0.1809 0.73723 0.40411 0.0
C686 C 0.20196 0.73176 0.38906 0.0
C687 C 0.18117 0.73172 0.43001 0.0
C688 C 0.22426 0.71431 0.42614 0.0
C689 C 0.07928 0.80916 0.36634 0.0
N690 N 0.09982 0.81267 0.35005 0.0
C691 C 0.06557 0.83039 0.37594 0.0
C692 C 0.07306 0.85532 0.36879 0.0
C693 C 0.09409 0.85872 0.35221 0.0
C694 C 0.10735 0.83704 0.34301 0.0
C695 C 0.09106 0.81123 0.26675 0.0
C696 C 0.13809 0.79539 0.287 0.0
C697 C 0.09311 0.80279 0.29237 0.0
N698 N 0.11645 0.79515 0.30221 0.0
C699 C 0.13679 0.80367 0.26128 0.0
C700 C 0.11309 0.81167 0.25115 0.0
C701 C 0.15043 0.73341 0.33378 0.0
C702 C 0.08948 0.72014 0.42952 0.0
C703 C 0.13267 0.70298 0.40281 0.0
C704 C 0.11583 0.68495 0.41393 0.0
C705 C 0.09409 0.69364 0.42734 0.0
N706 N 0.12799 0.72893 0.40505 0.0
C707 C 0.10675 0.7376 0.41819 0.0
Co708 Co 0.21333 0.8869 0.66425 0.0
Co709 Co 0.26102 0.86335 0.62353 0.0
O710 O 0.23465 0.88874 0.63312 0.0
C711 C 0.2443 0.93395 0.6704 0.0
O712 O 0.2627 0.92128 0.65838 0.0
C713 C 0.22204 0.86029 0.58232 0.0
O714 O 0.20485 0.85992 0.60098 0.0
O715 O 0.23827 0.83391 0.63347 0.0
O716 O 0.20528 0.84984 0.65703 0.0
H717 H 0.31635 0.78426 0.63553 0.0
H718 H 0.20416 0.92909 0.62658 0.0
O719 O 0.22193 0.92379 0.673 0.0
H720 H 0.12243 0.87972 0.6298 0.0
H721 H 0.14799 0.92048 0.72827 0.0
H722 H 0.20611 0.84811 0.706 0.0
H723 H 0.15955 0.86712 0.65714 0.0
H724 H 0.17514 0.92235 0.68898 0.0
O725 O 0.24613 0.86225 0.58747 0.0
H726 H 0.28324 0.81634 0.64792 0.0
H727 H 0.29423 0.85634 0.57691 0.0
H728 H 0.17907 0.84527 0.74526 0.0
H729 H 0.16746 0.94251 0.59902 0.0
H730 H 0.14976 0.88166 0.75664 0.0
H731 H 0.12627 0.91768 0.6005 0.0
O732 O 0.24323 0.87629 0.68567 0.0
H733 H 0.28236 0.94771 0.57994 0.0
H734 H 0.31577 0.8774 0.63524 0.0
H735 H 0.34414 0.91429 0.62441 0.0
H736 H 0.32745 0.94978 0.59657 0.0
H737 H 0.25455 0.9106 0.5915 0.0
H738 H 0.3273 0.82453 0.5636 0.0
H739 H 0.33863 0.78825 0.59308 0.0
O740 O 0.27576 0.86365 0.65957 0.0
C741 C 0.21722 0.83118 0.64608 0.0
C742 C 0.31168 0.80005 0.62257 0.0
C743 C 0.31779 0.82264 0.58218 0.0
N744 N 0.28709 0.83837 0.61331 0.0
C745 C 0.29303 0.81834 0.62954 0.0
C746 C 0.29904 0.84056 0.5898 0.0
C747 C 0.32414 0.80228 0.59873 0.0
C748 C 0.1862 0.91837 0.62747 0.0
N749 N 0.1839 0.89748 0.64352 0.0
C750 C 0.16553 0.92598 0.61176 0.0
C751 C 0.14243 0.91202 0.61258 0.0
C752 C 0.14027 0.89071 0.62901 0.0
C753 C 0.16135 0.88365 0.64441 0.0
C754 C 0.16063 0.90447 0.72349 0.0
C755 C 0.19323 0.86392 0.7107 0.0
C756 C 0.17607 0.90544 0.7013 0.0
N757 N 0.19196 0.88524 0.69507 0.0
C758 C 0.17805 0.86225 0.73301 0.0
C759 C 0.16163 0.88269 0.73939 0.0
C760 C 0.26627 0.86842 0.68192 0.0
C761 C 0.28987 0.93234 0.59204 0.0
C762 C 0.30836 0.89279 0.62315 0.0
C763 C 0.32453 0.9136 0.61704 0.0
C764 C 0.31516 0.9335 0.6014 0.0
N765 N 0.28357 0.89181 0.61391 0.0
C766 C 0.27426 0.91122 0.59854 0.0
Co767 Co 0.16023 0.25925 0.61788 0.0
Co768 Co 0.11636 0.23066 0.65943 0.0
O769 O 0.12626 0.24461 0.62569 0.0
C770 C 0.15473 0.21395 0.58354 0.0
O771 O 0.14248 0.2022 0.60244 0.0
C772 C 0.08226 0.2754 0.65038 0.0
O773 O 0.10191 0.28663 0.63888 0.0
O774 O 0.13455 0.25893 0.67823 0.0
O775 O 0.15858 0.28117 0.64956 0.0
H776 H 0.13185 0.20214 0.75117 0.0
H777 H 0.11919 0.25975 0.57773 0.0
O778 O 0.16271 0.23715 0.58621 0.0
H779 H 0.14146 0.35144 0.59245 0.0
H780 H 0.22924 0.29447 0.55871 0.0
H781 H 0.20689 0.27205 0.64883 0.0
H782 H 0.16415 0.31682 0.6163 0.0
H783 H 0.18606 0.27703 0.5694 0.0
O784 O 0.08432 0.2525 0.65936 0.0
H785 H 0.14429 0.21906 0.70826 0.0
H786 H 0.06647 0.21285 0.68235 0.0
H787 H 0.25024 0.28959 0.63903 0.0
H788 H 0.09616 0.29373 0.5533 0.0
H789 H 0.26165 0.30092 0.59369 0.0
H790 H 0.1072 0.33996 0.56068 0.0
O791 O 0.17824 0.23159 0.63774 0.0
H792 H 0.05649 0.19387 0.5921 0.0
H793 H 0.11543 0.17318 0.66435 0.0
H794 H 0.09352 0.13773 0.64097 0.0
H795 H 0.06379 0.148 0.60457 0.0
H796 H 0.07897 0.2287 0.61589 0.0
H797 H 0.05313 0.19601 0.72505 0.0
H798 H 0.08596 0.1905 0.75978 0.0
O799 O 0.14843 0.20928 0.66033 0.0
C800 C 0.14926 0.2778 0.67217 0.0
C801 C 0.11738 0.20435 0.73616 0.0
C802 C 0.07319 0.20095 0.72151 0.0
N803 N 0.10616 0.21671 0.69277 0.0
C804 C 0.12433 0.21383 0.7118 0.0
C805 C 0.08085 0.21051 0.69739 0.0
C806 C 0.09163 0.19785 0.74099 0.0
C807 C 0.12427 0.27981 0.58085 0.0
N808 N 0.14306 0.2863 0.59832 0.0
C809 C 0.11109 0.29897 0.56704 0.0
C810 C 0.11728 0.32491 0.57122 0.0
C811 C 0.13649 0.33137 0.58905 0.0
C812 C 0.14923 0.31169 0.60253 0.0
C813 C 0.22447 0.28968 0.57855 0.0
C814 C 0.21164 0.27715 0.62908 0.0
C815 C 0.20007 0.27978 0.58471 0.0
N816 N 0.1939 0.27376 0.60974 0.0
C817 C 0.23625 0.28698 0.62364 0.0
C818 C 0.24265 0.2933 0.59819 0.0
C819 C 0.17156 0.2129 0.65243 0.0
C820 C 0.06935 0.18915 0.60797 0.0
C821 C 0.10255 0.17778 0.6485 0.0
C822 C 0.09017 0.15764 0.63537 0.0
C823 C 0.07348 0.16342 0.61496 0.0
N824 N 0.09837 0.20297 0.64155 0.0
C825 C 0.08204 0.2088 0.62157 0.0
Co826 Co 0.77274 0.1059 0.6521 0.0
Co827 Co 0.74048 0.14779 0.61125 0.0
O828 O 0.75659 0.11449 0.61895 0.0
C829 C 0.72787 0.07107 0.64697 0.0
O830 O 0.71607 0.09033 0.63544 0.0
C831 C 0.78431 0.14326 0.57475 0.0
O832 O 0.79703 0.13109 0.59306 0.0
O833 O 0.76838 0.16694 0.62949 0.0
O834 O 0.79359 0.13848 0.65069 0.0
H835 H 0.70851 0.23716 0.63247 0.0
H836 H 0.77253 0.06699 0.6099 0.0
O837 O 0.75129 0.07346 0.6545 0.0
H838 H 0.86467 0.0841 0.62836 0.0
H839 H 0.81243 0.04532 0.71731 0.0
H840 H 0.78705 0.13556 0.6992 0.0
H841 H 0.83041 0.10622 0.65323 0.0
H842 H 0.7927 0.05705 0.6754 0.0
O843 O 0.76104 0.15064 0.57843 0.0
H844 H 0.72774 0.19453 0.64207 0.0
H845 H 0.71951 0.17222 0.56332 0.0
H846 H 0.80685 0.12472 0.7413 0.0
H847 H 0.80615 0.04428 0.58469 0.0
H848 H 0.81968 0.07931 0.75058 0.0
H849 H 0.8526 0.05286 0.59383 0.0
O850 O 0.74552 0.12434 0.6721 0.0
H851 H 0.70505 0.08171 0.54925 0.0
H852 H 0.68281 0.14967 0.61252 0.0
H853 H 0.64783 0.12552 0.59066 0.0
H854 H 0.65888 0.09127 0.55876 0.0
H855 H 0.7394 0.10621 0.57172 0.0
H856 H 0.70031 0.21467 0.55282 0.0
H857 H 0.69465 0.24746 0.58755 0.0
O858 O 0.72021 0.14599 0.6441 0.0
C859 C 0.78828 0.16136 0.64298 0.0
C860 C 0.71075 0.22299 0.61719 0.0
C861 C 0.70619 0.21038 0.57248 0.0
N862 N 0.7245 0.18082 0.60333 0.0
C863 C 0.72153 0.19878 0.62253 0.0
C864 C 0.71709 0.18639 0.57853 0.0
C865 C 0.70302 0.22877 0.59198 0.0
C866 C 0.79271 0.07062 0.61414 0.0
N867 N 0.79952 0.08777 0.6331 0.0
C868 C 0.81165 0.05779 0.59974 0.0
C869 C 0.83771 0.06264 0.60485 0.0
C870 C 0.8445 0.08018 0.62422 0.0
C871 C 0.82503 0.09267 0.63821 0.0
C872 C 0.80698 0.06519 0.71347 0.0
C873 C 0.79277 0.1158 0.70302 0.0
C874 C 0.79578 0.07194 0.6898 0.0
N875 N 0.78893 0.097 0.6848 0.0
C876 C 0.80389 0.10976 0.72692 0.0
C877 C 0.81105 0.08427 0.73213 0.0
C878 C 0.7257 0.13802 0.66684 0.0
C879 C 0.69999 0.09664 0.56306 0.0
C880 C 0.68775 0.13478 0.59868 0.0
C881 C 0.66787 0.12119 0.58634 0.0
C882 C 0.67409 0.10199 0.56843 0.0
N883 N 0.7131 0.12943 0.59328 0.0
C884 C 0.71935 0.11064 0.57575 0.0
Co885 Co 0.84095 0.73957 0.61465 0.0
Co886 Co 0.87876 0.78229 0.64978 0.0
O887 O 0.87228 0.75987 0.62013 0.0
C888 C 0.84385 0.77647 0.57198 0.0
O889 O 0.85084 0.79309 0.58983 0.0
C890 C 0.91931 0.7428 0.65152 0.0
O891 O 0.90061 0.72594 0.64841 0.0
O892 O 0.86576 0.75562 0.6741 0.0
O893 O 0.84209 0.72683 0.65136 0.0
H894 H 0.8581 0.82546 0.73449 0.0
H895 H 0.88491 0.73412 0.57816 0.0
O896 O 0.83894 0.75302 0.57807 0.0
H897 H 0.87192 0.64724 0.61562 0.0
H898 H 0.78192 0.68164 0.56308 0.0
H899 H 0.79349 0.72896 0.64523 0.0
H900 H 0.8437 0.68362 0.62832 0.0
H901 H 0.82151 0.70726 0.57103 0.0
O902 O 0.91448 0.767 0.65241 0.0
H903 H 0.84934 0.79765 0.69665 0.0
H904 H 0.92423 0.81353 0.66663 0.0
H905 H 0.75377 0.70334 0.63825 0.0
H906 H 0.91349 0.69826 0.56477 0.0
H907 H 0.74778 0.67947 0.59691 0.0
H908 H 0.90709 0.65446 0.5836 0.0
O909 O 0.81866 0.7686 0.62565 0.0
H910 H 0.93123 0.81518 0.57469 0.0
H911 H 0.86858 0.83865 0.64282 0.0
H912 H 0.88347 0.87202 0.61203 0.0
H913 H 0.91503 0.86035 0.57767 0.0
H914 H 0.91564 0.78237 0.60571 0.0
H915 H 0.93394 0.84132 0.70428 0.0
H916 H 0.90068 0.84752 0.73847 0.0
O917 O 0.84287 0.7973 0.64783 0.0
C918 C 0.85184 0.73528 0.67253 0.0
C919 C 0.8727 0.82302 0.71965 0.0
C920 C 0.91528 0.8319 0.70271 0.0
N921 N 0.88611 0.8043 0.67929 0.0
C922 C 0.8678 0.8074 0.69813 0.0
C923 C 0.90969 0.81612 0.68146 0.0
C924 C 0.89661 0.83537 0.72189 0.0
C925 C 0.88188 0.71505 0.58624 0.0
N926 N 0.86258 0.7109 0.60385 0.0
C927 C 0.89817 0.69485 0.57868 0.0
C928 C 0.8946 0.67029 0.58928 0.0
C929 C 0.87487 0.66622 0.60725 0.0
C930 C 0.85898 0.68689 0.61439 0.0
C931 C 0.78434 0.6919 0.5812 0.0
C932 C 0.79113 0.71843 0.62729 0.0
C933 C 0.80668 0.70646 0.58578 0.0
N934 N 0.80991 0.71933 0.60868 0.0
C935 C 0.76855 0.70405 0.62341 0.0
C936 C 0.76519 0.69068 0.60019 0.0
C937 C 0.82138 0.78963 0.6382 0.0
C938 C 0.91754 0.82052 0.58963 0.0
C939 C 0.88229 0.83343 0.6279 0.0
C940 C 0.89069 0.85241 0.61055 0.0
C941 C 0.90841 0.84586 0.59129 0.0
N942 N 0.89135 0.80863 0.62614 0.0
C943 C 0.90874 0.80206 0.60733 0.0
Co944 Co 0.33979 0.23195 0.118 0.0
Co945 Co 0.38577 0.26779 0.15081 0.0
O946 O 0.37409 0.24772 0.12097 0.0
C947 C 0.34291 0.27182 0.07781 0.0
O948 O 0.3555 0.28541 0.09512 0.0
C949 C 0.41942 0.22199 0.149 0.0
O950 O 0.39935 0.20936 0.13992 0.0
O951 O 0.36931 0.24324 0.17518 0.0
O952 O 0.34399 0.21556 0.15293 0.0
H953 H 0.37547 0.31256 0.23659 0.0
H954 H 0.37766 0.22505 0.0754 0.0
O955 O 0.3349 0.24907 0.08326 0.0
H956 H 0.35826 0.13698 0.10682 0.0
H957 H 0.26745 0.18728 0.07028 0.0
H958 H 0.2956 0.22403 0.15383 0.0
H959 H 0.33692 0.17498 0.12636 0.0
H960 H 0.31091 0.20667 0.07491 0.0
O961 O 0.41809 0.24631 0.15308 0.0
H962 H 0.36074 0.28773 0.19852 0.0
H963 H 0.43661 0.28987 0.16684 0.0
H964 H 0.25209 0.20468 0.15014 0.0
H965 H 0.39929 0.18759 0.05514 0.0
H966 H 0.23775 0.18613 0.10811 0.0
H967 H 0.38968 0.14318 0.07093 0.0
O968 O 0.32277 0.26212 0.13445 0.0
H969 H 0.4409 0.29183 0.07439 0.0
H970 H 0.38586 0.32521 0.14491 0.0
H971 H 0.40557 0.35583 0.11395 0.0
H972 H 0.43331 0.33915 0.07838 0.0
H973 H 0.42063 0.26191 0.10569 0.0
H974 H 0.45223 0.31449 0.2047 0.0
H975 H 0.42153 0.32609 0.23986 0.0
O976 O 0.3533 0.28889 0.15006 0.0
C977 C 0.35497 0.22321 0.17377 0.0
C978 C 0.38901 0.30773 0.22135 0.0
C979 C 0.4321 0.30878 0.20346 0.0
N980 N 0.39773 0.28763 0.18036 0.0
C981 C 0.38076 0.29377 0.1997 0.0
C982 C 0.42315 0.29482 0.18209 0.0
C983 C 0.41486 0.31528 0.22318 0.0
C984 C 0.3732 0.20576 0.08217 0.0
N985 N 0.35594 0.20217 0.1019 0.0
C986 C 0.38558 0.18464 0.07071 0.0
C987 C 0.3802 0.15972 0.07961 0.0
C988 C 0.36259 0.15623 0.09976 0.0
C989 C 0.35059 0.17781 0.11076 0.0
C990 C 0.27351 0.19522 0.08871 0.0
C991 C 0.28959 0.21577 0.13555 0.0
C992 C 0.29807 0.20624 0.09143 0.0
N993 N 0.30586 0.2162 0.11468 0.0
C994 C 0.26489 0.20494 0.13355 0.0
C995 C 0.25685 0.19458 0.10995 0.0
C996 C 0.32974 0.28322 0.14512 0.0
C997 C 0.42891 0.29934 0.08985 0.0
C998 C 0.39791 0.31784 0.12948 0.0
C999 C 0.40904 0.33525 0.11203 0.0
C1000 C 0.42462 0.32588 0.09208 0.0
N1001 N 0.40223 0.29184 0.12715 0.0
C1002 C 0.41749 0.2825 0.10768 0.0
Co1003 Co 0.36887 0.7343 0.84083 0.0
Co1004 Co 0.33506 0.76731 0.88833 0.0
O1005 O 0.36547 0.74875 0.87569 0.0
C1006 C 0.40901 0.77428 0.84527 0.0
O1007 O 0.39152 0.78781 0.85769 0.0
C1008 C 0.34 0.72168 0.92228 0.0
O1009 O 0.34739 0.70875 0.90171 0.0
O1010 O 0.3114 0.74165 0.87233 0.0
O1011 O 0.33399 0.71757 0.84388 0.0
H1012 H 0.24699 0.8079 0.8807 0.0
H1013 H 0.41095 0.72612 0.87903 0.0
O1014 O 0.40363 0.75161 0.83702 0.0
H1015 H 0.38008 0.63872 0.85601 0.0
H1016 H 0.4176 0.69243 0.76757 0.0
H1017 H 0.33366 0.72798 0.79589 0.0
H1018 H 0.36074 0.67742 0.83575 0.0
H1019 H 0.41239 0.7102 0.81164 0.0
O1020 O 0.33502 0.74581 0.92073 0.0
H1021 H 0.28576 0.78499 0.86479 0.0
H1022 H 0.31949 0.78841 0.93974 0.0
H1023 H 0.33793 0.71023 0.75177 0.0
H1024 H 0.43099 0.68795 0.89963 0.0
H1025 H 0.38017 0.69229 0.73734 0.0
H1026 H 0.41548 0.64388 0.88819 0.0
O1027 O 0.35262 0.76513 0.82471 0.0
H1028 H 0.412 0.79482 0.94113 0.0
H1029 H 0.33807 0.82498 0.88873 0.0
H1030 H 0.36811 0.85697 0.90767 0.0
H1031 H 0.40539 0.84193 0.93408 0.0
H1032 H 0.38158 0.7635 0.92166 0.0
H1033 H 0.28098 0.81111 0.95654 0.0
H1034 H 0.24443 0.8211 0.92689 0.0
O1035 O 0.3339 0.78873 0.85606 0.0
C1036 C 0.31321 0.72311 0.85613 0.0
C1037 C 0.26283 0.80375 0.89378 0.0
C1038 C 0.2819 0.80553 0.93635 0.0
N1039 N 0.30496 0.78562 0.90126 0.0
C1040 C 0.28487 0.79088 0.88486 0.0
C1041 C 0.30363 0.79263 0.92675 0.0
C1042 C 0.2614 0.81113 0.91971 0.0
C1043 C 0.4043 0.70699 0.87378 0.0
N1044 N 0.38483 0.70397 0.85611 0.0
C1045 C 0.41563 0.68546 0.88558 0.0
C1046 C 0.40689 0.66073 0.87918 0.0
C1047 C 0.38702 0.65782 0.86114 0.0
C1048 C 0.37612 0.6798 0.84976 0.0
C1049 C 0.39909 0.70011 0.77366 0.0
C1050 C 0.35203 0.72 0.78983 0.0
C1051 C 0.39603 0.71022 0.79856 0.0
N1052 N 0.37267 0.71986 0.80639 0.0
C1053 C 0.35436 0.71007 0.76479 0.0
C1054 C 0.37807 0.70004 0.75671 0.0
C1055 C 0.34028 0.785 0.83247 0.0
C1056 C 0.39578 0.80161 0.92972 0.0
C1057 C 0.35425 0.8183 0.9002 0.0
C1058 C 0.37117 0.8365 0.9109 0.0
C1059 C 0.39208 0.82804 0.92573 0.0
N1060 N 0.35802 0.79242 0.90422 0.0
C1061 C 0.37844 0.78398 0.91876 0.0
Co1062 Co 0.22926 0.34459 0.88097 0.0
Co1063 Co 0.26199 0.39275 0.84793 0.0
O1064 O 0.24383 0.37945 0.87836 0.0
C1065 C 0.27083 0.34702 0.91942 0.0
O1066 O 0.28338 0.36061 0.90206 0.0
C1067 C 0.21611 0.4261 0.85404 0.0
O1068 O 0.20364 0.40578 0.86277 0.0
O1069 O 0.23627 0.37686 0.82432 0.0
O1070 O 0.2114 0.34904 0.84685 0.0
H1071 H 0.30116 0.38718 0.75903 0.0
H1072 H 0.22286 0.38092 0.92491 0.0
O1073 O 0.24783 0.33923 0.91481 0.0
H1074 H 0.13423 0.35953 0.89641 0.0
H1075 H 0.18873 0.26959 0.92826 0.0
H1076 H 0.22193 0.30094 0.84439 0.0
H1077 H 0.17209 0.34013 0.87468 0.0
H1078 H 0.20631 0.31385 0.92409 0.0
O1079 O 0.24013 0.4247 0.8485 0.0
H1080 H 0.27917 0.37029 0.79794 0.0
H1081 H 0.28241 0.44461 0.83297 0.0
H1082 H 0.20434 0.25667 0.84761 0.0
H1083 H 0.18556 0.40061 0.94735 0.0
H1084 H 0.18759 0.24071 0.8898 0.0
H1085 H 0.14087 0.38998 0.93306 0.0
O1086 O 0.25937 0.3291 0.86303 0.0
H1087 H 0.28985 0.44476 0.92527 0.0
H1088 H 0.31967 0.39371 0.85029 0.0
H1089 H 0.35182 0.41259 0.88019 0.0
H1090 H 0.33695 0.43832 0.918 0.0
H1091 H 0.25836 0.42535 0.89498 0.0
H1092 H 0.30418 0.46239 0.79433 0.0
H1093 H 0.31378 0.43356 0.75705 0.0
O1094 O 0.28371 0.36081 0.84594 0.0
C1095 C 0.21725 0.36123 0.82612 0.0
C1096 C 0.29719 0.39991 0.7752 0.0
C1097 C 0.29886 0.44213 0.795 0.0
N1098 N 0.27981 0.40637 0.81781 0.0
C1099 C 0.28485 0.39043 0.79732 0.0
C1100 C 0.28651 0.43196 0.81681 0.0
C1101 C 0.30424 0.42594 0.77409 0.0
C1102 C 0.20346 0.37604 0.91876 0.0
N1103 N 0.19962 0.35931 0.89863 0.0
C1104 C 0.18242 0.38732 0.93146 0.0
C1105 C 0.15735 0.38137 0.9234 0.0
C1106 C 0.15361 0.3643 0.90283 0.0
C1107 C 0.17511 0.35341 0.89057 0.0
C1108 C 0.19587 0.27635 0.90975 0.0
C1109 C 0.21442 0.29424 0.86274 0.0
C1110 C 0.20585 0.30138 0.90728 0.0
N1111 N 0.2148 0.31007 0.88394 0.0
C1112 C 0.20459 0.26911 0.86447 0.0
C1113 C 0.19524 0.26016 0.88816 0.0
C1114 C 0.27945 0.33704 0.85115 0.0
C1115 C 0.29657 0.43364 0.90883 0.0
C1116 C 0.31306 0.40489 0.86671 0.0
C1117 C 0.33135 0.41555 0.88355 0.0
C1118 C 0.32299 0.43 0.90475 0.0
N1119 N 0.28718 0.40856 0.87084 0.0
C1120 C 0.27883 0.42272 0.89156 0.0
Co1121 Co 0.6232 0.26216 0.83927 0.0
Co1122 Co 0.66375 0.22614 0.87868 0.0
O1123 O 0.63111 0.24383 0.87139 0.0
C1124 C 0.58582 0.2196 0.84304 0.0
O1125 O 0.60509 0.2059 0.85223 0.0
C1126 C 0.65933 0.26817 0.91645 0.0
O1127 O 0.6501 0.28173 0.89711 0.0
O1128 O 0.68409 0.25467 0.86336 0.0
O1129 O 0.65749 0.28049 0.84044 0.0
H1130 H 0.75248 0.19223 0.85778 0.0
H1131 H 0.58539 0.26344 0.88239 0.0
O1132 O 0.58912 0.24336 0.83705 0.0
H1133 H 0.6096 0.35454 0.8671 0.0
H1134 H 0.56473 0.30967 0.77747 0.0
H1135 H 0.65265 0.27532 0.79177 0.0
H1136 H 0.62813 0.31966 0.84024 0.0
H1137 H 0.57566 0.28704 0.81813 0.0
O1138 O 0.66585 0.24456 0.91309 0.0
H1139 H 0.71112 0.21424 0.8485 0.0
H1140 H 0.68591 0.20114 0.92568 0.0
H1141 H 0.64268 0.29809 0.75097 0.0
H1142 H 0.56624 0.29772 0.9096 0.0
H1143 H 0.59842 0.31543 0.74361 0.0
H1144 H 0.57842 0.34364 0.90207 0.0
O1145 O 0.63871 0.23428 0.81829 0.0
H1146 H 0.5948 0.18815 0.93584 0.0
H1147 H 0.66388 0.16874 0.87285 0.0
H1148 H 0.63796 0.13298 0.89111 0.0
H1149 H 0.60313 0.14261 0.92285 0.0
H1150 H 0.62107 0.22333 0.91694 0.0
H1151 H 0.72712 0.17923 0.93592 0.0
H1152 H 0.76069 0.17457 0.90178 0.0
O1153 O 0.66253 0.20832 0.84401 0.0
C1154 C 0.67968 0.27477 0.8498 0.0
C1155 C 0.73796 0.19404 0.87279 0.0
C1156 C 0.72374 0.18677 0.91665 0.0
N1157 N 0.69602 0.20866 0.88644 0.0
C1158 C 0.71446 0.20638 0.86761 0.0
C1159 C 0.70046 0.19922 0.91076 0.0
C1160 C 0.74256 0.18416 0.89749 0.0
C1161 C 0.59054 0.28341 0.87883 0.0
N1162 N 0.60771 0.28957 0.85967 0.0
C1163 C 0.57974 0.30272 0.89437 0.0
C1164 C 0.58661 0.32848 0.89016 0.0
C1165 C 0.60412 0.33461 0.87055 0.0
C1166 C 0.61457 0.31478 0.85542 0.0
C1167 C 0.5841 0.30229 0.78049 0.0
C1168 C 0.63344 0.28305 0.78881 0.0
C1169 C 0.59039 0.28944 0.80344 0.0
N1170 N 0.61486 0.28019 0.80742 0.0
C1171 C 0.62786 0.29582 0.76562 0.0
C1172 C 0.60302 0.30552 0.7615 0.0
C1173 C 0.65264 0.21432 0.82209 0.0
C1174 C 0.60997 0.18371 0.92209 0.0
C1175 C 0.64875 0.17307 0.88665 0.0
C1176 C 0.63416 0.15275 0.89695 0.0
C1177 C 0.61463 0.15816 0.91476 0.0
N1178 N 0.64406 0.19806 0.89395 0.0
C1179 C 0.62498 0.20353 0.91142 0.0
Co1180 Co 0.75874 0.64792 0.87934 0.0
Co1181 Co 0.72617 0.61738 0.82944 0.0
O1182 O 0.74213 0.6177 0.8638 0.0
C1183 C 0.71513 0.63494 0.91394 0.0
O1184 O 0.70242 0.62679 0.89352 0.0
C1185 C 0.77031 0.58206 0.82624 0.0
O1186 O 0.78244 0.59928 0.8404 0.0
O1187 O 0.75427 0.63888 0.81447 0.0
O1188 O 0.77871 0.65449 0.84688 0.0
H1189 H 0.69485 0.65692 0.74624 0.0
H1190 H 0.75976 0.59784 0.90727 0.0
O1191 O 0.73846 0.64279 0.91199 0.0
H1192 H 0.85134 0.62047 0.89231 0.0
H1193 H 0.80056 0.6975 0.95213 0.0
H1194 H 0.7716 0.70088 0.86116 0.0
H1195 H 0.81642 0.64963 0.87775 0.0
H1196 H 0.78048 0.65932 0.93159 0.0
O1197 O 0.74661 0.58553 0.82018 0.0
H1198 H 0.71448 0.65722 0.78977 0.0
H1199 H 0.7046 0.5758 0.79572 0.0
H1200 H 0.79183 0.73943 0.88085 0.0
H1201 H 0.79407 0.56819 0.92235 0.0
H1202 H 0.80644 0.73789 0.92666 0.0
H1203 H 0.84023 0.57942 0.91479 0.0
O1204 O 0.7308 0.67102 0.8669 0.0
H1205 H 0.68959 0.54314 0.88059 0.0
H1206 H 0.66857 0.62005 0.82803 0.0
H1207 H 0.63317 0.59403 0.84687 0.0
H1208 H 0.64361 0.55525 0.87333 0.0
H1209 H 0.72437 0.56985 0.86157 0.0
H1210 H 0.68506 0.57455 0.75211 0.0
H1211 H 0.67998 0.61534 0.72711 0.0
O1212 O 0.70636 0.64958 0.83786 0.0
C1213 C 0.77376 0.65146 0.82286 0.0
C1214 C 0.69681 0.63903 0.75699 0.0
C1215 C 0.69135 0.5928 0.76028 0.0
N1216 N 0.71032 0.61661 0.79541 0.0
C1217 C 0.70779 0.6391 0.7817 0.0
C1218 C 0.70244 0.59362 0.78494 0.0
C1219 C 0.68851 0.61569 0.74626 0.0
C1220 C 0.77982 0.60295 0.90416 0.0
N1221 N 0.78611 0.62547 0.89179 0.0
C1222 C 0.79915 0.58605 0.91263 0.0
C1223 C 0.82505 0.59235 0.90836 0.0
C1224 C 0.8313 0.61538 0.89573 0.0
C1225 C 0.81145 0.63179 0.88751 0.0
C1226 C 0.79435 0.69839 0.93212 0.0
C1227 C 0.77814 0.69999 0.88103 0.0
C1228 C 0.78295 0.67684 0.9204 0.0
N1229 N 0.77514 0.6778 0.89512 0.0
C1230 C 0.78948 0.72191 0.89211 0.0
C1231 C 0.79764 0.72104 0.91782 0.0
C1232 C 0.71133 0.66939 0.85184 0.0
C1233 C 0.68479 0.55995 0.86903 0.0
C1234 C 0.67324 0.60323 0.83958 0.0
C1235 C 0.65313 0.58855 0.85015 0.0
C1236 C 0.659 0.56678 0.86498 0.0
N1237 N 0.69848 0.59637 0.84361 0.0
C1238 C 0.7044 0.57507 0.85813 0.0
Co1239 Co 0.64335 0.74419 0.10905 0.0
Co1240 Co 0.6243 0.70508 0.15983 0.0
O1241 O 0.61853 0.72107 0.12602 0.0
C1242 C 0.63921 0.69851 0.0749 0.0
O1243 O 0.63465 0.68449 0.09556 0.0
C1244 C 0.57913 0.73909 0.16755 0.0
O1245 O 0.5898 0.75518 0.15104 0.0
O1246 O 0.63974 0.73736 0.17392 0.0
O1247 O 0.64617 0.76533 0.14123 0.0
H1248 H 0.67637 0.68335 0.2391 0.0
H1249 H 0.59332 0.7328 0.08331 0.0
O1250 O 0.64186 0.72299 0.0766 0.0
H1251 H 0.59356 0.82718 0.09779 0.0
H1252 H 0.67786 0.79632 0.03423 0.0
H1253 H 0.69225 0.7699 0.12489 0.0
H1254 H 0.63097 0.80052 0.11089 0.0
H1255 H 0.64677 0.76757 0.05638 0.0
O1256 O 0.58966 0.71728 0.17228 0.0
H1257 H 0.66871 0.70278 0.19616 0.0
H1258 H 0.59172 0.67378 0.19586 0.0
H1259 H 0.72369 0.79889 0.10358 0.0
H1260 H 0.55559 0.75875 0.06968 0.0
H1261 H 0.71659 0.81226 0.05792 0.0
H1262 H 0.55553 0.80628 0.077 0.0
O1263 O 0.67347 0.7229 0.12029 0.0
H1264 H 0.55671 0.65304 0.11308 0.0
H1265 H 0.64007 0.64955 0.15958 0.0
H1266 H 0.6214 0.60937 0.14168 0.0
H1267 H 0.57941 0.61097 0.11826 0.0
H1268 H 0.5762 0.69279 0.13111 0.0
H1269 H 0.5985 0.65413 0.2389 0.0
H1270 H 0.64111 0.65879 0.26076 0.0
O1271 O 0.65918 0.6932 0.14864 0.0
C1272 C 0.64618 0.75956 0.16524 0.0
C1273 C 0.65777 0.68106 0.22972 0.0
C1274 C 0.61405 0.6647 0.22961 0.0
N1275 N 0.62991 0.68913 0.19338 0.0
C1276 C 0.65334 0.69193 0.20535 0.0
C1277 C 0.61032 0.67587 0.20526 0.0
C1278 C 0.63796 0.66732 0.24187 0.0
C1279 C 0.59353 0.75351 0.0863 0.0
N1280 N 0.61435 0.76516 0.09773 0.0
C1281 C 0.57207 0.76809 0.07865 0.0
C1282 C 0.57204 0.79475 0.0828 0.0
C1283 C 0.59337 0.80649 0.09447 0.0
C1284 C 0.61447 0.7913 0.10189 0.0
C1285 C 0.68113 0.79068 0.05416 0.0
C1286 C 0.68891 0.77582 0.10509 0.0
C1287 C 0.66361 0.77438 0.06678 0.0
N1288 N 0.66758 0.76726 0.09197 0.0
C1289 C 0.70683 0.79215 0.09309 0.0
C1290 C 0.70285 0.79962 0.06746 0.0
C1291 C 0.67692 0.70311 0.13462 0.0
C1292 C 0.57498 0.65208 0.12331 0.0
C1293 C 0.62181 0.65039 0.14936 0.0
C1294 C 0.61132 0.62758 0.13932 0.0
C1295 C 0.58774 0.62849 0.12619 0.0
N1296 N 0.60914 0.67344 0.14648 0.0
C1297 C 0.58604 0.6745 0.13364 0.0
Co1298 Co 0.28201 0.61576 0.16908 0.0
Co1299 Co 0.24662 0.65929 0.13229 0.0
O1300 O 0.26263 0.62551 0.13799 0.0
C1301 C 0.2369 0.58142 0.16749 0.0
O1302 O 0.2241 0.60174 0.15932 0.0
C1303 C 0.2848 0.65312 0.09043 0.0
O1304 O 0.29973 0.642 0.10768 0.0
O1305 O 0.27767 0.67733 0.14556 0.0
O1306 O 0.30234 0.64886 0.1676 0.0
H1307 H 0.22037 0.74966 0.15685 0.0
H1308 H 0.27848 0.57873 0.12541 0.0
O1309 O 0.26119 0.58293 0.17181 0.0
H1310 H 0.37164 0.59709 0.13575 0.0
H1311 H 0.32903 0.55295 0.22685 0.0
H1312 H 0.29913 0.64302 0.21665 0.0
H1313 H 0.33954 0.61724 0.16483 0.0
H1314 H 0.30516 0.56634 0.18766 0.0
O1315 O 0.26217 0.66084 0.09663 0.0
H1316 H 0.2403 0.70683 0.16384 0.0
H1317 H 0.21957 0.68387 0.08762 0.0
H1318 H 0.3232 0.63059 0.256 0.0
H1319 H 0.30992 0.55799 0.09601 0.0
H1320 H 0.3383 0.58523 0.26129 0.0
H1321 H 0.35686 0.56722 0.10105 0.0
O1322 O 0.25645 0.63262 0.19205 0.0
H1323 H 0.19974 0.59395 0.07755 0.0
H1324 H 0.18993 0.66329 0.14246 0.0
H1325 H 0.15119 0.64017 0.12669 0.0
H1326 H 0.15598 0.60522 0.09399 0.0
H1327 H 0.23798 0.61745 0.09402 0.0
H1328 H 0.19973 0.72659 0.07965 0.0
H1329 H 0.19993 0.75977 0.11448 0.0
O1330 O 0.2314 0.65885 0.16802 0.0
C1331 C 0.29788 0.67138 0.15837 0.0
C1332 C 0.22007 0.73533 0.14155 0.0
C1333 C 0.20851 0.72239 0.09822 0.0
N1334 N 0.23082 0.69279 0.12626 0.0
C1335 C 0.23123 0.71101 0.14544 0.0
C1336 C 0.21982 0.69826 0.10282 0.0
C1337 C 0.20863 0.741 0.11777 0.0
C1338 C 0.2989 0.58261 0.12787 0.0
N1339 N 0.3072 0.59904 0.14687 0.0
C1340 C 0.3166 0.57091 0.1111 0.0
C1341 C 0.34293 0.57613 0.11392 0.0
C1342 C 0.35124 0.5929 0.13337 0.0
C1343 C 0.33298 0.60428 0.14975 0.0
C1344 C 0.32266 0.57279 0.22471 0.0
C1345 C 0.30594 0.62335 0.21867 0.0
C1346 C 0.30914 0.58048 0.20258 0.0
N1347 N 0.30116 0.60554 0.19971 0.0
C1348 C 0.31942 0.61638 0.24106 0.0
C1349 C 0.32786 0.59092 0.24403 0.0
C1350 C 0.23767 0.64836 0.18953 0.0
C1351 C 0.1974 0.60919 0.09174 0.0
C1352 C 0.19216 0.6481 0.12824 0.0
C1353 C 0.17015 0.6351 0.11936 0.0
C1354 C 0.17285 0.6155 0.101 0.0
N1355 N 0.21615 0.64179 0.11905 0.0
C1356 C 0.21896 0.62263 0.10104 0.0
Co1357 Co 0.71432 0.38831 0.15359 0.0
Co1358 Co 0.75634 0.34897 0.1194 0.0
O1359 O 0.73642 0.38099 0.12378 0.0
C1360 C 0.75388 0.42987 0.15525 0.0
O1361 O 0.77091 0.41317 0.14651 0.0
C1362 C 0.7173 0.34852 0.07819 0.0
O1363 O 0.70186 0.35897 0.09538 0.0
O1364 O 0.72819 0.32709 0.13397 0.0
O1365 O 0.69816 0.35336 0.15105 0.0
H1366 H 0.79398 0.26386 0.14769 0.0
H1367 H 0.71564 0.42533 0.10986 0.0
O1368 O 0.73016 0.42345 0.15756 0.0
H1369 H 0.62478 0.39648 0.11582 0.0
H1370 H 0.65662 0.44408 0.20892 0.0
H1371 H 0.69809 0.35857 0.19995 0.0
H1372 H 0.65749 0.38027 0.14663 0.0
H1373 H 0.684 0.43425 0.17104 0.0
O1374 O 0.74082 0.34365 0.084 0.0
H1375 H 0.76891 0.30412 0.153 0.0
H1376 H 0.78629 0.32617 0.07569 0.0
H1377 H 0.67068 0.36749 0.23803 0.0
H1378 H 0.68352 0.44222 0.07875 0.0
H1379 H 0.64973 0.41052 0.2427 0.0
H1380 H 0.63774 0.42769 0.08158 0.0
O1381 O 0.74087 0.37461 0.17783 0.0
H1382 H 0.79401 0.41707 0.06102 0.0
H1383 H 0.81299 0.35317 0.12942 0.0
H1384 H 0.84832 0.38035 0.11217 0.0
H1385 H 0.83891 0.41256 0.07769 0.0
H1386 H 0.75924 0.38963 0.079 0.0
H1387 H 0.81137 0.28599 0.06942 0.0
H1388 H 0.81541 0.25457 0.10563 0.0
O1389 O 0.77119 0.35326 0.15487 0.0
C1390 C 0.70636 0.33099 0.1447 0.0
C1391 C 0.79246 0.27745 0.1318 0.0
C1392 C 0.80219 0.28986 0.08786 0.0
N1393 N 0.77641 0.3176 0.11478 0.0
C1394 C 0.77839 0.30033 0.13473 0.0
C1395 C 0.78795 0.31255 0.09151 0.0
C1396 C 0.80445 0.27224 0.10819 0.0
C1397 C 0.6957 0.41914 0.11134 0.0
N1398 N 0.68841 0.40194 0.13008 0.0
C1399 C 0.67762 0.42867 0.09362 0.0
C1400 C 0.65195 0.42049 0.0952 0.0
C1401 C 0.64466 0.40296 0.1144 0.0
C1402 C 0.66327 0.39382 0.13176 0.0
C1403 C 0.66559 0.42523 0.20707 0.0
C1404 C 0.68888 0.37727 0.20175 0.0
C1405 C 0.68114 0.41957 0.18569 0.0
N1406 N 0.69243 0.39578 0.18318 0.0
C1407 C 0.67345 0.38224 0.2234 0.0
C1408 C 0.66173 0.40639 0.22602 0.0
C1409 C 0.7623 0.36244 0.17605 0.0
C1410 C 0.79837 0.40306 0.07599 0.0
C1411 C 0.80876 0.36718 0.11445 0.0
C1412 C 0.82884 0.38248 0.10473 0.0
C1413 C 0.82355 0.40054 0.08537 0.0
N1414 N 0.78413 0.36974 0.1051 0.0
C1415 C 0.77878 0.38741 0.08616 0.0
H1416 H 0.24875 0.54448 0.2038 0.0
H1417 H 0.19175 0.56566 0.14574 0.0
H1418 H 0.16477 0.52835 0.15854 0.0
H1419 H 0.24221 0.47474 0.19757 0.0
H1420 H 0.24564 0.46893 0.23182 0.0
H1421 H 0.26105 0.49662 0.21723 0.0
H1422 H 0.2377 0.52662 0.24996 0.0
H1423 H 0.22192 0.49905 0.2644 0.0
H1424 H 0.20287 0.52566 0.25228 0.0
H1425 H 0.14436 0.48891 0.17688 0.0
H1426 H 0.1317 0.44886 0.19967 0.0
H1427 H 0.20018 0.45459 0.24804 0.0
C1428 C 0.23079 0.54096 0.19355 0.0
C1429 C 0.22236 0.55772 0.17365 0.0
C1430 C 0.19852 0.55293 0.161 0.0
C1431 C 0.18306 0.53186 0.16815 0.0
C1432 C 0.19159 0.51601 0.18821 0.0
C1433 C 0.21486 0.52023 0.20076 0.0
C1434 C 0.21908 0.50054 0.22212 0.0
C1435 C 0.24344 0.48424 0.21686 0.0
C1436 C 0.22047 0.51377 0.24877 0.0
C1437 C 0.19464 0.48451 0.21944 0.0
C1438 C 0.17914 0.49378 0.19967 0.0
C1439 C 0.15618 0.48158 0.19256 0.0
C1440 C 0.14914 0.45893 0.20562 0.0
C1441 C 0.16482 0.44896 0.22576 0.0
C1442 C 0.18759 0.46217 0.23309 0.0
H1443 H 0.54248 0.19064 0.23705 0.0
H1444 H 0.54771 0.11747 0.19627 0.0
H1445 H 0.50781 0.1279 0.17205 0.0
H1446 H 0.47057 0.19479 0.23966 0.0
H1447 H 0.47076 0.2292 0.23382 0.0
H1448 H 0.49743 0.21424 0.25063 0.0
H1449 H 0.52915 0.23375 0.21698 0.0
H1450 H 0.50256 0.24829 0.19975 0.0
H1451 H 0.5245 0.22689 0.18306 0.0
H1452 H 0.46962 0.14726 0.15026 0.0
H1453 H 0.43418 0.17412 0.13277 0.0
H1454 H 0.4552 0.23611 0.18557 0.0
C1455 C 0.53459 0.17651 0.22369 0.0
C1456 C 0.54763 0.15306 0.21877 0.0
C1457 C 0.53759 0.13537 0.20044 0.0
C1458 C 0.51505 0.14115 0.18659 0.0
C1459 C 0.50307 0.16484 0.19114 0.0
C1460 C 0.51235 0.18223 0.2093 0.0
C1461 C 0.49699 0.20722 0.2088 0.0
C1462 C 0.48311 0.21161 0.23477 0.0
C1463 C 0.51434 0.2304 0.20172 0.0
C1464 C 0.47792 0.20121 0.18735 0.0
C1465 C 0.48164 0.17658 0.17762 0.0
C1466 C 0.46641 0.16656 0.15775 0.0
C1467 C 0.44644 0.18198 0.14787 0.0
C1468 C 0.44215 0.2072 0.15768 0.0
C1469 C 0.45831 0.21702 0.17745 0.0
H1470 H 0.80042 0.45489 0.14743 0.0
H1471 H 0.72715 0.46098 0.18834 0.0
H1472 H 0.74277 0.5001 0.21052 0.0
H1473 H 0.84105 0.47503 0.19881 0.0
H1474 H 0.86277 0.49387 0.179 0.0
H1475 H 0.84577 0.4667 0.16523 0.0
H1476 H 0.8266 0.49631 0.12955 0.0
H1477 H 0.84379 0.52353 0.14304 0.0
H1478 H 0.80919 0.52513 0.13871 0.0
H1479 H 0.76708 0.53585 0.23107 0.0
H1480 H 0.79703 0.57013 0.24512 0.0
H1481 H 0.85402 0.54348 0.18933 0.0
C1482 C 0.78759 0.46466 0.16082 0.0
C1483 C 0.76258 0.45484 0.16616 0.0
C1484 C 0.74632 0.46818 0.18378 0.0
C1485 C 0.75505 0.49038 0.19661 0.0
C1486 C 0.77993 0.49925 0.19133 0.0
C1487 C 0.79584 0.48719 0.17353 0.0
C1488 C 0.82167 0.50107 0.17142 0.0
C1489 C 0.84414 0.48309 0.17908 0.0
C1490 C 0.82553 0.51217 0.14405 0.0
C1491 C 0.81789 0.52245 0.19119 0.0
C1492 C 0.79372 0.5208 0.20255 0.0
C1493 C 0.78596 0.53756 0.22214 0.0
C1494 C 0.80321 0.55684 0.23012 0.0
C1495 C 0.82785 0.55943 0.21831 0.0
C1496 C 0.83526 0.54199 0.19857 0.0
H1497 H 0.54752 0.78085 0.15888 0.0
H1498 H 0.56073 0.71693 0.21195 0.0
H1499 H 0.52648 0.73368 0.24064 0.0
H1500 H 0.53593 0.82922 0.20623 0.0
H1501 H 0.51057 0.8452 0.18834 0.0
H1502 H 0.53562 0.82791 0.17133 0.0
H1503 H 0.50103 0.79999 0.148 0.0
H1504 H 0.47585 0.81743 0.16467 0.0
H1505 H 0.47736 0.78264 0.16693 0.0
H1506 H 0.49296 0.75861 0.26481 0.0
H1507 H 0.45856 0.78748 0.28077 0.0
H1508 H 0.4658 0.83447 0.21133 0.0
C1509 C 0.54303 0.77024 0.17641 0.0
C1510 C 0.55681 0.74762 0.18321 0.0
C1511 C 0.55034 0.73423 0.20627 0.0
C1512 C 0.53102 0.74367 0.22278 0.0
C1513 C 0.51819 0.76631 0.21579 0.0
C1514 C 0.5236 0.77922 0.19298 0.0
C1515 C 0.50671 0.803 0.18995 0.0
C1516 C 0.5232 0.8278 0.18891 0.0
C1517 C 0.4892 0.80061 0.16597 0.0
C1518 C 0.49116 0.80156 0.21476 0.0
C1519 C 0.49827 0.78036 0.22946 0.0
C1520 C 0.48707 0.77517 0.25341 0.0
C1521 C 0.46765 0.7918 0.26237 0.0
C1522 C 0.45946 0.81322 0.24728 0.0
C1523 C 0.47159 0.81823 0.22327 0.0
H1524 H 0.22847 0.46066 0.81634 0.0
H1525 H 0.17031 0.44321 0.87443 0.0
H1526 H 0.14414 0.48044 0.85922 0.0
H1527 H 0.22324 0.53054 0.8179 0.0
H1528 H 0.22735 0.53365 0.78337 0.0
H1529 H 0.24205 0.50696 0.80033 0.0
H1530 H 0.21879 0.47482 0.76956 0.0
H1531 H 0.20374 0.50137 0.75272 0.0
H1532 H 0.18403 0.47606 0.7665 0.0
H1533 H 0.12467 0.51984 0.83749 0.0
H1534 H 0.11276 0.55738 0.8101 0.0
H1535 H 0.18235 0.54601 0.76442 0.0
C1536 C 0.21046 0.46497 0.82621 0.0
C1537 C 0.2015 0.44941 0.84679 0.0
C1538 C 0.17752 0.45513 0.85874 0.0
C1539 C 0.16257 0.47615 0.85023 0.0
C1540 C 0.17178 0.49087 0.82954 0.0
C1541 C 0.19512 0.48543 0.81763 0.0
C1542 C 0.2001 0.50324 0.79495 0.0
C1543 C 0.22463 0.51957 0.79942 0.0
C1544 C 0.20175 0.48795 0.76943 0.0
C1545 C 0.17595 0.51967 0.79598 0.0
C1546 C 0.15994 0.51245 0.81618 0.0
C1547 C 0.13695 0.52554 0.82149 0.0
C1548 C 0.13034 0.54675 0.80586 0.0
C1549 C 0.14648 0.55426 0.78502 0.0
C1550 C 0.16939 0.54035 0.77992 0.0
H1551 H 0.55035 0.22981 0.80487 0.0
H1552 H 0.56579 0.17964 0.87051 0.0
H1553 H 0.52569 0.15524 0.86138 0.0
H1554 H 0.48052 0.23176 0.81109 0.0
H1555 H 0.4749 0.23073 0.77665 0.0
H1556 H 0.50421 0.24498 0.7891 0.0
H1557 H 0.53128 0.21393 0.76048 0.0
H1558 H 0.50205 0.19935 0.74819 0.0
H1559 H 0.52646 0.17947 0.76325 0.0
H1560 H 0.48387 0.13712 0.8461 0.0
H1561 H 0.44255 0.12565 0.82488 0.0
H1562 H 0.45563 0.1851 0.76697 0.0
C1563 C 0.54501 0.21392 0.81748 0.0
C1564 C 0.56088 0.20668 0.83853 0.0
C1565 C 0.55374 0.18546 0.85434 0.0
C1566 C 0.53108 0.1715 0.8493 0.0
C1567 C 0.51605 0.17878 0.82814 0.0
C1568 C 0.52269 0.19939 0.8124 0.0
C1569 C 0.50346 0.20258 0.79045 0.0
C1570 C 0.48997 0.22908 0.79193 0.0
C1571 C 0.5166 0.19859 0.76403 0.0
C1572 C 0.48486 0.1807 0.79652 0.0
C1573 C 0.49248 0.16734 0.81844 0.0
C1574 C 0.47781 0.1472 0.82876 0.0
C1575 C 0.45447 0.14082 0.81659 0.0
C1576 C 0.44629 0.15425 0.79417 0.0
C1577 C 0.46186 0.17416 0.78376 0.0
H1578 H 0.7549 0.54567 0.79023 0.0
H1579 H 0.81875 0.56742 0.84065 0.0
H1580 H 0.84427 0.53086 0.82418 0.0
H1581 H 0.76216 0.4773 0.79765 0.0
H1582 H 0.7543 0.46979 0.76447 0.0
H1583 H 0.74117 0.49841 0.77941 0.0
H1584 H 0.76046 0.52644 0.74253 0.0
H1585 H 0.77388 0.4979 0.72759 0.0
H1586 H 0.79467 0.52475 0.73574 0.0
H1587 H 0.86214 0.49148 0.80461 0.0
H1588 H 0.87115 0.44972 0.78345 0.0
H1589 H 0.79691 0.45316 0.74424 0.0
C1590 C 0.77425 0.54271 0.79776 0.0
C1591 C 0.78485 0.55944 0.81668 0.0
C1592 C 0.81023 0.55496 0.82608 0.0
C1593 C 0.82496 0.53428 0.8168 0.0
C1594 C 0.8141 0.51833 0.79802 0.0
C1595 C 0.78936 0.52215 0.78859 0.0
C1596 C 0.78221 0.50145 0.76901 0.0
C1597 C 0.75857 0.48581 0.7782 0.0
C1598 C 0.77753 0.51335 0.74212 0.0
C1599 C 0.80666 0.4852 0.76935 0.0
C1600 C 0.82479 0.49549 0.78616 0.0
C1601 C 0.84828 0.48334 0.79116 0.0
C1602 C 0.85321 0.45967 0.77909 0.0
C1603 C 0.83481 0.44852 0.76211 0.0
C1604 C 0.81147 0.46167 0.75672 0.0
H1605 H 0.53602 0.80663 0.76331 0.0
H1606 H 0.55353 0.86529 0.82096 0.0
H1607 H 0.51438 0.85288 0.84541 0.0
H1608 H 0.46662 0.81371 0.76426 0.0
H1609 H 0.46044 0.77953 0.7608 0.0
H1610 H 0.48957 0.79342 0.74756 0.0
H1611 H 0.51704 0.7606 0.77373 0.0
H1612 H 0.488 0.74675 0.78724 0.0
H1613 H 0.51311 0.75867 0.80837 0.0
H1614 H 0.47316 0.83502 0.863 0.0
H1615 H 0.43233 0.81233 0.87309 0.0
H1616 H 0.44249 0.76364 0.80534 0.0
C1617 C 0.53147 0.817 0.78096 0.0
C1618 C 0.54769 0.83702 0.7902 0.0
C1619 C 0.54134 0.8499 0.81356 0.0
C1620 C 0.51918 0.84299 0.82758 0.0
C1621 C 0.50375 0.82299 0.81811 0.0
C1622 C 0.5096 0.81011 0.7954 0.0
C1623 C 0.48995 0.78903 0.78977 0.0
C1624 C 0.47581 0.79425 0.76408 0.0
C1625 C 0.5028 0.76217 0.78979 0.0
C1626 C 0.47202 0.79227 0.81275 0.0
C1627 C 0.48034 0.81203 0.82879 0.0
C1628 C 0.46652 0.81939 0.85072 0.0
C1629 C 0.44337 0.80642 0.85627 0.0
C1630 C 0.43443 0.78616 0.84008 0.0
C1631 C 0.44913 0.77879 0.81824 0.0
H1632 H 0.19308 0.22474 0.54913 0.0
H1633 H 0.12995 0.17127 0.56406 0.0
H1634 H 0.14058 0.14761 0.52371 0.0
H1635 H 0.1866 0.22782 0.48024 0.0
H1636 H 0.22103 0.22889 0.4746 0.0
H1637 H 0.20786 0.24169 0.50423 0.0
H1638 H 0.23809 0.21164 0.53074 0.0
H1639 H 0.25128 0.19865 0.50119 0.0
H1640 H 0.23739 0.17721 0.52499 0.0
H1641 H 0.15755 0.1309 0.48077 0.0
H1642 H 0.18093 0.12107 0.44004 0.0
H1643 H 0.2342 0.18423 0.45558 0.0
C1644 C 0.18136 0.20815 0.54384 0.0
C1645 C 0.16057 0.19989 0.55949 0.0
C1646 C 0.14595 0.17787 0.55221 0.0
C1647 C 0.15182 0.16437 0.52937 0.0
C1648 C 0.17255 0.17302 0.51437 0.0
C1649 C 0.1872 0.19428 0.52146 0.0
C1650 C 0.20889 0.19929 0.50249 0.0
C1651 C 0.2059 0.226 0.48963 0.0
C1652 C 0.23548 0.19652 0.51564 0.0
C1653 C 0.20407 0.17765 0.48345 0.0
C1654 C 0.18293 0.16279 0.49046 0.0
C1655 C 0.17427 0.14226 0.4752 0.0
C1656 C 0.1876 0.13686 0.45215 0.0
C1657 C 0.20945 0.15175 0.4449 0.0
C1658 C 0.21779 0.17226 0.46087 0.0
H1659 H 0.77256 0.18292 0.54196 0.0
H1660 H 0.82648 0.11952 0.55326 0.0
H1661 H 0.84976 0.13231 0.51333 0.0
H1662 H 0.76947 0.18043 0.47233 0.0
H1663 H 0.76832 0.21513 0.4688 0.0
H1664 H 0.75546 0.20011 0.49753 0.0
H1665 H 0.78532 0.22884 0.52588 0.0
H1666 H 0.79841 0.24382 0.49723 0.0
H1667 H 0.81978 0.2286 0.52025 0.0
H1668 H 0.86645 0.15177 0.4715 0.0
H1669 H 0.87642 0.17753 0.43226 0.0
H1670 H 0.81313 0.22961 0.45066 0.0
C1671 C 0.78909 0.17155 0.53587 0.0
C1672 C 0.79762 0.15009 0.55046 0.0
C1673 C 0.81964 0.13599 0.54223 0.0
C1674 C 0.83294 0.1431 0.51961 0.0
C1675 C 0.82414 0.16453 0.50576 0.0
C1676 C 0.80283 0.17864 0.5137 0.0
C1677 C 0.79786 0.20143 0.496 0.0
C1678 C 0.7712 0.19912 0.48289 0.0
C1679 C 0.80051 0.22719 0.51072 0.0
C1680 C 0.8196 0.19787 0.47675 0.0
C1681 C 0.83445 0.17638 0.48253 0.0
C1682 C 0.85509 0.16876 0.46689 0.0
C1683 C 0.8606 0.18346 0.44469 0.0
C1684 C 0.84572 0.20567 0.43865 0.0
C1685 C 0.82512 0.21297 0.45504 0.0
H1686 H 0.76732 0.80099 0.44034 0.0
H1687 H 0.82136 0.86392 0.4261 0.0
H1688 H 0.84548 0.85215 0.46551 0.0
H1689 H 0.76541 0.8074 0.50945 0.0
H1690 H 0.76382 0.77305 0.51541 0.0
H1691 H 0.75095 0.78618 0.48579 0.0
H1692 H 0.78024 0.75515 0.45942 0.0
H1693 H 0.79343 0.74212 0.48899 0.0
H1694 H 0.81474 0.75542 0.46475 0.0
H1695 H 0.86272 0.83512 0.50675 0.0
H1696 H 0.87158 0.81427 0.54876 0.0
H1697 H 0.80775 0.76107 0.53609 0.0
C1698 C 0.78415 0.81235 0.4456 0.0
C1699 C 0.79247 0.83339 0.43019 0.0
C1700 C 0.81469 0.84768 0.43759 0.0
C1701 C 0.82856 0.84112 0.45989 0.0
C1702 C 0.82009 0.82009 0.47446 0.0
C1703 C 0.79842 0.80591 0.46774 0.0
C1704 C 0.79334 0.78446 0.48714 0.0
C1705 C 0.76681 0.788 0.50023 0.0
C1706 C 0.79558 0.7577 0.4743 0.0
C1707 C 0.81535 0.78911 0.50601 0.0
C1708 C 0.83055 0.80973 0.49818 0.0
C1709 C 0.85116 0.81878 0.51299 0.0
C1710 C 0.85604 0.80683 0.53677 0.0
C1711 C 0.8405 0.78596 0.54539 0.0
C1712 C 0.82024 0.77662 0.52959 0.0
H1713 H 0.14462 0.78836 0.47048 0.0
H1714 H 0.17091 0.84826 0.41777 0.0
H1715 H 0.1934 0.87023 0.45388 0.0
H1716 H 0.13329 0.83213 0.52575 0.0
H1717 H 0.14373 0.80829 0.54901 0.0
H1718 H 0.12891 0.79814 0.5191 0.0
H1719 H 0.16897 0.76959 0.50918 0.0
H1720 H 0.18409 0.77996 0.53884 0.0
H1721 H 0.20067 0.78422 0.50841 0.0
H1722 H 0.2174 0.88258 0.49486 0.0
H1723 H 0.23491 0.88838 0.53933 0.0
H1724 H 0.18949 0.82289 0.56561 0.0
C1725 C 0.15467 0.80639 0.46671 0.0
C1726 C 0.15597 0.81673 0.44147 0.0
C1727 C 0.1694 0.84025 0.43711 0.0
C1728 C 0.18241 0.85273 0.45742 0.0
C1729 C 0.1813 0.84171 0.48202 0.0
C1730 C 0.16722 0.81943 0.48686 0.0
C1731 C 0.16892 0.81165 0.51505 0.0
C1732 C 0.14212 0.81262 0.52799 0.0
C1733 C 0.18141 0.78477 0.51803 0.0
C1734 C 0.1865 0.83277 0.52521 0.0
C1735 C 0.1938 0.84971 0.50582 0.0
C1736 C 0.21141 0.86975 0.51032 0.0
C1737 C 0.22138 0.87282 0.53546 0.0
C1738 C 0.2132 0.85626 0.55565 0.0
C1739 C 0.19564 0.83603 0.55044 0.0
H1740 H 0.68479 0.9499 0.73211 0.0
H1741 H 0.62163 0.93848 0.6778 0.0
H1742 H 0.63681 0.9761 0.65234 0.0
H1743 H 0.68582 0.01983 0.73059 0.0
H1744 H 0.72064 0.02173 0.73216 0.0
H1745 H 0.704 0.9947 0.74661 0.0
H1746 H 0.73175 0.96312 0.71924 0.0
H1747 H 0.74828 0.99007 0.70448 0.0
H1748 H 0.73221 0.96639 0.68447 0.0
H1749 H 0.65844 0.01514 0.63329 0.0
H1750 H 0.6856 0.0527 0.62137 0.0
H1751 H 0.73624 0.03683 0.68657 0.0
C1752 C 0.67395 0.95555 0.71506 0.0
C1753 C 0.65189 0.94153 0.707 0.0
C1754 C 0.63852 0.9491 0.6843 0.0
C1755 C 0.647 0.97038 0.66974 0.0
C1756 C 0.66905 0.98358 0.678 0.0
C1757 C 0.6824 0.97643 0.70006 0.0
C1758 C 0.706 0.99333 0.70423 0.0
C1759 C 0.70398 0.00829 0.72992 0.0
C1760 C 0.73104 0.97726 0.70302 0.0
C1761 C 0.70372 0.01126 0.68116 0.0
C1762 C 0.68219 0.00538 0.66636 0.0
C1763 C 0.67546 0.01983 0.64461 0.0
C1764 C 0.69097 0.04108 0.638 0.0
C1765 C 0.71309 0.04743 0.65292 0.0
C1766 C 0.71969 0.03211 0.67457 0.0
H1767 H 0.9348 0.71005 0.68909 0.0
H1768 H 0.9624 0.75377 0.62304 0.0
H1769 H 0.00596 0.73393 0.62814 0.0
H1770 H 0.99323 0.71783 0.72683 0.0
H1771 H 0.99074 0.6862 0.74137 0.0
H1772 H 0.9619 0.7031 0.73148 0.0
H1773 H 0.94872 0.66374 0.7032 0.0
H1774 H 0.97773 0.64688 0.7127 0.0
H1775 H 0.97079 0.65195 0.67886 0.0
H1776 H 0.04566 0.7074 0.63959 0.0
H1777 H 0.08063 0.68227 0.66067 0.0
H1778 H 0.02751 0.65932 0.72153 0.0
C1779 C 0.95013 0.71544 0.67581 0.0
C1780 C 0.9456 0.73318 0.65563 0.0
C1781 C 0.96586 0.7402 0.63866 0.0
C1782 C 0.99046 0.72891 0.64131 0.0
C1783 C 0.9943 0.71112 0.6613 0.0
C1784 C 0.97484 0.70492 0.67862 0.0
C1785 C 0.98429 0.68661 0.69941 0.0
C1786 C 0.98244 0.69919 0.72636 0.0
C1787 C 0.9695 0.66076 0.69847 0.0
C1788 C 0.01211 0.68327 0.69104 0.0
C1789 C 0.01742 0.69713 0.66874 0.0
C1790 C 0.04177 0.69661 0.65713 0.0
C1791 C 0.06141 0.68214 0.66909 0.0
C1792 C 0.05659 0.66892 0.69261 0.0
C1793 C 0.03159 0.66928 0.70351 0.0
H1794 H 0.33988 0.04573 0.71492 0.0
H1795 H 0.29069 0.05667 0.78222 0.0
H1796 H 0.26098 0.02287 0.76593 0.0
H1797 H 0.28996 0.03594 0.669 0.0
H1798 H 0.30695 0.01128 0.6511 0.0
H1799 H 0.32486 0.03575 0.66835 0.0
H1800 H 0.34981 0.00036 0.69374 0.0
H1801 H 0.33238 0.97579 0.67617 0.0
H1802 H 0.33193 0.97588 0.71108 0.0
H1803 H 0.23538 0.98956 0.74089 0.0
H1804 H 0.21917 0.95479 0.71221 0.0
H1805 H 0.28584 0.96534 0.6621 0.0
C1806 C 0.32303 0.04078 0.72641 0.0
C1807 C 0.31757 0.05377 0.74981 0.0
C1808 C 0.29535 0.04677 0.76432 0.0
C1809 C 0.27824 0.02778 0.75512 0.0
C1810 C 0.28381 0.01588 0.73156 0.0
C1811 C 0.30593 0.02176 0.71767 0.0
C1812 C 0.30774 0.00586 0.69316 0.0
C1813 C 0.30735 0.02326 0.66898 0.0
C1814 C 0.33189 0.98843 0.69358 0.0
C1815 C 0.28312 0.99016 0.69538 0.0
C1816 C 0.26941 0.99641 0.71748 0.0
C1817 C 0.246 0.98442 0.72358 0.0
C1818 C 0.23683 0.96488 0.70707 0.0
C1819 C 0.25126 0.95745 0.68497 0.0
C1820 C 0.27439 0.97065 0.67886 0.0
H1821 H 0.04832 0.27012 0.6903 0.0
H1822 H 0.06281 0.31418 0.62024 0.0
H1823 H 0.02313 0.33988 0.62824 0.0
H1824 H 0.97901 0.26802 0.68623 0.0
H1825 H 0.97441 0.27206 0.7206 0.0
H1826 H 0.00331 0.2567 0.7086 0.0
H1827 H 0.03135 0.29007 0.73355 0.0
H1828 H 0.00252 0.30566 0.74545 0.0
H1829 H 0.02643 0.32418 0.728 0.0
H1830 H 0.98085 0.35933 0.64319 0.0
H1831 H 0.94048 0.37281 0.66533 0.0
H1832 H 0.95638 0.31836 0.72729 0.0
C1833 C 0.04297 0.28501 0.67652 0.0
C1834 C 0.05829 0.29008 0.65452 0.0
C1835 C 0.05113 0.31004 0.63717 0.0
C1836 C 0.0287 0.32468 0.64155 0.0
C1837 C 0.01407 0.31934 0.66359 0.0
C1838 C 0.02105 0.30014 0.68091 0.0
C1839 C 0.0026 0.29884 0.70358 0.0
C1840 C 0.98903 0.27234 0.70481 0.0
C1841 C 0.01657 0.30507 0.72915 0.0
C1842 C 0.98394 0.3201 0.69617 0.0
C1843 C 0.99071 0.33156 0.67295 0.0
C1844 C 0.97553 0.35075 0.66156 0.0
C1845 C 0.95271 0.35827 0.67421 0.0
C1846 C 0.94569 0.34688 0.69812 0.0
C1847 C 0.96165 0.32779 0.7093 0.0
H1848 H 0.72646 0.96422 0.3431 0.0
H1849 H 0.67072 0.90961 0.31199 0.0
H1850 H 0.64697 0.94558 0.29123 0.0
H1851 H 0.67839 0.01656 0.35583 0.0
H1852 H 0.7013 0.04156 0.3475 0.0
H1853 H 0.71248 0.01164 0.36154 0.0
H1854 H 0.74338 0.00516 0.32252 0.0
H1855 H 0.73203 0.0348 0.30816 0.0
H1856 H 0.73029 0.00495 0.29015 0.0
H1857 H 0.63369 0.9865 0.26835 0.0
H1858 H 0.62729 0.0309 0.25102 0.0
H1859 H 0.6888 0.05913 0.30062 0.0
C1860 C 0.70888 0.96 0.33245 0.0
C1861 C 0.70029 0.93431 0.32914 0.0
C1862 C 0.67736 0.92929 0.31498 0.0
C1863 C 0.66387 0.94954 0.30299 0.0
C1864 C 0.67326 0.97465 0.30597 0.0
C1865 C 0.69481 0.98003 0.32095 0.0
C1866 C 0.70107 0.00863 0.32079 0.0
C1867 C 0.69812 0.02029 0.34803 0.0
C1868 C 0.7283 0.01366 0.30974 0.0
C1869 C 0.68022 0.01836 0.3027 0.0
C1870 C 0.66451 0.99844 0.29412 0.0
C1871 C 0.6454 0.00238 0.27542 0.0
C1872 C 0.64201 0.02747 0.26557 0.0
C1873 C 0.65735 0.04811 0.27489 0.0
C1874 C 0.67655 0.04356 0.29369 0.0
H1875 H 0.96817 0.68858 0.24931 0.0
H1876 H 0.9512 0.63207 0.30917 0.0
H1877 H 0.98723 0.64914 0.33555 0.0
H1878 H 0.03895 0.68917 0.25724 0.0
H1879 H 0.04133 0.7236 0.25201 0.0
H1880 H 0.01574 0.70537 0.2368 0.0
H1881 H 0.98189 0.73605 0.25748 0.0
H1882 H 0.00733 0.75411 0.27311 0.0
H1883 H 0.98151 0.74031 0.29213 0.0
H1884 H 0.02352 0.67291 0.35603 0.0
H1885 H 0.05938 0.7015 0.36928 0.0
H1886 H 0.0519 0.74445 0.29736 0.0
C1887 C 0.97252 0.67942 0.26767 0.0
C1888 C 0.9572 0.65881 0.27714 0.0
C1889 C 0.96289 0.64776 0.30157 0.0
C1890 C 0.98323 0.65735 0.31668 0.0
C1891 C 0.99751 0.67816 0.30719 0.0
C1892 C 0.99255 0.68905 0.28324 0.0
C1893 C 0.01009 0.71211 0.2783 0.0
C1894 C 0.02757 0.70726 0.25469 0.0
C1895 C 0.99425 0.73712 0.27507 0.0
C1896 C 0.02559 0.71246 0.30324 0.0
C1897 C 0.01804 0.69259 0.31951 0.0
C1898 C 0.02965 0.68854 0.34348 0.0
C1899 C 0.04994 0.70491 0.35084 0.0
C1900 C 0.05826 0.72522 0.3344 0.0
C1901 C 0.04566 0.72928 0.31045 0.0
H1902 H 0.33008 0.95095 0.27514 0.0
H1903 H 0.3884 0.94187 0.33497 0.0
H1904 H 0.37293 0.98196 0.35611 0.0
H1905 H 0.33105 0.02115 0.27144 0.0
H1906 H 0.29649 0.02363 0.26721 0.0
H1907 H 0.31342 0.99532 0.25591 0.0
H1908 H 0.28295 0.96629 0.28327 0.0
H1909 H 0.2661 0.99452 0.29487 0.0
H1910 H 0.28007 0.972 0.31759 0.0
H1911 H 0.35128 0.02285 0.37051 0.0
H1912 H 0.32388 0.06128 0.3782 0.0
H1913 H 0.27756 0.04182 0.31079 0.0
C1914 C 0.33986 0.95768 0.29244 0.0
C1915 C 0.36064 0.94363 0.30331 0.0
C1916 C 0.37255 0.95255 0.32632 0.0
C1917 C 0.36391 0.97523 0.33843 0.0
C1918 C 0.3431 0.98844 0.32745 0.0
C1919 C 0.33114 0.97996 0.30506 0.0
C1920 C 0.30833 0.99698 0.29801 0.0
C1921 C 0.31259 0.01005 0.27158 0.0
C1922 C 0.28286 0.98152 0.29847 0.0
C1923 C 0.30941 0.01644 0.31988 0.0
C1924 C 0.32976 0.01129 0.33652 0.0
C1925 C 0.3352 0.02702 0.35773 0.0
C1926 C 0.31956 0.04875 0.36192 0.0
C1927 C 0.29855 0.05428 0.34521 0.0
C1928 C 0.29328 0.03776 0.32409 0.0
H1929 H 0.04345 0.31401 0.2588 0.0
H1930 H 0.05836 0.37619 0.31325 0.0
H1931 H 0.01632 0.36777 0.33449 0.0
H1932 H 0.9726 0.32204 0.25413 0.0
H1933 H 0.96687 0.28762 0.25324 0.0
H1934 H 0.99652 0.30072 0.24029 0.0
H1935 H 0.0229 0.27041 0.27035 0.0
H1936 H 0.99337 0.25742 0.28357 0.0
H1937 H 0.01733 0.27134 0.30481 0.0
H1938 H 0.97381 0.35142 0.35099 0.0
H1939 H 0.93432 0.327 0.36276 0.0
H1940 H 0.94868 0.27355 0.29949 0.0
C1941 C 0.03748 0.32622 0.27477 0.0
C1942 C 0.0538 0.34596 0.28424 0.0
C1943 C 0.0459 0.36108 0.30568 0.0
C1944 C 0.0221 0.35648 0.31781 0.0
C1945 C 0.00664 0.33648 0.30843 0.0
C1946 C 0.014 0.32151 0.28747 0.0
C1947 C 0.99488 0.29981 0.28267 0.0
C1948 C 0.98195 0.30274 0.256 0.0
C1949 C 0.0079 0.27318 0.28553 0.0
C1950 C 0.97582 0.30477 0.30438 0.0
C1951 C 0.98274 0.32624 0.31876 0.0
C1952 C 0.96813 0.3346 0.33985 0.0
C1953 C 0.9458 0.32062 0.34641 0.0
C1954 C 0.93861 0.29835 0.33215 0.0
C1955 C 0.95386 0.29038 0.31089 0.0
H1956 H 0.7222 0.67406 0.94819 0.0
H1957 H 0.67586 0.60549 0.93384 0.0
H1958 H 0.65065 0.61425 0.97379 0.0
H1959 H 0.72404 0.6707 0.01788 0.0
H1960 H 0.72099 0.70524 0.02183 0.0
H1961 H 0.73621 0.69228 0.99326 0.0
H1962 H 0.70381 0.71773 0.96457 0.0
H1963 H 0.68831 0.73054 0.99306 0.0
H1964 H 0.66951 0.71322 0.96927 0.0
H1965 H 0.63168 0.63017 0.01628 0.0
H1966 H 0.6186 0.65348 0.05619 0.0
H1967 H 0.67464 0.71371 0.03926 0.0
C1968 C 0.70703 0.66065 0.95372 0.0
C1969 C 0.70117 0.63885 0.93839 0.0
C1970 C 0.6807 0.62215 0.94565 0.0
C1971 C 0.66632 0.62699 0.96821 0.0
C1972 C 0.67241 0.64889 0.9828 0.0
C1973 C 0.69211 0.66557 0.97568 0.0
C1974 C 0.69392 0.68851 0.99374 0.0
C1975 C 0.72036 0.68921 0.00749 0.0
C1976 C 0.68856 0.714 0.97929 0.0
C1977 C 0.67232 0.68204 0.01236 0.0
C1978 C 0.6603 0.65898 0.00597 0.0
C1979 C 0.6407 0.64842 0.02127 0.0
C1980 C 0.63339 0.66174 0.04381 0.0
C1981 C 0.6453 0.68553 0.05036 0.0
C1982 C 0.66478 0.69586 0.03428 0.0
H1983 H 0.27194 0.69286 0.05788 0.0
H1984 H 0.32151 0.62541 0.06467 0.0
H1985 H 0.34088 0.63537 0.02201 0.0
H1986 H 0.26112 0.68975 0.98847 0.0
H1987 H 0.26262 0.72438 0.98436 0.0
H1988 H 0.25152 0.71087 0.01455 0.0
H1989 H 0.28648 0.73722 0.03912 0.0
H1990 H 0.29783 0.75064 0.00899 0.0
H1991 H 0.32003 0.73385 0.03006 0.0
H1992 H 0.35455 0.65254 0.97855 0.0
H1993 H 0.36302 0.67686 0.93814 0.0
H1994 H 0.30684 0.73483 0.96138 0.0
C1995 C 0.28659 0.67999 0.05017 0.0
C1996 C 0.29508 0.65821 0.06432 0.0
C1997 C 0.31472 0.64214 0.05399 0.0
C1998 C 0.32579 0.64762 0.02981 0.0
C1999 C 0.31725 0.66946 0.01647 0.0
C2000 C 0.29822 0.68549 0.02632 0.0
C2001 C 0.29348 0.70845 0.00871 0.0
C2002 C 0.26553 0.70834 0.99841 0.0
C2003 C 0.29985 0.73405 0.02255 0.0
C2004 C 0.31276 0.70278 0.98738 0.0
C2005 C 0.32609 0.68006 0.99208 0.0
C2006 C 0.34436 0.67044 0.97472 0.0
C2007 C 0.34904 0.68435 0.95187 0.0
C2008 C 0.33578 0.70779 0.94685 0.0
C2009 C 0.31756 0.71716 0.96495 0.0
H2010 H 0.25824 0.30793 0.95346 0.0
H2011 H 0.31452 0.3688 0.93892 0.0
H2012 H 0.33978 0.35456 0.97671 0.0
H2013 H 0.26045 0.31142 0.02349 0.0
H2014 H 0.25756 0.27691 0.02788 0.0
H2015 H 0.24351 0.29213 -0.00018 0.0
H2016 H 0.2695 0.26115 0.97014 0.0
H2017 H 0.28388 0.24605 0.99812 0.0
H2018 H 0.30424 0.2596 0.9732 0.0
H2019 H 0.35888 0.33444 0.01546 0.0
H2020 H 0.37021 0.31025 0.05493 0.0
H2021 H 0.30258 0.26129 0.04454 0.0
C2022 C 0.27573 0.31839 0.95844 0.0
C2023 C 0.28443 0.33948 0.94331 0.0
C2024 C 0.30754 0.35255 0.95021 0.0
C2025 C 0.32206 0.34459 0.9716 0.0
C2026 C 0.31328 0.32347 0.98581 0.0
C2027 C 0.29064 0.31057 0.9797 0.0
C2028 C 0.28575 0.2884 0.99833 0.0
C2029 C 0.26031 0.29247 0.01327 0.0
C2030 C 0.28586 0.26225 0.98409 0.0
C2031 C 0.3091 0.29107 0.01593 0.0
C2032 C 0.32468 0.31143 0.00822 0.0
C2033 C 0.34693 0.3184 0.0217 0.0
C2034 C 0.35317 0.30455 0.04407 0.0
C2035 C 0.33729 0.2839 0.05265 0.0
C2036 C 0.31522 0.27677 0.03815 0.0
H2037 H 0.73373 0.3095 0.04586 0.0
H2038 H 0.67563 0.36965 0.05434 0.0
H2039 H 0.65404 0.35451 0.01457 0.0
H2040 H 0.73724 0.31086 0.97531 0.0
H2041 H 0.7407 0.27625 0.97245 0.0
H2042 H 0.75245 0.29264 0.00092 0.0
H2043 H 0.7245 0.26241 0.02962 0.0
H2044 H 0.71238 0.24618 0.00121 0.0
H2045 H 0.6901 0.26038 0.02401 0.0
H2046 H 0.63855 0.33326 0.97467 0.0
H2047 H 0.63037 0.30734 0.93546 0.0
H2048 H 0.69694 0.25922 0.95317 0.0
C2049 C 0.71672 0.3197 0.03904 0.0
C2050 C 0.70639 0.34084 0.053 0.0
C2051 C 0.68384 0.35343 0.04386 0.0
C2052 C 0.67142 0.34497 0.02134 0.0
C2053 C 0.68167 0.32373 0.00834 0.0
C2054 C 0.70381 0.31126 0.0167 0.0
C2055 C 0.71025 0.28847 -0.00069 0.0
C2056 C 0.73673 0.2923 0.98622 0.0
C2057 C 0.70924 0.26285 0.01445 0.0
C2058 C 0.68831 0.29023 0.97987 0.0
C2059 C 0.67214 0.31079 0.98551 0.0
C2060 C 0.65098 0.31704 0.97006 0.0
C2061 C 0.64648 0.3022 0.94789 0.0
C2062 C 0.66291 0.28123 0.9415 0.0
C2063 C 0.68385 0.27488 0.95792 0.0
H2064 H 0.18585 0.31145 0.31402 0.0
H2065 H 0.1164 0.28125 0.27739 0.0
H2066 H 0.12538 0.2382 0.2956 0.0
H2067 H 0.22467 0.25849 0.30139 0.0
H2068 H 0.24217 0.25902 0.3316 0.0
H2069 H 0.22857 0.28845 0.3189 0.0
H2070 H 0.20317 0.29545 0.3616 0.0
H2071 H 0.21689 0.26607 0.37452 0.0
H2072 H 0.18224 0.27017 0.37353 0.0
H2073 H 0.1446 0.19738 0.31259 0.0
H2074 H 0.1721 0.16192 0.32914 0.0
H2075 H 0.22842 0.21853 0.35569 0.0
C2076 C 0.17214 0.29597 0.3105 0.0
C2077 C 0.15043 0.29977 0.29432 0.0
C2078 C 0.13324 0.27883 0.28966 0.0
C2079 C 0.13809 0.25427 0.3 0.0
C2080 C 0.16009 0.25094 0.31517 0.0
C2081 C 0.17672 0.27123 0.32067 0.0
C2082 C 0.20002 0.26192 0.33585 0.0
C2083 C 0.22534 0.26729 0.32104 0.0
C2084 C 0.2006 0.27413 0.36299 0.0
C2085 C 0.19424 0.23318 0.33722 0.0
C2086 C 0.17103 0.22727 0.32535 0.0
C2087 C 0.16258 0.20178 0.32242 0.0
C2088 C 0.17837 0.18176 0.33177 0.0
C2089 C 0.20229 0.1874 0.34394 0.0
C2090 C 0.21004 0.21352 0.34693 0.0
H2091 H 0.77488 0.22731 0.35016 0.0
H2092 H 0.83275 0.17056 0.3279 0.0
H2093 H 0.79827 0.14209 0.31115 0.0
H2094 H 0.72231 0.1806 0.36719 0.0
H2095 H 0.69764 0.20117 0.35354 0.0
H2096 H 0.72633 0.21527 0.36762 0.0
H2097 H 0.73536 0.23969 0.32474 0.0
H2098 H 0.70686 0.22561 0.3105 0.0
H2099 H 0.73786 0.22163 0.29496 0.0
H2100 H 0.75892 0.12236 0.29234 0.0
H2101 H 0.71708 0.1127 0.27172 0.0
H2102 H 0.68427 0.18235 0.3055 0.0
C2103 C 0.78024 0.20856 0.34245 0.0
C2104 C 0.80648 0.20103 0.34052 0.0
C2105 C 0.81277 0.17667 0.32964 0.0
C2106 C 0.79332 0.16032 0.3202 0.0
C2107 C 0.7677 0.16859 0.32182 0.0
C2108 C 0.76107 0.1921 0.33271 0.0
C2109 C 0.7324 0.19757 0.32958 0.0
C2110 C 0.71887 0.19871 0.35607 0.0
C2111 C 0.72787 0.2226 0.31401 0.0
C2112 C 0.72414 0.17385 0.31444 0.0
C2113 C 0.74477 0.15724 0.31056 0.0
C2114 C 0.74253 0.13499 0.29555 0.0
C2115 C 0.7187 0.12978 0.2838 0.0
C2116 C 0.69742 0.14681 0.28701 0.0
C2117 C 0.70007 0.16882 0.30302 0.0
H2118 H 0.84292 0.69298 0.30444 0.0
H2119 H 0.89169 0.72833 0.2457 0.0
H2120 H 0.88084 0.77159 0.26295 0.0
H2121 H 0.79317 0.73617 0.29943 0.0
H2122 H 0.78499 0.73642 0.33336 0.0
H2123 H 0.80015 0.70841 0.31942 0.0
H2124 H 0.83711 0.71119 0.35332 0.0
H2125 H 0.82197 0.73924 0.36751 0.0
H2126 H 0.85515 0.74089 0.35679 0.0
H2127 H 0.85991 0.81106 0.283 0.0
H2128 H 0.83036 0.84272 0.30339 0.0
H2129 H 0.79579 0.78071 0.34854 0.0
C2130 C 0.85192 0.70971 0.29554 0.0
C2131 C 0.86821 0.70721 0.27374 0.0
C2132 C 0.8792 0.72972 0.26249 0.0
C2133 C 0.87323 0.75439 0.27221 0.0
C2134 C 0.85644 0.75616 0.29328 0.0
C2135 C 0.84609 0.73434 0.30487 0.0
C2136 C 0.82649 0.7413 0.32542 0.0
C2137 C 0.79963 0.72991 0.31901 0.0
C2138 C 0.83574 0.73265 0.35236 0.0
C2139 C 0.82671 0.77043 0.32297 0.0
C2140 C 0.84435 0.77876 0.30466 0.0
C2141 C 0.84636 0.8048 0.29771 0.0
C2142 C 0.82949 0.82265 0.30939 0.0
C2143 C 0.81073 0.81424 0.32757 0.0
C2144 C 0.80997 0.78788 0.33484 0.0
H2145 H 0.29059 0.85269 0.2752 0.0
H2146 H 0.33259 0.85424 0.34799 0.0
H2147 H 0.29187 0.84646 0.37166 0.0
H2148 H 0.22825 0.88117 0.29987 0.0
H2149 H 0.20905 0.85976 0.28007 0.0
H2150 H 0.24046 0.87032 0.26902 0.0
H2151 H 0.25457 0.82251 0.26343 0.0
H2152 H 0.22331 0.81184 0.27445 0.0
H2153 H 0.25219 0.80069 0.29059 0.0
H2154 H 0.24896 0.83261 0.38688 0.0
H2155 H 0.20649 0.81173 0.39278 0.0
H2156 H 0.19142 0.81858 0.3104 0.0
C2157 C 0.29102 0.85218 0.29617 0.0
C2158 C 0.31463 0.85427 0.30984 0.0
C2159 C 0.31466 0.85272 0.3372 0.0
C2160 C 0.29162 0.84851 0.3508 0.0
C2161 C 0.26874 0.84589 0.33676 0.0
C2162 C 0.26818 0.84766 0.31005 0.0
C2163 C 0.24161 0.84088 0.29951 0.0
C2164 C 0.22911 0.86444 0.28634 0.0
C2165 C 0.24302 0.8176 0.28091 0.0
C2166 C 0.22768 0.83397 0.32439 0.0
C2167 C 0.24359 0.83752 0.34565 0.0
C2168 C 0.23612 0.8302 0.37048 0.0
C2169 C 0.21203 0.81826 0.37362 0.0
C2170 C 0.19573 0.81371 0.35204 0.0
C2171 C 0.20331 0.82237 0.32725 0.0
H2172 H 0.13666 0.72088 0.71552 0.0
H2173 H 0.1802 0.66505 0.67005 0.0
H2174 H 0.1997 0.70082 0.6451 0.0
H2175 H 0.12547 0.76803 0.66301 0.0
H2176 H 0.12949 0.79523 0.68451 0.0
H2177 H 0.11665 0.76513 0.69667 0.0
H2178 H 0.15263 0.76391 0.73168 0.0
H2179 H 0.1656 0.79391 0.71963 0.0
H2180 H 0.18609 0.76577 0.72189 0.0
H2181 H 0.21772 0.74258 0.62826 0.0
H2182 H 0.233 0.7872 0.62084 0.0
H2183 H 0.17732 0.8154 0.67726 0.0
C2184 C 0.14992 0.71604 0.70001 0.0
C2185 C 0.15682 0.69012 0.69471 0.0
C2186 C 0.17451 0.68475 0.67442 0.0
C2187 C 0.18565 0.70493 0.66008 0.0
C2188 C 0.17875 0.73027 0.66616 0.0
C2189 C 0.1612 0.73587 0.68556 0.0
C2190 C 0.15846 0.76474 0.68958 0.0
C2191 C 0.13088 0.77381 0.68304 0.0
C2192 C 0.16616 0.77252 0.71733 0.0
C2193 C 0.17781 0.77451 0.66992 0.0
C2194 C 0.18911 0.75437 0.65641 0.0
C2195 C 0.20876 0.75855 0.63843 0.0
C2196 C 0.21735 0.78397 0.63443 0.0
C2197 C 0.20632 0.80484 0.64843 0.0
C2198 C 0.18597 0.79996 0.66602 0.0
H2199 H 0.3137 0.17769 0.69862 0.0
H2200 H 0.27958 0.11185 0.73812 0.0
H2201 H 0.23819 0.11966 0.71572 0.0
H2202 H 0.26148 0.21774 0.7055 0.0
H2203 H 0.26394 0.2336 0.67449 0.0
H2204 H 0.29236 0.22007 0.68936 0.0
H2205 H 0.30086 0.19225 0.64849 0.0
H2206 H 0.2725 0.2059 0.63336 0.0
H2207 H 0.2757 0.17128 0.63637 0.0
H2208 H 0.19925 0.13821 0.69504 0.0
H2209 H 0.16522 0.1659 0.67627 0.0
H2210 H 0.2241 0.22 0.65001 0.0
C2211 C 0.29775 0.16445 0.70179 0.0
C2212 C 0.29975 0.14415 0.71994 0.0
C2213 C 0.27833 0.12756 0.72425 0.0
C2214 C 0.2548 0.13174 0.71153 0.0
C2215 C 0.25304 0.15255 0.69452 0.0
C2216 C 0.27395 0.16854 0.68941 0.0
C2217 C 0.266 0.19122 0.67259 0.0
C2218 C 0.27125 0.21718 0.68632 0.0
C2219 C 0.27957 0.19008 0.64613 0.0
C2220 C 0.23724 0.186 0.67002 0.0
C2221 C 0.23026 0.1634 0.68248 0.0
C2222 C 0.20449 0.15567 0.68471 0.0
C2223 C 0.18529 0.17161 0.67411 0.0
C2224 C 0.19197 0.19504 0.66151 0.0
C2225 C 0.21836 0.202 0.65911 0.0
H2226 H 0.77872 0.21319 0.63787 0.0
H2227 H 0.83576 0.15864 0.66698 0.0
H2228 H 0.86192 0.19515 0.68347 0.0
H2229 H 0.82405 0.26541 0.61988 0.0
H2230 H 0.80206 0.29033 0.63053 0.0
H2231 H 0.78957 0.26018 0.61811 0.0
H2232 H 0.76333 0.25358 0.66035 0.0
H2233 H 0.77576 0.28359 0.67295 0.0
H2234 H 0.77993 0.25406 0.69107 0.0
H2235 H 0.87963 0.23694 0.70014 0.0
H2236 H 0.88726 0.2808 0.71707 0.0
H2237 H 0.81815 0.30809 0.67758 0.0
C2238 C 0.79698 0.20883 0.64719 0.0
C2239 C 0.80528 0.18299 0.65094 0.0
C2240 C 0.82906 0.17824 0.66375 0.0
C2241 C 0.84409 0.19886 0.6731 0.0
C2242 C 0.83506 0.22404 0.66944 0.0
C2243 C 0.81207 0.22909 0.65678 0.0
C2244 C 0.80553 0.25767 0.65732 0.0
C2245 C 0.8053 0.26907 0.62982 0.0
C2246 C 0.77961 0.26249 0.67126 0.0
C2247 C 0.82816 0.26789 0.67288 0.0
C2248 C 0.84512 0.2482 0.67937 0.0
C2249 C 0.86666 0.25255 0.69494 0.0
C2250 C 0.87074 0.27756 0.70453 0.0
C2251 C 0.85327 0.29794 0.69867 0.0
C2252 C 0.83201 0.29305 0.68217 0.0
H2253 H 0.80894 0.8198 0.68015 0.0
H2254 H 0.77974 0.79246 0.60624 0.0
H2255 H 0.73665 0.80996 0.61665 0.0
H2256 H 0.7565 0.80166 0.71575 0.0
H2257 H 0.75609 0.82893 0.73753 0.0
H2258 H 0.78595 0.81916 0.72255 0.0
H2259 H 0.79214 0.86521 0.70364 0.0
H2260 H 0.76241 0.87528 0.71891 0.0
H2261 H 0.76667 0.87953 0.68452 0.0
H2262 H 0.69561 0.82336 0.6376 0.0
H2263 H 0.65961 0.83478 0.66686 0.0
H2264 H 0.71508 0.85377 0.72722 0.0
C2265 C 0.79373 0.81846 0.66578 0.0
C2266 C 0.79766 0.80493 0.64236 0.0
C2267 C 0.7771 0.80282 0.6243 0.0
C2268 C 0.75257 0.81274 0.62999 0.0
C2269 C 0.74893 0.82487 0.65377 0.0
C2270 C 0.76898 0.82813 0.67126 0.0
C2271 C 0.75921 0.83946 0.69649 0.0
C2272 C 0.76477 0.82121 0.71942 0.0
C2273 C 0.77079 0.86648 0.70116 0.0
C2274 C 0.73048 0.84103 0.69075 0.0
C2275 C 0.725 0.83277 0.66591 0.0
C2276 C 0.69966 0.83043 0.65691 0.0
C2277 C 0.67933 0.83678 0.67373 0.0
C2278 C 0.6845 0.84535 0.69925 0.0
C2279 C 0.71047 0.84771 0.70768 0.0
H2280 H 0.27431 0.14401 0.27764 0.0
H2281 H 0.33199 0.16762 0.33417 0.0
H2282 H 0.35899 0.18538 0.29896 0.0
H2283 H 0.31953 0.12811 0.22422 0.0
H2284 H 0.29805 0.14122 0.20002 0.0
H2285 H 0.28498 0.12705 0.22914 0.0
H2286 H 0.26005 0.1695 0.23864 0.0
H2287 H 0.27306 0.18384 0.20968 0.0
H2288 H 0.27762 0.19963 0.24048 0.0
H2289 H 0.37743 0.20416 0.25886 0.0
H2290 H 0.38574 0.22436 0.21657 0.0
H2291 H 0.31566 0.18929 0.18586 0.0
C2292 C 0.29291 0.15232 0.2826 0.0
C2293 C 0.30118 0.15423 0.30864 0.0
C2294 C 0.32534 0.16586 0.31435 0.0
C2295 C 0.34085 0.17588 0.29449 0.0
C2296 C 0.33189 0.17408 0.26909 0.0
C2297 C 0.30849 0.16262 0.26307 0.0
C2298 C 0.30215 0.16544 0.23455 0.0
C2299 C 0.30113 0.13887 0.2212 0.0
C2300 C 0.27672 0.1805 0.23062 0.0
C2301 C 0.32534 0.18097 0.22561 0.0
C2302 C 0.34241 0.18537 0.24579 0.0
C2303 C 0.3644 0.20061 0.24283 0.0
C2304 C 0.36884 0.2121 0.21874 0.0
C2305 C 0.35127 0.20844 0.19793 0.0
C2306 C 0.32956 0.19218 0.2013 0.0
H2307 H 0.84823 0.2802 0.27313 0.0
H2308 H 0.81921 0.32977 0.33461 0.0
H2309 H 0.79877 0.35798 0.30202 0.0
H2310 H 0.85983 0.33195 0.22477 0.0
H2311 H 0.84907 0.31185 0.19832 0.0
H2312 H 0.86426 0.29736 0.22622 0.0
H2313 H 0.82439 0.26752 0.23245 0.0
H2314 H 0.80907 0.28193 0.20467 0.0
H2315 H 0.79266 0.28175 0.23548 0.0
H2316 H 0.77769 0.37799 0.2636 0.0
H2317 H 0.75708 0.38839 0.22185 0.0
H2318 H 0.8 0.32607 0.18517 0.0
C2319 C 0.83809 0.2973 0.27977 0.0
C2320 C 0.83547 0.30282 0.30647 0.0
C2321 C 0.82158 0.32515 0.31429 0.0
C2322 C 0.80997 0.34136 0.29592 0.0
C2323 C 0.81251 0.33507 0.26981 0.0
C2324 C 0.8263 0.31364 0.26171 0.0
C2325 C 0.82431 0.31001 0.23267 0.0
C2326 C 0.85096 0.31298 0.21973 0.0
C2327 C 0.81186 0.28375 0.22594 0.0
C2328 C 0.80663 0.33234 0.22582 0.0
C2329 C 0.80029 0.3467 0.2475 0.0
C2330 C 0.78279 0.36715 0.24641 0.0
C2331 C 0.77112 0.37283 0.22261 0.0
C2332 C 0.77696 0.35807 0.20022 0.0
C2333 C 0.79538 0.33793 0.20183 0.0
H2334 H 0.64938 0.75418 0.21785 0.0
H2335 H 0.66349 0.80903 0.15558 0.0
H2336 H 0.68188 0.83985 0.18719 0.0
H2337 H 0.6334 0.80199 0.26834 0.0
H2338 H 0.64966 0.78355 0.29312 0.0
H2339 H 0.63487 0.76719 0.26606 0.0
H2340 H 0.67862 0.74493 0.25563 0.0
H2341 H 0.69356 0.76126 0.28254 0.0
H2342 H 0.70703 0.76457 0.25051 0.0
H2343 H 0.70268 0.86268 0.22481 0.0
H2344 H 0.72401 0.87591 0.26545 0.0
H2345 H 0.69591 0.80592 0.30279 0.0
C2346 C 0.65586 0.77284 0.2108 0.0
C2347 C 0.65492 0.77918 0.18418 0.0
C2348 C 0.6639 0.80375 0.17587 0.0
C2349 C 0.67433 0.82141 0.19369 0.0
C2350 C 0.67546 0.81426 0.2197 0.0
C2351 C 0.66631 0.79061 0.22824 0.0
C2352 C 0.67135 0.78678 0.25684 0.0
C2353 C 0.64579 0.78477 0.27198 0.0
C2354 C 0.68867 0.76299 0.26164 0.0
C2355 C 0.68542 0.8117 0.26296 0.0
C2356 C 0.68739 0.82741 0.24137 0.0
C2357 C 0.70096 0.85071 0.24193 0.0
C2358 C 0.71308 0.858 0.2651 0.0
C2359 C 0.7116 0.84197 0.28736 0.0
C2360 C 0.69719 0.81876 0.28626 0.0
H2361 H 0.20254 0.68779 0.19654 0.0
H2362 H 0.23952 0.62347 0.23621 0.0
H2363 H 0.21787 0.63592 0.27675 0.0
H2364 H 0.20957 0.73243 0.24672 0.0
H2365 H 0.17885 0.74821 0.24174 0.0
H2366 H 0.19487 0.7326 0.21504 0.0
H2367 H 0.15402 0.70458 0.20673 0.0
H2368 H 0.13787 0.7202 0.23343 0.0
H2369 H 0.14071 0.68542 0.23272 0.0
H2370 H 0.19588 0.65769 0.31395 0.0
H2371 H 0.17454 0.68724 0.34491 0.0
H2372 H 0.15149 0.73682 0.28092 0.0
C2373 C 0.20568 0.67602 0.21361 0.0
C2374 C 0.22273 0.65466 0.21313 0.0
C2375 C 0.2266 0.63998 0.23604 0.0
C2376 C 0.2143 0.64681 0.2592 0.0
C2377 C 0.19807 0.66828 0.25915 0.0
C2378 C 0.1936 0.68259 0.23695 0.0
C2379 C 0.17667 0.70581 0.24257 0.0
C2380 C 0.19085 0.73126 0.23615 0.0
C2381 C 0.15078 0.70387 0.228 0.0
C2382 C 0.1729 0.7026 0.27147 0.0
C2383 C 0.18521 0.68074 0.28065 0.0
C2384 C 0.1858 0.67468 0.30697 0.0
C2385 C 0.17367 0.69159 0.32441 0.0
C2386 C 0.16118 0.71428 0.3154 0.0
C2387 C 0.16055 0.7195 0.28851 0.0
H2388 H 0.34417 0.78069 0.77971 0.0
H2389 H 0.31825 0.83276 0.84048 0.0
H2390 H 0.30234 0.8632 0.80727 0.0
H2391 H 0.36274 0.8312 0.73172 0.0
H2392 H 0.35082 0.81218 0.70498 0.0
H2393 H 0.36373 0.79635 0.7333 0.0
H2394 H 0.32102 0.77052 0.73847 0.0
H2395 H 0.30802 0.78619 0.71023 0.0
H2396 H 0.29075 0.78778 0.74052 0.0
H2397 H 0.28455 0.88512 0.76829 0.0
H2398 H 0.2647 0.89634 0.72635 0.0
H2399 H 0.30226 0.83031 0.69062 0.0
C2400 C 0.33571 0.79876 0.78612 0.0
C2401 C 0.33262 0.80438 0.81278 0.0
C2402 C 0.32095 0.82804 0.82023 0.0
C2403 C 0.31197 0.84553 0.80149 0.0
C2404 C 0.31494 0.83914 0.77542 0.0
C2405 C 0.32657 0.81635 0.76771 0.0
C2406 C 0.32505 0.81284 0.7386 0.0
C2407 C 0.35221 0.81317 0.72644 0.0
C2408 C 0.31033 0.78786 0.73156 0.0
C2409 C 0.30984 0.83678 0.7312 0.0
C2410 C 0.3046 0.85188 0.75272 0.0
C2411 C 0.28891 0.87373 0.75125 0.0
C2412 C 0.27768 0.8799 0.72738 0.0
C2413 C 0.28214 0.86426 0.70528 0.0
C2414 C 0.29905 0.8429 0.70706 0.0
H2415 H 0.18561 0.31975 0.81542 0.0
H2416 H 0.21615 0.39085 0.78238 0.0
H2417 H 0.19757 0.37921 0.74009 0.0
H2418 H 0.20074 0.28064 0.76409 0.0
H2419 H 0.17222 0.26054 0.76549 0.0
H2420 H 0.18382 0.27627 0.79432 0.0
H2421 H 0.13911 0.29806 0.80081 0.0
H2422 H 0.12725 0.28215 0.77207 0.0
H2423 H 0.12519 0.31687 0.7749 0.0
H2424 H 0.182 0.35718 0.70034 0.0
H2425 H 0.16796 0.32704 0.66602 0.0
H2426 H 0.1469 0.27047 0.72461 0.0
C2427 C 0.1877 0.33324 0.7995 0.0
C2428 C 0.20237 0.35617 0.80222 0.0
C2429 C 0.20506 0.37311 0.78076 0.0
C2430 C 0.1945 0.36673 0.75665 0.0
C2431 C 0.18109 0.34348 0.75433 0.0
C2432 C 0.17734 0.32712 0.77521 0.0
C2433 C 0.16424 0.30222 0.76692 0.0
C2434 C 0.18128 0.27853 0.77307 0.0
C2435 C 0.13735 0.29969 0.77942 0.0
C2436 C 0.16216 0.30678 0.73803 0.0
C2437 C 0.17176 0.3308 0.73121 0.0
C2438 C 0.1739 0.33854 0.70544 0.0
C2439 C 0.16604 0.32123 0.68609 0.0
C2440 C 0.15615 0.29651 0.69264 0.0
C2441 C 0.15392 0.28942 0.719 0.0
H2442 H 0.73821 0.14065 0.71823 0.0
H2443 H 0.67496 0.1531 0.66423 0.0
H2444 H 0.64741 0.16823 0.70025 0.0
H2445 H 0.6986 0.12086 0.7749 0.0
H2446 H 0.71905 0.13815 0.79729 0.0
H2447 H 0.73262 0.1247 0.76808 0.0
H2448 H 0.75041 0.16985 0.75539 0.0
H2449 H 0.73697 0.18343 0.7845 0.0
H2450 H 0.72849 0.19694 0.75344 0.0
H2451 H 0.62835 0.18566 0.74053 0.0
H2452 H 0.61953 0.20722 0.78204 0.0
H2453 H 0.69537 0.18457 0.81034 0.0
C2454 C 0.71835 0.14595 0.71407 0.0
C2455 C 0.70859 0.14545 0.68847 0.0
C2456 C 0.68277 0.15325 0.6837 0.0
C2457 C 0.66695 0.16169 0.70405 0.0
C2458 C 0.67729 0.16226 0.72899 0.0
C2459 C 0.70242 0.15471 0.7341 0.0
C2460 C 0.70966 0.15982 0.7621 0.0
C2461 C 0.71531 0.13436 0.77644 0.0
C2462 C 0.73274 0.17863 0.76395 0.0
C2463 C 0.68489 0.17217 0.77178 0.0
C2464 C 0.66636 0.1729 0.75242 0.0
C2465 C 0.64256 0.18493 0.75592 0.0
C2466 C 0.63779 0.1972 0.77955 0.0
C2467 C 0.6568 0.19753 0.79937 0.0
C2468 C 0.68037 0.18421 0.7957 0.0
H2469 H 0.81367 0.69948 0.68216 0.0
H2470 H 0.87833 0.73957 0.71813 0.0
H2471 H 0.86741 0.71963 0.76005 0.0
H2472 H 0.77032 0.70836 0.73302 0.0
H2473 H 0.75485 0.6772 0.7301 0.0
H2474 H 0.7695 0.69202 0.70217 0.0
H2475 H 0.79795 0.6513 0.69515 0.0
H2476 H 0.78323 0.63626 0.72301 0.0
H2477 H 0.81794 0.63957 0.72127 0.0
H2478 H 0.84714 0.69885 0.79883 0.0
H2479 H 0.81922 0.67788 0.83152 0.0
H2480 H 0.76792 0.65152 0.77016 0.0
C2481 C 0.82587 0.70362 0.69871 0.0
C2482 C 0.84684 0.72106 0.69684 0.0
C2483 C 0.86209 0.72631 0.71909 0.0
C2484 C 0.85612 0.71502 0.74299 0.0
C2485 C 0.83492 0.69846 0.74434 0.0
C2486 C 0.8201 0.69263 0.72278 0.0
C2487 C 0.79728 0.67567 0.72985 0.0
C2488 C 0.77147 0.68912 0.72341 0.0
C2489 C 0.79923 0.64912 0.71653 0.0
C2490 C 0.80129 0.6734 0.75879 0.0
C2491 C 0.8232 0.68649 0.76676 0.0
C2492 C 0.83011 0.68822 0.79281 0.0
C2493 C 0.81409 0.67631 0.81124 0.0
C2494 C 0.79142 0.66294 0.80346 0.0
C2495 C 0.78521 0.66136 0.77683 0.0
H2496 H 0.18748 0.31762 0.19055 0.0
H2497 H 0.2193 0.38873 0.22203 0.0
H2498 H 0.26064 0.38027 0.19992 0.0
H2499 H 0.24144 0.28063 0.20023 0.0
H2500 H 0.23905 0.2617 0.17099 0.0
H2501 H 0.21038 0.27549 0.18509 0.0
H2502 H 0.19997 0.29877 0.14185 0.0
H2503 H 0.2286 0.28484 0.12754 0.0
H2504 H 0.22401 0.31943 0.12718 0.0
H2505 H 0.30026 0.36104 0.18063 0.0
H2506 H 0.33503 0.33275 0.164 0.0
H2507 H 0.27754 0.27445 0.14447 0.0
C2508 C 0.20288 0.33178 0.19202 0.0
C2509 C 0.20026 0.35377 0.20798 0.0
C2510 C 0.22101 0.37164 0.21 0.0
C2511 C 0.24452 0.36711 0.19738 0.0
C2512 C 0.24693 0.34472 0.18264 0.0
C2513 C 0.22662 0.32745 0.17963 0.0
C2514 C 0.23519 0.30358 0.16498 0.0
C2515 C 0.23129 0.27891 0.18131 0.0
C2516 C 0.2211 0.30155 0.13883 0.0
C2517 C 0.26363 0.30968 0.16129 0.0
C2518 C 0.26997 0.33364 0.17128 0.0
C2519 C 0.2955 0.34247 0.17218 0.0
C2520 C 0.31513 0.32623 0.1628 0.0
C2521 C 0.30906 0.30146 0.15276 0.0
C2522 C 0.28288 0.29342 0.15163 0.0
H2523 H 0.3036 0.68989 0.81554 0.0
H2524 H 0.26883 0.72243 0.88489 0.0
H2525 H 0.22758 0.70112 0.87422 0.0
H2526 H 0.25087 0.69969 0.77549 0.0
H2527 H 0.25431 0.67016 0.7572 0.0
H2528 H 0.28224 0.68476 0.77206 0.0
H2529 H 0.29184 0.64194 0.79641 0.0
H2530 H 0.26389 0.62719 0.78153 0.0
H2531 H 0.26704 0.62748 0.8163 0.0
H2532 H 0.18888 0.68136 0.85356 0.0
H2533 H 0.15544 0.66368 0.82435 0.0
H2534 H 0.21516 0.64321 0.76879 0.0
C2535 C 0.28751 0.69201 0.82881 0.0
C2536 C 0.28951 0.70784 0.85105 0.0
C2537 C 0.26782 0.71046 0.86769 0.0
C2538 C 0.24429 0.69832 0.86189 0.0
C2539 C 0.24276 0.68345 0.83948 0.0
C2540 C 0.2638 0.68006 0.82328 0.0
C2541 C 0.25633 0.6649 0.7993 0.0
C2542 C 0.26122 0.68084 0.77456 0.0
C2543 C 0.27063 0.63883 0.79834 0.0
C2544 C 0.22765 0.66112 0.80419 0.0
C2545 C 0.22028 0.67172 0.82761 0.0
C2546 C 0.19446 0.67252 0.8354 0.0
C2547 C 0.17559 0.66251 0.81865 0.0
C2548 C 0.18268 0.65184 0.7944 0.0
C2549 C 0.20914 0.65073 0.78741 0.0
H2550 H 0.27911 0.28563 0.86324 0.0
H2551 H 0.32221 0.34349 0.8199 0.0
H2552 H 0.35079 0.30907 0.80289 0.0
H2553 H 0.33436 0.24262 0.87833 0.0
H2554 H 0.31483 0.21397 0.87429 0.0
H2555 H 0.30026 0.24353 0.88574 0.0
H2556 H 0.26671 0.24147 0.84842 0.0
H2557 H 0.28117 0.21201 0.83685 0.0
H2558 H 0.27794 0.23937 0.81543 0.0
H2559 H 0.37086 0.26785 0.7865 0.0
H2560 H 0.38092 0.22345 0.77215 0.0
H2561 H 0.32476 0.19312 0.82697 0.0
C2562 C 0.29485 0.29127 0.85056 0.0
C2563 C 0.29842 0.31729 0.8429 0.0
C2564 C 0.31917 0.32369 0.82614 0.0
C2565 C 0.33553 0.30429 0.81643 0.0
C2566 C 0.33101 0.27874 0.82394 0.0
C2567 C 0.31128 0.27226 0.84079 0.0
C2568 C 0.309 0.24328 0.84424 0.0
C2569 C 0.31498 0.2354 0.87232 0.0
C2570 C 0.28212 0.23347 0.83571 0.0
C2571 C 0.33 0.23433 0.82598 0.0
C2572 C 0.34269 0.25503 0.81466 0.0
C2573 C 0.36139 0.2515 0.79557 0.0
C2574 C 0.3669 0.22619 0.7875 0.0
C2575 C 0.35366 0.20476 0.79848 0.0
C2576 C 0.33547 0.20899 0.81841 0.0
H2577 H 0.68815 0.30658 0.80803 0.0
H2578 H 0.72185 0.28092 0.88063 0.0
H2579 H 0.76223 0.30397 0.87018 0.0
H2580 H 0.74199 0.29629 0.77108 0.0
H2581 H 0.7384 0.32405 0.75022 0.0
H2582 H 0.71038 0.30994 0.76532 0.0
H2583 H 0.69869 0.35424 0.78574 0.0
H2584 H 0.72665 0.36858 0.77049 0.0
H2585 H 0.72239 0.37112 0.80505 0.0
H2586 H 0.8008 0.32343 0.8493 0.0
H2587 H 0.83469 0.33936 0.8196 0.0
H2588 H 0.77616 0.35273 0.76062 0.0
C2589 C 0.70373 0.30658 0.82206 0.0
C2590 C 0.7019 0.29203 0.8451 0.0
C2591 C 0.72291 0.29191 0.86278 0.0
C2592 C 0.74588 0.30506 0.85712 0.0
C2593 C 0.74751 0.31838 0.83377 0.0
C2594 C 0.72695 0.31949 0.81659 0.0
C2595 C 0.73474 0.33277 0.79165 0.0
C2596 C 0.73117 0.31467 0.7682 0.0
C2597 C 0.71972 0.35819 0.78803 0.0
C2598 C 0.7631 0.33787 0.79712 0.0
C2599 C 0.76999 0.32978 0.82165 0.0
C2600 C 0.79558 0.3304 0.83024 0.0
C2601 C 0.81471 0.33935 0.81319 0.0
C2602 C 0.8081 0.34746 0.78784 0.0
C2603 C 0.78185 0.34708 0.78 0.0
H2604 H 0.67825 0.68174 0.81211 0.0
H2605 H 0.70872 0.71043 0.88508 0.0
H2606 H 0.68864 0.75282 0.87679 0.0
H2607 H 0.69195 0.73559 0.77686 0.0
H2608 H 0.66343 0.73504 0.75672 0.0
H2609 H 0.67554 0.70543 0.77044 0.0
H2610 H 0.63102 0.69661 0.79184 0.0
H2611 H 0.61862 0.72612 0.77789 0.0
H2612 H 0.61666 0.72092 0.81236 0.0
H2613 H 0.67205 0.7937 0.85754 0.0
H2614 H 0.6576 0.82968 0.82959 0.0
H2615 H 0.63768 0.77449 0.7693 0.0
C2616 C 0.67995 0.69663 0.82676 0.0
C2617 C 0.69508 0.69276 0.84919 0.0
C2618 C 0.69725 0.71295 0.86768 0.0
C2619 C 0.68585 0.7371 0.86321 0.0
C2620 C 0.67213 0.7407 0.8403 0.0
C2621 C 0.6688 0.72094 0.82252 0.0
C2622 C 0.65553 0.73062 0.79824 0.0
C2623 C 0.67264 0.72642 0.77416 0.0
C2624 C 0.62887 0.7178 0.7949 0.0
C2625 C 0.65293 0.75906 0.80475 0.0
C2626 C 0.66234 0.76444 0.8292 0.0
C2627 C 0.66406 0.78969 0.83859 0.0
C2628 C 0.65597 0.81001 0.82251 0.0
C2629 C 0.64632 0.8049 0.79735 0.0
C2630 C 0.64452 0.77903 0.7886 0.0
H2631 H 0.69441 0.66727 0.16946 0.0
H2632 H 0.71963 0.71544 0.10528 0.0
H2633 H 0.76485 0.70209 0.11321 0.0
H2634 H 0.74349 0.68415 0.21053 0.0
H2635 H 0.74698 0.65282 0.22551 0.0
H2636 H 0.71635 0.66222 0.21192 0.0
H2637 H 0.71619 0.62136 0.18282 0.0
H2638 H 0.7468 0.61161 0.19647 0.0
H2639 H 0.7434 0.61501 0.1619 0.0
H2640 H 0.80789 0.6876 0.13164 0.0
H2641 H 0.84453 0.67388 0.15936 0.0
H2642 H 0.79035 0.63638 0.21164 0.0
C2643 C 0.70928 0.67451 0.15656 0.0
C2644 C 0.7034 0.69235 0.13669 0.0
C2645 C 0.72361 0.70167 0.1206 0.0
C2646 C 0.74937 0.69415 0.12489 0.0
C2647 C 0.75457 0.67722 0.14527 0.0
C2648 C 0.73501 0.66742 0.16073 0.0
C2649 C 0.74574 0.65179 0.18302 0.0
C2650 C 0.73767 0.66345 0.20928 0.0
C2651 C 0.73755 0.62324 0.18091 0.0
C2652 C 0.77441 0.65501 0.1782 0.0
C2653 C 0.77922 0.66934 0.15612 0.0
C2654 C 0.80436 0.67604 0.14876 0.0
C2655 C 0.82504 0.66819 0.16462 0.0
C2656 C 0.82033 0.65415 0.18771 0.0
C2657 C 0.79468 0.64711 0.19414 0.0
H2658 H 0.36408 0.77167 0.25214 0.0
H2659 H 0.36266 0.82577 0.1877 0.0
H2660 H 0.35066 0.79023 0.15824 0.0
H2661 H 0.3882 0.71464 0.21529 0.0
H2662 H 0.36769 0.6926 0.23299 0.0
H2663 H 0.37981 0.72145 0.24849 0.0
H2664 H 0.33292 0.73521 0.25985 0.0
H2665 H 0.32072 0.70641 0.24457 0.0
H2666 H 0.30919 0.73772 0.23435 0.0
H2667 H 0.3337 0.75079 0.13699 0.0
H2668 H 0.31103 0.71029 0.1257 0.0
H2669 H 0.32406 0.68118 0.20337 0.0
C2670 C 0.36179 0.77598 0.23174 0.0
C2671 C 0.36444 0.80152 0.22223 0.0
C2672 C 0.36078 0.80638 0.19547 0.0
C2673 C 0.35415 0.78628 0.17853 0.0
C2674 C 0.35139 0.76141 0.18859 0.0
C2675 C 0.35509 0.75615 0.21456 0.0
C2676 C 0.34838 0.72829 0.22087 0.0
C2677 C 0.37246 0.71336 0.22994 0.0
C2678 C 0.3265 0.72684 0.24109 0.0
C2679 C 0.33939 0.71898 0.19455 0.0
C2680 C 0.3417 0.73831 0.17613 0.0
C2681 C 0.3323 0.73531 0.15105 0.0
C2682 C 0.31945 0.71229 0.14482 0.0
C2683 C 0.31617 0.69259 0.1636 0.0
C2684 C 0.327 0.69564 0.18849 0.0
H2685 H 0.72096 0.28 0.1458 0.0
H2686 H 0.65493 0.33068 0.15769 0.0
H2687 H 0.62866 0.29314 0.17109 0.0
H2688 H 0.68401 0.22197 0.12355 0.0
H2689 H 0.70513 0.20016 0.14078 0.0
H2690 H 0.71763 0.23022 0.12812 0.0
H2691 H 0.73409 0.24273 0.17384 0.0
H2692 H 0.72169 0.21281 0.18661 0.0
H2693 H 0.71163 0.24317 0.20057 0.0
H2694 H 0.61136 0.25195 0.18828 0.0
H2695 H 0.60442 0.20986 0.20964 0.0
H2696 H 0.68142 0.18534 0.18677 0.0
C2697 C 0.70078 0.28314 0.15056 0.0
C2698 C 0.68994 0.30828 0.1505 0.0
C2699 C 0.66364 0.31162 0.1575 0.0
C2700 C 0.64851 0.29038 0.16498 0.0
C2701 C 0.65994 0.26595 0.16529 0.0
C2702 C 0.68546 0.26218 0.15825 0.0
C2703 C 0.69384 0.23445 0.16295 0.0
C2704 C 0.70054 0.2209 0.13732 0.0
C2705 C 0.71665 0.23324 0.18214 0.0
C2706 C 0.66929 0.22345 0.17466 0.0
C2707 C 0.64988 0.24189 0.17541 0.0
C2708 C 0.62621 0.2372 0.18739 0.0
C2709 C 0.62249 0.21329 0.19953 0.0
C2710 C 0.64235 0.19439 0.19964 0.0
C2711 C 0.66575 0.19925 0.18641 0.0
loop_
_geom_bond_atom_site_label_1
_geom_bond_atom_site_label_2
_geom_bond_distance
_geom_bond_site_symmetry_2
_ccdc_geom_bond_type
Co0 O2 2.143 . S
Co0 O8 2.074 . S
Co0 O11 2.093 . S
Co0 O24 2.097 . S
Co0 N41 2.151 . S
Co0 N49 2.214 . S
Co1 O2 2.160 . S
Co1 O7 2.058 . S
Co1 O17 2.057 . S
Co1 O32 2.037 . S
Co1 N36 2.145 . S
Co1 N57 2.257 . S
O2 Co0 2.143 . S
O2 Co1 2.160 . S
C3 O4 1.278 . S
C3 O11 1.224 . S
O4 C3 1.278 . S
C5 O6 1.245 . S
C5 O17 1.232 . S
O6 C5 1.245 . S
O7 Co1 2.058 . S
O7 C33 1.269 . S
O8 Co0 2.074 . S
O8 C33 1.257 . S
H9 C34 0.930 . S
H10 C40 0.930 . S
O11 Co0 2.093 . S
O11 C3 1.224 . S
H12 C44 0.929 . S
H13 C46 0.930 . S
H14 C47 0.930 . S
H15 C45 0.929 . S
H16 C48 0.928 . S
O17 Co1 2.057 . S
O17 C5 1.232 . S
H18 C37 0.929 . S
H19 C38 0.929 . S
H20 C50 0.931 . S
H21 C42 0.929 . S
H22 C51 0.930 . S
H23 C43 0.931 . S
O24 Co0 2.097 . S
O24 C52 1.214 . S
H25 C53 0.929 . S
H26 C54 0.929 . S
H27 C55 0.930 . S
H28 C56 0.929 . S
H29 C58 0.930 . S
H30 C35 0.930 . S
H31 C39 0.930 . S
O32 Co1 2.037 . S
O32 C52 1.234 . S
C33 O7 1.269 . S
C33 O8 1.257 . S
C34 H9 0.930 . S
C34 C37 1.388 . S
C34 C39 1.418 . S
C35 H30 0.930 . S
C35 C38 1.404 . S
C35 C39 1.353 . S
N36 Co1 2.145 . S
N36 C37 1.397 . S
N36 C38 1.334 . S
C37 H18 0.929 . S
C37 C34 1.388 . S
C37 N36 1.397 . S
C38 H19 0.929 . S
C38 C35 1.404 . S
C38 N36 1.334 . S
C39 H31 0.930 . S
C39 C34 1.418 . S
C39 C35 1.353 . S
C40 H10 0.930 . S
C40 N41 1.330 . S
C40 C42 1.446 . S
N41 Co0 2.151 . S
N41 C40 1.330 . S
N41 C45 1.418 . S
C42 H21 0.929 . S
C42 C40 1.446 . S
C42 C43 1.332 . S
C43 H23 0.931 . S
C43 C42 1.332 . S
C43 C44 1.267 . S
C44 H12 0.929 . S
C44 C43 1.267 . S
C44 C45 1.251 . S
C45 H15 0.929 . S
C45 N41 1.418 . S
C45 C44 1.251 . S
C46 H13 0.930 . S
C46 C48 1.406 . S
C46 C51 1.261 . S
C47 H14 0.930 . S
C47 N49 1.325 . S
C47 C50 1.357 . S
C48 H16 0.928 . S
C48 C46 1.406 . S
C48 N49 1.261 . S
N49 Co0 2.214 . S
N49 C47 1.325 . S
N49 C48 1.261 . S
C50 H20 0.931 . S
C50 C47 1.357 . S
C50 C51 1.312 . S
C51 H22 0.930 . S
C51 C46 1.261 . S
C51 C50 1.312 . S
C52 O24 1.214 . S
C52 O32 1.234 . S
C53 H25 0.929 . S
C53 C56 1.391 . S
C53 C58 1.391 . S
C54 H26 0.929 . S
C54 C55 1.390 . S
C54 N57 1.391 . S
C55 H27 0.930 . S
C55 C54 1.390 . S
C55 C56 1.392 . S
C56 H28 0.929 . S
C56 C53 1.391 . S
C56 C55 1.392 . S
N57 Co1 2.257 . S
N57 C54 1.391 . S
N57 C58 1.388 . S
C58 H29 0.930 . S
C58 C53 1.391 . S
C58 N57 1.388 . S
Co59 O61 2.143 . S
Co59 O67 2.074 . S
Co59 O70 2.093 . S
Co59 O83 2.097 . S
Co59 N100 2.151 . S
Co59 N108 2.214 . S
Co60 O61 2.160 . S
Co60 O66 2.058 . S
Co60 O76 2.057 . S
Co60 O91 2.037 . S
Co60 N95 2.145 . S
Co60 N116 2.257 . S
O61 Co59 2.143 . S
O61 Co60 2.160 . S
C62 O63 1.278 . S
C62 O70 1.224 . S
O63 C62 1.278 . S
C64 O65 1.245 . S
C64 O76 1.232 . S
O65 C64 1.245 . S
O66 Co60 2.058 . S
O66 C92 1.269 . S
O67 Co59 2.074 . S
O67 C92 1.257 . S
H68 C93 0.930 . S
H69 C99 0.930 . S
O70 Co59 2.093 . S
O70 C62 1.224 . S
H71 C103 0.929 . S
H72 C105 0.930 . S
H73 C106 0.930 . S
H74 C104 0.929 . S
H75 C107 0.928 . S
O76 Co60 2.057 . S
O76 C64 1.232 . S
H77 C96 0.929 . S
H78 C97 0.929 . S
H79 C109 0.931 . S
H80 C101 0.929 . S
H81 C110 0.930 . S
H82 C102 0.931 . S
O83 Co59 2.097 . S
O83 C111 1.214 . S
H84 C112 0.929 . S
H85 C113 0.929 . S
H86 C114 0.930 . S
H87 C115 0.929 . S
H88 C117 0.930 . S
H89 C94 0.930 . S
H90 C98 0.930 . S
O91 Co60 2.037 . S
O91 C111 1.234 . S
C92 O66 1.269 . S
C92 O67 1.257 . S
C93 H68 0.930 . S
C93 C96 1.388 . S
C93 C98 1.418 . S
C94 H89 0.930 . S
C94 C97 1.404 . S
C94 C98 1.353 . S
N95 Co60 2.145 . S
N95 C96 1.397 . S
N95 C97 1.334 . S
C96 H77 0.929 . S
C96 C93 1.388 . S
C96 N95 1.397 . S
C97 H78 0.929 . S
C97 C94 1.404 . S
C97 N95 1.334 . S
C98 H90 0.930 . S
C98 C93 1.418 . S
C98 C94 1.353 . S
C99 H69 0.930 . S
C99 N100 1.330 . S
C99 C101 1.446 . S
N100 Co59 2.151 . S
N100 C99 1.330 . S
N100 C104 1.418 . S
C101 H80 0.929 . S
C101 C99 1.446 . S
C101 C102 1.332 . S
C102 H82 0.931 . S
C102 C101 1.332 . S
C102 C103 1.267 . S
C103 H71 0.929 . S
C103 C102 1.267 . S
C103 C104 1.251 . S
C104 H74 0.929 . S
C104 N100 1.418 . S
C104 C103 1.251 . S
C105 H72 0.930 . S
C105 C107 1.406 . S
C105 C110 1.261 . S
C106 H73 0.930 . S
C106 N108 1.325 . S
C106 C109 1.357 . S
C107 H75 0.928 . S
C107 C105 1.406 . S
C107 N108 1.261 . S
N108 Co59 2.214 . S
N108 C106 1.325 . S
N108 C107 1.261 . S
C109 H79 0.931 . S
C109 C106 1.357 . S
C109 C110 1.312 . S
C110 H81 0.930 . S
C110 C105 1.261 . S
C110 C109 1.312 . S
C111 O83 1.214 . S
C111 O91 1.234 . S
C112 H84 0.929 . S
C112 C115 1.391 . S
C112 C117 1.391 . S
C113 H85 0.929 . S
C113 C114 1.390 . S
C113 N116 1.391 . S
C114 H86 0.930 . S
C114 C113 1.390 . S
C114 C115 1.392 . S
C115 H87 0.929 . S
C115 C112 1.391 . S
C115 C114 1.392 . S
N116 Co60 2.257 . S
N116 C113 1.391 . S
N116 C117 1.388 . S
C117 H88 0.930 . S
C117 C112 1.391 . S
C117 N116 1.388 . S
Co118 O120 2.143 . S
Co118 O126 2.074 . S
Co118 O129 2.093 . S
Co118 O142 2.097 . S
Co118 N159 2.151 . S
Co118 N167 2.214 . S
Co119 O120 2.160 . S
Co119 O125 2.058 . S
Co119 O135 2.057 . S
Co119 O150 2.037 . S
Co119 N154 2.145 . S
Co119 N175 2.257 . S
O120 Co118 2.143 . S
O120 Co119 2.160 . S
C121 O122 1.278 . S
C121 O129 1.224 . S
O122 C121 1.278 . S
C123 O124 1.245 . S
C123 O135 1.232 . S
O124 C123 1.245 . S
O125 Co119 2.058 . S
O125 C151 1.269 . S
O126 Co118 2.074 . S
O126 C151 1.257 . S
H127 C152 0.930 . S
H128 C158 0.930 . S
O129 Co118 2.093 . S
O129 C121 1.224 . S
H130 C162 0.929 . S
H131 C164 0.930 . S
H132 C165 0.930 . S
H133 C163 0.929 . S
H134 C166 0.928 . S
O135 Co119 2.057 . S
O135 C123 1.232 . S
H136 C155 0.929 . S
H137 C156 0.929 . S
H138 C168 0.931 . S
H139 C160 0.929 . S
H140 C169 0.930 . S
H141 C161 0.931 . S
O142 Co118 2.097 . S
O142 C170 1.214 . S
H143 C171 0.929 . S
H144 C172 0.929 . S
H145 C173 0.930 . S
H146 C174 0.929 . S
H147 C176 0.930 . S
H148 C153 0.930 . S
H149 C157 0.930 . S
O150 Co119 2.037 . S
O150 C170 1.234 . S
C151 O125 1.269 . S
C151 O126 1.257 . S
C152 H127 0.930 . S
C152 C155 1.388 . S
C152 C157 1.418 . S
C153 H148 0.930 . S
C153 C156 1.404 . S
C153 C157 1.353 . S
N154 Co119 2.145 . S
N154 C155 1.397 . S
N154 C156 1.334 . S
C155 H136 0.929 . S
C155 C152 1.388 . S
C155 N154 1.397 . S
C156 H137 0.929 . S
C156 C153 1.404 . S
C156 N154 1.334 . S
C157 H149 0.930 . S
C157 C152 1.418 . S
C157 C153 1.353 . S
C158 H128 0.930 . S
C158 N159 1.330 . S
C158 C160 1.446 . S
N159 Co118 2.151 . S
N159 C158 1.330 . S
N159 C163 1.418 . S
C160 H139 0.929 . S
C160 C158 1.446 . S
C160 C161 1.332 . S
C161 H141 0.931 . S
C161 C160 1.332 . S
C161 C162 1.267 . S
C162 H130 0.929 . S
C162 C161 1.267 . S
C162 C163 1.251 . S
C163 H133 0.929 . S
C163 N159 1.418 . S
C163 C162 1.251 . S
C164 H131 0.930 . S
C164 C166 1.406 . S
C164 C169 1.261 . S
C165 H132 0.930 . S
C165 N167 1.325 . S
C165 C168 1.357 . S
C166 H134 0.928 . S
C166 C164 1.406 . S
C166 N167 1.261 . S
N167 Co118 2.214 . S
N167 C165 1.325 . S
N167 C166 1.261 . S
C168 H138 0.931 . S
C168 C165 1.357 . S
C168 C169 1.312 . S
C169 H140 0.930 . S
C169 C164 1.261 . S
C169 C168 1.312 . S
C170 O142 1.214 . S
C170 O150 1.234 . S
C171 H143 0.929 . S
C171 C174 1.391 . S
C171 C176 1.391 . S
C172 H144 0.929 . S
C172 C173 1.390 . S
C172 N175 1.391 . S
C173 H145 0.930 . S
C173 C172 1.390 . S
C173 C174 1.392 . S
C174 H146 0.929 . S
C174 C171 1.391 . S
C174 C173 1.392 . S
N175 Co119 2.257 . S
N175 C172 1.391 . S
N175 C176 1.388 . S
C176 H147 0.930 . S
C176 C171 1.391 . S
C176 N175 1.388 . S
Co177 O179 2.143 . S
Co177 O185 2.074 . S
Co177 O188 2.093 . S
Co177 O201 2.097 . S
Co177 N218 2.151 . S
Co177 N226 2.214 . S
Co178 O179 2.160 . S
Co178 O184 2.058 . S
Co178 O194 2.057 . S
Co178 O209 2.037 . S
Co178 N213 2.145 . S
Co178 N234 2.257 . S
O179 Co177 2.143 . S
O179 Co178 2.160 . S
C180 O181 1.278 . S
C180 O188 1.224 . S
O181 C180 1.278 . S
C182 O183 1.245 . S
C182 O194 1.232 . S
O183 C182 1.245 . S
O184 Co178 2.058 . S
O184 C210 1.269 . S
O185 Co177 2.074 . S
O185 C210 1.257 . S
H186 C211 0.930 . S
H187 C217 0.930 . S
O188 Co177 2.093 . S
O188 C180 1.224 . S
H189 C221 0.929 . S
H190 C223 0.930 . S
H191 C224 0.930 . S
H192 C222 0.929 . S
H193 C225 0.928 . S
O194 Co178 2.057 . S
O194 C182 1.232 . S
H195 C214 0.929 . S
H196 C215 0.929 . S
H197 C227 0.931 . S
H198 C219 0.929 . S
H199 C228 0.930 . S
H200 C220 0.931 . S
O201 Co177 2.097 . S
O201 C229 1.214 . S
H202 C230 0.929 . S
H203 C231 0.929 . S
H204 C232 0.930 . S
H205 C233 0.929 . S
H206 C235 0.930 . S
H207 C212 0.930 . S
H208 C216 0.930 . S
O209 Co178 2.037 . S
O209 C229 1.234 . S
C210 O184 1.269 . S
C210 O185 1.257 . S
C211 H186 0.930 . S
C211 C214 1.388 . S
C211 C216 1.418 . S
C212 H207 0.930 . S
C212 C215 1.404 . S
C212 C216 1.353 . S
N213 Co178 2.145 . S
N213 C214 1.397 . S
N213 C215 1.334 . S
C214 H195 0.929 . S
C214 C211 1.388 . S
C214 N213 1.397 . S
C215 H196 0.929 . S
C215 C212 1.404 . S
C215 N213 1.334 . S
C216 H208 0.930 . S
C216 C211 1.418 . S
C216 C212 1.353 . S
C217 H187 0.930 . S
C217 N218 1.330 . S
C217 C219 1.446 . S
N218 Co177 2.151 . S
N218 C217 1.330 . S
N218 C222 1.418 . S
C219 H198 0.929 . S
C219 C217 1.446 . S
C219 C220 1.332 . S
C220 H200 0.931 . S
C220 C219 1.332 . S
C220 C221 1.267 . S
C221 H189 0.929 . S
C221 C220 1.267 . S
C221 C222 1.251 . S
C222 H192 0.929 . S
C222 N218 1.418 . S
C222 C221 1.251 . S
C223 H190 0.930 . S
C223 C225 1.406 . S
C223 C228 1.261 . S
C224 H191 0.930 . S
C224 N226 1.325 . S
C224 C227 1.357 . S
C225 H193 0.928 . S
C225 C223 1.406 . S
C225 N226 1.261 . S
N226 Co177 2.214 . S
N226 C224 1.325 . S
N226 C225 1.261 . S
C227 H197 0.931 . S
C227 C224 1.357 . S
C227 C228 1.312 . S
C228 H199 0.930 . S
C228 C223 1.261 . S
C228 C227 1.312 . S
C229 O201 1.214 . S
C229 O209 1.234 . S
C230 H202 0.929 . S
C230 C233 1.391 . S
C230 C235 1.391 . S
C231 H203 0.929 . S
C231 C232 1.390 . S
C231 N234 1.391 . S
C232 H204 0.930 . S
C232 C231 1.390 . S
C232 C233 1.392 . S
C233 H205 0.929 . S
C233 C230 1.391 . S
C233 C232 1.392 . S
N234 Co178 2.257 . S
N234 C231 1.391 . S
N234 C235 1.388 . S
C235 H206 0.930 . S
C235 C230 1.391 . S
C235 N234 1.388 . S
Co236 O238 2.143 . S
Co236 O244 2.074 . S
Co236 O247 2.093 . S
Co236 O260 2.097 . S
Co236 N277 2.151 . S
Co236 N285 2.214 . S
Co237 O238 2.160 . S
Co237 O243 2.058 . S
Co237 O253 2.057 . S
Co237 O268 2.037 . S
Co237 N272 2.145 . S
Co237 N293 2.257 . S
O238 Co236 2.143 . S
O238 Co237 2.160 . S
C239 O240 1.278 . S
C239 O247 1.224 . S
O240 C239 1.278 . S
C241 O242 1.245 . S
C241 O253 1.232 . S
O242 C241 1.245 . S
O243 Co237 2.058 . S
O243 C269 1.269 . S
O244 Co236 2.074 . S
O244 C269 1.257 . S
H245 C270 0.930 . S
H246 C276 0.930 . S
O247 Co236 2.093 . S
O247 C239 1.224 . S
H248 C280 0.929 . S
H249 C282 0.930 . S
H250 C283 0.930 . S
H251 C281 0.929 . S
H252 C284 0.928 . S
O253 Co237 2.057 . S
O253 C241 1.232 . S
H254 C273 0.929 . S
H255 C274 0.929 . S
H256 C286 0.931 . S
H257 C278 0.929 . S
H258 C287 0.930 . S
H259 C279 0.931 . S
O260 Co236 2.097 . S
O260 C288 1.214 . S
H261 C289 0.929 . S
H262 C290 0.929 . S
H263 C291 0.930 . S
H264 C292 0.929 . S
H265 C294 0.930 . S
H266 C271 0.930 . S
H267 C275 0.930 . S
O268 Co237 2.037 . S
O268 C288 1.234 . S
C269 O243 1.269 . S
C269 O244 1.257 . S
C270 H245 0.930 . S
C270 C273 1.388 . S
C270 C275 1.418 . S
C271 H266 0.930 . S
C271 C274 1.404 . S
C271 C275 1.353 . S
N272 Co237 2.145 . S
N272 C273 1.397 . S
N272 C274 1.334 . S
C273 H254 0.929 . S
C273 C270 1.388 . S
C273 N272 1.397 . S
C274 H255 0.929 . S
C274 C271 1.404 . S
C274 N272 1.334 . S
C275 H267 0.930 . S
C275 C270 1.418 . S
C275 C271 1.353 . S
C276 H246 0.930 . S
C276 N277 1.330 . S
C276 C278 1.446 . S
N277 Co236 2.151 . S
N277 C276 1.330 . S
N277 C281 1.418 . S
C278 H257 0.929 . S
C278 C276 1.446 . S
C278 C279 1.332 . S
C279 H259 0.931 . S
C279 C278 1.332 . S
C279 C280 1.267 . S
C280 H248 0.929 . S
C280 C279 1.267 . S
C280 C281 1.251 . S
C281 H251 0.929 . S
C281 N277 1.418 . S
C281 C280 1.251 . S
C282 H249 0.930 . S
C282 C284 1.406 . S
C282 C287 1.261 . S
C283 H250 0.930 . S
C283 N285 1.325 . S
C283 C286 1.357 . S
C284 H252 0.928 . S
C284 C282 1.406 . S
C284 N285 1.261 . S
N285 Co236 2.214 . S
N285 C283 1.325 . S
N285 C284 1.261 . S
C286 H256 0.931 . S
C286 C283 1.357 . S
C286 C287 1.312 . S
C287 H258 0.930 . S
C287 C282 1.261 . S
C287 C286 1.312 . S
C288 O260 1.214 . S
C288 O268 1.234 . S
C289 H261 0.929 . S
C289 C292 1.391 . S
C289 C294 1.391 . S
C290 H262 0.929 . S
C290 C291 1.390 . S
C290 N293 1.391 . S
C291 H263 0.930 . S
C291 C290 1.390 . S
C291 C292 1.392 . S
C292 H264 0.929 . S
C292 C289 1.391 . S
C292 C291 1.392 . S
N293 Co237 2.257 . S
N293 C290 1.391 . S
N293 C294 1.388 . S
C294 H265 0.930 . S
C294 C289 1.391 . S
C294 N293 1.388 . S
Co295 O297 2.143 . S
Co295 O303 2.074 . S
Co295 O306 2.093 . S
Co295 O319 2.097 . S
Co295 N336 2.151 . S
Co295 N344 2.214 . S
Co296 O297 2.160 . S
Co296 O302 2.058 . S
Co296 O312 2.057 . S
Co296 O327 2.037 . S
Co296 N331 2.145 . S
Co296 N352 2.257 . S
O297 Co295 2.143 . S
O297 Co296 2.160 . S
C298 O299 1.278 . S
C298 O306 1.224 . S
O299 C298 1.278 . S
C300 O301 1.245 . S
C300 O312 1.232 . S
O301 C300 1.245 . S
O302 Co296 2.058 . S
O302 C328 1.269 . S
O303 Co295 2.074 . S
O303 C328 1.257 . S
H304 C329 0.930 . S
H305 C335 0.930 . S
O306 Co295 2.093 . S
O306 C298 1.224 . S
H307 C339 0.929 . S
H308 C341 0.930 . S
H309 C342 0.930 . S
H310 C340 0.929 . S
H311 C343 0.928 . S
O312 Co296 2.057 . S
O312 C300 1.232 . S
H313 C332 0.929 . S
H314 C333 0.929 . S
H315 C345 0.931 . S
H316 C337 0.929 . S
H317 C346 0.930 . S
H318 C338 0.931 . S
O319 Co295 2.097 . S
O319 C347 1.214 . S
H320 C348 0.929 . S
H321 C349 0.929 . S
H322 C350 0.930 . S
H323 C351 0.929 . S
H324 C353 0.930 . S
H325 C330 0.930 . S
H326 C334 0.930 . S
O327 Co296 2.037 . S
O327 C347 1.234 . S
C328 O302 1.269 . S
C328 O303 1.257 . S
C329 H304 0.930 . S
C329 C332 1.388 . S
C329 C334 1.418 . S
C330 H325 0.930 . S
C330 C333 1.404 . S
C330 C334 1.353 . S
N331 Co296 2.145 . S
N331 C332 1.397 . S
N331 C333 1.334 . S
C332 H313 0.929 . S
C332 C329 1.388 . S
C332 N331 1.397 . S
C333 H314 0.929 . S
C333 C330 1.404 . S
C333 N331 1.334 . S
C334 H326 0.930 . S
C334 C329 1.418 . S
C334 C330 1.353 . S
C335 H305 0.930 . S
C335 N336 1.330 . S
C335 C337 1.446 . S
N336 Co295 2.151 . S
N336 C335 1.330 . S
N336 C340 1.418 . S
C337 H316 0.929 . S
C337 C335 1.446 . S
C337 C338 1.332 . S
C338 H318 0.931 . S
C338 C337 1.332 . S
C338 C339 1.267 . S
C339 H307 0.929 . S
C339 C338 1.267 . S
C339 C340 1.251 . S
C340 H310 0.929 . S
C340 N336 1.418 . S
C340 C339 1.251 . S
C341 H308 0.930 . S
C341 C343 1.406 . S
C341 C346 1.261 . S
C342 H309 0.930 . S
C342 N344 1.325 . S
C342 C345 1.357 . S
C343 H311 0.928 . S
C343 C341 1.406 . S
C343 N344 1.261 . S
N344 Co295 2.214 . S
N344 C342 1.325 . S
N344 C343 1.261 . S
C345 H315 0.931 . S
C345 C342 1.357 . S
C345 C346 1.312 . S
C346 H317 0.930 . S
C346 C341 1.261 . S
C346 C345 1.312 . S
C347 O319 1.214 . S
C347 O327 1.234 . S
C348 H320 0.929 . S
C348 C351 1.391 . S
C348 C353 1.391 . S
C349 H321 0.929 . S
C349 C350 1.390 . S
C349 N352 1.391 . S
C350 H322 0.930 . S
C350 C349 1.390 . S
C350 C351 1.392 . S
C351 H323 0.929 . S
C351 C348 1.391 . S
C351 C350 1.392 . S
N352 Co296 2.257 . S
N352 C349 1.391 . S
N352 C353 1.388 . S
C353 H324 0.930 . S
C353 C348 1.391 . S
C353 N352 1.388 . S
Co354 O356 2.143 . S
Co354 O362 2.074 . S
Co354 O365 2.093 . S
Co354 O378 2.097 . S
Co354 N395 2.151 . S
Co354 N403 2.214 . S
Co355 O356 2.160 . S
Co355 O361 2.058 . S
Co355 O371 2.057 . S
Co355 O386 2.037 . S
Co355 N390 2.145 . S
Co355 N411 2.257 . S
O356 Co354 2.143 . S
O356 Co355 2.160 . S
C357 O358 1.278 . S
C357 O365 1.224 . S
O358 C357 1.278 . S
C359 O360 1.245 . S
C359 O371 1.232 . S
O360 C359 1.245 . S
O361 Co355 2.058 . S
O361 C387 1.269 . S
O362 Co354 2.074 . S
O362 C387 1.257 . S
H363 C388 0.930 . S
H364 C394 0.930 . S
O365 Co354 2.093 . S
O365 C357 1.224 . S
H366 C398 0.929 . S
H367 C400 0.930 . S
H368 C401 0.930 . S
H369 C399 0.929 . S
H370 C402 0.928 . S
O371 Co355 2.057 . S
O371 C359 1.232 . S
H372 C391 0.929 . S
H373 C392 0.929 . S
H374 C404 0.931 . S
H375 C396 0.929 . S
H376 C405 0.930 . S
H377 C397 0.931 . S
O378 Co354 2.097 . S
O378 C406 1.214 . S
H379 C407 0.929 . S
H380 C408 0.929 . S
H381 C409 0.930 . S
H382 C410 0.929 . S
H383 C412 0.930 . S
H384 C389 0.930 . S
H385 C393 0.930 . S
O386 Co355 2.037 . S
O386 C406 1.234 . S
C387 O361 1.269 . S
C387 O362 1.257 . S
C388 H363 0.930 . S
C388 C391 1.388 . S
C388 C393 1.418 . S
C389 H384 0.930 . S
C389 C392 1.404 . S
C389 C393 1.353 . S
N390 Co355 2.145 . S
N390 C391 1.397 . S
N390 C392 1.334 . S
C391 H372 0.929 . S
C391 C388 1.388 . S
C391 N390 1.397 . S
C392 H373 0.929 . S
C392 C389 1.404 . S
C392 N390 1.334 . S
C393 H385 0.930 . S
C393 C388 1.418 . S
C393 C389 1.353 . S
C394 H364 0.930 . S
C394 N395 1.330 . S
C394 C396 1.446 . S
N395 Co354 2.151 . S
N395 C394 1.330 . S
N395 C399 1.418 . S
C396 H375 0.929 . S
C396 C394 1.446 . S
C396 C397 1.332 . S
C397 H377 0.931 . S
C397 C396 1.332 . S
C397 C398 1.267 . S
C398 H366 0.929 . S
C398 C397 1.267 . S
C398 C399 1.251 . S
C399 H369 0.929 . S
C399 N395 1.418 . S
C399 C398 1.251 . S
C400 H367 0.930 . S
C400 C402 1.406 . S
C400 C405 1.261 . S
C401 H368 0.930 . S
C401 N403 1.325 . S
C401 C404 1.357 . S
C402 H370 0.928 . S
C402 C400 1.406 . S
C402 N403 1.261 . S
N403 Co354 2.214 . S
N403 C401 1.325 . S
N403 C402 1.261 . S
C404 H374 0.931 . S
C404 C401 1.357 . S
C404 C405 1.312 . S
C405 H376 0.930 . S
C405 C400 1.261 . S
C405 C404 1.312 . S
C406 O378 1.214 . S
C406 O386 1.234 . S
C407 H379 0.929 . S
C407 C410 1.391 . S
C407 C412 1.391 . S
C408 H380 0.929 . S
C408 C409 1.390 . S
C408 N411 1.391 . S
C409 H381 0.930 . S
C409 C408 1.390 . S
C409 C410 1.392 . S
C410 H382 0.929 . S
C410 C407 1.391 . S
C410 C409 1.392 . S
N411 Co355 2.257 . S
N411 C408 1.391 . S
N411 C412 1.388 . S
C412 H383 0.930 . S
C412 C407 1.391 . S
C412 N411 1.388 . S
Co413 O415 2.143 . S
Co413 O421 2.074 . S
Co413 O424 2.093 . S
Co413 O437 2.097 . S
Co413 N454 2.151 . S
Co413 N462 2.214 . S
Co414 O415 2.160 . S
Co414 O420 2.058 . S
Co414 O430 2.057 . S
Co414 O445 2.037 . S
Co414 N449 2.145 . S
Co414 N470 2.257 . S
O415 Co413 2.143 . S
O415 Co414 2.160 . S
C416 O417 1.278 . S
C416 O424 1.224 . S
O417 C416 1.278 . S
C418 O419 1.245 . S
C418 O430 1.232 . S
O419 C418 1.245 . S
O420 Co414 2.058 . S
O420 C446 1.269 . S
O421 Co413 2.074 . S
O421 C446 1.257 . S
H422 C447 0.930 . S
H423 C453 0.930 . S
O424 Co413 2.093 . S
O424 C416 1.224 . S
H425 C457 0.929 . S
H426 C459 0.930 . S
H427 C460 0.930 . S
H428 C458 0.929 . S
H429 C461 0.928 . S
O430 Co414 2.057 . S
O430 C418 1.232 . S
H431 C450 0.929 . S
H432 C451 0.929 . S
H433 C463 0.931 . S
H434 C455 0.929 . S
H435 C464 0.930 . S
H436 C456 0.931 . S
O437 Co413 2.097 . S
O437 C465 1.214 . S
H438 C466 0.929 . S
H439 C467 0.929 . S
H440 C468 0.930 . S
H441 C469 0.929 . S
H442 C471 0.930 . S
H443 C448 0.930 . S
H444 C452 0.930 . S
O445 Co414 2.037 . S
O445 C465 1.234 . S
C446 O420 1.269 . S
C446 O421 1.257 . S
C447 H422 0.930 . S
C447 C450 1.388 . S
C447 C452 1.418 . S
C448 H443 0.930 . S
C448 C451 1.404 . S
C448 C452 1.353 . S
N449 Co414 2.145 . S
N449 C450 1.397 . S
N449 C451 1.334 . S
C450 H431 0.929 . S
C450 C447 1.388 . S
C450 N449 1.397 . S
C451 H432 0.929 . S
C451 C448 1.404 . S
C451 N449 1.334 . S
C452 H444 0.930 . S
C452 C447 1.418 . S
C452 C448 1.353 . S
C453 H423 0.930 . S
C453 N454 1.330 . S
C453 C455 1.446 . S
N454 Co413 2.151 . S
N454 C453 1.330 . S
N454 C458 1.418 . S
C455 H434 0.929 . S
C455 C453 1.446 . S
C455 C456 1.332 . S
C456 H436 0.931 . S
C456 C455 1.332 . S
C456 C457 1.267 . S
C457 H425 0.929 . S
C457 C456 1.267 . S
C457 C458 1.251 . S
C458 H428 0.929 . S
C458 N454 1.418 . S
C458 C457 1.251 . S
C459 H426 0.930 . S
C459 C461 1.406 . S
C459 C464 1.261 . S
C460 H427 0.930 . S
C460 N462 1.325 . S
C460 C463 1.357 . S
C461 H429 0.928 . S
C461 C459 1.406 . S
C461 N462 1.261 . S
N462 Co413 2.214 . S
N462 C460 1.325 . S
N462 C461 1.261 . S
C463 H433 0.931 . S
C463 C460 1.357 . S
C463 C464 1.312 . S
C464 H435 0.930 . S
C464 C459 1.261 . S
C464 C463 1.312 . S
C465 O437 1.214 . S
C465 O445 1.234 . S
C466 H438 0.929 . S
C466 C469 1.391 . S
C466 C471 1.391 . S
C467 H439 0.929 . S
C467 C468 1.390 . S
C467 N470 1.391 . S
C468 H440 0.930 . S
C468 C467 1.390 . S
C468 C469 1.392 . S
C469 H441 0.929 . S
C469 C466 1.391 . S
C469 C468 1.392 . S
N470 Co414 2.257 . S
N470 C467 1.391 . S
N470 C471 1.388 . S
C471 H442 0.930 . S
C471 C466 1.391 . S
C471 N470 1.388 . S
Co472 O474 2.143 . S
Co472 O480 2.074 . S
Co472 O483 2.093 . S
Co472 O496 2.097 . S
Co472 N513 2.151 . S
Co472 N521 2.214 . S
Co473 O474 2.160 . S
Co473 O479 2.058 . S
Co473 O489 2.057 . S
Co473 O504 2.037 . S
Co473 N508 2.145 . S
Co473 N529 2.257 . S
O474 Co472 2.143 . S
O474 Co473 2.160 . S
C475 O476 1.278 . S
C475 O483 1.224 . S
O476 C475 1.278 . S
C477 O478 1.245 . S
C477 O489 1.232 . S
O478 C477 1.245 . S
O479 Co473 2.058 . S
O479 C505 1.269 . S
O480 Co472 2.074 . S
O480 C505 1.257 . S
H481 C506 0.930 . S
H482 C512 0.930 . S
O483 Co472 2.093 . S
O483 C475 1.224 . S
H484 C516 0.929 . S
H485 C518 0.930 . S
H486 C519 0.930 . S
H487 C517 0.929 . S
H488 C520 0.928 . S
O489 Co473 2.057 . S
O489 C477 1.232 . S
H490 C509 0.929 . S
H491 C510 0.929 . S
H492 C522 0.931 . S
H493 C514 0.929 . S
H494 C523 0.930 . S
H495 C515 0.931 . S
O496 Co472 2.097 . S
O496 C524 1.214 . S
H497 C525 0.929 . S
H498 C526 0.929 . S
H499 C527 0.930 . S
H500 C528 0.929 . S
H501 C530 0.930 . S
H502 C507 0.930 . S
H503 C511 0.930 . S
O504 Co473 2.037 . S
O504 C524 1.234 . S
C505 O479 1.269 . S
C505 O480 1.257 . S
C506 H481 0.930 . S
C506 C509 1.388 . S
C506 C511 1.418 . S
C507 H502 0.930 . S
C507 C510 1.404 . S
C507 C511 1.353 . S
N508 Co473 2.145 . S
N508 C509 1.397 . S
N508 C510 1.334 . S
C509 H490 0.929 . S
C509 C506 1.388 . S
C509 N508 1.397 . S
C510 H491 0.929 . S
C510 C507 1.404 . S
C510 N508 1.334 . S
C511 H503 0.930 . S
C511 C506 1.418 . S
C511 C507 1.353 . S
C512 H482 0.930 . S
C512 N513 1.330 . S
C512 C514 1.446 . S
N513 Co472 2.151 . S
N513 C512 1.330 . S
N513 C517 1.418 . S
C514 H493 0.929 . S
C514 C512 1.446 . S
C514 C515 1.332 . S
C515 H495 0.931 . S
C515 C514 1.332 . S
C515 C516 1.267 . S
C516 H484 0.929 . S
C516 C515 1.267 . S
C516 C517 1.251 . S
C517 H487 0.929 . S
C517 N513 1.418 . S
C517 C516 1.251 . S
C518 H485 0.930 . S
C518 C520 1.406 . S
C518 C523 1.261 . S
C519 H486 0.930 . S
C519 N521 1.325 . S
C519 C522 1.357 . S
C520 H488 0.928 . S
C520 C518 1.406 . S
C520 N521 1.261 . S
N521 Co472 2.214 . S
N521 C519 1.325 . S
N521 C520 1.261 . S
C522 H492 0.931 . S
C522 C519 1.357 . S
C522 C523 1.312 . S
C523 H494 0.930 . S
C523 C518 1.261 . S
C523 C522 1.312 . S
C524 O496 1.214 . S
C524 O504 1.234 . S
C525 H497 0.929 . S
C525 C528 1.391 . S
C525 C530 1.391 . S
C526 H498 0.929 . S
C526 C527 1.390 . S
C526 N529 1.391 . S
C527 H499 0.930 . S
C527 C526 1.390 . S
C527 C528 1.392 . S
C528 H500 0.929 . S
C528 C525 1.391 . S
C528 C527 1.392 . S
N529 Co473 2.257 . S
N529 C526 1.391 . S
N529 C530 1.388 . S
C530 H501 0.930 . S
C530 C525 1.391 . S
C530 N529 1.388 . S
Co531 O533 2.143 . S
Co531 O539 2.074 . S
Co531 O542 2.093 . S
Co531 O555 2.097 . S
Co531 N572 2.151 . S
Co531 N580 2.214 . S
Co532 O533 2.160 . S
Co532 O538 2.058 . S
Co532 O548 2.057 . S
Co532 O563 2.037 . S
Co532 N567 2.145 . S
Co532 N588 2.257 . S
O533 Co531 2.143 . S
O533 Co532 2.160 . S
C534 O535 1.278 . S
C534 O542 1.224 . S
O535 C534 1.278 . S
C536 O537 1.245 . S
C536 O548 1.232 . S
O537 C536 1.245 . S
O538 Co532 2.058 . S
O538 C564 1.269 . S
O539 Co531 2.074 . S
O539 C564 1.257 . S
H540 C565 0.930 . S
H541 C571 0.930 . S
O542 Co531 2.093 . S
O542 C534 1.224 . S
H543 C575 0.929 . S
H544 C577 0.930 . S
H545 C578 0.930 . S
H546 C576 0.929 . S
H547 C579 0.928 . S
O548 Co532 2.057 . S
O548 C536 1.232 . S
H549 C568 0.929 . S
H550 C569 0.929 . S
H551 C581 0.931 . S
H552 C573 0.929 . S
H553 C582 0.930 . S
H554 C574 0.931 . S
O555 Co531 2.097 . S
O555 C583 1.214 . S
H556 C584 0.929 . S
H557 C585 0.929 . S
H558 C586 0.930 . S
H559 C587 0.929 . S
H560 C589 0.930 . S
H561 C566 0.930 . S
H562 C570 0.930 . S
O563 Co532 2.037 . S
O563 C583 1.234 . S
C564 O538 1.269 . S
C564 O539 1.257 . S
C565 H540 0.930 . S
C565 C568 1.388 . S
C565 C570 1.418 . S
C566 H561 0.930 . S
C566 C569 1.404 . S
C566 C570 1.353 . S
N567 Co532 2.145 . S
N567 C568 1.397 . S
N567 C569 1.334 . S
C568 H549 0.929 . S
C568 C565 1.388 . S
C568 N567 1.397 . S
C569 H550 0.929 . S
C569 C566 1.404 . S
C569 N567 1.334 . S
C570 H562 0.930 . S
C570 C565 1.418 . S
C570 C566 1.353 . S
C571 H541 0.930 . S
C571 N572 1.330 . S
C571 C573 1.446 . S
N572 Co531 2.151 . S
N572 C571 1.330 . S
N572 C576 1.418 . S
C573 H552 0.929 . S
C573 C571 1.446 . S
C573 C574 1.332 . S
C574 H554 0.931 . S
C574 C573 1.332 . S
C574 C575 1.267 . S
C575 H543 0.929 . S
C575 C574 1.267 . S
C575 C576 1.251 . S
C576 H546 0.929 . S
C576 N572 1.418 . S
C576 C575 1.251 . S
C577 H544 0.930 . S
C577 C579 1.406 . S
C577 C582 1.261 . S
C578 H545 0.930 . S
C578 N580 1.325 . S
C578 C581 1.357 . S
C579 H547 0.928 . S
C579 C577 1.406 . S
C579 N580 1.261 . S
N580 Co531 2.214 . S
N580 C578 1.325 . S
N580 C579 1.261 . S
C581 H551 0.931 . S
C581 C578 1.357 . S
C581 C582 1.312 . S
C582 H553 0.930 . S
C582 C577 1.261 . S
C582 C581 1.312 . S
C583 O555 1.214 . S
C583 O563 1.234 . S
C584 H556 0.929 . S
C584 C587 1.391 . S
C584 C589 1.391 . S
C585 H557 0.929 . S
C585 C586 1.390 . S
C585 N588 1.391 . S
C586 H558 0.930 . S
C586 C585 1.390 . S
C586 C587 1.392 . S
C587 H559 0.929 . S
C587 C584 1.391 . S
C587 C586 1.392 . S
N588 Co532 2.257 . S
N588 C585 1.391 . S
N588 C589 1.388 . S
C589 H560 0.930 . S
C589 C584 1.391 . S
C589 N588 1.388 . S
Co590 O592 2.143 . S
Co590 O598 2.074 . S
Co590 O601 2.093 . S
Co590 O614 2.097 . S
Co590 N631 2.151 . S
Co590 N639 2.214 . S
Co591 O592 2.160 . S
Co591 O597 2.058 . S
Co591 O607 2.057 . S
Co591 O622 2.037 . S
Co591 N626 2.145 . S
Co591 N647 2.257 . S
O592 Co590 2.143 . S
O592 Co591 2.160 . S
C593 O594 1.278 . S
C593 O601 1.224 . S
O594 C593 1.278 . S
C595 O596 1.245 . S
C595 O607 1.232 . S
O596 C595 1.245 . S
O597 Co591 2.058 . S
O597 C623 1.269 . S
O598 Co590 2.074 . S
O598 C623 1.257 . S
H599 C624 0.930 . S
H600 C630 0.930 . S
O601 Co590 2.093 . S
O601 C593 1.224 . S
H602 C634 0.929 . S
H603 C636 0.930 . S
H604 C637 0.930 . S
H605 C635 0.929 . S
H606 C638 0.928 . S
O607 Co591 2.057 . S
O607 C595 1.232 . S
H608 C627 0.929 . S
H609 C628 0.929 . S
H610 C640 0.931 . S
H611 C632 0.929 . S
H612 C641 0.930 . S
H613 C633 0.931 . S
O614 Co590 2.097 . S
O614 C642 1.214 . S
H615 C643 0.929 . S
H616 C644 0.929 . S
H617 C645 0.930 . S
H618 C646 0.929 . S
H619 C648 0.930 . S
H620 C625 0.930 . S
H621 C629 0.930 . S
O622 Co591 2.037 . S
O622 C642 1.234 . S
C623 O597 1.269 . S
C623 O598 1.257 . S
C624 H599 0.930 . S
C624 C627 1.388 . S
C624 C629 1.418 . S
C625 H620 0.930 . S
C625 C628 1.404 . S
C625 C629 1.353 . S
N626 Co591 2.145 . S
N626 C627 1.397 . S
N626 C628 1.334 . S
C627 H608 0.929 . S
C627 C624 1.388 . S
C627 N626 1.397 . S
C628 H609 0.929 . S
C628 C625 1.404 . S
C628 N626 1.334 . S
C629 H621 0.930 . S
C629 C624 1.418 . S
C629 C625 1.353 . S
C630 H600 0.930 . S
C630 N631 1.330 . S
C630 C632 1.446 . S
N631 Co590 2.151 . S
N631 C630 1.330 . S
N631 C635 1.418 . S
C632 H611 0.929 . S
C632 C630 1.446 . S
C632 C633 1.332 . S
C633 H613 0.931 . S
C633 C632 1.332 . S
C633 C634 1.267 . S
C634 H602 0.929 . S
C634 C633 1.267 . S
C634 C635 1.251 . S
C635 H605 0.929 . S
C635 N631 1.418 . S
C635 C634 1.251 . S
C636 H603 0.930 . S
C636 C638 1.406 . S
C636 C641 1.261 . S
C637 H604 0.930 . S
C637 N639 1.325 . S
C637 C640 1.357 . S
C638 H606 0.928 . S
C638 C636 1.406 . S
C638 N639 1.261 . S
N639 Co590 2.214 . S
N639 C637 1.325 . S
N639 C638 1.261 . S
C640 H610 0.931 . S
C640 C637 1.357 . S
C640 C641 1.312 . S
C641 H612 0.930 . S
C641 C636 1.261 . S
C641 C640 1.312 . S
C642 O614 1.214 . S
C642 O622 1.234 . S
C643 H615 0.929 . S
C643 C646 1.391 . S
C643 C648 1.391 . S
C644 H616 0.929 . S
C644 C645 1.390 . S
C644 N647 1.391 . S
C645 H617 0.930 . S
C645 C644 1.390 . S
C645 C646 1.392 . S
C646 H618 0.929 . S
C646 C643 1.391 . S
C646 C645 1.392 . S
N647 Co591 2.257 . S
N647 C644 1.391 . S
N647 C648 1.388 . S
C648 H619 0.930 . S
C648 C643 1.391 . S
C648 N647 1.388 . S
Co649 O651 2.143 . S
Co649 O657 2.074 . S
Co649 O660 2.093 . S
Co649 O673 2.097 . S
Co649 N690 2.151 . S
Co649 N698 2.214 . S
Co650 O651 2.160 . S
Co650 O656 2.058 . S
Co650 O666 2.057 . S
Co650 O681 2.037 . S
Co650 N685 2.145 . S
Co650 N706 2.257 . S
O651 Co649 2.143 . S
O651 Co650 2.160 . S
C652 O653 1.278 . S
C652 O660 1.224 . S
O653 C652 1.278 . S
C654 O655 1.245 . S
C654 O666 1.232 . S
O655 C654 1.245 . S
O656 Co650 2.058 . S
O656 C682 1.269 . S
O657 Co649 2.074 . S
O657 C682 1.257 . S
H658 C683 0.930 . S
H659 C689 0.930 . S
O660 Co649 2.093 . S
O660 C652 1.224 . S
H661 C693 0.929 . S
H662 C695 0.930 . S
H663 C696 0.930 . S
H664 C694 0.929 . S
H665 C697 0.928 . S
O666 Co650 2.057 . S
O666 C654 1.232 . S
H667 C686 0.929 . S
H668 C687 0.929 . S
H669 C699 0.931 . S
H670 C691 0.929 . S
H671 C700 0.930 . S
H672 C692 0.931 . S
O673 Co649 2.097 . S
O673 C701 1.214 . S
H674 C702 0.929 . S
H675 C703 0.929 . S
H676 C704 0.930 . S
H677 C705 0.929 . S
H678 C707 0.930 . S
H679 C684 0.930 . S
H680 C688 0.930 . S
O681 Co650 2.037 . S
O681 C701 1.234 . S
C682 O656 1.269 . S
C682 O657 1.257 . S
C683 H658 0.930 . S
C683 C686 1.388 . S
C683 C688 1.418 . S
C684 H679 0.930 . S
C684 C687 1.404 . S
C684 C688 1.353 . S
N685 Co650 2.145 . S
N685 C686 1.397 . S
N685 C687 1.334 . S
C686 H667 0.929 . S
C686 C683 1.388 . S
C686 N685 1.397 . S
C687 H668 0.929 . S
C687 C684 1.404 . S
C687 N685 1.334 . S
C688 H680 0.930 . S
C688 C683 1.418 . S
C688 C684 1.353 . S
C689 H659 0.930 . S
C689 N690 1.330 . S
C689 C691 1.446 . S
N690 Co649 2.151 . S
N690 C689 1.330 . S
N690 C694 1.418 . S
C691 H670 0.929 . S
C691 C689 1.446 . S
C691 C692 1.332 . S
C692 H672 0.931 . S
C692 C691 1.332 . S
C692 C693 1.267 . S
C693 H661 0.929 . S
C693 C692 1.267 . S
C693 C694 1.251 . S
C694 H664 0.929 . S
C694 N690 1.418 . S
C694 C693 1.251 . S
C695 H662 0.930 . S
C695 C697 1.406 . S
C695 C700 1.261 . S
C696 H663 0.930 . S
C696 N698 1.325 . S
C696 C699 1.357 . S
C697 H665 0.928 . S
C697 C695 1.406 . S
C697 N698 1.261 . S
N698 Co649 2.214 . S
N698 C696 1.325 . S
N698 C697 1.261 . S
C699 H669 0.931 . S
C699 C696 1.357 . S
C699 C700 1.312 . S
C700 H671 0.930 . S
C700 C695 1.261 . S
C700 C699 1.312 . S
C701 O673 1.214 . S
C701 O681 1.234 . S
C702 H674 0.929 . S
C702 C705 1.391 . S
C702 C707 1.391 . S
C703 H675 0.929 . S
C703 C704 1.390 . S
C703 N706 1.391 . S
C704 H676 0.930 . S
C704 C703 1.390 . S
C704 C705 1.392 . S
C705 H677 0.929 . S
C705 C702 1.391 . S
C705 C704 1.392 . S
N706 Co650 2.257 . S
N706 C703 1.391 . S
N706 C707 1.388 . S
C707 H678 0.930 . S
C707 C702 1.391 . S
C707 N706 1.388 . S
Co708 O710 2.143 . S
Co708 O716 2.074 . S
Co708 O719 2.093 . S
Co708 O732 2.097 . S
Co708 N749 2.151 . S
Co708 N757 2.214 . S
Co709 O710 2.160 . S
Co709 O715 2.058 . S
Co709 O725 2.057 . S
Co709 O740 2.037 . S
Co709 N744 2.145 . S
Co709 N765 2.257 . S
O710 Co708 2.143 . S
O710 Co709 2.160 . S
C711 O712 1.278 . S
C711 O719 1.224 . S
O712 C711 1.278 . S
C713 O714 1.245 . S
C713 O725 1.232 . S
O714 C713 1.245 . S
O715 Co709 2.058 . S
O715 C741 1.269 . S
O716 Co708 2.074 . S
O716 C741 1.257 . S
H717 C742 0.930 . S
H718 C748 0.930 . S
O719 Co708 2.093 . S
O719 C711 1.224 . S
H720 C752 0.929 . S
H721 C754 0.930 . S
H722 C755 0.930 . S
H723 C753 0.929 . S
H724 C756 0.928 . S
O725 Co709 2.057 . S
O725 C713 1.232 . S
H726 C745 0.929 . S
H727 C746 0.929 . S
H728 C758 0.931 . S
H729 C750 0.929 . S
H730 C759 0.930 . S
H731 C751 0.931 . S
O732 Co708 2.097 . S
O732 C760 1.214 . S
H733 C761 0.929 . S
H734 C762 0.929 . S
H735 C763 0.930 . S
H736 C764 0.929 . S
H737 C766 0.930 . S
H738 C743 0.930 . S
H739 C747 0.930 . S
O740 Co709 2.037 . S
O740 C760 1.234 . S
C741 O715 1.269 . S
C741 O716 1.257 . S
C742 H717 0.930 . S
C742 C745 1.388 . S
C742 C747 1.418 . S
C743 H738 0.930 . S
C743 C746 1.404 . S
C743 C747 1.353 . S
N744 Co709 2.145 . S
N744 C745 1.397 . S
N744 C746 1.334 . S
C745 H726 0.929 . S
C745 C742 1.388 . S
C745 N744 1.397 . S
C746 H727 0.929 . S
C746 C743 1.404 . S
C746 N744 1.334 . S
C747 H739 0.930 . S
C747 C742 1.418 . S
C747 C743 1.353 . S
C748 H718 0.930 . S
C748 N749 1.330 . S
C748 C750 1.446 . S
N749 Co708 2.151 . S
N749 C748 1.330 . S
N749 C753 1.418 . S
C750 H729 0.929 . S
C750 C748 1.446 . S
C750 C751 1.332 . S
C751 H731 0.931 . S
C751 C750 1.332 . S
C751 C752 1.267 . S
C752 H720 0.929 . S
C752 C751 1.267 . S
C752 C753 1.251 . S
C753 H723 0.929 . S
C753 N749 1.418 . S
C753 C752 1.251 . S
C754 H721 0.930 . S
C754 C756 1.406 . S
C754 C759 1.261 . S
C755 H722 0.930 . S
C755 N757 1.325 . S
C755 C758 1.357 . S
C756 H724 0.928 . S
C756 C754 1.406 . S
C756 N757 1.261 . S
N757 Co708 2.214 . S
N757 C755 1.325 . S
N757 C756 1.261 . S
C758 H728 0.931 . S
C758 C755 1.357 . S
C758 C759 1.312 . S
C759 H730 0.930 . S
C759 C754 1.261 . S
C759 C758 1.312 . S
C760 O732 1.214 . S
C760 O740 1.234 . S
C761 H733 0.929 . S
C761 C764 1.391 . S
C761 C766 1.391 . S
C762 H734 0.929 . S
C762 C763 1.390 . S
C762 N765 1.391 . S
C763 H735 0.930 . S
C763 C762 1.390 . S
C763 C764 1.392 . S
C764 H736 0.929 . S
C764 C761 1.391 . S
C764 C763 1.392 . S
N765 Co709 2.257 . S
N765 C762 1.391 . S
N765 C766 1.388 . S
C766 H737 0.930 . S
C766 C761 1.391 . S
C766 N765 1.388 . S
Co767 O769 2.143 . S
Co767 O775 2.074 . S
Co767 O778 2.093 . S
Co767 O791 2.097 . S
Co767 N808 2.151 . S
Co767 N816 2.214 . S
Co768 O769 2.160 . S
Co768 O774 2.058 . S
Co768 O784 2.057 . S
Co768 O799 2.037 . S
Co768 N803 2.145 . S
Co768 N824 2.257 . S
O769 Co767 2.143 . S
O769 Co768 2.160 . S
C770 O771 1.278 . S
C770 O778 1.224 . S
O771 C770 1.278 . S
C772 O773 1.245 . S
C772 O784 1.232 . S
O773 C772 1.245 . S
O774 Co768 2.058 . S
O774 C800 1.269 . S
O775 Co767 2.074 . S
O775 C800 1.257 . S
H776 C801 0.930 . S
H777 C807 0.930 . S
O778 Co767 2.093 . S
O778 C770 1.224 . S
H779 C811 0.929 . S
H780 C813 0.930 . S
H781 C814 0.930 . S
H782 C812 0.929 . S
H783 C815 0.928 . S
O784 Co768 2.057 . S
O784 C772 1.232 . S
H785 C804 0.929 . S
H786 C805 0.929 . S
H787 C817 0.931 . S
H788 C809 0.929 . S
H789 C818 0.930 . S
H790 C810 0.931 . S
O791 Co767 2.097 . S
O791 C819 1.214 . S
H792 C820 0.929 . S
H793 C821 0.929 . S
H794 C822 0.930 . S
H795 C823 0.929 . S
H796 C825 0.930 . S
H797 C802 0.930 . S
H798 C806 0.930 . S
O799 Co768 2.037 . S
O799 C819 1.234 . S
C800 O774 1.269 . S
C800 O775 1.257 . S
C801 H776 0.930 . S
C801 C804 1.388 . S
C801 C806 1.418 . S
C802 H797 0.930 . S
C802 C805 1.404 . S
C802 C806 1.353 . S
N803 Co768 2.145 . S
N803 C804 1.397 . S
N803 C805 1.334 . S
C804 H785 0.929 . S
C804 C801 1.388 . S
C804 N803 1.397 . S
C805 H786 0.929 . S
C805 C802 1.404 . S
C805 N803 1.334 . S
C806 H798 0.930 . S
C806 C801 1.418 . S
C806 C802 1.353 . S
C807 H777 0.930 . S
C807 N808 1.330 . S
C807 C809 1.446 . S
N808 Co767 2.151 . S
N808 C807 1.330 . S
N808 C812 1.418 . S
C809 H788 0.929 . S
C809 C807 1.446 . S
C809 C810 1.332 . S
C810 H790 0.931 . S
C810 C809 1.332 . S
C810 C811 1.267 . S
C811 H779 0.929 . S
C811 C810 1.267 . S
C811 C812 1.251 . S
C812 H782 0.929 . S
C812 N808 1.418 . S
C812 C811 1.251 . S
C813 H780 0.930 . S
C813 C815 1.406 . S
C813 C818 1.261 . S
C814 H781 0.930 . S
C814 N816 1.325 . S
C814 C817 1.357 . S
C815 H783 0.928 . S
C815 C813 1.406 . S
C815 N816 1.261 . S
N816 Co767 2.214 . S
N816 C814 1.325 . S
N816 C815 1.261 . S
C817 H787 0.931 . S
C817 C814 1.357 . S
C817 C818 1.312 . S
C818 H789 0.930 . S
C818 C813 1.261 . S
C818 C817 1.312 . S
C819 O791 1.214 . S
C819 O799 1.234 . S
C820 H792 0.929 . S
C820 C823 1.391 . S
C820 C825 1.391 . S
C821 H793 0.929 . S
C821 C822 1.390 . S
C821 N824 1.391 . S
C822 H794 0.930 . S
C822 C821 1.390 . S
C822 C823 1.392 . S
C823 H795 0.929 . S
C823 C820 1.391 . S
C823 C822 1.392 . S
N824 Co768 2.257 . S
N824 C821 1.391 . S
N824 C825 1.388 . S
C825 H796 0.930 . S
C825 C820 1.391 . S
C825 N824 1.388 . S
Co826 O828 2.143 . S
Co826 O834 2.074 . S
Co826 O837 2.093 . S
Co826 O850 2.097 . S
Co826 N867 2.151 . S
Co826 N875 2.214 . S
Co827 O828 2.160 . S
Co827 O833 2.058 . S
Co827 O843 2.057 . S
Co827 O858 2.037 . S
Co827 N862 2.145 . S
Co827 N883 2.257 . S
O828 Co826 2.143 . S
O828 Co827 2.160 . S
C829 O830 1.278 . S
C829 O837 1.224 . S
O830 C829 1.278 . S
C831 O832 1.245 . S
C831 O843 1.232 . S
O832 C831 1.245 . S
O833 Co827 2.058 . S
O833 C859 1.269 . S
O834 Co826 2.074 . S
O834 C859 1.257 . S
H835 C860 0.930 . S
H836 C866 0.930 . S
O837 Co826 2.093 . S
O837 C829 1.224 . S
H838 C870 0.929 . S
H839 C872 0.930 . S
H840 C873 0.930 . S
H841 C871 0.929 . S
H842 C874 0.928 . S
O843 Co827 2.057 . S
O843 C831 1.232 . S
H844 C863 0.929 . S
H845 C864 0.929 . S
H846 C876 0.931 . S
H847 C868 0.929 . S
H848 C877 0.930 . S
H849 C869 0.931 . S
O850 Co826 2.097 . S
O850 C878 1.214 . S
H851 C879 0.929 . S
H852 C880 0.929 . S
H853 C881 0.930 . S
H854 C882 0.929 . S
H855 C884 0.930 . S
H856 C861 0.930 . S
H857 C865 0.930 . S
O858 Co827 2.037 . S
O858 C878 1.234 . S
C859 O833 1.269 . S
C859 O834 1.257 . S
C860 H835 0.930 . S
C860 C863 1.388 . S
C860 C865 1.418 . S
C861 H856 0.930 . S
C861 C864 1.404 . S
C861 C865 1.353 . S
N862 Co827 2.145 . S
N862 C863 1.397 . S
N862 C864 1.334 . S
C863 H844 0.929 . S
C863 C860 1.388 . S
C863 N862 1.397 . S
C864 H845 0.929 . S
C864 C861 1.404 . S
C864 N862 1.334 . S
C865 H857 0.930 . S
C865 C860 1.418 . S
C865 C861 1.353 . S
C866 H836 0.930 . S
C866 N867 1.330 . S
C866 C868 1.446 . S
N867 Co826 2.151 . S
N867 C866 1.330 . S
N867 C871 1.418 . S
C868 H847 0.929 . S
C868 C866 1.446 . S
C868 C869 1.332 . S
C869 H849 0.931 . S
C869 C868 1.332 . S
C869 C870 1.267 . S
C870 H838 0.929 . S
C870 C869 1.267 . S
C870 C871 1.251 . S
C871 H841 0.929 . S
C871 N867 1.418 . S
C871 C870 1.251 . S
C872 H839 0.930 . S
C872 C874 1.406 . S
C872 C877 1.261 . S
C873 H840 0.930 . S
C873 N875 1.325 . S
C873 C876 1.357 . S
C874 H842 0.928 . S
C874 C872 1.406 . S
C874 N875 1.261 . S
N875 Co826 2.214 . S
N875 C873 1.325 . S
N875 C874 1.261 . S
C876 H846 0.931 . S
C876 C873 1.357 . S
C876 C877 1.312 . S
C877 H848 0.930 . S
C877 C872 1.261 . S
C877 C876 1.312 . S
C878 O850 1.214 . S
C878 O858 1.234 . S
C879 H851 0.929 . S
C879 C882 1.391 . S
C879 C884 1.391 . S
C880 H852 0.929 . S
C880 C881 1.390 . S
C880 N883 1.391 . S
C881 H853 0.930 . S
C881 C880 1.390 . S
C881 C882 1.392 . S
C882 H854 0.929 . S
C882 C879 1.391 . S
C882 C881 1.392 . S
N883 Co827 2.257 . S
N883 C880 1.391 . S
N883 C884 1.388 . S
C884 H855 0.930 . S
C884 C879 1.391 . S
C884 N883 1.388 . S
Co885 O887 2.143 . S
Co885 O893 2.074 . S
Co885 O896 2.093 . S
Co885 O909 2.097 . S
Co885 N926 2.151 . S
Co885 N934 2.214 . S
Co886 O887 2.160 . S
Co886 O892 2.058 . S
Co886 O902 2.057 . S
Co886 O917 2.037 . S
Co886 N921 2.145 . S
Co886 N942 2.257 . S
O887 Co885 2.143 . S
O887 Co886 2.160 . S
C888 O889 1.278 . S
C888 O896 1.224 . S
O889 C888 1.278 . S
C890 O891 1.245 . S
C890 O902 1.232 . S
O891 C890 1.245 . S
O892 Co886 2.058 . S
O892 C918 1.269 . S
O893 Co885 2.074 . S
O893 C918 1.257 . S
H894 C919 0.930 . S
H895 C925 0.930 . S
O896 Co885 2.093 . S
O896 C888 1.224 . S
H897 C929 0.929 . S
H898 C931 0.930 . S
H899 C932 0.930 . S
H900 C930 0.929 . S
H901 C933 0.928 . S
O902 Co886 2.057 . S
O902 C890 1.232 . S
H903 C922 0.929 . S
H904 C923 0.929 . S
H905 C935 0.931 . S
H906 C927 0.929 . S
H907 C936 0.930 . S
H908 C928 0.931 . S
O909 Co885 2.097 . S
O909 C937 1.214 . S
H910 C938 0.929 . S
H911 C939 0.929 . S
H912 C940 0.930 . S
H913 C941 0.929 . S
H914 C943 0.930 . S
H915 C920 0.930 . S
H916 C924 0.930 . S
O917 Co886 2.037 . S
O917 C937 1.234 . S
C918 O892 1.269 . S
C918 O893 1.257 . S
C919 H894 0.930 . S
C919 C922 1.388 . S
C919 C924 1.418 . S
C920 H915 0.930 . S
C920 C923 1.404 . S
C920 C924 1.353 . S
N921 Co886 2.145 . S
N921 C922 1.397 . S
N921 C923 1.334 . S
C922 H903 0.929 . S
C922 C919 1.388 . S
C922 N921 1.397 . S
C923 H904 0.929 . S
C923 C920 1.404 . S
C923 N921 1.334 . S
C924 H916 0.930 . S
C924 C919 1.418 . S
C924 C920 1.353 . S
C925 H895 0.930 . S
C925 N926 1.330 . S
C925 C927 1.446 . S
N926 Co885 2.151 . S
N926 C925 1.330 . S
N926 C930 1.418 . S
C927 H906 0.929 . S
C927 C925 1.446 . S
C927 C928 1.332 . S
C928 H908 0.931 . S
C928 C927 1.332 . S
C928 C929 1.267 . S
C929 H897 0.929 . S
C929 C928 1.267 . S
C929 C930 1.251 . S
C930 H900 0.929 . S
C930 N926 1.418 . S
C930 C929 1.251 . S
C931 H898 0.930 . S
C931 C933 1.406 . S
C931 C936 1.261 . S
C932 H899 0.930 . S
C932 N934 1.325 . S
C932 C935 1.357 . S
C933 H901 0.928 . S
C933 C931 1.406 . S
C933 N934 1.261 . S
N934 Co885 2.214 . S
N934 C932 1.325 . S
N934 C933 1.261 . S
C935 H905 0.931 . S
C935 C932 1.357 . S
C935 C936 1.312 . S
C936 H907 0.930 . S
C936 C931 1.261 . S
C936 C935 1.312 . S
C937 O909 1.214 . S
C937 O917 1.234 . S
C938 H910 0.929 . S
C938 C941 1.391 . S
C938 C943 1.391 . S
C939 H911 0.929 . S
C939 C940 1.390 . S
C939 N942 1.391 . S
C940 H912 0.930 . S
C940 C939 1.390 . S
C940 C941 1.392 . S
C941 H913 0.929 . S
C941 C938 1.391 . S
C941 C940 1.392 . S
N942 Co886 2.257 . S
N942 C939 1.391 . S
N942 C943 1.388 . S
C943 H914 0.930 . S
C943 C938 1.391 . S
C943 N942 1.388 . S
Co944 O946 2.143 . S
Co944 O952 2.074 . S
Co944 O955 2.093 . S
Co944 O968 2.097 . S
Co944 N985 2.151 . S
Co944 N993 2.214 . S
Co945 O946 2.160 . S
Co945 O951 2.058 . S
Co945 O961 2.057 . S
Co945 O976 2.037 . S
Co945 N980 2.145 . S
Co945 N1001 2.257 . S
O946 Co944 2.143 . S
O946 Co945 2.160 . S
C947 O948 1.278 . S
C947 O955 1.224 . S
O948 C947 1.278 . S
C949 O950 1.245 . S
C949 O961 1.232 . S
O950 C949 1.245 . S
O951 Co945 2.058 . S
O951 C977 1.269 . S
O952 Co944 2.074 . S
O952 C977 1.257 . S
H953 C978 0.930 . S
H954 C984 0.930 . S
O955 Co944 2.093 . S
O955 C947 1.224 . S
H956 C988 0.929 . S
H957 C990 0.930 . S
H958 C991 0.930 . S
H959 C989 0.929 . S
H960 C992 0.928 . S
O961 Co945 2.057 . S
O961 C949 1.232 . S
H962 C981 0.929 . S
H963 C982 0.929 . S
H964 C994 0.931 . S
H965 C986 0.929 . S
H966 C995 0.930 . S
H967 C987 0.931 . S
O968 Co944 2.097 . S
O968 C996 1.214 . S
H969 C997 0.929 . S
H970 C998 0.929 . S
H971 C999 0.930 . S
H972 C1000 0.929 . S
H973 C1002 0.930 . S
H974 C979 0.930 . S
H975 C983 0.930 . S
O976 Co945 2.037 . S
O976 C996 1.234 . S
C977 O951 1.269 . S
C977 O952 1.257 . S
C978 H953 0.930 . S
C978 C981 1.388 . S
C978 C983 1.418 . S
C979 H974 0.930 . S
C979 C982 1.404 . S
C979 C983 1.353 . S
N980 Co945 2.145 . S
N980 C981 1.397 . S
N980 C982 1.334 . S
C981 H962 0.929 . S
C981 C978 1.388 . S
C981 N980 1.397 . S
C982 H963 0.929 . S
C982 C979 1.404 . S
C982 N980 1.334 . S
C983 H975 0.930 . S
C983 C978 1.418 . S
C983 C979 1.353 . S
C984 H954 0.930 . S
C984 N985 1.330 . S
C984 C986 1.446 . S
N985 Co944 2.151 . S
N985 C984 1.330 . S
N985 C989 1.418 . S
C986 H965 0.929 . S
C986 C984 1.446 . S
C986 C987 1.332 . S
C987 H967 0.931 . S
C987 C986 1.332 . S
C987 C988 1.267 . S
C988 H956 0.929 . S
C988 C987 1.267 . S
C988 C989 1.251 . S
C989 H959 0.929 . S
C989 N985 1.418 . S
C989 C988 1.251 . S
C990 H957 0.930 . S
C990 C992 1.406 . S
C990 C995 1.261 . S
C991 H958 0.930 . S
C991 N993 1.325 . S
C991 C994 1.357 . S
C992 H960 0.928 . S
C992 C990 1.406 . S
C992 N993 1.261 . S
N993 Co944 2.214 . S
N993 C991 1.325 . S
N993 C992 1.261 . S
C994 H964 0.931 . S
C994 C991 1.357 . S
C994 C995 1.312 . S
C995 H966 0.930 . S
C995 C990 1.261 . S
C995 C994 1.312 . S
C996 O968 1.214 . S
C996 O976 1.234 . S
C997 H969 0.929 . S
C997 C1000 1.391 . S
C997 C1002 1.391 . S
C998 H970 0.929 . S
C998 C999 1.390 . S
C998 N1001 1.391 . S
C999 H971 0.930 . S
C999 C998 1.390 . S
C999 C1000 1.392 . S
C1000 H972 0.929 . S
C1000 C997 1.391 . S
C1000 C999 1.392 . S
N1001 Co945 2.257 . S
N1001 C998 1.391 . S
N1001 C1002 1.388 . S
C1002 H973 0.930 . S
C1002 C997 1.391 . S
C1002 N1001 1.388 . S
Co1003 O1005 2.143 . S
Co1003 O1011 2.074 . S
Co1003 O1014 2.093 . S
Co1003 O1027 2.097 . S
Co1003 N1044 2.151 . S
Co1003 N1052 2.214 . S
Co1004 O1005 2.160 . S
Co1004 O1010 2.058 . S
Co1004 O1020 2.057 . S
Co1004 O1035 2.037 . S
Co1004 N1039 2.145 . S
Co1004 N1060 2.257 . S
O1005 Co1003 2.143 . S
O1005 Co1004 2.160 . S
C1006 O1007 1.278 . S
C1006 O1014 1.224 . S
O1007 C1006 1.278 . S
C1008 O1009 1.245 . S
C1008 O1020 1.232 . S
O1009 C1008 1.245 . S
O1010 Co1004 2.058 . S
O1010 C1036 1.269 . S
O1011 Co1003 2.074 . S
O1011 C1036 1.257 . S
H1012 C1037 0.930 . S
H1013 C1043 0.930 . S
O1014 Co1003 2.093 . S
O1014 C1006 1.224 . S
H1015 C1047 0.929 . S
H1016 C1049 0.930 . S
H1017 C1050 0.930 . S
H1018 C1048 0.929 . S
H1019 C1051 0.928 . S
O1020 Co1004 2.057 . S
O1020 C1008 1.232 . S
H1021 C1040 0.929 . S
H1022 C1041 0.929 . S
H1023 C1053 0.931 . S
H1024 C1045 0.929 . S
H1025 C1054 0.930 . S
H1026 C1046 0.931 . S
O1027 Co1003 2.097 . S
O1027 C1055 1.214 . S
H1028 C1056 0.929 . S
H1029 C1057 0.929 . S
H1030 C1058 0.930 . S
H1031 C1059 0.929 . S
H1032 C1061 0.930 . S
H1033 C1038 0.930 . S
H1034 C1042 0.930 . S
O1035 Co1004 2.037 . S
O1035 C1055 1.234 . S
C1036 O1010 1.269 . S
C1036 O1011 1.257 . S
C1037 H1012 0.930 . S
C1037 C1040 1.388 . S
C1037 C1042 1.418 . S
C1038 H1033 0.930 . S
C1038 C1041 1.404 . S
C1038 C1042 1.353 . S
N1039 Co1004 2.145 . S
N1039 C1040 1.397 . S
N1039 C1041 1.334 . S
C1040 H1021 0.929 . S
C1040 C1037 1.388 . S
C1040 N1039 1.397 . S
C1041 H1022 0.929 . S
C1041 C1038 1.404 . S
C1041 N1039 1.334 . S
C1042 H1034 0.930 . S
C1042 C1037 1.418 . S
C1042 C1038 1.353 . S
C1043 H1013 0.930 . S
C1043 N1044 1.330 . S
C1043 C1045 1.446 . S
N1044 Co1003 2.151 . S
N1044 C1043 1.330 . S
N1044 C1048 1.418 . S
C1045 H1024 0.929 . S
C1045 C1043 1.446 . S
C1045 C1046 1.332 . S
C1046 H1026 0.931 . S
C1046 C1045 1.332 . S
C1046 C1047 1.267 . S
C1047 H1015 0.929 . S
C1047 C1046 1.267 . S
C1047 C1048 1.251 . S
C1048 H1018 0.929 . S
C1048 N1044 1.418 . S
C1048 C1047 1.251 . S
C1049 H1016 0.930 . S
C1049 C1051 1.406 . S
C1049 C1054 1.261 . S
C1050 H1017 0.930 . S
C1050 N1052 1.325 . S
C1050 C1053 1.357 . S
C1051 H1019 0.928 . S
C1051 C1049 1.406 . S
C1051 N1052 1.261 . S
N1052 Co1003 2.214 . S
N1052 C1050 1.325 . S
N1052 C1051 1.261 . S
C1053 H1023 0.931 . S
C1053 C1050 1.357 . S
C1053 C1054 1.312 . S
C1054 H1025 0.930 . S
C1054 C1049 1.261 . S
C1054 C1053 1.312 . S
C1055 O1027 1.214 . S
C1055 O1035 1.234 . S
C1056 H1028 0.929 . S
C1056 C1059 1.391 . S
C1056 C1061 1.391 . S
C1057 H1029 0.929 . S
C1057 C1058 1.390 . S
C1057 N1060 1.391 . S
C1058 H1030 0.930 . S
C1058 C1057 1.390 . S
C1058 C1059 1.392 . S
C1059 H1031 0.929 . S
C1059 C1056 1.391 . S
C1059 C1058 1.392 . S
N1060 Co1004 2.257 . S
N1060 C1057 1.391 . S
N1060 C1061 1.388 . S
C1061 H1032 0.930 . S
C1061 C1056 1.391 . S
C1061 N1060 1.388 . S
Co1062 O1064 2.143 . S
Co1062 O1070 2.074 . S
Co1062 O1073 2.093 . S
Co1062 O1086 2.097 . S
Co1062 N1103 2.151 . S
Co1062 N1111 2.214 . S
Co1063 O1064 2.160 . S
Co1063 O1069 2.058 . S
Co1063 O1079 2.057 . S
Co1063 O1094 2.037 . S
Co1063 N1098 2.145 . S
Co1063 N1119 2.257 . S
O1064 Co1062 2.143 . S
O1064 Co1063 2.160 . S
C1065 O1066 1.278 . S
C1065 O1073 1.224 . S
O1066 C1065 1.278 . S
C1067 O1068 1.245 . S
C1067 O1079 1.232 . S
O1068 C1067 1.245 . S
O1069 Co1063 2.058 . S
O1069 C1095 1.269 . S
O1070 Co1062 2.074 . S
O1070 C1095 1.257 . S
H1071 C1096 0.930 . S
H1072 C1102 0.930 . S
O1073 Co1062 2.093 . S
O1073 C1065 1.224 . S
H1074 C1106 0.929 . S
H1075 C1108 0.930 . S
H1076 C1109 0.930 . S
H1077 C1107 0.929 . S
H1078 C1110 0.928 . S
O1079 Co1063 2.057 . S
O1079 C1067 1.232 . S
H1080 C1099 0.929 . S
H1081 C1100 0.929 . S
H1082 C1112 0.931 . S
H1083 C1104 0.929 . S
H1084 C1113 0.930 . S
H1085 C1105 0.931 . S
O1086 Co1062 2.097 . S
O1086 C1114 1.214 . S
H1087 C1115 0.929 . S
H1088 C1116 0.929 . S
H1089 C1117 0.930 . S
H1090 C1118 0.929 . S
H1091 C1120 0.930 . S
H1092 C1097 0.930 . S
H1093 C1101 0.930 . S
O1094 Co1063 2.037 . S
O1094 C1114 1.234 . S
C1095 O1069 1.269 . S
C1095 O1070 1.257 . S
C1096 H1071 0.930 . S
C1096 C1099 1.388 . S
C1096 C1101 1.418 . S
C1097 H1092 0.930 . S
C1097 C1100 1.404 . S
C1097 C1101 1.353 . S
N1098 Co1063 2.145 . S
N1098 C1099 1.397 . S
N1098 C1100 1.334 . S
C1099 H1080 0.929 . S
C1099 C1096 1.388 . S
C1099 N1098 1.397 . S
C1100 H1081 0.929 . S
C1100 C1097 1.404 . S
C1100 N1098 1.334 . S
C1101 H1093 0.930 . S
C1101 C1096 1.418 . S
C1101 C1097 1.353 . S
C1102 H1072 0.930 . S
C1102 N1103 1.330 . S
C1102 C1104 1.446 . S
N1103 Co1062 2.151 . S
N1103 C1102 1.330 . S
N1103 C1107 1.418 . S
C1104 H1083 0.929 . S
C1104 C1102 1.446 . S
C1104 C1105 1.332 . S
C1105 H1085 0.931 . S
C1105 C1104 1.332 . S
C1105 C1106 1.267 . S
C1106 H1074 0.929 . S
C1106 C1105 1.267 . S
C1106 C1107 1.251 . S
C1107 H1077 0.929 . S
C1107 N1103 1.418 . S
C1107 C1106 1.251 . S
C1108 H1075 0.930 . S
C1108 C1110 1.406 . S
C1108 C1113 1.261 . S
C1109 H1076 0.930 . S
C1109 N1111 1.325 . S
C1109 C1112 1.357 . S
C1110 H1078 0.928 . S
C1110 C1108 1.406 . S
C1110 N1111 1.261 . S
N1111 Co1062 2.214 . S
N1111 C1109 1.325 . S
N1111 C1110 1.261 . S
C1112 H1082 0.931 . S
C1112 C1109 1.357 . S
C1112 C1113 1.312 . S
C1113 H1084 0.930 . S
C1113 C1108 1.261 . S
C1113 C1112 1.312 . S
C1114 O1086 1.214 . S
C1114 O1094 1.234 . S
C1115 H1087 0.929 . S
C1115 C1118 1.391 . S
C1115 C1120 1.391 . S
C1116 H1088 0.929 . S
C1116 C1117 1.390 . S
C1116 N1119 1.391 . S
C1117 H1089 0.930 . S
C1117 C1116 1.390 . S
C1117 C1118 1.392 . S
C1118 H1090 0.929 . S
C1118 C1115 1.391 . S
C1118 C1117 1.392 . S
N1119 Co1063 2.257 . S
N1119 C1116 1.391 . S
N1119 C1120 1.388 . S
C1120 H1091 0.930 . S
C1120 C1115 1.391 . S
C1120 N1119 1.388 . S
Co1121 O1123 2.143 . S
Co1121 O1129 2.074 . S
Co1121 O1132 2.093 . S
Co1121 O1145 2.097 . S
Co1121 N1162 2.151 . S
Co1121 N1170 2.214 . S
Co1122 O1123 2.160 . S
Co1122 O1128 2.058 . S
Co1122 O1138 2.057 . S
Co1122 O1153 2.037 . S
Co1122 N1157 2.145 . S
Co1122 N1178 2.257 . S
O1123 Co1121 2.143 . S
O1123 Co1122 2.160 . S
C1124 O1125 1.278 . S
C1124 O1132 1.224 . S
O1125 C1124 1.278 . S
C1126 O1127 1.245 . S
C1126 O1138 1.232 . S
O1127 C1126 1.245 . S
O1128 Co1122 2.058 . S
O1128 C1154 1.269 . S
O1129 Co1121 2.074 . S
O1129 C1154 1.257 . S
H1130 C1155 0.930 . S
H1131 C1161 0.930 . S
O1132 Co1121 2.093 . S
O1132 C1124 1.224 . S
H1133 C1165 0.929 . S
H1134 C1167 0.930 . S
H1135 C1168 0.930 . S
H1136 C1166 0.929 . S
H1137 C1169 0.928 . S
O1138 Co1122 2.057 . S
O1138 C1126 1.232 . S
H1139 C1158 0.929 . S
H1140 C1159 0.929 . S
H1141 C1171 0.931 . S
H1142 C1163 0.929 . S
H1143 C1172 0.930 . S
H1144 C1164 0.931 . S
O1145 Co1121 2.097 . S
O1145 C1173 1.214 . S
H1146 C1174 0.929 . S
H1147 C1175 0.929 . S
H1148 C1176 0.930 . S
H1149 C1177 0.929 . S
H1150 C1179 0.930 . S
H1151 C1156 0.930 . S
H1152 C1160 0.930 . S
O1153 Co1122 2.037 . S
O1153 C1173 1.234 . S
C1154 O1128 1.269 . S
C1154 O1129 1.257 . S
C1155 H1130 0.930 . S
C1155 C1158 1.388 . S
C1155 C1160 1.418 . S
C1156 H1151 0.930 . S
C1156 C1159 1.404 . S
C1156 C1160 1.353 . S
N1157 Co1122 2.145 . S
N1157 C1158 1.397 . S
N1157 C1159 1.334 . S
C1158 H1139 0.929 . S
C1158 C1155 1.388 . S
C1158 N1157 1.397 . S
C1159 H1140 0.929 . S
C1159 C1156 1.404 . S
C1159 N1157 1.334 . S
C1160 H1152 0.930 . S
C1160 C1155 1.418 . S
C1160 C1156 1.353 . S
C1161 H1131 0.930 . S
C1161 N1162 1.330 . S
C1161 C1163 1.446 . S
N1162 Co1121 2.151 . S
N1162 C1161 1.330 . S
N1162 C1166 1.418 . S
C1163 H1142 0.929 . S
C1163 C1161 1.446 . S
C1163 C1164 1.332 . S
C1164 H1144 0.931 . S
C1164 C1163 1.332 . S
C1164 C1165 1.267 . S
C1165 H1133 0.929 . S
C1165 C1164 1.267 . S
C1165 C1166 1.251 . S
C1166 H1136 0.929 . S
C1166 N1162 1.418 . S
C1166 C1165 1.251 . S
C1167 H1134 0.930 . S
C1167 C1169 1.406 . S
C1167 C1172 1.261 . S
C1168 H1135 0.930 . S
C1168 N1170 1.325 . S
C1168 C1171 1.357 . S
C1169 H1137 0.928 . S
C1169 C1167 1.406 . S
C1169 N1170 1.261 . S
N1170 Co1121 2.214 . S
N1170 C1168 1.325 . S
N1170 C1169 1.261 . S
C1171 H1141 0.931 . S
C1171 C1168 1.357 . S
C1171 C1172 1.312 . S
C1172 H1143 0.930 . S
C1172 C1167 1.261 . S
C1172 C1171 1.312 . S
C1173 O1145 1.214 . S
C1173 O1153 1.234 . S
C1174 H1146 0.929 . S
C1174 C1177 1.391 . S
C1174 C1179 1.391 . S
C1175 H1147 0.929 . S
C1175 C1176 1.390 . S
C1175 N1178 1.391 . S
C1176 H1148 0.930 . S
C1176 C1175 1.390 . S
C1176 C1177 1.392 . S
C1177 H1149 0.929 . S
C1177 C1174 1.391 . S
C1177 C1176 1.392 . S
N1178 Co1122 2.257 . S
N1178 C1175 1.391 . S
N1178 C1179 1.388 . S
C1179 H1150 0.930 . S
C1179 C1174 1.391 . S
C1179 N1178 1.388 . S
Co1180 O1182 2.143 . S
Co1180 O1188 2.074 . S
Co1180 O1191 2.093 . S
Co1180 O1204 2.097 . S
Co1180 N1221 2.151 . S
Co1180 N1229 2.214 . S
Co1181 O1182 2.160 . S
Co1181 O1187 2.058 . S
Co1181 O1197 2.057 . S
Co1181 O1212 2.037 . S
Co1181 N1216 2.145 . S
Co1181 N1237 2.257 . S
O1182 Co1180 2.143 . S
O1182 Co1181 2.160 . S
C1183 O1184 1.278 . S
C1183 O1191 1.224 . S
O1184 C1183 1.278 . S
C1185 O1186 1.245 . S
C1185 O1197 1.232 . S
O1186 C1185 1.245 . S
O1187 Co1181 2.058 . S
O1187 C1213 1.269 . S
O1188 Co1180 2.074 . S
O1188 C1213 1.257 . S
H1189 C1214 0.930 . S
H1190 C1220 0.930 . S
O1191 Co1180 2.093 . S
O1191 C1183 1.224 . S
H1192 C1224 0.929 . S
H1193 C1226 0.930 . S
H1194 C1227 0.930 . S
H1195 C1225 0.929 . S
H1196 C1228 0.928 . S
O1197 Co1181 2.057 . S
O1197 C1185 1.232 . S
H1198 C1217 0.929 . S
H1199 C1218 0.929 . S
H1200 C1230 0.931 . S
H1201 C1222 0.929 . S
H1202 C1231 0.930 . S
H1203 C1223 0.931 . S
O1204 Co1180 2.097 . S
O1204 C1232 1.214 . S
H1205 C1233 0.929 . S
H1206 C1234 0.929 . S
H1207 C1235 0.930 . S
H1208 C1236 0.929 . S
H1209 C1238 0.930 . S
H1210 C1215 0.930 . S
H1211 C1219 0.930 . S
O1212 Co1181 2.037 . S
O1212 C1232 1.234 . S
C1213 O1187 1.269 . S
C1213 O1188 1.257 . S
C1214 H1189 0.930 . S
C1214 C1217 1.388 . S
C1214 C1219 1.418 . S
C1215 H1210 0.930 . S
C1215 C1218 1.404 . S
C1215 C1219 1.353 . S
N1216 Co1181 2.145 . S
N1216 C1217 1.397 . S
N1216 C1218 1.334 . S
C1217 H1198 0.929 . S
C1217 C1214 1.388 . S
C1217 N1216 1.397 . S
C1218 H1199 0.929 . S
C1218 C1215 1.404 . S
C1218 N1216 1.334 . S
C1219 H1211 0.930 . S
C1219 C1214 1.418 . S
C1219 C1215 1.353 . S
C1220 H1190 0.930 . S
C1220 N1221 1.330 . S
C1220 C1222 1.446 . S
N1221 Co1180 2.151 . S
N1221 C1220 1.330 . S
N1221 C1225 1.418 . S
C1222 H1201 0.929 . S
C1222 C1220 1.446 . S
C1222 C1223 1.332 . S
C1223 H1203 0.931 . S
C1223 C1222 1.332 . S
C1223 C1224 1.267 . S
C1224 H1192 0.929 . S
C1224 C1223 1.267 . S
C1224 C1225 1.251 . S
C1225 H1195 0.929 . S
C1225 N1221 1.418 . S
C1225 C1224 1.251 . S
C1226 H1193 0.930 . S
C1226 C1228 1.406 . S
C1226 C1231 1.261 . S
C1227 H1194 0.930 . S
C1227 N1229 1.325 . S
C1227 C1230 1.357 . S
C1228 H1196 0.928 . S
C1228 C1226 1.406 . S
C1228 N1229 1.261 . S
N1229 Co1180 2.214 . S
N1229 C1227 1.325 . S
N1229 C1228 1.261 . S
C1230 H1200 0.931 . S
C1230 C1227 1.357 . S
C1230 C1231 1.312 . S
C1231 H1202 0.930 . S
C1231 C1226 1.261 . S
C1231 C1230 1.312 . S
C1232 O1204 1.214 . S
C1232 O1212 1.234 . S
C1233 H1205 0.929 . S
C1233 C1236 1.391 . S
C1233 C1238 1.391 . S
C1234 H1206 0.929 . S
C1234 C1235 1.390 . S
C1234 N1237 1.391 . S
C1235 H1207 0.930 . S
C1235 C1234 1.390 . S
C1235 C1236 1.392 . S
C1236 H1208 0.929 . S
C1236 C1233 1.391 . S
C1236 C1235 1.392 . S
N1237 Co1181 2.257 . S
N1237 C1234 1.391 . S
N1237 C1238 1.388 . S
C1238 H1209 0.930 . S
C1238 C1233 1.391 . S
C1238 N1237 1.388 . S
Co1239 O1241 2.143 . S
Co1239 O1247 2.074 . S
Co1239 O1250 2.093 . S
Co1239 O1263 2.097 . S
Co1239 N1280 2.151 . S
Co1239 N1288 2.214 . S
Co1240 O1241 2.160 . S
Co1240 O1246 2.058 . S
Co1240 O1256 2.057 . S
Co1240 O1271 2.037 . S
Co1240 N1275 2.145 . S
Co1240 N1296 2.257 . S
O1241 Co1239 2.143 . S
O1241 Co1240 2.160 . S
C1242 O1243 1.278 . S
C1242 O1250 1.224 . S
O1243 C1242 1.278 . S
C1244 O1245 1.245 . S
C1244 O1256 1.232 . S
O1245 C1244 1.245 . S
O1246 Co1240 2.058 . S
O1246 C1272 1.269 . S
O1247 Co1239 2.074 . S
O1247 C1272 1.257 . S
H1248 C1273 0.930 . S
H1249 C1279 0.930 . S
O1250 Co1239 2.093 . S
O1250 C1242 1.224 . S
H1251 C1283 0.929 . S
H1252 C1285 0.930 . S
H1253 C1286 0.930 . S
H1254 C1284 0.929 . S
H1255 C1287 0.928 . S
O1256 Co1240 2.057 . S
O1256 C1244 1.232 . S
H1257 C1276 0.929 . S
H1258 C1277 0.929 . S
H1259 C1289 0.931 . S
H1260 C1281 0.929 . S
H1261 C1290 0.930 . S
H1262 C1282 0.931 . S
O1263 Co1239 2.097 . S
O1263 C1291 1.214 . S
H1264 C1292 0.929 . S
H1265 C1293 0.929 . S
H1266 C1294 0.930 . S
H1267 C1295 0.929 . S
H1268 C1297 0.930 . S
H1269 C1274 0.930 . S
H1270 C1278 0.930 . S
O1271 Co1240 2.037 . S
O1271 C1291 1.234 . S
C1272 O1246 1.269 . S
C1272 O1247 1.257 . S
C1273 H1248 0.930 . S
C1273 C1276 1.388 . S
C1273 C1278 1.418 . S
C1274 H1269 0.930 . S
C1274 C1277 1.404 . S
C1274 C1278 1.353 . S
N1275 Co1240 2.145 . S
N1275 C1276 1.397 . S
N1275 C1277 1.334 . S
C1276 H1257 0.929 . S
C1276 C1273 1.388 . S
C1276 N1275 1.397 . S
C1277 H1258 0.929 . S
C1277 C1274 1.404 . S
C1277 N1275 1.334 . S
C1278 H1270 0.930 . S
C1278 C1273 1.418 . S
C1278 C1274 1.353 . S
C1279 H1249 0.930 . S
C1279 N1280 1.330 . S
C1279 C1281 1.446 . S
N1280 Co1239 2.151 . S
N1280 C1279 1.330 . S
N1280 C1284 1.418 . S
C1281 H1260 0.929 . S
C1281 C1279 1.446 . S
C1281 C1282 1.332 . S
C1282 H1262 0.931 . S
C1282 C1281 1.332 . S
C1282 C1283 1.267 . S
C1283 H1251 0.929 . S
C1283 C1282 1.267 . S
C1283 C1284 1.251 . S
C1284 H1254 0.929 . S
C1284 N1280 1.418 . S
C1284 C1283 1.251 . S
C1285 H1252 0.930 . S
C1285 C1287 1.406 . S
C1285 C1290 1.261 . S
C1286 H1253 0.930 . S
C1286 N1288 1.325 . S
C1286 C1289 1.357 . S
C1287 H1255 0.928 . S
C1287 C1285 1.406 . S
C1287 N1288 1.261 . S
N1288 Co1239 2.214 . S
N1288 C1286 1.325 . S
N1288 C1287 1.261 . S
C1289 H1259 0.931 . S
C1289 C1286 1.357 . S
C1289 C1290 1.312 . S
C1290 H1261 0.930 . S
C1290 C1285 1.261 . S
C1290 C1289 1.312 . S
C1291 O1263 1.214 . S
C1291 O1271 1.234 . S
C1292 H1264 0.929 . S
C1292 C1295 1.391 . S
C1292 C1297 1.391 . S
C1293 H1265 0.929 . S
C1293 C1294 1.390 . S
C1293 N1296 1.391 . S
C1294 H1266 0.930 . S
C1294 C1293 1.390 . S
C1294 C1295 1.392 . S
C1295 H1267 0.929 . S
C1295 C1292 1.391 . S
C1295 C1294 1.392 . S
N1296 Co1240 2.257 . S
N1296 C1293 1.391 . S
N1296 C1297 1.388 . S
C1297 H1268 0.930 . S
C1297 C1292 1.391 . S
C1297 N1296 1.388 . S
Co1298 O1300 2.143 . S
Co1298 O1306 2.074 . S
Co1298 O1309 2.093 . S
Co1298 O1322 2.097 . S
Co1298 N1339 2.151 . S
Co1298 N1347 2.214 . S
Co1299 O1300 2.160 . S
Co1299 O1305 2.058 . S
Co1299 O1315 2.057 . S
Co1299 O1330 2.037 . S
Co1299 N1334 2.145 . S
Co1299 N1355 2.257 . S
O1300 Co1298 2.143 . S
O1300 Co1299 2.160 . S
C1301 O1302 1.278 . S
C1301 O1309 1.224 . S
O1302 C1301 1.278 . S
C1303 O1304 1.245 . S
C1303 O1315 1.232 . S
O1304 C1303 1.245 . S
O1305 Co1299 2.058 . S
O1305 C1331 1.269 . S
O1306 Co1298 2.074 . S
O1306 C1331 1.257 . S
H1307 C1332 0.930 . S
H1308 C1338 0.930 . S
O1309 Co1298 2.093 . S
O1309 C1301 1.224 . S
H1310 C1342 0.929 . S
H1311 C1344 0.930 . S
H1312 C1345 0.930 . S
H1313 C1343 0.929 . S
H1314 C1346 0.928 . S
O1315 Co1299 2.057 . S
O1315 C1303 1.232 . S
H1316 C1335 0.929 . S
H1317 C1336 0.929 . S
H1318 C1348 0.931 . S
H1319 C1340 0.929 . S
H1320 C1349 0.930 . S
H1321 C1341 0.931 . S
O1322 Co1298 2.097 . S
O1322 C1350 1.214 . S
H1323 C1351 0.929 . S
H1324 C1352 0.929 . S
H1325 C1353 0.930 . S
H1326 C1354 0.929 . S
H1327 C1356 0.930 . S
H1328 C1333 0.930 . S
H1329 C1337 0.930 . S
O1330 Co1299 2.037 . S
O1330 C1350 1.234 . S
C1331 O1305 1.269 . S
C1331 O1306 1.257 . S
C1332 H1307 0.930 . S
C1332 C1335 1.388 . S
C1332 C1337 1.418 . S
C1333 H1328 0.930 . S
C1333 C1336 1.404 . S
C1333 C1337 1.353 . S
N1334 Co1299 2.145 . S
N1334 C1335 1.397 . S
N1334 C1336 1.334 . S
C1335 H1316 0.929 . S
C1335 C1332 1.388 . S
C1335 N1334 1.397 . S
C1336 H1317 0.929 . S
C1336 C1333 1.404 . S
C1336 N1334 1.334 . S
C1337 H1329 0.930 . S
C1337 C1332 1.418 . S
C1337 C1333 1.353 . S
C1338 H1308 0.930 . S
C1338 N1339 1.330 . S
C1338 C1340 1.446 . S
N1339 Co1298 2.151 . S
N1339 C1338 1.330 . S
N1339 C1343 1.418 . S
C1340 H1319 0.929 . S
C1340 C1338 1.446 . S
C1340 C1341 1.332 . S
C1341 H1321 0.931 . S
C1341 C1340 1.332 . S
C1341 C1342 1.267 . S
C1342 H1310 0.929 . S
C1342 C1341 1.267 . S
C1342 C1343 1.251 . S
C1343 H1313 0.929 . S
C1343 N1339 1.418 . S
C1343 C1342 1.251 . S
C1344 H1311 0.930 . S
C1344 C1346 1.406 . S
C1344 C1349 1.261 . S
C1345 H1312 0.930 . S
C1345 N1347 1.325 . S
C1345 C1348 1.357 . S
C1346 H1314 0.928 . S
C1346 C1344 1.406 . S
C1346 N1347 1.261 . S
N1347 Co1298 2.214 . S
N1347 C1345 1.325 . S
N1347 C1346 1.261 . S
C1348 H1318 0.931 . S
C1348 C1345 1.357 . S
C1348 C1349 1.312 . S
C1349 H1320 0.930 . S
C1349 C1344 1.261 . S
C1349 C1348 1.312 . S
C1350 O1322 1.214 . S
C1350 O1330 1.234 . S
C1351 H1323 0.929 . S
C1351 C1354 1.391 . S
C1351 C1356 1.391 . S
C1352 H1324 0.929 . S
C1352 C1353 1.390 . S
C1352 N1355 1.391 . S
C1353 H1325 0.930 . S
C1353 C1352 1.390 . S
C1353 C1354 1.392 . S
C1354 H1326 0.929 . S
C1354 C1351 1.391 . S
C1354 C1353 1.392 . S
N1355 Co1299 2.257 . S
N1355 C1352 1.391 . S
N1355 C1356 1.388 . S
C1356 H1327 0.930 . S
C1356 C1351 1.391 . S
C1356 N1355 1.388 . S
Co1357 O1359 2.143 . S
Co1357 O1365 2.074 . S
Co1357 O1368 2.093 . S
Co1357 O1381 2.097 . S
Co1357 N1398 2.151 . S
Co1357 N1406 2.214 . S
Co1358 O1359 2.160 . S
Co1358 O1364 2.058 . S
Co1358 O1374 2.057 . S
Co1358 O1389 2.037 . S
Co1358 N1393 2.145 . S
Co1358 N1414 2.257 . S
O1359 Co1357 2.143 . S
O1359 Co1358 2.160 . S
C1360 O1361 1.278 . S
C1360 O1368 1.224 . S
O1361 C1360 1.278 . S
C1362 O1363 1.245 . S
C1362 O1374 1.232 . S
O1363 C1362 1.245 . S
O1364 Co1358 2.058 . S
O1364 C1390 1.269 . S
O1365 Co1357 2.074 . S
O1365 C1390 1.257 . S
H1366 C1391 0.930 . S
H1367 C1397 0.930 . S
O1368 Co1357 2.093 . S
O1368 C1360 1.224 . S
H1369 C1401 0.929 . S
H1370 C1403 0.930 . S
H1371 C1404 0.930 . S
H1372 C1402 0.929 . S
H1373 C1405 0.928 . S
O1374 Co1358 2.057 . S
O1374 C1362 1.232 . S
H1375 C1394 0.929 . S
H1376 C1395 0.929 . S
H1377 C1407 0.931 . S
H1378 C1399 0.929 . S
H1379 C1408 0.930 . S
H1380 C1400 0.931 . S
O1381 Co1357 2.097 . S
O1381 C1409 1.214 . S
H1382 C1410 0.929 . S
H1383 C1411 0.929 . S
H1384 C1412 0.930 . S
H1385 C1413 0.929 . S
H1386 C1415 0.930 . S
H1387 C1392 0.930 . S
H1388 C1396 0.930 . S
O1389 Co1358 2.037 . S
O1389 C1409 1.234 . S
C1390 O1364 1.269 . S
C1390 O1365 1.257 . S
C1391 H1366 0.930 . S
C1391 C1394 1.388 . S
C1391 C1396 1.418 . S
C1392 H1387 0.930 . S
C1392 C1395 1.404 . S
C1392 C1396 1.353 . S
N1393 Co1358 2.145 . S
N1393 C1394 1.397 . S
N1393 C1395 1.334 . S
C1394 H1375 0.929 . S
C1394 C1391 1.388 . S
C1394 N1393 1.397 . S
C1395 H1376 0.929 . S
C1395 C1392 1.404 . S
C1395 N1393 1.334 . S
C1396 H1388 0.930 . S
C1396 C1391 1.418 . S
C1396 C1392 1.353 . S
C1397 H1367 0.930 . S
C1397 N1398 1.330 . S
C1397 C1399 1.446 . S
N1398 Co1357 2.151 . S
N1398 C1397 1.330 . S
N1398 C1402 1.418 . S
C1399 H1378 0.929 . S
C1399 C1397 1.446 . S
C1399 C1400 1.332 . S
C1400 H1380 0.931 . S
C1400 C1399 1.332 . S
C1400 C1401 1.267 . S
C1401 H1369 0.929 . S
C1401 C1400 1.267 . S
C1401 C1402 1.251 . S
C1402 H1372 0.929 . S
C1402 N1398 1.418 . S
C1402 C1401 1.251 . S
C1403 H1370 0.930 . S
C1403 C1405 1.406 . S
C1403 C1408 1.261 . S
C1404 H1371 0.930 . S
C1404 N1406 1.325 . S
C1404 C1407 1.357 . S
C1405 H1373 0.928 . S
C1405 C1403 1.406 . S
C1405 N1406 1.261 . S
N1406 Co1357 2.214 . S
N1406 C1404 1.325 . S
N1406 C1405 1.261 . S
C1407 H1377 0.931 . S
C1407 C1404 1.357 . S
C1407 C1408 1.312 . S
C1408 H1379 0.930 . S
C1408 C1403 1.261 . S
C1408 C1407 1.312 . S
C1409 O1381 1.214 . S
C1409 O1389 1.234 . S
C1410 H1382 0.929 . S
C1410 C1413 1.391 . S
C1410 C1415 1.391 . S
C1411 H1383 0.929 . S
C1411 C1412 1.390 . S
C1411 N1414 1.391 . S
C1412 H1384 0.930 . S
C1412 C1411 1.390 . S
C1412 C1413 1.392 . S
C1413 H1385 0.929 . S
C1413 C1410 1.391 . S
C1413 C1412 1.392 . S
N1414 Co1358 2.257 . S
N1414 C1411 1.391 . S
N1414 C1415 1.388 . S
C1415 H1386 0.930 . S
C1415 C1410 1.391 . S
C1415 N1414 1.388 . S
H1416 C1428 0.930 . S
H1417 C1430 0.930 . S
H1418 C1431 0.930 . S
H1419 C1435 0.959 . S
H1420 C1435 0.959 . S
H1421 C1435 0.961 . S
H1422 C1436 0.960 . S
H1423 C1436 0.961 . S
H1424 C1436 0.959 . S
H1425 C1439 0.929 . S
H1426 C1440 0.931 . S
H1427 C1442 0.930 . S
C1428 H1416 0.930 . S
C1428 C1429 1.399 . S
C1428 C1433 1.399 . S
C1429 C1428 1.399 . S
C1429 C1430 1.376 . S
C1430 H1417 0.930 . S
C1430 C1429 1.376 . S
C1430 C1431 1.388 . S
C1431 H1418 0.930 . S
C1431 C1430 1.388 . S
C1431 C1432 1.390 . S
C1432 C1431 1.390 . S
C1432 C1433 1.394 . S
C1432 C1438 1.465 . S
C1433 C1428 1.399 . S
C1433 C1432 1.394 . S
C1433 C1434 1.516 . S
C1434 C1433 1.516 . S
C1434 C1435 1.502 . S
C1434 C1436 1.561 . S
C1434 C1437 1.526 . S
C1435 H1419 0.959 . S
C1435 H1420 0.959 . S
C1435 H1421 0.961 . S
C1435 C1434 1.502 . S
C1436 H1422 0.960 . S
C1436 H1423 0.961 . S
C1436 H1424 0.959 . S
C1436 C1434 1.561 . S
C1437 C1434 1.526 . S
C1437 C1438 1.396 . S
C1437 C1442 1.390 . S
C1438 C1432 1.465 . S
C1438 C1437 1.396 . S
C1438 C1439 1.399 . S
C1439 H1425 0.929 . S
C1439 C1438 1.399 . S
C1439 C1440 1.385 . S
C1440 H1426 0.931 . S
C1440 C1439 1.385 . S
C1440 C1441 1.389 . S
C1441 C1440 1.389 . S
C1441 C1442 1.387 . S
C1442 H1427 0.930 . S
C1442 C1437 1.390 . S
C1442 C1441 1.387 . S
H1443 C1455 0.930 . S
H1444 C1457 0.930 . S
H1445 C1458 0.930 . S
H1446 C1462 0.959 . S
H1447 C1462 0.959 . S
H1448 C1462 0.961 . S
H1449 C1463 0.960 . S
H1450 C1463 0.961 . S
H1451 C1463 0.959 . S
H1452 C1466 0.929 . S
H1453 C1467 0.931 . S
H1454 C1469 0.930 . S
C1455 H1443 0.930 . S
C1455 C1456 1.399 . S
C1455 C1460 1.399 . S
C1456 C1455 1.399 . S
C1456 C1457 1.376 . S
C1457 H1444 0.930 . S
C1457 C1456 1.376 . S
C1457 C1458 1.388 . S
C1458 H1445 0.930 . S
C1458 C1457 1.388 . S
C1458 C1459 1.390 . S
C1459 C1458 1.390 . S
C1459 C1460 1.394 . S
C1459 C1465 1.465 . S
C1460 C1455 1.399 . S
C1460 C1459 1.394 . S
C1460 C1461 1.516 . S
C1461 C1460 1.516 . S
C1461 C1462 1.502 . S
C1461 C1463 1.561 . S
C1461 C1464 1.526 . S
C1462 H1446 0.959 . S
C1462 H1447 0.959 . S
C1462 H1448 0.961 . S
C1462 C1461 1.502 . S
C1463 H1449 0.960 . S
C1463 H1450 0.961 . S
C1463 H1451 0.959 . S
C1463 C1461 1.561 . S
C1464 C1461 1.526 . S
C1464 C1465 1.396 . S
C1464 C1469 1.390 . S
C1465 C1459 1.465 . S
C1465 C1464 1.396 . S
C1465 C1466 1.399 . S
C1466 H1452 0.929 . S
C1466 C1465 1.399 . S
C1466 C1467 1.385 . S
C1467 H1453 0.931 . S
C1467 C1466 1.385 . S
C1467 C1468 1.389 . S
C1468 C1467 1.389 . S
C1468 C1469 1.387 . S
C1469 H1454 0.930 . S
C1469 C1464 1.390 . S
C1469 C1468 1.387 . S
H1470 C1482 0.930 . S
H1471 C1484 0.930 . S
H1472 C1485 0.930 . S
H1473 C1489 0.959 . S
H1474 C1489 0.959 . S
H1475 C1489 0.961 . S
H1476 C1490 0.960 . S
H1477 C1490 0.961 . S
H1478 C1490 0.959 . S
H1479 C1493 0.929 . S
H1480 C1494 0.931 . S
H1481 C1496 0.930 . S
C1482 H1470 0.930 . S
C1482 C1483 1.399 . S
C1482 C1487 1.399 . S
C1483 C1482 1.399 . S
C1483 C1484 1.376 . S
C1484 H1471 0.930 . S
C1484 C1483 1.376 . S
C1484 C1485 1.388 . S
C1485 H1472 0.930 . S
C1485 C1484 1.388 . S
C1485 C1486 1.390 . S
C1486 C1485 1.390 . S
C1486 C1487 1.394 . S
C1486 C1492 1.465 . S
C1487 C1482 1.399 . S
C1487 C1486 1.394 . S
C1487 C1488 1.516 . S
C1488 C1487 1.516 . S
C1488 C1489 1.502 . S
C1488 C1490 1.561 . S
C1488 C1491 1.526 . S
C1489 H1473 0.959 . S
C1489 H1474 0.959 . S
C1489 H1475 0.961 . S
C1489 C1488 1.502 . S
C1490 H1476 0.960 . S
C1490 H1477 0.961 . S
C1490 H1478 0.959 . S
C1490 C1488 1.561 . S
C1491 C1488 1.526 . S
C1491 C1492 1.396 . S
C1491 C1496 1.390 . S
C1492 C1486 1.465 . S
C1492 C1491 1.396 . S
C1492 C1493 1.399 . S
C1493 H1479 0.929 . S
C1493 C1492 1.399 . S
C1493 C1494 1.385 . S
C1494 H1480 0.931 . S
C1494 C1493 1.385 . S
C1494 C1495 1.389 . S
C1495 C1494 1.389 . S
C1495 C1496 1.387 . S
C1496 H1481 0.930 . S
C1496 C1491 1.390 . S
C1496 C1495 1.387 . S
H1497 C1509 0.930 . S
H1498 C1511 0.930 . S
H1499 C1512 0.930 . S
H1500 C1516 0.959 . S
H1501 C1516 0.959 . S
H1502 C1516 0.961 . S
H1503 C1517 0.960 . S
H1504 C1517 0.961 . S
H1505 C1517 0.959 . S
H1506 C1520 0.929 . S
H1507 C1521 0.931 . S
H1508 C1523 0.930 . S
C1509 H1497 0.930 . S
C1509 C1510 1.399 . S
C1509 C1514 1.399 . S
C1510 C1509 1.399 . S
C1510 C1511 1.376 . S
C1511 H1498 0.930 . S
C1511 C1510 1.376 . S
C1511 C1512 1.388 . S
C1512 H1499 0.930 . S
C1512 C1511 1.388 . S
C1512 C1513 1.390 . S
C1513 C1512 1.390 . S
C1513 C1514 1.394 . S
C1513 C1519 1.465 . S
C1514 C1509 1.399 . S
C1514 C1513 1.394 . S
C1514 C1515 1.516 . S
C1515 C1514 1.516 . S
C1515 C1516 1.502 . S
C1515 C1517 1.561 . S
C1515 C1518 1.526 . S
C1516 H1500 0.959 . S
C1516 H1501 0.959 . S
C1516 H1502 0.961 . S
C1516 C1515 1.502 . S
C1517 H1503 0.960 . S
C1517 H1504 0.961 . S
C1517 H1505 0.959 . S
C1517 C1515 1.561 . S
C1518 C1515 1.526 . S
C1518 C1519 1.396 . S
C1518 C1523 1.390 . S
C1519 C1513 1.465 . S
C1519 C1518 1.396 . S
C1519 C1520 1.399 . S
C1520 H1506 0.929 . S
C1520 C1519 1.399 . S
C1520 C1521 1.385 . S
C1521 H1507 0.931 . S
C1521 C1520 1.385 . S
C1521 C1522 1.389 . S
C1522 C1521 1.389 . S
C1522 C1523 1.387 . S
C1523 H1508 0.930 . S
C1523 C1518 1.390 . S
C1523 C1522 1.387 . S
H1524 C1536 0.930 . S
H1525 C1538 0.930 . S
H1526 C1539 0.930 . S
H1527 C1543 0.959 . S
H1528 C1543 0.959 . S
H1529 C1543 0.961 . S
H1530 C1544 0.960 . S
H1531 C1544 0.961 . S
H1532 C1544 0.959 . S
H1533 C1547 0.929 . S
H1534 C1548 0.931 . S
H1535 C1550 0.930 . S
C1536 H1524 0.930 . S
C1536 C1537 1.399 . S
C1536 C1541 1.399 . S
C1537 C1536 1.399 . S
C1537 C1538 1.376 . S
C1538 H1525 0.930 . S
C1538 C1537 1.376 . S
C1538 C1539 1.388 . S
C1539 H1526 0.930 . S
C1539 C1538 1.388 . S
C1539 C1540 1.390 . S
C1540 C1539 1.390 . S
C1540 C1541 1.394 . S
C1540 C1546 1.465 . S
C1541 C1536 1.399 . S
C1541 C1540 1.394 . S
C1541 C1542 1.516 . S
C1542 C1541 1.516 . S
C1542 C1543 1.502 . S
C1542 C1544 1.561 . S
C1542 C1545 1.526 . S
C1543 H1527 0.959 . S
C1543 H1528 0.959 . S
C1543 H1529 0.961 . S
C1543 C1542 1.502 . S
C1544 H1530 0.960 . S
C1544 H1531 0.961 . S
C1544 H1532 0.959 . S
C1544 C1542 1.561 . S
C1545 C1542 1.526 . S
C1545 C1546 1.396 . S
C1545 C1550 1.390 . S
C1546 C1540 1.465 . S
C1546 C1545 1.396 . S
C1546 C1547 1.399 . S
C1547 H1533 0.929 . S
C1547 C1546 1.399 . S
C1547 C1548 1.385 . S
C1548 H1534 0.931 . S
C1548 C1547 1.385 . S
C1548 C1549 1.389 . S
C1549 C1548 1.389 . S
C1549 C1550 1.387 . S
C1550 H1535 0.930 . S
C1550 C1545 1.390 . S
C1550 C1549 1.387 . S
H1551 C1563 0.930 . S
H1552 C1565 0.930 . S
H1553 C1566 0.930 . S
H1554 C1570 0.959 . S
H1555 C1570 0.959 . S
H1556 C1570 0.961 . S
H1557 C1571 0.960 . S
H1558 C1571 0.961 . S
H1559 C1571 0.959 . S
H1560 C1574 0.929 . S
H1561 C1575 0.931 . S
H1562 C1577 0.930 . S
C1563 H1551 0.930 . S
C1563 C1564 1.399 . S
C1563 C1568 1.399 . S
C1564 C1563 1.399 . S
C1564 C1565 1.376 . S
C1565 H1552 0.930 . S
C1565 C1564 1.376 . S
C1565 C1566 1.388 . S
C1566 H1553 0.930 . S
C1566 C1565 1.388 . S
C1566 C1567 1.390 . S
C1567 C1566 1.390 . S
C1567 C1568 1.394 . S
C1567 C1573 1.465 . S
C1568 C1563 1.399 . S
C1568 C1567 1.394 . S
C1568 C1569 1.516 . S
C1569 C1568 1.516 . S
C1569 C1570 1.502 . S
C1569 C1571 1.561 . S
C1569 C1572 1.526 . S
C1570 H1554 0.959 . S
C1570 H1555 0.959 . S
C1570 H1556 0.961 . S
C1570 C1569 1.502 . S
C1571 H1557 0.960 . S
C1571 H1558 0.961 . S
C1571 H1559 0.959 . S
C1571 C1569 1.561 . S
C1572 C1569 1.526 . S
C1572 C1573 1.396 . S
C1572 C1577 1.390 . S
C1573 C1567 1.465 . S
C1573 C1572 1.396 . S
C1573 C1574 1.399 . S
C1574 H1560 0.929 . S
C1574 C1573 1.399 . S
C1574 C1575 1.385 . S
C1575 H1561 0.931 . S
C1575 C1574 1.385 . S
C1575 C1576 1.389 . S
C1576 C1575 1.389 . S
C1576 C1577 1.387 . S
C1577 H1562 0.930 . S
C1577 C1572 1.390 . S
C1577 C1576 1.387 . S
H1578 C1590 0.930 . S
H1579 C1592 0.930 . S
H1580 C1593 0.930 . S
H1581 C1597 0.959 . S
H1582 C1597 0.959 . S
H1583 C1597 0.961 . S
H1584 C1598 0.960 . S
H1585 C1598 0.961 . S
H1586 C1598 0.959 . S
H1587 C1601 0.929 . S
H1588 C1602 0.931 . S
H1589 C1604 0.930 . S
C1590 H1578 0.930 . S
C1590 C1591 1.399 . S
C1590 C1595 1.399 . S
C1591 C1590 1.399 . S
C1591 C1592 1.376 . S
C1592 H1579 0.930 . S
C1592 C1591 1.376 . S
C1592 C1593 1.388 . S
C1593 H1580 0.930 . S
C1593 C1592 1.388 . S
C1593 C1594 1.390 . S
C1594 C1593 1.390 . S
C1594 C1595 1.394 . S
C1594 C1600 1.465 . S
C1595 C1590 1.399 . S
C1595 C1594 1.394 . S
C1595 C1596 1.516 . S
C1596 C1595 1.516 . S
C1596 C1597 1.502 . S
C1596 C1598 1.561 . S
C1596 C1599 1.526 . S
C1597 H1581 0.959 . S
C1597 H1582 0.959 . S
C1597 H1583 0.961 . S
C1597 C1596 1.502 . S
C1598 H1584 0.960 . S
C1598 H1585 0.961 . S
C1598 H1586 0.959 . S
C1598 C1596 1.561 . S
C1599 C1596 1.526 . S
C1599 C1600 1.396 . S
C1599 C1604 1.390 . S
C1600 C1594 1.465 . S
C1600 C1599 1.396 . S
C1600 C1601 1.399 . S
C1601 H1587 0.929 . S
C1601 C1600 1.399 . S
C1601 C1602 1.385 . S
C1602 H1588 0.931 . S
C1602 C1601 1.385 . S
C1602 C1603 1.389 . S
C1603 C1602 1.389 . S
C1603 C1604 1.387 . S
C1604 H1589 0.930 . S
C1604 C1599 1.390 . S
C1604 C1603 1.387 . S
H1605 C1617 0.930 . S
H1606 C1619 0.930 . S
H1607 C1620 0.930 . S
H1608 C1624 0.959 . S
H1609 C1624 0.959 . S
H1610 C1624 0.961 . S
H1611 C1625 0.960 . S
H1612 C1625 0.961 . S
H1613 C1625 0.959 . S
H1614 C1628 0.929 . S
H1615 C1629 0.931 . S
H1616 C1631 0.930 . S
C1617 H1605 0.930 . S
C1617 C1618 1.399 . S
C1617 C1622 1.399 . S
C1618 C1617 1.399 . S
C1618 C1619 1.376 . S
C1619 H1606 0.930 . S
C1619 C1618 1.376 . S
C1619 C1620 1.388 . S
C1620 H1607 0.930 . S
C1620 C1619 1.388 . S
C1620 C1621 1.390 . S
C1621 C1620 1.390 . S
C1621 C1622 1.394 . S
C1621 C1627 1.465 . S
C1622 C1617 1.399 . S
C1622 C1621 1.394 . S
C1622 C1623 1.516 . S
C1623 C1622 1.516 . S
C1623 C1624 1.502 . S
C1623 C1625 1.561 . S
C1623 C1626 1.526 . S
C1624 H1608 0.959 . S
C1624 H1609 0.959 . S
C1624 H1610 0.961 . S
C1624 C1623 1.502 . S
C1625 H1611 0.960 . S
C1625 H1612 0.961 . S
C1625 H1613 0.959 . S
C1625 C1623 1.561 . S
C1626 C1623 1.526 . S
C1626 C1627 1.396 . S
C1626 C1631 1.390 . S
C1627 C1621 1.465 . S
C1627 C1626 1.396 . S
C1627 C1628 1.399 . S
C1628 H1614 0.929 . S
C1628 C1627 1.399 . S
C1628 C1629 1.385 . S
C1629 H1615 0.931 . S
C1629 C1628 1.385 . S
C1629 C1630 1.389 . S
C1630 C1629 1.389 . S
C1630 C1631 1.387 . S
C1631 H1616 0.930 . S
C1631 C1626 1.390 . S
C1631 C1630 1.387 . S
H1632 C1644 0.930 . S
H1633 C1646 0.930 . S
H1634 C1647 0.930 . S
H1635 C1651 0.959 . S
H1636 C1651 0.959 . S
H1637 C1651 0.961 . S
H1638 C1652 0.960 . S
H1639 C1652 0.961 . S
H1640 C1652 0.959 . S
H1641 C1655 0.929 . S
H1642 C1656 0.931 . S
H1643 C1658 0.930 . S
C1644 H1632 0.930 . S
C1644 C1645 1.399 . S
C1644 C1649 1.399 . S
C1645 C1644 1.399 . S
C1645 C1646 1.376 . S
C1646 H1633 0.930 . S
C1646 C1645 1.376 . S
C1646 C1647 1.388 . S
C1647 H1634 0.930 . S
C1647 C1646 1.388 . S
C1647 C1648 1.390 . S
C1648 C1647 1.390 . S
C1648 C1649 1.394 . S
C1648 C1654 1.465 . S
C1649 C1644 1.399 . S
C1649 C1648 1.394 . S
C1649 C1650 1.516 . S
C1650 C1649 1.516 . S
C1650 C1651 1.502 . S
C1650 C1652 1.561 . S
C1650 C1653 1.526 . S
C1651 H1635 0.959 . S
C1651 H1636 0.959 . S
C1651 H1637 0.961 . S
C1651 C1650 1.502 . S
C1652 H1638 0.960 . S
C1652 H1639 0.961 . S
C1652 H1640 0.959 . S
C1652 C1650 1.561 . S
C1653 C1650 1.526 . S
C1653 C1654 1.396 . S
C1653 C1658 1.390 . S
C1654 C1648 1.465 . S
C1654 C1653 1.396 . S
C1654 C1655 1.399 . S
C1655 H1641 0.929 . S
C1655 C1654 1.399 . S
C1655 C1656 1.385 . S
C1656 H1642 0.931 . S
C1656 C1655 1.385 . S
C1656 C1657 1.389 . S
C1657 C1656 1.389 . S
C1657 C1658 1.387 . S
C1658 H1643 0.930 . S
C1658 C1653 1.390 . S
C1658 C1657 1.387 . S
H1659 C1671 0.930 . S
H1660 C1673 0.930 . S
H1661 C1674 0.930 . S
H1662 C1678 0.959 . S
H1663 C1678 0.959 . S
H1664 C1678 0.961 . S
H1665 C1679 0.960 . S
H1666 C1679 0.961 . S
H1667 C1679 0.959 . S
H1668 C1682 0.929 . S
H1669 C1683 0.931 . S
H1670 C1685 0.930 . S
C1671 H1659 0.930 . S
C1671 C1672 1.399 . S
C1671 C1676 1.399 . S
C1672 C1671 1.399 . S
C1672 C1673 1.376 . S
C1673 H1660 0.930 . S
C1673 C1672 1.376 . S
C1673 C1674 1.388 . S
C1674 H1661 0.930 . S
C1674 C1673 1.388 . S
C1674 C1675 1.390 . S
C1675 C1674 1.390 . S
C1675 C1676 1.394 . S
C1675 C1681 1.465 . S
C1676 C1671 1.399 . S
C1676 C1675 1.394 . S
C1676 C1677 1.516 . S
C1677 C1676 1.516 . S
C1677 C1678 1.502 . S
C1677 C1679 1.561 . S
C1677 C1680 1.526 . S
C1678 H1662 0.959 . S
C1678 H1663 0.959 . S
C1678 H1664 0.961 . S
C1678 C1677 1.502 . S
C1679 H1665 0.960 . S
C1679 H1666 0.961 . S
C1679 H1667 0.959 . S
C1679 C1677 1.561 . S
C1680 C1677 1.526 . S
C1680 C1681 1.396 . S
C1680 C1685 1.390 . S
C1681 C1675 1.465 . S
C1681 C1680 1.396 . S
C1681 C1682 1.399 . S
C1682 H1668 0.929 . S
C1682 C1681 1.399 . S
C1682 C1683 1.385 . S
C1683 H1669 0.931 . S
C1683 C1682 1.385 . S
C1683 C1684 1.389 . S
C1684 C1683 1.389 . S
C1684 C1685 1.387 . S
C1685 H1670 0.930 . S
C1685 C1680 1.390 . S
C1685 C1684 1.387 . S
H1686 C1698 0.930 . S
H1687 C1700 0.930 . S
H1688 C1701 0.930 . S
H1689 C1705 0.959 . S
H1690 C1705 0.959 . S
H1691 C1705 0.961 . S
H1692 C1706 0.960 . S
H1693 C1706 0.961 . S
H1694 C1706 0.959 . S
H1695 C1709 0.929 . S
H1696 C1710 0.931 . S
H1697 C1712 0.930 . S
C1698 H1686 0.930 . S
C1698 C1699 1.399 . S
C1698 C1703 1.399 . S
C1699 C1698 1.399 . S
C1699 C1700 1.376 . S
C1700 H1687 0.930 . S
C1700 C1699 1.376 . S
C1700 C1701 1.388 . S
C1701 H1688 0.930 . S
C1701 C1700 1.388 . S
C1701 C1702 1.390 . S
C1702 C1701 1.390 . S
C1702 C1703 1.394 . S
C1702 C1708 1.465 . S
C1703 C1698 1.399 . S
C1703 C1702 1.394 . S
C1703 C1704 1.516 . S
C1704 C1703 1.516 . S
C1704 C1705 1.502 . S
C1704 C1706 1.561 . S
C1704 C1707 1.526 . S
C1705 H1689 0.959 . S
C1705 H1690 0.959 . S
C1705 H1691 0.961 . S
C1705 C1704 1.502 . S
C1706 H1692 0.960 . S
C1706 H1693 0.961 . S
C1706 H1694 0.959 . S
C1706 C1704 1.561 . S
C1707 C1704 1.526 . S
C1707 C1708 1.396 . S
C1707 C1712 1.390 . S
C1708 C1702 1.465 . S
C1708 C1707 1.396 . S
C1708 C1709 1.399 . S
C1709 H1695 0.929 . S
C1709 C1708 1.399 . S
C1709 C1710 1.385 . S
C1710 H1696 0.931 . S
C1710 C1709 1.385 . S
C1710 C1711 1.389 . S
C1711 C1710 1.389 . S
C1711 C1712 1.387 . S
C1712 H1697 0.930 . S
C1712 C1707 1.390 . S
C1712 C1711 1.387 . S
H1713 C1725 0.930 . S
H1714 C1727 0.930 . S
H1715 C1728 0.930 . S
H1716 C1732 0.959 . S
H1717 C1732 0.959 . S
H1718 C1732 0.961 . S
H1719 C1733 0.960 . S
H1720 C1733 0.961 . S
H1721 C1733 0.959 . S
H1722 C1736 0.929 . S
H1723 C1737 0.931 . S
H1724 C1739 0.930 . S
C1725 H1713 0.930 . S
C1725 C1726 1.399 . S
C1725 C1730 1.399 . S
C1726 C1725 1.399 . S
C1726 C1727 1.376 . S
C1727 H1714 0.930 . S
C1727 C1726 1.376 . S
C1727 C1728 1.388 . S
C1728 H1715 0.930 . S
C1728 C1727 1.388 . S
C1728 C1729 1.390 . S
C1729 C1728 1.390 . S
C1729 C1730 1.394 . S
C1729 C1735 1.465 . S
C1730 C1725 1.399 . S
C1730 C1729 1.394 . S
C1730 C1731 1.516 . S
C1731 C1730 1.516 . S
C1731 C1732 1.502 . S
C1731 C1733 1.561 . S
C1731 C1734 1.526 . S
C1732 H1716 0.959 . S
C1732 H1717 0.959 . S
C1732 H1718 0.961 . S
C1732 C1731 1.502 . S
C1733 H1719 0.960 . S
C1733 H1720 0.961 . S
C1733 H1721 0.959 . S
C1733 C1731 1.561 . S
C1734 C1731 1.526 . S
C1734 C1735 1.396 . S
C1734 C1739 1.390 . S
C1735 C1729 1.465 . S
C1735 C1734 1.396 . S
C1735 C1736 1.399 . S
C1736 H1722 0.929 . S
C1736 C1735 1.399 . S
C1736 C1737 1.385 . S
C1737 H1723 0.931 . S
C1737 C1736 1.385 . S
C1737 C1738 1.389 . S
C1738 C1737 1.389 . S
C1738 C1739 1.387 . S
C1739 H1724 0.930 . S
C1739 C1734 1.390 . S
C1739 C1738 1.387 . S
H1740 C1752 0.930 . S
H1741 C1754 0.930 . S
H1742 C1755 0.930 . S
H1743 C1759 0.959 . S
H1744 C1759 0.959 . S
H1745 C1759 0.961 . S
H1746 C1760 0.960 . S
H1747 C1760 0.950 1_545 S
H1748 C1760 0.959 . S
H1749 C1763 0.929 . S
H1750 C1764 0.931 . S
H1751 C1766 0.930 . S
C1752 H1740 0.930 . S
C1752 C1753 1.399 . S
C1752 C1757 1.399 . S
C1753 C1752 1.399 . S
C1753 C1754 1.376 . S
C1754 H1741 0.930 . S
C1754 C1753 1.376 . S
C1754 C1755 1.388 . S
C1755 H1742 0.930 . S
C1755 C1754 1.388 . S
C1755 C1756 1.390 . S
C1756 C1755 1.390 . S
C1756 C1757 1.394 . S
C1756 C1762 1.465 1_565 S
C1757 C1752 1.399 . S
C1757 C1756 1.394 . S
C1757 C1758 1.516 1_565 S
C1758 C1757 1.516 1_545 S
C1758 C1759 1.502 . S
C1758 C1760 1.561 1_545 S
C1758 C1761 1.526 . S
C1759 H1743 0.959 . S
C1759 H1744 0.959 . S
C1759 H1745 0.961 . S
C1759 C1758 1.502 . S
C1760 H1746 0.960 . S
C1760 H1747 0.950 1_565 S
C1760 H1748 0.959 . S
C1760 C1758 1.561 1_565 S
C1761 C1758 1.526 . S
C1761 C1762 1.396 . S
C1761 C1766 1.390 . S
C1762 C1756 1.465 1_545 S
C1762 C1761 1.396 . S
C1762 C1763 1.399 . S
C1763 H1749 0.929 . S
C1763 C1762 1.399 . S
C1763 C1764 1.385 . S
C1764 H1750 0.931 . S
C1764 C1763 1.385 . S
C1764 C1765 1.389 . S
C1765 C1764 1.389 . S
C1765 C1766 1.387 . S
C1766 H1751 0.930 . S
C1766 C1761 1.390 . S
C1766 C1765 1.387 . S
H1767 C1779 0.930 . S
H1768 C1781 0.930 . S
H1769 C1782 0.931 1_455 S
H1770 C1786 0.959 . S
H1771 C1786 0.959 . S
H1772 C1786 0.961 . S
H1773 C1787 0.960 . S
H1774 C1787 0.961 . S
H1775 C1787 0.959 . S
H1776 C1790 0.929 . S
H1777 C1791 0.931 . S
H1778 C1793 0.930 . S
C1779 H1767 0.930 . S
C1779 C1780 1.399 . S
C1779 C1784 1.399 . S
C1780 C1779 1.399 . S
C1780 C1781 1.376 . S
C1781 H1768 0.930 . S
C1781 C1780 1.376 . S
C1781 C1782 1.387 . S
C1782 H1769 0.931 1_655 S
C1782 C1781 1.387 . S
C1782 C1783 1.389 . S
C1783 C1782 1.389 . S
C1783 C1784 1.432 . S
C1783 C1789 1.434 1_655 S
C1784 C1779 1.399 . S
C1784 C1783 1.432 . S
C1784 C1785 1.516 . S
C1785 C1784 1.516 . S
C1785 C1786 1.502 . S
C1785 C1787 1.561 . S
C1785 C1788 1.526 1_655 S
C1786 H1770 0.959 . S
C1786 H1771 0.959 . S
C1786 H1772 0.961 . S
C1786 C1785 1.502 . S
C1787 H1773 0.960 . S
C1787 H1774 0.961 . S
C1787 H1775 0.959 . S
C1787 C1785 1.561 . S
C1788 C1785 1.526 1_455 S
C1788 C1789 1.396 . S
C1788 C1793 1.390 . S
C1789 C1783 1.434 1_455 S
C1789 C1788 1.396 . S
C1789 C1790 1.399 . S
C1790 H1776 0.929 . S
C1790 C1789 1.399 . S
C1790 C1791 1.385 . S
C1791 H1777 0.931 . S
C1791 C1790 1.385 . S
C1791 C1792 1.389 . S
C1792 C1791 1.389 . S
C1792 C1793 1.387 . S
C1793 H1778 0.930 . S
C1793 C1788 1.390 . S
C1793 C1792 1.387 . S
H1794 C1806 0.930 . S
H1795 C1808 0.930 . S
H1796 C1809 0.930 . S
H1797 C1813 0.959 . S
H1798 C1813 0.959 . S
H1799 C1813 0.961 . S
H1800 C1814 0.960 . S
H1801 C1814 0.961 . S
H1802 C1814 0.959 . S
H1803 C1817 0.929 . S
H1804 C1818 0.931 . S
H1805 C1820 0.930 . S
C1806 H1794 0.930 . S
C1806 C1807 1.399 . S
C1806 C1811 1.399 . S
C1807 C1806 1.399 . S
C1807 C1808 1.376 . S
C1808 H1795 0.930 . S
C1808 C1807 1.376 . S
C1808 C1809 1.388 . S
C1809 H1796 0.930 . S
C1809 C1808 1.388 . S
C1809 C1810 1.390 . S
C1810 C1809 1.390 . S
C1810 C1811 1.394 . S
C1810 C1816 1.465 1_545 S
C1811 C1806 1.399 . S
C1811 C1810 1.394 . S
C1811 C1812 1.531 . S
C1812 C1811 1.531 . S
C1812 C1813 1.517 . S
C1812 C1814 1.546 1_545 S
C1812 C1815 1.509 1_545 S
C1813 H1797 0.959 . S
C1813 H1798 0.959 . S
C1813 H1799 0.961 . S
C1813 C1812 1.517 . S
C1814 H1800 0.960 . S
C1814 H1801 0.961 . S
C1814 H1802 0.959 . S
C1814 C1812 1.546 1_565 S
C1815 C1812 1.509 1_565 S
C1815 C1816 1.396 . S
C1815 C1820 1.390 . S
C1816 C1810 1.465 1_565 S
C1816 C1815 1.396 . S
C1816 C1817 1.399 . S
C1817 H1803 0.929 . S
C1817 C1816 1.399 . S
C1817 C1818 1.385 . S
C1818 H1804 0.931 . S
C1818 C1817 1.385 . S
C1818 C1819 1.389 . S
C1819 C1818 1.389 . S
C1819 C1820 1.387 . S
C1820 H1805 0.930 . S
C1820 C1815 1.390 . S
C1820 C1819 1.387 . S
H1821 C1833 0.930 . S
H1822 C1835 0.930 . S
H1823 C1836 0.930 1_655 S
H1824 C1840 0.959 . S
H1825 C1840 0.959 . S
H1826 C1840 0.961 . S
H1827 C1841 0.960 . S
H1828 C1841 0.961 . S
H1829 C1841 0.959 . S
H1830 C1844 0.929 . S
H1831 C1845 0.931 . S
H1832 C1847 0.930 . S
C1833 H1821 0.930 . S
C1833 C1834 1.399 . S
C1833 C1838 1.399 . S
C1834 C1833 1.399 . S
C1834 C1835 1.376 . S
C1835 H1822 0.930 . S
C1835 C1834 1.376 . S
C1835 C1836 1.388 . S
C1836 H1823 0.930 1_455 S
C1836 C1835 1.388 . S
C1836 C1837 1.390 . S
C1837 C1836 1.390 . S
C1837 C1838 1.394 . S
C1837 C1843 1.465 1_455 S
C1838 C1833 1.399 . S
C1838 C1837 1.394 . S
C1838 C1839 1.516 . S
C1839 C1838 1.516 . S
C1839 C1840 1.502 . S
C1839 C1841 1.561 . S
C1839 C1842 1.526 1_455 S
C1840 H1824 0.959 . S
C1840 H1825 0.959 . S
C1840 H1826 0.961 . S
C1840 C1839 1.502 . S
C1841 H1827 0.960 . S
C1841 H1828 0.961 . S
C1841 H1829 0.959 . S
C1841 C1839 1.561 . S
C1842 C1839 1.526 1_655 S
C1842 C1843 1.396 . S
C1842 C1847 1.390 . S
C1843 C1837 1.465 1_655 S
C1843 C1842 1.396 . S
C1843 C1844 1.399 . S
C1844 H1830 0.929 . S
C1844 C1843 1.399 . S
C1844 C1845 1.385 . S
C1845 H1831 0.931 . S
C1845 C1844 1.385 . S
C1845 C1846 1.389 . S
C1846 C1845 1.389 . S
C1846 C1847 1.387 . S
C1847 H1832 0.930 . S
C1847 C1842 1.390 . S
C1847 C1846 1.387 . S
H1848 C1860 0.930 . S
H1849 C1862 0.930 . S
H1850 C1863 0.930 . S
H1851 C1867 0.959 1_565 S
H1852 C1867 0.959 . S
H1853 C1867 0.961 1_565 S
H1854 C1868 0.960 . S
H1855 C1868 0.961 . S
H1856 C1868 0.959 . S
H1857 C1871 0.929 . S
H1858 C1872 0.931 . S
H1859 C1874 0.930 . S
C1860 H1848 0.930 . S
C1860 C1861 1.399 . S
C1860 C1865 1.399 . S
C1861 C1860 1.399 . S
C1861 C1862 1.376 . S
C1862 H1849 0.930 . S
C1862 C1861 1.376 . S
C1862 C1863 1.388 . S
C1863 H1850 0.930 . S
C1863 C1862 1.388 . S
C1863 C1864 1.390 . S
C1864 C1863 1.390 . S
C1864 C1865 1.394 . S
C1864 C1870 1.465 1_565 S
C1865 C1860 1.399 . S
C1865 C1864 1.394 . S
C1865 C1866 1.516 1_565 S
C1866 C1865 1.516 1_545 S
C1866 C1867 1.502 . S
C1866 C1868 1.561 . S
C1866 C1869 1.526 . S
C1867 H1851 0.959 1_545 S
C1867 H1852 0.959 . S
C1867 H1853 0.961 1_545 S
C1867 C1866 1.502 . S
C1868 H1854 0.960 . S
C1868 H1855 0.961 . S
C1868 H1856 0.959 . S
C1868 C1866 1.561 . S
C1869 C1866 1.526 . S
C1869 C1870 1.396 . S
C1869 C1874 1.390 . S
C1870 C1864 1.465 1_545 S
C1870 C1869 1.396 . S
C1870 C1871 1.399 . S
C1871 H1857 0.929 . S
C1871 C1870 1.399 . S
C1871 C1872 1.385 . S
C1872 H1858 0.931 . S
C1872 C1871 1.385 . S
C1872 C1873 1.389 . S
C1873 C1872 1.389 . S
C1873 C1874 1.387 . S
C1874 H1859 0.930 . S
C1874 C1869 1.390 . S
C1874 C1873 1.387 . S
H1875 C1887 0.930 . S
H1876 C1889 0.930 . S
H1877 C1890 0.930 . S
H1878 C1894 0.959 . S
H1879 C1894 0.959 . S
H1880 C1894 0.961 . S
H1881 C1895 0.960 . S
H1882 C1895 0.961 . S
H1883 C1895 0.959 . S
H1884 C1898 0.929 1_655 S
H1885 C1899 0.931 . S
H1886 C1901 0.930 . S
C1887 H1875 0.930 . S
C1887 C1888 1.399 . S
C1887 C1892 1.399 . S
C1888 C1887 1.399 . S
C1888 C1889 1.376 . S
C1889 H1876 0.930 . S
C1889 C1888 1.376 . S
C1889 C1890 1.388 . S
C1890 H1877 0.930 . S
C1890 C1889 1.388 . S
C1890 C1891 1.390 . S
C1891 C1890 1.390 . S
C1891 C1892 1.394 . S
C1891 C1897 1.465 1_655 S
C1892 C1887 1.399 . S
C1892 C1891 1.394 . S
C1892 C1893 1.516 1_655 S
C1893 C1892 1.516 1_455 S
C1893 C1894 1.502 . S
C1893 C1895 1.561 . S
C1893 C1896 1.526 . S
C1894 H1878 0.959 . S
C1894 H1879 0.959 . S
C1894 H1880 0.961 . S
C1894 C1893 1.502 . S
C1895 H1881 0.960 . S
C1895 H1882 0.961 . S
C1895 H1883 0.959 . S
C1895 C1893 1.561 . S
C1896 C1893 1.526 . S
C1896 C1897 1.396 . S
C1896 C1901 1.390 . S
C1897 C1891 1.465 1_455 S
C1897 C1896 1.396 . S
C1897 C1898 1.399 . S
C1898 H1884 0.929 1_455 S
C1898 C1897 1.399 . S
C1898 C1899 1.385 . S
C1899 H1885 0.931 . S
C1899 C1898 1.385 . S
C1899 C1900 1.389 . S
C1900 C1899 1.389 . S
C1900 C1901 1.387 . S
C1901 H1886 0.930 . S
C1901 C1896 1.390 . S
C1901 C1900 1.387 . S
H1902 C1914 0.930 . S
H1903 C1916 0.930 . S
H1904 C1917 0.930 . S
H1905 C1921 0.959 . S
H1906 C1921 0.959 . S
H1907 C1921 0.961 . S
H1908 C1922 0.960 . S
H1909 C1922 0.961 . S
H1910 C1922 0.959 . S
H1911 C1925 0.929 1_565 S
H1912 C1926 0.931 . S
H1913 C1928 0.930 . S
C1914 H1902 0.930 . S
C1914 C1915 1.399 . S
C1914 C1919 1.399 . S
C1915 C1914 1.399 . S
C1915 C1916 1.376 . S
C1916 H1903 0.930 . S
C1916 C1915 1.376 . S
C1916 C1917 1.388 . S
C1917 H1904 0.930 . S
C1917 C1916 1.388 . S
C1917 C1918 1.390 . S
C1918 C1917 1.390 . S
C1918 C1919 1.394 . S
C1918 C1924 1.465 1_565 S
C1919 C1914 1.399 . S
C1919 C1918 1.394 . S
C1919 C1920 1.516 1_565 S
C1920 C1919 1.516 1_545 S
C1920 C1921 1.502 . S
C1920 C1922 1.561 . S
C1920 C1923 1.526 . S
C1921 H1905 0.959 . S
C1921 H1906 0.959 . S
C1921 H1907 0.961 . S
C1921 C1920 1.502 . S
C1922 H1908 0.960 . S
C1922 H1909 0.961 . S
C1922 H1910 0.959 . S
C1922 C1920 1.561 . S
C1923 C1920 1.526 . S
C1923 C1924 1.396 . S
C1923 C1928 1.390 . S
C1924 C1918 1.465 1_545 S
C1924 C1923 1.396 . S
C1924 C1925 1.399 . S
C1925 H1911 0.929 1_545 S
C1925 C1924 1.399 . S
C1925 C1926 1.385 . S
C1926 H1912 0.931 . S
C1926 C1925 1.385 . S
C1926 C1927 1.389 . S
C1927 C1926 1.389 . S
C1927 C1928 1.387 . S
C1928 H1913 0.930 . S
C1928 C1923 1.390 . S
C1928 C1927 1.387 . S
H1929 C1941 0.930 . S
H1930 C1943 0.930 . S
H1931 C1944 0.930 . S
H1932 C1948 0.959 . S
H1933 C1948 0.959 . S
H1934 C1948 0.961 . S
H1935 C1949 0.960 . S
H1936 C1949 0.961 . S
H1937 C1949 0.959 . S
H1938 C1952 0.929 . S
H1939 C1953 0.931 . S
H1940 C1955 0.930 . S
C1941 H1929 0.930 . S
C1941 C1942 1.399 . S
C1941 C1946 1.399 . S
C1942 C1941 1.399 . S
C1942 C1943 1.376 . S
C1943 H1930 0.930 . S
C1943 C1942 1.376 . S
C1943 C1944 1.388 . S
C1944 H1931 0.930 . S
C1944 C1943 1.388 . S
C1944 C1945 1.390 . S
C1945 C1944 1.390 . S
C1945 C1946 1.394 . S
C1945 C1951 1.465 1_455 S
C1946 C1941 1.399 . S
C1946 C1945 1.394 . S
C1946 C1947 1.516 . S
C1947 C1946 1.516 . S
C1947 C1948 1.502 1_455 S
C1947 C1949 1.561 . S
C1947 C1950 1.526 1_455 S
C1948 H1932 0.959 . S
C1948 H1933 0.959 . S
C1948 H1934 0.961 . S
C1948 C1947 1.502 1_655 S
C1949 H1935 0.960 . S
C1949 H1936 0.961 . S
C1949 H1937 0.959 . S
C1949 C1947 1.561 . S
C1950 C1947 1.526 1_655 S
C1950 C1951 1.396 . S
C1950 C1955 1.390 . S
C1951 C1945 1.465 1_655 S
C1951 C1950 1.396 . S
C1951 C1952 1.399 . S
C1952 H1938 0.929 . S
C1952 C1951 1.399 . S
C1952 C1953 1.385 . S
C1953 H1939 0.931 . S
C1953 C1952 1.385 . S
C1953 C1954 1.389 . S
C1954 C1953 1.389 . S
C1954 C1955 1.387 . S
C1955 H1940 0.930 . S
C1955 C1950 1.390 . S
C1955 C1954 1.387 . S
H1956 C1968 0.930 . S
H1957 C1970 0.930 . S
H1958 C1971 0.930 . S
H1959 C1975 0.959 . S
H1960 C1975 0.959 . S
H1961 C1975 0.961 1_556 S
H1962 C1976 0.960 . S
H1963 C1976 0.961 . S
H1964 C1976 0.959 . S
H1965 C1979 0.929 . S
H1966 C1980 0.931 . S
H1967 C1982 0.930 . S
C1968 H1956 0.930 . S
C1968 C1969 1.399 . S
C1968 C1973 1.399 . S
C1969 C1968 1.399 . S
C1969 C1970 1.376 . S
C1970 H1957 0.930 . S
C1970 C1969 1.376 . S
C1970 C1971 1.388 . S
C1971 H1958 0.930 . S
C1971 C1970 1.388 . S
C1971 C1972 1.390 . S
C1972 C1971 1.390 . S
C1972 C1973 1.394 . S
C1972 C1978 1.465 1_556 S
C1973 C1968 1.399 . S
C1973 C1972 1.394 . S
C1973 C1974 1.516 . S
C1974 C1973 1.516 . S
C1974 C1975 1.502 1_556 S
C1974 C1976 1.561 . S
C1974 C1977 1.526 1_556 S
C1975 H1959 0.959 . S
C1975 H1960 0.959 . S
C1975 H1961 0.961 1_554 S
C1975 C1974 1.502 1_554 S
C1976 H1962 0.960 . S
C1976 H1963 0.961 . S
C1976 H1964 0.959 . S
C1976 C1974 1.561 . S
C1977 C1974 1.526 1_554 S
C1977 C1978 1.396 . S
C1977 C1982 1.390 . S
C1978 C1972 1.465 1_554 S
C1978 C1977 1.396 . S
C1978 C1979 1.399 . S
C1979 H1965 0.929 . S
C1979 C1978 1.399 . S
C1979 C1980 1.385 . S
C1980 H1966 0.931 . S
C1980 C1979 1.385 . S
C1980 C1981 1.389 . S
C1981 C1980 1.389 . S
C1981 C1982 1.387 . S
C1982 H1967 0.930 . S
C1982 C1977 1.390 . S
C1982 C1981 1.387 . S
H1983 C1995 0.930 . S
H1984 C1997 0.930 . S
H1985 C1998 0.930 . S
H1986 C2002 0.959 . S
H1987 C2002 0.959 . S
H1988 C2002 0.966 . S
H1989 C2003 0.960 . S
H1990 C2003 0.961 . S
H1991 C2003 0.959 . S
H1992 C2006 0.929 . S
H1993 C2007 0.931 . S
H1994 C2009 0.930 . S
C1995 H1983 0.930 . S
C1995 C1996 1.399 . S
C1995 C2000 1.399 . S
C1996 C1995 1.399 . S
C1996 C1997 1.376 . S
C1997 H1984 0.930 . S
C1997 C1996 1.376 . S
C1997 C1998 1.388 . S
C1998 H1985 0.930 . S
C1998 C1997 1.388 . S
C1998 C1999 1.390 . S
C1999 C1998 1.390 . S
C1999 C2000 1.394 . S
C1999 C2005 1.465 1_554 S
C2000 C1995 1.399 . S
C2000 C1999 1.394 . S
C2000 C2001 1.516 . S
C2001 C2000 1.516 . S
C2001 C2002 1.502 1_554 S
C2001 C2003 1.561 . S
C2001 C2004 1.526 1_554 S
C2002 H1986 0.959 . S
C2002 H1987 0.959 . S
C2002 H1988 0.966 . S
C2002 C2001 1.502 1_556 S
C2003 H1989 0.960 . S
C2003 H1990 0.961 . S
C2003 H1991 0.959 . S
C2003 C2001 1.561 . S
C2004 C2001 1.526 1_556 S
C2004 C2005 1.396 . S
C2004 C2009 1.390 . S
C2005 C1999 1.465 1_556 S
C2005 C2004 1.396 . S
C2005 C2006 1.399 . S
C2006 H1992 0.929 . S
C2006 C2005 1.399 . S
C2006 C2007 1.385 . S
C2007 H1993 0.931 . S
C2007 C2006 1.385 . S
C2007 C2008 1.389 . S
C2008 C2007 1.389 . S
C2008 C2009 1.387 . S
C2009 H1994 0.930 . S
C2009 C2004 1.390 . S
C2009 C2008 1.387 . S
H2010 C2022 0.930 . S
H2011 C2024 0.930 . S
H2012 C2025 0.930 . S
H2013 C2029 0.959 . S
H2014 C2029 0.959 . S
H2015 C2029 0.961 1_556 S
H2016 C2030 0.960 . S
H2017 C2030 0.961 . S
H2018 C2030 0.959 . S
H2019 C2033 0.929 . S
H2020 C2034 0.931 . S
H2021 C2036 0.930 . S
C2022 H2010 0.930 . S
C2022 C2023 1.399 . S
C2022 C2027 1.399 . S
C2023 C2022 1.399 . S
C2023 C2024 1.376 . S
C2024 H2011 0.930 . S
C2024 C2023 1.376 . S
C2024 C2025 1.388 . S
C2025 H2012 0.930 . S
C2025 C2024 1.388 . S
C2025 C2026 1.390 . S
C2026 C2025 1.390 . S
C2026 C2027 1.394 . S
C2026 C2032 1.465 1_556 S
C2027 C2022 1.399 . S
C2027 C2026 1.394 . S
C2027 C2028 1.516 . S
C2028 C2027 1.516 . S
C2028 C2029 1.502 1_556 S
C2028 C2030 1.561 . S
C2028 C2031 1.526 1_556 S
C2029 H2013 0.959 . S
C2029 H2014 0.959 . S
C2029 H2015 0.961 1_554 S
C2029 C2028 1.502 1_554 S
C2030 H2016 0.960 . S
C2030 H2017 0.961 . S
C2030 H2018 0.959 . S
C2030 C2028 1.561 . S
C2031 C2028 1.526 1_554 S
C2031 C2032 1.396 . S
C2031 C2036 1.390 . S
C2032 C2026 1.465 1_554 S
C2032 C2031 1.396 . S
C2032 C2033 1.399 . S
C2033 H2019 0.929 . S
C2033 C2032 1.399 . S
C2033 C2034 1.385 . S
C2034 H2020 0.931 . S
C2034 C2033 1.385 . S
C2034 C2035 1.389 . S
C2035 C2034 1.389 . S
C2035 C2036 1.387 . S
C2036 H2021 0.930 . S
C2036 C2031 1.390 . S
C2036 C2035 1.387 . S
H2037 C2049 0.930 . S
H2038 C2051 0.930 . S
H2039 C2052 0.930 1_556 S
H2040 C2056 0.959 . S
H2041 C2056 0.959 . S
H2042 C2056 0.961 . S
H2043 C2057 0.960 . S
H2044 C2057 0.961 . S
H2045 C2057 0.959 . S
H2046 C2060 0.929 . S
H2047 C2061 0.931 . S
H2048 C2063 0.930 . S
C2049 H2037 0.930 . S
C2049 C2050 1.399 . S
C2049 C2054 1.399 . S
C2050 C2049 1.399 . S
C2050 C2051 1.376 . S
C2051 H2038 0.930 . S
C2051 C2050 1.376 . S
C2051 C2052 1.388 . S
C2052 H2039 0.930 1_554 S
C2052 C2051 1.388 . S
C2052 C2053 1.390 . S
C2053 C2052 1.390 . S
C2053 C2054 1.394 . S
C2053 C2059 1.465 1_554 S
C2054 C2049 1.399 . S
C2054 C2053 1.394 . S
C2054 C2055 1.516 . S
C2055 C2054 1.516 . S
C2055 C2056 1.502 . S
C2055 C2057 1.561 . S
C2055 C2058 1.526 1_554 S
C2056 H2040 0.959 . S
C2056 H2041 0.959 . S
C2056 H2042 0.961 . S
C2056 C2055 1.502 . S
C2057 H2043 0.960 . S
C2057 H2044 0.961 . S
C2057 H2045 0.959 . S
C2057 C2055 1.561 . S
C2058 C2055 1.526 1_556 S
C2058 C2059 1.396 . S
C2058 C2063 1.390 . S
C2059 C2053 1.465 1_556 S
C2059 C2058 1.396 . S
C2059 C2060 1.399 . S
C2060 H2046 0.929 . S
C2060 C2059 1.399 . S
C2060 C2061 1.385 . S
C2061 H2047 0.931 . S
C2061 C2060 1.385 . S
C2061 C2062 1.389 . S
C2062 C2061 1.389 . S
C2062 C2063 1.387 . S
C2063 H2048 0.930 . S
C2063 C2058 1.390 . S
C2063 C2062 1.387 . S
H2064 C2076 0.930 . S
H2065 C2078 0.930 . S
H2066 C2079 0.930 . S
H2067 C2083 0.959 . S
H2068 C2083 0.959 . S
H2069 C2083 0.961 . S
H2070 C2084 0.960 . S
H2071 C2084 0.961 . S
H2072 C2084 0.959 . S
H2073 C2087 0.929 . S
H2074 C2088 0.931 . S
H2075 C2090 0.930 . S
C2076 H2064 0.930 . S
C2076 C2077 1.399 . S
C2076 C2081 1.399 . S
C2077 C2076 1.399 . S
C2077 C2078 1.376 . S
C2078 H2065 0.930 . S
C2078 C2077 1.376 . S
C2078 C2079 1.388 . S
C2079 H2066 0.930 . S
C2079 C2078 1.388 . S
C2079 C2080 1.390 . S
C2080 C2079 1.390 . S
C2080 C2081 1.394 . S
C2080 C2086 1.465 . S
C2081 C2076 1.399 . S
C2081 C2080 1.394 . S
C2081 C2082 1.516 . S
C2082 C2081 1.516 . S
C2082 C2083 1.502 . S
C2082 C2084 1.561 . S
C2082 C2085 1.526 . S
C2083 H2067 0.959 . S
C2083 H2068 0.959 . S
C2083 H2069 0.961 . S
C2083 C2082 1.502 . S
C2084 H2070 0.960 . S
C2084 H2071 0.961 . S
C2084 H2072 0.959 . S
C2084 C2082 1.561 . S
C2085 C2082 1.526 . S
C2085 C2086 1.396 . S
C2085 C2090 1.390 . S
C2086 C2080 1.465 . S
C2086 C2085 1.396 . S
C2086 C2087 1.399 . S
C2087 H2073 0.929 . S
C2087 C2086 1.399 . S
C2087 C2088 1.385 . S
C2088 H2074 0.931 . S
C2088 C2087 1.385 . S
C2088 C2089 1.389 . S
C2089 C2088 1.389 . S
C2089 C2090 1.387 . S
C2090 H2075 0.930 . S
C2090 C2085 1.390 . S
C2090 C2089 1.387 . S
H2091 C2103 0.930 . S
H2092 C2105 0.930 . S
H2093 C2106 0.930 . S
H2094 C2110 0.959 . S
H2095 C2110 0.959 . S
H2096 C2110 0.961 . S
H2097 C2111 0.960 . S
H2098 C2111 0.961 . S
H2099 C2111 0.959 . S
H2100 C2114 0.929 . S
H2101 C2115 0.931 . S
H2102 C2117 0.930 . S
C2103 H2091 0.930 . S
C2103 C2104 1.399 . S
C2103 C2108 1.399 . S
C2104 C2103 1.399 . S
C2104 C2105 1.376 . S
C2105 H2092 0.930 . S
C2105 C2104 1.376 . S
C2105 C2106 1.388 . S
C2106 H2093 0.930 . S
C2106 C2105 1.388 . S
C2106 C2107 1.390 . S
C2107 C2106 1.390 . S
C2107 C2108 1.394 . S
C2107 C2113 1.465 . S
C2108 C2103 1.399 . S
C2108 C2107 1.394 . S
C2108 C2109 1.516 . S
C2109 C2108 1.516 . S
C2109 C2110 1.502 . S
C2109 C2111 1.561 . S
C2109 C2112 1.526 . S
C2110 H2094 0.959 . S
C2110 H2095 0.959 . S
C2110 H2096 0.961 . S
C2110 C2109 1.502 . S
C2111 H2097 0.960 . S
C2111 H2098 0.961 . S
C2111 H2099 0.959 . S
C2111 C2109 1.561 . S
C2112 C2109 1.526 . S
C2112 C2113 1.396 . S
C2112 C2117 1.390 . S
C2113 C2107 1.465 . S
C2113 C2112 1.396 . S
C2113 C2114 1.399 . S
C2114 H2100 0.929 . S
C2114 C2113 1.399 . S
C2114 C2115 1.385 . S
C2115 H2101 0.931 . S
C2115 C2114 1.385 . S
C2115 C2116 1.389 . S
C2116 C2115 1.389 . S
C2116 C2117 1.387 . S
C2117 H2102 0.930 . S
C2117 C2112 1.390 . S
C2117 C2116 1.387 . S
H2118 C2130 0.930 . S
H2119 C2132 0.930 . S
H2120 C2133 0.930 . S
H2121 C2137 0.959 . S
H2122 C2137 0.959 . S
H2123 C2137 0.961 . S
H2124 C2138 0.960 . S
H2125 C2138 0.961 . S
H2126 C2138 0.959 . S
H2127 C2141 0.929 . S
H2128 C2142 0.931 . S
H2129 C2144 0.930 . S
C2130 H2118 0.930 . S
C2130 C2131 1.399 . S
C2130 C2135 1.399 . S
C2131 C2130 1.399 . S
C2131 C2132 1.376 . S
C2132 H2119 0.930 . S
C2132 C2131 1.376 . S
C2132 C2133 1.388 . S
C2133 H2120 0.930 . S
C2133 C2132 1.388 . S
C2133 C2134 1.390 . S
C2134 C2133 1.390 . S
C2134 C2135 1.394 . S
C2134 C2140 1.465 . S
C2135 C2130 1.399 . S
C2135 C2134 1.394 . S
C2135 C2136 1.516 . S
C2136 C2135 1.516 . S
C2136 C2137 1.502 . S
C2136 C2138 1.561 . S
C2136 C2139 1.526 . S
C2137 H2121 0.959 . S
C2137 H2122 0.959 . S
C2137 H2123 0.961 . S
C2137 C2136 1.502 . S
C2138 H2124 0.960 . S
C2138 H2125 0.961 . S
C2138 H2126 0.959 . S
C2138 C2136 1.561 . S
C2139 C2136 1.526 . S
C2139 C2140 1.396 . S
C2139 C2144 1.390 . S
C2140 C2134 1.465 . S
C2140 C2139 1.396 . S
C2140 C2141 1.399 . S
C2141 H2127 0.929 . S
C2141 C2140 1.399 . S
C2141 C2142 1.385 . S
C2142 H2128 0.931 . S
C2142 C2141 1.385 . S
C2142 C2143 1.389 . S
C2143 C2142 1.389 . S
C2143 C2144 1.387 . S
C2144 H2129 0.930 . S
C2144 C2139 1.390 . S
C2144 C2143 1.387 . S
H2145 C2157 0.930 . S
H2146 C2159 0.930 . S
H2147 C2160 0.930 . S
H2148 C2164 0.959 . S
H2149 C2164 0.959 . S
H2150 C2164 0.961 . S
H2151 C2165 0.960 . S
H2152 C2165 0.961 . S
H2153 C2165 0.959 . S
H2154 C2168 0.929 . S
H2155 C2169 0.931 . S
H2156 C2171 0.930 . S
C2157 H2145 0.930 . S
C2157 C2158 1.399 . S
C2157 C2162 1.399 . S
C2158 C2157 1.399 . S
C2158 C2159 1.376 . S
C2159 H2146 0.930 . S
C2159 C2158 1.376 . S
C2159 C2160 1.388 . S
C2160 H2147 0.930 . S
C2160 C2159 1.388 . S
C2160 C2161 1.390 . S
C2161 C2160 1.390 . S
C2161 C2162 1.394 . S
C2161 C2167 1.465 . S
C2162 C2157 1.399 . S
C2162 C2161 1.394 . S
C2162 C2163 1.516 . S
C2163 C2162 1.516 . S
C2163 C2164 1.502 . S
C2163 C2165 1.561 . S
C2163 C2166 1.526 . S
C2164 H2148 0.959 . S
C2164 H2149 0.959 . S
C2164 H2150 0.961 . S
C2164 C2163 1.502 . S
C2165 H2151 0.960 . S
C2165 H2152 0.961 . S
C2165 H2153 0.959 . S
C2165 C2163 1.561 . S
C2166 C2163 1.526 . S
C2166 C2167 1.396 . S
C2166 C2171 1.390 . S
C2167 C2161 1.465 . S
C2167 C2166 1.396 . S
C2167 C2168 1.399 . S
C2168 H2154 0.929 . S
C2168 C2167 1.399 . S
C2168 C2169 1.385 . S
C2169 H2155 0.931 . S
C2169 C2168 1.385 . S
C2169 C2170 1.389 . S
C2170 C2169 1.389 . S
C2170 C2171 1.387 . S
C2171 H2156 0.930 . S
C2171 C2166 1.390 . S
C2171 C2170 1.387 . S
H2172 C2184 0.930 . S
H2173 C2186 0.930 . S
H2174 C2187 0.930 . S
H2175 C2191 0.959 . S
H2176 C2191 0.959 . S
H2177 C2191 0.961 . S
H2178 C2192 0.960 . S
H2179 C2192 0.961 . S
H2180 C2192 0.959 . S
H2181 C2195 0.929 . S
H2182 C2196 0.931 . S
H2183 C2198 0.930 . S
C2184 H2172 0.930 . S
C2184 C2185 1.399 . S
C2184 C2189 1.399 . S
C2185 C2184 1.399 . S
C2185 C2186 1.376 . S
C2186 H2173 0.930 . S
C2186 C2185 1.376 . S
C2186 C2187 1.388 . S
C2187 H2174 0.930 . S
C2187 C2186 1.388 . S
C2187 C2188 1.390 . S
C2188 C2187 1.390 . S
C2188 C2189 1.394 . S
C2188 C2194 1.465 . S
C2189 C2184 1.399 . S
C2189 C2188 1.394 . S
C2189 C2190 1.516 . S
C2190 C2189 1.516 . S
C2190 C2191 1.502 . S
C2190 C2192 1.561 . S
C2190 C2193 1.526 . S
C2191 H2175 0.959 . S
C2191 H2176 0.959 . S
C2191 H2177 0.961 . S
C2191 C2190 1.502 . S
C2192 H2178 0.960 . S
C2192 H2179 0.961 . S
C2192 H2180 0.959 . S
C2192 C2190 1.561 . S
C2193 C2190 1.526 . S
C2193 C2194 1.396 . S
C2193 C2198 1.390 . S
C2194 C2188 1.465 . S
C2194 C2193 1.396 . S
C2194 C2195 1.399 . S
C2195 H2181 0.929 . S
C2195 C2194 1.399 . S
C2195 C2196 1.385 . S
C2196 H2182 0.931 . S
C2196 C2195 1.385 . S
C2196 C2197 1.389 . S
C2197 C2196 1.389 . S
C2197 C2198 1.387 . S
C2198 H2183 0.930 . S
C2198 C2193 1.390 . S
C2198 C2197 1.387 . S
H2199 C2211 0.930 . S
H2200 C2213 0.930 . S
H2201 C2214 0.930 . S
H2202 C2218 0.959 . S
H2203 C2218 0.959 . S
H2204 C2218 0.961 . S
H2205 C2219 0.960 . S
H2206 C2219 0.961 . S
H2207 C2219 0.959 . S
H2208 C2222 0.929 . S
H2209 C2223 0.931 . S
H2210 C2225 0.930 . S
C2211 H2199 0.930 . S
C2211 C2212 1.399 . S
C2211 C2216 1.399 . S
C2212 C2211 1.399 . S
C2212 C2213 1.376 . S
C2213 H2200 0.930 . S
C2213 C2212 1.376 . S
C2213 C2214 1.388 . S
C2214 H2201 0.930 . S
C2214 C2213 1.388 . S
C2214 C2215 1.390 . S
C2215 C2214 1.390 . S
C2215 C2216 1.394 . S
C2215 C2221 1.465 . S
C2216 C2211 1.399 . S
C2216 C2215 1.394 . S
C2216 C2217 1.516 . S
C2217 C2216 1.516 . S
C2217 C2218 1.502 . S
C2217 C2219 1.561 . S
C2217 C2220 1.526 . S
C2218 H2202 0.959 . S
C2218 H2203 0.959 . S
C2218 H2204 0.961 . S
C2218 C2217 1.502 . S
C2219 H2205 0.960 . S
C2219 H2206 0.961 . S
C2219 H2207 0.959 . S
C2219 C2217 1.561 . S
C2220 C2217 1.526 . S
C2220 C2221 1.396 . S
C2220 C2225 1.390 . S
C2221 C2215 1.465 . S
C2221 C2220 1.396 . S
C2221 C2222 1.399 . S
C2222 H2208 0.929 . S
C2222 C2221 1.399 . S
C2222 C2223 1.385 . S
C2223 H2209 0.931 . S
C2223 C2222 1.385 . S
C2223 C2224 1.389 . S
C2224 C2223 1.389 . S
C2224 C2225 1.387 . S
C2225 H2210 0.930 . S
C2225 C2220 1.390 . S
C2225 C2224 1.387 . S
H2226 C2238 0.930 . S
H2227 C2240 0.930 . S
H2228 C2241 0.930 . S
H2229 C2245 0.959 . S
H2230 C2245 0.959 . S
H2231 C2245 0.961 . S
H2232 C2246 0.960 . S
H2233 C2246 0.961 . S
H2234 C2246 0.959 . S
H2235 C2249 0.929 . S
H2236 C2250 0.931 . S
H2237 C2252 0.930 . S
C2238 H2226 0.930 . S
C2238 C2239 1.399 . S
C2238 C2243 1.399 . S
C2239 C2238 1.399 . S
C2239 C2240 1.376 . S
C2240 H2227 0.930 . S
C2240 C2239 1.376 . S
C2240 C2241 1.388 . S
C2241 H2228 0.930 . S
C2241 C2240 1.388 . S
C2241 C2242 1.390 . S
C2242 C2241 1.390 . S
C2242 C2243 1.394 . S
C2242 C2248 1.465 . S
C2243 C2238 1.399 . S
C2243 C2242 1.394 . S
C2243 C2244 1.516 . S
C2244 C2243 1.516 . S
C2244 C2245 1.502 . S
C2244 C2246 1.561 . S
C2244 C2247 1.526 . S
C2245 H2229 0.959 . S
C2245 H2230 0.959 . S
C2245 H2231 0.961 . S
C2245 C2244 1.502 . S
C2246 H2232 0.960 . S
C2246 H2233 0.961 . S
C2246 H2234 0.959 . S
C2246 C2244 1.561 . S
C2247 C2244 1.526 . S
C2247 C2248 1.396 . S
C2247 C2252 1.390 . S
C2248 C2242 1.465 . S
C2248 C2247 1.396 . S
C2248 C2249 1.399 . S
C2249 H2235 0.929 . S
C2249 C2248 1.399 . S
C2249 C2250 1.385 . S
C2250 H2236 0.931 . S
C2250 C2249 1.385 . S
C2250 C2251 1.389 . S
C2251 C2250 1.389 . S
C2251 C2252 1.387 . S
C2252 H2237 0.930 . S
C2252 C2247 1.390 . S
C2252 C2251 1.387 . S
H2253 C2265 0.930 . S
H2254 C2267 0.930 . S
H2255 C2268 0.930 . S
H2256 C2272 0.959 . S
H2257 C2272 0.959 . S
H2258 C2272 0.961 . S
H2259 C2273 0.960 . S
H2260 C2273 0.961 . S
H2261 C2273 0.959 . S
H2262 C2276 0.929 . S
H2263 C2277 0.931 . S
H2264 C2279 0.930 . S
C2265 H2253 0.930 . S
C2265 C2266 1.399 . S
C2265 C2270 1.399 . S
C2266 C2265 1.399 . S
C2266 C2267 1.376 . S
C2267 H2254 0.930 . S
C2267 C2266 1.376 . S
C2267 C2268 1.388 . S
C2268 H2255 0.930 . S
C2268 C2267 1.388 . S
C2268 C2269 1.390 . S
C2269 C2268 1.390 . S
C2269 C2270 1.394 . S
C2269 C2275 1.465 . S
C2270 C2265 1.399 . S
C2270 C2269 1.394 . S
C2270 C2271 1.516 . S
C2271 C2270 1.516 . S
C2271 C2272 1.502 . S
C2271 C2273 1.561 . S
C2271 C2274 1.526 . S
C2272 H2256 0.959 . S
C2272 H2257 0.959 . S
C2272 H2258 0.961 . S
C2272 C2271 1.502 . S
C2273 H2259 0.960 . S
C2273 H2260 0.961 . S
C2273 H2261 0.959 . S
C2273 C2271 1.561 . S
C2274 C2271 1.526 . S
C2274 C2275 1.396 . S
C2274 C2279 1.390 . S
C2275 C2269 1.465 . S
C2275 C2274 1.396 . S
C2275 C2276 1.399 . S
C2276 H2262 0.929 . S
C2276 C2275 1.399 . S
C2276 C2277 1.385 . S
C2277 H2263 0.931 . S
C2277 C2276 1.385 . S
C2277 C2278 1.389 . S
C2278 C2277 1.389 . S
C2278 C2279 1.387 . S
C2279 H2264 0.930 . S
C2279 C2274 1.390 . S
C2279 C2278 1.387 . S
H2280 C2292 0.930 . S
H2281 C2294 0.930 . S
H2282 C2295 0.930 . S
H2283 C2299 0.959 . S
H2284 C2299 0.959 . S
H2285 C2299 0.961 . S
H2286 C2300 0.960 . S
H2287 C2300 0.961 . S
H2288 C2300 0.959 . S
H2289 C2303 0.929 . S
H2290 C2304 0.931 . S
H2291 C2306 0.930 . S
C2292 H2280 0.930 . S
C2292 C2293 1.399 . S
C2292 C2297 1.399 . S
C2293 C2292 1.399 . S
C2293 C2294 1.376 . S
C2294 H2281 0.930 . S
C2294 C2293 1.376 . S
C2294 C2295 1.388 . S
C2295 H2282 0.930 . S
C2295 C2294 1.388 . S
C2295 C2296 1.390 . S
C2296 C2295 1.390 . S
C2296 C2297 1.394 . S
C2296 C2302 1.465 . S
C2297 C2292 1.399 . S
C2297 C2296 1.394 . S
C2297 C2298 1.516 . S
C2298 C2297 1.516 . S
C2298 C2299 1.502 . S
C2298 C2300 1.561 . S
C2298 C2301 1.526 . S
C2299 H2283 0.959 . S
C2299 H2284 0.959 . S
C2299 H2285 0.961 . S
C2299 C2298 1.502 . S
C2300 H2286 0.960 . S
C2300 H2287 0.961 . S
C2300 H2288 0.959 . S
C2300 C2298 1.561 . S
C2301 C2298 1.526 . S
C2301 C2302 1.396 . S
C2301 C2306 1.390 . S
C2302 C2296 1.465 . S
C2302 C2301 1.396 . S
C2302 C2303 1.399 . S
C2303 H2289 0.929 . S
C2303 C2302 1.399 . S
C2303 C2304 1.385 . S
C2304 H2290 0.931 . S
C2304 C2303 1.385 . S
C2304 C2305 1.389 . S
C2305 C2304 1.389 . S
C2305 C2306 1.387 . S
C2306 H2291 0.930 . S
C2306 C2301 1.390 . S
C2306 C2305 1.387 . S
H2307 C2319 0.930 . S
H2308 C2321 0.930 . S
H2309 C2322 0.930 . S
H2310 C2326 0.959 . S
H2311 C2326 0.959 . S
H2312 C2326 0.961 . S
H2313 C2327 0.960 . S
H2314 C2327 0.961 . S
H2315 C2327 0.959 . S
H2316 C2330 0.929 . S
H2317 C2331 0.931 . S
H2318 C2333 0.930 . S
C2319 H2307 0.930 . S
C2319 C2320 1.399 . S
C2319 C2324 1.399 . S
C2320 C2319 1.399 . S
C2320 C2321 1.376 . S
C2321 H2308 0.930 . S
C2321 C2320 1.376 . S
C2321 C2322 1.388 . S
C2322 H2309 0.930 . S
C2322 C2321 1.388 . S
C2322 C2323 1.390 . S
C2323 C2322 1.390 . S
C2323 C2324 1.394 . S
C2323 C2329 1.465 . S
C2324 C2319 1.399 . S
C2324 C2323 1.394 . S
C2324 C2325 1.516 . S
C2325 C2324 1.516 . S
C2325 C2326 1.502 . S
C2325 C2327 1.561 . S
C2325 C2328 1.526 . S
C2326 H2310 0.959 . S
C2326 H2311 0.959 . S
C2326 H2312 0.961 . S
C2326 C2325 1.502 . S
C2327 H2313 0.960 . S
C2327 H2314 0.961 . S
C2327 H2315 0.959 . S
C2327 C2325 1.561 . S
C2328 C2325 1.526 . S
C2328 C2329 1.396 . S
C2328 C2333 1.390 . S
C2329 C2323 1.465 . S
C2329 C2328 1.396 . S
C2329 C2330 1.399 . S
C2330 H2316 0.929 . S
C2330 C2329 1.399 . S
C2330 C2331 1.385 . S
C2331 H2317 0.931 . S
C2331 C2330 1.385 . S
C2331 C2332 1.389 . S
C2332 C2331 1.389 . S
C2332 C2333 1.387 . S
C2333 H2318 0.930 . S
C2333 C2328 1.390 . S
C2333 C2332 1.387 . S
H2334 C2346 0.930 . S
H2335 C2348 0.930 . S
H2336 C2349 0.930 . S
H2337 C2353 0.959 . S
H2338 C2353 0.959 . S
H2339 C2353 0.961 . S
H2340 C2354 0.960 . S
H2341 C2354 0.961 . S
H2342 C2354 0.959 . S
H2343 C2357 0.929 . S
H2344 C2358 0.931 . S
H2345 C2360 0.930 . S
C2346 H2334 0.930 . S
C2346 C2347 1.399 . S
C2346 C2351 1.399 . S
C2347 C2346 1.399 . S
C2347 C2348 1.376 . S
C2348 H2335 0.930 . S
C2348 C2347 1.376 . S
C2348 C2349 1.388 . S
C2349 H2336 0.930 . S
C2349 C2348 1.388 . S
C2349 C2350 1.390 . S
C2350 C2349 1.390 . S
C2350 C2351 1.394 . S
C2350 C2356 1.465 . S
C2351 C2346 1.399 . S
C2351 C2350 1.394 . S
C2351 C2352 1.516 . S
C2352 C2351 1.516 . S
C2352 C2353 1.502 . S
C2352 C2354 1.561 . S
C2352 C2355 1.526 . S
C2353 H2337 0.959 . S
C2353 H2338 0.959 . S
C2353 H2339 0.961 . S
C2353 C2352 1.502 . S
C2354 H2340 0.960 . S
C2354 H2341 0.961 . S
C2354 H2342 0.959 . S
C2354 C2352 1.561 . S
C2355 C2352 1.526 . S
C2355 C2356 1.396 . S
C2355 C2360 1.390 . S
C2356 C2350 1.465 . S
C2356 C2355 1.396 . S
C2356 C2357 1.399 . S
C2357 H2343 0.929 . S
C2357 C2356 1.399 . S
C2357 C2358 1.385 . S
C2358 H2344 0.931 . S
C2358 C2357 1.385 . S
C2358 C2359 1.389 . S
C2359 C2358 1.389 . S
C2359 C2360 1.387 . S
C2360 H2345 0.930 . S
C2360 C2355 1.390 . S
C2360 C2359 1.387 . S
H2361 C2373 0.930 . S
H2362 C2375 0.930 . S
H2363 C2376 0.930 . S
H2364 C2380 0.959 . S
H2365 C2380 0.959 . S
H2366 C2380 0.961 . S
H2367 C2381 0.960 . S
H2368 C2381 0.961 . S
H2369 C2381 0.959 . S
H2370 C2384 0.929 . S
H2371 C2385 0.931 . S
H2372 C2387 0.930 . S
C2373 H2361 0.930 . S
C2373 C2374 1.399 . S
C2373 C2378 1.399 . S
C2374 C2373 1.399 . S
C2374 C2375 1.376 . S
C2375 H2362 0.930 . S
C2375 C2374 1.376 . S
C2375 C2376 1.388 . S
C2376 H2363 0.930 . S
C2376 C2375 1.388 . S
C2376 C2377 1.390 . S
C2377 C2376 1.390 . S
C2377 C2378 1.394 . S
C2377 C2383 1.465 . S
C2378 C2373 1.399 . S
C2378 C2377 1.394 . S
C2378 C2379 1.516 . S
C2379 C2378 1.516 . S
C2379 C2380 1.502 . S
C2379 C2381 1.561 . S
C2379 C2382 1.526 . S
C2380 H2364 0.959 . S
C2380 H2365 0.959 . S
C2380 H2366 0.961 . S
C2380 C2379 1.502 . S
C2381 H2367 0.960 . S
C2381 H2368 0.961 . S
C2381 H2369 0.959 . S
C2381 C2379 1.561 . S
C2382 C2379 1.526 . S
C2382 C2383 1.396 . S
C2382 C2387 1.390 . S
C2383 C2377 1.465 . S
C2383 C2382 1.396 . S
C2383 C2384 1.399 . S
C2384 H2370 0.929 . S
C2384 C2383 1.399 . S
C2384 C2385 1.385 . S
C2385 H2371 0.931 . S
C2385 C2384 1.385 . S
C2385 C2386 1.389 . S
C2386 C2385 1.389 . S
C2386 C2387 1.387 . S
C2387 H2372 0.930 . S
C2387 C2382 1.390 . S
C2387 C2386 1.387 . S
H2388 C2400 0.930 . S
H2389 C2402 0.930 . S
H2390 C2403 0.930 . S
H2391 C2407 0.959 . S
H2392 C2407 0.959 . S
H2393 C2407 0.961 . S
H2394 C2408 0.960 . S
H2395 C2408 0.961 . S
H2396 C2408 0.959 . S
H2397 C2411 0.929 . S
H2398 C2412 0.931 . S
H2399 C2414 0.930 . S
C2400 H2388 0.930 . S
C2400 C2401 1.399 . S
C2400 C2405 1.399 . S
C2401 C2400 1.399 . S
C2401 C2402 1.376 . S
C2402 H2389 0.930 . S
C2402 C2401 1.376 . S
C2402 C2403 1.388 . S
C2403 H2390 0.930 . S
C2403 C2402 1.388 . S
C2403 C2404 1.390 . S
C2404 C2403 1.390 . S
C2404 C2405 1.394 . S
C2404 C2410 1.465 . S
C2405 C2400 1.399 . S
C2405 C2404 1.394 . S
C2405 C2406 1.516 . S
C2406 C2405 1.516 . S
C2406 C2407 1.502 . S
C2406 C2408 1.561 . S
C2406 C2409 1.526 . S
C2407 H2391 0.959 . S
C2407 H2392 0.959 . S
C2407 H2393 0.961 . S
C2407 C2406 1.502 . S
C2408 H2394 0.960 . S
C2408 H2395 0.961 . S
C2408 H2396 0.959 . S
C2408 C2406 1.561 . S
C2409 C2406 1.526 . S
C2409 C2410 1.396 . S
C2409 C2414 1.390 . S
C2410 C2404 1.465 . S
C2410 C2409 1.396 . S
C2410 C2411 1.399 . S
C2411 H2397 0.929 . S
C2411 C2410 1.399 . S
C2411 C2412 1.385 . S
C2412 H2398 0.931 . S
C2412 C2411 1.385 . S
C2412 C2413 1.389 . S
C2413 C2412 1.389 . S
C2413 C2414 1.387 . S
C2414 H2399 0.930 . S
C2414 C2409 1.390 . S
C2414 C2413 1.387 . S
H2415 C2427 0.930 . S
H2416 C2429 0.930 . S
H2417 C2430 0.930 . S
H2418 C2434 0.959 . S
H2419 C2434 0.959 . S
H2420 C2434 0.961 . S
H2421 C2435 0.960 . S
H2422 C2435 0.961 . S
H2423 C2435 0.959 . S
H2424 C2438 0.929 . S
H2425 C2439 0.931 . S
H2426 C2441 0.930 . S
C2427 H2415 0.930 . S
C2427 C2428 1.399 . S
C2427 C2432 1.399 . S
C2428 C2427 1.399 . S
C2428 C2429 1.376 . S
C2429 H2416 0.930 . S
C2429 C2428 1.376 . S
C2429 C2430 1.388 . S
C2430 H2417 0.930 . S
C2430 C2429 1.388 . S
C2430 C2431 1.390 . S
C2431 C2430 1.390 . S
C2431 C2432 1.394 . S
C2431 C2437 1.465 . S
C2432 C2427 1.399 . S
C2432 C2431 1.394 . S
C2432 C2433 1.516 . S
C2433 C2432 1.516 . S
C2433 C2434 1.502 . S
C2433 C2435 1.561 . S
C2433 C2436 1.526 . S
C2434 H2418 0.959 . S
C2434 H2419 0.959 . S
C2434 H2420 0.961 . S
C2434 C2433 1.502 . S
C2435 H2421 0.960 . S
C2435 H2422 0.961 . S
C2435 H2423 0.959 . S
C2435 C2433 1.561 . S
C2436 C2433 1.526 . S
C2436 C2437 1.396 . S
C2436 C2441 1.390 . S
C2437 C2431 1.465 . S
C2437 C2436 1.396 . S
C2437 C2438 1.399 . S
C2438 H2424 0.929 . S
C2438 C2437 1.399 . S
C2438 C2439 1.385 . S
C2439 H2425 0.931 . S
C2439 C2438 1.385 . S
C2439 C2440 1.389 . S
C2440 C2439 1.389 . S
C2440 C2441 1.387 . S
C2441 H2426 0.930 . S
C2441 C2436 1.390 . S
C2441 C2440 1.387 . S
H2442 C2454 0.930 . S
H2443 C2456 0.930 . S
H2444 C2457 0.930 . S
H2445 C2461 0.959 . S
H2446 C2461 0.959 . S
H2447 C2461 0.961 . S
H2448 C2462 0.960 . S
H2449 C2462 0.961 . S
H2450 C2462 0.959 . S
H2451 C2465 0.929 . S
H2452 C2466 0.931 . S
H2453 C2468 0.930 . S
C2454 H2442 0.930 . S
C2454 C2455 1.399 . S
C2454 C2459 1.399 . S
C2455 C2454 1.399 . S
C2455 C2456 1.376 . S
C2456 H2443 0.930 . S
C2456 C2455 1.376 . S
C2456 C2457 1.388 . S
C2457 H2444 0.930 . S
C2457 C2456 1.388 . S
C2457 C2458 1.390 . S
C2458 C2457 1.390 . S
C2458 C2459 1.394 . S
C2458 C2464 1.465 . S
C2459 C2454 1.399 . S
C2459 C2458 1.394 . S
C2459 C2460 1.516 . S
C2460 C2459 1.516 . S
C2460 C2461 1.502 . S
C2460 C2462 1.561 . S
C2460 C2463 1.526 . S
C2461 H2445 0.959 . S
C2461 H2446 0.959 . S
C2461 H2447 0.961 . S
C2461 C2460 1.502 . S
C2462 H2448 0.960 . S
C2462 H2449 0.961 . S
C2462 H2450 0.959 . S
C2462 C2460 1.561 . S
C2463 C2460 1.526 . S
C2463 C2464 1.396 . S
C2463 C2468 1.390 . S
C2464 C2458 1.465 . S
C2464 C2463 1.396 . S
C2464 C2465 1.399 . S
C2465 H2451 0.929 . S
C2465 C2464 1.399 . S
C2465 C2466 1.385 . S
C2466 H2452 0.931 . S
C2466 C2465 1.385 . S
C2466 C2467 1.389 . S
C2467 C2466 1.389 . S
C2467 C2468 1.387 . S
C2468 H2453 0.930 . S
C2468 C2463 1.390 . S
C2468 C2467 1.387 . S
H2469 C2481 0.930 . S
H2470 C2483 0.930 . S
H2471 C2484 0.930 . S
H2472 C2488 0.959 . S
H2473 C2488 0.959 . S
H2474 C2488 0.961 . S
H2475 C2489 0.960 . S
H2476 C2489 0.961 . S
H2477 C2489 0.959 . S
H2478 C2492 0.929 . S
H2479 C2493 0.931 . S
H2480 C2495 0.930 . S
C2481 H2469 0.930 . S
C2481 C2482 1.399 . S
C2481 C2486 1.399 . S
C2482 C2481 1.399 . S
C2482 C2483 1.376 . S
C2483 H2470 0.930 . S
C2483 C2482 1.376 . S
C2483 C2484 1.388 . S
C2484 H2471 0.930 . S
C2484 C2483 1.388 . S
C2484 C2485 1.390 . S
C2485 C2484 1.390 . S
C2485 C2486 1.394 . S
C2485 C2491 1.465 . S
C2486 C2481 1.399 . S
C2486 C2485 1.394 . S
C2486 C2487 1.516 . S
C2487 C2486 1.516 . S
C2487 C2488 1.502 . S
C2487 C2489 1.561 . S
C2487 C2490 1.526 . S
C2488 H2472 0.959 . S
C2488 H2473 0.959 . S
C2488 H2474 0.961 . S
C2488 C2487 1.502 . S
C2489 H2475 0.960 . S
C2489 H2476 0.961 . S
C2489 H2477 0.959 . S
C2489 C2487 1.561 . S
C2490 C2487 1.526 . S
C2490 C2491 1.396 . S
C2490 C2495 1.390 . S
C2491 C2485 1.465 . S
C2491 C2490 1.396 . S
C2491 C2492 1.399 . S
C2492 H2478 0.929 . S
C2492 C2491 1.399 . S
C2492 C2493 1.385 . S
C2493 H2479 0.931 . S
C2493 C2492 1.385 . S
C2493 C2494 1.389 . S
C2494 C2493 1.389 . S
C2494 C2495 1.387 . S
C2495 H2480 0.930 . S
C2495 C2490 1.390 . S
C2495 C2494 1.387 . S
H2496 C2508 0.930 . S
H2497 C2510 0.930 . S
H2498 C2511 0.930 . S
H2499 C2515 0.959 . S
H2500 C2515 0.959 . S
H2501 C2515 0.961 . S
H2502 C2516 0.960 . S
H2503 C2516 0.961 . S
H2504 C2516 0.959 . S
H2505 C2519 0.929 . S
H2506 C2520 0.931 . S
H2507 C2522 0.930 . S
C2508 H2496 0.930 . S
C2508 C2509 1.399 . S
C2508 C2513 1.399 . S
C2509 C2508 1.399 . S
C2509 C2510 1.376 . S
C2510 H2497 0.930 . S
C2510 C2509 1.376 . S
C2510 C2511 1.388 . S
C2511 H2498 0.930 . S
C2511 C2510 1.388 . S
C2511 C2512 1.390 . S
C2512 C2511 1.390 . S
C2512 C2513 1.394 . S
C2512 C2518 1.465 . S
C2513 C2508 1.399 . S
C2513 C2512 1.394 . S
C2513 C2514 1.516 . S
C2514 C2513 1.516 . S
C2514 C2515 1.502 . S
C2514 C2516 1.561 . S
C2514 C2517 1.526 . S
C2515 H2499 0.959 . S
C2515 H2500 0.959 . S
C2515 H2501 0.961 . S
C2515 C2514 1.502 . S
C2516 H2502 0.960 . S
C2516 H2503 0.961 . S
C2516 H2504 0.959 . S
C2516 C2514 1.561 . S
C2517 C2514 1.526 . S
C2517 C2518 1.396 . S
C2517 C2522 1.390 . S
C2518 C2512 1.465 . S
C2518 C2517 1.396 . S
C2518 C2519 1.399 . S
C2519 H2505 0.929 . S
C2519 C2518 1.399 . S
C2519 C2520 1.385 . S
C2520 H2506 0.931 . S
C2520 C2519 1.385 . S
C2520 C2521 1.389 . S
C2521 C2520 1.389 . S
C2521 C2522 1.387 . S
C2522 H2507 0.930 . S
C2522 C2517 1.390 . S
C2522 C2521 1.387 . S
H2523 C2535 0.930 . S
H2524 C2537 0.930 . S
H2525 C2538 0.930 . S
H2526 C2542 0.959 . S
H2527 C2542 0.959 . S
H2528 C2542 0.961 . S
H2529 C2543 0.960 . S
H2530 C2543 0.961 . S
H2531 C2543 0.959 . S
H2532 C2546 0.929 . S
H2533 C2547 0.931 . S
H2534 C2549 0.930 . S
C2535 H2523 0.930 . S
C2535 C2536 1.399 . S
C2535 C2540 1.399 . S
C2536 C2535 1.399 . S
C2536 C2537 1.376 . S
C2537 H2524 0.930 . S
C2537 C2536 1.376 . S
C2537 C2538 1.388 . S
C2538 H2525 0.930 . S
C2538 C2537 1.388 . S
C2538 C2539 1.390 . S
C2539 C2538 1.390 . S
C2539 C2540 1.394 . S
C2539 C2545 1.465 . S
C2540 C2535 1.399 . S
C2540 C2539 1.394 . S
C2540 C2541 1.516 . S
C2541 C2540 1.516 . S
C2541 C2542 1.502 . S
C2541 C2543 1.561 . S
C2541 C2544 1.526 . S
C2542 H2526 0.959 . S
C2542 H2527 0.959 . S
C2542 H2528 0.961 . S
C2542 C2541 1.502 . S
C2543 H2529 0.960 . S
C2543 H2530 0.961 . S
C2543 H2531 0.959 . S
C2543 C2541 1.561 . S
C2544 C2541 1.526 . S
C2544 C2545 1.396 . S
C2544 C2549 1.390 . S
C2545 C2539 1.465 . S
C2545 C2544 1.396 . S
C2545 C2546 1.399 . S
C2546 H2532 0.929 . S
C2546 C2545 1.399 . S
C2546 C2547 1.385 . S
C2547 H2533 0.931 . S
C2547 C2546 1.385 . S
C2547 C2548 1.389 . S
C2548 C2547 1.389 . S
C2548 C2549 1.387 . S
C2549 H2534 0.930 . S
C2549 C2544 1.390 . S
C2549 C2548 1.387 . S
H2550 C2562 0.930 . S
H2551 C2564 0.930 . S
H2552 C2565 0.930 . S
H2553 C2569 0.959 . S
H2554 C2569 0.959 . S
H2555 C2569 0.961 . S
H2556 C2570 0.960 . S
H2557 C2570 0.961 . S
H2558 C2570 0.959 . S
H2559 C2573 0.929 . S
H2560 C2574 0.931 . S
H2561 C2576 0.930 . S
C2562 H2550 0.930 . S
C2562 C2563 1.399 . S
C2562 C2567 1.399 . S
C2563 C2562 1.399 . S
C2563 C2564 1.376 . S
C2564 H2551 0.930 . S
C2564 C2563 1.376 . S
C2564 C2565 1.388 . S
C2565 H2552 0.930 . S
C2565 C2564 1.388 . S
C2565 C2566 1.390 . S
C2566 C2565 1.390 . S
C2566 C2567 1.394 . S
C2566 C2572 1.465 . S
C2567 C2562 1.399 . S
C2567 C2566 1.394 . S
C2567 C2568 1.516 . S
C2568 C2567 1.516 . S
C2568 C2569 1.502 . S
C2568 C2570 1.561 . S
C2568 C2571 1.526 . S
C2569 H2553 0.959 . S
C2569 H2554 0.959 . S
C2569 H2555 0.961 . S
C2569 C2568 1.502 . S
C2570 H2556 0.960 . S
C2570 H2557 0.961 . S
C2570 H2558 0.959 . S
C2570 C2568 1.561 . S
C2571 C2568 1.526 . S
C2571 C2572 1.396 . S
C2571 C2576 1.390 . S
C2572 C2566 1.465 . S
C2572 C2571 1.396 . S
C2572 C2573 1.399 . S
C2573 H2559 0.929 . S
C2573 C2572 1.399 . S
C2573 C2574 1.385 . S
C2574 H2560 0.931 . S
C2574 C2573 1.385 . S
C2574 C2575 1.389 . S
C2575 C2574 1.389 . S
C2575 C2576 1.387 . S
C2576 H2561 0.930 . S
C2576 C2571 1.390 . S
C2576 C2575 1.387 . S
H2577 C2589 0.930 . S
H2578 C2591 0.930 . S
H2579 C2592 0.930 . S
H2580 C2596 0.959 . S
H2581 C2596 0.959 . S
H2582 C2596 0.961 . S
H2583 C2597 0.960 . S
H2584 C2597 0.961 . S
H2585 C2597 0.959 . S
H2586 C2600 0.929 . S
H2587 C2601 0.931 . S
H2588 C2603 0.930 . S
C2589 H2577 0.930 . S
C2589 C2590 1.399 . S
C2589 C2594 1.399 . S
C2590 C2589 1.399 . S
C2590 C2591 1.376 . S
C2591 H2578 0.930 . S
C2591 C2590 1.376 . S
C2591 C2592 1.388 . S
C2592 H2579 0.930 . S
C2592 C2591 1.388 . S
C2592 C2593 1.390 . S
C2593 C2592 1.390 . S
C2593 C2594 1.394 . S
C2593 C2599 1.465 . S
C2594 C2589 1.399 . S
C2594 C2593 1.394 . S
C2594 C2595 1.516 . S
C2595 C2594 1.516 . S
C2595 C2596 1.502 . S
C2595 C2597 1.561 . S
C2595 C2598 1.526 . S
C2596 H2580 0.959 . S
C2596 H2581 0.959 . S
C2596 H2582 0.961 . S
C2596 C2595 1.502 . S
C2597 H2583 0.960 . S
C2597 H2584 0.961 . S
C2597 H2585 0.959 . S
C2597 C2595 1.561 . S
C2598 C2595 1.526 . S
C2598 C2599 1.396 . S
C2598 C2603 1.390 . S
C2599 C2593 1.465 . S
C2599 C2598 1.396 . S
C2599 C2600 1.399 . S
C2600 H2586 0.929 . S
C2600 C2599 1.399 . S
C2600 C2601 1.385 . S
C2601 H2587 0.931 . S
C2601 C2600 1.385 . S
C2601 C2602 1.389 . S
C2602 C2601 1.389 . S
C2602 C2603 1.387 . S
C2603 H2588 0.930 . S
C2603 C2598 1.390 . S
C2603 C2602 1.387 . S
H2604 C2616 0.930 . S
H2605 C2618 0.930 . S
H2606 C2619 0.930 . S
H2607 C2623 0.959 . S
H2608 C2623 0.959 . S
H2609 C2623 0.961 . S
H2610 C2624 0.960 . S
H2611 C2624 0.961 . S
H2612 C2624 0.959 . S
H2613 C2627 0.929 . S
H2614 C2628 0.931 . S
H2615 C2630 0.930 . S
C2616 H2604 0.930 . S
C2616 C2617 1.399 . S
C2616 C2621 1.399 . S
C2617 C2616 1.399 . S
C2617 C2618 1.376 . S
C2618 H2605 0.930 . S
C2618 C2617 1.376 . S
C2618 C2619 1.388 . S
C2619 H2606 0.930 . S
C2619 C2618 1.388 . S
C2619 C2620 1.390 . S
C2620 C2619 1.390 . S
C2620 C2621 1.394 . S
C2620 C2626 1.465 . S
C2621 C2616 1.399 . S
C2621 C2620 1.394 . S
C2621 C2622 1.516 . S
C2622 C2621 1.516 . S
C2622 C2623 1.502 . S
C2622 C2624 1.561 . S
C2622 C2625 1.526 . S
C2623 H2607 0.959 . S
C2623 H2608 0.959 . S
C2623 H2609 0.961 . S
C2623 C2622 1.502 . S
C2624 H2610 0.960 . S
C2624 H2611 0.961 . S
C2624 H2612 0.959 . S
C2624 C2622 1.561 . S
C2625 C2622 1.526 . S
C2625 C2626 1.396 . S
C2625 C2630 1.390 . S
C2626 C2620 1.465 . S
C2626 C2625 1.396 . S
C2626 C2627 1.399 . S
C2627 H2613 0.929 . S
C2627 C2626 1.399 . S
C2627 C2628 1.385 . S
C2628 H2614 0.931 . S
C2628 C2627 1.385 . S
C2628 C2629 1.389 . S
C2629 C2628 1.389 . S
C2629 C2630 1.387 . S
C2630 H2615 0.930 . S
C2630 C2625 1.390 . S
C2630 C2629 1.387 . S
H2631 C2643 0.930 . S
H2632 C2645 0.930 . S
H2633 C2646 0.930 . S
H2634 C2650 0.959 . S
H2635 C2650 0.959 . S
H2636 C2650 0.961 . S
H2637 C2651 0.960 . S
H2638 C2651 0.961 . S
H2639 C2651 0.959 . S
H2640 C2654 0.929 . S
H2641 C2655 0.931 . S
H2642 C2657 0.930 . S
C2643 H2631 0.930 . S
C2643 C2644 1.399 . S
C2643 C2648 1.399 . S
C2644 C2643 1.399 . S
C2644 C2645 1.376 . S
C2645 H2632 0.930 . S
C2645 C2644 1.376 . S
C2645 C2646 1.388 . S
C2646 H2633 0.930 . S
C2646 C2645 1.388 . S
C2646 C2647 1.390 . S
C2647 C2646 1.390 . S
C2647 C2648 1.394 . S
C2647 C2653 1.465 . S
C2648 C2643 1.399 . S
C2648 C2647 1.394 . S
C2648 C2649 1.516 . S
C2649 C2648 1.516 . S
C2649 C2650 1.502 . S
C2649 C2651 1.561 . S
C2649 C2652 1.526 . S
C2650 H2634 0.959 . S
C2650 H2635 0.959 . S
C2650 H2636 0.961 . S
C2650 C2649 1.502 . S
C2651 H2637 0.960 . S
C2651 H2638 0.961 . S
C2651 H2639 0.959 . S
C2651 C2649 1.561 . S
C2652 C2649 1.526 . S
C2652 C2653 1.396 . S
C2652 C2657 1.390 . S
C2653 C2647 1.465 . S
C2653 C2652 1.396 . S
C2653 C2654 1.399 . S
C2654 H2640 0.929 . S
C2654 C2653 1.399 . S
C2654 C2655 1.385 . S
C2655 H2641 0.931 . S
C2655 C2654 1.385 . S
C2655 C2656 1.389 . S
C2656 C2655 1.389 . S
C2656 C2657 1.387 . S
C2657 H2642 0.930 . S
C2657 C2652 1.390 . S
C2657 C2656 1.387 . S
H2658 C2670 0.930 . S
H2659 C2672 0.930 . S
H2660 C2673 0.930 . S
H2661 C2677 0.959 . S
H2662 C2677 0.959 . S
H2663 C2677 0.961 . S
H2664 C2678 0.960 . S
H2665 C2678 0.961 . S
H2666 C2678 0.959 . S
H2667 C2681 0.929 . S
H2668 C2682 0.931 . S
H2669 C2684 0.930 . S
C2670 H2658 0.930 . S
C2670 C2671 1.399 . S
C2670 C2675 1.399 . S
C2671 C2670 1.399 . S
C2671 C2672 1.376 . S
C2672 H2659 0.930 . S
C2672 C2671 1.376 . S
C2672 C2673 1.388 . S
C2673 H2660 0.930 . S
C2673 C2672 1.388 . S
C2673 C2674 1.390 . S
C2674 C2673 1.390 . S
C2674 C2675 1.394 . S
C2674 C2680 1.465 . S
C2675 C2670 1.399 . S
C2675 C2674 1.394 . S
C2675 C2676 1.516 . S
C2676 C2675 1.516 . S
C2676 C2677 1.502 . S
C2676 C2678 1.561 . S
C2676 C2679 1.526 . S
C2677 H2661 0.959 . S
C2677 H2662 0.959 . S
C2677 H2663 0.961 . S
C2677 C2676 1.502 . S
C2678 H2664 0.960 . S
C2678 H2665 0.961 . S
C2678 H2666 0.959 . S
C2678 C2676 1.561 . S
C2679 C2676 1.526 . S
C2679 C2680 1.396 . S
C2679 C2684 1.390 . S
C2680 C2674 1.465 . S
C2680 C2679 1.396 . S
C2680 C2681 1.399 . S
C2681 H2667 0.929 . S
C2681 C2680 1.399 . S
C2681 C2682 1.385 . S
C2682 H2668 0.931 . S
C2682 C2681 1.385 . S
C2682 C2683 1.389 . S
C2683 C2682 1.389 . S
C2683 C2684 1.387 . S
C2684 H2669 0.930 . S
C2684 C2679 1.390 . S
C2684 C2683 1.387 . S
H2685 C2697 0.930 . S
H2686 C2699 0.930 . S
H2687 C2700 0.930 . S
H2688 C2704 0.959 . S
H2689 C2704 0.959 . S
H2690 C2704 0.961 . S
H2691 C2705 0.960 . S
H2692 C2705 0.961 . S
H2693 C2705 0.959 . S
H2694 C2708 0.929 . S
H2695 C2709 0.931 . S
H2696 C2711 0.930 . S
C2697 H2685 0.930 . S
C2697 C2698 1.399 . S
C2697 C2702 1.399 . S
C2698 C2697 1.399 . S
C2698 C2699 1.376 . S
C2699 H2686 0.930 . S
C2699 C2698 1.376 . S
C2699 C2700 1.388 . S
C2700 H2687 0.930 . S
C2700 C2699 1.388 . S
C2700 C2701 1.390 . S
C2701 C2700 1.390 . S
C2701 C2702 1.394 . S
C2701 C2707 1.465 . S
C2702 C2697 1.399 . S
C2702 C2701 1.394 . S
C2702 C2703 1.516 . S
C2703 C2702 1.516 . S
C2703 C2704 1.502 . S
C2703 C2705 1.561 . S
C2703 C2706 1.526 . S
C2704 H2688 0.959 . S
C2704 H2689 0.959 . S
C2704 H2690 0.961 . S
C2704 C2703 1.502 . S
C2705 H2691 0.960 . S
C2705 H2692 0.961 . S
C2705 H2693 0.959 . S
C2705 C2703 1.561 . S
C2706 C2703 1.526 . S
C2706 C2707 1.396 . S
C2706 C2711 1.390 . S
C2707 C2701 1.465 . S
C2707 C2706 1.396 . S
C2707 C2708 1.399 . S
C2708 H2694 0.929 . S
C2708 C2707 1.399 . S
C2708 C2709 1.385 . S
C2709 H2695 0.931 . S
C2709 C2708 1.385 . S
C2709 C2710 1.389 . S
C2710 C2709 1.389 . S
C2710 C2711 1.387 . S
C2711 H2696 0.930 . S
C2711 C2706 1.390 . S
C2711 C2710 1.387 . S
C1429 C1301 1.665 . S
C1441 C3 1.650 . S
C1456 C62 1.639 . S
C1468 C949 1.715 . S
C1483 C1360 1.644 . S
C1495 C123 1.711 . S
C1510 C1244 1.714 . S
C1522 C182 1.698 . S
C1537 C1067 1.725 . S
C1549 C241 1.674 . S
C1564 C1124 1.656 . S
C1576 C298 1.655 . S
C1591 C1185 1.718 . S
C1603 C357 1.640 . S
C1618 C418 1.677 . S
C1630 C1006 1.682 . S
C1645 C770 1.700 . S
C1657 C475 1.622 . S
C1672 C831 1.726 . S
C1684 C536 1.669 . S
C1699 C593 1.662 . S
C1711 C888 1.657 . S
C1726 C654 1.660 . S
C1738 C713 1.736 . S
C1753 C416 1.633 . S
C1765 C829 1.681 . S
C1780 C890 1.739 . S
C1792 C239 1.612 . S
C1807 C300 1.718 . S
C1819 C711 1.635 . S
C1834 C772 1.741 . S
C1846 C359 1.666 . S
C1861 C595 1.702 . S
C1873 C64 1.707 . S
C1888 C121 1.610 . S
C1900 C652 1.699 . S
C1915 C180 1.613 . S
C1927 C477 1.740 . S
C1942 C5 1.687 . S
C1954 C534 1.670 . S
C1969 C1183 1.656 . S
C1981 C1242 1.666 . S
C1996 C1303 1.686 . S
C2008 C1008 1.707 . S
C2023 C1065 1.655 . S
C2035 C947 1.663 . S
C2050 C1362 1.719 . S
C2062 C1126 1.672 . S
C2077 C33 0.674 . S
C2089 C524 0.761 . S
C2104 C564 0.786 . S
C2116 C92 0.707 . S
C2131 C170 0.686 . S
C2143 C642 0.770 . S
C2158 C229 0.773 . S
C2170 C682 0.688 . S
C2185 C288 0.688 . S
C2197 C741 0.692 . S
C2212 C328 0.788 . S
C2224 C819 0.741 . S
C2239 C859 0.695 . S
C2251 C387 0.676 . S
C2266 C937 0.762 . S
C2278 C465 0.765 . S
C2293 C505 0.671 . S
C2305 C977 0.713 . S
C2320 C583 0.774 . S
C2332 C1409 0.692 . S
C2347 C1272 0.723 . S
C2359 C623 0.669 . S
C2374 C1350 0.756 . S
C2386 C701 0.758 . S
C2401 C1055 0.773 . S
C2413 C760 0.689 . S
C2428 C1095 0.744 . S
C2440 C800 0.793 . S
C2455 C878 0.777 . S
C2467 C1173 0.701 . S
C2482 C918 0.697 . S
C2494 C1213 0.784 . S
C2509 C52 0.688 . S
C2521 C996 0.772 . S
C2536 C1036 0.673 . S
C2548 C269 0.691 . S
C2563 C1114 0.711 . S
C2575 C347 0.691 . S
C2590 C1154 0.778 . S
C2602 C406 0.756 . S
C2617 C1232 0.724 . S
C2629 C446 0.794 . S
C2644 C1291 0.679 . S
C2656 C151 0.720 . S
C2671 C210 0.791 . S
C2683 C1331 0.719 . S
C2698 C1390 0.701 . S
C2710 C111 0.683 . S
