# Generated by pormake.
# Topology smc, (6)-cn, num edge types: 1
# Building blocks:
#     Node 0, Type 0, BuildingBlock: KUMBUR_clean_sbu_0, # of connection points: 6
#     Node 1, Type 0, BuildingBlock: KUMBUR_clean_sbu_0, # of connection points: 6
#     Node 2, Type 0, BuildingBlock: KUMBUR_clean_sbu_0, # of connection points: 6
#     Node 3, Type 0, BuildingBlock: KUMBUR_clean_sbu_0, # of connection points: 6
#     Node 4, Type 0, BuildingBlock: KUMBUR_clean_sbu_0, # of connection points: 6
#     Node 5, Type 0, BuildingBlock: KUMBUR_clean_sbu_0, # of connection points: 6
#     Node 6, Type 0, BuildingBlock: KUMBUR_clean_sbu_0, # of connection points: 6
#     Node 7, Type 0, BuildingBlock: KUMBUR_clean_sbu_0, # of connection points: 6
#     Node 8, Type 0, BuildingBlock: KUMBUR_clean_sbu_0, # of connection points: 6
#     Edge 9, Type (0, 0), BuildingBlock: KIFKEQ_clean_linker_1, # of connection points: 2
#     Edge 10, Type (0, 0), BuildingBlock: KIFKEQ_clean_linker_1, # of connection points: 2
#     Edge 11, Type (0, 0), BuildingBlock: KIFKEQ_clean_linker_1, # of connection points: 2
#     Edge 12, Type (0, 0), BuildingBlock: KIFKEQ_clean_linker_1, # of connection points: 2
#     Edge 13, Type (0, 0), BuildingBlock: KIFKEQ_clean_linker_1, # of connection points: 2
#     Edge 14, Type (0, 0), BuildingBlock: KIFKEQ_clean_linker_1, # of connection points: 2
#     Edge 15, Type (0, 0), BuildingBlock: KIFKEQ_clean_linker_1, # of connection points: 2
#     Edge 16, Type (0, 0), BuildingBlock: KIFKEQ_clean_linker_1, # of connection points: 2
#     Edge 17, Type (0, 0), BuildingBlock: KIFKEQ_clean_linker_1, # of connection points: 2
#     Edge 18, Type (0, 0), BuildingBlock: KIFKEQ_clean_linker_1, # of connection points: 2
#     Edge 19, Type (0, 0), BuildingBlock: KIFKEQ_clean_linker_1, # of connection points: 2
#     Edge 20, Type (0, 0), BuildingBlock: KIFKEQ_clean_linker_1, # of connection points: 2
#     Edge 21, Type (0, 0), BuildingBlock: KIFKEQ_clean_linker_1, # of connection points: 2
#     Edge 22, Type (0, 0), BuildingBlock: KIFKEQ_clean_linker_1, # of connection points: 2
#     Edge 23, Type (0, 0), BuildingBlock: KIFKEQ_clean_linker_1, # of connection points: 2
#     Edge 24, Type (0, 0), BuildingBlock: KIFKEQ_clean_linker_1, # of connection points: 2
#     Edge 25, Type (0, 0), BuildingBlock: KIFKEQ_clean_linker_1, # of connection points: 2
#     Edge 26, Type (0, 0), BuildingBlock: KIFKEQ_clean_linker_1, # of connection points: 2
#     Edge 27, Type (0, 0), BuildingBlock: KIFKEQ_clean_linker_1, # of connection points: 2
#     Edge 28, Type (0, 0), BuildingBlock: KIFKEQ_clean_linker_1, # of connection points: 2
#     Edge 29, Type (0, 0), BuildingBlock: KIFKEQ_clean_linker_1, # of connection points: 2
#     Edge 30, Type (0, 0), BuildingBlock: KIFKEQ_clean_linker_1, # of connection points: 2
#     Edge 31, Type (0, 0), BuildingBlock: KIFKEQ_clean_linker_1, # of connection points: 2
#     Edge 32, Type (0, 0), BuildingBlock: KIFKEQ_clean_linker_1, # of connection points: 2
#     Edge 33, Type (0, 0), BuildingBlock: KIFKEQ_clean_linker_1, # of connection points: 2
#     Edge 34, Type (0, 0), BuildingBlock: KIFKEQ_clean_linker_1, # of connection points: 2
#     Edge 35, Type (0, 0), BuildingBlock: KIFKEQ_clean_linker_1, # of connection points: 2
# Relax obj value: 0.109
# Max RMSD: 0.287
# Mean RMSD: 0.287
data_MOF--net-smc--node1-KUMBUR_clean_sbu_0--edge1-KIFKEQ_clean_linker_1
_symmetry_space_group_name_H-M    P1
_symmetry_Int_Tables_number       1
_symmetry_cell_setting            triclinic
loop_
_symmetry_equiv_pos_as_xyz
'x, y, z'
_cell_length_a     38.378157
_cell_length_b     38.392717
_cell_length_c     41.447156
_cell_angle_alpha  90.032359
_cell_angle_beta   89.946445
_cell_angle_gamma 120.09591
loop_
_atom_site_label
_atom_site_type_symbol
_atom_site_fract_x
_atom_site_fract_y
_atom_site_fract_z
_atom_type_partial_charge
Tb0 Tb 0.06318 0.50398 0.99247 0.0
C1 C 1.01137 0.34577 0.06327 0.0
C2 C 0.05093 0.32142 0.03647 0.0
C3 C 0.03198 0.30439 0.09271 0.0
C4 C 0.03126 0.34412 0.03621 0.0
C5 C 1.01084 0.32545 0.09173 0.0
C6 C 0.05197 0.30232 0.06508 0.0
C7 C 0.96645 0.34612 0.11523 0.0
N8 N 0.9918 0.36691 0.06139 0.0
C9 C 0.96792 0.36584 0.08644 0.0
C10 C 0.98848 0.32634 0.11807 0.0
Tb11 Tb 0.99799 0.40039 0.01381 0.0
N12 N 0.02943 0.36298 0.00913 0.0
C13 C 0.04369 0.35711 0.98059 0.0
C14 C 0.06786 0.31762 0.00776 0.0
C15 C 0.06356 0.33494 0.97957 0.0
H16 H 0.95092 0.38118 0.08465 0.0
H17 H 0.0756 0.3313 0.95701 0.0
H18 H 0.06732 0.28513 0.06586 0.0
H19 H 0.94837 0.34626 0.13523 0.0
H20 H 0.04063 0.36998 0.95842 0.0
H21 H 1.02174 0.55386 0.10146 0.0
H22 H 0.08322 0.30044 0.00689 0.0
H23 H 0.06316 0.52836 0.91481 0.0
H24 H 0.04503 0.51528 0.07112 0.0
H25 H 0.04368 0.57005 0.88327 0.0
H26 H 0.03234 0.28891 0.11445 0.0
H27 H 1.00145 0.59745 0.07316 0.0
H28 H 0.99193 0.6246 0.02123 0.0
H29 H 0.98733 0.31114 0.14041 0.0
H30 H 0.99694 0.62824 0.96212 0.0
N31 N 0.03926 0.53637 0.02475 0.0
C32 C 0.03716 0.5342 0.05777 0.0
C33 C 1.01215 0.58067 0.05938 0.0
C34 C 1.01442 0.5831 0.02575 0.0
C35 C 1.02358 0.55612 0.07541 0.0
C36 C 0.02836 0.56045 0.00886 0.0
H37 H 1.01554 0.60769 0.91064 0.0
N38 N 0.04288 0.53894 0.95983 0.0
C39 C 0.03908 0.5675 0.90912 0.0
C40 C 0.03022 0.56174 0.97545 0.0
C41 C 0.04954 0.54339 0.92717 0.0
C42 C 1.02344 0.58884 0.92466 0.0
C43 C 1.01943 0.58668 0.95823 0.0
O44 O 0.11794 0.53629 0.96749 0.0
O45 O 0.06067 0.44774 1.0028 0.0
O46 O 0.03362 0.42493 0.05695 0.0
O47 O 0.08063 0.49126 0.04208 0.0
O48 O 0.09293 0.47932 0.9634 0.0
O49 O 0.10847 0.56116 0.01042 0.0
O50 O 0.93468 0.37077 0.0196 0.0
O51 O 1.002 0.45725 1.00069 0.0
O52 O 0.02551 0.47148 0.94923 0.0
O53 O 1.00339 0.4043 0.96147 0.0
O54 O 0.96489 0.42602 0.03802 0.0
O55 O 0.96132 0.34962 0.98504 0.0
C56 C 0.08515 0.44879 0.98133 0.0
C57 C 0.1487 0.60806 0.96834 0.0
C58 C 0.1867 0.68278 0.96642 0.0
C59 C 0.17096 0.64609 0.98425 0.0
C60 C 0.17959 0.68059 0.93304 0.0
C61 C 0.1446 0.60804 0.93457 0.0
C62 C 0.15907 0.64372 0.91736 0.0
C63 C 0.06527 0.46021 0.0632 0.0
C64 C 0.13195 0.56823 0.9856 0.0
C65 C 1.00557 0.60916 0.97498 0.0
C66 C 1.00288 0.60722 0.00864 0.0
C67 C 0.9767 0.45725 0.02021 0.0
C68 C 0.89796 0.30104 0.00751 0.0
C69 C 0.85607 0.28674 0.0049 0.0
C70 C 0.82758 0.24609 0.01187 0.0
C71 C 0.84153 0.22027 0.02179 0.0
C72 C 0.91083 0.27455 0.01794 0.0
C73 C 0.88276 0.2345 0.02501 0.0
C74 C 1.0083 0.43265 0.941 0.0
C75 C 0.92784 0.34311 0.99848 0.0
H76 H 0.1761 0.64712 0.01001 0.0
H77 H 0.19129 0.70774 0.91866 0.0
H78 H 0.13064 0.58031 0.92098 0.0
H79 H 0.155 0.64278 0.89146 0.0
H80 H 0.84573 0.30692 0.99696 0.0
H81 H 0.82038 0.18903 0.02733 0.0
H82 H 0.94261 0.2847 0.02034 0.0
H83 H 0.89302 0.21427 0.03289 0.0
Tb84 Tb 0.55043 0.56712 0.99265 0.0
C85 C 0.71037 0.68089 0.05869 0.0
C86 C 0.73214 0.74274 0.02928 0.0
C87 C 0.75199 0.74516 0.08529 0.0
C88 C 0.71036 0.70034 0.03082 0.0
C89 C 0.73167 0.70291 0.08614 0.0
C90 C 0.75224 0.76507 0.05687 0.0
C91 C 0.71333 0.6398 0.11233 0.0
N92 N 0.68994 0.64006 0.05859 0.0
C93 C 0.69259 0.61931 0.08448 0.0
C94 C 0.7325 0.68177 0.11334 0.0
Tb95 Tb 0.6551 0.60897 0.01237 0.0
N96 N 0.69075 0.67758 0.00471 0.0
C97 C 0.69476 0.69569 0.97543 0.0
C98 C 0.73399 0.76136 0.99985 0.0
C99 C 0.71574 0.73767 0.97269 0.0
H100 H 0.67769 0.58686 0.08406 0.0
H101 H 0.71784 0.75172 0.94958 0.0
H102 H 0.7688 0.79768 0.05627 0.0
H103 H 0.71447 0.6232 0.133 0.0
H104 H 0.68126 0.67818 0.95399 0.0
H105 H 0.50401 0.47849 0.10305 0.0
H106 H 0.75036 0.79386 0.99762 0.0
H107 H 0.52442 0.54083 0.91562 0.0
H108 H 0.54194 0.53967 0.07159 0.0
H109 H 0.48153 0.47882 0.88513 0.0
H110 H 0.76824 0.76268 0.10623 0.0
H111 H 0.45938 0.41384 0.07594 0.0
H112 H 0.43043 0.37584 0.02473 0.0
H113 H 0.74851 0.69757 0.13495 0.0
H114 H 0.42505 0.37574 0.96568 0.0
N115 N 0.51928 0.51155 0.02582 0.0
C116 C 0.52243 0.51249 0.05879 0.0
C117 C 0.47584 0.44098 0.06169 0.0
C118 C 0.47242 0.43995 0.02811 0.0
C119 C 0.50096 0.47741 0.07705 0.0
C120 C 0.49471 0.47612 0.01058 0.0
H121 H 0.44436 0.41365 0.91357 0.0
N122 N 0.51484 0.51099 0.96098 0.0
C123 C 0.48479 0.4774 0.91096 0.0
C124 C 0.49245 0.47587 0.97719 0.0
C125 C 0.50952 0.51243 0.92838 0.0
C126 C 0.46373 0.44075 0.9271 0.0
C127 C 0.46686 0.4397 0.96064 0.0
O128 O 0.51778 0.58958 0.96837 0.0
O129 O 0.60634 0.62219 1.00134 0.0
O130 O 0.63109 0.62141 0.05527 0.0
O131 O 0.56355 0.59843 0.04179 0.0
O132 O 0.5738 0.61943 0.96136 0.0
O133 O 0.49309 0.5544 0.0109 0.0
O134 O 0.68685 0.5777 0.01986 0.0
O135 O 0.59839 0.55481 1.00131 0.0
O136 O 0.58208 0.55998 0.94961 0.0
O137 O 0.64936 0.60707 0.96006 0.0
O138 O 0.63142 0.55141 0.03827 0.0
O139 O 0.70478 0.62192 0.98256 0.0
C140 C 0.60414 0.64382 0.97885 0.0
C141 C 0.44605 0.54824 0.96916 0.0
C142 C 0.37129 0.51186 0.96711 0.0
C143 C 0.40797 0.5325 0.98503 0.0
C144 C 0.37358 0.50731 0.93367 0.0
C145 C 0.44615 0.54439 0.93537 0.0
C146 C 0.4105 0.52357 0.91806 0.0
C147 C 0.59526 0.61609 0.06218 0.0
C148 C 0.48588 0.57117 0.98647 0.0
C149 C 0.44467 0.40378 0.97802 0.0
C150 C 0.44759 0.40386 0.01165 0.0
C151 C 0.59959 0.53071 0.02134 0.0
C152 C 0.75611 0.6116 0.00533 0.0
C153 C 0.77246 0.58566 1.0028 0.0
C154 C 0.81403 0.60035 0.00848 0.0
C155 C 0.83844 0.64098 0.01726 0.0
C156 C 0.78146 0.6518 0.0145 0.0
C157 C 0.82223 0.66626 0.02044 0.0
C158 C 0.62063 0.58198 0.94051 0.0
C159 C 0.71314 0.59704 0.9974 0.0
H160 H 0.40689 0.53638 0.01082 0.0
H161 H 0.34647 0.49215 0.9192 0.0
H162 H 0.47395 0.55807 0.92183 0.0
H163 H 0.41151 0.52068 0.89213 0.0
H164 H 0.75318 0.55453 0.99574 0.0
H165 H 0.87021 0.65317 0.02207 0.0
H166 H 0.76984 0.67221 0.01676 0.0
H167 H 0.84149 0.69738 0.02741 0.0
Tb168 Tb 0.48787 0.99764 0.99016 0.0
C169 C 0.37711 0.03751 0.06897 0.0
C170 C 0.31236 0.99425 0.0445 0.0
C171 C 0.31623 1.01198 0.10122 0.0
C172 C 0.35474 1.01674 0.04253 0.0
C173 C 0.35824 0.03609 0.09852 0.0
C174 C 0.29328 0.99112 0.07419 0.0
C175 C 0.42344 0.08475 0.11957 0.0
N176 N 0.41763 0.06003 0.06536 0.0
C177 C 0.44074 0.08515 0.08973 0.0
C178 C 0.3821 0.05959 0.12418 0.0
Tb179 Tb 0.44378 0.05641 0.01624 0.0
N180 N 0.37446 0.0206 0.01439 0.0
C181 C 0.35295 1.00594 0.98649 0.0
C182 C 0.29045 0.97679 0.01636 0.0
C183 C 0.31083 0.98342 0.98711 0.0
H184 H 0.47271 0.10479 0.0866 0.0
H185 H 0.29414 0.97109 0.96499 0.0
H186 H 0.26079 0.97355 0.07629 0.0
H187 H 0.44204 0.10386 0.139 0.0
H188 H 0.36784 1.01072 0.96352 0.0
H189 H 0.57173 0.02369 0.10225 0.0
H190 H 0.25785 0.95934 0.01677 0.0
H191 H 0.52135 0.0168 0.91281 0.0
H192 H 0.51197 1.00185 0.07009 0.0
H193 H 0.5856 0.05182 0.88461 0.0
H194 H 0.30114 1.01005 0.12381 0.0
H195 H 0.63857 0.05438 0.07642 0.0
H196 H 0.67981 0.07711 0.02625 0.0
H197 H 0.36879 0.05933 0.14731 0.0
H198 H 0.6836 0.08562 0.96747 0.0
N199 N 0.54259 0.02074 0.02465 0.0
C200 C 0.54 1.01564 0.05751 0.0
C201 C 0.61199 0.04499 0.06172 0.0
C202 C 0.61489 0.04994 0.0283 0.0
C203 C 0.57438 0.02785 0.07635 0.0
C204 C 0.57931 0.03737 0.01016 0.0
H205 H 0.64917 0.07872 0.91501 0.0
N206 N 0.54685 0.03091 0.96038 0.0
C207 C 0.58504 0.05054 0.9107 0.0
C208 C 0.58155 0.04308 0.97713 0.0
C209 C 0.54834 0.03218 0.92718 0.0
C210 C 0.62077 0.06523 0.92789 0.0
C211 C 0.61934 0.06063 0.96134 0.0
O212 O 0.48387 0.95246 0.95859 0.0
O213 O 0.43217 0.99566 1.00186 0.0
O214 O 0.43788 0.02167 0.05871 0.0
O215 O 0.45511 0.97513 0.03869 0.0
O216 O 0.43235 0.9634 0.96285 0.0
O217 O 0.4931 0.94886 0.0089 0.0
O218 O 0.4771 0.12005 0.02034 0.0
O219 O 0.49864 0.05708 1.0008 0.0
O220 O 0.48322 0.03098 0.94695 0.0
O221 O 0.43897 0.05188 0.96416 0.0
O222 O 0.50226 0.09023 0.04049 0.0
O223 O 0.42387 0.09131 0.99164 0.0
C224 C 0.40886 0.97012 0.98081 0.0
C225 C 0.52342 0.92213 0.97305 0.0
C226 C 0.55167 0.87645 0.97483 0.0
C227 C 0.52111 0.88559 0.9837 0.0
C228 C 0.58446 0.90443 0.95642 0.0
C229 C 0.5561 0.94783 0.95336 0.0
C230 C 0.58654 0.93965 0.94575 0.0
C231 C 0.44054 0.98912 0.06201 0.0
C232 C 0.49162 0.93314 0.98073 0.0
C233 C 0.65451 0.07248 0.97926 0.0
C234 C 0.65233 0.06739 0.01268 0.0
C235 C 0.52296 0.08139 0.0214 0.0
C236 C 0.44109 0.15501 0.01464 0.0
C237 C 0.4671 0.197 0.01006 0.0
C238 C 0.45507 0.22488 0.01959 0.0
C239 C 0.41716 0.21014 0.03414 0.0
C240 C 0.40372 0.1415 0.02971 0.0
C241 C 0.39196 0.16892 0.03938 0.0
C242 C 0.46067 0.04793 0.94141 0.0
C243 C 0.45248 0.12555 1.00266 0.0
H244 H 0.4956 0.86426 0.99793 0.0
H245 H 0.60816 0.8984 0.94944 0.0
H246 H 0.55803 0.97405 0.94294 0.0
H247 H 0.61151 0.96041 0.93077 0.0
H248 H 0.49607 0.20782 0.99851 0.0
H249 H 0.40717 0.2307 0.04181 0.0
H250 H 0.38337 0.10968 0.0337 0.0
H251 H 0.36297 0.15813 0.05083 0.0
Tb252 Tb 0.7276 0.83746 0.3257 0.0
C253 C 0.67775 0.67591 0.39107 0.0
C254 C 0.71712 0.65319 0.36176 0.0
C255 C 0.69819 0.6325 0.41747 0.0
C256 C 0.69742 0.67582 0.36332 0.0
C257 C 0.67729 0.65382 0.41837 0.0
C258 C 0.71808 0.63218 0.38919 0.0
C259 C 0.63377 0.67373 0.4446 0.0
N260 N 0.65846 0.69737 0.39107 0.0
C261 C 0.63515 0.69521 0.41691 0.0
C262 C 0.65536 0.65336 0.4455 0.0
Tb263 Tb 0.66362 0.7329 0.34498 0.0
N264 N 0.69552 0.69632 0.33736 0.0
C265 C 0.70994 0.69245 0.30817 0.0
C266 C 0.73429 0.65149 0.33247 0.0
C267 C 0.73014 0.67073 0.30544 0.0
H268 H 0.61845 0.71095 0.41659 0.0
H269 H 0.74239 0.66877 0.28243 0.0
H270 H 0.73338 0.61493 0.38856 0.0
H271 H 0.61608 0.67293 0.46523 0.0
H272 H 0.7068 0.70661 0.2868 0.0
H273 H 0.68512 0.88442 0.43569 0.0
H274 H 0.74976 0.63452 0.33025 0.0
H275 H 0.72873 0.86398 0.24865 0.0
H276 H 0.70812 0.84613 0.40448 0.0
H277 H 0.71058 0.90733 0.21791 0.0
H278 H 0.69852 0.6156 0.43828 0.0
H279 H 0.66588 0.92937 0.40832 0.0
H280 H 0.65762 0.95852 0.35696 0.0
H281 H 0.65427 0.63677 0.46699 0.0
H282 H 0.66358 0.96399 0.29793 0.0
N283 N 0.70335 0.86897 0.35862 0.0
C284 C 0.70084 0.86582 0.39158 0.0
C285 C 0.67647 0.91277 0.39418 0.0
C286 C 0.67918 0.9162 0.36061 0.0
C287 C 0.68734 0.88747 0.4097 0.0
C288 C 0.69293 0.89372 0.34323 0.0
H289 H 0.68262 0.94468 0.24602 0.0
N290 N 0.70799 0.87354 0.2938 0.0
C291 C 0.70551 0.90397 0.24369 0.0
C292 C 0.69532 0.89604 0.30986 0.0
C293 C 0.71528 0.879 0.26126 0.0
C294 C 0.68994 0.92513 0.25965 0.0
C295 C 0.68527 0.92187 0.29316 0.0
O296 O 0.78335 0.86947 0.302 0.0
O297 O 0.72587 0.78117 0.33418 0.0
O298 O 0.70006 0.75622 0.38786 0.0
O299 O 0.74498 0.82397 0.37507 0.0
O300 O 0.75617 0.81394 0.29426 0.0
O301 O 0.77239 0.89474 0.34394 0.0
O302 O 0.60048 0.70223 0.35196 0.0
O303 O 0.66701 0.78989 0.33408 0.0
O304 O 0.68912 0.8063 0.28242 0.0
O305 O 0.66775 0.73877 0.29272 0.0
O306 O 0.63024 0.75698 0.37101 0.0
O307 O 0.62672 0.68357 0.31501 0.0
C308 C 0.74947 0.78322 0.31153 0.0
C309 C 0.81392 0.9411 0.30208 0.0
C310 C 0.85189 1.01575 0.29954 0.0
C311 C 0.83565 0.97931 0.31775 0.0
C312 C 0.84585 1.0131 0.26599 0.0
C313 C 0.81077 0.9406 0.26821 0.0
C314 C 0.82578 0.97603 0.25058 0.0
C315 C 0.7305 0.79197 0.3952 0.0
C316 C 0.79672 0.90157 0.31978 0.0
C317 C 0.67161 0.9442 0.31038 0.0
C318 C 0.66839 0.94122 0.344 0.0
C319 C 0.64181 0.7889 0.35414 0.0
C320 C 0.56444 0.63314 0.3377 0.0
C321 C 0.5224 0.61845 0.33669 0.0
C322 C 0.4946 0.5773 0.3425 0.0
C323 C 0.50941 0.55137 0.34973 0.0
C324 C 0.57821 0.60652 0.34547 0.0
C325 C 0.55082 0.56597 0.35146 0.0
C326 C 0.67216 0.76778 0.27322 0.0
C327 C 0.59349 0.67579 0.32965 0.0
H328 H 0.83999 0.98068 0.34363 0.0
H329 H 0.85803 0.04005 0.25131 0.0
H330 H 0.79705 0.91265 0.25487 0.0
H331 H 0.82248 0.97473 0.2246 0.0
H332 H 0.51138 0.63873 0.33078 0.0
H333 H 0.4888 0.51973 0.35434 0.0
H334 H 0.61015 0.61696 0.3466 0.0
H335 H 0.56176 0.54565 0.35727 0.0
Tb336 Tb 0.21661 0.89558 0.32562 0.0
C337 C 0.36974 1.01514 0.3919 0.0
C338 C 0.38764 0.07427 0.35985 0.0
C339 C 0.40537 0.08132 0.41674 0.0
C340 C 0.36896 0.03211 0.36295 0.0
C341 C 0.38893 0.03944 0.41899 0.0
C342 C 0.40475 0.09874 0.38716 0.0
C343 C 0.3783 0.97972 0.44699 0.0
N344 N 0.35385 0.97472 0.39284 0.0
C345 C 0.35975 0.95697 0.41935 0.0
C346 C 0.3923 0.02105 0.44702 0.0
Tb347 Tb 0.32046 0.93938 0.34746 0.0
N348 N 0.35255 1.00735 0.33722 0.0
C349 C 0.35761 0.02329 0.30691 0.0
C350 C 0.38994 0.09054 0.32921 0.0
C351 C 0.37558 0.06494 0.30253 0.0
H352 H 0.34851 0.92493 0.41964 0.0
H353 H 0.37826 0.07724 0.27857 0.0
H354 H 0.41876 0.13118 0.3854 0.0
H355 H 0.38164 0.96533 0.46827 0.0
H356 H 0.34663 1.00407 0.28598 0.0
H357 H 0.15577 0.82723 0.443 0.0
H358 H 0.40399 0.12277 0.32576 0.0
H359 H 0.20338 0.85022 0.25189 0.0
H360 H 0.18927 0.88203 0.40565 0.0
H361 H 0.17584 0.78296 0.23082 0.0
H362 H 0.4198 0.10055 0.43738 0.0
H363 H 0.12559 0.7571 0.42426 0.0
H364 H 0.10958 0.70919 0.37884 0.0
H365 H 0.40676 0.03863 0.46841 0.0
H366 H 0.11457 0.69728 0.32139 0.0
N367 N 0.18561 0.84581 0.36476 0.0
C368 C 0.18007 0.85271 0.3964 0.0
C369 C 0.14209 0.78158 0.40742 0.0
C370 C 0.14522 0.77415 0.37494 0.0
C371 C 0.15937 0.82105 0.4181 0.0
C372 C 0.16739 0.80717 0.35391 0.0
H373 H 0.14075 0.72424 0.26672 0.0
N374 N 0.1926 0.83268 0.302 0.0
C375 C 0.17505 0.78735 0.25655 0.0
C376 C 0.17105 0.80041 0.32166 0.0
C377 C 0.19254 0.8262 0.26928 0.0
C378 C 0.15489 0.75433 0.27679 0.0
C379 C 0.1518 0.76051 0.30956 0.0
O380 O 0.17332 0.89235 0.29251 0.0
O381 O 0.27157 0.95169 0.33477 0.0
O382 O 0.29212 0.94389 0.39107 0.0
O383 O 0.23001 0.93277 0.37201 0.0
O384 O 0.23718 0.94893 0.29615 0.0
O385 O 0.16381 0.89452 0.34289 0.0
O386 O 0.35295 0.9095 0.35769 0.0
O387 O 0.26521 0.88396 0.33486 0.0
O388 O 0.25023 0.9027 0.27955 0.0
O389 O 0.31747 0.93244 0.29547 0.0
O390 O 0.29629 0.88338 0.3749 0.0
O391 O 0.37253 0.95379 0.32036 0.0
C392 C 0.26838 0.97334 0.3128 0.0
C393 C 0.1049 0.85537 0.31039 0.0
C394 C 0.03104 0.82582 0.31462 0.0
C395 C 0.07083 0.85885 0.3192 0.0
C396 C 0.02599 0.78974 0.30189 0.0
C397 C 0.0978 0.81919 0.2961 0.0
C398 C 0.05905 0.7866 0.29254 0.0
C399 C 0.25826 0.94409 0.39531 0.0
C400 C 0.1476 0.88922 0.31444 0.0
C401 C 0.12964 0.72791 0.33036 0.0
C402 C 0.12663 0.7347 0.36301 0.0
C403 C 0.26595 0.86137 0.35678 0.0
C404 C 0.42278 0.94398 0.34551 0.0
C405 C 0.43978 0.91877 0.34246 0.0
C406 C 0.48099 0.93359 0.34938 0.0
C407 C 0.5045 0.97365 0.35989 0.0
C408 C 0.447 0.98361 0.35645 0.0
C409 C 0.48754 0.99823 0.36361 0.0
C410 C 0.28923 0.91717 0.27327 0.0
C411 C 0.38034 0.92913 0.33607 0.0
H412 H 0.07516 0.88686 0.32911 0.0
H413 H 0.99608 0.76417 0.29814 0.0
H414 H 0.12204 0.81604 0.2868 0.0
H415 H 0.05462 0.75896 0.28178 0.0
H416 H 0.42128 0.8881 0.33401 0.0
H417 H 0.53605 0.98586 0.36562 0.0
H418 H 0.43469 1.00341 0.35912 0.0
H419 H 0.50603 0.02891 0.37192 0.0
Tb420 Tb 0.1552 0.32603 0.32735 0.0
C421 C 0.03991 0.36863 0.39487 0.0
C422 C 0.97874 0.32956 0.36434 0.0
C423 C 0.975 0.34442 0.42085 0.0
C424 C 1.02111 0.35012 0.36651 0.0
C425 C 1.01724 0.36673 0.42226 0.0
C426 C 0.95576 0.32592 0.39189 0.0
C427 C 0.07966 0.41176 0.4493 0.0
N428 N 0.08072 0.38972 0.3952 0.0
C429 C 0.1008 0.41282 0.42145 0.0
C430 C 0.03771 0.38811 0.4499 0.0
Tb431 Tb 0.11285 0.38765 0.34905 0.0
N432 N 0.04448 0.35452 0.34051 0.0
C433 C 0.02715 0.34217 0.31077 0.0
C434 C 0.96086 0.3146 0.33433 0.0
C435 C 0.98523 0.3217 0.30731 0.0
H436 H 0.13324 0.43102 0.42131 0.0
H437 H 0.97176 0.31122 0.28379 0.0
H438 H 0.92315 0.30982 0.39081 0.0
H439 H 0.09574 0.42917 0.4703 0.0
H440 H 0.04527 0.34712 0.28953 0.0
H441 H 0.23032 0.34619 0.44335 0.0
H442 H 0.92841 0.29871 0.33158 0.0
H443 H 0.19602 0.35211 0.25137 0.0
H444 H 0.17323 0.32467 0.40835 0.0
H445 H 0.26212 0.38937 0.22747 0.0
H446 H 0.95698 0.34219 0.44173 0.0
H447 H 0.29913 0.37975 0.42108 0.0
H448 H 0.34423 0.40573 0.37331 0.0
H449 H 1.02141 0.38737 0.47148 0.0
H450 H 0.35278 0.41788 0.31505 0.0
N451 N 0.20721 0.34785 0.36462 0.0
C452 C 0.20213 0.34045 0.39721 0.0
C453 C 0.27372 0.37087 0.40508 0.0
C454 C 0.27921 0.37775 0.37196 0.0
C455 C 0.23501 0.35218 0.41772 0.0
C456 C 0.24507 0.36581 0.35206 0.0
H457 H 0.32284 0.41421 0.26118 0.0
N458 N 0.21662 0.36215 0.30077 0.0
C459 C 0.25924 0.38602 0.25343 0.0
C460 C 0.24994 0.37351 0.31929 0.0
C461 C 0.22116 0.36623 0.26773 0.0
C462 C 0.29337 0.39953 0.27245 0.0
C463 C 0.28905 0.39251 0.3056 0.0
O464 O 0.15569 0.28291 0.29597 0.0
O465 O 0.09998 0.32621 0.33644 0.0
O466 O 0.10191 0.35155 0.39177 0.0
O467 O 0.11997 0.3044 0.37487 0.0
O468 O 0.09999 0.29096 0.29981 0.0
O469 O 0.15799 0.27615 0.34679 0.0
O470 O 0.14539 0.45039 0.35785 0.0
O471 O 0.16745 0.3865 0.33611 0.0
O472 O 0.14792 0.35262 0.2814 0.0
O473 O 0.11643 0.3886 0.29691 0.0
O474 O 0.16957 0.41907 0.37589 0.0
O475 O 0.09952 0.42572 0.32157 0.0
C476 C 0.07678 0.30011 0.3157 0.0
C477 C 0.19501 0.25398 0.31401 0.0
C478 C 0.22735 0.21244 0.32122 0.0
C479 C 0.19394 0.21859 0.32608 0.0
C480 C 0.26135 0.24208 0.30481 0.0
C481 C 0.22886 0.28104 0.29597 0.0
C482 C 0.26188 0.27576 0.29211 0.0
C483 C 0.10449 0.31916 0.3968 0.0
C484 C 0.16109 0.26268 0.31873 0.0
C485 C 0.32274 0.40365 0.32525 0.0
C486 C 0.31786 0.39652 0.35837 0.0
C487 C 0.19088 0.41027 0.35741 0.0
C488 C 0.11327 0.48777 0.34573 0.0
C489 C 0.14088 0.52962 0.34333 0.0
C490 C 0.12869 0.5579 0.35059 0.0
C491 C 0.08885 0.54383 0.36055 0.0
C492 C 0.07379 0.47464 0.35614 0.0
C493 C 0.06176 0.50256 0.36349 0.0
C494 C 0.13234 0.3761 0.2749 0.0
C495 C 0.12577 0.45836 0.33643 0.0
H496 H 0.16752 0.19613 0.33881 0.0
H497 H 0.28712 0.23829 0.30051 0.0
H498 H 0.22981 0.30613 0.284 0.0
H499 H 0.28774 0.29755 0.27844 0.0
H500 H 0.17147 0.54011 0.33537 0.0
H501 H 0.07877 0.56491 0.36627 0.0
H502 H 0.05216 0.44281 0.35831 0.0
H503 H 0.03119 0.49216 0.37136 0.0
Tb504 Tb 0.39312 0.17098 0.65543 0.0
C505 C 0.34611 1.01258 0.72276 0.0
C506 C 0.38923 0.99265 0.69586 0.0
C507 C 0.36927 0.97287 0.75157 0.0
C508 C 0.36739 1.01321 0.69586 0.0
C509 C 0.34594 0.99168 0.75075 0.0
C510 C 0.39092 0.97336 0.72414 0.0
C511 C 0.29694 1.00652 0.77369 0.0
N512 N 0.32416 0.03127 0.72093 0.0
C513 C 0.29812 0.02683 0.74532 0.0
C514 C 0.32147 0.98943 0.77664 0.0
Tb515 Tb 0.33004 0.06626 0.67435 0.0
N516 N 0.36444 0.03174 0.66901 0.0
C517 C 0.37964 0.0274 0.64036 0.0
C518 C 0.40746 0.99091 0.66716 0.0
C519 C 0.40201 1.00775 0.63915 0.0
H520 H 0.27913 0.04003 0.74339 0.0
H521 H 0.41496 1.00556 0.61657 0.0
H522 H 0.40789 0.95778 0.72474 0.0
H523 H 0.27716 1.0041 0.79326 0.0
H524 H 0.37564 0.03983 0.61832 0.0
H525 H 0.34916 0.2184 0.76444 0.0
H526 H 0.42459 0.9755 0.66612 0.0
H527 H 0.39468 0.19668 0.57814 0.0
H528 H 0.373 0.18037 0.73397 0.0
H529 H 0.37656 0.23961 0.54671 0.0
H530 H 0.36992 0.957 0.77297 0.0
H531 H 0.3298 0.26283 0.73635 0.0
H532 H 0.32202 0.29157 0.68461 0.0
H533 H 0.32048 0.97368 0.79861 0.0
H534 H 0.32859 0.29666 0.62561 0.0
N535 N 0.3682 0.2024 0.68775 0.0
C536 C 0.36544 0.19958 0.72072 0.0
C537 C 0.34066 0.24623 0.72252 0.0
C538 C 0.34374 0.24944 0.68895 0.0
C539 C 0.35157 0.22121 0.73843 0.0
C540 C 0.35782 0.22696 0.67199 0.0
H541 H 0.34821 0.27706 0.57412 0.0
N542 N 0.37359 0.20664 0.62296 0.0
C543 C 0.37131 0.23649 0.57248 0.0
C544 C 0.36059 0.22911 0.63863 0.0
C545 C 0.38106 0.21178 0.59042 0.0
C546 C 0.35552 0.2577 0.58805 0.0
C547 C 0.35056 0.2547 0.62153 0.0
O548 O 0.44852 0.20362 0.63138 0.0
O549 O 0.39232 0.11518 0.66469 0.0
O550 O 0.36249 0.09112 0.71885 0.0
O551 O 0.41016 0.15769 0.70491 0.0
O552 O 0.42277 0.14804 0.62479 0.0
O553 O 0.43783 0.22792 0.67415 0.0
O554 O 0.26646 0.0365 0.6776 0.0
O555 O 0.33271 0.12284 0.66303 0.0
O556 O 0.35422 0.13942 0.61244 0.0
O557 O 0.33742 0.07308 0.62208 0.0
O558 O 0.29518 0.08932 0.69945 0.0
O559 O 0.29506 1.01469 0.64576 0.0
C560 C 0.41667 0.11783 0.6425 0.0
C561 C 0.47935 0.27525 0.63284 0.0
C562 C 0.51797 0.34988 0.63174 0.0
C563 C 0.50154 0.31291 0.64919 0.0
C564 C 0.51162 0.34837 0.59827 0.0
C565 C 0.47599 0.27581 0.59903 0.0
C566 C 0.49114 0.3118 0.58216 0.0
C567 C 0.39381 0.12649 0.7258 0.0
C568 C 0.46203 0.23526 0.64977 0.0
C569 C 0.3366 0.27704 0.63836 0.0
C570 C 0.33302 0.27427 0.67197 0.0
C571 C 0.30702 0.12147 0.68278 0.0
C572 C 0.23114 0.96636 0.66774 0.0
C573 C 0.18918 0.95209 0.66586 0.0
C574 C 0.16085 0.9119 0.67432 0.0
C575 C 0.17499 0.88649 0.6849 0.0
C576 C 0.24421 0.94028 0.67886 0.0
C577 C 0.21628 0.90068 0.68734 0.0
C578 C 0.34022 0.10152 0.60264 0.0
C579 C 0.26087 1.00812 0.65773 0.0
H580 H 0.50613 0.31345 0.675 0.0
H581 H 0.52391 0.37581 0.58419 0.0
H582 H 0.46212 0.2483 0.58515 0.0
H583 H 0.48766 0.31134 0.55622 0.0
H584 H 0.17866 0.97196 0.6575 0.0
H585 H 0.15394 0.85561 0.69158 0.0
H586 H 0.27603 0.95042 0.68083 0.0
H587 H 0.2267 0.88079 0.69577 0.0
Tb588 Tb 0.88192 0.22662 0.66211 0.0
C589 C 0.04051 0.34964 0.72445 0.0
C590 C 0.05815 0.40849 0.69207 0.0
C591 C 0.07959 0.41625 0.74808 0.0
C592 C 0.03842 0.36631 0.69567 0.0
C593 C 0.06177 0.37428 0.75086 0.0
C594 C 0.07785 0.43336 0.71868 0.0
C595 C 0.04908 0.31433 0.77963 0.0
N596 N 1.02282 0.30902 0.72609 0.0
C597 C 0.02844 0.2912 0.75269 0.0
C598 C 0.06528 0.35602 0.77891 0.0
Tb599 Tb 0.98718 0.27334 0.68154 0.0
N600 N 1.01932 0.34117 0.67059 0.0
C601 C 1.02229 0.35664 0.64033 0.0
C602 C 0.05876 0.42435 0.66159 0.0
C603 C 0.04145 0.39829 0.63548 0.0
H604 H 1.01574 0.25896 0.75358 0.0
H605 H 0.0427 0.41024 0.61159 0.0
H606 H 0.09277 0.46582 0.71651 0.0
H607 H 0.05243 0.29998 0.80093 0.0
H608 H 1.00908 0.33719 0.61977 0.0
H609 H 0.82838 0.15475 0.77941 0.0
H610 H 0.07362 0.45658 0.65775 0.0
H611 H 0.865 0.18352 0.58713 0.0
H612 H 0.86192 0.21085 0.74309 0.0
H613 H 0.83808 0.11693 0.56447 0.0
H614 H 0.09569 0.43575 0.7682 0.0
H615 H 0.79585 0.08519 0.75886 0.0
H616 H 0.7786 0.03861 0.71224 0.0
H617 H 0.0813 0.37388 0.79979 0.0
H618 H 0.78235 0.02842 0.65424 0.0
N619 N 0.85314 0.17564 0.70041 0.0
C620 C 0.85023 0.18164 0.73275 0.0
C621 C 0.81158 0.11017 0.74231 0.0
C622 C 0.8133 0.10371 0.70939 0.0
C623 C 0.83011 0.14932 0.75398 0.0
C624 C 0.83446 0.13735 0.68876 0.0
H625 H 0.80609 0.05713 0.59957 0.0
N626 N 0.85753 0.16452 0.63688 0.0
C627 C 0.83851 0.12055 0.59039 0.0
C628 C 0.83725 0.13161 0.65616 0.0
C629 C 0.85571 0.15898 0.60391 0.0
C630 C 0.8201 0.08691 0.6102 0.0
C631 C 0.81817 0.09206 0.64333 0.0
O632 O 0.83697 0.22373 0.63102 0.0
O633 O 0.93654 0.28335 0.66958 0.0
O634 O 0.9625 0.28397 0.72471 0.0
O635 O 0.89613 0.26301 0.70907 0.0
O636 O 0.8999 0.27985 0.63265 0.0
O637 O 0.82946 0.22409 0.68188 0.0
O638 O 1.0202 0.24381 0.69093 0.0
O639 O 0.93183 0.217 0.67089 0.0
O640 O 0.91471 0.23288 0.61574 0.0
O641 O 0.98284 0.26684 0.62961 0.0
O642 O 0.96467 0.21834 0.71027 0.0
O643 O 0.03769 0.28684 0.65268 0.0
C644 C 0.93206 0.30471 0.64806 0.0
C645 C 0.7693 0.18535 0.65058 0.0
C646 C 0.69539 0.1544 0.65713 0.0
C647 C 0.73515 0.188 0.66078 0.0
C648 C 0.69067 0.11871 0.6437 0.0
C649 C 0.76224 0.1496 0.63557 0.0
C650 C 0.72371 0.11652 0.63282 0.0
C651 C 0.92695 0.27978 0.73044 0.0
C652 C 0.81202 0.21952 0.65404 0.0
C653 C 0.79712 0.0588 0.66375 0.0
C654 C 0.79479 0.0646 0.69672 0.0
C655 C 0.93383 0.19537 0.69298 0.0
C656 C 0.08928 0.2779 0.6763 0.0
C657 C 0.106 0.25246 0.67319 0.0
C658 C 0.14753 0.26744 0.67874 0.0
C659 C 0.17167 0.30794 0.68799 0.0
C660 C 0.11418 0.318 0.6859 0.0
C661 C 0.15504 0.3328 0.69175 0.0
C662 C 0.95367 0.24924 0.60839 0.0
C663 C 0.04637 0.26273 0.66831 0.0
H664 H 0.73939 0.21575 0.67117 0.0
H665 H 0.66095 0.09273 0.64029 0.0
H666 H 0.7863 0.14716 0.62504 0.0
H667 H 0.71938 0.08923 0.62143 0.0
H668 H 0.08698 0.22144 0.66573 0.0
H669 H 0.20349 0.3203 0.69271 0.0
H670 H 0.10213 0.33802 0.68856 0.0
H671 H 0.17404 0.36384 0.69906 0.0
Tb672 Tb 0.82166 0.66206 0.65971 0.0
C673 C 0.71272 0.70291 0.73939 0.0
C674 C 0.64729 0.65835 0.71647 0.0
C675 C 0.65288 0.67783 0.77287 0.0
C676 C 0.68957 0.68111 0.71357 0.0
C677 C 0.69473 0.70232 0.7692 0.0
C678 C 0.62915 0.6559 0.7465 0.0
C679 C 0.76026 0.75282 0.78837 0.0
N680 N 0.75308 0.72587 0.73484 0.0
C681 C 0.77668 0.75234 0.75833 0.0
C682 C 0.71923 0.72716 0.79405 0.0
Tb683 Tb 0.77765 0.72085 0.6854 0.0
N684 N 0.70836 0.68443 0.68503 0.0
C685 C 0.68595 0.66925 0.6576 0.0
C686 C 0.62449 0.64008 0.68885 0.0
C687 C 0.64389 0.64636 0.65917 0.0
H688 H 0.80836 0.77262 0.75431 0.0
H689 H 0.62648 0.63356 0.63742 0.0
H690 H 0.59676 0.63813 0.74932 0.0
H691 H 0.77927 0.77306 0.80712 0.0
H692 H 0.7001 0.67395 0.63431 0.0
H693 H 0.90351 0.68577 0.77263 0.0
H694 H 0.59193 0.62241 0.68998 0.0
H695 H 0.85623 0.68129 0.58308 0.0
H696 H 0.84423 0.66312 0.73972 0.0
H697 H 0.92098 0.71743 0.55538 0.0
H698 H 0.63848 0.67653 0.79569 0.0
H699 H 0.97095 0.71862 0.74772 0.0
H700 H 1.01314 0.74297 0.69808 0.0
H701 H 0.70659 0.72762 0.81733 0.0
H702 H 1.01791 0.75232 0.63938 0.0
N703 N 0.87573 0.68463 0.69487 0.0
C704 C 0.87254 0.67836 0.7276 0.0
C705 C 0.94459 0.70913 0.73271 0.0
C706 C 0.94809 0.71482 0.69937 0.0
C707 C 0.90665 0.69081 0.74683 0.0
C708 C 0.91278 0.7021 0.68084 0.0
H709 H 0.98416 0.7452 0.58647 0.0
N710 N 0.8811 0.6958 0.63073 0.0
C711 C 0.92002 0.71606 0.58147 0.0
C712 C 0.91557 0.70827 0.64787 0.0
C713 C 0.88306 0.69712 0.59757 0.0
C714 C 0.95554 0.73124 0.59904 0.0
C715 C 0.95364 0.72643 0.6325 0.0
O716 O 0.81828 0.61747 0.62777 0.0
O717 O 0.76582 0.65999 0.671 0.0
O718 O 0.77361 0.68765 0.72851 0.0
O719 O 0.78793 0.63939 0.70777 0.0
O720 O 0.76658 0.62795 0.63191 0.0
O721 O 0.82647 0.61295 0.67818 0.0
O722 O 0.81292 0.7845 0.68463 0.0
O723 O 0.83244 0.72146 0.67004 0.0
O724 O 0.81785 0.69639 0.61683 0.0
O725 O 0.7715 0.71477 0.63345 0.0
O726 O 0.83625 0.75491 0.70954 0.0
O727 O 0.75442 0.75475 0.6636 0.0
C728 C 0.74291 0.63467 0.64965 0.0
C729 C 0.8574 0.58678 0.6425 0.0
C730 C 0.88508 0.54068 0.64405 0.0
C731 C 0.85442 0.54977 0.65255 0.0
C732 C 0.91861 0.56909 0.62655 0.0
C733 C 0.89089 0.61305 0.62378 0.0
C734 C 0.92139 0.60483 0.61648 0.0
C735 C 0.77452 0.6541 0.73141 0.0
C736 C 0.82552 0.59773 0.64988 0.0
C737 C 0.98858 0.73864 0.65082 0.0
C738 C 0.98585 0.73308 0.6842 0.0
C739 C 0.85689 0.74582 0.69054 0.0
C740 C 0.77784 0.82036 0.68561 0.0
C741 C 0.80489 0.86194 0.68023 0.0
C742 C 0.79826 0.89141 0.6949 0.0
C743 C 0.76436 0.87882 0.71474 0.0
C744 C 0.74415 0.80884 0.70548 0.0
C745 C 0.73752 0.8379 0.71987 0.0
C746 C 0.79421 0.71205 0.61095 0.0
C747 C 0.78542 0.78942 0.67098 0.0
H748 H 0.82835 0.52808 0.66608 0.0
H749 H 0.9424 0.56306 0.61987 0.0
H750 H 0.8935 0.63979 0.61389 0.0
H751 H 0.94697 0.626 0.60223 0.0
H752 H 0.83113 0.87129 0.66507 0.0
H753 H 0.75865 0.9008 0.72629 0.0
H754 H 0.72294 0.77736 0.70999 0.0
H755 H 0.71147 0.82866 0.73519 0.0
H756 H 0.30676 0.43575 0.96222 0.0
H757 H 0.34089 0.55258 1.00121 0.0
H758 H 0.23584 0.414 0.97091 0.0
H759 H 0.26963 0.53105 0.00982 0.0
H760 H 0.13773 0.47914 0.03263 0.0
H761 H 0.20535 0.4893 0.03615 0.0
H762 H 0.18736 0.42748 0.94539 0.0
H763 H 0.11908 0.4167 0.94248 0.0
C764 C 0.29914 0.45652 0.9735 0.0
C765 C 0.32981 0.49596 0.98112 0.0
C766 C 0.25826 0.44418 0.97811 0.0
C767 C 0.2464 0.47079 0.99058 0.0
C768 C 0.27722 0.50942 1.00032 0.0
C769 C 0.31831 0.52183 0.99561 0.0
C770 C 0.147 0.46552 0.01438 0.0
C771 C 0.12142 0.44483 0.98823 0.0
C772 C 0.18664 0.47242 0.01593 0.0
C773 C 0.20246 0.45935 0.9911 0.0
C774 C 0.17645 0.43749 0.96541 0.0
C775 C 0.13691 0.4309 0.96382 0.0
H776 H 0.52903 0.81354 0.93407 0.0
H777 H 0.57705 0.85451 0.02923 0.0
H778 H 0.54667 0.76068 0.93744 0.0
H779 H 0.59471 0.80126 0.03293 0.0
H780 H 0.58253 0.67165 0.03228 0.0
H781 H 0.56854 0.72671 0.0347 0.0
H782 H 0.60942 0.75786 0.93643 0.0
H783 H 0.62472 0.70319 0.9347 0.0
C784 C 0.54199 0.81024 0.95627 0.0
C785 C 0.55046 0.83757 0.98175 0.0
C786 C 0.55298 0.78043 0.95796 0.0
C787 C 0.5729 0.7769 0.98524 0.0
C788 C 0.57942 0.80287 0.01153 0.0
C789 C 0.56876 0.8331 0.00965 0.0
C790 C 0.59118 0.69167 0.01197 0.0
C791 C 0.60688 0.68383 0.98393 0.0
C792 C 0.58212 0.72296 0.01304 0.0
C793 C 0.58728 0.74676 0.98566 0.0
C794 C 0.60442 0.73996 0.95794 0.0
C795 C 0.61394 0.709 0.9571 0.0
H796 H 0.34162 0.9362 0.94324 0.0
H797 H 0.389 0.91567 0.03059 0.0
H798 H 0.28451 0.86759 0.946 0.0
H799 H 0.33184 0.84804 0.03421 0.0
H800 H 0.25865 0.71342 0.99924 0.0
H801 H 0.30836 0.78464 0.00773 0.0
H802 H 0.22358 0.81787 0.97151 0.0
H803 H 0.17447 0.74689 0.96275 0.0
C804 C 0.33887 0.91791 0.96404 0.0
C805 C 0.36906 0.93314 0.98785 0.0
C806 C 0.30611 0.87818 0.96554 0.0
C807 C 0.30296 0.85167 0.99048 0.0
C808 C 0.33281 0.86711 0.01459 0.0
C809 C 0.36539 0.90685 0.01306 0.0
C810 C 0.25017 0.73586 0.9942 0.0
C811 C 0.21237 0.7242 0.98046 0.0
C812 C 0.27884 0.77695 0.99885 0.0
C813 C 0.27058 0.80764 0.98984 0.0
C814 C 0.23171 0.79558 0.97811 0.0
C815 C 0.2032 0.75467 0.9735 0.0
H816 H 0.52984 0.27597 0.04498 0.0
H817 H 0.43796 0.27457 0.98444 0.0
H818 H 0.56709 0.34995 0.04359 0.0
H819 H 0.47544 0.3482 0.98228 0.0
H820 H 0.58669 0.47741 0.06924 0.0
H821 H 0.55575 0.40418 0.06601 0.0
H822 H 0.53955 0.40934 0.96345 0.0
H823 H 0.57166 0.483 0.96674 0.0
C824 C 0.51808 0.29147 0.0308 0.0
C825 C 0.48104 0.26938 0.01472 0.0
C826 C 0.53918 0.33388 0.03022 0.0
C827 C 0.52418 0.35532 0.01304 0.0
C828 C 0.48803 0.33298 0.99574 0.0
C829 C 0.46654 0.2907 0.99692 0.0
C830 C 0.5766 0.4629 0.04598 0.0
C831 C 0.58031 0.48594 0.01847 0.0
C832 C 0.55905 0.42088 0.04407 0.0
C833 C 0.54484 0.40054 0.0145 0.0
C834 C 0.54962 0.42378 0.98673 0.0
C835 C 0.56778 0.46601 0.98861 0.0
H836 H 0.56717 0.11447 0.96578 0.0
H837 H 0.57837 0.11319 0.06909 0.0
H838 H 0.64033 0.15933 0.96112 0.0
H839 H 0.65114 0.15749 0.06474 0.0
H840 H 0.77872 0.26014 0.05132 0.0
H841 H 0.70485 0.22434 0.05204 0.0
H842 H 0.70252 0.15779 0.96726 0.0
H843 H 0.77618 0.19298 0.96724 0.0
C844 C 0.58536 0.12356 0.98746 0.0
C845 C 0.56725 0.109 0.01772 0.0
C846 C 0.62731 0.14938 0.98486 0.0
C847 C 0.6521 0.16205 0.01253 0.0
C848 C 0.63337 0.14887 0.04285 0.0
C849 C 0.59159 0.12311 0.04538 0.0
C850 C 0.76229 0.23832 0.03257 0.0
C851 C 0.78321 0.22954 0.00912 0.0
C852 C 0.71991 0.21741 0.03313 0.0
C853 C 0.69729 0.18743 0.01002 0.0
C854 C 0.71853 0.18031 0.98559 0.0
C855 C 0.76085 0.20063 0.98543 0.0
H856 H 0.93659 0.47275 0.06674 0.0
H857 H 0.95728 0.48293 0.96413 0.0
H858 H 0.89425 0.50333 0.06146 0.0
H859 H 0.91553 0.51454 0.95874 0.0
H860 H 0.88061 0.61527 0.97348 0.0
H861 H 0.91744 0.57859 0.97417 0.0
H862 H 0.82881 0.49107 0.03901 0.0
H863 H 0.79159 0.52771 0.03788 0.0
C864 C 0.9322 0.48172 0.043 0.0
C865 C 0.95153 0.47669 0.01604 0.0
C866 C 0.90766 0.49905 0.03993 0.0
C867 C 0.90139 0.51169 0.00969 0.0
C868 C 0.91997 0.50571 0.9825 0.0
C869 C 0.94415 0.48781 0.98557 0.0
C870 C 0.86862 0.58783 0.9875 0.0
C871 C 0.83303 0.57446 0.0056 0.0
C872 C 0.88978 0.56672 0.98788 0.0
C873 C 0.87652 0.53195 0.0069 0.0
C874 C 0.84028 0.51794 0.02434 0.0
C875 C 0.81865 0.5387 0.02347 0.0
H876 H 0.79167 0.7709 0.26496 0.0
H877 H 0.7927 0.79137 0.36695 0.0
H878 H 0.86089 0.78403 0.26818 0.0
H879 H 0.86118 0.80359 0.37071 0.0
H880 H 0.97741 0.79151 0.36409 0.0
H881 H 0.90729 0.77636 0.36522 0.0
H882 H 0.92753 0.84379 0.27711 0.0
H883 H 0.99759 0.85885 0.27627 0.0
C884 C 0.80605 0.77663 0.28838 0.0
C885 C 0.78571 0.77866 0.31596 0.0
C886 C 0.84609 0.78493 0.29017 0.0
C887 C 0.8672 0.79557 0.31966 0.0
C888 C 0.84608 0.79527 0.34757 0.0
C889 C 0.80614 0.78734 0.34563 0.0
C890 C 0.96722 0.80439 0.3457 0.0
C891 C 0.99345 0.82738 0.3206 0.0
C892 C 0.92684 0.79531 0.3461 0.0
C893 C 0.91125 0.80822 0.32098 0.0
C894 C 0.93808 0.83267 0.2966 0.0
C895 C 0.97856 0.84211 0.29643 0.0
H896 H 0.17799 0.13575 0.29922 0.0
H897 H 0.2807 0.20511 0.36044 0.0
H898 H 0.1921 0.08018 0.29987 0.0
H899 H 0.29503 0.14967 0.36115 0.0
H900 H 0.28763 0.02186 0.36796 0.0
H901 H 0.27434 0.07782 0.37562 0.0
H902 H 0.24648 0.07325 0.27434 0.0
H903 H 0.25926 0.01783 0.26707 0.0
C904 C 0.20265 0.13855 0.31385 0.0
C905 C 0.22785 0.17478 0.33007 0.0
C906 C 0.21131 0.10697 0.31377 0.0
C907 C 0.24531 0.11056 0.33005 0.0
C908 C 0.26867 0.14562 0.34833 0.0
C909 C 0.26025 0.17736 0.34811 0.0
C910 C 0.27915 0.03319 0.34739 0.0
C911 C 0.27348 1.01447 0.31712 0.0
C912 C 0.27142 0.06528 0.35171 0.0
C913 C 0.25766 0.07919 0.32582 0.0
C914 C 0.25543 0.06254 0.29514 0.0
C915 C 0.26346 0.03105 0.29087 0.0
H916 H 0.05131 0.24785 0.36736 0.0
H917 H 1.0123 0.26727 0.27535 0.0
H918 H 0.99274 0.18115 0.37041 0.0
H919 H 0.95372 0.19956 0.27763 0.0
H920 H 0.84107 0.08045 0.29251 0.0
H921 H 0.89023 0.15132 0.30159 0.0
H922 H 0.97105 0.11714 0.34475 0.0
H923 H 0.92136 0.04601 0.33576 0.0
C924 C 0.02912 0.2392 0.34865 0.0
C925 C 0.03563 0.26488 0.32223 0.0
C926 C 0.99577 0.19991 0.34989 0.0
C927 C 0.96796 0.18434 0.32432 0.0
C928 C 0.97372 0.21034 0.29823 0.0
C929 C 1.00727 0.2496 0.29702 0.0
C930 C 0.86891 0.088 0.30476 0.0
C931 C 0.87708 0.05729 0.31346 0.0
C932 C 0.89743 0.12883 0.30962 0.0
C933 C 0.93523 0.14053 0.32343 0.0
C934 C 0.94232 0.10966 0.3342 0.0
C935 C 0.91367 0.06865 0.32926 0.0
H936 H 0.26045 0.8171 0.30269 0.0
H937 H 0.24081 0.80705 0.40542 0.0
H938 H 0.2339 0.7442 0.29927 0.0
H939 H 0.21386 0.73442 0.40226 0.0
H940 H 0.18915 0.60676 0.39184 0.0
H941 H 0.22788 0.6806 0.39213 0.0
H942 H 0.16884 0.68257 0.30404 0.0
H943 H 0.12983 0.60892 0.30436 0.0
C944 C 0.25023 0.7992 0.3245 0.0
C945 C 0.25104 0.81742 0.35414 0.0
C946 C 0.23512 0.75743 0.32261 0.0
C947 C 0.22115 0.73301 0.35043 0.0
C948 C 0.2244 0.75196 0.3803 0.0
C949 C 0.23954 0.79361 0.38214 0.0
C950 C 0.18507 0.62311 0.37232 0.0
C951 C 0.1567 0.60216 0.34799 0.0
C952 C 0.20694 0.66544 0.37258 0.0
C953 C 0.20125 0.6879 0.34833 0.0
C954 C 0.17418 0.6666 0.32315 0.0
C955 C 0.15181 0.62433 0.32323 0.0
H956 H 0.24711 0.44279 0.40471 0.0
H957 H 0.23345 0.44506 0.30173 0.0
H958 H 0.31974 0.48816 0.39939 0.0
H959 H 0.30625 0.49082 0.29613 0.0
H960 H 0.44709 0.59197 0.38318 0.0
H961 H 0.3732 0.55597 0.38567 0.0
H962 H 0.36798 0.48758 0.30123 0.0
H963 H 0.44158 0.52286 0.29948 0.0
C964 C 0.25973 0.45323 0.38091 0.0
C965 C 0.23486 0.43906 0.35355 0.0
C966 C 0.30138 0.47953 0.37782 0.0
C967 C 0.31927 0.49305 0.34727 0.0
C968 C 0.29385 0.48055 0.32 0.0
C969 C 0.25211 0.45422 0.32315 0.0
C970 C 0.43001 0.56967 0.36492 0.0
C971 C 0.45008 0.56035 0.34107 0.0
C972 C 0.38766 0.54871 0.36648 0.0
C973 C 0.3643 0.51829 0.34391 0.0
C974 C 0.38465 0.51057 0.31911 0.0
C975 C 0.42691 0.53088 0.318 0.0
H976 H 0.45754 0.8595 0.37611 0.0
H977 H 0.54891 0.95084 0.31542 0.0
H978 H 0.49422 0.82233 0.37556 0.0
H979 H 0.58506 0.91348 0.31426 0.0
H980 H 0.60136 0.80208 0.40185 0.0
H981 H 0.55952 0.83341 0.3983 0.0
H982 H 0.58159 0.8493 0.29577 0.0
H983 H 0.62272 0.81689 0.29938 0.0
C984 C 0.48507 0.87127 0.3622 0.0
C985 C 0.5003 0.90818 0.34587 0.0
C986 C 0.50632 0.85018 0.36209 0.0
C987 C 0.54294 0.86503 0.34509 0.0
C988 C 0.55711 0.90106 0.32761 0.0
C989 C 0.53637 0.92253 0.32831 0.0
C990 C 0.59719 0.8122 0.37853 0.0
C991 C 0.61658 0.80833 0.35111 0.0
C992 C 0.57299 0.82997 0.37644 0.0
C993 C 0.56722 0.84419 0.34678 0.0
C994 C 0.58573 0.83923 0.3191 0.0
C995 C 0.60953 0.82089 0.32117 0.0
H996 H 0.6705 0.20435 0.63196 0.0
H997 H 0.63295 0.1036 0.69627 0.0
H998 H 0.6015 0.19233 0.63102 0.0
H999 H 0.56386 0.09113 0.69516 0.0
H1000 H 0.44481 0.09909 0.69824 0.0
H1001 H 0.51372 0.11199 0.7071 0.0
H1002 H 0.53984 0.14027 0.60604 0.0
H1003 H 0.47201 0.12818 0.59764 0.0
C1004 C 0.64784 0.18052 0.6468 0.0
C1005 C 0.65747 0.1552 0.66435 0.0
C1006 C 0.60798 0.17303 0.64582 0.0
C1007 C 0.57656 0.14007 0.66246 0.0
C1008 C 0.58692 0.11669 0.682 0.0
C1009 C 0.62669 0.12401 0.68278 0.0
C1010 C 0.46522 0.10768 0.67798 0.0
C1011 C 0.45306 0.11358 0.64743 0.0
C1012 C 0.50483 0.11515 0.68299 0.0
C1013 C 0.53318 0.12875 0.6575 0.0
C1014 C 0.51969 0.13145 0.62657 0.0
C1015 C 0.48038 0.12382 0.62163 0.0
H1016 H 0.91075 0.33328 0.70114 0.0
H1017 H 0.95435 0.36425 0.60388 0.0
H1018 H 0.89854 0.38932 0.70335 0.0
H1019 H 0.94087 0.42012 0.60537 0.0
H1020 H 0.86307 0.47872 0.60241 0.0
H1021 H 0.87972 0.42515 0.60566 0.0
H1022 H 0.92545 0.46337 0.70207 0.0
H1023 H 0.90866 0.51721 0.69852 0.0
C1024 C 0.92039 0.35348 0.68094 0.0
C1025 C 0.93623 0.34531 0.65315 0.0
C1026 C 0.91224 0.38536 0.68185 0.0
C1027 C 0.91828 0.4094 0.65448 0.0
C1028 C 0.9353 0.40213 0.62692 0.0
C1029 C 0.94385 0.3705 0.62624 0.0
C1030 C 0.8753 0.47473 0.62475 0.0
C1031 C 0.88334 0.50151 0.65057 0.0
C1032 C 0.88575 0.44455 0.62638 0.0
C1033 C 0.90472 0.44014 0.65392 0.0
C1034 C 0.91087 0.46565 0.68047 0.0
C1035 C 0.90071 0.49621 0.67867 0.0
H1036 H 0.67674 0.6021 0.61104 0.0
H1037 H 0.72137 0.57982 0.69917 0.0
H1038 H 0.6187 0.53402 0.61316 0.0
H1039 H 0.66318 0.51262 0.70217 0.0
H1040 H 0.58887 0.37861 0.66562 0.0
H1041 H 0.63928 0.44935 0.67514 0.0
H1042 H 0.55685 0.48528 0.63821 0.0
H1043 H 0.50704 0.41477 0.62841 0.0
C1044 C 0.67317 0.5835 0.63183 0.0
C1045 C 0.70279 0.59801 0.65608 0.0
C1046 C 0.63989 0.54412 0.63299 0.0
C1047 C 0.63565 0.5173 0.658 0.0
C1048 C 0.66499 0.53202 0.68251 0.0
C1049 C 0.69813 0.57144 0.68132 0.0
C1050 C 0.58104 0.40153 0.66064 0.0
C1051 C 0.54377 0.39083 0.64636 0.0
C1052 C 0.6101 0.44233 0.66589 0.0
C1053 C 0.60271 0.4736 0.65697 0.0
C1054 C 0.56428 0.46247 0.64476 0.0
C1055 C 0.53538 0.42186 0.63954 0.0
H1056 H 0.80292 0.93953 0.64439 0.0
H1057 H 0.855 0.94283 0.73707 0.0
H1058 H 0.84012 1.01322 0.64241 0.0
H1059 H 0.89333 1.01629 0.73502 0.0
H1060 H 0.91074 0.14303 0.7429 0.0
H1061 H 0.88331 0.07048 0.74152 0.0
H1062 H 0.90002 0.07603 0.63807 0.0
H1063 H 0.92605 0.14885 0.63975 0.0
C1064 C 0.82328 0.95613 0.66392 0.0
C1065 C 0.82638 0.93548 0.69074 0.0
C1066 C 0.84467 0.9985 0.6629 0.0
C1067 C 0.86959 0.02137 0.68879 0.0
C1068 C 0.87386 1.00023 0.71492 0.0
C1069 C 0.85232 0.95799 0.71598 0.0
C1070 C 0.90853 0.12865 0.71989 0.0
C1071 C 0.91893 0.15132 0.69134 0.0
C1072 C 0.89316 0.08693 0.71903 0.0
C1073 C 0.88889 0.06664 0.68961 0.0
C1074 C 0.9018 0.09002 0.66116 0.0
C1075 C 0.91681 0.13185 0.66204 0.0
H1076 H 0.91381 0.77846 0.73716 0.0
H1077 H 0.89905 0.77911 0.63421 0.0
H1078 H 0.98635 0.82323 0.73129 0.0
H1079 H 0.97188 0.82454 0.62804 0.0
H1080 H 0.10796 0.85903 0.63029 0.0
H1081 H 0.03432 0.82355 0.63214 0.0
H1082 H 0.0396 0.88979 0.71802 0.0
H1083 H 0.1134 0.9257 0.71555 0.0
C1084 C 0.92619 0.7884 0.71322 0.0
C1085 C 0.90095 0.77396 0.68608 0.0
C1086 C 0.96784 0.81443 0.70981 0.0
C1087 C 0.98549 0.82755 0.67912 0.0
C1088 C 0.95974 0.81463 0.65202 0.0
C1089 C 0.91796 0.7885 0.6555 0.0
C1090 C 0.09326 0.86658 0.64911 0.0
C1091 C 0.11642 0.89542 0.67258 0.0
C1092 C 0.05095 0.8461 0.65031 0.0
C1093 C 0.03056 0.85305 0.67558 0.0
C1094 C 0.05398 0.88298 0.69849 0.0
C1095 C 0.09632 0.90397 0.69692 0.0
H1096 H 0.28801 0.1496 0.62803 0.0
H1097 H 0.26677 0.13472 0.73051 0.0
H1098 H 0.24693 0.18208 0.62452 0.0
H1099 H 0.22517 0.16627 0.72711 0.0
H1100 H 0.12424 0.19371 0.70614 0.0
H1101 H 0.1604 0.15606 0.70525 0.0
H1102 H 0.25014 0.2458 0.64236 0.0
H1103 H 0.21446 0.28356 0.64377 0.0
C1104 C 0.27487 0.15361 0.64984 0.0
C1105 C 0.28193 0.14102 0.67976 0.0
C1106 C 0.25111 0.17201 0.64784 0.0
C1107 C 0.23271 0.17703 0.67557 0.0
C1108 C 0.23851 0.16277 0.7052 0.0
C1109 C 0.2626 0.14489 0.70721 0.0
C1110 C 0.15142 0.20506 0.69182 0.0
C1111 C 0.1665 0.24173 0.67514 0.0
C1112 C 0.17239 0.1837 0.69151 0.0
C1113 C 0.20859 0.19804 0.674 0.0
C1114 C 0.22255 0.23378 0.65615 0.0
C1115 C 0.20207 0.2555 0.657 0.0
H1116 H 0.11218 0.33531 0.21614 0.0
H1117 H 0.1509 0.45155 0.25853 0.0
H1118 H 0.10105 0.35973 0.16455 0.0
H1119 H 0.14148 0.4765 0.20736 0.0
H1120 H 0.07238 0.49411 0.12342 0.0
H1121 H 0.09237 0.47462 0.17332 0.0
H1122 H 0.12506 0.39962 0.11833 0.0
H1123 H 0.10367 0.41806 0.06925 0.0
C1124 C 0.11943 0.36636 0.21422 0.0
C1125 C 0.13251 0.39137 0.24156 0.0
C1126 C 0.11297 0.38057 0.18457 0.0
C1127 C 0.11982 0.42033 0.18137 0.0
C1128 C 0.1347 0.44556 0.20857 0.0
C1129 C 0.14064 0.43129 0.23803 0.0
C1130 C 0.08541 0.47483 0.12196 0.0
C1131 C 0.08812 0.45923 0.09202 0.0
C1132 C 0.09661 0.46315 0.1507 0.0
C1133 C 0.11054 0.43521 0.1504 0.0
C1134 C 0.11423 0.42071 0.12013 0.0
C1135 C 0.10291 0.43222 0.09164 0.0
H1136 H 0.59623 0.7117 0.25653 0.0
H1137 H 0.71313 0.78965 0.2154 0.0
H1138 H 0.57239 0.67693 0.2051 0.0
H1139 H 0.6904 0.75376 0.16406 0.0
H1140 H 0.63934 0.69657 0.06881 0.0
H1141 H 0.65426 0.73684 0.11724 0.0
H1142 H 0.57373 0.62985 0.17121 0.0
H1143 H 0.55719 0.58993 0.12152 0.0
C1144 C 0.61664 0.722 0.23611 0.0
C1145 C 0.65632 0.75417 0.23991 0.0
C1146 C 0.60317 0.70146 0.20659 0.0
C1147 C 0.62921 0.71172 0.17983 0.0
C1148 C 0.66877 0.74494 0.1835 0.0
C1149 C 0.68203 0.76593 0.21303 0.0
C1150 C 0.62342 0.68183 0.09075 0.0
C1151 C 0.59576 0.64011 0.09082 0.0
C1152 C 0.63281 0.70496 0.11898 0.0
C1153 C 0.6158 0.68716 0.14889 0.0
C1154 C 0.58721 0.64533 0.14886 0.0
C1155 C 0.57736 0.62216 0.12024 0.0
H1156 H 0.46812 0.98323 0.12192 0.0
H1157 H 0.35967 0.94594 0.06748 0.0
H1158 H 0.42847 0.96161 0.1717 0.0
H1159 H 0.31972 0.92299 0.11651 0.0
H1160 H 0.26724 0.93546 0.21437 0.0
H1161 H 0.30276 0.94701 0.16263 0.0
H1162 H 0.38216 0.91079 0.20567 0.0
H1163 H 0.34773 0.90079 0.25694 0.0
C1164 C 0.4356 0.96836 0.12034 0.0
C1165 C 0.41707 0.96432 0.09029 0.0
C1166 C 0.41262 0.95628 0.14903 0.0
C1167 C 0.37036 0.94027 0.14863 0.0
C1168 C 0.35192 0.93526 0.11832 0.0
C1169 C 0.37488 0.94738 0.08983 0.0
C1170 C 0.29172 0.92921 0.21248 0.0
C1171 C 0.30449 0.91718 0.23993 0.0
C1172 C 0.31235 0.93592 0.18276 0.0
C1173 C 0.3461 0.93041 0.1796 0.0
C1174 C 0.35729 0.91651 0.20688 0.0
C1175 C 0.33708 0.91027 0.2364 0.0
H1176 H 0.42951 0.09632 0.92841 0.0
H1177 H 0.48514 0.03725 0.87942 0.0
H1178 H 0.41957 0.12053 0.87785 0.0
H1179 H 0.47486 0.0624 0.8275 0.0
H1180 H 0.47203 0.14639 0.74241 0.0
H1181 H 0.49257 0.12798 0.79311 0.0
H1182 H 0.37408 0.08712 0.83228 0.0
H1183 H 0.35392 0.10488 0.78223 0.0
C1184 C 0.43979 0.08821 0.90692 0.0
C1185 C 0.45781 0.06392 0.9087 0.0
C1186 C 0.43396 0.10241 0.87756 0.0
C1187 C 0.44587 0.09325 0.84825 0.0
C1188 C 0.46536 0.07027 0.8496 0.0
C1189 C 0.47118 0.05568 0.87946 0.0
C1190 C 0.45082 0.13447 0.7622 0.0
C1191 C 0.41141 0.12775 0.7583 0.0
C1192 C 0.46237 0.12324 0.7911 0.0
C1193 C 0.43501 0.10577 0.81699 0.0
C1194 C 0.39627 0.10076 0.81326 0.0
C1195 C 0.38473 0.11135 0.78452 0.0
H1196 H 0.93295 0.37388 0.92587 0.0
H1197 H 0.04704 0.45538 0.88197 0.0
H1198 H 0.90782 0.33911 0.87469 0.0
H1199 H 1.02301 0.41943 0.83067 0.0
H1200 H 0.96834 0.36072 0.73623 0.0
H1201 H 0.9845 0.40107 0.78479 0.0
H1202 H 0.90984 0.29329 0.84004 0.0
H1203 H 0.89211 0.25337 0.79054 0.0
C1204 C 0.95253 0.38478 0.90497 0.0
C1205 C 0.99182 0.41788 0.90797 0.0
C1206 C 0.93831 0.36431 0.87553 0.0
C1207 C 0.96316 0.37559 0.84797 0.0
C1208 C 1.00229 0.40975 0.85082 0.0
C1209 C 1.0163 0.4307 0.88033 0.0
C1210 C 0.95363 0.34582 0.75848 0.0
C1211 C 0.92708 0.30385 0.75893 0.0
C1212 C 0.96389 0.36901 0.78677 0.0
C1213 C 0.94893 0.35103 0.81706 0.0
C1214 C 0.92159 0.30894 0.81744 0.0
C1215 C 0.91094 0.28575 0.78885 0.0
H1216 H 0.69349 0.6101 0.7359 0.0
H1217 H 0.80102 0.64862 0.79187 0.0
H1218 H 0.65247 0.58538 0.78425 0.0
H1219 H 0.76032 0.62548 0.84105 0.0
H1220 H 0.67914 0.56504 0.92596 0.0
H1221 H 0.71436 0.57469 0.87494 0.0
H1222 H 0.63331 0.60739 0.82981 0.0
H1223 H 0.59714 0.59595 0.88109 0.0
C1224 C 0.70832 0.6115 0.75843 0.0
C1225 C 0.75056 0.62923 0.75951 0.0
C1226 C 0.68472 0.59834 0.78657 0.0
C1227 C 0.70253 0.60317 0.81716 0.0
C1228 C 0.74491 0.62016 0.81816 0.0
C1229 C 0.76852 0.63321 0.78982 0.0
C1230 C 0.66811 0.57316 0.90486 0.0
C1231 C 0.63481 0.57901 0.90756 0.0
C1232 C 0.68883 0.57941 0.87554 0.0
C1233 C 0.6775 0.59248 0.84779 0.0
C1234 C 0.64301 0.59683 0.85022 0.0
C1235 C 0.62192 0.59008 0.87967 0.0
H1236 H 0.74954 0.83789 0.45141 0.0
H1237 H 0.75818 0.74109 0.40683 0.0
H1238 H 0.77076 0.82274 0.50307 0.0
H1239 H 0.77854 0.72565 0.45761 0.0
H1240 H 0.83347 0.71579 0.55258 0.0
H1241 H 0.82657 0.7421 0.50059 0.0
H1242 H 0.74075 0.7701 0.54283 0.0
H1243 H 0.74757 0.74446 0.59406 0.0
C1244 C 0.75724 0.81437 0.45229 0.0
C1245 C 0.7528 0.79131 0.42465 0.0
C1246 C 0.76882 0.80512 0.48205 0.0
C1247 C 0.77634 0.77265 0.48489 0.0
C1248 C 0.77378 0.75115 0.45672 0.0
C1249 C 0.76201 0.76014 0.42736 0.0
C1250 C 0.81314 0.72745 0.55089 0.0
C1251 C 0.79107 0.72737 0.57808 0.0
C1252 C 0.80914 0.74272 0.5209 0.0
C1253 C 0.78324 0.75876 0.51721 0.0
C1254 C 0.76163 0.75898 0.54448 0.0
C1255 C 0.76538 0.74361 0.57413 0.0
H1256 H 0.2796 0.93005 0.45356 0.0
H1257 H 0.23569 1.00174 0.4085 0.0
H1258 H 0.299 0.97263 0.50101 0.0
H1259 H 0.25623 0.04575 0.45645 0.0
H1260 H 0.27578 0.09362 0.56697 0.0
H1261 H 0.24945 0.05466 0.51666 0.0
H1262 H 0.35343 0.03948 0.51199 0.0
H1263 H 0.37872 0.07727 0.56202 0.0
C1264 C 0.27332 0.9546 0.45402 0.0
C1265 C 0.25663 0.96263 0.42677 0.0
C1266 C 0.28512 0.97958 0.48121 0.0
C1267 C 0.28073 1.01383 0.48242 0.0
C1268 C 0.26069 0.02005 0.45636 0.0
C1269 C 0.24867 0.99464 0.42885 0.0
C1270 C 0.29355 0.08309 0.55446 0.0
C1271 C 0.32973 0.08914 0.56824 0.0
C1272 C 0.27831 0.06041 0.52574 0.0
C1273 C 0.2987 0.0429 0.51038 0.0
C1274 C 0.33613 0.05137 0.52333 0.0
C1275 C 0.35112 0.07372 0.55184 0.0
H1276 H 1.00855 0.2284 0.591 0.0
H1277 H 0.93318 0.27064 0.55042 0.0
H1278 H 0.04245 0.23789 0.53946 0.0
H1279 H 0.96829 0.28198 0.49858 0.0
H1280 H 1.02372 0.28183 0.4027 0.0
H1281 H 0.98347 0.25899 0.45158 0.0
H1282 H 0.09043 0.28728 0.50606 0.0
H1283 H 0.13024 0.30868 0.4564 0.0
C1284 C 0.99882 0.23928 0.57077 0.0
C1285 C 0.96777 0.24835 0.57487 0.0
C1286 C 1.01879 0.24533 0.54114 0.0
C1287 C 1.00898 0.26136 0.5144 0.0
C1288 C 0.97674 0.26911 0.51819 0.0
C1289 C 0.95631 0.26252 0.54797 0.0
C1290 C 0.03834 0.2813 0.42487 0.0
C1291 C 0.08005 0.29527 0.42513 0.0
C1292 C 1.01529 0.26912 0.45328 0.0
C1293 C 0.03318 0.27117 0.48338 0.0
C1294 C 0.07491 0.28426 0.48354 0.0
C1295 C 0.09799 0.29628 0.45489 0.0
loop_
_geom_bond_atom_site_label_1
_geom_bond_atom_site_label_2
_geom_bond_distance
_geom_bond_site_symmetry_2
_ccdc_geom_bond_type
Tb0 N31 2.660 1_556 S
Tb0 N38 2.600 . S
Tb0 O44 2.546 . S
Tb0 O45 2.610 1_556 S
Tb0 O47 2.320 1_556 S
Tb0 O48 2.552 . S
Tb0 O49 2.413 1_556 S
Tb0 O51 2.362 1_456 S
Tb0 O52 2.421 . S
Tb0 C64 2.833 . S
C1 C4 1.432 . S
C1 C5 1.414 . S
C1 N8 1.340 1_455 S
C2 C4 1.417 1_556 S
C2 C6 1.432 1_556 S
C2 C14 1.410 . S
C3 C5 1.444 . S
C3 C6 1.317 . S
C3 H26 0.929 . S
C4 C1 1.432 . S
C4 C2 1.417 1_554 S
C4 N12 1.360 1_554 S
C5 C1 1.414 . S
C5 C3 1.444 . S
C5 C10 1.385 . S
C6 C2 1.432 1_554 S
C6 C3 1.317 . S
C6 H18 0.930 . S
C7 C9 1.392 . S
C7 C10 1.370 1_655 S
C7 H19 0.931 . S
N8 C1 1.340 1_655 S
N8 C9 1.332 . S
N8 Tb11 2.616 . S
C9 C7 1.392 . S
C9 N8 1.332 . S
C9 H16 0.930 . S
C10 C5 1.385 . S
C10 C7 1.370 1_455 S
C10 H29 0.930 . S
Tb11 N8 2.616 . S
Tb11 N12 2.660 1_654 S
Tb11 O45 2.362 1_655 S
Tb11 O46 2.421 1_655 S
Tb11 O50 2.546 . S
Tb11 O51 2.610 . S
Tb11 O53 2.320 1_554 S
Tb11 O54 2.552 . S
Tb11 O55 2.413 1_554 S
Tb11 C75 2.833 . S
N12 C4 1.360 1_556 S
N12 Tb11 2.660 1_456 S
N12 C13 1.305 . S
C13 N12 1.305 . S
C13 C15 1.407 . S
C13 H20 0.930 . S
C14 C2 1.410 . S
C14 C15 1.345 . S
C14 H22 0.930 . S
C15 C13 1.407 . S
C15 C14 1.345 . S
C15 H17 0.930 . S
H16 C9 0.930 . S
H17 C15 0.930 . S
H18 C6 0.930 . S
H19 C7 0.931 . S
H20 C13 0.930 . S
H21 C35 0.930 . S
H22 C14 0.930 . S
H23 C41 0.930 . S
H24 C32 0.930 1_455 S
H25 C39 0.931 . S
H26 C3 0.929 . S
H27 C33 0.930 . S
H28 C66 0.930 . S
H29 C10 0.930 . S
H30 C65 0.929 . S
N31 Tb0 2.660 1_554 S
N31 C32 1.305 1_455 S
N31 C36 1.360 1_454 S
C32 H24 0.930 1_655 S
C32 N31 1.305 1_655 S
C32 C35 1.407 . S
C33 H27 0.930 . S
C33 C34 1.410 . S
C33 C35 1.345 . S
C34 C33 1.410 . S
C34 C36 1.417 1_554 S
C34 C66 1.432 1_554 S
C35 H21 0.930 . S
C35 C32 1.407 . S
C35 C33 1.345 . S
C36 N31 1.360 1_656 S
C36 C34 1.417 1_556 S
C36 C40 1.438 . S
H37 C42 0.930 . S
N38 Tb0 2.600 . S
N38 C40 1.334 1_455 S
N38 C41 1.327 . S
C39 H25 0.931 . S
C39 C41 1.392 . S
C39 C42 1.370 1_455 S
C40 C36 1.438 . S
C40 N38 1.334 1_655 S
C40 C43 1.434 . S
C41 H23 0.930 . S
C41 N38 1.327 . S
C41 C39 1.392 . S
C42 H37 0.930 . S
C42 C39 1.370 1_655 S
C42 C43 1.385 . S
C43 C40 1.434 . S
C43 C42 1.385 . S
C43 C65 1.444 . S
O44 Tb0 2.546 . S
O44 C64 1.251 . S
O45 Tb0 2.610 1_554 S
O45 Tb11 2.362 1_455 S
O45 C56 1.283 1_554 S
O46 Tb11 2.421 1_455 S
O46 C63 1.262 . S
O47 Tb0 2.320 1_554 S
O47 C63 1.260 . S
O48 Tb0 2.552 . S
O48 C56 1.243 . S
O49 Tb0 2.413 1_554 S
O49 C64 1.256 1_554 S
O50 Tb11 2.546 . S
O50 C75 1.251 . S
O51 Tb0 2.362 1_654 S
O51 Tb11 2.610 . S
O51 C67 1.283 . S
O52 Tb0 2.421 . S
O52 C74 1.262 1_455 S
O53 Tb11 2.320 1_556 S
O53 C74 1.260 . S
O54 Tb11 2.552 . S
O54 C67 1.243 . S
O55 Tb11 2.413 1_556 S
O55 C75 1.256 1_556 S
C56 O45 1.283 1_556 S
C56 O48 1.243 . S
C57 C59 1.382 1_556 S
C57 C61 1.393 . S
C57 C64 1.500 . S
C58 C59 1.400 . S
C58 C60 1.384 1_554 S
C59 C57 1.382 1_554 S
C59 C58 1.400 . S
C59 H76 0.930 . S
C60 C58 1.384 1_556 S
C60 C62 1.392 . S
C60 H77 0.931 . S
C61 C57 1.393 . S
C61 C62 1.401 . S
C61 H78 0.930 . S
C62 C60 1.392 . S
C62 C61 1.401 . S
C62 H79 0.930 . S
C63 O46 1.262 . S
C63 O47 1.260 . S
C64 Tb0 2.833 . S
C64 O44 1.251 . S
C64 O49 1.256 1_556 S
C64 C57 1.500 . S
C65 H30 0.929 . S
C65 C43 1.444 . S
C65 C66 1.317 . S
C66 H28 0.930 . S
C66 C34 1.432 1_556 S
C66 C65 1.317 . S
C67 O51 1.283 . S
C67 O54 1.243 . S
C68 C69 1.382 1_554 S
C68 C72 1.393 . S
C68 C75 1.500 . S
C69 C68 1.382 1_556 S
C69 C70 1.400 . S
C69 H80 0.930 . S
C70 C69 1.400 . S
C70 C71 1.384 1_556 S
C71 C70 1.384 1_554 S
C71 C73 1.392 . S
C71 H81 0.931 . S
C72 C68 1.393 . S
C72 C73 1.401 . S
C72 H82 0.930 . S
C73 C71 1.392 . S
C73 C72 1.401 . S
C73 H83 0.930 . S
C74 O52 1.262 1_655 S
C74 O53 1.260 . S
C75 Tb11 2.833 . S
C75 O50 1.251 . S
C75 O55 1.256 1_554 S
C75 C68 1.500 . S
H76 C59 0.930 . S
H77 C60 0.931 . S
H78 C61 0.930 . S
H79 C62 0.930 . S
H80 C69 0.930 . S
H81 C71 0.931 . S
H82 C72 0.930 . S
H83 C73 0.930 . S
Tb84 N115 2.660 1_556 S
Tb84 N122 2.600 . S
Tb84 O128 2.546 . S
Tb84 O129 2.610 1_556 S
Tb84 O131 2.320 1_556 S
Tb84 O132 2.552 . S
Tb84 O133 2.413 1_556 S
Tb84 O135 2.362 1_556 S
Tb84 O136 2.421 . S
Tb84 C148 2.833 . S
C85 C88 1.432 . S
C85 C89 1.414 . S
C85 N92 1.359 . S
C86 C88 1.417 1_556 S
C86 C90 1.432 1_556 S
C86 C98 1.410 . S
C87 C89 1.444 . S
C87 C90 1.317 . S
C87 H110 0.929 . S
C88 C85 1.432 . S
C88 C86 1.417 1_554 S
C88 N96 1.360 1_554 S
C89 C85 1.414 . S
C89 C87 1.444 . S
C89 C94 1.385 . S
C90 C86 1.432 1_554 S
C90 C87 1.317 . S
C90 H102 0.930 . S
C91 C93 1.392 . S
C91 C94 1.370 . S
C91 H103 0.931 . S
N92 C85 1.359 . S
N92 C93 1.327 . S
N92 Tb95 2.600 . S
C93 C91 1.392 . S
C93 N92 1.327 . S
C93 H100 0.930 . S
C94 C89 1.385 . S
C94 C91 1.370 . S
C94 H113 0.930 . S
Tb95 N92 2.600 . S
Tb95 N96 2.660 1_554 S
Tb95 O129 2.362 . S
Tb95 O130 2.421 . S
Tb95 O134 2.546 . S
Tb95 O135 2.610 . S
Tb95 O137 2.320 1_554 S
Tb95 O138 2.552 . S
Tb95 O139 2.413 1_554 S
Tb95 C159 2.833 . S
N96 C88 1.360 1_556 S
N96 Tb95 2.660 1_556 S
N96 C97 1.305 . S
C97 N96 1.305 . S
C97 C99 1.407 . S
C97 H104 0.930 . S
C98 C86 1.410 . S
C98 C99 1.345 . S
C98 H106 0.930 . S
C99 C97 1.407 . S
C99 C98 1.345 . S
C99 H101 0.930 . S
H100 C93 0.930 . S
H101 C99 0.930 . S
H102 C90 0.930 . S
H103 C91 0.931 . S
H104 C97 0.930 . S
H105 C119 0.930 . S
H106 C98 0.930 . S
H107 C125 0.930 . S
H108 C116 0.930 . S
H109 C123 0.931 . S
H110 C87 0.929 . S
H111 C117 0.930 . S
H112 C150 0.930 . S
H113 C94 0.930 . S
H114 C149 0.929 . S
N115 Tb84 2.660 1_554 S
N115 C116 1.305 . S
N115 C120 1.360 1_554 S
C116 H108 0.930 . S
C116 N115 1.305 . S
C116 C119 1.407 . S
C117 H111 0.930 . S
C117 C118 1.410 . S
C117 C119 1.345 . S
C118 C117 1.410 . S
C118 C120 1.417 1_554 S
C118 C150 1.432 1_554 S
C119 H105 0.930 . S
C119 C116 1.407 . S
C119 C117 1.345 . S
C120 N115 1.360 1_556 S
C120 C118 1.417 1_556 S
C120 C124 1.432 . S
H121 C126 0.930 . S
N122 Tb84 2.600 . S
N122 C124 1.359 . S
N122 C125 1.327 . S
C123 H109 0.931 . S
C123 C125 1.392 . S
C123 C126 1.370 . S
C124 C120 1.432 . S
C124 N122 1.359 . S
C124 C127 1.414 . S
C125 H107 0.930 . S
C125 N122 1.327 . S
C125 C123 1.392 . S
C126 H121 0.930 . S
C126 C123 1.370 . S
C126 C127 1.385 . S
C127 C124 1.414 . S
C127 C126 1.385 . S
C127 C149 1.444 . S
O128 Tb84 2.546 . S
O128 C148 1.251 . S
O129 Tb84 2.610 1_554 S
O129 Tb95 2.362 . S
O129 C140 1.283 1_554 S
O130 Tb95 2.421 . S
O130 C147 1.262 . S
O131 Tb84 2.320 1_554 S
O131 C147 1.260 . S
O132 Tb84 2.552 . S
O132 C140 1.243 . S
O133 Tb84 2.413 1_554 S
O133 C148 1.256 1_554 S
O134 Tb95 2.546 . S
O134 C159 1.251 . S
O135 Tb84 2.362 1_554 S
O135 Tb95 2.610 . S
O135 C151 1.283 . S
O136 Tb84 2.421 . S
O136 C158 1.262 . S
O137 Tb95 2.320 1_556 S
O137 C158 1.260 . S
O138 Tb95 2.552 . S
O138 C151 1.243 . S
O139 Tb95 2.413 1_556 S
O139 C159 1.256 1_556 S
C140 O129 1.283 1_556 S
C140 O132 1.243 . S
C141 C143 1.382 1_556 S
C141 C145 1.393 . S
C141 C148 1.500 . S
C142 C143 1.400 . S
C142 C144 1.384 1_554 S
C143 C141 1.382 1_554 S
C143 C142 1.400 . S
C143 H160 0.930 . S
C144 C142 1.384 1_556 S
C144 C146 1.392 . S
C144 H161 0.931 . S
C145 C141 1.393 . S
C145 C146 1.401 . S
C145 H162 0.930 . S
C146 C144 1.392 . S
C146 C145 1.401 . S
C146 H163 0.930 . S
C147 O130 1.262 . S
C147 O131 1.260 . S
C148 Tb84 2.833 . S
C148 O128 1.251 . S
C148 O133 1.256 1_556 S
C148 C141 1.500 . S
C149 H114 0.929 . S
C149 C127 1.444 . S
C149 C150 1.317 . S
C150 H112 0.930 . S
C150 C118 1.432 1_556 S
C150 C149 1.317 . S
C151 O135 1.283 . S
C151 O138 1.243 . S
C152 C153 1.382 1_554 S
C152 C156 1.393 . S
C152 C159 1.500 . S
C153 C152 1.382 1_556 S
C153 C154 1.400 . S
C153 H164 0.930 . S
C154 C153 1.400 . S
C154 C155 1.384 1_556 S
C155 C154 1.384 1_554 S
C155 C157 1.392 . S
C155 H165 0.931 . S
C156 C152 1.393 . S
C156 C157 1.401 . S
C156 H166 0.930 . S
C157 C155 1.392 . S
C157 C156 1.401 . S
C157 H167 0.930 . S
C158 O136 1.262 . S
C158 O137 1.260 . S
C159 Tb95 2.833 . S
C159 O134 1.251 . S
C159 O139 1.256 1_554 S
C159 C152 1.500 . S
H160 C143 0.930 . S
H161 C144 0.931 . S
H162 C145 0.930 . S
H163 C146 0.930 . S
H164 C153 0.930 . S
H165 C155 0.931 . S
H166 C156 0.930 . S
H167 C157 0.930 . S
Tb168 N199 2.660 1_566 S
Tb168 N206 2.600 . S
Tb168 O212 2.546 . S
Tb168 O213 2.610 1_556 S
Tb168 O215 2.320 1_556 S
Tb168 O216 2.552 . S
Tb168 O217 2.413 1_556 S
Tb168 O219 2.362 1_566 S
Tb168 O220 2.407 1_565 S
Tb168 C232 2.833 . S
C169 C172 1.432 . S
C169 C173 1.414 . S
C169 N176 1.359 1_565 S
C170 C172 1.417 1_556 S
C170 C174 1.432 1_556 S
C170 C182 1.410 . S
C171 C173 1.444 . S
C171 C174 1.317 . S
C171 H194 0.929 . S
C172 C169 1.432 . S
C172 C170 1.417 1_554 S
C172 N180 1.360 1_564 S
C173 C169 1.414 . S
C173 C171 1.444 . S
C173 C178 1.385 . S
C174 C170 1.432 1_554 S
C174 C171 1.317 . S
C174 H186 0.930 . S
C175 C177 1.392 . S
C175 C178 1.370 1_545 S
C175 H187 0.931 . S
N176 C169 1.359 1_545 S
N176 C177 1.327 . S
N176 Tb179 2.600 . S
C177 C175 1.392 . S
C177 N176 1.327 . S
C177 H184 0.930 . S
C178 C173 1.385 . S
C178 C175 1.370 1_565 S
C178 H197 0.930 . S
Tb179 N176 2.600 . S
Tb179 N180 2.660 1_554 S
Tb179 O213 2.362 1_545 S
Tb179 O214 2.421 . S
Tb179 O218 2.546 . S
Tb179 O219 2.610 . S
Tb179 O221 2.320 1_554 S
Tb179 O222 2.552 . S
Tb179 O223 2.413 1_554 S
Tb179 C243 2.833 . S
N180 C172 1.360 1_546 S
N180 Tb179 2.660 1_556 S
N180 C181 1.305 1_545 S
C181 N180 1.305 1_565 S
C181 C183 1.407 . S
C181 H188 0.936 1_565 S
C182 C170 1.410 . S
C182 C183 1.345 . S
C182 H190 0.930 . S
C183 C181 1.407 . S
C183 C182 1.345 . S
C183 H185 0.930 . S
H184 C177 0.930 . S
H185 C183 0.930 . S
H186 C174 0.930 . S
H187 C175 0.931 . S
H188 C181 0.936 1_545 S
H189 C203 0.930 . S
H190 C182 0.930 . S
H191 C209 0.930 . S
H192 C200 0.930 . S
H193 C207 0.931 . S
H194 C171 0.929 . S
H195 C201 0.930 . S
H196 C234 0.930 . S
H197 C178 0.930 . S
H198 C233 0.929 . S
N199 Tb168 2.660 1_544 S
N199 C200 1.305 . S
N199 C204 1.360 1_554 S
C200 H192 0.930 . S
C200 N199 1.305 . S
C200 C203 1.407 . S
C201 H195 0.930 . S
C201 C202 1.410 . S
C201 C203 1.345 . S
C202 C201 1.410 . S
C202 C204 1.417 1_554 S
C202 C234 1.432 1_554 S
C203 H189 0.930 . S
C203 C200 1.407 . S
C203 C201 1.345 . S
C204 N199 1.360 1_556 S
C204 C202 1.417 1_556 S
C204 C208 1.432 . S
H205 C210 0.930 . S
N206 Tb168 2.600 . S
N206 C208 1.359 1_565 S
N206 C209 1.327 . S
C207 H193 0.931 . S
C207 C209 1.392 . S
C207 C210 1.370 1_565 S
C208 C204 1.432 . S
C208 N206 1.359 1_545 S
C208 C211 1.414 . S
C209 H191 0.930 . S
C209 N206 1.327 . S
C209 C207 1.392 . S
C210 H205 0.930 . S
C210 C207 1.370 1_545 S
C210 C211 1.385 . S
C211 C208 1.414 . S
C211 C210 1.385 . S
C211 C233 1.444 . S
O212 Tb168 2.546 . S
O212 C232 1.251 . S
O213 Tb168 2.610 1_554 S
O213 Tb179 2.362 1_565 S
O213 C224 1.283 1_554 S
O214 Tb179 2.421 . S
O214 C231 1.262 1_545 S
O215 Tb168 2.320 1_554 S
O215 C231 1.260 . S
O216 Tb168 2.552 . S
O216 C224 1.243 . S
O217 Tb168 2.413 1_554 S
O217 C232 1.256 1_554 S
O218 Tb179 2.546 . S
O218 C243 1.251 . S
O219 Tb168 2.362 1_544 S
O219 Tb179 2.610 . S
O219 C235 1.283 . S
O220 Tb168 2.407 1_545 S
O220 C242 1.287 . S
O221 Tb179 2.320 1_556 S
O221 C242 1.260 . S
O222 Tb179 2.552 . S
O222 C235 1.243 . S
O223 Tb179 2.413 1_556 S
O223 C243 1.256 1_556 S
C224 O213 1.283 1_556 S
C224 O216 1.243 . S
C225 C227 1.382 1_556 S
C225 C229 1.393 . S
C225 C232 1.500 . S
C226 C227 1.400 . S
C226 C228 1.384 1_554 S
C227 C225 1.382 1_554 S
C227 C226 1.400 . S
C227 H244 0.930 . S
C228 C226 1.384 1_556 S
C228 C230 1.392 . S
C228 H245 0.931 . S
C229 C225 1.393 . S
C229 C230 1.401 . S
C229 H246 0.930 . S
C230 C228 1.392 . S
C230 C229 1.401 . S
C230 H247 0.930 . S
C231 O214 1.262 1_565 S
C231 O215 1.260 . S
C232 Tb168 2.833 . S
C232 O212 1.251 . S
C232 O217 1.256 1_556 S
C232 C225 1.500 . S
C233 H198 0.929 . S
C233 C211 1.444 . S
C233 C234 1.317 . S
C234 H196 0.930 . S
C234 C202 1.432 1_556 S
C234 C233 1.317 . S
C235 O219 1.283 . S
C235 O222 1.243 . S
C236 C237 1.382 1_554 S
C236 C240 1.393 . S
C236 C243 1.500 . S
C237 C236 1.382 1_556 S
C237 C238 1.400 . S
C237 H248 0.930 . S
C238 C237 1.400 . S
C238 C239 1.384 1_556 S
C239 C238 1.384 1_554 S
C239 C241 1.392 . S
C239 H249 0.931 . S
C240 C236 1.393 . S
C240 C241 1.401 . S
C240 H250 0.930 . S
C241 C239 1.392 . S
C241 C240 1.401 . S
C241 H251 0.930 . S
C242 O220 1.287 . S
C242 O221 1.260 . S
C243 Tb179 2.833 . S
C243 O218 1.251 . S
C243 O223 1.256 1_554 S
C243 C236 1.500 . S
H244 C227 0.930 . S
H245 C228 0.931 . S
H246 C229 0.930 . S
H247 C230 0.930 . S
H248 C237 0.930 . S
H249 C239 0.931 . S
H250 C240 0.930 . S
H251 C241 0.930 . S
Tb252 N283 2.660 . S
Tb252 N290 2.600 . S
Tb252 O296 2.546 . S
Tb252 O297 2.610 . S
Tb252 O299 2.320 . S
Tb252 O300 2.552 . S
Tb252 O301 2.413 . S
Tb252 O303 2.362 . S
Tb252 O304 2.421 . S
Tb252 C316 2.833 . S
C253 C256 1.432 . S
C253 C257 1.414 . S
C253 N260 1.359 . S
C254 C256 1.417 . S
C254 C258 1.432 . S
C254 C266 1.410 . S
C255 C257 1.444 . S
C255 C258 1.317 . S
C255 H278 0.929 . S
C256 C253 1.432 . S
C256 C254 1.417 . S
C256 N264 1.360 . S
C257 C253 1.414 . S
C257 C255 1.444 . S
C257 C262 1.385 . S
C258 C254 1.432 . S
C258 C255 1.317 . S
C258 H270 0.930 . S
C259 C261 1.392 . S
C259 C262 1.370 . S
C259 H271 0.931 . S
N260 C253 1.359 . S
N260 C261 1.327 . S
N260 Tb263 2.600 . S
C261 C259 1.392 . S
C261 N260 1.327 . S
C261 H268 0.930 . S
C262 C257 1.385 . S
C262 C259 1.370 . S
C262 H281 0.930 . S
Tb263 N260 2.600 . S
Tb263 N264 2.660 . S
Tb263 O297 2.362 . S
Tb263 O298 2.421 . S
Tb263 O302 2.546 . S
Tb263 O303 2.610 . S
Tb263 O305 2.320 . S
Tb263 O306 2.552 . S
Tb263 O307 2.413 . S
Tb263 C327 2.833 . S
N264 C256 1.360 . S
N264 Tb263 2.660 . S
N264 C265 1.305 . S
C265 N264 1.305 . S
C265 C267 1.407 . S
C265 H272 0.930 . S
C266 C254 1.410 . S
C266 C267 1.345 . S
C266 H274 0.930 . S
C267 C265 1.407 . S
C267 C266 1.345 . S
C267 H269 0.930 . S
H268 C261 0.930 . S
H269 C267 0.930 . S
H270 C258 0.930 . S
H271 C259 0.931 . S
H272 C265 0.930 . S
H273 C287 0.930 . S
H274 C266 0.930 . S
H275 C293 0.930 . S
H276 C284 0.930 . S
H277 C291 0.931 . S
H278 C255 0.929 . S
H279 C285 0.930 . S
H280 C318 0.930 . S
H281 C262 0.930 . S
H282 C317 0.929 . S
N283 Tb252 2.660 . S
N283 C284 1.305 . S
N283 C288 1.360 . S
C284 H276 0.930 . S
C284 N283 1.305 . S
C284 C287 1.407 . S
C285 H279 0.930 . S
C285 C286 1.410 . S
C285 C287 1.345 . S
C286 C285 1.410 . S
C286 C288 1.417 . S
C286 C318 1.432 . S
C287 H273 0.930 . S
C287 C284 1.407 . S
C287 C285 1.345 . S
C288 N283 1.360 . S
C288 C286 1.417 . S
C288 C292 1.432 . S
H289 C294 0.930 . S
N290 Tb252 2.600 . S
N290 C292 1.359 . S
N290 C293 1.327 . S
C291 H277 0.931 . S
C291 C293 1.392 . S
C291 C294 1.370 . S
C292 C288 1.432 . S
C292 N290 1.359 . S
C292 C295 1.414 . S
C293 H275 0.930 . S
C293 N290 1.327 . S
C293 C291 1.392 . S
C294 H289 0.930 . S
C294 C291 1.370 . S
C294 C295 1.385 . S
C295 C292 1.414 . S
C295 C294 1.385 . S
C295 C317 1.444 . S
O296 Tb252 2.546 . S
O296 C316 1.251 . S
O297 Tb252 2.610 . S
O297 Tb263 2.362 . S
O297 C308 1.283 . S
O298 Tb263 2.421 . S
O298 C315 1.262 . S
O299 Tb252 2.320 . S
O299 C315 1.260 . S
O300 Tb252 2.552 . S
O300 C308 1.243 . S
O301 Tb252 2.413 . S
O301 C316 1.256 . S
O302 Tb263 2.546 . S
O302 C327 1.251 . S
O303 Tb252 2.362 . S
O303 Tb263 2.610 . S
O303 C319 1.283 . S
O304 Tb252 2.421 . S
O304 C326 1.262 . S
O305 Tb263 2.320 . S
O305 C326 1.260 . S
O306 Tb263 2.552 . S
O306 C319 1.243 . S
O307 Tb263 2.413 . S
O307 C327 1.256 . S
C308 O297 1.283 . S
C308 O300 1.243 . S
C309 C311 1.382 . S
C309 C313 1.393 . S
C309 C316 1.500 . S
C310 C311 1.400 1_545 S
C310 C312 1.384 . S
C311 C309 1.382 . S
C311 C310 1.400 1_565 S
C311 H328 0.930 . S
C312 C310 1.384 . S
C312 C314 1.392 . S
C312 H329 0.931 . S
C313 C309 1.393 . S
C313 C314 1.401 1_565 S
C313 H330 0.930 . S
C314 C312 1.392 . S
C314 C313 1.401 1_545 S
C314 H331 0.930 . S
C315 O298 1.262 . S
C315 O299 1.260 . S
C316 Tb252 2.833 . S
C316 O296 1.251 . S
C316 O301 1.256 . S
C316 C309 1.500 . S
C317 H282 0.929 . S
C317 C295 1.444 . S
C317 C318 1.317 . S
C318 H280 0.930 . S
C318 C286 1.432 . S
C318 C317 1.317 . S
C319 O303 1.283 . S
C319 O306 1.243 . S
C320 C321 1.382 . S
C320 C324 1.393 . S
C320 C327 1.500 . S
C321 C320 1.382 . S
C321 C322 1.400 . S
C321 H332 0.930 . S
C322 C321 1.400 . S
C322 C323 1.384 . S
C323 C322 1.384 . S
C323 C325 1.392 . S
C323 H333 0.931 . S
C324 C320 1.393 . S
C324 C325 1.401 . S
C324 H334 0.930 . S
C325 C323 1.392 . S
C325 C324 1.401 . S
C325 H335 0.930 . S
C326 O304 1.262 . S
C326 O305 1.260 . S
C327 Tb263 2.833 . S
C327 O302 1.251 . S
C327 O307 1.256 . S
C327 C320 1.500 . S
H328 C311 0.930 . S
H329 C312 0.931 . S
H330 C313 0.930 . S
H331 C314 0.930 . S
H332 C321 0.930 . S
H333 C323 0.931 . S
H334 C324 0.930 . S
H335 C325 0.930 . S
Tb336 N367 2.660 . S
Tb336 N374 2.600 . S
Tb336 O380 2.546 . S
Tb336 O381 2.610 . S
Tb336 O383 2.320 . S
Tb336 O384 2.552 . S
Tb336 O385 2.413 . S
Tb336 O387 2.362 . S
Tb336 O388 2.421 . S
Tb336 C400 2.833 . S
C337 C340 1.432 . S
C337 C341 1.414 1_565 S
C337 N344 1.359 . S
C338 C340 1.417 1_545 S
C338 C342 1.432 . S
C338 C350 1.410 . S
C339 C341 1.444 . S
C339 C342 1.317 . S
C339 H362 0.929 . S
C340 C337 1.432 . S
C340 C338 1.417 1_565 S
C340 N348 1.360 . S
C341 C337 1.414 1_545 S
C341 C339 1.444 . S
C341 C346 1.385 . S
C342 C338 1.432 . S
C342 C339 1.317 . S
C342 H354 0.930 . S
C343 C345 1.392 . S
C343 C346 1.370 1_565 S
C343 H355 0.931 . S
N344 C337 1.359 . S
N344 C345 1.327 . S
N344 Tb347 2.600 . S
C345 C343 1.392 . S
C345 N344 1.327 . S
C345 H352 0.930 . S
C346 C341 1.385 . S
C346 C343 1.370 1_545 S
C346 H365 0.930 . S
Tb347 N344 2.600 . S
Tb347 N348 2.660 . S
Tb347 O381 2.362 . S
Tb347 O382 2.421 . S
Tb347 O386 2.546 . S
Tb347 O387 2.610 . S
Tb347 O389 2.320 . S
Tb347 O390 2.552 . S
Tb347 O391 2.413 . S
Tb347 C411 2.833 . S
N348 C340 1.360 . S
N348 Tb347 2.660 . S
N348 C349 1.305 . S
C349 N348 1.305 . S
C349 C351 1.407 1_565 S
C349 H356 0.930 . S
C350 C338 1.410 . S
C350 C351 1.345 . S
C350 H358 0.930 . S
C351 C349 1.407 1_545 S
C351 C350 1.345 . S
C351 H353 0.930 . S
H352 C345 0.930 . S
H353 C351 0.930 . S
H354 C342 0.930 . S
H355 C343 0.931 . S
H356 C349 0.930 . S
H357 C371 0.930 . S
H358 C350 0.930 . S
H359 C377 0.930 . S
H360 C368 0.930 . S
H361 C375 0.931 . S
H362 C339 0.929 . S
H363 C369 0.930 . S
H364 C402 0.930 . S
H365 C346 0.930 . S
H366 C401 0.929 . S
N367 Tb336 2.660 . S
N367 C368 1.305 . S
N367 C372 1.360 . S
C368 H360 0.930 . S
C368 N367 1.305 . S
C368 C371 1.407 . S
C369 H363 0.930 . S
C369 C370 1.410 . S
C369 C371 1.345 . S
C370 C369 1.410 . S
C370 C372 1.417 . S
C370 C402 1.432 . S
C371 H357 0.930 . S
C371 C368 1.407 . S
C371 C369 1.345 . S
C372 N367 1.360 . S
C372 C370 1.417 . S
C372 C376 1.432 . S
H373 C378 0.930 . S
N374 Tb336 2.600 . S
N374 C376 1.359 . S
N374 C377 1.327 . S
C375 H361 0.931 . S
C375 C377 1.392 . S
C375 C378 1.370 . S
C376 C372 1.432 . S
C376 N374 1.359 . S
C376 C379 1.414 . S
C377 H359 0.930 . S
C377 N374 1.327 . S
C377 C375 1.392 . S
C378 H373 0.930 . S
C378 C375 1.370 . S
C378 C379 1.385 . S
C379 C376 1.414 . S
C379 C378 1.385 . S
C379 C401 1.444 . S
O380 Tb336 2.546 . S
O380 C400 1.251 . S
O381 Tb336 2.610 . S
O381 Tb347 2.362 . S
O381 C392 1.283 . S
O382 Tb347 2.421 . S
O382 C399 1.262 . S
O383 Tb336 2.320 . S
O383 C399 1.260 . S
O384 Tb336 2.552 . S
O384 C392 1.243 . S
O385 Tb336 2.413 . S
O385 C400 1.256 . S
O386 Tb347 2.546 . S
O386 C411 1.251 . S
O387 Tb336 2.362 . S
O387 Tb347 2.610 . S
O387 C403 1.283 . S
O388 Tb336 2.421 . S
O388 C410 1.262 . S
O389 Tb347 2.320 . S
O389 C410 1.260 . S
O390 Tb347 2.552 . S
O390 C403 1.243 . S
O391 Tb347 2.413 . S
O391 C411 1.256 . S
C392 O381 1.283 . S
C392 O384 1.243 . S
C393 C395 1.382 . S
C393 C397 1.393 . S
C393 C400 1.500 . S
C394 C395 1.400 1_655 S
C394 C396 1.384 . S
C395 C393 1.382 . S
C395 C394 1.400 1_455 S
C395 H412 0.930 . S
C396 C394 1.384 . S
C396 C398 1.392 . S
C396 H413 0.931 . S
C397 C393 1.393 . S
C397 C398 1.401 1_455 S
C397 H414 0.930 . S
C398 C396 1.392 . S
C398 C397 1.401 1_655 S
C398 H415 0.930 . S
C399 O382 1.262 . S
C399 O383 1.260 . S
C400 Tb336 2.833 . S
C400 O380 1.251 . S
C400 O385 1.256 . S
C400 C393 1.500 . S
C401 H366 0.929 . S
C401 C379 1.444 . S
C401 C402 1.317 . S
C402 H364 0.930 . S
C402 C370 1.432 . S
C402 C401 1.317 . S
C403 O387 1.283 . S
C403 O390 1.243 . S
C404 C405 1.382 . S
C404 C408 1.393 . S
C404 C411 1.500 . S
C405 C404 1.382 . S
C405 C406 1.400 . S
C405 H416 0.930 . S
C406 C405 1.400 . S
C406 C407 1.384 . S
C407 C406 1.384 . S
C407 C409 1.392 . S
C407 H417 0.931 . S
C408 C404 1.393 . S
C408 C409 1.401 . S
C408 H418 0.930 . S
C409 C407 1.392 . S
C409 C408 1.401 . S
C409 H419 0.930 . S
C410 O388 1.262 . S
C410 O389 1.260 . S
C411 Tb347 2.833 . S
C411 O386 1.251 . S
C411 O391 1.256 . S
C411 C404 1.500 . S
H412 C395 0.930 . S
H413 C396 0.931 . S
H414 C397 0.930 . S
H415 C398 0.930 . S
H416 C405 0.930 . S
H417 C407 0.931 . S
H418 C408 0.930 . S
H419 C409 0.930 . S
Tb420 N451 2.660 . S
Tb420 N458 2.600 . S
Tb420 O464 2.546 . S
Tb420 O465 2.610 . S
Tb420 O467 2.320 . S
Tb420 O468 2.552 . S
Tb420 O469 2.413 . S
Tb420 O471 2.362 . S
Tb420 O472 2.421 . S
Tb420 C484 2.833 . S
C421 C424 1.432 . S
C421 C425 1.414 1_455 S
C421 N428 1.359 . S
C422 C424 1.417 1_655 S
C422 C426 1.432 . S
C422 C434 1.410 . S
C423 C425 1.444 . S
C423 C426 1.317 . S
C423 H446 0.929 . S
C424 C421 1.432 . S
C424 C422 1.417 1_455 S
C424 N432 1.360 . S
C425 C421 1.414 1_655 S
C425 C423 1.444 . S
C425 C430 1.385 . S
C426 C422 1.432 . S
C426 C423 1.317 . S
C426 H438 0.930 . S
C427 C429 1.392 . S
C427 C430 1.370 1_455 S
C427 H439 0.931 . S
N428 C421 1.359 . S
N428 C429 1.327 . S
N428 Tb431 2.600 . S
C429 C427 1.392 . S
C429 N428 1.327 . S
C429 H436 0.930 . S
C430 C425 1.385 . S
C430 C427 1.370 1_655 S
C430 H449 0.930 . S
Tb431 N428 2.600 . S
Tb431 N432 2.660 . S
Tb431 O465 2.362 . S
Tb431 O466 2.421 . S
Tb431 O470 2.546 . S
Tb431 O471 2.610 . S
Tb431 O473 2.320 . S
Tb431 O474 2.552 . S
Tb431 O475 2.413 . S
Tb431 C495 2.833 . S
N432 C424 1.360 . S
N432 Tb431 2.660 . S
N432 C433 1.305 . S
C433 N432 1.305 . S
C433 C435 1.407 . S
C433 H440 0.930 . S
C434 C422 1.410 . S
C434 C435 1.345 1_655 S
C434 H442 0.930 . S
C435 C433 1.407 . S
C435 C434 1.345 1_455 S
C435 H437 0.930 . S
H436 C429 0.930 . S
H437 C435 0.930 . S
H438 C426 0.930 . S
H439 C427 0.931 . S
H440 C433 0.930 . S
H441 C455 0.930 . S
H442 C434 0.930 . S
H443 C461 0.930 . S
H444 C452 0.930 . S
H445 C459 0.931 . S
H446 C423 0.929 . S
H447 C453 0.930 . S
H448 C486 0.930 . S
H449 C430 0.930 . S
H450 C485 0.929 . S
N451 Tb420 2.660 . S
N451 C452 1.305 . S
N451 C456 1.360 . S
C452 H444 0.930 . S
C452 N451 1.305 . S
C452 C455 1.407 . S
C453 H447 0.930 . S
C453 C454 1.410 . S
C453 C455 1.345 . S
C454 C453 1.410 . S
C454 C456 1.417 . S
C454 C486 1.432 . S
C455 H441 0.930 . S
C455 C452 1.407 . S
C455 C453 1.345 . S
C456 N451 1.360 . S
C456 C454 1.417 . S
C456 C460 1.432 . S
H457 C462 0.930 . S
N458 Tb420 2.600 . S
N458 C460 1.359 . S
N458 C461 1.327 . S
C459 H445 0.931 . S
C459 C461 1.392 . S
C459 C462 1.370 . S
C460 C456 1.432 . S
C460 N458 1.359 . S
C460 C463 1.414 . S
C461 H443 0.930 . S
C461 N458 1.327 . S
C461 C459 1.392 . S
C462 H457 0.930 . S
C462 C459 1.370 . S
C462 C463 1.385 . S
C463 C460 1.414 . S
C463 C462 1.385 . S
C463 C485 1.444 . S
O464 Tb420 2.546 . S
O464 C484 1.251 . S
O465 Tb420 2.610 . S
O465 Tb431 2.362 . S
O465 C476 1.283 . S
O466 Tb431 2.421 . S
O466 C483 1.262 . S
O467 Tb420 2.320 . S
O467 C483 1.260 . S
O468 Tb420 2.552 . S
O468 C476 1.243 . S
O469 Tb420 2.413 . S
O469 C484 1.256 . S
O470 Tb431 2.546 . S
O470 C495 1.251 . S
O471 Tb420 2.362 . S
O471 Tb431 2.610 . S
O471 C487 1.283 . S
O472 Tb420 2.421 . S
O472 C494 1.262 . S
O473 Tb431 2.320 . S
O473 C494 1.260 . S
O474 Tb431 2.552 . S
O474 C487 1.243 . S
O475 Tb431 2.413 . S
O475 C495 1.256 . S
C476 O465 1.283 . S
C476 O468 1.243 . S
C477 C479 1.382 . S
C477 C481 1.393 . S
C477 C484 1.500 . S
C478 C479 1.400 . S
C478 C480 1.384 . S
C479 C477 1.382 . S
C479 C478 1.400 . S
C479 H496 0.930 . S
C480 C478 1.384 . S
C480 C482 1.392 . S
C480 H497 0.931 . S
C481 C477 1.393 . S
C481 C482 1.401 . S
C481 H498 0.930 . S
C482 C480 1.392 . S
C482 C481 1.401 . S
C482 H499 0.930 . S
C483 O466 1.262 . S
C483 O467 1.260 . S
C484 Tb420 2.833 . S
C484 O464 1.251 . S
C484 O469 1.256 . S
C484 C477 1.500 . S
C485 H450 0.929 . S
C485 C463 1.444 . S
C485 C486 1.317 . S
C486 H448 0.930 . S
C486 C454 1.432 . S
C486 C485 1.317 . S
C487 O471 1.283 . S
C487 O474 1.243 . S
C488 C489 1.382 . S
C488 C492 1.393 . S
C488 C495 1.500 . S
C489 C488 1.382 . S
C489 C490 1.400 . S
C489 H500 0.930 . S
C490 C489 1.400 . S
C490 C491 1.384 . S
C491 C490 1.384 . S
C491 C493 1.392 . S
C491 H501 0.931 . S
C492 C488 1.393 . S
C492 C493 1.401 . S
C492 H502 0.930 . S
C493 C491 1.392 . S
C493 C492 1.401 . S
C493 H503 0.930 . S
C494 O472 1.262 . S
C494 O473 1.260 . S
C495 Tb431 2.833 . S
C495 O470 1.251 . S
C495 O475 1.256 . S
C495 C488 1.500 . S
H496 C479 0.930 . S
H497 C480 0.931 . S
H498 C481 0.930 . S
H499 C482 0.930 . S
H500 C489 0.930 . S
H501 C491 0.931 . S
H502 C492 0.930 . S
H503 C493 0.930 . S
Tb504 N535 2.660 . S
Tb504 N542 2.600 . S
Tb504 O548 2.546 . S
Tb504 O549 2.610 . S
Tb504 O551 2.320 . S
Tb504 O552 2.552 . S
Tb504 O553 2.413 . S
Tb504 O555 2.362 . S
Tb504 O556 2.421 . S
Tb504 C568 2.833 . S
C505 C508 1.432 . S
C505 C509 1.414 . S
C505 N512 1.359 . S
C506 C508 1.417 . S
C506 C510 1.432 1_545 S
C506 C518 1.410 . S
C507 C509 1.444 1_565 S
C507 C510 1.317 . S
C507 H530 0.929 . S
C508 C505 1.432 . S
C508 C506 1.417 . S
C508 N516 1.360 . S
C509 C505 1.414 . S
C509 C507 1.444 1_545 S
C509 C514 1.387 1_545 S
C510 C506 1.432 1_565 S
C510 C507 1.317 . S
C510 H522 0.930 . S
C511 C513 1.392 . S
C511 C514 1.346 1_545 S
C511 H523 0.931 . S
N512 C505 1.359 . S
N512 C513 1.327 . S
N512 Tb515 2.600 . S
C513 C511 1.392 . S
C513 N512 1.327 . S
C513 H520 0.930 . S
C514 C509 1.387 1_565 S
C514 C511 1.346 1_565 S
C514 H533 0.952 . S
Tb515 N512 2.600 . S
Tb515 N516 2.660 . S
Tb515 O549 2.362 . S
Tb515 O550 2.421 . S
Tb515 O554 2.546 . S
Tb515 O555 2.610 . S
Tb515 O557 2.320 . S
Tb515 O558 2.552 . S
Tb515 O559 2.413 . S
Tb515 C579 2.833 . S
N516 C508 1.360 . S
N516 Tb515 2.660 . S
N516 C517 1.305 . S
C517 N516 1.305 . S
C517 C519 1.407 . S
C517 H524 0.930 . S
C518 C506 1.410 . S
C518 C519 1.345 . S
C518 H526 0.930 1_545 S
C519 C517 1.407 . S
C519 C518 1.345 . S
C519 H521 0.930 . S
H520 C513 0.930 . S
H521 C519 0.930 . S
H522 C510 0.930 . S
H523 C511 0.931 . S
H524 C517 0.930 . S
H525 C539 0.930 . S
H526 C518 0.930 1_565 S
H527 C545 0.930 . S
H528 C536 0.930 . S
H529 C543 0.931 . S
H530 C507 0.929 . S
H531 C537 0.930 . S
H532 C570 0.930 . S
H533 C514 0.952 . S
H534 C569 0.929 . S
N535 Tb504 2.660 . S
N535 C536 1.305 . S
N535 C540 1.360 . S
C536 H528 0.930 . S
C536 N535 1.305 . S
C536 C539 1.407 . S
C537 H531 0.930 . S
C537 C538 1.410 . S
C537 C539 1.345 . S
C538 C537 1.410 . S
C538 C540 1.417 . S
C538 C570 1.432 . S
C539 H525 0.930 . S
C539 C536 1.407 . S
C539 C537 1.345 . S
C540 N535 1.360 . S
C540 C538 1.417 . S
C540 C544 1.432 . S
H541 C546 0.930 . S
N542 Tb504 2.600 . S
N542 C544 1.359 . S
N542 C545 1.327 . S
C543 H529 0.931 . S
C543 C545 1.392 . S
C543 C546 1.370 . S
C544 C540 1.432 . S
C544 N542 1.359 . S
C544 C547 1.414 . S
C545 H527 0.930 . S
C545 N542 1.327 . S
C545 C543 1.392 . S
C546 H541 0.930 . S
C546 C543 1.370 . S
C546 C547 1.385 . S
C547 C544 1.414 . S
C547 C546 1.385 . S
C547 C569 1.444 . S
O548 Tb504 2.546 . S
O548 C568 1.251 . S
O549 Tb504 2.610 . S
O549 Tb515 2.362 . S
O549 C560 1.283 . S
O550 Tb515 2.421 . S
O550 C567 1.262 . S
O551 Tb504 2.320 . S
O551 C567 1.260 . S
O552 Tb504 2.552 . S
O552 C560 1.243 . S
O553 Tb504 2.413 . S
O553 C568 1.256 . S
O554 Tb515 2.546 . S
O554 C579 1.251 . S
O555 Tb504 2.362 . S
O555 Tb515 2.610 . S
O555 C571 1.283 . S
O556 Tb504 2.421 . S
O556 C578 1.262 . S
O557 Tb515 2.320 . S
O557 C578 1.260 . S
O558 Tb515 2.552 . S
O558 C571 1.243 . S
O559 Tb515 2.413 . S
O559 C579 1.256 . S
C560 O549 1.283 . S
C560 O552 1.243 . S
C561 C563 1.382 . S
C561 C565 1.393 . S
C561 C568 1.500 . S
C562 C563 1.400 . S
C562 C564 1.384 . S
C563 C561 1.382 . S
C563 C562 1.400 . S
C563 H580 0.930 . S
C564 C562 1.384 . S
C564 C566 1.392 . S
C564 H581 0.931 . S
C565 C561 1.393 . S
C565 C566 1.401 . S
C565 H582 0.930 . S
C566 C564 1.392 . S
C566 C565 1.401 . S
C566 H583 0.930 . S
C567 O550 1.262 . S
C567 O551 1.260 . S
C568 Tb504 2.833 . S
C568 O548 1.251 . S
C568 O553 1.256 . S
C568 C561 1.500 . S
C569 H534 0.929 . S
C569 C547 1.444 . S
C569 C570 1.317 . S
C570 H532 0.930 . S
C570 C538 1.432 . S
C570 C569 1.317 . S
C571 O555 1.283 . S
C571 O558 1.243 . S
C572 C573 1.382 . S
C572 C576 1.393 . S
C572 C579 1.500 1_565 S
C573 C572 1.382 . S
C573 C574 1.400 . S
C573 H584 0.930 . S
C574 C573 1.400 . S
C574 C575 1.384 . S
C575 C574 1.384 . S
C575 C577 1.392 . S
C575 H585 0.931 . S
C576 C572 1.393 . S
C576 C577 1.401 . S
C576 H586 0.930 . S
C577 C575 1.392 . S
C577 C576 1.401 . S
C577 H587 0.930 . S
C578 O556 1.262 . S
C578 O557 1.260 . S
C579 Tb515 2.833 . S
C579 O554 1.251 . S
C579 O559 1.256 . S
C579 C572 1.500 1_545 S
H580 C563 0.930 . S
H581 C564 0.931 . S
H582 C565 0.930 . S
H583 C566 0.930 . S
H584 C573 0.930 . S
H585 C575 0.931 . S
H586 C576 0.930 . S
H587 C577 0.930 . S
Tb588 N619 2.660 . S
Tb588 N626 2.600 . S
Tb588 O632 2.546 . S
Tb588 O633 2.610 . S
Tb588 O635 2.320 . S
Tb588 O636 2.552 . S
Tb588 O637 2.413 . S
Tb588 O639 2.362 . S
Tb588 O640 2.421 . S
Tb588 C652 2.833 . S
C589 C592 1.432 . S
C589 C593 1.414 1_655 S
C589 N596 1.359 . S
C590 C592 1.417 1_455 S
C590 C594 1.432 . S
C590 C602 1.410 . S
C591 C593 1.444 . S
C591 C594 1.317 . S
C591 H614 0.929 . S
C592 C589 1.432 . S
C592 C590 1.417 1_655 S
C592 N600 1.360 . S
C593 C589 1.414 1_455 S
C593 C591 1.444 . S
C593 C598 1.385 . S
C594 C590 1.432 . S
C594 C591 1.317 . S
C594 H606 0.930 . S
C595 C597 1.392 . S
C595 C598 1.370 1_655 S
C595 H607 0.931 . S
N596 C589 1.359 . S
N596 C597 1.327 . S
N596 Tb599 2.600 . S
C597 C595 1.392 . S
C597 N596 1.327 . S
C597 H604 0.930 . S
C598 C593 1.385 . S
C598 C595 1.370 1_455 S
C598 H617 0.930 . S
Tb599 N596 2.600 . S
Tb599 N600 2.660 . S
Tb599 O633 2.362 . S
Tb599 O634 2.421 . S
Tb599 O638 2.546 . S
Tb599 O639 2.610 . S
Tb599 O641 2.320 . S
Tb599 O642 2.552 . S
Tb599 O643 2.413 . S
Tb599 C663 2.833 1_655 S
N600 C592 1.360 . S
N600 Tb599 2.660 . S
N600 C601 1.305 . S
C601 N600 1.305 . S
C601 C603 1.407 . S
C601 H608 0.930 . S
C602 C590 1.410 . S
C602 C603 1.345 1_455 S
C602 H610 0.930 . S
C603 C601 1.407 . S
C603 C602 1.345 1_655 S
C603 H605 0.930 . S
H604 C597 0.930 . S
H605 C603 0.930 . S
H606 C594 0.930 . S
H607 C595 0.931 . S
H608 C601 0.930 . S
H609 C623 0.930 . S
H610 C602 0.930 . S
H611 C629 0.930 . S
H612 C620 0.930 . S
H613 C627 0.931 . S
H614 C591 0.929 . S
H615 C621 0.930 . S
H616 C654 0.930 1_565 S
H617 C598 0.930 . S
H618 C653 0.929 1_565 S
N619 Tb588 2.660 . S
N619 C620 1.305 . S
N619 C624 1.360 . S
C620 H612 0.930 . S
C620 N619 1.305 . S
C620 C623 1.407 . S
C621 H615 0.930 . S
C621 C622 1.410 . S
C621 C623 1.345 . S
C622 C621 1.410 . S
C622 C624 1.417 . S
C622 C654 1.432 . S
C623 H609 0.930 . S
C623 C620 1.407 . S
C623 C621 1.345 . S
C624 N619 1.360 . S
C624 C622 1.417 . S
C624 C628 1.432 . S
H625 C630 0.930 . S
N626 Tb588 2.600 . S
N626 C628 1.359 . S
N626 C629 1.327 . S
C627 H613 0.931 . S
C627 C629 1.392 . S
C627 C630 1.370 . S
C628 C624 1.432 . S
C628 N626 1.359 . S
C628 C631 1.414 . S
C629 H611 0.930 . S
C629 N626 1.327 . S
C629 C627 1.392 . S
C630 H625 0.930 . S
C630 C627 1.370 . S
C630 C631 1.385 . S
C631 C628 1.414 . S
C631 C630 1.385 . S
C631 C653 1.444 . S
O632 Tb588 2.546 . S
O632 C652 1.251 . S
O633 Tb588 2.610 . S
O633 Tb599 2.362 . S
O633 C644 1.283 . S
O634 Tb599 2.421 . S
O634 C651 1.262 . S
O635 Tb588 2.320 . S
O635 C651 1.260 . S
O636 Tb588 2.552 . S
O636 C644 1.243 . S
O637 Tb588 2.413 . S
O637 C652 1.256 . S
O638 Tb599 2.546 . S
O638 C663 1.251 1_655 S
O639 Tb588 2.362 . S
O639 Tb599 2.610 . S
O639 C655 1.283 . S
O640 Tb588 2.421 . S
O640 C662 1.262 . S
O641 Tb599 2.320 . S
O641 C662 1.260 . S
O642 Tb599 2.552 . S
O642 C655 1.243 . S
O643 Tb599 2.413 . S
O643 C663 1.256 1_655 S
C644 O633 1.283 . S
C644 O636 1.243 . S
C645 C647 1.382 . S
C645 C649 1.393 . S
C645 C652 1.500 . S
C646 C647 1.400 . S
C646 C648 1.384 . S
C647 C645 1.382 . S
C647 C646 1.400 . S
C647 H664 0.930 . S
C648 C646 1.384 . S
C648 C650 1.392 . S
C648 H665 0.931 . S
C649 C645 1.393 . S
C649 C650 1.401 . S
C649 H666 0.930 . S
C650 C648 1.392 . S
C650 C649 1.401 . S
C650 H667 0.930 . S
C651 O634 1.262 . S
C651 O635 1.260 . S
C652 Tb588 2.833 . S
C652 O632 1.251 . S
C652 O637 1.256 . S
C652 C645 1.500 . S
C653 H618 0.929 1_545 S
C653 C631 1.444 . S
C653 C654 1.317 . S
C654 H616 0.930 1_545 S
C654 C622 1.432 . S
C654 C653 1.317 . S
C655 O639 1.283 . S
C655 O642 1.243 . S
C656 C657 1.382 . S
C656 C660 1.393 . S
C656 C663 1.500 . S
C657 C656 1.382 . S
C657 C658 1.400 . S
C657 H668 0.930 . S
C658 C657 1.400 . S
C658 C659 1.384 . S
C659 C658 1.384 . S
C659 C661 1.392 . S
C659 H669 0.931 . S
C660 C656 1.393 . S
C660 C661 1.401 . S
C660 H670 0.930 . S
C661 C659 1.392 . S
C661 C660 1.401 . S
C661 H671 0.930 . S
C662 O640 1.262 . S
C662 O641 1.260 . S
C663 Tb599 2.833 1_455 S
C663 O638 1.251 1_455 S
C663 O643 1.256 1_455 S
C663 C656 1.500 . S
H664 C647 0.930 . S
H665 C648 0.931 . S
H666 C649 0.930 . S
H667 C650 0.930 . S
H668 C657 0.930 . S
H669 C659 0.931 . S
H670 C660 0.930 . S
H671 C661 0.930 . S
Tb672 N703 2.660 . S
Tb672 N710 2.600 . S
Tb672 O716 2.546 . S
Tb672 O717 2.610 . S
Tb672 O719 2.320 . S
Tb672 O720 2.552 . S
Tb672 O721 2.413 . S
Tb672 O723 2.362 . S
Tb672 O724 2.421 . S
Tb672 C736 2.833 . S
C673 C676 1.432 . S
C673 C677 1.414 . S
C673 N680 1.359 . S
C674 C676 1.417 . S
C674 C678 1.432 . S
C674 C686 1.410 . S
C675 C677 1.444 . S
C675 C678 1.317 . S
C675 H698 0.929 . S
C676 C673 1.432 . S
C676 C674 1.417 . S
C676 N684 1.360 . S
C677 C673 1.414 . S
C677 C675 1.444 . S
C677 C682 1.385 . S
C678 C674 1.432 . S
C678 C675 1.317 . S
C678 H690 0.930 . S
C679 C681 1.392 . S
C679 C682 1.370 . S
C679 H691 0.931 . S
N680 C673 1.359 . S
N680 C681 1.327 . S
N680 Tb683 2.600 . S
C681 C679 1.392 . S
C681 N680 1.327 . S
C681 H688 0.930 . S
C682 C677 1.385 . S
C682 C679 1.370 . S
C682 H701 0.930 . S
Tb683 N680 2.600 . S
Tb683 N684 2.660 . S
Tb683 O717 2.362 . S
Tb683 O718 2.421 . S
Tb683 O722 2.546 . S
Tb683 O723 2.610 . S
Tb683 O725 2.320 . S
Tb683 O726 2.552 . S
Tb683 O727 2.413 . S
Tb683 C747 2.833 . S
N684 C676 1.360 . S
N684 Tb683 2.660 . S
N684 C685 1.305 . S
C685 N684 1.305 . S
C685 C687 1.407 . S
C685 H692 0.930 . S
C686 C674 1.410 . S
C686 C687 1.345 . S
C686 H694 0.930 . S
C687 C685 1.407 . S
C687 C686 1.345 . S
C687 H689 0.930 . S
H688 C681 0.930 . S
H689 C687 0.930 . S
H690 C678 0.930 . S
H691 C679 0.931 . S
H692 C685 0.930 . S
H693 C707 0.930 . S
H694 C686 0.930 . S
H695 C713 0.930 . S
H696 C704 0.930 . S
H697 C711 0.931 . S
H698 C675 0.929 . S
H699 C705 0.930 1_455 S
H700 C738 0.930 . S
H701 C682 0.930 . S
H702 C737 0.929 . S
N703 Tb672 2.660 . S
N703 C704 1.305 . S
N703 C708 1.360 . S
C704 H696 0.930 . S
C704 N703 1.305 . S
C704 C707 1.407 . S
C705 H699 0.930 1_655 S
C705 C706 1.410 . S
C705 C707 1.345 . S
C706 C705 1.410 . S
C706 C708 1.417 . S
C706 C738 1.432 1_655 S
C707 H693 0.930 . S
C707 C704 1.407 . S
C707 C705 1.345 . S
C708 N703 1.360 . S
C708 C706 1.417 . S
C708 C712 1.432 . S
H709 C714 0.930 . S
N710 Tb672 2.600 . S
N710 C712 1.359 . S
N710 C713 1.327 . S
C711 H697 0.931 . S
C711 C713 1.392 . S
C711 C714 1.370 . S
C712 C708 1.432 . S
C712 N710 1.359 . S
C712 C715 1.414 . S
C713 H695 0.930 . S
C713 N710 1.327 . S
C713 C711 1.392 . S
C714 H709 0.930 . S
C714 C711 1.370 . S
C714 C715 1.385 . S
C715 C712 1.414 . S
C715 C714 1.385 . S
C715 C737 1.444 1_655 S
O716 Tb672 2.546 . S
O716 C736 1.251 . S
O717 Tb672 2.610 . S
O717 Tb683 2.362 . S
O717 C728 1.283 . S
O718 Tb683 2.421 . S
O718 C735 1.262 . S
O719 Tb672 2.320 . S
O719 C735 1.260 . S
O720 Tb672 2.552 . S
O720 C728 1.243 . S
O721 Tb672 2.413 . S
O721 C736 1.256 . S
O722 Tb683 2.546 . S
O722 C747 1.251 . S
O723 Tb672 2.362 . S
O723 Tb683 2.610 . S
O723 C739 1.283 . S
O724 Tb672 2.421 . S
O724 C746 1.262 . S
O725 Tb683 2.320 . S
O725 C746 1.260 . S
O726 Tb683 2.552 . S
O726 C739 1.243 . S
O727 Tb683 2.413 . S
O727 C747 1.256 . S
C728 O717 1.283 . S
C728 O720 1.243 . S
C729 C731 1.382 . S
C729 C733 1.393 . S
C729 C736 1.500 . S
C730 C731 1.400 . S
C730 C732 1.384 . S
C731 C729 1.382 . S
C731 C730 1.400 . S
C731 H748 0.930 . S
C732 C730 1.384 . S
C732 C734 1.392 . S
C732 H749 0.931 . S
C733 C729 1.393 . S
C733 C734 1.401 . S
C733 H750 0.930 . S
C734 C732 1.392 . S
C734 C733 1.401 . S
C734 H751 0.930 . S
C735 O718 1.262 . S
C735 O719 1.260 . S
C736 Tb672 2.833 . S
C736 O716 1.251 . S
C736 O721 1.256 . S
C736 C729 1.500 . S
C737 H702 0.929 . S
C737 C715 1.444 1_455 S
C737 C738 1.317 . S
C738 H700 0.930 . S
C738 C706 1.432 1_455 S
C738 C737 1.317 . S
C739 O723 1.283 . S
C739 O726 1.243 . S
C740 C741 1.382 . S
C740 C744 1.393 . S
C740 C747 1.500 . S
C741 C740 1.382 . S
C741 C742 1.400 . S
C741 H752 0.930 . S
C742 C741 1.400 . S
C742 C743 1.384 . S
C743 C742 1.384 . S
C743 C745 1.392 . S
C743 H753 0.931 . S
C744 C740 1.393 . S
C744 C745 1.401 . S
C744 H754 0.930 . S
C745 C743 1.392 . S
C745 C744 1.401 . S
C745 H755 0.930 . S
C746 O724 1.262 . S
C746 O725 1.260 . S
C747 Tb683 2.833 . S
C747 O722 1.251 . S
C747 O727 1.256 . S
C747 C740 1.500 . S
H748 C731 0.930 . S
H749 C732 0.931 . S
H750 C733 0.930 . S
H751 C734 0.930 . S
H752 C741 0.930 . S
H753 C743 0.931 . S
H754 C744 0.930 . S
H755 C745 0.930 . S
H756 C764 0.950 . S
H757 C769 0.950 . S
H758 C766 0.950 1_556 S
H759 C768 0.950 . S
H760 C770 0.950 . S
H761 C772 0.950 . S
H762 C774 0.950 . S
H763 C775 0.950 . S
C764 H756 0.950 . S
C764 C765 1.386 . S
C764 C766 1.391 . S
C765 C764 1.386 . S
C765 C769 1.393 . S
C766 H758 0.950 1_554 S
C766 C764 1.391 . S
C766 C767 1.400 . S
C767 C766 1.400 . S
C767 C768 1.398 . S
C767 C773 1.491 . S
C768 H759 0.950 . S
C768 C767 1.398 . S
C768 C769 1.391 . S
C769 H757 0.950 . S
C769 C765 1.393 . S
C769 C768 1.391 . S
C770 H760 0.950 . S
C770 C771 1.386 . S
C770 C772 1.391 . S
C771 C770 1.386 . S
C771 C775 1.393 1_554 S
C772 H761 0.950 . S
C772 C770 1.391 . S
C772 C773 1.400 . S
C773 C767 1.491 . S
C773 C772 1.400 . S
C773 C774 1.398 1_554 S
C774 H762 0.950 . S
C774 C773 1.398 1_556 S
C774 C775 1.391 . S
C775 H763 0.950 . S
C775 C771 1.393 1_556 S
C775 C774 1.391 . S
H776 C784 0.950 1_556 S
H777 C789 0.950 . S
H778 C786 0.940 1_556 S
H779 C788 0.950 . S
H780 C790 0.950 . S
H781 C792 0.950 . S
H782 C794 0.950 . S
H783 C795 0.950 . S
C784 H776 0.950 1_554 S
C784 C785 1.386 . S
C784 C786 1.393 . S
C785 C784 1.386 . S
C785 C789 1.393 . S
C786 H778 0.940 1_554 S
C786 C784 1.393 . S
C786 C787 1.409 . S
C787 C786 1.409 . S
C787 C788 1.398 . S
C787 C793 1.491 . S
C788 H779 0.950 . S
C788 C787 1.398 . S
C788 C789 1.391 . S
C789 H777 0.950 . S
C789 C785 1.393 . S
C789 C788 1.391 . S
C790 H780 0.950 . S
C790 C791 1.386 . S
C790 C792 1.391 . S
C791 C790 1.386 . S
C791 C795 1.393 1_554 S
C792 H781 0.950 . S
C792 C790 1.391 . S
C792 C793 1.400 . S
C793 C787 1.491 . S
C793 C792 1.400 . S
C793 C794 1.398 1_554 S
C794 H782 0.950 . S
C794 C793 1.398 1_556 S
C794 C795 1.391 . S
C795 H783 0.950 . S
C795 C791 1.393 1_556 S
C795 C794 1.391 . S
H796 C804 0.950 1_556 S
H797 C809 0.950 . S
H798 C806 0.950 . S
H799 C808 0.950 . S
H800 C810 0.950 . S
H801 C812 0.950 . S
H802 C814 0.950 . S
H803 C815 0.950 . S
C804 H796 0.950 1_554 S
C804 C805 1.386 . S
C804 C806 1.391 . S
C805 C804 1.386 . S
C805 C809 1.393 . S
C806 H798 0.950 . S
C806 C804 1.391 . S
C806 C807 1.400 . S
C807 C806 1.400 . S
C807 C808 1.398 . S
C807 C813 1.491 . S
C808 H799 0.950 . S
C808 C807 1.398 . S
C808 C809 1.391 . S
C809 H797 0.950 . S
C809 C805 1.393 . S
C809 C808 1.391 . S
C810 H800 0.950 . S
C810 C811 1.386 . S
C810 C812 1.391 . S
C811 C810 1.386 . S
C811 C815 1.393 . S
C812 H801 0.950 . S
C812 C810 1.391 . S
C812 C813 1.400 . S
C813 C807 1.491 . S
C813 C812 1.400 . S
C813 C814 1.398 . S
C814 H802 0.950 . S
C814 C813 1.398 . S
C814 C815 1.391 . S
C815 H803 0.950 . S
C815 C811 1.393 . S
C815 C814 1.391 . S
H816 C824 0.950 . S
H817 C829 0.950 . S
H818 C826 0.950 . S
H819 C828 0.950 . S
H820 C830 0.950 . S
H821 C832 0.950 . S
H822 C834 0.950 . S
H823 C835 0.950 . S
C824 H816 0.950 . S
C824 C825 1.386 . S
C824 C826 1.391 . S
C825 C824 1.386 . S
C825 C829 1.393 1_556 S
C826 H818 0.950 . S
C826 C824 1.391 . S
C826 C827 1.400 . S
C827 C826 1.400 . S
C827 C828 1.398 1_556 S
C827 C833 1.491 . S
C828 H819 0.950 . S
C828 C827 1.398 1_554 S
C828 C829 1.391 . S
C829 H817 0.950 . S
C829 C825 1.393 1_554 S
C829 C828 1.391 . S
C830 H820 0.950 . S
C830 C831 1.386 . S
C830 C832 1.391 . S
C831 C830 1.386 . S
C831 C835 1.393 1_554 S
C832 H821 0.950 . S
C832 C830 1.391 . S
C832 C833 1.400 1_554 S
C833 C827 1.491 . S
C833 C832 1.400 1_556 S
C833 C834 1.398 . S
C834 H822 0.950 . S
C834 C833 1.398 . S
C834 C835 1.391 . S
C835 H823 0.950 . S
C835 C831 1.393 1_556 S
C835 C834 1.391 . S
H836 C844 0.950 . S
H837 C849 0.948 1_554 S
H838 C846 0.950 . S
H839 C848 0.950 . S
H840 C850 0.950 . S
H841 C852 0.950 . S
H842 C854 0.950 . S
H843 C855 0.950 . S
C844 H836 0.950 . S
C844 C845 1.384 1_556 S
C844 C846 1.391 . S
C845 C844 1.384 1_554 S
C845 C849 1.392 1_554 S
C846 H838 0.950 . S
C846 C844 1.391 . S
C846 C847 1.400 . S
C847 C846 1.400 . S
C847 C848 1.398 . S
C847 C853 1.491 . S
C848 H839 0.950 . S
C848 C847 1.398 . S
C848 C849 1.393 . S
C849 H837 0.948 1_556 S
C849 C845 1.392 1_556 S
C849 C848 1.393 . S
C850 H840 0.950 . S
C850 C851 1.386 . S
C850 C852 1.391 . S
C851 C850 1.386 . S
C851 C855 1.393 . S
C852 H841 0.950 . S
C852 C850 1.391 . S
C852 C853 1.400 . S
C853 C847 1.491 . S
C853 C852 1.400 . S
C853 C854 1.398 . S
C854 H842 0.950 . S
C854 C853 1.398 . S
C854 C855 1.391 . S
C855 H843 0.950 . S
C855 C851 1.393 . S
C855 C854 1.391 . S
H856 C864 0.950 . S
H857 C869 0.950 . S
H858 C866 0.950 . S
H859 C868 0.950 . S
H860 C870 0.950 . S
H861 C872 0.950 . S
H862 C874 0.950 . S
H863 C875 0.950 . S
C864 H856 0.950 . S
C864 C865 1.386 . S
C864 C866 1.391 . S
C865 C864 1.386 . S
C865 C869 1.393 1_554 S
C866 H858 0.950 . S
C866 C864 1.391 . S
C866 C867 1.400 1_554 S
C867 C866 1.400 1_556 S
C867 C868 1.398 . S
C867 C873 1.491 . S
C868 H859 0.950 . S
C868 C867 1.398 . S
C868 C869 1.391 . S
C869 H857 0.950 . S
C869 C865 1.393 1_556 S
C869 C868 1.391 . S
C870 H860 0.950 . S
C870 C871 1.386 . S
C870 C872 1.391 . S
C871 C870 1.386 . S
C871 C875 1.393 1_556 S
C872 H861 0.950 . S
C872 C870 1.391 . S
C872 C873 1.400 . S
C873 C867 1.491 . S
C873 C872 1.400 . S
C873 C874 1.398 1_556 S
C874 H862 0.950 . S
C874 C873 1.398 1_554 S
C874 C875 1.391 . S
C875 H863 0.950 . S
C875 C871 1.393 1_554 S
C875 C874 1.391 . S
H876 C884 0.950 . S
H877 C889 0.950 . S
H878 C886 0.950 . S
H879 C888 0.950 . S
H880 C890 0.950 . S
H881 C892 0.950 . S
H882 C894 0.950 . S
H883 C895 0.950 . S
C884 H876 0.950 . S
C884 C885 1.386 . S
C884 C886 1.391 . S
C885 C884 1.386 . S
C885 C889 1.393 . S
C886 H878 0.950 . S
C886 C884 1.391 . S
C886 C887 1.400 . S
C887 C886 1.400 . S
C887 C888 1.398 . S
C887 C893 1.491 . S
C888 H879 0.950 . S
C888 C887 1.398 . S
C888 C889 1.391 . S
C889 H877 0.950 . S
C889 C885 1.393 . S
C889 C888 1.391 . S
C890 H880 0.950 . S
C890 C891 1.386 . S
C890 C892 1.391 . S
C891 C890 1.386 . S
C891 C895 1.393 . S
C892 H881 0.950 . S
C892 C890 1.391 . S
C892 C893 1.400 . S
C893 C887 1.491 . S
C893 C892 1.400 . S
C893 C894 1.398 . S
C894 H882 0.950 . S
C894 C893 1.398 . S
C894 C895 1.391 . S
C895 H883 0.950 . S
C895 C891 1.393 . S
C895 C894 1.391 . S
H896 C904 0.950 . S
H897 C909 0.950 . S
H898 C906 0.950 . S
H899 C908 0.950 . S
H900 C910 0.950 . S
H901 C912 0.950 . S
H902 C914 0.950 . S
H903 C915 0.950 . S
C904 H896 0.950 . S
C904 C905 1.386 . S
C904 C906 1.391 . S
C905 C904 1.386 . S
C905 C909 1.393 . S
C906 H898 0.950 . S
C906 C904 1.391 . S
C906 C907 1.400 . S
C907 C906 1.400 . S
C907 C908 1.398 . S
C907 C913 1.491 . S
C908 H899 0.950 . S
C908 C907 1.398 . S
C908 C909 1.391 . S
C909 H897 0.950 . S
C909 C905 1.393 . S
C909 C908 1.391 . S
C910 H900 0.950 . S
C910 C911 1.386 . S
C910 C912 1.391 1_565 S
C911 C910 1.386 . S
C911 C915 1.393 . S
C912 H901 0.950 . S
C912 C910 1.391 1_545 S
C912 C913 1.400 . S
C913 C907 1.491 . S
C913 C912 1.400 . S
C913 C914 1.398 1_545 S
C914 H902 0.950 . S
C914 C913 1.398 1_565 S
C914 C915 1.391 . S
C915 H903 0.950 . S
C915 C911 1.393 . S
C915 C914 1.391 . S
H916 C924 0.950 . S
H917 C929 0.950 . S
H918 C926 0.950 . S
H919 C928 0.950 . S
H920 C930 0.950 . S
H921 C932 0.950 . S
H922 C934 0.950 . S
H923 C935 0.950 . S
C924 H916 0.950 . S
C924 C925 1.386 . S
C924 C926 1.391 . S
C925 C924 1.386 . S
C925 C929 1.393 . S
C926 H918 0.950 . S
C926 C924 1.391 . S
C926 C927 1.400 1_455 S
C927 C926 1.400 1_655 S
C927 C928 1.398 . S
C927 C933 1.491 . S
C928 H919 0.950 . S
C928 C927 1.398 . S
C928 C929 1.391 1_655 S
C929 H917 0.950 . S
C929 C925 1.393 . S
C929 C928 1.391 1_455 S
C930 H920 0.950 . S
C930 C931 1.386 . S
C930 C932 1.391 . S
C931 C930 1.386 . S
C931 C935 1.393 . S
C932 H921 0.950 . S
C932 C930 1.391 . S
C932 C933 1.400 . S
C933 C927 1.491 . S
C933 C932 1.400 . S
C933 C934 1.398 . S
C934 H922 0.950 . S
C934 C933 1.398 . S
C934 C935 1.391 . S
C935 H923 0.950 . S
C935 C931 1.393 . S
C935 C934 1.391 . S
H936 C944 0.950 . S
H937 C949 0.950 . S
H938 C946 0.950 . S
H939 C948 0.950 . S
H940 C950 0.950 . S
H941 C952 0.950 . S
H942 C954 0.950 . S
H943 C955 0.950 . S
C944 H936 0.950 . S
C944 C945 1.386 . S
C944 C946 1.391 . S
C945 C944 1.386 . S
C945 C949 1.393 . S
C946 H938 0.950 . S
C946 C944 1.391 . S
C946 C947 1.400 . S
C947 C946 1.400 . S
C947 C948 1.398 . S
C947 C953 1.491 . S
C948 H939 0.950 . S
C948 C947 1.398 . S
C948 C949 1.391 . S
C949 H937 0.950 . S
C949 C945 1.393 . S
C949 C948 1.391 . S
C950 H940 0.950 . S
C950 C951 1.386 . S
C950 C952 1.391 . S
C951 C950 1.386 . S
C951 C955 1.393 . S
C952 H941 0.950 . S
C952 C950 1.391 . S
C952 C953 1.400 . S
C953 C947 1.491 . S
C953 C952 1.400 . S
C953 C954 1.398 . S
C954 H942 0.950 . S
C954 C953 1.398 . S
C954 C955 1.391 . S
C955 H943 0.950 . S
C955 C951 1.393 . S
C955 C954 1.391 . S
H956 C964 0.950 . S
H957 C969 0.950 . S
H958 C966 0.950 . S
H959 C968 0.950 . S
H960 C970 0.950 . S
H961 C972 0.950 . S
H962 C974 0.950 . S
H963 C975 0.950 . S
C964 H956 0.950 . S
C964 C965 1.386 . S
C964 C966 1.391 . S
C965 C964 1.386 . S
C965 C969 1.393 . S
C966 H958 0.950 . S
C966 C964 1.391 . S
C966 C967 1.400 . S
C967 C966 1.400 . S
C967 C968 1.398 . S
C967 C973 1.491 . S
C968 H959 0.950 . S
C968 C967 1.398 . S
C968 C969 1.391 . S
C969 H957 0.950 . S
C969 C965 1.393 . S
C969 C968 1.391 . S
C970 H960 0.950 . S
C970 C971 1.386 . S
C970 C972 1.391 . S
C971 C970 1.386 . S
C971 C975 1.393 . S
C972 H961 0.950 . S
C972 C970 1.391 . S
C972 C973 1.400 . S
C973 C967 1.491 . S
C973 C972 1.400 . S
C973 C974 1.398 . S
C974 H962 0.950 . S
C974 C973 1.398 . S
C974 C975 1.391 . S
C975 H963 0.950 . S
C975 C971 1.393 . S
C975 C974 1.391 . S
H976 C984 0.950 . S
H977 C989 0.950 . S
H978 C986 0.950 . S
H979 C988 0.950 . S
H980 C990 0.950 . S
H981 C992 0.950 . S
H982 C994 0.950 . S
H983 C995 0.950 . S
C984 H976 0.950 . S
C984 C985 1.386 . S
C984 C986 1.391 . S
C985 C984 1.386 . S
C985 C989 1.393 . S
C986 H978 0.950 . S
C986 C984 1.391 . S
C986 C987 1.400 . S
C987 C986 1.400 . S
C987 C988 1.398 . S
C987 C993 1.491 . S
C988 H979 0.950 . S
C988 C987 1.398 . S
C988 C989 1.391 . S
C989 H977 0.950 . S
C989 C985 1.393 . S
C989 C988 1.391 . S
C990 H980 0.950 . S
C990 C991 1.386 . S
C990 C992 1.391 . S
C991 C990 1.386 . S
C991 C995 1.393 . S
C992 H981 0.950 . S
C992 C990 1.391 . S
C992 C993 1.400 . S
C993 C987 1.491 . S
C993 C992 1.400 . S
C993 C994 1.398 . S
C994 H982 0.950 . S
C994 C993 1.398 . S
C994 C995 1.391 . S
C995 H983 0.950 . S
C995 C991 1.393 . S
C995 C994 1.391 . S
H996 C1004 0.950 . S
H997 C1009 0.950 . S
H998 C1006 0.950 . S
H999 C1008 0.950 . S
H1000 C1010 0.950 . S
H1001 C1012 0.950 . S
H1002 C1014 0.950 . S
H1003 C1015 0.950 . S
C1004 H996 0.950 . S
C1004 C1005 1.386 . S
C1004 C1006 1.391 . S
C1005 C1004 1.386 . S
C1005 C1009 1.393 . S
C1006 H998 0.950 . S
C1006 C1004 1.391 . S
C1006 C1007 1.400 . S
C1007 C1006 1.400 . S
C1007 C1008 1.398 . S
C1007 C1013 1.491 . S
C1008 H999 0.950 . S
C1008 C1007 1.398 . S
C1008 C1009 1.391 . S
C1009 H997 0.950 . S
C1009 C1005 1.393 . S
C1009 C1008 1.391 . S
C1010 H1000 0.950 . S
C1010 C1011 1.386 . S
C1010 C1012 1.391 . S
C1011 C1010 1.386 . S
C1011 C1015 1.393 . S
C1012 H1001 0.950 . S
C1012 C1010 1.391 . S
C1012 C1013 1.400 . S
C1013 C1007 1.491 . S
C1013 C1012 1.400 . S
C1013 C1014 1.398 . S
C1014 H1002 0.950 . S
C1014 C1013 1.398 . S
C1014 C1015 1.391 . S
C1015 H1003 0.950 . S
C1015 C1011 1.393 . S
C1015 C1014 1.391 . S
H1016 C1024 0.950 . S
H1017 C1029 0.950 . S
H1018 C1026 0.950 . S
H1019 C1028 0.950 . S
H1020 C1030 0.950 . S
H1021 C1032 0.950 . S
H1022 C1034 0.950 . S
H1023 C1035 0.950 . S
C1024 H1016 0.950 . S
C1024 C1025 1.386 . S
C1024 C1026 1.391 . S
C1025 C1024 1.386 . S
C1025 C1029 1.393 . S
C1026 H1018 0.950 . S
C1026 C1024 1.391 . S
C1026 C1027 1.400 . S
C1027 C1026 1.400 . S
C1027 C1028 1.398 . S
C1027 C1033 1.491 . S
C1028 H1019 0.950 . S
C1028 C1027 1.398 . S
C1028 C1029 1.391 . S
C1029 H1017 0.950 . S
C1029 C1025 1.393 . S
C1029 C1028 1.391 . S
C1030 H1020 0.950 . S
C1030 C1031 1.386 . S
C1030 C1032 1.391 . S
C1031 C1030 1.386 . S
C1031 C1035 1.393 . S
C1032 H1021 0.950 . S
C1032 C1030 1.391 . S
C1032 C1033 1.400 . S
C1033 C1027 1.491 . S
C1033 C1032 1.400 . S
C1033 C1034 1.398 . S
C1034 H1022 0.950 . S
C1034 C1033 1.398 . S
C1034 C1035 1.391 . S
C1035 H1023 0.950 . S
C1035 C1031 1.393 . S
C1035 C1034 1.391 . S
H1036 C1044 0.950 . S
H1037 C1049 0.950 . S
H1038 C1046 0.950 . S
H1039 C1048 0.950 . S
H1040 C1050 0.950 . S
H1041 C1052 0.950 . S
H1042 C1054 0.950 . S
H1043 C1055 0.950 . S
C1044 H1036 0.950 . S
C1044 C1045 1.386 . S
C1044 C1046 1.391 . S
C1045 C1044 1.386 . S
C1045 C1049 1.393 . S
C1046 H1038 0.950 . S
C1046 C1044 1.391 . S
C1046 C1047 1.400 . S
C1047 C1046 1.400 . S
C1047 C1048 1.398 . S
C1047 C1053 1.491 . S
C1048 H1039 0.950 . S
C1048 C1047 1.398 . S
C1048 C1049 1.391 . S
C1049 H1037 0.950 . S
C1049 C1045 1.393 . S
C1049 C1048 1.391 . S
C1050 H1040 0.950 . S
C1050 C1051 1.386 . S
C1050 C1052 1.391 . S
C1051 C1050 1.386 . S
C1051 C1055 1.393 . S
C1052 H1041 0.950 . S
C1052 C1050 1.391 . S
C1052 C1053 1.400 . S
C1053 C1047 1.491 . S
C1053 C1052 1.400 . S
C1053 C1054 1.398 . S
C1054 H1042 0.950 . S
C1054 C1053 1.398 . S
C1054 C1055 1.391 . S
C1055 H1043 0.950 . S
C1055 C1051 1.393 . S
C1055 C1054 1.391 . S
H1056 C1064 0.950 . S
H1057 C1069 0.950 . S
H1058 C1066 0.950 . S
H1059 C1068 0.950 . S
H1060 C1070 0.950 . S
H1061 C1072 0.950 . S
H1062 C1074 0.950 . S
H1063 C1075 0.950 . S
C1064 H1056 0.950 . S
C1064 C1065 1.386 . S
C1064 C1066 1.391 . S
C1065 C1064 1.386 . S
C1065 C1069 1.393 . S
C1066 H1058 0.950 . S
C1066 C1064 1.391 . S
C1066 C1067 1.400 . S
C1067 C1066 1.400 . S
C1067 C1068 1.398 . S
C1067 C1073 1.491 1_565 S
C1068 H1059 0.950 . S
C1068 C1067 1.398 . S
C1068 C1069 1.391 . S
C1069 H1057 0.950 . S
C1069 C1065 1.393 . S
C1069 C1068 1.391 . S
C1070 H1060 0.950 . S
C1070 C1071 1.386 . S
C1070 C1072 1.391 . S
C1071 C1070 1.386 . S
C1071 C1075 1.393 . S
C1072 H1061 0.950 . S
C1072 C1070 1.391 . S
C1072 C1073 1.400 . S
C1073 C1067 1.491 1_545 S
C1073 C1072 1.400 . S
C1073 C1074 1.398 . S
C1074 H1062 0.950 . S
C1074 C1073 1.398 . S
C1074 C1075 1.391 . S
C1075 H1063 0.950 . S
C1075 C1071 1.393 . S
C1075 C1074 1.391 . S
H1076 C1084 0.950 . S
H1077 C1089 0.950 . S
H1078 C1086 0.950 . S
H1079 C1088 0.950 . S
H1080 C1090 0.950 . S
H1081 C1092 0.950 . S
H1082 C1094 0.950 . S
H1083 C1095 0.950 . S
C1084 H1076 0.950 . S
C1084 C1085 1.386 . S
C1084 C1086 1.391 . S
C1085 C1084 1.386 . S
C1085 C1089 1.393 . S
C1086 H1078 0.950 . S
C1086 C1084 1.391 . S
C1086 C1087 1.400 . S
C1087 C1086 1.400 . S
C1087 C1088 1.398 . S
C1087 C1093 1.491 1_655 S
C1088 H1079 0.950 . S
C1088 C1087 1.398 . S
C1088 C1089 1.391 . S
C1089 H1077 0.950 . S
C1089 C1085 1.393 . S
C1089 C1088 1.391 . S
C1090 H1080 0.950 . S
C1090 C1091 1.386 . S
C1090 C1092 1.391 . S
C1091 C1090 1.386 . S
C1091 C1095 1.393 . S
C1092 H1081 0.950 . S
C1092 C1090 1.391 . S
C1092 C1093 1.400 . S
C1093 C1087 1.491 1_455 S
C1093 C1092 1.400 . S
C1093 C1094 1.398 . S
C1094 H1082 0.950 . S
C1094 C1093 1.398 . S
C1094 C1095 1.391 . S
C1095 H1083 0.950 . S
C1095 C1091 1.393 . S
C1095 C1094 1.391 . S
H1096 C1104 0.950 . S
H1097 C1109 0.950 . S
H1098 C1106 0.950 . S
H1099 C1108 0.950 . S
H1100 C1110 0.950 . S
H1101 C1112 0.950 . S
H1102 C1114 0.950 . S
H1103 C1115 0.950 . S
C1104 H1096 0.950 . S
C1104 C1105 1.386 . S
C1104 C1106 1.391 . S
C1105 C1104 1.386 . S
C1105 C1109 1.393 . S
C1106 H1098 0.950 . S
C1106 C1104 1.391 . S
C1106 C1107 1.400 . S
C1107 C1106 1.400 . S
C1107 C1108 1.398 . S
C1107 C1113 1.491 . S
C1108 H1099 0.950 . S
C1108 C1107 1.398 . S
C1108 C1109 1.391 . S
C1109 H1097 0.950 . S
C1109 C1105 1.393 . S
C1109 C1108 1.391 . S
C1110 H1100 0.950 . S
C1110 C1111 1.386 . S
C1110 C1112 1.391 . S
C1111 C1110 1.386 . S
C1111 C1115 1.393 . S
C1112 H1101 0.950 . S
C1112 C1110 1.391 . S
C1112 C1113 1.400 . S
C1113 C1107 1.491 . S
C1113 C1112 1.400 . S
C1113 C1114 1.398 . S
C1114 H1102 0.950 . S
C1114 C1113 1.398 . S
C1114 C1115 1.391 . S
C1115 H1103 0.950 . S
C1115 C1111 1.393 . S
C1115 C1114 1.391 . S
H1116 C1124 0.950 . S
H1117 C1129 0.950 . S
H1118 C1126 0.950 . S
H1119 C1128 0.950 . S
H1120 C1130 0.950 . S
H1121 C1132 0.950 . S
H1122 C1134 0.950 . S
H1123 C1135 0.950 . S
C1124 H1116 0.950 . S
C1124 C1125 1.386 . S
C1124 C1126 1.391 . S
C1125 C1124 1.386 . S
C1125 C1129 1.393 . S
C1126 H1118 0.950 . S
C1126 C1124 1.391 . S
C1126 C1127 1.400 . S
C1127 C1126 1.400 . S
C1127 C1128 1.398 . S
C1127 C1133 1.491 . S
C1128 H1119 0.950 . S
C1128 C1127 1.398 . S
C1128 C1129 1.391 . S
C1129 H1117 0.950 . S
C1129 C1125 1.393 . S
C1129 C1128 1.391 . S
C1130 H1120 0.950 . S
C1130 C1131 1.386 . S
C1130 C1132 1.391 . S
C1131 C1130 1.386 . S
C1131 C1135 1.393 . S
C1132 H1121 0.950 . S
C1132 C1130 1.391 . S
C1132 C1133 1.400 . S
C1133 C1127 1.491 . S
C1133 C1132 1.400 . S
C1133 C1134 1.398 . S
C1134 H1122 0.950 . S
C1134 C1133 1.398 . S
C1134 C1135 1.391 . S
C1135 H1123 0.950 . S
C1135 C1131 1.393 . S
C1135 C1134 1.391 . S
H1136 C1144 0.950 . S
H1137 C1149 0.950 . S
H1138 C1146 0.950 . S
H1139 C1148 0.950 . S
H1140 C1150 0.950 . S
H1141 C1152 0.950 . S
H1142 C1154 0.950 . S
H1143 C1155 0.950 . S
C1144 H1136 0.950 . S
C1144 C1145 1.386 . S
C1144 C1146 1.391 . S
C1145 C1144 1.386 . S
C1145 C1149 1.393 . S
C1146 H1138 0.950 . S
C1146 C1144 1.391 . S
C1146 C1147 1.400 . S
C1147 C1146 1.400 . S
C1147 C1148 1.398 . S
C1147 C1153 1.491 . S
C1148 H1139 0.950 . S
C1148 C1147 1.398 . S
C1148 C1149 1.391 . S
C1149 H1137 0.950 . S
C1149 C1145 1.393 . S
C1149 C1148 1.391 . S
C1150 H1140 0.950 . S
C1150 C1151 1.386 . S
C1150 C1152 1.391 . S
C1151 C1150 1.386 . S
C1151 C1155 1.393 . S
C1152 H1141 0.950 . S
C1152 C1150 1.391 . S
C1152 C1153 1.400 . S
C1153 C1147 1.491 . S
C1153 C1152 1.400 . S
C1153 C1154 1.398 . S
C1154 H1142 0.950 . S
C1154 C1153 1.398 . S
C1154 C1155 1.391 . S
C1155 H1143 0.950 . S
C1155 C1151 1.393 . S
C1155 C1154 1.391 . S
H1156 C1164 0.950 . S
H1157 C1169 0.950 . S
H1158 C1166 0.950 . S
H1159 C1168 0.950 . S
H1160 C1170 0.950 . S
H1161 C1172 0.950 . S
H1162 C1174 0.950 . S
H1163 C1175 0.950 . S
C1164 H1156 0.950 . S
C1164 C1165 1.386 . S
C1164 C1166 1.391 . S
C1165 C1164 1.386 . S
C1165 C1169 1.393 . S
C1166 H1158 0.950 . S
C1166 C1164 1.391 . S
C1166 C1167 1.400 . S
C1167 C1166 1.400 . S
C1167 C1168 1.398 . S
C1167 C1173 1.491 . S
C1168 H1159 0.950 . S
C1168 C1167 1.398 . S
C1168 C1169 1.391 . S
C1169 H1157 0.950 . S
C1169 C1165 1.393 . S
C1169 C1168 1.391 . S
C1170 H1160 0.950 . S
C1170 C1171 1.386 . S
C1170 C1172 1.391 . S
C1171 C1170 1.386 . S
C1171 C1175 1.393 . S
C1172 H1161 0.950 . S
C1172 C1170 1.391 . S
C1172 C1173 1.400 . S
C1173 C1167 1.491 . S
C1173 C1172 1.400 . S
C1173 C1174 1.398 . S
C1174 H1162 0.950 . S
C1174 C1173 1.398 . S
C1174 C1175 1.391 . S
C1175 H1163 0.950 . S
C1175 C1171 1.393 . S
C1175 C1174 1.391 . S
H1176 C1184 0.950 . S
H1177 C1189 0.950 . S
H1178 C1186 0.950 . S
H1179 C1188 0.950 . S
H1180 C1190 0.950 . S
H1181 C1192 0.950 . S
H1182 C1194 0.950 . S
H1183 C1195 0.950 . S
C1184 H1176 0.950 . S
C1184 C1185 1.386 . S
C1184 C1186 1.391 . S
C1185 C1184 1.386 . S
C1185 C1189 1.393 . S
C1186 H1178 0.950 . S
C1186 C1184 1.391 . S
C1186 C1187 1.400 . S
C1187 C1186 1.400 . S
C1187 C1188 1.398 . S
C1187 C1193 1.491 . S
C1188 H1179 0.950 . S
C1188 C1187 1.398 . S
C1188 C1189 1.391 . S
C1189 H1177 0.950 . S
C1189 C1185 1.393 . S
C1189 C1188 1.391 . S
C1190 H1180 0.950 . S
C1190 C1191 1.386 . S
C1190 C1192 1.391 . S
C1191 C1190 1.386 . S
C1191 C1195 1.393 . S
C1192 H1181 0.950 . S
C1192 C1190 1.391 . S
C1192 C1193 1.400 . S
C1193 C1187 1.491 . S
C1193 C1192 1.400 . S
C1193 C1194 1.398 . S
C1194 H1182 0.950 . S
C1194 C1193 1.398 . S
C1194 C1195 1.391 . S
C1195 H1183 0.950 . S
C1195 C1191 1.393 . S
C1195 C1194 1.391 . S
H1196 C1204 0.950 . S
H1197 C1209 0.950 . S
H1198 C1206 0.950 . S
H1199 C1208 0.950 . S
H1200 C1210 0.950 . S
H1201 C1212 0.950 . S
H1202 C1214 0.950 . S
H1203 C1215 0.950 . S
C1204 H1196 0.950 . S
C1204 C1205 1.386 . S
C1204 C1206 1.391 . S
C1205 C1204 1.386 . S
C1205 C1209 1.393 . S
C1206 H1198 0.950 . S
C1206 C1204 1.391 . S
C1206 C1207 1.400 . S
C1207 C1206 1.400 . S
C1207 C1208 1.398 . S
C1207 C1213 1.491 . S
C1208 H1199 0.950 . S
C1208 C1207 1.398 . S
C1208 C1209 1.391 . S
C1209 H1197 0.950 . S
C1209 C1205 1.393 . S
C1209 C1208 1.391 . S
C1210 H1200 0.950 . S
C1210 C1211 1.386 . S
C1210 C1212 1.391 . S
C1211 C1210 1.386 . S
C1211 C1215 1.393 . S
C1212 H1201 0.950 . S
C1212 C1210 1.391 . S
C1212 C1213 1.400 . S
C1213 C1207 1.491 . S
C1213 C1212 1.400 . S
C1213 C1214 1.398 . S
C1214 H1202 0.950 . S
C1214 C1213 1.398 . S
C1214 C1215 1.391 . S
C1215 H1203 0.950 . S
C1215 C1211 1.393 . S
C1215 C1214 1.391 . S
H1216 C1224 0.950 . S
H1217 C1229 0.950 . S
H1218 C1226 0.950 . S
H1219 C1228 0.950 . S
H1220 C1230 0.950 . S
H1221 C1232 0.950 . S
H1222 C1234 0.950 . S
H1223 C1235 0.950 . S
C1224 H1216 0.950 . S
C1224 C1225 1.386 . S
C1224 C1226 1.391 . S
C1225 C1224 1.386 . S
C1225 C1229 1.393 . S
C1226 H1218 0.950 . S
C1226 C1224 1.391 . S
C1226 C1227 1.400 . S
C1227 C1226 1.400 . S
C1227 C1228 1.398 . S
C1227 C1233 1.491 . S
C1228 H1219 0.950 . S
C1228 C1227 1.398 . S
C1228 C1229 1.391 . S
C1229 H1217 0.950 . S
C1229 C1225 1.393 . S
C1229 C1228 1.391 . S
C1230 H1220 0.950 . S
C1230 C1231 1.386 . S
C1230 C1232 1.391 . S
C1231 C1230 1.386 . S
C1231 C1235 1.393 . S
C1232 H1221 0.950 . S
C1232 C1230 1.391 . S
C1232 C1233 1.400 . S
C1233 C1227 1.491 . S
C1233 C1232 1.400 . S
C1233 C1234 1.398 . S
C1234 H1222 0.950 . S
C1234 C1233 1.398 . S
C1234 C1235 1.391 . S
C1235 H1223 0.950 . S
C1235 C1231 1.393 . S
C1235 C1234 1.391 . S
H1236 C1244 0.950 . S
H1237 C1249 0.950 . S
H1238 C1246 0.950 . S
H1239 C1248 0.950 . S
H1240 C1250 0.950 . S
H1241 C1252 0.950 . S
H1242 C1254 0.950 . S
H1243 C1255 0.950 . S
C1244 H1236 0.950 . S
C1244 C1245 1.386 . S
C1244 C1246 1.391 . S
C1245 C1244 1.386 . S
C1245 C1249 1.393 . S
C1246 H1238 0.950 . S
C1246 C1244 1.391 . S
C1246 C1247 1.400 . S
C1247 C1246 1.400 . S
C1247 C1248 1.398 . S
C1247 C1253 1.491 . S
C1248 H1239 0.950 . S
C1248 C1247 1.398 . S
C1248 C1249 1.391 . S
C1249 H1237 0.950 . S
C1249 C1245 1.393 . S
C1249 C1248 1.391 . S
C1250 H1240 0.950 . S
C1250 C1251 1.386 . S
C1250 C1252 1.391 . S
C1251 C1250 1.386 . S
C1251 C1255 1.393 . S
C1252 H1241 0.950 . S
C1252 C1250 1.391 . S
C1252 C1253 1.400 . S
C1253 C1247 1.491 . S
C1253 C1252 1.400 . S
C1253 C1254 1.398 . S
C1254 H1242 0.950 . S
C1254 C1253 1.398 . S
C1254 C1255 1.391 . S
C1255 H1243 0.950 . S
C1255 C1251 1.393 . S
C1255 C1254 1.391 . S
H1256 C1264 0.950 . S
H1257 C1269 0.950 . S
H1258 C1266 0.950 . S
H1259 C1268 0.950 . S
H1260 C1270 0.950 . S
H1261 C1272 0.950 . S
H1262 C1274 0.950 . S
H1263 C1275 0.950 . S
C1264 H1256 0.950 . S
C1264 C1265 1.386 . S
C1264 C1266 1.391 . S
C1265 C1264 1.386 . S
C1265 C1269 1.393 . S
C1266 H1258 0.950 . S
C1266 C1264 1.391 . S
C1266 C1267 1.400 . S
C1267 C1266 1.400 . S
C1267 C1268 1.398 . S
C1267 C1273 1.491 1_565 S
C1268 H1259 0.950 . S
C1268 C1267 1.398 . S
C1268 C1269 1.391 . S
C1269 H1257 0.950 . S
C1269 C1265 1.393 . S
C1269 C1268 1.391 . S
C1270 H1260 0.950 . S
C1270 C1271 1.386 . S
C1270 C1272 1.391 . S
C1271 C1270 1.386 . S
C1271 C1275 1.393 . S
C1272 H1261 0.950 . S
C1272 C1270 1.391 . S
C1272 C1273 1.400 . S
C1273 C1267 1.491 1_545 S
C1273 C1272 1.400 . S
C1273 C1274 1.398 . S
C1274 H1262 0.950 . S
C1274 C1273 1.398 . S
C1274 C1275 1.391 . S
C1275 H1263 0.950 . S
C1275 C1271 1.393 . S
C1275 C1274 1.391 . S
H1276 C1284 0.950 . S
H1277 C1289 0.950 . S
H1278 C1286 0.950 1_455 S
H1279 C1288 0.950 . S
H1280 C1290 0.950 . S
H1281 C1292 0.950 . S
H1282 C1294 0.950 . S
H1283 C1295 0.950 . S
C1284 H1276 0.950 . S
C1284 C1285 1.386 . S
C1284 C1286 1.391 . S
C1285 C1284 1.386 . S
C1285 C1289 1.393 . S
C1286 H1278 0.950 1_655 S
C1286 C1284 1.391 . S
C1286 C1287 1.400 . S
C1287 C1286 1.400 . S
C1287 C1288 1.398 . S
C1287 C1293 1.491 1_655 S
C1288 H1279 0.950 . S
C1288 C1287 1.398 . S
C1288 C1289 1.391 . S
C1289 H1277 0.950 . S
C1289 C1285 1.393 . S
C1289 C1288 1.391 . S
C1290 H1280 0.950 . S
C1290 C1291 1.386 . S
C1290 C1292 1.391 . S
C1291 C1290 1.386 . S
C1291 C1295 1.393 . S
C1292 H1281 0.950 . S
C1292 C1290 1.391 . S
C1292 C1293 1.400 . S
C1293 C1287 1.491 1_455 S
C1293 C1292 1.400 . S
C1293 C1294 1.398 . S
C1294 H1282 0.950 . S
C1294 C1293 1.398 . S
C1294 C1295 1.391 . S
C1295 H1283 0.950 . S
C1295 C1291 1.393 . S
C1295 C1294 1.391 . S
C765 C142 1.192 . S
C771 C56 1.332 1_554 S
C785 C226 1.141 . S
C791 C140 1.335 1_554 S
C805 C224 1.333 1_554 S
C811 C58 1.193 . S
C825 C238 1.181 . S
C831 C151 1.319 . S
C845 C235 1.336 . S
C851 C70 1.149 . S
C865 C67 1.330 . S
C871 C154 1.200 . S
C885 C308 1.326 . S
C891 C394 1.144 . S
C905 C478 1.142 . S
C911 C392 1.330 . S
C925 C476 1.349 . S
C931 C310 1.152 . S
C945 C403 1.320 . S
C951 C490 1.166 . S
C965 C487 1.332 . S
C971 C322 1.150 . S
C985 C406 1.178 . S
C991 C319 1.319 . S
C1005 C646 1.148 . S
C1011 C560 1.323 . S
C1025 C644 1.360 . S
C1031 C730 1.190 . S
C1045 C728 1.321 . S
C1051 C562 1.166 . S
C1065 C742 1.170 . S
C1071 C655 1.319 . S
C1085 C739 1.334 . S
C1091 C574 1.194 . S
C1105 C571 1.319 . S
C1111 C658 1.169 . S
C1125 C494 2.556 . S
C1131 C63 2.633 . S
C1145 C326 2.576 . S
C1151 C147 2.627 . S
C1165 C231 2.630 . S
C1171 C410 2.574 . S
C1185 C242 2.572 . S
C1191 C567 2.623 . S
C1205 C74 2.576 . S
C1211 C651 2.626 . S
C1225 C735 2.637 . S
C1231 C158 2.555 . S
C1245 C315 2.623 . S
C1251 C746 2.573 . S
C1265 C399 2.626 . S
C1271 C578 2.563 . S
C1285 C662 2.575 . S
C1291 C483 2.630 . S
