# Generated by pormake.
# Topology vcc, (6)-cn, num edge types: 1
# Building blocks:
#     Node 0, Type 0, BuildingBlock: BETDEL_clean_sbu_0, # of connection points: 6
#     Node 1, Type 0, BuildingBlock: BETDEL_clean_sbu_0, # of connection points: 6
#     Node 2, Type 0, BuildingBlock: BETDEL_clean_sbu_0, # of connection points: 6
#     Node 3, Type 0, BuildingBlock: BETDEL_clean_sbu_0, # of connection points: 6
#     Node 4, Type 0, BuildingBlock: BETDEL_clean_sbu_0, # of connection points: 6
#     Node 5, Type 0, BuildingBlock: BETDEL_clean_sbu_0, # of connection points: 6
#     Node 6, Type 0, BuildingBlock: BETDEL_clean_sbu_0, # of connection points: 6
#     Node 7, Type 0, BuildingBlock: BETDEL_clean_sbu_0, # of connection points: 6
#     Node 8, Type 0, BuildingBlock: BETDEL_clean_sbu_0, # of connection points: 6
#     Node 9, Type 0, BuildingBlock: BETDEL_clean_sbu_0, # of connection points: 6
#     Node 10, Type 0, BuildingBlock: BETDEL_clean_sbu_0, # of connection points: 6
#     Node 11, Type 0, BuildingBlock: BETDEL_clean_sbu_0, # of connection points: 6
#     Node 12, Type 0, BuildingBlock: BETDEL_clean_sbu_0, # of connection points: 6
#     Node 13, Type 0, BuildingBlock: BETDEL_clean_sbu_0, # of connection points: 6
#     Node 14, Type 0, BuildingBlock: BETDEL_clean_sbu_0, # of connection points: 6
#     Node 15, Type 0, BuildingBlock: BETDEL_clean_sbu_0, # of connection points: 6
#     Node 16, Type 0, BuildingBlock: BETDEL_clean_sbu_0, # of connection points: 6
#     Node 17, Type 0, BuildingBlock: BETDEL_clean_sbu_0, # of connection points: 6
#     Node 18, Type 0, BuildingBlock: BETDEL_clean_sbu_0, # of connection points: 6
#     Node 19, Type 0, BuildingBlock: BETDEL_clean_sbu_0, # of connection points: 6
#     Node 20, Type 0, BuildingBlock: BETDEL_clean_sbu_0, # of connection points: 6
#     Node 21, Type 0, BuildingBlock: BETDEL_clean_sbu_0, # of connection points: 6
#     Node 22, Type 0, BuildingBlock: BETDEL_clean_sbu_0, # of connection points: 6
#     Node 23, Type 0, BuildingBlock: BETDEL_clean_sbu_0, # of connection points: 6
#     Node 24, Type 0, BuildingBlock: BETDEL_clean_sbu_0, # of connection points: 6
#     Node 25, Type 0, BuildingBlock: BETDEL_clean_sbu_0, # of connection points: 6
#     Node 26, Type 0, BuildingBlock: BETDEL_clean_sbu_0, # of connection points: 6
#     Node 27, Type 0, BuildingBlock: BETDEL_clean_sbu_0, # of connection points: 6
#     Node 28, Type 0, BuildingBlock: BETDEL_clean_sbu_0, # of connection points: 6
#     Node 29, Type 0, BuildingBlock: BETDEL_clean_sbu_0, # of connection points: 6
#     Node 30, Type 0, BuildingBlock: BETDEL_clean_sbu_0, # of connection points: 6
#     Node 31, Type 0, BuildingBlock: BETDEL_clean_sbu_0, # of connection points: 6
#     Edge 32, Type (0, 0), BuildingBlock: UVAHIK_clean_linker_0, # of connection points: 2
#     Edge 33, Type (0, 0), BuildingBlock: UVAHIK_clean_linker_0, # of connection points: 2
#     Edge 34, Type (0, 0), BuildingBlock: UVAHIK_clean_linker_0, # of connection points: 2
#     Edge 35, Type (0, 0), BuildingBlock: UVAHIK_clean_linker_0, # of connection points: 2
#     Edge 36, Type (0, 0), BuildingBlock: UVAHIK_clean_linker_0, # of connection points: 2
#     Edge 37, Type (0, 0), BuildingBlock: UVAHIK_clean_linker_0, # of connection points: 2
#     Edge 38, Type (0, 0), BuildingBlock: UVAHIK_clean_linker_0, # of connection points: 2
#     Edge 39, Type (0, 0), BuildingBlock: UVAHIK_clean_linker_0, # of connection points: 2
#     Edge 40, Type (0, 0), BuildingBlock: UVAHIK_clean_linker_0, # of connection points: 2
#     Edge 41, Type (0, 0), BuildingBlock: UVAHIK_clean_linker_0, # of connection points: 2
#     Edge 42, Type (0, 0), BuildingBlock: UVAHIK_clean_linker_0, # of connection points: 2
#     Edge 43, Type (0, 0), BuildingBlock: UVAHIK_clean_linker_0, # of connection points: 2
#     Edge 44, Type (0, 0), BuildingBlock: UVAHIK_clean_linker_0, # of connection points: 2
#     Edge 45, Type (0, 0), BuildingBlock: UVAHIK_clean_linker_0, # of connection points: 2
#     Edge 46, Type (0, 0), BuildingBlock: UVAHIK_clean_linker_0, # of connection points: 2
#     Edge 47, Type (0, 0), BuildingBlock: UVAHIK_clean_linker_0, # of connection points: 2
#     Edge 48, Type (0, 0), BuildingBlock: UVAHIK_clean_linker_0, # of connection points: 2
#     Edge 49, Type (0, 0), BuildingBlock: UVAHIK_clean_linker_0, # of connection points: 2
#     Edge 50, Type (0, 0), BuildingBlock: UVAHIK_clean_linker_0, # of connection points: 2
#     Edge 51, Type (0, 0), BuildingBlock: UVAHIK_clean_linker_0, # of connection points: 2
#     Edge 52, Type (0, 0), BuildingBlock: UVAHIK_clean_linker_0, # of connection points: 2
#     Edge 53, Type (0, 0), BuildingBlock: UVAHIK_clean_linker_0, # of connection points: 2
#     Edge 54, Type (0, 0), BuildingBlock: UVAHIK_clean_linker_0, # of connection points: 2
#     Edge 55, Type (0, 0), BuildingBlock: UVAHIK_clean_linker_0, # of connection points: 2
#     Edge 56, Type (0, 0), BuildingBlock: UVAHIK_clean_linker_0, # of connection points: 2
#     Edge 57, Type (0, 0), BuildingBlock: UVAHIK_clean_linker_0, # of connection points: 2
#     Edge 58, Type (0, 0), BuildingBlock: UVAHIK_clean_linker_0, # of connection points: 2
#     Edge 59, Type (0, 0), BuildingBlock: UVAHIK_clean_linker_0, # of connection points: 2
#     Edge 60, Type (0, 0), BuildingBlock: UVAHIK_clean_linker_0, # of connection points: 2
#     Edge 61, Type (0, 0), BuildingBlock: UVAHIK_clean_linker_0, # of connection points: 2
#     Edge 62, Type (0, 0), BuildingBlock: UVAHIK_clean_linker_0, # of connection points: 2
#     Edge 63, Type (0, 0), BuildingBlock: UVAHIK_clean_linker_0, # of connection points: 2
#     Edge 64, Type (0, 0), BuildingBlock: UVAHIK_clean_linker_0, # of connection points: 2
#     Edge 65, Type (0, 0), BuildingBlock: UVAHIK_clean_linker_0, # of connection points: 2
#     Edge 66, Type (0, 0), BuildingBlock: UVAHIK_clean_linker_0, # of connection points: 2
#     Edge 67, Type (0, 0), BuildingBlock: UVAHIK_clean_linker_0, # of connection points: 2
#     Edge 68, Type (0, 0), BuildingBlock: UVAHIK_clean_linker_0, # of connection points: 2
#     Edge 69, Type (0, 0), BuildingBlock: UVAHIK_clean_linker_0, # of connection points: 2
#     Edge 70, Type (0, 0), BuildingBlock: UVAHIK_clean_linker_0, # of connection points: 2
#     Edge 71, Type (0, 0), BuildingBlock: UVAHIK_clean_linker_0, # of connection points: 2
#     Edge 72, Type (0, 0), BuildingBlock: UVAHIK_clean_linker_0, # of connection points: 2
#     Edge 73, Type (0, 0), BuildingBlock: UVAHIK_clean_linker_0, # of connection points: 2
#     Edge 74, Type (0, 0), BuildingBlock: UVAHIK_clean_linker_0, # of connection points: 2
#     Edge 75, Type (0, 0), BuildingBlock: UVAHIK_clean_linker_0, # of connection points: 2
#     Edge 76, Type (0, 0), BuildingBlock: UVAHIK_clean_linker_0, # of connection points: 2
#     Edge 77, Type (0, 0), BuildingBlock: UVAHIK_clean_linker_0, # of connection points: 2
#     Edge 78, Type (0, 0), BuildingBlock: UVAHIK_clean_linker_0, # of connection points: 2
#     Edge 79, Type (0, 0), BuildingBlock: UVAHIK_clean_linker_0, # of connection points: 2
#     Edge 80, Type (0, 0), BuildingBlock: UVAHIK_clean_linker_0, # of connection points: 2
#     Edge 81, Type (0, 0), BuildingBlock: UVAHIK_clean_linker_0, # of connection points: 2
#     Edge 82, Type (0, 0), BuildingBlock: UVAHIK_clean_linker_0, # of connection points: 2
#     Edge 83, Type (0, 0), BuildingBlock: UVAHIK_clean_linker_0, # of connection points: 2
#     Edge 84, Type (0, 0), BuildingBlock: UVAHIK_clean_linker_0, # of connection points: 2
#     Edge 85, Type (0, 0), BuildingBlock: UVAHIK_clean_linker_0, # of connection points: 2
#     Edge 86, Type (0, 0), BuildingBlock: UVAHIK_clean_linker_0, # of connection points: 2
#     Edge 87, Type (0, 0), BuildingBlock: UVAHIK_clean_linker_0, # of connection points: 2
#     Edge 88, Type (0, 0), BuildingBlock: UVAHIK_clean_linker_0, # of connection points: 2
#     Edge 89, Type (0, 0), BuildingBlock: UVAHIK_clean_linker_0, # of connection points: 2
#     Edge 90, Type (0, 0), BuildingBlock: UVAHIK_clean_linker_0, # of connection points: 2
#     Edge 91, Type (0, 0), BuildingBlock: UVAHIK_clean_linker_0, # of connection points: 2
#     Edge 92, Type (0, 0), BuildingBlock: UVAHIK_clean_linker_0, # of connection points: 2
#     Edge 93, Type (0, 0), BuildingBlock: UVAHIK_clean_linker_0, # of connection points: 2
#     Edge 94, Type (0, 0), BuildingBlock: UVAHIK_clean_linker_0, # of connection points: 2
#     Edge 95, Type (0, 0), BuildingBlock: UVAHIK_clean_linker_0, # of connection points: 2
#     Edge 96, Type (0, 0), BuildingBlock: UVAHIK_clean_linker_0, # of connection points: 2
#     Edge 97, Type (0, 0), BuildingBlock: UVAHIK_clean_linker_0, # of connection points: 2
#     Edge 98, Type (0, 0), BuildingBlock: UVAHIK_clean_linker_0, # of connection points: 2
#     Edge 99, Type (0, 0), BuildingBlock: UVAHIK_clean_linker_0, # of connection points: 2
#     Edge 100, Type (0, 0), BuildingBlock: UVAHIK_clean_linker_0, # of connection points: 2
#     Edge 101, Type (0, 0), BuildingBlock: UVAHIK_clean_linker_0, # of connection points: 2
#     Edge 102, Type (0, 0), BuildingBlock: UVAHIK_clean_linker_0, # of connection points: 2
#     Edge 103, Type (0, 0), BuildingBlock: UVAHIK_clean_linker_0, # of connection points: 2
#     Edge 104, Type (0, 0), BuildingBlock: UVAHIK_clean_linker_0, # of connection points: 2
#     Edge 105, Type (0, 0), BuildingBlock: UVAHIK_clean_linker_0, # of connection points: 2
#     Edge 106, Type (0, 0), BuildingBlock: UVAHIK_clean_linker_0, # of connection points: 2
#     Edge 107, Type (0, 0), BuildingBlock: UVAHIK_clean_linker_0, # of connection points: 2
#     Edge 108, Type (0, 0), BuildingBlock: UVAHIK_clean_linker_0, # of connection points: 2
#     Edge 109, Type (0, 0), BuildingBlock: UVAHIK_clean_linker_0, # of connection points: 2
#     Edge 110, Type (0, 0), BuildingBlock: UVAHIK_clean_linker_0, # of connection points: 2
#     Edge 111, Type (0, 0), BuildingBlock: UVAHIK_clean_linker_0, # of connection points: 2
#     Edge 112, Type (0, 0), BuildingBlock: UVAHIK_clean_linker_0, # of connection points: 2
#     Edge 113, Type (0, 0), BuildingBlock: UVAHIK_clean_linker_0, # of connection points: 2
#     Edge 114, Type (0, 0), BuildingBlock: UVAHIK_clean_linker_0, # of connection points: 2
#     Edge 115, Type (0, 0), BuildingBlock: UVAHIK_clean_linker_0, # of connection points: 2
#     Edge 116, Type (0, 0), BuildingBlock: UVAHIK_clean_linker_0, # of connection points: 2
#     Edge 117, Type (0, 0), BuildingBlock: UVAHIK_clean_linker_0, # of connection points: 2
#     Edge 118, Type (0, 0), BuildingBlock: UVAHIK_clean_linker_0, # of connection points: 2
#     Edge 119, Type (0, 0), BuildingBlock: UVAHIK_clean_linker_0, # of connection points: 2
#     Edge 120, Type (0, 0), BuildingBlock: UVAHIK_clean_linker_0, # of connection points: 2
#     Edge 121, Type (0, 0), BuildingBlock: UVAHIK_clean_linker_0, # of connection points: 2
#     Edge 122, Type (0, 0), BuildingBlock: UVAHIK_clean_linker_0, # of connection points: 2
#     Edge 123, Type (0, 0), BuildingBlock: UVAHIK_clean_linker_0, # of connection points: 2
#     Edge 124, Type (0, 0), BuildingBlock: UVAHIK_clean_linker_0, # of connection points: 2
#     Edge 125, Type (0, 0), BuildingBlock: UVAHIK_clean_linker_0, # of connection points: 2
#     Edge 126, Type (0, 0), BuildingBlock: UVAHIK_clean_linker_0, # of connection points: 2
#     Edge 127, Type (0, 0), BuildingBlock: UVAHIK_clean_linker_0, # of connection points: 2
# Relax obj value: 0.066
# Max RMSD: 0.126
# Mean RMSD: 0.126
data_MOF--net-vcc--node1-BETDEL_clean_sbu_0--edge1-UVAHIK_clean_linker_0
_symmetry_space_group_name_H-M    P1
_symmetry_Int_Tables_number       1
_symmetry_cell_setting            triclinic
loop_
_symmetry_equiv_pos_as_xyz
'x, y, z'
_cell_length_a     52.611623
_cell_length_b     71.614701
_cell_length_c     56.65879
_cell_angle_alpha  90.016615
_cell_angle_beta   89.969328
_cell_angle_gamma 90.027003
loop_
_atom_site_label
_atom_site_type_symbol
_atom_site_fract_x
_atom_site_fract_y
_atom_site_fract_z
_atom_type_partial_charge
Dy0 Dy 0.33673 0.02464 0.0541 0.0
C1 C 0.27005 0.02566 0.13501 0.0
C2 C 0.35797 1.01913 0.01038 0.0
Dy3 Dy 0.29525 0.02214 0.0928 0.0
O4 O 0.35857 0.03469 0.02222 0.0
O5 O 0.34717 1.00631 0.02316 0.0
O6 O 0.35274 0.05043 0.07014 0.0
O7 O 0.31329 0.045 0.07322 0.0
C8 C 0.33133 0.05561 0.07971 0.0
C9 C 0.30491 0.99013 0.06898 0.0
O10 O 0.27125 0.03508 0.06478 0.0
O11 O 0.29985 0.02808 0.03485 0.0
O12 O 0.26457 1.01362 0.1186 0.0
O13 O 0.28874 0.03613 0.12799 0.0
O14 O 0.28273 0.99421 0.07771 0.0
O15 O 0.32029 1.00258 0.07514 0.0
O16 O 0.36187 1.01393 0.08291 0.0
O17 O 0.33185 1.01872 0.11271 0.0
C18 C 0.27737 0.03405 0.04214 0.0
C19 C 0.35519 1.01441 0.10555 0.0
Dy20 Dy 0.87883 0.27916 0.05225 0.0
C21 C 0.94378 0.27285 0.13611 0.0
C22 C 0.85855 0.28175 0.00789 0.0
Dy23 Dy 0.92065 0.28075 0.09423 0.0
O24 O 0.86273 0.26632 0.01931 0.0
O25 O 0.86426 0.29593 0.02128 0.0
O26 O 0.86064 0.25465 0.06991 0.0
O27 O 0.89991 0.25931 0.07432 0.0
C28 C 0.88126 0.24937 0.0808 0.0
C29 C 0.91238 0.31452 0.07393 0.0
O30 O 0.94455 0.26833 0.06567 0.0
O31 O 0.91644 0.27459 0.03468 0.0
O32 O 0.95433 0.28199 0.11877 0.0
O33 O 0.92103 0.26753 0.13013 0.0
O34 O 0.92871 0.31205 0.09089 0.0
O35 O 0.90346 0.29878 0.06904 0.0
O36 O 0.85563 0.29341 0.07983 0.0
O37 O 0.88323 0.28693 0.11139 0.0
C38 C 0.93881 0.26894 0.04285 0.0
C39 C 0.86147 0.29336 0.10266 0.0
Dy40 Dy 0.33717 0.26905 0.21177 0.0
C41 C 0.27013 0.26308 0.12916 0.0
C42 C 0.35784 0.2728 0.25593 0.0
Dy43 Dy 0.29418 0.27064 0.17078 0.0
O44 O 0.35604 0.25727 0.24417 0.0
O45 O 0.34968 0.28652 0.24291 0.0
O46 O 0.35467 0.24444 0.19366 0.0
O47 O 0.31526 0.24924 0.19041 0.0
C48 C 0.3336 0.23921 0.18343 0.0
C49 C 0.30359 0.3045 0.19053 0.0
O50 O 0.2706 0.25848 0.19983 0.0
O51 O 0.30042 0.2628 0.23008 0.0
O52 O 0.26024 0.27254 0.14657 0.0
O53 O 0.29265 0.25718 0.135 0.0
O54 O 0.28675 0.30204 0.174 0.0
O55 O 0.31247 0.28874 0.19529 0.0
O56 O 0.35961 0.28304 0.18342 0.0
O57 O 0.33148 0.27565 0.15269 0.0
C58 C 0.27753 0.25789 0.22238 0.0
C59 C 0.35353 0.28221 0.16065 0.0
Dy60 Dy 0.87476 0.03447 0.21183 0.0
C61 C 0.93304 0.03292 0.12588 0.0
C62 C 0.8566 0.02805 0.25648 0.0
Dy63 Dy 0.91051 0.03134 0.16958 0.0
O64 O 0.85433 0.04364 0.2449 0.0
O65 O 0.86759 1.01572 0.24312 0.0
O66 O 0.86063 0.06225 0.20047 0.0
O67 O 0.89846 0.05461 0.19216 0.0
C68 C 0.88116 0.06671 0.18891 0.0
C69 C 0.89952 0.99872 0.19165 0.0
O70 O 0.93885 0.04218 0.19541 0.0
O71 O 0.91365 0.0351 0.22778 0.0
O72 O 0.91319 0.04239 0.13231 0.0
O73 O 0.94101 0.02301 0.14355 0.0
O74 O 0.92111 1.00216 0.18154 0.0
O75 O 0.88488 1.01217 0.18777 0.0
O76 O 0.84561 0.02659 0.18491 0.0
O77 O 0.87194 0.03377 0.15317 0.0
C78 C 0.93562 0.04015 0.2184 0.0
C79 C 0.84926 0.02974 0.16207 0.0
Dy80 Dy 0.66793 0.02317 0.91751 0.0
C81 C 0.6073 0.02573 1.00449 0.0
C82 C 0.69204 1.0162 0.87573 0.0
Dy83 Dy 0.62655 1.02146 0.95983 0.0
O84 O 0.70193 0.02526 0.89344 0.0
O85 O 0.6694 1.01034 0.88131 0.0
O86 O 0.67523 0.0546 0.92035 0.0
O87 O 0.65082 0.04122 0.94285 0.0
C88 C 0.65928 0.05703 0.93762 0.0
C89 C 0.62866 0.99174 0.93107 0.0
O90 O 0.60339 0.03579 0.93231 0.0
O91 O 0.63013 0.02824 0.90057 0.0
O92 O 0.60799 1.01015 0.99271 0.0
O93 O 0.61585 0.0392 0.99127 0.0
O94 O 0.60805 0.99716 0.94198 0.0
O95 O 0.64742 1.00159 0.93758 0.0
O96 O 0.69275 1.01141 0.94578 0.0
O97 O 0.66364 1.01439 0.97695 0.0
C98 C 0.60858 0.03503 0.90935 0.0
C99 C 0.68645 1.01022 0.96843 0.0
Dy100 Dy 0.04905 0.76873 0.92015 0.0
C101 C 0.10976 0.76593 1.00717 0.0
C102 C 0.02487 0.77702 0.8788 0.0
Dy103 Dy 0.09007 0.76929 0.96261 0.0
O104 O 0.01501 0.76735 0.89602 0.0
O105 O 0.04752 0.78266 0.88462 0.0
O106 O 0.04251 0.73709 0.92093 0.0
O107 O 0.06673 0.74984 0.94411 0.0
C108 C 0.05859 0.73417 0.93795 0.0
C109 C 0.08709 0.80037 0.93625 0.0
O110 O 0.11386 0.75646 0.93425 0.0
O111 O 0.08716 0.7653 0.90309 0.0
O112 O 0.10524 0.78153 0.99627 0.0
O113 O 0.1048 0.75199 0.99311 0.0
O114 O 0.10767 0.79477 0.94692 0.0
O115 O 0.06857 0.78989 0.94176 0.0
O116 O 0.02421 0.77923 0.94932 0.0
O117 O 0.05206 0.77187 0.98006 0.0
C118 C 0.1088 0.75828 0.91135 0.0
C119 C 0.02959 0.77745 0.97212 0.0
Dy120 Dy 0.66562 0.77427 0.84576 0.0
C121 C 0.6018 0.77303 0.76067 0.0
C122 C 0.68987 0.78201 0.88719 0.0
Dy123 Dy 0.62253 0.77598 0.80487 0.0
O124 O 0.69966 0.77248 0.86981 0.0
O125 O 0.66732 0.78791 0.88142 0.0
O126 O 0.67338 0.74296 0.84221 0.0
O127 O 0.64769 0.75629 0.82085 0.0
C128 C 0.65668 0.74053 0.82554 0.0
C129 C 0.62592 0.80564 0.83363 0.0
O130 O 0.60027 0.76152 0.833 0.0
O131 O 0.62872 0.76807 0.86384 0.0
O132 O 0.60806 0.78853 0.7711 0.0
O133 O 0.60548 0.7591 0.77505 0.0
O134 O 0.60487 0.8004 0.82336 0.0
O135 O 0.64427 0.79573 0.82642 0.0
O136 O 0.6892 0.78601 0.81659 0.0
O137 O 0.65967 0.7805 0.78643 0.0
C138 C 0.60676 0.76152 0.85568 0.0
C139 C 0.68247 0.78572 0.794 0.0
Dy140 Dy 0.0459 1.01629 0.84543 0.0
C141 C 0.10817 1.02022 0.75952 0.0
C142 C 0.02072 1.00915 0.88661 0.0
Dy143 Dy 0.08809 1.01562 0.8038 0.0
O144 O 0.04406 1.00431 0.88207 0.0
O145 O 0.01081 1.0173 0.86823 0.0
O146 O 0.03735 0.04755 0.8425 0.0
O147 O 0.0628 0.03482 0.82048 0.0
C148 C 0.05362 0.05042 0.82561 0.0
C149 C 0.08661 0.98555 0.83204 0.0
O150 O 0.11021 0.03014 0.83193 0.0
O151 O 0.08322 1.0217 0.8631 0.0
O152 O 0.1069 1.00452 0.77099 0.0
O153 O 0.09974 0.03365 0.77288 0.0
O154 O 0.10705 0.99134 0.82117 0.0
O155 O 0.06762 0.9952 0.82565 0.0
O156 O 0.02256 1.00334 0.81678 0.0
O157 O 0.05151 1.00829 0.78595 0.0
C158 C 0.10464 0.02907 0.8548 0.0
C159 C 0.02906 1.00281 0.79413 0.0
Dy160 Dy 0.339 0.51961 0.55415 0.0
C161 C 0.27159 0.52542 0.63635 0.0
C162 C 0.36032 0.51621 0.51026 0.0
Dy163 Dy 0.2956 0.51799 0.59466 0.0
O164 O 0.35727 0.53178 0.5217 0.0
O165 O 0.353 0.50232 0.52343 0.0
O166 O 0.35709 0.54358 0.57305 0.0
O167 O 0.31746 0.53949 0.57581 0.0
C168 C 0.3361 0.54907 0.5832 0.0
C169 C 0.30428 0.48426 0.57432 0.0
O170 O 0.27239 0.53033 0.56552 0.0
O171 O 0.30246 0.52584 0.53552 0.0
O172 O 0.26159 0.51619 0.61882 0.0
O173 O 0.29419 0.53122 0.63058 0.0
O174 O 0.28734 0.48676 0.59076 0.0
O175 O 0.3136 0.49996 0.56988 0.0
O176 O 0.36094 0.5049 0.58215 0.0
O177 O 0.33234 0.51143 0.61289 0.0
C178 C 0.27952 0.53082 0.54301 0.0
C179 C 0.35434 0.50489 0.6048 0.0
Dy180 Dy 0.87871 0.77073 0.55366 0.0
C181 C 0.94149 0.76824 0.63652 0.0
C182 C 0.8578 0.77654 0.50989 0.0
Dy183 Dy 0.91748 0.7724 0.59387 0.0
O184 O 0.85823 0.76069 0.52106 0.0
O185 O 0.86757 0.78942 0.52326 0.0
O186 O 0.86321 0.74388 0.56722 0.0
O187 O 0.90226 0.74982 0.57193 0.0
C188 C 0.88444 0.73853 0.5769 0.0
C189 C 0.90763 0.80537 0.57228 0.0
O190 O 0.94292 0.76071 0.56609 0.0
O191 O 0.91674 0.7705 0.53578 0.0
O192 O 0.94827 0.77984 0.62004 0.0
O193 O 0.92211 0.75856 0.62936 0.0
O194 O 0.92957 0.80118 0.58134 0.0
O195 O 0.89232 0.79247 0.57696 0.0
O196 O 0.85173 0.77974 0.58195 0.0
O197 O 0.87982 0.77288 0.61247 0.0
C198 C 0.93873 0.7639 0.54343 0.0
C199 C 0.85681 0.7774 0.60473 0.0
Dy200 Dy 0.34219 0.76488 0.71036 0.0
C201 C 0.27409 0.7568 0.62892 0.0
C202 C 0.36343 0.76992 0.75403 0.0
Dy203 Dy 0.29859 0.7652 0.67004 0.0
O204 O 0.36123 0.75401 0.74316 0.0
O205 O 0.35537 0.78325 0.74036 0.0
O206 O 0.36001 0.7402 0.69271 0.0
O207 O 0.3204 0.74432 0.68996 0.0
C208 C 0.33891 0.73442 0.68301 0.0
C209 C 0.30739 0.79953 0.68876 0.0
O210 O 0.2756 0.75361 0.69986 0.0
O211 O 0.30577 0.75909 0.72948 0.0
O212 O 0.26431 0.76643 0.64622 0.0
O213 O 0.29675 0.75113 0.63465 0.0
O214 O 0.29035 0.79656 0.67256 0.0
O215 O 0.31683 0.78398 0.69369 0.0
O216 O 0.36363 0.77899 0.68143 0.0
O217 O 0.33545 0.77047 0.65127 0.0
C218 C 0.28281 0.75383 0.72235 0.0
C219 C 0.3573 0.7777 0.65876 0.0
Dy220 Dy 0.87951 0.5262 0.71066 0.0
C221 C 0.94624 0.52945 0.62762 0.0
C222 C 0.85855 0.52415 0.75487 0.0
Dy223 Dy 0.92205 0.52297 0.66945 0.0
O224 O 0.86317 0.53946 0.74332 0.0
O225 O 0.86409 0.50984 0.74165 0.0
O226 O 0.86284 0.5508 0.69185 0.0
O227 O 0.90206 0.54519 0.68863 0.0
C228 C 0.88405 0.55542 0.68142 0.0
C229 C 0.91167 0.48967 0.69018 0.0
O230 O 0.94627 0.53475 0.69815 0.0
O231 O 0.91698 0.53025 0.72873 0.0
O232 O 0.95581 0.52005 0.64521 0.0
O233 O 0.92396 0.53591 0.63339 0.0
O234 O 0.92852 0.49155 0.67352 0.0
O235 O 0.9033 0.50566 0.69458 0.0
O236 O 0.85621 0.51214 0.68298 0.0
O237 O 0.88467 0.51765 0.65178 0.0
C238 C 0.93995 0.53479 0.72086 0.0
C239 C 0.86246 0.51183 0.66023 0.0
Dy240 Dy 0.6671 0.5238 0.4211 0.0
C241 C 0.60656 0.52438 0.50481 0.0
C242 C 0.69169 0.5211 0.3785 0.0
Dy243 Dy 0.62804 0.52036 0.46093 0.0
O244 O 0.69752 0.53271 0.39527 0.0
O245 O 0.67301 0.51057 0.38537 0.0
O246 O 0.67707 0.55287 0.43399 0.0
O247 O 0.64034 0.54279 0.43802 0.0
C248 C 0.65479 0.55618 0.4429 0.0
C249 C 0.63633 0.48869 0.43718 0.0
O250 O 0.60072 0.52859 0.43256 0.0
O251 O 0.6296 0.52288 0.40224 0.0
O252 O 0.60879 0.50876 0.49333 0.0
O253 O 0.61474 0.53798 0.49165 0.0
O254 O 0.61463 0.49315 0.44667 0.0
O255 O 0.65327 0.50054 0.44265 0.0
O256 O 0.69303 0.51304 0.4491 0.0
O257 O 0.66582 0.52214 0.47898 0.0
C258 C 0.60621 0.52648 0.40981 0.0
C259 C 0.68834 0.51632 0.47167 0.0
Dy260 Dy 0.04644 0.27146 0.42028 0.0
C261 C 0.10866 0.26648 0.50625 0.0
C262 C 0.02302 0.281 0.37908 0.0
Dy263 Dy 0.08834 0.27093 0.46211 0.0
O264 O 0.01259 0.27124 0.39593 0.0
O265 O 0.04581 0.28609 0.38525 0.0
O266 O 0.03799 0.24016 0.42129 0.0
O267 O 0.06351 0.25208 0.4441 0.0
C268 C 0.05429 0.2367 0.43799 0.0
C269 C 0.08619 0.30172 0.43523 0.0
O270 O 0.11074 0.25712 0.43356 0.0
O271 O 0.08395 0.26651 0.4027 0.0
O272 O 0.10591 0.28229 0.49531 0.0
O273 O 0.10158 0.25289 0.49246 0.0
O274 O 0.10696 0.2958 0.44533 0.0
O275 O 0.0675 0.29178 0.44154 0.0
O276 O 0.02272 0.28287 0.44956 0.0
O277 O 0.05093 0.27567 0.48014 0.0
C278 C 0.10531 0.25889 0.41073 0.0
C279 C 0.02854 0.28159 0.47231 0.0
Dy280 Dy 0.67003 0.27388 0.3429 0.0
C281 C 0.60923 0.27237 0.25928 0.0
C282 C 0.69435 0.27749 0.38545 0.0
Dy283 Dy 0.63072 0.27669 0.30309 0.0
O284 O 0.70049 0.26567 0.36901 0.0
O285 O 0.67549 0.2877 0.37828 0.0
O286 O 0.68094 0.24504 0.33005 0.0
O287 O 0.64386 0.25444 0.32596 0.0
C288 C 0.65878 0.2413 0.32113 0.0
C289 C 0.63845 0.3084 0.32693 0.0
O290 O 0.60373 0.26795 0.33149 0.0
O291 O 0.63249 0.27398 0.3618 0.0
O292 O 0.61095 0.288 0.27082 0.0
O293 O 0.61795 0.2589 0.27234 0.0
O294 O 0.61673 0.30378 0.31759 0.0
O295 O 0.65549 0.29673 0.32129 0.0
O296 O 0.69553 0.28509 0.3148 0.0
O297 O 0.66854 0.2756 0.28493 0.0
C298 C 0.6092 0.27002 0.35425 0.0
C299 C 0.69089 0.2818 0.29222 0.0
Dy300 Dy 0.04764 0.5163 0.34363 0.0
C301 C 0.11103 0.51957 0.25836 0.0
C302 C 0.02347 0.5085 0.38512 0.0
Dy303 Dy 0.09037 0.51543 0.30245 0.0
O304 O 0.01365 0.51801 0.36776 0.0
O305 O 0.046 0.50261 0.37928 0.0
O306 O 0.03969 0.54763 0.34103 0.0
O307 O 0.06561 0.53485 0.3194 0.0
C308 C 0.0564 0.55045 0.32448 0.0
C309 C 0.08739 0.48532 0.3304 0.0
O310 O 0.11272 0.52938 0.33092 0.0
O311 O 0.08489 0.52141 0.36165 0.0
O312 O 0.10842 0.50384 0.26957 0.0
O313 O 0.10368 0.53323 0.2719 0.0
O314 O 0.10835 0.49088 0.32023 0.0
O315 O 0.06884 0.49519 0.32354 0.0
O316 O 0.02381 0.50485 0.31439 0.0
O317 O 0.05341 0.50982 0.28411 0.0
C318 C 0.10676 0.5283 0.35371 0.0
C319 C 0.0305 0.50491 0.29177 0.0
Dy320 Dy 0.84642 0.02781 0.55399 0.0
C321 C 0.7778 0.03489 0.63526 0.0
C322 C 0.86795 0.02443 0.51016 0.0
Dy323 Dy 0.80292 0.02702 0.59425 0.0
O324 O 0.86508 0.03994 0.52176 0.0
O325 O 0.86043 1.01052 0.52323 0.0
O326 O 0.86419 0.05222 0.5723 0.0
O327 O 0.82454 0.04816 0.57465 0.0
C328 C 0.84301 0.05796 0.58186 0.0
C329 C 0.81174 0.99278 0.57539 0.0
O330 O 0.77988 0.03866 0.5646 0.0
O331 O 0.80993 0.03319 0.53488 0.0
O332 O 0.76822 0.02564 0.61755 0.0
O333 O 0.80066 0.04048 0.63003 0.0
O334 O 0.79472 0.99577 0.59161 0.0
O335 O 0.8212 1.00833 0.57034 0.0
O336 O 0.86776 1.01318 0.58247 0.0
O337 O 0.83981 1.02167 0.61285 0.0
C338 C 0.787 0.03841 0.5421 0.0
C339 C 0.86149 1.01429 0.60517 0.0
Dy340 Dy 0.37492 0.26481 0.55447 0.0
C341 C 0.4414 0.25921 0.63757 0.0
C342 C 0.35455 0.26883 0.51023 0.0
Dy343 Dy 0.41699 0.2663 0.59597 0.0
O344 O 0.35783 0.25308 0.52122 0.0
O345 O 0.36106 0.28255 0.52407 0.0
O346 O 0.3573 0.24001 0.57191 0.0
O347 O 0.39672 0.24472 0.57571 0.0
C348 C 0.37821 0.2346 0.58223 0.0
C349 C 0.40779 0.30035 0.57674 0.0
O350 O 0.4415 0.25531 0.56693 0.0
O351 O 0.41219 0.26001 0.53639 0.0
O352 O 0.45104 0.26852 0.61995 0.0
O353 O 0.41891 0.2531 0.63194 0.0
O354 O 0.42441 0.2977 0.59338 0.0
O355 O 0.39878 0.28467 0.5717 0.0
O356 O 0.35188 0.27847 0.58269 0.0
O357 O 0.37942 0.27077 0.61369 0.0
C358 C 0.43511 0.25542 0.54426 0.0
C359 C 0.35753 0.27742 0.60553 0.0
Dy360 Dy 0.84004 0.27286 0.71044 0.0
C361 C 0.77234 0.26465 0.6287 0.0
C362 C 0.86125 0.27762 0.75413 0.0
Dy363 Dy 0.79655 0.27329 0.66987 0.0
O364 O 0.85882 0.26175 0.74321 0.0
O365 O 0.85335 0.29106 0.74053 0.0
O366 O 0.85877 0.24888 0.6921 0.0
O367 O 0.81906 0.25247 0.68917 0.0
C368 C 0.83792 0.24306 0.68198 0.0
C369 C 0.80422 0.30729 0.68978 0.0
O370 O 0.7737 0.26105 0.69929 0.0
O371 O 0.80369 0.26609 0.72922 0.0
O372 O 0.76252 0.27451 0.64576 0.0
O373 O 0.79494 0.25895 0.63463 0.0
O374 O 0.78733 0.30441 0.6734 0.0
O375 O 0.81408 0.2918 0.69431 0.0
O376 O 0.8615 0.28749 0.68199 0.0
O377 O 0.83298 0.28035 0.65139 0.0
C378 C 0.78083 0.26083 0.7218 0.0
C379 C 0.85484 0.28725 0.65935 0.0
Dy380 Dy 0.37331 1.02019 0.71177 0.0
C381 C 0.44396 0.02431 0.63114 0.0
C382 C 0.35204 1.01745 0.75583 0.0
Dy383 Dy 0.41736 1.01814 0.67181 0.0
O384 O 0.35567 0.03287 0.7442 0.0
O385 O 0.35854 1.00333 0.74264 0.0
O386 O 0.35609 0.04443 0.69273 0.0
O387 O 0.39564 0.03983 0.69044 0.0
C388 C 0.37736 0.04965 0.68285 0.0
C389 C 0.40803 0.98456 0.69233 0.0
O390 O 0.44019 0.03049 0.70116 0.0
O391 O 0.40982 0.0257 0.73077 0.0
O392 O 0.45155 1.01387 0.64857 0.0
O393 O 0.42228 0.03203 0.63639 0.0
O394 O 0.42542 0.987 0.67632 0.0
O395 O 0.39845 1.00025 0.69632 0.0
O396 O 0.35159 1.00577 0.68332 0.0
O397 O 0.38083 1.0121 0.65296 0.0
C398 C 0.43282 0.0308 0.72359 0.0
C399 C 0.35858 1.00576 0.66075 0.0
Dy400 Dy 0.16394 1.01639 0.4208 0.0
C401 C 0.10487 1.01864 0.50542 0.0
C402 C 0.18817 1.013 0.37802 0.0
Dy403 Dy 0.12587 1.01406 0.46143 0.0
O404 O 0.19351 0.0253 0.39412 0.0
O405 O 0.17013 1.00219 0.38563 0.0
O406 O 0.17432 0.04566 0.43258 0.0
O407 O 0.13751 0.03597 0.43736 0.0
C408 C 0.15216 0.04942 0.44146 0.0
C409 C 0.13309 0.98184 0.43862 0.0
O410 O 0.09808 1.02173 0.43327 0.0
O411 O 0.12609 1.01452 0.40275 0.0
O412 O 0.10716 1.00287 0.49429 0.0
O413 O 0.11279 0.0321 0.49189 0.0
O414 O 0.11167 0.98671 0.44833 0.0
O415 O 0.15039 0.99363 0.44335 0.0
O416 O 0.1904 1.00614 0.44866 0.0
O417 O 0.16403 1.01622 0.47866 0.0
C418 C 0.10296 1.01853 0.41062 0.0
C419 C 0.18627 1.00999 0.47117 0.0
Dy420 Dy 0.54314 0.7745 0.41901 0.0
C421 C 0.6022 0.76321 0.50701 0.0
C422 C 0.51976 0.78184 0.37701 0.0
Dy423 Dy 0.58524 0.77363 0.46333 0.0
O424 O 0.54305 0.78632 0.38227 0.0
O425 O 0.50884 0.774 0.39515 0.0
O426 O 0.53457 0.74325 0.42181 0.0
O427 O 0.55876 0.75615 0.44486 0.0
C428 C 0.55012 0.74049 0.43931 0.0
C429 C 0.5814 0.80739 0.44205 0.0
O430 O 0.60831 0.76101 0.43416 0.0
O431 O 0.58067 0.76784 0.40242 0.0
O432 O 0.61297 0.77572 0.49361 0.0
O433 O 0.58303 0.75581 0.49595 0.0
O434 O 0.59732 0.80383 0.45912 0.0
O435 O 0.5693 0.79258 0.43776 0.0
O436 O 0.52109 0.78891 0.44756 0.0
O437 O 0.54874 0.78324 0.47953 0.0
C438 C 0.60248 0.76147 0.41125 0.0
C439 C 0.5271 0.78955 0.47039 0.0
Dy440 Dy 0.17103 0.76734 0.34503 0.0
C441 C 0.10544 0.76516 0.26121 0.0
C442 C 0.1954 0.77463 0.38652 0.0
Dy443 Dy 0.12684 0.76923 0.30499 0.0
O444 O 0.20524 0.76541 0.36888 0.0
O445 O 0.17277 0.78048 0.38096 0.0
O446 O 0.17905 0.73613 0.34055 0.0
O447 O 0.15266 0.74963 0.32016 0.0
C448 C 0.16184 0.73384 0.32431 0.0
C449 C 0.13064 0.79855 0.33424 0.0
O450 O 0.10524 0.75465 0.33334 0.0
O451 O 0.1345 0.76078 0.36369 0.0
O452 O 0.1074 0.78081 0.27274 0.0
O453 O 0.11387 0.75156 0.27427 0.0
O454 O 0.10941 0.79343 0.32416 0.0
O455 O 0.14885 0.78874 0.32654 0.0
O456 O 0.19356 0.78037 0.31583 0.0
O457 O 0.1629 0.77655 0.28616 0.0
C458 C 0.11224 0.75448 0.35588 0.0
C459 C 0.18591 0.78151 0.2935 0.0
Dy460 Dy 0.55173 1.01996 0.34656 0.0
C461 C 0.6115 0.02288 0.25879 0.0
C462 C 0.52986 1.01105 0.38883 0.0
Dy463 Dy 0.59233 1.0198 0.3036 0.0
O464 O 0.55314 1.00733 0.38275 0.0
O465 O 0.518 1.019 0.3713 0.0
O466 O 0.54474 0.05145 0.34633 0.0
O467 O 0.56952 0.03919 0.32303 0.0
C468 C 0.56095 0.05467 0.32946 0.0
C469 C 0.58865 0.98843 0.32935 0.0
O470 O 0.61666 0.03227 0.33168 0.0
O471 O 0.59034 0.0229 0.36288 0.0
O472 O 0.60546 1.00739 0.26931 0.0
O473 O 0.60832 0.03681 0.27331 0.0
O474 O 0.6094 0.99379 0.31875 0.0
O475 O 0.57051 0.99924 0.32408 0.0
O476 O 0.52651 1.01023 0.31728 0.0
O477 O 0.55391 1.01919 0.28685 0.0
C478 C 0.61191 0.03004 0.35456 0.0
C479 C 0.53153 1.01326 0.29461 0.0
Dy480 Dy 0.83852 0.53213 0.05325 0.0
C481 C 0.77135 0.53925 0.13597 0.0
C482 C 0.85913 0.52805 0.00912 0.0
Dy483 Dy 0.79622 0.53139 0.09483 0.0
O484 O 0.8554 0.54383 0.01991 0.0
O485 O 0.8529 0.51434 0.02308 0.0
O486 O 0.85611 0.55717 0.07023 0.0
O487 O 0.8167 0.55248 0.07403 0.0
C488 C 0.83515 0.56266 0.08041 0.0
C489 C 0.80538 0.49711 0.07614 0.0
O490 O 0.77222 0.54236 0.06543 0.0
O491 O 0.80108 0.53591 0.03507 0.0
O492 O 0.76205 0.52938 0.11868 0.0
O493 O 0.79379 0.54544 0.13027 0.0
O494 O 0.78874 0.49992 0.09275 0.0
O495 O 0.81436 0.51274 0.07089 0.0
O496 O 0.86122 0.51866 0.08181 0.0
O497 O 0.83377 0.52703 0.11268 0.0
C498 C 0.77833 0.5412 0.04271 0.0
C499 C 0.85557 0.52008 0.10465 0.0
Dy500 Dy 0.37132 0.769 0.05213 0.0
C501 C 0.43656 0.76174 0.13601 0.0
C502 C 0.35184 0.77267 0.00753 0.0
Dy503 Dy 0.41256 0.76932 0.09435 0.0
O504 O 0.35522 0.75702 0.01868 0.0
O505 O 0.35775 0.78652 0.02139 0.0
O506 O 0.3531 0.74388 0.06808 0.0
O507 O 0.3924 0.74825 0.07314 0.0
C508 C 0.37359 0.73809 0.07876 0.0
C509 C 0.40381 0.80386 0.07621 0.0
O510 O 0.43697 0.75807 0.06539 0.0
O511 O 0.40913 0.76539 0.03462 0.0
O512 O 0.41356 0.75662 0.13062 0.0
O513 O 0.44689 0.77035 0.11815 0.0
O514 O 0.42 0.80081 0.09308 0.0
O515 O 0.39515 0.78829 0.07032 0.0
O516 O 0.34812 0.78253 0.08038 0.0
O517 O 0.37458 0.77312 0.11141 0.0
C518 C 0.4315 0.7596 0.04258 0.0
C519 C 0.35325 0.78066 0.10326 0.0
Dy520 Dy 0.83769 0.77676 0.21171 0.0
C521 C 0.77074 0.76867 0.12951 0.0
C522 C 0.85864 0.77973 0.2558 0.0
Dy523 Dy 0.79491 0.7773 0.17071 0.0
O524 O 0.85413 0.76422 0.24465 0.0
O525 O 0.85304 0.7938 0.24219 0.0
O526 O 0.8553 0.75189 0.19424 0.0
O527 O 0.81581 0.75635 0.19115 0.0
C528 C 0.83422 0.74631 0.18439 0.0
C529 C 0.8035 0.81164 0.18923 0.0
O530 O 0.77141 0.76611 0.20033 0.0
O531 O 0.80037 0.77326 0.2303 0.0
O532 O 0.76082 0.77838 0.14666 0.0
O533 O 0.7934 0.76308 0.13539 0.0
O534 O 0.78656 0.80853 0.17297 0.0
O535 O 0.81311 0.79618 0.19445 0.0
O536 O 0.86038 0.79022 0.1831 0.0
O537 O 0.83205 0.78268 0.15251 0.0
C538 C 0.77766 0.7676 0.22297 0.0
C539 C 0.85412 0.78929 0.16038 0.0
Dy540 Dy 0.37191 0.52313 0.21187 0.0
C541 C 0.43386 0.53106 0.12646 0.0
C542 C 0.35294 0.51831 0.25649 0.0
Dy543 Dy 0.41289 0.52291 0.1693 0.0
O544 O 0.35455 0.53414 0.24537 0.0
O545 O 0.36044 0.50489 0.24263 0.0
O546 O 0.35276 0.54777 0.19553 0.0
O547 O 0.39205 0.54379 0.19009 0.0
C548 C 0.37299 0.5536 0.18438 0.0
C549 C 0.4061 0.48862 0.18869 0.0
O550 O 0.43736 0.53506 0.19764 0.0
O551 O 0.4093 0.52933 0.22898 0.0
O552 O 0.41035 0.53397 0.13242 0.0
O553 O 0.44643 0.52432 0.14438 0.0
O554 O 0.42218 0.49175 0.1717 0.0
O555 O 0.39648 0.50404 0.19401 0.0
O556 O 0.34872 0.50888 0.18425 0.0
O557 O 0.37494 0.51764 0.15273 0.0
C558 C 0.43162 0.53481 0.22048 0.0
C559 C 0.35374 0.51016 0.16131 0.0
Dy560 Dy 0.16924 0.51549 0.9205 0.0
C561 C 0.10391 0.51955 1.00431 0.0
C562 C 0.1933 0.50729 0.87907 0.0
Dy563 Dy 0.12503 0.51514 0.96044 0.0
O564 O 0.20348 0.51648 0.89655 0.0
O565 O 0.17048 0.50192 0.88478 0.0
O566 O 0.17878 0.54652 0.92428 0.0
O567 O 0.15155 0.53409 0.94486 0.0
C568 C 0.16161 0.54954 0.94038 0.0
C569 C 0.12749 0.48536 0.93178 0.0
O570 O 0.10428 0.53025 0.93195 0.0
O571 O 0.1331 0.52278 0.90174 0.0
O572 O 0.10582 0.50383 0.99293 0.0
O573 O 0.11214 0.53307 0.99099 0.0
O574 O 0.10648 0.49124 0.94158 0.0
O575 O 0.14619 0.49474 0.93937 0.0
O576 O 0.19143 0.50275 0.95 0.0
O577 O 0.16099 0.50794 0.97952 0.0
C578 C 0.11135 0.53003 0.90942 0.0
C579 C 0.18385 0.50243 0.97239 0.0
Dy580 Dy 0.54671 0.27505 0.92025 0.0
C581 C 0.61081 0.27318 1.00504 0.0
C582 C 0.52194 0.28227 0.87889 0.0
Dy583 Dy 0.58966 0.27654 0.96106 0.0
O584 O 0.5124 0.27296 0.89657 0.0
O585 O 0.54452 0.28831 0.88435 0.0
O586 O 0.53913 0.2437 0.92313 0.0
O587 O 0.56531 0.25668 0.94432 0.0
C588 C 0.55611 0.24102 0.93945 0.0
C589 C 0.58572 0.30663 0.93311 0.0
O590 O 0.61214 0.26278 0.93259 0.0
O591 O 0.58401 0.27037 0.90199 0.0
O592 O 0.60691 0.28878 0.9939 0.0
O593 O 0.60451 0.25924 0.99146 0.0
O594 O 0.60689 0.30133 0.94306 0.0
O595 O 0.56748 0.29651 0.94013 0.0
O596 O 0.52301 0.28645 0.94969 0.0
O597 O 0.55264 0.28095 0.9797 0.0
C598 C 0.60609 0.26378 0.90984 0.0
C599 C 0.52973 0.28602 0.97229 0.0
Dy600 Dy 0.16679 0.26857 0.84483 0.0
C601 C 0.10255 0.26597 0.76018 0.0
C602 C 0.1907 0.27671 0.88632 0.0
Dy603 Dy 0.12342 0.26971 0.80423 0.0
O604 O 0.20076 0.26721 0.86904 0.0
O605 O 0.16807 0.28234 0.88042 0.0
O606 O 0.17499 0.23729 0.84145 0.0
O607 O 0.14909 0.25034 0.82009 0.0
C608 C 0.1582 0.23463 0.82492 0.0
C609 C 0.1262 0.29942 0.83299 0.0
O610 O 0.1016 0.255 0.83239 0.0
O611 O 0.13014 0.26184 0.86308 0.0
O612 O 0.1053 0.28161 0.77157 0.0
O613 O 0.10986 0.2522 0.77353 0.0
O614 O 0.10524 0.2938 0.82289 0.0
O615 O 0.1448 0.28979 0.82567 0.0
O616 O 0.19 0.28073 0.81559 0.0
O617 O 0.15998 0.27607 0.78561 0.0
C618 C 0.10827 0.25506 0.85503 0.0
C619 C 0.18289 0.28112 0.79308 0.0
Dy620 Dy 0.54514 0.52255 0.84383 0.0
C621 C 0.6094 0.52437 0.75908 0.0
C622 C 0.51864 0.51594 0.88437 0.0
Dy623 Dy 0.58826 0.52115 0.8031 0.0
O624 O 0.51082 0.5263 0.86695 0.0
O625 O 0.54054 0.50853 0.87918 0.0
O626 O 0.53703 0.55379 0.84028 0.0
O627 O 0.56336 0.5408 0.81934 0.0
C628 C 0.55394 0.55644 0.82389 0.0
C629 C 0.58487 0.49126 0.83148 0.0
O630 O 0.61029 0.53545 0.83158 0.0
O631 O 0.58196 0.52813 0.86227 0.0
O632 O 0.60545 0.5088 0.77028 0.0
O633 O 0.60318 0.53835 0.77262 0.0
O634 O 0.60593 0.49674 0.82144 0.0
O635 O 0.56644 0.50111 0.8243 0.0
O636 O 0.52193 0.51052 0.81465 0.0
O637 O 0.5512 0.51642 0.78446 0.0
C638 C 0.60385 0.53497 0.85429 0.0
C639 C 0.52842 0.51107 0.792 0.0
C640 C 0.40887 0.83839 0.07416 0.0
C641 C 0.39426 0.82249 0.06919 0.0
C642 C 0.39897 0.85627 0.07057 0.0
C643 C 0.34409 0.88274 0.0442 0.0
H644 H 0.36581 0.92 0.08957 0.0
C645 C 0.29623 0.95591 0.06189 0.0
C646 C 0.31339 0.97095 0.06296 0.0
C647 C 0.30521 0.93751 0.05957 0.0
C648 C 0.35966 0.90977 0.07669 0.0
H649 H 0.35801 0.81284 0.05591 0.0
H650 H 0.34016 0.84398 0.0506 0.0
H651 H 0.38314 0.88866 0.09169 0.0
H652 H 0.35327 0.97856 0.06117 0.0
H653 H 0.36877 0.94665 0.0576 0.0
H654 H 0.31969 0.90408 0.03001 0.0
C655 C 0.35958 0.84277 0.05668 0.0
C656 C 0.36977 0.89176 0.07772 0.0
C657 C 0.36978 0.82483 0.0598 0.0
C658 C 0.33953 0.96731 0.06055 0.0
C659 C 0.34845 0.94902 0.05858 0.0
C660 C 0.33359 0.90076 0.04346 0.0
C661 C 0.37386 0.8588 0.06251 0.0
C662 C 0.36247 0.87798 0.06131 0.0
C663 C 0.33148 0.93389 0.05862 0.0
C664 C 0.34154 0.91451 0.05953 0.0
H665 H 0.4279 0.837 0.08125 0.0
H666 H 0.411 0.86813 0.07452 0.0
H667 H 0.33807 0.87266 0.0311 0.0
H668 H 0.276 0.9583 0.06369 0.0
H669 H 0.29172 0.92608 0.05966 0.0
C670 C 0.79929 0.46282 0.07129 0.0
C671 C 0.81475 0.47861 0.06849 0.0
C672 C 0.80891 0.44492 0.06701 0.0
C673 C 0.86648 0.4191 0.04392 0.0
H674 H 0.83954 0.37976 0.08375 0.0
C675 C 0.91651 0.34917 0.0706 0.0
C676 C 0.90238 0.33286 0.06631 0.0
C677 C 0.90582 0.3668 0.0666 0.0
C678 C 0.84707 0.39058 0.07237 0.0
H679 H 0.85224 0.48814 0.05844 0.0
H680 H 0.86962 0.45708 0.05238 0.0
H681 H 0.82078 0.4107 0.08538 0.0
H682 H 0.86625 0.32225 0.05388 0.0
H683 H 0.84724 0.35306 0.04775 0.0
H684 H 0.89399 0.39885 0.03234 0.0
C685 C 0.84974 0.45829 0.05701 0.0
C686 C 0.83619 0.40838 0.07309 0.0
C687 C 0.83983 0.47623 0.06063 0.0
C688 C 0.87765 0.33451 0.05722 0.0
C689 C 0.86673 0.35213 0.05378 0.0
C690 C 0.87777 0.40136 0.04369 0.0
C691 C 0.83457 0.44228 0.06057 0.0
C692 C 0.84569 0.423 0.05889 0.0
C693 C 0.8806 0.36842 0.05878 0.0
C694 C 0.86813 0.38697 0.05791 0.0
H695 H 0.77979 0.46428 0.07716 0.0
H696 H 0.7962 0.43317 0.06917 0.0
H697 H 0.87416 0.4297 0.03234 0.0
H698 H 0.93559 0.3483 0.0777 0.0
H699 H 0.91683 0.37916 0.07072 0.0
C700 C 0.37276 0.46701 0.20477 0.0
C701 C 0.39758 0.46992 0.19648 0.0
C702 C 0.36353 0.44887 0.20837 0.0
C703 C 0.37834 0.3993 0.19147 0.0
H704 H 0.32145 0.38854 0.23282 0.0
C705 C 0.33874 0.32464 0.20635 0.0
C706 C 0.31369 0.32285 0.19808 0.0
C707 C 0.34948 0.34234 0.20982 0.0
C708 C 0.33743 0.39139 0.2213 0.0
H709 H 0.43281 0.45628 0.18703 0.0
H710 H 0.4176 0.42482 0.19497 0.0
H711 H 0.34043 0.41968 0.233 0.0
H712 H 0.2798 0.3381 0.18816 0.0
H713 H 0.29826 0.36905 0.19522 0.0
H714 H 0.37562 0.37072 0.18043 0.0
C715 C 0.40456 0.43633 0.1975 0.0
C716 C 0.34823 0.4093 0.22117 0.0
C717 C 0.41349 0.45443 0.19325 0.0
C718 C 0.29914 0.33907 0.19461 0.0
C719 C 0.30966 0.35675 0.19866 0.0
C720 C 0.36797 0.38132 0.19208 0.0
C721 C 0.37913 0.43316 0.20435 0.0
C722 C 0.36865 0.41367 0.20597 0.0
C723 C 0.33513 0.35855 0.2057 0.0
C724 C 0.34722 0.37726 0.20674 0.0
H725 H 0.36 0.47867 0.20729 0.0
H726 H 0.34379 0.44727 0.21333 0.0
H727 H 0.39349 0.40196 0.17901 0.0
H728 H 0.35047 0.31244 0.20903 0.0
H729 H 0.36917 0.34338 0.21525 0.0
C730 C 0.83731 0.83334 0.20442 0.0
C731 C 0.81234 0.83037 0.19653 0.0
C732 C 0.84667 0.85155 0.20737 0.0
C733 C 0.83232 0.9003 0.18778 0.0
H734 H 0.8859 0.91359 0.23164 0.0
C735 C 0.86418 0.97643 0.20043 0.0
C736 C 0.89035 0.97972 0.19756 0.0
C737 C 0.85492 0.95825 0.20311 0.0
C738 C 0.87096 0.91002 0.21928 0.0
H739 H 0.77704 0.84393 0.18714 0.0
H740 H 0.79261 0.87549 0.19365 0.0
H741 H 0.86847 0.88188 0.23194 0.0
H742 H 0.92744 0.96664 0.19653 0.0
H743 H 0.91121 0.93474 0.20172 0.0
H744 H 0.83448 0.92852 0.1755 0.0
C745 C 0.80557 0.86397 0.1965 0.0
C746 C 0.86101 0.89182 0.21934 0.0
C747 C 0.79646 0.84584 0.19305 0.0
C748 C 0.90718 0.96451 0.19865 0.0
C749 C 0.89791 0.94628 0.20168 0.0
C750 C 0.84193 0.91849 0.18802 0.0
C751 C 0.83108 0.86718 0.20289 0.0
C752 C 0.84152 0.88667 0.20355 0.0
C753 C 0.87162 0.94294 0.20334 0.0
C754 C 0.86137 0.92357 0.20371 0.0
H755 H 0.85002 0.82166 0.20712 0.0
H756 H 0.86644 0.85331 0.21216 0.0
H757 H 0.81795 0.89691 0.1748 0.0
H758 H 0.85072 0.98786 0.19978 0.0
H759 H 0.8346 0.95613 0.20461 0.0
C760 C 0.62481 0.07726 0.95463 0.0
C761 C 0.6495 0.0754 0.94549 0.0
C762 C 0.61434 0.095 0.95849 0.0
C763 C 0.6276 0.14424 0.96902 0.0
H764 H 0.56859 0.15448 0.93029 0.0
C765 C 0.5908 0.2198 0.95387 0.0
C766 C 0.56541 0.2225 0.94713 0.0
C767 C 0.60043 0.20171 0.95712 0.0
C768 C 0.58462 0.15193 0.94179 0.0
H769 H 0.68306 0.09057 0.93439 0.0
H770 H 0.66511 0.12156 0.94207 0.0
H771 H 0.58642 0.12324 0.93104 0.0
H772 H 0.52969 0.2086 0.94019 0.0
H773 H 0.54567 0.17731 0.94761 0.0
H774 H 0.62557 0.17267 0.98042 0.0
C775 C 0.65377 0.1093 0.94593 0.0
C776 C 0.59495 0.13394 0.94201 0.0
C777 C 0.66399 0.09159 0.9415 0.0
C778 C 0.54943 0.2069 0.94518 0.0
C779 C 0.5588 0.18889 0.94911 0.0
C780 C 0.61688 0.16218 0.9693 0.0
C781 C 0.62861 0.11119 0.95387 0.0
C782 C 0.61671 0.12996 0.95537 0.0
C783 C 0.5847 0.18588 0.9543 0.0
C784 C 0.59537 0.16642 0.95542 0.0
H785 H 0.61311 0.0651 0.95773 0.0
H786 H 0.59489 0.0961 0.96463 0.0
H787 H 0.64438 0.14149 0.97953 0.0
H788 H 0.6036 0.23155 0.9554 0.0
H789 H 0.6205 0.20023 0.96083 0.0
C790 C 0.09301 0.71376 0.95467 0.0
C791 C 0.06853 0.71565 0.94505 0.0
C792 C 0.1036 0.69602 0.95822 0.0
C793 C 0.09077 0.64695 0.9684 0.0
H794 H 0.14957 0.63631 0.9295 0.0
C795 C 0.12724 0.57121 0.95453 0.0
C796 C 0.15253 0.56828 0.94761 0.0
C797 C 0.11774 0.58937 0.95741 0.0
C798 C 0.1336 0.63898 0.94104 0.0
H799 H 0.03551 0.70049 0.93265 0.0
H800 H 0.05363 0.66946 0.93985 0.0
H801 H 0.13172 0.66759 0.92989 0.0
H802 H 0.18824 0.58196 0.93992 0.0
H803 H 0.1725 0.61343 0.94665 0.0
H804 H 0.09288 0.61866 0.98027 0.0
C805 C 0.06472 0.68172 0.94428 0.0
C806 C 0.12325 0.65698 0.94105 0.0
C807 C 0.05439 0.69945 0.94015 0.0
C808 C 0.16856 0.58381 0.94507 0.0
C809 C 0.15933 0.60193 0.94861 0.0
C810 C 0.1015 0.62902 0.9689 0.0
C811 C 0.08963 0.67984 0.95283 0.0
C812 C 0.10156 0.66108 0.95446 0.0
C813 C 0.13351 0.6051 0.95405 0.0
C814 C 0.12292 0.62462 0.95495 0.0
H815 H 0.10441 0.72595 0.9585 0.0
H816 H 0.12286 0.69492 0.96482 0.0
H817 H 0.07405 0.64981 0.97897 0.0
H818 H 0.11437 0.55955 0.95655 0.0
H819 H 0.09773 0.59095 0.9613 0.0
C820 C 0.6219 0.72027 0.80927 0.0
C821 C 0.64685 0.72217 0.81773 0.0
C822 C 0.61145 0.70253 0.8054 0.0
C823 C 0.62498 0.65336 0.79404 0.0
H824 H 0.56622 0.64285 0.83306 0.0
C825 C 0.5885 0.57771 0.80923 0.0
C826 C 0.56313 0.57495 0.81604 0.0
C827 C 0.59805 0.59582 0.80592 0.0
C828 C 0.58218 0.64548 0.82148 0.0
H829 H 0.68087 0.70708 0.82765 0.0
H830 H 0.66292 0.67606 0.81999 0.0
H831 H 0.584 0.67411 0.83244 0.0
H832 H 0.52736 0.58876 0.823 0.0
H833 H 0.54322 0.62008 0.81551 0.0
H834 H 0.62294 0.62497 0.78247 0.0
C835 C 0.65137 0.6883 0.81664 0.0
C836 C 0.59249 0.66349 0.82133 0.0
C837 C 0.66159 0.70602 0.82106 0.0
C838 C 0.54708 0.59051 0.81796 0.0
C839 C 0.55638 0.60854 0.81398 0.0
C840 C 0.6143 0.6354 0.7937 0.0
C841 C 0.62599 0.68636 0.80936 0.0
C842 C 0.61415 0.66756 0.80786 0.0
C843 C 0.58226 0.6116 0.80876 0.0
C844 C 0.59287 0.63107 0.80768 0.0
H845 H 0.61001 0.7324 0.80674 0.0
H846 H 0.59183 0.7014 0.79977 0.0
H847 H 0.64168 0.65619 0.78342 0.0
H848 H 0.60135 0.56599 0.80772 0.0
H849 H 0.61811 0.59736 0.80217 0.0
C850 C 0.1628 0.19999 0.8215 0.0
C851 C 0.14818 0.21614 0.8177 0.0
C852 C 0.1524 0.18222 0.81769 0.0
C853 C 0.0939 0.15747 0.82381 0.0
H854 H 0.12222 0.11892 0.78364 0.0
C855 C 0.04729 0.08473 0.82126 0.0
C856 C 0.06289 0.06905 0.81817 0.0
C857 C 0.05675 0.10276 0.81745 0.0
C858 C 0.1142 0.12935 0.79527 0.0
H859 H 0.11138 0.22627 0.80642 0.0
H860 H 0.09292 0.19523 0.80061 0.0
H861 H 0.14136 0.15001 0.7841 0.0
H862 H 0.10052 0.05992 0.80801 0.0
H863 H 0.11762 0.09118 0.80276 0.0
H864 H 0.06791 0.13695 0.83639 0.0
C865 C 0.11256 0.19639 0.80614 0.0
C866 C 0.1251 0.14724 0.79531 0.0
C867 C 0.12318 0.21416 0.80937 0.0
C868 C 0.08798 0.07171 0.81045 0.0
C869 C 0.09773 0.08978 0.8073 0.0
C870 C 0.08341 0.13952 0.82426 0.0
C871 C 0.12698 0.18025 0.81055 0.0
C872 C 0.11501 0.16147 0.80956 0.0
C873 C 0.08241 0.10567 0.81121 0.0
C874 C 0.09331 0.12509 0.80998 0.0
H875 H 0.1821 0.20109 0.828 0.0
H876 H 0.16387 0.17 0.82135 0.0
H877 H 0.086 0.16813 0.83524 0.0
H878 H 0.02778 0.08309 0.82703 0.0
H879 H 0.04389 0.11439 0.81984 0.0
C880 C 0.41442 0.33448 0.57104 0.0
C881 C 0.39858 0.31883 0.56884 0.0
C882 C 0.40507 0.35245 0.56676 0.0
C883 C 0.34751 0.37888 0.54484 0.0
H884 H 0.37657 0.41809 0.58358 0.0
C885 C 0.29938 0.44971 0.57017 0.0
C886 C 0.31416 0.46584 0.56676 0.0
C887 C 0.3097 0.43195 0.56622 0.0
C888 C 0.36844 0.40732 0.57247 0.0
H889 H 0.36064 0.30964 0.55981 0.0
H890 H 0.34376 0.34089 0.55371 0.0
H891 H 0.39448 0.3869 0.58512 0.0
H892 H 0.35116 0.47598 0.55599 0.0
H893 H 0.36948 0.44494 0.54988 0.0
H894 H 0.32032 0.39946 0.5336 0.0
C895 C 0.36372 0.33947 0.5579 0.0
C896 C 0.37882 0.38935 0.57315 0.0
C897 C 0.37335 0.32143 0.56152 0.0
C898 C 0.33924 0.46387 0.55862 0.0
C899 C 0.34977 0.4461 0.55522 0.0
C900 C 0.33673 0.3968 0.54463 0.0
C901 C 0.37931 0.35535 0.56093 0.0
C902 C 0.36858 0.37477 0.55935 0.0
C903 C 0.33521 0.42997 0.55933 0.0
C904 C 0.34713 0.41118 0.55844 0.0
H905 H 0.43403 0.33286 0.57648 0.0
H906 H 0.41809 0.36407 0.56848 0.0
H907 H 0.33924 0.3683 0.53358 0.0
H908 H 0.28001 0.45081 0.57653 0.0
H909 H 0.29812 0.41973 0.56966 0.0
C910 C 0.84611 0.97138 0.5604 0.0
C911 C 0.82113 0.97409 0.56844 0.0
C912 C 0.85594 0.95327 0.55773 0.0
C913 C 0.84297 0.90452 0.57825 0.0
H914 H 0.89567 0.89122 0.53343 0.0
C915 C 0.87312 0.82838 0.56406 0.0
C916 C 0.8992 0.82463 0.56667 0.0
C917 C 0.8644 0.84671 0.56177 0.0
C918 C 0.88102 0.8948 0.54608 0.0
H919 H 0.78629 0.96009 0.57839 0.0
H920 H 0.80266 0.92871 0.57242 0.0
H921 H 0.87812 0.92291 0.53333 0.0
H922 H 0.93669 0.8371 0.56762 0.0
H923 H 0.92136 0.86934 0.56311 0.0
H924 H 0.84545 0.87632 0.59057 0.0
C925 C 0.81528 0.94038 0.56923 0.0
C926 C 0.87099 0.91299 0.54613 0.0
C927 C 0.80571 0.95842 0.57237 0.0
C928 C 0.91649 0.83958 0.56569 0.0
C929 C 0.90774 0.858 0.56307 0.0
C930 C 0.85266 0.88636 0.57792 0.0
C931 C 0.84082 0.93747 0.56267 0.0
C932 C 0.8517 0.9181 0.56218 0.0
C933 C 0.88153 0.86176 0.56171 0.0
C934 C 0.87172 0.88126 0.56182 0.0
H935 H 0.85848 0.98318 0.5573 0.0
H936 H 0.8757 0.95174 0.55277 0.0
H937 H 0.82882 0.9079 0.59144 0.0
H938 H 0.85929 0.81718 0.5646 0.0
H939 H 0.84413 0.84916 0.56048 0.0
C940 C 0.41477 0.95058 0.69891 0.0
C941 C 0.3986 0.96611 0.70017 0.0
C942 C 0.40535 0.93254 0.70249 0.0
C943 C 0.34679 0.90541 0.72035 0.0
H944 H 0.37901 0.86706 0.6824 0.0
C945 C 0.30154 0.83403 0.69287 0.0
C946 C 0.31678 0.81813 0.69618 0.0
C947 C 0.31127 0.85193 0.69722 0.0
C948 C 0.36996 0.87758 0.69328 0.0
H949 H 0.36002 0.97501 0.70703 0.0
H950 H 0.34312 0.94358 0.71192 0.0
H951 H 0.39638 0.89844 0.68251 0.0
H952 H 0.35402 0.80853 0.70692 0.0
H953 H 0.37125 0.83978 0.71387 0.0
H954 H 0.31938 0.88439 0.72974 0.0
C955 C 0.36331 0.94518 0.70895 0.0
C956 C 0.38003 0.89565 0.69355 0.0
C957 C 0.37296 0.96331 0.70603 0.0
C958 C 0.34174 0.82045 0.70445 0.0
C959 C 0.35165 0.83835 0.70829 0.0
C960 C 0.33637 0.88737 0.71961 0.0
C961 C 0.37926 0.92943 0.70664 0.0
C962 C 0.3687 0.90992 0.70713 0.0
C963 C 0.33662 0.85428 0.70443 0.0
C964 C 0.34791 0.87328 0.7061 0.0
H965 H 0.43469 0.95236 0.69461 0.0
H966 H 0.4186 0.92101 0.70145 0.0
H967 H 0.33762 0.91577 0.73135 0.0
H968 H 0.28226 0.83265 0.68641 0.0
H969 H 0.29933 0.86397 0.69393 0.0
C970 C 0.79744 0.34152 0.69512 0.0
C971 C 0.81329 0.32589 0.69748 0.0
C972 C 0.80677 0.35952 0.69939 0.0
C973 C 0.86429 0.3858 0.7218 0.0
H974 H 0.83648 0.42504 0.68239 0.0
C975 C 0.91496 0.45511 0.6949 0.0
C976 C 0.90099 0.47162 0.69817 0.0
C977 C 0.90384 0.43767 0.69924 0.0
C978 C 0.84425 0.41426 0.69369 0.0
H979 H 0.85121 0.31682 0.70664 0.0
H980 H 0.868 0.34801 0.7128 0.0
H981 H 0.81777 0.39405 0.68116 0.0
H982 H 0.86463 0.48284 0.7091 0.0
H983 H 0.84488 0.45232 0.71586 0.0
H984 H 0.89195 0.4061 0.7329 0.0
C985 C 0.84805 0.34658 0.70853 0.0
C986 C 0.83341 0.39642 0.69318 0.0
C987 C 0.83847 0.32856 0.70487 0.0
C988 C 0.87592 0.4704 0.70657 0.0
C989 C 0.86457 0.45294 0.71033 0.0
C990 C 0.87551 0.40357 0.72184 0.0
C991 C 0.83248 0.36243 0.70543 0.0
C992 C 0.84329 0.38182 0.70713 0.0
C993 C 0.87833 0.43641 0.70638 0.0
C994 C 0.86562 0.41793 0.70773 0.0
H995 H 0.77786 0.33985 0.68957 0.0
H996 H 0.7938 0.37114 0.69754 0.0
H997 H 0.87224 0.37522 0.73324 0.0
H998 H 0.9343 0.45565 0.68836 0.0
H999 H 0.9148 0.42514 0.69592 0.0
C1000 C 0.66145 0.5905 0.45043 0.0
C1001 C 0.6451 0.57502 0.44887 0.0
C1002 C 0.65153 0.60856 0.45334 0.0
C1003 C 0.59557 0.63526 0.43765 0.0
H1004 H 0.61685 0.67192 0.48396 0.0
C1005 C 0.54514 0.70603 0.44191 0.0
C1006 C 0.55969 0.72199 0.44671 0.0
C1007 C 0.55522 0.6882 0.44543 0.0
C1008 C 0.61088 0.66197 0.47069 0.0
H1009 H 0.60566 0.56622 0.45024 0.0
H1010 H 0.58848 0.59762 0.4548 0.0
H1011 H 0.63615 0.6408 0.48391 0.0
H1012 H 0.59591 0.73184 0.45985 0.0
H1013 H 0.61409 0.70078 0.46498 0.0
H1014 H 0.57127 0.65625 0.42356 0.0
C1015 C 0.6089 0.59584 0.45378 0.0
C1016 C 0.62191 0.64411 0.47077 0.0
C1017 C 0.61878 0.57786 0.45123 0.0
C1018 C 0.58422 0.71978 0.45604 0.0
C1019 C 0.5946 0.7019 0.45907 0.0
C1020 C 0.58493 0.65312 0.43727 0.0
C1021 C 0.62511 0.61142 0.4544 0.0
C1022 C 0.61414 0.63054 0.45438 0.0
C1023 C 0.58045 0.68581 0.45323 0.0
C1024 C 0.59215 0.66673 0.45393 0.0
H1025 H 0.68181 0.58872 0.44871 0.0
H1026 H 0.66443 0.62035 0.45372 0.0
H1027 H 0.58954 0.62518 0.42453 0.0
H1028 H 0.52607 0.70733 0.4349 0.0
H1029 H 0.54329 0.67628 0.44152 0.0
C1030 C 0.1597 0.08374 0.4483 0.0
C1031 C 0.14285 0.06856 0.44649 0.0
C1032 C 0.15037 0.10203 0.4507 0.0
C1033 C 0.09546 0.13008 0.43426 0.0
H1034 H 0.11854 0.16615 0.48054 0.0
C1035 C 0.0482 0.20223 0.43927 0.0
C1036 C 0.06335 0.21781 0.44449 0.0
C1037 C 0.0576 0.18412 0.44225 0.0
C1038 C 0.11208 0.15638 0.46726 0.0
H1039 H 0.10307 0.0606 0.44663 0.0
H1040 H 0.08692 0.09239 0.4503 0.0
H1041 H 0.13635 0.13458 0.48045 0.0
H1042 H 0.10006 0.22664 0.45759 0.0
H1043 H 0.11702 0.19512 0.46187 0.0
H1044 H 0.07209 0.1517 0.42024 0.0
C1045 C 0.10729 0.0902 0.44989 0.0
C1046 C 0.12226 0.13825 0.46732 0.0
C1047 C 0.11657 0.07197 0.44788 0.0
C1048 C 0.08788 0.21491 0.45353 0.0
C1049 C 0.09755 0.19675 0.45605 0.0
C1050 C 0.08565 0.14821 0.43391 0.0
C1051 C 0.12404 0.10546 0.45096 0.0
C1052 C 0.11385 0.12486 0.45094 0.0
C1053 C 0.08273 0.18105 0.44996 0.0
C1054 C 0.09356 0.16166 0.45054 0.0
H1055 H 0.18003 0.08153 0.44732 0.0
H1056 H 0.16372 0.11353 0.45142 0.0
H1057 H 0.08893 0.12017 0.42114 0.0
H1058 H 0.02913 0.20405 0.43243 0.0
H1059 H 0.04517 0.17253 0.43811 0.0
C1060 C 0.6667 0.20706 0.31416 0.0
C1061 C 0.64972 0.22217 0.31575 0.0
C1062 C 0.65752 0.18873 0.31197 0.0
C1063 C 0.60333 0.1609 0.32981 0.0
H1064 H 0.62469 0.12415 0.28366 0.0
C1065 C 0.55524 0.08911 0.32759 0.0
C1066 C 0.57008 0.07338 0.3224 0.0
C1067 C 0.56477 0.10709 0.32391 0.0
C1068 C 0.61874 0.13413 0.2969 0.0
H1069 H 0.60989 0.22999 0.31514 0.0
H1070 H 0.594 0.19811 0.31184 0.0
H1071 H 0.64264 0.1557 0.28252 0.0
H1072 H 0.6063 0.06407 0.30867 0.0
H1073 H 0.62354 0.09543 0.3032 0.0
H1074 H 0.5804 0.13954 0.34502 0.0
C1075 C 0.61435 0.2004 0.31229 0.0
C1076 C 0.62898 0.15223 0.29613 0.0
C1077 C 0.62349 0.21866 0.31411 0.0
C1078 C 0.59439 0.07596 0.31271 0.0
C1079 C 0.60422 0.094 0.30951 0.0
C1080 C 0.59349 0.14281 0.33087 0.0
C1081 C 0.63121 0.18522 0.31167 0.0
C1082 C 0.62113 0.16584 0.31244 0.0
C1083 C 0.58972 0.10987 0.31555 0.0
C1084 C 0.60074 0.12916 0.31428 0.0
H1085 H 0.68701 0.20936 0.31534 0.0
H1086 H 0.67092 0.17726 0.31156 0.0
H1087 H 0.59729 0.17102 0.34288 0.0
H1088 H 0.53633 0.08752 0.33491 0.0
H1089 H 0.55259 0.11883 0.32804 0.0
C1090 C 0.12631 0.71379 0.30908 0.0
C1091 C 0.15162 0.71555 0.31665 0.0
C1092 C 0.11555 0.69612 0.30552 0.0
C1093 C 0.12791 0.64696 0.29347 0.0
H1094 H 0.0708 0.63675 0.3347 0.0
C1095 C 0.09081 0.5716 0.30931 0.0
C1096 C 0.06566 0.56901 0.31689 0.0
C1097 C 0.10056 0.58963 0.30594 0.0
C1098 C 0.08626 0.63931 0.32253 0.0
H1099 H 0.18588 0.70027 0.32529 0.0
H1100 H 0.16732 0.66935 0.31816 0.0
H1101 H 0.08907 0.66786 0.33363 0.0
H1102 H 0.03043 0.58307 0.32526 0.0
H1103 H 0.04659 0.61433 0.31773 0.0
H1104 H 0.12483 0.61865 0.28176 0.0
C1105 C 0.15576 0.68166 0.31527 0.0
C1106 C 0.09687 0.65722 0.32212 0.0
C1107 C 0.16634 0.69932 0.31937 0.0
C1108 C 0.04999 0.58469 0.31961 0.0
C1109 C 0.05946 0.60267 0.3156 0.0
C1110 C 0.11691 0.6291 0.29342 0.0
C1111 C 0.13007 0.67988 0.30891 0.0
C1112 C 0.11795 0.66117 0.30782 0.0
C1113 C 0.08516 0.60552 0.3095 0.0
C1114 C 0.09607 0.6249 0.3082 0.0
H1115 H 0.11441 0.72596 0.30706 0.0
H1116 H 0.0957 0.69511 0.30061 0.0
H1117 H 0.14413 0.64969 0.28221 0.0
H1118 H 0.10339 0.55978 0.30718 0.0
H1119 H 0.12048 0.59102 0.30153 0.0
C1120 C 0.26863 0.03806 0.17634 0.0
C1121 C 0.25939 0.02559 0.15923 0.0
C1122 C 0.26045 0.03685 0.19983 0.0
C1123 C 0.23217 1.00342 0.24242 0.0
H1124 H 0.22107 0.04774 0.2803 0.0
C1125 C 0.18893 1.00051 0.33668 0.0
C1126 C 0.19833 1.01306 0.35361 0.0
C1127 C 0.19673 1.00172 0.31307 0.0
C1128 C 0.2244 0.0352 0.27009 0.0
H1129 H 0.23387 1.00235 0.15317 0.0
H1130 H 0.21928 1.00035 0.19406 0.0
H1131 H 0.23288 0.05092 0.2389 0.0
H1132 H 0.22373 0.03645 0.35925 0.0
H1133 H 0.23768 0.03841 0.31819 0.0
H1134 H 0.22372 0.9877 0.27362 0.0
C1135 C 0.23315 1.01092 0.18946 0.0
C1136 C 0.23114 0.03703 0.24628 0.0
C1137 C 0.24132 1.01216 0.16596 0.0
C1138 C 0.21615 0.02657 0.34658 0.0
C1139 C 0.22396 0.0278 0.32299 0.0
C1140 C 0.22543 1.00159 0.26624 0.0
C1141 C 0.24284 0.02309 0.20679 0.0
C1142 C 0.23515 1.02117 0.2321 0.0
C1143 C 0.21411 1.01555 0.30582 0.0
C1144 C 0.22149 1.01745 0.28043 0.0
H1145 H 0.2827 0.04849 0.17171 0.0
H1146 H 0.26855 0.04634 0.21267 0.0
H1147 H 0.23552 0.99088 0.2322 0.0
H1148 H 0.17505 0.99002 0.34155 0.0
H1149 H 0.18853 0.99216 0.30037 0.0
C1150 C 0.02711 0.29194 0.33739 0.0
C1151 C 0.01279 0.28286 0.35489 0.0
C1152 C 0.0194 0.29146 0.31376 0.0
C1153 C 0.96456 0.2812 0.27452 0.0
H1154 H 0.01708 0.27181 0.22794 0.0
C1155 C 0.93968 0.26284 0.17815 0.0
C1156 C 0.95393 0.27166 0.1604 0.0
C1157 C 0.94738 0.26378 0.20175 0.0
C1158 C 0.0022 0.27462 0.24066 0.0
H1159 H 0.97872 0.26672 0.36157 0.0
H1160 H 0.96521 0.26582 0.32034 0.0
H1161 H 0.02863 0.27544 0.26935 0.0
H1162 H -0.01216 0.28787 0.15326 0.0
H1163 H 0.00133 0.28956 0.19449 0.0
H1164 H 0.93812 0.28035 0.24584 0.0
C1165 C -0.01768 0.27344 0.32482 0.0
C1166 C 0.00882 0.27675 0.26444 0.0
C1167 C -0.00994 0.27393 0.34847 0.0
C1168 C 0.97656 0.28085 0.16658 0.0
C1169 C -0.01572 0.28179 0.19021 0.0
C1170 C 0.95794 0.27907 0.25075 0.0
C1171 C -0.00282 0.28187 0.30709 0.0
C1172 C -0.00991 0.28005 0.2817 0.0
C1173 C 0.96951 0.27357 0.20816 0.0
C1174 C 0.97666 0.2757 0.23351 0.0
H1175 H 0.04472 0.29895 0.34183 0.0
H1176 H 0.03104 0.2984 0.30067 0.0
H1177 H 0.94967 0.28397 0.28725 0.0
H1178 H 0.92217 0.25563 0.17391 0.0
H1179 H 0.93581 0.25697 0.21502 0.0
C1180 C 0.22334 0.26817 0.9167 0.0
C1181 C 0.20101 0.27776 0.9106 0.0
C1182 C 0.23107 0.267 0.94033 0.0
C1183 C 0.20488 0.26992 1.00099 0.0
H1184 H 0.27576 0.27143 0.01944 0.0
C1185 C 0.23757 0.27205 0.0989 0.0
C1186 C 0.2598 0.2623 0.10488 0.0
C1187 C 0.22983 0.27342 0.07529 0.0
C1188 C 0.25588 0.27072 0.01457 0.0
H1189 H 0.1698 0.29426 0.92428 0.0
H1190 H 0.18347 0.29254 0.96538 0.0
H1191 H 0.26428 0.27589 0.97815 0.0
H1192 H 0.29084 0.24572 0.09098 0.0
H1193 H 0.27715 0.2478 0.04992 0.0
H1194 H 0.19649 0.26475 0.03742 0.0
C1195 C 0.1948 0.2856 0.95205 0.0
C1196 C 0.24929 0.27332 0.99086 0.0
C1197 C 0.1871 0.28675 0.92845 0.0
C1198 C 0.27361 0.25336 0.08691 0.0
C1199 C 0.2659 0.25472 0.06334 0.0
C1200 C 0.21147 0.26732 0.02471 0.0
C1201 C 0.21661 0.27539 0.95838 0.0
C1202 C 0.2237 0.27296 0.98373 0.0
C1203 C 0.24419 0.26507 0.05714 0.0
C1204 C 0.23707 0.26765 0.03183 0.0
H1205 H 0.23435 0.261 0.90333 0.0
H1206 H 0.24785 0.25891 0.94452 0.0
H1207 H 0.185 0.2692 0.99612 0.0
H1208 H 0.22664 0.2792 0.11235 0.0
H1209 H 0.21311 0.28162 0.07119 0.0
C1210 C 0.96449 1.02085 0.09642 0.0
C1211 C 0.94278 0.03154 0.10143 0.0
C1212 C 0.97244 1.01816 0.07307 0.0
C1213 C 0.96441 0.03646 0.0119 0.0
H1214 H -0.00914 0.98787 0.99431 0.0
C1215 C -0.01429 1.0175 0.91469 0.0
C1216 C 0.00912 1.0087 0.91041 0.0
C1217 C 0.97645 1.01935 0.93776 0.0
C1218 C -0.01633 1.00156 0.99895 0.0
H1219 H 0.9125 0.04797 0.08601 0.0
H1220 H 0.92603 0.04307 0.04527 0.0
H1221 H 0.9777 0.99359 0.03493 0.0
H1222 H 0.04074 0.99433 0.9268 0.0
H1223 H 0.02458 0.99745 0.96701 0.0
H1224 H 0.97028 0.04436 0.97585 0.0
C1225 C 0.93727 0.037 0.05931 0.0
C1226 C 0.9762 1.00489 0.02231 0.0
C1227 C 0.92944 0.03978 0.08268 0.0
C1228 C 0.02258 1.00111 0.92954 0.0
C1229 C 0.01328 1.00288 0.9526 0.0
C1230 C 0.97175 0.0331 0.98853 0.0
C1231 C 0.95875 0.02599 0.05414 0.0
C1232 C 0.96658 0.02242 0.02916 0.0
C1233 C -0.00965 1.01236 0.95705 0.0
C1234 C 0.98158 1.01563 0.98176 0.0
H1235 H 0.97516 1.01435 0.11054 0.0
H1236 H -0.01066 1.00992 0.06988 0.0
H1237 H 0.95747 0.05022 0.01651 0.0
H1238 H 0.97494 0.0235 0.90028 0.0
H1239 H 0.95854 0.02647 0.94051 0.0
C1240 C 0.7254 0.02523 0.84628 0.0
C1241 C 0.70266 1.01582 0.85153 0.0
C1242 C 0.73366 0.02702 0.82288 0.0
C1243 C 0.70889 0.02639 0.76165 0.0
H1244 H 0.78016 0.02415 0.74458 0.0
C1245 C 0.74404 0.02612 0.66445 0.0
C1246 C 0.7668 0.03553 0.6593 0.0
C1247 C 0.7356 0.02441 0.68782 0.0
C1248 C 0.76019 0.02508 0.74907 0.0
H1249 H 0.67122 1.0003 0.83652 0.0
H1250 H 0.68582 1.00311 0.79575 0.0
H1251 H 0.76747 1.01868 0.78537 0.0
H1252 H 0.79805 0.05119 0.67442 0.0
H1253 H 0.78316 0.04852 0.71509 0.0
H1254 H 0.70161 0.03277 0.72533 0.0
C1255 C 0.69707 1.00943 0.80962 0.0
C1256 C 0.75291 0.02189 0.7725 0.0
C1257 C 0.68883 1.00765 0.83301 0.0
C1258 C 0.78043 0.04384 0.67785 0.0
C1259 C 0.77202 0.04214 0.70119 0.0
C1260 C 0.71617 0.02957 0.73821 0.0
C1261 C 0.71935 1.01944 0.80418 0.0
C1262 C 0.72715 0.0225 0.77912 0.0
C1263 C 0.74977 0.03207 0.70656 0.0
C1264 C 0.74193 0.02899 0.7316 0.0
H1265 H 0.73637 0.03178 0.86018 0.0
H1266 H 0.75078 0.03495 0.81939 0.0
H1267 H 0.68892 0.02732 0.76614 0.0
H1268 H 0.73322 1.01946 0.65053 0.0
H1269 H 0.71849 1.01645 0.69126 0.0
C1270 C 0.02692 0.78878 0.83728 0.0
C1271 C 0.01408 0.77854 0.85475 0.0
C1272 C 0.01863 0.78838 0.81381 0.0
C1273 C 0.9639 0.7751 0.77538 0.0
H1274 H 0.01583 0.77243 0.72689 0.0
C1275 C 0.93997 0.75712 0.67836 0.0
C1276 C 0.95167 0.76806 0.66088 0.0
C1277 C 0.94785 0.7583 0.70191 0.0
C1278 C 0.00108 0.77333 0.74019 0.0
H1279 H 0.98211 0.76025 0.8615 0.0
H1280 H 0.96777 0.75931 0.82055 0.0
H1281 H 0.02823 0.77544 0.76815 0.0
H1282 H 0.98116 0.7885 0.6542 0.0
H1283 H -0.0049 0.79049 0.69531 0.0
H1284 H 0.93678 0.77274 0.74734 0.0
C1285 C -0.01595 0.7679 0.82493 0.0
C1286 C 0.00818 0.77514 0.76389 0.0
C1287 C -0.00772 0.76839 0.84844 0.0
C1288 C 0.97188 0.77983 0.66729 0.0
C1289 C 0.97988 0.78094 0.69084 0.0
C1290 C 0.95682 0.7732 0.75168 0.0
C1291 C -0.00263 0.77763 0.80719 0.0
C1292 C -0.01031 0.77606 0.78185 0.0
C1293 C 0.96771 0.77039 0.70851 0.0
C1294 C 0.97532 0.77228 0.73377 0.0
H1295 H 0.04376 0.79677 0.84164 0.0
H1296 H 0.02907 0.79637 0.8008 0.0
H1297 H 0.9491 0.77605 0.78861 0.0
H1298 H 0.92431 0.74794 0.67394 0.0
H1299 H 0.93831 0.74978 0.71499 0.0
C1300 C 0.68661 0.79176 0.92945 0.0
C1301 C 0.70034 0.78285 0.91141 0.0
C1302 C 0.69446 0.7904 0.95298 0.0
C1303 C 0.74914 0.77785 0.99132 0.0
H1304 H 0.69662 0.76899 0.03806 0.0
C1305 C 0.77413 0.75844 0.08743 0.0
C1306 C 0.76028 0.76744 0.10531 0.0
C1307 C 0.76628 0.75952 0.06387 0.0
C1308 C 0.71152 0.77163 0.0253 0.0
H1309 H 0.73353 0.76602 0.90375 0.0
H1310 H 0.74731 0.76361 0.94483 0.0
H1311 H 0.6849 0.77353 0.99685 0.0
H1312 H 0.72687 0.78411 0.11269 0.0
H1313 H 0.71312 0.78606 0.07158 0.0
H1314 H 0.77577 0.77598 0.01977 0.0
C1315 C 0.73054 0.77177 0.94083 0.0
C1316 C 0.7048 0.77428 1.00163 0.0
C1317 C 0.72265 0.77314 0.91727 0.0
C1318 C 0.73784 0.77693 0.09929 0.0
C1319 C 0.72997 0.77802 0.07571 0.0
C1320 C 0.75587 0.77521 0.01499 0.0
C1321 C 0.71625 0.78008 0.95905 0.0
C1322 C 0.72351 0.77746 0.98431 0.0
C1323 C 0.74438 0.76965 0.05762 0.0
C1324 C 0.73716 0.77207 0.03232 0.0
H1325 H 0.66933 0.79936 0.92547 0.0
H1326 H 0.68326 0.79727 0.96646 0.0
H1327 H 0.76404 0.7805 0.97855 0.0
H1328 H 0.79151 0.75101 0.09154 0.0
H1329 H 0.77758 0.75259 0.0505 0.0
C1330 C 0.18949 0.49802 0.83668 0.0
C1331 C 0.2036 0.50654 0.85476 0.0
C1332 C 0.1971 0.49964 0.81309 0.0
C1333 C 0.25149 0.51254 0.77437 0.0
H1334 H 0.19845 0.52245 0.72854 0.0
C1335 C 0.27537 0.53443 0.67884 0.0
C1336 C 0.26135 0.52591 0.6607 0.0
C1337 C 0.26779 0.53266 0.70242 0.0
C1338 C 0.21349 0.51952 0.74104 0.0
H1339 H 0.23722 0.52291 0.86243 0.0
H1340 H 0.25055 0.5258 0.82126 0.0
H1341 H 0.18721 0.51711 0.76973 0.0
H1342 H 0.22793 0.50935 0.65293 0.0
H1343 H 0.21462 0.50623 0.69408 0.0
H1344 H 0.27778 0.51498 0.74567 0.0
C1345 C 0.23368 0.51772 0.82526 0.0
C1346 C 0.20704 0.5164 0.76469 0.0
C1347 C 0.22605 0.51608 0.84888 0.0
C1348 C 0.23902 0.51618 0.66652 0.0
C1349 C 0.23141 0.51441 0.69013 0.0
C1350 C 0.25794 0.51567 0.75071 0.0
C1351 C 0.21901 0.50985 0.80699 0.0
C1352 C 0.22595 0.51285 0.7817 0.0
C1353 C 0.24599 0.52231 0.70844 0.0
C1354 C 0.23904 0.51922 0.73371 0.0
H1355 H 0.1721 0.49056 0.84067 0.0
H1356 H 0.1856 0.49308 0.79958 0.0
H1357 H 0.26654 0.50961 0.78686 0.0
H1358 H 0.29267 0.54203 0.67489 0.0
H1359 H 0.27921 0.53924 0.71597 0.0
C1360 C 0.22794 0.76511 0.41652 0.0
C1361 C 0.20579 0.77507 0.41079 0.0
C1362 C 0.2356 0.76328 0.4401 0.0
C1363 C 0.20925 0.76488 0.50075 0.0
H1364 H 0.28004 0.76565 0.51958 0.0
C1365 C 0.2414 0.76565 0.59876 0.0
C1366 C 0.26365 0.7559 0.60469 0.0
C1367 C 0.23372 0.76715 0.57516 0.0
C1368 C 0.26019 0.76513 0.5146 0.0
H1369 H 0.17488 0.79155 0.42508 0.0
H1370 H 0.18843 0.78866 0.4661 0.0
H1371 H 0.26883 0.77099 0.47839 0.0
H1372 H 0.29472 0.7394 0.59072 0.0
H1373 H 0.28113 0.7417 0.54965 0.0
H1374 H 0.2006 0.75904 0.53696 0.0
C1375 C 0.19966 0.78195 0.45251 0.0
C1376 C 0.25376 0.76825 0.49094 0.0
C1377 C 0.19203 0.78377 0.42897 0.0
C1378 C 0.27748 0.74702 0.58669 0.0
C1379 C 0.26983 0.74852 0.56311 0.0
C1380 C 0.21568 0.76177 0.5244 0.0
C1381 C 0.22125 0.77135 0.45845 0.0
C1382 C 0.2282 0.76821 0.4837 0.0
C1383 C 0.24815 0.75894 0.55696 0.0
C1384 C 0.24123 0.76185 0.53166 0.0
H1385 H 0.23883 0.75815 0.40289 0.0
H1386 H 0.25222 0.75492 0.444 0.0
H1387 H 0.18939 0.76439 0.49577 0.0
H1388 H 0.23045 0.77274 0.61225 0.0
H1389 H 0.21704 0.77539 0.57111 0.0
C1390 C 0.02708 0.49924 0.42753 0.0
C1391 C 0.01323 0.50797 0.40945 0.0
C1392 C 0.01958 0.50107 0.45113 0.0
C1393 C 0.96573 0.51514 0.48984 0.0
H1394 H 0.01919 0.52437 0.53551 0.0
C1395 C 0.94284 0.53829 0.58507 0.0
C1396 C 0.95648 0.52955 0.60329 0.0
C1397 C 0.95034 0.53619 0.56152 0.0
C1398 C 0.00403 0.52164 0.52305 0.0
H1399 H 0.98017 0.52492 0.40178 0.0
H1400 H 0.96705 0.52817 0.44294 0.0
H1401 H 0.03017 0.51853 0.49436 0.0
H1402 H -0.01083 0.5123 0.61124 0.0
H1403 H 0.00234 0.50862 0.57012 0.0
H1404 H 0.93959 0.5183 0.51853 0.0
C1405 C -0.01639 0.51977 0.43895 0.0
C1406 C 0.01033 0.51823 0.49943 0.0
C1407 C -0.00887 0.51793 0.41534 0.0
C1408 C 0.97838 0.51929 0.59757 0.0
C1409 C -0.01408 0.5172 0.57399 0.0
C1410 C 0.95944 0.51857 0.51346 0.0
C1411 C -0.00195 0.51169 0.45721 0.0
C1412 C -0.00873 0.51493 0.48249 0.0
C1413 C 0.97168 0.52531 0.55561 0.0
C1414 C 0.97849 0.52189 0.53039 0.0
H1415 H 0.04421 0.49147 0.42353 0.0
H1416 H 0.03088 0.49434 0.46465 0.0
H1417 H 0.95057 0.51241 0.4774 0.0
H1418 H 0.92588 0.54629 0.58894 0.0
H1419 H 0.93922 0.54293 0.54789 0.0
C1420 C 0.77313 0.54997 0.17802 0.0
C1421 C 0.76055 0.54004 0.1601 0.0
C1422 C 0.76505 0.54862 0.20152 0.0
C1423 C 0.73119 0.51651 0.24145 0.0
H1424 H 0.72949 0.55887 0.284 0.0
C1425 C 0.69058 0.51099 0.33624 0.0
C1426 C 0.70176 0.52182 0.3541 0.0
C1427 C 0.69813 0.51309 0.31268 0.0
C1428 C 0.73022 0.54682 0.27249 0.0
H1429 H 0.72913 0.5214 0.1526 0.0
H1430 H 0.71493 0.51909 0.1936 0.0
H1431 H 0.7408 0.56355 0.24267 0.0
H1432 H 0.73013 0.54294 0.36147 0.0
H1433 H 0.74388 0.54626 0.32049 0.0
H1434 H 0.72102 0.4997 0.27122 0.0
C1435 C 0.7312 0.52779 0.18954 0.0
C1436 C 0.73661 0.54954 0.24872 0.0
C1437 C 0.73918 0.52925 0.16602 0.0
C1438 C 0.72117 0.53441 0.34805 0.0
C1439 C 0.72884 0.53644 0.32451 0.0
C1440 C 0.72498 0.51376 0.26523 0.0
C1441 C 0.74432 0.53717 0.20765 0.0
C1442 C 0.7371 0.53442 0.23288 0.0
C1443 C 0.71717 0.52601 0.30641 0.0
C1444 C 0.72434 0.52888 0.28111 0.0
H1445 H 0.78975 0.55832 0.17399 0.0
H1446 H 0.77569 0.55595 0.21501 0.0
H1447 H 0.73185 0.50449 0.22985 0.0
H1448 H 0.67541 0.50128 0.34034 0.0
H1449 H 0.68843 0.50497 0.29931 0.0
C1450 C 0.69286 0.28836 0.42738 0.0
C1451 C 0.70427 0.27727 0.40989 0.0
C1452 C 0.70021 0.28669 0.45102 0.0
C1453 C 0.7517 0.26979 0.48995 0.0
H1454 H 0.69841 0.2675 0.53718 0.0
C1455 C 0.77464 0.25287 0.58721 0.0
C1456 C 0.7618 0.26323 0.60455 0.0
C1457 C 0.76684 0.25355 0.56361 0.0
C1458 C 0.71357 0.26832 0.52429 0.0
H1459 H 0.73278 0.25609 0.40328 0.0
H1460 H 0.74585 0.25329 0.44456 0.0
H1461 H 0.68728 0.27168 0.49574 0.0
H1462 H 0.7303 0.28201 0.61096 0.0
H1463 H 0.71685 0.28346 0.56979 0.0
H1464 H 0.77804 0.26672 0.51842 0.0
C1465 C 0.73124 0.26331 0.44002 0.0
C1466 C 0.70718 0.27072 0.5005 0.0
C1467 C 0.72374 0.26489 0.41638 0.0
C1468 C 0.74045 0.27376 0.59799 0.0
C1469 C 0.73272 0.27455 0.57435 0.0
C1470 C 0.75812 0.2675 0.51375 0.0
C1471 C 0.71926 0.27397 0.45769 0.0
C1472 C 0.72616 0.27151 0.48303 0.0
C1473 C 0.74612 0.26474 0.55674 0.0
C1474 C 0.73915 0.26673 0.53128 0.0
H1475 H 0.67775 0.298 0.42289 0.0
H1476 H 0.69087 0.29531 0.46412 0.0
H1477 H 0.7668 0.27056 0.47699 0.0
H1478 H 0.79115 0.24459 0.59177 0.0
H1479 H 0.7773 0.24548 0.55069 0.0
C1480 C 0.48908 0.27252 0.84933 0.0
C1481 C 0.51136 0.28246 0.85468 0.0
C1482 C 0.48119 0.27035 0.82586 0.0
C1483 C 0.50703 0.27079 0.76501 0.0
H1484 H 0.43606 0.27114 0.74675 0.0
C1485 C 0.4741 0.269 0.66725 0.0
C1486 C 0.45182 0.25908 0.66184 0.0
C1487 C 0.4819 0.27118 0.69074 0.0
C1488 C 0.45596 0.27073 0.75158 0.0
H1489 H 0.5423 0.29858 0.83977 0.0
H1490 H 0.52836 0.29512 0.79891 0.0
H1491 H 0.44768 0.27742 0.78763 0.0
H1492 H 0.42077 0.24303 0.67667 0.0
H1493 H 0.43458 0.24651 0.71758 0.0
H1494 H 0.51532 0.2641 0.72896 0.0
C1495 C 0.51718 0.28867 0.81275 0.0
C1496 C 0.46263 0.27439 0.77506 0.0
C1497 C 0.52504 0.29083 0.83619 0.0
C1498 C 0.43804 0.25075 0.6803 0.0
C1499 C 0.44582 0.25293 0.70377 0.0
C1500 C 0.50037 0.26713 0.74153 0.0
C1501 C 0.49545 0.27807 0.80721 0.0
C1502 C 0.48826 0.27449 0.7821 0.0
C1503 C 0.46757 0.26349 0.70936 0.0
C1504 C 0.47474 0.26704 0.73448 0.0
H1505 H 0.47825 0.2658 0.8632 0.0
H1506 H 0.46448 0.26199 0.8223 0.0
H1507 H 0.52694 0.27039 0.76984 0.0
H1508 H 0.48502 0.27568 0.65341 0.0
H1509 H 0.49863 0.27952 0.69433 0.0
C1510 C 0.47044 1.00901 0.60016 0.0
C1511 C 0.4553 0.02412 0.60723 0.0
C1512 C 0.47853 1.00732 0.57673 0.0
C1513 C 0.50249 1.0088 0.52846 0.0
H1514 H 0.46187 0.03085 0.4788 0.0
C1515 C 0.53793 1.00913 0.43206 0.0
C1516 C 0.52043 1.01006 0.41343 0.0
C1517 C 0.52981 1.0104 0.4555 0.0
C1518 C 0.4733 0.02425 0.49229 0.0
H1519 H 0.43751 0.04974 0.59564 0.0
H1520 H 0.45313 0.04768 0.55517 0.0
H1521 H 0.44833 0.03385 0.51941 0.0
H1522 H 0.48056 1.01237 0.40465 0.0
H1523 H 0.46598 1.01324 0.44558 0.0
H1524 H 0.52638 0.99797 0.50135 0.0
C1525 C 0.45788 0.03654 0.56728 0.0
C1526 C 0.46578 0.02637 0.51588 0.0
C1527 C 0.44918 0.03792 0.59062 0.0
C1528 C 0.49447 1.01162 0.41871 0.0
C1529 C 0.4862 1.01238 0.44226 0.0
C1530 C 0.5096 1.00624 0.50488 0.0
C1531 C 0.4723 1.021 0.55977 0.0
C1532 C 0.48034 1.01881 0.53444 0.0
C1533 C 0.50379 1.01212 0.46109 0.0
C1534 C 0.49533 1.0141 0.48633 0.0
H1535 H 0.47512 0.99798 0.61251 0.0
H1536 H 0.48899 0.99489 0.5719 0.0
H1537 H 0.51466 1.00298 0.54196 0.0
H1538 H 0.55814 1.00821 0.42854 0.0
H1539 H 0.5442 1.01061 0.46912 0.0
C1540 C 0.4704 0.76998 0.16535 0.0
C1541 C 0.44714 0.76127 0.16021 0.0
C1542 C 0.47861 0.77187 0.18876 0.0
C1543 C 0.46756 0.75457 0.24994 0.0
H1544 H 0.49674 0.80226 0.26778 0.0
C1545 C 0.48584 0.7737 0.34767 0.0
C1546 C 0.50927 0.7822 0.35277 0.0
C1547 C 0.47766 0.77174 0.32426 0.0
C1548 C 0.48883 0.7888 0.26308 0.0
H1549 H 0.41461 0.74716 0.17545 0.0
H1550 H 0.4288 0.75046 0.21621 0.0
H1551 H 0.48493 0.79661 0.2268 0.0
H1552 H 0.54211 0.79587 0.33745 0.0
H1553 H 0.5279 0.7925 0.29669 0.0
H1554 H 0.47143 0.74677 0.28625 0.0
C1555 C 0.44089 0.75572 0.20224 0.0
C1556 C 0.48213 0.78552 0.23953 0.0
C1557 C 0.43271 0.75385 0.17885 0.0
C1558 C 0.52389 0.78934 0.33408 0.0
C1559 C 0.5157 0.78743 0.31069 0.0
C1560 C 0.47425 0.75785 0.2735 0.0
C1561 C 0.46372 0.76508 0.20756 0.0
C1562 C 0.47142 0.76836 0.23261 0.0
C1563 C 0.49271 0.77829 0.30543 0.0
C1564 C 0.48498 0.77501 0.2804 0.0
H1565 H 0.48191 0.77586 0.15134 0.0
H1566 H 0.4965 0.77885 0.19213 0.0
H1567 H 0.45968 0.7411 0.24525 0.0
H1568 H 0.47419 0.76803 0.36172 0.0
H1569 H 0.45966 0.76491 0.3209 0.0
C1570 C 0.46905 0.53097 0.0964 0.0
C1571 C 0.44306 0.53164 0.10181 0.0
C1572 C 0.47717 0.52992 0.07283 0.0
C1573 C 0.45282 0.53386 0.01034 0.0
H1574 H 0.51552 0.50793 0.99608 0.0
C1575 C 0.51409 0.50257 0.92505 0.0
C1576 C 0.5073 0.51605 0.90824 0.0
C1577 C 0.50546 0.50403 0.9484 0.0
C1578 C 0.49768 0.51492 0.99957 0.0
H1579 H 0.40513 0.53157 0.08696 0.0
H1580 H 0.41889 0.52866 0.04641 0.0
H1581 H 0.50222 0.51131 0.03674 0.0
H1582 H 0.48631 0.54164 0.90256 0.0
H1583 H 0.4725 0.54486 0.94315 0.0
H1584 H 0.44721 0.53624 0.97324 0.0
C1585 C 0.43336 0.5298 0.05989 0.0
C1586 C 0.49029 0.51726 0.02315 0.0
C1587 C 0.42535 0.53136 0.08331 0.0
C1588 C 0.49152 0.53087 0.91508 0.0
C1589 C 0.48348 0.53263 0.93849 0.0
C1590 C 0.45984 0.53107 0.9868 0.0
C1591 C 0.45941 0.52901 0.05417 0.0
C1592 C 0.46774 0.52682 0.02897 0.0
C1593 C 0.49042 0.51932 0.95565 0.0
C1594 C 0.48249 0.52167 0.98095 0.0
H1595 H 0.4831 0.53116 0.11037 0.0
H1596 H 0.49739 0.52977 0.06934 0.0
H1597 H 0.43562 0.54166 0.01379 0.0
H1598 H 0.52627 0.49099 0.9202 0.0
H1599 H 0.51077 0.49318 0.96072 0.0
C1600 C 0.36633 0.03372 0.97094 0.0
C1601 C 0.36215 1.01761 0.98453 0.0
C1602 C 0.36593 0.03288 0.94622 0.0
C1603 C 0.34184 1.00311 0.89686 0.0
H1604 H 0.38234 0.03673 0.85865 0.0
C1605 C 0.34828 0.9995 0.79387 0.0
C1606 C 0.34823 1.01665 0.78179 0.0
C1607 C 0.34898 0.99902 0.81865 0.0
C1608 C 0.37072 0.02735 0.86908 0.0
H1609 H 0.35534 0.98782 0.98286 0.0
H1610 H 0.35562 0.98616 0.93979 0.0
H1611 H 0.38772 0.03655 0.90133 0.0
H1612 H 0.34797 0.04671 0.78626 0.0
H1613 H 0.34921 0.04586 0.8293 0.0
H1614 H 0.32522 0.99372 0.86433 0.0
C1615 C 0.3585 0.9996 0.94812 0.0
C1616 C 0.37376 0.02726 0.89364 0.0
C1617 C 0.35868 1.00048 0.97286 0.0
C1618 C 0.34791 0.03326 0.79501 0.0
C1619 C 0.34889 0.03278 0.8197 0.0
C1620 C 0.339 1.00306 0.87223 0.0
C1621 C 0.36154 1.01586 0.93439 0.0
C1622 C 0.35921 1.01526 0.90799 0.0
C1623 C 0.34998 1.01567 0.83184 0.0
C1624 C 0.35321 1.01533 0.85804 0.0
H1625 H 0.36876 0.04717 0.97939 0.0
H1626 H 0.36803 0.04578 0.93646 0.0
H1627 H 0.32992 0.99388 0.90719 0.0
H1628 H 0.34872 0.98647 0.78417 0.0
H1629 H 0.34987 0.9856 0.82743 0.0
C1630 C 0.85263 0.26608 0.96894 0.0
C1631 C 0.8541 0.28265 0.98211 0.0
C1632 C 0.85246 0.26656 0.94427 0.0
C1633 C 0.87108 0.29693 0.89398 0.0
H1634 H 0.83469 0.25968 0.8576 0.0
C1635 C 0.86378 0.29687 0.79108 0.0
C1636 C 0.86553 0.27941 0.77987 0.0
C1637 C 0.86333 0.2981 0.81579 0.0
C1638 C 0.84517 0.27008 0.86751 0.0
H1639 H 0.85558 0.31281 0.97979 0.0
H1640 H 0.85453 0.31376 0.93661 0.0
H1641 H 0.82957 0.26069 0.90028 0.0
H1642 H 0.8693 0.24964 0.78571 0.0
H1643 H 0.86863 0.25177 0.8287 0.0
H1644 H 0.88639 0.30641 0.86095 0.0
C1645 C 0.85406 0.30031 0.94533 0.0
C1646 C 0.84224 0.27067 0.89204 0.0
C1647 C 0.85435 0.29981 0.97009 0.0
C1648 C 0.86798 0.2633 0.79382 0.0
C1649 C 0.86733 0.26451 0.81846 0.0
C1650 C 0.87384 0.29643 0.86937 0.0
C1651 C 0.85361 0.28366 0.93206 0.0
C1652 C 0.85539 0.28394 0.9057 0.0
C1653 C 0.86438 0.28187 0.82975 0.0
C1654 C 0.86117 0.28284 0.85587 0.0
H1655 H 0.85264 0.25263 0.97769 0.0
H1656 H 0.85246 0.25343 0.93481 0.0
H1657 H 0.88182 0.30719 0.90386 0.0
H1658 H 0.86171 0.30952 0.78077 0.0
H1659 H 0.86099 0.31168 0.82393 0.0
C1660 C 0.36005 0.29091 0.29388 0.0
C1661 C 0.36215 0.27385 0.28177 0.0
C1662 C 0.36022 0.2914 0.31864 0.0
C1663 C 0.37476 0.26236 0.37201 0.0
H1664 H 0.328 0.29623 0.40314 0.0
C1665 C 0.34969 0.2542 0.47043 0.0
C1666 C 0.35068 0.27042 0.48438 0.0
C1667 C 0.35044 0.25538 0.44579 0.0
C1668 C 0.34129 0.28679 0.39472 0.0
H1669 H 0.36669 0.244 0.28611 0.0
H1670 H 0.36663 0.24473 0.32902 0.0
H1671 H 0.33228 0.29705 0.36022 0.0
H1672 H 0.35214 0.30063 0.48338 0.0
H1673 H 0.353 0.30272 0.44019 0.0
H1674 H 0.38332 0.25184 0.40648 0.0
C1675 C 0.36531 0.25785 0.31961 0.0
C1676 C 0.34388 0.28731 0.37008 0.0
C1677 C 0.36529 0.25739 0.29491 0.0
C1678 C 0.35119 0.2879 0.4731 0.0
C1679 C 0.35172 0.28908 0.44836 0.0
C1680 C 0.37199 0.26174 0.39657 0.0
C1681 C 0.36234 0.27482 0.3319 0.0
C1682 C 0.36053 0.275 0.35831 0.0
C1683 C 0.35203 0.2728 0.43443 0.0
C1684 C 0.35509 0.27383 0.40825 0.0
H1685 H 0.35751 0.30383 0.28423 0.0
H1686 H 0.35836 0.30478 0.32738 0.0
H1687 H 0.38819 0.25294 0.36378 0.0
H1688 H 0.34934 0.24052 0.47858 0.0
H1689 H 0.35021 0.24258 0.4356 0.0
C1690 C 0.84897 0.04193 0.29638 0.0
C1691 C 0.85333 0.0261 0.28234 0.0
C1692 C 0.85003 0.04074 0.32103 0.0
C1693 C 0.87612 1.01065 0.36911 0.0
H1694 H 0.83584 0.04334 0.40879 0.0
C1695 C 0.87103 1.00637 0.47221 0.0
C1696 C 0.8718 0.02352 0.48427 0.0
C1697 C 0.87003 1.00591 0.44746 0.0
C1698 C 0.84737 0.03421 0.39793 0.0
H1699 H 0.86114 0.99642 0.28309 0.0
H1700 H 0.86194 0.99411 0.32609 0.0
H1701 H 0.82925 0.04346 0.36627 0.0
H1702 H 0.87321 0.05357 0.47985 0.0
H1703 H 0.87134 0.05274 0.43683 0.0
H1704 H 0.89376 1.00117 0.40113 0.0
C1705 C 0.85846 1.00762 0.31816 0.0
C1706 C 0.84365 0.0343 0.37348 0.0
C1707 C 0.85767 1.00887 0.29347 0.0
C1708 C 0.87269 0.04013 0.47109 0.0
C1709 C 0.87137 0.03967 0.44644 0.0
C1710 C 0.87958 1.0104 0.39366 0.0
C1711 C 0.85522 0.02362 0.33233 0.0
C1712 C 0.85817 0.02269 0.35862 0.0
C1713 C 0.86943 0.02259 0.43435 0.0
C1714 C 0.86547 0.02235 0.40831 0.0
H1715 H 0.84588 0.05545 0.28832 0.0
H1716 H 0.84779 0.05346 0.33114 0.0
H1717 H 0.88801 1.00172 0.35836 0.0
H1718 H 0.87015 0.99336 0.48192 0.0
H1719 H 0.86852 0.99253 0.43864 0.0
C1720 C 0.60708 0.04403 0.04233 0.0
C1721 C 0.60375 0.02697 0.03042 0.0
C1722 C 0.60784 0.04461 0.06708 0.0
C1723 C 0.62333 1.01443 0.1178 0.0
H1724 H 0.59053 0.05259 0.15557 0.0
C1725 C 0.61523 1.0082 0.219 0.0
C1726 C 0.61561 0.0244 0.23296 0.0
C1727 C 0.61535 1.00938 0.19436 0.0
C1728 C 0.6002 0.042 0.1453 0.0
H1729 H 0.59759 0.99729 0.03511 0.0
H1730 H 0.59876 0.9983 0.07816 0.0
H1731 H 0.58605 0.05308 0.11264 0.0
H1732 H 0.6172 0.0546 0.23201 0.0
H1733 H 0.61812 0.05673 0.18885 0.0
H1734 H 0.63776 1.00342 0.1502 0.0
C1735 C 0.60109 1.01121 0.06844 0.0
C1736 C 0.5975 0.04224 0.12066 0.0
C1737 C 0.60015 1.01066 0.04376 0.0
C1738 C 0.61702 0.04186 0.22171 0.0
C1739 C 0.61723 0.04306 0.19696 0.0
C1740 C 0.6262 1.01427 0.14235 0.0
C1741 C 0.60551 0.02811 0.08043 0.0
C1742 C 0.60875 0.0283 0.10662 0.0
C1743 C 0.61599 0.02682 0.18292 0.0
C1744 C 0.61441 0.02789 0.15654 0.0
H1745 H 0.61008 0.05682 0.03252 0.0
H1746 H 0.61135 0.05785 0.07572 0.0
H1747 H 0.63276 1.00373 0.10751 0.0
H1748 H 0.6139 0.99453 0.2271 0.0
H1749 H 0.61398 0.99655 0.18432 0.0
C1750 C 0.11398 0.7809 0.04675 0.0
C1751 C 0.1134 0.76455 0.03305 0.0
C1752 C 0.11298 0.77997 0.07138 0.0
C1753 C 0.122 0.74923 0.12304 0.0
H1754 H 0.07463 0.78334 0.15293 0.0
C1755 C 0.10273 0.74656 0.22376 0.0
C1756 C 0.10084 0.76381 0.23546 0.0
C1757 C 0.10251 0.7457 0.19903 0.0
C1758 C 0.08817 0.77384 0.14498 0.0
H1759 H 0.11244 0.73433 0.03449 0.0
H1760 H 0.11111 0.73267 0.07773 0.0
H1761 H 0.07971 0.78378 0.11022 0.0
H1762 H 0.09651 0.79361 0.23045 0.0
H1763 H 0.0964 0.79223 0.18753 0.0
H1764 H 0.13087 0.73954 0.15784 0.0
C1765 C 0.11226 0.74623 0.06934 0.0
C1766 C 0.09107 0.77409 0.12043 0.0
C1767 C 0.11308 0.74717 0.04459 0.0
C1768 C 0.09775 0.78009 0.22196 0.0
C1769 C 0.09766 0.77926 0.19727 0.0
C1770 C 0.11925 0.74907 0.14767 0.0
C1771 C 0.11152 0.76266 0.083 0.0
C1772 C 0.10817 0.76191 0.10915 0.0
C1773 C 0.10051 0.76209 0.1854 0.0
C1774 C 0.10243 0.76149 0.15903 0.0
H1775 H 0.11422 0.79451 0.0384 0.0
H1776 H 0.11293 0.79288 0.08136 0.0
H1777 H 0.13544 0.73974 0.11493 0.0
H1778 H 0.10521 0.73377 0.2337 0.0
H1779 H 0.10426 0.73219 0.1906 0.0
C1780 C 0.60312 0.78659 0.72011 0.0
C1781 C 0.59796 0.77126 0.73485 0.0
C1782 C 0.60374 0.78447 0.69557 0.0
C1783 C 0.58179 0.75628 0.64588 0.0
H1784 H 0.64264 0.77415 0.61451 0.0
C1785 C 0.5948 0.74656 0.54525 0.0
C1786 C 0.60658 0.76109 0.5327 0.0
C1787 C 0.59533 0.74623 0.56998 0.0
C1788 C 0.62531 0.7693 0.6228 0.0
H1789 H 0.58838 0.74185 0.73538 0.0
H1790 H 0.58853 0.73829 0.69224 0.0
H1791 H 0.63854 0.77734 0.65714 0.0
H1792 H 0.62865 0.78645 0.53616 0.0
H1793 H 0.62894 0.78632 0.57909 0.0
H1794 H 0.56793 0.74896 0.61165 0.0
C1795 C 0.59239 0.75189 0.6998 0.0
C1796 C 0.62306 0.77107 0.64733 0.0
C1797 C 0.59224 0.75394 0.72446 0.0
C1798 C 0.61967 0.77493 0.54534 0.0
C1799 C 0.61984 0.7748 0.57007 0.0
C1800 C 0.58381 0.75482 0.62127 0.0
C1801 C 0.59878 0.76705 0.68515 0.0
C1802 C 0.60123 0.76467 0.65913 0.0
C1803 C 0.60724 0.76063 0.58284 0.0
C1804 C 0.60558 0.76138 0.60928 0.0
H1805 H 0.60777 0.8001 0.72756 0.0
H1806 H 0.60844 0.79644 0.68472 0.0
H1807 H 0.56468 0.75133 0.6545 0.0
H1808 H 0.58457 0.73568 0.53595 0.0
H1809 H 0.58598 0.73479 0.57896 0.0
C1810 C 0.10974 0.03882 0.72192 0.0
C1811 C 0.11196 1.02159 0.73365 0.0
C1812 C 0.10914 0.03957 0.69717 0.0
C1813 C 0.09103 1.0106 0.64635 0.0
H1814 H 0.12844 0.04645 0.60868 0.0
C1815 C 0.0979 1.00409 0.54497 0.0
C1816 C 0.10037 1.02027 0.53117 0.0
C1817 C 0.09776 1.00517 0.56963 0.0
C1818 C 0.11746 0.03654 0.61889 0.0
H1819 H 0.11626 0.99176 0.72863 0.0
H1820 H 0.11514 0.99307 0.68559 0.0
H1821 H 0.13277 0.04672 0.6516 0.0
H1822 H 0.1036 0.05039 0.53238 0.0
H1823 H 0.10242 0.05243 0.57547 0.0
H1824 H 0.07531 1.00057 0.61396 0.0
C1825 C 0.1137 1.00598 0.69547 0.0
C1826 C 0.1201 0.03665 0.64354 0.0
C1827 C 0.11458 1.00525 0.72013 0.0
C1828 C 0.10161 0.03767 0.54256 0.0
C1829 C 0.10126 0.0388 0.56729 0.0
C1830 C 0.08816 1.01062 0.62179 0.0
C1831 C 0.11041 0.02309 0.68368 0.0
C1832 C 0.10718 0.02351 0.65753 0.0
C1833 C 0.09986 0.02252 0.58122 0.0
C1834 C 0.10159 0.02341 0.60761 0.0
H1835 H 0.10753 0.05163 0.73188 0.0
H1836 H 0.10654 0.05296 0.68863 0.0
H1837 H 0.08039 1.00053 0.65665 0.0
H1838 H 0.09717 0.99044 0.53674 0.0
H1839 H 0.09703 0.99227 0.57956 0.0
C1840 C 0.36394 0.49781 0.47268 0.0
C1841 C 0.36482 0.51505 0.48448 0.0
C1842 C 0.36402 0.49707 0.44794 0.0
C1843 C 0.37577 0.5261 0.39401 0.0
H1844 H 0.3306 0.4904 0.36412 0.0
C1845 C 0.34764 0.53283 0.29626 0.0
C1846 C 0.34969 0.51664 0.28238 0.0
C1847 C 0.34904 0.53178 0.32088 0.0
C1848 C 0.34344 0.50035 0.3722 0.0
H1849 H 0.36723 0.545 0.47965 0.0
H1850 H 0.367 0.54382 0.43676 0.0
H1851 H 0.33581 0.49003 0.40696 0.0
H1852 H 0.35367 0.48655 0.28345 0.0
H1853 H 0.35562 0.48466 0.32662 0.0
H1854 H 0.38287 0.53668 0.35928 0.0
C1855 C 0.36669 0.53077 0.4464 0.0
C1856 C 0.34657 0.50009 0.39678 0.0
C1857 C 0.36677 0.53148 0.47108 0.0
C1858 C 0.35188 0.49925 0.2937 0.0
C1859 C 0.35304 0.49818 0.31841 0.0
C1860 C 0.37243 0.52646 0.36951 0.0
C1861 C 0.36483 0.51358 0.43442 0.0
C1862 C 0.36264 0.51307 0.40808 0.0
C1863 C 0.35232 0.5145 0.33224 0.0
C1864 C 0.35607 0.51371 0.35831 0.0
H1865 H 0.36236 0.48491 0.48255 0.0
H1866 H 0.36306 0.48356 0.43942 0.0
H1867 H 0.38872 0.53605 0.40189 0.0
H1868 H 0.34599 0.54644 0.28807 0.0
H1869 H 0.34798 0.54458 0.33103 0.0
C1870 C 0.84876 0.76265 0.47026 0.0
C1871 C 0.85314 0.77854 0.48421 0.0
C1872 C 0.84842 0.76395 0.44561 0.0
C1873 C 0.87096 0.79447 0.39655 0.0
H1874 H 0.82934 0.76132 0.35871 0.0
C1875 C 0.86284 0.79803 0.29354 0.0
C1876 C 0.86277 0.78079 0.28166 0.0
C1877 C 0.86245 0.79868 0.31832 0.0
C1878 C 0.84125 0.77058 0.36903 0.0
H1879 H 0.85957 0.8084 0.48331 0.0
H1880 H 0.8581 0.81084 0.4403 0.0
H1881 H 0.82486 0.7612 0.40147 0.0
H1882 H 0.86325 0.75076 0.28642 0.0
H1883 H 0.86258 0.7519 0.32942 0.0
H1884 H 0.88701 0.80398 0.36382 0.0
C1885 C 0.85557 0.79725 0.44832 0.0
C1886 C 0.83872 0.7705 0.39362 0.0
C1887 C 0.8561 0.79591 0.47301 0.0
C1888 C 0.86334 0.76427 0.29503 0.0
C1889 C 0.86271 0.76491 0.31969 0.0
C1890 C 0.87329 0.79468 0.37188 0.0
C1891 C 0.85225 0.78121 0.43421 0.0
C1892 C 0.85377 0.78225 0.40782 0.0
C1893 C 0.86168 0.7821 0.33165 0.0
C1894 C 0.85871 0.78254 0.35785 0.0
H1895 H 0.84668 0.74904 0.47836 0.0
H1896 H 0.84616 0.75122 0.43552 0.0
H1897 H 0.88318 0.80354 0.40679 0.0
H1898 H 0.86222 0.81099 0.28371 0.0
H1899 H 0.86164 0.81214 0.327 0.0
C1900 C 0.37025 0.75581 0.79385 0.0
C1901 C 0.36763 0.77183 0.77978 0.0
C1902 C 0.36975 0.75713 0.81849 0.0
C1903 C 0.34713 0.78837 0.86662 0.0
H1904 H 0.38467 0.75377 0.90598 0.0
C1905 C 0.35022 0.79124 0.96989 0.0
C1906 C 0.34876 0.77396 0.98158 0.0
C1907 C 0.3518 0.79199 0.94516 0.0
C1908 C 0.37389 0.76344 0.89522 0.0
H1909 H 0.36351 0.80191 0.78048 0.0
H1910 H 0.36347 0.80434 0.82354 0.0
H1911 H 0.39132 0.75364 0.86346 0.0
H1912 H 0.34668 0.744 0.97653 0.0
H1913 H 0.34939 0.7453 0.9336 0.0
H1914 H 0.32999 0.79828 0.89868 0.0
C1915 C 0.3653 0.79066 0.81558 0.0
C1916 C 0.37768 0.76336 0.87078 0.0
C1917 C 0.36565 0.78931 0.79088 0.0
C1918 C 0.34777 0.75754 0.96805 0.0
C1919 C 0.34958 0.75826 0.94345 0.0
C1920 C 0.34353 0.78857 0.89116 0.0
C1921 C 0.36677 0.77453 0.82976 0.0
C1922 C 0.3641 0.77563 0.85604 0.0
C1923 C 0.35224 0.77545 0.93172 0.0
C1924 C 0.35659 0.77591 0.90571 0.0
H1925 H 0.37155 0.74211 0.78583 0.0
H1926 H 0.37061 0.74434 0.82865 0.0
H1927 H 0.33603 0.79786 0.85592 0.0
H1928 H 0.35119 0.80413 0.97986 0.0
H1929 H 0.35385 0.80544 0.93665 0.0
C1930 C 0.85257 0.53998 0.7938 0.0
C1931 C 0.85389 0.52337 0.78067 0.0
C1932 C 0.85215 0.53953 0.81849 0.0
C1933 C 0.86981 0.5091 0.86906 0.0
H1934 H 0.83305 0.54634 0.9051 0.0
C1935 C 0.86202 0.50892 0.97199 0.0
C1936 C 0.86323 0.52637 0.98331 0.0
C1937 C 0.86163 0.50776 0.94726 0.0
C1938 C 0.84366 0.53595 0.89531 0.0
H1939 H 0.85491 0.49321 0.78312 0.0
H1940 H 0.85351 0.49234 0.82628 0.0
H1941 H 0.82868 0.54548 0.86235 0.0
H1942 H 0.86609 0.55621 0.97758 0.0
H1943 H 0.86564 0.5542 0.93461 0.0
H1944 H 0.88458 0.49952 0.90223 0.0
C1945 C 0.8533 0.50577 0.81752 0.0
C1946 C 0.84114 0.53544 0.87072 0.0
C1947 C 0.85379 0.50624 0.79276 0.0
C1948 C 0.86515 0.54255 0.96941 0.0
C1949 C 0.86462 0.54141 0.94476 0.0
C1950 C 0.8722 0.50954 0.89372 0.0
C1951 C 0.85295 0.52244 0.83077 0.0
C1952 C 0.8544 0.52215 0.85717 0.0
C1953 C 0.86225 0.52405 0.93334 0.0
C1954 C 0.85939 0.52312 0.90713 0.0
H1955 H 0.85285 0.55341 0.78502 0.0
H1956 H 0.85221 0.55267 0.82794 0.0
H1957 H 0.88062 0.49882 0.85928 0.0
H1958 H 0.86034 0.49621 0.98224 0.0
H1959 H 0.85973 0.49417 0.93907 0.0
C1960 C 0.61458 0.50911 0.71971 0.0
C1961 C 0.61349 0.52555 0.73321 0.0
C1962 C 0.61386 0.50987 0.69504 0.0
C1963 C 0.62275 0.54048 0.64313 0.0
H1964 H 0.57624 0.5058 0.61316 0.0
C1965 C 0.6038 0.54296 0.54232 0.0
C1966 C 0.60203 0.52571 0.5306 0.0
C1967 C 0.60358 0.54379 0.56706 0.0
C1968 C 0.58955 0.51545 0.62112 0.0
H1969 H 0.61191 0.55574 0.7314 0.0
H1970 H 0.61111 0.5571 0.68817 0.0
H1971 H 0.58114 0.50544 0.65587 0.0
H1972 H 0.59796 0.49588 0.5356 0.0
H1973 H 0.59791 0.49723 0.57851 0.0
H1974 H 0.63159 0.55025 0.60836 0.0
C1975 C 0.61245 0.5436 0.6967 0.0
C1976 C 0.59235 0.51525 0.64569 0.0
C1977 C 0.61295 0.54284 0.72147 0.0
C1978 C 0.59911 0.50941 0.5441 0.0
C1979 C 0.59904 0.51021 0.56879 0.0
C1980 C 0.62013 0.54058 0.61848 0.0
C1981 C 0.6122 0.52709 0.68321 0.0
C1982 C 0.60912 0.52765 0.65702 0.0
C1983 C 0.60173 0.52738 0.58069 0.0
C1984 C 0.6036 0.52798 0.60708 0.0
H1985 H 0.61495 0.49557 0.72822 0.0
H1986 H 0.61417 0.4969 0.6852 0.0
H1987 H 0.63594 0.55015 0.65127 0.0
H1988 H 0.60616 0.55576 0.53239 0.0
H1989 H 0.60521 0.55731 0.5755 0.0
C1990 C 0.09982 0.2474 0.72265 0.0
C1991 C 0.0987 0.26471 0.73432 0.0
C1992 C 0.10064 0.24656 0.69791 0.0
C1993 C 0.12111 0.27486 0.64717 0.0
H1994 H 0.0827 0.23971 0.60932 0.0
C1995 C 0.11548 0.28107 0.54577 0.0
C1996 C 0.11286 0.26486 0.53204 0.0
C1997 C 0.11532 0.28009 0.57043 0.0
C1998 C 0.09395 0.24941 0.6196 0.0
H1999 H 0.09653 0.29465 0.7292 0.0
H2000 H 0.09792 0.29321 0.68619 0.0
H2001 H 0.07766 0.23981 0.65219 0.0
H2002 H 0.10899 0.23478 0.53338 0.0
H2003 H 0.1095 0.23292 0.57651 0.0
H2004 H 0.13773 0.28434 0.61488 0.0
C2005 C 0.09839 0.28028 0.69609 0.0
C2006 C 0.09091 0.24952 0.64421 0.0
C2007 C 0.09733 0.2811 0.72075 0.0
C2008 C 0.11113 0.24751 0.54351 0.0
C2009 C 0.1111 0.24649 0.56825 0.0
C2010 C 0.12434 0.27464 0.62266 0.0
C2011 C 0.10065 0.26304 0.68437 0.0
C2012 C 0.1042 0.26243 0.65826 0.0
C2013 C 0.11268 0.26282 0.58208 0.0
C2014 C 0.11056 0.26209 0.60844 0.0
H2015 H 0.10107 0.23454 0.73265 0.0
H2016 H 0.10243 0.23307 0.68944 0.0
H2017 H 0.13207 0.28471 0.65752 0.0
H2018 H 0.1166 0.29467 0.53747 0.0
H2019 H 0.11621 0.29301 0.5803 0.0
C2020 C 0.61575 0.28832 0.0445 0.0
C2021 C 0.61496 0.27193 0.03088 0.0
C2022 C 0.61514 0.28745 0.06916 0.0
C2023 C 0.62506 0.25683 0.12081 0.0
H2024 H 0.57762 0.29059 0.1512 0.0
C2025 C 0.60688 0.25382 0.22173 0.0
C2026 C 0.60459 0.271 0.23352 0.0
C2027 C 0.60652 0.25302 0.19699 0.0
C2028 C 0.5912 0.2812 0.14312 0.0
H2029 H 0.61401 0.24172 0.03248 0.0
H2030 H 0.61343 0.24017 0.07572 0.0
H2031 H 0.58228 0.29115 0.10846 0.0
H2032 H 0.59946 0.30075 0.22865 0.0
H2033 H 0.59917 0.29948 0.18574 0.0
H2034 H 0.63442 0.24715 0.15549 0.0
C2035 C 0.61443 0.25371 0.06726 0.0
C2036 C 0.59385 0.28152 0.11854 0.0
C2037 C 0.61482 0.25459 0.04251 0.0
C2038 C 0.60102 0.28726 0.2201 0.0
C2039 C 0.60081 0.2865 0.1954 0.0
C2040 C 0.62259 0.25662 0.14547 0.0
C2041 C 0.61389 0.27016 0.08087 0.0
C2042 C 0.61095 0.26945 0.10707 0.0
C2043 C 0.60401 0.26941 0.18343 0.0
C2044 C 0.60573 0.26891 0.15703 0.0
H2045 H 0.61581 0.3019 0.03608 0.0
H2046 H 0.6152 0.30038 0.07909 0.0
H2047 H 0.63851 0.24743 0.11255 0.0
H2048 H 0.60974 0.24104 0.23161 0.0
H2049 H 0.60855 0.23955 0.18851 0.0
C2050 C 0.10201 0.53822 0.04183 0.0
C2051 C 0.10013 0.52093 0.03019 0.0
C2052 C 0.10292 0.53906 0.06657 0.0
C2053 C 0.12237 0.51044 0.11733 0.0
H2054 H 0.08537 0.54636 0.15522 0.0
C2055 C 0.11734 0.5047 0.21889 0.0
C2056 C 0.11516 0.521 0.23253 0.0
C2057 C 0.11702 0.50558 0.19422 0.0
C2058 C 0.09623 0.53644 0.14493 0.0
H2059 H 0.09671 0.49106 0.03537 0.0
H2060 H 0.09827 0.49251 0.07839 0.0
H2061 H 0.08019 0.54628 0.11237 0.0
H2062 H 0.11195 0.55111 0.23098 0.0
H2063 H 0.11227 0.55278 0.18785 0.0
H2064 H 0.13878 0.50073 0.14958 0.0
C2065 C 0.09925 0.50542 0.06846 0.0
C2066 C 0.09311 0.53634 0.12033 0.0
C2067 C 0.09809 0.5046 0.0438 0.0
C2068 C 0.11374 0.53831 0.22094 0.0
C2069 C 0.1136 0.53922 0.19619 0.0
C2070 C 0.12569 0.51065 0.14183 0.0
C2071 C 0.10226 0.52261 0.08015 0.0
C2072 C 0.10589 0.52317 0.10626 0.0
C2073 C 0.11471 0.52282 0.18245 0.0
C2074 C 0.11244 0.52349 0.15608 0.0
H2075 H 0.1038 0.55103 0.03181 0.0
H2076 H 0.10529 0.55252 0.07502 0.0
H2077 H 0.13293 0.50036 0.10697 0.0
H2078 H 0.11819 0.49112 0.22728 0.0
H2079 H 0.11755 0.4926 0.18443 0.0
C2080 C 0.30678 0.21387 0.16519 0.0
C2081 C 0.33083 0.22115 0.1709 0.0
C2082 C 0.30448 0.19587 0.15555 0.0
C2083 C 0.34004 0.15124 0.15218 0.0
H2084 H 0.2933 0.13857 0.10178 0.0
C2085 C 0.35024 0.08364 0.09881 0.0
C2086 C 0.32839 0.07365 0.09224 0.0
C2087 C 0.34829 0.10113 0.10953 0.0
C2088 C 0.30618 0.14183 0.1161 0.0
H2089 H 0.37131 0.21571 0.16994 0.0
H2090 H 0.3674 0.18464 0.15292 0.0
H2091 H 0.29425 0.1705 0.11734 0.0
H2092 H 0.28723 0.07406 0.09203 0.0
H2093 H 0.28374 0.10491 0.11088 0.0
H2094 H 0.35224 0.12278 0.15085 0.0
C2095 C 0.35023 0.19253 0.15635 0.0
C2096 C 0.30676 0.16014 0.125 0.0
C2097 C 0.35251 0.21043 0.16595 0.0
C2098 C 0.3044 0.08146 0.09692 0.0
C2099 C 0.30243 0.09914 0.10756 0.0
C2100 C 0.33948 0.13304 0.14332 0.0
C2101 C 0.32619 0.18482 0.15148 0.0
C2102 C 0.32409 0.16516 0.14284 0.0
C2103 C 0.32441 0.1092 0.11396 0.0
C2104 C 0.32291 0.12815 0.12486 0.0
H2105 H 0.28972 0.22184 0.1688 0.0
H2106 H 0.28567 0.19039 0.15203 0.0
H2107 H 0.35314 0.15443 0.16637 0.0
H2108 H 0.36901 0.07801 0.09544 0.0
H2109 H 0.36563 0.10853 0.11388 0.0
C2110 C 0.8712 0.10061 0.18916 0.0
C2111 C 0.88535 0.0858 0.17969 0.0
C2112 C 0.87333 0.1186 0.17992 0.0
C2113 C 0.86673 0.15209 0.14914 0.0
H2114 H 0.92743 0.17164 0.11934 0.0
C2115 C 0.86232 0.21929 0.09419 0.0
C2116 C 0.88333 0.23136 0.09355 0.0
C2117 C 0.86404 0.20183 0.10502 0.0
C2118 C 0.91038 0.16654 0.12787 0.0
H2119 H 0.91335 0.07821 0.15344 0.0
H2120 H 0.91616 0.10957 0.13619 0.0
H2121 H 0.92862 0.14106 0.13827 0.0
H2122 H 0.9227 0.23461 0.10387 0.0
H2123 H 0.92544 0.20439 0.12396 0.0
H2124 H 0.84876 0.17772 0.13995 0.0
C2125 C 0.90389 0.10745 0.15129 0.0
C2126 C 0.91095 0.14879 0.13845 0.0
C2127 C 0.90221 0.08942 0.16104 0.0
C2128 C 0.90613 0.22564 0.10424 0.0
C2129 C 0.90775 0.2082 0.11551 0.0
C2130 C 0.86629 0.16985 0.13901 0.0
C2131 C 0.8891 0.12226 0.16037 0.0
C2132 C 0.88907 0.14126 0.14919 0.0
C2133 C 0.88668 0.196 0.11603 0.0
C2134 C 0.88796 0.17732 0.12792 0.0
H2135 H 0.85835 0.09832 0.20382 0.0
H2136 H 0.86234 0.1296 0.18812 0.0
H2137 H 0.84924 0.14682 0.15667 0.0
H2138 H 0.84455 0.22317 0.08588 0.0
H2139 H 0.84756 0.19279 0.10436 0.0
C2140 C 0.65253 0.83142 0.85118 0.0
C2141 C 0.62855 0.82365 0.84635 0.0
C2142 C 0.65455 0.8493 0.86126 0.0
C2143 C 0.61748 0.88484 0.89455 0.0
H2144 H 0.66527 0.92037 0.86806 0.0
C2145 C 0.60842 0.96314 0.91437 0.0
C2146 C 0.63061 0.9734 0.91903 0.0
C2147 C 0.6098 0.94497 0.90546 0.0
C2148 C 0.65202 0.91058 0.87587 0.0
H2149 H 0.58795 0.82825 0.84886 0.0
H2150 H 0.59139 0.85918 0.86639 0.0
H2151 H 0.66505 0.88807 0.85394 0.0
H2152 H 0.67173 0.97289 0.91713 0.0
H2153 H 0.67422 0.94095 0.90162 0.0
H2154 H 0.60431 0.9072 0.91637 0.0
C2155 C 0.60869 0.85157 0.86257 0.0
C2156 C 0.65192 0.89203 0.86779 0.0
C2157 C 0.6067 0.83384 0.8524 0.0
C2158 C 0.65429 0.96532 0.91371 0.0
C2159 C 0.65569 0.94703 0.90479 0.0
C2160 C 0.6176 0.9033 0.90262 0.0
C2161 C 0.63262 0.85966 0.86691 0.0
C2162 C 0.63435 0.87899 0.87677 0.0
C2163 C 0.63343 0.93647 0.90103 0.0
C2164 C 0.63455 0.91654 0.89313 0.0
H2165 H 0.66972 0.82389 0.8467 0.0
H2166 H 0.67327 0.855 0.86459 0.0
H2167 H 0.60404 0.87513 0.90224 0.0
H2168 H 0.58988 0.96903 0.91807 0.0
H2169 H 0.59223 0.93751 0.90223 0.0
C2170 C 0.10416 0.83238 0.92979 0.0
C2171 C 0.0849 0.81923 0.92559 0.0
C2172 C 0.10275 0.85034 0.92035 0.0
C2173 C 0.10493 0.88414 0.88954 0.0
H2174 H 0.04106 0.90834 0.87495 0.0
C2175 C 0.10469 0.95398 0.83975 0.0
C2176 C 0.08499 0.96688 0.8433 0.0
C2177 C 0.10338 0.93605 0.84934 0.0
C2178 C 0.05914 0.90199 0.87923 0.0
H2179 H 0.04871 0.81477 0.9084 0.0
H2180 H 0.04699 0.84577 0.89026 0.0
H2181 H 0.04093 0.87758 0.89312 0.0
H2182 H 0.04829 0.97103 0.85971 0.0
H2183 H 0.0467 0.94013 0.87808 0.0
H2184 H 0.12322 0.90883 0.87747 0.0
C2185 C 0.06293 0.84245 0.90156 0.0
C2186 C 0.05906 0.88405 0.88931 0.0
C2187 C 0.06401 0.82453 0.9117 0.0
C2188 C 0.06389 0.96144 0.85686 0.0
C2189 C 0.06288 0.94357 0.86712 0.0
C2190 C 0.10499 0.90217 0.88013 0.0
C2191 C 0.08241 0.85566 0.90565 0.0
C2192 C 0.08201 0.87479 0.89463 0.0
C2193 C 0.08268 0.93054 0.86354 0.0
C2194 C 0.08215 0.9114 0.87451 0.0
H2195 H 0.12032 0.8289 0.9408 0.0
H2196 H 0.1177 0.86007 0.92489 0.0
H2197 H 0.12313 0.87758 0.89264 0.0
H2198 H 0.12103 0.95759 0.82903 0.0
H2199 H 0.11865 0.92647 0.84524 0.0
C2200 C 0.31257 0.70823 0.66604 0.0
C2201 C 0.33647 0.716 0.67122 0.0
C2202 C 0.31065 0.69001 0.657 0.0
C2203 C 0.34746 0.64578 0.65397 0.0
H2204 H 0.29948 0.63182 0.60516 0.0
C2205 C 0.35613 0.57668 0.60259 0.0
C2206 C 0.33398 0.56695 0.59627 0.0
C2207 C 0.35469 0.59431 0.6131 0.0
C2208 C 0.31274 0.63542 0.61904 0.0
H2209 H 0.37708 0.71111 0.67002 0.0
H2210 H 0.37382 0.67965 0.65402 0.0
H2211 H 0.30027 0.66395 0.61983 0.0
H2212 H 0.29283 0.5679 0.59651 0.0
H2213 H 0.29024 0.59884 0.61504 0.0
H2214 H 0.36014 0.6174 0.65309 0.0
C2215 C 0.35648 0.68734 0.65741 0.0
C2216 C 0.31322 0.65387 0.62744 0.0
C2217 C 0.35837 0.70547 0.66641 0.0
C2218 C 0.31024 0.57508 0.60119 0.0
C2219 C 0.30878 0.59285 0.61163 0.0
C2220 C 0.34699 0.6274 0.64559 0.0
C2221 C 0.3326 0.67919 0.65299 0.0
C2222 C 0.3309 0.65937 0.64476 0.0
C2223 C 0.33103 0.60276 0.61755 0.0
C2224 C 0.32991 0.62201 0.62776 0.0
H2225 H 0.29534 0.71603 0.66956 0.0
H2226 H 0.29194 0.68421 0.65386 0.0
H2227 H 0.36089 0.64932 0.66774 0.0
H2228 H 0.37471 0.57081 0.59899 0.0
H2229 H 0.37223 0.60156 0.61711 0.0
C2230 C 0.86601 0.70869 0.59156 0.0
C2231 C 0.8876 0.71982 0.58774 0.0
C2232 C 0.8683 0.69059 0.60045 0.0
C2233 C 0.91102 0.65833 0.63264 0.0
H2234 H 0.86549 0.62105 0.60655 0.0
C2235 C 0.91137 0.58025 0.66266 0.0
C2236 C 0.88719 0.57282 0.66755 0.0
C2237 C 0.91382 0.5976 0.6513 0.0
C2238 C 0.87828 0.63129 0.61411 0.0
H2239 H 0.9286 0.72088 0.59089 0.0
H2240 H 0.93272 0.68896 0.60639 0.0
H2241 H 0.86563 0.65251 0.59035 0.0
H2242 H 0.84671 0.57744 0.66381 0.0
H2243 H 0.8509 0.60742 0.64392 0.0
H2244 H 0.92348 0.63694 0.65654 0.0
C2245 C 0.91394 0.69433 0.60254 0.0
C2246 C 0.87833 0.64938 0.60486 0.0
C2247 C 0.91162 0.71259 0.5936 0.0
C2248 C 0.86559 0.58278 0.66027 0.0
C2249 C 0.86802 0.59995 0.64876 0.0
C2250 C 0.91104 0.64013 0.64187 0.0
C2251 C 0.89228 0.683 0.60573 0.0
C2252 C 0.89424 0.6633 0.61434 0.0
C2253 C 0.89213 0.60771 0.64433 0.0
C2254 C 0.89425 0.62649 0.63304 0.0
H2255 H 0.8472 0.71391 0.58749 0.0
H2256 H 0.85113 0.68253 0.60323 0.0
H2257 H 0.92346 0.66868 0.64045 0.0
H2258 H 0.92836 0.57287 0.66808 0.0
H2259 H 0.93266 0.6031 0.64798 0.0
C2260 C 0.66696 0.33292 0.34501 0.0
C2261 C 0.6425 0.326 0.34014 0.0
C2262 C 0.67002 0.35008 0.35677 0.0
C2263 C 0.63593 0.3825 0.39636 0.0
H2264 H 0.67874 0.42155 0.37043 0.0
C2265 C 0.61984 0.45871 0.4213 0.0
C2266 C 0.64075 0.4704 0.42564 0.0
C2267 C 0.62321 0.44093 0.41175 0.0
C2268 C 0.66701 0.41071 0.37812 0.0
H2269 H 0.60219 0.33137 0.34408 0.0
H2270 H 0.60747 0.3609 0.36469 0.0
H2271 H 0.6793 0.39024 0.35278 0.0
H2272 H 0.68165 0.47285 0.42262 0.0
H2273 H 0.68767 0.44143 0.40584 0.0
H2274 H 0.62334 0.40276 0.42146 0.0
C2275 C 0.62432 0.35323 0.35949 0.0
C2276 C 0.66734 0.39278 0.36801 0.0
C2277 C 0.62128 0.33633 0.34756 0.0
C2278 C 0.6652 0.46409 0.41954 0.0
C2279 C 0.6686 0.44614 0.4099 0.0
C2280 C 0.63568 0.40028 0.40647 0.0
C2281 C 0.64867 0.36038 0.3642 0.0
C2282 C 0.65124 0.37863 0.37664 0.0
C2283 C 0.64762 0.43423 0.40628 0.0
C2284 C 0.65061 0.4148 0.39708 0.0
H2285 H 0.68365 0.32523 0.33947 0.0
H2286 H 0.68903 0.3552 0.36023 0.0
H2287 H 0.6237 0.37182 0.40373 0.0
H2288 H 0.60072 0.46322 0.4255 0.0
H2289 H 0.60653 0.43241 0.40863 0.0
C2290 C 0.10646 0.32969 0.41687 0.0
C2291 C 0.08429 0.31968 0.42237 0.0
C2292 C 0.10504 0.34724 0.40613 0.0
C2293 C 0.06242 0.38766 0.39782 0.0
H2294 H 0.11152 0.4012 0.34974 0.0
C2295 C 0.06139 0.45932 0.34824 0.0
C2296 C 0.08518 0.46725 0.34299 0.0
C2297 C 0.05979 0.44133 0.35802 0.0
C2298 C 0.09783 0.39777 0.36335 0.0
H2299 H 0.04316 0.32006 0.42057 0.0
H2300 H 0.04062 0.35084 0.40169 0.0
H2301 H 0.11126 0.36962 0.36552 0.0
H2302 H 0.12588 0.46296 0.3449 0.0
H2303 H 0.12317 0.43196 0.36225 0.0
H2304 H 0.04921 0.41597 0.39578 0.0
C2305 C 0.05914 0.34514 0.40588 0.0
C2306 C 0.09765 0.37959 0.37236 0.0
C2307 C 0.06059 0.32747 0.41653 0.0
C2308 C 0.10726 0.45716 0.34852 0.0
C2309 C 0.10568 0.43929 0.3583 0.0
C2310 C 0.06265 0.40592 0.38881 0.0
C2311 C 0.08138 0.35529 0.40065 0.0
C2312 C 0.08019 0.37434 0.38994 0.0
C2313 C 0.08195 0.43093 0.36274 0.0
C2314 C 0.08062 0.4113 0.3717 0.0
H2315 H 0.12501 0.32408 0.42119 0.0
H2316 H 0.12255 0.35471 0.40265 0.0
H2317 H 0.04885 0.38414 0.41149 0.0
H2318 H 0.04404 0.46679 0.34417 0.0
H2319 H 0.04118 0.43535 0.36115 0.0
C2320 C 0.81651 0.08399 0.59886 0.0
C2321 C 0.84048 0.07629 0.5938 0.0
C2322 C 0.81447 0.10217 0.60798 0.0
C2323 C 0.85108 0.14645 0.6114 0.0
H2324 H 0.80254 0.16013 0.6599 0.0
C2325 C 0.85854 0.21557 0.66287 0.0
C2326 C 0.8362 0.22515 0.66896 0.0
C2327 C 0.85742 0.19793 0.65236 0.0
C2328 C 0.81596 0.15661 0.6461 0.0
H2329 H 0.88107 0.08124 0.59532 0.0
H2330 H 0.8776 0.11263 0.61149 0.0
H2331 H 0.80372 0.12802 0.64521 0.0
H2332 H 0.79506 0.22394 0.66831 0.0
H2333 H 0.79304 0.193 0.64977 0.0
H2334 H 0.86352 0.17489 0.61239 0.0
C2335 C 0.86031 0.10492 0.60793 0.0
C2336 C 0.81666 0.13817 0.6377 0.0
C2337 C 0.86232 0.08683 0.59884 0.0
C2338 C 0.81261 0.21687 0.66381 0.0
C2339 C 0.81147 0.19911 0.65336 0.0
C2340 C 0.85039 0.16481 0.61979 0.0
C2341 C 0.83637 0.113 0.61221 0.0
C2342 C 0.83452 0.13278 0.62049 0.0
C2343 C 0.8339 0.18934 0.64767 0.0
C2344 C 0.83309 0.1701 0.63749 0.0
H2345 H 0.79933 0.07618 0.59516 0.0
H2346 H 0.79573 0.10793 0.611 0.0
H2347 H 0.86466 0.14297 0.59772 0.0
H2348 H 0.87701 0.22157 0.66665 0.0
H2349 H 0.87509 0.19079 0.64852 0.0
C2350 C 0.40441 0.20854 0.59976 0.0
C2351 C 0.38058 0.21626 0.59421 0.0
C2352 C 0.40619 0.19033 0.60889 0.0
C2353 C 0.36924 0.14611 0.61133 0.0
H2354 H 0.41587 0.13212 0.66121 0.0
C2355 C 0.35828 0.07741 0.66301 0.0
C2356 C 0.38011 0.06749 0.66979 0.0
C2357 C 0.36029 0.09498 0.65244 0.0
C2358 C 0.40299 0.13572 0.64703 0.0
H2359 H 0.33996 0.21133 0.59494 0.0
H2360 H 0.34297 0.17994 0.61107 0.0
H2361 H 0.41575 0.16421 0.64636 0.0
H2362 H 0.42127 0.06807 0.67034 0.0
H2363 H 0.42484 0.09892 0.65172 0.0
H2364 H 0.35625 0.1178 0.61209 0.0
C2365 C 0.36037 0.18763 0.60789 0.0
C2366 C 0.4029 0.15415 0.63853 0.0
C2367 C 0.35862 0.20572 0.5988 0.0
C2368 C 0.4041 0.07539 0.66529 0.0
C2369 C 0.40613 0.09311 0.6548 0.0
C2370 C 0.36932 0.12777 0.6198 0.0
C2371 C 0.38417 0.17949 0.61262 0.0
C2372 C 0.38567 0.15967 0.62085 0.0
C2373 C 0.3842 0.1032 0.64839 0.0
C2374 C 0.38587 0.12237 0.63805 0.0
H2375 H 0.42168 0.21634 0.59642 0.0
H2376 H 0.42483 0.18453 0.61231 0.0
H2377 H 0.35617 0.14967 0.59728 0.0
H2378 H 0.33952 0.07172 0.66627 0.0
H2379 H 0.34297 0.10238 0.64805 0.0
C2380 C 0.11212 0.82722 0.35244 0.0
C2381 C 0.13367 0.81653 0.34692 0.0
C2382 C 0.11463 0.84509 0.36208 0.0
C2383 C 0.15892 0.87755 0.39246 0.0
H2384 H 0.11243 0.91478 0.36793 0.0
C2385 C 0.16053 0.95645 0.42077 0.0
C2386 C 0.13645 0.96375 0.42629 0.0
C2387 C 0.16274 0.93878 0.41005 0.0
C2388 C 0.12551 0.90456 0.37506 0.0
H2389 H 0.17483 0.81589 0.34807 0.0
H2390 H 0.17928 0.84728 0.36491 0.0
H2391 H 0.11134 0.88318 0.35226 0.0
H2392 H 0.09591 0.95849 0.42454 0.0
H2393 H 0.09971 0.9281 0.40594 0.0
H2394 H 0.17287 0.89913 0.41545 0.0
C2395 C 0.16039 0.84179 0.36182 0.0
C2396 C 0.12482 0.88638 0.36613 0.0
C2397 C 0.15786 0.82383 0.35213 0.0
C2398 C 0.11475 0.95327 0.42054 0.0
C2399 C 0.11693 0.93585 0.40971 0.0
C2400 C 0.15963 0.89585 0.40142 0.0
C2401 C 0.13879 0.85282 0.36643 0.0
C2402 C 0.14109 0.87249 0.37505 0.0
C2403 C 0.14089 0.9283 0.40436 0.0
C2404 C 0.14251 0.90946 0.39316 0.0
H2405 H 0.09322 0.82193 0.34884 0.0
H2406 H 0.09754 0.85295 0.36594 0.0
H2407 H 0.17171 0.86722 0.39977 0.0
H2408 H 0.17758 0.96423 0.42503 0.0
H2409 H 0.18148 0.93339 0.40604 0.0
C2410 C 0.59244 0.84103 0.43994 0.0
C2411 C 0.57895 0.82586 0.43049 0.0
C2412 C 0.59143 0.85858 0.42932 0.0
C2413 C 0.55633 0.88769 0.3855 0.0
H2414 H 0.61914 0.91597 0.3869 0.0
C2415 C 0.6064 0.95756 0.34106 0.0
C2416 C 0.58598 0.97015 0.34134 0.0
C2417 C 0.60421 0.93999 0.35154 0.0
C2418 C 0.60146 0.90827 0.38602 0.0
H2419 H 0.55302 0.81737 0.40292 0.0
H2420 H 0.55197 0.84801 0.38352 0.0
H2421 H 0.61773 0.88526 0.40445 0.0
H2422 H 0.54714 0.97424 0.3529 0.0
H2423 H 0.54352 0.94368 0.37214 0.0
H2424 H 0.54047 0.91061 0.36607 0.0
C2425 C 0.56311 0.84637 0.39945 0.0
C2426 C 0.60051 0.89065 0.39653 0.0
C2427 C 0.56387 0.82874 0.41038 0.0
C2428 C 0.56323 0.96481 0.35247 0.0
C2429 C 0.56111 0.94722 0.36329 0.0
C2430 C 0.55735 0.90535 0.37472 0.0
C2431 C 0.57721 0.86149 0.40862 0.0
C2432 C 0.57793 0.88011 0.39662 0.0
C2433 C 0.58164 0.93456 0.36302 0.0
C2434 C 0.57998 0.91588 0.37481 0.0
H2435 H 0.60392 0.83937 0.45567 0.0
H2436 H 0.60191 0.8699 0.43743 0.0
H2437 H 0.53853 0.8801 0.38535 0.0
H2438 H 0.6241 0.96116 0.3324 0.0
H2439 H 0.62025 0.93057 0.35036 0.0
C2440 C 0.85467 0.59134 0.09753 0.0
C2441 C 0.83274 0.58086 0.09267 0.0
C2442 C 0.85284 0.6093 0.10702 0.0
C2443 C 0.80993 0.64223 0.13819 0.0
H2444 H 0.8568 0.67902 0.11306 0.0
C2445 C 0.80796 0.72068 0.16612 0.0
C2446 C 0.83184 0.72848 0.1713 0.0
C2447 C 0.8062 0.70307 0.15534 0.0
C2448 C 0.84366 0.66892 0.12039 0.0
H2449 H 0.79163 0.58069 0.09474 0.0
H2450 H 0.78834 0.61227 0.11126 0.0
H2451 H 0.85715 0.64737 0.09748 0.0
H2452 H 0.87251 0.72421 0.16878 0.0
H2453 H 0.8695 0.69372 0.15001 0.0
H2454 H 0.79658 0.66393 0.16121 0.0
C2455 C 0.80701 0.60654 0.1078 0.0
C2456 C 0.8439 0.65071 0.11149 0.0
C2457 C 0.80887 0.58847 0.09829 0.0
C2458 C 0.85384 0.71858 0.16499 0.0
C2459 C 0.8521 0.70111 0.15411 0.0
C2460 C 0.80965 0.66053 0.14709 0.0
C2461 C 0.829 0.61733 0.11185 0.0
C2462 C 0.82738 0.637 0.12055 0.0
C2463 C 0.82828 0.69302 0.14932 0.0
C2464 C 0.82684 0.67401 0.13856 0.0
H2465 H 0.87336 0.58579 0.09361 0.0
H2466 H 0.87021 0.61695 0.11045 0.0
H2467 H 0.79702 0.63204 0.14567 0.0
H2468 H 0.79067 0.72802 0.17079 0.0
H2469 H 0.78756 0.69732 0.15169 0.0
C2470 C 0.35501 0.58521 0.17679 0.0
C2471 C 0.37449 0.57219 0.17296 0.0
C2472 C 0.35632 0.60309 0.16702 0.0
C2473 C 0.3546 0.63678 0.13586 0.0
H2474 H 0.4188 0.66097 0.12228 0.0
C2475 C 0.35601 0.70627 0.08552 0.0
C2476 C 0.37539 0.71933 0.08967 0.0
C2477 C 0.35722 0.68836 0.09514 0.0
C2478 C 0.40064 0.65461 0.12625 0.0
H2479 H 0.41074 0.56769 0.15584 0.0
H2480 H 0.41233 0.5985 0.13726 0.0
H2481 H 0.41851 0.63028 0.14062 0.0
H2482 H 0.41148 0.72376 0.10706 0.0
H2483 H 0.41287 0.69283 0.12542 0.0
H2484 H 0.33661 0.66142 0.12327 0.0
C2485 C 0.39635 0.59522 0.14855 0.0
C2486 C 0.40047 0.63672 0.13643 0.0
C2487 C 0.39534 0.57741 0.15895 0.0
C2488 C 0.39614 0.71404 0.10374 0.0
C2489 C 0.39703 0.69617 0.11402 0.0
C2490 C 0.35476 0.65476 0.12632 0.0
C2491 C 0.3768 0.60839 0.15243 0.0
C2492 C 0.3774 0.62747 0.14137 0.0
C2493 C 0.37747 0.68303 0.10993 0.0
C2494 C 0.37774 0.66396 0.12105 0.0
H2495 H 0.33887 0.58175 0.18784 0.0
H2496 H 0.34126 0.61279 0.17129 0.0
H2497 H 0.33634 0.63021 0.13873 0.0
H2498 H 0.33996 0.70977 0.0744 0.0
H2499 H 0.3422 0.67866 0.09065 0.0
C2500 C 0.15323 0.4591 0.91422 0.0
C2501 C 0.12951 0.46727 0.91911 0.0
C2502 C 0.15468 0.44122 0.90409 0.0
C2503 C 0.11631 0.4062 0.87097 0.0
H2504 H 0.16415 0.37022 0.89626 0.0
C2505 C 0.10635 0.32799 0.85025 0.0
C2506 C 0.12841 0.31774 0.8451 0.0
C2507 C 0.10795 0.3461 0.85935 0.0
C2508 C 0.15087 0.38014 0.88879 0.0
H2509 H 0.08877 0.46331 0.91671 0.0
H2510 H 0.09122 0.43233 0.89917 0.0
H2511 H 0.16456 0.40241 0.91075 0.0
H2512 H 0.16955 0.3182 0.84629 0.0
H2513 H 0.17244 0.35001 0.86218 0.0
H2514 H 0.10249 0.38405 0.84913 0.0
C2515 C 0.10877 0.43966 0.90294 0.0
C2516 C 0.15113 0.39863 0.89708 0.0
C2517 C 0.10734 0.45743 0.91311 0.0
C2518 C 0.1522 0.32577 0.85009 0.0
C2519 C 0.15383 0.34399 0.85923 0.0
C2520 C 0.11606 0.38778 0.86271 0.0
C2521 C 0.13243 0.43119 0.89848 0.0
C2522 C 0.13359 0.41185 0.88851 0.0
C2523 C 0.13169 0.35454 0.86353 0.0
C2524 C 0.13305 0.3744 0.87173 0.0
H2525 H 0.17066 0.46636 0.91864 0.0
H2526 H 0.17323 0.43525 0.90066 0.0
H2527 H 0.10289 0.41604 0.86356 0.0
H2528 H 0.08772 0.32215 0.8468 0.0
H2529 H 0.09048 0.35357 0.86297 0.0
C2530 C 0.60488 0.33469 0.91402 0.0
C2531 C 0.58304 0.32454 0.92019 0.0
C2532 C 0.60291 0.35225 0.90343 0.0
C2533 C 0.55973 0.39257 0.8967 0.0
H2534 H 0.60784 0.40674 0.84805 0.0
C2535 C 0.55859 0.4651 0.84871 0.0
C2536 C 0.58245 0.47302 0.84369 0.0
C2537 C 0.55683 0.44694 0.85802 0.0
C2538 C 0.5944 0.40312 0.8618 0.0
H2539 H 0.54187 0.32469 0.9197 0.0
H2540 H 0.53834 0.35554 0.90104 0.0
H2541 H 0.60779 0.37494 0.86307 0.0
H2542 H 0.62311 0.4685 0.84553 0.0
H2543 H 0.62012 0.4372 0.86196 0.0
H2544 H 0.54655 0.42093 0.89549 0.0
C2545 C 0.55705 0.34992 0.9046 0.0
C2546 C 0.59435 0.38482 0.87039 0.0
C2547 C 0.55905 0.33221 0.91512 0.0
C2548 C 0.60443 0.46274 0.84898 0.0
C2549 C 0.6027 0.44469 0.85824 0.0
C2550 C 0.55979 0.41096 0.88807 0.0
C2551 C 0.579 0.36022 0.89874 0.0
C2552 C 0.57733 0.37934 0.88824 0.0
C2553 C 0.5789 0.43636 0.86244 0.0
C2554 C 0.57747 0.41656 0.8708 0.0
H2555 H 0.62364 0.32918 0.91773 0.0
H2556 H 0.62022 0.35982 0.89948 0.0
H2557 H 0.54647 0.38889 0.91057 0.0
H2558 H 0.5413 0.4727 0.84482 0.0
H2559 H 0.53818 0.44099 0.86101 0.0
C2560 C 0.26954 0.0464 1.00198 0.0
C2561 C 0.25965 0.04054 0.0238 0.0
C2562 C 0.25342 0.05076 0.98336 0.0
C2563 C 0.18685 0.05996 0.96642 0.0
H2564 H 0.20652 0.03417 0.90899 0.0
C2565 C 0.11579 0.03671 0.89637 0.0
C2566 C 0.12294 0.03608 0.87246 0.0
C2567 C 0.13308 0.04214 0.9136 0.0
C2568 C 0.20099 0.04187 0.92463 0.0
H2569 H 0.22519 0.03574 0.04381 0.0
H2570 H 0.19667 0.04295 0.0108 0.0
H2571 H 0.23535 0.03468 0.94238 0.0
H2572 H 0.15353 0.04163 0.84777 0.0
H2573 H 0.18399 0.05119 0.87812 0.0
H2574 H 0.15206 0.06662 0.94875 0.0
C2575 C 0.21699 0.04436 0.00828 0.0
C2576 C 0.21749 0.04211 0.94384 0.0
C2577 C 0.23324 0.04014 0.02711 0.0
C2578 C 0.14753 0.04179 0.86605 0.0
C2579 C 0.16494 0.04724 0.88341 0.0
C2580 C 0.17034 0.05978 0.94712 0.0
C2581 C 0.22702 0.04918 0.98604 0.0
C2582 C 0.21037 0.05079 0.9651 0.0
C2583 C 0.15797 0.04714 0.90741 0.0
C2584 C 0.17699 0.05029 0.92625 0.0
H2585 H 0.28986 0.04728 0.99906 0.0
H2586 H 0.26167 0.05486 0.96662 0.0
H2587 H 0.18105 0.06699 0.98247 0.0
H2588 H 0.09692 0.03261 0.90201 0.0
H2589 H 0.12718 0.04162 0.9319 0.0
C2590 C 0.06425 0.24947 0.87031 0.0
C2591 C 0.09065 0.24776 0.87293 0.0
C2592 C 0.04819 0.24563 0.8894 0.0
C2593 C 0.05116 0.2479 0.95358 0.0
H2594 H 0.98203 0.22944 0.95011 0.0
C2595 C 0.9812 0.25517 0.0317 0.0
C2596 C 0.95739 0.26238 0.02512 0.0
C2597 C -0.00185 0.24875 0.01445 0.0
C2598 C 0.00135 0.23458 0.95135 0.0
H2599 H 0.12086 0.23881 0.89641 0.0
H2600 H 0.09288 0.23185 0.92942 0.0
H2601 H 0.01029 0.22568 0.9162 0.0
H2602 H 0.93273 0.26834 0.9952 0.0
H2603 H 0.9622 0.25756 0.96559 0.0
H2604 H 0.04198 0.25758 0.98822 0.0
C2605 C 0.08458 0.23667 0.91302 0.0
C2606 C 0.01747 0.23243 0.93196 0.0
C2607 C 0.10056 0.24065 0.89412 0.0
C2608 C 0.95087 0.26289 1.00105 0.0
C2609 C 0.96768 0.25648 0.98396 0.0
C2610 C 0.03505 0.25009 0.97291 0.0
C2611 C 0.05837 0.23989 0.91121 0.0
C2612 C 0.04232 0.23952 0.93267 0.0
C2613 C -0.0085 0.24936 0.99041 0.0
C2614 C 0.00975 0.24398 0.97172 0.0
H2615 H 0.05619 0.2549 0.85413 0.0
H2616 H 0.02804 0.24832 0.88752 0.0
H2617 H 0.07012 0.25375 0.95457 0.0
H2618 H -0.01327 0.25449 0.05008 0.0
H2619 H 0.01643 0.24331 0.0199 0.0
C2620 C 0.23328 0.25216 0.23748 0.0
C2621 C 0.2597 0.25098 0.24045 0.0
C2622 C 0.21702 0.24761 0.2562 0.0
C2623 C 0.21798 0.24764 0.3206 0.0
H2624 H 0.15196 0.22406 0.31499 0.0
C2625 C 0.14821 0.24646 0.3988 0.0
C2626 C 0.12362 0.25239 0.39274 0.0
C2627 C 0.16555 0.24148 0.38113 0.0
C2628 C 0.17039 0.23065 0.31682 0.0
H2629 H 0.28978 0.24253 0.26447 0.0
H2630 H 0.26155 0.23452 0.29673 0.0
H2631 H 0.18068 0.22441 0.28106 0.0
H2632 H 0.09759 0.25679 0.36341 0.0
H2633 H 0.12769 0.24861 0.33306 0.0
H2634 H 0.20742 0.25468 0.35588 0.0
C2635 C 0.25335 0.23941 0.28032 0.0
C2636 C 0.18675 0.23087 0.2974 0.0
C2637 C 0.26949 0.24403 0.2618 0.0
C2638 C 0.11644 0.25249 0.36882 0.0
C2639 C 0.13365 0.24753 0.35131 0.0
C2640 C 0.20161 0.24752 0.33993 0.0
C2641 C 0.22703 0.24172 0.27801 0.0
C2642 C 0.21049 0.2397 0.29899 0.0
C2643 C 0.15851 0.24226 0.35717 0.0
C2644 C 0.17738 0.23945 0.33808 0.0
H2645 H 0.22526 0.25741 0.22118 0.0
H2646 H 0.19675 0.24959 0.25399 0.0
H2647 H 0.23605 0.25477 0.32227 0.0
H2648 H 0.15423 0.24607 0.41707 0.0
H2649 H 0.18457 0.23731 0.38618 0.0
C2650 C 0.98011 0.03639 0.23257 0.0
C2651 C 0.95608 0.04455 0.23492 0.0
C2652 C -0.00276 0.03706 0.25142 0.0
C2653 C -0.00563 0.04014 0.31596 0.0
H2654 H 0.06783 0.0401 0.3113 0.0
C2655 C 0.06252 0.03308 0.3963 0.0
C2656 C 0.08312 1.02098 0.39265 0.0
C2657 C 0.04644 0.03763 0.37749 0.0
C2658 C 0.0473 0.04006 0.31281 0.0
H2659 H 0.9317 0.06132 0.25728 0.0
H2660 H 0.96189 0.0632 0.28973 0.0
H2661 H 0.0424 0.047 0.27636 0.0
H2662 H 0.10203 1.00306 0.36718 0.0
H2663 H 0.07393 1.01083 0.33469 0.0
H2664 H -0.00068 0.03293 0.35234 0.0
C2665 C 0.96732 0.0557 0.2739 0.0
C2666 C 0.03279 0.044 0.29284 0.0
C2667 C 0.95015 0.05476 0.2553 0.0
C2668 C 0.08652 1.01268 0.3704 0.0
C2669 C 0.07057 1.01721 0.35175 0.0
C2670 C 0.00889 0.03629 0.33594 0.0
C2671 C -0.00948 0.0461 0.27263 0.0
C2672 C 0.00617 0.0438 0.29412 0.0
C2673 C 0.05086 0.03013 0.35492 0.0
C2674 C 0.03545 0.03585 0.33441 0.0
H2675 H -0.01513 0.02834 0.21699 0.0
H2676 H 0.01496 0.02946 0.24995 0.0
H2677 H 0.97386 0.03953 0.31746 0.0
H2678 H 0.05959 0.03971 0.41327 0.0
H2679 H 0.03124 0.04758 0.38035 0.0
C2680 C 0.83098 0.03501 0.12247 0.0
C2681 C 0.82866 0.0269 0.14493 0.0
C2682 C 0.81489 0.02969 0.10427 0.0
C2683 C 0.75436 1.00961 0.08884 0.0
H2684 H 0.78923 0.99687 0.03057 0.0
C2685 C 0.69743 0.99427 1.00576 0.0
C2686 C 0.70543 1.00436 0.98585 0.0
C2687 C 0.71352 0.99212 0.02505 0.0
C2688 C 0.77922 1.00039 0.04668 0.0
H2689 H 0.80662 1.00784 0.1665 0.0
H2690 H 0.77777 0.99872 0.13434 0.0
H2691 H 0.81383 1.00393 0.06596 0.0
H2692 H 0.7369 1.01892 0.96956 0.0
H2693 H 0.76501 1.01565 1.00359 0.0
H2694 H 0.7198 1.00707 0.06941 0.0
C2695 C 0.7924 1.00903 0.13099 0.0
C2696 C 0.79326 1.00438 0.0669 0.0
C2697 C 0.80871 1.01433 0.14934 0.0
C2698 C 0.73043 1.01102 0.98471 0.0
C2699 C 0.74647 1.0091 1.00421 0.0
C2700 C 0.74029 1.00577 0.06854 0.0
C2701 C 0.79604 1.01621 0.10814 0.0
C2702 C 0.78095 1.00951 0.08794 0.0
C2703 C 0.73776 1.00028 0.02494 0.0
C2704 C 0.75261 1.00157 0.04709 0.0
H2705 H 0.84594 0.04498 0.11866 0.0
H2706 H 0.81758 0.0358 0.08695 0.0
H2707 H 0.74451 1.01362 0.10485 0.0
H2708 H 0.67827 0.98878 1.00685 0.0
H2709 H 0.70651 0.98482 0.04049 0.0
C2710 C -0.01398 0.78873 0.98402 0.0
C2711 C 0.0104 0.7824 0.99019 0.0
C2712 C 0.96849 0.79358 1.00161 0.0
C2713 C 0.96432 0.80581 0.06522 0.0
H2714 H 0.89628 0.78542 0.06084 0.0
C2715 C 0.89875 0.79326 0.14563 0.0
C2716 C 0.87248 0.79512 0.14218 0.0
C2717 C 0.91549 0.79581 0.12668 0.0
C2718 C 0.91505 0.79154 0.06219 0.0
H2719 H 0.03543 0.77628 0.0198 0.0
H2720 H 0.00503 0.78442 0.04998 0.0
H2721 H 0.92518 0.78224 0.02756 0.0
H2722 H 0.84322 0.8028 0.117 0.0
H2723 H 0.87233 0.80758 0.08427 0.0
H2724 H 0.95437 0.8146 0.10018 0.0
C2725 C -0.00051 0.78598 0.03167 0.0
C2726 C 0.93159 0.78972 0.04308 0.0
C2727 C 0.01686 0.78111 0.01424 0.0
C2728 C 0.86338 0.80091 0.12005 0.0
C2729 C 0.88003 0.80359 0.10126 0.0
C2730 C 0.94776 0.80762 0.08436 0.0
C2731 C 0.97513 0.79228 0.02562 0.0
C2732 C 0.95657 0.79647 0.04458 0.0
C2733 C 0.90615 0.80041 0.10411 0.0
C2734 C 0.9231 0.8002 0.0832 0.0
H2735 H 0.98048 0.78995 0.96568 0.0
H2736 H 0.94981 0.79844 0.99645 0.0
H2737 H -0.01663 0.81141 0.06674 0.0
H2738 H 0.90622 0.78878 0.16252 0.0
H2739 H 0.93555 0.79318 0.1294 0.0
C2740 C 0.81347 0.78876 0.61688 0.0
C2741 C 0.83725 0.78116 0.62279 0.0
C2742 C 0.79594 0.79316 0.63464 0.0
C2743 C 0.7921 0.80264 0.69868 0.0
H2744 H 0.723 0.78443 0.69338 0.0
C2745 C 0.72697 0.78874 0.77867 0.0
C2746 C 0.70076 0.79133 0.77568 0.0
C2747 C 0.74352 0.79158 0.75967 0.0
C2748 C 0.74208 0.78997 0.695 0.0
H2749 H 0.86101 0.77185 0.65194 0.0
H2750 H 0.83061 0.77935 0.68244 0.0
H2751 H 0.75158 0.78174 0.65978 0.0
H2752 H 0.67146 0.80054 0.75135 0.0
H2753 H 0.70028 0.80585 0.71855 0.0
H2754 H 0.7828 0.8104 0.73414 0.0
C2755 C 0.82564 0.78229 0.66426 0.0
C2756 C 0.75842 0.78841 0.67572 0.0
C2757 C 0.84298 0.77784 0.64667 0.0
C2758 C 0.69157 0.79805 0.754 0.0
C2759 C 0.70804 0.80106 0.73518 0.0
C2760 C 0.77574 0.80423 0.71796 0.0
C2761 C 0.80205 0.79013 0.6585 0.0
C2762 C 0.78375 0.7943 0.67759 0.0
C2763 C 0.73405 0.79724 0.73754 0.0
C2764 C 0.75072 0.79753 0.71648 0.0
H2765 H 0.80855 0.79153 0.59866 0.0
H2766 H 0.7778 0.79916 0.62976 0.0
H2767 H 0.81148 0.80755 0.70044 0.0
H2768 H 0.7345 0.78357 0.79522 0.0
H2769 H 0.76349 0.78842 0.76198 0.0
C2770 C 0.90257 0.99907 0.61727 0.0
C2771 C 0.87904 1.00702 0.62331 0.0
C2772 C 0.91896 0.9926 0.63492 0.0
C2773 C 0.92143 0.98064 0.69888 0.0
H2774 H -0.00946 0.999 0.69457 0.0
C2775 C -0.01521 0.99786 0.77902 0.0
C2776 C 0.01111 0.99555 0.77647 0.0
C2777 C 0.96857 0.99366 0.76017 0.0
C2778 C 0.97147 0.99339 0.69591 0.0
H2779 H 0.854 1.01388 0.65265 0.0
H2780 H 0.88253 1.00307 0.683 0.0
H2781 H 0.96261 1.00171 0.66068 0.0
H2782 H 0.04096 0.98525 0.75341 0.0
H2783 H 0.01273 0.9777 0.72088 0.0
H2784 H 0.9301 0.97316 0.73461 0.0
C2785 C 0.88827 1.00148 0.66475 0.0
C2786 C 0.95547 0.99492 0.67642 0.0
C2787 C 0.872 1.00793 0.64724 0.0
C2788 C 0.02075 0.98758 0.75564 0.0
C2789 C 0.00462 0.98325 0.737 0.0
C2790 C 0.93744 0.97918 0.71844 0.0
C2791 C 0.91201 0.99391 0.65886 0.0
C2792 C 0.93007 0.98908 0.67793 0.0
C2793 C 0.97852 0.98695 0.73869 0.0
C2794 C 0.96242 0.98598 0.71731 0.0
H2795 H 0.90844 0.998 0.59899 0.0
H2796 H 0.93714 0.98673 0.62987 0.0
H2797 H 0.90202 0.97573 0.70041 0.0
H2798 H 0.97694 1.00393 0.79494 0.0
H2799 H 0.94851 0.99674 0.76192 0.0
C2800 C 0.23523 0.53634 0.52784 0.0
C2801 C 0.26166 0.53727 0.52467 0.0
C2802 C 0.2189 0.54031 0.50897 0.0
C2803 C 0.21933 0.53822 0.44454 0.0
H2804 H 0.1541 0.56304 0.44925 0.0
C2805 C 0.15015 0.53966 0.36585 0.0
C2806 C 0.12515 0.53461 0.37177 0.0
C2807 C 0.16756 0.54433 0.38359 0.0
C2808 C 0.17228 0.55606 0.44767 0.0
H2809 H 0.29167 0.54464 0.49997 0.0
H2810 H 0.26332 0.55163 0.46745 0.0
H2811 H 0.18281 0.56301 0.48317 0.0
H2812 H 0.09852 0.53143 0.4009 0.0
H2813 H 0.12872 0.53908 0.43141 0.0
H2814 H 0.20856 0.53055 0.40952 0.0
C2815 C 0.25517 0.54739 0.48418 0.0
C2816 C 0.18865 0.55604 0.46709 0.0
C2817 C 0.27138 0.54338 0.50287 0.0
C2818 C 0.11768 0.53507 0.39561 0.0
C2819 C 0.13497 0.53971 0.41321 0.0
C2820 C 0.20295 0.53814 0.42521 0.0
C2821 C 0.22883 0.54533 0.48677 0.0
C2822 C 0.21215 0.54685 0.46582 0.0
C2823 C 0.16021 0.5441 0.4075 0.0
C2824 C 0.17901 0.54671 0.42671 0.0
H2825 H 0.22723 0.53173 0.54447 0.0
H2826 H 0.19862 0.53855 0.51142 0.0
H2827 H 0.2372 0.53079 0.44312 0.0
H2828 H 0.15644 0.53959 0.34765 0.0
H2829 H 0.18687 0.54785 0.37864 0.0
C2830 C 0.06804 0.74945 0.37096 0.0
C2831 C 0.09439 0.7477 0.37394 0.0
C2832 C 0.05166 0.74588 0.38987 0.0
C2833 C 0.05324 0.74767 0.45441 0.0
H2834 H -0.01595 0.7296 0.449 0.0
C2835 C 0.98153 0.75118 0.53188 0.0
C2836 C 0.95793 0.75884 0.52552 0.0
C2837 C -0.00104 0.74589 0.51443 0.0
C2838 C 0.00339 0.73463 0.45076 0.0
H2839 H 0.12419 0.7391 0.39806 0.0
H2840 H 0.09565 0.73251 0.43077 0.0
H2841 H 0.01302 0.72642 0.41553 0.0
H2842 H 0.93414 0.76694 0.49583 0.0
H2843 H 0.96442 0.75797 0.46581 0.0
H2844 H 0.04338 0.75645 0.48931 0.0
C2845 C 0.08763 0.7372 0.4142 0.0
C2846 C 0.01991 0.73283 0.43162 0.0
C2847 C 0.10395 0.74094 0.39545 0.0
C2848 C 0.95212 0.76108 0.50146 0.0
C2849 C 0.96938 0.75573 0.48415 0.0
C2850 C 0.03674 0.74943 0.47354 0.0
C2851 C 0.06142 0.74033 0.41193 0.0
C2852 C 0.04482 0.73978 0.43304 0.0
C2853 C -0.00707 0.74806 0.4904 0.0
C2854 C 0.01145 0.74342 0.47166 0.0
H2855 H 0.06022 0.75464 0.35454 0.0
H2856 H 0.03154 0.74853 0.3876 0.0
H2857 H 0.07221 0.75342 0.45599 0.0
H2858 H -0.0135 0.7492 0.55026 0.0
H2859 H 0.01705 0.74001 0.5197 0.0
C2860 C 0.27491 0.7424 0.7631 0.0
C2861 C 0.26507 0.74783 0.74106 0.0
C2862 C 0.25877 0.73873 0.78198 0.0
C2863 C 0.19223 0.72995 0.79926 0.0
H2864 H 0.21182 0.7563 0.8563 0.0
C2865 C 0.12076 0.75213 0.86957 0.0
C2866 C 0.12772 0.7524 0.89354 0.0
C2867 C 0.13833 0.74746 0.85223 0.0
C2868 C 0.20631 0.74848 0.84075 0.0
H2869 H 0.23055 0.75258 0.72113 0.0
H2870 H 0.20208 0.74639 0.7545 0.0
H2871 H 0.24064 0.75561 0.82278 0.0
H2872 H 0.1585 0.74726 0.91812 0.0
H2873 H 0.18952 0.73905 0.88752 0.0
H2874 H 0.15756 0.72324 0.81713 0.0
C2875 C 0.22238 0.74487 0.75699 0.0
C2876 C 0.22279 0.74814 0.82148 0.0
C2877 C 0.23863 0.74848 0.73793 0.0
C2878 C 0.1526 0.74731 0.89981 0.0
C2879 C 0.17033 0.74265 0.88231 0.0
C2880 C 0.17576 0.73023 0.8186 0.0
C2881 C 0.23239 0.74047 0.77936 0.0
C2882 C 0.21571 0.7392 0.80037 0.0
C2883 C 0.16338 0.74288 0.85831 0.0
C2884 C 0.18237 0.73991 0.83934 0.0
H2885 H 0.29522 0.74137 0.76599 0.0
H2886 H 0.26701 0.73496 0.79884 0.0
H2887 H 0.18646 0.72271 0.78335 0.0
H2888 H 0.10172 0.75581 0.86398 0.0
H2889 H 0.13243 0.74811 0.83393 0.0
C2890 C 0.06808 0.53858 0.89425 0.0
C2891 C 0.09454 0.53797 0.89125 0.0
C2892 C 0.05243 0.54372 0.87537 0.0
C2893 C 0.05352 0.5417 0.8111 0.0
H2894 H -0.01009 0.56873 0.81544 0.0
C2895 C -0.01583 0.54439 0.7327 0.0
C2896 C 0.95892 0.54023 0.73882 0.0
C2897 C 0.00194 0.54871 0.75025 0.0
C2898 C 0.00766 0.56116 0.81397 0.0
H2899 H 0.12555 0.54399 0.86709 0.0
H2900 H 0.09836 0.5531 0.83447 0.0
H2901 H 0.0186 0.56807 0.84936 0.0
H2902 H 0.93236 0.53805 0.76817 0.0
H2903 H 0.96319 0.54507 0.79837 0.0
H2904 H 0.04224 0.53403 0.77624 0.0
C2905 C 0.08961 0.54912 0.85105 0.0
C2906 C 0.02402 0.56078 0.83337 0.0
C2907 C 0.10515 0.54389 0.86975 0.0
C2908 C 0.95166 0.54106 0.7627 0.0
C2909 C 0.96932 0.54534 0.78012 0.0
C2910 C 0.03715 0.54199 0.79179 0.0
C2911 C 0.0631 0.54845 0.85337 0.0
C2912 C 0.04686 0.55073 0.83226 0.0
C2913 C -0.00528 0.54898 0.77418 0.0
C2914 C 0.01376 0.55133 0.79321 0.0
H2915 H 0.05946 0.53415 0.91069 0.0
H2916 H 0.03201 0.54302 0.8776 0.0
H2917 H 0.07086 0.53361 0.80982 0.0
H2918 H -0.00969 0.54402 0.71446 0.0
H2919 H 0.02138 0.55161 0.74513 0.0
C2920 C 0.73132 0.50452 0.48426 0.0
C2921 C 0.70764 0.51242 0.48992 0.0
C2922 C 0.74866 0.50015 0.50218 0.0
C2923 C 0.75228 0.49184 0.56662 0.0
H2924 H 0.82172 0.50918 0.56047 0.0
C2925 C 0.81784 0.50786 0.64566 0.0
C2926 C 0.84402 0.50513 0.64266 0.0
C2927 C 0.80116 0.50427 0.62697 0.0
C2928 C 0.80254 0.50387 0.56234 0.0
H2929 H 0.68378 0.52211 0.51883 0.0
H2930 H 0.71388 0.51472 0.54959 0.0
H2931 H 0.79313 0.51135 0.52686 0.0
H2932 H 0.87315 0.49482 0.61887 0.0
H2933 H 0.8441 0.48822 0.58659 0.0
H2934 H 0.7615 0.48491 0.60238 0.0
C2935 C 0.71894 0.51155 0.53149 0.0
C2936 C 0.78619 0.50513 0.54305 0.0
C2937 C 0.70177 0.51596 0.51373 0.0
C2938 C 0.85305 0.49742 0.62146 0.0
C2939 C 0.83645 0.49368 0.60295 0.0
C2940 C 0.76865 0.49057 0.58594 0.0
C2941 C 0.74248 0.50351 0.52597 0.0
C2942 C 0.76073 0.49957 0.54519 0.0
C2943 C 0.81048 0.49774 0.60516 0.0
C2944 C 0.79379 0.49696 0.58414 0.0
H2945 H 0.73634 0.50156 0.4661 0.0
H2946 H 0.76675 0.49397 0.49747 0.0
H2947 H 0.73281 0.48717 0.56862 0.0
H2948 H 0.81045 0.51379 0.66187 0.0
H2949 H 0.78123 0.50762 0.62916 0.0
C2950 C -0.01459 0.29363 0.48396 0.0
C2951 C 0.00981 0.28745 0.4903 0.0
C2952 C 0.96795 0.29888 0.50139 0.0
C2953 C 0.96295 0.31126 0.565 0.0
H2954 H 0.89612 0.28887 0.56 0.0
C2955 C 0.89889 0.29374 0.64467 0.0
C2956 C 0.87249 0.2945 0.64141 0.0
C2957 C 0.91524 0.2979 0.6259 0.0
C2958 C 0.91449 0.29558 0.56152 0.0
H2959 H 0.03516 0.28235 0.51994 0.0
H2960 H 0.0048 0.29109 0.54996 0.0
H2961 H 0.9252 0.28697 0.52682 0.0
H2962 H 0.84243 0.30197 0.61694 0.0
H2963 H 0.87087 0.3095 0.5845 0.0
H2964 H 0.95246 0.31919 0.60015 0.0
C2965 C -0.00081 0.29222 0.53162 0.0
C2966 C 0.93116 0.29451 0.54245 0.0
C2967 C 0.01652 0.28698 0.51432 0.0
C2968 C 0.86274 0.30086 0.61978 0.0
C2969 C 0.879 0.30516 0.60118 0.0
C2970 C 0.94626 0.31231 0.58413 0.0
C2971 C 0.97466 0.29809 0.52541 0.0
C2972 C 0.95578 0.3019 0.54419 0.0
C2973 C 0.90535 0.30303 0.60374 0.0
C2974 C 0.92207 0.30411 0.58275 0.0
H2975 H 0.9797 0.29428 0.46562 0.0
H2976 H 0.94918 0.30345 0.4961 0.0
H2977 H 0.98171 0.31734 0.5667 0.0
H2978 H 0.90686 0.28891 0.6612 0.0
H2979 H 0.93549 0.29604 0.62836 0.0
C2980 C 0.70424 0.28263 0.25013 0.0
C2981 C 0.70988 0.2864 0.27393 0.0
C2982 C 0.72083 0.28803 0.23232 0.0
C2983 C 0.78708 0.29813 0.22021 0.0
H2984 H 0.7598 0.3178 0.16161 0.0
C2985 C 0.85194 0.30839 0.14098 0.0
C2986 C 0.84298 0.30024 0.12004 0.0
C2987 C 0.83542 0.31187 0.15965 0.0
C2988 C 0.76768 0.31234 0.17786 0.0
H2989 H 0.73764 0.29857 0.29768 0.0
H2990 H 0.76709 0.30785 0.26621 0.0
H2991 H 0.73186 0.31374 0.19567 0.0
H2992 H 0.80961 0.29059 0.10134 0.0
H2993 H 0.78055 0.29624 0.13432 0.0
H2994 H 0.82261 0.29596 0.20228 0.0
C2995 C 0.7496 0.30077 0.26156 0.0
C2996 C 0.75174 0.31003 0.19734 0.0
C2997 C 0.73283 0.29541 0.27953 0.0
C2998 C 0.8169 0.2969 0.11735 0.0
C2999 C 0.80032 0.30019 0.13621 0.0
C3000 C 0.80301 0.3004 0.20075 0.0
C3001 C 0.74356 0.29729 0.23777 0.0
C3002 C 0.76116 0.30243 0.21848 0.0
C3003 C 0.80964 0.30704 0.15785 0.0
C3004 C 0.79335 0.30711 0.17919 0.0
H3005 H 0.68682 0.27562 0.2451 0.0
H3006 H 0.71597 0.28473 0.21421 0.0
H3007 H 0.79479 0.29206 0.23619 0.0
H3008 H 0.87197 0.31142 0.14329 0.0
H3009 H 0.84304 0.31761 0.17586 0.0
C3010 C 0.89812 0.50683 0.11619 0.0
C3011 C 0.87406 0.51369 0.12256 0.0
C3012 C 0.91536 0.5012 0.13361 0.0
C3013 C 0.91966 0.48863 0.19718 0.0
H3014 H -0.01213 0.50865 0.19225 0.0
C3015 C -0.01427 0.50166 0.27703 0.0
C3016 C 0.01196 0.49946 0.27352 0.0
C3017 C 0.96887 0.49904 0.2582 0.0
C3018 C 0.96905 0.50262 0.19375 0.0
H3019 H 0.84906 0.51954 0.15228 0.0
H3020 H 0.87902 0.51009 0.18223 0.0
H3021 H 0.95883 0.51183 0.15916 0.0
H3022 H 0.04096 0.49117 0.2483 0.0
H3023 H 0.01163 0.48638 0.21581 0.0
H3024 H 0.92971 0.48002 0.23217 0.0
C3025 C 0.88455 0.50877 0.16389 0.0
C3026 C 0.95243 0.50443 0.17474 0.0
C3027 C 0.86744 0.51441 0.14661 0.0
C3028 C 0.02085 0.49336 0.25143 0.0
C3029 C 0.00408 0.49063 0.23277 0.0
C3030 C 0.93629 0.48685 0.21625 0.0
C3031 C 0.90875 0.50223 0.15765 0.0
C3032 C 0.92738 0.49784 0.17644 0.0
C3033 C 0.97804 0.49407 0.2357 0.0
C3034 C 0.96101 0.49415 0.21488 0.0
H3035 H 0.90374 0.50597 0.09783 0.0
H3036 H 0.93388 0.49611 0.12829 0.0
H3037 H 0.90055 0.48315 0.19886 0.0
H3038 H 0.97839 0.50633 0.29389 0.0
H3039 H 0.94887 0.50188 0.26096 0.0
C3040 C 0.7427 0.04288 0.52668 0.0
C3041 C 0.76908 0.0442 0.52351 0.0
C3042 C 0.7263 0.04614 0.50767 0.0
C3043 C 0.72689 0.04321 0.44313 0.0
H3044 H 0.6598 0.06513 0.44831 0.0
C3045 C 0.65531 0.04204 0.3657 0.0
C3046 C 0.63104 0.03569 0.37227 0.0
C3047 C 0.67306 0.04702 0.38301 0.0
C3048 C 0.67854 0.05901 0.4466 0.0
H3049 H 0.79894 0.0515 0.49865 0.0
H3050 H 0.77044 0.0574 0.46585 0.0
H3051 H 0.68899 0.06691 0.48175 0.0
H3052 H 0.60625 0.03005 0.40222 0.0
H3053 H 0.63703 0.03841 0.43192 0.0
H3054 H 0.71618 0.03471 0.40835 0.0
C3055 C 0.76238 0.05335 0.48269 0.0
C3056 C 0.69517 0.05999 0.46575 0.0
C3057 C 0.77868 0.04998 0.50152 0.0
C3058 C 0.62477 0.03479 0.39639 0.0
C3059 C 0.64235 0.03981 0.41353 0.0
C3060 C 0.71026 0.04221 0.42402 0.0
C3061 C 0.7361 0.0509 0.48532 0.0
C3062 C 0.71931 0.05173 0.46437 0.0
C3063 C 0.66672 0.04588 0.4071 0.0
C3064 C 0.68568 0.04967 0.42578 0.0
H3065 H 0.73481 0.03847 0.54344 0.0
H3066 H 0.70609 0.04404 0.51019 0.0
H3067 H 0.74527 0.0365 0.44161 0.0
H3068 H 0.66066 0.04298 0.34728 0.0
H3069 H 0.69175 0.05171 0.37758 0.0
C3070 C 0.47992 0.25451 0.52931 0.0
C3071 C 0.45404 0.25056 0.52614 0.0
C3072 C 0.4968 0.25279 0.51033 0.0
C3073 C 0.49541 0.25508 0.44563 0.0
H3074 H 0.5663 0.24103 0.45085 0.0
C3075 C 0.5662 0.25836 0.36698 0.0
C3076 C 0.58971 0.26658 0.37249 0.0
C3077 C 0.54898 0.25391 0.38499 0.0
C3078 C 0.54651 0.245 0.44916 0.0
H3079 H 0.42584 0.24008 0.5015 0.0
H3080 H 0.45527 0.2367 0.46875 0.0
H3081 H 0.53801 0.23664 0.48458 0.0
H3082 H 0.61319 0.27718 0.40112 0.0
H3083 H 0.5833 0.26959 0.4321 0.0
H3084 H 0.50405 0.26382 0.4104 0.0
C3085 C 0.46247 0.2417 0.48551 0.0
C3086 C 0.53037 0.24252 0.46846 0.0
C3087 C 0.44565 0.24357 0.50431 0.0
C3088 C 0.59538 0.27065 0.39619 0.0
C3089 C 0.57833 0.26618 0.41405 0.0
C3090 C 0.51154 0.25753 0.42633 0.0
C3091 C 0.48801 0.24694 0.48804 0.0
C3092 C 0.50475 0.24784 0.46703 0.0
C3093 C 0.55512 0.25755 0.40872 0.0
C3094 C 0.53736 0.25289 0.42808 0.0
H3095 H 0.48682 0.25994 0.54596 0.0
H3096 H 0.51638 0.25702 0.5128 0.0
H3097 H 0.47584 0.25959 0.44405 0.0
H3098 H 0.56134 0.25501 0.34889 0.0
H3099 H 0.53113 0.24729 0.38042 0.0
C3100 C 0.77252 0.24861 0.76211 0.0
C3101 C 0.76294 0.25444 0.74015 0.0
C3102 C 0.75614 0.24462 0.78072 0.0
C3103 C 0.68921 0.23602 0.79715 0.0
H3104 H 0.70862 0.26144 0.8549 0.0
C3105 C 0.61755 0.2577 0.86786 0.0
C3106 C 0.62464 0.25772 0.8918 0.0
C3107 C 0.63502 0.25307 0.85038 0.0
C3108 C 0.70314 0.25388 0.83915 0.0
H3109 H 0.72865 0.25957 0.72002 0.0
H3110 H 0.69979 0.25288 0.75289 0.0
H3111 H 0.73778 0.26094 0.82167 0.0
H3112 H 0.65547 0.25209 0.91618 0.0
H3113 H 0.68619 0.24391 0.88541 0.0
H3114 H 0.65422 0.22942 0.81454 0.0
C3115 C 0.72006 0.25126 0.75555 0.0
C3116 C 0.71983 0.25363 0.82004 0.0
C3117 C 0.73653 0.25516 0.73677 0.0
C3118 C 0.64946 0.25235 0.8979 0.0
C3119 C 0.66704 0.24771 0.8803 0.0
C3120 C 0.67251 0.23621 0.81633 0.0
C3121 C 0.72979 0.24647 0.77789 0.0
C3122 C 0.71285 0.24503 0.79869 0.0
C3123 C 0.66006 0.24829 0.85633 0.0
C3124 C 0.67908 0.24553 0.83734 0.0
H3125 H 0.79279 0.24752 0.76516 0.0
H3126 H 0.76417 0.24056 0.79756 0.0
H3127 H 0.6835 0.22906 0.78103 0.0
H3128 H 0.59856 0.26162 0.86242 0.0
H3129 H 0.6291 0.25396 0.83211 0.0
C3130 C 0.44036 0.04249 0.76426 0.0
C3131 C 0.45033 0.03743 0.74211 0.0
C3132 C 0.4564 0.04726 0.78278 0.0
C3133 C 0.52164 0.06059 0.7988 0.0
H3134 H 0.50663 0.03312 0.85618 0.0
C3135 C 0.59645 0.0432 0.86821 0.0
C3136 C 0.58951 0.04146 0.89208 0.0
C3137 C 0.57837 0.04744 0.85117 0.0
C3138 C 0.5108 0.04129 0.84056 0.0
H3139 H 0.48489 0.03441 0.72165 0.0
H3140 H 0.51323 0.04255 0.75443 0.0
H3141 H 0.47743 0.03149 0.8231 0.0
H3142 H 0.5584 0.04403 0.91699 0.0
H3143 H 0.52657 0.05159 0.88699 0.0
H3144 H 0.55539 0.07003 0.81618 0.0
C3145 C 0.49288 0.0429 0.75724 0.0
C3146 C 0.49412 0.04027 0.82153 0.0
C3147 C 0.47671 0.03816 0.73854 0.0
C3148 C 0.56427 0.04509 0.89872 0.0
C3149 C 0.54607 0.04936 0.88155 0.0
C3150 C 0.5383 0.0617 0.81794 0.0
C3151 C 0.48281 0.04703 0.77967 0.0
C3152 C 0.49963 0.0496 0.80031 0.0
C3153 C 0.55287 0.05013 0.85753 0.0
C3154 C 0.53335 0.05168 0.83881 0.0
H3155 H 0.42007 0.04248 0.76752 0.0
H3156 H 0.44812 0.05074 0.79973 0.0
H3157 H 0.52612 0.06812 0.78275 0.0
H3158 H 0.6158 0.04075 0.86245 0.0
H3159 H 0.58424 0.04768 0.83284 0.0
C3160 C 0.22943 0.99826 0.48335 0.0
C3161 C 0.20581 1.00616 0.48923 0.0
C3162 C 0.24692 0.99382 0.50112 0.0
C3163 C 0.25078 0.98476 0.56524 0.0
H3164 H 0.31975 1.00324 0.55996 0.0
C3165 C 0.3145 1.00095 0.64527 0.0
C3166 C 0.34085 0.99894 0.64263 0.0
C3167 C 0.29834 0.99723 0.62624 0.0
C3168 C 0.30073 0.9976 0.56158 0.0
H3169 H 0.18222 1.01581 0.51835 0.0
H3170 H 0.21254 1.00823 0.54886 0.0
H3171 H 0.29138 1.00539 0.52617 0.0
H3172 H 0.37088 0.9898 0.61903 0.0
H3173 H 0.34272 0.98292 0.58616 0.0
H3174 H 0.25989 0.97748 0.60089 0.0
C3175 C 0.21745 1.00515 0.5307 0.0
C3176 C 0.2845 0.99885 0.54219 0.0
C3177 C 0.20016 1.00967 0.51309 0.0
C3178 C 0.35062 0.99184 0.62137 0.0
C3179 C 0.33453 0.98794 0.60252 0.0
C3180 C 0.26703 0.98346 0.58462 0.0
C3181 C 0.2409 0.99707 0.52497 0.0
C3182 C 0.25918 0.99294 0.54406 0.0
C3183 C 0.30833 0.99126 0.60443 0.0
C3184 C 0.29198 0.9903 0.58318 0.0
H3185 H 0.23428 0.99534 0.46515 0.0
H3186 H 0.26497 0.98764 0.49628 0.0
H3187 H 0.2314 0.97984 0.56701 0.0
H3188 H 0.30653 1.00641 0.66149 0.0
H3189 H 0.27822 1.00003 0.62822 0.0
C3190 C 0.36815 0.78312 0.61648 0.0
C3191 C 0.37501 0.78456 0.64041 0.0
C3192 C 0.3845 0.78925 0.59882 0.0
C3193 C 0.45179 0.79654 0.58704 0.0
H3194 H 0.42624 0.81775 0.52864 0.0
C3195 C 0.51785 0.80528 0.50843 0.0
C3196 C 0.50875 0.79721 0.48747 0.0
C3197 C 0.50131 0.8093 0.52692 0.0
C3198 C 0.43364 0.81187 0.54485 0.0
H3199 H 0.40429 0.79409 0.66452 0.0
H3200 H 0.4331 0.80483 0.6334 0.0
H3201 H 0.39791 0.81459 0.5626 0.0
H3202 H 0.47506 0.78837 0.46859 0.0
H3203 H 0.44596 0.79508 0.50124 0.0
H3204 H 0.48721 0.79321 0.56919 0.0
C3205 C 0.415 0.79879 0.62846 0.0
C3206 C 0.41746 0.81006 0.56429 0.0
C3207 C 0.39852 0.79264 0.64626 0.0
C3208 C 0.48252 0.79459 0.48459 0.0
C3209 C 0.4659 0.79848 0.50327 0.0
C3210 C 0.46795 0.79841 0.56767 0.0
C3211 C 0.40817 0.79704 0.60454 0.0
C3212 C 0.4262 0.80188 0.58536 0.0
C3213 C 0.47534 0.80517 0.52494 0.0
C3214 C 0.45889 0.80567 0.54619 0.0
H3215 H 0.35019 0.77702 0.6112 0.0
H3216 H 0.37885 0.78733 0.5806 0.0
H3217 H 0.45903 0.78995 0.60287 0.0
H3218 H 0.53799 0.80778 0.51093 0.0
H3219 H 0.50905 0.81488 0.54318 0.0
C3220 C 0.31056 0.79365 0.11507 0.0
C3221 C 0.33489 0.7872 0.12118 0.0
C3222 C 0.29341 0.79909 0.13272 0.0
C3223 C 0.28957 0.81051 0.19692 0.0
H3224 H 0.22321 0.78729 0.1928 0.0
C3225 C 0.22952 0.78792 0.27732 0.0
C3226 C 0.203 0.78914 0.2753 0.0
C3227 C 0.24501 0.79301 0.25827 0.0
C3228 C 0.24148 0.7942 0.19409 0.0
H3229 H 0.36062 0.78218 0.1506 0.0
H3230 H 0.33092 0.79114 0.18083 0.0
H3231 H 0.251 0.7871 0.15856 0.0
H3232 H 0.17198 0.79831 0.25278 0.0
H3233 H 0.19892 0.80723 0.21991 0.0
H3234 H 0.28041 0.8167 0.23295 0.0
C3235 C 0.32502 0.79233 0.16258 0.0
C3236 C 0.25737 0.79416 0.1744 0.0
C3237 C 0.34198 0.7869 0.14512 0.0
C3238 C 0.19237 0.79676 0.25467 0.0
C3239 C 0.20775 0.80191 0.23582 0.0
C3240 C 0.27372 0.81045 0.21668 0.0
C3241 C 0.30046 0.79828 0.15668 0.0
C3242 C 0.28189 0.80177 0.17583 0.0
C3243 C 0.23414 0.7995 0.23709 0.0
C3244 C 0.2498 0.80185 0.21561 0.0
H3245 H 0.30462 0.79419 0.09679 0.0
H3246 H 0.27459 0.80371 0.12767 0.0
H3247 H 0.30824 0.81679 0.1984 0.0
H3248 H 0.23817 0.78217 0.29306 0.0
H3249 H 0.26534 0.79093 0.25967 0.0
C3250 C 0.51821 1.01254 0.25252 0.0
C3251 C 0.51199 1.00971 0.27642 0.0
C3252 C 0.5005 1.00923 0.23487 0.0
C3253 C 0.43269 1.00801 0.22372 0.0
H3254 H 0.45407 0.98639 0.16408 0.0
C3255 C 0.36411 1.00276 0.1459 0.0
C3256 C 0.37342 1.00909 0.12406 0.0
C3257 C 0.3806 0.99928 0.16454 0.0
C3258 C 0.44787 0.9925 0.18059 0.0
H3259 H 0.48213 1.00102 0.30043 0.0
H3260 H 0.45077 0.99526 0.2692 0.0
H3261 H 0.48312 0.9863 0.19767 0.0
H3262 H 0.40734 1.01589 0.10418 0.0
H3263 H 0.43644 1.01015 0.13717 0.0
H3264 H 0.39776 1.01472 0.20655 0.0
C3265 C 0.46958 1.0001 0.26438 0.0
C3266 C 0.46442 0.99239 0.19983 0.0
C3267 C 0.48748 1.00338 0.28222 0.0
C3268 C 0.39972 1.01105 0.12085 0.0
C3269 C 0.41631 1.00769 0.13969 0.0
C3270 C 0.41614 1.00811 0.20451 0.0
C3271 C 0.47602 1.00297 0.24054 0.0
C3272 C 0.45719 1.00054 0.22141 0.0
C3273 C 0.40679 1.00219 0.16187 0.0
C3274 C 0.42374 1.00066 0.18262 0.0
H3275 H 0.53685 1.01745 0.24724 0.0
H3276 H 0.50586 1.01199 0.21674 0.0
H3277 H 0.42673 1.01461 0.24002 0.0
H3278 H 0.34394 1.00072 0.14877 0.0
H3279 H 0.37276 0.99462 0.18122 0.0
C3280 C 0.61165 0.54795 0.89421 0.0
C3281 C 0.62148 0.54218 0.87232 0.0
C3282 C 0.62784 0.55263 0.91268 0.0
C3283 C 0.69402 0.56361 0.92895 0.0
H3284 H 0.67624 0.53781 0.98689 0.0
C3285 C 0.76672 0.54617 1.00055 0.0
C3286 C 0.75938 0.54602 0.02444 0.0
C3287 C 0.74906 0.54968 0.98286 0.0
C3288 C 0.68123 0.54548 0.97108 0.0
H3289 H 0.65592 0.53796 0.85205 0.0
H3290 H 0.68453 0.54591 0.88472 0.0
H3291 H 0.64732 0.53686 0.95353 0.0
H3292 H 0.7278 0.5502 0.04848 0.0
H3293 H 0.69672 0.55647 0.01733 0.0
H3294 H 0.72827 0.57187 0.94644 0.0
C3295 C 0.66419 0.5469 0.88743 0.0
C3296 C 0.66469 0.54489 0.9519 0.0
C3297 C 0.64788 0.54229 0.86878 0.0
C3298 C 0.73402 0.55008 0.03026 0.0
C3299 C 0.71624 0.55363 0.01243 0.0
C3300 C 0.71056 0.56428 0.94822 0.0
C3301 C 0.65425 0.55156 0.90976 0.0
C3302 C 0.6711 0.55367 0.93051 0.0
C3303 C 0.72356 0.55321 0.98852 0.0
C3304 C 0.70457 0.55487 0.96932 0.0
H3305 H 0.59134 0.54843 0.89733 0.0
H3306 H 0.61965 0.5566 0.9295 0.0
H3307 H 0.69926 0.57071 0.91278 0.0
H3308 H 0.78611 0.54322 0.99531 0.0
H3309 H 0.75528 0.54893 0.96466 0.0
C3310 C 0.56261 0.75476 0.87014 0.0
C3311 C 0.58901 0.75416 0.87349 0.0
C3312 C 0.54623 0.75018 0.88875 0.0
C3313 C 0.54635 0.75127 0.9532 0.0
H3314 H 0.48066 0.72725 0.94721 0.0
C3315 C 0.4754 0.74912 0.0308 0.0
C3316 C 0.4506 0.75445 0.02459 0.0
C3317 C 0.49322 0.74484 0.01324 0.0
C3318 C 0.49899 0.73398 0.94914 0.0
H3319 H 0.61904 0.74664 0.89799 0.0
H3320 H 0.59059 0.73849 0.93012 0.0
H3321 H 0.50991 0.72728 0.91369 0.0
H3322 H 0.42492 0.75893 0.995 0.0
H3323 H 0.45582 0.75192 0.96485 0.0
H3324 H 0.53516 0.75868 0.98821 0.0
C3325 C 0.58247 0.74299 0.9135 0.0
C3326 C 0.51567 0.734 0.92996 0.0
C3327 C 0.59873 0.74766 0.89507 0.0
C3328 C 0.44386 0.75497 1.00056 0.0
C3329 C 0.46154 0.75071 0.98316 0.0
C3330 C 0.52967 0.75132 0.97231 0.0
C3331 C 0.5561 0.74483 0.91084 0.0
C3332 C 0.53931 0.74297 0.93167 0.0
C3333 C 0.48647 0.74575 0.98923 0.0
C3334 C 0.50557 0.74307 0.97031 0.0
H3335 H 0.55466 0.75968 0.85364 0.0
H3336 H 0.52595 0.7518 0.88623 0.0
H3337 H 0.56431 0.75854 0.95496 0.0
H3338 H 0.48115 0.74847 0.04913 0.0
H3339 H 0.51231 0.74095 0.01843 0.0
C3340 C 0.61234 0.74795 0.37202 0.0
C3341 C 0.62113 0.75488 0.39373 0.0
C3342 C 0.62922 0.74446 0.35364 0.0
C3343 C 0.69698 0.74009 0.33731 0.0
H3344 H 0.67452 0.76351 0.27917 0.0
C3345 C 0.76607 0.76392 0.26539 0.0
C3346 C 0.75907 0.7625 0.24148 0.0
C3347 C 0.74896 0.75937 0.2832 0.0
C3348 C 0.68092 0.75654 0.29506 0.0
H3349 H 0.65459 0.76233 0.4139 0.0
H3350 H 0.68434 0.75651 0.38141 0.0
H3351 H 0.64559 0.76148 0.3125 0.0
H3352 H 0.72861 0.75478 0.21761 0.0
H3353 H 0.69851 0.74674 0.24898 0.0
H3354 H 0.73258 0.73559 0.31993 0.0
C3355 C 0.66434 0.75365 0.37873 0.0
C3356 C 0.66435 0.7554 0.31421 0.0
C3357 C 0.64736 0.75702 0.3973 0.0
C3358 C 0.73455 0.75614 0.23583 0.0
C3359 C 0.71733 0.75156 0.25378 0.0
C3360 C 0.71356 0.74118 0.31809 0.0
C3361 C 0.65527 0.74796 0.35648 0.0
C3362 C 0.67233 0.74746 0.33567 0.0
C3363 C 0.72437 0.75322 0.27766 0.0
C3364 C 0.70586 0.74978 0.29693 0.0
H3365 H 0.59223 0.74578 0.36894 0.0
H3366 H 0.62175 0.73964 0.33689 0.0
H3367 H 0.70353 0.73369 0.35352 0.0
H3368 H 0.78478 0.76875 0.27053 0.0
H3369 H 0.75485 0.76118 0.30138 0.0
C3370 C 0.47648 0.53713 0.23494 0.0
C3371 C 0.45051 0.54072 0.23808 0.0
C3372 C 0.49338 0.53969 0.25374 0.0
C3373 C 0.49204 0.53894 0.31845 0.0
H3374 H 0.56266 0.55359 0.31264 0.0
C3375 C 0.56299 0.53756 0.39697 0.0
C3376 C 0.58661 0.52947 0.39158 0.0
C3377 C 0.54568 0.54161 0.37891 0.0
C3378 C 0.54295 0.54946 0.31449 0.0
H3379 H 0.4221 0.55148 0.2623 0.0
H3380 H 0.45156 0.55636 0.29473 0.0
H3381 H 0.53428 0.55701 0.27883 0.0
H3382 H 0.61018 0.51865 0.36313 0.0
H3383 H 0.58012 0.52553 0.33207 0.0
H3384 H 0.50086 0.53096 0.35391 0.0
C3385 C 0.45884 0.55099 0.27817 0.0
C3386 C 0.52676 0.5514 0.29515 0.0
C3387 C 0.44201 0.54827 0.25957 0.0
C3388 C 0.59229 0.5251 0.36795 0.0
C3389 C 0.57515 0.52917 0.35005 0.0
C3390 C 0.50822 0.53703 0.33779 0.0
C3391 C 0.4845 0.54604 0.27579 0.0
C3392 C 0.50124 0.54583 0.2968 0.0
C3393 C 0.55183 0.53768 0.35525 0.0
C3394 C 0.53396 0.54188 0.33583 0.0
H3395 H 0.48344 0.53127 0.21853 0.0
H3396 H 0.51307 0.53568 0.25139 0.0
H3397 H 0.47256 0.53424 0.32021 0.0
H3398 H 0.55813 0.54114 0.41499 0.0
H3399 H 0.52775 0.54814 0.38337 0.0
C3400 C 0.31078 0.49722 0.15033 0.0
C3401 C 0.33526 0.50311 0.1438 0.0
C3402 C 0.29342 0.49144 0.13306 0.0
C3403 C 0.28882 0.47774 0.06966 0.0
H3404 H 0.22289 0.50166 0.07301 0.0
C3405 C 0.22758 0.49639 0.98843 0.0
C3406 C 0.20108 0.49558 0.99098 0.0
C3407 C 0.24334 0.49226 0.00765 0.0
C3408 C 0.24103 0.49455 0.07195 0.0
H3409 H 0.36105 0.50672 0.11408 0.0
H3410 H 0.33096 0.49713 0.08443 0.0
H3411 H 0.2512 0.50313 0.1068 0.0
H3412 H 0.17031 0.48817 0.01483 0.0
H3413 H 0.1977 0.48087 0.04799 0.0
H3414 H 0.27897 0.46996 0.03429 0.0
C3415 C 0.32509 0.49669 0.10275 0.0
C3416 C 0.25722 0.49535 0.09139 0.0
C3417 C 0.34229 0.50247 0.11985 0.0
C3418 C 0.19069 0.48934 0.01245 0.0
C3419 C 0.20634 0.48514 0.03149 0.0
C3420 C 0.27265 0.47703 0.05015 0.0
C3421 C 0.30037 0.49134 0.10905 0.0
C3422 C 0.28158 0.48742 0.09022 0.0
C3423 C 0.23276 0.48717 0.02956 0.0
C3424 C 0.24884 0.48582 0.05093 0.0
H3425 H 0.30487 0.49742 0.16864 0.0
H3426 H 0.27449 0.48728 0.13844 0.0
H3427 H 0.30735 0.47123 0.06839 0.0
H3428 H 0.23607 0.50111 0.97206 0.0
H3429 H 0.26368 0.49402 1.0057 0.0
C3430 C 0.3646 0.28938 0.11887 0.0
C3431 C 0.37213 0.28828 0.14265 0.0
C3432 C 0.38216 0.29358 0.10129 0.0
C3433 C 0.44994 0.28944 0.08912 0.0
H3434 H 0.43236 0.31668 0.0322 0.0
C3435 C 0.52064 0.29618 0.01335 0.0
C3436 C 0.51144 0.29147 0.99082 0.0
C3437 C 0.50397 0.29944 0.03194 0.0
C3438 C 0.43746 0.309 0.04797 0.0
H3439 H 0.40382 0.2917 0.16673 0.0
H3440 H 0.43468 0.29919 0.13581 0.0
H3441 H 0.40313 0.3167 0.06577 0.0
H3442 H 0.47748 0.28755 0.96976 0.0
H3443 H 0.44804 0.29308 1.00262 0.0
H3444 H 0.48398 0.28145 0.07127 0.0
C3445 C 0.41513 0.29651 0.13086 0.0
C3446 C 0.4208 0.30903 0.06719 0.0
C3447 C 0.39747 0.2923 0.14857 0.0
C3448 C 0.48508 0.29109 0.98695 0.0
C3449 C 0.46828 0.29431 1.00572 0.0
C3450 C 0.4666 0.28949 0.06999 0.0
C3451 C 0.40771 0.29685 0.10699 0.0
C3452 C 0.42668 0.29897 0.08781 0.0
C3453 C 0.47766 0.29802 0.02852 0.0
C3454 C 0.46039 0.29905 0.04911 0.0
H3455 H 0.34519 0.28656 0.11362 0.0
H3456 H 0.37584 0.29347 0.0831 0.0
H3457 H 0.45484 0.28125 0.10452 0.0
H3458 H 0.54085 0.29699 0.01686 0.0
H3459 H 0.51172 0.30268 0.04917 0.0
C3460 C 0.3458 0.2839 0.64732 0.0
C3461 C 0.33883 0.28364 0.62335 0.0
C3462 C 0.32828 0.28875 0.66463 0.0
C3463 C 0.26017 0.28819 0.67566 0.0
H3464 H 0.27998 0.31315 0.73364 0.0
C3465 C 0.19115 0.2936 0.75291 0.0
C3466 C 0.20078 0.28756 0.77476 0.0
C3467 C 0.20745 0.29764 0.73428 0.0
C3468 C 0.27422 0.30616 0.71755 0.0
H3469 H 0.30818 0.28911 0.59872 0.0
H3470 H 0.27733 0.29768 0.62923 0.0
H3471 H 0.30914 0.31274 0.70005 0.0
H3472 H 0.23512 0.28215 0.79471 0.0
H3473 H 0.26387 0.28897 0.76177 0.0
H3474 H 0.22558 0.28118 0.69326 0.0
C3475 C 0.29643 0.29389 0.63449 0.0
C3476 C 0.29084 0.30594 0.69832 0.0
C3477 C 0.31407 0.28902 0.61703 0.0
C3478 C 0.22719 0.28671 0.77804 0.0
C3479 C 0.24361 0.29069 0.75923 0.0
C3480 C 0.24354 0.28849 0.69481 0.0
C3481 C 0.30331 0.29355 0.6585 0.0
C3482 C 0.28424 0.29652 0.67739 0.0
C3483 C 0.23379 0.29566 0.73698 0.0
C3484 C 0.2506 0.29713 0.71611 0.0
H3485 H 0.36474 0.27999 0.65292 0.0
H3486 H 0.33412 0.28802 0.68294 0.0
H3487 H 0.25465 0.28057 0.65996 0.0
H3488 H 0.17087 0.2948 0.74994 0.0
H3489 H 0.19938 0.30183 0.71751 0.0
C3490 C 0.4853 0.4993 0.77995 0.0
C3491 C 0.50989 0.50524 0.77384 0.0
C3492 C 0.46797 0.49419 0.76238 0.0
C3493 C 0.46335 0.48194 0.69867 0.0
H3494 H 0.3965 0.50426 0.7037 0.0
C3495 C 0.39864 0.4989 0.61917 0.0
C3496 C 0.37228 0.49786 0.62263 0.0
C3497 C 0.41521 0.49498 0.63784 0.0
C3498 C 0.4149 0.49758 0.70217 0.0
H3499 H 0.53571 0.51004 0.74444 0.0
H3500 H 0.50552 0.50157 0.71414 0.0
H3501 H 0.42559 0.50626 0.73683 0.0
H3502 H 0.34255 0.49014 0.64737 0.0
H3503 H 0.37136 0.48306 0.67964 0.0
H3504 H 0.45284 0.47395 0.66355 0.0
C3505 C 0.49967 0.50051 0.73242 0.0
C3506 C 0.43157 0.49871 0.72121 0.0
C3507 C 0.51692 0.50559 0.74988 0.0
C3508 C 0.36281 0.49146 0.64437 0.0
C3509 C 0.37928 0.48742 0.66287 0.0
C3510 C 0.44666 0.48086 0.67956 0.0
C3511 C 0.47495 0.49492 0.73841 0.0
C3512 C 0.45617 0.49128 0.71949 0.0
C3513 C 0.40557 0.48984 0.6601 0.0
C3514 C 0.42244 0.48899 0.68098 0.0
H3515 H 0.47935 0.49874 0.79824 0.0
H3516 H 0.44906 0.4898 0.76752 0.0
H3517 H 0.48209 0.47583 0.69698 0.0
H3518 H 0.40639 0.50376 0.60256 0.0
H3519 H 0.43541 0.49704 0.63523 0.0
loop_
_geom_bond_atom_site_label_1
_geom_bond_atom_site_label_2
_geom_bond_distance
_geom_bond_site_symmetry_2
_ccdc_geom_bond_type
Dy0 O4 2.398 . S
Dy0 O5 2.491 1_545 S
Dy0 O6 2.403 . S
Dy0 O7 2.664 . S
Dy0 O11 2.326 . S
Dy0 O15 2.310 1_545 S
Dy0 O16 2.351 . S
C1 O12 1.185 . S
C1 O13 1.355 1_565 S
C2 O4 1.185 . S
C2 O5 1.355 1_545 S
Dy3 O7 2.310 1_565 S
Dy3 O10 2.352 . S
Dy3 O12 2.398 . S
Dy3 O13 2.491 1_565 S
Dy3 O14 2.403 . S
Dy3 O15 2.664 . S
Dy3 O17 2.326 . S
O4 Dy0 2.398 . S
O4 C2 1.185 . S
O5 Dy0 2.491 1_565 S
O5 C2 1.355 1_565 S
O6 Dy0 2.403 . S
O6 C8 1.254 . S
O7 Dy0 2.664 . S
O7 Dy3 2.310 1_545 S
O7 C8 1.268 . S
C8 O6 1.254 . S
C8 O7 1.268 . S
C9 O14 1.254 . S
C9 O15 1.268 . S
O10 Dy3 2.352 . S
O10 C18 1.248 1_565 S
O11 Dy0 2.326 . S
O11 C18 1.267 . S
O12 C1 1.185 . S
O12 Dy3 2.398 . S
O13 C1 1.355 1_545 S
O13 Dy3 2.491 1_545 S
O14 Dy3 2.403 . S
O14 C9 1.254 . S
O15 Dy0 2.310 1_565 S
O15 Dy3 2.664 . S
O15 C9 1.268 . S
O16 Dy0 2.351 . S
O16 C19 1.249 . S
O17 Dy3 2.326 . S
O17 C19 1.267 1_565 S
C18 O10 1.248 1_545 S
C18 O11 1.267 . S
C19 O16 1.249 . S
C19 O17 1.267 1_545 S
Dy20 O24 2.398 . S
Dy20 O25 2.491 . S
Dy20 O26 2.403 . S
Dy20 O27 2.664 . S
Dy20 O31 2.326 . S
Dy20 O35 2.310 . S
Dy20 O36 2.351 . S
C21 O32 1.185 . S
C21 O33 1.355 . S
C22 O24 1.185 . S
C22 O25 1.355 . S
Dy23 O27 2.310 . S
Dy23 O30 2.351 . S
Dy23 O32 2.398 . S
Dy23 O33 2.491 . S
Dy23 O34 2.403 . S
Dy23 O35 2.664 . S
Dy23 O37 2.326 . S
O24 Dy20 2.398 . S
O24 C22 1.185 . S
O25 Dy20 2.491 . S
O25 C22 1.355 . S
O26 Dy20 2.403 . S
O26 C28 1.254 . S
O27 Dy20 2.664 . S
O27 Dy23 2.310 . S
O27 C28 1.268 . S
C28 O26 1.254 . S
C28 O27 1.268 . S
C29 O34 1.254 . S
C29 O35 1.268 . S
O30 Dy23 2.351 . S
O30 C38 1.249 . S
O31 Dy20 2.326 . S
O31 C38 1.267 . S
O32 C21 1.185 . S
O32 Dy23 2.398 . S
O33 C21 1.355 . S
O33 Dy23 2.491 . S
O34 Dy23 2.403 . S
O34 C29 1.254 . S
O35 Dy20 2.310 . S
O35 Dy23 2.664 . S
O35 C29 1.268 . S
O36 Dy20 2.351 . S
O36 C39 1.249 . S
O37 Dy23 2.326 . S
O37 C39 1.267 . S
C38 O30 1.249 . S
C38 O31 1.267 . S
C39 O36 1.249 . S
C39 O37 1.267 . S
Dy40 O44 2.398 . S
Dy40 O45 2.491 . S
Dy40 O46 2.403 . S
Dy40 O47 2.664 . S
Dy40 O51 2.326 . S
Dy40 O55 2.310 . S
Dy40 O56 2.351 . S
C41 O52 1.185 . S
C41 O53 1.355 . S
C42 O44 1.185 . S
C42 O45 1.355 . S
Dy43 O47 2.310 . S
Dy43 O50 2.351 . S
Dy43 O52 2.398 . S
Dy43 O53 2.491 . S
Dy43 O54 2.403 . S
Dy43 O55 2.664 . S
Dy43 O57 2.326 . S
O44 Dy40 2.398 . S
O44 C42 1.185 . S
O45 Dy40 2.491 . S
O45 C42 1.355 . S
O46 Dy40 2.403 . S
O46 C48 1.254 . S
O47 Dy40 2.664 . S
O47 Dy43 2.310 . S
O47 C48 1.268 . S
C48 O46 1.254 . S
C48 O47 1.268 . S
C49 O54 1.254 . S
C49 O55 1.268 . S
O50 Dy43 2.351 . S
O50 C58 1.249 . S
O51 Dy40 2.326 . S
O51 C58 1.267 . S
O52 C41 1.185 . S
O52 Dy43 2.398 . S
O53 C41 1.355 . S
O53 Dy43 2.491 . S
O54 Dy43 2.403 . S
O54 C49 1.254 . S
O55 Dy40 2.310 . S
O55 Dy43 2.664 . S
O55 C49 1.268 . S
O56 Dy40 2.351 . S
O56 C59 1.249 . S
O57 Dy43 2.326 . S
O57 C59 1.267 . S
C58 O50 1.249 . S
C58 O51 1.267 . S
C59 O56 1.249 . S
C59 O57 1.267 . S
Dy60 O64 2.398 . S
Dy60 O65 2.491 1_545 S
Dy60 O66 2.403 . S
Dy60 O67 2.664 . S
Dy60 O71 2.326 . S
Dy60 O75 2.310 1_545 S
Dy60 O76 2.351 . S
C61 O72 1.185 . S
C61 O73 1.355 1_565 S
C62 O64 1.185 . S
C62 O65 1.355 1_545 S
Dy63 O67 2.310 1_565 S
Dy63 O70 2.352 . S
Dy63 O72 2.398 . S
Dy63 O73 2.491 1_565 S
Dy63 O74 2.403 . S
Dy63 O75 2.664 . S
Dy63 O77 2.326 . S
O64 Dy60 2.398 . S
O64 C62 1.185 . S
O65 Dy60 2.491 1_565 S
O65 C62 1.355 1_565 S
O66 Dy60 2.403 . S
O66 C68 1.254 . S
O67 Dy60 2.664 . S
O67 Dy63 2.310 1_545 S
O67 C68 1.268 . S
C68 O66 1.254 . S
C68 O67 1.268 . S
C69 O74 1.254 . S
C69 O75 1.268 . S
O70 Dy63 2.352 . S
O70 C78 1.248 1_565 S
O71 Dy60 2.326 . S
O71 C78 1.267 . S
O72 C61 1.185 . S
O72 Dy63 2.398 . S
O73 C61 1.355 1_545 S
O73 Dy63 2.491 1_545 S
O74 Dy63 2.403 . S
O74 C69 1.254 . S
O75 Dy60 2.310 1_565 S
O75 Dy63 2.664 . S
O75 C69 1.268 . S
O76 Dy60 2.351 . S
O76 C79 1.249 . S
O77 Dy63 2.326 . S
O77 C79 1.267 1_565 S
C78 O70 1.248 1_545 S
C78 O71 1.267 . S
C79 O76 1.249 . S
C79 O77 1.267 1_545 S
Dy80 O84 2.398 . S
Dy80 O85 2.491 1_545 S
Dy80 O86 2.403 . S
Dy80 O87 2.664 . S
Dy80 O91 2.326 . S
Dy80 O95 2.310 1_545 S
Dy80 O96 2.352 . S
C81 O92 1.185 . S
C81 O93 1.355 1_565 S
C82 O84 1.185 . S
C82 O85 1.355 1_545 S
Dy83 O87 2.310 1_565 S
Dy83 O90 2.351 . S
Dy83 O92 2.398 . S
Dy83 O93 2.491 1_565 S
Dy83 O94 2.403 . S
Dy83 O95 2.664 . S
Dy83 O97 2.326 . S
O84 Dy80 2.398 . S
O84 C82 1.185 . S
O85 Dy80 2.491 1_565 S
O85 C82 1.355 1_565 S
O86 Dy80 2.403 . S
O86 C88 1.254 . S
O87 Dy80 2.664 . S
O87 Dy83 2.310 1_545 S
O87 C88 1.268 . S
C88 O86 1.254 . S
C88 O87 1.268 . S
C89 O94 1.254 . S
C89 O95 1.268 . S
O90 Dy83 2.351 . S
O90 C98 1.249 . S
O91 Dy80 2.326 . S
O91 C98 1.267 1_545 S
O92 C81 1.185 . S
O92 Dy83 2.398 . S
O93 C81 1.355 1_545 S
O93 Dy83 2.491 1_545 S
O94 Dy83 2.403 . S
O94 C89 1.254 . S
O95 Dy80 2.310 1_565 S
O95 Dy83 2.664 . S
O95 C89 1.268 . S
O96 Dy80 2.352 . S
O96 C99 1.248 1_545 S
O97 Dy83 2.326 . S
O97 C99 1.267 . S
C98 O90 1.249 . S
C98 O91 1.267 1_565 S
C99 O96 1.248 1_565 S
C99 O97 1.267 . S
Dy100 O104 2.398 . S
Dy100 O105 2.491 . S
Dy100 O106 2.403 . S
Dy100 O107 2.664 . S
Dy100 O111 2.326 . S
Dy100 O115 2.310 . S
Dy100 O116 2.351 . S
C101 O112 1.185 . S
C101 O113 1.355 . S
C102 O104 1.185 . S
C102 O105 1.355 . S
Dy103 O107 2.310 . S
Dy103 O110 2.351 . S
Dy103 O112 2.398 . S
Dy103 O113 2.491 . S
Dy103 O114 2.403 . S
Dy103 O115 2.664 . S
Dy103 O117 2.326 . S
O104 Dy100 2.398 . S
O104 C102 1.185 . S
O105 Dy100 2.491 . S
O105 C102 1.355 . S
O106 Dy100 2.403 . S
O106 C108 1.254 . S
O107 Dy100 2.664 . S
O107 Dy103 2.310 . S
O107 C108 1.268 . S
C108 O106 1.254 . S
C108 O107 1.268 . S
C109 O114 1.254 . S
C109 O115 1.268 . S
O110 Dy103 2.351 . S
O110 C118 1.249 . S
O111 Dy100 2.326 . S
O111 C118 1.267 . S
O112 C101 1.185 . S
O112 Dy103 2.398 . S
O113 C101 1.355 . S
O113 Dy103 2.491 . S
O114 Dy103 2.403 . S
O114 C109 1.254 . S
O115 Dy100 2.310 . S
O115 Dy103 2.664 . S
O115 C109 1.268 . S
O116 Dy100 2.351 . S
O116 C119 1.249 . S
O117 Dy103 2.326 . S
O117 C119 1.267 . S
C118 O110 1.249 . S
C118 O111 1.267 . S
C119 O116 1.249 . S
C119 O117 1.267 . S
Dy120 O124 2.398 . S
Dy120 O125 2.491 . S
Dy120 O126 2.403 . S
Dy120 O127 2.664 . S
Dy120 O131 2.326 . S
Dy120 O135 2.310 . S
Dy120 O136 2.351 . S
C121 O132 1.185 . S
C121 O133 1.355 . S
C122 O124 1.185 . S
C122 O125 1.355 . S
Dy123 O127 2.310 . S
Dy123 O130 2.351 . S
Dy123 O132 2.398 . S
Dy123 O133 2.491 . S
Dy123 O134 2.403 . S
Dy123 O135 2.664 . S
Dy123 O137 2.326 . S
O124 Dy120 2.398 . S
O124 C122 1.185 . S
O125 Dy120 2.491 . S
O125 C122 1.355 . S
O126 Dy120 2.403 . S
O126 C128 1.254 . S
O127 Dy120 2.664 . S
O127 Dy123 2.310 . S
O127 C128 1.268 . S
C128 O126 1.254 . S
C128 O127 1.268 . S
C129 O134 1.254 . S
C129 O135 1.268 . S
O130 Dy123 2.351 . S
O130 C138 1.249 . S
O131 Dy120 2.326 . S
O131 C138 1.267 . S
O132 C121 1.185 . S
O132 Dy123 2.398 . S
O133 C121 1.355 . S
O133 Dy123 2.491 . S
O134 Dy123 2.403 . S
O134 C129 1.254 . S
O135 Dy120 2.310 . S
O135 Dy123 2.664 . S
O135 C129 1.268 . S
O136 Dy120 2.351 . S
O136 C139 1.249 . S
O137 Dy123 2.326 . S
O137 C139 1.267 . S
C138 O130 1.249 . S
C138 O131 1.267 . S
C139 O136 1.249 . S
C139 O137 1.267 . S
Dy140 O144 2.398 . S
Dy140 O145 2.491 1_545 S
Dy140 O146 2.403 . S
Dy140 O147 2.664 . S
Dy140 O151 2.326 . S
Dy140 O155 2.310 1_545 S
Dy140 O156 2.352 . S
C141 O152 1.185 . S
C141 O153 1.355 1_565 S
C142 O144 1.185 . S
C142 O145 1.355 1_545 S
Dy143 O147 2.310 1_565 S
Dy143 O150 2.351 . S
Dy143 O152 2.398 . S
Dy143 O153 2.491 1_565 S
Dy143 O154 2.403 . S
Dy143 O155 2.664 . S
Dy143 O157 2.326 . S
O144 Dy140 2.398 . S
O144 C142 1.185 . S
O145 Dy140 2.491 1_565 S
O145 C142 1.355 1_565 S
O146 Dy140 2.403 . S
O146 C148 1.254 . S
O147 Dy140 2.664 . S
O147 Dy143 2.310 1_545 S
O147 C148 1.268 . S
C148 O146 1.254 . S
C148 O147 1.268 . S
C149 O154 1.254 . S
C149 O155 1.268 . S
O150 Dy143 2.351 . S
O150 C158 1.249 . S
O151 Dy140 2.326 . S
O151 C158 1.267 1_545 S
O152 C141 1.185 . S
O152 Dy143 2.398 . S
O153 C141 1.355 1_545 S
O153 Dy143 2.491 1_545 S
O154 Dy143 2.403 . S
O154 C149 1.254 . S
O155 Dy140 2.310 1_565 S
O155 Dy143 2.664 . S
O155 C149 1.268 . S
O156 Dy140 2.352 . S
O156 C159 1.248 1_545 S
O157 Dy143 2.326 . S
O157 C159 1.267 . S
C158 O150 1.249 . S
C158 O151 1.267 1_565 S
C159 O156 1.248 1_565 S
C159 O157 1.267 . S
Dy160 O164 2.398 . S
Dy160 O165 2.491 . S
Dy160 O166 2.403 . S
Dy160 O167 2.664 . S
Dy160 O171 2.326 . S
Dy160 O175 2.310 . S
Dy160 O176 2.351 . S
C161 O172 1.185 . S
C161 O173 1.355 . S
C162 O164 1.185 . S
C162 O165 1.355 . S
Dy163 O167 2.310 . S
Dy163 O170 2.351 . S
Dy163 O172 2.398 . S
Dy163 O173 2.491 . S
Dy163 O174 2.403 . S
Dy163 O175 2.664 . S
Dy163 O177 2.326 . S
O164 Dy160 2.398 . S
O164 C162 1.185 . S
O165 Dy160 2.491 . S
O165 C162 1.355 . S
O166 Dy160 2.403 . S
O166 C168 1.254 . S
O167 Dy160 2.664 . S
O167 Dy163 2.310 . S
O167 C168 1.268 . S
C168 O166 1.254 . S
C168 O167 1.268 . S
C169 O174 1.254 . S
C169 O175 1.268 . S
O170 Dy163 2.351 . S
O170 C178 1.249 . S
O171 Dy160 2.326 . S
O171 C178 1.267 . S
O172 C161 1.185 . S
O172 Dy163 2.398 . S
O173 C161 1.355 . S
O173 Dy163 2.491 . S
O174 Dy163 2.403 . S
O174 C169 1.254 . S
O175 Dy160 2.310 . S
O175 Dy163 2.664 . S
O175 C169 1.268 . S
O176 Dy160 2.351 . S
O176 C179 1.249 . S
O177 Dy163 2.326 . S
O177 C179 1.267 . S
C178 O170 1.249 . S
C178 O171 1.267 . S
C179 O176 1.249 . S
C179 O177 1.267 . S
Dy180 O184 2.398 . S
Dy180 O185 2.491 . S
Dy180 O186 2.403 . S
Dy180 O187 2.664 . S
Dy180 O191 2.326 . S
Dy180 O195 2.310 . S
Dy180 O196 2.351 . S
C181 O192 1.185 . S
C181 O193 1.355 . S
C182 O184 1.185 . S
C182 O185 1.355 . S
Dy183 O187 2.310 . S
Dy183 O190 2.351 . S
Dy183 O192 2.398 . S
Dy183 O193 2.491 . S
Dy183 O194 2.403 . S
Dy183 O195 2.664 . S
Dy183 O197 2.326 . S
O184 Dy180 2.398 . S
O184 C182 1.185 . S
O185 Dy180 2.491 . S
O185 C182 1.355 . S
O186 Dy180 2.403 . S
O186 C188 1.254 . S
O187 Dy180 2.664 . S
O187 Dy183 2.310 . S
O187 C188 1.268 . S
C188 O186 1.254 . S
C188 O187 1.268 . S
C189 O194 1.254 . S
C189 O195 1.268 . S
O190 Dy183 2.351 . S
O190 C198 1.249 . S
O191 Dy180 2.326 . S
O191 C198 1.267 . S
O192 C181 1.185 . S
O192 Dy183 2.398 . S
O193 C181 1.355 . S
O193 Dy183 2.491 . S
O194 Dy183 2.403 . S
O194 C189 1.254 . S
O195 Dy180 2.310 . S
O195 Dy183 2.664 . S
O195 C189 1.268 . S
O196 Dy180 2.351 . S
O196 C199 1.249 . S
O197 Dy183 2.326 . S
O197 C199 1.267 . S
C198 O190 1.249 . S
C198 O191 1.267 . S
C199 O196 1.249 . S
C199 O197 1.267 . S
Dy200 O204 2.398 . S
Dy200 O205 2.491 . S
Dy200 O206 2.403 . S
Dy200 O207 2.664 . S
Dy200 O211 2.326 . S
Dy200 O215 2.310 . S
Dy200 O216 2.351 . S
C201 O212 1.185 . S
C201 O213 1.355 . S
C202 O204 1.185 . S
C202 O205 1.355 . S
Dy203 O207 2.310 . S
Dy203 O210 2.351 . S
Dy203 O212 2.398 . S
Dy203 O213 2.491 . S
Dy203 O214 2.403 . S
Dy203 O215 2.664 . S
Dy203 O217 2.326 . S
O204 Dy200 2.398 . S
O204 C202 1.185 . S
O205 Dy200 2.491 . S
O205 C202 1.355 . S
O206 Dy200 2.403 . S
O206 C208 1.254 . S
O207 Dy200 2.664 . S
O207 Dy203 2.310 . S
O207 C208 1.268 . S
C208 O206 1.254 . S
C208 O207 1.268 . S
C209 O214 1.254 . S
C209 O215 1.268 . S
O210 Dy203 2.351 . S
O210 C218 1.249 . S
O211 Dy200 2.326 . S
O211 C218 1.267 . S
O212 C201 1.185 . S
O212 Dy203 2.398 . S
O213 C201 1.355 . S
O213 Dy203 2.491 . S
O214 Dy203 2.403 . S
O214 C209 1.254 . S
O215 Dy200 2.310 . S
O215 Dy203 2.664 . S
O215 C209 1.268 . S
O216 Dy200 2.351 . S
O216 C219 1.249 . S
O217 Dy203 2.326 . S
O217 C219 1.267 . S
C218 O210 1.249 . S
C218 O211 1.267 . S
C219 O216 1.249 . S
C219 O217 1.267 . S
Dy220 O224 2.398 . S
Dy220 O225 2.491 . S
Dy220 O226 2.403 . S
Dy220 O227 2.664 . S
Dy220 O231 2.326 . S
Dy220 O235 2.310 . S
Dy220 O236 2.351 . S
C221 O232 1.185 . S
C221 O233 1.355 . S
C222 O224 1.185 . S
C222 O225 1.355 . S
Dy223 O227 2.310 . S
Dy223 O230 2.351 . S
Dy223 O232 2.398 . S
Dy223 O233 2.491 . S
Dy223 O234 2.403 . S
Dy223 O235 2.664 . S
Dy223 O237 2.326 . S
O224 Dy220 2.398 . S
O224 C222 1.185 . S
O225 Dy220 2.491 . S
O225 C222 1.355 . S
O226 Dy220 2.403 . S
O226 C228 1.254 . S
O227 Dy220 2.664 . S
O227 Dy223 2.310 . S
O227 C228 1.268 . S
C228 O226 1.254 . S
C228 O227 1.268 . S
C229 O234 1.254 . S
C229 O235 1.268 . S
O230 Dy223 2.351 . S
O230 C238 1.249 . S
O231 Dy220 2.326 . S
O231 C238 1.267 . S
O232 C221 1.185 . S
O232 Dy223 2.398 . S
O233 C221 1.355 . S
O233 Dy223 2.491 . S
O234 Dy223 2.403 . S
O234 C229 1.254 . S
O235 Dy220 2.310 . S
O235 Dy223 2.664 . S
O235 C229 1.268 . S
O236 Dy220 2.351 . S
O236 C239 1.249 . S
O237 Dy223 2.326 . S
O237 C239 1.267 . S
C238 O230 1.249 . S
C238 O231 1.267 . S
C239 O236 1.249 . S
C239 O237 1.267 . S
Dy240 O244 2.398 . S
Dy240 O245 2.491 . S
Dy240 O246 2.403 . S
Dy240 O247 2.664 . S
Dy240 O251 2.326 . S
Dy240 O255 2.310 . S
Dy240 O256 2.351 . S
C241 O252 1.185 . S
C241 O253 1.355 . S
C242 O244 1.185 . S
C242 O245 1.355 . S
Dy243 O247 2.310 . S
Dy243 O250 2.351 . S
Dy243 O252 2.398 . S
Dy243 O253 2.491 . S
Dy243 O254 2.403 . S
Dy243 O255 2.664 . S
Dy243 O257 2.326 . S
O244 Dy240 2.398 . S
O244 C242 1.185 . S
O245 Dy240 2.491 . S
O245 C242 1.355 . S
O246 Dy240 2.403 . S
O246 C248 1.254 . S
O247 Dy240 2.664 . S
O247 Dy243 2.310 . S
O247 C248 1.268 . S
C248 O246 1.254 . S
C248 O247 1.268 . S
C249 O254 1.254 . S
C249 O255 1.268 . S
O250 Dy243 2.351 . S
O250 C258 1.249 . S
O251 Dy240 2.326 . S
O251 C258 1.267 . S
O252 C241 1.185 . S
O252 Dy243 2.398 . S
O253 C241 1.355 . S
O253 Dy243 2.491 . S
O254 Dy243 2.403 . S
O254 C249 1.254 . S
O255 Dy240 2.310 . S
O255 Dy243 2.664 . S
O255 C249 1.268 . S
O256 Dy240 2.351 . S
O256 C259 1.249 . S
O257 Dy243 2.326 . S
O257 C259 1.267 . S
C258 O250 1.249 . S
C258 O251 1.267 . S
C259 O256 1.249 . S
C259 O257 1.267 . S
Dy260 O264 2.398 . S
Dy260 O265 2.491 . S
Dy260 O266 2.403 . S
Dy260 O267 2.664 . S
Dy260 O271 2.326 . S
Dy260 O275 2.310 . S
Dy260 O276 2.351 . S
C261 O272 1.185 . S
C261 O273 1.355 . S
C262 O264 1.185 . S
C262 O265 1.355 . S
Dy263 O267 2.310 . S
Dy263 O270 2.351 . S
Dy263 O272 2.398 . S
Dy263 O273 2.491 . S
Dy263 O274 2.403 . S
Dy263 O275 2.664 . S
Dy263 O277 2.326 . S
O264 Dy260 2.398 . S
O264 C262 1.185 . S
O265 Dy260 2.491 . S
O265 C262 1.355 . S
O266 Dy260 2.403 . S
O266 C268 1.254 . S
O267 Dy260 2.664 . S
O267 Dy263 2.310 . S
O267 C268 1.268 . S
C268 O266 1.254 . S
C268 O267 1.268 . S
C269 O274 1.254 . S
C269 O275 1.268 . S
O270 Dy263 2.351 . S
O270 C278 1.249 . S
O271 Dy260 2.326 . S
O271 C278 1.267 . S
O272 C261 1.185 . S
O272 Dy263 2.398 . S
O273 C261 1.355 . S
O273 Dy263 2.491 . S
O274 Dy263 2.403 . S
O274 C269 1.254 . S
O275 Dy260 2.310 . S
O275 Dy263 2.664 . S
O275 C269 1.268 . S
O276 Dy260 2.351 . S
O276 C279 1.249 . S
O277 Dy263 2.326 . S
O277 C279 1.267 . S
C278 O270 1.249 . S
C278 O271 1.267 . S
C279 O276 1.249 . S
C279 O277 1.267 . S
Dy280 O284 2.398 . S
Dy280 O285 2.491 . S
Dy280 O286 2.403 . S
Dy280 O287 2.664 . S
Dy280 O291 2.326 . S
Dy280 O295 2.310 . S
Dy280 O296 2.351 . S
C281 O292 1.185 . S
C281 O293 1.355 . S
C282 O284 1.185 . S
C282 O285 1.355 . S
Dy283 O287 2.310 . S
Dy283 O290 2.351 . S
Dy283 O292 2.398 . S
Dy283 O293 2.491 . S
Dy283 O294 2.403 . S
Dy283 O295 2.664 . S
Dy283 O297 2.326 . S
O284 Dy280 2.398 . S
O284 C282 1.185 . S
O285 Dy280 2.491 . S
O285 C282 1.355 . S
O286 Dy280 2.403 . S
O286 C288 1.254 . S
O287 Dy280 2.664 . S
O287 Dy283 2.310 . S
O287 C288 1.268 . S
C288 O286 1.254 . S
C288 O287 1.268 . S
C289 O294 1.254 . S
C289 O295 1.268 . S
O290 Dy283 2.351 . S
O290 C298 1.249 . S
O291 Dy280 2.326 . S
O291 C298 1.267 . S
O292 C281 1.185 . S
O292 Dy283 2.398 . S
O293 C281 1.355 . S
O293 Dy283 2.491 . S
O294 Dy283 2.403 . S
O294 C289 1.254 . S
O295 Dy280 2.310 . S
O295 Dy283 2.664 . S
O295 C289 1.268 . S
O296 Dy280 2.351 . S
O296 C299 1.249 . S
O297 Dy283 2.326 . S
O297 C299 1.267 . S
C298 O290 1.249 . S
C298 O291 1.267 . S
C299 O296 1.249 . S
C299 O297 1.267 . S
Dy300 O304 2.398 . S
Dy300 O305 2.491 . S
Dy300 O306 2.403 . S
Dy300 O307 2.664 . S
Dy300 O311 2.326 . S
Dy300 O315 2.310 . S
Dy300 O316 2.351 . S
C301 O312 1.185 . S
C301 O313 1.355 . S
C302 O304 1.185 . S
C302 O305 1.355 . S
Dy303 O307 2.310 . S
Dy303 O310 2.351 . S
Dy303 O312 2.398 . S
Dy303 O313 2.491 . S
Dy303 O314 2.403 . S
Dy303 O315 2.664 . S
Dy303 O317 2.326 . S
O304 Dy300 2.398 . S
O304 C302 1.185 . S
O305 Dy300 2.491 . S
O305 C302 1.355 . S
O306 Dy300 2.403 . S
O306 C308 1.254 . S
O307 Dy300 2.664 . S
O307 Dy303 2.310 . S
O307 C308 1.268 . S
C308 O306 1.254 . S
C308 O307 1.268 . S
C309 O314 1.254 . S
C309 O315 1.268 . S
O310 Dy303 2.351 . S
O310 C318 1.249 . S
O311 Dy300 2.326 . S
O311 C318 1.267 . S
O312 C301 1.185 . S
O312 Dy303 2.398 . S
O313 C301 1.355 . S
O313 Dy303 2.491 . S
O314 Dy303 2.403 . S
O314 C309 1.254 . S
O315 Dy300 2.310 . S
O315 Dy303 2.664 . S
O315 C309 1.268 . S
O316 Dy300 2.351 . S
O316 C319 1.249 . S
O317 Dy303 2.326 . S
O317 C319 1.267 . S
C318 O310 1.249 . S
C318 O311 1.267 . S
C319 O316 1.249 . S
C319 O317 1.267 . S
Dy320 O324 2.398 . S
Dy320 O325 2.491 1_545 S
Dy320 O326 2.403 . S
Dy320 O327 2.664 . S
Dy320 O331 2.326 . S
Dy320 O335 2.310 1_545 S
Dy320 O336 2.351 . S
C321 O332 1.185 . S
C321 O333 1.355 1_565 S
C322 O324 1.185 . S
C322 O325 1.355 1_545 S
Dy323 O327 2.310 1_565 S
Dy323 O330 2.352 . S
Dy323 O332 2.398 . S
Dy323 O333 2.491 1_565 S
Dy323 O334 2.403 . S
Dy323 O335 2.664 . S
Dy323 O337 2.326 . S
O324 Dy320 2.398 . S
O324 C322 1.185 . S
O325 Dy320 2.491 1_565 S
O325 C322 1.355 1_565 S
O326 Dy320 2.403 . S
O326 C328 1.254 . S
O327 Dy320 2.664 . S
O327 Dy323 2.310 1_545 S
O327 C328 1.268 . S
C328 O326 1.254 . S
C328 O327 1.268 . S
C329 O334 1.254 . S
C329 O335 1.268 . S
O330 Dy323 2.352 . S
O330 C338 1.248 1_565 S
O331 Dy320 2.326 . S
O331 C338 1.267 . S
O332 C321 1.185 . S
O332 Dy323 2.398 . S
O333 C321 1.355 1_545 S
O333 Dy323 2.491 1_545 S
O334 Dy323 2.403 . S
O334 C329 1.254 . S
O335 Dy320 2.310 1_565 S
O335 Dy323 2.664 . S
O335 C329 1.268 . S
O336 Dy320 2.351 . S
O336 C339 1.249 . S
O337 Dy323 2.326 . S
O337 C339 1.267 1_565 S
C338 O330 1.248 1_545 S
C338 O331 1.267 . S
C339 O336 1.249 . S
C339 O337 1.267 1_545 S
Dy340 O344 2.398 . S
Dy340 O345 2.491 . S
Dy340 O346 2.403 . S
Dy340 O347 2.664 . S
Dy340 O351 2.326 . S
Dy340 O355 2.310 . S
Dy340 O356 2.351 . S
C341 O352 1.185 . S
C341 O353 1.355 . S
C342 O344 1.185 . S
C342 O345 1.355 . S
Dy343 O347 2.310 . S
Dy343 O350 2.351 . S
Dy343 O352 2.398 . S
Dy343 O353 2.491 . S
Dy343 O354 2.403 . S
Dy343 O355 2.664 . S
Dy343 O357 2.326 . S
O344 Dy340 2.398 . S
O344 C342 1.185 . S
O345 Dy340 2.491 . S
O345 C342 1.355 . S
O346 Dy340 2.403 . S
O346 C348 1.254 . S
O347 Dy340 2.664 . S
O347 Dy343 2.310 . S
O347 C348 1.268 . S
C348 O346 1.254 . S
C348 O347 1.268 . S
C349 O354 1.254 . S
C349 O355 1.268 . S
O350 Dy343 2.351 . S
O350 C358 1.249 . S
O351 Dy340 2.326 . S
O351 C358 1.267 . S
O352 C341 1.185 . S
O352 Dy343 2.398 . S
O353 C341 1.355 . S
O353 Dy343 2.491 . S
O354 Dy343 2.403 . S
O354 C349 1.254 . S
O355 Dy340 2.310 . S
O355 Dy343 2.664 . S
O355 C349 1.268 . S
O356 Dy340 2.351 . S
O356 C359 1.249 . S
O357 Dy343 2.326 . S
O357 C359 1.267 . S
C358 O350 1.249 . S
C358 O351 1.267 . S
C359 O356 1.249 . S
C359 O357 1.267 . S
Dy360 O364 2.398 . S
Dy360 O365 2.491 . S
Dy360 O366 2.403 . S
Dy360 O367 2.664 . S
Dy360 O371 2.326 . S
Dy360 O375 2.310 . S
Dy360 O376 2.351 . S
C361 O372 1.185 . S
C361 O373 1.355 . S
C362 O364 1.185 . S
C362 O365 1.355 . S
Dy363 O367 2.310 . S
Dy363 O370 2.351 . S
Dy363 O372 2.398 . S
Dy363 O373 2.491 . S
Dy363 O374 2.403 . S
Dy363 O375 2.664 . S
Dy363 O377 2.326 . S
O364 Dy360 2.398 . S
O364 C362 1.185 . S
O365 Dy360 2.491 . S
O365 C362 1.355 . S
O366 Dy360 2.403 . S
O366 C368 1.254 . S
O367 Dy360 2.664 . S
O367 Dy363 2.310 . S
O367 C368 1.268 . S
C368 O366 1.254 . S
C368 O367 1.268 . S
C369 O374 1.254 . S
C369 O375 1.268 . S
O370 Dy363 2.351 . S
O370 C378 1.249 . S
O371 Dy360 2.326 . S
O371 C378 1.267 . S
O372 C361 1.185 . S
O372 Dy363 2.398 . S
O373 C361 1.355 . S
O373 Dy363 2.491 . S
O374 Dy363 2.403 . S
O374 C369 1.254 . S
O375 Dy360 2.310 . S
O375 Dy363 2.664 . S
O375 C369 1.268 . S
O376 Dy360 2.351 . S
O376 C379 1.249 . S
O377 Dy363 2.326 . S
O377 C379 1.267 . S
C378 O370 1.249 . S
C378 O371 1.267 . S
C379 O376 1.249 . S
C379 O377 1.267 . S
Dy380 O384 2.398 . S
Dy380 O385 2.491 1_545 S
Dy380 O386 2.403 . S
Dy380 O387 2.664 . S
Dy380 O391 2.326 . S
Dy380 O395 2.310 1_545 S
Dy380 O396 2.351 . S
C381 O392 1.185 . S
C381 O393 1.355 1_565 S
C382 O384 1.185 . S
C382 O385 1.355 1_545 S
Dy383 O387 2.310 1_565 S
Dy383 O390 2.352 . S
Dy383 O392 2.398 . S
Dy383 O393 2.491 1_565 S
Dy383 O394 2.403 . S
Dy383 O395 2.664 . S
Dy383 O397 2.326 . S
O384 Dy380 2.398 . S
O384 C382 1.185 . S
O385 Dy380 2.491 1_565 S
O385 C382 1.355 1_565 S
O386 Dy380 2.403 . S
O386 C388 1.254 . S
O387 Dy380 2.664 . S
O387 Dy383 2.310 1_545 S
O387 C388 1.268 . S
C388 O386 1.254 . S
C388 O387 1.268 . S
C389 O394 1.254 . S
C389 O395 1.268 . S
O390 Dy383 2.352 . S
O390 C398 1.248 1_565 S
O391 Dy380 2.326 . S
O391 C398 1.267 . S
O392 C381 1.185 . S
O392 Dy383 2.398 . S
O393 C381 1.355 1_545 S
O393 Dy383 2.491 1_545 S
O394 Dy383 2.403 . S
O394 C389 1.254 . S
O395 Dy380 2.310 1_565 S
O395 Dy383 2.664 . S
O395 C389 1.268 . S
O396 Dy380 2.351 . S
O396 C399 1.249 . S
O397 Dy383 2.326 . S
O397 C399 1.267 1_565 S
C398 O390 1.248 1_545 S
C398 O391 1.267 . S
C399 O396 1.249 . S
C399 O397 1.267 1_545 S
Dy400 O404 2.398 . S
Dy400 O405 2.491 1_545 S
Dy400 O406 2.403 . S
Dy400 O407 2.664 . S
Dy400 O411 2.326 . S
Dy400 O415 2.310 1_545 S
Dy400 O416 2.352 . S
C401 O412 1.185 . S
C401 O413 1.355 1_565 S
C402 O404 1.185 . S
C402 O405 1.355 1_545 S
Dy403 O407 2.310 1_565 S
Dy403 O410 2.351 . S
Dy403 O412 2.398 . S
Dy403 O413 2.491 1_565 S
Dy403 O414 2.403 . S
Dy403 O415 2.664 . S
Dy403 O417 2.326 . S
O404 Dy400 2.398 . S
O404 C402 1.185 . S
O405 Dy400 2.491 1_565 S
O405 C402 1.355 1_565 S
O406 Dy400 2.403 . S
O406 C408 1.254 . S
O407 Dy400 2.664 . S
O407 Dy403 2.310 1_545 S
O407 C408 1.268 . S
C408 O406 1.254 . S
C408 O407 1.268 . S
C409 O414 1.254 . S
C409 O415 1.268 . S
O410 Dy403 2.351 . S
O410 C418 1.249 . S
O411 Dy400 2.326 . S
O411 C418 1.267 1_545 S
O412 C401 1.185 . S
O412 Dy403 2.398 . S
O413 C401 1.355 1_545 S
O413 Dy403 2.491 1_545 S
O414 Dy403 2.403 . S
O414 C409 1.254 . S
O415 Dy400 2.310 1_565 S
O415 Dy403 2.664 . S
O415 C409 1.268 . S
O416 Dy400 2.352 . S
O416 C419 1.248 1_545 S
O417 Dy403 2.326 . S
O417 C419 1.267 . S
C418 O410 1.249 . S
C418 O411 1.267 1_565 S
C419 O416 1.248 1_565 S
C419 O417 1.267 . S
Dy420 O424 2.398 . S
Dy420 O425 2.491 . S
Dy420 O426 2.403 . S
Dy420 O427 2.664 . S
Dy420 O431 2.326 . S
Dy420 O435 2.310 . S
Dy420 O436 2.351 . S
C421 O432 1.185 . S
C421 O433 1.355 . S
C422 O424 1.185 . S
C422 O425 1.355 . S
Dy423 O427 2.310 . S
Dy423 O430 2.351 . S
Dy423 O432 2.398 . S
Dy423 O433 2.491 . S
Dy423 O434 2.403 . S
Dy423 O435 2.664 . S
Dy423 O437 2.326 . S
O424 Dy420 2.398 . S
O424 C422 1.185 . S
O425 Dy420 2.491 . S
O425 C422 1.355 . S
O426 Dy420 2.403 . S
O426 C428 1.254 . S
O427 Dy420 2.664 . S
O427 Dy423 2.310 . S
O427 C428 1.268 . S
C428 O426 1.254 . S
C428 O427 1.268 . S
C429 O434 1.254 . S
C429 O435 1.268 . S
O430 Dy423 2.351 . S
O430 C438 1.249 . S
O431 Dy420 2.326 . S
O431 C438 1.267 . S
O432 C421 1.185 . S
O432 Dy423 2.398 . S
O433 C421 1.355 . S
O433 Dy423 2.491 . S
O434 Dy423 2.403 . S
O434 C429 1.254 . S
O435 Dy420 2.310 . S
O435 Dy423 2.664 . S
O435 C429 1.268 . S
O436 Dy420 2.351 . S
O436 C439 1.249 . S
O437 Dy423 2.326 . S
O437 C439 1.267 . S
C438 O430 1.249 . S
C438 O431 1.267 . S
C439 O436 1.249 . S
C439 O437 1.267 . S
Dy440 O444 2.398 . S
Dy440 O445 2.491 . S
Dy440 O446 2.403 . S
Dy440 O447 2.664 . S
Dy440 O451 2.326 . S
Dy440 O455 2.310 . S
Dy440 O456 2.351 . S
C441 O452 1.185 . S
C441 O453 1.355 . S
C442 O444 1.185 . S
C442 O445 1.355 . S
Dy443 O447 2.310 . S
Dy443 O450 2.351 . S
Dy443 O452 2.398 . S
Dy443 O453 2.491 . S
Dy443 O454 2.403 . S
Dy443 O455 2.664 . S
Dy443 O457 2.326 . S
O444 Dy440 2.398 . S
O444 C442 1.185 . S
O445 Dy440 2.491 . S
O445 C442 1.355 . S
O446 Dy440 2.403 . S
O446 C448 1.254 . S
O447 Dy440 2.664 . S
O447 Dy443 2.310 . S
O447 C448 1.268 . S
C448 O446 1.254 . S
C448 O447 1.268 . S
C449 O454 1.254 . S
C449 O455 1.268 . S
O450 Dy443 2.351 . S
O450 C458 1.249 . S
O451 Dy440 2.326 . S
O451 C458 1.267 . S
O452 C441 1.185 . S
O452 Dy443 2.398 . S
O453 C441 1.355 . S
O453 Dy443 2.491 . S
O454 Dy443 2.403 . S
O454 C449 1.254 . S
O455 Dy440 2.310 . S
O455 Dy443 2.664 . S
O455 C449 1.268 . S
O456 Dy440 2.351 . S
O456 C459 1.249 . S
O457 Dy443 2.326 . S
O457 C459 1.267 . S
C458 O450 1.249 . S
C458 O451 1.267 . S
C459 O456 1.249 . S
C459 O457 1.267 . S
Dy460 O464 2.398 . S
Dy460 O465 2.491 1_545 S
Dy460 O466 2.403 . S
Dy460 O467 2.664 . S
Dy460 O471 2.326 . S
Dy460 O475 2.310 1_545 S
Dy460 O476 2.352 . S
C461 O472 1.185 . S
C461 O473 1.355 1_565 S
C462 O464 1.185 . S
C462 O465 1.355 1_545 S
Dy463 O467 2.310 1_565 S
Dy463 O470 2.351 . S
Dy463 O472 2.398 . S
Dy463 O473 2.491 1_565 S
Dy463 O474 2.403 . S
Dy463 O475 2.664 . S
Dy463 O477 2.326 . S
O464 Dy460 2.398 . S
O464 C462 1.185 . S
O465 Dy460 2.491 1_565 S
O465 C462 1.355 1_565 S
O466 Dy460 2.403 . S
O466 C468 1.254 . S
O467 Dy460 2.664 . S
O467 Dy463 2.310 1_545 S
O467 C468 1.268 . S
C468 O466 1.254 . S
C468 O467 1.268 . S
C469 O474 1.254 . S
C469 O475 1.268 . S
O470 Dy463 2.351 . S
O470 C478 1.249 . S
O471 Dy460 2.326 . S
O471 C478 1.267 1_545 S
O472 C461 1.185 . S
O472 Dy463 2.398 . S
O473 C461 1.355 1_545 S
O473 Dy463 2.491 1_545 S
O474 Dy463 2.403 . S
O474 C469 1.254 . S
O475 Dy460 2.310 1_565 S
O475 Dy463 2.664 . S
O475 C469 1.268 . S
O476 Dy460 2.352 . S
O476 C479 1.248 1_545 S
O477 Dy463 2.326 . S
O477 C479 1.267 . S
C478 O470 1.249 . S
C478 O471 1.267 1_565 S
C479 O476 1.248 1_565 S
C479 O477 1.267 . S
Dy480 O484 2.398 . S
Dy480 O485 2.491 . S
Dy480 O486 2.403 . S
Dy480 O487 2.664 . S
Dy480 O491 2.326 . S
Dy480 O495 2.310 . S
Dy480 O496 2.351 . S
C481 O492 1.185 . S
C481 O493 1.355 . S
C482 O484 1.185 . S
C482 O485 1.355 . S
Dy483 O487 2.310 . S
Dy483 O490 2.351 . S
Dy483 O492 2.398 . S
Dy483 O493 2.491 . S
Dy483 O494 2.403 . S
Dy483 O495 2.664 . S
Dy483 O497 2.326 . S
O484 Dy480 2.398 . S
O484 C482 1.185 . S
O485 Dy480 2.491 . S
O485 C482 1.355 . S
O486 Dy480 2.403 . S
O486 C488 1.254 . S
O487 Dy480 2.664 . S
O487 Dy483 2.310 . S
O487 C488 1.268 . S
C488 O486 1.254 . S
C488 O487 1.268 . S
C489 O494 1.254 . S
C489 O495 1.268 . S
O490 Dy483 2.351 . S
O490 C498 1.249 . S
O491 Dy480 2.326 . S
O491 C498 1.267 . S
O492 C481 1.185 . S
O492 Dy483 2.398 . S
O493 C481 1.355 . S
O493 Dy483 2.491 . S
O494 Dy483 2.403 . S
O494 C489 1.254 . S
O495 Dy480 2.310 . S
O495 Dy483 2.664 . S
O495 C489 1.268 . S
O496 Dy480 2.351 . S
O496 C499 1.249 . S
O497 Dy483 2.326 . S
O497 C499 1.267 . S
C498 O490 1.249 . S
C498 O491 1.267 . S
C499 O496 1.249 . S
C499 O497 1.267 . S
Dy500 O504 2.398 . S
Dy500 O505 2.491 . S
Dy500 O506 2.403 . S
Dy500 O507 2.664 . S
Dy500 O511 2.326 . S
Dy500 O515 2.310 . S
Dy500 O516 2.351 . S
C501 O512 1.185 . S
C501 O513 1.355 . S
C502 O504 1.185 . S
C502 O505 1.355 . S
Dy503 O507 2.310 . S
Dy503 O510 2.351 . S
Dy503 O512 2.398 . S
Dy503 O513 2.491 . S
Dy503 O514 2.403 . S
Dy503 O515 2.664 . S
Dy503 O517 2.326 . S
O504 Dy500 2.398 . S
O504 C502 1.185 . S
O505 Dy500 2.491 . S
O505 C502 1.355 . S
O506 Dy500 2.403 . S
O506 C508 1.254 . S
O507 Dy500 2.664 . S
O507 Dy503 2.310 . S
O507 C508 1.268 . S
C508 O506 1.254 . S
C508 O507 1.268 . S
C509 O514 1.254 . S
C509 O515 1.268 . S
O510 Dy503 2.351 . S
O510 C518 1.249 . S
O511 Dy500 2.326 . S
O511 C518 1.267 . S
O512 C501 1.185 . S
O512 Dy503 2.398 . S
O513 C501 1.355 . S
O513 Dy503 2.491 . S
O514 Dy503 2.403 . S
O514 C509 1.254 . S
O515 Dy500 2.310 . S
O515 Dy503 2.664 . S
O515 C509 1.268 . S
O516 Dy500 2.351 . S
O516 C519 1.249 . S
O517 Dy503 2.326 . S
O517 C519 1.267 . S
C518 O510 1.249 . S
C518 O511 1.267 . S
C519 O516 1.249 . S
C519 O517 1.267 . S
Dy520 O524 2.398 . S
Dy520 O525 2.491 . S
Dy520 O526 2.403 . S
Dy520 O527 2.664 . S
Dy520 O531 2.326 . S
Dy520 O535 2.310 . S
Dy520 O536 2.351 . S
C521 O532 1.185 . S
C521 O533 1.355 . S
C522 O524 1.185 . S
C522 O525 1.355 . S
Dy523 O527 2.310 . S
Dy523 O530 2.351 . S
Dy523 O532 2.398 . S
Dy523 O533 2.491 . S
Dy523 O534 2.403 . S
Dy523 O535 2.664 . S
Dy523 O537 2.326 . S
O524 Dy520 2.398 . S
O524 C522 1.185 . S
O525 Dy520 2.491 . S
O525 C522 1.355 . S
O526 Dy520 2.403 . S
O526 C528 1.254 . S
O527 Dy520 2.664 . S
O527 Dy523 2.310 . S
O527 C528 1.268 . S
C528 O526 1.254 . S
C528 O527 1.268 . S
C529 O534 1.254 . S
C529 O535 1.268 . S
O530 Dy523 2.351 . S
O530 C538 1.249 . S
O531 Dy520 2.326 . S
O531 C538 1.267 . S
O532 C521 1.185 . S
O532 Dy523 2.398 . S
O533 C521 1.355 . S
O533 Dy523 2.491 . S
O534 Dy523 2.403 . S
O534 C529 1.254 . S
O535 Dy520 2.310 . S
O535 Dy523 2.664 . S
O535 C529 1.268 . S
O536 Dy520 2.351 . S
O536 C539 1.249 . S
O537 Dy523 2.326 . S
O537 C539 1.267 . S
C538 O530 1.249 . S
C538 O531 1.267 . S
C539 O536 1.249 . S
C539 O537 1.267 . S
Dy540 O544 2.398 . S
Dy540 O545 2.491 . S
Dy540 O546 2.403 . S
Dy540 O547 2.664 . S
Dy540 O551 2.326 . S
Dy540 O555 2.310 . S
Dy540 O556 2.351 . S
C541 O552 1.185 . S
C541 O553 1.355 . S
C542 O544 1.185 . S
C542 O545 1.355 . S
Dy543 O547 2.310 . S
Dy543 O550 2.351 . S
Dy543 O552 2.398 . S
Dy543 O553 2.491 . S
Dy543 O554 2.403 . S
Dy543 O555 2.664 . S
Dy543 O557 2.326 . S
O544 Dy540 2.398 . S
O544 C542 1.185 . S
O545 Dy540 2.491 . S
O545 C542 1.355 . S
O546 Dy540 2.403 . S
O546 C548 1.254 . S
O547 Dy540 2.664 . S
O547 Dy543 2.310 . S
O547 C548 1.268 . S
C548 O546 1.254 . S
C548 O547 1.268 . S
C549 O554 1.254 . S
C549 O555 1.268 . S
O550 Dy543 2.351 . S
O550 C558 1.249 . S
O551 Dy540 2.326 . S
O551 C558 1.267 . S
O552 C541 1.185 . S
O552 Dy543 2.398 . S
O553 C541 1.355 . S
O553 Dy543 2.491 . S
O554 Dy543 2.403 . S
O554 C549 1.254 . S
O555 Dy540 2.310 . S
O555 Dy543 2.664 . S
O555 C549 1.268 . S
O556 Dy540 2.351 . S
O556 C559 1.249 . S
O557 Dy543 2.326 . S
O557 C559 1.267 . S
C558 O550 1.249 . S
C558 O551 1.267 . S
C559 O556 1.249 . S
C559 O557 1.267 . S
Dy560 O564 2.398 . S
Dy560 O565 2.491 . S
Dy560 O566 2.403 . S
Dy560 O567 2.664 . S
Dy560 O571 2.326 . S
Dy560 O575 2.310 . S
Dy560 O576 2.351 . S
C561 O572 1.185 . S
C561 O573 1.355 . S
C562 O564 1.185 . S
C562 O565 1.355 . S
Dy563 O567 2.310 . S
Dy563 O570 2.351 . S
Dy563 O572 2.398 . S
Dy563 O573 2.491 . S
Dy563 O574 2.403 . S
Dy563 O575 2.664 . S
Dy563 O577 2.326 . S
O564 Dy560 2.398 . S
O564 C562 1.185 . S
O565 Dy560 2.491 . S
O565 C562 1.355 . S
O566 Dy560 2.403 . S
O566 C568 1.254 . S
O567 Dy560 2.664 . S
O567 Dy563 2.310 . S
O567 C568 1.268 . S
C568 O566 1.254 . S
C568 O567 1.268 . S
C569 O574 1.254 . S
C569 O575 1.268 . S
O570 Dy563 2.351 . S
O570 C578 1.249 . S
O571 Dy560 2.326 . S
O571 C578 1.267 . S
O572 C561 1.185 . S
O572 Dy563 2.398 . S
O573 C561 1.355 . S
O573 Dy563 2.491 . S
O574 Dy563 2.403 . S
O574 C569 1.254 . S
O575 Dy560 2.310 . S
O575 Dy563 2.664 . S
O575 C569 1.268 . S
O576 Dy560 2.351 . S
O576 C579 1.249 . S
O577 Dy563 2.326 . S
O577 C579 1.267 . S
C578 O570 1.249 . S
C578 O571 1.267 . S
C579 O576 1.249 . S
C579 O577 1.267 . S
Dy580 O584 2.398 . S
Dy580 O585 2.491 . S
Dy580 O586 2.403 . S
Dy580 O587 2.664 . S
Dy580 O591 2.326 . S
Dy580 O595 2.310 . S
Dy580 O596 2.351 . S
C581 O592 1.185 . S
C581 O593 1.355 . S
C582 O584 1.185 . S
C582 O585 1.355 . S
Dy583 O587 2.310 . S
Dy583 O590 2.351 . S
Dy583 O592 2.398 . S
Dy583 O593 2.491 . S
Dy583 O594 2.403 . S
Dy583 O595 2.664 . S
Dy583 O597 2.326 . S
O584 Dy580 2.398 . S
O584 C582 1.185 . S
O585 Dy580 2.491 . S
O585 C582 1.355 . S
O586 Dy580 2.403 . S
O586 C588 1.254 . S
O587 Dy580 2.664 . S
O587 Dy583 2.310 . S
O587 C588 1.268 . S
C588 O586 1.254 . S
C588 O587 1.268 . S
C589 O594 1.254 . S
C589 O595 1.268 . S
O590 Dy583 2.351 . S
O590 C598 1.249 . S
O591 Dy580 2.326 . S
O591 C598 1.267 . S
O592 C581 1.185 . S
O592 Dy583 2.398 . S
O593 C581 1.355 . S
O593 Dy583 2.491 . S
O594 Dy583 2.403 . S
O594 C589 1.254 . S
O595 Dy580 2.310 . S
O595 Dy583 2.664 . S
O595 C589 1.268 . S
O596 Dy580 2.351 . S
O596 C599 1.249 . S
O597 Dy583 2.326 . S
O597 C599 1.267 . S
C598 O590 1.249 . S
C598 O591 1.267 . S
C599 O596 1.249 . S
C599 O597 1.267 . S
Dy600 O604 2.398 . S
Dy600 O605 2.491 . S
Dy600 O606 2.403 . S
Dy600 O607 2.664 . S
Dy600 O611 2.326 . S
Dy600 O615 2.310 . S
Dy600 O616 2.351 . S
C601 O612 1.185 . S
C601 O613 1.355 . S
C602 O604 1.185 . S
C602 O605 1.355 . S
Dy603 O607 2.310 . S
Dy603 O610 2.351 . S
Dy603 O612 2.398 . S
Dy603 O613 2.491 . S
Dy603 O614 2.403 . S
Dy603 O615 2.664 . S
Dy603 O617 2.326 . S
O604 Dy600 2.398 . S
O604 C602 1.185 . S
O605 Dy600 2.491 . S
O605 C602 1.355 . S
O606 Dy600 2.403 . S
O606 C608 1.254 . S
O607 Dy600 2.664 . S
O607 Dy603 2.310 . S
O607 C608 1.268 . S
C608 O606 1.254 . S
C608 O607 1.268 . S
C609 O614 1.254 . S
C609 O615 1.268 . S
O610 Dy603 2.351 . S
O610 C618 1.249 . S
O611 Dy600 2.326 . S
O611 C618 1.267 . S
O612 C601 1.185 . S
O612 Dy603 2.398 . S
O613 C601 1.355 . S
O613 Dy603 2.491 . S
O614 Dy603 2.403 . S
O614 C609 1.254 . S
O615 Dy600 2.310 . S
O615 Dy603 2.664 . S
O615 C609 1.268 . S
O616 Dy600 2.351 . S
O616 C619 1.249 . S
O617 Dy603 2.326 . S
O617 C619 1.267 . S
C618 O610 1.249 . S
C618 O611 1.267 . S
C619 O616 1.249 . S
C619 O617 1.267 . S
Dy620 O624 2.398 . S
Dy620 O625 2.491 . S
Dy620 O626 2.403 . S
Dy620 O627 2.664 . S
Dy620 O631 2.326 . S
Dy620 O635 2.310 . S
Dy620 O636 2.351 . S
C621 O632 1.185 . S
C621 O633 1.355 . S
C622 O624 1.185 . S
C622 O625 1.355 . S
Dy623 O627 2.310 . S
Dy623 O630 2.351 . S
Dy623 O632 2.398 . S
Dy623 O633 2.491 . S
Dy623 O634 2.403 . S
Dy623 O635 2.664 . S
Dy623 O637 2.326 . S
O624 Dy620 2.398 . S
O624 C622 1.185 . S
O625 Dy620 2.491 . S
O625 C622 1.355 . S
O626 Dy620 2.403 . S
O626 C628 1.254 . S
O627 Dy620 2.664 . S
O627 Dy623 2.310 . S
O627 C628 1.268 . S
C628 O626 1.254 . S
C628 O627 1.268 . S
C629 O634 1.254 . S
C629 O635 1.268 . S
O630 Dy623 2.351 . S
O630 C638 1.249 . S
O631 Dy620 2.326 . S
O631 C638 1.267 . S
O632 C621 1.185 . S
O632 Dy623 2.398 . S
O633 C621 1.355 . S
O633 Dy623 2.491 . S
O634 Dy623 2.403 . S
O634 C629 1.254 . S
O635 Dy620 2.310 . S
O635 Dy623 2.664 . S
O635 C629 1.268 . S
O636 Dy620 2.351 . S
O636 C639 1.249 . S
O637 Dy623 2.326 . S
O637 C639 1.267 . S
C638 O630 1.249 . S
C638 O631 1.267 . S
C639 O636 1.249 . S
C639 O637 1.267 . S
C640 C641 1.349 . S
C640 C642 1.327 . S
C640 H665 0.950 . S
C641 C640 1.349 . S
C641 C657 1.349 . S
C642 C640 1.327 . S
C642 C661 1.429 . S
C642 H666 0.950 . S
C643 C660 1.574 . S
C643 C662 1.368 . S
C643 H667 0.949 . S
H644 C648 0.949 . S
C645 C646 1.349 . S
C645 C647 1.327 . S
C645 H668 0.950 . S
C646 C645 1.349 . S
C646 C658 1.349 . S
C647 C645 1.327 . S
C647 C663 1.429 . S
C647 H669 0.950 . S
C648 H644 0.949 . S
C648 C656 1.574 . S
C648 C664 1.368 . S
H649 C657 0.950 . S
H650 C655 0.950 . S
H651 C656 0.949 . S
H652 C658 0.950 . S
H653 C659 0.950 . S
H654 C660 0.949 . S
C655 H650 0.950 . S
C655 C657 1.327 . S
C655 C661 1.429 . S
C656 C648 1.574 . S
C656 H651 0.949 . S
C656 C662 1.368 . S
C657 C641 1.349 . S
C657 H649 0.950 . S
C657 C655 1.327 . S
C658 C646 1.349 . S
C658 H652 0.950 . S
C658 C659 1.327 . S
C659 H653 0.950 . S
C659 C658 1.327 . S
C659 C663 1.429 . S
C660 C643 1.574 . S
C660 H654 0.949 . S
C660 C664 1.368 . S
C661 C642 1.429 . S
C661 C655 1.429 . S
C661 C662 1.523 . S
C662 C643 1.368 . S
C662 C656 1.368 . S
C662 C661 1.523 . S
C663 C647 1.429 . S
C663 C659 1.429 . S
C663 C664 1.523 . S
C664 C648 1.368 . S
C664 C660 1.368 . S
C664 C663 1.523 . S
H665 C640 0.950 . S
H666 C642 0.950 . S
H667 C643 0.949 . S
H668 C645 0.950 . S
H669 C647 0.950 . S
C670 C671 1.349 . S
C670 C672 1.327 . S
C670 H695 0.950 . S
C671 C670 1.349 . S
C671 C687 1.349 . S
C672 C670 1.327 . S
C672 C691 1.429 . S
C672 H696 0.950 . S
C673 C690 1.574 . S
C673 C692 1.368 . S
C673 H697 0.949 . S
H674 C678 0.949 . S
C675 C676 1.349 . S
C675 C677 1.327 . S
C675 H698 0.950 . S
C676 C675 1.349 . S
C676 C688 1.349 . S
C677 C675 1.327 . S
C677 C693 1.429 . S
C677 H699 0.950 . S
C678 H674 0.949 . S
C678 C686 1.574 . S
C678 C694 1.368 . S
H679 C687 0.950 . S
H680 C685 0.950 . S
H681 C686 0.949 . S
H682 C688 0.950 . S
H683 C689 0.950 . S
H684 C690 0.949 . S
C685 H680 0.950 . S
C685 C687 1.327 . S
C685 C691 1.429 . S
C686 C678 1.574 . S
C686 H681 0.949 . S
C686 C692 1.368 . S
C687 C671 1.349 . S
C687 H679 0.950 . S
C687 C685 1.327 . S
C688 C676 1.349 . S
C688 H682 0.950 . S
C688 C689 1.327 . S
C689 H683 0.950 . S
C689 C688 1.327 . S
C689 C693 1.429 . S
C690 C673 1.574 . S
C690 H684 0.949 . S
C690 C694 1.368 . S
C691 C672 1.429 . S
C691 C685 1.429 . S
C691 C692 1.523 . S
C692 C673 1.368 . S
C692 C686 1.368 . S
C692 C691 1.523 . S
C693 C677 1.429 . S
C693 C689 1.429 . S
C693 C694 1.523 . S
C694 C678 1.368 . S
C694 C690 1.368 . S
C694 C693 1.523 . S
H695 C670 0.950 . S
H696 C672 0.950 . S
H697 C673 0.949 . S
H698 C675 0.950 . S
H699 C677 0.950 . S
C700 C701 1.349 . S
C700 C702 1.327 . S
C700 H725 0.950 . S
C701 C700 1.349 . S
C701 C717 1.349 . S
C702 C700 1.327 . S
C702 C721 1.429 . S
C702 H726 0.950 . S
C703 C720 1.574 . S
C703 C722 1.368 . S
C703 H727 0.949 . S
H704 C708 0.949 . S
C705 C706 1.349 . S
C705 C707 1.327 . S
C705 H728 0.950 . S
C706 C705 1.349 . S
C706 C718 1.349 . S
C707 C705 1.327 . S
C707 C723 1.429 . S
C707 H729 0.950 . S
C708 H704 0.949 . S
C708 C716 1.574 . S
C708 C724 1.368 . S
H709 C717 0.950 . S
H710 C715 0.950 . S
H711 C716 0.949 . S
H712 C718 0.950 . S
H713 C719 0.950 . S
H714 C720 0.949 . S
C715 H710 0.950 . S
C715 C717 1.327 . S
C715 C721 1.429 . S
C716 C708 1.574 . S
C716 H711 0.949 . S
C716 C722 1.368 . S
C717 C701 1.349 . S
C717 H709 0.950 . S
C717 C715 1.327 . S
C718 C706 1.349 . S
C718 H712 0.950 . S
C718 C719 1.327 . S
C719 H713 0.950 . S
C719 C718 1.327 . S
C719 C723 1.429 . S
C720 C703 1.574 . S
C720 H714 0.949 . S
C720 C724 1.368 . S
C721 C702 1.429 . S
C721 C715 1.429 . S
C721 C722 1.523 . S
C722 C703 1.368 . S
C722 C716 1.368 . S
C722 C721 1.523 . S
C723 C707 1.429 . S
C723 C719 1.429 . S
C723 C724 1.523 . S
C724 C708 1.368 . S
C724 C720 1.368 . S
C724 C723 1.523 . S
H725 C700 0.950 . S
H726 C702 0.950 . S
H727 C703 0.949 . S
H728 C705 0.950 . S
H729 C707 0.950 . S
C730 C731 1.349 . S
C730 C732 1.327 . S
C730 H755 0.950 . S
C731 C730 1.349 . S
C731 C747 1.349 . S
C732 C730 1.327 . S
C732 C751 1.429 . S
C732 H756 0.950 . S
C733 C750 1.574 . S
C733 C752 1.368 . S
C733 H757 0.949 . S
H734 C738 0.949 . S
C735 C736 1.349 . S
C735 C737 1.327 . S
C735 H758 0.950 . S
C736 C735 1.349 . S
C736 C748 1.349 . S
C737 C735 1.327 . S
C737 C753 1.429 . S
C737 H759 0.950 . S
C738 H734 0.949 . S
C738 C746 1.574 . S
C738 C754 1.368 . S
H739 C747 0.950 . S
H740 C745 0.950 . S
H741 C746 0.949 . S
H742 C748 0.950 . S
H743 C749 0.950 . S
H744 C750 0.949 . S
C745 H740 0.950 . S
C745 C747 1.327 . S
C745 C751 1.429 . S
C746 C738 1.574 . S
C746 H741 0.949 . S
C746 C752 1.368 . S
C747 C731 1.349 . S
C747 H739 0.950 . S
C747 C745 1.327 . S
C748 C736 1.349 . S
C748 H742 0.950 . S
C748 C749 1.327 . S
C749 H743 0.950 . S
C749 C748 1.327 . S
C749 C753 1.429 . S
C750 C733 1.574 . S
C750 H744 0.949 . S
C750 C754 1.368 . S
C751 C732 1.429 . S
C751 C745 1.429 . S
C751 C752 1.523 . S
C752 C733 1.368 . S
C752 C746 1.368 . S
C752 C751 1.523 . S
C753 C737 1.429 . S
C753 C749 1.429 . S
C753 C754 1.523 . S
C754 C738 1.368 . S
C754 C750 1.368 . S
C754 C753 1.523 . S
H755 C730 0.950 . S
H756 C732 0.950 . S
H757 C733 0.949 . S
H758 C735 0.950 . S
H759 C737 0.950 . S
C760 C761 1.349 . S
C760 C762 1.327 . S
C760 H785 0.950 . S
C761 C760 1.349 . S
C761 C777 1.349 . S
C762 C760 1.327 . S
C762 C781 1.429 . S
C762 H786 0.950 . S
C763 C780 1.574 . S
C763 C782 1.368 . S
C763 H787 0.949 . S
H764 C768 0.949 . S
C765 C766 1.349 . S
C765 C767 1.327 . S
C765 H788 0.950 . S
C766 C765 1.349 . S
C766 C778 1.349 . S
C767 C765 1.327 . S
C767 C783 1.429 . S
C767 H789 0.950 . S
C768 H764 0.949 . S
C768 C776 1.574 . S
C768 C784 1.368 . S
H769 C777 0.950 . S
H770 C775 0.950 . S
H771 C776 0.949 . S
H772 C778 0.950 . S
H773 C779 0.950 . S
H774 C780 0.949 . S
C775 H770 0.950 . S
C775 C777 1.327 . S
C775 C781 1.429 . S
C776 C768 1.574 . S
C776 H771 0.949 . S
C776 C782 1.368 . S
C777 C761 1.349 . S
C777 H769 0.950 . S
C777 C775 1.327 . S
C778 C766 1.349 . S
C778 H772 0.950 . S
C778 C779 1.327 . S
C779 H773 0.950 . S
C779 C778 1.327 . S
C779 C783 1.429 . S
C780 C763 1.574 . S
C780 H774 0.949 . S
C780 C784 1.368 . S
C781 C762 1.429 . S
C781 C775 1.429 . S
C781 C782 1.523 . S
C782 C763 1.368 . S
C782 C776 1.368 . S
C782 C781 1.523 . S
C783 C767 1.429 . S
C783 C779 1.429 . S
C783 C784 1.523 . S
C784 C768 1.368 . S
C784 C780 1.368 . S
C784 C783 1.523 . S
H785 C760 0.950 . S
H786 C762 0.950 . S
H787 C763 0.949 . S
H788 C765 0.950 . S
H789 C767 0.950 . S
C790 C791 1.349 . S
C790 C792 1.327 . S
C790 H815 0.950 . S
C791 C790 1.349 . S
C791 C807 1.349 . S
C792 C790 1.327 . S
C792 C811 1.429 . S
C792 H816 0.950 . S
C793 C810 1.574 . S
C793 C812 1.368 . S
C793 H817 0.949 . S
H794 C798 0.949 . S
C795 C796 1.349 . S
C795 C797 1.327 . S
C795 H818 0.950 . S
C796 C795 1.349 . S
C796 C808 1.349 . S
C797 C795 1.327 . S
C797 C813 1.429 . S
C797 H819 0.950 . S
C798 H794 0.949 . S
C798 C806 1.574 . S
C798 C814 1.368 . S
H799 C807 0.950 . S
H800 C805 0.950 . S
H801 C806 0.949 . S
H802 C808 0.950 . S
H803 C809 0.950 . S
H804 C810 0.949 . S
C805 H800 0.950 . S
C805 C807 1.327 . S
C805 C811 1.429 . S
C806 C798 1.574 . S
C806 H801 0.949 . S
C806 C812 1.368 . S
C807 C791 1.349 . S
C807 H799 0.950 . S
C807 C805 1.327 . S
C808 C796 1.349 . S
C808 H802 0.950 . S
C808 C809 1.327 . S
C809 H803 0.950 . S
C809 C808 1.327 . S
C809 C813 1.429 . S
C810 C793 1.574 . S
C810 H804 0.949 . S
C810 C814 1.368 . S
C811 C792 1.429 . S
C811 C805 1.429 . S
C811 C812 1.523 . S
C812 C793 1.368 . S
C812 C806 1.368 . S
C812 C811 1.523 . S
C813 C797 1.429 . S
C813 C809 1.429 . S
C813 C814 1.523 . S
C814 C798 1.368 . S
C814 C810 1.368 . S
C814 C813 1.523 . S
H815 C790 0.950 . S
H816 C792 0.950 . S
H817 C793 0.949 . S
H818 C795 0.950 . S
H819 C797 0.950 . S
C820 C821 1.349 . S
C820 C822 1.327 . S
C820 H845 0.950 . S
C821 C820 1.349 . S
C821 C837 1.349 . S
C822 C820 1.327 . S
C822 C841 1.429 . S
C822 H846 0.950 . S
C823 C840 1.574 . S
C823 C842 1.368 . S
C823 H847 0.949 . S
H824 C828 0.949 . S
C825 C826 1.349 . S
C825 C827 1.327 . S
C825 H848 0.950 . S
C826 C825 1.349 . S
C826 C838 1.349 . S
C827 C825 1.327 . S
C827 C843 1.429 . S
C827 H849 0.950 . S
C828 H824 0.949 . S
C828 C836 1.574 . S
C828 C844 1.368 . S
H829 C837 0.950 . S
H830 C835 0.950 . S
H831 C836 0.949 . S
H832 C838 0.950 . S
H833 C839 0.950 . S
H834 C840 0.949 . S
C835 H830 0.950 . S
C835 C837 1.327 . S
C835 C841 1.429 . S
C836 C828 1.574 . S
C836 H831 0.949 . S
C836 C842 1.368 . S
C837 C821 1.349 . S
C837 H829 0.950 . S
C837 C835 1.327 . S
C838 C826 1.349 . S
C838 H832 0.950 . S
C838 C839 1.327 . S
C839 H833 0.950 . S
C839 C838 1.327 . S
C839 C843 1.429 . S
C840 C823 1.574 . S
C840 H834 0.949 . S
C840 C844 1.368 . S
C841 C822 1.429 . S
C841 C835 1.429 . S
C841 C842 1.523 . S
C842 C823 1.368 . S
C842 C836 1.368 . S
C842 C841 1.523 . S
C843 C827 1.429 . S
C843 C839 1.429 . S
C843 C844 1.523 . S
C844 C828 1.368 . S
C844 C840 1.368 . S
C844 C843 1.523 . S
H845 C820 0.950 . S
H846 C822 0.950 . S
H847 C823 0.949 . S
H848 C825 0.950 . S
H849 C827 0.950 . S
C850 C851 1.349 . S
C850 C852 1.327 . S
C850 H875 0.950 . S
C851 C850 1.349 . S
C851 C867 1.349 . S
C852 C850 1.327 . S
C852 C871 1.429 . S
C852 H876 0.950 . S
C853 C870 1.574 . S
C853 C872 1.368 . S
C853 H877 0.949 . S
H854 C858 0.949 . S
C855 C856 1.349 . S
C855 C857 1.327 . S
C855 H878 0.950 . S
C856 C855 1.349 . S
C856 C868 1.349 . S
C857 C855 1.327 . S
C857 C873 1.429 . S
C857 H879 0.950 . S
C858 H854 0.949 . S
C858 C866 1.574 . S
C858 C874 1.368 . S
H859 C867 0.950 . S
H860 C865 0.950 . S
H861 C866 0.949 . S
H862 C868 0.950 . S
H863 C869 0.950 . S
H864 C870 0.949 . S
C865 H860 0.950 . S
C865 C867 1.327 . S
C865 C871 1.429 . S
C866 C858 1.574 . S
C866 H861 0.949 . S
C866 C872 1.368 . S
C867 C851 1.349 . S
C867 H859 0.950 . S
C867 C865 1.327 . S
C868 C856 1.349 . S
C868 H862 0.950 . S
C868 C869 1.327 . S
C869 H863 0.950 . S
C869 C868 1.327 . S
C869 C873 1.429 . S
C870 C853 1.574 . S
C870 H864 0.949 . S
C870 C874 1.368 . S
C871 C852 1.429 . S
C871 C865 1.429 . S
C871 C872 1.523 . S
C872 C853 1.368 . S
C872 C866 1.368 . S
C872 C871 1.523 . S
C873 C857 1.429 . S
C873 C869 1.429 . S
C873 C874 1.523 . S
C874 C858 1.368 . S
C874 C870 1.368 . S
C874 C873 1.523 . S
H875 C850 0.950 . S
H876 C852 0.950 . S
H877 C853 0.949 . S
H878 C855 0.950 . S
H879 C857 0.950 . S
C880 C881 1.349 . S
C880 C882 1.327 . S
C880 H905 0.950 . S
C881 C880 1.349 . S
C881 C897 1.349 . S
C882 C880 1.327 . S
C882 C901 1.429 . S
C882 H906 0.950 . S
C883 C900 1.574 . S
C883 C902 1.368 . S
C883 H907 0.949 . S
H884 C888 0.949 . S
C885 C886 1.349 . S
C885 C887 1.327 . S
C885 H908 0.950 . S
C886 C885 1.349 . S
C886 C898 1.349 . S
C887 C885 1.327 . S
C887 C903 1.429 . S
C887 H909 0.950 . S
C888 H884 0.949 . S
C888 C896 1.574 . S
C888 C904 1.368 . S
H889 C897 0.950 . S
H890 C895 0.950 . S
H891 C896 0.949 . S
H892 C898 0.950 . S
H893 C899 0.950 . S
H894 C900 0.949 . S
C895 H890 0.950 . S
C895 C897 1.327 . S
C895 C901 1.429 . S
C896 C888 1.574 . S
C896 H891 0.949 . S
C896 C902 1.368 . S
C897 C881 1.349 . S
C897 H889 0.950 . S
C897 C895 1.327 . S
C898 C886 1.349 . S
C898 H892 0.950 . S
C898 C899 1.327 . S
C899 H893 0.950 . S
C899 C898 1.327 . S
C899 C903 1.429 . S
C900 C883 1.574 . S
C900 H894 0.949 . S
C900 C904 1.368 . S
C901 C882 1.429 . S
C901 C895 1.429 . S
C901 C902 1.523 . S
C902 C883 1.368 . S
C902 C896 1.368 . S
C902 C901 1.523 . S
C903 C887 1.429 . S
C903 C899 1.429 . S
C903 C904 1.523 . S
C904 C888 1.368 . S
C904 C900 1.368 . S
C904 C903 1.523 . S
H905 C880 0.950 . S
H906 C882 0.950 . S
H907 C883 0.949 . S
H908 C885 0.950 . S
H909 C887 0.950 . S
C910 C911 1.349 . S
C910 C912 1.327 . S
C910 H935 0.950 . S
C911 C910 1.349 . S
C911 C927 1.349 . S
C912 C910 1.327 . S
C912 C931 1.429 . S
C912 H936 0.950 . S
C913 C930 1.574 . S
C913 C932 1.368 . S
C913 H937 0.949 . S
H914 C918 0.949 . S
C915 C916 1.349 . S
C915 C917 1.327 . S
C915 H938 0.950 . S
C916 C915 1.349 . S
C916 C928 1.349 . S
C917 C915 1.327 . S
C917 C933 1.429 . S
C917 H939 0.950 . S
C918 H914 0.949 . S
C918 C926 1.574 . S
C918 C934 1.368 . S
H919 C927 0.950 . S
H920 C925 0.950 . S
H921 C926 0.949 . S
H922 C928 0.950 . S
H923 C929 0.950 . S
H924 C930 0.949 . S
C925 H920 0.950 . S
C925 C927 1.327 . S
C925 C931 1.429 . S
C926 C918 1.574 . S
C926 H921 0.949 . S
C926 C932 1.368 . S
C927 C911 1.349 . S
C927 H919 0.950 . S
C927 C925 1.327 . S
C928 C916 1.349 . S
C928 H922 0.950 . S
C928 C929 1.327 . S
C929 H923 0.950 . S
C929 C928 1.327 . S
C929 C933 1.429 . S
C930 C913 1.574 . S
C930 H924 0.949 . S
C930 C934 1.368 . S
C931 C912 1.429 . S
C931 C925 1.429 . S
C931 C932 1.523 . S
C932 C913 1.368 . S
C932 C926 1.368 . S
C932 C931 1.523 . S
C933 C917 1.429 . S
C933 C929 1.429 . S
C933 C934 1.523 . S
C934 C918 1.368 . S
C934 C930 1.368 . S
C934 C933 1.523 . S
H935 C910 0.950 . S
H936 C912 0.950 . S
H937 C913 0.949 . S
H938 C915 0.950 . S
H939 C917 0.950 . S
C940 C941 1.349 . S
C940 C942 1.327 . S
C940 H965 0.950 . S
C941 C940 1.349 . S
C941 C957 1.349 . S
C942 C940 1.327 . S
C942 C961 1.429 . S
C942 H966 0.950 . S
C943 C960 1.574 . S
C943 C962 1.368 . S
C943 H967 0.949 . S
H944 C948 0.949 . S
C945 C946 1.349 . S
C945 C947 1.327 . S
C945 H968 0.950 . S
C946 C945 1.349 . S
C946 C958 1.349 . S
C947 C945 1.327 . S
C947 C963 1.429 . S
C947 H969 0.950 . S
C948 H944 0.949 . S
C948 C956 1.574 . S
C948 C964 1.368 . S
H949 C957 0.950 . S
H950 C955 0.950 . S
H951 C956 0.949 . S
H952 C958 0.950 . S
H953 C959 0.950 . S
H954 C960 0.949 . S
C955 H950 0.950 . S
C955 C957 1.327 . S
C955 C961 1.429 . S
C956 C948 1.574 . S
C956 H951 0.949 . S
C956 C962 1.368 . S
C957 C941 1.349 . S
C957 H949 0.950 . S
C957 C955 1.327 . S
C958 C946 1.349 . S
C958 H952 0.950 . S
C958 C959 1.327 . S
C959 H953 0.950 . S
C959 C958 1.327 . S
C959 C963 1.429 . S
C960 C943 1.574 . S
C960 H954 0.949 . S
C960 C964 1.368 . S
C961 C942 1.429 . S
C961 C955 1.429 . S
C961 C962 1.523 . S
C962 C943 1.368 . S
C962 C956 1.368 . S
C962 C961 1.523 . S
C963 C947 1.429 . S
C963 C959 1.429 . S
C963 C964 1.523 . S
C964 C948 1.368 . S
C964 C960 1.368 . S
C964 C963 1.523 . S
H965 C940 0.950 . S
H966 C942 0.950 . S
H967 C943 0.949 . S
H968 C945 0.950 . S
H969 C947 0.950 . S
C970 C971 1.349 . S
C970 C972 1.327 . S
C970 H995 0.950 . S
C971 C970 1.349 . S
C971 C987 1.349 . S
C972 C970 1.327 . S
C972 C991 1.429 . S
C972 H996 0.950 . S
C973 C990 1.574 . S
C973 C992 1.368 . S
C973 H997 0.949 . S
H974 C978 0.949 . S
C975 C976 1.349 . S
C975 C977 1.327 . S
C975 H998 0.950 . S
C976 C975 1.349 . S
C976 C988 1.349 . S
C977 C975 1.327 . S
C977 C993 1.429 . S
C977 H999 0.950 . S
C978 H974 0.949 . S
C978 C986 1.574 . S
C978 C994 1.368 . S
H979 C987 0.950 . S
H980 C985 0.950 . S
H981 C986 0.949 . S
H982 C988 0.950 . S
H983 C989 0.950 . S
H984 C990 0.949 . S
C985 H980 0.950 . S
C985 C987 1.327 . S
C985 C991 1.429 . S
C986 C978 1.574 . S
C986 H981 0.949 . S
C986 C992 1.368 . S
C987 C971 1.349 . S
C987 H979 0.950 . S
C987 C985 1.327 . S
C988 C976 1.349 . S
C988 H982 0.950 . S
C988 C989 1.327 . S
C989 H983 0.950 . S
C989 C988 1.327 . S
C989 C993 1.429 . S
C990 C973 1.574 . S
C990 H984 0.949 . S
C990 C994 1.368 . S
C991 C972 1.429 . S
C991 C985 1.429 . S
C991 C992 1.523 . S
C992 C973 1.368 . S
C992 C986 1.368 . S
C992 C991 1.523 . S
C993 C977 1.429 . S
C993 C989 1.429 . S
C993 C994 1.523 . S
C994 C978 1.368 . S
C994 C990 1.368 . S
C994 C993 1.523 . S
H995 C970 0.950 . S
H996 C972 0.950 . S
H997 C973 0.949 . S
H998 C975 0.950 . S
H999 C977 0.950 . S
C1000 C1001 1.349 . S
C1000 C1002 1.327 . S
C1000 H1025 0.950 . S
C1001 C1000 1.349 . S
C1001 C1017 1.349 . S
C1002 C1000 1.327 . S
C1002 C1021 1.429 . S
C1002 H1026 0.950 . S
C1003 C1020 1.574 . S
C1003 C1022 1.368 . S
C1003 H1027 0.949 . S
H1004 C1008 0.949 . S
C1005 C1006 1.349 . S
C1005 C1007 1.327 . S
C1005 H1028 0.950 . S
C1006 C1005 1.349 . S
C1006 C1018 1.349 . S
C1007 C1005 1.327 . S
C1007 C1023 1.429 . S
C1007 H1029 0.950 . S
C1008 H1004 0.949 . S
C1008 C1016 1.574 . S
C1008 C1024 1.368 . S
H1009 C1017 0.950 . S
H1010 C1015 0.950 . S
H1011 C1016 0.949 . S
H1012 C1018 0.950 . S
H1013 C1019 0.950 . S
H1014 C1020 0.949 . S
C1015 H1010 0.950 . S
C1015 C1017 1.327 . S
C1015 C1021 1.429 . S
C1016 C1008 1.574 . S
C1016 H1011 0.949 . S
C1016 C1022 1.368 . S
C1017 C1001 1.349 . S
C1017 H1009 0.950 . S
C1017 C1015 1.327 . S
C1018 C1006 1.349 . S
C1018 H1012 0.950 . S
C1018 C1019 1.327 . S
C1019 H1013 0.950 . S
C1019 C1018 1.327 . S
C1019 C1023 1.429 . S
C1020 C1003 1.574 . S
C1020 H1014 0.949 . S
C1020 C1024 1.368 . S
C1021 C1002 1.429 . S
C1021 C1015 1.429 . S
C1021 C1022 1.523 . S
C1022 C1003 1.368 . S
C1022 C1016 1.368 . S
C1022 C1021 1.523 . S
C1023 C1007 1.429 . S
C1023 C1019 1.429 . S
C1023 C1024 1.523 . S
C1024 C1008 1.368 . S
C1024 C1020 1.368 . S
C1024 C1023 1.523 . S
H1025 C1000 0.950 . S
H1026 C1002 0.950 . S
H1027 C1003 0.949 . S
H1028 C1005 0.950 . S
H1029 C1007 0.950 . S
C1030 C1031 1.349 . S
C1030 C1032 1.327 . S
C1030 H1055 0.950 . S
C1031 C1030 1.349 . S
C1031 C1047 1.349 . S
C1032 C1030 1.327 . S
C1032 C1051 1.429 . S
C1032 H1056 0.950 . S
C1033 C1050 1.574 . S
C1033 C1052 1.368 . S
C1033 H1057 0.949 . S
H1034 C1038 0.949 . S
C1035 C1036 1.349 . S
C1035 C1037 1.327 . S
C1035 H1058 0.950 . S
C1036 C1035 1.349 . S
C1036 C1048 1.349 . S
C1037 C1035 1.327 . S
C1037 C1053 1.429 . S
C1037 H1059 0.950 . S
C1038 H1034 0.949 . S
C1038 C1046 1.574 . S
C1038 C1054 1.368 . S
H1039 C1047 0.950 . S
H1040 C1045 0.950 . S
H1041 C1046 0.949 . S
H1042 C1048 0.950 . S
H1043 C1049 0.950 . S
H1044 C1050 0.949 . S
C1045 H1040 0.950 . S
C1045 C1047 1.327 . S
C1045 C1051 1.429 . S
C1046 C1038 1.574 . S
C1046 H1041 0.949 . S
C1046 C1052 1.368 . S
C1047 C1031 1.349 . S
C1047 H1039 0.950 . S
C1047 C1045 1.327 . S
C1048 C1036 1.349 . S
C1048 H1042 0.950 . S
C1048 C1049 1.327 . S
C1049 H1043 0.950 . S
C1049 C1048 1.327 . S
C1049 C1053 1.429 . S
C1050 C1033 1.574 . S
C1050 H1044 0.949 . S
C1050 C1054 1.368 . S
C1051 C1032 1.429 . S
C1051 C1045 1.429 . S
C1051 C1052 1.523 . S
C1052 C1033 1.368 . S
C1052 C1046 1.368 . S
C1052 C1051 1.523 . S
C1053 C1037 1.429 . S
C1053 C1049 1.429 . S
C1053 C1054 1.523 . S
C1054 C1038 1.368 . S
C1054 C1050 1.368 . S
C1054 C1053 1.523 . S
H1055 C1030 0.950 . S
H1056 C1032 0.950 . S
H1057 C1033 0.949 . S
H1058 C1035 0.950 . S
H1059 C1037 0.950 . S
C1060 C1061 1.349 . S
C1060 C1062 1.327 . S
C1060 H1085 0.950 . S
C1061 C1060 1.349 . S
C1061 C1077 1.349 . S
C1062 C1060 1.327 . S
C1062 C1081 1.429 . S
C1062 H1086 0.950 . S
C1063 C1080 1.574 . S
C1063 C1082 1.368 . S
C1063 H1087 0.949 . S
H1064 C1068 0.949 . S
C1065 C1066 1.349 . S
C1065 C1067 1.327 . S
C1065 H1088 0.950 . S
C1066 C1065 1.349 . S
C1066 C1078 1.349 . S
C1067 C1065 1.327 . S
C1067 C1083 1.429 . S
C1067 H1089 0.950 . S
C1068 H1064 0.949 . S
C1068 C1076 1.574 . S
C1068 C1084 1.368 . S
H1069 C1077 0.950 . S
H1070 C1075 0.950 . S
H1071 C1076 0.949 . S
H1072 C1078 0.950 . S
H1073 C1079 0.950 . S
H1074 C1080 0.949 . S
C1075 H1070 0.950 . S
C1075 C1077 1.327 . S
C1075 C1081 1.429 . S
C1076 C1068 1.574 . S
C1076 H1071 0.949 . S
C1076 C1082 1.368 . S
C1077 C1061 1.349 . S
C1077 H1069 0.950 . S
C1077 C1075 1.327 . S
C1078 C1066 1.349 . S
C1078 H1072 0.950 . S
C1078 C1079 1.327 . S
C1079 H1073 0.950 . S
C1079 C1078 1.327 . S
C1079 C1083 1.429 . S
C1080 C1063 1.574 . S
C1080 H1074 0.949 . S
C1080 C1084 1.368 . S
C1081 C1062 1.429 . S
C1081 C1075 1.429 . S
C1081 C1082 1.523 . S
C1082 C1063 1.368 . S
C1082 C1076 1.368 . S
C1082 C1081 1.523 . S
C1083 C1067 1.429 . S
C1083 C1079 1.429 . S
C1083 C1084 1.523 . S
C1084 C1068 1.368 . S
C1084 C1080 1.368 . S
C1084 C1083 1.523 . S
H1085 C1060 0.950 . S
H1086 C1062 0.950 . S
H1087 C1063 0.949 . S
H1088 C1065 0.950 . S
H1089 C1067 0.950 . S
C1090 C1091 1.349 . S
C1090 C1092 1.327 . S
C1090 H1115 0.950 . S
C1091 C1090 1.349 . S
C1091 C1107 1.349 . S
C1092 C1090 1.327 . S
C1092 C1111 1.429 . S
C1092 H1116 0.950 . S
C1093 C1110 1.574 . S
C1093 C1112 1.368 . S
C1093 H1117 0.949 . S
H1094 C1098 0.949 . S
C1095 C1096 1.349 . S
C1095 C1097 1.327 . S
C1095 H1118 0.950 . S
C1096 C1095 1.349 . S
C1096 C1108 1.349 . S
C1097 C1095 1.327 . S
C1097 C1113 1.429 . S
C1097 H1119 0.950 . S
C1098 H1094 0.949 . S
C1098 C1106 1.574 . S
C1098 C1114 1.368 . S
H1099 C1107 0.950 . S
H1100 C1105 0.950 . S
H1101 C1106 0.949 . S
H1102 C1108 0.950 . S
H1103 C1109 0.950 . S
H1104 C1110 0.949 . S
C1105 H1100 0.950 . S
C1105 C1107 1.327 . S
C1105 C1111 1.429 . S
C1106 C1098 1.574 . S
C1106 H1101 0.949 . S
C1106 C1112 1.368 . S
C1107 C1091 1.349 . S
C1107 H1099 0.950 . S
C1107 C1105 1.327 . S
C1108 C1096 1.349 . S
C1108 H1102 0.950 . S
C1108 C1109 1.327 . S
C1109 H1103 0.950 . S
C1109 C1108 1.327 . S
C1109 C1113 1.429 . S
C1110 C1093 1.574 . S
C1110 H1104 0.949 . S
C1110 C1114 1.368 . S
C1111 C1092 1.429 . S
C1111 C1105 1.429 . S
C1111 C1112 1.523 . S
C1112 C1093 1.368 . S
C1112 C1106 1.368 . S
C1112 C1111 1.523 . S
C1113 C1097 1.429 . S
C1113 C1109 1.429 . S
C1113 C1114 1.523 . S
C1114 C1098 1.368 . S
C1114 C1110 1.368 . S
C1114 C1113 1.523 . S
H1115 C1090 0.950 . S
H1116 C1092 0.950 . S
H1117 C1093 0.949 . S
H1118 C1095 0.950 . S
H1119 C1097 0.950 . S
C1120 C1121 1.349 1_545 S
C1120 C1122 1.327 . S
C1120 H1145 0.950 . S
C1121 C1120 1.349 1_565 S
C1121 C1137 1.349 . S
C1122 C1120 1.327 . S
C1122 C1141 1.403 1_545 S
C1122 H1146 0.950 . S
C1123 C1140 1.574 . S
C1123 C1142 1.378 . S
C1123 H1147 0.949 . S
H1124 C1128 0.949 . S
C1125 C1126 1.349 1_565 S
C1125 C1127 1.327 . S
C1125 H1148 0.950 . S
C1126 C1125 1.349 1_545 S
C1126 C1138 1.349 . S
C1127 C1125 1.327 . S
C1127 C1143 1.404 1_565 S
C1127 H1149 0.950 . S
C1128 H1124 0.949 . S
C1128 C1136 1.574 . S
C1128 C1144 1.378 . S
H1129 C1137 0.950 . S
H1130 C1135 0.950 . S
H1131 C1136 0.949 . S
H1132 C1138 0.950 . S
H1133 C1139 0.950 . S
H1134 C1140 0.949 . S
C1135 H1130 0.950 . S
C1135 C1137 1.327 . S
C1135 C1141 1.455 . S
C1136 C1128 1.574 . S
C1136 H1131 0.949 . S
C1136 C1142 1.358 1_545 S
C1137 C1121 1.349 . S
C1137 H1129 0.950 . S
C1137 C1135 1.327 . S
C1138 C1126 1.349 . S
C1138 H1132 0.950 . S
C1138 C1139 1.327 . S
C1139 H1133 0.950 . S
C1139 C1138 1.327 . S
C1139 C1143 1.455 . S
C1140 C1123 1.574 . S
C1140 H1134 0.949 . S
C1140 C1144 1.358 1_565 S
C1141 C1122 1.403 1_565 S
C1141 C1135 1.455 . S
C1141 C1142 1.523 . S
C1142 C1123 1.378 . S
C1142 C1136 1.358 1_565 S
C1142 C1141 1.523 . S
C1143 C1127 1.404 1_545 S
C1143 C1139 1.455 . S
C1143 C1144 1.523 . S
C1144 C1128 1.378 . S
C1144 C1140 1.358 1_545 S
C1144 C1143 1.523 . S
H1145 C1120 0.950 . S
H1146 C1122 0.950 . S
H1147 C1123 0.949 . S
H1148 C1125 0.950 . S
H1149 C1127 0.950 . S
C1150 C1151 1.349 . S
C1150 C1152 1.327 . S
C1150 H1175 0.950 . S
C1151 C1150 1.349 . S
C1151 C1167 1.349 . S
C1152 C1150 1.327 . S
C1152 C1171 1.429 . S
C1152 H1176 0.950 . S
C1153 C1170 1.574 . S
C1153 C1172 1.368 1_655 S
C1153 H1177 0.949 . S
H1154 C1158 0.949 . S
C1155 C1156 1.349 . S
C1155 C1157 1.327 . S
C1155 H1178 0.950 . S
C1156 C1155 1.349 . S
C1156 C1168 1.349 . S
C1157 C1155 1.327 . S
C1157 C1173 1.429 . S
C1157 H1179 0.950 . S
C1158 H1154 0.949 . S
C1158 C1166 1.574 . S
C1158 C1174 1.368 1_455 S
H1159 C1167 0.950 . S
H1160 C1165 0.950 . S
H1161 C1166 0.949 . S
H1162 C1168 0.950 . S
H1163 C1169 0.950 . S
H1164 C1170 0.949 . S
C1165 H1160 0.950 . S
C1165 C1167 1.327 . S
C1165 C1171 1.429 . S
C1166 C1158 1.574 . S
C1166 H1161 0.949 . S
C1166 C1172 1.368 . S
C1167 C1151 1.349 . S
C1167 H1159 0.950 . S
C1167 C1165 1.327 . S
C1168 C1156 1.349 . S
C1168 H1162 0.950 . S
C1168 C1169 1.327 . S
C1169 H1163 0.950 . S
C1169 C1168 1.327 . S
C1169 C1173 1.429 . S
C1170 C1153 1.574 . S
C1170 H1164 0.949 . S
C1170 C1174 1.368 . S
C1171 C1152 1.429 . S
C1171 C1165 1.429 . S
C1171 C1172 1.523 . S
C1172 C1153 1.368 1_455 S
C1172 C1166 1.368 . S
C1172 C1171 1.523 . S
C1173 C1157 1.429 . S
C1173 C1169 1.429 . S
C1173 C1174 1.523 . S
C1174 C1158 1.368 1_655 S
C1174 C1170 1.368 . S
C1174 C1173 1.523 . S
H1175 C1150 0.950 . S
H1176 C1152 0.950 . S
H1177 C1153 0.949 . S
H1178 C1155 0.950 . S
H1179 C1157 0.950 . S
C1180 C1181 1.349 . S
C1180 C1182 1.327 . S
C1180 H1205 0.950 . S
C1181 C1180 1.349 . S
C1181 C1197 1.349 . S
C1182 C1180 1.327 . S
C1182 C1201 1.429 . S
C1182 H1206 0.950 . S
C1183 C1200 1.574 1_556 S
C1183 C1202 1.368 . S
C1183 H1207 0.949 . S
H1184 C1188 0.949 . S
C1185 C1186 1.349 . S
C1185 C1187 1.327 . S
C1185 H1208 0.950 . S
C1186 C1185 1.349 . S
C1186 C1198 1.349 . S
C1187 C1185 1.327 . S
C1187 C1203 1.429 . S
C1187 H1209 0.950 . S
C1188 H1184 0.949 . S
C1188 C1196 1.574 1_554 S
C1188 C1204 1.368 . S
H1189 C1197 0.950 . S
H1190 C1195 0.950 . S
H1191 C1196 0.949 . S
H1192 C1198 0.950 . S
H1193 C1199 0.950 . S
H1194 C1200 0.949 . S
C1195 H1190 0.950 . S
C1195 C1197 1.327 . S
C1195 C1201 1.429 . S
C1196 C1188 1.574 1_556 S
C1196 H1191 0.949 . S
C1196 C1202 1.368 . S
C1197 C1181 1.349 . S
C1197 H1189 0.950 . S
C1197 C1195 1.327 . S
C1198 C1186 1.349 . S
C1198 H1192 0.950 . S
C1198 C1199 1.327 . S
C1199 H1193 0.950 . S
C1199 C1198 1.327 . S
C1199 C1203 1.429 . S
C1200 C1183 1.574 1_554 S
C1200 H1194 0.949 . S
C1200 C1204 1.368 . S
C1201 C1182 1.429 . S
C1201 C1195 1.429 . S
C1201 C1202 1.523 . S
C1202 C1183 1.368 . S
C1202 C1196 1.368 . S
C1202 C1201 1.523 . S
C1203 C1187 1.429 . S
C1203 C1199 1.429 . S
C1203 C1204 1.523 . S
C1204 C1188 1.368 . S
C1204 C1200 1.368 . S
C1204 C1203 1.523 . S
H1205 C1180 0.950 . S
H1206 C1182 0.950 . S
H1207 C1183 0.949 . S
H1208 C1185 0.950 . S
H1209 C1187 0.950 . S
C1210 C1211 1.349 1_545 S
C1210 C1212 1.327 . S
C1210 H1235 0.950 . S
C1211 C1210 1.349 1_565 S
C1211 C1227 1.349 . S
C1212 C1210 1.327 . S
C1212 C1231 1.402 1_545 S
C1212 H1236 0.950 . S
C1213 C1230 1.574 1_554 S
C1213 C1232 1.379 . S
C1213 H1237 0.949 . S
H1214 C1218 0.949 . S
C1215 C1216 1.349 1_565 S
C1215 C1217 1.327 . S
C1215 H1238 0.950 . S
C1216 C1215 1.349 1_545 S
C1216 C1228 1.349 . S
C1217 C1215 1.327 . S
C1217 C1233 1.402 1_565 S
C1217 H1239 0.950 . S
C1218 H1214 0.949 . S
C1218 C1226 1.574 1_556 S
C1218 C1234 1.379 . S
H1219 C1227 0.950 . S
H1220 C1225 0.950 . S
H1221 C1226 0.949 . S
H1222 C1228 0.950 . S
H1223 C1229 0.950 . S
H1224 C1230 0.949 . S
C1225 H1220 0.950 . S
C1225 C1227 1.327 . S
C1225 C1231 1.456 . S
C1226 C1218 1.574 1_554 S
C1226 H1221 0.949 . S
C1226 C1232 1.358 1_445 S
C1227 C1211 1.349 . S
C1227 H1219 0.950 . S
C1227 C1225 1.327 . S
C1228 C1216 1.349 . S
C1228 H1222 0.950 . S
C1228 C1229 1.327 . S
C1229 H1223 0.950 . S
C1229 C1228 1.327 . S
C1229 C1233 1.456 . S
C1230 C1213 1.574 1_556 S
C1230 H1224 0.949 . S
C1230 C1234 1.358 1_665 S
C1231 C1212 1.402 1_565 S
C1231 C1225 1.456 . S
C1231 C1232 1.523 . S
C1232 C1213 1.379 . S
C1232 C1226 1.358 1_665 S
C1232 C1231 1.523 . S
C1233 C1217 1.402 1_545 S
C1233 C1229 1.456 . S
C1233 C1234 1.523 . S
C1234 C1218 1.379 . S
C1234 C1230 1.358 1_445 S
C1234 C1233 1.523 . S
H1235 C1210 0.950 . S
H1236 C1212 0.950 . S
H1237 C1213 0.949 . S
H1238 C1215 0.950 . S
H1239 C1217 0.950 . S
C1240 C1241 1.349 . S
C1240 C1242 1.327 . S
C1240 H1265 0.950 . S
C1241 C1240 1.349 . S
C1241 C1257 1.349 1_545 S
C1242 C1240 1.327 . S
C1242 C1261 1.454 . S
C1242 H1266 0.950 . S
C1243 C1260 1.574 . S
C1243 C1262 1.359 1_565 S
C1243 H1267 0.949 . S
H1244 C1248 0.949 . S
C1245 C1246 1.349 . S
C1245 C1247 1.327 . S
C1245 H1268 0.950 . S
C1246 C1245 1.349 . S
C1246 C1258 1.349 1_565 S
C1247 C1245 1.327 . S
C1247 C1263 1.454 . S
C1247 H1269 0.950 . S
C1248 H1244 0.949 . S
C1248 C1256 1.574 . S
C1248 C1264 1.359 1_545 S
H1249 C1257 0.950 . S
H1250 C1255 0.950 . S
H1251 C1256 0.949 . S
H1252 C1258 0.950 . S
H1253 C1259 0.950 . S
H1254 C1260 0.949 . S
C1255 H1250 0.950 . S
C1255 C1257 1.327 . S
C1255 C1261 1.404 1_565 S
C1256 C1248 1.574 . S
C1256 H1251 0.949 . S
C1256 C1262 1.378 . S
C1257 C1241 1.349 1_565 S
C1257 H1249 0.950 . S
C1257 C1255 1.327 . S
C1258 C1246 1.349 1_545 S
C1258 H1252 0.950 . S
C1258 C1259 1.327 . S
C1259 H1253 0.950 . S
C1259 C1258 1.327 . S
C1259 C1263 1.404 1_545 S
C1260 C1243 1.574 . S
C1260 H1254 0.949 . S
C1260 C1264 1.378 . S
C1261 C1242 1.454 . S
C1261 C1255 1.404 1_545 S
C1261 C1262 1.523 . S
C1262 C1243 1.359 1_545 S
C1262 C1256 1.378 . S
C1262 C1261 1.523 . S
C1263 C1247 1.454 . S
C1263 C1259 1.404 1_565 S
C1263 C1264 1.523 . S
C1264 C1248 1.359 1_565 S
C1264 C1260 1.378 . S
C1264 C1263 1.523 . S
H1265 C1240 0.950 . S
H1266 C1242 0.950 . S
H1267 C1243 0.949 . S
H1268 C1245 0.950 . S
H1269 C1247 0.950 . S
C1270 C1271 1.349 . S
C1270 C1272 1.327 . S
C1270 H1295 0.950 . S
C1271 C1270 1.349 . S
C1271 C1287 1.349 . S
C1272 C1270 1.327 . S
C1272 C1291 1.429 . S
C1272 H1296 0.950 . S
C1273 C1290 1.574 . S
C1273 C1292 1.368 1_655 S
C1273 H1297 0.949 . S
H1274 C1278 0.949 . S
C1275 C1276 1.349 . S
C1275 C1277 1.327 . S
C1275 H1298 0.950 . S
C1276 C1275 1.349 . S
C1276 C1288 1.349 . S
C1277 C1275 1.327 . S
C1277 C1293 1.429 . S
C1277 H1299 0.950 . S
C1278 H1274 0.949 . S
C1278 C1286 1.574 . S
C1278 C1294 1.368 1_455 S
H1279 C1287 0.950 . S
H1280 C1285 0.950 . S
H1281 C1286 0.949 . S
H1282 C1288 0.950 . S
H1283 C1289 0.950 . S
H1284 C1290 0.949 . S
C1285 H1280 0.950 . S
C1285 C1287 1.327 . S
C1285 C1291 1.429 . S
C1286 C1278 1.574 . S
C1286 H1281 0.949 . S
C1286 C1292 1.368 . S
C1287 C1271 1.349 . S
C1287 H1279 0.950 . S
C1287 C1285 1.327 . S
C1288 C1276 1.349 . S
C1288 H1282 0.950 . S
C1288 C1289 1.327 . S
C1289 H1283 0.950 . S
C1289 C1288 1.327 . S
C1289 C1293 1.429 . S
C1290 C1273 1.574 . S
C1290 H1284 0.949 . S
C1290 C1294 1.368 . S
C1291 C1272 1.429 . S
C1291 C1285 1.429 . S
C1291 C1292 1.523 . S
C1292 C1273 1.368 1_455 S
C1292 C1286 1.368 . S
C1292 C1291 1.523 . S
C1293 C1277 1.429 . S
C1293 C1289 1.429 . S
C1293 C1294 1.523 . S
C1294 C1278 1.368 1_655 S
C1294 C1290 1.368 . S
C1294 C1293 1.523 . S
H1295 C1270 0.950 . S
H1296 C1272 0.950 . S
H1297 C1273 0.949 . S
H1298 C1275 0.950 . S
H1299 C1277 0.950 . S
C1300 C1301 1.349 . S
C1300 C1302 1.327 . S
C1300 H1325 0.950 . S
C1301 C1300 1.349 . S
C1301 C1317 1.349 . S
C1302 C1300 1.327 . S
C1302 C1321 1.429 . S
C1302 H1326 0.950 . S
C1303 C1320 1.574 1_556 S
C1303 C1322 1.368 . S
C1303 H1327 0.949 . S
H1304 C1308 0.949 . S
C1305 C1306 1.349 . S
C1305 C1307 1.327 . S
C1305 H1328 0.950 . S
C1306 C1305 1.349 . S
C1306 C1318 1.349 . S
C1307 C1305 1.327 . S
C1307 C1323 1.429 . S
C1307 H1329 0.950 . S
C1308 H1304 0.949 . S
C1308 C1316 1.574 1_554 S
C1308 C1324 1.368 . S
H1309 C1317 0.950 . S
H1310 C1315 0.950 . S
H1311 C1316 0.949 . S
H1312 C1318 0.950 . S
H1313 C1319 0.950 . S
H1314 C1320 0.949 . S
C1315 H1310 0.950 . S
C1315 C1317 1.327 . S
C1315 C1321 1.429 . S
C1316 C1308 1.574 1_556 S
C1316 H1311 0.949 . S
C1316 C1322 1.368 . S
C1317 C1301 1.349 . S
C1317 H1309 0.950 . S
C1317 C1315 1.327 . S
C1318 C1306 1.349 . S
C1318 H1312 0.950 . S
C1318 C1319 1.327 . S
C1319 H1313 0.950 . S
C1319 C1318 1.327 . S
C1319 C1323 1.429 . S
C1320 C1303 1.574 1_554 S
C1320 H1314 0.949 . S
C1320 C1324 1.368 . S
C1321 C1302 1.429 . S
C1321 C1315 1.429 . S
C1321 C1322 1.523 . S
C1322 C1303 1.368 . S
C1322 C1316 1.368 . S
C1322 C1321 1.523 . S
C1323 C1307 1.429 . S
C1323 C1319 1.429 . S
C1323 C1324 1.523 . S
C1324 C1308 1.368 . S
C1324 C1320 1.368 . S
C1324 C1323 1.523 . S
H1325 C1300 0.950 . S
H1326 C1302 0.950 . S
H1327 C1303 0.949 . S
H1328 C1305 0.950 . S
H1329 C1307 0.950 . S
C1330 C1331 1.349 . S
C1330 C1332 1.327 . S
C1330 H1355 0.950 . S
C1331 C1330 1.349 . S
C1331 C1347 1.349 . S
C1332 C1330 1.327 . S
C1332 C1351 1.429 . S
C1332 H1356 0.950 . S
C1333 C1350 1.574 . S
C1333 C1352 1.368 . S
C1333 H1357 0.949 . S
H1334 C1338 0.949 . S
C1335 C1336 1.349 . S
C1335 C1337 1.327 . S
C1335 H1358 0.950 . S
C1336 C1335 1.349 . S
C1336 C1348 1.349 . S
C1337 C1335 1.327 . S
C1337 C1353 1.429 . S
C1337 H1359 0.950 . S
C1338 H1334 0.949 . S
C1338 C1346 1.574 . S
C1338 C1354 1.368 . S
H1339 C1347 0.950 . S
H1340 C1345 0.950 . S
H1341 C1346 0.949 . S
H1342 C1348 0.950 . S
H1343 C1349 0.950 . S
H1344 C1350 0.949 . S
C1345 H1340 0.950 . S
C1345 C1347 1.327 . S
C1345 C1351 1.429 . S
C1346 C1338 1.574 . S
C1346 H1341 0.949 . S
C1346 C1352 1.368 . S
C1347 C1331 1.349 . S
C1347 H1339 0.950 . S
C1347 C1345 1.327 . S
C1348 C1336 1.349 . S
C1348 H1342 0.950 . S
C1348 C1349 1.327 . S
C1349 H1343 0.950 . S
C1349 C1348 1.327 . S
C1349 C1353 1.429 . S
C1350 C1333 1.574 . S
C1350 H1344 0.949 . S
C1350 C1354 1.368 . S
C1351 C1332 1.429 . S
C1351 C1345 1.429 . S
C1351 C1352 1.523 . S
C1352 C1333 1.368 . S
C1352 C1346 1.368 . S
C1352 C1351 1.523 . S
C1353 C1337 1.429 . S
C1353 C1349 1.429 . S
C1353 C1354 1.523 . S
C1354 C1338 1.368 . S
C1354 C1350 1.368 . S
C1354 C1353 1.523 . S
H1355 C1330 0.950 . S
H1356 C1332 0.950 . S
H1357 C1333 0.949 . S
H1358 C1335 0.950 . S
H1359 C1337 0.950 . S
C1360 C1361 1.349 . S
C1360 C1362 1.327 . S
C1360 H1385 0.950 . S
C1361 C1360 1.349 . S
C1361 C1377 1.349 . S
C1362 C1360 1.327 . S
C1362 C1381 1.429 . S
C1362 H1386 0.950 . S
C1363 C1380 1.574 . S
C1363 C1382 1.368 . S
C1363 H1387 0.949 . S
H1364 C1368 0.949 . S
C1365 C1366 1.349 . S
C1365 C1367 1.327 . S
C1365 H1388 0.950 . S
C1366 C1365 1.349 . S
C1366 C1378 1.349 . S
C1367 C1365 1.327 . S
C1367 C1383 1.429 . S
C1367 H1389 0.950 . S
C1368 H1364 0.949 . S
C1368 C1376 1.574 . S
C1368 C1384 1.368 . S
H1369 C1377 0.950 . S
H1370 C1375 0.950 . S
H1371 C1376 0.949 . S
H1372 C1378 0.950 . S
H1373 C1379 0.950 . S
H1374 C1380 0.949 . S
C1375 H1370 0.950 . S
C1375 C1377 1.327 . S
C1375 C1381 1.429 . S
C1376 C1368 1.574 . S
C1376 H1371 0.949 . S
C1376 C1382 1.368 . S
C1377 C1361 1.349 . S
C1377 H1369 0.950 . S
C1377 C1375 1.327 . S
C1378 C1366 1.349 . S
C1378 H1372 0.950 . S
C1378 C1379 1.327 . S
C1379 H1373 0.950 . S
C1379 C1378 1.327 . S
C1379 C1383 1.429 . S
C1380 C1363 1.574 . S
C1380 H1374 0.949 . S
C1380 C1384 1.368 . S
C1381 C1362 1.429 . S
C1381 C1375 1.429 . S
C1381 C1382 1.523 . S
C1382 C1363 1.368 . S
C1382 C1376 1.368 . S
C1382 C1381 1.523 . S
C1383 C1367 1.429 . S
C1383 C1379 1.429 . S
C1383 C1384 1.523 . S
C1384 C1368 1.368 . S
C1384 C1380 1.368 . S
C1384 C1383 1.523 . S
H1385 C1360 0.950 . S
H1386 C1362 0.950 . S
H1387 C1363 0.949 . S
H1388 C1365 0.950 . S
H1389 C1367 0.950 . S
C1390 C1391 1.349 . S
C1390 C1392 1.327 . S
C1390 H1415 0.950 . S
C1391 C1390 1.349 . S
C1391 C1407 1.349 . S
C1392 C1390 1.327 . S
C1392 C1411 1.429 . S
C1392 H1416 0.950 . S
C1393 C1410 1.574 . S
C1393 C1412 1.368 1_655 S
C1393 H1417 0.949 . S
H1394 C1398 0.949 . S
C1395 C1396 1.349 . S
C1395 C1397 1.327 . S
C1395 H1418 0.950 . S
C1396 C1395 1.349 . S
C1396 C1408 1.349 . S
C1397 C1395 1.327 . S
C1397 C1413 1.429 . S
C1397 H1419 0.950 . S
C1398 H1394 0.949 . S
C1398 C1406 1.574 . S
C1398 C1414 1.368 1_455 S
H1399 C1407 0.950 . S
H1400 C1405 0.950 . S
H1401 C1406 0.949 . S
H1402 C1408 0.950 . S
H1403 C1409 0.950 . S
H1404 C1410 0.949 . S
C1405 H1400 0.950 . S
C1405 C1407 1.327 . S
C1405 C1411 1.429 . S
C1406 C1398 1.574 . S
C1406 H1401 0.949 . S
C1406 C1412 1.368 . S
C1407 C1391 1.349 . S
C1407 H1399 0.950 . S
C1407 C1405 1.327 . S
C1408 C1396 1.349 . S
C1408 H1402 0.950 . S
C1408 C1409 1.327 . S
C1409 H1403 0.950 . S
C1409 C1408 1.327 . S
C1409 C1413 1.429 . S
C1410 C1393 1.574 . S
C1410 H1404 0.949 . S
C1410 C1414 1.368 . S
C1411 C1392 1.429 . S
C1411 C1405 1.429 . S
C1411 C1412 1.523 . S
C1412 C1393 1.368 1_455 S
C1412 C1406 1.368 . S
C1412 C1411 1.523 . S
C1413 C1397 1.429 . S
C1413 C1409 1.429 . S
C1413 C1414 1.523 . S
C1414 C1398 1.368 1_655 S
C1414 C1410 1.368 . S
C1414 C1413 1.523 . S
H1415 C1390 0.950 . S
H1416 C1392 0.950 . S
H1417 C1393 0.949 . S
H1418 C1395 0.950 . S
H1419 C1397 0.950 . S
C1420 C1421 1.349 . S
C1420 C1422 1.327 . S
C1420 H1445 0.950 . S
C1421 C1420 1.349 . S
C1421 C1437 1.349 . S
C1422 C1420 1.327 . S
C1422 C1441 1.429 . S
C1422 H1446 0.950 . S
C1423 C1440 1.574 . S
C1423 C1442 1.368 . S
C1423 H1447 0.949 . S
H1424 C1428 0.949 . S
C1425 C1426 1.349 . S
C1425 C1427 1.327 . S
C1425 H1448 0.950 . S
C1426 C1425 1.349 . S
C1426 C1438 1.349 . S
C1427 C1425 1.327 . S
C1427 C1443 1.429 . S
C1427 H1449 0.950 . S
C1428 H1424 0.949 . S
C1428 C1436 1.574 . S
C1428 C1444 1.368 . S
H1429 C1437 0.950 . S
H1430 C1435 0.950 . S
H1431 C1436 0.949 . S
H1432 C1438 0.950 . S
H1433 C1439 0.950 . S
H1434 C1440 0.949 . S
C1435 H1430 0.950 . S
C1435 C1437 1.327 . S
C1435 C1441 1.429 . S
C1436 C1428 1.574 . S
C1436 H1431 0.949 . S
C1436 C1442 1.368 . S
C1437 C1421 1.349 . S
C1437 H1429 0.950 . S
C1437 C1435 1.327 . S
C1438 C1426 1.349 . S
C1438 H1432 0.950 . S
C1438 C1439 1.327 . S
C1439 H1433 0.950 . S
C1439 C1438 1.327 . S
C1439 C1443 1.429 . S
C1440 C1423 1.574 . S
C1440 H1434 0.949 . S
C1440 C1444 1.368 . S
C1441 C1422 1.429 . S
C1441 C1435 1.429 . S
C1441 C1442 1.523 . S
C1442 C1423 1.368 . S
C1442 C1436 1.368 . S
C1442 C1441 1.523 . S
C1443 C1427 1.429 . S
C1443 C1439 1.429 . S
C1443 C1444 1.523 . S
C1444 C1428 1.368 . S
C1444 C1440 1.368 . S
C1444 C1443 1.523 . S
H1445 C1420 0.950 . S
H1446 C1422 0.950 . S
H1447 C1423 0.949 . S
H1448 C1425 0.950 . S
H1449 C1427 0.950 . S
C1450 C1451 1.349 . S
C1450 C1452 1.327 . S
C1450 H1475 0.950 . S
C1451 C1450 1.349 . S
C1451 C1467 1.349 . S
C1452 C1450 1.327 . S
C1452 C1471 1.429 . S
C1452 H1476 0.950 . S
C1453 C1470 1.574 . S
C1453 C1472 1.368 . S
C1453 H1477 0.949 . S
H1454 C1458 0.949 . S
C1455 C1456 1.349 . S
C1455 C1457 1.327 . S
C1455 H1478 0.950 . S
C1456 C1455 1.349 . S
C1456 C1468 1.349 . S
C1457 C1455 1.327 . S
C1457 C1473 1.429 . S
C1457 H1479 0.950 . S
C1458 H1454 0.949 . S
C1458 C1466 1.574 . S
C1458 C1474 1.368 . S
H1459 C1467 0.950 . S
H1460 C1465 0.950 . S
H1461 C1466 0.949 . S
H1462 C1468 0.950 . S
H1463 C1469 0.950 . S
H1464 C1470 0.949 . S
C1465 H1460 0.950 . S
C1465 C1467 1.327 . S
C1465 C1471 1.429 . S
C1466 C1458 1.574 . S
C1466 H1461 0.949 . S
C1466 C1472 1.368 . S
C1467 C1451 1.349 . S
C1467 H1459 0.950 . S
C1467 C1465 1.327 . S
C1468 C1456 1.349 . S
C1468 H1462 0.950 . S
C1468 C1469 1.327 . S
C1469 H1463 0.950 . S
C1469 C1468 1.327 . S
C1469 C1473 1.429 . S
C1470 C1453 1.574 . S
C1470 H1464 0.949 . S
C1470 C1474 1.368 . S
C1471 C1452 1.429 . S
C1471 C1465 1.429 . S
C1471 C1472 1.523 . S
C1472 C1453 1.368 . S
C1472 C1466 1.368 . S
C1472 C1471 1.523 . S
C1473 C1457 1.429 . S
C1473 C1469 1.429 . S
C1473 C1474 1.523 . S
C1474 C1458 1.368 . S
C1474 C1470 1.368 . S
C1474 C1473 1.523 . S
H1475 C1450 0.950 . S
H1476 C1452 0.950 . S
H1477 C1453 0.949 . S
H1478 C1455 0.950 . S
H1479 C1457 0.950 . S
C1480 C1481 1.349 . S
C1480 C1482 1.327 . S
C1480 H1505 0.950 . S
C1481 C1480 1.349 . S
C1481 C1497 1.349 . S
C1482 C1480 1.327 . S
C1482 C1501 1.429 . S
C1482 H1506 0.950 . S
C1483 C1500 1.574 . S
C1483 C1502 1.368 . S
C1483 H1507 0.949 . S
H1484 C1488 0.949 . S
C1485 C1486 1.349 . S
C1485 C1487 1.327 . S
C1485 H1508 0.950 . S
C1486 C1485 1.349 . S
C1486 C1498 1.349 . S
C1487 C1485 1.327 . S
C1487 C1503 1.429 . S
C1487 H1509 0.950 . S
C1488 H1484 0.949 . S
C1488 C1496 1.574 . S
C1488 C1504 1.368 . S
H1489 C1497 0.950 . S
H1490 C1495 0.950 . S
H1491 C1496 0.949 . S
H1492 C1498 0.950 . S
H1493 C1499 0.950 . S
H1494 C1500 0.949 . S
C1495 H1490 0.950 . S
C1495 C1497 1.327 . S
C1495 C1501 1.429 . S
C1496 C1488 1.574 . S
C1496 H1491 0.949 . S
C1496 C1502 1.368 . S
C1497 C1481 1.349 . S
C1497 H1489 0.950 . S
C1497 C1495 1.327 . S
C1498 C1486 1.349 . S
C1498 H1492 0.950 . S
C1498 C1499 1.327 . S
C1499 H1493 0.950 . S
C1499 C1498 1.327 . S
C1499 C1503 1.429 . S
C1500 C1483 1.574 . S
C1500 H1494 0.949 . S
C1500 C1504 1.368 . S
C1501 C1482 1.429 . S
C1501 C1495 1.429 . S
C1501 C1502 1.523 . S
C1502 C1483 1.368 . S
C1502 C1496 1.368 . S
C1502 C1501 1.523 . S
C1503 C1487 1.429 . S
C1503 C1499 1.429 . S
C1503 C1504 1.523 . S
C1504 C1488 1.368 . S
C1504 C1500 1.368 . S
C1504 C1503 1.523 . S
H1505 C1480 0.950 . S
H1506 C1482 0.950 . S
H1507 C1483 0.949 . S
H1508 C1485 0.950 . S
H1509 C1487 0.950 . S
C1510 C1511 1.349 . S
C1510 C1512 1.327 . S
C1510 H1535 0.950 . S
C1511 C1510 1.349 . S
C1511 C1527 1.349 1_565 S
C1512 C1510 1.327 . S
C1512 C1531 1.454 . S
C1512 H1536 0.950 . S
C1513 C1530 1.574 . S
C1513 C1532 1.359 1_545 S
C1513 H1537 0.949 . S
H1514 C1518 0.949 . S
C1515 C1516 1.349 . S
C1515 C1517 1.327 . S
C1515 H1538 0.950 . S
C1516 C1515 1.349 . S
C1516 C1528 1.349 1_545 S
C1517 C1515 1.327 . S
C1517 C1533 1.454 . S
C1517 H1539 0.950 . S
C1518 H1514 0.949 . S
C1518 C1526 1.574 . S
C1518 C1534 1.359 1_565 S
H1519 C1527 0.950 . S
H1520 C1525 0.950 . S
H1521 C1526 0.949 . S
H1522 C1528 0.950 . S
H1523 C1529 0.950 . S
H1524 C1530 0.949 . S
C1525 H1520 0.950 . S
C1525 C1527 1.327 . S
C1525 C1531 1.404 1_545 S
C1526 C1518 1.574 . S
C1526 H1521 0.949 . S
C1526 C1532 1.378 . S
C1527 C1511 1.349 1_545 S
C1527 H1519 0.950 . S
C1527 C1525 1.327 . S
C1528 C1516 1.349 1_565 S
C1528 H1522 0.950 . S
C1528 C1529 1.327 . S
C1529 H1523 0.950 . S
C1529 C1528 1.327 . S
C1529 C1533 1.404 1_565 S
C1530 C1513 1.574 . S
C1530 H1524 0.949 . S
C1530 C1534 1.378 . S
C1531 C1512 1.454 . S
C1531 C1525 1.404 1_565 S
C1531 C1532 1.523 . S
C1532 C1513 1.359 1_565 S
C1532 C1526 1.378 . S
C1532 C1531 1.523 . S
C1533 C1517 1.454 . S
C1533 C1529 1.404 1_545 S
C1533 C1534 1.523 . S
C1534 C1518 1.359 1_545 S
C1534 C1530 1.378 . S
C1534 C1533 1.523 . S
H1535 C1510 0.950 . S
H1536 C1512 0.950 . S
H1537 C1513 0.949 . S
H1538 C1515 0.950 . S
H1539 C1517 0.950 . S
C1540 C1541 1.349 . S
C1540 C1542 1.327 . S
C1540 H1565 0.950 . S
C1541 C1540 1.349 . S
C1541 C1557 1.349 . S
C1542 C1540 1.327 . S
C1542 C1561 1.429 . S
C1542 H1566 0.950 . S
C1543 C1560 1.574 . S
C1543 C1562 1.368 . S
C1543 H1567 0.949 . S
H1544 C1548 0.949 . S
C1545 C1546 1.349 . S
C1545 C1547 1.327 . S
C1545 H1568 0.950 . S
C1546 C1545 1.349 . S
C1546 C1558 1.349 . S
C1547 C1545 1.327 . S
C1547 C1563 1.429 . S
C1547 H1569 0.950 . S
C1548 H1544 0.949 . S
C1548 C1556 1.574 . S
C1548 C1564 1.368 . S
H1549 C1557 0.950 . S
H1550 C1555 0.950 . S
H1551 C1556 0.949 . S
H1552 C1558 0.950 . S
H1553 C1559 0.950 . S
H1554 C1560 0.949 . S
C1555 H1550 0.950 . S
C1555 C1557 1.327 . S
C1555 C1561 1.429 . S
C1556 C1548 1.574 . S
C1556 H1551 0.949 . S
C1556 C1562 1.368 . S
C1557 C1541 1.349 . S
C1557 H1549 0.950 . S
C1557 C1555 1.327 . S
C1558 C1546 1.349 . S
C1558 H1552 0.950 . S
C1558 C1559 1.327 . S
C1559 H1553 0.950 . S
C1559 C1558 1.327 . S
C1559 C1563 1.429 . S
C1560 C1543 1.574 . S
C1560 H1554 0.949 . S
C1560 C1564 1.368 . S
C1561 C1542 1.429 . S
C1561 C1555 1.429 . S
C1561 C1562 1.523 . S
C1562 C1543 1.368 . S
C1562 C1556 1.368 . S
C1562 C1561 1.523 . S
C1563 C1547 1.429 . S
C1563 C1559 1.429 . S
C1563 C1564 1.523 . S
C1564 C1548 1.368 . S
C1564 C1560 1.368 . S
C1564 C1563 1.523 . S
H1565 C1540 0.950 . S
H1566 C1542 0.950 . S
H1567 C1543 0.949 . S
H1568 C1545 0.950 . S
H1569 C1547 0.950 . S
C1570 C1571 1.349 . S
C1570 C1572 1.327 . S
C1570 H1595 0.950 . S
C1571 C1570 1.349 . S
C1571 C1587 1.349 . S
C1572 C1570 1.327 . S
C1572 C1591 1.429 . S
C1572 H1596 0.950 . S
C1573 C1590 1.574 1_554 S
C1573 C1592 1.368 . S
C1573 H1597 0.949 . S
H1574 C1578 0.949 . S
C1575 C1576 1.349 . S
C1575 C1577 1.327 . S
C1575 H1598 0.950 . S
C1576 C1575 1.349 . S
C1576 C1588 1.349 . S
C1577 C1575 1.327 . S
C1577 C1593 1.429 . S
C1577 H1599 0.950 . S
C1578 H1574 0.949 . S
C1578 C1586 1.574 1_556 S
C1578 C1594 1.368 . S
H1579 C1587 0.950 . S
H1580 C1585 0.950 . S
H1581 C1586 0.949 . S
H1582 C1588 0.950 . S
H1583 C1589 0.950 . S
H1584 C1590 0.949 . S
C1585 H1580 0.950 . S
C1585 C1587 1.327 . S
C1585 C1591 1.429 . S
C1586 C1578 1.574 1_554 S
C1586 H1581 0.949 . S
C1586 C1592 1.368 . S
C1587 C1571 1.349 . S
C1587 H1579 0.950 . S
C1587 C1585 1.327 . S
C1588 C1576 1.349 . S
C1588 H1582 0.950 . S
C1588 C1589 1.327 . S
C1589 H1583 0.950 . S
C1589 C1588 1.327 . S
C1589 C1593 1.429 . S
C1590 C1573 1.574 1_556 S
C1590 H1584 0.949 . S
C1590 C1594 1.368 . S
C1591 C1572 1.429 . S
C1591 C1585 1.429 . S
C1591 C1592 1.523 . S
C1592 C1573 1.368 . S
C1592 C1586 1.368 . S
C1592 C1591 1.523 . S
C1593 C1577 1.429 . S
C1593 C1589 1.429 . S
C1593 C1594 1.523 . S
C1594 C1578 1.368 . S
C1594 C1590 1.368 . S
C1594 C1593 1.523 . S
H1595 C1570 0.950 . S
H1596 C1572 0.950 . S
H1597 C1573 0.949 . S
H1598 C1575 0.950 . S
H1599 C1577 0.950 . S
C1600 C1601 1.349 . S
C1600 C1602 1.327 . S
C1600 H1625 0.950 . S
C1601 C1600 1.349 . S
C1601 C1617 1.349 1_545 S
C1602 C1600 1.327 . S
C1602 C1621 1.429 . S
C1602 H1626 0.950 . S
C1603 C1620 1.574 . S
C1603 C1622 1.368 1_565 S
C1603 H1627 0.949 . S
H1604 C1608 0.949 . S
C1605 C1606 1.349 1_565 S
C1605 C1607 1.327 . S
C1605 H1628 0.950 . S
C1606 C1605 1.349 1_545 S
C1606 C1618 1.349 . S
C1607 C1605 1.327 . S
C1607 C1623 1.429 1_565 S
C1607 H1629 0.950 . S
C1608 H1604 0.949 . S
C1608 C1616 1.574 . S
C1608 C1624 1.368 . S
H1609 C1617 0.950 . S
H1610 C1615 0.950 . S
H1611 C1616 0.949 . S
H1612 C1618 0.950 . S
H1613 C1619 0.950 . S
H1614 C1620 0.949 . S
C1615 H1610 0.950 . S
C1615 C1617 1.327 . S
C1615 C1621 1.429 1_565 S
C1616 C1608 1.574 . S
C1616 H1611 0.949 . S
C1616 C1622 1.368 . S
C1617 C1601 1.349 1_565 S
C1617 H1609 0.950 . S
C1617 C1615 1.327 . S
C1618 C1606 1.349 . S
C1618 H1612 0.950 . S
C1618 C1619 1.327 . S
C1619 H1613 0.950 . S
C1619 C1618 1.327 . S
C1619 C1623 1.429 . S
C1620 C1603 1.574 . S
C1620 H1614 0.949 . S
C1620 C1624 1.368 1_565 S
C1621 C1602 1.429 . S
C1621 C1615 1.429 1_545 S
C1621 C1622 1.523 . S
C1622 C1603 1.368 1_545 S
C1622 C1616 1.368 . S
C1622 C1621 1.523 . S
C1623 C1607 1.429 1_545 S
C1623 C1619 1.429 . S
C1623 C1624 1.523 . S
C1624 C1608 1.368 . S
C1624 C1620 1.368 1_545 S
C1624 C1623 1.523 . S
H1625 C1600 0.950 . S
H1626 C1602 0.950 . S
H1627 C1603 0.949 . S
H1628 C1605 0.950 . S
H1629 C1607 0.950 . S
C1630 C1631 1.349 . S
C1630 C1632 1.327 . S
C1630 H1655 0.950 . S
C1631 C1630 1.349 . S
C1631 C1647 1.349 . S
C1632 C1630 1.327 . S
C1632 C1651 1.429 . S
C1632 H1656 0.950 . S
C1633 C1650 1.574 . S
C1633 C1652 1.368 . S
C1633 H1657 0.949 . S
H1634 C1638 0.949 . S
C1635 C1636 1.349 . S
C1635 C1637 1.327 . S
C1635 H1658 0.950 . S
C1636 C1635 1.349 . S
C1636 C1648 1.349 . S
C1637 C1635 1.327 . S
C1637 C1653 1.429 . S
C1637 H1659 0.950 . S
C1638 H1634 0.949 . S
C1638 C1646 1.574 . S
C1638 C1654 1.368 . S
H1639 C1647 0.950 . S
H1640 C1645 0.950 . S
H1641 C1646 0.949 . S
H1642 C1648 0.950 . S
H1643 C1649 0.950 . S
H1644 C1650 0.949 . S
C1645 H1640 0.950 . S
C1645 C1647 1.327 . S
C1645 C1651 1.429 . S
C1646 C1638 1.574 . S
C1646 H1641 0.949 . S
C1646 C1652 1.368 . S
C1647 C1631 1.349 . S
C1647 H1639 0.950 . S
C1647 C1645 1.327 . S
C1648 C1636 1.349 . S
C1648 H1642 0.950 . S
C1648 C1649 1.327 . S
C1649 H1643 0.950 . S
C1649 C1648 1.327 . S
C1649 C1653 1.429 . S
C1650 C1633 1.574 . S
C1650 H1644 0.949 . S
C1650 C1654 1.368 . S
C1651 C1632 1.429 . S
C1651 C1645 1.429 . S
C1651 C1652 1.523 . S
C1652 C1633 1.368 . S
C1652 C1646 1.368 . S
C1652 C1651 1.523 . S
C1653 C1637 1.429 . S
C1653 C1649 1.429 . S
C1653 C1654 1.523 . S
C1654 C1638 1.368 . S
C1654 C1650 1.368 . S
C1654 C1653 1.523 . S
H1655 C1630 0.950 . S
H1656 C1632 0.950 . S
H1657 C1633 0.949 . S
H1658 C1635 0.950 . S
H1659 C1637 0.950 . S
C1660 C1661 1.349 . S
C1660 C1662 1.327 . S
C1660 H1685 0.950 . S
C1661 C1660 1.349 . S
C1661 C1677 1.349 . S
C1662 C1660 1.327 . S
C1662 C1681 1.429 . S
C1662 H1686 0.950 . S
C1663 C1680 1.574 . S
C1663 C1682 1.368 . S
C1663 H1687 0.949 . S
H1664 C1668 0.949 . S
C1665 C1666 1.349 . S
C1665 C1667 1.327 . S
C1665 H1688 0.950 . S
C1666 C1665 1.349 . S
C1666 C1678 1.349 . S
C1667 C1665 1.327 . S
C1667 C1683 1.429 . S
C1667 H1689 0.950 . S
C1668 H1664 0.949 . S
C1668 C1676 1.574 . S
C1668 C1684 1.368 . S
H1669 C1677 0.950 . S
H1670 C1675 0.950 . S
H1671 C1676 0.949 . S
H1672 C1678 0.950 . S
H1673 C1679 0.950 . S
H1674 C1680 0.949 . S
C1675 H1670 0.950 . S
C1675 C1677 1.327 . S
C1675 C1681 1.429 . S
C1676 C1668 1.574 . S
C1676 H1671 0.949 . S
C1676 C1682 1.368 . S
C1677 C1661 1.349 . S
C1677 H1669 0.950 . S
C1677 C1675 1.327 . S
C1678 C1666 1.349 . S
C1678 H1672 0.950 . S
C1678 C1679 1.327 . S
C1679 H1673 0.950 . S
C1679 C1678 1.327 . S
C1679 C1683 1.429 . S
C1680 C1663 1.574 . S
C1680 H1674 0.949 . S
C1680 C1684 1.368 . S
C1681 C1662 1.429 . S
C1681 C1675 1.429 . S
C1681 C1682 1.523 . S
C1682 C1663 1.368 . S
C1682 C1676 1.368 . S
C1682 C1681 1.523 . S
C1683 C1667 1.429 . S
C1683 C1679 1.429 . S
C1683 C1684 1.523 . S
C1684 C1668 1.368 . S
C1684 C1680 1.368 . S
C1684 C1683 1.523 . S
H1685 C1660 0.950 . S
H1686 C1662 0.950 . S
H1687 C1663 0.949 . S
H1688 C1665 0.950 . S
H1689 C1667 0.950 . S
C1690 C1691 1.349 . S
C1690 C1692 1.327 . S
C1690 H1715 0.950 . S
C1691 C1690 1.349 . S
C1691 C1707 1.349 1_545 S
C1692 C1690 1.327 . S
C1692 C1711 1.429 . S
C1692 H1716 0.950 . S
C1693 C1710 1.574 . S
C1693 C1712 1.368 1_565 S
C1693 H1717 0.949 . S
H1694 C1698 0.949 . S
C1695 C1696 1.349 1_565 S
C1695 C1697 1.327 . S
C1695 H1718 0.950 . S
C1696 C1695 1.349 1_545 S
C1696 C1708 1.349 . S
C1697 C1695 1.327 . S
C1697 C1713 1.429 1_565 S
C1697 H1719 0.950 . S
C1698 H1694 0.949 . S
C1698 C1706 1.574 . S
C1698 C1714 1.368 . S
H1699 C1707 0.950 . S
H1700 C1705 0.950 . S
H1701 C1706 0.949 . S
H1702 C1708 0.950 . S
H1703 C1709 0.950 . S
H1704 C1710 0.949 . S
C1705 H1700 0.950 . S
C1705 C1707 1.327 . S
C1705 C1711 1.429 1_565 S
C1706 C1698 1.574 . S
C1706 H1701 0.949 . S
C1706 C1712 1.368 . S
C1707 C1691 1.349 1_565 S
C1707 H1699 0.950 . S
C1707 C1705 1.327 . S
C1708 C1696 1.349 . S
C1708 H1702 0.950 . S
C1708 C1709 1.327 . S
C1709 H1703 0.950 . S
C1709 C1708 1.327 . S
C1709 C1713 1.429 . S
C1710 C1693 1.574 . S
C1710 H1704 0.949 . S
C1710 C1714 1.368 1_565 S
C1711 C1692 1.429 . S
C1711 C1705 1.429 1_545 S
C1711 C1712 1.523 . S
C1712 C1693 1.368 1_545 S
C1712 C1706 1.368 . S
C1712 C1711 1.523 . S
C1713 C1697 1.429 1_545 S
C1713 C1709 1.429 . S
C1713 C1714 1.523 . S
C1714 C1698 1.368 . S
C1714 C1710 1.368 1_545 S
C1714 C1713 1.523 . S
H1715 C1690 0.950 . S
H1716 C1692 0.950 . S
H1717 C1693 0.949 . S
H1718 C1695 0.950 . S
H1719 C1697 0.950 . S
C1720 C1721 1.349 1_545 S
C1720 C1722 1.327 . S
C1720 H1745 0.950 . S
C1721 C1720 1.349 1_565 S
C1721 C1737 1.349 . S
C1722 C1720 1.327 . S
C1722 C1741 1.429 1_545 S
C1722 H1746 0.950 . S
C1723 C1740 1.574 . S
C1723 C1742 1.368 . S
C1723 H1747 0.949 . S
H1724 C1728 0.949 . S
C1725 C1726 1.349 . S
C1725 C1727 1.327 . S
C1725 H1748 0.950 . S
C1726 C1725 1.349 . S
C1726 C1738 1.349 1_565 S
C1727 C1725 1.327 . S
C1727 C1743 1.429 . S
C1727 H1749 0.950 . S
C1728 H1724 0.949 . S
C1728 C1736 1.574 . S
C1728 C1744 1.368 1_545 S
H1729 C1737 0.950 . S
H1730 C1735 0.950 . S
H1731 C1736 0.949 . S
H1732 C1738 0.950 . S
H1733 C1739 0.950 . S
H1734 C1740 0.949 . S
C1735 H1730 0.950 . S
C1735 C1737 1.327 . S
C1735 C1741 1.429 . S
C1736 C1728 1.574 . S
C1736 H1731 0.949 . S
C1736 C1742 1.368 1_545 S
C1737 C1721 1.349 . S
C1737 H1729 0.950 . S
C1737 C1735 1.327 . S
C1738 C1726 1.349 1_545 S
C1738 H1732 0.950 . S
C1738 C1739 1.327 . S
C1739 H1733 0.950 . S
C1739 C1738 1.327 . S
C1739 C1743 1.429 1_545 S
C1740 C1723 1.574 . S
C1740 H1734 0.949 . S
C1740 C1744 1.368 . S
C1741 C1722 1.429 1_565 S
C1741 C1735 1.429 . S
C1741 C1742 1.523 . S
C1742 C1723 1.368 . S
C1742 C1736 1.368 1_565 S
C1742 C1741 1.523 . S
C1743 C1727 1.429 . S
C1743 C1739 1.429 1_565 S
C1743 C1744 1.523 . S
C1744 C1728 1.368 1_565 S
C1744 C1740 1.368 . S
C1744 C1743 1.523 . S
H1745 C1720 0.950 . S
H1746 C1722 0.950 . S
H1747 C1723 0.949 . S
H1748 C1725 0.950 . S
H1749 C1727 0.950 . S
C1750 C1751 1.349 . S
C1750 C1752 1.327 . S
C1750 H1775 0.950 . S
C1751 C1750 1.349 . S
C1751 C1767 1.349 . S
C1752 C1750 1.327 . S
C1752 C1771 1.429 . S
C1752 H1776 0.950 . S
C1753 C1770 1.574 . S
C1753 C1772 1.368 . S
C1753 H1777 0.949 . S
H1754 C1758 0.949 . S
C1755 C1756 1.349 . S
C1755 C1757 1.327 . S
C1755 H1778 0.950 . S
C1756 C1755 1.349 . S
C1756 C1768 1.349 . S
C1757 C1755 1.327 . S
C1757 C1773 1.429 . S
C1757 H1779 0.950 . S
C1758 H1754 0.949 . S
C1758 C1766 1.574 . S
C1758 C1774 1.368 . S
H1759 C1767 0.950 . S
H1760 C1765 0.950 . S
H1761 C1766 0.949 . S
H1762 C1768 0.950 . S
H1763 C1769 0.950 . S
H1764 C1770 0.949 . S
C1765 H1760 0.950 . S
C1765 C1767 1.327 . S
C1765 C1771 1.429 . S
C1766 C1758 1.574 . S
C1766 H1761 0.949 . S
C1766 C1772 1.368 . S
C1767 C1751 1.349 . S
C1767 H1759 0.950 . S
C1767 C1765 1.327 . S
C1768 C1756 1.349 . S
C1768 H1762 0.950 . S
C1768 C1769 1.327 . S
C1769 H1763 0.950 . S
C1769 C1768 1.327 . S
C1769 C1773 1.429 . S
C1770 C1753 1.574 . S
C1770 H1764 0.949 . S
C1770 C1774 1.368 . S
C1771 C1752 1.429 . S
C1771 C1765 1.429 . S
C1771 C1772 1.523 . S
C1772 C1753 1.368 . S
C1772 C1766 1.368 . S
C1772 C1771 1.523 . S
C1773 C1757 1.429 . S
C1773 C1769 1.429 . S
C1773 C1774 1.523 . S
C1774 C1758 1.368 . S
C1774 C1770 1.368 . S
C1774 C1773 1.523 . S
H1775 C1750 0.950 . S
H1776 C1752 0.950 . S
H1777 C1753 0.949 . S
H1778 C1755 0.950 . S
H1779 C1757 0.950 . S
C1780 C1781 1.349 . S
C1780 C1782 1.327 . S
C1780 H1805 0.950 . S
C1781 C1780 1.349 . S
C1781 C1797 1.349 . S
C1782 C1780 1.327 . S
C1782 C1801 1.429 . S
C1782 H1806 0.950 . S
C1783 C1800 1.574 . S
C1783 C1802 1.368 . S
C1783 H1807 0.949 . S
H1784 C1788 0.949 . S
C1785 C1786 1.349 . S
C1785 C1787 1.327 . S
C1785 H1808 0.950 . S
C1786 C1785 1.349 . S
C1786 C1798 1.349 . S
C1787 C1785 1.327 . S
C1787 C1803 1.429 . S
C1787 H1809 0.950 . S
C1788 H1784 0.949 . S
C1788 C1796 1.574 . S
C1788 C1804 1.368 . S
H1789 C1797 0.950 . S
H1790 C1795 0.950 . S
H1791 C1796 0.949 . S
H1792 C1798 0.950 . S
H1793 C1799 0.950 . S
H1794 C1800 0.949 . S
C1795 H1790 0.950 . S
C1795 C1797 1.327 . S
C1795 C1801 1.429 . S
C1796 C1788 1.574 . S
C1796 H1791 0.949 . S
C1796 C1802 1.368 . S
C1797 C1781 1.349 . S
C1797 H1789 0.950 . S
C1797 C1795 1.327 . S
C1798 C1786 1.349 . S
C1798 H1792 0.950 . S
C1798 C1799 1.327 . S
C1799 H1793 0.950 . S
C1799 C1798 1.327 . S
C1799 C1803 1.429 . S
C1800 C1783 1.574 . S
C1800 H1794 0.949 . S
C1800 C1804 1.368 . S
C1801 C1782 1.429 . S
C1801 C1795 1.429 . S
C1801 C1802 1.523 . S
C1802 C1783 1.368 . S
C1802 C1796 1.368 . S
C1802 C1801 1.523 . S
C1803 C1787 1.429 . S
C1803 C1799 1.429 . S
C1803 C1804 1.523 . S
C1804 C1788 1.368 . S
C1804 C1800 1.368 . S
C1804 C1803 1.523 . S
H1805 C1780 0.950 . S
H1806 C1782 0.950 . S
H1807 C1783 0.949 . S
H1808 C1785 0.950 . S
H1809 C1787 0.950 . S
C1810 C1811 1.349 1_545 S
C1810 C1812 1.327 . S
C1810 H1835 0.950 . S
C1811 C1810 1.349 1_565 S
C1811 C1827 1.349 . S
C1812 C1810 1.327 . S
C1812 C1831 1.429 1_545 S
C1812 H1836 0.950 . S
C1813 C1830 1.574 . S
C1813 C1832 1.368 . S
C1813 H1837 0.949 . S
H1814 C1818 0.949 . S
C1815 C1816 1.349 . S
C1815 C1817 1.327 . S
C1815 H1838 0.950 . S
C1816 C1815 1.349 . S
C1816 C1828 1.349 1_565 S
C1817 C1815 1.327 . S
C1817 C1833 1.429 . S
C1817 H1839 0.950 . S
C1818 H1814 0.949 . S
C1818 C1826 1.574 . S
C1818 C1834 1.368 1_545 S
H1819 C1827 0.950 . S
H1820 C1825 0.950 . S
H1821 C1826 0.949 . S
H1822 C1828 0.950 . S
H1823 C1829 0.950 . S
H1824 C1830 0.949 . S
C1825 H1820 0.950 . S
C1825 C1827 1.327 . S
C1825 C1831 1.429 . S
C1826 C1818 1.574 . S
C1826 H1821 0.949 . S
C1826 C1832 1.368 1_545 S
C1827 C1811 1.349 . S
C1827 H1819 0.950 . S
C1827 C1825 1.327 . S
C1828 C1816 1.349 1_545 S
C1828 H1822 0.950 . S
C1828 C1829 1.327 . S
C1829 H1823 0.950 . S
C1829 C1828 1.327 . S
C1829 C1833 1.429 1_545 S
C1830 C1813 1.574 . S
C1830 H1824 0.949 . S
C1830 C1834 1.368 . S
C1831 C1812 1.429 1_565 S
C1831 C1825 1.429 . S
C1831 C1832 1.523 . S
C1832 C1813 1.368 . S
C1832 C1826 1.368 1_565 S
C1832 C1831 1.523 . S
C1833 C1817 1.429 . S
C1833 C1829 1.429 1_565 S
C1833 C1834 1.523 . S
C1834 C1818 1.368 1_565 S
C1834 C1830 1.368 . S
C1834 C1833 1.523 . S
H1835 C1810 0.950 . S
H1836 C1812 0.950 . S
H1837 C1813 0.949 . S
H1838 C1815 0.950 . S
H1839 C1817 0.950 . S
C1840 C1841 1.349 . S
C1840 C1842 1.327 . S
C1840 H1865 0.950 . S
C1841 C1840 1.349 . S
C1841 C1857 1.349 . S
C1842 C1840 1.327 . S
C1842 C1861 1.429 . S
C1842 H1866 0.950 . S
C1843 C1860 1.574 . S
C1843 C1862 1.368 . S
C1843 H1867 0.949 . S
H1844 C1848 0.949 . S
C1845 C1846 1.349 . S
C1845 C1847 1.327 . S
C1845 H1868 0.950 . S
C1846 C1845 1.349 . S
C1846 C1858 1.349 . S
C1847 C1845 1.327 . S
C1847 C1863 1.429 . S
C1847 H1869 0.950 . S
C1848 H1844 0.949 . S
C1848 C1856 1.574 . S
C1848 C1864 1.368 . S
H1849 C1857 0.950 . S
H1850 C1855 0.950 . S
H1851 C1856 0.949 . S
H1852 C1858 0.950 . S
H1853 C1859 0.950 . S
H1854 C1860 0.949 . S
C1855 H1850 0.950 . S
C1855 C1857 1.327 . S
C1855 C1861 1.429 . S
C1856 C1848 1.574 . S
C1856 H1851 0.949 . S
C1856 C1862 1.368 . S
C1857 C1841 1.349 . S
C1857 H1849 0.950 . S
C1857 C1855 1.327 . S
C1858 C1846 1.349 . S
C1858 H1852 0.950 . S
C1858 C1859 1.327 . S
C1859 H1853 0.950 . S
C1859 C1858 1.327 . S
C1859 C1863 1.429 . S
C1860 C1843 1.574 . S
C1860 H1854 0.949 . S
C1860 C1864 1.368 . S
C1861 C1842 1.429 . S
C1861 C1855 1.429 . S
C1861 C1862 1.523 . S
C1862 C1843 1.368 . S
C1862 C1856 1.368 . S
C1862 C1861 1.523 . S
C1863 C1847 1.429 . S
C1863 C1859 1.429 . S
C1863 C1864 1.523 . S
C1864 C1848 1.368 . S
C1864 C1860 1.368 . S
C1864 C1863 1.523 . S
H1865 C1840 0.950 . S
H1866 C1842 0.950 . S
H1867 C1843 0.949 . S
H1868 C1845 0.950 . S
H1869 C1847 0.950 . S
C1870 C1871 1.349 . S
C1870 C1872 1.327 . S
C1870 H1895 0.950 . S
C1871 C1870 1.349 . S
C1871 C1887 1.349 . S
C1872 C1870 1.327 . S
C1872 C1891 1.429 . S
C1872 H1896 0.950 . S
C1873 C1890 1.574 . S
C1873 C1892 1.368 . S
C1873 H1897 0.949 . S
H1874 C1878 0.949 . S
C1875 C1876 1.349 . S
C1875 C1877 1.327 . S
C1875 H1898 0.950 . S
C1876 C1875 1.349 . S
C1876 C1888 1.349 . S
C1877 C1875 1.327 . S
C1877 C1893 1.429 . S
C1877 H1899 0.950 . S
C1878 H1874 0.949 . S
C1878 C1886 1.574 . S
C1878 C1894 1.368 . S
H1879 C1887 0.950 . S
H1880 C1885 0.950 . S
H1881 C1886 0.949 . S
H1882 C1888 0.950 . S
H1883 C1889 0.950 . S
H1884 C1890 0.949 . S
C1885 H1880 0.950 . S
C1885 C1887 1.327 . S
C1885 C1891 1.429 . S
C1886 C1878 1.574 . S
C1886 H1881 0.949 . S
C1886 C1892 1.368 . S
C1887 C1871 1.349 . S
C1887 H1879 0.950 . S
C1887 C1885 1.327 . S
C1888 C1876 1.349 . S
C1888 H1882 0.950 . S
C1888 C1889 1.327 . S
C1889 H1883 0.950 . S
C1889 C1888 1.327 . S
C1889 C1893 1.429 . S
C1890 C1873 1.574 . S
C1890 H1884 0.949 . S
C1890 C1894 1.368 . S
C1891 C1872 1.429 . S
C1891 C1885 1.429 . S
C1891 C1892 1.523 . S
C1892 C1873 1.368 . S
C1892 C1886 1.368 . S
C1892 C1891 1.523 . S
C1893 C1877 1.429 . S
C1893 C1889 1.429 . S
C1893 C1894 1.523 . S
C1894 C1878 1.368 . S
C1894 C1890 1.368 . S
C1894 C1893 1.523 . S
H1895 C1870 0.950 . S
H1896 C1872 0.950 . S
H1897 C1873 0.949 . S
H1898 C1875 0.950 . S
H1899 C1877 0.950 . S
C1900 C1901 1.349 . S
C1900 C1902 1.327 . S
C1900 H1925 0.950 . S
C1901 C1900 1.349 . S
C1901 C1917 1.349 . S
C1902 C1900 1.327 . S
C1902 C1921 1.429 . S
C1902 H1926 0.950 . S
C1903 C1920 1.574 . S
C1903 C1922 1.368 . S
C1903 H1927 0.949 . S
H1904 C1908 0.949 . S
C1905 C1906 1.349 . S
C1905 C1907 1.327 . S
C1905 H1928 0.950 . S
C1906 C1905 1.349 . S
C1906 C1918 1.349 . S
C1907 C1905 1.327 . S
C1907 C1923 1.429 . S
C1907 H1929 0.950 . S
C1908 H1904 0.949 . S
C1908 C1916 1.574 . S
C1908 C1924 1.368 . S
H1909 C1917 0.950 . S
H1910 C1915 0.950 . S
H1911 C1916 0.949 . S
H1912 C1918 0.950 . S
H1913 C1919 0.950 . S
H1914 C1920 0.949 . S
C1915 H1910 0.950 . S
C1915 C1917 1.327 . S
C1915 C1921 1.429 . S
C1916 C1908 1.574 . S
C1916 H1911 0.949 . S
C1916 C1922 1.368 . S
C1917 C1901 1.349 . S
C1917 H1909 0.950 . S
C1917 C1915 1.327 . S
C1918 C1906 1.349 . S
C1918 H1912 0.950 . S
C1918 C1919 1.327 . S
C1919 H1913 0.950 . S
C1919 C1918 1.327 . S
C1919 C1923 1.429 . S
C1920 C1903 1.574 . S
C1920 H1914 0.949 . S
C1920 C1924 1.368 . S
C1921 C1902 1.429 . S
C1921 C1915 1.429 . S
C1921 C1922 1.523 . S
C1922 C1903 1.368 . S
C1922 C1916 1.368 . S
C1922 C1921 1.523 . S
C1923 C1907 1.429 . S
C1923 C1919 1.429 . S
C1923 C1924 1.523 . S
C1924 C1908 1.368 . S
C1924 C1920 1.368 . S
C1924 C1923 1.523 . S
H1925 C1900 0.950 . S
H1926 C1902 0.950 . S
H1927 C1903 0.949 . S
H1928 C1905 0.950 . S
H1929 C1907 0.950 . S
C1930 C1931 1.349 . S
C1930 C1932 1.327 . S
C1930 H1955 0.950 . S
C1931 C1930 1.349 . S
C1931 C1947 1.349 . S
C1932 C1930 1.327 . S
C1932 C1951 1.429 . S
C1932 H1956 0.950 . S
C1933 C1950 1.574 . S
C1933 C1952 1.368 . S
C1933 H1957 0.949 . S
H1934 C1938 0.949 . S
C1935 C1936 1.349 . S
C1935 C1937 1.327 . S
C1935 H1958 0.950 . S
C1936 C1935 1.349 . S
C1936 C1948 1.349 . S
C1937 C1935 1.327 . S
C1937 C1953 1.429 . S
C1937 H1959 0.950 . S
C1938 H1934 0.949 . S
C1938 C1946 1.574 . S
C1938 C1954 1.368 . S
H1939 C1947 0.950 . S
H1940 C1945 0.950 . S
H1941 C1946 0.949 . S
H1942 C1948 0.950 . S
H1943 C1949 0.950 . S
H1944 C1950 0.949 . S
C1945 H1940 0.950 . S
C1945 C1947 1.327 . S
C1945 C1951 1.429 . S
C1946 C1938 1.574 . S
C1946 H1941 0.949 . S
C1946 C1952 1.368 . S
C1947 C1931 1.349 . S
C1947 H1939 0.950 . S
C1947 C1945 1.327 . S
C1948 C1936 1.349 . S
C1948 H1942 0.950 . S
C1948 C1949 1.327 . S
C1949 H1943 0.950 . S
C1949 C1948 1.327 . S
C1949 C1953 1.429 . S
C1950 C1933 1.574 . S
C1950 H1944 0.949 . S
C1950 C1954 1.368 . S
C1951 C1932 1.429 . S
C1951 C1945 1.429 . S
C1951 C1952 1.523 . S
C1952 C1933 1.368 . S
C1952 C1946 1.368 . S
C1952 C1951 1.523 . S
C1953 C1937 1.429 . S
C1953 C1949 1.429 . S
C1953 C1954 1.523 . S
C1954 C1938 1.368 . S
C1954 C1950 1.368 . S
C1954 C1953 1.523 . S
H1955 C1930 0.950 . S
H1956 C1932 0.950 . S
H1957 C1933 0.949 . S
H1958 C1935 0.950 . S
H1959 C1937 0.950 . S
C1960 C1961 1.349 . S
C1960 C1962 1.327 . S
C1960 H1985 0.950 . S
C1961 C1960 1.349 . S
C1961 C1977 1.349 . S
C1962 C1960 1.327 . S
C1962 C1981 1.429 . S
C1962 H1986 0.950 . S
C1963 C1980 1.574 . S
C1963 C1982 1.368 . S
C1963 H1987 0.949 . S
H1964 C1968 0.949 . S
C1965 C1966 1.349 . S
C1965 C1967 1.327 . S
C1965 H1988 0.950 . S
C1966 C1965 1.349 . S
C1966 C1978 1.349 . S
C1967 C1965 1.327 . S
C1967 C1983 1.429 . S
C1967 H1989 0.950 . S
C1968 H1964 0.949 . S
C1968 C1976 1.574 . S
C1968 C1984 1.368 . S
H1969 C1977 0.950 . S
H1970 C1975 0.950 . S
H1971 C1976 0.949 . S
H1972 C1978 0.950 . S
H1973 C1979 0.950 . S
H1974 C1980 0.949 . S
C1975 H1970 0.950 . S
C1975 C1977 1.327 . S
C1975 C1981 1.429 . S
C1976 C1968 1.574 . S
C1976 H1971 0.949 . S
C1976 C1982 1.368 . S
C1977 C1961 1.349 . S
C1977 H1969 0.950 . S
C1977 C1975 1.327 . S
C1978 C1966 1.349 . S
C1978 H1972 0.950 . S
C1978 C1979 1.327 . S
C1979 H1973 0.950 . S
C1979 C1978 1.327 . S
C1979 C1983 1.429 . S
C1980 C1963 1.574 . S
C1980 H1974 0.949 . S
C1980 C1984 1.368 . S
C1981 C1962 1.429 . S
C1981 C1975 1.429 . S
C1981 C1982 1.523 . S
C1982 C1963 1.368 . S
C1982 C1976 1.368 . S
C1982 C1981 1.523 . S
C1983 C1967 1.429 . S
C1983 C1979 1.429 . S
C1983 C1984 1.523 . S
C1984 C1968 1.368 . S
C1984 C1980 1.368 . S
C1984 C1983 1.523 . S
H1985 C1960 0.950 . S
H1986 C1962 0.950 . S
H1987 C1963 0.949 . S
H1988 C1965 0.950 . S
H1989 C1967 0.950 . S
C1990 C1991 1.349 . S
C1990 C1992 1.327 . S
C1990 H2015 0.950 . S
C1991 C1990 1.349 . S
C1991 C2007 1.349 . S
C1992 C1990 1.327 . S
C1992 C2011 1.429 . S
C1992 H2016 0.950 . S
C1993 C2010 1.574 . S
C1993 C2012 1.368 . S
C1993 H2017 0.949 . S
H1994 C1998 0.949 . S
C1995 C1996 1.349 . S
C1995 C1997 1.327 . S
C1995 H2018 0.950 . S
C1996 C1995 1.349 . S
C1996 C2008 1.349 . S
C1997 C1995 1.327 . S
C1997 C2013 1.429 . S
C1997 H2019 0.950 . S
C1998 H1994 0.949 . S
C1998 C2006 1.574 . S
C1998 C2014 1.368 . S
H1999 C2007 0.950 . S
H2000 C2005 0.950 . S
H2001 C2006 0.949 . S
H2002 C2008 0.950 . S
H2003 C2009 0.950 . S
H2004 C2010 0.949 . S
C2005 H2000 0.950 . S
C2005 C2007 1.327 . S
C2005 C2011 1.429 . S
C2006 C1998 1.574 . S
C2006 H2001 0.949 . S
C2006 C2012 1.368 . S
C2007 C1991 1.349 . S
C2007 H1999 0.950 . S
C2007 C2005 1.327 . S
C2008 C1996 1.349 . S
C2008 H2002 0.950 . S
C2008 C2009 1.327 . S
C2009 H2003 0.950 . S
C2009 C2008 1.327 . S
C2009 C2013 1.429 . S
C2010 C1993 1.574 . S
C2010 H2004 0.949 . S
C2010 C2014 1.368 . S
C2011 C1992 1.429 . S
C2011 C2005 1.429 . S
C2011 C2012 1.523 . S
C2012 C1993 1.368 . S
C2012 C2006 1.368 . S
C2012 C2011 1.523 . S
C2013 C1997 1.429 . S
C2013 C2009 1.429 . S
C2013 C2014 1.523 . S
C2014 C1998 1.368 . S
C2014 C2010 1.368 . S
C2014 C2013 1.523 . S
H2015 C1990 0.950 . S
H2016 C1992 0.950 . S
H2017 C1993 0.949 . S
H2018 C1995 0.950 . S
H2019 C1997 0.950 . S
C2020 C2021 1.349 . S
C2020 C2022 1.327 . S
C2020 H2045 0.950 . S
C2021 C2020 1.349 . S
C2021 C2037 1.349 . S
C2022 C2020 1.327 . S
C2022 C2041 1.429 . S
C2022 H2046 0.950 . S
C2023 C2040 1.574 . S
C2023 C2042 1.368 . S
C2023 H2047 0.949 . S
H2024 C2028 0.949 . S
C2025 C2026 1.349 . S
C2025 C2027 1.327 . S
C2025 H2048 0.950 . S
C2026 C2025 1.349 . S
C2026 C2038 1.349 . S
C2027 C2025 1.327 . S
C2027 C2043 1.429 . S
C2027 H2049 0.950 . S
C2028 H2024 0.949 . S
C2028 C2036 1.574 . S
C2028 C2044 1.368 . S
H2029 C2037 0.950 . S
H2030 C2035 0.950 . S
H2031 C2036 0.949 . S
H2032 C2038 0.950 . S
H2033 C2039 0.950 . S
H2034 C2040 0.949 . S
C2035 H2030 0.950 . S
C2035 C2037 1.327 . S
C2035 C2041 1.429 . S
C2036 C2028 1.574 . S
C2036 H2031 0.949 . S
C2036 C2042 1.368 . S
C2037 C2021 1.349 . S
C2037 H2029 0.950 . S
C2037 C2035 1.327 . S
C2038 C2026 1.349 . S
C2038 H2032 0.950 . S
C2038 C2039 1.327 . S
C2039 H2033 0.950 . S
C2039 C2038 1.327 . S
C2039 C2043 1.429 . S
C2040 C2023 1.574 . S
C2040 H2034 0.949 . S
C2040 C2044 1.368 . S
C2041 C2022 1.429 . S
C2041 C2035 1.429 . S
C2041 C2042 1.523 . S
C2042 C2023 1.368 . S
C2042 C2036 1.368 . S
C2042 C2041 1.523 . S
C2043 C2027 1.429 . S
C2043 C2039 1.429 . S
C2043 C2044 1.523 . S
C2044 C2028 1.368 . S
C2044 C2040 1.368 . S
C2044 C2043 1.523 . S
H2045 C2020 0.950 . S
H2046 C2022 0.950 . S
H2047 C2023 0.949 . S
H2048 C2025 0.950 . S
H2049 C2027 0.950 . S
C2050 C2051 1.349 . S
C2050 C2052 1.327 . S
C2050 H2075 0.950 . S
C2051 C2050 1.349 . S
C2051 C2067 1.349 . S
C2052 C2050 1.327 . S
C2052 C2071 1.429 . S
C2052 H2076 0.950 . S
C2053 C2070 1.574 . S
C2053 C2072 1.368 . S
C2053 H2077 0.949 . S
H2054 C2058 0.949 . S
C2055 C2056 1.349 . S
C2055 C2057 1.327 . S
C2055 H2078 0.950 . S
C2056 C2055 1.349 . S
C2056 C2068 1.349 . S
C2057 C2055 1.327 . S
C2057 C2073 1.429 . S
C2057 H2079 0.950 . S
C2058 H2054 0.949 . S
C2058 C2066 1.574 . S
C2058 C2074 1.368 . S
H2059 C2067 0.950 . S
H2060 C2065 0.950 . S
H2061 C2066 0.949 . S
H2062 C2068 0.950 . S
H2063 C2069 0.950 . S
H2064 C2070 0.949 . S
C2065 H2060 0.950 . S
C2065 C2067 1.327 . S
C2065 C2071 1.429 . S
C2066 C2058 1.574 . S
C2066 H2061 0.949 . S
C2066 C2072 1.368 . S
C2067 C2051 1.349 . S
C2067 H2059 0.950 . S
C2067 C2065 1.327 . S
C2068 C2056 1.349 . S
C2068 H2062 0.950 . S
C2068 C2069 1.327 . S
C2069 H2063 0.950 . S
C2069 C2068 1.327 . S
C2069 C2073 1.429 . S
C2070 C2053 1.574 . S
C2070 H2064 0.949 . S
C2070 C2074 1.368 . S
C2071 C2052 1.429 . S
C2071 C2065 1.429 . S
C2071 C2072 1.523 . S
C2072 C2053 1.368 . S
C2072 C2066 1.368 . S
C2072 C2071 1.523 . S
C2073 C2057 1.429 . S
C2073 C2069 1.429 . S
C2073 C2074 1.523 . S
C2074 C2058 1.368 . S
C2074 C2070 1.368 . S
C2074 C2073 1.523 . S
H2075 C2050 0.950 . S
H2076 C2052 0.950 . S
H2077 C2053 0.949 . S
H2078 C2055 0.950 . S
H2079 C2057 0.950 . S
C2080 C2081 1.349 . S
C2080 C2082 1.327 . S
C2080 H2105 0.950 . S
C2081 C2080 1.349 . S
C2081 C2097 1.349 . S
C2082 C2080 1.327 . S
C2082 C2101 1.429 . S
C2082 H2106 0.950 . S
C2083 C2100 1.574 . S
C2083 C2102 1.368 . S
C2083 H2107 0.949 . S
H2084 C2088 0.949 . S
C2085 C2086 1.349 . S
C2085 C2087 1.327 . S
C2085 H2108 0.950 . S
C2086 C2085 1.349 . S
C2086 C2098 1.349 . S
C2087 C2085 1.327 . S
C2087 C2103 1.429 . S
C2087 H2109 0.950 . S
C2088 H2084 0.949 . S
C2088 C2096 1.574 . S
C2088 C2104 1.368 . S
H2089 C2097 0.950 . S
H2090 C2095 0.950 . S
H2091 C2096 0.949 . S
H2092 C2098 0.950 . S
H2093 C2099 0.950 . S
H2094 C2100 0.949 . S
C2095 H2090 0.950 . S
C2095 C2097 1.327 . S
C2095 C2101 1.429 . S
C2096 C2088 1.574 . S
C2096 H2091 0.949 . S
C2096 C2102 1.368 . S
C2097 C2081 1.349 . S
C2097 H2089 0.950 . S
C2097 C2095 1.327 . S
C2098 C2086 1.349 . S
C2098 H2092 0.950 . S
C2098 C2099 1.327 . S
C2099 H2093 0.950 . S
C2099 C2098 1.327 . S
C2099 C2103 1.429 . S
C2100 C2083 1.574 . S
C2100 H2094 0.949 . S
C2100 C2104 1.368 . S
C2101 C2082 1.429 . S
C2101 C2095 1.429 . S
C2101 C2102 1.523 . S
C2102 C2083 1.368 . S
C2102 C2096 1.368 . S
C2102 C2101 1.523 . S
C2103 C2087 1.429 . S
C2103 C2099 1.429 . S
C2103 C2104 1.523 . S
C2104 C2088 1.368 . S
C2104 C2100 1.368 . S
C2104 C2103 1.523 . S
H2105 C2080 0.950 . S
H2106 C2082 0.950 . S
H2107 C2083 0.949 . S
H2108 C2085 0.950 . S
H2109 C2087 0.950 . S
C2110 C2111 1.349 . S
C2110 C2112 1.327 . S
C2110 H2135 0.950 . S
C2111 C2110 1.349 . S
C2111 C2127 1.349 . S
C2112 C2110 1.327 . S
C2112 C2131 1.429 . S
C2112 H2136 0.950 . S
C2113 C2130 1.574 . S
C2113 C2132 1.368 . S
C2113 H2137 0.949 . S
H2114 C2118 0.949 . S
C2115 C2116 1.349 . S
C2115 C2117 1.327 . S
C2115 H2138 0.950 . S
C2116 C2115 1.349 . S
C2116 C2128 1.349 . S
C2117 C2115 1.327 . S
C2117 C2133 1.429 . S
C2117 H2139 0.950 . S
C2118 H2114 0.949 . S
C2118 C2126 1.574 . S
C2118 C2134 1.368 . S
H2119 C2127 0.950 . S
H2120 C2125 0.950 . S
H2121 C2126 0.949 . S
H2122 C2128 0.950 . S
H2123 C2129 0.950 . S
H2124 C2130 0.949 . S
C2125 H2120 0.950 . S
C2125 C2127 1.327 . S
C2125 C2131 1.429 . S
C2126 C2118 1.574 . S
C2126 H2121 0.949 . S
C2126 C2132 1.368 . S
C2127 C2111 1.349 . S
C2127 H2119 0.950 . S
C2127 C2125 1.327 . S
C2128 C2116 1.349 . S
C2128 H2122 0.950 . S
C2128 C2129 1.327 . S
C2129 H2123 0.950 . S
C2129 C2128 1.327 . S
C2129 C2133 1.429 . S
C2130 C2113 1.574 . S
C2130 H2124 0.949 . S
C2130 C2134 1.368 . S
C2131 C2112 1.429 . S
C2131 C2125 1.429 . S
C2131 C2132 1.523 . S
C2132 C2113 1.368 . S
C2132 C2126 1.368 . S
C2132 C2131 1.523 . S
C2133 C2117 1.429 . S
C2133 C2129 1.429 . S
C2133 C2134 1.523 . S
C2134 C2118 1.368 . S
C2134 C2130 1.368 . S
C2134 C2133 1.523 . S
H2135 C2110 0.950 . S
H2136 C2112 0.950 . S
H2137 C2113 0.949 . S
H2138 C2115 0.950 . S
H2139 C2117 0.950 . S
C2140 C2141 1.349 . S
C2140 C2142 1.327 . S
C2140 H2165 0.950 . S
C2141 C2140 1.349 . S
C2141 C2157 1.349 . S
C2142 C2140 1.327 . S
C2142 C2161 1.429 . S
C2142 H2166 0.950 . S
C2143 C2160 1.574 . S
C2143 C2162 1.368 . S
C2143 H2167 0.949 . S
H2144 C2148 0.949 . S
C2145 C2146 1.349 . S
C2145 C2147 1.327 . S
C2145 H2168 0.950 . S
C2146 C2145 1.349 . S
C2146 C2158 1.349 . S
C2147 C2145 1.327 . S
C2147 C2163 1.429 . S
C2147 H2169 0.950 . S
C2148 H2144 0.949 . S
C2148 C2156 1.574 . S
C2148 C2164 1.368 . S
H2149 C2157 0.950 . S
H2150 C2155 0.950 . S
H2151 C2156 0.949 . S
H2152 C2158 0.950 . S
H2153 C2159 0.950 . S
H2154 C2160 0.949 . S
C2155 H2150 0.950 . S
C2155 C2157 1.327 . S
C2155 C2161 1.429 . S
C2156 C2148 1.574 . S
C2156 H2151 0.949 . S
C2156 C2162 1.368 . S
C2157 C2141 1.349 . S
C2157 H2149 0.950 . S
C2157 C2155 1.327 . S
C2158 C2146 1.349 . S
C2158 H2152 0.950 . S
C2158 C2159 1.327 . S
C2159 H2153 0.950 . S
C2159 C2158 1.327 . S
C2159 C2163 1.429 . S
C2160 C2143 1.574 . S
C2160 H2154 0.949 . S
C2160 C2164 1.368 . S
C2161 C2142 1.429 . S
C2161 C2155 1.429 . S
C2161 C2162 1.523 . S
C2162 C2143 1.368 . S
C2162 C2156 1.368 . S
C2162 C2161 1.523 . S
C2163 C2147 1.429 . S
C2163 C2159 1.429 . S
C2163 C2164 1.523 . S
C2164 C2148 1.368 . S
C2164 C2160 1.368 . S
C2164 C2163 1.523 . S
H2165 C2140 0.950 . S
H2166 C2142 0.950 . S
H2167 C2143 0.949 . S
H2168 C2145 0.950 . S
H2169 C2147 0.950 . S
C2170 C2171 1.349 . S
C2170 C2172 1.327 . S
C2170 H2195 0.950 . S
C2171 C2170 1.349 . S
C2171 C2187 1.349 . S
C2172 C2170 1.327 . S
C2172 C2191 1.429 . S
C2172 H2196 0.950 . S
C2173 C2190 1.574 . S
C2173 C2192 1.368 . S
C2173 H2197 0.949 . S
H2174 C2178 0.949 . S
C2175 C2176 1.349 . S
C2175 C2177 1.327 . S
C2175 H2198 0.950 . S
C2176 C2175 1.349 . S
C2176 C2188 1.349 . S
C2177 C2175 1.327 . S
C2177 C2193 1.429 . S
C2177 H2199 0.950 . S
C2178 H2174 0.949 . S
C2178 C2186 1.574 . S
C2178 C2194 1.368 . S
H2179 C2187 0.950 . S
H2180 C2185 0.950 . S
H2181 C2186 0.949 . S
H2182 C2188 0.950 . S
H2183 C2189 0.950 . S
H2184 C2190 0.949 . S
C2185 H2180 0.950 . S
C2185 C2187 1.327 . S
C2185 C2191 1.429 . S
C2186 C2178 1.574 . S
C2186 H2181 0.949 . S
C2186 C2192 1.368 . S
C2187 C2171 1.349 . S
C2187 H2179 0.950 . S
C2187 C2185 1.327 . S
C2188 C2176 1.349 . S
C2188 H2182 0.950 . S
C2188 C2189 1.327 . S
C2189 H2183 0.950 . S
C2189 C2188 1.327 . S
C2189 C2193 1.429 . S
C2190 C2173 1.574 . S
C2190 H2184 0.949 . S
C2190 C2194 1.368 . S
C2191 C2172 1.429 . S
C2191 C2185 1.429 . S
C2191 C2192 1.523 . S
C2192 C2173 1.368 . S
C2192 C2186 1.368 . S
C2192 C2191 1.523 . S
C2193 C2177 1.429 . S
C2193 C2189 1.429 . S
C2193 C2194 1.523 . S
C2194 C2178 1.368 . S
C2194 C2190 1.368 . S
C2194 C2193 1.523 . S
H2195 C2170 0.950 . S
H2196 C2172 0.950 . S
H2197 C2173 0.949 . S
H2198 C2175 0.950 . S
H2199 C2177 0.950 . S
C2200 C2201 1.349 . S
C2200 C2202 1.327 . S
C2200 H2225 0.950 . S
C2201 C2200 1.349 . S
C2201 C2217 1.349 . S
C2202 C2200 1.327 . S
C2202 C2221 1.429 . S
C2202 H2226 0.950 . S
C2203 C2220 1.574 . S
C2203 C2222 1.368 . S
C2203 H2227 0.949 . S
H2204 C2208 0.949 . S
C2205 C2206 1.349 . S
C2205 C2207 1.327 . S
C2205 H2228 0.950 . S
C2206 C2205 1.349 . S
C2206 C2218 1.349 . S
C2207 C2205 1.327 . S
C2207 C2223 1.429 . S
C2207 H2229 0.950 . S
C2208 H2204 0.949 . S
C2208 C2216 1.574 . S
C2208 C2224 1.368 . S
H2209 C2217 0.950 . S
H2210 C2215 0.950 . S
H2211 C2216 0.949 . S
H2212 C2218 0.950 . S
H2213 C2219 0.950 . S
H2214 C2220 0.949 . S
C2215 H2210 0.950 . S
C2215 C2217 1.327 . S
C2215 C2221 1.429 . S
C2216 C2208 1.574 . S
C2216 H2211 0.949 . S
C2216 C2222 1.368 . S
C2217 C2201 1.349 . S
C2217 H2209 0.950 . S
C2217 C2215 1.327 . S
C2218 C2206 1.349 . S
C2218 H2212 0.950 . S
C2218 C2219 1.327 . S
C2219 H2213 0.950 . S
C2219 C2218 1.327 . S
C2219 C2223 1.429 . S
C2220 C2203 1.574 . S
C2220 H2214 0.949 . S
C2220 C2224 1.368 . S
C2221 C2202 1.429 . S
C2221 C2215 1.429 . S
C2221 C2222 1.523 . S
C2222 C2203 1.368 . S
C2222 C2216 1.368 . S
C2222 C2221 1.523 . S
C2223 C2207 1.429 . S
C2223 C2219 1.429 . S
C2223 C2224 1.523 . S
C2224 C2208 1.368 . S
C2224 C2220 1.368 . S
C2224 C2223 1.523 . S
H2225 C2200 0.950 . S
H2226 C2202 0.950 . S
H2227 C2203 0.949 . S
H2228 C2205 0.950 . S
H2229 C2207 0.950 . S
C2230 C2231 1.349 . S
C2230 C2232 1.327 . S
C2230 H2255 0.950 . S
C2231 C2230 1.349 . S
C2231 C2247 1.349 . S
C2232 C2230 1.327 . S
C2232 C2251 1.429 . S
C2232 H2256 0.950 . S
C2233 C2250 1.574 . S
C2233 C2252 1.368 . S
C2233 H2257 0.949 . S
H2234 C2238 0.949 . S
C2235 C2236 1.349 . S
C2235 C2237 1.327 . S
C2235 H2258 0.950 . S
C2236 C2235 1.349 . S
C2236 C2248 1.349 . S
C2237 C2235 1.327 . S
C2237 C2253 1.429 . S
C2237 H2259 0.950 . S
C2238 H2234 0.949 . S
C2238 C2246 1.574 . S
C2238 C2254 1.368 . S
H2239 C2247 0.950 . S
H2240 C2245 0.950 . S
H2241 C2246 0.949 . S
H2242 C2248 0.950 . S
H2243 C2249 0.950 . S
H2244 C2250 0.949 . S
C2245 H2240 0.950 . S
C2245 C2247 1.327 . S
C2245 C2251 1.429 . S
C2246 C2238 1.574 . S
C2246 H2241 0.949 . S
C2246 C2252 1.368 . S
C2247 C2231 1.349 . S
C2247 H2239 0.950 . S
C2247 C2245 1.327 . S
C2248 C2236 1.349 . S
C2248 H2242 0.950 . S
C2248 C2249 1.327 . S
C2249 H2243 0.950 . S
C2249 C2248 1.327 . S
C2249 C2253 1.429 . S
C2250 C2233 1.574 . S
C2250 H2244 0.949 . S
C2250 C2254 1.368 . S
C2251 C2232 1.429 . S
C2251 C2245 1.429 . S
C2251 C2252 1.523 . S
C2252 C2233 1.368 . S
C2252 C2246 1.368 . S
C2252 C2251 1.523 . S
C2253 C2237 1.429 . S
C2253 C2249 1.429 . S
C2253 C2254 1.523 . S
C2254 C2238 1.368 . S
C2254 C2250 1.368 . S
C2254 C2253 1.523 . S
H2255 C2230 0.950 . S
H2256 C2232 0.950 . S
H2257 C2233 0.949 . S
H2258 C2235 0.950 . S
H2259 C2237 0.950 . S
C2260 C2261 1.349 . S
C2260 C2262 1.327 . S
C2260 H2285 0.950 . S
C2261 C2260 1.349 . S
C2261 C2277 1.349 . S
C2262 C2260 1.327 . S
C2262 C2281 1.429 . S
C2262 H2286 0.950 . S
C2263 C2280 1.574 . S
C2263 C2282 1.368 . S
C2263 H2287 0.949 . S
H2264 C2268 0.949 . S
C2265 C2266 1.349 . S
C2265 C2267 1.327 . S
C2265 H2288 0.950 . S
C2266 C2265 1.349 . S
C2266 C2278 1.349 . S
C2267 C2265 1.327 . S
C2267 C2283 1.429 . S
C2267 H2289 0.950 . S
C2268 H2264 0.949 . S
C2268 C2276 1.574 . S
C2268 C2284 1.368 . S
H2269 C2277 0.950 . S
H2270 C2275 0.950 . S
H2271 C2276 0.949 . S
H2272 C2278 0.950 . S
H2273 C2279 0.950 . S
H2274 C2280 0.949 . S
C2275 H2270 0.950 . S
C2275 C2277 1.327 . S
C2275 C2281 1.429 . S
C2276 C2268 1.574 . S
C2276 H2271 0.949 . S
C2276 C2282 1.368 . S
C2277 C2261 1.349 . S
C2277 H2269 0.950 . S
C2277 C2275 1.327 . S
C2278 C2266 1.349 . S
C2278 H2272 0.950 . S
C2278 C2279 1.327 . S
C2279 H2273 0.950 . S
C2279 C2278 1.327 . S
C2279 C2283 1.429 . S
C2280 C2263 1.574 . S
C2280 H2274 0.949 . S
C2280 C2284 1.368 . S
C2281 C2262 1.429 . S
C2281 C2275 1.429 . S
C2281 C2282 1.523 . S
C2282 C2263 1.368 . S
C2282 C2276 1.368 . S
C2282 C2281 1.523 . S
C2283 C2267 1.429 . S
C2283 C2279 1.429 . S
C2283 C2284 1.523 . S
C2284 C2268 1.368 . S
C2284 C2280 1.368 . S
C2284 C2283 1.523 . S
H2285 C2260 0.950 . S
H2286 C2262 0.950 . S
H2287 C2263 0.949 . S
H2288 C2265 0.950 . S
H2289 C2267 0.950 . S
C2290 C2291 1.349 . S
C2290 C2292 1.327 . S
C2290 H2315 0.950 . S
C2291 C2290 1.349 . S
C2291 C2307 1.349 . S
C2292 C2290 1.327 . S
C2292 C2311 1.429 . S
C2292 H2316 0.950 . S
C2293 C2310 1.574 . S
C2293 C2312 1.368 . S
C2293 H2317 0.949 . S
H2294 C2298 0.949 . S
C2295 C2296 1.349 . S
C2295 C2297 1.327 . S
C2295 H2318 0.950 . S
C2296 C2295 1.349 . S
C2296 C2308 1.349 . S
C2297 C2295 1.327 . S
C2297 C2313 1.429 . S
C2297 H2319 0.950 . S
C2298 H2294 0.949 . S
C2298 C2306 1.574 . S
C2298 C2314 1.368 . S
H2299 C2307 0.950 . S
H2300 C2305 0.950 . S
H2301 C2306 0.949 . S
H2302 C2308 0.950 . S
H2303 C2309 0.950 . S
H2304 C2310 0.949 . S
C2305 H2300 0.950 . S
C2305 C2307 1.327 . S
C2305 C2311 1.429 . S
C2306 C2298 1.574 . S
C2306 H2301 0.949 . S
C2306 C2312 1.368 . S
C2307 C2291 1.349 . S
C2307 H2299 0.950 . S
C2307 C2305 1.327 . S
C2308 C2296 1.349 . S
C2308 H2302 0.950 . S
C2308 C2309 1.327 . S
C2309 H2303 0.950 . S
C2309 C2308 1.327 . S
C2309 C2313 1.429 . S
C2310 C2293 1.574 . S
C2310 H2304 0.949 . S
C2310 C2314 1.368 . S
C2311 C2292 1.429 . S
C2311 C2305 1.429 . S
C2311 C2312 1.523 . S
C2312 C2293 1.368 . S
C2312 C2306 1.368 . S
C2312 C2311 1.523 . S
C2313 C2297 1.429 . S
C2313 C2309 1.429 . S
C2313 C2314 1.523 . S
C2314 C2298 1.368 . S
C2314 C2310 1.368 . S
C2314 C2313 1.523 . S
H2315 C2290 0.950 . S
H2316 C2292 0.950 . S
H2317 C2293 0.949 . S
H2318 C2295 0.950 . S
H2319 C2297 0.950 . S
C2320 C2321 1.349 . S
C2320 C2322 1.327 . S
C2320 H2345 0.950 . S
C2321 C2320 1.349 . S
C2321 C2337 1.349 . S
C2322 C2320 1.327 . S
C2322 C2341 1.429 . S
C2322 H2346 0.950 . S
C2323 C2340 1.574 . S
C2323 C2342 1.368 . S
C2323 H2347 0.949 . S
H2324 C2328 0.949 . S
C2325 C2326 1.349 . S
C2325 C2327 1.327 . S
C2325 H2348 0.950 . S
C2326 C2325 1.349 . S
C2326 C2338 1.349 . S
C2327 C2325 1.327 . S
C2327 C2343 1.429 . S
C2327 H2349 0.950 . S
C2328 H2324 0.949 . S
C2328 C2336 1.574 . S
C2328 C2344 1.368 . S
H2329 C2337 0.950 . S
H2330 C2335 0.950 . S
H2331 C2336 0.949 . S
H2332 C2338 0.950 . S
H2333 C2339 0.950 . S
H2334 C2340 0.949 . S
C2335 H2330 0.950 . S
C2335 C2337 1.327 . S
C2335 C2341 1.429 . S
C2336 C2328 1.574 . S
C2336 H2331 0.949 . S
C2336 C2342 1.368 . S
C2337 C2321 1.349 . S
C2337 H2329 0.950 . S
C2337 C2335 1.327 . S
C2338 C2326 1.349 . S
C2338 H2332 0.950 . S
C2338 C2339 1.327 . S
C2339 H2333 0.950 . S
C2339 C2338 1.327 . S
C2339 C2343 1.429 . S
C2340 C2323 1.574 . S
C2340 H2334 0.949 . S
C2340 C2344 1.368 . S
C2341 C2322 1.429 . S
C2341 C2335 1.429 . S
C2341 C2342 1.523 . S
C2342 C2323 1.368 . S
C2342 C2336 1.368 . S
C2342 C2341 1.523 . S
C2343 C2327 1.429 . S
C2343 C2339 1.429 . S
C2343 C2344 1.523 . S
C2344 C2328 1.368 . S
C2344 C2340 1.368 . S
C2344 C2343 1.523 . S
H2345 C2320 0.950 . S
H2346 C2322 0.950 . S
H2347 C2323 0.949 . S
H2348 C2325 0.950 . S
H2349 C2327 0.950 . S
C2350 C2351 1.349 . S
C2350 C2352 1.327 . S
C2350 H2375 0.950 . S
C2351 C2350 1.349 . S
C2351 C2367 1.349 . S
C2352 C2350 1.327 . S
C2352 C2371 1.429 . S
C2352 H2376 0.950 . S
C2353 C2370 1.574 . S
C2353 C2372 1.368 . S
C2353 H2377 0.949 . S
H2354 C2358 0.949 . S
C2355 C2356 1.349 . S
C2355 C2357 1.327 . S
C2355 H2378 0.950 . S
C2356 C2355 1.349 . S
C2356 C2368 1.349 . S
C2357 C2355 1.327 . S
C2357 C2373 1.429 . S
C2357 H2379 0.950 . S
C2358 H2354 0.949 . S
C2358 C2366 1.574 . S
C2358 C2374 1.368 . S
H2359 C2367 0.950 . S
H2360 C2365 0.950 . S
H2361 C2366 0.949 . S
H2362 C2368 0.950 . S
H2363 C2369 0.950 . S
H2364 C2370 0.949 . S
C2365 H2360 0.950 . S
C2365 C2367 1.327 . S
C2365 C2371 1.429 . S
C2366 C2358 1.574 . S
C2366 H2361 0.949 . S
C2366 C2372 1.368 . S
C2367 C2351 1.349 . S
C2367 H2359 0.950 . S
C2367 C2365 1.327 . S
C2368 C2356 1.349 . S
C2368 H2362 0.950 . S
C2368 C2369 1.327 . S
C2369 H2363 0.950 . S
C2369 C2368 1.327 . S
C2369 C2373 1.429 . S
C2370 C2353 1.574 . S
C2370 H2364 0.949 . S
C2370 C2374 1.368 . S
C2371 C2352 1.429 . S
C2371 C2365 1.429 . S
C2371 C2372 1.523 . S
C2372 C2353 1.368 . S
C2372 C2366 1.368 . S
C2372 C2371 1.523 . S
C2373 C2357 1.429 . S
C2373 C2369 1.429 . S
C2373 C2374 1.523 . S
C2374 C2358 1.368 . S
C2374 C2370 1.368 . S
C2374 C2373 1.523 . S
H2375 C2350 0.950 . S
H2376 C2352 0.950 . S
H2377 C2353 0.949 . S
H2378 C2355 0.950 . S
H2379 C2357 0.950 . S
C2380 C2381 1.349 . S
C2380 C2382 1.327 . S
C2380 H2405 0.950 . S
C2381 C2380 1.349 . S
C2381 C2397 1.349 . S
C2382 C2380 1.327 . S
C2382 C2401 1.429 . S
C2382 H2406 0.950 . S
C2383 C2400 1.574 . S
C2383 C2402 1.368 . S
C2383 H2407 0.949 . S
H2384 C2388 0.949 . S
C2385 C2386 1.349 . S
C2385 C2387 1.327 . S
C2385 H2408 0.950 . S
C2386 C2385 1.349 . S
C2386 C2398 1.349 . S
C2387 C2385 1.327 . S
C2387 C2403 1.429 . S
C2387 H2409 0.950 . S
C2388 H2384 0.949 . S
C2388 C2396 1.574 . S
C2388 C2404 1.368 . S
H2389 C2397 0.950 . S
H2390 C2395 0.950 . S
H2391 C2396 0.949 . S
H2392 C2398 0.950 . S
H2393 C2399 0.950 . S
H2394 C2400 0.949 . S
C2395 H2390 0.950 . S
C2395 C2397 1.327 . S
C2395 C2401 1.429 . S
C2396 C2388 1.574 . S
C2396 H2391 0.949 . S
C2396 C2402 1.368 . S
C2397 C2381 1.349 . S
C2397 H2389 0.950 . S
C2397 C2395 1.327 . S
C2398 C2386 1.349 . S
C2398 H2392 0.950 . S
C2398 C2399 1.327 . S
C2399 H2393 0.950 . S
C2399 C2398 1.327 . S
C2399 C2403 1.429 . S
C2400 C2383 1.574 . S
C2400 H2394 0.949 . S
C2400 C2404 1.368 . S
C2401 C2382 1.429 . S
C2401 C2395 1.429 . S
C2401 C2402 1.523 . S
C2402 C2383 1.368 . S
C2402 C2396 1.368 . S
C2402 C2401 1.523 . S
C2403 C2387 1.429 . S
C2403 C2399 1.429 . S
C2403 C2404 1.523 . S
C2404 C2388 1.368 . S
C2404 C2400 1.368 . S
C2404 C2403 1.523 . S
H2405 C2380 0.950 . S
H2406 C2382 0.950 . S
H2407 C2383 0.949 . S
H2408 C2385 0.950 . S
H2409 C2387 0.950 . S
C2410 C2411 1.349 . S
C2410 C2412 1.327 . S
C2410 H2435 0.950 . S
C2411 C2410 1.349 . S
C2411 C2427 1.349 . S
C2412 C2410 1.327 . S
C2412 C2431 1.429 . S
C2412 H2436 0.950 . S
C2413 C2430 1.574 . S
C2413 C2432 1.368 . S
C2413 H2437 0.949 . S
H2414 C2418 0.949 . S
C2415 C2416 1.349 . S
C2415 C2417 1.327 . S
C2415 H2438 0.950 . S
C2416 C2415 1.349 . S
C2416 C2428 1.349 . S
C2417 C2415 1.327 . S
C2417 C2433 1.429 . S
C2417 H2439 0.950 . S
C2418 H2414 0.949 . S
C2418 C2426 1.574 . S
C2418 C2434 1.368 . S
H2419 C2427 0.950 . S
H2420 C2425 0.950 . S
H2421 C2426 0.949 . S
H2422 C2428 0.950 . S
H2423 C2429 0.950 . S
H2424 C2430 0.949 . S
C2425 H2420 0.950 . S
C2425 C2427 1.327 . S
C2425 C2431 1.429 . S
C2426 C2418 1.574 . S
C2426 H2421 0.949 . S
C2426 C2432 1.368 . S
C2427 C2411 1.349 . S
C2427 H2419 0.950 . S
C2427 C2425 1.327 . S
C2428 C2416 1.349 . S
C2428 H2422 0.950 . S
C2428 C2429 1.327 . S
C2429 H2423 0.950 . S
C2429 C2428 1.327 . S
C2429 C2433 1.429 . S
C2430 C2413 1.574 . S
C2430 H2424 0.949 . S
C2430 C2434 1.368 . S
C2431 C2412 1.429 . S
C2431 C2425 1.429 . S
C2431 C2432 1.523 . S
C2432 C2413 1.368 . S
C2432 C2426 1.368 . S
C2432 C2431 1.523 . S
C2433 C2417 1.429 . S
C2433 C2429 1.429 . S
C2433 C2434 1.523 . S
C2434 C2418 1.368 . S
C2434 C2430 1.368 . S
C2434 C2433 1.523 . S
H2435 C2410 0.950 . S
H2436 C2412 0.950 . S
H2437 C2413 0.949 . S
H2438 C2415 0.950 . S
H2439 C2417 0.950 . S
C2440 C2441 1.349 . S
C2440 C2442 1.327 . S
C2440 H2465 0.950 . S
C2441 C2440 1.349 . S
C2441 C2457 1.349 . S
C2442 C2440 1.327 . S
C2442 C2461 1.429 . S
C2442 H2466 0.950 . S
C2443 C2460 1.574 . S
C2443 C2462 1.368 . S
C2443 H2467 0.949 . S
H2444 C2448 0.949 . S
C2445 C2446 1.349 . S
C2445 C2447 1.327 . S
C2445 H2468 0.950 . S
C2446 C2445 1.349 . S
C2446 C2458 1.349 . S
C2447 C2445 1.327 . S
C2447 C2463 1.429 . S
C2447 H2469 0.950 . S
C2448 H2444 0.949 . S
C2448 C2456 1.574 . S
C2448 C2464 1.368 . S
H2449 C2457 0.950 . S
H2450 C2455 0.950 . S
H2451 C2456 0.949 . S
H2452 C2458 0.950 . S
H2453 C2459 0.950 . S
H2454 C2460 0.949 . S
C2455 H2450 0.950 . S
C2455 C2457 1.327 . S
C2455 C2461 1.429 . S
C2456 C2448 1.574 . S
C2456 H2451 0.949 . S
C2456 C2462 1.368 . S
C2457 C2441 1.349 . S
C2457 H2449 0.950 . S
C2457 C2455 1.327 . S
C2458 C2446 1.349 . S
C2458 H2452 0.950 . S
C2458 C2459 1.327 . S
C2459 H2453 0.950 . S
C2459 C2458 1.327 . S
C2459 C2463 1.429 . S
C2460 C2443 1.574 . S
C2460 H2454 0.949 . S
C2460 C2464 1.368 . S
C2461 C2442 1.429 . S
C2461 C2455 1.429 . S
C2461 C2462 1.523 . S
C2462 C2443 1.368 . S
C2462 C2456 1.368 . S
C2462 C2461 1.523 . S
C2463 C2447 1.429 . S
C2463 C2459 1.429 . S
C2463 C2464 1.523 . S
C2464 C2448 1.368 . S
C2464 C2460 1.368 . S
C2464 C2463 1.523 . S
H2465 C2440 0.950 . S
H2466 C2442 0.950 . S
H2467 C2443 0.949 . S
H2468 C2445 0.950 . S
H2469 C2447 0.950 . S
C2470 C2471 1.349 . S
C2470 C2472 1.327 . S
C2470 H2495 0.950 . S
C2471 C2470 1.349 . S
C2471 C2487 1.349 . S
C2472 C2470 1.327 . S
C2472 C2491 1.429 . S
C2472 H2496 0.950 . S
C2473 C2490 1.574 . S
C2473 C2492 1.368 . S
C2473 H2497 0.949 . S
H2474 C2478 0.949 . S
C2475 C2476 1.349 . S
C2475 C2477 1.327 . S
C2475 H2498 0.950 . S
C2476 C2475 1.349 . S
C2476 C2488 1.349 . S
C2477 C2475 1.327 . S
C2477 C2493 1.429 . S
C2477 H2499 0.950 . S
C2478 H2474 0.949 . S
C2478 C2486 1.574 . S
C2478 C2494 1.368 . S
H2479 C2487 0.950 . S
H2480 C2485 0.950 . S
H2481 C2486 0.949 . S
H2482 C2488 0.950 . S
H2483 C2489 0.950 . S
H2484 C2490 0.949 . S
C2485 H2480 0.950 . S
C2485 C2487 1.327 . S
C2485 C2491 1.429 . S
C2486 C2478 1.574 . S
C2486 H2481 0.949 . S
C2486 C2492 1.368 . S
C2487 C2471 1.349 . S
C2487 H2479 0.950 . S
C2487 C2485 1.327 . S
C2488 C2476 1.349 . S
C2488 H2482 0.950 . S
C2488 C2489 1.327 . S
C2489 H2483 0.950 . S
C2489 C2488 1.327 . S
C2489 C2493 1.429 . S
C2490 C2473 1.574 . S
C2490 H2484 0.949 . S
C2490 C2494 1.368 . S
C2491 C2472 1.429 . S
C2491 C2485 1.429 . S
C2491 C2492 1.523 . S
C2492 C2473 1.368 . S
C2492 C2486 1.368 . S
C2492 C2491 1.523 . S
C2493 C2477 1.429 . S
C2493 C2489 1.429 . S
C2493 C2494 1.523 . S
C2494 C2478 1.368 . S
C2494 C2490 1.368 . S
C2494 C2493 1.523 . S
H2495 C2470 0.950 . S
H2496 C2472 0.950 . S
H2497 C2473 0.949 . S
H2498 C2475 0.950 . S
H2499 C2477 0.950 . S
C2500 C2501 1.349 . S
C2500 C2502 1.327 . S
C2500 H2525 0.950 . S
C2501 C2500 1.349 . S
C2501 C2517 1.349 . S
C2502 C2500 1.327 . S
C2502 C2521 1.429 . S
C2502 H2526 0.950 . S
C2503 C2520 1.574 . S
C2503 C2522 1.368 . S
C2503 H2527 0.949 . S
H2504 C2508 0.949 . S
C2505 C2506 1.349 . S
C2505 C2507 1.327 . S
C2505 H2528 0.950 . S
C2506 C2505 1.349 . S
C2506 C2518 1.349 . S
C2507 C2505 1.327 . S
C2507 C2523 1.429 . S
C2507 H2529 0.950 . S
C2508 H2504 0.949 . S
C2508 C2516 1.574 . S
C2508 C2524 1.368 . S
H2509 C2517 0.950 . S
H2510 C2515 0.950 . S
H2511 C2516 0.949 . S
H2512 C2518 0.950 . S
H2513 C2519 0.950 . S
H2514 C2520 0.949 . S
C2515 H2510 0.950 . S
C2515 C2517 1.327 . S
C2515 C2521 1.429 . S
C2516 C2508 1.574 . S
C2516 H2511 0.949 . S
C2516 C2522 1.368 . S
C2517 C2501 1.349 . S
C2517 H2509 0.950 . S
C2517 C2515 1.327 . S
C2518 C2506 1.349 . S
C2518 H2512 0.950 . S
C2518 C2519 1.327 . S
C2519 H2513 0.950 . S
C2519 C2518 1.327 . S
C2519 C2523 1.429 . S
C2520 C2503 1.574 . S
C2520 H2514 0.949 . S
C2520 C2524 1.368 . S
C2521 C2502 1.429 . S
C2521 C2515 1.429 . S
C2521 C2522 1.523 . S
C2522 C2503 1.368 . S
C2522 C2516 1.368 . S
C2522 C2521 1.523 . S
C2523 C2507 1.429 . S
C2523 C2519 1.429 . S
C2523 C2524 1.523 . S
C2524 C2508 1.368 . S
C2524 C2520 1.368 . S
C2524 C2523 1.523 . S
H2525 C2500 0.950 . S
H2526 C2502 0.950 . S
H2527 C2503 0.949 . S
H2528 C2505 0.950 . S
H2529 C2507 0.950 . S
C2530 C2531 1.349 . S
C2530 C2532 1.327 . S
C2530 H2555 0.950 . S
C2531 C2530 1.349 . S
C2531 C2547 1.349 . S
C2532 C2530 1.327 . S
C2532 C2551 1.429 . S
C2532 H2556 0.950 . S
C2533 C2550 1.574 . S
C2533 C2552 1.368 . S
C2533 H2557 0.949 . S
H2534 C2538 0.949 . S
C2535 C2536 1.349 . S
C2535 C2537 1.327 . S
C2535 H2558 0.950 . S
C2536 C2535 1.349 . S
C2536 C2548 1.349 . S
C2537 C2535 1.327 . S
C2537 C2553 1.429 . S
C2537 H2559 0.950 . S
C2538 H2534 0.949 . S
C2538 C2546 1.574 . S
C2538 C2554 1.368 . S
H2539 C2547 0.950 . S
H2540 C2545 0.950 . S
H2541 C2546 0.949 . S
H2542 C2548 0.950 . S
H2543 C2549 0.950 . S
H2544 C2550 0.949 . S
C2545 H2540 0.950 . S
C2545 C2547 1.327 . S
C2545 C2551 1.429 . S
C2546 C2538 1.574 . S
C2546 H2541 0.949 . S
C2546 C2552 1.368 . S
C2547 C2531 1.349 . S
C2547 H2539 0.950 . S
C2547 C2545 1.327 . S
C2548 C2536 1.349 . S
C2548 H2542 0.950 . S
C2548 C2549 1.327 . S
C2549 H2543 0.950 . S
C2549 C2548 1.327 . S
C2549 C2553 1.429 . S
C2550 C2533 1.574 . S
C2550 H2544 0.949 . S
C2550 C2554 1.368 . S
C2551 C2532 1.429 . S
C2551 C2545 1.429 . S
C2551 C2552 1.523 . S
C2552 C2533 1.368 . S
C2552 C2546 1.368 . S
C2552 C2551 1.523 . S
C2553 C2537 1.429 . S
C2553 C2549 1.429 . S
C2553 C2554 1.523 . S
C2554 C2538 1.368 . S
C2554 C2550 1.368 . S
C2554 C2553 1.523 . S
H2555 C2530 0.950 . S
H2556 C2532 0.950 . S
H2557 C2533 0.949 . S
H2558 C2535 0.950 . S
H2559 C2537 0.950 . S
C2560 C2561 1.349 . S
C2560 C2562 1.327 1_554 S
C2560 H2585 0.950 . S
C2561 C2560 1.349 . S
C2561 C2577 1.349 1_545 S
C2562 C2560 1.327 1_556 S
C2562 C2581 1.451 . S
C2562 H2586 0.950 . S
C2563 C2580 1.574 . S
C2563 C2582 1.375 . S
C2563 H2587 0.949 . S
H2564 C2568 0.949 . S
C2565 C2566 1.349 . S
C2565 C2567 1.327 . S
C2565 H2588 0.950 . S
C2566 C2565 1.349 . S
C2566 C2578 1.349 1_565 S
C2567 C2565 1.327 . S
C2567 C2583 1.429 . S
C2567 H2589 0.950 . S
C2568 H2564 0.949 . S
C2568 C2576 1.574 . S
C2568 C2584 1.368 1_545 S
H2569 C2577 0.950 . S
H2570 C2575 0.950 . S
H2571 C2576 0.949 . S
H2572 C2578 0.950 . S
H2573 C2579 0.950 . S
H2574 C2580 0.949 . S
C2575 H2570 0.950 . S
C2575 C2577 1.327 . S
C2575 C2581 1.408 1_564 S
C2576 C2568 1.574 . S
C2576 H2571 0.949 . S
C2576 C2582 1.362 1_545 S
C2577 C2561 1.349 1_565 S
C2577 H2569 0.950 . S
C2577 C2575 1.327 . S
C2578 C2566 1.349 1_545 S
C2578 H2572 0.950 . S
C2578 C2579 1.327 . S
C2579 H2573 0.950 . S
C2579 C2578 1.327 . S
C2579 C2583 1.429 1_545 S
C2580 C2563 1.574 . S
C2580 H2574 0.949 . S
C2580 C2584 1.368 . S
C2581 C2562 1.451 . S
C2581 C2575 1.408 1_546 S
C2581 C2582 1.522 1_545 S
C2582 C2563 1.375 . S
C2582 C2576 1.362 1_565 S
C2582 C2581 1.522 1_565 S
C2583 C2567 1.429 . S
C2583 C2579 1.429 1_565 S
C2583 C2584 1.523 . S
C2584 C2568 1.368 1_565 S
C2584 C2580 1.368 . S
C2584 C2583 1.523 . S
H2585 C2560 0.950 . S
H2586 C2562 0.950 . S
H2587 C2563 0.949 . S
H2588 C2565 0.950 . S
H2589 C2567 0.950 . S
C2590 C2591 1.349 . S
C2590 C2592 1.327 . S
C2590 H2615 0.950 . S
C2591 C2590 1.349 . S
C2591 C2607 1.349 . S
C2592 C2590 1.327 . S
C2592 C2611 1.429 . S
C2592 H2616 0.950 . S
C2593 C2610 1.574 . S
C2593 C2612 1.368 . S
C2593 H2617 0.949 . S
H2594 C2598 0.949 . S
C2595 C2596 1.349 . S
C2595 C2597 1.327 1_655 S
C2595 H2618 0.950 . S
C2596 C2595 1.349 . S
C2596 C2608 1.349 . S
C2597 C2595 1.327 1_455 S
C2597 C2613 1.429 1_554 S
C2597 H2619 0.950 . S
C2598 H2594 0.949 . S
C2598 C2606 1.574 . S
C2598 C2614 1.368 . S
H2599 C2607 0.950 . S
H2600 C2605 0.950 . S
H2601 C2606 0.949 . S
H2602 C2608 0.950 . S
H2603 C2609 0.950 . S
H2604 C2610 0.949 . S
C2605 H2600 0.950 . S
C2605 C2607 1.327 . S
C2605 C2611 1.429 . S
C2606 C2598 1.574 . S
C2606 H2601 0.949 . S
C2606 C2612 1.368 . S
C2607 C2591 1.349 . S
C2607 H2599 0.950 . S
C2607 C2605 1.327 . S
C2608 C2596 1.349 . S
C2608 H2602 0.950 . S
C2608 C2609 1.327 1_554 S
C2609 H2603 0.950 . S
C2609 C2608 1.327 1_556 S
C2609 C2613 1.429 1_655 S
C2610 C2593 1.574 . S
C2610 H2604 0.949 . S
C2610 C2614 1.368 . S
C2611 C2592 1.429 . S
C2611 C2605 1.429 . S
C2611 C2612 1.523 . S
C2612 C2593 1.368 . S
C2612 C2606 1.368 . S
C2612 C2611 1.523 . S
C2613 C2597 1.429 1_556 S
C2613 C2609 1.429 1_455 S
C2613 C2614 1.523 . S
C2614 C2598 1.368 . S
C2614 C2610 1.368 . S
C2614 C2613 1.523 . S
H2615 C2590 0.950 . S
H2616 C2592 0.950 . S
H2617 C2593 0.949 . S
H2618 C2595 0.950 . S
H2619 C2597 0.950 . S
C2620 C2621 1.349 . S
C2620 C2622 1.327 . S
C2620 H2645 0.950 . S
C2621 C2620 1.349 . S
C2621 C2637 1.349 . S
C2622 C2620 1.327 . S
C2622 C2641 1.429 . S
C2622 H2646 0.950 . S
C2623 C2640 1.574 . S
C2623 C2642 1.368 . S
C2623 H2647 0.949 . S
H2624 C2628 0.949 . S
C2625 C2626 1.349 . S
C2625 C2627 1.327 . S
C2625 H2648 0.950 . S
C2626 C2625 1.349 . S
C2626 C2638 1.349 . S
C2627 C2625 1.327 . S
C2627 C2643 1.429 . S
C2627 H2649 0.950 . S
C2628 H2624 0.949 . S
C2628 C2636 1.574 . S
C2628 C2644 1.368 . S
H2629 C2637 0.950 . S
H2630 C2635 0.950 . S
H2631 C2636 0.949 . S
H2632 C2638 0.950 . S
H2633 C2639 0.950 . S
H2634 C2640 0.949 . S
C2635 H2630 0.950 . S
C2635 C2637 1.327 . S
C2635 C2641 1.429 . S
C2636 C2628 1.574 . S
C2636 H2631 0.949 . S
C2636 C2642 1.368 . S
C2637 C2621 1.349 . S
C2637 H2629 0.950 . S
C2637 C2635 1.327 . S
C2638 C2626 1.349 . S
C2638 H2632 0.950 . S
C2638 C2639 1.327 . S
C2639 H2633 0.950 . S
C2639 C2638 1.327 . S
C2639 C2643 1.429 . S
C2640 C2623 1.574 . S
C2640 H2634 0.949 . S
C2640 C2644 1.368 . S
C2641 C2622 1.429 . S
C2641 C2635 1.429 . S
C2641 C2642 1.523 . S
C2642 C2623 1.368 . S
C2642 C2636 1.368 . S
C2642 C2641 1.523 . S
C2643 C2627 1.429 . S
C2643 C2639 1.429 . S
C2643 C2644 1.523 . S
C2644 C2628 1.368 . S
C2644 C2640 1.368 . S
C2644 C2643 1.523 . S
H2645 C2620 0.950 . S
H2646 C2622 0.950 . S
H2647 C2623 0.949 . S
H2648 C2625 0.950 . S
H2649 C2627 0.950 . S
C2650 C2651 1.349 1_565 S
C2650 C2652 1.327 1_655 S
C2650 H2675 0.950 . S
C2651 C2650 1.349 1_545 S
C2651 C2667 1.349 . S
C2652 C2650 1.327 1_455 S
C2652 C2671 1.408 1_565 S
C2652 H2676 0.950 . S
C2653 C2670 1.574 . S
C2653 C2672 1.362 1_545 S
C2653 H2677 0.949 . S
H2654 C2658 0.949 . S
C2655 C2656 1.349 1_545 S
C2655 C2657 1.327 . S
C2655 H2678 0.950 . S
C2656 C2655 1.349 1_565 S
C2656 C2668 1.349 . S
C2657 C2655 1.327 . S
C2657 C2673 1.429 1_545 S
C2657 H2679 0.950 . S
C2658 H2654 0.949 . S
C2658 C2666 1.574 . S
C2658 C2674 1.368 . S
H2659 C2667 0.950 . S
H2660 C2665 0.950 . S
H2661 C2666 0.949 . S
H2662 C2668 0.950 . S
H2663 C2669 0.950 . S
H2664 C2670 0.949 . S
C2665 H2660 0.950 . S
C2665 C2667 1.327 . S
C2665 C2671 1.451 1_655 S
C2666 C2658 1.574 . S
C2666 H2661 0.949 . S
C2666 C2672 1.375 . S
C2667 C2651 1.349 . S
C2667 H2659 0.950 . S
C2667 C2665 1.327 . S
C2668 C2656 1.349 . S
C2668 H2662 0.950 . S
C2668 C2669 1.327 . S
C2669 H2663 0.950 . S
C2669 C2668 1.327 . S
C2669 C2673 1.429 . S
C2670 C2653 1.574 . S
C2670 H2664 0.949 . S
C2670 C2674 1.368 1_545 S
C2671 C2652 1.408 1_545 S
C2671 C2665 1.451 1_455 S
C2671 C2672 1.522 1_545 S
C2672 C2653 1.362 1_565 S
C2672 C2666 1.375 . S
C2672 C2671 1.522 1_565 S
C2673 C2657 1.429 1_565 S
C2673 C2669 1.429 . S
C2673 C2674 1.523 . S
C2674 C2658 1.368 . S
C2674 C2670 1.368 1_565 S
C2674 C2673 1.523 . S
H2675 C2650 0.950 . S
H2676 C2652 0.950 . S
H2677 C2653 0.949 . S
H2678 C2655 0.950 . S
H2679 C2657 0.950 . S
C2680 C2681 1.349 . S
C2680 C2682 1.327 . S
C2680 H2705 0.950 . S
C2681 C2680 1.349 . S
C2681 C2697 1.349 1_545 S
C2682 C2680 1.327 . S
C2682 C2701 1.429 . S
C2682 H2706 0.950 . S
C2683 C2700 1.574 . S
C2683 C2702 1.368 1_565 S
C2683 H2707 0.949 . S
H2684 C2688 0.949 . S
C2685 C2686 1.349 . S
C2685 C2687 1.327 1_556 S
C2685 H2708 0.950 . S
C2686 C2685 1.349 . S
C2686 C2698 1.349 1_565 S
C2687 C2685 1.327 1_554 S
C2687 C2703 1.451 . S
C2687 H2709 0.950 . S
C2688 H2684 0.949 . S
C2688 C2696 1.574 . S
C2688 C2704 1.375 . S
H2689 C2697 0.950 . S
H2690 C2695 0.950 . S
H2691 C2696 0.949 . S
H2692 C2698 0.950 . S
H2693 C2699 0.950 . S
H2694 C2700 0.949 . S
C2695 H2690 0.950 . S
C2695 C2697 1.327 . S
C2695 C2701 1.429 1_565 S
C2696 C2688 1.574 . S
C2696 H2691 0.949 . S
C2696 C2702 1.368 . S
C2697 C2681 1.349 1_565 S
C2697 H2689 0.950 . S
C2697 C2695 1.327 . S
C2698 C2686 1.349 1_545 S
C2698 H2692 0.950 . S
C2698 C2699 1.327 . S
C2699 H2693 0.950 . S
C2699 C2698 1.327 . S
C2699 C2703 1.408 1_546 S
C2700 C2683 1.574 . S
C2700 H2694 0.949 . S
C2700 C2704 1.362 1_565 S
C2701 C2682 1.429 . S
C2701 C2695 1.429 1_545 S
C2701 C2702 1.523 . S
C2702 C2683 1.368 1_545 S
C2702 C2696 1.368 . S
C2702 C2701 1.523 . S
C2703 C2687 1.451 . S
C2703 C2699 1.408 1_564 S
C2703 C2704 1.522 1_565 S
C2704 C2688 1.375 . S
C2704 C2700 1.362 1_545 S
C2704 C2703 1.522 1_545 S
H2705 C2680 0.950 . S
H2706 C2682 0.950 . S
H2707 C2683 0.949 . S
H2708 C2685 0.950 . S
H2709 C2687 0.950 . S
C2710 C2711 1.349 . S
C2710 C2712 1.327 1_455 S
C2710 H2735 0.950 . S
C2711 C2710 1.349 . S
C2711 C2727 1.349 . S
C2712 C2710 1.327 1_655 S
C2712 C2731 1.429 1_556 S
C2712 H2736 0.950 . S
C2713 C2730 1.574 . S
C2713 C2732 1.368 . S
C2713 H2737 0.949 . S
H2714 C2718 0.949 . S
C2715 C2716 1.349 . S
C2715 C2717 1.327 . S
C2715 H2738 0.950 . S
C2716 C2715 1.349 . S
C2716 C2728 1.349 . S
C2717 C2715 1.327 . S
C2717 C2733 1.429 . S
C2717 H2739 0.950 . S
C2718 H2714 0.949 . S
C2718 C2726 1.574 . S
C2718 C2734 1.368 . S
H2719 C2727 0.950 . S
H2720 C2725 0.950 . S
H2721 C2726 0.949 . S
H2722 C2728 0.950 . S
H2723 C2729 0.950 . S
H2724 C2730 0.949 . S
C2725 H2720 0.950 . S
C2725 C2727 1.327 1_554 S
C2725 C2731 1.429 1_455 S
C2726 C2718 1.574 . S
C2726 H2721 0.949 . S
C2726 C2732 1.368 . S
C2727 C2711 1.349 . S
C2727 H2719 0.950 . S
C2727 C2725 1.327 1_556 S
C2728 C2716 1.349 . S
C2728 H2722 0.950 . S
C2728 C2729 1.327 . S
C2729 H2723 0.950 . S
C2729 C2728 1.327 . S
C2729 C2733 1.429 . S
C2730 C2713 1.574 . S
C2730 H2724 0.949 . S
C2730 C2734 1.368 . S
C2731 C2712 1.429 1_554 S
C2731 C2725 1.429 1_655 S
C2731 C2732 1.523 . S
C2732 C2713 1.368 . S
C2732 C2726 1.368 . S
C2732 C2731 1.523 . S
C2733 C2717 1.429 . S
C2733 C2729 1.429 . S
C2733 C2734 1.523 . S
C2734 C2718 1.368 . S
C2734 C2730 1.368 . S
C2734 C2733 1.523 . S
H2735 C2710 0.950 . S
H2736 C2712 0.950 . S
H2737 C2713 0.949 . S
H2738 C2715 0.950 . S
H2739 C2717 0.950 . S
C2740 C2741 1.349 . S
C2740 C2742 1.327 . S
C2740 H2765 0.950 . S
C2741 C2740 1.349 . S
C2741 C2757 1.349 . S
C2742 C2740 1.327 . S
C2742 C2761 1.429 . S
C2742 H2766 0.950 . S
C2743 C2760 1.574 . S
C2743 C2762 1.368 . S
C2743 H2767 0.949 . S
H2744 C2748 0.949 . S
C2745 C2746 1.349 . S
C2745 C2747 1.327 . S
C2745 H2768 0.950 . S
C2746 C2745 1.349 . S
C2746 C2758 1.349 . S
C2747 C2745 1.327 . S
C2747 C2763 1.429 . S
C2747 H2769 0.950 . S
C2748 H2744 0.949 . S
C2748 C2756 1.574 . S
C2748 C2764 1.368 . S
H2749 C2757 0.950 . S
H2750 C2755 0.950 . S
H2751 C2756 0.949 . S
H2752 C2758 0.950 . S
H2753 C2759 0.950 . S
H2754 C2760 0.949 . S
C2755 H2750 0.950 . S
C2755 C2757 1.327 . S
C2755 C2761 1.429 . S
C2756 C2748 1.574 . S
C2756 H2751 0.949 . S
C2756 C2762 1.368 . S
C2757 C2741 1.349 . S
C2757 H2749 0.950 . S
C2757 C2755 1.327 . S
C2758 C2746 1.349 . S
C2758 H2752 0.950 . S
C2758 C2759 1.327 . S
C2759 H2753 0.950 . S
C2759 C2758 1.327 . S
C2759 C2763 1.429 . S
C2760 C2743 1.574 . S
C2760 H2754 0.949 . S
C2760 C2764 1.368 . S
C2761 C2742 1.429 . S
C2761 C2755 1.429 . S
C2761 C2762 1.523 . S
C2762 C2743 1.368 . S
C2762 C2756 1.368 . S
C2762 C2761 1.523 . S
C2763 C2747 1.429 . S
C2763 C2759 1.429 . S
C2763 C2764 1.523 . S
C2764 C2748 1.368 . S
C2764 C2760 1.368 . S
C2764 C2763 1.523 . S
H2765 C2740 0.950 . S
H2766 C2742 0.950 . S
H2767 C2743 0.949 . S
H2768 C2745 0.950 . S
H2769 C2747 0.950 . S
C2770 C2771 1.349 1_565 S
C2770 C2772 1.327 . S
C2770 H2795 0.950 . S
C2771 C2770 1.349 1_545 S
C2771 C2787 1.349 . S
C2772 C2770 1.327 . S
C2772 C2791 1.429 1_565 S
C2772 H2796 0.950 . S
C2773 C2790 1.574 . S
C2773 C2792 1.368 . S
C2773 H2797 0.949 . S
H2774 C2778 0.949 . S
C2775 C2776 1.349 1_545 S
C2775 C2777 1.327 1_455 S
C2775 H2798 0.950 . S
C2776 C2775 1.349 1_565 S
C2776 C2788 1.349 . S
C2777 C2775 1.327 1_655 S
C2777 C2793 1.408 1_545 S
C2777 H2799 0.950 . S
C2778 H2774 0.949 . S
C2778 C2786 1.574 . S
C2778 C2794 1.362 1_565 S
H2779 C2787 0.950 . S
H2780 C2785 0.950 . S
H2781 C2786 0.949 . S
H2782 C2788 0.950 . S
H2783 C2789 0.950 . S
H2784 C2790 0.949 . S
C2785 H2780 0.950 . S
C2785 C2787 1.327 . S
C2785 C2791 1.429 . S
C2786 C2778 1.574 . S
C2786 H2781 0.949 . S
C2786 C2792 1.368 1_565 S
C2787 C2771 1.349 . S
C2787 H2779 0.950 . S
C2787 C2785 1.327 . S
C2788 C2776 1.349 . S
C2788 H2782 0.950 . S
C2788 C2789 1.327 . S
C2789 H2783 0.950 . S
C2789 C2788 1.327 . S
C2789 C2793 1.451 1_455 S
C2790 C2773 1.574 . S
C2790 H2784 0.949 . S
C2790 C2794 1.375 . S
C2791 C2772 1.429 1_545 S
C2791 C2785 1.429 . S
C2791 C2792 1.523 . S
C2792 C2773 1.368 . S
C2792 C2786 1.368 1_545 S
C2792 C2791 1.523 . S
C2793 C2777 1.408 1_565 S
C2793 C2789 1.451 1_655 S
C2793 C2794 1.522 1_565 S
C2794 C2778 1.362 1_545 S
C2794 C2790 1.375 . S
C2794 C2793 1.522 1_545 S
H2795 C2770 0.950 . S
H2796 C2772 0.950 . S
H2797 C2773 0.949 . S
H2798 C2775 0.950 . S
H2799 C2777 0.950 . S
C2800 C2801 1.349 . S
C2800 C2802 1.327 . S
C2800 H2825 0.950 . S
C2801 C2800 1.349 . S
C2801 C2817 1.349 . S
C2802 C2800 1.327 . S
C2802 C2821 1.429 . S
C2802 H2826 0.950 . S
C2803 C2820 1.574 . S
C2803 C2822 1.368 . S
C2803 H2827 0.949 . S
H2804 C2808 0.949 . S
C2805 C2806 1.349 . S
C2805 C2807 1.327 . S
C2805 H2828 0.950 . S
C2806 C2805 1.349 . S
C2806 C2818 1.349 . S
C2807 C2805 1.327 . S
C2807 C2823 1.429 . S
C2807 H2829 0.950 . S
C2808 H2804 0.949 . S
C2808 C2816 1.574 . S
C2808 C2824 1.368 . S
H2809 C2817 0.950 . S
H2810 C2815 0.950 . S
H2811 C2816 0.949 . S
H2812 C2818 0.950 . S
H2813 C2819 0.950 . S
H2814 C2820 0.949 . S
C2815 H2810 0.950 . S
C2815 C2817 1.327 . S
C2815 C2821 1.429 . S
C2816 C2808 1.574 . S
C2816 H2811 0.949 . S
C2816 C2822 1.368 . S
C2817 C2801 1.349 . S
C2817 H2809 0.950 . S
C2817 C2815 1.327 . S
C2818 C2806 1.349 . S
C2818 H2812 0.950 . S
C2818 C2819 1.327 . S
C2819 H2813 0.950 . S
C2819 C2818 1.327 . S
C2819 C2823 1.429 . S
C2820 C2803 1.574 . S
C2820 H2814 0.949 . S
C2820 C2824 1.368 . S
C2821 C2802 1.429 . S
C2821 C2815 1.429 . S
C2821 C2822 1.523 . S
C2822 C2803 1.368 . S
C2822 C2816 1.368 . S
C2822 C2821 1.523 . S
C2823 C2807 1.429 . S
C2823 C2819 1.429 . S
C2823 C2824 1.523 . S
C2824 C2808 1.368 . S
C2824 C2820 1.368 . S
C2824 C2823 1.523 . S
H2825 C2800 0.950 . S
H2826 C2802 0.950 . S
H2827 C2803 0.949 . S
H2828 C2805 0.950 . S
H2829 C2807 0.950 . S
C2830 C2831 1.349 . S
C2830 C2832 1.327 . S
C2830 H2855 0.950 . S
C2831 C2830 1.349 . S
C2831 C2847 1.349 . S
C2832 C2830 1.327 . S
C2832 C2851 1.429 . S
C2832 H2856 0.950 . S
C2833 C2850 1.574 . S
C2833 C2852 1.368 . S
C2833 H2857 0.949 . S
H2834 C2838 0.949 . S
C2835 C2836 1.349 . S
C2835 C2837 1.327 1_655 S
C2835 H2858 0.950 . S
C2836 C2835 1.349 . S
C2836 C2848 1.349 . S
C2837 C2835 1.327 1_455 S
C2837 C2853 1.429 . S
C2837 H2859 0.950 . S
C2838 H2834 0.949 . S
C2838 C2846 1.574 . S
C2838 C2854 1.368 . S
H2839 C2847 0.950 . S
H2840 C2845 0.950 . S
H2841 C2846 0.949 . S
H2842 C2848 0.950 . S
H2843 C2849 0.950 . S
H2844 C2850 0.949 . S
C2845 H2840 0.950 . S
C2845 C2847 1.327 . S
C2845 C2851 1.429 . S
C2846 C2838 1.574 . S
C2846 H2841 0.949 . S
C2846 C2852 1.368 . S
C2847 C2831 1.349 . S
C2847 H2839 0.950 . S
C2847 C2845 1.327 . S
C2848 C2836 1.349 . S
C2848 H2842 0.950 . S
C2848 C2849 1.327 . S
C2849 H2843 0.950 . S
C2849 C2848 1.327 . S
C2849 C2853 1.429 1_655 S
C2850 C2833 1.574 . S
C2850 H2844 0.949 . S
C2850 C2854 1.368 . S
C2851 C2832 1.429 . S
C2851 C2845 1.429 . S
C2851 C2852 1.523 . S
C2852 C2833 1.368 . S
C2852 C2846 1.368 . S
C2852 C2851 1.523 . S
C2853 C2837 1.429 . S
C2853 C2849 1.429 1_455 S
C2853 C2854 1.523 . S
C2854 C2838 1.368 . S
C2854 C2850 1.368 . S
C2854 C2853 1.523 . S
H2855 C2830 0.950 . S
H2856 C2832 0.950 . S
H2857 C2833 0.949 . S
H2858 C2835 0.950 . S
H2859 C2837 0.950 . S
C2860 C2861 1.349 . S
C2860 C2862 1.327 . S
C2860 H2885 0.950 . S
C2861 C2860 1.349 . S
C2861 C2877 1.349 . S
C2862 C2860 1.327 . S
C2862 C2881 1.429 . S
C2862 H2886 0.950 . S
C2863 C2880 1.574 . S
C2863 C2882 1.368 . S
C2863 H2887 0.949 . S
H2864 C2868 0.949 . S
C2865 C2866 1.349 . S
C2865 C2867 1.327 . S
C2865 H2888 0.950 . S
C2866 C2865 1.349 . S
C2866 C2878 1.349 . S
C2867 C2865 1.327 . S
C2867 C2883 1.429 . S
C2867 H2889 0.950 . S
C2868 H2864 0.949 . S
C2868 C2876 1.574 . S
C2868 C2884 1.368 . S
H2869 C2877 0.950 . S
H2870 C2875 0.950 . S
H2871 C2876 0.949 . S
H2872 C2878 0.950 . S
H2873 C2879 0.950 . S
H2874 C2880 0.949 . S
C2875 H2870 0.950 . S
C2875 C2877 1.327 . S
C2875 C2881 1.429 . S
C2876 C2868 1.574 . S
C2876 H2871 0.949 . S
C2876 C2882 1.368 . S
C2877 C2861 1.349 . S
C2877 H2869 0.950 . S
C2877 C2875 1.327 . S
C2878 C2866 1.349 . S
C2878 H2872 0.950 . S
C2878 C2879 1.327 . S
C2879 H2873 0.950 . S
C2879 C2878 1.327 . S
C2879 C2883 1.429 . S
C2880 C2863 1.574 . S
C2880 H2874 0.949 . S
C2880 C2884 1.368 . S
C2881 C2862 1.429 . S
C2881 C2875 1.429 . S
C2881 C2882 1.523 . S
C2882 C2863 1.368 . S
C2882 C2876 1.368 . S
C2882 C2881 1.523 . S
C2883 C2867 1.429 . S
C2883 C2879 1.429 . S
C2883 C2884 1.523 . S
C2884 C2868 1.368 . S
C2884 C2880 1.368 . S
C2884 C2883 1.523 . S
H2885 C2860 0.950 . S
H2886 C2862 0.950 . S
H2887 C2863 0.949 . S
H2888 C2865 0.950 . S
H2889 C2867 0.950 . S
C2890 C2891 1.349 . S
C2890 C2892 1.327 . S
C2890 H2915 0.950 . S
C2891 C2890 1.349 . S
C2891 C2907 1.349 . S
C2892 C2890 1.327 . S
C2892 C2911 1.429 . S
C2892 H2916 0.950 . S
C2893 C2910 1.574 . S
C2893 C2912 1.368 . S
C2893 H2917 0.949 . S
H2894 C2898 0.949 . S
C2895 C2896 1.349 . S
C2895 C2897 1.327 1_655 S
C2895 H2918 0.950 . S
C2896 C2895 1.349 . S
C2896 C2908 1.349 . S
C2897 C2895 1.327 1_455 S
C2897 C2913 1.429 . S
C2897 H2919 0.950 . S
C2898 H2894 0.949 . S
C2898 C2906 1.574 . S
C2898 C2914 1.368 . S
H2899 C2907 0.950 . S
H2900 C2905 0.950 . S
H2901 C2906 0.949 . S
H2902 C2908 0.950 . S
H2903 C2909 0.950 . S
H2904 C2910 0.949 . S
C2905 H2900 0.950 . S
C2905 C2907 1.327 . S
C2905 C2911 1.429 . S
C2906 C2898 1.574 . S
C2906 H2901 0.949 . S
C2906 C2912 1.368 . S
C2907 C2891 1.349 . S
C2907 H2899 0.950 . S
C2907 C2905 1.327 . S
C2908 C2896 1.349 . S
C2908 H2902 0.950 . S
C2908 C2909 1.327 . S
C2909 H2903 0.950 . S
C2909 C2908 1.327 . S
C2909 C2913 1.429 1_655 S
C2910 C2893 1.574 . S
C2910 H2904 0.949 . S
C2910 C2914 1.368 . S
C2911 C2892 1.429 . S
C2911 C2905 1.429 . S
C2911 C2912 1.523 . S
C2912 C2893 1.368 . S
C2912 C2906 1.368 . S
C2912 C2911 1.523 . S
C2913 C2897 1.429 . S
C2913 C2909 1.429 1_455 S
C2913 C2914 1.523 . S
C2914 C2898 1.368 . S
C2914 C2910 1.368 . S
C2914 C2913 1.523 . S
H2915 C2890 0.950 . S
H2916 C2892 0.950 . S
H2917 C2893 0.949 . S
H2918 C2895 0.950 . S
H2919 C2897 0.950 . S
C2920 C2921 1.349 . S
C2920 C2922 1.327 . S
C2920 H2945 0.950 . S
C2921 C2920 1.349 . S
C2921 C2937 1.349 . S
C2922 C2920 1.327 . S
C2922 C2941 1.429 . S
C2922 H2946 0.950 . S
C2923 C2940 1.574 . S
C2923 C2942 1.368 . S
C2923 H2947 0.949 . S
H2924 C2928 0.949 . S
C2925 C2926 1.349 . S
C2925 C2927 1.327 . S
C2925 H2948 0.950 . S
C2926 C2925 1.349 . S
C2926 C2938 1.349 . S
C2927 C2925 1.327 . S
C2927 C2943 1.429 . S
C2927 H2949 0.950 . S
C2928 H2924 0.949 . S
C2928 C2936 1.574 . S
C2928 C2944 1.368 . S
H2929 C2937 0.950 . S
H2930 C2935 0.950 . S
H2931 C2936 0.949 . S
H2932 C2938 0.950 . S
H2933 C2939 0.950 . S
H2934 C2940 0.949 . S
C2935 H2930 0.950 . S
C2935 C2937 1.327 . S
C2935 C2941 1.429 . S
C2936 C2928 1.574 . S
C2936 H2931 0.949 . S
C2936 C2942 1.368 . S
C2937 C2921 1.349 . S
C2937 H2929 0.950 . S
C2937 C2935 1.327 . S
C2938 C2926 1.349 . S
C2938 H2932 0.950 . S
C2938 C2939 1.327 . S
C2939 H2933 0.950 . S
C2939 C2938 1.327 . S
C2939 C2943 1.429 . S
C2940 C2923 1.574 . S
C2940 H2934 0.949 . S
C2940 C2944 1.368 . S
C2941 C2922 1.429 . S
C2941 C2935 1.429 . S
C2941 C2942 1.523 . S
C2942 C2923 1.368 . S
C2942 C2936 1.368 . S
C2942 C2941 1.523 . S
C2943 C2927 1.429 . S
C2943 C2939 1.429 . S
C2943 C2944 1.523 . S
C2944 C2928 1.368 . S
C2944 C2940 1.368 . S
C2944 C2943 1.523 . S
H2945 C2920 0.950 . S
H2946 C2922 0.950 . S
H2947 C2923 0.949 . S
H2948 C2925 0.950 . S
H2949 C2927 0.950 . S
C2950 C2951 1.349 . S
C2950 C2952 1.327 1_455 S
C2950 H2975 0.950 . S
C2951 C2950 1.349 . S
C2951 C2967 1.349 . S
C2952 C2950 1.327 1_655 S
C2952 C2971 1.429 . S
C2952 H2976 0.950 . S
C2953 C2970 1.574 . S
C2953 C2972 1.368 . S
C2953 H2977 0.970 . S
H2954 C2958 0.949 . S
C2955 C2956 1.349 . S
C2955 C2957 1.327 . S
C2955 H2978 0.950 . S
C2956 C2955 1.349 . S
C2956 C2968 1.349 . S
C2957 C2955 1.327 . S
C2957 C2973 1.429 . S
C2957 H2979 0.950 . S
C2958 H2954 0.949 . S
C2958 C2966 1.574 . S
C2958 C2974 1.368 . S
H2959 C2967 0.950 . S
H2960 C2965 0.950 . S
H2961 C2966 0.949 . S
H2962 C2968 0.950 . S
H2963 C2969 0.950 . S
H2964 C2970 0.949 . S
C2965 H2960 0.950 . S
C2965 C2967 1.327 . S
C2965 C2971 1.429 1_455 S
C2966 C2958 1.574 . S
C2966 H2961 0.949 . S
C2966 C2972 1.368 . S
C2967 C2951 1.349 . S
C2967 H2959 0.950 . S
C2967 C2965 1.327 . S
C2968 C2956 1.349 . S
C2968 H2962 0.950 . S
C2968 C2969 1.327 . S
C2969 H2963 0.950 . S
C2969 C2968 1.327 . S
C2969 C2973 1.429 . S
C2970 C2953 1.574 . S
C2970 H2964 0.949 . S
C2970 C2974 1.368 . S
C2971 C2952 1.429 . S
C2971 C2965 1.429 1_655 S
C2971 C2972 1.523 . S
C2972 C2953 1.368 . S
C2972 C2966 1.368 . S
C2972 C2971 1.523 . S
C2973 C2957 1.429 . S
C2973 C2969 1.429 . S
C2973 C2974 1.523 . S
C2974 C2958 1.368 . S
C2974 C2970 1.368 . S
C2974 C2973 1.523 . S
H2975 C2950 0.950 . S
H2976 C2952 0.950 . S
H2977 C2953 0.970 . S
H2978 C2955 0.950 . S
H2979 C2957 0.950 . S
C2980 C2981 1.349 . S
C2980 C2982 1.327 . S
C2980 H3005 0.950 . S
C2981 C2980 1.349 . S
C2981 C2997 1.349 . S
C2982 C2980 1.327 . S
C2982 C3001 1.429 . S
C2982 H3006 0.950 . S
C2983 C3000 1.574 . S
C2983 C3002 1.368 . S
C2983 H3007 0.949 . S
H2984 C2988 0.949 . S
C2985 C2986 1.349 . S
C2985 C2987 1.327 . S
C2985 H3008 0.950 . S
C2986 C2985 1.349 . S
C2986 C2998 1.349 . S
C2987 C2985 1.327 . S
C2987 C3003 1.429 . S
C2987 H3009 0.950 . S
C2988 H2984 0.949 . S
C2988 C2996 1.574 . S
C2988 C3004 1.368 . S
H2989 C2997 0.950 . S
H2990 C2995 0.950 . S
H2991 C2996 0.949 . S
H2992 C2998 0.950 . S
H2993 C2999 0.950 . S
H2994 C3000 0.949 . S
C2995 H2990 0.950 . S
C2995 C2997 1.327 . S
C2995 C3001 1.429 . S
C2996 C2988 1.574 . S
C2996 H2991 0.949 . S
C2996 C3002 1.368 . S
C2997 C2981 1.349 . S
C2997 H2989 0.950 . S
C2997 C2995 1.327 . S
C2998 C2986 1.349 . S
C2998 H2992 0.950 . S
C2998 C2999 1.327 . S
C2999 H2993 0.950 . S
C2999 C2998 1.327 . S
C2999 C3003 1.429 . S
C3000 C2983 1.574 . S
C3000 H2994 0.949 . S
C3000 C3004 1.368 . S
C3001 C2982 1.429 . S
C3001 C2995 1.429 . S
C3001 C3002 1.523 . S
C3002 C2983 1.368 . S
C3002 C2996 1.368 . S
C3002 C3001 1.523 . S
C3003 C2987 1.429 . S
C3003 C2999 1.429 . S
C3003 C3004 1.523 . S
C3004 C2988 1.368 . S
C3004 C3000 1.368 . S
C3004 C3003 1.523 . S
H3005 C2980 0.950 . S
H3006 C2982 0.950 . S
H3007 C2983 0.949 . S
H3008 C2985 0.950 . S
H3009 C2987 0.950 . S
C3010 C3011 1.349 . S
C3010 C3012 1.327 . S
C3010 H3035 0.950 . S
C3011 C3010 1.349 . S
C3011 C3027 1.349 . S
C3012 C3010 1.327 . S
C3012 C3031 1.429 . S
C3012 H3036 0.950 . S
C3013 C3030 1.574 . S
C3013 C3032 1.368 . S
C3013 H3037 0.949 . S
H3014 C3018 0.949 . S
C3015 C3016 1.349 . S
C3015 C3017 1.327 1_455 S
C3015 H3038 0.950 . S
C3016 C3015 1.349 . S
C3016 C3028 1.349 . S
C3017 C3015 1.327 1_655 S
C3017 C3033 1.429 . S
C3017 H3039 0.950 . S
C3018 H3014 0.949 . S
C3018 C3026 1.574 . S
C3018 C3034 1.368 . S
H3019 C3027 0.950 . S
H3020 C3025 0.950 . S
H3021 C3026 0.949 . S
H3022 C3028 0.950 . S
H3023 C3029 0.950 . S
H3024 C3030 0.949 . S
C3025 H3020 0.950 . S
C3025 C3027 1.327 . S
C3025 C3031 1.429 . S
C3026 C3018 1.574 . S
C3026 H3021 0.949 . S
C3026 C3032 1.368 . S
C3027 C3011 1.349 . S
C3027 H3019 0.950 . S
C3027 C3025 1.327 . S
C3028 C3016 1.349 . S
C3028 H3022 0.950 . S
C3028 C3029 1.327 . S
C3029 H3023 0.950 . S
C3029 C3028 1.327 . S
C3029 C3033 1.429 1_455 S
C3030 C3013 1.574 . S
C3030 H3024 0.949 . S
C3030 C3034 1.368 . S
C3031 C3012 1.429 . S
C3031 C3025 1.429 . S
C3031 C3032 1.523 . S
C3032 C3013 1.368 . S
C3032 C3026 1.368 . S
C3032 C3031 1.523 . S
C3033 C3017 1.429 . S
C3033 C3029 1.429 1_655 S
C3033 C3034 1.523 . S
C3034 C3018 1.368 . S
C3034 C3030 1.368 . S
C3034 C3033 1.523 . S
H3035 C3010 0.950 . S
H3036 C3012 0.950 . S
H3037 C3013 0.949 . S
H3038 C3015 0.950 . S
H3039 C3017 0.950 . S
C3040 C3041 1.349 1_565 S
C3040 C3042 1.327 . S
C3040 H3065 0.950 . S
C3041 C3040 1.349 1_545 S
C3041 C3057 1.349 . S
C3042 C3040 1.327 . S
C3042 C3061 1.409 1_565 S
C3042 H3066 0.950 . S
C3043 C3060 1.574 . S
C3043 C3062 1.362 1_545 S
C3043 H3067 0.949 . S
H3044 C3048 0.949 . S
C3045 C3046 1.349 1_545 S
C3045 C3047 1.327 . S
C3045 H3068 0.950 . S
C3046 C3045 1.349 1_565 S
C3046 C3058 1.349 . S
C3047 C3045 1.327 . S
C3047 C3063 1.429 1_545 S
C3047 H3069 0.950 . S
C3048 H3044 0.949 . S
C3048 C3056 1.574 . S
C3048 C3064 1.368 . S
H3049 C3057 0.950 . S
H3050 C3055 0.950 . S
H3051 C3056 0.949 . S
H3052 C3058 0.950 . S
H3053 C3059 0.950 . S
H3054 C3060 0.949 . S
C3055 H3050 0.950 . S
C3055 C3057 1.327 . S
C3055 C3061 1.450 . S
C3056 C3048 1.574 . S
C3056 H3051 0.949 . S
C3056 C3062 1.374 . S
C3057 C3041 1.349 . S
C3057 H3049 0.950 . S
C3057 C3055 1.327 . S
C3058 C3046 1.349 . S
C3058 H3052 0.950 . S
C3058 C3059 1.327 . S
C3059 H3053 0.950 . S
C3059 C3058 1.327 . S
C3059 C3063 1.429 . S
C3060 C3043 1.574 . S
C3060 H3054 0.949 . S
C3060 C3064 1.368 1_545 S
C3061 C3042 1.409 1_545 S
C3061 C3055 1.450 . S
C3061 C3062 1.522 1_545 S
C3062 C3043 1.362 1_565 S
C3062 C3056 1.374 . S
C3062 C3061 1.522 1_565 S
C3063 C3047 1.429 1_565 S
C3063 C3059 1.429 . S
C3063 C3064 1.523 . S
C3064 C3048 1.368 . S
C3064 C3060 1.368 1_565 S
C3064 C3063 1.523 . S
H3065 C3040 0.950 . S
H3066 C3042 0.950 . S
H3067 C3043 0.949 . S
H3068 C3045 0.950 . S
H3069 C3047 0.950 . S
C3070 C3071 1.349 . S
C3070 C3072 1.327 . S
C3070 H3095 0.950 . S
C3071 C3070 1.349 . S
C3071 C3087 1.349 . S
C3072 C3070 1.327 . S
C3072 C3091 1.429 . S
C3072 H3096 0.950 . S
C3073 C3090 1.574 . S
C3073 C3092 1.368 . S
C3073 H3097 0.949 . S
H3074 C3078 0.949 . S
C3075 C3076 1.349 . S
C3075 C3077 1.327 . S
C3075 H3098 0.950 . S
C3076 C3075 1.349 . S
C3076 C3088 1.349 . S
C3077 C3075 1.327 . S
C3077 C3093 1.429 . S
C3077 H3099 0.950 . S
C3078 H3074 0.949 . S
C3078 C3086 1.574 . S
C3078 C3094 1.368 . S
H3079 C3087 0.950 . S
H3080 C3085 0.950 . S
H3081 C3086 0.949 . S
H3082 C3088 0.950 . S
H3083 C3089 0.950 . S
H3084 C3090 0.949 . S
C3085 H3080 0.950 . S
C3085 C3087 1.327 . S
C3085 C3091 1.429 . S
C3086 C3078 1.574 . S
C3086 H3081 0.949 . S
C3086 C3092 1.368 . S
C3087 C3071 1.349 . S
C3087 H3079 0.950 . S
C3087 C3085 1.327 . S
C3088 C3076 1.349 . S
C3088 H3082 0.950 . S
C3088 C3089 1.327 . S
C3089 H3083 0.950 . S
C3089 C3088 1.327 . S
C3089 C3093 1.429 . S
C3090 C3073 1.574 . S
C3090 H3084 0.949 . S
C3090 C3094 1.368 . S
C3091 C3072 1.429 . S
C3091 C3085 1.429 . S
C3091 C3092 1.523 . S
C3092 C3073 1.368 . S
C3092 C3086 1.368 . S
C3092 C3091 1.523 . S
C3093 C3077 1.429 . S
C3093 C3089 1.429 . S
C3093 C3094 1.523 . S
C3094 C3078 1.368 . S
C3094 C3090 1.368 . S
C3094 C3093 1.523 . S
H3095 C3070 0.950 . S
H3096 C3072 0.950 . S
H3097 C3073 0.949 . S
H3098 C3075 0.950 . S
H3099 C3077 0.950 . S
C3100 C3101 1.349 . S
C3100 C3102 1.327 . S
C3100 H3125 0.950 . S
C3101 C3100 1.349 . S
C3101 C3117 1.349 . S
C3102 C3100 1.327 . S
C3102 C3121 1.429 . S
C3102 H3126 0.950 . S
C3103 C3120 1.574 . S
C3103 C3122 1.368 . S
C3103 H3127 0.949 . S
H3104 C3108 0.949 . S
C3105 C3106 1.349 . S
C3105 C3107 1.327 . S
C3105 H3128 0.950 . S
C3106 C3105 1.349 . S
C3106 C3118 1.349 . S
C3107 C3105 1.327 . S
C3107 C3123 1.429 . S
C3107 H3129 0.950 . S
C3108 H3104 0.949 . S
C3108 C3116 1.574 . S
C3108 C3124 1.368 . S
H3109 C3117 0.950 . S
H3110 C3115 0.950 . S
H3111 C3116 0.949 . S
H3112 C3118 0.950 . S
H3113 C3119 0.950 . S
H3114 C3120 0.949 . S
C3115 H3110 0.950 . S
C3115 C3117 1.327 . S
C3115 C3121 1.429 . S
C3116 C3108 1.574 . S
C3116 H3111 0.949 . S
C3116 C3122 1.368 . S
C3117 C3101 1.349 . S
C3117 H3109 0.950 . S
C3117 C3115 1.327 . S
C3118 C3106 1.349 . S
C3118 H3112 0.950 . S
C3118 C3119 1.327 . S
C3119 H3113 0.950 . S
C3119 C3118 1.327 . S
C3119 C3123 1.429 . S
C3120 C3103 1.574 . S
C3120 H3114 0.949 . S
C3120 C3124 1.368 . S
C3121 C3102 1.429 . S
C3121 C3115 1.429 . S
C3121 C3122 1.523 . S
C3122 C3103 1.368 . S
C3122 C3116 1.368 . S
C3122 C3121 1.523 . S
C3123 C3107 1.429 . S
C3123 C3119 1.429 . S
C3123 C3124 1.523 . S
C3124 C3108 1.368 . S
C3124 C3120 1.368 . S
C3124 C3123 1.523 . S
H3125 C3100 0.950 . S
H3126 C3102 0.950 . S
H3127 C3103 0.949 . S
H3128 C3105 0.950 . S
H3129 C3107 0.950 . S
C3130 C3131 1.349 1_565 S
C3130 C3132 1.327 . S
C3130 H3155 0.950 . S
C3131 C3130 1.349 1_545 S
C3131 C3147 1.349 . S
C3132 C3130 1.327 . S
C3132 C3151 1.407 1_565 S
C3132 H3156 0.950 . S
C3133 C3150 1.574 . S
C3133 C3152 1.362 1_545 S
C3133 H3157 0.949 . S
H3134 C3138 0.949 . S
C3135 C3136 1.349 1_545 S
C3135 C3137 1.327 . S
C3135 H3158 0.950 . S
C3136 C3135 1.349 1_565 S
C3136 C3148 1.349 . S
C3137 C3135 1.327 . S
C3137 C3153 1.429 1_545 S
C3137 H3159 0.950 . S
C3138 H3134 0.949 . S
C3138 C3146 1.574 . S
C3138 C3154 1.368 . S
H3139 C3147 0.950 . S
H3140 C3145 0.950 . S
H3141 C3146 0.949 . S
H3142 C3148 0.950 . S
H3143 C3149 0.950 . S
H3144 C3150 0.949 . S
C3145 H3140 0.950 . S
C3145 C3147 1.327 . S
C3145 C3151 1.451 . S
C3146 C3138 1.574 . S
C3146 H3141 0.949 . S
C3146 C3152 1.375 . S
C3147 C3131 1.349 . S
C3147 H3139 0.950 . S
C3147 C3145 1.327 . S
C3148 C3136 1.349 . S
C3148 H3142 0.950 . S
C3148 C3149 1.327 . S
C3149 H3143 0.950 . S
C3149 C3148 1.327 . S
C3149 C3153 1.429 . S
C3150 C3133 1.574 . S
C3150 H3144 0.949 . S
C3150 C3154 1.368 1_545 S
C3151 C3132 1.407 1_545 S
C3151 C3145 1.451 . S
C3151 C3152 1.522 1_545 S
C3152 C3133 1.362 1_565 S
C3152 C3146 1.375 . S
C3152 C3151 1.522 1_565 S
C3153 C3137 1.429 1_565 S
C3153 C3149 1.429 . S
C3153 C3154 1.523 . S
C3154 C3138 1.368 . S
C3154 C3150 1.368 1_565 S
C3154 C3153 1.523 . S
H3155 C3130 0.950 . S
H3156 C3132 0.950 . S
H3157 C3133 0.949 . S
H3158 C3135 0.950 . S
H3159 C3137 0.950 . S
C3160 C3161 1.349 . S
C3160 C3162 1.327 . S
C3160 H3185 0.950 . S
C3161 C3160 1.349 . S
C3161 C3177 1.349 1_565 S
C3162 C3160 1.327 . S
C3162 C3181 1.451 . S
C3162 H3186 0.950 . S
C3163 C3180 1.574 . S
C3163 C3182 1.375 . S
C3163 H3187 0.949 . S
H3164 C3168 0.949 . S
C3165 C3166 1.349 . S
C3165 C3167 1.327 . S
C3165 H3188 0.950 . S
C3166 C3165 1.349 . S
C3166 C3178 1.349 1_545 S
C3167 C3165 1.327 . S
C3167 C3183 1.429 . S
C3167 H3189 0.950 . S
C3168 H3164 0.949 . S
C3168 C3176 1.574 . S
C3168 C3184 1.368 1_565 S
H3169 C3177 0.950 . S
H3170 C3175 0.950 . S
H3171 C3176 0.949 . S
H3172 C3178 0.950 . S
H3173 C3179 0.950 . S
H3174 C3180 0.949 . S
C3175 H3170 0.950 . S
C3175 C3177 1.327 . S
C3175 C3181 1.408 1_545 S
C3176 C3168 1.574 . S
C3176 H3171 0.949 . S
C3176 C3182 1.362 1_565 S
C3177 C3161 1.349 1_545 S
C3177 H3169 0.950 . S
C3177 C3175 1.327 . S
C3178 C3166 1.349 1_565 S
C3178 H3172 0.950 . S
C3178 C3179 1.327 . S
C3179 H3173 0.950 . S
C3179 C3178 1.327 . S
C3179 C3183 1.429 1_565 S
C3180 C3163 1.574 . S
C3180 H3174 0.949 . S
C3180 C3184 1.368 . S
C3181 C3162 1.451 . S
C3181 C3175 1.408 1_565 S
C3181 C3182 1.522 1_565 S
C3182 C3163 1.375 . S
C3182 C3176 1.362 1_545 S
C3182 C3181 1.522 1_545 S
C3183 C3167 1.429 . S
C3183 C3179 1.429 1_545 S
C3183 C3184 1.523 . S
C3184 C3168 1.368 1_545 S
C3184 C3180 1.368 . S
C3184 C3183 1.523 . S
H3185 C3160 0.950 . S
H3186 C3162 0.950 . S
H3187 C3163 0.949 . S
H3188 C3165 0.950 . S
H3189 C3167 0.950 . S
C3190 C3191 1.349 . S
C3190 C3192 1.327 . S
C3190 H3215 0.950 . S
C3191 C3190 1.349 . S
C3191 C3207 1.349 . S
C3192 C3190 1.327 . S
C3192 C3211 1.429 . S
C3192 H3216 0.950 . S
C3193 C3210 1.574 . S
C3193 C3212 1.368 . S
C3193 H3217 0.949 . S
H3194 C3198 0.949 . S
C3195 C3196 1.349 . S
C3195 C3197 1.327 . S
C3195 H3218 0.950 . S
C3196 C3195 1.349 . S
C3196 C3208 1.349 . S
C3197 C3195 1.327 . S
C3197 C3213 1.429 . S
C3197 H3219 0.950 . S
C3198 H3194 0.949 . S
C3198 C3206 1.574 . S
C3198 C3214 1.368 . S
H3199 C3207 0.950 . S
H3200 C3205 0.950 . S
H3201 C3206 0.949 . S
H3202 C3208 0.950 . S
H3203 C3209 0.950 . S
H3204 C3210 0.949 . S
C3205 H3200 0.950 . S
C3205 C3207 1.327 . S
C3205 C3211 1.429 . S
C3206 C3198 1.574 . S
C3206 H3201 0.949 . S
C3206 C3212 1.368 . S
C3207 C3191 1.349 . S
C3207 H3199 0.950 . S
C3207 C3205 1.327 . S
C3208 C3196 1.349 . S
C3208 H3202 0.950 . S
C3208 C3209 1.327 . S
C3209 H3203 0.950 . S
C3209 C3208 1.327 . S
C3209 C3213 1.429 . S
C3210 C3193 1.574 . S
C3210 H3204 0.949 . S
C3210 C3214 1.368 . S
C3211 C3192 1.429 . S
C3211 C3205 1.429 . S
C3211 C3212 1.523 . S
C3212 C3193 1.368 . S
C3212 C3206 1.368 . S
C3212 C3211 1.523 . S
C3213 C3197 1.429 . S
C3213 C3209 1.429 . S
C3213 C3214 1.523 . S
C3214 C3198 1.368 . S
C3214 C3210 1.368 . S
C3214 C3213 1.523 . S
H3215 C3190 0.950 . S
H3216 C3192 0.950 . S
H3217 C3193 0.949 . S
H3218 C3195 0.950 . S
H3219 C3197 0.950 . S
C3220 C3221 1.349 . S
C3220 C3222 1.327 . S
C3220 H3245 0.950 . S
C3221 C3220 1.349 . S
C3221 C3237 1.349 . S
C3222 C3220 1.327 . S
C3222 C3241 1.429 . S
C3222 H3246 0.950 . S
C3223 C3240 1.574 . S
C3223 C3242 1.368 . S
C3223 H3247 0.949 . S
H3224 C3228 0.949 . S
C3225 C3226 1.349 . S
C3225 C3227 1.327 . S
C3225 H3248 0.950 . S
C3226 C3225 1.349 . S
C3226 C3238 1.349 . S
C3227 C3225 1.327 . S
C3227 C3243 1.429 . S
C3227 H3249 0.950 . S
C3228 H3224 0.949 . S
C3228 C3236 1.574 . S
C3228 C3244 1.368 . S
H3229 C3237 0.950 . S
H3230 C3235 0.950 . S
H3231 C3236 0.949 . S
H3232 C3238 0.950 . S
H3233 C3239 0.950 . S
H3234 C3240 0.949 . S
C3235 H3230 0.950 . S
C3235 C3237 1.327 . S
C3235 C3241 1.429 . S
C3236 C3228 1.574 . S
C3236 H3231 0.949 . S
C3236 C3242 1.368 . S
C3237 C3221 1.349 . S
C3237 H3229 0.950 . S
C3237 C3235 1.327 . S
C3238 C3226 1.349 . S
C3238 H3232 0.950 . S
C3238 C3239 1.327 . S
C3239 H3233 0.950 . S
C3239 C3238 1.327 . S
C3239 C3243 1.429 . S
C3240 C3223 1.574 . S
C3240 H3234 0.949 . S
C3240 C3244 1.368 . S
C3241 C3222 1.429 . S
C3241 C3235 1.429 . S
C3241 C3242 1.523 . S
C3242 C3223 1.368 . S
C3242 C3236 1.368 . S
C3242 C3241 1.523 . S
C3243 C3227 1.429 . S
C3243 C3239 1.429 . S
C3243 C3244 1.523 . S
C3244 C3228 1.368 . S
C3244 C3240 1.368 . S
C3244 C3243 1.523 . S
H3245 C3220 0.950 . S
H3246 C3222 0.950 . S
H3247 C3223 0.949 . S
H3248 C3225 0.950 . S
H3249 C3227 0.950 . S
C3250 C3251 1.349 1_545 S
C3250 C3252 1.327 . S
C3250 H3275 0.950 . S
C3251 C3250 1.349 1_565 S
C3251 C3267 1.349 . S
C3252 C3250 1.327 . S
C3252 C3271 1.408 1_545 S
C3252 H3276 0.950 . S
C3253 C3270 1.574 . S
C3253 C3272 1.362 1_565 S
C3253 H3277 0.949 . S
H3254 C3258 0.949 . S
C3255 C3256 1.349 1_565 S
C3255 C3257 1.327 . S
C3255 H3278 0.950 . S
C3256 C3255 1.349 1_545 S
C3256 C3268 1.349 . S
C3257 C3255 1.327 . S
C3257 C3273 1.429 1_565 S
C3257 H3279 0.950 . S
C3258 H3254 0.949 . S
C3258 C3266 1.574 . S
C3258 C3274 1.368 . S
H3259 C3267 0.950 . S
H3260 C3265 0.950 . S
H3261 C3266 0.949 . S
H3262 C3268 0.950 . S
H3263 C3269 0.950 . S
H3264 C3270 0.949 . S
C3265 H3260 0.950 . S
C3265 C3267 1.327 . S
C3265 C3271 1.451 . S
C3266 C3258 1.574 . S
C3266 H3261 0.949 . S
C3266 C3272 1.375 . S
C3267 C3251 1.349 . S
C3267 H3259 0.950 . S
C3267 C3265 1.327 . S
C3268 C3256 1.349 . S
C3268 H3262 0.950 . S
C3268 C3269 1.327 . S
C3269 H3263 0.950 . S
C3269 C3268 1.327 . S
C3269 C3273 1.429 . S
C3270 C3253 1.574 . S
C3270 H3264 0.949 . S
C3270 C3274 1.368 1_565 S
C3271 C3252 1.408 1_565 S
C3271 C3265 1.451 . S
C3271 C3272 1.522 1_565 S
C3272 C3253 1.362 1_545 S
C3272 C3266 1.375 . S
C3272 C3271 1.522 1_545 S
C3273 C3257 1.429 1_545 S
C3273 C3269 1.429 . S
C3273 C3274 1.523 . S
C3274 C3258 1.368 . S
C3274 C3270 1.368 1_545 S
C3274 C3273 1.523 . S
H3275 C3250 0.950 . S
H3276 C3252 0.950 . S
H3277 C3253 0.949 . S
H3278 C3255 0.950 . S
H3279 C3257 0.950 . S
C3280 C3281 1.349 . S
C3280 C3282 1.327 . S
C3280 H3305 0.950 . S
C3281 C3280 1.349 . S
C3281 C3297 1.349 . S
C3282 C3280 1.327 . S
C3282 C3301 1.429 . S
C3282 H3306 0.950 . S
C3283 C3300 1.574 . S
C3283 C3302 1.368 . S
C3283 H3307 0.949 . S
H3284 C3288 0.949 . S
C3285 C3286 1.349 . S
C3285 C3287 1.327 1_554 S
C3285 H3308 0.950 . S
C3286 C3285 1.349 . S
C3286 C3298 1.349 . S
C3287 C3285 1.327 1_556 S
C3287 C3303 1.429 . S
C3287 H3309 0.950 . S
C3288 H3284 0.949 . S
C3288 C3296 1.574 . S
C3288 C3304 1.368 . S
H3289 C3297 0.950 . S
H3290 C3295 0.950 . S
H3291 C3296 0.949 . S
H3292 C3298 0.950 . S
H3293 C3299 0.950 . S
H3294 C3300 0.949 . S
C3295 H3290 0.950 . S
C3295 C3297 1.327 . S
C3295 C3301 1.429 . S
C3296 C3288 1.574 . S
C3296 H3291 0.949 . S
C3296 C3302 1.368 . S
C3297 C3281 1.349 . S
C3297 H3289 0.950 . S
C3297 C3295 1.327 . S
C3298 C3286 1.349 . S
C3298 H3292 0.950 . S
C3298 C3299 1.327 . S
C3299 H3293 0.950 . S
C3299 C3298 1.327 . S
C3299 C3303 1.429 1_554 S
C3300 C3283 1.574 . S
C3300 H3294 0.949 . S
C3300 C3304 1.368 . S
C3301 C3282 1.429 . S
C3301 C3295 1.429 . S
C3301 C3302 1.523 . S
C3302 C3283 1.368 . S
C3302 C3296 1.368 . S
C3302 C3301 1.523 . S
C3303 C3287 1.429 . S
C3303 C3299 1.429 1_556 S
C3303 C3304 1.523 . S
C3304 C3288 1.368 . S
C3304 C3300 1.368 . S
C3304 C3303 1.523 . S
H3305 C3280 0.950 . S
H3306 C3282 0.950 . S
H3307 C3283 0.949 . S
H3308 C3285 0.950 . S
H3309 C3287 0.950 . S
C3310 C3311 1.349 . S
C3310 C3312 1.327 . S
C3310 H3335 0.950 . S
C3311 C3310 1.349 . S
C3311 C3327 1.349 . S
C3312 C3310 1.327 . S
C3312 C3331 1.429 . S
C3312 H3336 0.950 . S
C3313 C3330 1.574 . S
C3313 C3332 1.368 . S
C3313 H3337 0.949 . S
H3314 C3318 0.949 . S
C3315 C3316 1.349 . S
C3315 C3317 1.327 . S
C3315 H3338 0.950 . S
C3316 C3315 1.349 . S
C3316 C3328 1.349 . S
C3317 C3315 1.327 . S
C3317 C3333 1.429 1_554 S
C3317 H3339 0.950 . S
C3318 H3314 0.949 . S
C3318 C3326 1.574 . S
C3318 C3334 1.368 . S
H3319 C3327 0.950 . S
H3320 C3325 0.950 . S
H3321 C3326 0.949 . S
H3322 C3328 0.950 . S
H3323 C3329 0.950 . S
H3324 C3330 0.949 . S
C3325 H3320 0.950 . S
C3325 C3327 1.327 . S
C3325 C3331 1.429 . S
C3326 C3318 1.574 . S
C3326 H3321 0.949 . S
C3326 C3332 1.368 . S
C3327 C3311 1.349 . S
C3327 H3319 0.950 . S
C3327 C3325 1.327 . S
C3328 C3316 1.349 . S
C3328 H3322 0.950 . S
C3328 C3329 1.327 1_554 S
C3329 H3323 0.950 . S
C3329 C3328 1.327 1_556 S
C3329 C3333 1.429 . S
C3330 C3313 1.574 . S
C3330 H3324 0.949 . S
C3330 C3334 1.368 . S
C3331 C3312 1.429 . S
C3331 C3325 1.429 . S
C3331 C3332 1.523 . S
C3332 C3313 1.368 . S
C3332 C3326 1.368 . S
C3332 C3331 1.523 . S
C3333 C3317 1.429 1_556 S
C3333 C3329 1.429 . S
C3333 C3334 1.523 . S
C3334 C3318 1.368 . S
C3334 C3330 1.368 . S
C3334 C3333 1.523 . S
H3335 C3310 0.950 . S
H3336 C3312 0.950 . S
H3337 C3313 0.949 . S
H3338 C3315 0.950 . S
H3339 C3317 0.950 . S
C3340 C3341 1.349 . S
C3340 C3342 1.327 . S
C3340 H3365 0.950 . S
C3341 C3340 1.349 . S
C3341 C3357 1.349 . S
C3342 C3340 1.327 . S
C3342 C3361 1.429 . S
C3342 H3366 0.950 . S
C3343 C3360 1.574 . S
C3343 C3362 1.368 . S
C3343 H3367 0.949 . S
H3344 C3348 0.949 . S
C3345 C3346 1.349 . S
C3345 C3347 1.327 . S
C3345 H3368 0.950 . S
C3346 C3345 1.349 . S
C3346 C3358 1.349 . S
C3347 C3345 1.327 . S
C3347 C3363 1.429 . S
C3347 H3369 0.950 . S
C3348 H3344 0.949 . S
C3348 C3356 1.574 . S
C3348 C3364 1.368 . S
H3349 C3357 0.950 . S
H3350 C3355 0.950 . S
H3351 C3356 0.949 . S
H3352 C3358 0.950 . S
H3353 C3359 0.950 . S
H3354 C3360 0.949 . S
C3355 H3350 0.950 . S
C3355 C3357 1.327 . S
C3355 C3361 1.429 . S
C3356 C3348 1.574 . S
C3356 H3351 0.949 . S
C3356 C3362 1.368 . S
C3357 C3341 1.349 . S
C3357 H3349 0.950 . S
C3357 C3355 1.327 . S
C3358 C3346 1.349 . S
C3358 H3352 0.950 . S
C3358 C3359 1.327 . S
C3359 H3353 0.950 . S
C3359 C3358 1.327 . S
C3359 C3363 1.429 . S
C3360 C3343 1.574 . S
C3360 H3354 0.949 . S
C3360 C3364 1.368 . S
C3361 C3342 1.429 . S
C3361 C3355 1.429 . S
C3361 C3362 1.523 . S
C3362 C3343 1.368 . S
C3362 C3356 1.368 . S
C3362 C3361 1.523 . S
C3363 C3347 1.429 . S
C3363 C3359 1.429 . S
C3363 C3364 1.523 . S
C3364 C3348 1.368 . S
C3364 C3360 1.368 . S
C3364 C3363 1.523 . S
H3365 C3340 0.950 . S
H3366 C3342 0.950 . S
H3367 C3343 0.949 . S
H3368 C3345 0.950 . S
H3369 C3347 0.950 . S
C3370 C3371 1.349 . S
C3370 C3372 1.327 . S
C3370 H3395 0.950 . S
C3371 C3370 1.349 . S
C3371 C3387 1.349 . S
C3372 C3370 1.327 . S
C3372 C3391 1.429 . S
C3372 H3396 0.950 . S
C3373 C3390 1.574 . S
C3373 C3392 1.368 . S
C3373 H3397 0.949 . S
H3374 C3378 0.949 . S
C3375 C3376 1.349 . S
C3375 C3377 1.327 . S
C3375 H3398 0.950 . S
C3376 C3375 1.349 . S
C3376 C3388 1.349 . S
C3377 C3375 1.327 . S
C3377 C3393 1.429 . S
C3377 H3399 0.950 . S
C3378 H3374 0.949 . S
C3378 C3386 1.574 . S
C3378 C3394 1.368 . S
H3379 C3387 0.950 . S
H3380 C3385 0.950 . S
H3381 C3386 0.949 . S
H3382 C3388 0.950 . S
H3383 C3389 0.950 . S
H3384 C3390 0.949 . S
C3385 H3380 0.950 . S
C3385 C3387 1.327 . S
C3385 C3391 1.429 . S
C3386 C3378 1.574 . S
C3386 H3381 0.949 . S
C3386 C3392 1.368 . S
C3387 C3371 1.349 . S
C3387 H3379 0.950 . S
C3387 C3385 1.327 . S
C3388 C3376 1.349 . S
C3388 H3382 0.950 . S
C3388 C3389 1.327 . S
C3389 H3383 0.950 . S
C3389 C3388 1.327 . S
C3389 C3393 1.429 . S
C3390 C3373 1.574 . S
C3390 H3384 0.949 . S
C3390 C3394 1.368 . S
C3391 C3372 1.429 . S
C3391 C3385 1.429 . S
C3391 C3392 1.523 . S
C3392 C3373 1.368 . S
C3392 C3386 1.368 . S
C3392 C3391 1.523 . S
C3393 C3377 1.429 . S
C3393 C3389 1.429 . S
C3393 C3394 1.523 . S
C3394 C3378 1.368 . S
C3394 C3390 1.368 . S
C3394 C3393 1.523 . S
H3395 C3370 0.950 . S
H3396 C3372 0.950 . S
H3397 C3373 0.949 . S
H3398 C3375 0.950 . S
H3399 C3377 0.950 . S
C3400 C3401 1.349 . S
C3400 C3402 1.327 . S
C3400 H3425 0.950 . S
C3401 C3400 1.349 . S
C3401 C3417 1.349 . S
C3402 C3400 1.327 . S
C3402 C3421 1.429 . S
C3402 H3426 0.950 . S
C3403 C3420 1.574 . S
C3403 C3422 1.368 . S
C3403 H3427 0.949 . S
H3404 C3408 0.949 . S
C3405 C3406 1.349 . S
C3405 C3407 1.327 . S
C3405 H3428 0.950 . S
C3406 C3405 1.349 . S
C3406 C3418 1.349 . S
C3407 C3405 1.327 . S
C3407 C3423 1.429 1_556 S
C3407 H3429 0.950 . S
C3408 H3404 0.949 . S
C3408 C3416 1.574 . S
C3408 C3424 1.368 . S
H3409 C3417 0.950 . S
H3410 C3415 0.950 . S
H3411 C3416 0.949 . S
H3412 C3418 0.950 . S
H3413 C3419 0.950 . S
H3414 C3420 0.949 . S
C3415 H3410 0.950 . S
C3415 C3417 1.327 . S
C3415 C3421 1.429 . S
C3416 C3408 1.574 . S
C3416 H3411 0.949 . S
C3416 C3422 1.368 . S
C3417 C3401 1.349 . S
C3417 H3409 0.950 . S
C3417 C3415 1.327 . S
C3418 C3406 1.349 . S
C3418 H3412 0.950 . S
C3418 C3419 1.327 1_556 S
C3419 H3413 0.950 . S
C3419 C3418 1.327 1_554 S
C3419 C3423 1.429 . S
C3420 C3403 1.574 . S
C3420 H3414 0.949 . S
C3420 C3424 1.368 . S
C3421 C3402 1.429 . S
C3421 C3415 1.429 . S
C3421 C3422 1.523 . S
C3422 C3403 1.368 . S
C3422 C3416 1.368 . S
C3422 C3421 1.523 . S
C3423 C3407 1.429 1_554 S
C3423 C3419 1.429 . S
C3423 C3424 1.523 . S
C3424 C3408 1.368 . S
C3424 C3420 1.368 . S
C3424 C3423 1.523 . S
H3425 C3400 0.950 . S
H3426 C3402 0.950 . S
H3427 C3403 0.949 . S
H3428 C3405 0.950 . S
H3429 C3407 0.950 . S
C3430 C3431 1.349 . S
C3430 C3432 1.327 . S
C3430 H3455 0.950 . S
C3431 C3430 1.349 . S
C3431 C3447 1.349 . S
C3432 C3430 1.327 . S
C3432 C3451 1.429 . S
C3432 H3456 0.950 . S
C3433 C3450 1.574 . S
C3433 C3452 1.368 . S
C3433 H3457 0.949 . S
H3434 C3438 0.949 . S
C3435 C3436 1.349 . S
C3435 C3437 1.327 . S
C3435 H3458 0.950 . S
C3436 C3435 1.349 . S
C3436 C3448 1.349 . S
C3437 C3435 1.327 . S
C3437 C3453 1.429 1_556 S
C3437 H3459 0.950 . S
C3438 H3434 0.949 . S
C3438 C3446 1.574 . S
C3438 C3454 1.368 . S
H3439 C3447 0.950 . S
H3440 C3445 0.950 . S
H3441 C3446 0.949 . S
H3442 C3448 0.950 . S
H3443 C3449 0.950 . S
H3444 C3450 0.949 . S
C3445 H3440 0.950 . S
C3445 C3447 1.327 . S
C3445 C3451 1.429 . S
C3446 C3438 1.574 . S
C3446 H3441 0.949 . S
C3446 C3452 1.368 . S
C3447 C3431 1.349 . S
C3447 H3439 0.950 . S
C3447 C3445 1.327 . S
C3448 C3436 1.349 . S
C3448 H3442 0.950 . S
C3448 C3449 1.327 1_556 S
C3449 H3443 0.950 . S
C3449 C3448 1.327 1_554 S
C3449 C3453 1.429 . S
C3450 C3433 1.574 . S
C3450 H3444 0.949 . S
C3450 C3454 1.368 . S
C3451 C3432 1.429 . S
C3451 C3445 1.429 . S
C3451 C3452 1.523 . S
C3452 C3433 1.368 . S
C3452 C3446 1.368 . S
C3452 C3451 1.523 . S
C3453 C3437 1.429 1_554 S
C3453 C3449 1.429 . S
C3453 C3454 1.523 . S
C3454 C3438 1.368 . S
C3454 C3450 1.368 . S
C3454 C3453 1.523 . S
H3455 C3430 0.950 . S
H3456 C3432 0.950 . S
H3457 C3433 0.949 . S
H3458 C3435 0.950 . S
H3459 C3437 0.950 . S
C3460 C3461 1.349 . S
C3460 C3462 1.327 . S
C3460 H3485 0.950 . S
C3461 C3460 1.349 . S
C3461 C3477 1.349 . S
C3462 C3460 1.327 . S
C3462 C3481 1.429 . S
C3462 H3486 0.950 . S
C3463 C3480 1.574 . S
C3463 C3482 1.368 . S
C3463 H3487 0.949 . S
H3464 C3468 0.949 . S
C3465 C3466 1.349 . S
C3465 C3467 1.327 . S
C3465 H3488 0.950 . S
C3466 C3465 1.349 . S
C3466 C3478 1.349 . S
C3467 C3465 1.327 . S
C3467 C3483 1.429 . S
C3467 H3489 0.950 . S
C3468 H3464 0.949 . S
C3468 C3476 1.574 . S
C3468 C3484 1.368 . S
H3469 C3477 0.950 . S
H3470 C3475 0.950 . S
H3471 C3476 0.949 . S
H3472 C3478 0.950 . S
H3473 C3479 0.950 . S
H3474 C3480 0.949 . S
C3475 H3470 0.950 . S
C3475 C3477 1.327 . S
C3475 C3481 1.429 . S
C3476 C3468 1.574 . S
C3476 H3471 0.949 . S
C3476 C3482 1.368 . S
C3477 C3461 1.349 . S
C3477 H3469 0.950 . S
C3477 C3475 1.327 . S
C3478 C3466 1.349 . S
C3478 H3472 0.950 . S
C3478 C3479 1.327 . S
C3479 H3473 0.950 . S
C3479 C3478 1.327 . S
C3479 C3483 1.429 . S
C3480 C3463 1.574 . S
C3480 H3474 0.949 . S
C3480 C3484 1.368 . S
C3481 C3462 1.429 . S
C3481 C3475 1.429 . S
C3481 C3482 1.523 . S
C3482 C3463 1.368 . S
C3482 C3476 1.368 . S
C3482 C3481 1.523 . S
C3483 C3467 1.429 . S
C3483 C3479 1.429 . S
C3483 C3484 1.523 . S
C3484 C3468 1.368 . S
C3484 C3480 1.368 . S
C3484 C3483 1.523 . S
H3485 C3460 0.950 . S
H3486 C3462 0.950 . S
H3487 C3463 0.949 . S
H3488 C3465 0.950 . S
H3489 C3467 0.950 . S
C3490 C3491 1.349 . S
C3490 C3492 1.327 . S
C3490 H3515 0.950 . S
C3491 C3490 1.349 . S
C3491 C3507 1.349 . S
C3492 C3490 1.327 . S
C3492 C3511 1.429 . S
C3492 H3516 0.950 . S
C3493 C3510 1.574 . S
C3493 C3512 1.368 . S
C3493 H3517 0.949 . S
H3494 C3498 0.949 . S
C3495 C3496 1.349 . S
C3495 C3497 1.327 . S
C3495 H3518 0.950 . S
C3496 C3495 1.349 . S
C3496 C3508 1.349 . S
C3497 C3495 1.327 . S
C3497 C3513 1.429 . S
C3497 H3519 0.950 . S
C3498 H3494 0.949 . S
C3498 C3506 1.574 . S
C3498 C3514 1.368 . S
H3499 C3507 0.950 . S
H3500 C3505 0.950 . S
H3501 C3506 0.949 . S
H3502 C3508 0.950 . S
H3503 C3509 0.950 . S
H3504 C3510 0.949 . S
C3505 H3500 0.950 . S
C3505 C3507 1.327 . S
C3505 C3511 1.429 . S
C3506 C3498 1.574 . S
C3506 H3501 0.949 . S
C3506 C3512 1.368 . S
C3507 C3491 1.349 . S
C3507 H3499 0.950 . S
C3507 C3505 1.327 . S
C3508 C3496 1.349 . S
C3508 H3502 0.950 . S
C3508 C3509 1.327 . S
C3509 H3503 0.950 . S
C3509 C3508 1.327 . S
C3509 C3513 1.429 . S
C3510 C3493 1.574 . S
C3510 H3504 0.949 . S
C3510 C3514 1.368 . S
C3511 C3492 1.429 . S
C3511 C3505 1.429 . S
C3511 C3512 1.523 . S
C3512 C3493 1.368 . S
C3512 C3506 1.368 . S
C3512 C3511 1.523 . S
C3513 C3497 1.429 . S
C3513 C3509 1.429 . S
C3513 C3514 1.523 . S
C3514 C3498 1.368 . S
C3514 C3510 1.368 . S
C3514 C3513 1.523 . S
H3515 C3490 0.950 . S
H3516 C3492 0.950 . S
H3517 C3493 0.949 . S
H3518 C3495 0.950 . S
H3519 C3497 0.950 . S
C641 C509 1.728 . S
C646 C9 1.728 . S
C671 C489 1.728 . S
C676 C29 1.728 . S
C701 C549 1.728 . S
C706 C49 1.728 . S
C731 C529 1.728 . S
C736 C69 1.728 . S
C761 C88 1.728 . S
C766 C588 1.728 . S
C791 C108 1.728 . S
C796 C568 1.728 . S
C821 C128 1.728 . S
C826 C628 1.728 . S
C851 C608 1.728 . S
C856 C148 1.728 . S
C881 C349 1.728 . S
C886 C169 1.728 . S
C911 C329 1.728 . S
C916 C189 1.728 . S
C941 C389 1.728 . S
C946 C209 1.728 . S
C971 C369 1.728 . S
C976 C229 1.728 . S
C1001 C248 1.728 . S
C1006 C428 1.728 . S
C1031 C408 1.728 . S
C1036 C268 1.728 . S
C1061 C288 1.728 . S
C1066 C468 1.728 . S
C1091 C448 1.728 . S
C1096 C308 1.728 . S
C1121 C1 0.966 . S
C1126 C402 0.966 . S
C1151 C262 0.966 . S
C1156 C21 0.966 . S
C1181 C602 0.966 . S
C1186 C41 0.966 . S
C1211 C61 0.966 . S
C1216 C142 0.966 . S
C1241 C82 0.966 . S
C1246 C321 0.966 . S
C1271 C102 0.966 . S
C1276 C181 0.966 . S
C1301 C122 0.966 . S
C1306 C521 0.966 . S
C1331 C562 0.966 . S
C1336 C161 0.966 . S
C1361 C442 0.966 . S
C1366 C201 0.966 . S
C1391 C302 0.966 . S
C1396 C221 0.966 . S
C1421 C481 0.966 . S
C1426 C242 0.966 . S
C1451 C282 0.966 . S
C1456 C361 0.966 . S
C1481 C582 0.966 . S
C1486 C341 0.966 . S
C1511 C381 0.966 . S
C1516 C462 0.966 . S
C1541 C501 0.966 . S
C1546 C422 0.966 . S
C1571 C541 0.966 . S
C1576 C622 0.966 . S
C1601 C2 1.696 1_556 S
C1606 C382 1.696 . S
C1631 C22 1.696 1_556 S
C1636 C362 1.696 . S
C1661 C42 1.696 . S
C1666 C342 1.696 . S
C1691 C62 1.696 . S
C1696 C322 1.696 . S
C1721 C81 1.696 1_554 S
C1726 C461 1.696 . S
C1751 C101 1.696 1_554 S
C1756 C441 1.696 . S
C1781 C121 1.696 . S
C1786 C421 1.696 . S
C1811 C141 1.696 . S
C1816 C401 1.696 . S
C1841 C162 1.696 . S
C1846 C542 1.696 . S
C1871 C182 1.696 . S
C1876 C522 1.696 . S
C1901 C202 1.696 . S
C1906 C502 1.696 1_556 S
C1931 C222 1.696 . S
C1936 C482 1.696 1_556 S
C1961 C621 1.696 . S
C1966 C241 1.696 . S
C1991 C601 1.696 . S
C1996 C261 1.696 . S
C2021 C581 1.696 1_554 S
C2026 C281 1.696 . S
C2051 C561 1.696 1_554 S
C2056 C301 1.696 . S
C2081 C48 1.560 . S
C2086 C8 1.560 . S
C2111 C68 1.560 . S
C2116 C28 1.560 . S
C2141 C129 1.560 . S
C2146 C89 1.560 . S
C2171 C109 1.560 . S
C2176 C149 1.560 . S
C2201 C208 1.560 . S
C2206 C168 1.560 . S
C2231 C188 1.560 . S
C2236 C228 1.560 . S
C2261 C289 1.560 . S
C2266 C249 1.560 . S
C2291 C269 1.560 . S
C2296 C309 1.560 . S
C2321 C328 1.560 . S
C2326 C368 1.560 . S
C2351 C348 1.560 . S
C2356 C388 1.560 . S
C2381 C449 1.560 . S
C2386 C409 1.560 . S
C2411 C429 1.560 . S
C2416 C469 1.560 . S
C2441 C488 1.560 . S
C2446 C528 1.560 . S
C2471 C548 1.560 . S
C2476 C508 1.560 . S
C2501 C569 1.560 . S
C2506 C609 1.560 . S
C2531 C589 1.560 . S
C2536 C629 1.560 . S
C2561 C18 1.320 . S
C2566 C158 1.315 . S
C2591 C618 1.315 . S
C2596 C38 1.320 . S
C2621 C58 1.320 . S
C2626 C278 1.315 . S
C2651 C78 1.320 . S
C2656 C418 1.315 . S
C2681 C79 1.315 . S
C2686 C99 1.320 . S
C2711 C119 1.320 . S
C2716 C539 1.315 . S
C2741 C199 1.315 . S
C2746 C139 1.320 . S
C2771 C339 1.315 . S
C2776 C159 1.320 . S
C2801 C178 1.320 . S
C2806 C318 1.315 . S
C2831 C458 1.315 . S
C2836 C198 1.320 . S
C2861 C218 1.320 . S
C2866 C118 1.315 . S
C2891 C578 1.315 . S
C2896 C238 1.320 . S
C2921 C259 1.320 . S
C2926 C239 1.315 . S
C2951 C279 1.320 . S
C2956 C379 1.315 . S
C2981 C299 1.320 . S
C2986 C39 1.315 . S
C3011 C499 1.315 . S
C3016 C319 1.320 . S
C3041 C338 1.320 . S
C3046 C478 1.315 . S
C3071 C358 1.320 . S
C3076 C298 1.315 . S
C3101 C378 1.320 . S
C3106 C598 1.315 . S
C3131 C398 1.320 . S
C3136 C98 1.315 . S
C3161 C419 1.320 . S
C3166 C399 1.315 . S
C3191 C219 1.315 . S
C3196 C439 1.320 . S
C3221 C519 1.315 . S
C3226 C459 1.320 . S
C3251 C479 1.320 . S
C3256 C19 1.315 . S
C3281 C638 1.315 . S
C3286 C498 1.320 . S
C3311 C138 1.315 . S
C3316 C518 1.320 . S
C3341 C438 1.315 . S
C3346 C538 1.320 . S
C3371 C558 1.320 . S
C3376 C258 1.315 . S
C3401 C559 1.315 . S
C3406 C579 1.320 . S
C3431 C59 1.315 . S
C3436 C599 1.320 . S
C3461 C359 1.315 . S
C3466 C619 1.320 . S
C3491 C639 1.320 . S
C3496 C179 1.315 . S
