# Generated by pormake.
# Topology vdb, (5)-cn, num edge types: 1
# Building blocks:
#     Node 0, Type 0, BuildingBlock: BEQFEK_clean_sbu_0, # of connection points: 5
#     Node 1, Type 0, BuildingBlock: BEQFEK_clean_sbu_0, # of connection points: 5
#     Node 2, Type 0, BuildingBlock: BEQFEK_clean_sbu_0, # of connection points: 5
#     Node 3, Type 0, BuildingBlock: BEQFEK_clean_sbu_0, # of connection points: 5
#     Node 4, Type 0, BuildingBlock: BEQFEK_clean_sbu_0, # of connection points: 5
#     Node 5, Type 0, BuildingBlock: BEQFEK_clean_sbu_0, # of connection points: 5
#     Node 6, Type 0, BuildingBlock: BEQFEK_clean_sbu_0, # of connection points: 5
#     Node 7, Type 0, BuildingBlock: BEQFEK_clean_sbu_0, # of connection points: 5
#     Node 8, Type 0, BuildingBlock: BEQFEK_clean_sbu_0, # of connection points: 5
#     Node 9, Type 0, BuildingBlock: BEQFEK_clean_sbu_0, # of connection points: 5
#     Node 10, Type 0, BuildingBlock: BEQFEK_clean_sbu_0, # of connection points: 5
#     Node 11, Type 0, BuildingBlock: BEQFEK_clean_sbu_0, # of connection points: 5
#     Node 12, Type 0, BuildingBlock: BEQFEK_clean_sbu_0, # of connection points: 5
#     Node 13, Type 0, BuildingBlock: BEQFEK_clean_sbu_0, # of connection points: 5
#     Node 14, Type 0, BuildingBlock: BEQFEK_clean_sbu_0, # of connection points: 5
#     Node 15, Type 0, BuildingBlock: BEQFEK_clean_sbu_0, # of connection points: 5
#     Node 16, Type 0, BuildingBlock: BEQFEK_clean_sbu_0, # of connection points: 5
#     Node 17, Type 0, BuildingBlock: BEQFEK_clean_sbu_0, # of connection points: 5
#     Node 18, Type 0, BuildingBlock: BEQFEK_clean_sbu_0, # of connection points: 5
#     Node 19, Type 0, BuildingBlock: BEQFEK_clean_sbu_0, # of connection points: 5
#     Node 20, Type 0, BuildingBlock: BEQFEK_clean_sbu_0, # of connection points: 5
#     Node 21, Type 0, BuildingBlock: BEQFEK_clean_sbu_0, # of connection points: 5
#     Node 22, Type 0, BuildingBlock: BEQFEK_clean_sbu_0, # of connection points: 5
#     Node 23, Type 0, BuildingBlock: BEQFEK_clean_sbu_0, # of connection points: 5
#     Node 24, Type 0, BuildingBlock: BEQFEK_clean_sbu_0, # of connection points: 5
#     Node 25, Type 0, BuildingBlock: BEQFEK_clean_sbu_0, # of connection points: 5
#     Node 26, Type 0, BuildingBlock: BEQFEK_clean_sbu_0, # of connection points: 5
#     Node 27, Type 0, BuildingBlock: BEQFEK_clean_sbu_0, # of connection points: 5
#     Node 28, Type 0, BuildingBlock: BEQFEK_clean_sbu_0, # of connection points: 5
#     Node 29, Type 0, BuildingBlock: BEQFEK_clean_sbu_0, # of connection points: 5
#     Node 30, Type 0, BuildingBlock: BEQFEK_clean_sbu_0, # of connection points: 5
#     Node 31, Type 0, BuildingBlock: BEQFEK_clean_sbu_0, # of connection points: 5
#     Edge 32, Type (0, 0), BuildingBlock: CIFDUS_clean_linker_0, # of connection points: 2
#     Edge 33, Type (0, 0), BuildingBlock: CIFDUS_clean_linker_0, # of connection points: 2
#     Edge 34, Type (0, 0), BuildingBlock: CIFDUS_clean_linker_0, # of connection points: 2
#     Edge 35, Type (0, 0), BuildingBlock: CIFDUS_clean_linker_0, # of connection points: 2
#     Edge 36, Type (0, 0), BuildingBlock: CIFDUS_clean_linker_0, # of connection points: 2
#     Edge 37, Type (0, 0), BuildingBlock: CIFDUS_clean_linker_0, # of connection points: 2
#     Edge 38, Type (0, 0), BuildingBlock: CIFDUS_clean_linker_0, # of connection points: 2
#     Edge 39, Type (0, 0), BuildingBlock: CIFDUS_clean_linker_0, # of connection points: 2
#     Edge 40, Type (0, 0), BuildingBlock: CIFDUS_clean_linker_0, # of connection points: 2
#     Edge 41, Type (0, 0), BuildingBlock: CIFDUS_clean_linker_0, # of connection points: 2
#     Edge 42, Type (0, 0), BuildingBlock: CIFDUS_clean_linker_0, # of connection points: 2
#     Edge 43, Type (0, 0), BuildingBlock: CIFDUS_clean_linker_0, # of connection points: 2
#     Edge 44, Type (0, 0), BuildingBlock: CIFDUS_clean_linker_0, # of connection points: 2
#     Edge 45, Type (0, 0), BuildingBlock: CIFDUS_clean_linker_0, # of connection points: 2
#     Edge 46, Type (0, 0), BuildingBlock: CIFDUS_clean_linker_0, # of connection points: 2
#     Edge 47, Type (0, 0), BuildingBlock: CIFDUS_clean_linker_0, # of connection points: 2
#     Edge 48, Type (0, 0), BuildingBlock: CIFDUS_clean_linker_0, # of connection points: 2
#     Edge 49, Type (0, 0), BuildingBlock: CIFDUS_clean_linker_0, # of connection points: 2
#     Edge 50, Type (0, 0), BuildingBlock: CIFDUS_clean_linker_0, # of connection points: 2
#     Edge 51, Type (0, 0), BuildingBlock: CIFDUS_clean_linker_0, # of connection points: 2
#     Edge 52, Type (0, 0), BuildingBlock: CIFDUS_clean_linker_0, # of connection points: 2
#     Edge 53, Type (0, 0), BuildingBlock: CIFDUS_clean_linker_0, # of connection points: 2
#     Edge 54, Type (0, 0), BuildingBlock: CIFDUS_clean_linker_0, # of connection points: 2
#     Edge 55, Type (0, 0), BuildingBlock: CIFDUS_clean_linker_0, # of connection points: 2
#     Edge 56, Type (0, 0), BuildingBlock: CIFDUS_clean_linker_0, # of connection points: 2
#     Edge 57, Type (0, 0), BuildingBlock: CIFDUS_clean_linker_0, # of connection points: 2
#     Edge 58, Type (0, 0), BuildingBlock: CIFDUS_clean_linker_0, # of connection points: 2
#     Edge 59, Type (0, 0), BuildingBlock: CIFDUS_clean_linker_0, # of connection points: 2
#     Edge 60, Type (0, 0), BuildingBlock: CIFDUS_clean_linker_0, # of connection points: 2
#     Edge 61, Type (0, 0), BuildingBlock: CIFDUS_clean_linker_0, # of connection points: 2
#     Edge 62, Type (0, 0), BuildingBlock: CIFDUS_clean_linker_0, # of connection points: 2
#     Edge 63, Type (0, 0), BuildingBlock: CIFDUS_clean_linker_0, # of connection points: 2
#     Edge 64, Type (0, 0), BuildingBlock: CIFDUS_clean_linker_0, # of connection points: 2
#     Edge 65, Type (0, 0), BuildingBlock: CIFDUS_clean_linker_0, # of connection points: 2
#     Edge 66, Type (0, 0), BuildingBlock: CIFDUS_clean_linker_0, # of connection points: 2
#     Edge 67, Type (0, 0), BuildingBlock: CIFDUS_clean_linker_0, # of connection points: 2
#     Edge 68, Type (0, 0), BuildingBlock: CIFDUS_clean_linker_0, # of connection points: 2
#     Edge 69, Type (0, 0), BuildingBlock: CIFDUS_clean_linker_0, # of connection points: 2
#     Edge 70, Type (0, 0), BuildingBlock: CIFDUS_clean_linker_0, # of connection points: 2
#     Edge 71, Type (0, 0), BuildingBlock: CIFDUS_clean_linker_0, # of connection points: 2
#     Edge 72, Type (0, 0), BuildingBlock: CIFDUS_clean_linker_0, # of connection points: 2
#     Edge 73, Type (0, 0), BuildingBlock: CIFDUS_clean_linker_0, # of connection points: 2
#     Edge 74, Type (0, 0), BuildingBlock: CIFDUS_clean_linker_0, # of connection points: 2
#     Edge 75, Type (0, 0), BuildingBlock: CIFDUS_clean_linker_0, # of connection points: 2
#     Edge 76, Type (0, 0), BuildingBlock: CIFDUS_clean_linker_0, # of connection points: 2
#     Edge 77, Type (0, 0), BuildingBlock: CIFDUS_clean_linker_0, # of connection points: 2
#     Edge 78, Type (0, 0), BuildingBlock: CIFDUS_clean_linker_0, # of connection points: 2
#     Edge 79, Type (0, 0), BuildingBlock: CIFDUS_clean_linker_0, # of connection points: 2
#     Edge 80, Type (0, 0), BuildingBlock: CIFDUS_clean_linker_0, # of connection points: 2
#     Edge 81, Type (0, 0), BuildingBlock: CIFDUS_clean_linker_0, # of connection points: 2
#     Edge 82, Type (0, 0), BuildingBlock: CIFDUS_clean_linker_0, # of connection points: 2
#     Edge 83, Type (0, 0), BuildingBlock: CIFDUS_clean_linker_0, # of connection points: 2
#     Edge 84, Type (0, 0), BuildingBlock: CIFDUS_clean_linker_0, # of connection points: 2
#     Edge 85, Type (0, 0), BuildingBlock: CIFDUS_clean_linker_0, # of connection points: 2
#     Edge 86, Type (0, 0), BuildingBlock: CIFDUS_clean_linker_0, # of connection points: 2
#     Edge 87, Type (0, 0), BuildingBlock: CIFDUS_clean_linker_0, # of connection points: 2
#     Edge 88, Type (0, 0), BuildingBlock: CIFDUS_clean_linker_0, # of connection points: 2
#     Edge 89, Type (0, 0), BuildingBlock: CIFDUS_clean_linker_0, # of connection points: 2
#     Edge 90, Type (0, 0), BuildingBlock: CIFDUS_clean_linker_0, # of connection points: 2
#     Edge 91, Type (0, 0), BuildingBlock: CIFDUS_clean_linker_0, # of connection points: 2
#     Edge 92, Type (0, 0), BuildingBlock: CIFDUS_clean_linker_0, # of connection points: 2
#     Edge 93, Type (0, 0), BuildingBlock: CIFDUS_clean_linker_0, # of connection points: 2
#     Edge 94, Type (0, 0), BuildingBlock: CIFDUS_clean_linker_0, # of connection points: 2
#     Edge 95, Type (0, 0), BuildingBlock: CIFDUS_clean_linker_0, # of connection points: 2
#     Edge 96, Type (0, 0), BuildingBlock: CIFDUS_clean_linker_0, # of connection points: 2
#     Edge 97, Type (0, 0), BuildingBlock: CIFDUS_clean_linker_0, # of connection points: 2
#     Edge 98, Type (0, 0), BuildingBlock: CIFDUS_clean_linker_0, # of connection points: 2
#     Edge 99, Type (0, 0), BuildingBlock: CIFDUS_clean_linker_0, # of connection points: 2
#     Edge 100, Type (0, 0), BuildingBlock: CIFDUS_clean_linker_0, # of connection points: 2
#     Edge 101, Type (0, 0), BuildingBlock: CIFDUS_clean_linker_0, # of connection points: 2
#     Edge 102, Type (0, 0), BuildingBlock: CIFDUS_clean_linker_0, # of connection points: 2
#     Edge 103, Type (0, 0), BuildingBlock: CIFDUS_clean_linker_0, # of connection points: 2
#     Edge 104, Type (0, 0), BuildingBlock: CIFDUS_clean_linker_0, # of connection points: 2
#     Edge 105, Type (0, 0), BuildingBlock: CIFDUS_clean_linker_0, # of connection points: 2
#     Edge 106, Type (0, 0), BuildingBlock: CIFDUS_clean_linker_0, # of connection points: 2
#     Edge 107, Type (0, 0), BuildingBlock: CIFDUS_clean_linker_0, # of connection points: 2
#     Edge 108, Type (0, 0), BuildingBlock: CIFDUS_clean_linker_0, # of connection points: 2
#     Edge 109, Type (0, 0), BuildingBlock: CIFDUS_clean_linker_0, # of connection points: 2
#     Edge 110, Type (0, 0), BuildingBlock: CIFDUS_clean_linker_0, # of connection points: 2
#     Edge 111, Type (0, 0), BuildingBlock: CIFDUS_clean_linker_0, # of connection points: 2
# Relax obj value: 0.449
# Max RMSD: 0.212
# Mean RMSD: 0.212
data_MOF--net-vdb--node1-BEQFEK_clean_sbu_0--edge1-CIFDUS_clean_linker_0
_symmetry_space_group_name_H-M    P1
_symmetry_Int_Tables_number       1
_symmetry_cell_setting            triclinic
loop_
_symmetry_equiv_pos_as_xyz
'x, y, z'
_cell_length_a     22.910462
_cell_length_b     43.816283
_cell_length_c     103.44091
_cell_angle_alpha  89.987355
_cell_angle_beta   89.941307
_cell_angle_gamma 90.020766
loop_
_atom_site_label
_atom_site_type_symbol
_atom_site_fract_x
_atom_site_fract_y
_atom_site_fract_z
_atom_type_partial_charge
Co0 Co 0.31518 0.03318 0.09555 0.0
Co1 Co 0.40186 0.06086 0.07585 0.0
C2 C 0.27223 0.07743 0.07617 0.0
O3 O 0.26203 0.05848 0.08518 0.0
O4 O 0.32402 0.0813 0.07187 0.0
C5 C 0.22152 0.99692 0.1041 0.0
O6 O 0.20321 0.9992 0.09211 0.0
C7 C 0.43966 0.05852 0.04909 0.0
C8 C 0.53377 0.06842 0.05043 0.0
C9 C 0.49149 0.05728 0.04202 0.0
N10 N 0.45155 0.06857 0.06113 0.0
N11 N 0.50758 0.07551 0.06172 0.0
C12 C 0.3814 0.0458 0.04526 0.0
H13 H 0.35381 0.04153 0.05388 0.0
H14 H 0.38621 0.02433 0.03969 0.0
H15 H 0.35886 0.06262 0.039 0.0
C16 C 0.35755 0.9751 0.08531 0.0
N17 N 0.35774 0.00578 0.08558 0.0
N18 N 0.39551 0.01636 0.07711 0.0
C19 C 0.42057 0.99198 0.07111 0.0
C20 C 0.39528 0.96531 0.07581 0.0
C21 C 0.32725 0.95491 0.09491 0.0
H22 H 0.32924 0.96511 0.10469 0.0
H23 H 0.28121 0.95164 0.09195 0.0
H24 H 0.34813 0.93208 0.0954 0.0
O25 O 0.36724 0.05818 0.10609 0.0
O26 O 0.43255 0.07955 0.093 0.0
H27 H 0.49784 0.01347 0.0637 0.0
H28 H 0.49743 0.97283 0.0621 0.0
C29 C 0.46988 0.99351 0.06164 0.0
H30 H 0.45235 0.99475 0.0517 0.0
H31 H 0.52896 0.08225 0.07015 0.0
O32 O 0.2677 0.01051 0.10756 0.0
C33 C 0.41137 0.07527 0.10437 0.0
Co34 Co 0.94842 0.22099 0.09285 0.0
Co35 Co 0.85321 0.19475 0.07479 0.0
C36 C 0.97993 0.17218 0.07465 0.0
O37 O 0.99462 0.19241 0.08275 0.0
O38 O 0.92684 0.16942 0.07104 0.0
C39 C 0.05043 0.25394 0.09935 0.0
O40 O 0.06552 0.24984 0.08722 0.0
C41 C 0.81717 0.19619 0.04805 0.0
C42 C 0.72123 0.19312 0.04896 0.0
C43 C 0.76708 0.19975 0.04062 0.0
N44 N 0.80167 0.18857 0.06021 0.0
N45 N 0.74422 0.18583 0.06059 0.0
C46 C 0.8778 0.20567 0.04435 0.0
H47 H 0.90521 0.20941 0.05302 0.0
H48 H 0.87692 0.22685 0.03847 0.0
H49 H 0.8979 0.18738 0.03842 0.0
C50 C 0.91026 0.27951 0.08242 0.0
N51 N 0.90868 0.24882 0.08268 0.0
N52 N 0.86684 0.23878 0.07511 0.0
C53 C 0.84031 0.26345 0.06972 0.0
C54 C 0.86828 0.28975 0.07394 0.0
C55 C 0.94448 0.29901 0.09162 0.0
H56 H 0.94378 0.28885 0.10141 0.0
H57 H 0.99012 0.3009 0.08815 0.0
H58 H 0.92621 0.32237 0.09238 0.0
O59 O 0.89317 0.20004 0.10434 0.0
O60 O 0.82088 0.18064 0.09255 0.0
H61 H 0.75675 0.24482 0.06478 0.0
H62 H 0.76449 0.28471 0.06103 0.0
C63 C 0.7874 0.26248 0.06127 0.0
H64 H 0.80093 0.25737 0.05124 0.0
H65 H 0.72038 0.18189 0.06903 0.0
O66 O 0.00315 0.24267 0.1036 0.0
C67 C 0.84522 0.18547 0.10357 0.0
Co68 Co 0.30331 0.22623 0.17197 0.0
Co69 Co 0.38322 0.19844 0.19302 0.0
C70 C 0.25312 0.18439 0.19159 0.0
O71 O 0.24739 0.20266 0.18218 0.0
O72 O 0.30306 0.17948 0.19666 0.0
C73 C 0.21174 0.26314 0.16257 0.0
O74 O 0.19324 0.26291 0.1746 0.0
C75 C 0.41791 0.20258 0.22003 0.0
C76 C 0.51108 0.19023 0.21936 0.0
C77 C 0.46906 0.20326 0.22735 0.0
N78 N 0.43018 0.19111 0.20822 0.0
N79 N 0.48553 0.18274 0.20806 0.0
C80 C 0.36026 0.21676 0.22335 0.0
H81 H 0.33377 0.22055 0.21453 0.0
H82 H 0.36603 0.2387 0.22852 0.0
H83 H 0.33599 0.20107 0.22983 0.0
C84 C 0.34813 0.28415 0.18163 0.0
N85 N 0.3455 0.25352 0.18198 0.0
N86 N 0.38032 0.24299 0.19104 0.0
C87 C 0.4064 0.26741 0.19679 0.0
C88 C 0.38474 0.29412 0.1913 0.0
C89 C 0.32172 0.30381 0.17131 0.0
H90 H 0.32428 0.29225 0.16181 0.0
H91 H 0.27555 0.30866 0.17376 0.0
H92 H 0.34501 0.32595 0.1705 0.0
O93 O 0.35641 0.20009 0.1622 0.0
O94 O 0.41669 0.17844 0.17634 0.0
H95 H 0.4802 0.24493 0.20526 0.0
H96 H 0.4834 0.28557 0.20611 0.0
C97 C 0.45377 0.26573 0.20671 0.0
H98 H 0.43443 0.26603 0.21651 0.0
H99 H 0.50718 0.17464 0.19987 0.0
O100 O 0.25749 0.24853 0.15952 0.0
C101 C 0.3991 0.18253 0.16466 0.0
Co102 Co 0.91458 0.03887 0.16943 0.0
Co103 Co 0.84727 0.0655 0.19285 0.0
C104 C 0.97614 0.07768 0.18905 0.0
O105 O 0.97587 0.06074 0.17907 0.0
O106 O 0.92926 0.08283 0.1954 0.0
C107 C -0.00209 1.00202 0.15727 0.0
O108 O 0.02165 1.00136 0.16883 0.0
C109 C 0.82061 0.0651 0.22055 0.0
C110 C 0.72444 0.06778 0.22048 0.0
C111 C 0.77165 0.06137 0.22843 0.0
N112 N 0.80275 0.0722 0.2085 0.0
N113 N 0.7453 0.07482 0.20866 0.0
C114 C 0.88252 0.05707 0.22377 0.0
H115 H 0.90528 0.04808 0.21511 0.0
H116 H 0.88494 0.03997 0.23165 0.0
H117 H 0.90556 0.07802 0.22697 0.0
C118 C 0.87604 0.98049 0.17976 0.0
N119 N 0.87573 0.01116 0.17993 0.0
N120 N 0.85016 0.02101 0.19053 0.0
C121 C 0.83485 0.99601 0.19761 0.0
C122 C 0.85248 0.96991 0.19111 0.0
C123 C 0.89671 0.96085 0.16882 0.0
H124 H 0.88882 0.97222 0.15942 0.0
H125 H 0.94377 0.95583 0.17004 0.0
H126 H 0.87327 0.93866 0.16885 0.0
O127 O 0.86087 0.0665 0.16121 0.0
O128 O 0.80946 0.08769 0.17704 0.0
H129 H 0.76785 0.01284 0.21008 0.0
H130 H 0.78514 0.97332 0.21251 0.0
C131 C 0.80385 0.9961 0.21031 0.0
H132 H 0.83499 1.00169 0.21811 0.0
H133 H 0.71992 0.07845 0.20043 0.0
O134 O 0.95192 0.01737 0.15543 0.0
C135 C 0.82142 0.08465 0.16497 0.0
Co136 Co 0.70532 0.97048 0.92578 0.0
Co137 Co 0.60785 0.94854 0.94426 0.0
C138 C 0.73179 0.92388 0.94561 0.0
O139 O 0.74743 0.9419 0.93669 0.0
O140 O 0.67877 0.92286 0.94942 0.0
C141 C 0.81227 0.99881 0.92014 0.0
O142 O 0.82405 0.99362 0.93237 0.0
C143 C 0.5622 0.95386 0.97035 0.0
C144 C 0.46727 0.949 0.9676 0.0
C145 C 0.5088 0.95794 0.97665 0.0
N146 N 0.55206 0.94435 0.95815 0.0
N147 N 0.49528 0.94052 0.95671 0.0
C148 C 0.62162 0.96303 0.97502 0.0
H149 H 0.65276 0.96484 0.96685 0.0
H150 H 0.62018 0.98508 0.98025 0.0
H151 H 0.63794 0.94538 0.9818 0.0
C152 C 0.67548 0.03077 0.93579 0.0
N153 N 0.66754 1.00037 0.93536 0.0
N154 N 0.62513 0.99241 0.94323 0.0
C155 C 0.60446 0.01831 0.94891 0.0
C156 C 0.63764 0.04306 0.94472 0.0
C157 C 0.71384 0.04865 0.9268 0.0
H158 H 0.71254 0.03867 0.91697 0.0
H159 H 0.75919 0.04857 0.93051 0.0
H160 H 0.69931 0.07275 0.92607 0.0
O161 O 0.6505 0.9495 0.91422 0.0
O162 O 0.57816 0.93213 0.92658 0.0
H163 H 0.52042 1.00196 0.95499 0.0
H164 H 0.52937 0.0424 0.95636 0.0
C165 C 0.55181 0.02021 0.95745 0.0
H166 H 0.56515 0.01845 0.96769 0.0
H167 H 0.47532 0.93478 0.94798 0.0
O168 O 0.76435 0.98978 0.91533 0.0
C169 C 0.60248 0.93519 0.91545 0.0
Co170 Co 0.06263 0.78939 0.92385 0.0
Co171 Co 0.15126 0.81378 0.94369 0.0
C172 C 0.02272 0.8308 0.94472 0.0
O173 O 0.01194 0.8136 0.93517 0.0
O174 O 0.0747 0.83379 0.94896 0.0
C175 C 0.9648 0.75521 0.91636 0.0
O176 O 0.9509 0.75652 0.92867 0.0
C177 C 0.19357 0.80799 0.96975 0.0
C178 C 0.28728 0.81875 0.96799 0.0
C179 C 0.24628 0.80638 0.97642 0.0
N180 N 0.20365 0.8196 0.95791 0.0
N181 N 0.25941 0.82697 0.95705 0.0
C182 C 0.1362 0.79415 0.97359 0.0
H183 H 0.10745 0.79116 0.96508 0.0
H184 H 0.1424 0.77176 0.97839 0.0
H185 H 0.11408 0.80961 0.98054 0.0
C186 C 0.10547 0.72966 0.93242 0.0
N187 N 0.10565 0.76035 0.93291 0.0
N188 N 0.14511 0.76972 0.94123 0.0
C189 C 0.17197 0.74463 0.9462 0.0
C190 C 0.14593 0.71867 0.94108 0.0
C191 C 0.07186 0.71076 0.92291 0.0
H192 H 0.07122 0.72205 0.91334 0.0
H193 H 0.02665 0.70757 0.92648 0.0
H194 H 0.09171 0.68784 0.92168 0.0
O195 O 0.11389 0.81579 0.91329 0.0
O196 O 0.17875 0.83487 0.92709 0.0
H197 H 0.25105 0.76525 0.9531 0.0
H198 H 0.25099 0.72429 0.95359 0.0
C199 C 0.22377 0.74491 0.95499 0.0
H200 H 0.20896 0.74473 0.96517 0.0
H201 H 0.2794 0.83493 0.94863 0.0
O202 O 0.01052 0.76846 0.9123 0.0
C203 C 0.15785 0.83269 0.91563 0.0
Co204 Co 0.69201 0.79045 0.84689 0.0
Co205 Co 0.60669 0.81347 0.82594 0.0
C206 C 0.73219 0.83386 0.82648 0.0
O207 O 0.74151 0.81666 0.83612 0.0
O208 O 0.68151 0.83614 0.82148 0.0
C209 C 0.7913 0.75805 0.85458 0.0
O210 O 0.80558 0.75992 0.84229 0.0
C211 C 0.56943 0.8127 0.79909 0.0
C212 C 0.47345 0.81122 0.80073 0.0
C213 C 0.51883 0.80745 0.79196 0.0
N214 N 0.55449 0.81831 0.81147 0.0
N215 N 0.49693 0.81836 0.81229 0.0
C216 C 0.63117 0.80726 0.79484 0.0
H217 H 0.65793 0.79902 0.80305 0.0
H218 H 0.63363 0.79035 0.78689 0.0
H219 H 0.65 0.82911 0.79137 0.0
C220 C 0.66013 0.73034 0.83718 0.0
N221 N 0.654 0.76086 0.83718 0.0
N222 N 0.62039 0.76934 0.82753 0.0
C223 C 0.60542 0.74369 0.82084 0.0
C224 C 0.63186 0.71852 0.82658 0.0
C225 C 0.68848 0.71197 0.84766 0.0
H226 H 0.68412 0.72358 0.85713 0.0
H227 H 0.73517 0.7084 0.84531 0.0
H228 H 0.66787 0.68909 0.8484 0.0
O229 O 0.63733 0.81417 0.85717 0.0
O230 O 0.57361 0.83258 0.84296 0.0
H231 H 0.55077 0.7192 0.80732 0.0
H232 H 0.59217 0.74973 0.80057 0.0
C233 C 0.56702 0.7426 0.80918 0.0
H234 H 0.52906 0.7578 0.81058 0.0
H235 H 0.47387 0.82044 0.82095 0.0
O236 O 0.74462 0.77037 0.8586 0.0
C237 C 0.59249 0.83005 0.85462 0.0
Co238 Co 0.07058 0.9788 0.84818 0.0
Co239 Co 0.13132 0.95244 0.82405 0.0
C240 C 0.0052 0.94219 0.82765 0.0
O241 O 0.00907 0.95756 0.83805 0.0
O242 O 0.04998 0.93727 0.82061 0.0
C243 C 0.98554 0.01732 0.85866 0.0
O244 O 0.96784 0.01916 0.8466 0.0
C245 C 0.16721 0.94945 0.79674 0.0
C246 C 0.26307 0.94908 0.79876 0.0
C247 C 0.21889 0.95273 0.78974 0.0
N248 N 0.18064 0.94541 0.80931 0.0
N249 N 0.23804 0.94431 0.81036 0.0
C250 C 0.10594 0.9497 0.7917 0.0
H251 H 0.07857 0.9656 0.79741 0.0
H252 H 0.10406 0.95543 0.78127 0.0
H253 H 0.08691 0.92663 0.79307 0.0
C254 C 0.11223 0.03673 0.8385 0.0
N255 N 0.11205 0.00609 0.83806 0.0
N256 N 0.13055 0.99669 0.82672 0.0
C257 C 0.14016 0.02191 0.81934 0.0
C258 C 0.12739 0.04788 0.82652 0.0
C259 C 0.09806 0.05564 0.85015 0.0
H260 H 0.10524 0.04247 0.85916 0.0
H261 H 0.05224 0.06362 0.84965 0.0
H262 H 0.12609 0.07632 0.85031 0.0
O263 O 0.12135 0.94995 0.85667 0.0
O264 O 0.16294 0.92765 0.83975 0.0
H265 H 0.19548 0.00746 0.80394 0.0
H266 H 0.1659 0.04512 0.80181 0.0
C267 C 0.15627 0.02177 0.80537 0.0
H268 H 0.11946 0.01252 0.7997 0.0
H269 H 0.2602 0.94278 0.81915 0.0
O270 O 0.02952 1.00103 0.86143 0.0
C271 C 0.15524 0.92993 0.85201 0.0
Co272 Co 0.33017 0.53089 0.6002 0.0
Co273 Co 0.38752 0.55976 0.57604 0.0
C274 C 0.25875 0.56838 0.58169 0.0
O275 O 0.26375 0.55165 0.59168 0.0
O276 O 0.30291 0.57401 0.57451 0.0
C277 C 0.25437 0.491 0.61269 0.0
O278 O 0.23092 0.48944 0.60111 0.0
C279 C 0.41092 0.55697 0.54828 0.0
C280 C 0.50253 0.57221 0.54737 0.0
C281 C 0.45944 0.55793 0.54011 0.0
N282 N 0.42601 0.56866 0.55987 0.0
N283 N 0.48014 0.57882 0.55908 0.0
C284 C 0.35377 0.54129 0.54588 0.0
H285 H 0.33257 0.53497 0.55515 0.0
H286 H 0.35922 0.52068 0.53979 0.0
H287 H 0.32452 0.55724 0.54065 0.0
C288 C 0.37456 0.47375 0.5893 0.0
N289 N 0.36897 0.50433 0.58906 0.0
N290 N 0.39387 0.51539 0.57859 0.0
C291 C 0.41638 0.49138 0.57185 0.0
C292 C 0.40249 0.46441 0.57822 0.0
C293 C 0.35819 0.45331 0.60034 0.0
H294 H 0.31189 0.44636 0.59939 0.0
H295 H 0.38494 0.43218 0.60025 0.0
H296 H 0.36533 0.46503 0.60968 0.0
O297 O 0.38317 0.56051 0.60786 0.0
O298 O 0.42437 0.58401 0.59117 0.0
H299 H 0.48504 0.47393 0.55967 0.0
H300 H 0.42739 0.49255 0.55133 0.0
C301 C 0.45449 0.49349 0.56015 0.0
H302 H 0.48058 0.51468 0.56043 0.0
H303 H 0.50363 0.58751 0.5669 0.0
O304 O 0.29825 0.50801 0.6145 0.0
C305 C 0.41748 0.58068 0.60341 0.0
Co306 Co 0.92735 0.71923 0.59952 0.0
Co307 Co 0.85306 0.69417 0.57687 0.0
C308 C 0.9797 0.67607 0.58016 0.0
O309 O 0.9839 0.69372 0.58986 0.0
O310 O 0.93146 0.673 0.5741 0.0
C311 C 0.01444 0.75683 0.60947 0.0
O312 O 0.0325 0.75736 0.59741 0.0
C313 C 0.82227 0.69246 0.54938 0.0
C314 C 0.72738 0.70026 0.5502 0.0
C315 C 0.77465 0.70144 0.54178 0.0
N316 N 0.80436 0.68875 0.5617 0.0
N317 N 0.7471 0.69216 0.56199 0.0
C318 C 0.88443 0.68818 0.54527 0.0
H319 H 0.91084 0.70818 0.54828 0.0
H320 H 0.88784 0.68483 0.53467 0.0
H321 H 0.90277 0.66779 0.55014 0.0
C322 C 0.89021 0.77863 0.58967 0.0
N323 N 0.89046 0.74792 0.58913 0.0
N324 N 0.86319 0.73857 0.57868 0.0
C325 C 0.84736 0.76386 0.57188 0.0
C326 C 0.86489 0.78979 0.57858 0.0
C327 C 0.9068 0.79733 0.60123 0.0
H328 H 0.90096 0.78405 0.61025 0.0
H329 H 0.95274 0.80495 0.6003 0.0
H330 H 0.87929 0.81814 0.60184 0.0
O331 O 0.87051 0.69473 0.60856 0.0
O332 O 0.81391 0.67502 0.59325 0.0
H333 H 0.77575 0.75287 0.55965 0.0
H334 H 0.81346 0.78714 0.55498 0.0
C335 C 0.8191 0.7638 0.55891 0.0
H336 H 0.8471 0.75107 0.55213 0.0
H337 H 0.7223 0.69214 0.57046 0.0
O338 O 0.97064 0.74079 0.61256 0.0
C339 C 0.82762 0.67827 0.60522 0.0
Co340 Co 0.32501 0.72077 0.67218 0.0
Co341 Co 0.39848 0.69568 0.69481 0.0
C342 C 0.27093 0.67865 0.69158 0.0
O343 O 0.26622 0.69636 0.68189 0.0
O344 O 0.31962 0.67563 0.69744 0.0
C345 C 0.23993 0.75878 0.66165 0.0
O346 O 0.22102 0.75989 0.67364 0.0
C347 C 0.42524 0.69609 0.7223 0.0
C348 C 0.5214 0.69342 0.72239 0.0
C349 C 0.47372 0.69957 0.73026 0.0
N350 N 0.44365 0.68921 0.71027 0.0
N351 N 0.50111 0.68662 0.7105 0.0
C352 C 0.36334 0.70438 0.72542 0.0
H353 H 0.34081 0.71314 0.7167 0.0
H354 H 0.36104 0.72175 0.7332 0.0
H355 H 0.34007 0.68361 0.72876 0.0
C356 C 0.3659 0.78006 0.68169 0.0
N357 N 0.36387 0.74939 0.6824 0.0
N358 N 0.39268 0.73997 0.69263 0.0
C359 C 0.41232 0.76512 0.69903 0.0
C360 C 0.39449 0.79115 0.69241 0.0
C361 C 0.34774 0.79876 0.67024 0.0
H362 H 0.35276 0.78553 0.66118 0.0
H363 H 0.30181 0.80616 0.67144 0.0
H364 H 0.37489 0.81967 0.66945 0.0
O365 O 0.37994 0.69416 0.66331 0.0
O366 O 0.43521 0.67447 0.67884 0.0
H367 H 0.48317 0.74822 0.71039 0.0
H368 H 0.46566 0.7875 0.71352 0.0
C369 C 0.44704 0.76481 0.71126 0.0
H370 H 0.41834 0.75841 0.71941 0.0
H371 H 0.52682 0.68311 0.7023 0.0
O372 O 0.28357 0.74235 0.65885 0.0
C373 C 0.42127 0.67681 0.66685 0.0
Co374 Co 0.93431 0.53613 0.67292 0.0
Co375 Co 0.84953 0.56139 0.69351 0.0
C376 C 0.97512 0.58385 0.6912 0.0
O377 O 0.98563 0.56438 0.68242 0.0
O378 O 0.92421 0.58617 0.69617 0.0
C379 C 0.0287 0.50089 0.66471 0.0
O380 O 0.04529 0.50327 0.67682 0.0
C381 C 0.81823 0.56208 0.72072 0.0
C382 C 0.722 0.56221 0.72021 0.0
C383 C 0.76908 0.55768 0.72844 0.0
N384 N 0.80085 0.56784 0.70851 0.0
N385 N 0.74322 0.56892 0.70837 0.0
C386 C 0.88042 0.55552 0.72427 0.0
H387 H 0.90595 0.54893 0.7156 0.0
H388 H 0.88336 0.53709 0.73159 0.0
H389 H 0.90008 0.57646 0.72844 0.0
C390 C 0.90025 0.47691 0.68352 0.0
N391 N 0.89788 0.5076 0.68351 0.0
N392 N 0.86347 0.51716 0.69285 0.0
C393 C 0.84427 0.49209 0.6994 0.0
C394 C 0.86858 0.46605 0.69387 0.0
C395 C 0.92428 0.4577 0.67276 0.0
H396 H 0.91965 0.46957 0.66337 0.0
H397 H 0.9708 0.4525 0.67468 0.0
H398 H 0.90066 0.43563 0.67208 0.0
O399 O 0.87672 0.55796 0.66271 0.0
O400 O 0.81163 0.57703 0.67647 0.0
H401 H 0.76628 0.50821 0.70851 0.0
H402 H 0.78473 0.46958 0.71266 0.0
C403 C 0.8028 0.49247 0.71057 0.0
H404 H 0.82619 0.49992 0.71936 0.0
H405 H 0.71832 0.57127 0.69999 0.0
O406 O 0.98309 0.51447 0.66089 0.0
C407 C 0.83041 0.57302 0.66487 0.0
Co408 Co 0.66334 0.4714 0.42331 0.0
Co409 Co 0.57308 0.44649 0.44286 0.0
C410 C 0.70178 0.42652 0.44263 0.0
O411 O 0.71402 0.44497 0.43356 0.0
O412 O 0.64957 0.42402 0.44694 0.0
C413 C 0.76075 0.50257 0.4128 0.0
O414 O 0.78581 0.49751 0.42402 0.0
C415 C 0.53222 0.45189 0.46935 0.0
C416 C 0.43809 0.44229 0.46762 0.0
C417 C 0.47951 0.45397 0.47611 0.0
N418 N 0.52155 0.4408 0.45742 0.0
N419 N 0.46546 0.43418 0.4566 0.0
C420 C 0.5906 0.46425 0.47329 0.0
H421 H 0.62031 0.46594 0.46485 0.0
H422 H 0.58629 0.48699 0.47788 0.0
H423 H 0.61054 0.44851 0.48043 0.0
C424 C 0.63258 0.53034 0.43471 0.0
N425 N 0.62565 0.49996 0.43362 0.0
N426 N 0.584 0.49069 0.44145 0.0
C427 C 0.56179 0.51574 0.44748 0.0
C428 C 0.59366 0.54118 0.44373 0.0
C429 C 0.6737 0.54938 0.42683 0.0
H430 H 0.66919 0.54358 0.41646 0.0
H431 H 0.71904 0.54503 0.43004 0.0
H432 H 0.66472 0.57413 0.42791 0.0
O433 O 0.60817 0.44753 0.41294 0.0
O434 O 0.54065 0.42809 0.42597 0.0
H435 H 0.47925 0.49696 0.45344 0.0
H436 H 0.48339 0.53798 0.45384 0.0
C437 C 0.50794 0.51658 0.45565 0.0
H438 H 0.52003 0.51663 0.46601 0.0
H439 H 0.44499 0.42675 0.44816 0.0
O440 O 0.70985 0.4926 0.41069 0.0
C441 C 0.56257 0.43157 0.41465 0.0
Co442 Co 0.04286 0.29377 0.42329 0.0
Co443 Co 0.12655 0.31779 0.4444 0.0
C444 C -0.00187 0.33569 0.44351 0.0
O445 O 0.98955 0.31839 0.43387 0.0
O446 O 0.0489 0.33838 0.44848 0.0
C447 C 0.94754 0.26008 0.41378 0.0
O448 O 0.92925 0.26065 0.42582 0.0
C449 C 0.16439 0.31282 0.47118 0.0
C450 C 0.25855 0.32278 0.46996 0.0
C451 C 0.21609 0.31134 0.47825 0.0
N452 N 0.17648 0.32311 0.4592 0.0
N453 N 0.23262 0.32987 0.45865 0.0
C454 C 0.10431 0.3039 0.4755 0.0
H455 H 0.07201 0.32043 0.4717 0.0
H456 H 0.09298 0.28115 0.47153 0.0
H457 H 0.1011 0.30337 0.4862 0.0
C458 C 0.0826 0.23386 0.43236 0.0
N459 N 0.08248 0.26456 0.43296 0.0
N460 N 0.11978 0.27382 0.44178 0.0
C461 C 0.14562 0.2487 0.44694 0.0
C462 C 0.12107 0.22275 0.44144 0.0
C463 C 0.05185 0.21522 0.4223 0.0
H464 H 0.05431 0.2267 0.41278 0.0
H465 H 0.00557 0.21217 0.42515 0.0
H466 H 0.07177 0.19226 0.42128 0.0
O467 O 0.0979 0.31969 0.41358 0.0
O468 O 0.15913 0.33867 0.4282 0.0
H469 H 0.22382 0.26878 0.45452 0.0
H470 H 0.22098 0.22793 0.45597 0.0
C471 C 0.19479 0.24911 0.45642 0.0
H472 H 0.17674 0.25063 0.46628 0.0
H473 H 0.25406 0.33709 0.45029 0.0
O474 O 0.99468 0.27341 0.41072 0.0
C475 C 0.14149 0.33633 0.41647 0.0
Co476 Co 0.68169 0.2928 0.34273 0.0
Co477 Co 0.58723 0.31718 0.32409 0.0
C478 C 0.7139 0.33961 0.32358 0.0
O479 O 0.72805 0.32059 0.33224 0.0
O480 O 0.66112 0.34168 0.31966 0.0
C481 C 0.78471 0.26181 0.35004 0.0
O482 O 0.8007 0.26547 0.33794 0.0
C483 C 0.54488 0.31068 0.29781 0.0
C484 C 0.45077 0.32009 0.29963 0.0
C485 C 0.49208 0.30816 0.29115 0.0
N486 N 0.53444 0.32222 0.30969 0.0
N487 N 0.47832 0.32875 0.31055 0.0
C488 C 0.60314 0.29816 0.29388 0.0
H489 H 0.63349 0.29745 0.30221 0.0
H490 H 0.59865 0.27495 0.28972 0.0
H491 H 0.62238 0.3132 0.28637 0.0
C492 C 0.64529 0.23319 0.33292 0.0
N493 N 0.64243 0.26386 0.33294 0.0
N494 N 0.59969 0.27305 0.32543 0.0
C495 C 0.57308 0.2478 0.32053 0.0
C496 C 0.60274 0.22197 0.32479 0.0
C497 C 0.68242 0.21454 0.34187 0.0
H498 H 0.68149 0.22446 0.35171 0.0
H499 H 0.7279 0.2142 0.33822 0.0
H500 H 0.66681 0.19064 0.34261 0.0
O501 O 0.62635 0.31496 0.3539 0.0
O502 O 0.55586 0.33385 0.34144 0.0
H503 H 0.49082 0.26782 0.31529 0.0
H504 H 0.49194 0.22694 0.31453 0.0
C505 C 0.51794 0.24782 0.31278 0.0
H506 H 0.5287 0.24806 0.30235 0.0
H507 H 0.45797 0.33647 0.31897 0.0
O508 O 0.73626 0.27239 0.35393 0.0
C509 C 0.57923 0.33005 0.35262 0.0
Co510 Co 0.06084 0.47128 0.34465 0.0
Co511 Co 0.14056 0.44531 0.32335 0.0
C512 C 0.00962 0.43138 0.32463 0.0
O513 O 0.00247 0.44885 0.33431 0.0
O514 O 0.06017 0.42757 0.31964 0.0
C515 C 0.97361 0.5067 0.35681 0.0
O516 O 0.94811 0.50675 0.34543 0.0
C517 C 0.17508 0.45114 0.29662 0.0
C518 C 0.26788 0.43783 0.29702 0.0
C519 C 0.22607 0.4518 0.28929 0.0
N520 N 0.18706 0.43859 0.3082 0.0
N521 N 0.2421 0.42965 0.30821 0.0
C522 C 0.11834 0.46666 0.29364 0.0
H523 H 0.09187 0.46972 0.30252 0.0
H524 H 0.12562 0.48916 0.289 0.0
H525 H 0.0933 0.45228 0.28677 0.0
C526 C 0.10351 0.53034 0.33503 0.0
N527 N 0.10247 0.49961 0.33483 0.0
N528 N 0.13921 0.48946 0.32606 0.0
C529 C 0.16584 0.51404 0.32057 0.0
C530 C 0.14215 0.54052 0.32578 0.0
C531 C 0.07215 0.55002 0.34464 0.0
H532 H 0.07644 0.54024 0.35446 0.0
H533 H 0.02544 0.55153 0.34195 0.0
H534 H 0.09027 0.5735 0.34488 0.0
O535 O 0.11302 0.44292 0.35373 0.0
O536 O 0.17221 0.42247 0.33912 0.0
H537 H 0.24511 0.53252 0.3125 0.0
H538 H 0.19837 0.51424 0.30118 0.0
C539 C 0.21541 0.51282 0.31117 0.0
H540 H 0.24084 0.49162 0.31249 0.0
H541 H 0.26348 0.42073 0.31627 0.0
O542 O 0.02099 0.49237 0.35835 0.0
C543 C 0.15448 0.42496 0.35082 0.0
Co544 Co 0.81299 0.0414 0.59423 0.0
Co545 Co 0.89994 0.06409 0.57346 0.0
C546 C 0.77287 0.08425 0.57389 0.0
O547 O 0.76249 0.06698 0.58345 0.0
O548 O 0.8241 0.08614 0.56908 0.0
C549 C 0.71422 0.00942 0.60274 0.0
O550 O 0.69897 0.01056 0.59051 0.0
C551 C 0.93974 0.0581 0.54687 0.0
C552 C 0.03405 0.06753 0.54828 0.0
C553 C 0.99177 0.05627 0.53992 0.0
N554 N 0.95137 0.0685 0.55885 0.0
N555 N 0.00765 0.07487 0.55951 0.0
C556 C 0.87975 0.04944 0.54243 0.0
H557 H 0.86794 0.0267 0.54634 0.0
H558 H 0.87709 0.04895 0.53172 0.0
H559 H 0.84747 0.06605 0.54618 0.0
C560 C 0.85096 0.98088 0.58553 0.0
N561 N 0.85195 0.01156 0.58477 0.0
N562 N 0.8907 0.02024 0.57614 0.0
C563 C 0.91644 0.99475 0.57128 0.0
C564 C 0.89039 0.96916 0.57677 0.0
C565 C 0.81835 0.96284 0.59552 0.0
H566 H 0.82007 0.97459 0.60499 0.0
H567 H 0.77231 0.96018 0.59244 0.0
H568 H 0.83726 0.93971 0.59677 0.0
O569 O 0.86843 0.06657 0.6042 0.0
O570 O 0.93182 0.08462 0.58978 0.0
H571 H 0.99647 0.01394 0.56418 0.0
H572 H 0.99243 0.97305 0.5629 0.0
C573 C 0.96709 0.99448 0.56216 0.0
H574 H 0.95069 0.99595 0.55216 0.0
H575 H 0.02876 0.08212 0.56791 0.0
O576 O 0.76148 0.02177 0.60639 0.0
C577 C 0.91299 0.08266 0.60143 0.0
Co578 Co 0.42825 0.21554 0.59485 0.0
Co579 Co 0.34759 0.1925 0.57299 0.0
C580 C 0.47632 0.17522 0.57441 0.0
O581 O 0.48404 0.19197 0.58429 0.0
O582 O 0.42604 0.17275 0.56918 0.0
C583 C 0.51928 0.24862 0.60648 0.0
O584 O 0.54253 0.24838 0.59486 0.0
C585 C 0.31198 0.19743 0.54598 0.0
C586 C 0.21751 0.18808 0.54699 0.0
C587 C 0.26069 0.19902 0.53877 0.0
N588 N 0.29897 0.18751 0.55797 0.0
N589 N 0.24264 0.18114 0.55839 0.0
C590 C 0.37258 0.20556 0.54175 0.0
H591 H 0.40376 0.18829 0.54542 0.0
H592 H 0.38537 0.22787 0.54593 0.0
H593 H 0.37597 0.20653 0.53105 0.0
C594 C 0.39103 0.27593 0.58578 0.0
N595 N 0.38952 0.24523 0.58522 0.0
N596 N 0.35391 0.23646 0.57598 0.0
C597 C 0.33108 0.26196 0.57044 0.0
C598 C 0.35581 0.28758 0.57619 0.0
C599 C 0.42122 0.29429 0.596 0.0
H600 H 0.41604 0.28321 0.60555 0.0
H601 H 0.46816 0.29636 0.59357 0.0
H602 H 0.40279 0.31765 0.59669 0.0
O603 O 0.37351 0.18838 0.60374 0.0
O604 O 0.31409 0.16986 0.58872 0.0
H605 H 0.25484 0.24296 0.56151 0.0
H606 H 0.25979 0.28381 0.56039 0.0
C607 C 0.2852 0.26233 0.5602 0.0
H608 H 0.30642 0.26095 0.55064 0.0
H609 H 0.22058 0.17424 0.56673 0.0
O610 O 0.47127 0.23517 0.60848 0.0
C611 C 0.33099 0.17146 0.60051 0.0
Co612 Co 0.82732 0.21817 0.67287 0.0
Co613 Co 0.90717 0.1928 0.69434 0.0
C614 C 0.77729 0.17746 0.69294 0.0
O615 O 0.77014 0.19489 0.68325 0.0
O616 O 0.8276 0.17411 0.69806 0.0
C617 C 0.73742 0.25287 0.66167 0.0
O618 O 0.71465 0.25228 0.67333 0.0
C619 C 0.94267 0.19862 0.72105 0.0
C620 C 0.03582 0.18606 0.72035 0.0
C621 C 0.99415 0.19973 0.72823 0.0
N622 N 0.95441 0.18627 0.70942 0.0
N623 N 0.00967 0.17776 0.70923 0.0
C624 C 0.88529 0.21331 0.72423 0.0
H625 H 0.8583 0.2161 0.71542 0.0
H626 H 0.89147 0.23584 0.7289 0.0
H627 H 0.86128 0.19846 0.73111 0.0
C628 C 0.86852 0.27754 0.68238 0.0
N629 N 0.86815 0.24681 0.68268 0.0
N630 N 0.90425 0.23702 0.69164 0.0
C631 C 0.92959 0.26188 0.6972 0.0
C632 C 0.90572 0.28818 0.69183 0.0
C633 C 0.83825 0.29681 0.67247 0.0
H634 H 0.84242 0.28629 0.66278 0.0
H635 H 0.79154 0.29909 0.67507 0.0
H636 H 0.85743 0.32004 0.67196 0.0
O637 O 0.8804 0.19042 0.66369 0.0
O638 O 0.93915 0.17033 0.67848 0.0
H639 H 0.00418 0.23998 0.70566 0.0
H640 H 0.00787 0.2807 0.70565 0.0
C641 C 0.97816 0.26101 0.70685 0.0
H642 H 0.9601 0.26249 0.71675 0.0
H643 H 0.03087 0.16905 0.70109 0.0
O644 O 0.78495 0.23912 0.65947 0.0
C645 C 0.922 0.17267 0.66673 0.0
Co646 Co 0.44035 0.04234 0.67345 0.0
Co647 Co 0.35341 0.0655 0.69411 0.0
C648 C 0.47982 0.08647 0.69346 0.0
O649 O 0.49015 0.06894 0.68398 0.0
O650 O 0.42876 0.0882 0.69838 0.0
C651 C 0.53999 0.01057 0.66536 0.0
O652 O 0.55495 0.01248 0.67759 0.0
C653 C 0.31191 0.06146 0.72071 0.0
C654 C 0.21722 0.06898 0.71868 0.0
C655 C 0.25927 0.05925 0.72742 0.0
N656 N 0.30088 0.07053 0.70851 0.0
N657 N 0.24432 0.07583 0.70747 0.0
C658 C 0.37199 0.05447 0.72559 0.0
H659 H 0.38644 0.03195 0.72189 0.0
H660 H 0.37334 0.05444 0.73631 0.0
H661 H 0.40316 0.07177 0.72191 0.0
C662 C 0.4042 0.98198 0.68277 0.0
N663 N 0.40221 0.01269 0.68321 0.0
N664 N 0.36386 0.02152 0.6919 0.0
C665 C 0.33952 0.99606 0.69716 0.0
C666 C 0.36602 0.97038 0.69184 0.0
C667 C 0.43658 0.96369 0.67284 0.0
H668 H 0.43445 0.97511 0.6633 0.0
H669 H 0.48275 0.96123 0.67585 0.0
H670 H 0.41776 0.94049 0.67178 0.0
O671 O 0.38442 0.06651 0.66319 0.0
O672 O 0.32136 0.085 0.67757 0.0
H673 H 0.25926 0.01454 0.7044 0.0
H674 H 0.26622 0.97401 0.70657 0.0
C675 C 0.29021 0.99591 0.70662 0.0
H676 H 0.30797 0.9989 0.71643 0.0
H677 H 0.22364 0.08189 0.69886 0.0
O678 O 0.49255 0.02242 0.66154 0.0
C679 C 0.33975 0.08256 0.66589 0.0
Co680 Co 0.16977 0.97638 0.41867 0.0
Co681 Co 0.1057 0.94871 0.44233 0.0
C682 C 0.23374 0.93711 0.43794 0.0
O683 O 0.23219 0.95405 0.42797 0.0
O684 O 0.18788 0.93224 0.44465 0.0
C685 C 0.25225 0.01537 0.40831 0.0
O686 O 0.26898 0.01622 0.42046 0.0
C687 C 0.0783 0.94759 0.46999 0.0
C688 C 0.98326 0.93963 0.46981 0.0
C689 C 0.02886 0.94822 0.47787 0.0
N690 N 0.0619 0.94056 0.45784 0.0
N691 N 0.00528 0.9349 0.4579 0.0
C692 C 0.14035 0.95364 0.47377 0.0
H693 H 0.16838 0.93501 0.47 0.0
H694 H 0.15584 0.97512 0.46925 0.0
H695 H 0.14554 0.9548 0.48442 0.0
C696 C 0.12492 0.03404 0.42883 0.0
N697 N 0.13008 1.00347 0.42936 0.0
N698 N 0.10453 0.99302 0.43986 0.0
C699 C 0.08309 0.01739 0.44648 0.0
C700 C 0.09704 0.04401 0.43984 0.0
C701 C 0.14127 0.05362 0.41751 0.0
H702 H 0.13636 0.04078 0.40835 0.0
H703 H 0.18694 0.06154 0.41859 0.0
H704 H 0.11304 0.07419 0.41706 0.0
O705 O 0.11592 0.94822 0.41039 0.0
O706 O 0.06957 0.92615 0.4268 0.0
H707 H 0.02893 0.03768 0.46134 0.0
H708 H 0.08186 0.01081 0.46677 0.0
C709 C 0.05059 0.01581 0.45896 0.0
H710 H 0.0171 0.99767 0.45849 0.0
H711 H 0.98088 0.93018 0.44962 0.0
O712 O 0.2088 0.9991 0.40516 0.0
C713 C 0.07871 0.9292 0.41462 0.0
Co714 Co 0.57594 0.79119 0.4176 0.0
Co715 Co 0.6362 0.81243 0.44266 0.0
C716 C 0.51347 0.83021 0.43788 0.0
O717 O 0.51586 0.815 0.42739 0.0
O718 O 0.55772 0.83238 0.44533 0.0
C719 C 0.49182 0.75499 0.40649 0.0
O720 O 0.47422 0.7534 0.41857 0.0
C721 C 0.66626 0.81128 0.47042 0.0
C722 C 0.75909 0.79838 0.46908 0.0
C723 C 0.71286 0.8 0.47773 0.0
N724 N 0.68373 0.81431 0.45803 0.0
N725 N 0.73985 0.80758 0.45743 0.0
C726 C 0.60651 0.81993 0.47506 0.0
H727 H 0.57372 0.8031 0.47176 0.0
H728 H 0.60511 0.82182 0.48575 0.0
H729 H 0.59415 0.84222 0.47076 0.0
C730 C 0.60553 0.73071 0.42673 0.0
N731 N 0.61002 0.7612 0.42773 0.0
N732 N 0.62542 0.76877 0.43951 0.0
C733 C 0.62726 0.7427 0.44665 0.0
C734 C 0.61359 0.71796 0.43877 0.0
C735 C 0.59817 0.71346 0.41432 0.0
H736 H 0.6096 0.72795 0.40591 0.0
H737 H 0.55276 0.70508 0.41339 0.0
H738 H 0.62682 0.69302 0.41437 0.0
O739 O 0.63385 0.81719 0.41004 0.0
O740 O 0.67822 0.83539 0.42747 0.0
H741 H 0.68133 0.7483 0.4632 0.0
H742 H 0.62886 0.71807 0.46482 0.0
C743 C 0.63608 0.74133 0.46093 0.0
H744 H 0.60516 0.75698 0.4657 0.0
H745 H 0.76365 0.80642 0.44884 0.0
O746 O 0.53567 0.77123 0.40364 0.0
C747 C 0.67213 0.8342 0.41511 0.0
Co748 Co 0.16923 0.78713 0.3477 0.0
Co749 Co 0.1063 0.81378 0.32398 0.0
C750 C 0.23101 0.82941 0.32865 0.0
O751 O 0.22828 0.81323 0.33886 0.0
O752 O 0.18684 0.83164 0.32119 0.0
C753 C 0.25429 0.74843 0.35689 0.0
O754 O 0.26986 0.74883 0.34466 0.0
C755 C 0.07299 0.81714 0.29668 0.0
C756 C 0.97702 0.81888 0.29827 0.0
C757 C 0.02189 0.81419 0.28946 0.0
N758 N 0.05847 0.82166 0.30915 0.0
N759 N 0.00108 0.8237 0.30995 0.0
C760 C 0.13481 0.81596 0.29197 0.0
H761 H 0.15868 0.83616 0.29569 0.0
H762 H 0.15717 0.79555 0.29589 0.0
H763 H 0.13717 0.81603 0.28126 0.0
C764 C 0.13056 0.7287 0.33708 0.0
N765 N 0.13301 0.75938 0.33671 0.0
N766 N 0.10918 0.76942 0.32597 0.0
C767 C 0.09247 0.74467 0.31894 0.0
C768 C 0.10705 0.71827 0.32567 0.0
C769 C 0.14454 0.70931 0.34861 0.0
H770 H 0.13854 0.72237 0.35768 0.0
H771 H 0.19005 0.70092 0.34789 0.0
H772 H 0.11564 0.68897 0.3489 0.0
O773 O 0.1127 0.81231 0.35652 0.0
O774 O 0.07045 0.83552 0.3399 0.0
H775 H 0.02656 0.76104 0.30613 0.0
H776 H 0.05068 0.72285 0.30259 0.0
C777 C 0.06489 0.74572 0.3059 0.0
H778 H 0.09722 0.75437 0.2989 0.0
H779 H 0.97814 0.82576 0.31863 0.0
O780 O 0.21119 0.76429 0.36059 0.0
C781 C 0.07684 0.83175 0.35213 0.0
Co782 Co 0.58614 0.97381 0.34968 0.0
Co783 Co 0.64581 0.94807 0.32515 0.0
C784 C 0.52619 0.92758 0.33204 0.0
O785 O 0.53058 0.94389 0.34217 0.0
O786 O 0.56677 0.92727 0.32356 0.0
C787 C 0.4976 0.00942 0.35953 0.0
O788 O 0.48044 0.00804 0.34742 0.0
C789 C 0.67332 0.94673 0.29735 0.0
C790 C 0.76957 0.94736 0.29785 0.0
C791 C 0.72246 0.95164 0.28962 0.0
N792 N 0.69096 0.94132 0.30959 0.0
N793 N 0.7486 0.94056 0.30968 0.0
C794 C 0.61068 0.95164 0.29372 0.0
H795 H 0.58475 0.95844 0.30231 0.0
H796 H 0.60619 0.96925 0.28609 0.0
H797 H 0.59266 0.92991 0.28993 0.0
C798 C 0.61508 0.03279 0.33816 0.0
N799 N 0.61521 1.00208 0.33788 0.0
N800 N 0.63826 0.99241 0.32698 0.0
C801 C 0.65199 0.01745 0.31978 0.0
C802 C 0.63632 0.04359 0.32657 0.0
C803 C 0.60174 0.05186 0.34983 0.0
H804 H 0.61125 0.03907 0.35882 0.0
H805 H 0.55521 0.05877 0.34967 0.0
H806 H 0.62835 0.07305 0.34978 0.0
O807 O 0.64821 0.95175 0.35799 0.0
O808 O 0.68645 0.92768 0.34109 0.0
H809 H 0.71844 1.00244 0.30679 0.0
H810 H 0.69163 0.04 0.30326 0.0
C811 C 0.67902 0.01696 0.30663 0.0
H812 H 0.6471 0.00801 0.29962 0.0
H813 H 0.77365 0.93844 0.31805 0.0
O814 O 0.54349 0.99547 0.36293 0.0
C815 C 0.68331 0.93223 0.35337 0.0
Co816 Co 0.81477 0.53663 0.09903 0.0
Co817 Co 0.88079 0.56344 0.07534 0.0
C818 C 0.75353 0.57411 0.07844 0.0
O819 O 0.75473 0.5582 0.08872 0.0
O820 O 0.79983 0.57914 0.07194 0.0
C821 C 0.72742 0.4986 0.10849 0.0
O822 O 0.71392 0.49713 0.09616 0.0
C823 C 0.91128 0.56671 0.04797 0.0
C824 C 0.00624 0.55924 0.04882 0.0
C825 C 0.95903 0.55798 0.0404 0.0
N826 N 0.92898 0.57021 0.0603 0.0
N827 N 0.98628 0.5671 0.06061 0.0
C828 C 0.84918 0.57089 0.04382 0.0
H829 H 0.83104 0.59162 0.04848 0.0
H830 H 0.82252 0.55116 0.04704 0.0
H831 H 0.8459 0.57363 0.03318 0.0
C832 C 0.86028 0.47882 0.08959 0.0
N833 N 0.85656 0.50941 0.08895 0.0
N834 N 0.87945 0.51927 0.07807 0.0
C835 C 0.89599 0.49442 0.07112 0.0
C836 C 0.88394 0.46823 0.07819 0.0
C837 C 0.84432 0.45994 0.10114 0.0
H838 H 0.84903 0.47344 0.11014 0.0
H839 H 0.79864 0.45191 0.10021 0.0
H840 H 0.87274 0.43947 0.10174 0.0
O841 O 0.86646 0.56532 0.10761 0.0
O842 O 0.913 0.58703 0.09111 0.0
H843 H 0.96042 0.50513 0.05701 0.0
H844 H 0.91809 0.4719 0.05309 0.0
C845 C 0.91626 0.49501 0.05743 0.0
H846 H 0.88539 0.50872 0.05169 0.0
H847 H 0.0109 0.56698 0.06909 0.0
O848 O 0.77115 0.51431 0.11201 0.0
C849 C 0.903 0.58458 0.10329 0.0
Co850 Co 0.42529 0.72006 0.09484 0.0
Co851 Co 0.3492 0.69372 0.07284 0.0
C852 C 0.47785 0.68024 0.07456 0.0
O853 O 0.48202 0.69712 0.08447 0.0
O854 O 0.42896 0.67595 0.06898 0.0
C855 C 0.51763 0.75531 0.1044 0.0
O856 O 0.5347 0.75528 0.09227 0.0
C857 C 0.31464 0.69719 0.046 0.0
C858 C 0.221 0.6857 0.04684 0.0
C859 C 0.26341 0.69804 0.03875 0.0
N860 N 0.3021 0.68631 0.05786 0.0
N861 N 0.24653 0.67837 0.05815 0.0
C862 C 0.37271 0.71086 0.04259 0.0
H863 H 0.3983 0.71592 0.05142 0.0
H864 H 0.36784 0.73204 0.03684 0.0
H865 H 0.39753 0.69421 0.03666 0.0
C866 C 0.38292 0.77862 0.08532 0.0
N867 N 0.38398 0.74797 0.08493 0.0
N868 N 0.35114 0.73807 0.07539 0.0
C869 C 0.32787 0.76292 0.06939 0.0
C870 C 0.34943 0.78922 0.07522 0.0
C871 C 0.40931 0.79784 0.09578 0.0
H872 H 0.40575 0.78614 0.10524 0.0
H873 H 0.45582 0.80229 0.09351 0.0
H874 H 0.38678 0.8202 0.09653 0.0
O875 O 0.37279 0.69251 0.10413 0.0
O876 O 0.31794 0.67125 0.08886 0.0
H877 H 0.2557 0.74173 0.05973 0.0
H878 H 0.25536 0.78246 0.05893 0.0
C879 C 0.2838 0.76208 0.05874 0.0
H880 H 0.3063 0.76212 0.04928 0.0
H881 H 0.22482 0.67077 0.06642 0.0
O882 O 0.47115 0.74146 0.10757 0.0
C883 C 0.33278 0.6741 0.10075 0.0
Co884 Co 0.79877 0.7171 0.1741 0.0
Co885 Co 0.88805 0.69855 0.19514 0.0
C886 C 0.76542 0.67503 0.1958 0.0
O887 O 0.75427 0.69037 0.18569 0.0
O888 O 0.81635 0.67499 0.20079 0.0
C889 C 0.69354 0.74446 0.16671 0.0
O890 O 0.68046 0.74192 0.17904 0.0
C891 C 0.93669 0.70138 0.22126 0.0
C892 C 0.03126 0.70389 0.21737 0.0
C893 C 0.99023 0.70731 0.22714 0.0
N894 N 0.94574 0.69614 0.20859 0.0
N895 N 0.00256 0.69678 0.20641 0.0
C896 C 0.8775 0.70071 0.22743 0.0
H897 H 0.8571 0.67819 0.22551 0.0
H898 H 0.84887 0.71813 0.22294 0.0
H899 H 0.87978 0.70414 0.23803 0.0
C900 C 0.82558 0.77878 0.18265 0.0
N901 N 0.83462 0.74849 0.18311 0.0
N902 N 0.87046 0.74182 0.19261 0.0
C903 C 0.88444 0.76838 0.19866 0.0
C904 C 0.85487 0.79227 0.19274 0.0
C905 C 0.79229 0.79524 0.17232 0.0
H906 H 0.79679 0.7833 0.16293 0.0
H907 H 0.74563 0.79662 0.17509 0.0
H908 H 0.80872 0.81893 0.17117 0.0
O909 O 0.855 0.69415 0.16383 0.0
O910 O 0.91901 0.67831 0.1785 0.0
H911 H 0.96228 0.75703 0.20899 0.0
H912 H 0.93615 0.79512 0.21199 0.0
C913 C 0.92273 0.77118 0.21024 0.0
H914 H 0.8978 0.76344 0.21874 0.0
H915 H 0.02143 0.69467 0.19727 0.0
O916 O 0.74196 0.73447 0.16253 0.0
C917 C 0.9007 0.67934 0.16679 0.0
Co918 Co 0.43292 0.54372 0.17448 0.0
Co919 Co 0.34373 0.56748 0.19462 0.0
C920 C 0.4703 0.58625 0.19541 0.0
O921 O 0.48114 0.56933 0.18577 0.0
O922 O 0.41865 0.58861 0.19988 0.0
C923 C 0.5342 0.51155 0.16831 0.0
O924 O 0.54368 0.51405 0.18079 0.0
C925 C 0.29986 0.56286 0.22072 0.0
C926 C 0.2058 0.57206 0.21844 0.0
C927 C 0.24655 0.56087 0.2272 0.0
N928 N 0.2902 0.57332 0.20867 0.0
N929 N 0.2342 0.57983 0.20751 0.0
C930 C 0.35798 0.55077 0.22501 0.0
H931 H 0.38739 0.54728 0.21663 0.0
H932 H 0.35344 0.52893 0.23032 0.0
H933 H 0.37848 0.5676 0.23161 0.0
C934 C 0.39198 0.48391 0.18305 0.0
N935 N 0.39095 0.51455 0.18368 0.0
N936 N 0.3525 0.52344 0.19234 0.0
C937 C 0.3276 0.49801 0.19752 0.0
C938 C 0.3536 0.4723 0.19208 0.0
C939 C 0.42397 0.46581 0.17298 0.0
H940 H 0.4238 0.4781 0.16363 0.0
H941 H 0.46959 0.46207 0.17617 0.0
H942 H 0.40334 0.44316 0.17149 0.0
O943 O 0.38021 0.56871 0.16381 0.0
O944 O 0.3159 0.58766 0.17784 0.0
H945 H 0.24917 0.51754 0.20527 0.0
H946 H 0.25209 0.47691 0.2065 0.0
C947 C 0.27844 0.49796 0.20706 0.0
H948 H 0.29617 0.49896 0.21699 0.0
H949 H 0.21458 0.58688 0.19891 0.0
O950 O 0.48858 0.52316 0.16338 0.0
C951 C 0.33586 0.58521 0.16629 0.0
Co952 Co 0.16811 0.46958 0.91984 0.0
Co953 Co 0.09947 0.44526 0.94336 0.0
C954 C 0.22558 0.42838 0.93939 0.0
O955 O 0.22803 0.44535 0.92941 0.0
O956 O 0.17819 0.42547 0.94578 0.0
C957 C 0.25076 0.5081 0.90896 0.0
O958 O 0.26939 0.50994 0.92095 0.0
C959 C 0.07192 0.44395 0.97091 0.0
C960 C 0.97671 0.45081 0.97047 0.0
C961 C 0.0247 0.45268 0.97865 0.0
N962 N 0.05299 0.4397 0.95872 0.0
N963 N 0.99564 0.44254 0.95866 0.0
C964 C 0.1345 0.44018 0.97477 0.0
H965 H 0.15273 0.41958 0.97002 0.0
H966 H 0.16041 0.46007 0.97142 0.0
H967 H 0.13887 0.43746 0.98539 0.0
C968 C 0.13003 0.52917 0.92939 0.0
N969 N 0.13101 0.49849 0.93013 0.0
N970 N 0.10689 0.48947 0.94101 0.0
C971 C 0.09266 0.5149 0.94786 0.0
C972 C 0.1079 0.54062 0.94077 0.0
C973 C 0.1433 0.5476 0.91754 0.0
H974 H 0.13674 0.53382 0.90867 0.0
H975 H 0.18877 0.55617 0.91798 0.0
H976 H 0.11429 0.56787 0.91706 0.0
O977 O 0.11186 0.44327 0.91146 0.0
O978 O 0.06069 0.4238 0.92773 0.0
H979 H 0.02539 0.50399 0.96129 0.0
H980 H 0.06371 0.53863 0.9651 0.0
C981 C 0.06863 0.51518 0.96126 0.0
H982 H 0.09891 0.50277 0.96764 0.0
H983 H 0.97015 0.44203 0.9503 0.0
O984 O 0.2081 0.49091 0.90626 0.0
C985 C 0.07153 0.42601 0.91558 0.0
Co986 Co 0.57439 0.294 0.92098 0.0
Co987 Co 0.65184 0.31657 0.94342 0.0
C988 C 0.52796 0.33957 0.93977 0.0
O989 O 0.52083 0.32146 0.93033 0.0
O990 O 0.57685 0.34123 0.94567 0.0
C991 C 0.48201 0.26086 0.91067 0.0
O992 O 0.46207 0.26193 0.92258 0.0
C993 C 0.67881 0.31529 0.97107 0.0
C994 C 0.77494 0.31274 0.97095 0.0
C995 C 0.72675 0.30901 0.97896 0.0
N996 N 0.69798 0.32111 0.95897 0.0
N997 N 0.75563 0.32061 0.9591 0.0
C998 C 0.61557 0.31101 0.97434 0.0
H999 H 0.59041 0.30465 0.96559 0.0
H1000 H 0.60936 0.29329 0.98187 0.0
H1001 H 0.59798 0.33287 0.97809 0.0
C1002 C 0.60075 0.23371 0.93128 0.0
N1003 N 0.60665 0.26424 0.93156 0.0
N1004 N 0.63606 0.27253 0.94188 0.0
C1005 C 0.64778 0.24674 0.9488 0.0
C1006 C 0.62395 0.22167 0.94243 0.0
C1007 C 0.58001 0.21546 0.91992 0.0
H1008 H 0.58923 0.22762 0.91075 0.0
H1009 H 0.53262 0.21093 0.92085 0.0
H1010 H 0.60238 0.19299 0.91959 0.0
O1011 O 0.63435 0.31638 0.91196 0.0
O1012 O 0.69462 0.33391 0.92704 0.0
H1013 H 0.72044 0.26001 0.96046 0.0
H1014 H 0.69515 0.22197 0.96358 0.0
C1015 C 0.68116 0.24547 0.96119 0.0
H1016 H 0.65301 0.25332 0.9692 0.0
H1017 H 0.78159 0.3227 0.95085 0.0
O1018 O 0.5293 0.27418 0.90783 0.0
C1019 C 0.67967 0.33115 0.91511 0.0
Co1020 Co 0.16958 0.29348 0.84573 0.0
Co1021 Co 0.09542 0.31932 0.82343 0.0
C1022 C 0.22379 0.33624 0.82691 0.0
O1023 O 0.2281 0.31855 0.8366 0.0
O1024 O 0.17527 0.33935 0.82094 0.0
C1025 C 0.25811 0.25991 0.85743 0.0
O1026 O 0.28292 0.26246 0.84602 0.0
C1027 C 0.0636 0.31474 0.79635 0.0
C1028 C 0.96992 0.3262 0.79685 0.0
C1029 C 0.01258 0.31328 0.789 0.0
N1030 N 0.05052 0.32636 0.80805 0.0
N1031 N 0.99495 0.33429 0.80811 0.0
C1032 C 0.1222 0.30145 0.79316 0.0
H1033 H 0.14907 0.29888 0.802 0.0
H1034 H 0.11813 0.27907 0.78827 0.0
H1035 H 0.14519 0.31714 0.78645 0.0
C1036 C 0.13858 0.23443 0.83426 0.0
N1037 N 0.13468 0.26506 0.83479 0.0
N1038 N 0.10078 0.27493 0.82542 0.0
C1039 C 0.08114 0.2501 0.8188 0.0
C1040 C 0.10664 0.2241 0.82392 0.0
C1041 C 0.16978 0.21452 0.84379 0.0
H1042 H 0.16205 0.22277 0.85376 0.0
H1043 H 0.21711 0.21454 0.8416 0.0
H1044 H 0.15422 0.19056 0.84321 0.0
O1045 O 0.11199 0.31904 0.85454 0.0
O1046 O 0.05735 0.33971 0.83918 0.0
H1047 H 0.00487 0.26999 0.81013 0.0
H1048 H 0.0065 0.229 0.81002 0.0
C1049 C 0.0335 0.24989 0.80893 0.0
H1050 H 0.05241 0.24913 0.7991 0.0
H1051 H 0.97281 0.34234 0.81625 0.0
O1052 O 0.20899 0.27218 0.85942 0.0
C1053 C 0.07043 0.3364 0.85114 0.0
Co1054 Co 0.5709 0.47008 0.84747 0.0
Co1055 Co 0.65262 0.44583 0.82613 0.0
C1056 C 0.52665 0.42409 0.82879 0.0
O1057 O 0.51784 0.44276 0.83797 0.0
O1058 O 0.57695 0.4217 0.82351 0.0
C1059 C 0.4776 0.50369 0.85716 0.0
O1060 O 0.45787 0.50138 0.84528 0.0
C1061 C 0.68165 0.44608 0.79873 0.0
C1062 C 0.77791 0.44644 0.79894 0.0
C1063 C 0.73024 0.45093 0.79088 0.0
N1064 N 0.69994 0.44009 0.81086 0.0
N1065 N 0.75759 0.43933 0.81081 0.0
C1066 C 0.61906 0.45219 0.7954 0.0
H1067 H 0.59425 0.45917 0.80412 0.0
H1068 H 0.61508 0.47017 0.7879 0.0
H1069 H 0.59932 0.43093 0.79155 0.0
C1070 C 0.59898 0.52967 0.83641 0.0
N1071 N 0.60508 0.49914 0.83677 0.0
N1072 N 0.63811 0.49002 0.82711 0.0
C1073 C 0.65284 0.51523 0.82009 0.0
C1074 C 0.62662 0.54071 0.82558 0.0
C1075 C 0.57283 0.54902 0.84687 0.0
H1076 H 0.57993 0.53851 0.85647 0.0
H1077 H 0.52559 0.55216 0.84502 0.0
H1078 H 0.59307 0.57206 0.84695 0.0
O1079 O 0.62956 0.44778 0.85709 0.0
O1080 O 0.69291 0.42929 0.84286 0.0
H1081 H 0.72935 0.50001 0.81011 0.0
H1082 H 0.7102 0.53903 0.80692 0.0
C1083 C 0.69245 0.51583 0.80861 0.0
H1084 H 0.6677 0.50933 0.79986 0.0
H1085 H 0.78308 0.43688 0.8191 0.0
O1086 O 0.52498 0.49082 0.86024 0.0
C1087 C 0.67553 0.43281 0.85459 0.0
H1088 H 0.42586 0.05119 0.01987 0.0
H1089 H 0.58535 0.02066 0.03781 0.0
H1090 H 0.60365 0.9862 0.01976 0.0
H1091 H 0.57296 0.96323 0.99917 0.0
H1092 H 0.41482 0.99468 0.98088 0.0
H1093 H 0.39593 0.02869 0.99904 0.0
C1094 C 0.46441 0.03688 0.01987 0.0
C1095 C 0.50381 0.03846 0.03029 0.0
C1096 C 0.47452 0.01673 0.00946 0.0
C1097 C 0.55433 0.02019 0.02992 0.0
C1098 C 0.56464 1.00019 0.01963 0.0
C1099 C 0.53492 0.97787 0.99899 0.0
C1100 C 0.49614 0.97661 0.98844 0.0
C1101 C 0.52489 0.99809 0.00937 0.0
C1102 C 0.44565 0.99495 0.98881 0.0
C1103 C 0.43495 0.01472 0.99917 0.0
H1104 H 0.79403 0.26045 0.98541 0.0
H1105 H 0.66023 0.31952 1.00066 0.0
H1106 H 0.65801 0.28969 0.02072 0.0
H1107 H 0.69539 0.24698 0.03409 0.0
H1108 H 0.83029 0.18871 0.01877 0.0
H1109 H 0.83073 0.2179 0.9986 0.0
C1110 C 0.7647 0.267 0.99317 0.0
C1111 C 0.72716 0.29219 0.9915 0.0
C1112 C 0.76364 0.24968 1.00464 0.0
C1113 C 0.68909 0.30009 1.00162 0.0
C1114 C 0.68788 0.28303 0.0131 0.0
C1115 C 0.72426 0.24045 0.02625 0.0
C1116 C 0.76281 0.21566 0.02792 0.0
C1117 C 0.72481 0.25768 0.01471 0.0
C1118 C 0.80053 0.20776 0.01775 0.0
C1119 C 0.80083 0.22449 1.00622 0.0
H1120 H 0.40099 0.21446 0.2489 0.0
H1121 H 0.5676 0.23624 0.23174 0.0
H1122 H 0.58871 0.27136 0.24937 0.0
H1123 H 0.55891 0.29744 0.26934 0.0
H1124 H 0.39312 0.27523 0.28679 0.0
H1125 H 0.37156 0.24034 0.26908 0.0
C1126 C 0.44166 0.22707 0.24894 0.0
C1127 C 0.48224 0.22277 0.23885 0.0
C1128 C 0.45345 0.2477 0.2591 0.0
C1129 C 0.53549 0.2388 0.23935 0.0
C1130 C 0.54751 0.25919 0.24941 0.0
C1131 C 0.51851 0.28465 0.26944 0.0
C1132 C 0.47837 0.28877 0.27962 0.0
C1133 C 0.50672 0.264 0.25931 0.0
C1134 C 0.42508 0.27274 0.27914 0.0
C1135 C 0.41278 0.25249 0.26904 0.0
H1136 H 0.79394 0.99879 0.28341 0.0
H1137 H 0.65759 0.94213 0.26764 0.0
H1138 H 0.65913 0.972 0.24759 0.0
H1139 H 0.6995 0.01431 0.23454 0.0
H1140 H 0.83655 0.07049 0.25029 0.0
H1141 H 0.83459 0.04076 0.27037 0.0
C1142 C 0.76492 0.99275 0.27554 0.0
C1143 C 0.72544 0.96828 0.27706 0.0
C1144 C 0.76601 0.0101 0.26408 0.0
C1145 C 0.68785 0.96102 0.26679 0.0
C1146 C 0.68881 0.97809 0.25533 0.0
C1147 C 0.72853 0.02023 0.24243 0.0
C1148 C 0.76821 0.04461 0.24094 0.0
C1149 C 0.72745 1.00281 0.25389 0.0
C1150 C 0.80596 0.05175 0.25118 0.0
C1151 C 0.80482 0.03474 0.26264 0.0
H1152 H 0.18148 0.79736 0.99839 0.0
H1153 H 0.34258 0.77094 0.97992 0.0
H1154 H 0.36137 0.73408 0.99712 0.0
H1155 H 0.33002 0.70764 0.01701 0.0
H1156 H 0.16813 0.7339 0.03521 0.0
H1157 H 0.15006 0.77097 0.01814 0.0
C1158 C 0.22037 0.78333 0.99804 0.0
C1159 C 0.25999 0.78667 0.98774 0.0
C1160 C 0.23024 0.76157 1.00779 0.0
C1161 C 0.31129 0.769 0.98774 0.0
C1162 C 0.32183 0.74762 0.9975 0.0
C1163 C 0.291 0.7216 0.01727 0.0
C1164 C 0.25086 0.71808 0.02747 0.0
C1165 C 0.28126 0.74343 1.00751 0.0
C1166 C 0.19971 0.73587 0.02746 0.0
C1167 C 0.18956 0.75739 0.01776 0.0
H1168 H 0.44932 0.75945 0.78572 0.0
H1169 H 0.57836 0.82025 0.76964 0.0
H1170 H 0.57759 0.79134 0.74938 0.0
H1171 H 0.5412 0.74826 0.73634 0.0
H1172 H 0.41038 0.6882 0.75215 0.0
H1173 H 0.41083 0.7172 0.77244 0.0
C1174 C 0.47674 0.76659 0.77772 0.0
C1175 C 0.51426 0.79185 0.77922 0.0
C1176 C 0.47612 0.74977 0.76611 0.0
C1177 C 0.54971 0.80069 0.76879 0.0
C1178 C 0.54927 0.78415 0.75721 0.0
C1179 C 0.51325 0.74136 0.74429 0.0
C1180 C 0.4761 0.71598 0.74281 0.0
C1181 C 0.51315 0.75845 0.75581 0.0
C1182 C 0.43935 0.70762 0.75309 0.0
C1183 C 0.43954 0.72424 0.76465 0.0
H1184 H 0.16025 1.0007 0.77886 0.0
H1185 H 0.30237 0.93819 0.77219 0.0
H1186 H 0.32946 0.96631 0.75264 0.0
H1187 H 0.3142 0.00916 0.73792 0.0
H1188 H 0.17217 0.07192 0.74448 0.0
H1189 H 0.14365 0.04315 0.76376 0.0
C1190 C 0.19615 0.99268 0.77298 0.0
C1191 C 0.22841 0.96686 0.77685 0.0
C1192 C 0.21221 0.00939 0.76191 0.0
C1193 C 0.27626 0.95765 0.76931 0.0
C1194 C 0.29205 0.97388 0.7582 0.0
C1195 C 0.2776 0.01704 0.74359 0.0
C1196 C 0.24616 0.04322 0.7398 0.0
C1197 C 0.26085 1.00005 0.75452 0.0
C1198 C 0.19764 0.05214 0.74723 0.0
C1199 C 0.1811 0.03557 0.75822 0.0
H1200 H 0.54701 0.46426 0.49778 0.0
H1201 H 0.37976 0.48589 0.48099 0.0
H1202 H 0.35844 0.52013 0.49896 0.0
H1203 H 0.38877 0.54587 0.51915 0.0
H1204 H 0.55769 0.52527 0.53534 0.0
H1205 H 0.57781 0.49023 0.51763 0.0
C1206 C 0.50637 0.47682 0.49786 0.0
C1207 C 0.4658 0.47278 0.4878 0.0
C1208 C 0.49484 0.49721 0.5081 0.0
C1209 C 0.41211 0.48838 0.48854 0.0
C1210 C 0.39993 0.50827 0.49879 0.0
C1211 C 0.42982 0.5336 0.51882 0.0
C1212 C 0.47143 0.53823 0.52864 0.0
C1213 C 0.44121 0.51316 0.50857 0.0
C1214 C 0.52491 0.52248 0.5279 0.0
C1215 C 0.53637 0.50215 0.51781 0.0
H1216 H 0.80391 0.79106 0.49398 0.0
H1217 H 0.62183 0.76854 0.48928 0.0
H1218 H 0.62602 0.73543 0.50812 0.0
H1219 H 0.68224 0.71117 0.5257 0.0
H1220 H 0.8642 0.73476 0.53027 0.0
H1221 H 0.85941 0.7675 0.5116 0.0
C1222 C 0.76484 0.77925 0.49717 0.0
C1223 C 0.71228 0.78328 0.49032 0.0
C1224 C 0.7679 0.75935 0.50784 0.0
C1225 C 0.66244 0.76724 0.49454 0.0
C1226 C 0.66505 0.74766 0.50524 0.0
C1227 C 0.72114 0.72315 0.52254 0.0
C1228 C 0.77403 0.71907 0.52934 0.0
C1229 C 0.71774 0.74326 0.5119 0.0
C1230 C 0.82341 0.73555 0.52511 0.0
C1231 C 0.82051 0.75513 0.51447 0.0
H1232 H 0.69958 0.51013 0.73536 0.0
H1233 H 0.83378 0.56966 0.75009 0.0
H1234 H 0.83528 0.54104 0.77044 0.0
H1235 H 0.79876 0.49884 0.78401 0.0
H1236 H 0.66465 0.43926 0.7693 0.0
H1237 H 0.66277 0.46802 0.74898 0.0
C1238 C 0.72865 0.51706 0.74309 0.0
C1239 C 0.76662 0.54201 0.74121 0.0
C1240 C 0.72959 0.50029 0.75472 0.0
C1241 C 0.80448 0.55045 0.75126 0.0
C1242 C 0.80536 0.53406 0.76289 0.0
C1243 C 0.76957 0.49195 0.7763 0.0
C1244 C 0.73181 0.46692 0.77817 0.0
C1245 C 0.76847 0.50878 0.76469 0.0
C1246 C 0.69378 0.45853 0.76814 0.0
C1247 C 0.69271 0.475 0.75653 0.0
H1248 H 0.31465 0.25043 0.52907 0.0
H1249 H 0.17745 0.18573 0.52096 0.0
H1250 H 0.14923 0.21537 0.50194 0.0
H1251 H 0.16319 0.25952 0.48784 0.0
H1252 H 0.30025 0.32433 0.49592 0.0
H1253 H 0.32886 0.29455 0.51489 0.0
C1254 C 0.27935 0.24229 0.52308 0.0
C1255 C 0.24894 0.21539 0.52641 0.0
C1256 C 0.26273 0.25975 0.51228 0.0
C1257 C 0.20205 0.2061 0.51859 0.0
C1258 C 0.18567 0.22315 0.50774 0.0
C1259 C 0.19856 0.26768 0.4938 0.0
C1260 C 0.22871 0.29467 0.4905 0.0
C1261 C 0.21534 0.25018 0.50458 0.0
C1262 C 0.27579 0.3039 0.49828 0.0
C1263 C 0.29239 0.28678 0.5091 0.0
H1264 H 0.15932 0.46294 0.26782 0.0
H1265 H 0.32228 0.4872 0.28596 0.0
H1266 H 0.34126 0.52474 0.26905 0.0
H1267 H 0.31048 0.55179 0.24939 0.0
H1268 H 0.14924 0.52622 0.23078 0.0
H1269 H 0.12905 0.48969 0.24798 0.0
C1270 C 0.19882 0.47654 0.2681 0.0
C1271 C 0.23906 0.47232 0.2782 0.0
C1272 C 0.20927 0.4984 0.25839 0.0
C1273 C 0.2907 0.48972 0.27824 0.0
C1274 C 0.30136 0.51147 0.26864 0.0
C1275 C 0.27137 0.53794 0.24897 0.0
C1276 C 0.2322 0.54145 0.23861 0.0
C1277 C 0.26082 0.51615 0.2587 0.0
C1278 C 0.18038 0.52414 0.23861 0.0
C1279 C 0.16898 0.50294 0.24839 0.0
H1280 H 0.08587 0.99805 0.48807 0.0
H1281 H 0.94951 0.93291 0.49627 0.0
H1282 H 0.92424 0.96098 0.51592 0.0
H1283 H 0.93943 1.00443 0.53036 0.0
H1284 H 0.07519 0.06988 0.52211 0.0
H1285 H 0.10218 0.04109 0.50274 0.0
C1286 C 0.05148 0.98945 0.49422 0.0
C1287 C 0.0203 0.96294 0.49071 0.0
C1288 C 0.0364 0.00608 0.50537 0.0
C1289 C 0.97468 0.95299 0.49878 0.0
C1290 C 0.95994 0.96916 0.50997 0.0
C1291 C 0.9742 0.0129 0.52428 0.0
C1292 C 0.00431 0.03985 0.52761 0.0
C1293 C 0.98996 0.99599 0.51326 0.0
C1294 C 0.05074 0.04949 0.51971 0.0
C1295 C 0.06639 0.03293 0.50867 0.0
H1296 H 0.92666 0.21264 0.74951 0.0
H1297 H 0.09268 0.23336 0.73186 0.0
H1298 H 0.11251 0.27118 0.74858 0.0
H1299 H 0.08113 0.30006 0.7678 0.0
H1300 H 0.91477 0.27928 0.78533 0.0
H1301 H 0.89541 0.24138 0.76869 0.0
C1302 C 0.96691 0.22561 0.74923 0.0
C1303 C 0.00763 0.22032 0.7393 0.0
C1304 C 0.97762 0.2479 0.75874 0.0
C1305 C 0.06048 0.23674 0.7394 0.0
C1306 C 0.0717 0.25868 0.74889 0.0
C1307 C 0.04094 0.28705 0.76807 0.0
C1308 C -6e-05 0.29244 0.77795 0.0
C1309 C 0.03034 0.2647 0.75856 0.0
C1310 C 0.94719 0.2759 0.77784 0.0
C1311 C 0.9362 0.2539 0.76838 0.0
H1312 H 0.08775 0.76945 0.27773 0.0
H1313 H 0.93296 0.82429 0.27273 0.0
H1314 H 0.90707 0.7947 0.25356 0.0
H1315 H 0.92698 0.75264 0.23873 0.0
H1316 H 0.08294 0.69869 0.24316 0.0
H1317 H 0.10954 0.72844 0.26233 0.0
C1318 C 0.04915 0.7756 0.27234 0.0
C1319 C 0.01287 0.79956 0.27664 0.0
C1320 C 0.03405 0.75815 0.26143 0.0
C1321 C 0.96202 0.80625 0.26959 0.0
C1322 C 0.94693 0.78916 0.25869 0.0
C1323 C 0.96637 0.74699 0.24391 0.0
C1324 C 0.00227 0.72296 0.23961 0.0
C1325 C 0.98215 0.76477 0.25465 0.0
C1326 C 0.05405 0.71673 0.24638 0.0
C1327 C 0.06948 0.7339 0.25727 0.0
H1328 H 0.05092 0.54816 0.02433 0.0
H1329 H 0.87006 0.52305 0.02957 0.0
H1330 H 0.87633 0.4879 0.01172 0.0
H1331 H 0.93329 0.46241 0.9948 0.0
H1332 H 0.11417 0.48742 0.98951 0.0
H1333 H 0.10802 0.52258 1.00739 0.0
C1334 C 0.01254 0.53534 0.02148 0.0
C1335 C 0.95966 0.53952 0.02823 0.0
C1336 C 0.01681 0.51393 0.01136 0.0
C1337 C 0.91088 0.52205 0.02442 0.0
C1338 C 0.91464 0.5011 0.01427 0.0
C1339 C 0.97171 0.47523 0.99763 0.0
C1340 C 0.02448 0.47109 0.99084 0.0
C1341 C 0.96751 0.49661 1.00775 0.0
C1342 C 0.07336 0.48848 0.99466 0.0
C1343 C 0.06967 0.5094 1.00483 0.0
H1344 H 0.10565 0.98615 0.10345 0.0
H1345 H 0.25929 0.97396 0.12696 0.0
H1346 H 0.19881 0.966 0.14604 0.0
H1347 H 0.10572 0.97709 0.15651 0.0
H1348 H 0.95312 0.99408 0.13315 0.0
H1349 H 0.00925 0.98479 0.11356 0.0
C1350 C 0.12566 0.98065 0.11267 0.0
C1351 C 0.18633 0.98187 0.11402 0.0
C1352 C 0.0908 0.97762 0.12368 0.0
C1353 C 0.21225 0.97411 0.12588 0.0
C1354 C 0.1778 0.96964 0.13678 0.0
C1355 C 0.08444 0.97789 0.14715 0.0
C1356 C 0.02646 0.98762 0.14617 0.0
C1357 C 0.1174 0.97372 0.13593 0.0
C1358 C -0.00138 0.9877 0.13406 0.0
C1359 C 0.03058 0.98238 0.12285 0.0
H1360 H 0.24748 0.27513 0.13832 0.0
H1361 H 0.09826 0.28221 0.16366 0.0
H1362 H 0.03436 0.28894 0.145 0.0
H1363 H 0.01953 0.27866 0.12208 0.0
H1364 H 0.16767 0.26415 0.09702 0.0
H1365 H 0.23388 0.27525 0.11493 0.0
C1366 C 0.20109 0.27883 0.13976 0.0
C1367 C 0.17692 0.27684 0.15222 0.0
C1368 C 0.16458 0.28088 0.12903 0.0
C1369 C 0.11742 0.2829 0.15409 0.0
C1370 C 0.08093 0.28656 0.14343 0.0
C1371 C 0.06636 0.27858 0.12049 0.0
C1372 C 0.08913 0.26938 0.1085 0.0
C1373 C 0.10368 0.2833 0.13092 0.0
C1374 C 0.14947 0.27052 0.1063 0.0
C1375 C 0.1872 0.27667 0.11654 0.0
H1376 H 0.01822 0.02313 0.88352 0.0
H1377 H 0.8745 0.03983 0.85749 0.0
H1378 H 0.8078 0.04354 0.87582 0.0
H1379 H 0.78788 0.02812 0.89803 0.0
H1380 H 0.92991 1.0047 0.92355 0.0
H1381 H 0.00028 0.01802 0.90667 0.0
C1382 C 0.9725 0.02831 0.88189 0.0
C1383 C 0.95049 0.02985 0.86924 0.0
C1384 C 0.93418 0.0286 0.89236 0.0
C1385 C 0.89195 0.03779 0.86718 0.0
C1386 C 0.8538 0.03969 0.87764 0.0
C1387 C 0.83432 0.02653 0.89997 0.0
C1388 C 0.8541 0.01432 0.91172 0.0
C1389 C 0.87391 0.03284 0.89011 0.0
C1390 C 0.91402 0.01343 0.9144 0.0
C1391 C 0.95409 0.02091 0.90476 0.0
H1392 H 0.9934 0.7374 0.89235 0.0
H1393 H 0.84943 0.74098 0.91926 0.0
H1394 H 0.78065 0.73318 0.90154 0.0
H1395 H 0.76223 0.7395 0.87848 0.0
H1396 H 0.9064 0.74334 0.85162 0.0
H1397 H 0.97474 0.73331 0.86923 0.0
C1398 C 0.94698 0.7358 0.89436 0.0
C1399 C 0.9259 0.74107 0.9069 0.0
C1400 C 0.90798 0.73311 0.88411 0.0
C1401 C 0.86625 0.7377 0.90957 0.0
C1402 C 0.82702 0.73345 0.89944 0.0
C1403 C 0.80857 0.73754 0.87645 0.0
C1404 C 0.82991 0.74346 0.86397 0.0
C1405 C 0.84739 0.73342 0.88665 0.0
C1406 C 0.88941 0.73961 0.86127 0.0
C1407 C 0.92839 0.73402 0.87132 0.0
H1408 H 0.14323 0.48689 0.66613 0.0
H1409 H 0.9902 0.47607 0.64229 0.0
H1410 H 0.05081 0.46186 0.62391 0.0
H1411 H 0.14574 0.46743 0.6136 0.0
H1412 H 0.29845 0.48398 0.63696 0.0
H1413 H 0.24009 0.47981 0.65658 0.0
C1414 C 0.12327 0.48043 0.65702 0.0
C1415 C 0.06307 0.48372 0.65529 0.0
C1416 C 0.15845 0.47371 0.64636 0.0
C1417 C 0.03705 0.4747 0.64361 0.0
C1418 C 0.07156 0.46655 0.63312 0.0
C1419 C 0.16653 0.46908 0.623 0.0
C1420 C 0.22529 0.47746 0.62391 0.0
C1421 C 0.13231 0.46832 0.63416 0.0
C1422 C 0.25244 0.47863 0.63609 0.0
C1423 C 0.21915 0.47635 0.6473 0.0
H1424 H 0.12822 0.77804 0.66197 0.0
H1425 H 0.28182 0.77355 0.63789 0.0
H1426 H 0.2227 0.78195 0.61866 0.0
H1427 H 0.12673 0.77522 0.60881 0.0
H1428 H 0.97313 0.77397 0.63296 0.0
H1429 H 0.03244 0.78411 0.65201 0.0
C1430 C 0.14883 0.77998 0.65256 0.0
C1431 C 0.20839 0.77387 0.65118 0.0
C1432 C 0.11433 0.78324 0.64153 0.0
C1433 C 0.2353 0.77712 0.63904 0.0
C1434 C 0.20162 0.78188 0.62805 0.0
C1435 C 0.10621 0.77822 0.61818 0.0
C1436 C 0.04652 0.77258 0.61968 0.0
C1437 C 0.14078 0.78252 0.62914 0.0
C1438 C 0.01972 0.77718 0.63175 0.0
C1439 C 0.0535 0.78295 0.64263 0.0
H1440 H 0.87577 0.51641 0.41177 0.0
H1441 H 0.71537 0.52251 0.39005 0.0
H1442 H 0.76993 0.53268 0.37034 0.0
H1443 H 0.86209 0.52629 0.35879 0.0
H1444 H 0.02223 0.51691 0.38038 0.0
H1445 H 0.9691 0.52256 0.40061 0.0
C1446 C 0.85281 0.52082 0.40279 0.0
C1447 C 0.7922 0.51732 0.40217 0.0
C1448 C 0.88441 0.52567 0.39143 0.0
C1449 C 0.76251 0.52397 0.39061 0.0
C1450 C 0.79357 0.52982 0.37934 0.0
C1451 C 0.88549 0.52642 0.36791 0.0
C1452 C 0.94516 0.51978 0.3682 0.0
C1453 C 0.85451 0.52855 0.3795 0.0
C1454 C 0.97559 0.52088 0.38 0.0
C1455 C 0.94534 0.52408 0.39158 0.0
H1456 H 0.75469 0.24006 0.37338 0.0
H1457 H 0.90245 0.25284 0.34802 0.0
H1458 H 0.96891 0.24491 0.36618 0.0
H1459 H 0.98255 0.24749 0.38953 0.0
H1460 H 0.8336 0.2418 0.41504 0.0
H1461 H 0.76974 0.23305 0.39651 0.0
C1462 C 0.80152 0.24049 0.37179 0.0
C1463 C 0.824 0.24823 0.35959 0.0
C1464 C 0.83894 0.2376 0.38232 0.0
C1465 C 0.88441 0.24756 0.35744 0.0
C1466 C 0.92229 0.24323 0.36782 0.0
C1467 C 0.93622 0.24377 0.39105 0.0
C1468 C 0.91213 0.24653 0.40349 0.0
C1469 C 0.89975 0.24036 0.38038 0.0
C1470 C 0.85269 0.24048 0.40547 0.0
C1471 C 0.81624 0.23563 0.39489 0.0
H1472 H 0.74301 0.99395 0.62706 0.0
H1473 H 0.59857 0.99542 0.60029 0.0
H1474 H 0.53028 0.98768 0.61814 0.0
H1475 H 0.51183 0.99313 0.64125 0.0
H1476 H 0.65613 0.99799 0.66798 0.0
H1477 H 0.72475 0.98982 0.65023 0.0
C1478 C 0.69662 0.992 0.62512 0.0
C1479 C 0.6753 0.99645 0.61254 0.0
C1480 C 0.65783 0.98904 0.63542 0.0
C1481 C 0.61563 0.99272 0.60999 0.0
C1482 C 0.57666 0.98846 0.62018 0.0
C1483 C 0.55828 0.99182 0.64322 0.0
C1484 C 0.57941 0.99734 0.65574 0.0
C1485 C 0.5972 0.98862 0.63295 0.0
C1486 C 0.63921 0.99445 0.65833 0.0
C1487 C 0.67835 0.98995 0.64819 0.0
H1488 H 0.62302 0.26744 0.66071 0.0
H1489 H 0.7816 0.2681 0.63816 0.0
H1490 H 0.72546 0.27449 0.61836 0.0
H1491 H 0.63204 0.26663 0.60749 0.0
H1492 H 0.47379 0.26187 0.63008 0.0
H1493 H 0.52885 0.27107 0.64981 0.0
C1494 C 0.64526 0.26995 0.6515 0.0
C1495 C 0.70576 0.26608 0.65074 0.0
C1496 C 0.61271 0.27232 0.64014 0.0
C1497 C 0.73454 0.27003 0.63885 0.0
C1498 C 0.70257 0.27363 0.62754 0.0
C1499 C 0.60953 0.26845 0.61669 0.0
C1500 C 0.54971 0.26234 0.61747 0.0
C1501 C 0.64161 0.27264 0.62802 0.0
C1502 C 0.52047 0.26548 0.62936 0.0
C1503 C 0.55181 0.27077 0.64064 0.0
H1504 H 0.38521 0.02695 0.3572 0.0
H1505 H 0.5299 0.02549 0.38388 0.0
H1506 H 0.46408 0.03639 0.40181 0.0
H1507 H 0.36475 0.03272 0.41016 0.0
H1508 H 0.21983 0.02823 0.38362 0.0
H1509 H 0.28619 0.0343 0.36535 0.0
C1510 C 0.40246 0.02989 0.36689 0.0
C1511 C 0.46155 0.02427 0.36937 0.0
C1512 C 0.36415 0.03473 0.37719 0.0
C1513 C 0.48393 0.02878 0.38187 0.0
C1514 C 0.44641 0.03501 0.39211 0.0
C1515 C 0.34759 0.03409 0.40041 0.0
C1516 C 0.2882 0.02891 0.39812 0.0
C1517 C 0.38614 0.03591 0.38997 0.0
C1518 C 0.26598 0.03129 0.38551 0.0
C1519 C 0.30382 0.03466 0.37507 0.0
H1520 H 0.36809 0.73426 0.35482 0.0
H1521 H 0.22074 0.72917 0.38071 0.0
H1522 H 0.28601 0.72183 0.39905 0.0
H1523 H 0.38282 0.73201 0.40787 0.0
H1524 H 0.52909 0.74358 0.38201 0.0
H1525 H 0.4669 0.73253 0.36351 0.0
C1526 C 0.35036 0.73041 0.36441 0.0
C1527 C 0.29041 0.73343 0.36661 0.0
C1528 C 0.3881 0.72807 0.37495 0.0
C1529 C 0.26732 0.72786 0.37897 0.0
C1530 C 0.30453 0.72378 0.38944 0.0
C1531 C 0.40132 0.7312 0.39822 0.0
C1532 C 0.45937 0.73986 0.39616 0.0
C1533 C 0.36486 0.72631 0.38762 0.0
C1534 C 0.48363 0.73803 0.3837 0.0
C1535 C 0.44821 0.73168 0.37313 0.0
H1536 H 0.75035 0.49086 0.13383 0.0
H1537 H 0.61475 0.47997 0.10525 0.0
H1538 H 0.54165 0.47613 0.12233 0.0
H1539 H 0.51526 0.48821 0.14465 0.0
H1540 H 0.6502 0.50341 0.17301 0.0
H1541 H 0.72497 0.49268 0.15677 0.0
C1542 C 0.70494 0.48693 0.13137 0.0
C1543 C 0.68738 0.48686 0.11837 0.0
C1544 C 0.66312 0.48602 0.14118 0.0
C1545 C 0.62897 0.48072 0.11523 0.0
C1546 C 0.58715 0.47873 0.12498 0.0
C1547 C 0.56106 0.48856 0.14732 0.0
C1548 C 0.57767 0.4976 0.15979 0.0
C1549 C 0.60347 0.48337 0.13789 0.0
C1550 C 0.63672 0.49701 0.16334 0.0
C1551 C 0.67938 0.49103 0.15407 0.0
H1552 H 0.71921 0.76681 0.14321 0.0
H1553 H 0.57622 0.75273 0.16976 0.0
H1554 H 0.50645 0.76336 0.15248 0.0
H1555 H 0.48784 0.76471 0.12926 0.0
H1556 H 0.63166 0.77295 0.10247 0.0
H1557 H 0.69972 0.77757 0.1205 0.0
C1558 C 0.67274 0.76657 0.14526 0.0
C1559 C 0.65243 0.75789 0.15752 0.0
C1560 C 0.63332 0.77147 0.13523 0.0
C1561 C 0.59252 0.75875 0.16027 0.0
C1562 C 0.55276 0.76471 0.15039 0.0
C1563 C 0.53398 0.76815 0.12737 0.0
C1564 C 0.5553 0.76727 0.11464 0.0
C1565 C 0.57283 0.76923 0.13772 0.0
C1566 C 0.61459 0.77288 0.11224 0.0
C1567 C 0.65348 0.77532 0.12253 0.0
H1568 H 0.36153 0.52872 0.90922 0.0
H1569 H 0.20878 0.5213 0.88507 0.0
H1570 H 0.26832 0.52842 0.86578 0.0
H1571 H 0.36464 0.52099 0.85617 0.0
H1572 H 0.51752 0.52297 0.88049 0.0
H1573 H 0.45744 0.53455 0.89927 0.0
C1574 C 0.34117 0.52977 0.89976 0.0
C1575 C 0.28185 0.52309 0.8984 0.0
C1576 C 0.37593 0.53224 0.88873 0.0
C1577 C 0.25518 0.52528 0.8862 0.0
C1578 C 0.2891 0.52928 0.87519 0.0
C1579 C 0.38483 0.52491 0.86551 0.0
C1580 C 0.44455 0.5197 0.86717 0.0
C1581 C 0.34988 0.53021 0.87633 0.0
C1582 C 0.47091 0.52569 0.87917 0.0
C1583 C 0.4367 0.53236 0.8899 0.0
H1584 H 0.36962 0.2401 0.85785 0.0
H1585 H 0.21458 0.24765 0.88138 0.0
H1586 H 0.27219 0.23995 0.90086 0.0
H1587 H 0.36793 0.24552 0.91098 0.0
H1588 H 0.52308 0.24253 0.88732 0.0
H1589 H 0.46424 0.23313 0.86815 0.0
C1590 C 0.34829 0.23919 0.86721 0.0
C1591 C 0.28884 0.2459 0.86831 0.0
C1592 C 0.38185 0.23602 0.87837 0.0
C1593 C 0.26104 0.24365 0.8804 0.0
C1594 C 0.29385 0.23927 0.89154 0.0
C1595 C 0.38882 0.24185 0.90169 0.0
C1596 C 0.44901 0.24606 0.90036 0.0
C1597 C 0.35468 0.23776 0.89066 0.0
C1598 C 0.47619 0.24049 0.8884 0.0
C1599 C 0.4427 0.23511 0.87745 0.0
H1600 H 0.09239 0.184 0.06834 0.0
H1601 H 0.97005 0.11017 0.0732 0.0
H1602 H 0.05055 0.0733 0.07291 0.0
H1603 H 0.15669 0.06315 0.07442 0.0
H1604 H 0.27849 0.13695 0.06857 0.0
H1605 H 0.19738 0.17271 0.06593 0.0
C1606 C 0.08329 0.15974 0.06895 0.0
C1607 C 0.02538 0.1498 0.07085 0.0
C1608 C 0.12981 0.13875 0.06878 0.0
C1609 C 0.01411 0.11835 0.07162 0.0
C1610 C 0.06025 0.09732 0.0716 0.0
C1611 C 0.16541 0.08696 0.07228 0.0
C1612 C 0.22363 0.09744 0.07185 0.0
C1613 C 0.11842 0.10738 0.07066 0.0
C1614 C 0.23424 0.12827 0.06894 0.0
C1615 C 0.1878 0.14878 0.06751 0.0
H1616 H 0.9964 0.136 0.19748 0.0
H1617 H 0.08298 0.05138 0.18838 0.0
H1618 H 0.1781 0.07592 0.19072 0.0
H1619 H 0.23667 0.12301 0.19239 0.0
H1620 H 0.14986 0.20869 0.19905 0.0
H1621 H 0.0558 0.1825 0.20087 0.0
C1622 C 0.03616 0.12285 0.19634 0.0
C1623 C 0.03258 0.0919 0.19278 0.0
C1624 C 0.09103 0.13748 0.19719 0.0
C1625 C 0.08454 0.07526 0.19109 0.0
C1626 C 0.13904 0.0893 0.1924 0.0
C1627 C 0.19736 0.13571 0.19467 0.0
C1628 C 0.20024 0.16764 0.1958 0.0
C1629 C 0.14292 0.12061 0.19505 0.0
C1630 C 0.14872 0.18402 0.19833 0.0
C1631 C 0.09485 0.16907 0.19925 0.0
H1632 H 0.8425 0.93627 0.95287 0.0
H1633 H 0.72122 0.86213 0.94775 0.0
H1634 H 0.80187 0.82541 0.94857 0.0
H1635 H 0.90808 0.81568 0.94707 0.0
H1636 H 0.02896 0.88981 0.95296 0.0
H1637 H 0.94738 0.92527 0.95575 0.0
C1638 C 0.83364 0.91197 0.9524 0.0
C1639 C 0.7761 0.90185 0.95022 0.0
C1640 C 0.88028 0.8911 0.95282 0.0
C1641 C 0.76501 0.87039 0.94957 0.0
C1642 C 0.81126 0.84945 0.94988 0.0
C1643 C 0.91647 0.83946 0.94931 0.0
C1644 C 0.9745 0.8502 0.94965 0.0
C1645 C 0.86926 0.85969 0.95095 0.0
C1646 C 0.98481 0.88097 0.95268 0.0
C1647 C 0.93812 0.9013 0.95417 0.0
H1648 H 0.746 0.89505 0.828 0.0
H1649 H 0.83128 0.8127 0.81548 0.0
H1650 H 0.92328 0.84044 0.81267 0.0
H1651 H 0.98261 0.88648 0.8169 0.0
H1652 H 0.89861 0.96722 0.83176 0.0
H1653 H 0.80352 0.94225 0.83039 0.0
C1654 C 0.78433 0.88355 0.82422 0.0
C1655 C 0.78187 0.8521 0.8217 0.0
C1656 C 0.83775 0.89937 0.82327 0.0
C1657 C 0.83216 0.83707 0.81725 0.0
C1658 C 0.88485 0.85287 0.81577 0.0
C1659 C 0.94326 0.89879 0.81951 0.0
C1660 C 0.94766 0.92863 0.82443 0.0
C1661 C 0.88873 0.8838 0.81919 0.0
C1662 C 0.89638 0.94417 0.82798 0.0
C1663 C 0.84195 0.92988 0.82723 0.0
H1664 H -0.00235 0.61512 0.58273 0.0
H1665 H 0.08095 0.69811 0.57027 0.0
H1666 H 0.17419 0.6712 0.56793 0.0
H1667 H 0.23461 0.62515 0.57179 0.0
H1668 H 0.15216 0.54365 0.58638 0.0
H1669 H 0.05682 0.56843 0.58542 0.0
C1670 C 0.03595 0.627 0.57916 0.0
C1671 C 0.03228 0.65839 0.57642 0.0
C1672 C 0.09004 0.61161 0.57838 0.0
C1673 C 0.0826 0.67383 0.57222 0.0
C1674 C 0.13602 0.65847 0.57098 0.0
C1675 C 0.19558 0.61265 0.57448 0.0
C1676 C 0.20068 0.5825 0.5791 0.0
C1677 C 0.14072 0.6275 0.57435 0.0
C1678 C 0.14963 0.56685 0.58279 0.0
C1679 C 0.09497 0.58105 0.58227 0.0
H1680 H 0.15464 0.69274 0.69157 0.0
H1681 H 0.27478 0.61889 0.69858 0.0
H1682 H 0.19329 0.58295 0.70006 0.0
H1683 H 0.08838 0.57168 0.69698 0.0
H1684 H 0.96721 0.64582 0.69186 0.0
H1685 H 0.04807 0.68251 0.6922 0.0
C1686 C 0.16279 0.66887 0.69368 0.0
C1687 C 0.22081 0.65847 0.69486 0.0
C1688 C 0.11546 0.64837 0.69479 0.0
C1689 C 0.23066 0.62752 0.69769 0.0
C1690 C 0.18403 0.60691 0.69845 0.0
C1691 C 0.07967 0.59595 0.69628 0.0
C1692 C 0.02193 0.60605 0.69438 0.0
C1693 C 0.12635 0.61693 0.6967 0.0
C1694 C 0.01116 0.63753 0.69346 0.0
C1695 C 0.05749 0.65848 0.69353 0.0
H1696 H 0.88382 0.32016 0.44606 0.0
H1697 H 0.00235 0.39606 0.44971 0.0
H1698 H 0.91967 0.43132 0.4512 0.0
H1699 H 0.81409 0.44095 0.44825 0.0
H1700 H 0.69521 0.36494 0.44592 0.0
H1701 H 0.7773 0.32924 0.44735 0.0
C1702 C 0.89142 0.34435 0.44754 0.0
C1703 C 0.94913 0.35555 0.44768 0.0
C1704 C 0.84357 0.36444 0.44851 0.0
C1705 C 0.95844 0.38688 0.44965 0.0
C1706 C 0.91112 0.40707 0.45038 0.0
C1707 C 0.80613 0.41654 0.44844 0.0
C1708 C 0.74872 0.40555 0.44692 0.0
C1709 C 0.85357 0.3962 0.44937 0.0
C1710 C 0.73889 0.37393 0.44719 0.0
C1711 C 0.78592 0.35353 0.44787 0.0
H1712 H 0.82479 0.32732 0.31617 0.0
H1713 H 0.7057 0.40162 0.32302 0.0
H1714 H 0.78737 0.43782 0.32292 0.0
H1715 H 0.89415 0.44691 0.32403 0.0
H1716 H 0.01239 0.37278 0.31593 0.0
H1717 H 0.9298 0.33802 0.31319 0.0
C1718 C 0.81661 0.35159 0.3172 0.0
C1719 C 0.75931 0.36182 0.31958 0.0
C1720 C 0.86382 0.3722 0.31711 0.0
C1721 C 0.74925 0.39326 0.32099 0.0
C1722 C 0.7961 0.41389 0.3211 0.0
C1723 C 0.9017 0.42329 0.32138 0.0
C1724 C 0.95945 0.41237 0.32033 0.0
C1725 C 0.85379 0.40346 0.31964 0.0
C1726 C 0.96853 0.38179 0.31677 0.0
C1727 C 0.92125 0.36184 0.31529 0.0
H1728 H 0.59081 0.19071 0.57168 0.0
H1729 H 0.47181 0.11494 0.56833 0.0
H1730 H 0.55417 0.07962 0.56644 0.0
H1731 H 0.65999 0.06984 0.56882 0.0
H1732 H 0.77932 0.14572 0.57057 0.0
H1733 H 0.69724 0.18152 0.56975 0.0
C1734 C 0.58304 0.16654 0.57019 0.0
C1735 C 0.52533 0.15539 0.57024 0.0
C1736 C 0.63072 0.14641 0.56891 0.0
C1737 C 0.51576 0.12408 0.56825 0.0
C1738 C 0.56289 0.10385 0.56727 0.0
C1739 C 0.66798 0.09424 0.56861 0.0
C1740 C 0.72557 0.10517 0.56978 0.0
C1741 C 0.62054 0.11466 0.56801 0.0
C1742 C 0.73547 0.13679 0.56954 0.0
C1743 C 0.68846 0.15725 0.56921 0.0
H1744 H 0.59243 0.07243 0.69894 0.0
H1745 H 0.47348 0.14818 0.69592 0.0
H1746 H 0.55566 0.18401 0.69651 0.0
H1747 H 0.66231 0.19308 0.6949 0.0
H1748 H 0.78072 0.11745 0.69955 0.0
H1749 H 0.69811 0.08232 0.70151 0.0
C1750 C 0.58452 0.09683 0.69882 0.0
C1751 C 0.52702 0.10769 0.69739 0.0
C1752 C 0.63201 0.11727 0.6993 0.0
C1753 C 0.51725 0.13932 0.69718 0.0
C1754 C 0.56433 0.15978 0.69737 0.0
C1755 C 0.6699 0.169 0.69666 0.0
C1756 C 0.7276 0.15783 0.69697 0.0
C1757 C 0.62203 0.14896 0.69799 0.0
C1758 C 0.73683 0.12663 0.69933 0.0
C1759 C 0.68955 0.10649 0.70035 0.0
H1760 H 0.49446 0.89105 0.44122 0.0
H1761 H 0.40725 0.80401 0.44078 0.0
H1762 H 0.31234 0.82935 0.44274 0.0
H1763 H 0.2533 0.8766 0.44223 0.0
H1764 H 0.34038 0.96353 0.4398 0.0
H1765 H 0.43546 0.93835 0.44146 0.0
C1766 C 0.45465 0.87773 0.44187 0.0
C1767 C 0.45776 0.84572 0.44107 0.0
C1768 C 0.39996 0.89258 0.44238 0.0
C1769 C 0.40584 0.82867 0.44153 0.0
C1770 C 0.35157 0.84317 0.44258 0.0
C1771 C 0.29314 0.88998 0.44239 0.0
C1772 C 0.28986 0.92191 0.44109 0.0
C1773 C 0.34789 0.87516 0.44271 0.0
C1774 C 0.34184 0.93895 0.44092 0.0
C1775 C 0.39624 0.92453 0.4418 0.0
H1776 H 0.44035 0.91894 0.31347 0.0
H1777 H 0.50291 0.88609 0.35022 0.0
H1778 H 0.41997 0.85154 0.35193 0.0
H1779 H 0.32714 0.83282 0.34389 0.0
H1780 H 0.25824 0.86661 0.30783 0.0
H1781 H 0.34568 0.89832 0.30492 0.0
C1782 C 0.43599 0.90385 0.32172 0.0
C1783 C 0.47792 0.90495 0.33169 0.0
C1784 C 0.38672 0.88437 0.32283 0.0
C1785 C 0.47131 0.88563 0.34243 0.0
C1786 C 0.42379 0.86589 0.34344 0.0
C1787 C 0.33107 0.84689 0.33531 0.0
C1788 C 0.28566 0.84723 0.32612 0.0
C1789 C 0.38076 0.86541 0.33383 0.0
C1790 C 0.29221 0.8658 0.3151 0.0
C1791 C 0.3423 0.88402 0.31344 0.0
H1792 H 0.73369 0.63137 0.0691 0.0
H1793 H 0.6467 0.54783 0.07976 0.0
H1794 H 0.55168 0.57228 0.07703 0.0
H1795 H 0.49371 0.61923 0.07458 0.0
H1796 H 0.58099 0.70424 0.06674 0.0
H1797 H 0.67487 0.67771 0.06514 0.0
C1798 C 0.69382 0.61842 0.07051 0.0
C1799 C 0.6971 0.58786 0.0746 0.0
C1800 C 0.63921 0.63306 0.06948 0.0
C1801 C 0.64519 0.57142 0.07663 0.0
C1802 C 0.59083 0.58541 0.07509 0.0
C1803 C 0.53312 0.63166 0.07209 0.0
C1804 C 0.5306 0.66345 0.07052 0.0
C1805 C 0.58728 0.61646 0.07192 0.0
C1806 C 0.58205 0.67963 0.06776 0.0
C1807 C 0.63572 0.6645 0.06697 0.0
H1808 H 0.58287 0.57009 0.19961 0.0
H1809 H 0.4651 0.64666 0.20138 0.0
H1810 H 0.54798 0.68161 0.20354 0.0
H1811 H 0.65397 0.69056 0.20119 0.0
H1812 H 0.77186 0.61403 0.2004 0.0
H1813 H 0.68908 0.57871 0.20185 0.0
C1814 C 0.57543 0.59437 0.20086 0.0
C1815 C 0.51811 0.60589 0.20022 0.0
C1816 C 0.62331 0.61426 0.20216 0.0
C1817 C 0.5088 0.63729 0.20191 0.0
C1818 C 0.55623 0.65728 0.20302 0.0
C1819 C 0.66147 0.66615 0.2018 0.0
C1820 C 0.71872 0.6548 0.20066 0.0
C1821 C 0.61367 0.64609 0.20264 0.0
C1822 C 0.72819 0.62322 0.2014 0.0
C1823 C 0.68081 0.60306 0.20208 0.0
H1824 H 0.34074 0.44467 0.9392 0.0
H1825 H 0.22579 0.3687 0.94651 0.0
H1826 H 0.30978 0.33444 0.94827 0.0
H1827 H 0.41561 0.32523 0.94545 0.0
H1828 H 0.53148 0.4016 0.94009 0.0
H1829 H 0.44797 0.43663 0.94003 0.0
C1830 C 0.33428 0.42071 0.94142 0.0
C1831 C 0.27705 0.40917 0.94261 0.0
C1832 C 0.38301 0.40123 0.94272 0.0
C1833 C 0.2693 0.37815 0.94559 0.0
C1834 C 0.31735 0.35851 0.94652 0.0
C1835 C 0.42254 0.34964 0.94462 0.0
C1836 C 0.47955 0.36087 0.9428 0.0
C1837 C 0.37433 0.36965 0.94481 0.0
C1838 C 0.48808 0.3925 0.94167 0.0
C1839 C 0.44025 0.41248 0.94151 0.0
H1840 H 0.41454 0.43949 0.82332 0.0
H1841 H 0.52936 0.36212 0.82686 0.0
H1842 H 0.44549 0.32742 0.82569 0.0
H1843 H 0.3383 0.31963 0.82617 0.0
H1844 H 0.22415 0.39677 0.82088 0.0
H1845 H 0.30866 0.431 0.82001 0.0
C1846 C 0.42119 0.41498 0.82351 0.0
C1847 C 0.47802 0.40334 0.82521 0.0
C1848 C 0.37277 0.39519 0.82262 0.0
C1849 C 0.48616 0.37159 0.82544 0.0
C1850 C 0.43811 0.35177 0.82488 0.0
C1851 C 0.3321 0.34387 0.82453 0.0
C1852 C 0.27497 0.35569 0.82367 0.0
C1853 C 0.38107 0.36336 0.82383 0.0
C1854 C 0.26756 0.38709 0.82149 0.0
C1855 C 0.31592 0.4067 0.8211 0.0
H1856 H 0.30648 0.92946 0.06863 0.0
H1857 H 0.49313 0.92916 0.07386 0.0
H1858 H 0.49493 0.87384 0.07089 0.0
H1859 H 0.44167 0.82528 0.07066 0.0
H1860 H 0.2535 0.82566 0.07098 0.0
H1861 H 0.25342 0.88091 0.06775 0.0
C1862 C 0.34768 0.91725 0.06884 0.0
C1863 C 0.39973 0.93339 0.07123 0.0
C1864 C 0.34764 0.88531 0.06829 0.0
C1865 C 0.45281 0.9175 0.07158 0.0
C1866 C 0.45361 0.88575 0.07015 0.0
C1867 C 0.40066 0.83749 0.06981 0.0
C1868 C 0.34765 0.8214 0.07086 0.0
C1869 C 0.40107 0.86941 0.06904 0.0
C1870 C 0.29479 0.8373 0.06977 0.0
C1871 C 0.29482 0.86899 0.06816 0.0
H1872 H 0.79702 0.42676 0.07885 0.0
H1873 H 0.9777 0.43793 0.06823 0.0
H1874 H 0.98481 0.38327 0.0634 0.0
H1875 H 0.94286 0.33176 0.06493 0.0
H1876 H 0.76621 0.32017 0.07838 0.0
H1877 H 0.75337 0.37558 0.07913 0.0
C1878 C 0.83787 0.41715 0.07545 0.0
C1879 C 0.88701 0.43604 0.07401 0.0
C1880 C 0.84195 0.38573 0.07313 0.0
C1881 C 0.9394 0.42366 0.06936 0.0
C1882 C 0.94345 0.39249 0.06666 0.0
C1883 C 0.90111 0.34153 0.06766 0.0
C1884 C 0.85516 0.32215 0.07136 0.0
C1885 C 0.89543 0.37324 0.06884 0.0
C1886 C 0.80151 0.33472 0.07512 0.0
C1887 C 0.79459 0.36636 0.07578 0.0
H1888 H 0.29692 0.33247 0.19637 0.0
H1889 H 0.48476 0.32851 0.19439 0.0
H1890 H 0.49014 0.3837 0.19751 0.0
H1891 H 0.44103 0.43353 0.19744 0.0
H1892 H 0.25396 0.43726 0.19315 0.0
H1893 H 0.24803 0.38208 0.19595 0.0
C1894 C 0.33909 0.34371 0.19681 0.0
C1895 C 0.39039 0.32634 0.19545 0.0
C1896 C 0.34158 0.3756 0.19736 0.0
C1897 C 0.44473 0.34105 0.19596 0.0
C1898 C 0.44772 0.37275 0.19746 0.0
C1899 C 0.3989 0.42223 0.19729 0.0
C1900 C 0.34784 0.43959 0.19549 0.0
C1901 C 0.39638 0.39028 0.19771 0.0
C1902 C 0.2936 0.42476 0.19517 0.0
C1903 C 0.29036 0.39306 0.19649 0.0
H1904 H 0.77075 0.92723 0.19723 0.0
H1905 H 0.95609 0.94313 0.19561 0.0
H1906 H 0.97497 0.88853 0.1978 0.0
H1907 H 0.93783 0.83595 0.1962 0.0
H1908 H 0.75262 0.81983 0.19837 0.0
H1909 H 0.73436 0.87461 0.20008 0.0
C1910 C 0.81511 0.91871 0.19786 0.0
C1911 C 0.86196 0.93883 0.19617 0.0
C1912 C 0.82561 0.8872 0.19898 0.0
C1913 C 0.91943 0.92776 0.19685 0.0
C1914 C 0.93025 0.89658 0.19802 0.0
C1915 C 0.89378 0.84443 0.19756 0.0
C1916 C 0.84661 0.82414 0.19703 0.0
C1917 C 0.88362 0.87597 0.19851 0.0
C1918 C 0.78952 0.8353 0.1986 0.0
C1919 C 0.77903 0.86656 0.19955 0.0
H1920 H 0.70591 0.17995 0.95029 0.0
H1921 H 0.52147 0.19163 0.94379 0.0
H1922 H 0.50653 0.13663 0.9452 0.0
H1923 H 0.54911 0.0851 0.94469 0.0
H1924 H 0.73111 0.07336 0.95391 0.0
H1925 H 0.74374 0.12858 0.95532 0.0
C1926 C 0.66215 0.17063 0.94979 0.0
C1927 C 0.61501 0.18976 0.94678 0.0
C1928 C 0.65353 0.13893 0.95094 0.0
C1929 C 0.55864 0.17718 0.94588 0.0
C1930 C 0.54999 0.14575 0.94669 0.0
C1931 C 0.59071 0.09447 0.94769 0.0
C1932 C 0.6391 0.0752 0.94916 0.0
C1933 C 0.5975 0.12628 0.94872 0.0
C1934 C 0.69328 0.08789 0.95264 0.0
C1935 C 0.70064 0.11945 0.95339 0.0
H1936 H 0.06423 0.68039 0.95006 0.0
H1937 H 0.24455 0.68404 0.9383 0.0
H1938 H 0.25028 0.62825 0.93911 0.0
H1939 H 0.20003 0.57872 0.94025 0.0
H1940 H 0.01678 0.5752 0.94956 0.0
H1941 H 0.01578 0.63066 0.95276 0.0
C1942 C 0.10512 0.66886 0.948 0.0
C1943 C 0.15419 0.68612 0.94432 0.0
C1944 C 0.10706 0.63688 0.94786 0.0
C1945 C 0.20679 0.67121 0.9415 0.0
C1946 C 0.20971 0.63933 0.94176 0.0
C1947 C 0.16007 0.59016 0.94311 0.0
C1948 C 0.10845 0.57313 0.94463 0.0
C1949 C 0.15958 0.62199 0.94449 0.0
C1950 C 0.05703 0.58792 0.94846 0.0
C1951 C 0.05645 0.61958 0.95019 0.0
H1952 H 0.54782 0.67597 0.82138 0.0
H1953 H 0.73386 0.69025 0.82154 0.0
H1954 H 0.7505 0.63548 0.81932 0.0
H1955 H 0.71164 0.58314 0.82116 0.0
H1956 H 0.52572 0.56897 0.81981 0.0
H1957 H 0.50938 0.62391 0.81829 0.0
C1958 C 0.59183 0.66718 0.82038 0.0
C1959 C 0.63952 0.68695 0.82176 0.0
C1960 C 0.60112 0.63559 0.81902 0.0
C1961 C 0.69647 0.67525 0.82066 0.0
C1962 C 0.70606 0.64395 0.81941 0.0
C1963 C 0.66784 0.59206 0.81995 0.0
C1964 C 0.61996 0.57222 0.82065 0.0
C1965 C 0.65872 0.62376 0.81913 0.0
C1966 C 0.56321 0.58402 0.81932 0.0
C1967 C 0.55379 0.61542 0.81855 0.0
H1968 H 0.02471 0.17926 0.82331 0.0
H1969 H 0.20269 0.19975 0.81317 0.0
H1970 H 0.22465 0.1454 0.81114 0.0
H1971 H 0.19745 0.09227 0.81646 0.0
H1972 H 0.01902 0.07185 0.82634 0.0
H1973 H 0.99258 0.12555 0.82409 0.0
C1974 C 0.06742 0.17173 0.8201 0.0
C1975 C 0.11204 0.1932 0.81839 0.0
C1976 C 0.07999 0.14038 0.8192 0.0
C1977 C 0.16767 0.18338 0.81445 0.0
C1978 C 0.18042 0.15233 0.81343 0.0
C1979 C 0.15256 0.09957 0.81769 0.0
C1980 C 0.11048 0.0785 0.82181 0.0
C1981 C 0.13766 0.13059 0.81641 0.0
C1982 C 0.05229 0.08799 0.82337 0.0
C1983 C 0.03713 0.11866 0.82211 0.0
H1984 H 0.44505 0.32452 0.56991 0.0
H1985 H 0.25862 0.32392 0.57545 0.0
H1986 H 0.2566 0.37966 0.57398 0.0
H1987 H 0.30971 0.42832 0.57452 0.0
H1988 H 0.49747 0.4289 0.5722 0.0
H1989 H 0.49762 0.37351 0.56882 0.0
C1990 C 0.40388 0.33668 0.57049 0.0
C1991 C 0.35191 0.32024 0.5726 0.0
C1992 C 0.40366 0.36871 0.57035 0.0
C1993 C 0.29885 0.33602 0.57347 0.0
C1994 C 0.2979 0.3679 0.57283 0.0
C1995 C 0.35054 0.4163 0.57298 0.0
C1996 C 0.40351 0.43255 0.57347 0.0
C1997 C 0.35025 0.38444 0.57173 0.0
C1998 C 0.45621 0.41695 0.57157 0.0
C1999 C 0.45623 0.38525 0.56982 0.0
H2000 H 0.95399 0.8299 0.57817 0.0
H2001 H 0.76931 0.82258 0.57095 0.0
H2002 H 0.76347 0.87792 0.56767 0.0
H2003 H 0.80895 0.92867 0.56945 0.0
H2004 H 0.9911 0.93608 0.57929 0.0
H2005 H 0.00052 0.88045 0.57879 0.0
C2006 C 0.91261 0.84048 0.57575 0.0
C2007 C 0.86211 0.82235 0.57478 0.0
C2008 C 0.90938 0.87228 0.57436 0.0
C2009 C 0.8088 0.8361 0.57157 0.0
C2010 C 0.80544 0.86771 0.56981 0.0
C2011 C 0.85094 0.91799 0.5712 0.0
C2012 C 0.89957 0.93632 0.57415 0.0
C2013 C 0.85516 0.88606 0.57152 0.0
C2014 C 0.9536 0.92247 0.5766 0.0
C2015 C 0.95869 0.89066 0.57651 0.0
H2016 H 0.45058 0.9309 0.69855 0.0
H2017 H 0.26584 0.93623 0.69106 0.0
H2018 H 0.25776 0.88076 0.69299 0.0
H2019 H 0.30526 0.83064 0.69407 0.0
H2020 H 0.49214 0.82496 0.69805 0.0
H2021 H 0.49775 0.88054 0.70041 0.0
C2022 C 0.40842 0.91984 0.69759 0.0
C2023 C 0.35861 0.93761 0.69497 0.0
C2024 C 0.40482 0.88787 0.69798 0.0
C2025 C 0.30435 0.92318 0.69355 0.0
C2026 C 0.29995 0.89142 0.69444 0.0
C2027 C 0.3471 0.84162 0.69565 0.0
C2028 C 0.39817 0.82381 0.69604 0.0
C2029 C 0.35014 0.87355 0.69629 0.0
C2030 C 0.45216 0.83813 0.69804 0.0
C2031 C 0.45537 0.86992 0.69921 0.0
H2032 H 0.95895 0.42809 0.69754 0.0
H2033 H 0.7709 0.43076 0.69774 0.0
H2034 H 0.76756 0.37516 0.69982 0.0
H2035 H 0.81786 0.32576 0.69825 0.0
H2036 H 0.0047 0.32352 0.69341 0.0
H2037 H 0.00935 0.37872 0.69662 0.0
C2038 C 0.91727 0.41645 0.69829 0.0
C2039 C 0.86525 0.4335 0.69773 0.0
C2040 C 0.91578 0.38446 0.69852 0.0
C2041 C 0.8115 0.4183 0.69859 0.0
C2042 C 0.80965 0.38645 0.69955 0.0
C2043 C 0.85968 0.33738 0.69814 0.0
C2044 C 0.91101 0.32052 0.69588 0.0
C2045 C 0.86145 0.36931 0.69907 0.0
C2046 C 0.96488 0.33572 0.69562 0.0
C2047 C 0.96737 0.3674 0.69722 0.0
H2048 H 0.67456 0.67447 0.45206 0.0
H2049 H 0.5088 0.69208 0.43389 0.0
H2050 H 0.48206 0.63839 0.43584 0.0
H2051 H 0.51288 0.58521 0.43951 0.0
H2052 H 0.67713 0.56754 0.4582 0.0
H2053 H 0.69658 0.62229 0.45975 0.0
C2054 C 0.63207 0.66659 0.44886 0.0
C2055 C 0.59447 0.68685 0.44248 0.0
C2056 C 0.61662 0.63563 0.45015 0.0
C2057 C 0.53928 0.67654 0.43845 0.0
C2058 C 0.52374 0.64591 0.43963 0.0
C2059 C 0.55152 0.59351 0.44444 0.0
C2060 C 0.59343 0.57265 0.44878 0.0
C2061 C 0.56297 0.62501 0.44502 0.0
C2062 C 0.64407 0.58344 0.45493 0.0
C2063 C 0.65557 0.61469 0.45565 0.0
H2064 H 0.03834 0.18252 0.44831 0.0
H2065 H 0.2225 0.18978 0.44036 0.0
H2066 H 0.23208 0.13425 0.44153 0.0
H2067 H 0.18559 0.08377 0.44181 0.0
H2068 H -0.00081 0.07649 0.44646 0.0
H2069 H 0.99253 0.13179 0.44974 0.0
C2070 C 0.08074 0.17184 0.44712 0.0
C2071 C 0.1299 0.19011 0.44451 0.0
C2072 C 0.08512 0.13992 0.44707 0.0
C2073 C 0.1845 0.17625 0.4428 0.0
C2074 C 0.18973 0.14448 0.44326 0.0
C2075 C 0.14366 0.09434 0.44374 0.0
C2076 C 0.09296 0.07624 0.444 0.0
C2077 C 0.14002 0.12613 0.44497 0.0
C2078 C 0.03884 0.08995 0.44648 0.0
C2079 C 0.03504 0.12157 0.4482 0.0
H2080 H 0.54534 0.08231 0.32723 0.0
H2081 H 0.72796 0.07758 0.3174 0.0
H2082 H 0.7293 0.13263 0.31333 0.0
H2083 H 0.68174 0.18268 0.31541 0.0
H2084 H 0.50424 0.18785 0.32904 0.0
H2085 H 0.49684 0.1322 0.32856 0.0
C2086 C 0.58523 0.09337 0.32405 0.0
C2087 C 0.63632 0.07597 0.32245 0.0
C2088 C 0.58629 0.12513 0.32241 0.0
C2089 C 0.68779 0.09039 0.31836 0.0
C2090 C 0.68866 0.1219 0.31619 0.0
C2091 C 0.64103 0.17151 0.31795 0.0
C2092 C 0.59312 0.18927 0.32193 0.0
C2093 C 0.63858 0.13956 0.31852 0.0
C2094 C 0.5409 0.17476 0.32546 0.0
C2095 C 0.53711 0.14291 0.32543 0.0
H2096 H 0.05927 0.57873 0.31726 0.0
H2097 H 0.24198 0.57475 0.3269 0.0
H2098 H 0.24854 0.63044 0.32549 0.0
H2099 H 0.19878 0.68013 0.32475 0.0
H2100 H 0.01359 0.6841 0.31776 0.0
H2101 H 0.01111 0.6286 0.31471 0.0
C2102 C 0.1008 0.59014 0.3187 0.0
C2103 C 0.15029 0.57281 0.32201 0.0
C2104 C 0.10334 0.62213 0.31852 0.0
C2105 C 0.20377 0.58759 0.32403 0.0
C2106 C 0.20721 0.61944 0.32342 0.0
C2107 C 0.1581 0.66879 0.32235 0.0
C2108 C 0.1064 0.68599 0.32145 0.0
C2109 C 0.15682 0.63691 0.32114 0.0
C2110 C 0.05394 0.6713 0.31831 0.0
C2111 C 0.05253 0.63959 0.3167 0.0
H2112 H 0.43712 0.13598 0.10806 0.0
H2113 H 0.43215 0.04916 0.12755 0.0
H2114 H 0.43838 0.0745 0.14851 0.0
H2115 H 0.4267 0.12174 0.16144 0.0
H2116 H 0.42736 0.20851 0.14187 0.0
H2117 H 0.4424 0.18322 0.12113 0.0
C2118 C 0.43985 0.12262 0.11687 0.0
C2119 C 0.43432 0.09067 0.11618 0.0
C2120 C 0.44156 0.1375 0.12903 0.0
C2121 C 0.43655 0.07378 0.12777 0.0
C2122 C 0.4396 0.0883 0.13981 0.0
C2123 C 0.43244 0.1351 0.15271 0.0
C2124 C 0.42587 0.16702 0.15326 0.0
C2125 C 0.43945 0.12023 0.14062 0.0
C2126 C 0.43225 0.18391 0.14175 0.0
C2127 C 0.44046 0.16942 0.12982 0.0
H2128 H 0.78699 0.13136 0.10895 0.0
H2129 H 0.85045 0.21402 0.12665 0.0
H2130 H 0.83624 0.19226 0.14805 0.0
H2131 H 0.82425 0.14639 0.16162 0.0
H2132 H 0.76364 0.06314 0.14415 0.0
H2133 H 0.75652 0.08838 0.12315 0.0
C2134 C 0.79576 0.14493 0.11749 0.0
C2135 C 0.8206 0.17418 0.11609 0.0
C2136 C 0.78841 0.13197 0.12997 0.0
C2137 C 0.83205 0.19129 0.12736 0.0
C2138 C 0.82405 0.17884 0.13968 0.0
C2139 C 0.80658 0.13426 0.15336 0.0
C2140 C 0.79379 0.10299 0.15454 0.0
C2141 C 0.80476 0.14871 0.14112 0.0
C2142 C 0.77283 0.08736 0.14358 0.0
C2143 C 0.76966 0.1017 0.13148 0.0
H2144 H 0.57942 0.89162 0.85797 0.0
H2145 H 0.55323 0.80522 0.8769 0.0
H2146 H 0.54355 0.8308 0.89778 0.0
H2147 H 0.56106 0.87689 0.9112 0.0
H2148 H 0.5932 0.96276 0.89221 0.0
H2149 H 0.58105 0.93875 0.87111 0.0
C2150 C 0.5689 0.87859 0.86658 0.0
C2151 C 0.56618 0.84654 0.8658 0.0
C2152 C 0.56571 0.89347 0.87873 0.0
C2153 C 0.55459 0.82994 0.87718 0.0
C2154 C 0.54977 0.84457 0.88919 0.0
C2155 C 0.56315 0.89051 0.90246 0.0
C2156 C 0.57794 0.92167 0.90335 0.0
C2157 C 0.55788 0.87622 0.8902 0.0
C2158 C 0.58177 0.93878 0.89184 0.0
C2159 C 0.57519 0.92499 0.87972 0.0
H2160 H 0.19659 0.93972 0.87622 0.0
H2161 H 0.15917 0.86797 0.84898 0.0
H2162 H 0.16358 0.83019 0.86643 0.0
H2163 H 0.16137 0.81915 0.88992 0.0
H2164 H 0.20077 0.89087 0.91708 0.0
H2165 H 0.21309 0.92698 0.89921 0.0
C2166 C 0.19143 0.91566 0.87404 0.0
C2167 C 0.17739 0.9067 0.86129 0.0
C2168 C 0.19335 0.89415 0.88417 0.0
C2169 C 0.17068 0.87547 0.85863 0.0
C2170 C 0.17239 0.85391 0.86867 0.0
C2171 C 0.17411 0.84253 0.89191 0.0
C2172 C 0.17947 0.85237 0.90487 0.0
C2173 C 0.18115 0.86318 0.88155 0.0
C2174 C 0.19649 0.88264 0.90726 0.0
C2175 C 0.20309 0.90337 0.89702 0.0
H2176 H 0.45115 0.56872 0.62809 0.0
H2177 H 0.43506 0.64224 0.60062 0.0
H2178 H 0.44502 0.67947 0.61816 0.0
H2179 H 0.43985 0.69052 0.64157 0.0
H2180 H 0.45494 0.61698 0.66905 0.0
H2181 H 0.4651 0.5804 0.65127 0.0
C2182 C 0.45164 0.59292 0.62588 0.0
C2183 C 0.44181 0.60266 0.61302 0.0
C2184 C 0.45647 0.61417 0.63607 0.0
C2185 C 0.44287 0.63407 0.61035 0.0
C2186 C 0.44789 0.65537 0.62043 0.0
C2187 C 0.44723 0.66658 0.64368 0.0
C2188 C 0.44614 0.65649 0.65667 0.0
C2189 C 0.45204 0.64564 0.63337 0.0
C2190 C 0.45598 0.62544 0.65921 0.0
C2191 C 0.46107 0.60446 0.64901 0.0
H2192 H 0.80555 0.61703 0.60802 0.0
H2193 H 0.78724 0.70369 0.6272 0.0
H2194 H 0.77462 0.67813 0.64797 0.0
H2195 H 0.79064 0.63174 0.66122 0.0
H2196 H 0.8114 0.54522 0.64201 0.0
H2197 H 0.79986 0.56967 0.621 0.0
C2198 C 0.79593 0.63019 0.61665 0.0
C2199 C 0.7973 0.66226 0.61601 0.0
C2200 C 0.79045 0.61526 0.62874 0.0
C2201 C 0.78611 0.67897 0.62739 0.0
C2202 C 0.77955 0.66435 0.63934 0.0
C2203 C 0.78999 0.61811 0.65247 0.0
C2204 C 0.80223 0.58668 0.65324 0.0
C2205 C 0.78479 0.63255 0.64026 0.0
C2206 C 0.80222 0.56947 0.64172 0.0
C2207 C 0.7961 0.5835 0.62965 0.0
H2208 H 0.5409 0.38868 0.3572 0.0
H2209 H 0.56546 0.30129 0.37548 0.0
H2210 H 0.55065 0.32418 0.39673 0.0
H2211 H 0.54815 0.37046 0.41037 0.0
H2212 H 0.53057 0.45835 0.39221 0.0
H2213 H 0.52383 0.43421 0.37097 0.0
C2214 C 0.54084 0.37454 0.36581 0.0
C2215 C 0.55412 0.34325 0.3647 0.0
C2216 C 0.53417 0.38815 0.37816 0.0
C2217 C 0.5552 0.3254 0.37603 0.0
C2218 C 0.54708 0.33853 0.38823 0.0
C2219 C 0.54026 0.38416 0.40182 0.0
C2220 C 0.53897 0.41616 0.40293 0.0
C2221 C 0.53889 0.3701 0.38949 0.0
C2222 C 0.53079 0.43365 0.39166 0.0
C2223 C 0.52762 0.41984 0.37945 0.0
H2224 H 0.16227 0.31985 0.39155 0.0
H2225 H 0.17318 0.39638 0.4176 0.0
H2226 H 0.18715 0.43094 0.39923 0.0
H2227 H 0.17935 0.43999 0.37567 0.0
H2228 H 0.17184 0.36338 0.34961 0.0
H2229 H 0.17475 0.32817 0.36802 0.0
C2230 C 0.16948 0.344 0.39322 0.0
C2231 C 0.16623 0.35557 0.40594 0.0
C2232 C 0.17755 0.36372 0.38258 0.0
C2233 C 0.17584 0.38686 0.40796 0.0
C2234 C 0.18325 0.40667 0.39742 0.0
C2235 C 0.1804 0.41555 0.37401 0.0
C2236 C 0.17518 0.40431 0.36127 0.0
C2237 C 0.18183 0.39548 0.38467 0.0
C2238 C 0.17645 0.37262 0.35927 0.0
C2239 C 0.17737 0.35249 0.36983 0.0
H2240 H 0.93207 0.06666 0.62648 0.0
H2241 H 0.94506 0.14256 0.60013 0.0
H2242 H 0.95781 0.17756 0.61839 0.0
H2243 H 0.94837 0.18718 0.64188 0.0
H2244 H 0.93924 0.11117 0.66824 0.0
H2245 H 0.94318 0.07553 0.65001 0.0
C2246 C 0.93952 0.09076 0.62473 0.0
C2247 C 0.93723 0.10203 0.61195 0.0
C2248 C 0.94696 0.11073 0.6353 0.0
C2249 C 0.94706 0.13327 0.60983 0.0
C2250 C 0.95376 0.15333 0.62029 0.0
C2251 C 0.94933 0.16277 0.64364 0.0
C2252 C 0.94334 0.15183 0.65642 0.0
C2253 C 0.95144 0.14244 0.63308 0.0
C2254 C 0.94445 0.12019 0.65856 0.0
C2255 C 0.94596 0.09981 0.64809 0.0
H2256 H 0.30087 0.186 0.62512 0.0
H2257 H 0.31531 0.10988 0.59896 0.0
H2258 H 0.31172 0.07438 0.61726 0.0
H2259 H 0.32234 0.06595 0.64084 0.0
H2260 H 0.30442 0.14198 0.66696 0.0
H2261 H 0.29045 0.17652 0.6486 0.0
C2262 C 0.30096 0.16157 0.62341 0.0
C2263 C 0.30839 0.15058 0.61068 0.0
C2264 C 0.29924 0.14134 0.63401 0.0
C2265 C 0.30883 0.11891 0.60861 0.0
C2266 C 0.3076 0.09863 0.61911 0.0
C2267 C 0.31357 0.08995 0.64251 0.0
C2268 C 0.31491 0.10143 0.65527 0.0
C2269 C 0.30544 0.10967 0.63188 0.0
C2270 C 0.30328 0.13253 0.65729 0.0
C2271 C 0.29585 0.15234 0.64676 0.0
H2272 H 0.04758 0.81944 0.37703 0.0
H2273 H 0.05131 0.89238 0.34905 0.0
H2274 H 0.04126 0.92988 0.36646 0.0
H2275 H 0.05171 0.94175 0.38966 0.0
H2276 H 0.05059 0.86882 0.41765 0.0
H2277 H 0.03815 0.83148 0.40024 0.0
C2278 C 0.04431 0.84352 0.3747 0.0
C2279 C 0.05102 0.85311 0.36174 0.0
C2280 C 0.03994 0.86494 0.38481 0.0
C2281 C 0.04615 0.88434 0.35889 0.0
C2282 C 0.04112 0.90581 0.36888 0.0
C2283 C 0.04698 0.91773 0.39198 0.0
C2284 C 0.05291 0.90803 0.40494 0.0
C2285 C 0.04101 0.8964 0.38189 0.0
C2286 C 0.04609 0.87692 0.4078 0.0
C2287 C 0.03961 0.85553 0.39782 0.0
H2288 H 0.71146 0.94444 0.3784 0.0
H2289 H 0.71217 0.87188 0.35023 0.0
H2290 H 0.72148 0.83427 0.3676 0.0
H2291 H 0.70751 0.82198 0.39067 0.0
H2292 H 0.70122 0.89438 0.41884 0.0
H2293 H 0.71723 0.93205 0.40166 0.0
C2294 C 0.71562 0.92044 0.37602 0.0
C2295 C 0.71028 0.91104 0.36297 0.0
C2296 C 0.71898 0.89887 0.38612 0.0
C2297 C 0.71629 0.87987 0.3601 0.0
C2298 C 0.72083 0.85829 0.37008 0.0
C2299 C 0.7117 0.84596 0.39312 0.0
C2300 C 0.7026 0.85536 0.40605 0.0
C2301 C 0.719 0.86748 0.38312 0.0
C2302 C 0.7084 0.88645 0.40905 0.0
C2303 C 0.71675 0.90803 0.39917 0.0
H2304 H 0.91508 0.69407 0.1415 0.0
H2305 H 0.94136 0.62091 0.16873 0.0
H2306 H 0.95456 0.58489 0.15086 0.0
H2307 H 0.93984 0.57302 0.12772 0.0
H2308 H 0.91474 0.64625 0.10047 0.0
H2309 H 0.9212 0.68356 0.11805 0.0
C2310 C 0.92561 0.67041 0.14351 0.0
C2311 C 0.92671 0.66011 0.15644 0.0
C2312 C 0.93266 0.64981 0.13316 0.0
C2313 C 0.94062 0.62945 0.15891 0.0
C2314 C 0.94751 0.60879 0.14866 0.0
C2315 C 0.93785 0.59724 0.12558 0.0
C2316 C 0.92639 0.60685 0.1128 0.0
C2317 C 0.94096 0.61849 0.13578 0.0
C2318 C 0.92399 0.63826 0.11016 0.0
C2319 C 0.92695 0.65957 0.12026 0.0
H2320 H 0.32081 0.56867 0.14119 0.0
H2321 H 0.3019 0.64488 0.16719 0.0
H2322 H 0.29008 0.67942 0.14875 0.0
H2323 H 0.30209 0.68872 0.12531 0.0
H2324 H 0.3178 0.61242 0.09927 0.0
H2325 H 0.31255 0.57703 0.11758 0.0
C2326 C 0.31237 0.59273 0.14281 0.0
C2327 C 0.31276 0.60426 0.15555 0.0
C2328 C 0.30554 0.61243 0.13214 0.0
C2329 C 0.3015 0.63541 0.15752 0.0
C2330 C 0.29529 0.65521 0.14695 0.0
C2331 C 0.3023 0.66428 0.12362 0.0
C2332 C 0.31056 0.65319 0.11094 0.0
C2333 C 0.29958 0.64412 0.13423 0.0
C2334 C 0.31087 0.62152 0.10889 0.0
C2335 C 0.30862 0.6013 0.1194 0.0
H2336 H 0.04788 0.32031 0.876 0.0
H2337 H 0.0375 0.39632 0.84964 0.0
H2338 H 0.02536 0.43133 0.8679 0.0
H2339 H 0.03784 0.44086 0.89129 0.0
H2340 H 0.04884 0.36493 0.91765 0.0
H2341 H 0.0391 0.32928 0.89953 0.0
C2342 C 0.04099 0.34445 0.87424 0.0
C2343 C 0.04422 0.35573 0.86145 0.0
C2344 C 0.03484 0.36446 0.88482 0.0
C2345 C 0.03493 0.387 0.85933 0.0
C2346 C 0.02865 0.40707 0.8698 0.0
C2347 C 0.03586 0.41649 0.89311 0.0
C2348 C 0.04443 0.40555 0.90582 0.0
C2349 C 0.03138 0.39619 0.88259 0.0
C2350 C 0.04182 0.37397 0.90803 0.0
C2351 C 0.03708 0.35358 0.89762 0.0
H2352 H 0.71269 0.37356 0.85853 0.0
H2353 H 0.70087 0.46155 0.87689 0.0
H2354 H 0.71389 0.43817 0.89807 0.0
H2355 H 0.70641 0.39173 0.91161 0.0
H2356 H 0.7172 0.30367 0.89334 0.0
H2357 H 0.72843 0.32772 0.87221 0.0
C2358 C 0.71575 0.38771 0.8671 0.0
C2359 C 0.70553 0.41931 0.86606 0.0
C2360 C 0.72202 0.37392 0.87944 0.0
C2361 C 0.70857 0.43717 0.87738 0.0
C2362 C 0.71549 0.42376 0.88956 0.0
C2363 C 0.7143 0.37788 0.9031 0.0
C2364 C 0.7111 0.34588 0.90413 0.0
C2365 C 0.71915 0.39198 0.8908 0.0
C2366 C 0.71992 0.32834 0.89287 0.0
C2367 C 0.72558 0.34212 0.88071 0.0
loop_
_geom_bond_atom_site_label_1
_geom_bond_atom_site_label_2
_geom_bond_distance
_geom_bond_site_symmetry_2
_ccdc_geom_bond_type
Co0 O3 1.970 . S
Co0 N17 1.989 1_545 S
Co0 O25 1.967 . S
Co0 O32 1.920 . S
Co1 O4 1.966 . S
Co1 N10 2.022 . S
Co1 N18 1.993 . S
Co1 O26 1.941 . S
C2 O3 1.258 . S
C2 O4 1.263 . S
O3 Co0 1.970 . S
O3 C2 1.258 . S
O4 Co1 1.966 . S
O4 C2 1.263 . S
C5 O6 1.247 . S
C5 O32 1.289 . S
O6 C5 1.247 . S
C7 C9 1.400 . S
C7 N10 1.351 . S
C7 C12 1.501 . S
C8 C9 1.387 . S
C8 N11 1.341 . S
C9 C7 1.400 . S
C9 C8 1.387 . S
N10 Co1 2.022 . S
N10 C7 1.351 . S
N10 N11 1.365 . S
N11 C8 1.341 . S
N11 N10 1.365 . S
N11 H31 0.862 . S
C12 C7 1.501 . S
C12 H13 0.961 . S
C12 H14 0.961 . S
C12 H15 0.960 . S
H13 C12 0.961 . S
H14 C12 0.961 . S
H15 C12 0.960 . S
C16 N17 1.342 . S
C16 C20 1.401 . S
C16 C21 1.499 . S
N17 Co0 1.989 1_565 S
N17 C16 1.342 . S
N17 N18 1.388 1_565 S
N18 Co1 1.993 . S
N18 N17 1.388 1_545 S
N18 C19 1.346 1_545 S
C19 N18 1.346 1_565 S
C19 C20 1.396 . S
C19 C29 1.510 . S
C20 C16 1.401 . S
C20 C19 1.396 . S
C21 C16 1.499 . S
C21 H22 0.959 . S
C21 H23 0.960 . S
C21 H24 0.961 . S
H22 C21 0.959 . S
H23 C21 0.960 . S
H24 C21 0.961 . S
O25 Co0 1.967 . S
O25 C33 1.258 . S
O26 Co1 1.941 . S
O26 C33 1.266 . S
H27 C29 0.959 . S
H28 C29 0.961 . S
C29 C19 1.510 . S
C29 H27 0.959 . S
C29 H28 0.961 . S
C29 H30 0.960 . S
H30 C29 0.960 . S
H31 N11 0.862 . S
O32 Co0 1.920 . S
O32 C5 1.289 . S
C33 O25 1.258 . S
C33 O26 1.266 . S
Co34 O37 1.970 . S
Co34 N51 1.989 . S
Co34 O59 1.967 . S
Co34 O66 1.920 . S
Co35 O38 1.966 . S
Co35 N44 2.022 . S
Co35 N52 1.993 . S
Co35 O60 1.941 . S
C36 O37 1.258 . S
C36 O38 1.263 . S
O37 Co34 1.970 . S
O37 C36 1.258 . S
O38 Co35 1.966 . S
O38 C36 1.263 . S
C39 O40 1.235 . S
C39 O66 1.289 1_455 S
O40 C39 1.235 . S
C41 C43 1.400 . S
C41 N44 1.351 . S
C41 C46 1.501 . S
C42 C43 1.387 . S
C42 N45 1.341 . S
C43 C41 1.400 . S
C43 C42 1.387 . S
N44 Co35 2.022 . S
N44 C41 1.351 . S
N44 N45 1.365 . S
N45 C42 1.341 . S
N45 N44 1.365 . S
N45 H65 0.862 . S
C46 C41 1.501 . S
C46 H47 0.961 . S
C46 H48 0.961 . S
C46 H49 0.960 . S
H47 C46 0.961 . S
H48 C46 0.961 . S
H49 C46 0.960 . S
C50 N51 1.342 . S
C50 C54 1.401 . S
C50 C55 1.499 . S
N51 Co34 1.989 . S
N51 C50 1.342 . S
N51 N52 1.388 . S
N52 Co35 1.993 . S
N52 N51 1.388 . S
N52 C53 1.346 . S
C53 N52 1.346 . S
C53 C54 1.396 . S
C53 C63 1.510 . S
C54 C50 1.401 . S
C54 C53 1.396 . S
C55 C50 1.499 . S
C55 H56 0.959 . S
C55 H57 0.960 . S
C55 H58 0.961 . S
H56 C55 0.959 . S
H57 C55 0.960 . S
H58 C55 0.961 . S
O59 Co34 1.967 . S
O59 C67 1.258 . S
O60 Co35 1.941 . S
O60 C67 1.266 . S
H61 C63 0.959 . S
H62 C63 0.961 . S
C63 C53 1.510 . S
C63 H61 0.959 . S
C63 H62 0.961 . S
C63 H64 0.960 . S
H64 C63 0.960 . S
H65 N45 0.862 . S
O66 Co34 1.920 . S
O66 C39 1.289 1_655 S
C67 O59 1.258 . S
C67 O60 1.266 . S
Co68 O71 1.970 . S
Co68 N85 1.989 . S
Co68 O93 1.967 . S
Co68 O100 1.920 . S
Co69 O72 1.966 . S
Co69 N78 2.022 . S
Co69 N86 1.993 . S
Co69 O94 1.941 . S
C70 O71 1.258 . S
C70 O72 1.263 . S
O71 Co68 1.970 . S
O71 C70 1.258 . S
O72 Co69 1.966 . S
O72 C70 1.263 . S
C73 O74 1.235 . S
C73 O100 1.289 . S
O74 C73 1.235 . S
C75 C77 1.400 . S
C75 N78 1.351 . S
C75 C80 1.501 . S
C76 C77 1.387 . S
C76 N79 1.341 . S
C77 C75 1.400 . S
C77 C76 1.387 . S
N78 Co69 2.022 . S
N78 C75 1.351 . S
N78 N79 1.365 . S
N79 C76 1.341 . S
N79 N78 1.365 . S
N79 H99 0.862 . S
C80 C75 1.501 . S
C80 H81 0.961 . S
C80 H82 0.961 . S
C80 H83 0.960 . S
H81 C80 0.961 . S
H82 C80 0.961 . S
H83 C80 0.960 . S
C84 N85 1.342 . S
C84 C88 1.401 . S
C84 C89 1.499 . S
N85 Co68 1.989 . S
N85 C84 1.342 . S
N85 N86 1.388 . S
N86 Co69 1.993 . S
N86 N85 1.388 . S
N86 C87 1.346 . S
C87 N86 1.346 . S
C87 C88 1.396 . S
C87 C97 1.510 . S
C88 C84 1.401 . S
C88 C87 1.396 . S
C89 C84 1.499 . S
C89 H90 0.959 . S
C89 H91 0.960 . S
C89 H92 0.961 . S
H90 C89 0.959 . S
H91 C89 0.960 . S
H92 C89 0.961 . S
O93 Co68 1.967 . S
O93 C101 1.258 . S
O94 Co69 1.941 . S
O94 C101 1.266 . S
H95 C97 0.959 . S
H96 C97 0.961 . S
C97 C87 1.510 . S
C97 H95 0.959 . S
C97 H96 0.961 . S
C97 H98 0.960 . S
H98 C97 0.960 . S
H99 N79 0.862 . S
O100 Co68 1.920 . S
O100 C73 1.289 . S
C101 O93 1.258 . S
C101 O94 1.266 . S
Co102 O105 1.970 . S
Co102 N119 1.989 1_545 S
Co102 O127 1.967 . S
Co102 O134 1.920 . S
Co103 O106 1.966 . S
Co103 N112 2.022 . S
Co103 N120 1.993 . S
Co103 O128 1.941 . S
C104 O105 1.258 . S
C104 O106 1.263 . S
O105 Co102 1.970 . S
O105 C104 1.258 . S
O106 Co103 1.966 . S
O106 C104 1.263 . S
C107 O108 1.247 . S
C107 O134 1.289 1_455 S
O108 C107 1.247 . S
C109 C111 1.400 . S
C109 N112 1.351 . S
C109 C114 1.501 . S
C110 C111 1.387 . S
C110 N113 1.341 . S
C111 C109 1.400 . S
C111 C110 1.387 . S
N112 Co103 2.022 . S
N112 C109 1.351 . S
N112 N113 1.365 . S
N113 C110 1.341 . S
N113 N112 1.365 . S
N113 H133 0.862 . S
C114 C109 1.501 . S
C114 H115 0.961 . S
C114 H116 0.961 . S
C114 H117 0.960 . S
H115 C114 0.961 . S
H116 C114 0.961 . S
H117 C114 0.960 . S
C118 N119 1.342 . S
C118 C122 1.401 . S
C118 C123 1.499 . S
N119 Co102 1.989 1_565 S
N119 C118 1.342 . S
N119 N120 1.388 1_565 S
N120 Co103 1.993 . S
N120 N119 1.388 1_545 S
N120 C121 1.346 1_545 S
C121 N120 1.346 1_565 S
C121 C122 1.396 . S
C121 C131 1.510 . S
C122 C118 1.401 . S
C122 C121 1.396 . S
C123 C118 1.499 . S
C123 H124 0.959 . S
C123 H125 0.960 . S
C123 H126 0.961 . S
H124 C123 0.959 . S
H125 C123 0.960 . S
H126 C123 0.961 . S
O127 Co102 1.967 . S
O127 C135 1.258 . S
O128 Co103 1.941 . S
O128 C135 1.266 . S
H129 C131 0.959 . S
H130 C131 0.961 . S
C131 C121 1.510 . S
C131 H129 0.959 . S
C131 H130 0.961 . S
C131 H132 0.960 . S
H132 C131 0.960 . S
H133 N113 0.862 . S
O134 Co102 1.920 . S
O134 C107 1.289 1_655 S
C135 O127 1.258 . S
C135 O128 1.266 . S
Co136 O139 1.970 . S
Co136 N153 1.989 1_565 S
Co136 O161 1.967 . S
Co136 O168 1.920 . S
Co137 O140 1.966 . S
Co137 N146 2.022 . S
Co137 N154 1.993 . S
Co137 O162 1.941 . S
C138 O139 1.258 . S
C138 O140 1.263 . S
O139 Co136 1.970 . S
O139 C138 1.258 . S
O140 Co137 1.966 . S
O140 C138 1.263 . S
C141 O142 1.247 . S
C141 O168 1.289 . S
O142 C141 1.247 . S
C143 C145 1.400 . S
C143 N146 1.351 . S
C143 C148 1.501 . S
C144 C145 1.387 . S
C144 N147 1.341 . S
C145 C143 1.400 . S
C145 C144 1.387 . S
N146 Co137 2.022 . S
N146 C143 1.351 . S
N146 N147 1.365 . S
N147 C144 1.341 . S
N147 N146 1.365 . S
N147 H167 0.862 . S
C148 C143 1.501 . S
C148 H149 0.961 . S
C148 H150 0.961 . S
C148 H151 0.960 . S
H149 C148 0.961 . S
H150 C148 0.961 . S
H151 C148 0.960 . S
C152 N153 1.342 . S
C152 C156 1.401 . S
C152 C157 1.499 . S
N153 Co136 1.989 1_545 S
N153 C152 1.342 . S
N153 N154 1.388 1_545 S
N154 Co137 1.993 . S
N154 N153 1.388 1_565 S
N154 C155 1.346 1_565 S
C155 N154 1.346 1_545 S
C155 C156 1.396 . S
C155 C165 1.510 . S
C156 C152 1.401 . S
C156 C155 1.396 . S
C157 C152 1.499 . S
C157 H158 0.959 . S
C157 H159 0.960 . S
C157 H160 0.961 . S
H158 C157 0.959 . S
H159 C157 0.960 . S
H160 C157 0.961 . S
O161 Co136 1.967 . S
O161 C169 1.258 . S
O162 Co137 1.941 . S
O162 C169 1.266 . S
H163 C165 0.959 . S
H164 C165 0.961 . S
C165 C155 1.510 . S
C165 H163 0.959 . S
C165 H164 0.961 . S
C165 H166 0.960 . S
H166 C165 0.960 . S
H167 N147 0.862 . S
O168 Co136 1.920 . S
O168 C141 1.289 . S
C169 O161 1.258 . S
C169 O162 1.266 . S
Co170 O173 1.970 . S
Co170 N187 1.989 . S
Co170 O195 1.967 . S
Co170 O202 1.920 . S
Co171 O174 1.966 . S
Co171 N180 2.022 . S
Co171 N188 1.993 . S
Co171 O196 1.941 . S
C172 O173 1.258 . S
C172 O174 1.263 . S
O173 Co170 1.970 . S
O173 C172 1.258 . S
O174 Co171 1.966 . S
O174 C172 1.263 . S
C175 O176 1.235 . S
C175 O202 1.289 1_655 S
O176 C175 1.235 . S
C177 C179 1.400 . S
C177 N180 1.351 . S
C177 C182 1.501 . S
C178 C179 1.387 . S
C178 N181 1.341 . S
C179 C177 1.400 . S
C179 C178 1.387 . S
N180 Co171 2.022 . S
N180 C177 1.351 . S
N180 N181 1.365 . S
N181 C178 1.341 . S
N181 N180 1.365 . S
N181 H201 0.862 . S
C182 C177 1.501 . S
C182 H183 0.961 . S
C182 H184 0.961 . S
C182 H185 0.960 . S
H183 C182 0.961 . S
H184 C182 0.961 . S
H185 C182 0.960 . S
C186 N187 1.342 . S
C186 C190 1.401 . S
C186 C191 1.499 . S
N187 Co170 1.989 . S
N187 C186 1.342 . S
N187 N188 1.388 . S
N188 Co171 1.993 . S
N188 N187 1.388 . S
N188 C189 1.346 . S
C189 N188 1.346 . S
C189 C190 1.396 . S
C189 C199 1.510 . S
C190 C186 1.401 . S
C190 C189 1.396 . S
C191 C186 1.499 . S
C191 H192 0.959 . S
C191 H193 0.960 . S
C191 H194 0.961 . S
H192 C191 0.959 . S
H193 C191 0.960 . S
H194 C191 0.961 . S
O195 Co170 1.967 . S
O195 C203 1.258 . S
O196 Co171 1.941 . S
O196 C203 1.266 . S
H197 C199 0.959 . S
H198 C199 0.961 . S
C199 C189 1.510 . S
C199 H197 0.959 . S
C199 H198 0.961 . S
C199 H200 0.960 . S
H200 C199 0.960 . S
H201 N181 0.862 . S
O202 Co170 1.920 . S
O202 C175 1.289 1_455 S
C203 O195 1.258 . S
C203 O196 1.266 . S
Co204 O207 1.970 . S
Co204 N221 1.989 . S
Co204 O229 1.967 . S
Co204 O236 1.920 . S
Co205 O208 1.966 . S
Co205 N214 2.022 . S
Co205 N222 1.993 . S
Co205 O230 1.941 . S
C206 O207 1.258 . S
C206 O208 1.263 . S
O207 Co204 1.970 . S
O207 C206 1.258 . S
O208 Co205 1.966 . S
O208 C206 1.263 . S
C209 O210 1.235 . S
C209 O236 1.289 . S
O210 C209 1.235 . S
C211 C213 1.400 . S
C211 N214 1.351 . S
C211 C216 1.501 . S
C212 C213 1.387 . S
C212 N215 1.341 . S
C213 C211 1.400 . S
C213 C212 1.387 . S
N214 Co205 2.022 . S
N214 C211 1.351 . S
N214 N215 1.365 . S
N215 C212 1.341 . S
N215 N214 1.365 . S
N215 H235 0.862 . S
C216 C211 1.501 . S
C216 H217 0.961 . S
C216 H218 0.961 . S
C216 H219 0.960 . S
H217 C216 0.961 . S
H218 C216 0.961 . S
H219 C216 0.960 . S
C220 N221 1.342 . S
C220 C224 1.401 . S
C220 C225 1.499 . S
N221 Co204 1.989 . S
N221 C220 1.342 . S
N221 N222 1.388 . S
N222 Co205 1.993 . S
N222 N221 1.388 . S
N222 C223 1.346 . S
C223 N222 1.346 . S
C223 C224 1.396 . S
C223 C233 1.510 . S
C224 C220 1.401 . S
C224 C223 1.396 . S
C225 C220 1.499 . S
C225 H226 0.959 . S
C225 H227 0.960 . S
C225 H228 0.961 . S
H226 C225 0.959 . S
H227 C225 0.960 . S
H228 C225 0.961 . S
O229 Co204 1.967 . S
O229 C237 1.258 . S
O230 Co205 1.941 . S
O230 C237 1.266 . S
H231 C233 0.959 . S
H232 C233 0.961 . S
C233 C223 1.510 . S
C233 H231 0.959 . S
C233 H232 0.961 . S
C233 H234 0.960 . S
H234 C233 0.960 . S
H235 N215 0.862 . S
O236 Co204 1.920 . S
O236 C209 1.289 . S
C237 O229 1.258 . S
C237 O230 1.266 . S
Co238 O241 1.970 . S
Co238 N255 1.989 1_565 S
Co238 O263 1.967 . S
Co238 O270 1.920 . S
Co239 O242 1.966 . S
Co239 N248 2.022 . S
Co239 N256 1.993 . S
Co239 O264 1.941 . S
C240 O241 1.258 . S
C240 O242 1.263 . S
O241 Co238 1.970 . S
O241 C240 1.258 . S
O242 Co239 1.966 . S
O242 C240 1.263 . S
C243 O244 1.247 . S
C243 O270 1.289 1_655 S
O244 C243 1.247 . S
C245 C247 1.400 . S
C245 N248 1.351 . S
C245 C250 1.501 . S
C246 C247 1.387 . S
C246 N249 1.341 . S
C247 C245 1.400 . S
C247 C246 1.387 . S
N248 Co239 2.022 . S
N248 C245 1.351 . S
N248 N249 1.365 . S
N249 C246 1.341 . S
N249 N248 1.365 . S
N249 H269 0.862 . S
C250 C245 1.501 . S
C250 H251 0.961 . S
C250 H252 0.961 . S
C250 H253 0.960 . S
H251 C250 0.961 . S
H252 C250 0.961 . S
H253 C250 0.960 . S
C254 N255 1.342 . S
C254 C258 1.401 . S
C254 C259 1.499 . S
N255 Co238 1.989 1_545 S
N255 C254 1.342 . S
N255 N256 1.388 1_545 S
N256 Co239 1.993 . S
N256 N255 1.388 1_565 S
N256 C257 1.346 1_565 S
C257 N256 1.346 1_545 S
C257 C258 1.396 . S
C257 C267 1.510 . S
C258 C254 1.401 . S
C258 C257 1.396 . S
C259 C254 1.499 . S
C259 H260 0.959 . S
C259 H261 0.960 . S
C259 H262 0.961 . S
H260 C259 0.959 . S
H261 C259 0.960 . S
H262 C259 0.961 . S
O263 Co238 1.967 . S
O263 C271 1.258 . S
O264 Co239 1.941 . S
O264 C271 1.266 . S
H265 C267 0.959 . S
H266 C267 0.961 . S
C267 C257 1.510 . S
C267 H265 0.959 . S
C267 H266 0.961 . S
C267 H268 0.960 . S
H268 C267 0.960 . S
H269 N249 0.862 . S
O270 Co238 1.920 . S
O270 C243 1.289 1_455 S
C271 O263 1.258 . S
C271 O264 1.266 . S
Co272 O275 1.970 . S
Co272 N289 1.989 . S
Co272 O297 1.967 . S
Co272 O304 1.920 . S
Co273 O276 1.966 . S
Co273 N282 2.022 . S
Co273 N290 1.993 . S
Co273 O298 1.941 . S
C274 O275 1.258 . S
C274 O276 1.263 . S
O275 Co272 1.970 . S
O275 C274 1.258 . S
O276 Co273 1.966 . S
O276 C274 1.263 . S
C277 O278 1.235 . S
C277 O304 1.289 . S
O278 C277 1.235 . S
C279 C281 1.400 . S
C279 N282 1.351 . S
C279 C284 1.501 . S
C280 C281 1.387 . S
C280 N283 1.341 . S
C281 C279 1.400 . S
C281 C280 1.387 . S
N282 Co273 2.022 . S
N282 C279 1.351 . S
N282 N283 1.365 . S
N283 C280 1.341 . S
N283 N282 1.365 . S
N283 H303 0.862 . S
C284 C279 1.501 . S
C284 H285 0.961 . S
C284 H286 0.961 . S
C284 H287 0.960 . S
H285 C284 0.961 . S
H286 C284 0.961 . S
H287 C284 0.960 . S
C288 N289 1.342 . S
C288 C292 1.401 . S
C288 C293 1.499 . S
N289 Co272 1.989 . S
N289 C288 1.342 . S
N289 N290 1.388 . S
N290 Co273 1.993 . S
N290 N289 1.388 . S
N290 C291 1.346 . S
C291 N290 1.346 . S
C291 C292 1.396 . S
C291 C301 1.510 . S
C292 C288 1.401 . S
C292 C291 1.396 . S
C293 C288 1.499 . S
C293 H294 0.959 . S
C293 H295 0.960 . S
C293 H296 0.961 . S
H294 C293 0.959 . S
H295 C293 0.960 . S
H296 C293 0.961 . S
O297 Co272 1.967 . S
O297 C305 1.258 . S
O298 Co273 1.941 . S
O298 C305 1.266 . S
H299 C301 0.959 . S
H300 C301 0.961 . S
C301 C291 1.510 . S
C301 H299 0.959 . S
C301 H300 0.961 . S
C301 H302 0.960 . S
H302 C301 0.960 . S
H303 N283 0.862 . S
O304 Co272 1.920 . S
O304 C277 1.289 . S
C305 O297 1.258 . S
C305 O298 1.266 . S
Co306 O309 1.970 . S
Co306 N323 1.989 . S
Co306 O331 1.967 . S
Co306 O338 1.920 . S
Co307 O310 1.966 . S
Co307 N316 2.022 . S
Co307 N324 1.993 . S
Co307 O332 1.941 . S
C308 O309 1.258 . S
C308 O310 1.263 . S
O309 Co306 1.970 . S
O309 C308 1.258 . S
O310 Co307 1.966 . S
O310 C308 1.263 . S
C311 O312 1.235 . S
C311 O338 1.289 1_455 S
O312 C311 1.235 . S
C313 C315 1.400 . S
C313 N316 1.351 . S
C313 C318 1.501 . S
C314 C315 1.387 . S
C314 N317 1.341 . S
C315 C313 1.400 . S
C315 C314 1.387 . S
N316 Co307 2.022 . S
N316 C313 1.351 . S
N316 N317 1.365 . S
N317 C314 1.341 . S
N317 N316 1.365 . S
N317 H337 0.862 . S
C318 C313 1.501 . S
C318 H319 0.961 . S
C318 H320 0.961 . S
C318 H321 0.960 . S
H319 C318 0.961 . S
H320 C318 0.961 . S
H321 C318 0.960 . S
C322 N323 1.342 . S
C322 C326 1.401 . S
C322 C327 1.499 . S
N323 Co306 1.989 . S
N323 C322 1.342 . S
N323 N324 1.388 . S
N324 Co307 1.993 . S
N324 N323 1.388 . S
N324 C325 1.346 . S
C325 N324 1.346 . S
C325 C326 1.396 . S
C325 C335 1.510 . S
C326 C322 1.401 . S
C326 C325 1.396 . S
C327 C322 1.499 . S
C327 H328 0.959 . S
C327 H329 0.960 . S
C327 H330 0.961 . S
H328 C327 0.959 . S
H329 C327 0.960 . S
H330 C327 0.961 . S
O331 Co306 1.967 . S
O331 C339 1.258 . S
O332 Co307 1.941 . S
O332 C339 1.266 . S
H333 C335 0.959 . S
H334 C335 0.961 . S
C335 C325 1.510 . S
C335 H333 0.959 . S
C335 H334 0.961 . S
C335 H336 0.960 . S
H336 C335 0.960 . S
H337 N317 0.862 . S
O338 Co306 1.920 . S
O338 C311 1.289 1_655 S
C339 O331 1.258 . S
C339 O332 1.266 . S
Co340 O343 1.970 . S
Co340 N357 1.989 . S
Co340 O365 1.967 . S
Co340 O372 1.920 . S
Co341 O344 1.966 . S
Co341 N350 2.022 . S
Co341 N358 1.993 . S
Co341 O366 1.941 . S
C342 O343 1.258 . S
C342 O344 1.263 . S
O343 Co340 1.970 . S
O343 C342 1.258 . S
O344 Co341 1.966 . S
O344 C342 1.263 . S
C345 O346 1.235 . S
C345 O372 1.289 . S
O346 C345 1.235 . S
C347 C349 1.400 . S
C347 N350 1.351 . S
C347 C352 1.501 . S
C348 C349 1.387 . S
C348 N351 1.341 . S
C349 C347 1.400 . S
C349 C348 1.387 . S
N350 Co341 2.022 . S
N350 C347 1.351 . S
N350 N351 1.365 . S
N351 C348 1.341 . S
N351 N350 1.365 . S
N351 H371 0.862 . S
C352 C347 1.501 . S
C352 H353 0.961 . S
C352 H354 0.961 . S
C352 H355 0.960 . S
H353 C352 0.961 . S
H354 C352 0.961 . S
H355 C352 0.960 . S
C356 N357 1.342 . S
C356 C360 1.401 . S
C356 C361 1.499 . S
N357 Co340 1.989 . S
N357 C356 1.342 . S
N357 N358 1.388 . S
N358 Co341 1.993 . S
N358 N357 1.388 . S
N358 C359 1.346 . S
C359 N358 1.346 . S
C359 C360 1.396 . S
C359 C369 1.510 . S
C360 C356 1.401 . S
C360 C359 1.396 . S
C361 C356 1.499 . S
C361 H362 0.959 . S
C361 H363 0.960 . S
C361 H364 0.961 . S
H362 C361 0.959 . S
H363 C361 0.960 . S
H364 C361 0.961 . S
O365 Co340 1.967 . S
O365 C373 1.258 . S
O366 Co341 1.941 . S
O366 C373 1.266 . S
H367 C369 0.959 . S
H368 C369 0.961 . S
C369 C359 1.510 . S
C369 H367 0.959 . S
C369 H368 0.961 . S
C369 H370 0.960 . S
H370 C369 0.960 . S
H371 N351 0.862 . S
O372 Co340 1.920 . S
O372 C345 1.289 . S
C373 O365 1.258 . S
C373 O366 1.266 . S
Co374 O377 1.970 . S
Co374 N391 1.989 . S
Co374 O399 1.967 . S
Co374 O406 1.920 . S
Co375 O378 1.966 . S
Co375 N384 2.022 . S
Co375 N392 1.993 . S
Co375 O400 1.941 . S
C376 O377 1.258 . S
C376 O378 1.263 . S
O377 Co374 1.970 . S
O377 C376 1.258 . S
O378 Co375 1.966 . S
O378 C376 1.263 . S
C379 O380 1.235 . S
C379 O406 1.289 1_455 S
O380 C379 1.235 . S
C381 C383 1.400 . S
C381 N384 1.351 . S
C381 C386 1.501 . S
C382 C383 1.387 . S
C382 N385 1.341 . S
C383 C381 1.400 . S
C383 C382 1.387 . S
N384 Co375 2.022 . S
N384 C381 1.351 . S
N384 N385 1.365 . S
N385 C382 1.341 . S
N385 N384 1.365 . S
N385 H405 0.862 . S
C386 C381 1.501 . S
C386 H387 0.961 . S
C386 H388 0.961 . S
C386 H389 0.960 . S
H387 C386 0.961 . S
H388 C386 0.961 . S
H389 C386 0.960 . S
C390 N391 1.342 . S
C390 C394 1.401 . S
C390 C395 1.499 . S
N391 Co374 1.989 . S
N391 C390 1.342 . S
N391 N392 1.388 . S
N392 Co375 1.993 . S
N392 N391 1.388 . S
N392 C393 1.346 . S
C393 N392 1.346 . S
C393 C394 1.396 . S
C393 C403 1.510 . S
C394 C390 1.401 . S
C394 C393 1.396 . S
C395 C390 1.499 . S
C395 H396 0.959 . S
C395 H397 0.960 . S
C395 H398 0.961 . S
H396 C395 0.959 . S
H397 C395 0.960 . S
H398 C395 0.961 . S
O399 Co374 1.967 . S
O399 C407 1.258 . S
O400 Co375 1.941 . S
O400 C407 1.266 . S
H401 C403 0.959 . S
H402 C403 0.961 . S
C403 C393 1.510 . S
C403 H401 0.959 . S
C403 H402 0.961 . S
C403 H404 0.960 . S
H404 C403 0.960 . S
H405 N385 0.862 . S
O406 Co374 1.920 . S
O406 C379 1.289 1_655 S
C407 O399 1.258 . S
C407 O400 1.266 . S
Co408 O411 1.970 . S
Co408 N425 1.989 . S
Co408 O433 1.967 . S
Co408 O440 1.920 . S
Co409 O412 1.966 . S
Co409 N418 2.022 . S
Co409 N426 1.993 . S
Co409 O434 1.941 . S
C410 O411 1.258 . S
C410 O412 1.263 . S
O411 Co408 1.970 . S
O411 C410 1.258 . S
O412 Co409 1.966 . S
O412 C410 1.263 . S
C413 O414 1.235 . S
C413 O440 1.289 . S
O414 C413 1.235 . S
C415 C417 1.400 . S
C415 N418 1.351 . S
C415 C420 1.501 . S
C416 C417 1.387 . S
C416 N419 1.341 . S
C417 C415 1.400 . S
C417 C416 1.387 . S
N418 Co409 2.022 . S
N418 C415 1.351 . S
N418 N419 1.365 . S
N419 C416 1.341 . S
N419 N418 1.365 . S
N419 H439 0.862 . S
C420 C415 1.501 . S
C420 H421 0.961 . S
C420 H422 0.961 . S
C420 H423 0.960 . S
H421 C420 0.961 . S
H422 C420 0.961 . S
H423 C420 0.960 . S
C424 N425 1.342 . S
C424 C428 1.401 . S
C424 C429 1.499 . S
N425 Co408 1.989 . S
N425 C424 1.342 . S
N425 N426 1.388 . S
N426 Co409 1.993 . S
N426 N425 1.388 . S
N426 C427 1.346 . S
C427 N426 1.346 . S
C427 C428 1.396 . S
C427 C437 1.510 . S
C428 C424 1.401 . S
C428 C427 1.396 . S
C429 C424 1.499 . S
C429 H430 0.959 . S
C429 H431 0.960 . S
C429 H432 0.961 . S
H430 C429 0.959 . S
H431 C429 0.960 . S
H432 C429 0.961 . S
O433 Co408 1.967 . S
O433 C441 1.258 . S
O434 Co409 1.941 . S
O434 C441 1.266 . S
H435 C437 0.959 . S
H436 C437 0.961 . S
C437 C427 1.510 . S
C437 H435 0.959 . S
C437 H436 0.961 . S
C437 H438 0.960 . S
H438 C437 0.960 . S
H439 N419 0.862 . S
O440 Co408 1.920 . S
O440 C413 1.289 . S
C441 O433 1.258 . S
C441 O434 1.266 . S
Co442 O445 1.970 . S
Co442 N459 1.989 . S
Co442 O467 1.967 . S
Co442 O474 1.920 . S
Co443 O446 1.966 . S
Co443 N452 2.022 . S
Co443 N460 1.993 . S
Co443 O468 1.941 . S
C444 O445 1.258 . S
C444 O446 1.263 . S
O445 Co442 1.970 . S
O445 C444 1.258 . S
O446 Co443 1.966 . S
O446 C444 1.263 . S
C447 O448 1.235 . S
C447 O474 1.289 1_655 S
O448 C447 1.235 . S
C449 C451 1.400 . S
C449 N452 1.351 . S
C449 C454 1.501 . S
C450 C451 1.387 . S
C450 N453 1.341 . S
C451 C449 1.400 . S
C451 C450 1.387 . S
N452 Co443 2.022 . S
N452 C449 1.351 . S
N452 N453 1.365 . S
N453 C450 1.341 . S
N453 N452 1.365 . S
N453 H473 0.862 . S
C454 C449 1.501 . S
C454 H455 0.961 . S
C454 H456 0.961 . S
C454 H457 0.960 . S
H455 C454 0.961 . S
H456 C454 0.961 . S
H457 C454 0.960 . S
C458 N459 1.342 . S
C458 C462 1.401 . S
C458 C463 1.499 . S
N459 Co442 1.989 . S
N459 C458 1.342 . S
N459 N460 1.388 . S
N460 Co443 1.993 . S
N460 N459 1.388 . S
N460 C461 1.346 . S
C461 N460 1.346 . S
C461 C462 1.396 . S
C461 C471 1.510 . S
C462 C458 1.401 . S
C462 C461 1.396 . S
C463 C458 1.499 . S
C463 H464 0.959 . S
C463 H465 0.960 . S
C463 H466 0.961 . S
H464 C463 0.959 . S
H465 C463 0.960 . S
H466 C463 0.961 . S
O467 Co442 1.967 . S
O467 C475 1.258 . S
O468 Co443 1.941 . S
O468 C475 1.266 . S
H469 C471 0.959 . S
H470 C471 0.961 . S
C471 C461 1.510 . S
C471 H469 0.959 . S
C471 H470 0.961 . S
C471 H472 0.960 . S
H472 C471 0.960 . S
H473 N453 0.862 . S
O474 Co442 1.920 . S
O474 C447 1.289 1_455 S
C475 O467 1.258 . S
C475 O468 1.266 . S
Co476 O479 1.970 . S
Co476 N493 1.989 . S
Co476 O501 1.967 . S
Co476 O508 1.920 . S
Co477 O480 1.966 . S
Co477 N486 2.022 . S
Co477 N494 1.993 . S
Co477 O502 1.941 . S
C478 O479 1.258 . S
C478 O480 1.263 . S
O479 Co476 1.970 . S
O479 C478 1.258 . S
O480 Co477 1.966 . S
O480 C478 1.263 . S
C481 O482 1.235 . S
C481 O508 1.289 . S
O482 C481 1.235 . S
C483 C485 1.400 . S
C483 N486 1.351 . S
C483 C488 1.501 . S
C484 C485 1.387 . S
C484 N487 1.341 . S
C485 C483 1.400 . S
C485 C484 1.387 . S
N486 Co477 2.022 . S
N486 C483 1.351 . S
N486 N487 1.365 . S
N487 C484 1.341 . S
N487 N486 1.365 . S
N487 H507 0.862 . S
C488 C483 1.501 . S
C488 H489 0.961 . S
C488 H490 0.961 . S
C488 H491 0.960 . S
H489 C488 0.961 . S
H490 C488 0.961 . S
H491 C488 0.960 . S
C492 N493 1.342 . S
C492 C496 1.401 . S
C492 C497 1.499 . S
N493 Co476 1.989 . S
N493 C492 1.342 . S
N493 N494 1.388 . S
N494 Co477 1.993 . S
N494 N493 1.388 . S
N494 C495 1.346 . S
C495 N494 1.346 . S
C495 C496 1.396 . S
C495 C505 1.510 . S
C496 C492 1.401 . S
C496 C495 1.396 . S
C497 C492 1.499 . S
C497 H498 0.959 . S
C497 H499 0.960 . S
C497 H500 0.961 . S
H498 C497 0.959 . S
H499 C497 0.960 . S
H500 C497 0.961 . S
O501 Co476 1.967 . S
O501 C509 1.258 . S
O502 Co477 1.941 . S
O502 C509 1.266 . S
H503 C505 0.959 . S
H504 C505 0.961 . S
C505 C495 1.510 . S
C505 H503 0.959 . S
C505 H504 0.961 . S
C505 H506 0.960 . S
H506 C505 0.960 . S
H507 N487 0.862 . S
O508 Co476 1.920 . S
O508 C481 1.289 . S
C509 O501 1.258 . S
C509 O502 1.266 . S
Co510 O513 1.970 . S
Co510 N527 1.989 . S
Co510 O535 1.967 . S
Co510 O542 1.920 . S
Co511 O514 1.966 . S
Co511 N520 2.022 . S
Co511 N528 1.993 . S
Co511 O536 1.941 . S
C512 O513 1.258 . S
C512 O514 1.263 . S
O513 Co510 1.970 . S
O513 C512 1.258 . S
O514 Co511 1.966 . S
O514 C512 1.263 . S
C515 O516 1.235 . S
C515 O542 1.289 1_655 S
O516 C515 1.235 . S
C517 C519 1.400 . S
C517 N520 1.351 . S
C517 C522 1.501 . S
C518 C519 1.387 . S
C518 N521 1.341 . S
C519 C517 1.400 . S
C519 C518 1.387 . S
N520 Co511 2.022 . S
N520 C517 1.351 . S
N520 N521 1.365 . S
N521 C518 1.341 . S
N521 N520 1.365 . S
N521 H541 0.862 . S
C522 C517 1.501 . S
C522 H523 0.961 . S
C522 H524 0.961 . S
C522 H525 0.960 . S
H523 C522 0.961 . S
H524 C522 0.961 . S
H525 C522 0.960 . S
C526 N527 1.342 . S
C526 C530 1.401 . S
C526 C531 1.499 . S
N527 Co510 1.989 . S
N527 C526 1.342 . S
N527 N528 1.388 . S
N528 Co511 1.993 . S
N528 N527 1.388 . S
N528 C529 1.346 . S
C529 N528 1.346 . S
C529 C530 1.396 . S
C529 C539 1.510 . S
C530 C526 1.401 . S
C530 C529 1.396 . S
C531 C526 1.499 . S
C531 H532 0.959 . S
C531 H533 0.960 . S
C531 H534 0.961 . S
H532 C531 0.959 . S
H533 C531 0.960 . S
H534 C531 0.961 . S
O535 Co510 1.967 . S
O535 C543 1.258 . S
O536 Co511 1.941 . S
O536 C543 1.266 . S
H537 C539 0.959 . S
H538 C539 0.961 . S
C539 C529 1.510 . S
C539 H537 0.959 . S
C539 H538 0.961 . S
C539 H540 0.960 . S
H540 C539 0.960 . S
H541 N521 0.862 . S
O542 Co510 1.920 . S
O542 C515 1.289 1_455 S
C543 O535 1.258 . S
C543 O536 1.266 . S
Co544 O547 1.970 . S
Co544 N561 1.989 1_545 S
Co544 O569 1.967 . S
Co544 O576 1.920 . S
Co545 O548 1.966 . S
Co545 N554 2.022 . S
Co545 N562 1.993 . S
Co545 O570 1.941 . S
C546 O547 1.258 . S
C546 O548 1.263 . S
O547 Co544 1.970 . S
O547 C546 1.258 . S
O548 Co545 1.966 . S
O548 C546 1.263 . S
C549 O550 1.247 . S
C549 O576 1.289 . S
O550 C549 1.247 . S
C551 C553 1.400 . S
C551 N554 1.351 . S
C551 C556 1.501 . S
C552 C553 1.387 1_455 S
C552 N555 1.341 . S
C553 C551 1.400 . S
C553 C552 1.387 1_655 S
N554 Co545 2.022 . S
N554 C551 1.351 . S
N554 N555 1.365 1_655 S
N555 C552 1.341 . S
N555 N554 1.365 1_455 S
N555 H575 0.862 . S
C556 C551 1.501 . S
C556 H557 0.961 . S
C556 H558 0.961 . S
C556 H559 0.960 . S
H557 C556 0.961 . S
H558 C556 0.961 . S
H559 C556 0.960 . S
C560 N561 1.342 . S
C560 C564 1.401 . S
C560 C565 1.499 . S
N561 Co544 1.989 1_565 S
N561 C560 1.342 . S
N561 N562 1.388 1_565 S
N562 Co545 1.993 . S
N562 N561 1.388 1_545 S
N562 C563 1.346 1_545 S
C563 N562 1.346 1_565 S
C563 C564 1.396 . S
C563 C573 1.510 . S
C564 C560 1.401 . S
C564 C563 1.396 . S
C565 C560 1.499 . S
C565 H566 0.959 . S
C565 H567 0.960 . S
C565 H568 0.961 . S
H566 C565 0.959 . S
H567 C565 0.960 . S
H568 C565 0.961 . S
O569 Co544 1.967 . S
O569 C577 1.258 . S
O570 Co545 1.941 . S
O570 C577 1.266 . S
H571 C573 0.959 . S
H572 C573 0.961 . S
C573 C563 1.510 . S
C573 H571 0.959 . S
C573 H572 0.961 . S
C573 H574 0.960 . S
H574 C573 0.960 . S
H575 N555 0.862 . S
O576 Co544 1.920 . S
O576 C549 1.289 . S
C577 O569 1.258 . S
C577 O570 1.266 . S
Co578 O581 1.970 . S
Co578 N595 1.989 . S
Co578 O603 1.967 . S
Co578 O610 1.920 . S
Co579 O582 1.966 . S
Co579 N588 2.022 . S
Co579 N596 1.993 . S
Co579 O604 1.941 . S
C580 O581 1.258 . S
C580 O582 1.263 . S
O581 Co578 1.970 . S
O581 C580 1.258 . S
O582 Co579 1.966 . S
O582 C580 1.263 . S
C583 O584 1.235 . S
C583 O610 1.289 . S
O584 C583 1.235 . S
C585 C587 1.400 . S
C585 N588 1.351 . S
C585 C590 1.501 . S
C586 C587 1.387 . S
C586 N589 1.341 . S
C587 C585 1.400 . S
C587 C586 1.387 . S
N588 Co579 2.022 . S
N588 C585 1.351 . S
N588 N589 1.365 . S
N589 C586 1.341 . S
N589 N588 1.365 . S
N589 H609 0.862 . S
C590 C585 1.501 . S
C590 H591 0.961 . S
C590 H592 0.961 . S
C590 H593 0.960 . S
H591 C590 0.961 . S
H592 C590 0.961 . S
H593 C590 0.960 . S
C594 N595 1.342 . S
C594 C598 1.401 . S
C594 C599 1.499 . S
N595 Co578 1.989 . S
N595 C594 1.342 . S
N595 N596 1.388 . S
N596 Co579 1.993 . S
N596 N595 1.388 . S
N596 C597 1.346 . S
C597 N596 1.346 . S
C597 C598 1.396 . S
C597 C607 1.510 . S
C598 C594 1.401 . S
C598 C597 1.396 . S
C599 C594 1.499 . S
C599 H600 0.959 . S
C599 H601 0.960 . S
C599 H602 0.961 . S
H600 C599 0.959 . S
H601 C599 0.960 . S
H602 C599 0.961 . S
O603 Co578 1.967 . S
O603 C611 1.258 . S
O604 Co579 1.941 . S
O604 C611 1.266 . S
H605 C607 0.959 . S
H606 C607 0.961 . S
C607 C597 1.510 . S
C607 H605 0.959 . S
C607 H606 0.961 . S
C607 H608 0.960 . S
H608 C607 0.960 . S
H609 N589 0.862 . S
O610 Co578 1.920 . S
O610 C583 1.289 . S
C611 O603 1.258 . S
C611 O604 1.266 . S
Co612 O615 1.970 . S
Co612 N629 1.989 . S
Co612 O637 1.967 . S
Co612 O644 1.920 . S
Co613 O616 1.966 . S
Co613 N622 2.022 . S
Co613 N630 1.993 . S
Co613 O638 1.941 . S
C614 O615 1.258 . S
C614 O616 1.263 . S
O615 Co612 1.970 . S
O615 C614 1.258 . S
O616 Co613 1.966 . S
O616 C614 1.263 . S
C617 O618 1.235 . S
C617 O644 1.289 . S
O618 C617 1.235 . S
C619 C621 1.400 . S
C619 N622 1.351 . S
C619 C624 1.501 . S
C620 C621 1.387 1_455 S
C620 N623 1.341 . S
C621 C619 1.400 . S
C621 C620 1.387 1_655 S
N622 Co613 2.022 . S
N622 C619 1.351 . S
N622 N623 1.365 1_655 S
N623 C620 1.341 . S
N623 N622 1.365 1_455 S
N623 H643 0.862 . S
C624 C619 1.501 . S
C624 H625 0.961 . S
C624 H626 0.961 . S
C624 H627 0.960 . S
H625 C624 0.961 . S
H626 C624 0.961 . S
H627 C624 0.960 . S
C628 N629 1.342 . S
C628 C632 1.401 . S
C628 C633 1.499 . S
N629 Co612 1.989 . S
N629 C628 1.342 . S
N629 N630 1.388 . S
N630 Co613 1.993 . S
N630 N629 1.388 . S
N630 C631 1.346 . S
C631 N630 1.346 . S
C631 C632 1.396 . S
C631 C641 1.510 . S
C632 C628 1.401 . S
C632 C631 1.396 . S
C633 C628 1.499 . S
C633 H634 0.959 . S
C633 H635 0.960 . S
C633 H636 0.961 . S
H634 C633 0.959 . S
H635 C633 0.960 . S
H636 C633 0.961 . S
O637 Co612 1.967 . S
O637 C645 1.258 . S
O638 Co613 1.941 . S
O638 C645 1.266 . S
H639 C641 0.959 . S
H640 C641 0.961 . S
C641 C631 1.510 . S
C641 H639 0.959 . S
C641 H640 0.961 . S
C641 H642 0.960 . S
H642 C641 0.960 . S
H643 N623 0.862 . S
O644 Co612 1.920 . S
O644 C617 1.289 . S
C645 O637 1.258 . S
C645 O638 1.266 . S
Co646 O649 1.970 . S
Co646 N663 1.989 1_545 S
Co646 O671 1.967 . S
Co646 O678 1.920 . S
Co647 O650 1.966 . S
Co647 N656 2.022 . S
Co647 N664 1.993 . S
Co647 O672 1.941 . S
C648 O649 1.258 . S
C648 O650 1.263 . S
O649 Co646 1.970 . S
O649 C648 1.258 . S
O650 Co647 1.966 . S
O650 C648 1.263 . S
C651 O652 1.247 . S
C651 O678 1.289 . S
O652 C651 1.247 . S
C653 C655 1.400 . S
C653 N656 1.351 . S
C653 C658 1.501 . S
C654 C655 1.387 . S
C654 N657 1.341 . S
C655 C653 1.400 . S
C655 C654 1.387 . S
N656 Co647 2.022 . S
N656 C653 1.351 . S
N656 N657 1.365 . S
N657 C654 1.341 . S
N657 N656 1.365 . S
N657 H677 0.862 . S
C658 C653 1.501 . S
C658 H659 0.961 . S
C658 H660 0.961 . S
C658 H661 0.960 . S
H659 C658 0.961 . S
H660 C658 0.961 . S
H661 C658 0.960 . S
C662 N663 1.342 . S
C662 C666 1.401 . S
C662 C667 1.499 . S
N663 Co646 1.989 1_565 S
N663 C662 1.342 . S
N663 N664 1.388 1_565 S
N664 Co647 1.993 . S
N664 N663 1.388 1_545 S
N664 C665 1.346 1_545 S
C665 N664 1.346 1_565 S
C665 C666 1.396 . S
C665 C675 1.510 . S
C666 C662 1.401 . S
C666 C665 1.396 . S
C667 C662 1.499 . S
C667 H668 0.959 . S
C667 H669 0.960 . S
C667 H670 0.961 . S
H668 C667 0.959 . S
H669 C667 0.960 . S
H670 C667 0.961 . S
O671 Co646 1.967 . S
O671 C679 1.258 . S
O672 Co647 1.941 . S
O672 C679 1.266 . S
H673 C675 0.959 . S
H674 C675 0.961 . S
C675 C665 1.510 . S
C675 H673 0.959 . S
C675 H674 0.961 . S
C675 H676 0.960 . S
H676 C675 0.960 . S
H677 N657 0.862 . S
O678 Co646 1.920 . S
O678 C651 1.289 . S
C679 O671 1.258 . S
C679 O672 1.266 . S
Co680 O683 1.970 . S
Co680 N697 1.989 1_565 S
Co680 O705 1.967 . S
Co680 O712 1.920 . S
Co681 O684 1.966 . S
Co681 N690 2.022 . S
Co681 N698 1.993 . S
Co681 O706 1.941 . S
C682 O683 1.258 . S
C682 O684 1.263 . S
O683 Co680 1.970 . S
O683 C682 1.258 . S
O684 Co681 1.966 . S
O684 C682 1.263 . S
C685 O686 1.247 . S
C685 O712 1.289 . S
O686 C685 1.247 . S
C687 C689 1.400 . S
C687 N690 1.351 . S
C687 C692 1.501 . S
C688 C689 1.387 1_655 S
C688 N691 1.341 . S
C689 C687 1.400 . S
C689 C688 1.387 1_455 S
N690 Co681 2.022 . S
N690 C687 1.351 . S
N690 N691 1.365 1_455 S
N691 C688 1.341 . S
N691 N690 1.365 1_655 S
N691 H711 0.862 . S
C692 C687 1.501 . S
C692 H693 0.961 . S
C692 H694 0.961 . S
C692 H695 0.960 . S
H693 C692 0.961 . S
H694 C692 0.961 . S
H695 C692 0.960 . S
C696 N697 1.342 . S
C696 C700 1.401 . S
C696 C701 1.499 . S
N697 Co680 1.989 1_545 S
N697 C696 1.342 . S
N697 N698 1.388 1_545 S
N698 Co681 1.993 . S
N698 N697 1.388 1_565 S
N698 C699 1.346 1_565 S
C699 N698 1.346 1_545 S
C699 C700 1.396 . S
C699 C709 1.510 . S
C700 C696 1.401 . S
C700 C699 1.396 . S
C701 C696 1.499 . S
C701 H702 0.959 . S
C701 H703 0.960 . S
C701 H704 0.961 . S
H702 C701 0.959 . S
H703 C701 0.960 . S
H704 C701 0.961 . S
O705 Co680 1.967 . S
O705 C713 1.258 . S
O706 Co681 1.941 . S
O706 C713 1.266 . S
H707 C709 0.959 . S
H708 C709 0.961 . S
C709 C699 1.510 . S
C709 H707 0.959 . S
C709 H708 0.961 . S
C709 H710 0.960 . S
H710 C709 0.960 . S
H711 N691 0.862 . S
O712 Co680 1.920 . S
O712 C685 1.289 . S
C713 O705 1.258 . S
C713 O706 1.266 . S
Co714 O717 1.970 . S
Co714 N731 1.989 . S
Co714 O739 1.967 . S
Co714 O746 1.920 . S
Co715 O718 1.966 . S
Co715 N724 2.022 . S
Co715 N732 1.993 . S
Co715 O740 1.941 . S
C716 O717 1.258 . S
C716 O718 1.263 . S
O717 Co714 1.970 . S
O717 C716 1.258 . S
O718 Co715 1.966 . S
O718 C716 1.263 . S
C719 O720 1.235 . S
C719 O746 1.289 . S
O720 C719 1.235 . S
C721 C723 1.400 . S
C721 N724 1.351 . S
C721 C726 1.501 . S
C722 C723 1.387 . S
C722 N725 1.341 . S
C723 C721 1.400 . S
C723 C722 1.387 . S
N724 Co715 2.022 . S
N724 C721 1.351 . S
N724 N725 1.365 . S
N725 C722 1.341 . S
N725 N724 1.365 . S
N725 H745 0.862 . S
C726 C721 1.501 . S
C726 H727 0.961 . S
C726 H728 0.961 . S
C726 H729 0.960 . S
H727 C726 0.961 . S
H728 C726 0.961 . S
H729 C726 0.960 . S
C730 N731 1.342 . S
C730 C734 1.401 . S
C730 C735 1.499 . S
N731 Co714 1.989 . S
N731 C730 1.342 . S
N731 N732 1.388 . S
N732 Co715 1.993 . S
N732 N731 1.388 . S
N732 C733 1.346 . S
C733 N732 1.346 . S
C733 C734 1.396 . S
C733 C743 1.510 . S
C734 C730 1.401 . S
C734 C733 1.396 . S
C735 C730 1.499 . S
C735 H736 0.959 . S
C735 H737 0.960 . S
C735 H738 0.961 . S
H736 C735 0.959 . S
H737 C735 0.960 . S
H738 C735 0.961 . S
O739 Co714 1.967 . S
O739 C747 1.258 . S
O740 Co715 1.941 . S
O740 C747 1.266 . S
H741 C743 0.959 . S
H742 C743 0.961 . S
C743 C733 1.510 . S
C743 H741 0.959 . S
C743 H742 0.961 . S
C743 H744 0.960 . S
H744 C743 0.960 . S
H745 N725 0.862 . S
O746 Co714 1.920 . S
O746 C719 1.289 . S
C747 O739 1.258 . S
C747 O740 1.266 . S
Co748 O751 1.970 . S
Co748 N765 1.989 . S
Co748 O773 1.967 . S
Co748 O780 1.920 . S
Co749 O752 1.966 . S
Co749 N758 2.022 . S
Co749 N766 1.993 . S
Co749 O774 1.941 . S
C750 O751 1.258 . S
C750 O752 1.263 . S
O751 Co748 1.970 . S
O751 C750 1.258 . S
O752 Co749 1.966 . S
O752 C750 1.263 . S
C753 O754 1.235 . S
C753 O780 1.289 . S
O754 C753 1.235 . S
C755 C757 1.400 . S
C755 N758 1.351 . S
C755 C760 1.501 . S
C756 C757 1.387 1_655 S
C756 N759 1.341 . S
C757 C755 1.400 . S
C757 C756 1.387 1_455 S
N758 Co749 2.022 . S
N758 C755 1.351 . S
N758 N759 1.365 1_455 S
N759 C756 1.341 . S
N759 N758 1.365 1_655 S
N759 H779 0.862 . S
C760 C755 1.501 . S
C760 H761 0.961 . S
C760 H762 0.961 . S
C760 H763 0.960 . S
H761 C760 0.961 . S
H762 C760 0.961 . S
H763 C760 0.960 . S
C764 N765 1.342 . S
C764 C768 1.401 . S
C764 C769 1.499 . S
N765 Co748 1.989 . S
N765 C764 1.342 . S
N765 N766 1.388 . S
N766 Co749 1.993 . S
N766 N765 1.388 . S
N766 C767 1.346 . S
C767 N766 1.346 . S
C767 C768 1.396 . S
C767 C777 1.510 . S
C768 C764 1.401 . S
C768 C767 1.396 . S
C769 C764 1.499 . S
C769 H770 0.959 . S
C769 H771 0.960 . S
C769 H772 0.961 . S
H770 C769 0.959 . S
H771 C769 0.960 . S
H772 C769 0.961 . S
O773 Co748 1.967 . S
O773 C781 1.258 . S
O774 Co749 1.941 . S
O774 C781 1.266 . S
H775 C777 0.959 . S
H776 C777 0.961 . S
C777 C767 1.510 . S
C777 H775 0.959 . S
C777 H776 0.961 . S
C777 H778 0.960 . S
H778 C777 0.960 . S
H779 N759 0.862 . S
O780 Co748 1.920 . S
O780 C753 1.289 . S
C781 O773 1.258 . S
C781 O774 1.266 . S
Co782 O785 1.970 . S
Co782 N799 1.989 1_565 S
Co782 O807 1.967 . S
Co782 O814 1.920 . S
Co783 O786 1.966 . S
Co783 N792 2.022 . S
Co783 N800 1.993 . S
Co783 O808 1.941 . S
C784 O785 1.258 . S
C784 O786 1.263 . S
O785 Co782 1.970 . S
O785 C784 1.258 . S
O786 Co783 1.966 . S
O786 C784 1.263 . S
C787 O788 1.247 . S
C787 O814 1.289 . S
O788 C787 1.247 . S
C789 C791 1.400 . S
C789 N792 1.351 . S
C789 C794 1.501 . S
C790 C791 1.387 . S
C790 N793 1.341 . S
C791 C789 1.400 . S
C791 C790 1.387 . S
N792 Co783 2.022 . S
N792 C789 1.351 . S
N792 N793 1.365 . S
N793 C790 1.341 . S
N793 N792 1.365 . S
N793 H813 0.862 . S
C794 C789 1.501 . S
C794 H795 0.961 . S
C794 H796 0.961 . S
C794 H797 0.960 . S
H795 C794 0.961 . S
H796 C794 0.961 . S
H797 C794 0.960 . S
C798 N799 1.342 . S
C798 C802 1.401 . S
C798 C803 1.499 . S
N799 Co782 1.989 1_545 S
N799 C798 1.342 . S
N799 N800 1.388 1_545 S
N800 Co783 1.993 . S
N800 N799 1.388 1_565 S
N800 C801 1.346 1_565 S
C801 N800 1.346 1_545 S
C801 C802 1.396 . S
C801 C811 1.510 . S
C802 C798 1.401 . S
C802 C801 1.396 . S
C803 C798 1.499 . S
C803 H804 0.959 . S
C803 H805 0.960 . S
C803 H806 0.961 . S
H804 C803 0.959 . S
H805 C803 0.960 . S
H806 C803 0.961 . S
O807 Co782 1.967 . S
O807 C815 1.258 . S
O808 Co783 1.941 . S
O808 C815 1.266 . S
H809 C811 0.959 . S
H810 C811 0.961 . S
C811 C801 1.510 . S
C811 H809 0.959 . S
C811 H810 0.961 . S
C811 H812 0.960 . S
H812 C811 0.960 . S
H813 N793 0.862 . S
O814 Co782 1.920 . S
O814 C787 1.289 . S
C815 O807 1.258 . S
C815 O808 1.266 . S
Co816 O819 1.970 . S
Co816 N833 1.989 . S
Co816 O841 1.967 . S
Co816 O848 1.920 . S
Co817 O820 1.966 . S
Co817 N826 2.022 . S
Co817 N834 1.993 . S
Co817 O842 1.941 . S
C818 O819 1.258 . S
C818 O820 1.263 . S
O819 Co816 1.970 . S
O819 C818 1.258 . S
O820 Co817 1.966 . S
O820 C818 1.263 . S
C821 O822 1.235 . S
C821 O848 1.289 . S
O822 C821 1.235 . S
C823 C825 1.400 . S
C823 N826 1.351 . S
C823 C828 1.501 . S
C824 C825 1.387 1_455 S
C824 N827 1.341 . S
C825 C823 1.400 . S
C825 C824 1.387 1_655 S
N826 Co817 2.022 . S
N826 C823 1.351 . S
N826 N827 1.365 1_655 S
N827 C824 1.341 . S
N827 N826 1.365 1_455 S
N827 H847 0.862 . S
C828 C823 1.501 . S
C828 H829 0.961 . S
C828 H830 0.961 . S
C828 H831 0.960 . S
H829 C828 0.961 . S
H830 C828 0.961 . S
H831 C828 0.960 . S
C832 N833 1.342 . S
C832 C836 1.401 . S
C832 C837 1.499 . S
N833 Co816 1.989 . S
N833 C832 1.342 . S
N833 N834 1.388 . S
N834 Co817 1.993 . S
N834 N833 1.388 . S
N834 C835 1.346 . S
C835 N834 1.346 . S
C835 C836 1.396 . S
C835 C845 1.510 . S
C836 C832 1.401 . S
C836 C835 1.396 . S
C837 C832 1.499 . S
C837 H838 0.959 . S
C837 H839 0.960 . S
C837 H840 0.961 . S
H838 C837 0.959 . S
H839 C837 0.960 . S
H840 C837 0.961 . S
O841 Co816 1.967 . S
O841 C849 1.258 . S
O842 Co817 1.941 . S
O842 C849 1.266 . S
H843 C845 0.959 . S
H844 C845 0.961 . S
C845 C835 1.510 . S
C845 H843 0.959 . S
C845 H844 0.961 . S
C845 H846 0.960 . S
H846 C845 0.960 . S
H847 N827 0.862 . S
O848 Co816 1.920 . S
O848 C821 1.289 . S
C849 O841 1.258 . S
C849 O842 1.266 . S
Co850 O853 1.970 . S
Co850 N867 1.989 . S
Co850 O875 1.967 . S
Co850 O882 1.920 . S
Co851 O854 1.966 . S
Co851 N860 2.022 . S
Co851 N868 1.993 . S
Co851 O876 1.941 . S
C852 O853 1.258 . S
C852 O854 1.263 . S
O853 Co850 1.970 . S
O853 C852 1.258 . S
O854 Co851 1.966 . S
O854 C852 1.263 . S
C855 O856 1.235 . S
C855 O882 1.289 . S
O856 C855 1.235 . S
C857 C859 1.400 . S
C857 N860 1.351 . S
C857 C862 1.501 . S
C858 C859 1.387 . S
C858 N861 1.341 . S
C859 C857 1.400 . S
C859 C858 1.387 . S
N860 Co851 2.022 . S
N860 C857 1.351 . S
N860 N861 1.365 . S
N861 C858 1.341 . S
N861 N860 1.365 . S
N861 H881 0.862 . S
C862 C857 1.501 . S
C862 H863 0.961 . S
C862 H864 0.961 . S
C862 H865 0.960 . S
H863 C862 0.961 . S
H864 C862 0.961 . S
H865 C862 0.960 . S
C866 N867 1.342 . S
C866 C870 1.401 . S
C866 C871 1.499 . S
N867 Co850 1.989 . S
N867 C866 1.342 . S
N867 N868 1.388 . S
N868 Co851 1.993 . S
N868 N867 1.388 . S
N868 C869 1.346 . S
C869 N868 1.346 . S
C869 C870 1.396 . S
C869 C879 1.510 . S
C870 C866 1.401 . S
C870 C869 1.396 . S
C871 C866 1.499 . S
C871 H872 0.959 . S
C871 H873 0.960 . S
C871 H874 0.961 . S
H872 C871 0.959 . S
H873 C871 0.960 . S
H874 C871 0.961 . S
O875 Co850 1.967 . S
O875 C883 1.258 . S
O876 Co851 1.941 . S
O876 C883 1.266 . S
H877 C879 0.959 . S
H878 C879 0.961 . S
C879 C869 1.510 . S
C879 H877 0.959 . S
C879 H878 0.961 . S
C879 H880 0.960 . S
H880 C879 0.960 . S
H881 N861 0.862 . S
O882 Co850 1.920 . S
O882 C855 1.289 . S
C883 O875 1.258 . S
C883 O876 1.266 . S
Co884 O887 1.970 . S
Co884 N901 1.989 . S
Co884 O909 1.967 . S
Co884 O916 1.920 . S
Co885 O888 1.966 . S
Co885 N894 2.022 . S
Co885 N902 1.993 . S
Co885 O910 1.941 . S
C886 O887 1.258 . S
C886 O888 1.263 . S
O887 Co884 1.970 . S
O887 C886 1.258 . S
O888 Co885 1.966 . S
O888 C886 1.263 . S
C889 O890 1.235 . S
C889 O916 1.289 . S
O890 C889 1.235 . S
C891 C893 1.400 . S
C891 N894 1.351 . S
C891 C896 1.501 . S
C892 C893 1.387 1_455 S
C892 N895 1.341 . S
C893 C891 1.400 . S
C893 C892 1.387 1_655 S
N894 Co885 2.022 . S
N894 C891 1.351 . S
N894 N895 1.365 1_655 S
N895 C892 1.341 . S
N895 N894 1.365 1_455 S
N895 H915 0.862 . S
C896 C891 1.501 . S
C896 H897 0.961 . S
C896 H898 0.961 . S
C896 H899 0.960 . S
H897 C896 0.961 . S
H898 C896 0.961 . S
H899 C896 0.960 . S
C900 N901 1.342 . S
C900 C904 1.401 . S
C900 C905 1.499 . S
N901 Co884 1.989 . S
N901 C900 1.342 . S
N901 N902 1.388 . S
N902 Co885 1.993 . S
N902 N901 1.388 . S
N902 C903 1.346 . S
C903 N902 1.346 . S
C903 C904 1.396 . S
C903 C913 1.510 . S
C904 C900 1.401 . S
C904 C903 1.396 . S
C905 C900 1.499 . S
C905 H906 0.959 . S
C905 H907 0.960 . S
C905 H908 0.961 . S
H906 C905 0.959 . S
H907 C905 0.960 . S
H908 C905 0.961 . S
O909 Co884 1.967 . S
O909 C917 1.258 . S
O910 Co885 1.941 . S
O910 C917 1.266 . S
H911 C913 0.959 . S
H912 C913 0.961 . S
C913 C903 1.510 . S
C913 H911 0.959 . S
C913 H912 0.961 . S
C913 H914 0.960 . S
H914 C913 0.960 . S
H915 N895 0.862 . S
O916 Co884 1.920 . S
O916 C889 1.289 . S
C917 O909 1.258 . S
C917 O910 1.266 . S
Co918 O921 1.970 . S
Co918 N935 1.989 . S
Co918 O943 1.967 . S
Co918 O950 1.920 . S
Co919 O922 1.966 . S
Co919 N928 2.022 . S
Co919 N936 1.993 . S
Co919 O944 1.941 . S
C920 O921 1.258 . S
C920 O922 1.263 . S
O921 Co918 1.970 . S
O921 C920 1.258 . S
O922 Co919 1.966 . S
O922 C920 1.263 . S
C923 O924 1.235 . S
C923 O950 1.289 . S
O924 C923 1.235 . S
C925 C927 1.400 . S
C925 N928 1.351 . S
C925 C930 1.501 . S
C926 C927 1.387 . S
C926 N929 1.341 . S
C927 C925 1.400 . S
C927 C926 1.387 . S
N928 Co919 2.022 . S
N928 C925 1.351 . S
N928 N929 1.365 . S
N929 C926 1.341 . S
N929 N928 1.365 . S
N929 H949 0.862 . S
C930 C925 1.501 . S
C930 H931 0.961 . S
C930 H932 0.961 . S
C930 H933 0.960 . S
H931 C930 0.961 . S
H932 C930 0.961 . S
H933 C930 0.960 . S
C934 N935 1.342 . S
C934 C938 1.401 . S
C934 C939 1.499 . S
N935 Co918 1.989 . S
N935 C934 1.342 . S
N935 N936 1.388 . S
N936 Co919 1.993 . S
N936 N935 1.388 . S
N936 C937 1.346 . S
C937 N936 1.346 . S
C937 C938 1.396 . S
C937 C947 1.510 . S
C938 C934 1.401 . S
C938 C937 1.396 . S
C939 C934 1.499 . S
C939 H940 0.959 . S
C939 H941 0.960 . S
C939 H942 0.961 . S
H940 C939 0.959 . S
H941 C939 0.960 . S
H942 C939 0.961 . S
O943 Co918 1.967 . S
O943 C951 1.258 . S
O944 Co919 1.941 . S
O944 C951 1.266 . S
H945 C947 0.959 . S
H946 C947 0.961 . S
C947 C937 1.510 . S
C947 H945 0.959 . S
C947 H946 0.961 . S
C947 H948 0.960 . S
H948 C947 0.960 . S
H949 N929 0.862 . S
O950 Co918 1.920 . S
O950 C923 1.289 . S
C951 O943 1.258 . S
C951 O944 1.266 . S
Co952 O955 1.970 . S
Co952 N969 1.989 . S
Co952 O977 1.967 . S
Co952 O984 1.920 . S
Co953 O956 1.966 . S
Co953 N962 2.022 . S
Co953 N970 1.993 . S
Co953 O978 1.941 . S
C954 O955 1.258 . S
C954 O956 1.263 . S
O955 Co952 1.970 . S
O955 C954 1.258 . S
O956 Co953 1.966 . S
O956 C954 1.263 . S
C957 O958 1.235 . S
C957 O984 1.289 . S
O958 C957 1.235 . S
C959 C961 1.400 . S
C959 N962 1.351 . S
C959 C964 1.501 . S
C960 C961 1.387 1_655 S
C960 N963 1.341 . S
C961 C959 1.400 . S
C961 C960 1.387 1_455 S
N962 Co953 2.022 . S
N962 C959 1.351 . S
N962 N963 1.365 1_455 S
N963 C960 1.341 . S
N963 N962 1.365 1_655 S
N963 H983 0.862 . S
C964 C959 1.501 . S
C964 H965 0.961 . S
C964 H966 0.961 . S
C964 H967 0.960 . S
H965 C964 0.961 . S
H966 C964 0.961 . S
H967 C964 0.960 . S
C968 N969 1.342 . S
C968 C972 1.401 . S
C968 C973 1.499 . S
N969 Co952 1.989 . S
N969 C968 1.342 . S
N969 N970 1.388 . S
N970 Co953 1.993 . S
N970 N969 1.388 . S
N970 C971 1.346 . S
C971 N970 1.346 . S
C971 C972 1.396 . S
C971 C981 1.510 . S
C972 C968 1.401 . S
C972 C971 1.396 . S
C973 C968 1.499 . S
C973 H974 0.959 . S
C973 H975 0.960 . S
C973 H976 0.961 . S
H974 C973 0.959 . S
H975 C973 0.960 . S
H976 C973 0.961 . S
O977 Co952 1.967 . S
O977 C985 1.258 . S
O978 Co953 1.941 . S
O978 C985 1.266 . S
H979 C981 0.959 . S
H980 C981 0.961 . S
C981 C971 1.510 . S
C981 H979 0.959 . S
C981 H980 0.961 . S
C981 H982 0.960 . S
H982 C981 0.960 . S
H983 N963 0.862 . S
O984 Co952 1.920 . S
O984 C957 1.289 . S
C985 O977 1.258 . S
C985 O978 1.266 . S
Co986 O989 1.970 . S
Co986 N1003 1.989 . S
Co986 O1011 1.967 . S
Co986 O1018 1.920 . S
Co987 O990 1.966 . S
Co987 N996 2.022 . S
Co987 N1004 1.993 . S
Co987 O1012 1.941 . S
C988 O989 1.258 . S
C988 O990 1.263 . S
O989 Co986 1.970 . S
O989 C988 1.258 . S
O990 Co987 1.966 . S
O990 C988 1.263 . S
C991 O992 1.235 . S
C991 O1018 1.289 . S
O992 C991 1.235 . S
C993 C995 1.400 . S
C993 N996 1.351 . S
C993 C998 1.501 . S
C994 C995 1.387 . S
C994 N997 1.341 . S
C995 C993 1.400 . S
C995 C994 1.387 . S
N996 Co987 2.022 . S
N996 C993 1.351 . S
N996 N997 1.365 . S
N997 C994 1.341 . S
N997 N996 1.365 . S
N997 H1017 0.862 . S
C998 C993 1.501 . S
C998 H999 0.961 . S
C998 H1000 0.961 . S
C998 H1001 0.960 . S
H999 C998 0.961 . S
H1000 C998 0.961 . S
H1001 C998 0.960 . S
C1002 N1003 1.342 . S
C1002 C1006 1.401 . S
C1002 C1007 1.499 . S
N1003 Co986 1.989 . S
N1003 C1002 1.342 . S
N1003 N1004 1.388 . S
N1004 Co987 1.993 . S
N1004 N1003 1.388 . S
N1004 C1005 1.346 . S
C1005 N1004 1.346 . S
C1005 C1006 1.396 . S
C1005 C1015 1.510 . S
C1006 C1002 1.401 . S
C1006 C1005 1.396 . S
C1007 C1002 1.499 . S
C1007 H1008 0.959 . S
C1007 H1009 0.960 . S
C1007 H1010 0.961 . S
H1008 C1007 0.959 . S
H1009 C1007 0.960 . S
H1010 C1007 0.961 . S
O1011 Co986 1.967 . S
O1011 C1019 1.258 . S
O1012 Co987 1.941 . S
O1012 C1019 1.266 . S
H1013 C1015 0.959 . S
H1014 C1015 0.961 . S
C1015 C1005 1.510 . S
C1015 H1013 0.959 . S
C1015 H1014 0.961 . S
C1015 H1016 0.960 . S
H1016 C1015 0.960 . S
H1017 N997 0.862 . S
O1018 Co986 1.920 . S
O1018 C991 1.289 . S
C1019 O1011 1.258 . S
C1019 O1012 1.266 . S
Co1020 O1023 1.970 . S
Co1020 N1037 1.989 . S
Co1020 O1045 1.967 . S
Co1020 O1052 1.920 . S
Co1021 O1024 1.966 . S
Co1021 N1030 2.022 . S
Co1021 N1038 1.993 . S
Co1021 O1046 1.941 . S
C1022 O1023 1.258 . S
C1022 O1024 1.263 . S
O1023 Co1020 1.970 . S
O1023 C1022 1.258 . S
O1024 Co1021 1.966 . S
O1024 C1022 1.263 . S
C1025 O1026 1.235 . S
C1025 O1052 1.289 . S
O1026 C1025 1.235 . S
C1027 C1029 1.400 . S
C1027 N1030 1.351 . S
C1027 C1032 1.501 . S
C1028 C1029 1.387 1_655 S
C1028 N1031 1.341 . S
C1029 C1027 1.400 . S
C1029 C1028 1.387 1_455 S
N1030 Co1021 2.022 . S
N1030 C1027 1.351 . S
N1030 N1031 1.365 1_455 S
N1031 C1028 1.341 . S
N1031 N1030 1.365 1_655 S
N1031 H1051 0.862 . S
C1032 C1027 1.501 . S
C1032 H1033 0.961 . S
C1032 H1034 0.961 . S
C1032 H1035 0.960 . S
H1033 C1032 0.961 . S
H1034 C1032 0.961 . S
H1035 C1032 0.960 . S
C1036 N1037 1.342 . S
C1036 C1040 1.401 . S
C1036 C1041 1.499 . S
N1037 Co1020 1.989 . S
N1037 C1036 1.342 . S
N1037 N1038 1.388 . S
N1038 Co1021 1.993 . S
N1038 N1037 1.388 . S
N1038 C1039 1.346 . S
C1039 N1038 1.346 . S
C1039 C1040 1.396 . S
C1039 C1049 1.510 . S
C1040 C1036 1.401 . S
C1040 C1039 1.396 . S
C1041 C1036 1.499 . S
C1041 H1042 0.959 . S
C1041 H1043 0.960 . S
C1041 H1044 0.961 . S
H1042 C1041 0.959 . S
H1043 C1041 0.960 . S
H1044 C1041 0.961 . S
O1045 Co1020 1.967 . S
O1045 C1053 1.258 . S
O1046 Co1021 1.941 . S
O1046 C1053 1.266 . S
H1047 C1049 0.959 . S
H1048 C1049 0.961 . S
C1049 C1039 1.510 . S
C1049 H1047 0.959 . S
C1049 H1048 0.961 . S
C1049 H1050 0.960 . S
H1050 C1049 0.960 . S
H1051 N1031 0.862 . S
O1052 Co1020 1.920 . S
O1052 C1025 1.289 . S
C1053 O1045 1.258 . S
C1053 O1046 1.266 . S
Co1054 O1057 1.970 . S
Co1054 N1071 1.989 . S
Co1054 O1079 1.967 . S
Co1054 O1086 1.920 . S
Co1055 O1058 1.966 . S
Co1055 N1064 2.022 . S
Co1055 N1072 1.993 . S
Co1055 O1080 1.941 . S
C1056 O1057 1.258 . S
C1056 O1058 1.263 . S
O1057 Co1054 1.970 . S
O1057 C1056 1.258 . S
O1058 Co1055 1.966 . S
O1058 C1056 1.263 . S
C1059 O1060 1.235 . S
C1059 O1086 1.289 . S
O1060 C1059 1.235 . S
C1061 C1063 1.400 . S
C1061 N1064 1.351 . S
C1061 C1066 1.501 . S
C1062 C1063 1.387 . S
C1062 N1065 1.341 . S
C1063 C1061 1.400 . S
C1063 C1062 1.387 . S
N1064 Co1055 2.022 . S
N1064 C1061 1.351 . S
N1064 N1065 1.365 . S
N1065 C1062 1.341 . S
N1065 N1064 1.365 . S
N1065 H1085 0.862 . S
C1066 C1061 1.501 . S
C1066 H1067 0.961 . S
C1066 H1068 0.961 . S
C1066 H1069 0.960 . S
H1067 C1066 0.961 . S
H1068 C1066 0.961 . S
H1069 C1066 0.960 . S
C1070 N1071 1.342 . S
C1070 C1074 1.401 . S
C1070 C1075 1.499 . S
N1071 Co1054 1.989 . S
N1071 C1070 1.342 . S
N1071 N1072 1.388 . S
N1072 Co1055 1.993 . S
N1072 N1071 1.388 . S
N1072 C1073 1.346 . S
C1073 N1072 1.346 . S
C1073 C1074 1.396 . S
C1073 C1083 1.510 . S
C1074 C1070 1.401 . S
C1074 C1073 1.396 . S
C1075 C1070 1.499 . S
C1075 H1076 0.959 . S
C1075 H1077 0.960 . S
C1075 H1078 0.961 . S
H1076 C1075 0.959 . S
H1077 C1075 0.960 . S
H1078 C1075 0.961 . S
O1079 Co1054 1.967 . S
O1079 C1087 1.258 . S
O1080 Co1055 1.941 . S
O1080 C1087 1.266 . S
H1081 C1083 0.959 . S
H1082 C1083 0.961 . S
C1083 C1073 1.510 . S
C1083 H1081 0.959 . S
C1083 H1082 0.961 . S
C1083 H1084 0.960 . S
H1084 C1083 0.960 . S
H1085 N1065 0.862 . S
O1086 Co1054 1.920 . S
O1086 C1059 1.289 . S
C1087 O1079 1.258 . S
C1087 O1080 1.266 . S
H1088 C1094 0.930 . S
H1089 C1097 0.930 . S
H1090 C1098 0.930 . S
H1091 C1099 0.930 . S
H1092 C1102 0.930 . S
H1093 C1103 0.930 . S
C1094 H1088 0.930 . S
C1094 C1095 1.355 . S
C1094 C1096 1.415 1_554 S
C1095 C1094 1.355 . S
C1095 C1097 1.419 1_545 S
C1096 C1094 1.415 1_556 S
C1096 C1101 1.425 1_546 S
C1096 C1103 1.409 . S
C1097 H1089 0.930 . S
C1097 C1095 1.419 1_565 S
C1097 C1098 1.362 . S
C1098 H1090 0.930 . S
C1098 C1097 1.362 . S
C1098 C1101 1.409 . S
C1099 H1091 0.930 . S
C1099 C1100 1.355 . S
C1099 C1101 1.415 1_556 S
C1100 C1099 1.355 . S
C1100 C1102 1.419 1_565 S
C1101 C1096 1.425 1_564 S
C1101 C1098 1.409 . S
C1101 C1099 1.415 1_554 S
C1102 H1092 0.930 . S
C1102 C1100 1.419 1_545 S
C1102 C1103 1.362 . S
C1103 H1093 0.930 . S
C1103 C1096 1.409 . S
C1103 C1102 1.362 . S
H1104 C1110 0.930 . S
H1105 C1113 0.930 . S
H1106 C1114 0.930 1_554 S
H1107 C1115 0.930 . S
H1108 C1118 0.930 . S
H1109 C1119 0.930 1_556 S
C1110 H1104 0.930 . S
C1110 C1111 1.355 . S
C1110 C1112 1.415 . S
C1111 C1110 1.355 . S
C1111 C1113 1.419 . S
C1112 C1110 1.415 . S
C1112 C1117 1.425 1_556 S
C1112 C1119 1.409 1_556 S
C1113 H1105 0.930 . S
C1113 C1111 1.419 . S
C1113 C1114 1.362 . S
C1114 H1106 0.930 1_556 S
C1114 C1113 1.362 . S
C1114 C1117 1.409 1_556 S
C1115 H1107 0.930 . S
C1115 C1116 1.355 . S
C1115 C1117 1.415 . S
C1116 C1115 1.355 . S
C1116 C1118 1.419 . S
C1117 C1112 1.425 1_554 S
C1117 C1114 1.409 1_554 S
C1117 C1115 1.415 . S
C1118 H1108 0.930 . S
C1118 C1116 1.419 . S
C1118 C1119 1.362 . S
C1119 H1109 0.930 1_554 S
C1119 C1112 1.409 1_554 S
C1119 C1118 1.362 . S
H1120 C1126 0.930 . S
H1121 C1129 0.930 . S
H1122 C1130 0.930 . S
H1123 C1131 0.930 . S
H1124 C1134 0.930 . S
H1125 C1135 0.930 . S
C1126 H1120 0.930 . S
C1126 C1127 1.355 . S
C1126 C1128 1.415 . S
C1127 C1126 1.355 . S
C1127 C1129 1.419 . S
C1128 C1126 1.415 . S
C1128 C1133 1.425 . S
C1128 C1135 1.409 . S
C1129 H1121 0.930 . S
C1129 C1127 1.419 . S
C1129 C1130 1.362 . S
C1130 H1122 0.930 . S
C1130 C1129 1.362 . S
C1130 C1133 1.409 . S
C1131 H1123 0.930 . S
C1131 C1132 1.355 . S
C1131 C1133 1.415 . S
C1132 C1131 1.355 . S
C1132 C1134 1.419 . S
C1133 C1128 1.425 . S
C1133 C1130 1.409 . S
C1133 C1131 1.415 . S
C1134 H1124 0.930 . S
C1134 C1132 1.419 . S
C1134 C1135 1.362 . S
C1135 H1125 0.930 . S
C1135 C1128 1.409 . S
C1135 C1134 1.362 . S
H1136 C1142 0.930 1_545 S
H1137 C1145 0.930 . S
H1138 C1146 0.930 . S
H1139 C1147 0.930 1_565 S
H1140 C1150 0.930 . S
H1141 C1151 0.930 . S
C1142 H1136 0.930 1_565 S
C1142 C1143 1.355 . S
C1142 C1144 1.415 1_565 S
C1143 C1142 1.355 . S
C1143 C1145 1.419 . S
C1144 C1142 1.415 1_545 S
C1144 C1149 1.425 1_545 S
C1144 C1151 1.409 . S
C1145 H1137 0.930 . S
C1145 C1143 1.419 . S
C1145 C1146 1.362 . S
C1146 H1138 0.930 . S
C1146 C1145 1.362 . S
C1146 C1149 1.409 . S
C1147 H1139 0.930 1_545 S
C1147 C1148 1.355 . S
C1147 C1149 1.415 1_545 S
C1148 C1147 1.355 . S
C1148 C1150 1.419 . S
C1149 C1144 1.425 1_565 S
C1149 C1146 1.409 . S
C1149 C1147 1.415 1_565 S
C1150 H1140 0.930 . S
C1150 C1148 1.419 . S
C1150 C1151 1.362 . S
C1151 H1141 0.930 . S
C1151 C1144 1.409 . S
C1151 C1150 1.362 . S
H1152 C1158 0.930 . S
H1153 C1161 0.930 . S
H1154 C1162 0.930 . S
H1155 C1163 0.930 . S
H1156 C1166 0.930 . S
H1157 C1167 0.930 . S
C1158 H1152 0.930 . S
C1158 C1159 1.355 . S
C1158 C1160 1.415 1_556 S
C1159 C1158 1.355 . S
C1159 C1161 1.419 . S
C1160 C1158 1.415 1_554 S
C1160 C1165 1.425 1_554 S
C1160 C1167 1.409 . S
C1161 H1153 0.930 . S
C1161 C1159 1.419 . S
C1161 C1162 1.362 . S
C1162 H1154 0.930 . S
C1162 C1161 1.362 . S
C1162 C1165 1.409 . S
C1163 H1155 0.930 . S
C1163 C1164 1.355 . S
C1163 C1165 1.415 1_554 S
C1164 C1163 1.355 . S
C1164 C1166 1.419 . S
C1165 C1160 1.425 1_556 S
C1165 C1162 1.409 . S
C1165 C1163 1.415 1_556 S
C1166 H1156 0.930 . S
C1166 C1164 1.419 . S
C1166 C1167 1.362 . S
C1167 H1157 0.930 . S
C1167 C1160 1.409 . S
C1167 C1166 1.362 . S
H1168 C1174 0.930 . S
H1169 C1177 0.930 . S
H1170 C1178 0.930 . S
H1171 C1179 0.930 . S
H1172 C1182 0.930 . S
H1173 C1183 0.930 . S
C1174 H1168 0.930 . S
C1174 C1175 1.355 . S
C1174 C1176 1.415 . S
C1175 C1174 1.355 . S
C1175 C1177 1.419 . S
C1176 C1174 1.415 . S
C1176 C1181 1.425 . S
C1176 C1183 1.409 . S
C1177 H1169 0.930 . S
C1177 C1175 1.419 . S
C1177 C1178 1.362 . S
C1178 H1170 0.930 . S
C1178 C1177 1.362 . S
C1178 C1181 1.409 . S
C1179 H1171 0.930 . S
C1179 C1180 1.355 . S
C1179 C1181 1.415 . S
C1180 C1179 1.355 . S
C1180 C1182 1.419 . S
C1181 C1176 1.425 . S
C1181 C1178 1.409 . S
C1181 C1179 1.415 . S
C1182 H1172 0.930 . S
C1182 C1180 1.419 . S
C1182 C1183 1.362 . S
C1183 H1173 0.930 . S
C1183 C1176 1.409 . S
C1183 C1182 1.362 . S
H1184 C1190 0.930 1_545 S
H1185 C1193 0.930 . S
H1186 C1194 0.930 . S
H1187 C1195 0.930 1_565 S
H1188 C1198 0.930 . S
H1189 C1199 0.930 . S
C1190 H1184 0.930 1_565 S
C1190 C1191 1.355 . S
C1190 C1192 1.415 1_565 S
C1191 C1190 1.355 . S
C1191 C1193 1.419 . S
C1192 C1190 1.415 1_545 S
C1192 C1197 1.425 1_545 S
C1192 C1199 1.409 . S
C1193 H1185 0.930 . S
C1193 C1191 1.419 . S
C1193 C1194 1.362 . S
C1194 H1186 0.930 . S
C1194 C1193 1.362 . S
C1194 C1197 1.409 . S
C1195 H1187 0.930 1_545 S
C1195 C1196 1.355 . S
C1195 C1197 1.415 1_545 S
C1196 C1195 1.355 . S
C1196 C1198 1.419 . S
C1197 C1192 1.425 1_565 S
C1197 C1194 1.409 . S
C1197 C1195 1.415 1_565 S
C1198 H1188 0.930 . S
C1198 C1196 1.419 . S
C1198 C1199 1.362 . S
C1199 H1189 0.930 . S
C1199 C1192 1.409 . S
C1199 C1198 1.362 . S
H1200 C1206 0.930 . S
H1201 C1209 0.930 . S
H1202 C1210 0.930 . S
H1203 C1211 0.930 . S
H1204 C1214 0.930 . S
H1205 C1215 0.930 . S
C1206 H1200 0.930 . S
C1206 C1207 1.355 . S
C1206 C1208 1.415 . S
C1207 C1206 1.355 . S
C1207 C1209 1.419 . S
C1208 C1206 1.415 . S
C1208 C1213 1.425 . S
C1208 C1215 1.409 . S
C1209 H1201 0.930 . S
C1209 C1207 1.419 . S
C1209 C1210 1.362 . S
C1210 H1202 0.930 . S
C1210 C1209 1.362 . S
C1210 C1213 1.409 . S
C1211 H1203 0.930 . S
C1211 C1212 1.355 . S
C1211 C1213 1.415 . S
C1212 C1211 1.355 . S
C1212 C1214 1.419 . S
C1213 C1208 1.425 . S
C1213 C1210 1.409 . S
C1213 C1211 1.415 . S
C1214 H1204 0.930 . S
C1214 C1212 1.419 . S
C1214 C1215 1.362 . S
C1215 H1205 0.930 . S
C1215 C1208 1.409 . S
C1215 C1214 1.362 . S
H1216 C1222 0.930 . S
H1217 C1225 0.930 . S
H1218 C1226 0.930 . S
H1219 C1227 0.930 . S
H1220 C1230 0.930 . S
H1221 C1231 0.930 . S
C1222 H1216 0.930 . S
C1222 C1223 1.355 . S
C1222 C1224 1.415 . S
C1223 C1222 1.355 . S
C1223 C1225 1.419 . S
C1224 C1222 1.415 . S
C1224 C1229 1.425 . S
C1224 C1231 1.409 . S
C1225 H1217 0.930 . S
C1225 C1223 1.419 . S
C1225 C1226 1.362 . S
C1226 H1218 0.930 . S
C1226 C1225 1.362 . S
C1226 C1229 1.409 . S
C1227 H1219 0.930 . S
C1227 C1228 1.355 . S
C1227 C1229 1.415 . S
C1228 C1227 1.355 . S
C1228 C1230 1.419 . S
C1229 C1224 1.425 . S
C1229 C1226 1.409 . S
C1229 C1227 1.415 . S
C1230 H1220 0.930 . S
C1230 C1228 1.419 . S
C1230 C1231 1.362 . S
C1231 H1221 0.930 . S
C1231 C1224 1.409 . S
C1231 C1230 1.362 . S
H1232 C1238 0.930 . S
H1233 C1241 0.930 . S
H1234 C1242 0.930 . S
H1235 C1243 0.930 . S
H1236 C1246 0.930 . S
H1237 C1247 0.930 . S
C1238 H1232 0.930 . S
C1238 C1239 1.355 . S
C1238 C1240 1.415 . S
C1239 C1238 1.355 . S
C1239 C1241 1.419 . S
C1240 C1238 1.415 . S
C1240 C1245 1.425 . S
C1240 C1247 1.409 . S
C1241 H1233 0.930 . S
C1241 C1239 1.419 . S
C1241 C1242 1.362 . S
C1242 H1234 0.930 . S
C1242 C1241 1.362 . S
C1242 C1245 1.409 . S
C1243 H1235 0.930 . S
C1243 C1244 1.355 . S
C1243 C1245 1.415 . S
C1244 C1243 1.355 . S
C1244 C1246 1.419 . S
C1245 C1240 1.425 . S
C1245 C1242 1.409 . S
C1245 C1243 1.415 . S
C1246 H1236 0.930 . S
C1246 C1244 1.419 . S
C1246 C1247 1.362 . S
C1247 H1237 0.930 . S
C1247 C1240 1.409 . S
C1247 C1246 1.362 . S
H1248 C1254 0.930 . S
H1249 C1257 0.930 . S
H1250 C1258 0.930 . S
H1251 C1259 0.930 . S
H1252 C1262 0.930 . S
H1253 C1263 0.930 . S
C1254 H1248 0.930 . S
C1254 C1255 1.355 . S
C1254 C1256 1.415 . S
C1255 C1254 1.355 . S
C1255 C1257 1.419 . S
C1256 C1254 1.415 . S
C1256 C1261 1.425 . S
C1256 C1263 1.409 . S
C1257 H1249 0.930 . S
C1257 C1255 1.419 . S
C1257 C1258 1.362 . S
C1258 H1250 0.930 . S
C1258 C1257 1.362 . S
C1258 C1261 1.409 . S
C1259 H1251 0.930 . S
C1259 C1260 1.355 . S
C1259 C1261 1.415 . S
C1260 C1259 1.355 . S
C1260 C1262 1.419 . S
C1261 C1256 1.425 . S
C1261 C1258 1.409 . S
C1261 C1259 1.415 . S
C1262 H1252 0.930 . S
C1262 C1260 1.419 . S
C1262 C1263 1.362 . S
C1263 H1253 0.930 . S
C1263 C1256 1.409 . S
C1263 C1262 1.362 . S
H1264 C1270 0.930 . S
H1265 C1273 0.930 . S
H1266 C1274 0.930 . S
H1267 C1275 0.930 . S
H1268 C1278 0.930 . S
H1269 C1279 0.930 . S
C1270 H1264 0.930 . S
C1270 C1271 1.355 . S
C1270 C1272 1.415 . S
C1271 C1270 1.355 . S
C1271 C1273 1.419 . S
C1272 C1270 1.415 . S
C1272 C1277 1.425 . S
C1272 C1279 1.409 . S
C1273 H1265 0.930 . S
C1273 C1271 1.419 . S
C1273 C1274 1.362 . S
C1274 H1266 0.930 . S
C1274 C1273 1.362 . S
C1274 C1277 1.409 . S
C1275 H1267 0.930 . S
C1275 C1276 1.355 . S
C1275 C1277 1.415 . S
C1276 C1275 1.355 . S
C1276 C1278 1.419 . S
C1277 C1272 1.425 . S
C1277 C1274 1.409 . S
C1277 C1275 1.415 . S
C1278 H1268 0.930 . S
C1278 C1276 1.419 . S
C1278 C1279 1.362 . S
C1279 H1269 0.930 . S
C1279 C1272 1.409 . S
C1279 C1278 1.362 . S
H1280 C1286 0.929 1_545 S
H1281 C1289 0.930 . S
H1282 C1290 0.930 . S
H1283 C1291 0.929 1_565 S
H1284 C1294 0.930 . S
H1285 C1295 0.930 . S
C1286 H1280 0.929 1_565 S
C1286 C1287 1.355 . S
C1286 C1288 1.415 1_565 S
C1287 C1286 1.355 . S
C1287 C1289 1.419 1_455 S
C1288 C1286 1.415 1_545 S
C1288 C1293 1.425 1_445 S
C1288 C1295 1.409 . S
C1289 H1281 0.930 . S
C1289 C1287 1.419 1_655 S
C1289 C1290 1.362 . S
C1290 H1282 0.930 . S
C1290 C1289 1.362 . S
C1290 C1293 1.409 . S
C1291 H1283 0.929 1_545 S
C1291 C1292 1.355 . S
C1291 C1293 1.415 1_545 S
C1292 C1291 1.355 . S
C1292 C1294 1.419 1_655 S
C1293 C1288 1.425 1_665 S
C1293 C1290 1.409 . S
C1293 C1291 1.415 1_565 S
C1294 H1284 0.930 . S
C1294 C1292 1.419 1_455 S
C1294 C1295 1.362 . S
C1295 H1285 0.930 . S
C1295 C1288 1.409 . S
C1295 C1294 1.362 . S
H1296 C1302 0.930 . S
H1297 C1305 0.930 . S
H1298 C1306 0.930 . S
H1299 C1307 0.930 . S
H1300 C1310 0.930 . S
H1301 C1311 0.930 . S
C1302 H1296 0.930 . S
C1302 C1303 1.355 . S
C1302 C1304 1.415 . S
C1303 C1302 1.355 . S
C1303 C1305 1.419 1_655 S
C1304 C1302 1.415 . S
C1304 C1309 1.425 1_655 S
C1304 C1311 1.409 . S
C1305 H1297 0.930 . S
C1305 C1303 1.419 1_455 S
C1305 C1306 1.362 . S
C1306 H1298 0.930 . S
C1306 C1305 1.362 . S
C1306 C1309 1.409 . S
C1307 H1299 0.930 . S
C1307 C1308 1.355 . S
C1307 C1309 1.415 . S
C1308 C1307 1.355 . S
C1308 C1310 1.419 1_455 S
C1309 C1304 1.425 1_455 S
C1309 C1306 1.409 . S
C1309 C1307 1.415 . S
C1310 H1300 0.930 . S
C1310 C1308 1.419 1_655 S
C1310 C1311 1.362 . S
C1311 H1301 0.930 . S
C1311 C1304 1.409 . S
C1311 C1310 1.362 . S
H1312 C1318 0.930 . S
H1313 C1321 0.930 . S
H1314 C1322 0.930 . S
H1315 C1323 0.930 . S
H1316 C1326 0.930 . S
H1317 C1327 0.930 . S
C1318 H1312 0.930 . S
C1318 C1319 1.355 . S
C1318 C1320 1.415 . S
C1319 C1318 1.355 . S
C1319 C1321 1.419 1_455 S
C1320 C1318 1.415 . S
C1320 C1325 1.425 1_455 S
C1320 C1327 1.409 . S
C1321 H1313 0.930 . S
C1321 C1319 1.419 1_655 S
C1321 C1322 1.362 . S
C1322 H1314 0.930 . S
C1322 C1321 1.362 . S
C1322 C1325 1.409 . S
C1323 H1315 0.930 . S
C1323 C1324 1.355 . S
C1323 C1325 1.415 . S
C1324 C1323 1.355 . S
C1324 C1326 1.419 1_655 S
C1325 C1320 1.425 1_655 S
C1325 C1322 1.409 . S
C1325 C1323 1.415 . S
C1326 H1316 0.930 . S
C1326 C1324 1.419 1_455 S
C1326 C1327 1.362 . S
C1327 H1317 0.930 . S
C1327 C1320 1.409 . S
C1327 C1326 1.362 . S
H1328 C1334 0.930 . S
H1329 C1337 0.930 . S
H1330 C1338 0.930 . S
H1331 C1339 0.930 . S
H1332 C1342 0.930 . S
H1333 C1343 0.930 . S
C1334 H1328 0.930 . S
C1334 C1335 1.355 1_455 S
C1334 C1336 1.415 . S
C1335 C1334 1.355 1_655 S
C1335 C1337 1.419 . S
C1336 C1334 1.415 . S
C1336 C1341 1.425 1_454 S
C1336 C1343 1.409 1_554 S
C1337 H1329 0.930 . S
C1337 C1335 1.419 . S
C1337 C1338 1.362 . S
C1338 H1330 0.930 . S
C1338 C1337 1.362 . S
C1338 C1341 1.409 1_554 S
C1339 H1331 0.930 . S
C1339 C1340 1.355 1_655 S
C1339 C1341 1.415 . S
C1340 C1339 1.355 1_455 S
C1340 C1342 1.419 . S
C1341 C1336 1.425 1_656 S
C1341 C1338 1.409 1_556 S
C1341 C1339 1.415 . S
C1342 H1332 0.930 . S
C1342 C1340 1.419 . S
C1342 C1343 1.362 . S
C1343 H1333 0.930 . S
C1343 C1336 1.409 1_556 S
C1343 C1342 1.362 . S
H1344 C1350 0.930 . S
H1345 C1353 0.930 . S
H1346 C1354 0.930 . S
H1347 C1355 0.930 . S
H1348 C1358 0.930 1_655 S
H1349 C1359 0.930 . S
C1350 H1344 0.930 . S
C1350 C1351 1.355 . S
C1350 C1352 1.415 . S
C1351 C1350 1.355 . S
C1351 C1353 1.419 1_545 S
C1352 C1350 1.415 . S
C1352 C1357 1.425 . S
C1352 C1359 1.409 . S
C1353 H1345 0.930 . S
C1353 C1351 1.419 1_565 S
C1353 C1354 1.362 . S
C1354 H1346 0.930 . S
C1354 C1353 1.362 . S
C1354 C1357 1.409 1_565 S
C1355 H1347 0.930 . S
C1355 C1356 1.355 1_565 S
C1355 C1357 1.415 1_565 S
C1356 C1355 1.355 1_545 S
C1356 C1358 1.419 . S
C1357 C1352 1.425 . S
C1357 C1354 1.409 1_545 S
C1357 C1355 1.415 1_545 S
C1358 H1348 0.930 1_455 S
C1358 C1356 1.419 . S
C1358 C1359 1.362 . S
C1359 H1349 0.930 . S
C1359 C1352 1.409 . S
C1359 C1358 1.362 . S
H1360 C1366 0.930 . S
H1361 C1369 0.930 . S
H1362 C1370 0.930 . S
H1363 C1371 0.930 . S
H1364 C1374 0.930 . S
H1365 C1375 0.930 . S
C1366 H1360 0.930 . S
C1366 C1367 1.355 . S
C1366 C1368 1.415 . S
C1367 C1366 1.355 . S
C1367 C1369 1.419 . S
C1368 C1366 1.415 . S
C1368 C1373 1.425 . S
C1368 C1375 1.409 . S
C1369 H1361 0.930 . S
C1369 C1367 1.419 . S
C1369 C1370 1.362 . S
C1370 H1362 0.930 . S
C1370 C1369 1.362 . S
C1370 C1373 1.409 . S
C1371 H1363 0.930 . S
C1371 C1372 1.355 . S
C1371 C1373 1.415 . S
C1372 C1371 1.355 . S
C1372 C1374 1.419 . S
C1373 C1368 1.425 . S
C1373 C1370 1.409 . S
C1373 C1371 1.415 . S
C1374 H1364 0.930 . S
C1374 C1372 1.419 . S
C1374 C1375 1.362 . S
C1375 H1365 0.930 . S
C1375 C1368 1.409 . S
C1375 C1374 1.362 . S
H1376 C1382 0.930 . S
H1377 C1385 0.930 . S
H1378 C1386 0.930 . S
H1379 C1387 0.930 . S
H1380 C1390 0.930 . S
H1381 C1391 0.930 . S
C1382 H1376 0.930 . S
C1382 C1383 1.355 . S
C1382 C1384 1.415 . S
C1383 C1382 1.355 . S
C1383 C1385 1.419 1_565 S
C1384 C1382 1.415 . S
C1384 C1389 1.425 1_565 S
C1384 C1391 1.409 . S
C1385 H1377 0.930 . S
C1385 C1383 1.419 1_545 S
C1385 C1386 1.362 . S
C1386 H1378 0.930 . S
C1386 C1385 1.362 . S
C1386 C1389 1.409 . S
C1387 H1379 0.930 . S
C1387 C1388 1.355 1_545 S
C1387 C1389 1.415 . S
C1388 C1387 1.355 1_565 S
C1388 C1390 1.419 . S
C1389 C1384 1.425 1_545 S
C1389 C1386 1.409 . S
C1389 C1387 1.415 . S
C1390 H1380 0.930 . S
C1390 C1388 1.419 . S
C1390 C1391 1.362 . S
C1391 H1381 0.930 . S
C1391 C1384 1.409 . S
C1391 C1390 1.362 . S
H1392 C1398 0.930 . S
H1393 C1401 0.930 . S
H1394 C1402 0.930 . S
H1395 C1403 0.930 . S
H1396 C1406 0.930 . S
H1397 C1407 0.930 . S
C1398 H1392 0.930 . S
C1398 C1399 1.355 . S
C1398 C1400 1.415 . S
C1399 C1398 1.355 . S
C1399 C1401 1.419 . S
C1400 C1398 1.415 . S
C1400 C1405 1.425 . S
C1400 C1407 1.409 . S
C1401 H1393 0.930 . S
C1401 C1399 1.419 . S
C1401 C1402 1.362 . S
C1402 H1394 0.930 . S
C1402 C1401 1.362 . S
C1402 C1405 1.409 . S
C1403 H1395 0.930 . S
C1403 C1404 1.355 . S
C1403 C1405 1.415 . S
C1404 C1403 1.355 . S
C1404 C1406 1.419 . S
C1405 C1400 1.425 . S
C1405 C1402 1.409 . S
C1405 C1403 1.415 . S
C1406 H1396 0.930 . S
C1406 C1404 1.419 . S
C1406 C1407 1.362 . S
C1407 H1397 0.930 . S
C1407 C1400 1.409 . S
C1407 C1406 1.362 . S
H1408 C1414 0.930 . S
H1409 C1417 0.930 1_655 S
H1410 C1418 0.930 . S
H1411 C1419 0.930 . S
H1412 C1422 0.930 . S
H1413 C1423 0.930 . S
C1414 H1408 0.930 . S
C1414 C1415 1.355 . S
C1414 C1416 1.415 . S
C1415 C1414 1.355 . S
C1415 C1417 1.419 . S
C1416 C1414 1.415 . S
C1416 C1421 1.425 . S
C1416 C1423 1.409 . S
C1417 H1409 0.930 1_455 S
C1417 C1415 1.419 . S
C1417 C1418 1.362 . S
C1418 H1410 0.930 . S
C1418 C1417 1.362 . S
C1418 C1421 1.409 . S
C1419 H1411 0.930 . S
C1419 C1420 1.355 . S
C1419 C1421 1.415 . S
C1420 C1419 1.355 . S
C1420 C1422 1.419 . S
C1421 C1416 1.425 . S
C1421 C1418 1.409 . S
C1421 C1419 1.415 . S
C1422 H1412 0.930 . S
C1422 C1420 1.419 . S
C1422 C1423 1.362 . S
C1423 H1413 0.930 . S
C1423 C1416 1.409 . S
C1423 C1422 1.362 . S
H1424 C1430 0.930 . S
H1425 C1433 0.930 . S
H1426 C1434 0.930 . S
H1427 C1435 0.930 . S
H1428 C1438 0.930 1_655 S
H1429 C1439 0.930 . S
C1430 H1424 0.930 . S
C1430 C1431 1.355 . S
C1430 C1432 1.415 . S
C1431 C1430 1.355 . S
C1431 C1433 1.419 . S
C1432 C1430 1.415 . S
C1432 C1437 1.425 . S
C1432 C1439 1.409 . S
C1433 H1425 0.930 . S
C1433 C1431 1.419 . S
C1433 C1434 1.362 . S
C1434 H1426 0.930 . S
C1434 C1433 1.362 . S
C1434 C1437 1.409 . S
C1435 H1427 0.930 . S
C1435 C1436 1.355 . S
C1435 C1437 1.415 . S
C1436 C1435 1.355 . S
C1436 C1438 1.419 . S
C1437 C1432 1.425 . S
C1437 C1434 1.409 . S
C1437 C1435 1.415 . S
C1438 H1428 0.930 1_455 S
C1438 C1436 1.419 . S
C1438 C1439 1.362 . S
C1439 H1429 0.930 . S
C1439 C1432 1.409 . S
C1439 C1438 1.362 . S
H1440 C1446 0.930 . S
H1441 C1449 0.930 . S
H1442 C1450 0.930 . S
H1443 C1451 0.930 . S
H1444 C1454 0.930 . S
H1445 C1455 0.930 . S
C1446 H1440 0.930 . S
C1446 C1447 1.355 . S
C1446 C1448 1.415 . S
C1447 C1446 1.355 . S
C1447 C1449 1.419 . S
C1448 C1446 1.415 . S
C1448 C1453 1.425 . S
C1448 C1455 1.409 . S
C1449 H1441 0.930 . S
C1449 C1447 1.419 . S
C1449 C1450 1.362 . S
C1450 H1442 0.930 . S
C1450 C1449 1.362 . S
C1450 C1453 1.409 . S
C1451 H1443 0.930 . S
C1451 C1452 1.355 . S
C1451 C1453 1.415 . S
C1452 C1451 1.355 . S
C1452 C1454 1.419 . S
C1453 C1448 1.425 . S
C1453 C1450 1.409 . S
C1453 C1451 1.415 . S
C1454 H1444 0.930 . S
C1454 C1452 1.419 . S
C1454 C1455 1.362 . S
C1455 H1445 0.930 . S
C1455 C1448 1.409 . S
C1455 C1454 1.362 . S
H1456 C1462 0.930 . S
H1457 C1465 0.930 . S
H1458 C1466 0.930 . S
H1459 C1467 0.930 . S
H1460 C1470 0.930 . S
H1461 C1471 0.930 . S
C1462 H1456 0.930 . S
C1462 C1463 1.355 . S
C1462 C1464 1.415 . S
C1463 C1462 1.355 . S
C1463 C1465 1.419 . S
C1464 C1462 1.415 . S
C1464 C1469 1.425 . S
C1464 C1471 1.409 . S
C1465 H1457 0.930 . S
C1465 C1463 1.419 . S
C1465 C1466 1.362 . S
C1466 H1458 0.930 . S
C1466 C1465 1.362 . S
C1466 C1469 1.409 . S
C1467 H1459 0.930 . S
C1467 C1468 1.355 . S
C1467 C1469 1.415 . S
C1468 C1467 1.355 . S
C1468 C1470 1.419 . S
C1469 C1464 1.425 . S
C1469 C1466 1.409 . S
C1469 C1467 1.415 . S
C1470 H1460 0.930 . S
C1470 C1468 1.419 . S
C1470 C1471 1.362 . S
C1471 H1461 0.930 . S
C1471 C1464 1.409 . S
C1471 C1470 1.362 . S
H1472 C1478 0.930 . S
H1473 C1481 0.930 . S
H1474 C1482 0.930 . S
H1475 C1483 0.930 . S
H1476 C1486 0.930 . S
H1477 C1487 0.930 . S
C1478 H1472 0.930 . S
C1478 C1479 1.355 . S
C1478 C1480 1.415 . S
C1479 C1478 1.355 . S
C1479 C1481 1.419 . S
C1480 C1478 1.415 . S
C1480 C1485 1.425 . S
C1480 C1487 1.409 . S
C1481 H1473 0.930 . S
C1481 C1479 1.419 . S
C1481 C1482 1.362 . S
C1482 H1474 0.930 . S
C1482 C1481 1.362 . S
C1482 C1485 1.409 . S
C1483 H1475 0.930 . S
C1483 C1484 1.355 . S
C1483 C1485 1.415 . S
C1484 C1483 1.355 . S
C1484 C1486 1.419 . S
C1485 C1480 1.425 . S
C1485 C1482 1.409 . S
C1485 C1483 1.415 . S
C1486 H1476 0.930 . S
C1486 C1484 1.419 . S
C1486 C1487 1.362 . S
C1487 H1477 0.930 . S
C1487 C1480 1.409 . S
C1487 C1486 1.362 . S
H1488 C1494 0.930 . S
H1489 C1497 0.930 . S
H1490 C1498 0.930 . S
H1491 C1499 0.930 . S
H1492 C1502 0.930 . S
H1493 C1503 0.930 . S
C1494 H1488 0.930 . S
C1494 C1495 1.355 . S
C1494 C1496 1.415 . S
C1495 C1494 1.355 . S
C1495 C1497 1.419 . S
C1496 C1494 1.415 . S
C1496 C1501 1.425 . S
C1496 C1503 1.409 . S
C1497 H1489 0.930 . S
C1497 C1495 1.419 . S
C1497 C1498 1.362 . S
C1498 H1490 0.930 . S
C1498 C1497 1.362 . S
C1498 C1501 1.409 . S
C1499 H1491 0.930 . S
C1499 C1500 1.355 . S
C1499 C1501 1.415 . S
C1500 C1499 1.355 . S
C1500 C1502 1.419 . S
C1501 C1496 1.425 . S
C1501 C1498 1.409 . S
C1501 C1499 1.415 . S
C1502 H1492 0.930 . S
C1502 C1500 1.419 . S
C1502 C1503 1.362 . S
C1503 H1493 0.930 . S
C1503 C1496 1.409 . S
C1503 C1502 1.362 . S
H1504 C1510 0.930 . S
H1505 C1513 0.930 . S
H1506 C1514 0.931 . S
H1507 C1515 0.930 . S
H1508 C1518 0.930 . S
H1509 C1519 0.930 . S
C1510 H1504 0.930 . S
C1510 C1511 1.355 . S
C1510 C1512 1.415 . S
C1511 C1510 1.355 . S
C1511 C1513 1.419 . S
C1512 C1510 1.415 . S
C1512 C1517 1.425 . S
C1512 C1519 1.409 . S
C1513 H1505 0.930 . S
C1513 C1511 1.419 . S
C1513 C1514 1.362 . S
C1514 H1506 0.931 . S
C1514 C1513 1.362 . S
C1514 C1517 1.409 . S
C1515 H1507 0.930 . S
C1515 C1516 1.355 . S
C1515 C1517 1.415 . S
C1516 C1515 1.355 . S
C1516 C1518 1.419 . S
C1517 C1512 1.425 . S
C1517 C1514 1.409 . S
C1517 C1515 1.415 . S
C1518 H1508 0.930 . S
C1518 C1516 1.419 . S
C1518 C1519 1.362 . S
C1519 H1509 0.930 . S
C1519 C1512 1.409 . S
C1519 C1518 1.362 . S
H1520 C1526 0.930 . S
H1521 C1529 0.930 . S
H1522 C1530 0.930 . S
H1523 C1531 0.930 . S
H1524 C1534 0.930 . S
H1525 C1535 0.930 . S
C1526 H1520 0.930 . S
C1526 C1527 1.355 . S
C1526 C1528 1.415 . S
C1527 C1526 1.355 . S
C1527 C1529 1.419 . S
C1528 C1526 1.415 . S
C1528 C1533 1.425 . S
C1528 C1535 1.409 . S
C1529 H1521 0.930 . S
C1529 C1527 1.419 . S
C1529 C1530 1.362 . S
C1530 H1522 0.930 . S
C1530 C1529 1.362 . S
C1530 C1533 1.409 . S
C1531 H1523 0.930 . S
C1531 C1532 1.355 . S
C1531 C1533 1.415 . S
C1532 C1531 1.355 . S
C1532 C1534 1.419 . S
C1533 C1528 1.425 . S
C1533 C1530 1.409 . S
C1533 C1531 1.415 . S
C1534 H1524 0.930 . S
C1534 C1532 1.419 . S
C1534 C1535 1.362 . S
C1535 H1525 0.930 . S
C1535 C1528 1.409 . S
C1535 C1534 1.362 . S
H1536 C1542 0.930 . S
H1537 C1545 0.930 . S
H1538 C1546 0.930 . S
H1539 C1547 0.930 . S
H1540 C1550 0.930 . S
H1541 C1551 0.930 . S
C1542 H1536 0.930 . S
C1542 C1543 1.355 . S
C1542 C1544 1.415 . S
C1543 C1542 1.355 . S
C1543 C1545 1.419 . S
C1544 C1542 1.415 . S
C1544 C1549 1.425 . S
C1544 C1551 1.409 . S
C1545 H1537 0.930 . S
C1545 C1543 1.419 . S
C1545 C1546 1.362 . S
C1546 H1538 0.930 . S
C1546 C1545 1.362 . S
C1546 C1549 1.409 . S
C1547 H1539 0.930 . S
C1547 C1548 1.355 . S
C1547 C1549 1.415 . S
C1548 C1547 1.355 . S
C1548 C1550 1.419 . S
C1549 C1544 1.425 . S
C1549 C1546 1.409 . S
C1549 C1547 1.415 . S
C1550 H1540 0.930 . S
C1550 C1548 1.419 . S
C1550 C1551 1.362 . S
C1551 H1541 0.930 . S
C1551 C1544 1.409 . S
C1551 C1550 1.362 . S
H1552 C1558 0.930 . S
H1553 C1561 0.930 . S
H1554 C1562 0.930 . S
H1555 C1563 0.930 . S
H1556 C1566 0.930 . S
H1557 C1567 0.930 . S
C1558 H1552 0.930 . S
C1558 C1559 1.355 . S
C1558 C1560 1.415 . S
C1559 C1558 1.355 . S
C1559 C1561 1.419 . S
C1560 C1558 1.415 . S
C1560 C1565 1.425 . S
C1560 C1567 1.409 . S
C1561 H1553 0.930 . S
C1561 C1559 1.419 . S
C1561 C1562 1.362 . S
C1562 H1554 0.930 . S
C1562 C1561 1.362 . S
C1562 C1565 1.409 . S
C1563 H1555 0.930 . S
C1563 C1564 1.355 . S
C1563 C1565 1.415 . S
C1564 C1563 1.355 . S
C1564 C1566 1.419 . S
C1565 C1560 1.425 . S
C1565 C1562 1.409 . S
C1565 C1563 1.415 . S
C1566 H1556 0.930 . S
C1566 C1564 1.419 . S
C1566 C1567 1.362 . S
C1567 H1557 0.930 . S
C1567 C1560 1.409 . S
C1567 C1566 1.362 . S
H1568 C1574 0.930 . S
H1569 C1577 0.930 . S
H1570 C1578 0.930 . S
H1571 C1579 0.930 . S
H1572 C1582 0.930 . S
H1573 C1583 0.930 . S
C1574 H1568 0.930 . S
C1574 C1575 1.355 . S
C1574 C1576 1.415 . S
C1575 C1574 1.355 . S
C1575 C1577 1.419 . S
C1576 C1574 1.415 . S
C1576 C1581 1.425 . S
C1576 C1583 1.409 . S
C1577 H1569 0.930 . S
C1577 C1575 1.419 . S
C1577 C1578 1.362 . S
C1578 H1570 0.930 . S
C1578 C1577 1.362 . S
C1578 C1581 1.409 . S
C1579 H1571 0.930 . S
C1579 C1580 1.355 . S
C1579 C1581 1.415 . S
C1580 C1579 1.355 . S
C1580 C1582 1.419 . S
C1581 C1576 1.425 . S
C1581 C1578 1.409 . S
C1581 C1579 1.415 . S
C1582 H1572 0.930 . S
C1582 C1580 1.419 . S
C1582 C1583 1.362 . S
C1583 H1573 0.930 . S
C1583 C1576 1.409 . S
C1583 C1582 1.362 . S
H1584 C1590 0.930 . S
H1585 C1593 0.930 . S
H1586 C1594 0.930 . S
H1587 C1595 0.930 . S
H1588 C1598 0.930 . S
H1589 C1599 0.930 . S
C1590 H1584 0.930 . S
C1590 C1591 1.355 . S
C1590 C1592 1.415 . S
C1591 C1590 1.355 . S
C1591 C1593 1.419 . S
C1592 C1590 1.415 . S
C1592 C1597 1.425 . S
C1592 C1599 1.409 . S
C1593 H1585 0.930 . S
C1593 C1591 1.419 . S
C1593 C1594 1.362 . S
C1594 H1586 0.930 . S
C1594 C1593 1.362 . S
C1594 C1597 1.409 . S
C1595 H1587 0.930 . S
C1595 C1596 1.355 . S
C1595 C1597 1.415 . S
C1596 C1595 1.355 . S
C1596 C1598 1.419 . S
C1597 C1592 1.425 . S
C1597 C1594 1.409 . S
C1597 C1595 1.415 . S
C1598 H1588 0.930 . S
C1598 C1596 1.419 . S
C1598 C1599 1.362 . S
C1599 H1589 0.930 . S
C1599 C1592 1.409 . S
C1599 C1598 1.362 . S
H1600 C1606 0.930 . S
H1601 C1609 0.930 . S
H1602 C1610 0.930 . S
H1603 C1611 0.930 . S
H1604 C1614 0.930 . S
H1605 C1615 0.930 . S
C1606 H1600 0.930 . S
C1606 C1607 1.355 . S
C1606 C1608 1.415 . S
C1607 C1606 1.355 . S
C1607 C1609 1.419 . S
C1608 C1606 1.415 . S
C1608 C1613 1.425 . S
C1608 C1615 1.409 . S
C1609 H1601 0.930 . S
C1609 C1607 1.419 . S
C1609 C1610 1.362 . S
C1610 H1602 0.930 . S
C1610 C1609 1.362 . S
C1610 C1613 1.409 . S
C1611 H1603 0.930 . S
C1611 C1612 1.355 . S
C1611 C1613 1.415 . S
C1612 C1611 1.355 . S
C1612 C1614 1.419 . S
C1613 C1608 1.425 . S
C1613 C1610 1.409 . S
C1613 C1611 1.415 . S
C1614 H1604 0.930 . S
C1614 C1612 1.419 . S
C1614 C1615 1.362 . S
C1615 H1605 0.930 . S
C1615 C1608 1.409 . S
C1615 C1614 1.362 . S
H1616 C1622 0.930 . S
H1617 C1625 0.930 . S
H1618 C1626 0.930 . S
H1619 C1627 0.930 . S
H1620 C1630 0.930 . S
H1621 C1631 0.930 . S
C1622 H1616 0.930 . S
C1622 C1623 1.355 . S
C1622 C1624 1.415 . S
C1623 C1622 1.355 . S
C1623 C1625 1.419 . S
C1624 C1622 1.415 . S
C1624 C1629 1.425 . S
C1624 C1631 1.409 . S
C1625 H1617 0.930 . S
C1625 C1623 1.419 . S
C1625 C1626 1.362 . S
C1626 H1618 0.930 . S
C1626 C1625 1.362 . S
C1626 C1629 1.409 . S
C1627 H1619 0.930 . S
C1627 C1628 1.355 . S
C1627 C1629 1.415 . S
C1628 C1627 1.355 . S
C1628 C1630 1.419 . S
C1629 C1624 1.425 . S
C1629 C1626 1.409 . S
C1629 C1627 1.415 . S
C1630 H1620 0.930 . S
C1630 C1628 1.419 . S
C1630 C1631 1.362 . S
C1631 H1621 0.930 . S
C1631 C1624 1.409 . S
C1631 C1630 1.362 . S
H1632 C1638 0.930 . S
H1633 C1641 0.930 . S
H1634 C1642 0.930 . S
H1635 C1643 0.930 . S
H1636 C1646 0.930 1_455 S
H1637 C1647 0.930 . S
C1638 H1632 0.930 . S
C1638 C1639 1.355 . S
C1638 C1640 1.415 . S
C1639 C1638 1.355 . S
C1639 C1641 1.419 . S
C1640 C1638 1.415 . S
C1640 C1645 1.425 . S
C1640 C1647 1.409 . S
C1641 H1633 0.930 . S
C1641 C1639 1.419 . S
C1641 C1642 1.362 . S
C1642 H1634 0.930 . S
C1642 C1641 1.362 . S
C1642 C1645 1.409 . S
C1643 H1635 0.930 . S
C1643 C1644 1.355 . S
C1643 C1645 1.415 . S
C1644 C1643 1.355 . S
C1644 C1646 1.419 . S
C1645 C1640 1.425 . S
C1645 C1642 1.409 . S
C1645 C1643 1.415 . S
C1646 H1636 0.930 1_655 S
C1646 C1644 1.419 . S
C1646 C1647 1.362 . S
C1647 H1637 0.930 . S
C1647 C1640 1.409 . S
C1647 C1646 1.362 . S
H1648 C1654 0.930 . S
H1649 C1657 0.930 . S
H1650 C1658 0.930 . S
H1651 C1659 0.930 . S
H1652 C1662 0.930 . S
H1653 C1663 0.930 . S
C1654 H1648 0.930 . S
C1654 C1655 1.355 . S
C1654 C1656 1.415 . S
C1655 C1654 1.355 . S
C1655 C1657 1.419 . S
C1656 C1654 1.415 . S
C1656 C1661 1.425 . S
C1656 C1663 1.409 . S
C1657 H1649 0.930 . S
C1657 C1655 1.419 . S
C1657 C1658 1.362 . S
C1658 H1650 0.930 . S
C1658 C1657 1.362 . S
C1658 C1661 1.409 . S
C1659 H1651 0.930 . S
C1659 C1660 1.355 . S
C1659 C1661 1.415 . S
C1660 C1659 1.355 . S
C1660 C1662 1.419 . S
C1661 C1656 1.425 . S
C1661 C1658 1.409 . S
C1661 C1659 1.415 . S
C1662 H1652 0.930 . S
C1662 C1660 1.419 . S
C1662 C1663 1.362 . S
C1663 H1653 0.930 . S
C1663 C1656 1.409 . S
C1663 C1662 1.362 . S
H1664 C1670 0.930 . S
H1665 C1673 0.930 . S
H1666 C1674 0.930 . S
H1667 C1675 0.930 . S
H1668 C1678 0.930 . S
H1669 C1679 0.930 . S
C1670 H1664 0.930 . S
C1670 C1671 1.355 . S
C1670 C1672 1.415 . S
C1671 C1670 1.355 . S
C1671 C1673 1.419 . S
C1672 C1670 1.415 . S
C1672 C1677 1.425 . S
C1672 C1679 1.409 . S
C1673 H1665 0.930 . S
C1673 C1671 1.419 . S
C1673 C1674 1.362 . S
C1674 H1666 0.930 . S
C1674 C1673 1.362 . S
C1674 C1677 1.409 . S
C1675 H1667 0.930 . S
C1675 C1676 1.355 . S
C1675 C1677 1.415 . S
C1676 C1675 1.355 . S
C1676 C1678 1.419 . S
C1677 C1672 1.425 . S
C1677 C1674 1.409 . S
C1677 C1675 1.415 . S
C1678 H1668 0.930 . S
C1678 C1676 1.419 . S
C1678 C1679 1.362 . S
C1679 H1669 0.930 . S
C1679 C1672 1.409 . S
C1679 C1678 1.362 . S
H1680 C1686 0.930 . S
H1681 C1689 0.930 . S
H1682 C1690 0.930 . S
H1683 C1691 0.930 . S
H1684 C1694 0.930 . S
H1685 C1695 0.930 . S
C1686 H1680 0.930 . S
C1686 C1687 1.355 . S
C1686 C1688 1.415 . S
C1687 C1686 1.355 . S
C1687 C1689 1.419 . S
C1688 C1686 1.415 . S
C1688 C1693 1.425 . S
C1688 C1695 1.409 . S
C1689 H1681 0.930 . S
C1689 C1687 1.419 . S
C1689 C1690 1.362 . S
C1690 H1682 0.930 . S
C1690 C1689 1.362 . S
C1690 C1693 1.409 . S
C1691 H1683 0.930 . S
C1691 C1692 1.355 . S
C1691 C1693 1.415 . S
C1692 C1691 1.355 . S
C1692 C1694 1.419 . S
C1693 C1688 1.425 . S
C1693 C1690 1.409 . S
C1693 C1691 1.415 . S
C1694 H1684 0.930 . S
C1694 C1692 1.419 . S
C1694 C1695 1.362 . S
C1695 H1685 0.930 . S
C1695 C1688 1.409 . S
C1695 C1694 1.362 . S
H1696 C1702 0.930 . S
H1697 C1705 0.930 1_455 S
H1698 C1706 0.930 . S
H1699 C1707 0.930 . S
H1700 C1710 0.930 . S
H1701 C1711 0.930 . S
C1702 H1696 0.930 . S
C1702 C1703 1.355 . S
C1702 C1704 1.415 . S
C1703 C1702 1.355 . S
C1703 C1705 1.419 . S
C1704 C1702 1.415 . S
C1704 C1709 1.425 . S
C1704 C1711 1.409 . S
C1705 H1697 0.930 1_655 S
C1705 C1703 1.419 . S
C1705 C1706 1.362 . S
C1706 H1698 0.930 . S
C1706 C1705 1.362 . S
C1706 C1709 1.409 . S
C1707 H1699 0.930 . S
C1707 C1708 1.355 . S
C1707 C1709 1.415 . S
C1708 C1707 1.355 . S
C1708 C1710 1.419 . S
C1709 C1704 1.425 . S
C1709 C1706 1.409 . S
C1709 C1707 1.415 . S
C1710 H1700 0.930 . S
C1710 C1708 1.419 . S
C1710 C1711 1.362 . S
C1711 H1701 0.930 . S
C1711 C1704 1.409 . S
C1711 C1710 1.362 . S
H1712 C1718 0.930 . S
H1713 C1721 0.930 . S
H1714 C1722 0.930 . S
H1715 C1723 0.930 . S
H1716 C1726 0.930 . S
H1717 C1727 0.930 . S
C1718 H1712 0.930 . S
C1718 C1719 1.355 . S
C1718 C1720 1.415 . S
C1719 C1718 1.355 . S
C1719 C1721 1.419 . S
C1720 C1718 1.415 . S
C1720 C1725 1.425 . S
C1720 C1727 1.409 . S
C1721 H1713 0.930 . S
C1721 C1719 1.419 . S
C1721 C1722 1.362 . S
C1722 H1714 0.930 . S
C1722 C1721 1.362 . S
C1722 C1725 1.409 . S
C1723 H1715 0.930 . S
C1723 C1724 1.355 . S
C1723 C1725 1.415 . S
C1724 C1723 1.355 . S
C1724 C1726 1.419 . S
C1725 C1720 1.425 . S
C1725 C1722 1.409 . S
C1725 C1723 1.415 . S
C1726 H1716 0.930 . S
C1726 C1724 1.419 . S
C1726 C1727 1.362 . S
C1727 H1717 0.930 . S
C1727 C1720 1.409 . S
C1727 C1726 1.362 . S
H1728 C1734 0.930 . S
H1729 C1737 0.930 . S
H1730 C1738 0.930 . S
H1731 C1739 0.930 . S
H1732 C1742 0.930 . S
H1733 C1743 0.930 . S
C1734 H1728 0.930 . S
C1734 C1735 1.355 . S
C1734 C1736 1.415 . S
C1735 C1734 1.355 . S
C1735 C1737 1.419 . S
C1736 C1734 1.415 . S
C1736 C1741 1.425 . S
C1736 C1743 1.409 . S
C1737 H1729 0.930 . S
C1737 C1735 1.419 . S
C1737 C1738 1.362 . S
C1738 H1730 0.930 . S
C1738 C1737 1.362 . S
C1738 C1741 1.409 . S
C1739 H1731 0.930 . S
C1739 C1740 1.355 . S
C1739 C1741 1.415 . S
C1740 C1739 1.355 . S
C1740 C1742 1.419 . S
C1741 C1736 1.425 . S
C1741 C1738 1.409 . S
C1741 C1739 1.415 . S
C1742 H1732 0.930 . S
C1742 C1740 1.419 . S
C1742 C1743 1.362 . S
C1743 H1733 0.930 . S
C1743 C1736 1.409 . S
C1743 C1742 1.362 . S
H1744 C1750 0.930 . S
H1745 C1753 0.930 . S
H1746 C1754 0.930 . S
H1747 C1755 0.930 . S
H1748 C1758 0.930 . S
H1749 C1759 0.930 . S
C1750 H1744 0.930 . S
C1750 C1751 1.355 . S
C1750 C1752 1.415 . S
C1751 C1750 1.355 . S
C1751 C1753 1.419 . S
C1752 C1750 1.415 . S
C1752 C1757 1.425 . S
C1752 C1759 1.409 . S
C1753 H1745 0.930 . S
C1753 C1751 1.419 . S
C1753 C1754 1.362 . S
C1754 H1746 0.930 . S
C1754 C1753 1.362 . S
C1754 C1757 1.409 . S
C1755 H1747 0.930 . S
C1755 C1756 1.355 . S
C1755 C1757 1.415 . S
C1756 C1755 1.355 . S
C1756 C1758 1.419 . S
C1757 C1752 1.425 . S
C1757 C1754 1.409 . S
C1757 C1755 1.415 . S
C1758 H1748 0.930 . S
C1758 C1756 1.419 . S
C1758 C1759 1.362 . S
C1759 H1749 0.930 . S
C1759 C1752 1.409 . S
C1759 C1758 1.362 . S
H1760 C1766 0.930 . S
H1761 C1769 0.930 . S
H1762 C1770 0.930 . S
H1763 C1771 0.930 . S
H1764 C1774 0.930 . S
H1765 C1775 0.930 . S
C1766 H1760 0.930 . S
C1766 C1767 1.355 . S
C1766 C1768 1.415 . S
C1767 C1766 1.355 . S
C1767 C1769 1.419 . S
C1768 C1766 1.415 . S
C1768 C1773 1.425 . S
C1768 C1775 1.409 . S
C1769 H1761 0.930 . S
C1769 C1767 1.419 . S
C1769 C1770 1.362 . S
C1770 H1762 0.930 . S
C1770 C1769 1.362 . S
C1770 C1773 1.409 . S
C1771 H1763 0.930 . S
C1771 C1772 1.355 . S
C1771 C1773 1.415 . S
C1772 C1771 1.355 . S
C1772 C1774 1.419 . S
C1773 C1768 1.425 . S
C1773 C1770 1.409 . S
C1773 C1771 1.415 . S
C1774 H1764 0.930 . S
C1774 C1772 1.419 . S
C1774 C1775 1.362 . S
C1775 H1765 0.930 . S
C1775 C1768 1.409 . S
C1775 C1774 1.362 . S
H1776 C1782 0.930 . S
H1777 C1785 0.930 . S
H1778 C1786 0.930 . S
H1779 C1787 0.930 . S
H1780 C1790 0.930 . S
H1781 C1791 0.930 . S
C1782 H1776 0.930 . S
C1782 C1783 1.355 . S
C1782 C1784 1.415 . S
C1783 C1782 1.355 . S
C1783 C1785 1.419 . S
C1784 C1782 1.415 . S
C1784 C1789 1.425 . S
C1784 C1791 1.409 . S
C1785 H1777 0.930 . S
C1785 C1783 1.419 . S
C1785 C1786 1.362 . S
C1786 H1778 0.930 . S
C1786 C1785 1.362 . S
C1786 C1789 1.409 . S
C1787 H1779 0.930 . S
C1787 C1788 1.355 . S
C1787 C1789 1.415 . S
C1788 C1787 1.355 . S
C1788 C1790 1.419 . S
C1789 C1784 1.425 . S
C1789 C1786 1.409 . S
C1789 C1787 1.415 . S
C1790 H1780 0.930 . S
C1790 C1788 1.419 . S
C1790 C1791 1.362 . S
C1791 H1781 0.930 . S
C1791 C1784 1.409 . S
C1791 C1790 1.362 . S
H1792 C1798 0.930 . S
H1793 C1801 0.930 . S
H1794 C1802 0.930 . S
H1795 C1803 0.930 . S
H1796 C1806 0.930 . S
H1797 C1807 0.930 . S
C1798 H1792 0.930 . S
C1798 C1799 1.355 . S
C1798 C1800 1.415 . S
C1799 C1798 1.355 . S
C1799 C1801 1.419 . S
C1800 C1798 1.415 . S
C1800 C1805 1.425 . S
C1800 C1807 1.409 . S
C1801 H1793 0.930 . S
C1801 C1799 1.419 . S
C1801 C1802 1.362 . S
C1802 H1794 0.930 . S
C1802 C1801 1.362 . S
C1802 C1805 1.409 . S
C1803 H1795 0.930 . S
C1803 C1804 1.355 . S
C1803 C1805 1.415 . S
C1804 C1803 1.355 . S
C1804 C1806 1.419 . S
C1805 C1800 1.425 . S
C1805 C1802 1.409 . S
C1805 C1803 1.415 . S
C1806 H1796 0.930 . S
C1806 C1804 1.419 . S
C1806 C1807 1.362 . S
C1807 H1797 0.930 . S
C1807 C1800 1.409 . S
C1807 C1806 1.362 . S
H1808 C1814 0.930 . S
H1809 C1817 0.930 . S
H1810 C1818 0.930 . S
H1811 C1819 0.930 . S
H1812 C1822 0.930 . S
H1813 C1823 0.930 . S
C1814 H1808 0.930 . S
C1814 C1815 1.355 . S
C1814 C1816 1.415 . S
C1815 C1814 1.355 . S
C1815 C1817 1.419 . S
C1816 C1814 1.415 . S
C1816 C1821 1.425 . S
C1816 C1823 1.409 . S
C1817 H1809 0.930 . S
C1817 C1815 1.419 . S
C1817 C1818 1.362 . S
C1818 H1810 0.930 . S
C1818 C1817 1.362 . S
C1818 C1821 1.409 . S
C1819 H1811 0.930 . S
C1819 C1820 1.355 . S
C1819 C1821 1.415 . S
C1820 C1819 1.355 . S
C1820 C1822 1.419 . S
C1821 C1816 1.425 . S
C1821 C1818 1.409 . S
C1821 C1819 1.415 . S
C1822 H1812 0.930 . S
C1822 C1820 1.419 . S
C1822 C1823 1.362 . S
C1823 H1813 0.930 . S
C1823 C1816 1.409 . S
C1823 C1822 1.362 . S
H1824 C1830 0.930 . S
H1825 C1833 0.930 . S
H1826 C1834 0.930 . S
H1827 C1835 0.930 . S
H1828 C1838 0.930 . S
H1829 C1839 0.930 . S
C1830 H1824 0.930 . S
C1830 C1831 1.355 . S
C1830 C1832 1.415 . S
C1831 C1830 1.355 . S
C1831 C1833 1.419 . S
C1832 C1830 1.415 . S
C1832 C1837 1.425 . S
C1832 C1839 1.409 . S
C1833 H1825 0.930 . S
C1833 C1831 1.419 . S
C1833 C1834 1.362 . S
C1834 H1826 0.930 . S
C1834 C1833 1.362 . S
C1834 C1837 1.409 . S
C1835 H1827 0.930 . S
C1835 C1836 1.355 . S
C1835 C1837 1.415 . S
C1836 C1835 1.355 . S
C1836 C1838 1.419 . S
C1837 C1832 1.425 . S
C1837 C1834 1.409 . S
C1837 C1835 1.415 . S
C1838 H1828 0.930 . S
C1838 C1836 1.419 . S
C1838 C1839 1.362 . S
C1839 H1829 0.930 . S
C1839 C1832 1.409 . S
C1839 C1838 1.362 . S
H1840 C1846 0.930 . S
H1841 C1849 0.930 . S
H1842 C1850 0.930 . S
H1843 C1851 0.930 . S
H1844 C1854 0.930 . S
H1845 C1855 0.930 . S
C1846 H1840 0.930 . S
C1846 C1847 1.355 . S
C1846 C1848 1.415 . S
C1847 C1846 1.355 . S
C1847 C1849 1.419 . S
C1848 C1846 1.415 . S
C1848 C1853 1.425 . S
C1848 C1855 1.409 . S
C1849 H1841 0.930 . S
C1849 C1847 1.419 . S
C1849 C1850 1.362 . S
C1850 H1842 0.930 . S
C1850 C1849 1.362 . S
C1850 C1853 1.409 . S
C1851 H1843 0.930 . S
C1851 C1852 1.355 . S
C1851 C1853 1.415 . S
C1852 C1851 1.355 . S
C1852 C1854 1.419 . S
C1853 C1848 1.425 . S
C1853 C1850 1.409 . S
C1853 C1851 1.415 . S
C1854 H1844 0.930 . S
C1854 C1852 1.419 . S
C1854 C1855 1.362 . S
C1855 H1845 0.930 . S
C1855 C1848 1.409 . S
C1855 C1854 1.362 . S
H1856 C1862 0.930 . S
H1857 C1865 0.930 . S
H1858 C1866 0.930 . S
H1859 C1867 0.930 . S
H1860 C1870 0.930 . S
H1861 C1871 0.930 . S
C1862 H1856 0.930 . S
C1862 C1863 1.355 . S
C1862 C1864 1.415 . S
C1863 C1862 1.355 . S
C1863 C1865 1.419 . S
C1864 C1862 1.415 . S
C1864 C1869 1.425 . S
C1864 C1871 1.409 . S
C1865 H1857 0.930 . S
C1865 C1863 1.419 . S
C1865 C1866 1.362 . S
C1866 H1858 0.930 . S
C1866 C1865 1.362 . S
C1866 C1869 1.409 . S
C1867 H1859 0.930 . S
C1867 C1868 1.355 . S
C1867 C1869 1.415 . S
C1868 C1867 1.355 . S
C1868 C1870 1.419 . S
C1869 C1864 1.425 . S
C1869 C1866 1.409 . S
C1869 C1867 1.415 . S
C1870 H1860 0.930 . S
C1870 C1868 1.419 . S
C1870 C1871 1.362 . S
C1871 H1861 0.930 . S
C1871 C1864 1.409 . S
C1871 C1870 1.362 . S
H1872 C1878 0.930 . S
H1873 C1881 0.930 . S
H1874 C1882 0.930 . S
H1875 C1883 0.930 . S
H1876 C1886 0.930 . S
H1877 C1887 0.930 . S
C1878 H1872 0.930 . S
C1878 C1879 1.355 . S
C1878 C1880 1.415 . S
C1879 C1878 1.355 . S
C1879 C1881 1.419 . S
C1880 C1878 1.415 . S
C1880 C1885 1.425 . S
C1880 C1887 1.409 . S
C1881 H1873 0.930 . S
C1881 C1879 1.419 . S
C1881 C1882 1.362 . S
C1882 H1874 0.930 . S
C1882 C1881 1.362 . S
C1882 C1885 1.409 . S
C1883 H1875 0.930 . S
C1883 C1884 1.355 . S
C1883 C1885 1.415 . S
C1884 C1883 1.355 . S
C1884 C1886 1.419 . S
C1885 C1880 1.425 . S
C1885 C1882 1.409 . S
C1885 C1883 1.415 . S
C1886 H1876 0.930 . S
C1886 C1884 1.419 . S
C1886 C1887 1.362 . S
C1887 H1877 0.930 . S
C1887 C1880 1.409 . S
C1887 C1886 1.362 . S
H1888 C1894 0.930 . S
H1889 C1897 0.930 . S
H1890 C1898 0.930 . S
H1891 C1899 0.930 . S
H1892 C1902 0.930 . S
H1893 C1903 0.930 . S
C1894 H1888 0.930 . S
C1894 C1895 1.355 . S
C1894 C1896 1.415 . S
C1895 C1894 1.355 . S
C1895 C1897 1.419 . S
C1896 C1894 1.415 . S
C1896 C1901 1.425 . S
C1896 C1903 1.409 . S
C1897 H1889 0.930 . S
C1897 C1895 1.419 . S
C1897 C1898 1.362 . S
C1898 H1890 0.930 . S
C1898 C1897 1.362 . S
C1898 C1901 1.409 . S
C1899 H1891 0.930 . S
C1899 C1900 1.355 . S
C1899 C1901 1.415 . S
C1900 C1899 1.355 . S
C1900 C1902 1.419 . S
C1901 C1896 1.425 . S
C1901 C1898 1.409 . S
C1901 C1899 1.415 . S
C1902 H1892 0.930 . S
C1902 C1900 1.419 . S
C1902 C1903 1.362 . S
C1903 H1893 0.930 . S
C1903 C1896 1.409 . S
C1903 C1902 1.362 . S
H1904 C1910 0.930 . S
H1905 C1913 0.930 . S
H1906 C1914 0.930 . S
H1907 C1915 0.930 . S
H1908 C1918 0.930 . S
H1909 C1919 0.930 . S
C1910 H1904 0.930 . S
C1910 C1911 1.355 . S
C1910 C1912 1.415 . S
C1911 C1910 1.355 . S
C1911 C1913 1.419 . S
C1912 C1910 1.415 . S
C1912 C1917 1.425 . S
C1912 C1919 1.409 . S
C1913 H1905 0.930 . S
C1913 C1911 1.419 . S
C1913 C1914 1.362 . S
C1914 H1906 0.930 . S
C1914 C1913 1.362 . S
C1914 C1917 1.409 . S
C1915 H1907 0.930 . S
C1915 C1916 1.355 . S
C1915 C1917 1.415 . S
C1916 C1915 1.355 . S
C1916 C1918 1.419 . S
C1917 C1912 1.425 . S
C1917 C1914 1.409 . S
C1917 C1915 1.415 . S
C1918 H1908 0.930 . S
C1918 C1916 1.419 . S
C1918 C1919 1.362 . S
C1919 H1909 0.930 . S
C1919 C1912 1.409 . S
C1919 C1918 1.362 . S
H1920 C1926 0.930 . S
H1921 C1929 0.930 . S
H1922 C1930 0.930 . S
H1923 C1931 0.930 . S
H1924 C1934 0.930 . S
H1925 C1935 0.930 . S
C1926 H1920 0.930 . S
C1926 C1927 1.355 . S
C1926 C1928 1.415 . S
C1927 C1926 1.355 . S
C1927 C1929 1.419 . S
C1928 C1926 1.415 . S
C1928 C1933 1.425 . S
C1928 C1935 1.409 . S
C1929 H1921 0.930 . S
C1929 C1927 1.419 . S
C1929 C1930 1.362 . S
C1930 H1922 0.930 . S
C1930 C1929 1.362 . S
C1930 C1933 1.409 . S
C1931 H1923 0.930 . S
C1931 C1932 1.355 . S
C1931 C1933 1.415 . S
C1932 C1931 1.355 . S
C1932 C1934 1.419 . S
C1933 C1928 1.425 . S
C1933 C1930 1.409 . S
C1933 C1931 1.415 . S
C1934 H1924 0.930 . S
C1934 C1932 1.419 . S
C1934 C1935 1.362 . S
C1935 H1925 0.930 . S
C1935 C1928 1.409 . S
C1935 C1934 1.362 . S
H1936 C1942 0.930 . S
H1937 C1945 0.930 . S
H1938 C1946 0.930 . S
H1939 C1947 0.930 . S
H1940 C1950 0.930 . S
H1941 C1951 0.930 . S
C1942 H1936 0.930 . S
C1942 C1943 1.355 . S
C1942 C1944 1.415 . S
C1943 C1942 1.355 . S
C1943 C1945 1.419 . S
C1944 C1942 1.415 . S
C1944 C1949 1.425 . S
C1944 C1951 1.409 . S
C1945 H1937 0.930 . S
C1945 C1943 1.419 . S
C1945 C1946 1.362 . S
C1946 H1938 0.930 . S
C1946 C1945 1.362 . S
C1946 C1949 1.409 . S
C1947 H1939 0.930 . S
C1947 C1948 1.355 . S
C1947 C1949 1.415 . S
C1948 C1947 1.355 . S
C1948 C1950 1.419 . S
C1949 C1944 1.425 . S
C1949 C1946 1.409 . S
C1949 C1947 1.415 . S
C1950 H1940 0.930 . S
C1950 C1948 1.419 . S
C1950 C1951 1.362 . S
C1951 H1941 0.930 . S
C1951 C1944 1.409 . S
C1951 C1950 1.362 . S
H1952 C1958 0.930 . S
H1953 C1961 0.930 . S
H1954 C1962 0.930 . S
H1955 C1963 0.930 . S
H1956 C1966 0.930 . S
H1957 C1967 0.930 . S
C1958 H1952 0.930 . S
C1958 C1959 1.355 . S
C1958 C1960 1.415 . S
C1959 C1958 1.355 . S
C1959 C1961 1.419 . S
C1960 C1958 1.415 . S
C1960 C1965 1.425 . S
C1960 C1967 1.409 . S
C1961 H1953 0.930 . S
C1961 C1959 1.419 . S
C1961 C1962 1.362 . S
C1962 H1954 0.930 . S
C1962 C1961 1.362 . S
C1962 C1965 1.409 . S
C1963 H1955 0.930 . S
C1963 C1964 1.355 . S
C1963 C1965 1.415 . S
C1964 C1963 1.355 . S
C1964 C1966 1.419 . S
C1965 C1960 1.425 . S
C1965 C1962 1.409 . S
C1965 C1963 1.415 . S
C1966 H1956 0.930 . S
C1966 C1964 1.419 . S
C1966 C1967 1.362 . S
C1967 H1957 0.930 . S
C1967 C1960 1.409 . S
C1967 C1966 1.362 . S
H1968 C1974 0.930 . S
H1969 C1977 0.930 . S
H1970 C1978 0.930 . S
H1971 C1979 0.930 . S
H1972 C1982 0.930 . S
H1973 C1983 0.930 . S
C1974 H1968 0.930 . S
C1974 C1975 1.355 . S
C1974 C1976 1.415 . S
C1975 C1974 1.355 . S
C1975 C1977 1.419 . S
C1976 C1974 1.415 . S
C1976 C1981 1.425 . S
C1976 C1983 1.409 . S
C1977 H1969 0.930 . S
C1977 C1975 1.419 . S
C1977 C1978 1.362 . S
C1978 H1970 0.930 . S
C1978 C1977 1.362 . S
C1978 C1981 1.409 . S
C1979 H1971 0.930 . S
C1979 C1980 1.355 . S
C1979 C1981 1.415 . S
C1980 C1979 1.355 . S
C1980 C1982 1.419 . S
C1981 C1976 1.425 . S
C1981 C1978 1.409 . S
C1981 C1979 1.415 . S
C1982 H1972 0.930 . S
C1982 C1980 1.419 . S
C1982 C1983 1.362 . S
C1983 H1973 0.930 . S
C1983 C1976 1.409 . S
C1983 C1982 1.362 . S
H1984 C1990 0.930 . S
H1985 C1993 0.930 . S
H1986 C1994 0.930 . S
H1987 C1995 0.930 . S
H1988 C1998 0.930 . S
H1989 C1999 0.930 . S
C1990 H1984 0.930 . S
C1990 C1991 1.355 . S
C1990 C1992 1.415 . S
C1991 C1990 1.355 . S
C1991 C1993 1.419 . S
C1992 C1990 1.415 . S
C1992 C1997 1.425 . S
C1992 C1999 1.409 . S
C1993 H1985 0.930 . S
C1993 C1991 1.419 . S
C1993 C1994 1.362 . S
C1994 H1986 0.930 . S
C1994 C1993 1.362 . S
C1994 C1997 1.409 . S
C1995 H1987 0.930 . S
C1995 C1996 1.355 . S
C1995 C1997 1.415 . S
C1996 C1995 1.355 . S
C1996 C1998 1.419 . S
C1997 C1992 1.425 . S
C1997 C1994 1.409 . S
C1997 C1995 1.415 . S
C1998 H1988 0.930 . S
C1998 C1996 1.419 . S
C1998 C1999 1.362 . S
C1999 H1989 0.930 . S
C1999 C1992 1.409 . S
C1999 C1998 1.362 . S
H2000 C2006 0.930 . S
H2001 C2009 0.930 . S
H2002 C2010 0.930 . S
H2003 C2011 0.930 . S
H2004 C2014 0.930 . S
H2005 C2015 0.930 . S
C2006 H2000 0.930 . S
C2006 C2007 1.355 . S
C2006 C2008 1.415 . S
C2007 C2006 1.355 . S
C2007 C2009 1.419 . S
C2008 C2006 1.415 . S
C2008 C2013 1.425 . S
C2008 C2015 1.409 . S
C2009 H2001 0.930 . S
C2009 C2007 1.419 . S
C2009 C2010 1.362 . S
C2010 H2002 0.930 . S
C2010 C2009 1.362 . S
C2010 C2013 1.409 . S
C2011 H2003 0.930 . S
C2011 C2012 1.355 . S
C2011 C2013 1.415 . S
C2012 C2011 1.355 . S
C2012 C2014 1.419 . S
C2013 C2008 1.425 . S
C2013 C2010 1.409 . S
C2013 C2011 1.415 . S
C2014 H2004 0.930 . S
C2014 C2012 1.419 . S
C2014 C2015 1.362 . S
C2015 H2005 0.930 . S
C2015 C2008 1.409 . S
C2015 C2014 1.362 . S
H2016 C2022 0.930 . S
H2017 C2025 0.930 . S
H2018 C2026 0.930 . S
H2019 C2027 0.930 . S
H2020 C2030 0.930 . S
H2021 C2031 0.930 . S
C2022 H2016 0.930 . S
C2022 C2023 1.355 . S
C2022 C2024 1.415 . S
C2023 C2022 1.355 . S
C2023 C2025 1.419 . S
C2024 C2022 1.415 . S
C2024 C2029 1.425 . S
C2024 C2031 1.409 . S
C2025 H2017 0.930 . S
C2025 C2023 1.419 . S
C2025 C2026 1.362 . S
C2026 H2018 0.930 . S
C2026 C2025 1.362 . S
C2026 C2029 1.409 . S
C2027 H2019 0.930 . S
C2027 C2028 1.355 . S
C2027 C2029 1.415 . S
C2028 C2027 1.355 . S
C2028 C2030 1.419 . S
C2029 C2024 1.425 . S
C2029 C2026 1.409 . S
C2029 C2027 1.415 . S
C2030 H2020 0.930 . S
C2030 C2028 1.419 . S
C2030 C2031 1.362 . S
C2031 H2021 0.930 . S
C2031 C2024 1.409 . S
C2031 C2030 1.362 . S
H2032 C2038 0.930 . S
H2033 C2041 0.930 . S
H2034 C2042 0.930 . S
H2035 C2043 0.930 . S
H2036 C2046 0.930 . S
H2037 C2047 0.930 . S
C2038 H2032 0.930 . S
C2038 C2039 1.355 . S
C2038 C2040 1.415 . S
C2039 C2038 1.355 . S
C2039 C2041 1.419 . S
C2040 C2038 1.415 . S
C2040 C2045 1.425 . S
C2040 C2047 1.409 . S
C2041 H2033 0.930 . S
C2041 C2039 1.419 . S
C2041 C2042 1.362 . S
C2042 H2034 0.930 . S
C2042 C2041 1.362 . S
C2042 C2045 1.409 . S
C2043 H2035 0.930 . S
C2043 C2044 1.355 . S
C2043 C2045 1.415 . S
C2044 C2043 1.355 . S
C2044 C2046 1.419 . S
C2045 C2040 1.425 . S
C2045 C2042 1.409 . S
C2045 C2043 1.415 . S
C2046 H2036 0.930 . S
C2046 C2044 1.419 . S
C2046 C2047 1.362 . S
C2047 H2037 0.930 . S
C2047 C2040 1.409 . S
C2047 C2046 1.362 . S
H2048 C2054 0.930 . S
H2049 C2057 0.930 . S
H2050 C2058 0.930 . S
H2051 C2059 0.930 . S
H2052 C2062 0.930 . S
H2053 C2063 0.930 . S
C2054 H2048 0.930 . S
C2054 C2055 1.355 . S
C2054 C2056 1.415 . S
C2055 C2054 1.355 . S
C2055 C2057 1.419 . S
C2056 C2054 1.415 . S
C2056 C2061 1.425 . S
C2056 C2063 1.409 . S
C2057 H2049 0.930 . S
C2057 C2055 1.419 . S
C2057 C2058 1.362 . S
C2058 H2050 0.930 . S
C2058 C2057 1.362 . S
C2058 C2061 1.409 . S
C2059 H2051 0.930 . S
C2059 C2060 1.355 . S
C2059 C2061 1.415 . S
C2060 C2059 1.355 . S
C2060 C2062 1.419 . S
C2061 C2056 1.425 . S
C2061 C2058 1.409 . S
C2061 C2059 1.415 . S
C2062 H2052 0.930 . S
C2062 C2060 1.419 . S
C2062 C2063 1.362 . S
C2063 H2053 0.930 . S
C2063 C2056 1.409 . S
C2063 C2062 1.362 . S
H2064 C2070 0.930 . S
H2065 C2073 0.930 . S
H2066 C2074 0.930 . S
H2067 C2075 0.930 . S
H2068 C2078 0.930 . S
H2069 C2079 0.930 . S
C2070 H2064 0.930 . S
C2070 C2071 1.355 . S
C2070 C2072 1.415 . S
C2071 C2070 1.355 . S
C2071 C2073 1.419 . S
C2072 C2070 1.415 . S
C2072 C2077 1.425 . S
C2072 C2079 1.409 . S
C2073 H2065 0.930 . S
C2073 C2071 1.419 . S
C2073 C2074 1.362 . S
C2074 H2066 0.930 . S
C2074 C2073 1.362 . S
C2074 C2077 1.409 . S
C2075 H2067 0.930 . S
C2075 C2076 1.355 . S
C2075 C2077 1.415 . S
C2076 C2075 1.355 . S
C2076 C2078 1.419 . S
C2077 C2072 1.425 . S
C2077 C2074 1.409 . S
C2077 C2075 1.415 . S
C2078 H2068 0.930 . S
C2078 C2076 1.419 . S
C2078 C2079 1.362 . S
C2079 H2069 0.930 . S
C2079 C2072 1.409 . S
C2079 C2078 1.362 . S
H2080 C2086 0.930 . S
H2081 C2089 0.930 . S
H2082 C2090 0.930 . S
H2083 C2091 0.930 . S
H2084 C2094 0.930 . S
H2085 C2095 0.930 . S
C2086 H2080 0.930 . S
C2086 C2087 1.355 . S
C2086 C2088 1.415 . S
C2087 C2086 1.355 . S
C2087 C2089 1.419 . S
C2088 C2086 1.415 . S
C2088 C2093 1.425 . S
C2088 C2095 1.409 . S
C2089 H2081 0.930 . S
C2089 C2087 1.419 . S
C2089 C2090 1.362 . S
C2090 H2082 0.930 . S
C2090 C2089 1.362 . S
C2090 C2093 1.409 . S
C2091 H2083 0.930 . S
C2091 C2092 1.355 . S
C2091 C2093 1.415 . S
C2092 C2091 1.355 . S
C2092 C2094 1.419 . S
C2093 C2088 1.425 . S
C2093 C2090 1.409 . S
C2093 C2091 1.415 . S
C2094 H2084 0.930 . S
C2094 C2092 1.419 . S
C2094 C2095 1.362 . S
C2095 H2085 0.930 . S
C2095 C2088 1.409 . S
C2095 C2094 1.362 . S
H2096 C2102 0.930 . S
H2097 C2105 0.930 . S
H2098 C2106 0.930 . S
H2099 C2107 0.930 . S
H2100 C2110 0.930 . S
H2101 C2111 0.930 . S
C2102 H2096 0.930 . S
C2102 C2103 1.355 . S
C2102 C2104 1.415 . S
C2103 C2102 1.355 . S
C2103 C2105 1.419 . S
C2104 C2102 1.415 . S
C2104 C2109 1.425 . S
C2104 C2111 1.409 . S
C2105 H2097 0.930 . S
C2105 C2103 1.419 . S
C2105 C2106 1.362 . S
C2106 H2098 0.930 . S
C2106 C2105 1.362 . S
C2106 C2109 1.409 . S
C2107 H2099 0.930 . S
C2107 C2108 1.355 . S
C2107 C2109 1.415 . S
C2108 C2107 1.355 . S
C2108 C2110 1.419 . S
C2109 C2104 1.425 . S
C2109 C2106 1.409 . S
C2109 C2107 1.415 . S
C2110 H2100 0.930 . S
C2110 C2108 1.419 . S
C2110 C2111 1.362 . S
C2111 H2101 0.930 . S
C2111 C2104 1.409 . S
C2111 C2110 1.362 . S
H2112 C2118 0.930 . S
H2113 C2121 0.930 . S
H2114 C2122 0.930 . S
H2115 C2123 0.930 . S
H2116 C2126 0.930 . S
H2117 C2127 0.930 . S
C2118 H2112 0.930 . S
C2118 C2119 1.355 . S
C2118 C2120 1.415 . S
C2119 C2118 1.355 . S
C2119 C2121 1.419 . S
C2120 C2118 1.415 . S
C2120 C2125 1.425 . S
C2120 C2127 1.409 . S
C2121 H2113 0.930 . S
C2121 C2119 1.419 . S
C2121 C2122 1.362 . S
C2122 H2114 0.930 . S
C2122 C2121 1.362 . S
C2122 C2125 1.409 . S
C2123 H2115 0.930 . S
C2123 C2124 1.355 . S
C2123 C2125 1.415 . S
C2124 C2123 1.355 . S
C2124 C2126 1.419 . S
C2125 C2120 1.425 . S
C2125 C2122 1.409 . S
C2125 C2123 1.415 . S
C2126 H2116 0.930 . S
C2126 C2124 1.419 . S
C2126 C2127 1.362 . S
C2127 H2117 0.930 . S
C2127 C2120 1.409 . S
C2127 C2126 1.362 . S
H2128 C2134 0.930 . S
H2129 C2137 0.930 . S
H2130 C2138 0.930 . S
H2131 C2139 0.930 . S
H2132 C2142 0.930 . S
H2133 C2143 0.930 . S
C2134 H2128 0.930 . S
C2134 C2135 1.355 . S
C2134 C2136 1.415 . S
C2135 C2134 1.355 . S
C2135 C2137 1.419 . S
C2136 C2134 1.415 . S
C2136 C2141 1.425 . S
C2136 C2143 1.409 . S
C2137 H2129 0.930 . S
C2137 C2135 1.419 . S
C2137 C2138 1.362 . S
C2138 H2130 0.930 . S
C2138 C2137 1.362 . S
C2138 C2141 1.409 . S
C2139 H2131 0.930 . S
C2139 C2140 1.355 . S
C2139 C2141 1.415 . S
C2140 C2139 1.355 . S
C2140 C2142 1.419 . S
C2141 C2136 1.425 . S
C2141 C2138 1.409 . S
C2141 C2139 1.415 . S
C2142 H2132 0.930 . S
C2142 C2140 1.419 . S
C2142 C2143 1.362 . S
C2143 H2133 0.930 . S
C2143 C2136 1.409 . S
C2143 C2142 1.362 . S
H2144 C2150 0.930 . S
H2145 C2153 0.930 . S
H2146 C2154 0.930 . S
H2147 C2155 0.930 . S
H2148 C2158 0.930 . S
H2149 C2159 0.930 . S
C2150 H2144 0.930 . S
C2150 C2151 1.355 . S
C2150 C2152 1.415 . S
C2151 C2150 1.355 . S
C2151 C2153 1.419 . S
C2152 C2150 1.415 . S
C2152 C2157 1.425 . S
C2152 C2159 1.409 . S
C2153 H2145 0.930 . S
C2153 C2151 1.419 . S
C2153 C2154 1.362 . S
C2154 H2146 0.930 . S
C2154 C2153 1.362 . S
C2154 C2157 1.409 . S
C2155 H2147 0.930 . S
C2155 C2156 1.355 . S
C2155 C2157 1.415 . S
C2156 C2155 1.355 . S
C2156 C2158 1.419 . S
C2157 C2152 1.425 . S
C2157 C2154 1.409 . S
C2157 C2155 1.415 . S
C2158 H2148 0.930 . S
C2158 C2156 1.419 . S
C2158 C2159 1.362 . S
C2159 H2149 0.930 . S
C2159 C2152 1.409 . S
C2159 C2158 1.362 . S
H2160 C2166 0.930 . S
H2161 C2169 0.930 . S
H2162 C2170 0.930 . S
H2163 C2171 0.930 . S
H2164 C2174 0.930 . S
H2165 C2175 0.930 . S
C2166 H2160 0.930 . S
C2166 C2167 1.355 . S
C2166 C2168 1.415 . S
C2167 C2166 1.355 . S
C2167 C2169 1.419 . S
C2168 C2166 1.415 . S
C2168 C2173 1.425 . S
C2168 C2175 1.409 . S
C2169 H2161 0.930 . S
C2169 C2167 1.419 . S
C2169 C2170 1.362 . S
C2170 H2162 0.930 . S
C2170 C2169 1.362 . S
C2170 C2173 1.409 . S
C2171 H2163 0.930 . S
C2171 C2172 1.355 . S
C2171 C2173 1.415 . S
C2172 C2171 1.355 . S
C2172 C2174 1.419 . S
C2173 C2168 1.425 . S
C2173 C2170 1.409 . S
C2173 C2171 1.415 . S
C2174 H2164 0.930 . S
C2174 C2172 1.419 . S
C2174 C2175 1.362 . S
C2175 H2165 0.930 . S
C2175 C2168 1.409 . S
C2175 C2174 1.362 . S
H2176 C2182 0.930 . S
H2177 C2185 0.930 . S
H2178 C2186 0.930 . S
H2179 C2187 0.930 . S
H2180 C2190 0.930 . S
H2181 C2191 0.930 . S
C2182 H2176 0.930 . S
C2182 C2183 1.355 . S
C2182 C2184 1.415 . S
C2183 C2182 1.355 . S
C2183 C2185 1.419 . S
C2184 C2182 1.415 . S
C2184 C2189 1.425 . S
C2184 C2191 1.409 . S
C2185 H2177 0.930 . S
C2185 C2183 1.419 . S
C2185 C2186 1.362 . S
C2186 H2178 0.930 . S
C2186 C2185 1.362 . S
C2186 C2189 1.409 . S
C2187 H2179 0.930 . S
C2187 C2188 1.355 . S
C2187 C2189 1.415 . S
C2188 C2187 1.355 . S
C2188 C2190 1.419 . S
C2189 C2184 1.425 . S
C2189 C2186 1.409 . S
C2189 C2187 1.415 . S
C2190 H2180 0.930 . S
C2190 C2188 1.419 . S
C2190 C2191 1.362 . S
C2191 H2181 0.930 . S
C2191 C2184 1.409 . S
C2191 C2190 1.362 . S
H2192 C2198 0.930 . S
H2193 C2201 0.930 . S
H2194 C2202 0.930 . S
H2195 C2203 0.930 . S
H2196 C2206 0.930 . S
H2197 C2207 0.930 . S
C2198 H2192 0.930 . S
C2198 C2199 1.355 . S
C2198 C2200 1.415 . S
C2199 C2198 1.355 . S
C2199 C2201 1.419 . S
C2200 C2198 1.415 . S
C2200 C2205 1.425 . S
C2200 C2207 1.409 . S
C2201 H2193 0.930 . S
C2201 C2199 1.419 . S
C2201 C2202 1.362 . S
C2202 H2194 0.930 . S
C2202 C2201 1.362 . S
C2202 C2205 1.409 . S
C2203 H2195 0.930 . S
C2203 C2204 1.355 . S
C2203 C2205 1.415 . S
C2204 C2203 1.355 . S
C2204 C2206 1.419 . S
C2205 C2200 1.425 . S
C2205 C2202 1.409 . S
C2205 C2203 1.415 . S
C2206 H2196 0.930 . S
C2206 C2204 1.419 . S
C2206 C2207 1.362 . S
C2207 H2197 0.930 . S
C2207 C2200 1.409 . S
C2207 C2206 1.362 . S
H2208 C2214 0.930 . S
H2209 C2217 0.930 . S
H2210 C2218 0.930 . S
H2211 C2219 0.930 . S
H2212 C2222 0.930 . S
H2213 C2223 0.930 . S
C2214 H2208 0.930 . S
C2214 C2215 1.355 . S
C2214 C2216 1.415 . S
C2215 C2214 1.355 . S
C2215 C2217 1.419 . S
C2216 C2214 1.415 . S
C2216 C2221 1.425 . S
C2216 C2223 1.409 . S
C2217 H2209 0.930 . S
C2217 C2215 1.419 . S
C2217 C2218 1.362 . S
C2218 H2210 0.930 . S
C2218 C2217 1.362 . S
C2218 C2221 1.409 . S
C2219 H2211 0.930 . S
C2219 C2220 1.355 . S
C2219 C2221 1.415 . S
C2220 C2219 1.355 . S
C2220 C2222 1.419 . S
C2221 C2216 1.425 . S
C2221 C2218 1.409 . S
C2221 C2219 1.415 . S
C2222 H2212 0.930 . S
C2222 C2220 1.419 . S
C2222 C2223 1.362 . S
C2223 H2213 0.930 . S
C2223 C2216 1.409 . S
C2223 C2222 1.362 . S
H2224 C2230 0.930 . S
H2225 C2233 0.930 . S
H2226 C2234 0.930 . S
H2227 C2235 0.930 . S
H2228 C2238 0.930 . S
H2229 C2239 0.930 . S
C2230 H2224 0.930 . S
C2230 C2231 1.355 . S
C2230 C2232 1.415 . S
C2231 C2230 1.355 . S
C2231 C2233 1.419 . S
C2232 C2230 1.415 . S
C2232 C2237 1.425 . S
C2232 C2239 1.409 . S
C2233 H2225 0.930 . S
C2233 C2231 1.419 . S
C2233 C2234 1.362 . S
C2234 H2226 0.930 . S
C2234 C2233 1.362 . S
C2234 C2237 1.409 . S
C2235 H2227 0.930 . S
C2235 C2236 1.355 . S
C2235 C2237 1.415 . S
C2236 C2235 1.355 . S
C2236 C2238 1.419 . S
C2237 C2232 1.425 . S
C2237 C2234 1.409 . S
C2237 C2235 1.415 . S
C2238 H2228 0.930 . S
C2238 C2236 1.419 . S
C2238 C2239 1.362 . S
C2239 H2229 0.930 . S
C2239 C2232 1.409 . S
C2239 C2238 1.362 . S
H2240 C2246 0.930 . S
H2241 C2249 0.930 1_455 S
H2242 C2250 0.930 . S
H2243 C2251 0.930 1_455 S
H2244 C2254 0.930 . S
H2245 C2255 0.930 . S
C2246 H2240 0.930 . S
C2246 C2247 1.355 . S
C2246 C2248 1.415 . S
C2247 C2246 1.355 . S
C2247 C2249 1.419 . S
C2248 C2246 1.415 . S
C2248 C2253 1.425 . S
C2248 C2255 1.409 . S
C2249 H2241 0.930 1_655 S
C2249 C2247 1.419 . S
C2249 C2250 1.362 1_655 S
C2250 H2242 0.930 . S
C2250 C2249 1.362 1_455 S
C2250 C2253 1.409 1_455 S
C2251 H2243 0.930 1_655 S
C2251 C2252 1.355 . S
C2251 C2253 1.415 . S
C2252 C2251 1.355 . S
C2252 C2254 1.419 . S
C2253 C2248 1.425 . S
C2253 C2250 1.409 1_655 S
C2253 C2251 1.415 . S
C2254 H2244 0.930 . S
C2254 C2252 1.419 . S
C2254 C2255 1.362 . S
C2255 H2245 0.930 . S
C2255 C2248 1.409 . S
C2255 C2254 1.362 . S
H2256 C2262 0.930 . S
H2257 C2265 0.930 . S
H2258 C2266 0.930 . S
H2259 C2267 0.930 . S
H2260 C2270 0.930 . S
H2261 C2271 0.930 . S
C2262 H2256 0.930 . S
C2262 C2263 1.355 . S
C2262 C2264 1.415 . S
C2263 C2262 1.355 . S
C2263 C2265 1.419 . S
C2264 C2262 1.415 . S
C2264 C2269 1.425 . S
C2264 C2271 1.409 . S
C2265 H2257 0.930 . S
C2265 C2263 1.419 . S
C2265 C2266 1.362 . S
C2266 H2258 0.930 . S
C2266 C2265 1.362 . S
C2266 C2269 1.409 . S
C2267 H2259 0.930 . S
C2267 C2268 1.355 . S
C2267 C2269 1.415 . S
C2268 C2267 1.355 . S
C2268 C2270 1.419 . S
C2269 C2264 1.425 . S
C2269 C2266 1.409 . S
C2269 C2267 1.415 . S
C2270 H2260 0.930 . S
C2270 C2268 1.419 . S
C2270 C2271 1.362 . S
C2271 H2261 0.930 . S
C2271 C2264 1.409 . S
C2271 C2270 1.362 . S
H2272 C2278 0.930 1_655 S
H2273 C2281 0.930 . S
H2274 C2282 0.930 . S
H2275 C2283 0.930 . S
H2276 C2286 0.930 1_655 S
H2277 C2287 0.930 . S
C2278 H2272 0.930 1_455 S
C2278 C2279 1.355 . S
C2278 C2280 1.415 . S
C2279 C2278 1.355 . S
C2279 C2281 1.419 . S
C2280 C2278 1.415 . S
C2280 C2285 1.425 . S
C2280 C2287 1.409 1_455 S
C2281 H2273 0.930 . S
C2281 C2279 1.419 . S
C2281 C2282 1.362 . S
C2282 H2274 0.930 . S
C2282 C2281 1.362 . S
C2282 C2285 1.409 . S
C2283 H2275 0.930 . S
C2283 C2284 1.355 . S
C2283 C2285 1.415 . S
C2284 C2283 1.355 . S
C2284 C2286 1.419 . S
C2285 C2280 1.425 . S
C2285 C2282 1.409 . S
C2285 C2283 1.415 . S
C2286 H2276 0.930 1_455 S
C2286 C2284 1.419 . S
C2286 C2287 1.362 1_455 S
C2287 H2277 0.930 . S
C2287 C2280 1.409 1_655 S
C2287 C2286 1.362 1_655 S
H2288 C2294 0.930 . S
H2289 C2297 0.930 . S
H2290 C2298 0.930 . S
H2291 C2299 0.930 . S
H2292 C2302 0.930 . S
H2293 C2303 0.930 . S
C2294 H2288 0.930 . S
C2294 C2295 1.355 . S
C2294 C2296 1.415 . S
C2295 C2294 1.355 . S
C2295 C2297 1.419 . S
C2296 C2294 1.415 . S
C2296 C2301 1.425 . S
C2296 C2303 1.409 . S
C2297 H2289 0.930 . S
C2297 C2295 1.419 . S
C2297 C2298 1.362 . S
C2298 H2290 0.930 . S
C2298 C2297 1.362 . S
C2298 C2301 1.409 . S
C2299 H2291 0.930 . S
C2299 C2300 1.355 . S
C2299 C2301 1.415 . S
C2300 C2299 1.355 . S
C2300 C2302 1.419 . S
C2301 C2296 1.425 . S
C2301 C2298 1.409 . S
C2301 C2299 1.415 . S
C2302 H2292 0.930 . S
C2302 C2300 1.419 . S
C2302 C2303 1.362 . S
C2303 H2293 0.930 . S
C2303 C2296 1.409 . S
C2303 C2302 1.362 . S
H2304 C2310 0.930 . S
H2305 C2313 0.930 . S
H2306 C2314 0.930 . S
H2307 C2315 0.930 . S
H2308 C2318 0.930 . S
H2309 C2319 0.930 . S
C2310 H2304 0.930 . S
C2310 C2311 1.355 . S
C2310 C2312 1.415 . S
C2311 C2310 1.355 . S
C2311 C2313 1.419 . S
C2312 C2310 1.415 . S
C2312 C2317 1.425 . S
C2312 C2319 1.409 . S
C2313 H2305 0.930 . S
C2313 C2311 1.419 . S
C2313 C2314 1.362 . S
C2314 H2306 0.930 . S
C2314 C2313 1.362 . S
C2314 C2317 1.409 . S
C2315 H2307 0.930 . S
C2315 C2316 1.355 . S
C2315 C2317 1.415 . S
C2316 C2315 1.355 . S
C2316 C2318 1.419 . S
C2317 C2312 1.425 . S
C2317 C2314 1.409 . S
C2317 C2315 1.415 . S
C2318 H2308 0.930 . S
C2318 C2316 1.419 . S
C2318 C2319 1.362 . S
C2319 H2309 0.930 . S
C2319 C2312 1.409 . S
C2319 C2318 1.362 . S
H2320 C2326 0.930 . S
H2321 C2329 0.930 . S
H2322 C2330 0.930 . S
H2323 C2331 0.930 . S
H2324 C2334 0.930 . S
H2325 C2335 0.930 . S
C2326 H2320 0.930 . S
C2326 C2327 1.355 . S
C2326 C2328 1.415 . S
C2327 C2326 1.355 . S
C2327 C2329 1.419 . S
C2328 C2326 1.415 . S
C2328 C2333 1.425 . S
C2328 C2335 1.409 . S
C2329 H2321 0.930 . S
C2329 C2327 1.419 . S
C2329 C2330 1.362 . S
C2330 H2322 0.930 . S
C2330 C2329 1.362 . S
C2330 C2333 1.409 . S
C2331 H2323 0.930 . S
C2331 C2332 1.355 . S
C2331 C2333 1.415 . S
C2332 C2331 1.355 . S
C2332 C2334 1.419 . S
C2333 C2328 1.425 . S
C2333 C2330 1.409 . S
C2333 C2331 1.415 . S
C2334 H2324 0.930 . S
C2334 C2332 1.419 . S
C2334 C2335 1.362 . S
C2335 H2325 0.930 . S
C2335 C2328 1.409 . S
C2335 C2334 1.362 . S
H2336 C2342 0.930 1_655 S
H2337 C2345 0.930 . S
H2338 C2346 0.930 . S
H2339 C2347 0.930 . S
H2340 C2350 0.930 1_655 S
H2341 C2351 0.930 . S
C2342 H2336 0.930 1_455 S
C2342 C2343 1.355 . S
C2342 C2344 1.415 . S
C2343 C2342 1.355 . S
C2343 C2345 1.419 . S
C2344 C2342 1.415 . S
C2344 C2349 1.425 . S
C2344 C2351 1.409 1_455 S
C2345 H2337 0.930 . S
C2345 C2343 1.419 . S
C2345 C2346 1.362 . S
C2346 H2338 0.930 . S
C2346 C2345 1.362 . S
C2346 C2349 1.409 . S
C2347 H2339 0.930 . S
C2347 C2348 1.355 . S
C2347 C2349 1.415 . S
C2348 C2347 1.355 . S
C2348 C2350 1.419 . S
C2349 C2344 1.425 . S
C2349 C2346 1.409 . S
C2349 C2347 1.415 . S
C2350 H2340 0.930 1_455 S
C2350 C2348 1.419 . S
C2350 C2351 1.362 1_455 S
C2351 H2341 0.930 . S
C2351 C2344 1.409 1_655 S
C2351 C2350 1.362 1_655 S
H2352 C2358 0.930 . S
H2353 C2361 0.930 . S
H2354 C2362 0.930 . S
H2355 C2363 0.930 . S
H2356 C2366 0.930 . S
H2357 C2367 0.930 . S
C2358 H2352 0.930 . S
C2358 C2359 1.355 . S
C2358 C2360 1.415 . S
C2359 C2358 1.355 . S
C2359 C2361 1.419 . S
C2360 C2358 1.415 . S
C2360 C2365 1.425 . S
C2360 C2367 1.409 . S
C2361 H2353 0.930 . S
C2361 C2359 1.419 . S
C2361 C2362 1.362 . S
C2362 H2354 0.930 . S
C2362 C2361 1.362 . S
C2362 C2365 1.409 . S
C2363 H2355 0.930 . S
C2363 C2364 1.355 . S
C2363 C2365 1.415 . S
C2364 C2363 1.355 . S
C2364 C2366 1.419 . S
C2365 C2360 1.425 . S
C2365 C2362 1.409 . S
C2365 C2363 1.415 . S
C2366 H2356 0.930 . S
C2366 C2364 1.419 . S
C2366 C2367 1.362 . S
C2367 H2357 0.930 . S
C2367 C2360 1.409 . S
C2367 C2366 1.362 . S
C1095 C9 1.741 . S
C1100 C145 1.741 . S
C1111 C995 1.768 . S
C1116 C43 1.768 . S
C1127 C77 1.737 . S
C1132 C485 1.737 . S
C1143 C791 1.778 . S
C1148 C111 1.778 . S
C1159 C179 1.734 . S
C1164 C859 1.734 . S
C1175 C213 1.768 . S
C1180 C349 1.768 . S
C1191 C247 1.778 . S
C1196 C655 1.778 . S
C1207 C417 1.749 . S
C1212 C281 1.749 . S
C1223 C723 1.735 . S
C1228 C315 1.735 . S
C1239 C383 1.780 . S
C1244 C1063 1.780 . S
C1255 C587 1.751 . S
C1260 C451 1.751 . S
C1271 C519 1.734 . S
C1276 C927 1.734 . S
C1287 C689 1.785 . S
C1292 C553 1.785 . S
C1303 C621 1.734 . S
C1308 C1029 1.734 . S
C1319 C757 1.769 . S
C1324 C893 1.769 . S
C1335 C825 1.766 . S
C1340 C961 1.766 . S
C1351 C5 0.558 . S
C1356 C107 0.551 . S
C1367 C73 0.311 . S
C1372 C39 0.291 . S
C1383 C243 0.348 . S
C1388 C141 0.310 . S
C1399 C175 0.294 . S
C1404 C209 0.320 . S
C1415 C379 0.544 . S
C1420 C277 0.557 . S
C1431 C345 0.549 . S
C1436 C311 0.558 . S
C1447 C413 0.474 . S
C1452 C515 0.429 . S
C1463 C481 0.290 . S
C1468 C447 0.294 . S
C1479 C549 0.324 . S
C1484 C651 0.296 . S
C1495 C617 0.541 . S
C1500 C583 0.556 . S
C1511 C787 0.554 . S
C1516 C685 0.538 . S
C1527 C753 0.458 . S
C1532 C719 0.411 . S
C1543 C821 0.342 . S
C1548 C923 0.306 . S
C1559 C889 0.301 . S
C1564 C855 0.289 . S
C1575 C957 0.504 . S
C1580 C1059 0.465 . S
C1591 C1025 0.548 . S
C1596 C991 0.525 . S
C1607 C36 1.698 1_455 S
C1612 C2 1.737 . S
C1623 C104 1.692 1_455 S
C1628 C70 1.697 . S
C1639 C138 1.704 . S
C1644 C172 1.736 1_655 S
C1655 C206 1.723 . S
C1660 C240 1.681 1_655 S
C1671 C308 1.715 1_455 S
C1676 C274 1.682 . S
C1687 C342 1.732 . S
C1692 C376 1.684 1_455 S
C1703 C444 1.709 1_655 S
C1708 C410 1.734 . S
C1719 C478 1.685 . S
C1724 C512 1.733 1_655 S
C1735 C580 1.723 . S
C1740 C546 1.724 . S
C1751 C648 1.733 . S
C1756 C614 1.711 . S
C1767 C716 1.712 . S
C1772 C682 1.682 . S
C1783 C784 1.682 . S
C1788 C750 1.714 . S
C1799 C818 1.683 . S
C1804 C852 1.712 . S
C1815 C920 1.708 . S
C1820 C886 1.735 . S
C1831 C954 1.705 . S
C1836 C988 1.736 . S
C1847 C1056 1.705 . S
C1852 C1022 1.736 . S
C1863 C20 1.045 . S
C1868 C870 1.044 . S
C1879 C836 1.014 . S
C1884 C54 1.013 . S
C1895 C88 1.033 . S
C1900 C938 1.034 . S
C1911 C122 0.958 . S
C1916 C904 0.958 . S
C1927 C1006 0.968 . S
C1932 C156 0.968 . S
C1943 C190 1.045 . S
C1948 C972 1.046 . S
C1959 C224 0.990 . S
C1964 C1074 0.989 . S
C1975 C1040 0.981 . S
C1980 C258 0.980 . S
C1991 C598 1.010 . S
C1996 C292 1.011 . S
C2007 C326 1.008 . S
C2012 C564 1.007 . S
C2023 C666 1.041 . S
C2028 C360 1.040 . S
C2039 C394 1.049 . S
C2044 C632 1.049 . S
C2055 C734 0.955 . S
C2060 C428 0.955 . S
C2071 C462 1.027 . S
C2076 C700 1.026 . S
C2087 C802 1.026 . S
C2092 C496 1.027 . S
C2103 C530 1.000 . S
C2108 C768 1.001 . S
C2119 C33 1.327 . S
C2124 C101 1.366 . S
C2135 C67 1.367 . S
C2140 C135 1.326 . S
C2151 C237 1.317 . S
C2156 C169 1.379 . S
C2167 C271 1.323 . S
C2172 C203 1.386 . S
C2183 C305 1.314 . S
C2188 C373 1.389 . S
C2199 C339 1.327 . S
C2204 C407 1.366 . S
C2215 C509 1.332 . S
C2220 C441 1.361 . S
C2231 C475 1.317 . S
C2236 C543 1.389 . S
C2247 C577 1.389 . S
C2252 C645 1.317 . S
C2263 C611 1.313 . S
C2268 C679 1.387 . S
C2279 C781 1.322 . S
C2284 C713 1.386 . S
C2295 C815 1.389 . S
C2300 C747 1.316 . S
C2311 C917 1.351 . S
C2316 C849 1.364 . S
C2327 C951 1.334 . S
C2332 C883 1.379 . S
C2343 C1053 1.318 . S
C2348 C985 1.389 . S
C2359 C1087 1.362 . S
C2364 C1019 1.331 . S
