# Generated by pormake.
# Topology lcs, (4)-cn, num edge types: 1
# Building blocks:
#     Node 0, Type 0, BuildingBlock: CEKHIL_clean_sbu_0, # of connection points: 4
#     Node 1, Type 0, BuildingBlock: CEKHIL_clean_sbu_0, # of connection points: 4
#     Node 2, Type 0, BuildingBlock: CEKHIL_clean_sbu_0, # of connection points: 4
#     Node 3, Type 0, BuildingBlock: CEKHIL_clean_sbu_0, # of connection points: 4
#     Node 4, Type 0, BuildingBlock: CEKHIL_clean_sbu_0, # of connection points: 4
#     Node 5, Type 0, BuildingBlock: CEKHIL_clean_sbu_0, # of connection points: 4
#     Node 6, Type 0, BuildingBlock: CEKHIL_clean_sbu_0, # of connection points: 4
#     Node 7, Type 0, BuildingBlock: CEKHIL_clean_sbu_0, # of connection points: 4
#     Node 8, Type 0, BuildingBlock: CEKHIL_clean_sbu_0, # of connection points: 4
#     Node 9, Type 0, BuildingBlock: CEKHIL_clean_sbu_0, # of connection points: 4
#     Node 10, Type 0, BuildingBlock: CEKHIL_clean_sbu_0, # of connection points: 4
#     Node 11, Type 0, BuildingBlock: CEKHIL_clean_sbu_0, # of connection points: 4
#     Node 12, Type 0, BuildingBlock: CEKHIL_clean_sbu_0, # of connection points: 4
#     Node 13, Type 0, BuildingBlock: CEKHIL_clean_sbu_0, # of connection points: 4
#     Node 14, Type 0, BuildingBlock: CEKHIL_clean_sbu_0, # of connection points: 4
#     Node 15, Type 0, BuildingBlock: CEKHIL_clean_sbu_0, # of connection points: 4
#     Node 16, Type 0, BuildingBlock: CEKHIL_clean_sbu_0, # of connection points: 4
#     Node 17, Type 0, BuildingBlock: CEKHIL_clean_sbu_0, # of connection points: 4
#     Node 18, Type 0, BuildingBlock: CEKHIL_clean_sbu_0, # of connection points: 4
#     Node 19, Type 0, BuildingBlock: CEKHIL_clean_sbu_0, # of connection points: 4
#     Node 20, Type 0, BuildingBlock: CEKHIL_clean_sbu_0, # of connection points: 4
#     Node 21, Type 0, BuildingBlock: CEKHIL_clean_sbu_0, # of connection points: 4
#     Node 22, Type 0, BuildingBlock: CEKHIL_clean_sbu_0, # of connection points: 4
#     Node 23, Type 0, BuildingBlock: CEKHIL_clean_sbu_0, # of connection points: 4
#     Edge 24, Type (0, 0), BuildingBlock: MIFKUJ_clean_linker_0, # of connection points: 2
#     Edge 25, Type (0, 0), BuildingBlock: MIFKUJ_clean_linker_0, # of connection points: 2
#     Edge 26, Type (0, 0), BuildingBlock: MIFKUJ_clean_linker_0, # of connection points: 2
#     Edge 27, Type (0, 0), BuildingBlock: MIFKUJ_clean_linker_0, # of connection points: 2
#     Edge 28, Type (0, 0), BuildingBlock: MIFKUJ_clean_linker_0, # of connection points: 2
#     Edge 29, Type (0, 0), BuildingBlock: MIFKUJ_clean_linker_0, # of connection points: 2
#     Edge 30, Type (0, 0), BuildingBlock: MIFKUJ_clean_linker_0, # of connection points: 2
#     Edge 31, Type (0, 0), BuildingBlock: MIFKUJ_clean_linker_0, # of connection points: 2
#     Edge 32, Type (0, 0), BuildingBlock: MIFKUJ_clean_linker_0, # of connection points: 2
#     Edge 33, Type (0, 0), BuildingBlock: MIFKUJ_clean_linker_0, # of connection points: 2
#     Edge 34, Type (0, 0), BuildingBlock: MIFKUJ_clean_linker_0, # of connection points: 2
#     Edge 35, Type (0, 0), BuildingBlock: MIFKUJ_clean_linker_0, # of connection points: 2
#     Edge 36, Type (0, 0), BuildingBlock: MIFKUJ_clean_linker_0, # of connection points: 2
#     Edge 37, Type (0, 0), BuildingBlock: MIFKUJ_clean_linker_0, # of connection points: 2
#     Edge 38, Type (0, 0), BuildingBlock: MIFKUJ_clean_linker_0, # of connection points: 2
#     Edge 39, Type (0, 0), BuildingBlock: MIFKUJ_clean_linker_0, # of connection points: 2
#     Edge 40, Type (0, 0), BuildingBlock: MIFKUJ_clean_linker_0, # of connection points: 2
#     Edge 41, Type (0, 0), BuildingBlock: MIFKUJ_clean_linker_0, # of connection points: 2
#     Edge 42, Type (0, 0), BuildingBlock: MIFKUJ_clean_linker_0, # of connection points: 2
#     Edge 43, Type (0, 0), BuildingBlock: MIFKUJ_clean_linker_0, # of connection points: 2
#     Edge 44, Type (0, 0), BuildingBlock: MIFKUJ_clean_linker_0, # of connection points: 2
#     Edge 45, Type (0, 0), BuildingBlock: MIFKUJ_clean_linker_0, # of connection points: 2
#     Edge 46, Type (0, 0), BuildingBlock: MIFKUJ_clean_linker_0, # of connection points: 2
#     Edge 47, Type (0, 0), BuildingBlock: MIFKUJ_clean_linker_0, # of connection points: 2
#     Edge 48, Type (0, 0), BuildingBlock: MIFKUJ_clean_linker_0, # of connection points: 2
#     Edge 49, Type (0, 0), BuildingBlock: MIFKUJ_clean_linker_0, # of connection points: 2
#     Edge 50, Type (0, 0), BuildingBlock: MIFKUJ_clean_linker_0, # of connection points: 2
#     Edge 51, Type (0, 0), BuildingBlock: MIFKUJ_clean_linker_0, # of connection points: 2
#     Edge 52, Type (0, 0), BuildingBlock: MIFKUJ_clean_linker_0, # of connection points: 2
#     Edge 53, Type (0, 0), BuildingBlock: MIFKUJ_clean_linker_0, # of connection points: 2
#     Edge 54, Type (0, 0), BuildingBlock: MIFKUJ_clean_linker_0, # of connection points: 2
#     Edge 55, Type (0, 0), BuildingBlock: MIFKUJ_clean_linker_0, # of connection points: 2
#     Edge 56, Type (0, 0), BuildingBlock: MIFKUJ_clean_linker_0, # of connection points: 2
#     Edge 57, Type (0, 0), BuildingBlock: MIFKUJ_clean_linker_0, # of connection points: 2
#     Edge 58, Type (0, 0), BuildingBlock: MIFKUJ_clean_linker_0, # of connection points: 2
#     Edge 59, Type (0, 0), BuildingBlock: MIFKUJ_clean_linker_0, # of connection points: 2
#     Edge 60, Type (0, 0), BuildingBlock: MIFKUJ_clean_linker_0, # of connection points: 2
#     Edge 61, Type (0, 0), BuildingBlock: MIFKUJ_clean_linker_0, # of connection points: 2
#     Edge 62, Type (0, 0), BuildingBlock: MIFKUJ_clean_linker_0, # of connection points: 2
#     Edge 63, Type (0, 0), BuildingBlock: MIFKUJ_clean_linker_0, # of connection points: 2
#     Edge 64, Type (0, 0), BuildingBlock: MIFKUJ_clean_linker_0, # of connection points: 2
#     Edge 65, Type (0, 0), BuildingBlock: MIFKUJ_clean_linker_0, # of connection points: 2
#     Edge 66, Type (0, 0), BuildingBlock: MIFKUJ_clean_linker_0, # of connection points: 2
#     Edge 67, Type (0, 0), BuildingBlock: MIFKUJ_clean_linker_0, # of connection points: 2
#     Edge 68, Type (0, 0), BuildingBlock: MIFKUJ_clean_linker_0, # of connection points: 2
#     Edge 69, Type (0, 0), BuildingBlock: MIFKUJ_clean_linker_0, # of connection points: 2
#     Edge 70, Type (0, 0), BuildingBlock: MIFKUJ_clean_linker_0, # of connection points: 2
#     Edge 71, Type (0, 0), BuildingBlock: MIFKUJ_clean_linker_0, # of connection points: 2
# Relax obj value: 0.002
# Max RMSD: 0.025
# Mean RMSD: 0.021
data_MOF--net-lcs--node1-CEKHIL_clean_sbu_0--edge1-MIFKUJ_clean_linker_0
_symmetry_space_group_name_H-M    P1
_symmetry_Int_Tables_number       1
_symmetry_cell_setting            triclinic
loop_
_symmetry_equiv_pos_as_xyz
'x, y, z'
_cell_length_a     64.360083
_cell_length_b     63.185464
_cell_length_c     63.168571
_cell_angle_alpha  90.752481
_cell_angle_beta   90.291642
_cell_angle_gamma 90.674658
loop_
_atom_site_label
_atom_site_type_symbol
_atom_site_fract_x
_atom_site_fract_y
_atom_site_fract_z
_atom_type_partial_charge
Co0 Co 0.0069 0.26232 0.38961 0.0
O1 O 0.97912 0.27289 0.38533 0.0
O2 O 0.99043 0.25833 0.41483 0.0
C3 C 0.0234 0.29118 0.37637 0.0
O4 O 0.03426 0.25027 0.40078 0.0
Co5 Co 0.03753 0.25402 0.35313 0.0
O6 O 0.05884 0.25202 0.37577 0.0
C7 C 1.00267 0.22381 0.36033 0.0
C8 C 0.97544 0.26748 0.40472 0.0
C9 C 0.05329 0.24859 0.39474 0.0
O10 O 0.99794 0.2337 0.3776 0.0
O11 O 0.01701 0.23025 0.34788 0.0
O12 O 0.01696 0.29107 0.39581 0.0
O13 O 0.01867 0.2745 0.3652 0.0
Co14 Co 0.01586 0.75431 0.63627 0.0
O15 O 0.042 0.74059 0.64125 0.0
O16 O 0.02392 0.73747 0.61159 0.0
C17 C 0.02727 0.7863 0.64857 0.0
O18 O 0.98859 0.76704 0.625 0.0
Co19 Co 0.991 0.77447 0.67303 0.0
O20 O 0.97635 0.78919 0.65001 0.0
C21 C 0.9894 0.7279 0.66619 0.0
C22 C 0.04075 0.73306 0.62211 0.0
C23 C 0.97604 0.78169 0.6312 0.0
O24 O 1.0003 0.7295 0.64918 0.0
O25 O 0.9851 0.74374 0.67819 0.0
O26 O 0.0308 0.78039 0.62917 0.0
O27 O 0.01802 0.77241 0.66013 0.0
Co28 Co 0.50726 0.76337 0.8871 0.0
O29 O 0.47983 0.77485 0.88309 0.0
O30 O 0.49085 0.7602 0.9126 0.0
C31 C 0.52447 0.79159 0.87324 0.0
O32 O 0.5345 0.75058 0.89789 0.0
Co33 Co 0.53651 0.7537 0.84981 0.0
O34 O 0.55816 0.7507 0.87192 0.0
C35 C 0.50181 0.724 0.85887 0.0
C36 C 0.47604 0.76972 0.90253 0.0
C37 C 0.55321 0.74786 0.89118 0.0
O38 O 0.49723 0.73481 0.87564 0.0
O39 O 0.51613 0.72961 0.84602 0.0
O40 O 0.51845 0.79182 0.89283 0.0
O41 O 0.51885 0.77503 0.86231 0.0
Co42 Co 0.51556 0.25256 0.13667 0.0
O43 O 0.54187 0.23901 0.14147 0.0
O44 O 0.52389 0.23646 0.11167 0.0
C45 C 0.52622 0.28459 0.14957 0.0
O46 O 0.48809 0.26495 0.1256 0.0
Co47 Co 0.49049 0.27096 0.17438 0.0
O48 O 0.47094 0.28069 0.15245 0.0
C49 C 0.49053 0.22467 0.16652 0.0
C50 C 0.54066 0.23187 0.12218 0.0
C51 C 0.47256 0.27548 0.13299 0.0
O52 O 0.50032 0.22721 0.14893 0.0
O53 O 0.48682 0.23993 0.17945 0.0
O54 O 0.5301 0.27903 0.13015 0.0
O55 O 0.51731 0.27028 0.16087 0.0
Co56 Co 0.01265 0.75727 0.13199 0.0
O57 O 0.04034 0.7689 0.13572 0.0
O58 O 0.02898 0.75282 0.10657 0.0
C59 C 0.99595 0.78605 0.14501 0.0
O60 O 0.98501 0.74423 0.12169 0.0
Co61 Co 0.9835 0.7496 0.16997 0.0
O62 O 0.9616 0.74665 0.14785 0.0
C63 C 0.01828 0.72034 0.16208 0.0
C64 C 0.04396 0.76296 0.11636 0.0
C65 C 0.96623 0.74276 0.12861 0.0
O66 O 0.02182 0.72923 0.14415 0.0
O67 O 0.00485 0.72727 0.17529 0.0
O68 O 1.0022 0.78542 0.1255 0.0
O69 O 1.00132 0.77014 0.15637 0.0
Co70 Co 0.49947 0.75913 0.3871 0.0
O71 O 0.4724 0.74609 0.3835 0.0
O72 O 0.49193 0.74293 0.41208 0.0
C73 C 0.48926 0.79115 0.37524 0.0
O74 O 0.52785 0.77127 0.39692 0.0
Co75 Co 0.52319 0.77744 0.34853 0.0
O76 O 0.54159 0.79026 0.37045 0.0
C77 C 0.52234 0.73111 0.35541 0.0
C78 C 0.47435 0.73883 0.40248 0.0
C79 C 0.54193 0.78389 0.38951 0.0
O80 O 0.51333 0.73368 0.37349 0.0
O81 O 0.52591 0.74637 0.34274 0.0
O82 O 0.48613 0.78591 0.39479 0.0
O83 O 0.49718 0.7766 0.36341 0.0
Co84 Co 0.51334 0.25809 0.63253 0.0
O85 O 0.54071 0.27036 0.63692 0.0
O86 O 0.53035 0.25402 0.60754 0.0
C87 C 0.4959 0.2865 0.64532 0.0
O88 O 0.48625 0.24452 0.62126 0.0
Co89 Co 0.48298 0.24924 0.66899 0.0
O90 O 0.46173 0.24755 0.64622 0.0
C91 C 0.51709 0.21922 0.66076 0.0
C92 C 0.54487 0.26454 0.61764 0.0
C93 C 0.46714 0.2434 0.62728 0.0
O94 O 0.52281 0.23014 0.64464 0.0
O95 O 0.5021 0.22462 0.67287 0.0
O96 O 0.50262 0.28604 0.62598 0.0
O97 O 0.50107 0.27053 0.65677 0.0
Co98 Co 1.00046 0.25977 0.88798 0.0
O99 O 0.97431 0.24516 0.88305 0.0
O100 O 0.99207 0.24414 0.91297 0.0
C101 C 0.9897 0.29089 0.87454 0.0
O102 O 0.02752 0.27356 0.89945 0.0
Co103 Co 0.02638 0.27813 0.85108 0.0
O104 O 0.0415 0.29358 0.8739 0.0
C105 C 0.02803 0.23224 0.85997 0.0
C106 C 0.97537 0.23871 0.90242 0.0
C107 C 0.04098 0.28736 0.89299 0.0
O108 O 0.01629 0.23464 0.87631 0.0
O109 O 0.0329 0.24734 0.84755 0.0
O110 O 0.98539 0.28588 0.8939 0.0
O111 O 0.99909 0.27656 0.86355 0.0
Co112 Co 0.37879 1.0014 0.26957 0.0
O113 O 0.37472 0.97497 0.28384 0.0
O114 O 0.40313 0.98382 0.26632 0.0
C115 C 0.36721 0.02162 0.29687 0.0
O116 O 0.38923 0.02762 0.25394 0.0
Co117 Co 0.34186 0.03051 0.25952 0.0
O118 O 0.36387 0.05174 0.25338 0.0
C119 C 0.34818 0.99185 0.23359 0.0
C120 C 0.39345 0.97023 0.27815 0.0
C121 C 0.38261 0.04637 0.25009 0.0
O122 O 0.36596 0.98912 0.24259 0.0
O123 O 0.33558 0.00633 0.2394 0.0
O124 O 0.38619 0.01491 0.29665 0.0
O125 O 0.35549 0.01476 0.28153 0.0
Co126 Co 0.25299 0.13223 0.50658 0.0
O127 O 0.22486 0.12944 0.49587 0.0
O128 O 0.23795 0.15827 0.51137 0.0
C129 C 0.26858 0.1187 0.47738 0.0
O130 O 0.28128 0.14165 0.51877 0.0
Co131 Co 0.28085 0.09337 0.51358 0.0
O132 O 0.30361 0.11468 0.51613 0.0
C133 C 0.24718 0.1026 0.544 0.0
C134 C 0.22233 0.14898 0.5018 0.0
C135 C 0.29979 0.13409 0.51999 0.0
O136 O 0.2439 0.12043 0.53488 0.0
O137 O 0.26017 0.08905 0.53692 0.0
O138 O 0.26296 0.13835 0.47812 0.0
O139 O 0.26316 0.10746 0.49344 0.0
Co140 Co 0.13141 0.00876 0.76968 0.0
O141 O 0.12808 0.99329 0.7956 0.0
O142 O 0.15652 0.99325 0.77618 0.0
C143 C 0.11832 0.03933 0.78284 0.0
O144 O 0.14106 0.02331 0.7425 0.0
Co145 Co 0.09385 0.0275 0.74584 0.0
O146 O 0.11529 0.0433 0.72979 0.0
C147 C 0.10141 0.98132 0.74378 0.0
C148 C 0.14703 0.98697 0.79317 0.0
C149 C 0.1341 0.03725 0.72958 0.0
O150 O 0.11927 0.98399 0.75286 0.0
O151 O 0.08853 0.9964 0.74122 0.0
O152 O 0.13771 0.03469 0.78595 0.0
O153 O 0.10737 0.02502 0.77304 0.0
Co154 Co 0.26068 0.87431 1.00124 0.0
O155 O 0.28841 0.87787 0.99016 0.0
O156 O 0.27644 0.84855 0.0047 0.0
C157 C 0.2444 0.88821 0.97268 0.0
O158 O 0.23293 0.86402 0.01367 0.0
Co159 Co 0.23188 0.91209 0.00998 0.0
O160 O 0.20977 0.89027 0.0127 0.0
C161 C 0.26558 0.90268 0.04051 0.0
C162 C 0.29163 0.85837 0.99534 0.0
C163 C 0.21428 0.871 0.01588 0.0
O164 O 0.27035 0.88587 0.02987 0.0
O165 O 0.25153 0.91555 0.03458 0.0
O166 O 0.24993 0.86851 0.97268 0.0
O167 O 0.24992 0.89917 0.98923 0.0
Co168 Co 0.26984 0.3775 0.00586 0.0
O169 O 0.29719 0.38026 0.0182 0.0
O170 O 0.27743 0.35161 0.02047 0.0
C171 C 0.27947 0.39112 0.97429 0.0
O172 O 0.2411 0.36867 0.99413 0.0
Co173 Co 0.24652 0.41746 0.99107 0.0
O174 O 0.22745 0.3965 0.97736 0.0
C175 C 0.24943 0.40815 0.03665 0.0
C176 C 0.29515 0.36098 0.02463 0.0
C177 C 0.22698 0.37702 0.98238 0.0
O178 O 0.25679 0.38967 0.03245 0.0
O179 O 0.24632 0.42215 0.02255 0.0
O180 O 0.28226 0.37122 0.97819 0.0
O181 O 0.27222 0.40216 0.98981 0.0
Co182 Co 0.75351 0.12977 0.01342 0.0
O183 O 0.72726 0.12442 0.02708 0.0
O184 O 0.74513 0.15431 0.03021 0.0
C185 C 0.74237 0.11716 0.98148 0.0
O186 O 0.7808 0.14155 1.00095 0.0
Co187 Co 0.77915 0.094 0.99281 0.0
O188 O 0.79353 0.11743 0.97814 0.0
C189 C 0.78025 0.10036 0.03956 0.0
C190 C 0.72833 0.14358 0.03459 0.0
C191 C 0.79351 0.13601 0.98617 0.0
O192 O 0.769 0.11708 0.03821 0.0
O193 O 0.78487 0.08873 0.02353 0.0
O194 O 0.73876 0.13657 0.98722 0.0
O195 O 0.75176 0.10586 0.99536 0.0
Co196 Co 0.13606 0.5098 0.26037 0.0
O197 O 0.13921 0.53658 0.24644 0.0
O198 O 0.11091 0.51656 0.2446 0.0
C199 C 0.14895 0.52158 0.2919 0.0
O200 O 0.1269 0.48169 0.27363 0.0
Co201 Co 0.17499 0.48679 0.27747 0.0
O202 O 0.15425 0.46758 0.29048 0.0
C203 C 0.16679 0.48769 0.23162 0.0
C204 C 0.12031 0.53416 0.23961 0.0
C205 C 0.135 0.46748 0.28556 0.0
O206 O 0.14828 0.49449 0.23498 0.0
O207 O 0.18048 0.48588 0.24623 0.0
O208 O 0.1296 0.52457 0.28697 0.0
O209 O 0.16002 0.51307 0.27718 0.0
Co210 Co 0.76814 0.87595 0.50745 0.0
O211 O 0.79409 0.88118 0.52236 0.0
O212 O 0.77636 0.85107 0.52309 0.0
C213 C 0.77931 0.88937 0.47632 0.0
O214 O 0.7413 0.86405 0.49367 0.0
Co215 Co 0.74208 0.91193 0.48811 0.0
O216 O 0.72772 0.88866 0.47248 0.0
C217 C 0.73986 0.90382 0.53424 0.0
C218 C 0.79293 0.86176 0.52872 0.0
C219 C 0.7282 0.86984 0.47938 0.0
O220 O 0.75192 0.88772 0.53235 0.0
O221 O 0.73498 0.91574 0.51879 0.0
O222 O 0.78355 0.87006 0.48146 0.0
O223 O 0.76959 0.90029 0.49049 0.0
Co224 Co 0.888 0.99454 0.26354 0.0
O225 O 0.89169 0.981 0.29043 0.0
O226 O 0.86328 0.99772 0.28072 0.0
C227 C 0.90033 0.96699 0.24407 0.0
O228 O 0.87779 0.00938 0.23685 0.0
Co229 Co 0.92504 0.00438 0.23416 0.0
O230 O 0.90322 0.00946 0.21264 0.0
C231 C 0.91786 0.03162 0.27191 0.0
C232 C 0.87283 0.98651 0.29482 0.0
C233 C 0.88444 0.01272 0.21795 0.0
O234 O 0.90042 0.02199 0.27534 0.0
O235 O 0.93041 0.02584 0.25732 0.0
O236 O 0.88116 0.96708 0.25039 0.0
O237 O 0.91167 0.98272 0.25078 0.0
Co238 Co 0.25188 0.62859 0.51089 0.0
O239 O 0.22507 0.62366 0.5234 0.0
O240 O 0.24318 0.65329 0.52741 0.0
C241 C 0.24227 0.61646 0.47835 0.0
O242 O 0.27993 0.63945 0.49938 0.0
Co243 Co 0.27655 0.59027 0.4937 0.0
O244 O 0.29693 0.61198 0.48464 0.0
C245 C 0.27331 0.59724 0.53965 0.0
C246 C 0.2261 0.64272 0.53111 0.0
C247 C 0.29564 0.63157 0.48945 0.0
O248 O 0.26604 0.61586 0.53644 0.0
O249 O 0.27628 0.58375 0.52471 0.0
O250 O 0.23837 0.63576 0.48422 0.0
O251 O 0.2503 0.60472 0.49274 0.0
Co252 Co 0.38718 0.49578 0.76169 0.0
O253 O 0.39067 0.48171 0.7884 0.0
O254 O 0.36248 0.49902 0.77873 0.0
C255 C 0.39923 0.46852 0.74168 0.0
O256 O 0.3769 0.51097 0.7353 0.0
Co257 Co 0.4242 0.50662 0.7329 0.0
O258 O 0.40313 0.51681 0.71262 0.0
C259 C 0.41737 0.53232 0.77148 0.0
C260 C 0.37189 0.48758 0.79268 0.0
C261 C 0.38403 0.51777 0.7176 0.0
O262 O 0.39962 0.52302 0.77401 0.0
O263 O 0.43022 0.52664 0.75715 0.0
O264 O 0.38017 0.4686 0.74828 0.0
O265 O 0.41086 0.48402 0.74853 0.0
Co266 Co 0.63761 0.01224 0.76131 0.0
O267 O 0.64079 0.03868 0.7467 0.0
O268 O 0.61245 0.01871 0.74545 0.0
C269 C 0.6505 0.02499 0.79244 0.0
O270 O 0.62821 0.98443 0.77512 0.0
Co271 Co 0.67569 0.98928 0.77976 0.0
O272 O 0.65468 0.97146 0.7941 0.0
C273 C 0.66769 0.98752 0.73359 0.0
C274 C 0.62187 0.03613 0.73997 0.0
C275 C 0.63569 0.97099 0.7883 0.0
O276 O 0.64989 0.99636 0.73624 0.0
O277 O 0.68071 0.985 0.74872 0.0
O278 O 0.63107 0.02755 0.78758 0.0
O279 O 0.66164 0.01603 0.77806 0.0
Co280 Co 0.75273 0.63075 0.00475 0.0
O281 O 0.72513 0.62639 0.99316 0.0
O282 O 0.73615 0.65596 0.00872 0.0
C283 C 0.76974 0.61749 0.97628 0.0
O284 O 0.78025 0.6418 0.01764 0.0
Co285 Co 0.78225 0.5935 0.0134 0.0
O286 O 0.80388 0.61598 0.01545 0.0
C287 C 0.74799 0.60214 0.04328 0.0
C288 C 0.72132 0.6458 0.99872 0.0
C289 C 0.7991 0.63519 0.01909 0.0
O290 O 0.74339 0.619 0.03301 0.0
O291 O 0.76218 0.58936 0.0373 0.0
O292 O 0.76315 0.63682 0.97642 0.0
O293 O 0.7645 0.6063 0.99243 0.0
Co294 Co 0.8802 0.50098 0.76757 0.0
O295 O 0.8762 0.47357 0.78008 0.0
O296 O 0.90486 0.48399 0.76394 0.0
C297 C 0.86781 0.51947 0.79576 0.0
O298 O 0.8908 0.52825 0.75375 0.0
Co299 Co 0.8436 0.53079 0.75856 0.0
O300 O 0.86557 0.55247 0.75447 0.0
C301 C 0.85157 0.4949 0.72916 0.0
C302 C 0.89513 0.46945 0.77456 0.0
C303 C 0.88432 0.54727 0.75103 0.0
O304 O 0.86805 0.49011 0.73968 0.0
O305 O 0.83936 0.5098 0.73478 0.0
O306 O 0.88688 0.51303 0.79546 0.0
O307 O 0.85646 0.5134 0.77981 0.0
Co308 Co 0.76034 0.37546 0.49962 0.0
O309 O 0.7878 0.37909 0.48803 0.0
O310 O 0.77661 0.35017 0.50388 0.0
C311 C 0.7434 0.38802 0.47086 0.0
O312 O 0.73289 0.36536 0.51273 0.0
Co313 Co 0.73185 0.41373 0.5077 0.0
O314 O 0.7101 0.39203 0.5131 0.0
C315 C 0.76757 0.40656 0.53621 0.0
C316 C 0.79148 0.35989 0.4939 0.0
C317 C 0.71453 0.37268 0.51606 0.0
O318 O 0.7702 0.38813 0.52768 0.0
O319 O 0.75434 0.41978 0.52919 0.0
O320 O 0.74945 0.36851 0.47136 0.0
O321 O 0.749 0.39963 0.48694 0.0
Co322 Co 0.63053 0.50872 0.26787 0.0
O323 O 0.6279 0.49503 0.29478 0.0
O324 O 0.65618 0.49433 0.27511 0.0
C325 C 0.61631 0.53945 0.27922 0.0
O326 O 0.63929 0.52202 0.23973 0.0
Co327 Co 0.59143 0.52356 0.24363 0.0
O328 O 0.61181 0.53811 0.22519 0.0
C329 C 0.60098 0.47811 0.24538 0.0
C330 C 0.64696 0.48904 0.2926 0.0
C331 C 0.63112 0.53384 0.22546 0.0
O332 O 0.61927 0.48251 0.25273 0.0
O333 O 0.58695 0.49205 0.24282 0.0
O334 O 0.6359 0.53584 0.28247 0.0
O335 O 0.60593 0.52407 0.27048 0.0
H336 H 0.14799 0.43203 0.30579 0.0
H337 H 0.12707 0.40343 0.32025 0.0
H338 H 0.07124 0.43403 0.29932 0.0
H339 H 0.09221 0.46287 0.28436 0.0
H340 H 0.09741 0.40589 0.35162 0.0
H341 H 0.04263 0.40506 0.28583 0.0
H342 H 0.04034 0.40842 0.24693 0.0
H343 H 0.09631 0.37269 0.2399 0.0
H344 H 0.09901 0.36945 0.27877 0.0
H345 H 0.02372 0.33197 0.39109 0.0
H346 H 0.04017 0.3629 0.3751 0.0
H347 H 0.06458 0.32314 0.32524 0.0
H348 H 0.04715 0.29236 0.34063 0.0
H349 H 0.05283 0.35739 0.30828 0.0
H350 H 0.09465 0.34321 0.36999 0.0
H351 H 0.10136 0.33746 0.40796 0.0
H352 H 0.07772 0.39913 0.42284 0.0
H353 H 0.07067 0.40515 0.38497 0.0
C354 C 0.13126 0.43279 0.30412 0.0
C355 C 0.12183 0.44991 0.29388 0.0
C356 C 0.11931 0.41633 0.31245 0.0
C357 C 0.09759 0.41644 0.31077 0.0
C358 C 0.08801 0.43339 0.30049 0.0
C359 C 0.10002 0.44994 0.29204 0.0
C360 C 0.08524 0.39902 0.32045 0.0
C361 C 0.08743 0.39543 0.34222 0.0
C362 C 0.07262 0.38509 0.30821 0.0
C363 C 0.07105 0.38711 0.28503 0.0
C364 C 0.05442 0.39797 0.27592 0.0
C365 C 0.05309 0.3999 0.25393 0.0
C366 C 0.06818 0.39079 0.24095 0.0
C367 C 0.08467 0.37979 0.24996 0.0
C368 C 0.08615 0.37797 0.27195 0.0
C369 C 0.03268 0.32982 0.37676 0.0
C370 C 0.03427 0.30971 0.3672 0.0
C371 C 0.04215 0.34754 0.36764 0.0
C372 C 0.054 0.34545 0.34908 0.0
C373 C 0.05555 0.32529 0.33952 0.0
C374 C 0.04568 0.30765 0.34839 0.0
C375 C 0.06483 0.36415 0.33968 0.0
C376 C 0.06247 0.36798 0.3179 0.0
C377 C 0.07763 0.37811 0.35194 0.0
C378 C 0.08195 0.37454 0.37469 0.0
C379 C 0.09077 0.35548 0.38138 0.0
C380 C 0.09465 0.35219 0.40288 0.0
C381 C 0.08992 0.36789 0.41781 0.0
C382 C 0.08135 0.38696 0.41127 0.0
C383 C 0.07743 0.39033 0.38979 0.0
H384 H 0.09293 0.36531 0.43444 0.0
H385 H 0.06709 0.39224 0.22393 0.0
H386 H 0.95877 0.82067 0.63147 0.0
H387 H 0.92789 0.8322 0.61261 0.0
H388 H 0.92351 0.77158 0.58061 0.0
H389 H 0.95509 0.76011 0.59916 0.0
H390 H 0.91171 0.8019 0.55435 0.0
H391 H 0.8932 0.78294 0.62427 0.0
H392 H 0.89545 0.78241 0.66324 0.0
H393 H 0.88374 0.84914 0.66607 0.0
H394 H 0.88172 0.85014 0.62709 0.0
H395 H 0.80271 0.81973 0.53093 0.0
H396 H 0.83389 0.80426 0.54685 0.0
H397 H 0.85407 0.86622 0.5683 0.0
H398 H 0.82332 0.88183 0.55194 0.0
H399 H 0.85616 0.8317 0.59966 0.0
H400 H 0.87649 0.84937 0.52818 0.0
H401 H 0.87301 0.84794 0.4893 0.0
H402 H 0.87928 0.78037 0.48993 0.0
H403 H 0.88246 0.78137 0.52889 0.0
C404 C 0.95144 0.80985 0.6202 0.0
C405 C 0.95931 0.78938 0.61698 0.0
C406 C 0.93365 0.81642 0.6095 0.0
C407 C 0.92289 0.80258 0.59562 0.0
C408 C 0.93136 0.78252 0.59139 0.0
C409 C 0.94947 0.77599 0.60193 0.0
C410 C 0.90247 0.80898 0.58638 0.0
C411 C 0.89947 0.80808 0.56432 0.0
C412 C 0.88634 0.81715 0.59927 0.0
C413 C 0.88748 0.81664 0.62274 0.0
C414 C 0.89125 0.79753 0.6332 0.0
C415 C 0.89247 0.79715 0.65529 0.0
C416 C 0.88979 0.81574 0.66712 0.0
C417 C 0.88584 0.83476 0.65688 0.0
C418 C 0.88463 0.83524 0.63479 0.0
C419 C 0.81369 0.83001 0.53924 0.0
C420 C 0.81052 0.85201 0.54022 0.0
C421 C 0.83155 0.82117 0.54821 0.0
C422 C 0.84637 0.8341 0.55866 0.0
C423 C 0.84287 0.85595 0.56028 0.0
C424 C 0.82528 0.86484 0.55093 0.0
C425 C 0.86569 0.82501 0.56773 0.0
C426 C 0.86839 0.82536 0.58976 0.0
C427 C 0.88132 0.81603 0.55486 0.0
C428 C 0.87944 0.81542 0.53146 0.0
C429 C 0.8769 0.83418 0.52005 0.0
C430 C 0.87503 0.83346 0.49799 0.0
C431 C 0.87585 0.81407 0.48715 0.0
C432 C 0.8786 0.79537 0.49835 0.0
C433 C 0.88044 0.79601 0.52042 0.0
H434 H 0.87442 0.81354 0.47008 0.0
H435 H 0.89073 0.81541 0.68422 0.0
H436 H 0.45577 0.55058 0.77605 0.0
H437 H 0.46558 0.58207 0.79641 0.0
H438 H 0.40254 0.58826 0.8182 0.0
H439 H 0.39242 0.55645 0.79759 0.0
H440 H 0.41914 0.62645 0.8048 0.0
H441 H 0.43832 0.57315 0.85266 0.0
H442 H 0.45379 0.53978 0.86446 0.0
H443 H 0.51435 0.56244 0.84685 0.0
H444 H 0.49922 0.59584 0.83464 0.0
H445 H 0.46245 0.71168 0.87121 0.0
H446 H 0.4439 0.67858 0.86159 0.0
H447 H 0.49731 0.65768 0.82648 0.0
H448 H 0.51566 0.69054 0.83562 0.0
H449 H 0.48 0.62639 0.85334 0.0
H450 H 0.45871 0.67713 0.80035 0.0
H451 H 0.44278 0.71033 0.78867 0.0
H452 H 0.38513 0.69208 0.81752 0.0
H453 H 0.40084 0.65887 0.82963 0.0
C454 C 0.44391 0.55847 0.78522 0.0
C455 C 0.42326 0.55088 0.78513 0.0
C456 C 0.44961 0.57649 0.79698 0.0
C457 C 0.43487 0.58747 0.80903 0.0
C458 C 0.4142 0.58001 0.80908 0.0
C459 C 0.40847 0.56176 0.79737 0.0
C460 C 0.44133 0.60703 0.82092 0.0
C461 C 0.43211 0.62637 0.81583 0.0
C462 C 0.45834 0.60702 0.83524 0.0
C463 C 0.4676 0.58698 0.84262 0.0
C464 C 0.45492 0.57097 0.85116 0.0
C465 C 0.46363 0.55205 0.85794 0.0
C466 C 0.48503 0.54898 0.85637 0.0
C467 C 0.49777 0.56484 0.84805 0.0
C468 C 0.48914 0.58379 0.84123 0.0
C469 C 0.47023 0.69996 0.86153 0.0
C470 C 0.4905 0.70382 0.8541 0.0
C471 C 0.45961 0.6811 0.856 0.0
C472 C 0.46923 0.66567 0.84328 0.0
C473 C 0.48959 0.66933 0.83632 0.0
C474 C 0.50002 0.68821 0.84149 0.0
C475 C 0.45826 0.64578 0.83667 0.0
C476 C 0.46669 0.62638 0.84273 0.0
C477 C 0.44045 0.64575 0.82342 0.0
C478 C 0.43103 0.66568 0.81615 0.0
C479 C 0.44271 0.6803 0.80439 0.0
C480 C 0.4337 0.6991 0.79765 0.0
C481 C 0.41298 0.70336 0.80242 0.0
C482 C 0.4012 0.68879 0.81389 0.0
C483 C 0.41014 0.66998 0.82069 0.0
H484 H 0.40603 0.71791 0.79718 0.0
H485 H 0.49175 0.53432 0.86163 0.0
H486 H 0.56999 0.20857 0.14214 0.0
H487 H 0.60154 0.19354 0.12714 0.0
H488 H 0.5842 0.21655 0.06556 0.0
H489 H 0.55192 0.23048 0.08041 0.0
H490 H 0.60148 0.18154 0.0596 0.0
H491 H 0.62188 0.24243 0.10073 0.0
H492 H 0.62411 0.26545 0.13253 0.0
H493 H 0.65494 0.21628 0.16639 0.0
H494 H 0.65266 0.19288 0.13488 0.0
H495 H 0.72256 0.18509 0.04685 0.0
H496 H 0.69082 0.20075 0.06135 0.0
H497 H 0.66158 0.139 0.06192 0.0
H498 H 0.69293 0.12341 0.04721 0.0
H499 H 0.66849 0.19661 0.09628 0.0
H500 H 0.61073 0.1423 0.04893 0.0
H501 H 0.60918 0.12301 0.01474 0.0
H502 H 0.65429 0.16592 0.98887 0.0
H503 H 0.65588 0.18568 0.02278 0.0
C504 C 0.57278 0.21016 0.12534 0.0
C505 C 0.55849 0.22074 0.11246 0.0
C506 C 0.59098 0.20176 0.11678 0.0
C507 C 0.59576 0.20441 0.09526 0.0
C508 C 0.58108 0.21434 0.08222 0.0
C509 C 0.56257 0.22228 0.0907 0.0
C510 C 0.61607 0.19705 0.08647 0.0
C511 C 0.61608 0.18488 0.06768 0.0
C512 C 0.63539 0.20175 0.09657 0.0
C513 C 0.63695 0.21585 0.11549 0.0
C514 C 0.62904 0.2365 0.11499 0.0
C515 C 0.63032 0.24961 0.13297 0.0
C516 C 0.63962 0.24232 0.15148 0.0
C517 C 0.64772 0.22191 0.15205 0.0
C518 C 0.64646 0.20872 0.13413 0.0
C519 C 0.70944 0.17484 0.05029 0.0
C520 C 0.71028 0.15301 0.04574 0.0
C521 C 0.69128 0.18381 0.05856 0.0
C522 C 0.67359 0.17115 0.06237 0.0
C523 C 0.67479 0.14922 0.0587 0.0
C524 C 0.69283 0.1403 0.0504 0.0
C525 C 0.65373 0.18073 0.06978 0.0
C526 C 0.65385 0.19332 0.08825 0.0
C527 C 0.63461 0.17696 0.05906 0.0
C528 C 0.63357 0.16533 0.03849 0.0
C529 C 0.62025 0.14768 0.03592 0.0
C530 C 0.61938 0.13665 0.01659 0.0
C531 C 0.63168 0.14319 0.99968 0.0
C532 C 0.64483 0.16083 1.00202 0.0
C533 C 0.64574 0.17193 0.0213 0.0
H534 H 0.63099 0.13461 0.98476 0.0
H535 H 0.64059 0.25249 0.16538 0.0
H536 H 0.13513 0.57406 0.23342 0.0
H537 H 0.1175 0.60379 0.21753 0.0
H538 H 0.06447 0.56361 0.20316 0.0
H539 H 0.08187 0.53378 0.22 0.0
H540 H 0.10445 0.61416 0.18134 0.0
H541 H 0.02015 0.59232 0.20414 0.0
H542 H 1.00119 0.57238 0.23145 0.0
H543 H 0.05177 0.5826 0.27514 0.0
H544 H 0.0709 0.60279 0.24818 0.0
H545 H 0.03787 0.6918 0.13577 0.0
H546 H 0.05466 0.65871 0.14575 0.0
H547 H 0.04193 0.67231 0.21152 0.0
H548 H 0.02451 0.70471 0.2016 0.0
H549 H 0.03386 0.63356 0.20524 0.0
H550 H 0.09194 0.67818 0.18754 0.0
H551 H 0.11307 0.70145 0.1649 0.0
H552 H 0.11885 0.65121 0.11894 0.0
H553 H 0.09752 0.62772 0.14121 0.0
C554 C 0.11974 0.57144 0.2268 0.0
C555 C 0.10987 0.55151 0.22813 0.0
C556 C 0.10967 0.58852 0.2176 0.0
C557 C 0.08949 0.58619 0.20929 0.0
C558 C 0.07986 0.56605 0.20982 0.0
C559 C 0.08986 0.54893 0.21934 0.0
C560 C 0.07852 0.6051 0.20085 0.0
C561 C 0.08895 0.6183 0.18649 0.0
C562 C 0.05842 0.61088 0.20772 0.0
C563 C 0.04704 0.59881 0.22406 0.0
C564 C 0.0272 0.59032 0.21959 0.0
C565 C 0.01643 0.57899 0.235 0.0
C566 C 0.02531 0.57615 0.25499 0.0
C567 C 0.04495 0.58472 0.25963 0.0
C568 C 0.05577 0.59609 0.24428 0.0
C569 C 0.03877 0.68776 0.15236 0.0
C570 C 0.02979 0.70093 0.16786 0.0
C571 C 0.04843 0.66884 0.15808 0.0
C572 C 0.04974 0.66292 0.17947 0.0
C573 C 0.04103 0.67628 0.19491 0.0
C574 C 0.03112 0.69493 0.1892 0.0
C575 C 0.0599 0.64282 0.18599 0.0
C576 C 0.04927 0.62932 0.1999 0.0
C577 C 0.08012 0.6372 0.17932 0.0
C578 C 0.09294 0.65128 0.16592 0.0
C579 C 0.09758 0.67215 0.17253 0.0
C580 C 0.10962 0.68537 0.15978 0.0
C581 C 0.11724 0.67784 0.14046 0.0
C582 C 0.11289 0.65704 0.13389 0.0
C583 C 0.10084 0.64376 0.14657 0.0
H584 H 0.12655 0.68809 0.13062 0.0
H585 H 0.01695 0.56736 0.26689 0.0
H586 H 0.57351 0.81068 0.37858 0.0
H587 H 0.60515 0.81923 0.39801 0.0
H588 H 0.58448 0.78097 0.44999 0.0
H589 H 0.5523 0.77199 0.43036 0.0
H590 H 0.60348 0.82107 0.46246 0.0
H591 H 0.61963 0.76048 0.42086 0.0
H592 H 0.62043 0.73777 0.38885 0.0
H593 H 0.65626 0.78504 0.35659 0.0
H594 H 0.6554 0.8082 0.3883 0.0
H595 H 0.70847 0.83816 0.5013 0.0
H596 H 0.67726 0.818 0.4901 0.0
H597 H 0.67905 0.8484 0.42942 0.0
H598 H 0.70983 0.86869 0.44056 0.0
H599 H 0.66991 0.80492 0.42642 0.0
H600 H 0.64835 0.86719 0.46622 0.0
H601 H 0.64718 0.89024 0.49799 0.0
H602 H 0.62159 0.83903 0.53392 0.0
H603 H 0.6229 0.81558 0.50239 0.0
C604 C 0.57545 0.80404 0.39417 0.0
C605 C 0.56026 0.79042 0.40275 0.0
C606 C 0.59369 0.80897 0.40527 0.0
C607 C 0.59738 0.80049 0.42531 0.0
C608 C 0.582 0.78759 0.43446 0.0
C609 C 0.56362 0.78248 0.42322 0.0
C610 C 0.61765 0.80504 0.43605 0.0
C611 C 0.61804 0.81706 0.4549 0.0
C612 C 0.63668 0.80002 0.42608 0.0
C613 C 0.63734 0.78614 0.40695 0.0
C614 C 0.62755 0.76611 0.40689 0.0
C615 C 0.62804 0.75314 0.38881 0.0
C616 C 0.63837 0.75997 0.37069 0.0
C617 C 0.64826 0.77977 0.37064 0.0
C618 C 0.6478 0.79281 0.38868 0.0
C619 C 0.70243 0.84019 0.48543 0.0
C620 C 0.7116 0.85503 0.47181 0.0
C621 C 0.68452 0.82879 0.47911 0.0
C622 C 0.67571 0.83181 0.45896 0.0
C623 C 0.68553 0.8458 0.44502 0.0
C624 C 0.70313 0.85741 0.45142 0.0
C625 C 0.65572 0.82144 0.45248 0.0
C626 C 0.6554 0.80841 0.43433 0.0
C627 C 0.63682 0.82547 0.46314 0.0
C628 C 0.636 0.83956 0.48205 0.0
C629 C 0.64266 0.86079 0.48095 0.0
C630 C 0.64194 0.87394 0.4989 0.0
C631 C 0.63439 0.86608 0.51799 0.0
C632 C 0.62749 0.84507 0.51914 0.0
C633 C 0.62822 0.83185 0.50124 0.0
H634 H 0.63383 0.87628 0.53186 0.0
H635 H 0.63873 0.7499 0.3567 0.0
H636 H 0.49216 0.32576 0.62831 0.0
H637 H 0.47481 0.35664 0.64362 0.0
H638 H 0.45585 0.31955 0.6971 0.0
H639 H 0.47358 0.28863 0.68208 0.0
H640 H 0.42355 0.34652 0.67751 0.0
H641 H 0.49414 0.3499 0.70519 0.0
H642 H 0.53226 0.35054 0.70142 0.0
H643 H 0.52846 0.40622 0.66341 0.0
H644 H 0.49027 0.40573 0.66671 0.0
H645 H 0.38919 0.42712 0.74673 0.0
H646 H 0.40489 0.39639 0.72975 0.0
H647 H 0.44363 0.43779 0.69249 0.0
H648 H 0.42911 0.46854 0.71105 0.0
H649 H 0.46584 0.40826 0.70221 0.0
H650 H 0.39725 0.40699 0.67307 0.0
H651 H 0.35894 0.40718 0.67317 0.0
H652 H 0.35789 0.34944 0.70826 0.0
H653 H 0.39621 0.34904 0.70861 0.0
C654 C 0.4842 0.32412 0.64327 0.0
C655 C 0.48429 0.30476 0.65403 0.0
C656 C 0.47434 0.3418 0.65202 0.0
C657 C 0.46412 0.34041 0.67153 0.0
C658 C 0.46365 0.32095 0.68202 0.0
C659 C 0.47382 0.30333 0.67346 0.0
C660 C 0.45441 0.35942 0.68124 0.0
C661 C 0.43273 0.35998 0.68315 0.0
C662 C 0.46638 0.37725 0.68781 0.0
C663 C 0.48934 0.37765 0.68603 0.0
C664 C 0.50142 0.36218 0.69589 0.0
C665 C 0.52305 0.36253 0.69386 0.0
C666 C 0.53278 0.37838 0.68213 0.0
C667 C 0.52091 0.39394 0.67246 0.0
C668 C 0.49928 0.39364 0.67442 0.0
C669 C 0.40096 0.42962 0.7348 0.0
C670 C 0.40783 0.45018 0.73005 0.0
C671 C 0.40985 0.41201 0.72491 0.0
C672 C 0.42515 0.41453 0.70926 0.0
C673 C 0.43187 0.43522 0.70441 0.0
C674 C 0.4235 0.45283 0.71492 0.0
C675 C 0.43468 0.39565 0.69863 0.0
C676 C 0.45642 0.39501 0.69651 0.0
C677 C 0.42267 0.37797 0.69131 0.0
C678 C 0.39961 0.37809 0.69102 0.0
C679 C 0.38885 0.3944 0.68091 0.0
C680 C 0.36713 0.39454 0.68088 0.0
C681 C 0.35599 0.37836 0.69075 0.0
C682 C 0.36654 0.36197 0.70064 0.0
C683 C 0.38826 0.36177 0.70073 0.0
H684 H 0.33917 0.3785 0.69072 0.0
H685 H 0.54952 0.37862 0.68058 0.0
H686 H 0.97184 0.22402 0.94314 0.0
H687 H 0.94105 0.20808 0.95963 0.0
H688 H 0.90763 0.2123 0.90053 0.0
H689 H 0.93814 0.22823 0.88406 0.0
H690 H 0.88412 0.22636 0.93226 0.0
H691 H 0.92515 0.16515 0.91821 0.0
H692 H 0.95622 0.14273 0.91939 0.0
H693 H 0.95306 0.14154 0.98725 0.0
H694 H 0.92212 0.16423 0.98648 0.0
H695 H 0.80679 0.14246 0.94601 0.0
H696 H 0.83756 0.16252 0.93471 0.0
H697 H 0.84993 0.18119 0.99944 0.0
H698 H 0.81856 0.16176 0.01078 0.0
H699 H 0.88416 0.15706 0.96826 0.0
H700 H 0.84137 0.21847 0.98089 0.0
H701 H 0.80936 0.23924 0.97755 0.0
H702 H 0.81529 0.23819 0.90986 0.0
H703 H 0.84717 0.21707 0.91281 0.0
C704 C 0.958 0.22135 0.93362 0.0
C705 C 0.95752 0.22738 0.91226 0.0
C706 C 0.94038 0.21223 0.94306 0.0
C707 C 0.92193 0.20895 0.93135 0.0
C708 C 0.92157 0.21474 0.90997 0.0
C709 C 0.93914 0.22375 0.90052 0.0
C710 C 0.90284 0.19985 0.94129 0.0
C711 C 0.88419 0.21117 0.94007 0.0
C712 C 0.90282 0.18015 0.95177 0.0
C713 C 0.92148 0.16662 0.9523 0.0
C714 C 0.9312 0.16029 0.9334 0.0
C715 C 0.94876 0.14749 0.93398 0.0
C716 C 0.95665 0.14078 0.95338 0.0
C717 C 0.94696 0.1468 0.97223 0.0
C718 C 0.92941 0.15962 0.97173 0.0
C719 C 0.81581 0.15125 0.95777 0.0
C720 C 0.81018 0.15073 0.97924 0.0
C721 C 0.83341 0.16261 0.95131 0.0
C722 C 0.84604 0.17328 0.96623 0.0
C723 C 0.84033 0.17311 0.98768 0.0
C724 C 0.82235 0.16218 0.9941 0.0
C725 C 0.86567 0.18365 0.95927 0.0
C726 C 0.8843 0.17244 0.96082 0.0
C727 C 0.86567 0.20333 0.94892 0.0
C728 C 0.84649 0.21594 0.94706 0.0
C729 C 0.8357 0.22242 0.96528 0.0
C730 C 0.81762 0.23432 0.96347 0.0
C731 C 0.81025 0.23997 0.9435 0.0
C732 C 0.82098 0.23377 0.92532 0.0
C733 C 0.83907 0.22184 0.92705 0.0
H734 H 0.79626 0.2492 0.94212 0.0
H735 H 0.97024 0.13086 0.95381 0.0
H736 H 0.29086 0.08207 0.47552 0.0
H737 H 0.30897 0.06709 0.44474 0.0
H738 H 0.28939 0.11967 0.40702 0.0
H739 H 0.27176 0.13501 0.4378 0.0
H740 H 0.28194 0.07565 0.3894 0.0
H741 H 0.33541 0.12173 0.42005 0.0
H742 H 0.35764 0.13451 0.44956 0.0
H743 H 0.38361 0.07257 0.45549 0.0
H744 H 0.36127 0.05934 0.42623 0.0
H745 H 0.33704 0.05161 0.29621 0.0
H746 H 0.32186 0.07021 0.32654 0.0
H747 H 0.36199 0.03599 0.36875 0.0
H748 H 0.37831 0.01886 0.33828 0.0
H749 H 0.3587 0.0714 0.3848 0.0
H750 H 0.30666 0.02339 0.35778 0.0
H751 H 0.28336 0.00678 0.33109 0.0
H752 H 0.25349 0.06633 0.32147 0.0
H753 H 0.27679 0.08336 0.34794 0.0
C754 C 0.29051 0.09047 0.46069 0.0
C755 C 0.27992 0.10973 0.45906 0.0
C756 C 0.30086 0.08192 0.44316 0.0
C757 C 0.30049 0.09229 0.42363 0.0
C758 C 0.28984 0.11143 0.42195 0.0
C759 C 0.27985 0.1202 0.43956 0.0
C760 C 0.31099 0.08304 0.40486 0.0
C761 C 0.29873 0.07492 0.38819 0.0
C762 C 0.33284 0.08144 0.40374 0.0
C763 C 0.34652 0.0895 0.42108 0.0
C764 C 0.34573 0.1108 0.42776 0.0
C765 C 0.35838 0.11813 0.44442 0.0
C766 C 0.37199 0.10435 0.45443 0.0
C767 C 0.37304 0.08322 0.44774 0.0
C768 C 0.3604 0.0758 0.43111 0.0
C769 C 0.34272 0.0483 0.31199 0.0
C770 C 0.35878 0.03379 0.31495 0.0
C771 C 0.33389 0.05875 0.32938 0.0
C772 C 0.34024 0.05413 0.35018 0.0
C773 C 0.35667 0.03992 0.353 0.0
C774 C 0.366 0.03007 0.33556 0.0
C775 C 0.32968 0.06379 0.36898 0.0
C776 C 0.3419 0.07202 0.38579 0.0
C777 C 0.3077 0.06489 0.37053 0.0
C778 C 0.29361 0.05468 0.35468 0.0
C779 C 0.29521 0.03297 0.34988 0.0
C780 C 0.28199 0.02348 0.3348 0.0
C781 C 0.267 0.03551 0.32455 0.0
C782 C 0.26514 0.05704 0.3294 0.0
C783 C 0.27833 0.06661 0.34445 0.0
H784 H 0.25678 0.02813 0.31288 0.0
H785 H 0.38176 0.11005 0.46734 0.0
H786 H 0.16767 0.01831 0.71099 0.0
H787 H 0.18759 0.03082 0.68062 0.0
H788 H 0.15177 0.08814 0.68011 0.0
H789 H 0.1312 0.0752 0.70973 0.0
H790 H 0.15458 0.07519 0.64224 0.0
H791 H 0.20549 0.08494 0.69743 0.0
H792 H 0.22751 0.07449 0.72752 0.0
H793 H 0.25653 0.02725 0.68856 0.0
H794 H 0.2345 0.03723 0.65831 0.0
H795 H 0.21936 0.12704 0.56641 0.0
H796 H 0.20113 0.11786 0.59907 0.0
H797 H 0.23061 0.05692 0.59882 0.0
H798 H 0.24907 0.06601 0.56661 0.0
H799 H 0.23141 0.0735 0.63759 0.0
H800 H 0.1793 0.06341 0.5829 0.0
H801 H 0.15754 0.07451 0.55287 0.0
H802 H 0.13111 0.12362 0.59148 0.0
H803 H 0.15292 0.11297 0.62167 0.0
C804 C 0.16425 0.0337 0.70457 0.0
C805 C 0.14786 0.04575 0.7128 0.0
C806 C 0.17571 0.04091 0.6872 0.0
C807 C 0.17144 0.06062 0.67806 0.0
C808 C 0.1554 0.07287 0.6867 0.0
C809 C 0.14368 0.06549 0.70374 0.0
C810 C 0.18292 0.06809 0.65895 0.0
C811 C 0.17141 0.07514 0.64145 0.0
C812 C 0.20489 0.06768 0.6575 0.0
C813 C 0.21821 0.06172 0.67566 0.0
C814 C 0.21647 0.07223 0.69532 0.0
C815 C 0.22897 0.0664 0.7124 0.0
C816 C 0.24337 0.05019 0.70997 0.0
C817 C 0.24535 0.03979 0.69043 0.0
C818 C 0.23288 0.04554 0.67331 0.0
C819 C 0.22197 0.11168 0.57329 0.0
C820 C 0.23572 0.0973 0.56374 0.0
C821 C 0.21146 0.10642 0.59196 0.0
C822 C 0.21434 0.08659 0.60139 0.0
C823 C 0.22813 0.07232 0.59194 0.0
C824 C 0.23865 0.07756 0.57339 0.0
C825 C 0.20305 0.08052 0.62103 0.0
C826 C 0.21459 0.07369 0.63855 0.0
C827 C 0.18114 0.08125 0.62256 0.0
C828 C 0.1679 0.08753 0.60447 0.0
C829 C 0.16895 0.07666 0.58494 0.0
C830 C 0.15659 0.08286 0.5679 0.0
C831 C 0.14299 0.0998 0.57025 0.0
C832 C 0.14167 0.11053 0.58967 0.0
C833 C 0.15402 0.10441 0.60675 0.0
H834 H 0.13344 0.10458 0.55703 0.0
H835 H 0.25303 0.0457 0.72321 0.0
H836 H 0.12885 0.96596 0.82574 0.0
H837 H 0.14582 0.94827 0.85514 0.0
H838 H 0.20579 0.9628 0.82841 0.0
H839 H 0.18876 0.97994 0.79845 0.0
H840 H 0.20731 0.92546 0.84488 0.0
H841 H 0.18478 0.99264 0.87001 0.0
H842 H 0.16029 0.02166 0.8767 0.0
H843 H 0.12271 0.98058 0.91475 0.0
H844 H 0.14685 0.95122 0.90805 0.0
H845 H 0.23819 0.93019 0.96547 0.0
H846 H 0.22266 0.94626 0.93427 0.0
H847 H 0.21013 0.88415 0.90761 0.0
H848 H 0.22645 0.86804 0.93845 0.0
H849 H 0.18683 0.94697 0.91758 0.0
H850 H 0.21121 0.88464 0.85424 0.0
H851 H 0.23971 0.8596 0.84784 0.0
H852 H 0.28069 0.89795 0.88656 0.0
H853 H 0.25253 0.92336 0.89296 0.0
C854 C 0.14565 0.96522 0.82598 0.0
C855 C 0.15746 0.97449 0.80981 0.0
C856 C 0.15537 0.95519 0.84291 0.0
C857 C 0.17715 0.95459 0.84436 0.0
C858 C 0.18897 0.96311 0.82778 0.0
C859 C 0.17922 0.97292 0.81064 0.0
C860 C 0.18747 0.94561 0.86344 0.0
C861 C 0.2028 0.93016 0.86077 0.0
C862 C 0.18209 0.95207 0.88427 0.0
C863 C 0.16752 0.96968 0.88836 0.0
C864 C 0.17121 0.98975 0.87968 0.0
C865 C 0.15741 0.00627 0.88349 0.0
C866 C 0.13993 0.00295 0.8961 0.0
C867 C 0.13624 0.98312 0.90497 0.0
C868 C 0.14999 0.96654 0.90118 0.0
C869 C 0.23211 0.91994 0.95297 0.0
C870 C 0.23368 0.89784 0.95438 0.0
C871 C 0.22318 0.92917 0.93511 0.0
C872 C 0.21546 0.9165 0.9183 0.0
C873 C 0.21641 0.89435 0.92004 0.0
C874 C 0.22562 0.88513 0.93777 0.0
C875 C 0.20641 0.92652 0.89907 0.0
C876 C 0.19132 0.9422 0.90171 0.0
C877 C 0.21257 0.92081 0.87825 0.0
C878 C 0.22969 0.90578 0.87425 0.0
C879 C 0.22633 0.88777 0.86132 0.0
C880 C 0.24242 0.87351 0.8577 0.0
C881 C 0.26197 0.87715 0.86684 0.0
C882 C 0.26551 0.89511 0.87955 0.0
C883 C 0.24949 0.90943 0.88319 0.0
H884 H 0.2744 0.86608 0.86405 0.0
H885 H 0.12926 0.01576 0.89904 0.0
H886 H 0.30637 0.89559 0.05176 0.0
H887 H 0.32421 0.90794 0.08427 0.0
H888 H 0.26635 0.93267 0.10772 0.0
H889 H 0.24894 0.92134 0.07517 0.0
H890 H 0.29434 0.96118 0.11242 0.0
H891 H 0.29221 0.88561 0.12694 0.0
H892 H 0.30003 0.84815 0.11936 0.0
H893 H 0.36536 0.86279 0.11942 0.0
H894 H 0.35789 0.90039 0.12677 0.0
H895 H 0.30903 0.98367 0.21888 0.0
H896 H 0.29872 0.96525 0.18633 0.0
H897 H 0.36288 0.95171 0.17296 0.0
H898 H 0.37336 0.96977 0.20611 0.0
H899 H 0.3374 0.91854 0.16083 0.0
H900 H 0.33968 0.99321 0.14923 0.0
H901 H 0.33215 0.03067 0.15709 0.0
H902 H 0.26673 0.01776 0.15097 0.0
H903 H 0.27385 0.98015 0.14336 0.0
C904 C 0.2975 0.90346 0.06402 0.0
C905 C 0.2763 0.90766 0.06085 0.0
C906 C 0.30768 0.91046 0.08263 0.0
C907 C 0.29668 0.92129 0.0986 0.0
C908 C 0.27532 0.92461 0.09566 0.0
C909 C 0.26533 0.91806 0.07701 0.0
C910 C 0.30716 0.93036 0.1179 0.0
C911 C 0.30355 0.9517 0.12307 0.0
C912 C 0.32004 0.91843 0.13146 0.0
C913 C 0.32448 0.89583 0.12717 0.0
C914 C 0.30823 0.88086 0.12519 0.0
C915 C 0.3126 0.8596 0.12097 0.0
C916 C 0.33318 0.8531 0.11885 0.0
C917 C 0.34943 0.86784 0.12103 0.0
C918 C 0.34514 0.88912 0.12524 0.0
C919 C 0.321 0.97663 0.20917 0.0
C920 C 0.34207 0.97847 0.21499 0.0
C921 C 0.31506 0.96611 0.19049 0.0
C922 C 0.33004 0.95754 0.17687 0.0
C923 C 0.35104 0.95833 0.18312 0.0
C924 C 0.35701 0.96867 0.20207 0.0
C925 C 0.32361 0.94894 0.15569 0.0
C926 C 0.32821 0.92793 0.15009 0.0
C927 C 0.31162 0.96114 0.14161 0.0
C928 C 0.3073 0.98384 0.14584 0.0
C929 C 0.32368 0.99834 0.14966 0.0
C930 C 0.31949 0.0196 0.15406 0.0
C931 C 0.29898 0.02658 0.15456 0.0
C932 C 0.28261 0.01233 0.15059 0.0
C933 C 0.28672 0.99105 0.14619 0.0
H934 H 0.29576 0.04305 0.15799 0.0
H935 H 0.33653 0.83664 0.11557 0.0
H936 H 0.2945 0.32599 0.05033 0.0
H937 H 0.32446 0.30934 0.06764 0.0
H938 H 0.36566 0.35479 0.03892 0.0
H939 H 0.33599 0.37176 0.0222 0.0
H940 H 0.37848 0.30991 0.03607 0.0
H941 H 0.3562 0.36397 0.08597 0.0
H942 H 0.33051 0.38177 0.10871 0.0
H943 H 0.32083 0.32428 0.14299 0.0
H944 H 0.34623 0.30605 0.12022 0.0
H945 H 0.47299 0.29532 0.09442 0.0
H946 H 0.44275 0.30813 0.07464 0.0
H947 H 0.40187 0.2797 0.12052 0.0
H948 H 0.43196 0.26824 0.14079 0.0
H949 H 0.38788 0.31526 0.11391 0.0
H950 H 0.40971 0.26054 0.06603 0.0
H951 H 0.43391 0.24091 0.0431 0.0
H952 H 0.44269 0.29596 0.00489 0.0
H953 H 0.41874 0.31601 0.02775 0.0
C954 C 0.30995 0.33239 0.04773 0.0
C955 C 0.31285 0.35026 0.03501 0.0
C956 C 0.32704 0.32288 0.0576 0.0
C957 C 0.34731 0.33082 0.05451 0.0
C958 C 0.3502 0.34836 0.04146 0.0
C959 C 0.33318 0.35811 0.03203 0.0
C960 C 0.36554 0.32136 0.06531 0.0
C961 C 0.38067 0.31113 0.05308 0.0
C962 C 0.36814 0.3226 0.08751 0.0
C963 C 0.35293 0.33358 0.10123 0.0
C964 C 0.34844 0.35506 0.09822 0.0
C965 C 0.33396 0.36525 0.11114 0.0
C966 C 0.32401 0.35415 0.12724 0.0
C967 C 0.32853 0.33285 0.13048 0.0
C968 C 0.34297 0.32259 0.11758 0.0
C969 C 0.45751 0.29161 0.10002 0.0
C970 C 0.45479 0.28079 0.11909 0.0
C971 C 0.44017 0.29886 0.08869 0.0
C972 C 0.41978 0.29481 0.09588 0.0
C973 C 0.41726 0.28328 0.11459 0.0
C974 C 0.4345 0.27659 0.12613 0.0
C975 C 0.40106 0.30338 0.08476 0.0
C976 C 0.38579 0.31367 0.09691 0.0
C977 C 0.39818 0.30183 0.0625 0.0
C978 C 0.41259 0.28983 0.04873 0.0
C979 C 0.41692 0.2685 0.05283 0.0
C980 C 0.43057 0.25729 0.03983 0.0
C981 C 0.43988 0.2672 0.02258 0.0
C982 C 0.4355 0.28832 0.01827 0.0
C983 C 0.42187 0.29961 0.03123 0.0
H984 H 0.45044 0.25849 0.01254 0.0
H985 H 0.31284 0.36206 0.13725 0.0
H986 H 0.98572 0.82281 0.12531 0.0
H987 H 0.96858 0.85372 0.14073 0.0
H988 H 0.96222 0.82112 0.19996 0.0
H989 H 0.97973 0.79034 0.18476 0.0
H990 H 0.93157 0.86146 0.15714 0.0
H991 H 0.96801 0.85598 0.24077 0.0
H992 H 0.99975 0.84259 0.2578 0.0
H993 H 0.03336 0.85029 0.19981 0.0
H994 H 1.00191 0.86398 0.18252 0.0
H995 H 0.88059 0.9307 0.23023 0.0
H996 H 0.89594 0.90043 0.21171 0.0
H997 H 0.95521 0.93299 0.21089 0.0
H998 H 0.94004 0.96314 0.22963 0.0
H999 H 0.96017 0.8937 0.22329 0.0
H1000 H 0.92539 0.92713 0.16593 0.0
H1001 H 0.8958 0.94282 0.14709 0.0
H1002 H 0.86272 0.88346 0.14908 0.0
H1003 H 0.89202 0.86749 0.16822 0.0
C1004 C 0.98058 0.82218 0.14159 0.0
C1005 C 0.98424 0.80418 0.15387 0.0
C1006 C 0.97071 0.83986 0.15038 0.0
C1007 C 0.96433 0.83992 0.17161 0.0
C1008 C 0.96733 0.82164 0.18366 0.0
C1009 C 0.97728 0.80401 0.17492 0.0
C1010 C 0.95515 0.8593 0.18131 0.0
C1011 C 0.93779 0.86847 0.17164 0.0
C1012 C 0.96347 0.86878 0.20001 0.0
C1013 C 0.98254 0.86079 0.21031 0.0
C1014 C 0.9822 0.85488 0.23169 0.0
C1015 C 1.00014 0.84723 0.24138 0.0
C1016 C 0.01854 0.84552 0.22988 0.0
C1017 C 0.01908 0.85154 0.20868 0.0
C1018 C 1.00119 0.85923 0.19892 0.0
C1019 C 0.89685 0.93148 0.22593 0.0
C1020 C 0.9091 0.94932 0.23142 0.0
C1021 C 0.9056 0.91418 0.21529 0.0
C1022 C 0.92674 0.91442 0.2098 0.0
C1023 C 0.9389 0.93237 0.215 0.0
C1024 C 0.93017 0.94965 0.22564 0.0
C1025 C 0.93641 0.89572 0.1993 0.0
C1026 C 0.95387 0.88666 0.20884 0.0
C1027 C 0.92844 0.88664 0.18026 0.0
C1028 C 0.91082 0.89617 0.16869 0.0
C1029 C 0.91174 0.91746 0.1625 0.0
C1030 C 0.89503 0.9264 0.15174 0.0
C1031 C 0.87737 0.91416 0.14694 0.0
C1032 C 0.87641 0.89293 0.15284 0.0
C1033 C 0.89306 0.88393 0.16362 0.0
H1034 H 0.86445 0.92111 0.1386 0.0
H1035 H 0.03241 0.83958 0.2374 0.0
H1036 H 0.1896 0.62287 0.54027 0.0
H1037 H 0.15827 0.63795 0.55528 0.0
H1038 H 0.18938 0.69852 0.5621 0.0
H1039 H 0.22094 0.68348 0.54647 0.0
H1040 H 0.1485 0.65404 0.59148 0.0
H1041 H 0.15346 0.73805 0.55653 0.0
H1042 H 0.1682 0.7561 0.52552 0.0
H1043 H 0.1651 0.69795 0.48963 0.0
H1044 H 0.1501 0.67963 0.52033 0.0
H1045 H 0.07638 0.72114 0.64185 0.0
H1046 H 0.1072 0.70549 0.62619 0.0
H1047 H 0.07703 0.70378 0.56506 0.0
H1048 H 0.04599 0.71987 0.58071 0.0
H1049 H 0.1164 0.71815 0.56157 0.0
H1050 H 0.08342 0.65851 0.59319 0.0
H1051 H 0.06659 0.63823 0.62158 0.0
H1052 H 0.12212 0.64343 0.65934 0.0
H1053 H 0.1392 0.66402 0.63128 0.0
C1054 C 0.18992 0.6394 0.54504 0.0
C1055 C 0.20785 0.65197 0.54209 0.0
C1056 C 0.17191 0.64801 0.5537 0.0
C1057 C 0.17124 0.66946 0.55967 0.0
C1058 C 0.18932 0.682 0.55731 0.0
C1059 C 0.20743 0.67336 0.54853 0.0
C1060 C 0.15151 0.67845 0.56816 0.0
C1061 C 0.14158 0.66812 0.58496 0.0
C1062 C 0.14206 0.69655 0.55943 0.0
C1063 C 0.15088 0.70744 0.54081 0.0
C1064 C 0.15587 0.72914 0.542 0.0
C1065 C 0.16428 0.73941 0.52448 0.0
C1066 C 0.16765 0.72816 0.50564 0.0
C1067 C 0.16255 0.70663 0.50426 0.0
C1068 C 0.15412 0.69629 0.52172 0.0
C1069 C 0.07614 0.71728 0.62509 0.0
C1070 C 0.0586 0.72168 0.61256 0.0
C1071 C 0.09385 0.70828 0.61614 0.0
C1072 C 0.09449 0.70327 0.59444 0.0
C1073 C 0.07695 0.7075 0.58185 0.0
C1074 C 0.05914 0.71654 0.59084 0.0
C1075 C 0.1136 0.69387 0.58503 0.0
C1076 C 0.1234 0.70413 0.56811 0.0
C1077 C 0.12271 0.6754 0.59331 0.0
C1078 C 0.11252 0.66298 0.61021 0.0
C1079 C 0.09199 0.65547 0.60761 0.0
C1080 C 0.08241 0.6439 0.62364 0.0
C1081 C 0.09326 0.63959 0.64227 0.0
C1082 C 0.11373 0.64681 0.6449 0.0
C1083 C 0.12337 0.65841 0.62894 0.0
H1084 H 0.08582 0.63062 0.65466 0.0
H1085 H 0.17417 0.73613 0.49211 0.0
H1086 H 0.00553 0.68815 0.65896 0.0
H1087 H 0.99245 0.6544 0.67299 0.0
H1088 H 0.94072 0.68701 0.70121 0.0
H1089 H 0.95403 0.72046 0.68805 0.0
H1090 H 0.95633 0.66255 0.72894 0.0
H1091 H 0.93759 0.65379 0.65457 0.0
H1092 H 0.94496 0.65129 0.61633 0.0
H1093 H 0.98549 0.59899 0.62717 0.0
H1094 H 0.97853 0.60133 0.66552 0.0
H1095 H 0.87705 0.58954 0.74755 0.0
H1096 H 0.89953 0.6167 0.73281 0.0
H1097 H 0.94672 0.57029 0.72068 0.0
H1098 H 0.92404 0.54261 0.73537 0.0
H1099 H 0.94043 0.59774 0.68646 0.0
H1100 H 0.95412 0.60389 0.76075 0.0
H1101 H 0.94472 0.60618 0.7985 0.0
H1102 H 0.91215 0.66392 0.78734 0.0
H1103 H 0.92111 0.66183 0.74947 0.0
C1104 C 0.99128 0.68799 0.668 0.0
C1105 C 0.98091 0.70699 0.67254 0.0
C1106 C 0.98378 0.6687 0.676 0.0
C1107 C 0.96555 0.66807 0.68825 0.0
C1108 C 0.95493 0.687 0.69207 0.0
C1109 C 0.96254 0.70617 0.68446 0.0
C1110 C 0.95755 0.64812 0.69785 0.0
C1111 C 0.95278 0.64845 0.71955 0.0
C1112 C 0.95361 0.62932 0.68593 0.0
C1113 C 0.95774 0.6279 0.66291 0.0
C1114 C 0.9482 0.64186 0.64881 0.0
C1115 C 0.95227 0.64045 0.62712 0.0
C1116 C 0.96574 0.62504 0.61934 0.0
C1117 C 0.9751 0.61095 0.63322 0.0
C1118 C 0.97109 0.6123 0.65493 0.0
C1119 C 0.89221 0.58496 0.74184 0.0
C1120 C 0.89871 0.56379 0.74275 0.0
C1121 C 0.9051 0.6006 0.73344 0.0
C1122 C 0.9249 0.59561 0.72582 0.0
C1123 C 0.93151 0.57451 0.72652 0.0
C1124 C 0.91857 0.55874 0.73504 0.0
C1125 C 0.9384 0.6127 0.71719 0.0
C1126 C 0.94431 0.61176 0.69583 0.0
C1127 C 0.94327 0.63108 0.72935 0.0
C1128 C 0.93823 0.63265 0.75223 0.0
C1129 C 0.94488 0.61703 0.76632 0.0
C1130 C 0.93963 0.6183 0.78775 0.0
C1131 C 0.92782 0.63517 0.79531 0.0
C1132 C 0.9213 0.65086 0.78147 0.0
C1133 C 0.9265 0.64967 0.76002 0.0
H1134 H 0.92373 0.6361 0.81189 0.0
H1135 H 0.96887 0.62398 0.60254 0.0
H1136 H 0.18247 0.13388 0.49995 0.0
H1137 H 0.15179 0.15196 0.48651 0.0
H1138 H 0.18939 0.20756 0.47453 0.0
H1139 H 0.21959 0.19004 0.48969 0.0
H1140 H 0.15504 0.22104 0.48443 0.0
H1141 H 0.17378 0.16674 0.43472 0.0
H1142 H 0.18176 0.13061 0.42218 0.0
H1143 H 0.1207 0.10944 0.43985 0.0
H1144 H 0.11244 0.14541 0.45272 0.0
H1145 H 0.09507 0.25665 0.39457 0.0
H1146 H 0.12179 0.24109 0.41713 0.0
H1147 H 0.07453 0.2064 0.45065 0.0
H1148 H 0.04758 0.22238 0.42851 0.0
H1149 H 0.11145 0.18238 0.43136 0.0
H1150 H 0.09372 0.24115 0.47769 0.0
H1151 H 0.088 0.27896 0.48554 0.0
H1152 H 0.1509 0.29345 0.46801 0.0
H1153 H 0.15691 0.25574 0.45977 0.0
C1154 C 0.18403 0.15009 0.49477 0.0
C1155 C 0.20337 0.16056 0.49583 0.0
C1156 C 0.16653 0.16038 0.48682 0.0
C1157 C 0.16822 0.181 0.47874 0.0
C1158 C 0.18749 0.19168 0.48053 0.0
C1159 C 0.20481 0.18165 0.4892 0.0
C1160 C 0.15021 0.19124 0.46791 0.0
C1161 C 0.1457 0.21252 0.47271 0.0
C1162 C 0.13767 0.18033 0.45262 0.0
C1163 C 0.14258 0.1587 0.44489 0.0
C1164 C 0.16211 0.15434 0.43605 0.0
C1165 C 0.16667 0.1339 0.42887 0.0
C1166 C 0.15177 0.11773 0.43027 0.0
C1167 C 0.13224 0.12198 0.43881 0.0
C1168 C 0.12761 0.14238 0.44603 0.0
C1169 C 0.09032 0.24593 0.40693 0.0
C1170 C 0.0692 0.24076 0.40976 0.0
C1171 C 0.10561 0.23708 0.41981 0.0
C1172 C 0.10013 0.22259 0.43553 0.0
C1173 C 0.07905 0.21758 0.43862 0.0
C1174 C 0.06369 0.22681 0.42604 0.0
C1175 C 0.11657 0.21192 0.44792 0.0
C1176 C 0.12078 0.19065 0.44327 0.0
C1177 C 0.12923 0.22302 0.46275 0.0
C1178 C 0.1257 0.24565 0.46794 0.0
C1179 C 0.10628 0.25242 0.47534 0.0
C1180 C 0.103 0.27383 0.4799 0.0
C1181 C 0.11906 0.2886 0.47723 0.0
C1182 C 0.13847 0.28199 0.47006 0.0
C1183 C 0.14182 0.2606 0.46547 0.0
H1184 H 0.11649 0.30517 0.48075 0.0
H1185 H 0.15533 0.10192 0.4247 0.0
H1186 H 0.62587 0.44983 0.22474 0.0
H1187 H 0.6152 0.41549 0.20904 0.0
H1188 H 0.55392 0.42282 0.23514 0.0
H1189 H 0.5642 0.45736 0.25013 0.0
H1190 H 0.57838 0.37857 0.2379 0.0
H1191 H 0.55124 0.43474 0.19196 0.0
H1192 H 0.55639 0.46684 0.17071 0.0
H1193 H 0.6024 0.435 0.13345 0.0
H1194 H 0.59773 0.40281 0.15474 0.0
H1195 H 0.51368 0.30367 0.18625 0.0
H1196 H 0.52813 0.3357 0.20303 0.0
H1197 H 0.57142 0.34239 0.15148 0.0
H1198 H 0.55623 0.31097 0.13416 0.0
H1199 H 0.55964 0.37903 0.16159 0.0
H1200 H 0.58529 0.32213 0.20208 0.0
H1201 H 0.58407 0.28945 0.22296 0.0
H1202 H 0.54682 0.32051 0.26994 0.0
H1203 H 0.54757 0.35332 0.24919 0.0
C1204 C 0.61025 0.4439 0.2274 0.0
C1205 C 0.59582 0.45621 0.23857 0.0
C1206 C 0.60418 0.42438 0.21841 0.0
C1207 C 0.58378 0.41674 0.22095 0.0
C1208 C 0.56973 0.42849 0.23306 0.0
C1209 C 0.5756 0.44819 0.24155 0.0
C1210 C 0.57653 0.39727 0.2098 0.0
C1211 C 0.57412 0.37858 0.22126 0.0
C1212 C 0.5717 0.39726 0.18798 0.0
C1213 C 0.57434 0.41651 0.1751 0.0
C1214 C 0.56261 0.43467 0.17938 0.0
C1215 C 0.5654 0.45286 0.1673 0.0
C1216 C 0.57977 0.45299 0.15079 0.0
C1217 C 0.59131 0.4349 0.14628 0.0
C1218 C 0.5886 0.41668 0.15834 0.0
C1219 C 0.52616 0.3121 0.17843 0.0
C1220 C 0.53387 0.3048 0.15894 0.0
C1221 C 0.53457 0.33031 0.18813 0.0
C1222 C 0.55129 0.34125 0.17885 0.0
C1223 C 0.55862 0.33424 0.15907 0.0
C1224 C 0.54992 0.31627 0.14915 0.0
C1225 C 0.56102 0.36002 0.1897 0.0
C1226 C 0.56397 0.3787 0.1782 0.0
C1227 C 0.56683 0.35982 0.21141 0.0
C1228 C 0.56633 0.34013 0.22397 0.0
C1229 C 0.57671 0.32195 0.21679 0.0
C1230 C 0.57612 0.30341 0.22861 0.0
C1231 C 0.56533 0.30289 0.24774 0.0
C1232 C 0.55515 0.32093 0.25511 0.0
C1233 C 0.55566 0.33951 0.24333 0.0
H1234 H 0.5649 0.28852 0.25688 0.0
H1235 H 0.5819 0.46708 0.14145 0.0
H1236 H 0.32979 0.87633 0.98928 0.0
H1237 H 0.36103 0.85935 0.97568 0.0
H1238 H 0.32816 0.79944 0.97235 0.0
H1239 H 0.29729 0.81622 0.98727 0.0
H1240 H 0.36513 0.79136 0.98209 0.0
H1241 H 0.33602 0.83349 0.92757 0.0
H1242 H 0.3223 0.86572 0.91118 0.0
H1243 H 0.38121 0.89717 0.92048 0.0
H1244 H 0.3952 0.86521 0.93716 0.0
H1245 H 0.43994 0.78146 0.88346 0.0
H1246 H 0.4081 0.7937 0.90028 0.0
H1247 H 0.436 0.78513 0.96181 0.0
H1248 H 0.46756 0.77194 0.94497 0.0
H1249 H 0.40021 0.82607 0.92182 0.0
H1250 H 0.39987 0.77765 0.99964 0.0
H1251 H 0.40985 0.74224 0.01186 0.0
H1252 H 0.40352 0.71753 0.94848 0.0
H1253 H 0.39324 0.7527 0.93594 0.0
C1254 C 0.32935 0.85947 0.98592 0.0
C1255 C 0.31108 0.84761 0.98923 0.0
C1256 C 0.34717 0.84978 0.97795 0.0
C1257 C 0.34691 0.82816 0.97231 0.0
C1258 C 0.32886 0.81613 0.97642 0.0
C1259 C 0.31118 0.82574 0.98495 0.0
C1260 C 0.36513 0.8183 0.96153 0.0
C1261 C 0.37279 0.79898 0.96892 0.0
C1262 C 0.37492 0.8278 0.9439 0.0
C1263 C 0.36659 0.84702 0.93378 0.0
C1264 C 0.34601 0.84733 0.92623 0.0
C1265 C 0.33818 0.86554 0.91687 0.0
C1266 C 0.35086 0.88349 0.91483 0.0
C1267 C 0.3714 0.88326 0.92209 0.0
C1268 C 0.37929 0.8651 0.93148 0.0
C1269 C 0.43918 0.78191 0.90059 0.0
C1270 C 0.45625 0.77565 0.91288 0.0
C1271 C 0.42097 0.78902 0.91022 0.0
C1272 C 0.41943 0.79031 0.9324 0.0
C1273 C 0.43648 0.78391 0.94471 0.0
C1274 C 0.4546 0.77643 0.93506 0.0
C1275 C 0.40037 0.79919 0.94248 0.0
C1276 C 0.39258 0.8184 0.93498 0.0
C1277 C 0.38996 0.78912 0.9594 0.0
C1278 C 0.39601 0.76788 0.96683 0.0
C1279 C 0.40055 0.76464 0.98833 0.0
C1280 C 0.40627 0.74462 0.99531 0.0
C1281 C 0.40739 0.72767 0.98094 0.0
C1282 C 0.40273 0.73069 0.95957 0.0
C1283 C 0.39699 0.75068 0.95252 0.0
H1284 H 0.41183 0.71218 0.98637 0.0
H1285 H 0.34477 0.89758 0.90759 0.0
H1286 H 0.87831 0.43745 0.79768 0.0
H1287 H 0.89623 0.40767 0.8135 0.0
H1288 H 0.95359 0.42783 0.78462 0.0
H1289 H 0.93567 0.45775 0.76856 0.0
H1290 H 0.94751 0.38392 0.78285 0.0
H1291 H 0.94515 0.43996 0.83544 0.0
H1292 H 0.92769 0.46686 0.85745 0.0
H1293 H 0.88979 0.41847 0.88546 0.0
H1294 H 0.90683 0.39131 0.86341 0.0
H1295 H 0.00867 0.31466 0.8443 0.0
H1296 H 0.99512 0.34612 0.827 0.0
H1297 H 0.93925 0.34141 0.86437 0.0
H1298 H 0.95366 0.31116 0.88285 0.0
H1299 H 0.94677 0.37944 0.86119 0.0
H1300 H 0.94552 0.32372 0.80799 0.0
H1301 H 0.96059 0.29583 0.78529 0.0
H1302 H 1.002 0.34148 0.75779 0.0
H1303 H 0.98733 0.3696 0.78049 0.0
C1304 C 0.89469 0.43546 0.79445 0.0
C1305 C 0.90559 0.45007 0.78194 0.0
C1306 C 0.90494 0.41846 0.80361 0.0
C1307 C 0.92633 0.41573 0.80055 0.0
C1308 C 0.93709 0.4297 0.78728 0.0
C1309 C 0.92683 0.44679 0.77811 0.0
C1310 C 0.93749 0.39871 0.81184 0.0
C1311 C 0.9476 0.38303 0.8 0.0
C1312 C 0.93721 0.39732 0.83418 0.0
C1313 C 0.92717 0.41363 0.84766 0.0
C1314 C 0.93301 0.43507 0.84621 0.0
C1315 C 0.92319 0.45037 0.8587 0.0
C1316 C 0.90761 0.44439 0.87282 0.0
C1317 C 0.90185 0.42309 0.87451 0.0
C1318 C 0.9116 0.40774 0.86204 0.0
C1319 C 0.99361 0.32056 0.84891 0.0
C1320 C 0.98219 0.31054 0.86487 0.0
C1321 C 0.98572 0.33841 0.83885 0.0
C1322 C 0.9658 0.34596 0.84383 0.0
C1323 C 0.95461 0.33604 0.8601 0.0
C1324 C 0.96283 0.31871 0.87068 0.0
C1325 C 0.95647 0.36408 0.83224 0.0
C1326 C 0.94675 0.38015 0.84404 0.0
C1327 C 0.95676 0.36556 0.80982 0.0
C1328 C 0.96547 0.3487 0.79608 0.0
C1329 C 0.95792 0.32778 0.79717 0.0
C1330 C 0.96638 0.31194 0.7843 0.0
C1331 C 0.98228 0.31687 0.77015 0.0
C1332 C 0.98971 0.33768 0.76879 0.0
C1333 C 0.98131 0.35357 0.78163 0.0
H1334 H 0.98881 0.30458 0.76021 0.0
H1335 H 0.90003 0.45625 0.88246 0.0
H1336 H 0.29809 0.17225 0.54134 0.0
H1337 H 0.3272 0.19296 0.55618 0.0
H1338 H 0.3703 0.14811 0.52977 0.0
H1339 H 0.34134 0.12709 0.51549 0.0
H1340 H 0.38083 0.1558 0.56834 0.0
H1341 H 0.3639 0.19968 0.50995 0.0
H1342 H 0.34148 0.22079 0.48677 0.0
H1343 H 0.32768 0.26257 0.53884 0.0
H1344 H 0.3498 0.24154 0.56242 0.0
H1345 H 0.4717 0.21745 0.59244 0.0
H1346 H 0.44395 0.20109 0.57074 0.0
H1347 H 0.39805 0.23501 0.60674 0.0
H1348 H 0.42556 0.25112 0.62865 0.0
H1349 H 0.39017 0.23347 0.56173 0.0
H1350 H 0.40609 0.18743 0.62005 0.0
H1351 H 0.4294 0.16638 0.64235 0.0
H1352 H 0.44616 0.12851 0.58828 0.0
H1353 H 0.42317 0.14958 0.56558 0.0
C1354 C 0.31378 0.16694 0.53848 0.0
C1355 C 0.31733 0.14793 0.5273 0.0
C1356 C 0.33046 0.17885 0.54692 0.0
C1357 C 0.35107 0.17223 0.54403 0.0
C1358 C 0.35461 0.15355 0.53236 0.0
C1359 C 0.33798 0.14155 0.52415 0.0
C1360 C 0.36889 0.18402 0.55405 0.0
C1361 C 0.38301 0.17273 0.56652 0.0
C1362 C 0.37168 0.20621 0.55212 0.0
C1363 C 0.35836 0.21891 0.538 0.0
C1364 C 0.35595 0.21327 0.5165 0.0
C1365 C 0.34332 0.22524 0.50328 0.0
C1366 C 0.33312 0.24298 0.51134 0.0
C1367 C 0.33557 0.24881 0.53263 0.0
C1368 C 0.34817 0.23688 0.54593 0.0
C1369 C 0.45572 0.22167 0.59551 0.0
C1370 C 0.45083 0.23547 0.61236 0.0
C1371 C 0.43989 0.21227 0.58315 0.0
C1372 C 0.41893 0.21675 0.58722 0.0
C1373 C 0.4141 0.23134 0.60332 0.0
C1374 C 0.42985 0.24045 0.61588 0.0
C1375 C 0.40194 0.20517 0.57579 0.0
C1376 C 0.38799 0.21651 0.56324 0.0
C1377 C 0.39938 0.18299 0.57744 0.0
C1378 C 0.41311 0.17024 0.59108 0.0
C1379 C 0.41489 0.17474 0.61288 0.0
C1380 C 0.42802 0.16278 0.6256 0.0
C1381 C 0.43931 0.14616 0.61672 0.0
C1382 C 0.43744 0.14142 0.59512 0.0
C1383 C 0.42436 0.15336 0.58232 0.0
H1384 H 0.44946 0.13691 0.62659 0.0
H1385 H 0.32335 0.25223 0.50108 0.0
H1386 H 0.54252 0.72065 0.31897 0.0
H1387 H 0.55614 0.68663 0.30818 0.0
H1388 H 0.53312 0.65877 0.36557 0.0
H1389 H 0.51957 0.6933 0.37692 0.0
H1390 H 0.57196 0.64546 0.35702 0.0
H1391 H 0.50836 0.64869 0.3189 0.0
H1392 H 0.48142 0.66439 0.29631 0.0
H1393 H 0.52478 0.66857 0.24505 0.0
H1394 H 0.55207 0.65316 0.26743 0.0
H1395 H 0.57481 0.54703 0.2798 0.0
H1396 H 0.5571 0.57756 0.29487 0.0
H1397 H 0.61633 0.60644 0.31087 0.0
H1398 H 0.63417 0.57541 0.29645 0.0
H1399 H 0.55557 0.61643 0.28542 0.0
H1400 H 0.61224 0.63781 0.35455 0.0
H1401 H 0.63641 0.61983 0.37862 0.0
H1402 H 0.60161 0.56183 0.37083 0.0
H1403 H 0.57707 0.57953 0.34695 0.0
C1404 C 0.54017 0.70738 0.32939 0.0
C1405 C 0.52978 0.70982 0.34884 0.0
C1406 C 0.54797 0.68783 0.3231 0.0
C1407 C 0.54542 0.67004 0.33589 0.0
C1408 C 0.5352 0.67229 0.3554 0.0
C1409 C 0.52738 0.69201 0.36181 0.0
C1410 C 0.55375 0.64933 0.32868 0.0
C1411 C 0.5683 0.63901 0.34142 0.0
C1412 C 0.54869 0.64067 0.30849 0.0
C1413 C 0.53231 0.64989 0.29491 0.0
C1414 C 0.51219 0.65309 0.30286 0.0
C1415 C 0.49685 0.66192 0.29008 0.0
C1416 C 0.5014 0.66751 0.26927 0.0
C1417 C 0.52128 0.66424 0.26118 0.0
C1418 C 0.53669 0.65543 0.2739 0.0
C1419 C 0.5841 0.55989 0.28649 0.0
C1420 C 0.6059 0.55879 0.287 0.0
C1421 C 0.57393 0.57737 0.29511 0.0
C1422 C 0.58531 0.59423 0.30433 0.0
C1423 C 0.60715 0.59343 0.30432 0.0
C1424 C 0.61735 0.57578 0.2959 0.0
C1425 C 0.57422 0.61274 0.31353 0.0
C1426 C 0.55916 0.6227 0.3011 0.0
C1427 C 0.57843 0.62069 0.33422 0.0
C1428 C 0.59294 0.60997 0.3488 0.0
C1429 C 0.60969 0.62125 0.35805 0.0
C1430 C 0.62347 0.6111 0.37164 0.0
C1431 C 0.62058 0.58968 0.3762 0.0
C1432 C 0.60387 0.57839 0.36723 0.0
C1433 C 0.59004 0.58847 0.35364 0.0
H1434 H 0.63128 0.58185 0.38671 0.0
H1435 H 0.4895 0.67434 0.2594 0.0
H1436 H 0.07931 0.77943 0.13446 0.0
H1437 H 0.10973 0.7941 0.11664 0.0
H1438 H 0.08306 0.77648 0.05606 0.0
H1439 H 0.05276 0.76121 0.0739 0.0
H1440 H 0.1241 0.77137 0.05499 0.0
H1441 H 0.07836 0.82713 0.07669 0.0
H1442 H 0.05739 0.84779 0.10197 0.0
H1443 H 0.11213 0.86253 0.13869 0.0
H1444 H 0.13338 0.84171 0.11376 0.0
H1445 H 0.17261 0.87863 0.01692 0.0
H1446 H 0.1452 0.85716 0.03249 0.0
H1447 H 0.18998 0.80982 0.04904 0.0
H1448 H 0.21768 0.83122 0.03308 0.0
H1449 H 0.13995 0.84678 0.07177 0.0
H1450 H 0.16457 0.76113 0.0517 0.0
H1451 H 0.18318 0.74157 0.02369 0.0
H1452 H 0.1668 0.78892 0.97861 0.0
H1453 H 0.14787 0.80859 0.00626 0.0
C1454 C 0.08003 0.77839 0.11736 0.0
C1455 C 0.0635 0.7693 0.1056 0.0
C1456 C 0.09743 0.78687 0.10716 0.0
C1457 C 0.09856 0.78684 0.08495 0.0
C1458 C 0.08256 0.77679 0.0732 0.0
C1459 C 0.06521 0.76808 0.08343 0.0
C1460 C 0.11569 0.79844 0.07402 0.0
C1461 C 0.12762 0.78783 0.05872 0.0
C1462 C 0.12014 0.82006 0.07854 0.0
C1463 C 0.10742 0.83269 0.09348 0.0
C1464 C 0.0859 0.83466 0.09023 0.0
C1465 C 0.07397 0.84641 0.10449 0.0
C1466 C 0.08341 0.85642 0.12195 0.0
C1467 C 0.10483 0.85474 0.12517 0.0
C1468 C 0.11683 0.84298 0.11098 0.0
C1469 C 0.17672 0.86357 0.02368 0.0
C1470 C 0.19747 0.85675 0.02378 0.0
C1471 C 0.16095 0.8513 0.03267 0.0
C1472 C 0.16542 0.83183 0.04202 0.0
C1473 C 0.18604 0.82467 0.04175 0.0
C1474 C 0.2019 0.83695 0.03262 0.0
C1475 C 0.14851 0.81972 0.05277 0.0
C1476 C 0.13659 0.83026 0.06811 0.0
C1477 C 0.14383 0.79822 0.04792 0.0
C1478 C 0.15502 0.78644 0.03112 0.0
C1479 C 0.1649 0.76733 0.03579 0.0
C1480 C 0.17551 0.75623 0.01998 0.0
C1481 C 0.17624 0.76404 0.9994 0.0
C1482 C 0.1663 0.78293 0.99457 0.0
C1483 C 0.15566 0.79408 0.01032 0.0
H1484 H 0.18446 0.75543 0.98719 0.0
H1485 H 0.07415 0.86551 0.13297 0.0
H1486 H 0.75802 0.90107 0.5735 0.0
H1487 H 0.74403 0.91404 0.60722 0.0
H1488 H 0.68702 0.93094 0.57566 0.0
H1489 H 0.70144 0.91916 0.54193 0.0
H1490 H 0.69679 0.96133 0.59964 0.0
H1491 H 0.69246 0.88665 0.61113 0.0
H1492 H 0.70517 0.85004 0.61291 0.0
H1493 H 0.74952 0.86894 0.66074 0.0
H1494 H 0.73725 0.90572 0.65905 0.0
H1495 H 0.64359 0.98375 0.69736 0.0
H1496 H 0.6536 0.96804 0.66321 0.0
H1497 H 0.7151 0.95674 0.68769 0.0
H1498 H 0.7053 0.97199 0.72163 0.0
H1499 H 0.70047 0.92247 0.66718 0.0
H1500 H 0.70468 0.99793 0.65369 0.0
H1501 H 0.69045 0.03395 0.65192 0.0
H1502 H 0.64387 0.01215 0.6076 0.0
H1503 H 0.65768 0.97594 0.6093 0.0
C1504 C 0.74242 0.90732 0.57388 0.0
C1505 C 0.73084 0.90916 0.55512 0.0
C1506 C 0.73436 0.91468 0.59318 0.0
C1507 C 0.7143 0.92335 0.59416 0.0
C1508 C 0.70255 0.92449 0.57543 0.0
C1509 C 0.71077 0.91766 0.55614 0.0
C1510 C 0.70586 0.93221 0.61437 0.0
C1511 C 0.69731 0.95261 0.6143 0.0
C1512 C 0.7067 0.92111 0.6337 0.0
C1513 C 0.71405 0.89898 0.63482 0.0
C1514 C 0.70501 0.88303 0.62192 0.0
C1515 C 0.71212 0.86224 0.62294 0.0
C1516 C 0.72817 0.85718 0.63689 0.0
C1517 C 0.7371 0.87288 0.64992 0.0
C1518 C 0.73006 0.8937 0.64896 0.0
C1519 C 0.65927 0.97802 0.69542 0.0
C1520 C 0.67358 0.97914 0.71234 0.0
C1521 C 0.66498 0.96906 0.67588 0.0
C1522 C 0.68515 0.96123 0.67285 0.0
C1523 C 0.69943 0.96253 0.68965 0.0
C1524 C 0.69376 0.97137 0.70909 0.0
C1525 C 0.69163 0.95153 0.65235 0.0
C1526 C 0.69982 0.93101 0.65241 0.0
C1527 C 0.69021 0.96239 0.63297 0.0
C1528 C 0.68208 0.9842 0.63179 0.0
C1529 C 0.69132 1.0008 0.64367 0.0
C1530 C 0.68335 0.02125 0.64266 0.0
C1531 C 0.66623 0.02533 0.6297 0.0
C1532 C 0.6571 0.00897 0.61766 0.0
C1533 C 0.66501 0.98848 0.61862 0.0
H1534 H 0.66007 0.04117 0.62896 0.0
H1535 H 0.73366 0.84108 0.63765 0.0
H1536 H 0.83452 0.99737 0.31041 0.0
H1537 H 0.81646 0.98188 0.34081 0.0
H1538 H 0.86904 0.94196 0.35254 0.0
H1539 H 0.88721 0.95744 0.32255 0.0
H1540 H 0.83026 0.92007 0.35106 0.0
H1541 H 0.86178 0.98261 0.3839 0.0
H1542 H 0.86828 0.02103 0.38751 0.0
H1543 H 0.803 0.03141 0.3958 0.0
H1544 H 0.79607 0.99305 0.39194 0.0
H1545 H 0.81098 0.87624 0.4511 0.0
H1546 H 0.82477 0.89361 0.41978 0.0
H1547 H 0.77709 0.94092 0.42454 0.0
H1548 H 0.76407 0.92421 0.45668 0.0
H1549 H 0.8104 0.95998 0.41584 0.0
H1550 H 0.77761 0.89907 0.38494 0.0
H1551 H 0.76898 0.8612 0.38002 0.0
H1552 H 0.83277 0.84812 0.36588 0.0
H1553 H 0.84185 0.88588 0.37099 0.0
C1554 C 0.8423 0.98546 0.31962 0.0
C1555 C 0.86231 0.97867 0.31408 0.0
C1556 C 0.83197 0.97662 0.33696 0.0
C1557 C 0.84141 0.96073 0.34889 0.0
C1558 C 0.86145 0.95414 0.34351 0.0
C1559 C 0.87185 0.96311 0.32641 0.0
C1560 C 0.83038 0.95051 0.36673 0.0
C1561 C 0.82604 0.92872 0.36533 0.0
C1562 C 0.8242 0.96197 0.38496 0.0
C1563 C 0.82839 0.985 0.38739 0.0
C1564 C 0.84879 0.9931 0.3863 0.0
C1565 C 0.85256 0.01487 0.38843 0.0
C1566 C 0.83606 0.02866 0.39181 0.0
C1567 C 0.81576 0.02071 0.39314 0.0
C1568 C 0.81191 0.99896 0.391 0.0
C1569 C 0.80332 0.89022 0.44533 0.0
C1570 C 0.7864 0.89882 0.45627 0.0
C1571 C 0.81114 0.90012 0.42731 0.0
C1572 C 0.80179 0.91845 0.41941 0.0
C1573 C 0.78464 0.92684 0.43021 0.0
C1574 C 0.77712 0.91722 0.44854 0.0
C1575 C 0.81043 0.92929 0.40044 0.0
C1576 C 0.81435 0.95123 0.40156 0.0
C1577 C 0.81584 0.91803 0.38173 0.0
C1578 C 0.81043 0.8953 0.37851 0.0
C1579 C 0.78982 0.8881 0.38091 0.0
C1580 C 0.78485 0.86665 0.37807 0.0
C1581 C 0.80032 0.85225 0.37269 0.0
C1582 C 0.8208 0.85929 0.37007 0.0
C1583 C 0.82587 0.88072 0.37291 0.0
H1584 H 0.79644 0.83565 0.3705 0.0
H1585 H 0.839 0.0455 0.39346 0.0
H1586 H 0.81489 0.07745 0.04659 0.0
H1587 H 0.82783 0.06385 0.07986 0.0
H1588 H 0.77784 0.09426 0.11327 0.0
H1589 H 0.76495 0.10859 0.07963 0.0
H1590 H 0.81393 0.09682 0.13595 0.0
H1591 H 0.775 0.04129 0.1027 0.0
H1592 H 0.76341 0.01764 0.0735 0.0
H1593 H 0.8249 0.9925 0.06845 0.0
H1594 H 0.83695 0.01622 0.09742 0.0
H1595 H 0.84639 0.0315 0.22381 0.0
H1596 H 0.82405 0.04719 0.19668 0.0
H1597 H 0.86793 0.02929 0.14849 0.0
H1598 H 0.89019 0.01371 0.17524 0.0
H1599 H 0.82755 0.0197 0.13713 0.0
H1600 H 0.86668 0.07931 0.16757 0.0
H1601 H 0.87772 0.10295 0.19702 0.0
H1602 H 0.8142 0.11971 0.20821 0.0
H1603 H 0.80277 0.09591 0.179 0.0
C1604 C 0.8066 0.08136 0.06097 0.0
C1605 C 0.78868 0.09386 0.06038 0.0
C1606 C 0.81401 0.07349 0.08004 0.0
C1607 C 0.8035 0.0775 0.09904 0.0
C1608 C 0.7861 0.09077 0.09877 0.0
C1609 C 0.77876 0.09895 0.07956 0.0
C1610 C 0.81073 0.06724 0.11883 0.0
C1611 C 0.81649 0.0799 0.1364 0.0
C1612 C 0.81411 0.04513 0.11948 0.0
C1613 C 0.80689 0.03062 0.10219 0.0
C1614 C 0.78608 0.0308 0.0953 0.0
C1615 C 0.77942 0.01738 0.07879 0.0
C1616 C 0.79341 0.0036 0.06911 0.0
C1617 C 0.81408 0.00318 0.07596 0.0
C1618 C 0.82082 0.01659 0.09246 0.0
C1619 C 0.8512 0.0308 0.20741 0.0
C1620 C 0.87015 0.02139 0.20174 0.0
C1621 C 0.83847 0.03987 0.19195 0.0
C1622 C 0.84439 0.03953 0.17057 0.0
C1623 C 0.86304 0.02975 0.16488 0.0
C1624 C 0.8758 0.0209 0.18025 0.0
C1625 C 0.83149 0.04937 0.15384 0.0
C1626 C 0.82461 0.03656 0.13685 0.0
C1627 C 0.82693 0.07125 0.15386 0.0
C1628 C 0.83385 0.08564 0.17128 0.0
C1629 C 0.85505 0.0879 0.17642 0.0
C1630 C 0.86139 0.10135 0.19305 0.0
C1631 C 0.84667 0.11277 0.20452 0.0
C1632 C 0.82559 0.11081 0.19934 0.0
C1633 C 0.81917 0.09736 0.18275 0.0
H1634 H 0.8516 0.12317 0.21738 0.0
H1635 H 0.78823 0.99323 0.05632 0.0
H1636 H 0.68987 0.03964 0.79823 0.0
H1637 H 0.70524 0.05523 0.83024 0.0
H1638 H 0.64794 0.04391 0.86378 0.0
H1639 H 0.63203 0.02977 0.83109 0.0
H1640 H 0.66121 0.07892 0.87624 0.0
H1641 H 0.69519 0.01249 0.86926 0.0
H1642 H 0.71493 0.9842 0.85148 0.0
H1643 H 0.7665 0.02697 0.84316 0.0
H1644 H 0.74697 0.05559 0.86066 0.0
H1645 H 0.7412 0.07549 0.97005 0.0
H1646 H 0.72521 0.05941 0.93859 0.0
H1647 H 0.70995 0.1214 0.91564 0.0
H1648 H 0.72519 0.13754 0.94769 0.0
H1649 H 0.73208 0.05932 0.89941 0.0
H1650 H 0.66577 0.11958 0.88613 0.0
H1651 H 0.64382 0.14365 0.90713 0.0
H1652 H 0.65296 0.10556 0.96212 0.0
H1653 H 0.6747 0.08108 0.94137 0.0
C1654 C 0.68059 0.04041 0.81248 0.0
C1655 C 0.65982 0.03338 0.81228 0.0
C1656 C 0.68944 0.0492 0.83086 0.0
C1657 C 0.678 0.05034 0.84975 0.0
C1658 C 0.65718 0.04323 0.84951 0.0
C1659 C 0.6481 0.03506 0.83088 0.0
C1660 C 0.68764 0.05933 0.86952 0.0
C1661 C 0.67668 0.07453 0.8813 0.0
C1662 C 0.70771 0.05344 0.87654 0.0
C1663 C 0.71955 0.03622 0.86612 0.0
C1664 C 0.7107 0.01589 0.86353 0.0
C1665 C 0.72186 0.99979 0.85352 0.0
C1666 C 0.74194 0.0038 0.84616 0.0
C1667 C 0.75094 0.02389 0.84885 0.0
C1668 C 0.73984 0.04005 0.85884 0.0
C1669 C 0.73451 0.08573 0.95827 0.0
C1670 C 0.73435 0.10779 0.96141 0.0
C1671 C 0.72538 0.0765 0.94024 0.0
C1672 C 0.71603 0.0891 0.9248 0.0
C1673 C 0.71658 0.11125 0.92752 0.0
C1674 C 0.72545 0.12049 0.94577 0.0
C1675 C 0.7057 0.07896 0.906 0.0
C1676 C 0.71657 0.06361 0.89437 0.0
C1677 C 0.68523 0.08408 0.89964 0.0
C1678 C 0.67207 0.09864 0.91224 0.0
C1679 C 0.66305 0.1163 0.90268 0.0
C1680 C 0.65064 0.13002 0.91454 0.0
C1681 C 0.64707 0.12618 0.93596 0.0
C1682 C 0.65581 0.10856 0.94555 0.0
C1683 C 0.66819 0.09477 0.93375 0.0
H1684 H 0.63748 0.13685 0.94509 0.0
H1685 H 0.75055 0.99132 0.8384 0.0
H1686 H 0.59515 0.74695 0.88478 0.0
H1687 H 0.62156 0.73023 0.90642 0.0
H1688 H 0.57495 0.71281 0.95199 0.0
H1689 H 0.54827 0.72996 0.93047 0.0
H1690 H 0.61076 0.72427 0.97184 0.0
H1691 H 0.59137 0.67672 0.91565 0.0
H1692 H 0.58439 0.66569 0.87867 0.0
H1693 H 0.64782 0.67933 0.86248 0.0
H1694 H 0.65511 0.69072 0.89932 0.0
H1695 H 0.68679 0.62721 0.98095 0.0
H1696 H 0.65609 0.64452 0.96672 0.0
H1697 H 0.68117 0.70532 0.98638 0.0
H1698 H 0.71171 0.68798 1.00116 0.0
H1699 H 0.65326 0.6699 0.93555 0.0
H1700 H 0.64229 0.74088 0.99368 0.0
H1701 H 0.64681 0.74915 0.03172 0.0
H1702 H 0.63983 0.68327 0.04631 0.0
H1703 H 0.63497 0.67465 0.00841 0.0
C1704 C 0.59044 0.73975 0.89948 0.0
C1705 C 0.56946 0.73964 0.90572 0.0
C1706 C 0.60562 0.73011 0.91185 0.0
C1707 C 0.60024 0.71984 0.93065 0.0
C1708 C 0.57949 0.72054 0.9375 0.0
C1709 C 0.56424 0.73034 0.92516 0.0
C1710 C 0.61617 0.70762 0.94247 0.0
C1711 C 0.62006 0.71238 0.96393 0.0
C1712 C 0.62802 0.69169 0.93235 0.0
C1713 C 0.62374 0.68474 0.9102 0.0
C1714 C 0.60379 0.6775 0.90417 0.0
C1715 C 0.59979 0.67117 0.88324 0.0
C1716 C 0.61564 0.67185 0.86823 0.0
C1717 C 0.63555 0.67883 0.87413 0.0
C1718 C 0.63964 0.6852 0.89503 0.0
C1719 C 0.68564 0.64425 0.98256 0.0
C1720 C 0.70173 0.6562 0.99221 0.0
C1721 C 0.66808 0.65416 0.97432 0.0
C1722 C 0.66616 0.67628 0.97546 0.0
C1723 C 0.68201 0.68822 0.98556 0.0
C1724 C 0.69954 0.67828 0.99397 0.0
C1725 C 0.64826 0.68682 0.96489 0.0
C1726 C 0.64399 0.68175 0.94357 0.0
C1727 C 0.6358 0.70206 0.97532 0.0
C1728 C 0.63847 0.70711 0.99817 0.0
C1729 C 0.64163 0.72817 0.00502 0.0
C1730 C 0.64427 0.73292 0.02655 0.0
C1731 C 0.64367 0.71674 0.04141 0.0
C1732 C 0.64037 0.69578 0.03478 0.0
C1733 C 0.6377 0.69095 0.01326 0.0
H1734 H 0.64573 0.72044 0.05807 0.0
H1735 H 0.6125 0.66695 0.85203 0.0
H1736 H 0.07718 0.04811 0.78597 0.0
H1737 H 0.06125 0.07973 0.8009 0.0
H1738 H 0.12205 0.1071 0.81263 0.0
H1739 H 0.13811 0.07491 0.79851 0.0
H1740 H 0.09916 0.11507 0.84492 0.0
H1741 H 0.08931 0.12278 0.77058 0.0
H1742 H 0.07862 0.11241 0.73433 0.0
H1743 H 0.01523 0.10648 0.7545 0.0
H1744 H 0.02559 0.11653 0.79097 0.0
H1745 H 0.06574 0.22415 0.84294 0.0
H1746 H 0.07997 0.18987 0.8325 0.0
H1747 H 0.02448 0.15854 0.85458 0.0
H1748 H 0.01029 0.19296 0.86579 0.0
H1749 H 0.04318 0.15222 0.80655 0.0
H1750 H 0.05572 0.14622 0.88221 0.0
H1751 H 0.06877 0.15948 0.91674 0.0
H1752 H 0.1302 0.16571 0.89116 0.0
H1753 H 0.11742 0.1528 0.85637 0.0
C1754 C 0.08718 0.0609 0.79163 0.0
C1755 C 0.10891 0.05907 0.79096 0.0
C1756 C 0.07803 0.07905 0.8001 0.0
C1757 C 0.09039 0.09605 0.80762 0.0
C1758 C 0.11215 0.09425 0.80694 0.0
C1759 C 0.12132 0.0759 0.79877 0.0
C1760 C 0.08058 0.11552 0.8164 0.0
C1761 C 0.08704 0.12322 0.83639 0.0
C1762 C 0.06457 0.12619 0.80548 0.0
C1763 C 0.05826 0.12019 0.78356 0.0
C1764 C 0.07311 0.1191 0.76733 0.0
C1765 C 0.06711 0.11331 0.74673 0.0
C1766 C 0.04627 0.10873 0.74213 0.0
C1767 C 0.03138 0.11 0.7581 0.0
C1768 C 0.0373 0.11576 0.77873 0.0
C1769 C 0.05661 0.20995 0.84576 0.0
C1770 C 0.03687 0.21121 0.85513 0.0
C1771 C 0.06479 0.19041 0.83983 0.0
C1772 C 0.05326 0.17177 0.84277 0.0
C1773 C 0.0336 0.17283 0.85226 0.0
C1774 C 0.02557 0.19243 0.8587 0.0
C1775 C 0.06165 0.15141 0.83497 0.0
C1776 C 0.05509 0.14376 0.81509 0.0
C1777 C 0.07785 0.14108 0.84573 0.0
C1778 C 0.08556 0.14878 0.86663 0.0
C1779 C 0.07196 0.15065 0.88389 0.0
C1780 C 0.07932 0.15804 0.90352 0.0
C1781 C 0.10029 0.1635 0.90613 0.0
C1782 C 0.11395 0.16151 0.88911 0.0
C1783 C 0.10666 0.15414 0.86944 0.0
H1784 H 0.10596 0.16921 0.92134 0.0
H1785 H 0.04165 0.10426 0.72618 0.0
H1786 H 0.93681 0.27008 0.38703 0.0
H1787 H 0.90506 0.2828 0.40385 0.0
H1788 H 0.93871 0.2926 0.46256 0.0
H1789 H 0.96995 0.27827 0.44615 0.0
H1790 H 0.90306 0.28177 0.47272 0.0
H1791 H 0.92739 0.33399 0.42393 0.0
H1792 H 0.93853 0.34778 0.38938 0.0
H1793 H 0.87892 0.33152 0.36255 0.0
H1794 H 0.86752 0.31742 0.39689 0.0
H1795 H 0.82691 0.37846 0.47927 0.0
H1796 H 0.85826 0.36122 0.46651 0.0
H1797 H 0.83156 0.30021 0.4812 0.0
H1798 H 0.80036 0.31754 0.49471 0.0
H1799 H 0.8639 0.33695 0.43489 0.0
H1800 H 0.86952 0.26426 0.49015 0.0
H1801 H 0.86201 0.25507 0.5272 0.0
H1802 H 0.86782 0.32053 0.54567 0.0
H1803 H 0.87564 0.33006 0.50881 0.0
C1804 C 0.93728 0.27466 0.40361 0.0
C1805 C 0.95582 0.27328 0.41528 0.0
C1806 C 0.91917 0.28214 0.4132 0.0
C1807 C 0.91948 0.28936 0.43439 0.0
C1808 C 0.93791 0.28725 0.44621 0.0
C1809 C 0.95582 0.27908 0.43682 0.0
C1810 C 0.90095 0.29977 0.44404 0.0
C1811 C 0.89451 0.29381 0.46439 0.0
C1812 C 0.8899 0.31589 0.43354 0.0
C1813 C 0.89668 0.32447 0.41291 0.0
C1814 C 0.91671 0.33326 0.41062 0.0
C1815 C 0.92306 0.34114 0.39109 0.0
C1816 C 0.90946 0.34048 0.37377 0.0
C1817 C 0.88945 0.332 0.37597 0.0
C1818 C 0.88303 0.32408 0.39546 0.0
C1819 C 0.82781 0.36138 0.48007 0.0
C1820 C 0.81115 0.34937 0.48804 0.0
C1821 C 0.84573 0.35151 0.47265 0.0
C1822 C 0.84741 0.32936 0.47286 0.0
C1823 C 0.83088 0.31732 0.48115 0.0
C1824 C 0.813 0.32724 0.48883 0.0
C1825 C 0.86607 0.31899 0.46356 0.0
C1826 C 0.87244 0.32489 0.44321 0.0
C1827 C 0.87754 0.30349 0.47444 0.0
C1828 C 0.87292 0.29788 0.49666 0.0
C1829 C 0.86924 0.27668 0.50213 0.0
C1830 C 0.86493 0.27141 0.5231 0.0
C1831 C 0.86436 0.28722 0.53876 0.0
C1832 C 0.86817 0.30831 0.53351 0.0
C1833 C 0.87251 0.31365 0.51257 0.0
H1834 H 0.86101 0.28311 0.55498 0.0
H1835 H 0.91441 0.34658 0.35865 0.0
H1836 H 0.64653 0.94032 0.81627 0.0
H1837 H 0.6258 0.91054 0.82846 0.0
H1838 H 0.57369 0.93152 0.79145 0.0
H1839 H 0.59445 0.96177 0.77907 0.0
H1840 H 0.56152 0.91807 0.83069 0.0
H1841 H 0.60144 0.89074 0.77362 0.0
H1842 H 0.63299 0.88414 0.75268 0.0
H1843 H 0.65974 0.85061 0.80464 0.0
H1844 H 0.62846 0.85727 0.82602 0.0
H1845 H 0.53664 0.79595 0.83205 0.0
H1846 H 0.5533 0.82672 0.81584 0.0
H1847 H 0.55459 0.85895 0.87646 0.0
H1848 H 0.53757 0.8284 0.89265 0.0
H1849 H 0.58929 0.84567 0.82097 0.0
H1850 H 0.54931 0.91187 0.87011 0.0
H1851 H 0.51593 0.91806 0.88806 0.0
H1852 H 0.48571 0.87302 0.84637 0.0
H1853 H 0.51883 0.86678 0.82799 0.0
C1854 C 0.63065 0.93878 0.81067 0.0
C1855 C 0.62228 0.95351 0.79649 0.0
C1856 C 0.61881 0.9216 0.81766 0.0
C1857 C 0.59827 0.91854 0.81065 0.0
C1858 C 0.58955 0.93349 0.79701 0.0
C1859 C 0.60146 0.95077 0.78992 0.0
C1860 C 0.58623 0.89952 0.8175 0.0
C1861 C 0.56756 0.90224 0.82853 0.0
C1862 C 0.59382 0.87876 0.81429 0.0
C1863 C 0.61266 0.87466 0.80148 0.0
C1864 C 0.61411 0.8821 0.78065 0.0
C1865 C 0.63194 0.87832 0.76869 0.0
C1866 C 0.64837 0.867 0.77734 0.0
C1867 C 0.647 0.85939 0.79796 0.0
C1868 C 0.62922 0.86314 0.81 0.0
C1869 C 0.54051 0.80958 0.84194 0.0
C1870 C 0.53569 0.80974 0.86364 0.0
C1871 C 0.55006 0.82718 0.83265 0.0
C1872 C 0.55496 0.84536 0.84481 0.0
C1873 C 0.5506 0.84534 0.8666 0.0
C1874 C 0.54099 0.82777 0.87589 0.0
C1875 C 0.56486 0.86422 0.83477 0.0
C1876 C 0.58317 0.86147 0.82311 0.0
C1877 C 0.55667 0.88487 0.83703 0.0
C1878 C 0.53661 0.88873 0.84781 0.0
C1879 C 0.53553 0.90336 0.86471 0.0
C1880 C 0.51665 0.90686 0.87497 0.0
C1881 C 0.49873 0.89589 0.8684 0.0
C1882 C 0.49962 0.88145 0.8515 0.0
C1883 C 0.51845 0.87791 0.84117 0.0
H1884 H 0.48414 0.89861 0.87638 0.0
H1885 H 0.66216 0.86409 0.76805 0.0
H1886 H 0.96614 0.2077 0.37682 0.0
H1887 H 0.94689 0.17587 0.36496 0.0
H1888 H 0.99416 0.16334 0.31843 0.0
H1889 H 0.01308 0.19502 0.32976 0.0
H1890 H 0.95733 0.1594 0.30086 0.0
H1891 H 0.98912 0.13538 0.36634 0.0
H1892 H 0.9955 0.13653 0.40488 0.0
H1893 H 0.9302 0.12822 0.41623 0.0
H1894 H 0.92342 0.12726 0.37773 0.0
H1895 H 0.95421 0.05418 0.27037 0.0
H1896 H 0.96324 0.0871 0.28857 0.0
H1897 H 0.90425 0.08634 0.32055 0.0
H1898 H 0.89487 0.05293 0.30223 0.0
H1899 H 0.93902 0.09917 0.34707 0.0
H1900 H 0.90805 0.1182 0.28147 0.0
H1901 H 0.90196 0.11615 0.24292 0.0
H1902 H 0.96553 0.13392 0.23182 0.0
H1903 H 0.97209 0.13577 0.2703 0.0
C1904 C 0.97247 0.19808 0.36414 0.0
C1905 C 0.99115 0.20405 0.35421 0.0
C1906 C 0.96146 0.17984 0.3574 0.0
C1907 C 0.96906 0.1671 0.34079 0.0
C1908 C 0.98784 0.17293 0.33115 0.0
C1909 C 0.9987 0.19111 0.33772 0.0
C1910 C 0.95757 0.14792 0.33282 0.0
C1911 C 0.95342 0.14624 0.31101 0.0
C1912 C 0.95163 0.13098 0.34609 0.0
C1913 C 0.95574 0.13151 0.36918 0.0
C1914 C 0.97611 0.13396 0.37706 0.0
C1915 C 0.9798 0.13455 0.39889 0.0
C1916 C 0.96326 0.13252 0.41299 0.0
C1917 C 0.94299 0.12983 0.40529 0.0
C1918 C 0.93922 0.12926 0.38347 0.0
C1919 C 0.94307 0.0608 0.28132 0.0
C1920 C 0.92365 0.05088 0.28459 0.0
C1921 C 0.9483 0.07972 0.29173 0.0
C1922 C 0.93432 0.08937 0.30567 0.0
C1923 C 0.91524 0.0792 0.30976 0.0
C1924 C 0.90991 0.06013 0.29924 0.0
C1925 C 0.93971 0.11046 0.31507 0.0
C1926 C 0.94261 0.11252 0.33705 0.0
C1927 C 0.94451 0.12784 0.30199 0.0
C1928 C 0.94058 0.12702 0.2788 0.0
C1929 C 0.92076 0.12155 0.27081 0.0
C1930 C 0.91722 0.12044 0.24897 0.0
C1931 C 0.93335 0.12488 0.23493 0.0
C1932 C 0.95305 0.13049 0.24271 0.0
C1933 C 0.95668 0.13161 0.26454 0.0
H1934 H 0.93058 0.12399 0.21802 0.0
H1935 H 0.96615 0.13298 0.42989 0.0
H1936 H 0.58079 0.03857 0.72786 0.0
H1937 H 0.56347 0.06862 0.71139 0.0
H1938 H 0.62205 0.10236 0.70885 0.0
H1939 H 0.63928 0.07266 0.7255 0.0
H1940 H 0.59386 0.12761 0.72396 0.0
H1941 H 0.59822 0.08168 0.66392 0.0
H1942 H 0.59397 0.0486 0.64315 0.0
H1943 H 0.52773 0.05185 0.64997 0.0
H1944 H 0.5316 0.08482 0.67107 0.0
H1945 H 0.55823 0.2099 0.65467 0.0
H1946 H 0.57646 0.17774 0.66546 0.0
H1947 H 0.51886 0.15129 0.68821 0.0
H1948 H 0.50073 0.18355 0.67818 0.0
H1949 H 0.54709 0.1227 0.66136 0.0
H1950 H 0.5446 0.16838 0.72376 0.0
H1951 H 0.55031 0.20212 0.74308 0.0
H1952 H 0.61554 0.19962 0.72946 0.0
H1953 H 0.61014 0.16599 0.70974 0.0
C1954 C 0.59 0.05228 0.72354 0.0
C1955 C 0.61142 0.05318 0.72803 0.0
C1956 C 0.58009 0.06947 0.71407 0.0
C1957 C 0.59143 0.08784 0.70877 0.0
C1958 C 0.61289 0.08848 0.71284 0.0
C1959 C 0.62276 0.07139 0.72231 0.0
C1960 C 0.5809 0.10675 0.69988 0.0
C1961 C 0.58389 0.12648 0.71008 0.0
C1962 C 0.56764 0.10545 0.6819 0.0
C1963 C 0.56521 0.08561 0.66928 0.0
C1964 C 0.58275 0.07525 0.66116 0.0
C1965 C 0.58041 0.05653 0.6493 0.0
C1966 C 0.56059 0.0481 0.6453 0.0
C1967 C 0.54307 0.05839 0.65312 0.0
C1968 C 0.54533 0.0771 0.66502 0.0
C1969 C 0.54945 0.19716 0.66182 0.0
C1970 C 0.52807 0.19931 0.66569 0.0
C1971 C 0.55987 0.17882 0.66798 0.0
C1972 C 0.54899 0.16213 0.67762 0.0
C1973 C 0.52753 0.16394 0.68075 0.0
C1974 C 0.51723 0.18244 0.67512 0.0
C1975 C 0.5601 0.14327 0.68551 0.0
C1976 C 0.55718 0.12366 0.67516 0.0
C1977 C 0.57364 0.14468 0.70317 0.0
C1978 C 0.57692 0.16484 0.71504 0.0
C1979 C 0.56012 0.17515 0.72468 0.0
C1980 C 0.56331 0.19422 0.73575 0.0
C1981 C 0.58326 0.20305 0.73743 0.0
C1982 C 0.60008 0.19279 0.7281 0.0
C1983 C 0.59697 0.17372 0.71698 0.0
H1984 H 0.5857 0.21782 0.74602 0.0
H1985 H 0.55881 0.03361 0.6361 0.0
H1986 H 0.21239 0.33864 0.9973 0.0
H1987 H 0.17986 0.32023 0.98724 0.0
H1988 H 0.16764 0.36819 0.941 0.0
H1989 H 0.1996 0.38662 0.95103 0.0
H1990 H 0.13428 0.36164 0.96429 0.0
H1991 H 0.1841 0.31716 0.92772 0.0
H1992 H 0.21416 0.29338 0.92572 0.0
H1993 H 0.18376 0.24994 0.9675 0.0
H1994 H 0.15362 0.27363 0.96995 0.0
H1995 H 0.0639 0.32343 0.88865 0.0
H1996 H 0.09395 0.33528 0.90923 0.0
H1997 H 0.08679 0.28186 0.95045 0.0
H1998 H 0.0564 0.26963 0.92957 0.0
H1999 H 0.12778 0.28774 0.93743 0.0
H2000 H 0.0757 0.32998 0.9694 0.0
H2001 H 0.04547 0.35356 0.97055 0.0
H2002 H 0.08001 0.40123 0.93747 0.0
H2003 H 0.11037 0.37783 0.93584 0.0
C2004 C 0.20288 0.34509 0.98481 0.0
C2005 C 0.20861 0.36422 0.9751 0.0
C2006 C 0.18426 0.33455 0.97908 0.0
C2007 C 0.17116 0.34285 0.96339 0.0
C2008 C 0.17728 0.36155 0.95329 0.0
C2009 C 0.19568 0.37206 0.95904 0.0
C2010 C 0.15071 0.33282 0.95768 0.0
C2011 C 0.13292 0.3455 0.95834 0.0
C2012 C 0.14863 0.31148 0.95072 0.0
C2013 C 0.16674 0.29728 0.94923 0.0
C2014 C 0.18391 0.30263 0.93662 0.0
C2015 C 0.20095 0.28915 0.93538 0.0
C2016 C 0.20091 0.2702 0.94653 0.0
C2017 C 0.1838 0.26465 0.9589 0.0
C2018 C 0.16673 0.27809 0.96022 0.0
C2019 C 0.06849 0.31423 0.90222 0.0
C2020 C 0.05766 0.29555 0.90744 0.0
C2021 C 0.08571 0.3211 0.91404 0.0
C2022 C 0.09262 0.30958 0.93151 0.0
C2023 C 0.08172 0.29105 0.93706 0.0
C2024 C 0.06426 0.28418 0.92523 0.0
C2025 C 0.11163 0.31689 0.94323 0.0
C2026 C 0.12909 0.30374 0.94377 0.0
C2027 C 0.11346 0.33784 0.95132 0.0
C2028 C 0.0953 0.35209 0.95242 0.0
C2029 C 0.07682 0.34544 0.96226 0.0
C2030 C 0.05966 0.35879 0.96301 0.0
C2031 C 0.06081 0.37887 0.95407 0.0
C2032 C 0.07914 0.38567 0.9444 0.0
C2033 C 0.09635 0.37239 0.94359 0.0
H2034 H 0.0475 0.38918 0.95465 0.0
H2035 H 0.2141 0.25978 0.94554 0.0
H2036 H 0.43356 0.74032 0.39129 0.0
H2037 H 0.40379 0.72364 0.40857 0.0
H2038 H 0.44477 0.69566 0.45422 0.0
H2039 H 0.47482 0.71297 0.43733 0.0
H2040 H 0.41033 0.6681 0.42826 0.0
H2041 H 0.42238 0.7287 0.47531 0.0
H2042 H 0.42779 0.76681 0.48257 0.0
H2043 H 0.36908 0.78025 0.45341 0.0
H2044 H 0.36348 0.74221 0.44568 0.0
H2045 H 0.33618 0.62178 0.49354 0.0
H2046 H 0.36646 0.64141 0.48112 0.0
H2047 H 0.32662 0.69104 0.45902 0.0
H2048 H 0.29612 0.6717 0.47263 0.0
H2049 H 0.36077 0.70846 0.47265 0.0
H2050 H 0.34707 0.6512 0.42502 0.0
H2051 H 0.34007 0.61434 0.41357 0.0
H2052 H 0.39938 0.5957 0.43801 0.0
H2053 H 0.40663 0.63242 0.44989 0.0
C2054 C 0.43632 0.7306 0.405 0.0
C2055 C 0.45661 0.72792 0.4129 0.0
C2056 C 0.41924 0.72116 0.4149 0.0
C2057 C 0.42205 0.7085 0.43271 0.0
C2058 C 0.44228 0.70545 0.44051 0.0
C2059 C 0.45941 0.71533 0.43086 0.0
C2060 C 0.40375 0.6982 0.44276 0.0
C2061 C 0.39969 0.67676 0.43832 0.0
C2062 C 0.38934 0.70982 0.45496 0.0
C2063 C 0.39263 0.73265 0.45971 0.0
C2064 C 0.41073 0.7398 0.47025 0.0
C2065 C 0.41381 0.76139 0.47449 0.0
C2066 C 0.39882 0.77595 0.4684 0.0
C2067 C 0.38069 0.76895 0.45809 0.0
C2068 C 0.37755 0.74738 0.45379 0.0
C2069 C 0.33387 0.63701 0.48625 0.0
C2070 C 0.31376 0.64512 0.48388 0.0
C2071 C 0.35122 0.64817 0.47897 0.0
C2072 C 0.34893 0.66745 0.46843 0.0
C2073 C 0.32889 0.67612 0.4669 0.0
C2074 C 0.31144 0.6651 0.47469 0.0
C2075 C 0.36742 0.67802 0.4586 0.0
C2076 C 0.37144 0.6996 0.46281 0.0
C2077 C 0.38157 0.66664 0.44567 0.0
C2078 C 0.3773 0.64453 0.43853 0.0
C2079 C 0.35856 0.63921 0.42809 0.0
C2080 C 0.35455 0.61835 0.42151 0.0
C2081 C 0.36925 0.60268 0.42511 0.0
C2082 C 0.388 0.60785 0.43526 0.0
C2083 C 0.39208 0.62869 0.44191 0.0
H2084 H 0.36612 0.58653 0.41999 0.0
H2085 H 0.40123 0.79266 0.4717 0.0
H2086 H 0.83087 0.5404 0.79786 0.0
H2087 H 0.81594 0.55851 0.82872 0.0
H2088 H 0.87002 0.54319 0.86577 0.0
H2089 H 0.8852 0.52538 0.83493 0.0
H2090 H 0.8306 0.53295 0.88503 0.0
H2091 H 0.86577 0.59149 0.8514 0.0
H2092 H 0.8738 0.61449 0.8212 0.0
H2093 H 0.80967 0.63204 0.81692 0.0
H2094 H 0.80121 0.60891 0.84691 0.0
H2095 H 0.80231 0.5902 0.97725 0.0
H2096 H 0.82121 0.57542 0.94708 0.0
H2097 H 0.78065 0.60843 0.9043 0.0
H2098 H 0.7632 0.62474 0.93456 0.0
H2099 H 0.81478 0.60956 0.88766 0.0
H2100 H 0.77767 0.55084 0.91792 0.0
H2101 H 0.76692 0.52628 0.94598 0.0
H2102 H 0.8302 0.50709 0.95422 0.0
H2103 H 0.84135 0.5317 0.92637 0.0
C2104 C 0.83965 0.54105 0.81253 0.0
C2105 C 0.85922 0.53149 0.81396 0.0
C2106 C 0.83111 0.55141 0.83013 0.0
C2107 C 0.84188 0.5522 0.84953 0.0
C2108 C 0.86145 0.54275 0.85096 0.0
C2109 C 0.87013 0.53267 0.83329 0.0
C2110 C 0.8325 0.56241 0.86848 0.0
C2111 C 0.82735 0.54976 0.88579 0.0
C2112 C 0.82769 0.58417 0.86912 0.0
C2113 C 0.83283 0.59833 0.85129 0.0
C2114 C 0.85335 0.60014 0.84392 0.0
C2115 C 0.85799 0.61322 0.82686 0.0
C2116 C 0.84224 0.62468 0.81711 0.0
C2117 C 0.82185 0.62314 0.82447 0.0
C2118 C 0.81713 0.61007 0.84152 0.0
C2119 C 0.79759 0.59435 0.96137 0.0
C2120 C 0.78129 0.60853 0.95818 0.0
C2121 C 0.80824 0.58572 0.94406 0.0
C2122 C 0.8021 0.59021 0.92316 0.0
C2123 C 0.78584 0.60459 0.92011 0.0
C2124 C 0.77577 0.61387 0.93742 0.0
C2125 C 0.81249 0.58008 0.90447 0.0
C2126 C 0.81791 0.59273 0.8871 0.0
C2127 C 0.81706 0.55814 0.90355 0.0
C2128 C 0.81036 0.54326 0.92022 0.0
C2129 C 0.7893 0.54146 0.92581 0.0
C2130 C 0.78314 0.52753 0.94166 0.0
C2131 C 0.79788 0.51518 0.95192 0.0
C2132 C 0.81881 0.51669 0.94629 0.0
C2133 C 0.82505 0.53061 0.93046 0.0
H2134 H 0.79307 0.50441 0.9642 0.0
H2135 H 0.84586 0.63479 0.8039 0.0
H2136 H 0.67245 0.52621 0.21699 0.0
H2137 H 0.69295 0.53912 0.18711 0.0
H2138 H 0.64003 0.5737 0.16463 0.0
H2139 H 0.61947 0.56074 0.19407 0.0
H2140 H 0.6571 0.55341 0.13279 0.0
H2141 H 0.68209 0.59863 0.18901 0.0
H2142 H 0.69726 0.60741 0.224 0.0
H2143 H 0.75287 0.57431 0.20743 0.0
H2144 H 0.73791 0.56508 0.17242 0.0
H2145 H 0.70995 0.61671 0.05647 0.0
H2146 H 0.69072 0.60648 0.08828 0.0
H2147 H 0.74091 0.5659 0.1066 0.0
H2148 H 0.76009 0.57583 0.07492 0.0
H2149 H 0.72552 0.58972 0.14057 0.0
H2150 H 0.69979 0.54419 0.08447 0.0
H2151 H 0.6845 0.53608 0.04939 0.0
H2152 H 0.62987 0.57082 0.06597 0.0
H2153 H 0.64499 0.57941 0.10108 0.0
C2154 C 0.66521 0.53666 0.20577 0.0
C2155 C 0.64424 0.54235 0.20803 0.0
C2156 C 0.67698 0.54411 0.18869 0.0
C2157 C 0.6681 0.55752 0.17359 0.0
C2158 C 0.64726 0.56334 0.17596 0.0
C2159 C 0.63551 0.55591 0.19293 0.0
C2160 C 0.68019 0.56512 0.15499 0.0
C2161 C 0.67192 0.56161 0.13457 0.0
C2162 C 0.69975 0.57548 0.15713 0.0
C2163 C 0.70878 0.58096 0.17818 0.0
C2164 C 0.69748 0.59306 0.19289 0.0
C2165 C 0.70605 0.59815 0.21271 0.0
C2166 C 0.72599 0.59137 0.21795 0.0
C2167 C 0.73741 0.57952 0.20336 0.0
C2168 C 0.7289 0.57437 0.18352 0.0
C2169 C 0.71695 0.60572 0.06733 0.0
C2170 C 0.73653 0.59701 0.06302 0.0
C2171 C 0.70591 0.59983 0.08548 0.0
C2172 C 0.71433 0.58531 0.09978 0.0
C2173 C 0.7341 0.57711 0.09582 0.0
C2174 C 0.745 0.58275 0.0776 0.0
C2175 C 0.70233 0.57809 0.11852 0.0
C2176 C 0.71065 0.58159 0.13888 0.0
C2177 C 0.68276 0.56782 0.11637 0.0
C2178 C 0.67362 0.56264 0.0953 0.0
C2179 C 0.6846 0.55026 0.08057 0.0
C2180 C 0.67595 0.54555 0.06069 0.0
C2181 C 0.65625 0.55299 0.05543 0.0
C2182 C 0.64514 0.56511 0.07006 0.0
C2183 C 0.65374 0.56989 0.08995 0.0
H2184 H 0.64958 0.54931 0.04003 0.0
H2185 H 0.73261 0.59533 0.23331 0.0
H2186 H 0.72064 0.42423 0.46907 0.0
H2187 H 0.70424 0.43967 0.43776 0.0
H2188 H 0.72634 0.38796 0.39918 0.0
H2189 H 0.74221 0.37207 0.43051 0.0
H2190 H 0.73418 0.43456 0.38494 0.0
H2191 H 0.68122 0.38356 0.40605 0.0
H2192 H 0.6577 0.36733 0.43209 0.0
H2193 H 0.6284 0.42725 0.44255 0.0
H2194 H 0.65199 0.4439 0.4168 0.0
H2195 H 0.6806 0.4626 0.29018 0.0
H2196 H 0.69709 0.44363 0.31935 0.0
H2197 H 0.65441 0.4724 0.36339 0.0
H2198 H 0.63725 0.49012 0.33426 0.0
H2199 H 0.65776 0.43529 0.37452 0.0
H2200 H 0.70889 0.48774 0.35681 0.0
H2201 H 0.73304 0.50751 0.33396 0.0
H2202 H 0.76637 0.45044 0.32055 0.0
H2203 H 0.74224 0.43028 0.34312 0.0
C2204 C 0.72186 0.41608 0.45395 0.0
C2205 C 0.73264 0.39691 0.45225 0.0
C2206 C 0.71253 0.42492 0.4361 0.0
C2207 C 0.71417 0.41498 0.41618 0.0
C2208 C 0.72496 0.39589 0.41441 0.0
C2209 C 0.73389 0.38678 0.43234 0.0
C2210 C 0.7046 0.42458 0.3972 0.0
C2211 C 0.71749 0.43451 0.3824 0.0
C2212 C 0.68284 0.42507 0.39438 0.0
C2213 C 0.66851 0.41501 0.40966 0.0
C2214 C 0.66989 0.39331 0.41405 0.0
C2215 C 0.65652 0.38403 0.42872 0.0
C2216 C 0.6416 0.39626 0.43901 0.0
C2217 C 0.63998 0.41779 0.43459 0.0
C2218 C 0.65334 0.42716 0.41994 0.0
C2219 C 0.67479 0.46479 0.30611 0.0
C2220 C 0.65761 0.47779 0.30992 0.0
C2221 C 0.68431 0.45407 0.32285 0.0
C2222 C 0.67726 0.4567 0.34381 0.0
C2223 C 0.66017 0.46987 0.34748 0.0
C2224 C 0.65037 0.48009 0.33077 0.0
C2225 C 0.68728 0.44567 0.36198 0.0
C2226 C 0.67448 0.4354 0.37677 0.0
C2227 C 0.70914 0.44541 0.36509 0.0
C2228 C 0.72361 0.45746 0.35145 0.0
C2229 C 0.72127 0.47938 0.34885 0.0
C2230 C 0.73497 0.49066 0.33598 0.0
C2231 C 0.75119 0.48022 0.32576 0.0
C2232 C 0.75377 0.45849 0.32844 0.0
C2233 C 0.7401 0.44713 0.34128 0.0
H2234 H 0.76178 0.48899 0.31581 0.0
H2235 H 0.63127 0.38905 0.45037 0.0
H2236 H 0.85925 0.45323 0.71848 0.0
H2237 H 0.84737 0.43401 0.68644 0.0
H2238 H 0.82106 0.49162 0.66267 0.0
H2239 H 0.83196 0.51039 0.69475 0.0
H2240 H 0.79406 0.46213 0.65845 0.0
H2241 H 0.86811 0.46672 0.64333 0.0
H2242 H 0.90518 0.46023 0.65057 0.0
H2243 H 0.89321 0.39324 0.65108 0.0
H2244 H 0.85602 0.39936 0.64407 0.0
H2245 H 0.77433 0.4465 0.55166 0.0
H2246 H 0.79131 0.45725 0.58463 0.0
H2247 H 0.80513 0.39212 0.59785 0.0
H2248 H 0.7884 0.38114 0.56431 0.0
H2249 H 0.83745 0.41915 0.60998 0.0
H2250 H 0.76406 0.41482 0.62153 0.0
H2251 H 0.72716 0.42148 0.61367 0.0
H2252 H 0.7381 0.48844 0.62002 0.0
H2253 H 0.77513 0.4822 0.62763 0.0
C2254 C 0.85107 0.46174 0.70629 0.0
C2255 C 0.84636 0.48327 0.70923 0.0
C2256 C 0.84435 0.45078 0.68793 0.0
C2257 C 0.83328 0.46131 0.67199 0.0
C2258 C 0.82933 0.48299 0.67473 0.0
C2259 C 0.83562 0.49376 0.69312 0.0
C2260 C 0.82473 0.45001 0.65286 0.0
C2261 C 0.80368 0.45292 0.6478 0.0
C2262 C 0.83692 0.43715 0.6393 0.0
C2263 C 0.85926 0.43351 0.64341 0.0
C2264 C 0.87337 0.45062 0.64513 0.0
C2265 C 0.8944 0.447 0.64917 0.0
C2266 C 0.90153 0.42634 0.65135 0.0
C2267 C 0.88766 0.40924 0.64943 0.0
C2268 C 0.86661 0.41277 0.64541 0.0
C2269 C 0.78106 0.43438 0.56145 0.0
C2270 C 0.7797 0.41289 0.55543 0.0
C2271 C 0.79078 0.44059 0.58036 0.0
C2272 C 0.7991 0.42547 0.594 0.0
C2273 C 0.7987 0.40406 0.58765 0.0
C2274 C 0.7891 0.39781 0.56849 0.0
C2275 C 0.80715 0.43226 0.61523 0.0
C2276 C 0.8279 0.42828 0.62076 0.0
C2277 C 0.79475 0.44424 0.6293 0.0
C2278 C 0.7724 0.44803 0.62505 0.0
C2279 C 0.75862 0.43097 0.62115 0.0
C2280 C 0.73767 0.43467 0.61674 0.0
C2281 C 0.73029 0.45537 0.61632 0.0
C2282 C 0.74383 0.47241 0.62035 0.0
C2283 C 0.76479 0.4688 0.62475 0.0
H2284 H 0.71408 0.45821 0.61288 0.0
H2285 H 0.91782 0.42357 0.65448 0.0
H2286 H 0.42013 0.03991 0.23026 0.0
H2287 H 0.44177 0.06634 0.21233 0.0
H2288 H 0.39897 0.11518 0.23085 0.0
H2289 H 0.37719 0.089 0.24821 0.0
H2290 H 0.40772 0.11911 0.19098 0.0
H2291 H 0.44798 0.10808 0.25487 0.0
H2292 H 0.46784 0.08706 0.28045 0.0
H2293 H 0.51053 0.06913 0.23155 0.0
H2294 H 0.49075 0.08985 0.20561 0.0
H2295 H 0.45962 0.21611 0.19434 0.0
H2296 H 0.44508 0.18193 0.20392 0.0
H2297 H 0.48742 0.15061 0.16152 0.0
H2298 H 0.50216 0.18525 0.15144 0.0
H2299 H 0.4823 0.13316 0.20647 0.0
H2300 H 0.44361 0.14988 0.14405 0.0
H2301 H 0.42386 0.17318 0.1205 0.0
H2302 H 0.37793 0.18206 0.16877 0.0
H2303 H 0.39757 0.15908 0.19275 0.0
C2304 C 0.41545 0.05632 0.23064 0.0
C2305 C 0.39684 0.06229 0.2406 0.0
C2306 C 0.42786 0.07143 0.2204 0.0
C2307 C 0.42204 0.09282 0.2202 0.0
C2308 C 0.40374 0.09879 0.23057 0.0
C2309 C 0.39129 0.08375 0.24058 0.0
C2310 C 0.43443 0.10916 0.20884 0.0
C2311 C 0.42403 0.12213 0.19443 0.0
C2312 C 0.45591 0.11278 0.21271 0.0
C2313 C 0.46773 0.10027 0.22826 0.0
C2314 C 0.46149 0.09949 0.24954 0.0
C2315 C 0.47276 0.08767 0.2641 0.0
C2316 C 0.49039 0.0767 0.25761 0.0
C2317 C 0.49683 0.07759 0.23654 0.0
C2318 C 0.48561 0.08937 0.22191 0.0
C2319 C 0.46601 0.20204 0.18702 0.0
C2320 C 0.48213 0.20347 0.1721 0.0
C2321 C 0.4576 0.18248 0.19252 0.0
C2322 C 0.46514 0.16378 0.18341 0.0
C2323 C 0.48142 0.16493 0.16873 0.0
C2324 C 0.48973 0.18468 0.16292 0.0
C2325 C 0.45533 0.14334 0.18931 0.0
C2326 C 0.46615 0.12969 0.20267 0.0
C2327 C 0.43415 0.13917 0.18469 0.0
C2328 C 0.42214 0.15283 0.17024 0.0
C2329 C 0.42937 0.15692 0.1497 0.0
C2330 C 0.41818 0.17006 0.13627 0.0
C2331 C 0.39966 0.17912 0.14314 0.0
C2332 C 0.39227 0.17503 0.16346 0.0
C2333 C 0.40342 0.16192 0.17697 0.0
H2334 H 0.39103 0.18929 0.13272 0.0
H2335 H 0.4991 0.06756 0.26891 0.0
H2336 H 0.05122 0.81621 0.62905 0.0
H2337 H 0.06635 0.8485 0.64482 0.0
H2338 H 0.03593 0.83484 0.70388 0.0
H2339 H 0.02112 0.80236 0.68834 0.0
H2340 H 0.0508 0.88324 0.6606 0.0
H2341 H 0.06587 0.85143 0.74525 0.0
H2342 H 0.07431 0.81767 0.76231 0.0
H2343 H 0.10147 0.79491 0.70452 0.0
H2344 H 0.09346 0.82862 0.68721 0.0
H2345 H 0.06271 0.96787 0.73162 0.0
H2346 H 0.05263 0.93422 0.71528 0.0
H2347 H 0.1159 0.91289 0.71962 0.0
H2348 H 0.12617 0.94666 0.73653 0.0
H2349 H 0.08938 0.8814 0.72878 0.0
H2350 H 0.09665 0.93034 0.67263 0.0
H2351 H 0.09144 0.96376 0.6537 0.0
H2352 H 0.02574 0.95141 0.65081 0.0
H2353 H 0.03051 0.91805 0.66999 0.0
C2354 C 0.04768 0.82015 0.64536 0.0
C2355 C 0.03505 0.80669 0.65748 0.0
C2356 C 0.05635 0.8386 0.65437 0.0
C2357 C 0.05259 0.84394 0.67566 0.0
C2358 C 0.03945 0.83084 0.68757 0.0
C2359 C 0.03086 0.81234 0.67861 0.0
C2360 C 0.06223 0.8633 0.68537 0.0
C2361 C 0.05926 0.8828 0.67549 0.0
C2362 C 0.07377 0.86274 0.70453 0.0
C2363 C 0.07888 0.84249 0.71489 0.0
C2364 C 0.07372 0.83925 0.73621 0.0
C2365 C 0.07842 0.82012 0.74592 0.0
C2366 C 0.08837 0.80413 0.73449 0.0
C2367 C 0.0937 0.80727 0.71334 0.0
C2368 C 0.08906 0.82638 0.70356 0.0
C2369 C 0.07456 0.95606 0.7292 0.0
C2370 C 0.09534 0.96012 0.7352 0.0
C2371 C 0.06874 0.9368 0.71976 0.0
C2372 C 0.08357 0.92118 0.71577 0.0
C2373 C 0.10421 0.92478 0.72242 0.0
C2374 C 0.11005 0.94409 0.73207 0.0
C2375 C 0.07736 0.90135 0.70433 0.0
C2376 C 0.081 0.88179 0.71386 0.0
C2377 C 0.06687 0.90177 0.68456 0.0
C2378 C 0.06393 0.92176 0.67288 0.0
C2379 C 0.08107 0.93481 0.66807 0.0
C2380 C 0.0782 0.95374 0.65728 0.0
C2381 C 0.05827 0.95973 0.65109 0.0
C2382 C 0.04117 0.94676 0.65563 0.0
C2383 C 0.04395 0.92783 0.66643 0.0
H2384 H 0.05608 0.97439 0.64274 0.0
H2385 H 0.09197 0.78933 0.74203 0.0
H2386 H 0.49928 0.80774 0.33697 0.0
H2387 H 0.48465 0.83905 0.32037 0.0
H2388 H 0.4482 0.8512 0.37623 0.0
H2389 H 0.46296 0.81994 0.39305 0.0
H2390 H 0.42516 0.85018 0.33779 0.0
H2391 H 0.48777 0.88266 0.36635 0.0
H2392 H 0.52567 0.88567 0.3717 0.0
H2393 H 0.53436 0.89178 0.3047 0.0
H2394 H 0.49651 0.8885 0.29892 0.0
H2395 H 0.38253 0.94825 0.313 0.0
H2396 H 0.40034 0.91865 0.3289 0.0
H2397 H 0.44521 0.91918 0.27833 0.0
H2398 H 0.42796 0.94991 0.26296 0.0
H2399 H 0.46476 0.91277 0.31275 0.0
H2400 H 0.40414 0.8803 0.28268 0.0
H2401 H 0.36679 0.87528 0.27501 0.0
H2402 H 0.35479 0.86637 0.34111 0.0
H2403 H 0.39204 0.87161 0.34922 0.0
C2404 C 0.48838 0.81725 0.34585 0.0
C2405 C 0.48224 0.81139 0.36631 0.0
C2406 C 0.48006 0.83515 0.33635 0.0
C2407 C 0.46536 0.84744 0.34707 0.0
C2408 C 0.45954 0.8419 0.36769 0.0
C2409 C 0.46805 0.82413 0.37732 0.0
C2410 C 0.45519 0.86535 0.33631 0.0
C2411 C 0.43373 0.86404 0.33257 0.0
C2412 C 0.46658 0.88292 0.3287 0.0
C2413 C 0.48931 0.88514 0.33219 0.0
C2414 C 0.49777 0.88448 0.35274 0.0
C2415 C 0.51925 0.88627 0.35585 0.0
C2416 C 0.53242 0.88886 0.33854 0.0
C2417 C 0.52414 0.88975 0.31809 0.0
C2418 C 0.50267 0.88795 0.31489 0.0
C2419 C 0.39608 0.94196 0.30511 0.0
C2420 C 0.40372 0.95126 0.28659 0.0
C2421 C 0.40624 0.92491 0.3142 0.0
C2422 C 0.4239 0.91621 0.30461 0.0
C2423 C 0.43157 0.92548 0.28602 0.0
C2424 C 0.42166 0.94296 0.27717 0.0
C2425 C 0.43451 0.89784 0.31438 0.0
C2426 C 0.45609 0.89896 0.31788 0.0
C2427 C 0.42329 0.8798 0.32139 0.0
C2428 C 0.40087 0.87652 0.31657 0.0
C2429 C 0.39352 0.8774 0.29559 0.0
C2430 C 0.37237 0.8745 0.29117 0.0
C2431 C 0.35842 0.87056 0.30757 0.0
C2432 C 0.36561 0.86944 0.32843 0.0
C2433 C 0.38674 0.87235 0.33295 0.0
H2434 H 0.34205 0.86832 0.30411 0.0
H2435 H 0.54904 0.89023 0.34098 0.0
H2436 H 0.79588 0.67202 0.04259 0.0
H2437 H 0.82434 0.6931 0.05837 0.0
H2438 H 0.86893 0.65241 0.02803 0.0
H2439 H 0.8407 0.63104 0.01286 0.0
H2440 H 0.87949 0.65711 0.06687 0.0
H2441 H 0.85997 0.7053 0.01273 0.0
H2442 H 0.83639 0.72759 0.99201 0.0
H2443 H 0.82248 0.7642 0.0478 0.0
H2444 H 0.84577 0.74193 0.06893 0.0
H2445 H 0.96962 0.71901 0.0921 0.0
H2446 H 0.94127 0.70355 0.07062 0.0
H2447 H 0.89636 0.73378 0.11098 0.0
H2448 H 0.92451 0.74902 0.13267 0.0
H2449 H 0.88653 0.73536 0.0664 0.0
H2450 H 0.90556 0.68539 0.12019 0.0
H2451 H 0.93006 0.66328 0.13999 0.0
H2452 H 0.94586 0.63007 0.08266 0.0
H2453 H 0.92166 0.65223 0.06246 0.0
C2454 C 0.81175 0.66778 0.03904 0.0
C2455 C 0.81599 0.64976 0.02657 0.0
C2456 C 0.82805 0.67988 0.04804 0.0
C2457 C 0.8489 0.67444 0.04439 0.0
C2458 C 0.85306 0.65691 0.03126 0.0
C2459 C 0.83685 0.6447 0.02254 0.0
C2460 C 0.86642 0.68603 0.0552 0.0
C2461 C 0.88114 0.6742 0.06639 0.0
C2462 C 0.8685 0.7084 0.0551 0.0
C2463 C 0.85446 0.7218 0.04246 0.0
C2464 C 0.85175 0.71799 0.02062 0.0
C2465 C 0.83846 0.73064 0.0088 0.0
C2466 C 0.8279 0.74726 0.01859 0.0
C2467 C 0.83065 0.75129 0.04024 0.0
C2468 C 0.8439 0.73867 0.05214 0.0
C2469 C 0.95372 0.72259 0.09623 0.0
C2470 C 0.94934 0.73512 0.1142 0.0
C2471 C 0.93754 0.71371 0.08397 0.0
C2472 C 0.9167 0.71743 0.08928 0.0
C2473 C 0.91231 0.73072 0.10659 0.0
C2474 C 0.92844 0.73932 0.11903 0.0
C2475 C 0.89948 0.70635 0.07771 0.0
C2476 C 0.88484 0.71826 0.06659 0.0
C2477 C 0.89753 0.68404 0.07765 0.0
C2478 C 0.91199 0.67063 0.08978 0.0
C2479 C 0.9144 0.6735 0.11178 0.0
C2480 C 0.92821 0.66094 0.12308 0.0
C2481 C 0.93956 0.64532 0.11258 0.0
C2482 C 0.93708 0.6422 0.09076 0.0
C2483 C 0.92332 0.65475 0.07939 0.0
H2484 H 0.95024 0.6356 0.12135 0.0
H2485 H 0.81762 0.75704 0.00941 0.0
H2486 H 0.57464 0.29172 0.63321 0.0
H2487 H 0.60465 0.30629 0.61472 0.0
H2488 H 0.58985 0.26719 0.56006 0.0
H2489 H 0.55927 0.25308 0.57831 0.0
H2490 H 0.63904 0.29303 0.59891 0.0
H2491 H 0.60283 0.29292 0.5151 0.0
H2492 H 0.5683 0.29392 0.49798 0.0
H2493 H 0.54353 0.32583 0.55255 0.0
H2494 H 0.57796 0.32524 0.56987 0.0
H2495 H 0.71722 0.33084 0.52787 0.0
H2496 H 0.68993 0.30877 0.54364 0.0
H2497 H 0.64719 0.36066 0.53985 0.0
H2498 H 0.67399 0.38253 0.52382 0.0
H2499 H 0.62772 0.32593 0.52899 0.0
H2500 H 0.67243 0.34781 0.58654 0.0
H2501 H 0.70559 0.35161 0.60605 0.0
H2502 H 0.71109 0.284 0.60798 0.0
H2503 H 0.67808 0.27981 0.58822 0.0
C2504 C 0.57785 0.28605 0.61732 0.0
C2505 C 0.56443 0.27134 0.60718 0.0
C2506 C 0.5951 0.29438 0.60675 0.0
C2507 C 0.59945 0.28815 0.58581 0.0
C2508 C 0.58664 0.27264 0.57603 0.0
C2509 C 0.56921 0.26447 0.58652 0.0
C2510 C 0.61676 0.29867 0.57409 0.0
C2511 C 0.63657 0.30006 0.58353 0.0
C2512 C 0.61362 0.30822 0.55416 0.0
C2513 C 0.59289 0.30878 0.54386 0.0
C2514 C 0.59001 0.30018 0.52341 0.0
C2515 C 0.57047 0.30067 0.51368 0.0
C2516 C 0.55372 0.30986 0.5242 0.0
C2517 C 0.5565 0.31864 0.54445 0.0
C2518 C 0.57601 0.31821 0.55424 0.0
C2519 C 0.70196 0.3375 0.53025 0.0
C2520 C 0.69793 0.35856 0.52461 0.0
C2521 C 0.68639 0.32488 0.53938 0.0
C2522 C 0.66649 0.33308 0.54317 0.0
C2523 C 0.66235 0.35389 0.53709 0.0
C2524 C 0.67781 0.36645 0.52796 0.0
C2525 C 0.64996 0.32037 0.55384 0.0
C2526 C 0.63029 0.31858 0.54419 0.0
C2527 C 0.65307 0.31104 0.57387 0.0
C2528 C 0.67294 0.3135 0.58568 0.0
C2529 C 0.68081 0.33376 0.59096 0.0
C2530 C 0.69955 0.33598 0.6021 0.0
C2531 C 0.71047 0.31805 0.60819 0.0
C2532 C 0.70264 0.29787 0.60321 0.0
C2533 C 0.68391 0.29556 0.59205 0.0
H2534 H 0.72498 0.31981 0.61682 0.0
H2535 H 0.53859 0.31022 0.51665 0.0
H2536 H 0.25202 0.44652 0.05636 0.0
H2537 H 0.23732 0.45677 0.09061 0.0
H2538 H 0.21608 0.39263 0.09988 0.0
H2539 H 0.23142 0.38204 0.06577 0.0
H2540 H 0.18592 0.43613 0.10209 0.0
H2541 H 0.24429 0.39689 0.13089 0.0
H2542 H 0.28146 0.38799 0.13238 0.0
H2543 H 0.29698 0.45286 0.14692 0.0
H2544 H 0.25989 0.46221 0.14511 0.0
H2545 H 0.14625 0.45957 0.20566 0.0
H2546 H 0.15951 0.44324 0.17307 0.0
H2547 H 0.21392 0.48386 0.17683 0.0
H2548 H 0.20131 0.49894 0.21011 0.0
H2549 H 0.22651 0.44779 0.16825 0.0
H2550 H 0.17088 0.48866 0.13885 0.0
H2551 H 0.13481 0.50079 0.13475 0.0
H2552 H 0.11486 0.43741 0.11899 0.0
H2553 H 0.15078 0.42486 0.12325 0.0
C2554 C 0.24453 0.43451 0.06586 0.0
C2555 C 0.24292 0.41346 0.05847 0.0
C2556 C 0.23611 0.4404 0.08535 0.0
C2557 C 0.2256 0.42546 0.09764 0.0
C2558 C 0.22421 0.40434 0.09056 0.0
C2559 C 0.23309 0.3983 0.07121 0.0
C2560 C 0.2155 0.43243 0.11749 0.0
C2561 C 0.19458 0.43831 0.11676 0.0
C2562 C 0.22709 0.43592 0.13624 0.0
C2563 C 0.24935 0.43028 0.13762 0.0
C2564 C 0.25565 0.4093 0.13417 0.0
C2565 C 0.2767 0.40416 0.13513 0.0
C2566 C 0.29159 0.41985 0.13969 0.0
C2567 C 0.28544 0.44072 0.14336 0.0
C2568 C 0.26441 0.44594 0.14238 0.0
C2569 C 0.16084 0.4652 0.19922 0.0
C2570 C 0.17274 0.48057 0.21021 0.0
C2571 C 0.16844 0.45591 0.18058 0.0
C2572 C 0.18773 0.46236 0.17224 0.0
C2573 C 0.19912 0.47839 0.18291 0.0
C2574 C 0.19183 0.48718 0.20182 0.0
C2575 C 0.19668 0.45188 0.15307 0.0
C2576 C 0.21754 0.44542 0.15381 0.0
C2577 C 0.18506 0.44825 0.13418 0.0
C2578 C 0.16347 0.45579 0.1316 0.0
C2579 C 0.15877 0.47729 0.13466 0.0
C2580 C 0.13836 0.48424 0.13228 0.0
C2581 C 0.12254 0.46987 0.12668 0.0
C2582 C 0.12712 0.44852 0.12337 0.0
C2583 C 0.1475 0.44148 0.12575 0.0
H2584 H 0.10675 0.47528 0.12484 0.0
H2585 H 0.30788 0.41584 0.14041 0.0
H2586 H 0.35676 0.448 0.79669 0.0
H2587 H 0.33873 0.43283 0.82717 0.0
H2588 H 0.34471 0.49259 0.86063 0.0
H2589 H 0.36247 0.50791 0.82979 0.0
H2590 H 0.35638 0.45775 0.88493 0.0
H2591 H 0.29907 0.47921 0.84301 0.0
H2592 H 0.27737 0.4825 0.81099 0.0
H2593 H 0.26862 0.41505 0.8083 0.0
H2594 H 0.29056 0.41131 0.84015 0.0
H2595 H 0.28523 0.43314 0.96731 0.0
H2596 H 0.29955 0.44988 0.93581 0.0
H2597 H 0.30342 0.3889 0.90478 0.0
H2598 H 0.28954 0.37186 0.9366 0.0
H2599 H 0.28591 0.42526 0.87958 0.0
H2600 H 0.34499 0.40449 0.92131 0.0
H2601 H 0.36577 0.40229 0.95408 0.0
H2602 H 0.37018 0.47011 0.95757 0.0
H2603 H 0.3491 0.47272 0.92498 0.0
C2604 C 0.35408 0.45787 0.81054 0.0
C2605 C 0.36084 0.47905 0.81105 0.0
C2606 C 0.34376 0.44925 0.82788 0.0
C2607 C 0.34026 0.46162 0.84611 0.0
C2608 C 0.34721 0.48281 0.84668 0.0
C2609 C 0.35726 0.49155 0.82914 0.0
C2610 C 0.32981 0.4521 0.86468 0.0
C2611 C 0.34086 0.45094 0.88383 0.0
C2612 C 0.3097 0.44285 0.86314 0.0
C2613 C 0.29667 0.44496 0.84384 0.0
C2614 C 0.29272 0.46505 0.83546 0.0
C2615 C 0.28033 0.467 0.81737 0.0
C2616 C 0.27168 0.44899 0.80758 0.0
C2617 C 0.27537 0.42898 0.81588 0.0
C2618 C 0.28777 0.42694 0.83397 0.0
C2619 C 0.28894 0.42327 0.95373 0.0
C2620 C 0.28633 0.40116 0.95444 0.0
C2621 C 0.29716 0.43287 0.93578 0.0
C2622 C 0.30261 0.42061 0.91806 0.0
C2623 C 0.29929 0.39861 0.91834 0.0
C2624 C 0.29142 0.38891 0.9365 0.0
C2625 C 0.31257 0.4308 0.89964 0.0
C2626 C 0.30143 0.4321 0.88059 0.0
C2627 C 0.33253 0.4403 0.90129 0.0
C2628 C 0.34525 0.4388 0.92085 0.0
C2629 C 0.35019 0.41894 0.92919 0.0
C2630 C 0.36207 0.41762 0.9477 0.0
C2631 C 0.36923 0.43605 0.95794 0.0
C2632 C 0.36458 0.45585 0.94964 0.0
C2633 C 0.35268 0.45726 0.93115 0.0
H2634 H 0.37844 0.435 0.97227 0.0
H2635 H 0.26206 0.45054 0.79359 0.0
H2636 H 0.27337 0.55783 0.55656 0.0
H2637 H 0.28858 0.54711 0.5903 0.0
H2638 H 0.30464 0.61213 0.60481 0.0
H2639 H 0.28891 0.6231 0.57121 0.0
H2640 H 0.33861 0.58035 0.60551 0.0
H2641 H 0.27034 0.59319 0.6336 0.0
H2642 H 0.2322 0.58924 0.63428 0.0
H2643 H 0.23796 0.5221 0.6416 0.0
H2644 H 0.27616 0.52561 0.64065 0.0
H2645 H 0.38697 0.55733 0.70198 0.0
H2646 H 0.36476 0.57354 0.67534 0.0
H2647 H 0.32772 0.51615 0.67135 0.0
H2648 H 0.34908 0.50063 0.69935 0.0
H2649 H 0.30323 0.54628 0.666 0.0
H2650 H 0.36869 0.53044 0.63437 0.0
H2651 H 0.40682 0.53085 0.63061 0.0
H2652 H 0.40671 0.59858 0.62595 0.0
H2653 H 0.36859 0.5986 0.62995 0.0
C2654 C 0.2798 0.5699 0.56711 0.0
C2655 C 0.27998 0.59131 0.56124 0.0
C2656 C 0.28843 0.56375 0.58639 0.0
C2657 C 0.29772 0.57882 0.60002 0.0
C2658 C 0.29747 0.60028 0.5945 0.0
C2659 C 0.28841 0.60652 0.57538 0.0
C2660 C 0.30917 0.57182 0.61907 0.0
C2661 C 0.33091 0.57329 0.61897 0.0
C2662 C 0.29909 0.56177 0.63611 0.0
C2663 C 0.27612 0.55965 0.63688 0.0
C2664 C 0.26348 0.57756 0.63518 0.0
C2665 C 0.24185 0.57541 0.63565 0.0
C2666 C 0.23266 0.55543 0.63793 0.0
C2667 C 0.2451 0.53757 0.63982 0.0
C2668 C 0.26674 0.53963 0.63934 0.0
C2669 C 0.37391 0.54833 0.69554 0.0
C2670 C 0.36974 0.52775 0.70252 0.0
C2671 C 0.36132 0.5575 0.68017 0.0
C2672 C 0.34487 0.54589 0.6707 0.0
C2673 C 0.34033 0.52547 0.67823 0.0
C2674 C 0.35254 0.51656 0.69417 0.0
C2675 C 0.3329 0.55477 0.65259 0.0
C2676 C 0.31105 0.55353 0.65272 0.0
C2677 C 0.34291 0.5645 0.63519 0.0
C2678 C 0.36582 0.56454 0.63268 0.0
C2679 C 0.37682 0.54543 0.63268 0.0
C2680 C 0.39842 0.54558 0.63049 0.0
C2681 C 0.40919 0.56473 0.6281 0.0
C2682 C 0.39836 0.58377 0.62784 0.0
C2683 C 0.37675 0.58371 0.63004 0.0
H2684 H 0.42591 0.56482 0.62641 0.0
H2685 H 0.21591 0.55379 0.63829 0.0
H2686 H 0.18944 0.51899 0.30448 0.0
H2687 H 0.2055 0.53427 0.33639 0.0
H2688 H 0.14575 0.55668 0.35696 0.0
H2689 H 0.12961 0.5417 0.32482 0.0
H2690 H 0.1752 0.58736 0.35984 0.0
H2691 H 0.1695 0.51408 0.38048 0.0
H2692 H 0.17501 0.47573 0.3759 0.0
H2693 H 0.24106 0.48613 0.37515 0.0
H2694 H 0.23593 0.52457 0.37945 0.0
H2695 H 0.20394 0.62248 0.46213 0.0
H2696 H 0.18814 0.6052 0.4312 0.0
H2697 H 0.24586 0.57333 0.41839 0.0
H2698 H 0.26099 0.58923 0.45073 0.0
H2699 H 0.21783 0.54724 0.41076 0.0
H2700 H 0.22511 0.6195 0.38904 0.0
H2701 H 0.22113 0.65822 0.39186 0.0
H2702 H 0.15474 0.65067 0.39213 0.0
H2703 H 0.15832 0.6119 0.38956 0.0
C2704 C 0.17967 0.52697 0.3159 0.0
C2705 C 0.15825 0.52915 0.31213 0.0
C2706 C 0.18888 0.53565 0.33418 0.0
C2707 C 0.17682 0.5465 0.34918 0.0
C2708 C 0.15536 0.54837 0.34562 0.0
C2709 C 0.14614 0.53973 0.32729 0.0
C2710 C 0.18673 0.55671 0.36808 0.0
C2711 C 0.18431 0.57856 0.37116 0.0
C2712 C 0.19925 0.54537 0.38239 0.0
C2713 C 0.20232 0.52222 0.38013 0.0
C2714 C 0.18519 0.5082 0.37922 0.0
C2715 C 0.18825 0.48644 0.37669 0.0
C2716 C 0.20837 0.4785 0.37519 0.0
C2717 C 0.22548 0.4923 0.3763 0.0
C2718 C 0.22251 0.51407 0.37881 0.0
C2719 C 0.21327 0.61192 0.45256 0.0
C2720 C 0.23372 0.60735 0.45855 0.0
C2721 C 0.20429 0.60213 0.43475 0.0
C2722 C 0.21591 0.58835 0.42189 0.0
C2723 C 0.23651 0.58393 0.42789 0.0
C2724 C 0.24522 0.59309 0.44625 0.0
C2725 C 0.20636 0.57807 0.40268 0.0
C2726 C 0.20883 0.55617 0.39948 0.0
C2727 C 0.19417 0.58945 0.388 0.0
C2728 C 0.192 0.61279 0.38927 0.0
C2729 C 0.20967 0.6261 0.3898 0.0
C2730 C 0.20748 0.64806 0.39134 0.0
C2731 C 0.18769 0.6569 0.39222 0.0
C2732 C 0.17005 0.64381 0.39147 0.0
C2733 C 0.17215 0.62185 0.38993 0.0
H2734 H 0.18603 0.6739 0.39344 0.0
H2735 H 0.2107 0.46166 0.37322 0.0
loop_
_geom_bond_atom_site_label_1
_geom_bond_atom_site_label_2
_geom_bond_distance
_geom_bond_site_symmetry_2
_ccdc_geom_bond_type
Co0 O1 2.216 1_455 S
Co0 O2 2.091 1_455 S
Co0 O4 2.004 . S
Co0 O10 2.021 1_455 S
Co0 O12 2.137 . S
Co0 O13 2.244 . S
O1 Co0 2.216 1_655 S
O1 C8 1.247 . S
O2 Co0 2.091 1_655 S
O2 C8 1.261 . S
C3 O12 1.247 . S
C3 O13 1.272 . S
O4 Co0 2.004 . S
O4 C9 1.259 . S
Co5 O6 2.061 . S
Co5 O11 2.052 . S
Co5 O13 2.135 . S
O6 Co5 2.061 . S
O6 C9 1.235 . S
C7 O10 1.238 . S
C7 O11 1.241 1_655 S
C8 O1 1.247 . S
C8 O2 1.261 . S
C9 O4 1.259 . S
C9 O6 1.235 . S
O10 Co0 2.021 1_655 S
O10 C7 1.238 . S
O11 Co5 2.052 . S
O11 C7 1.241 1_455 S
O12 Co0 2.137 . S
O12 C3 1.247 . S
O13 Co0 2.244 . S
O13 C3 1.272 . S
O13 Co5 2.135 . S
Co14 O15 2.216 . S
Co14 O16 2.091 . S
Co14 O18 2.004 1_455 S
Co14 O24 2.021 1_455 S
Co14 O26 2.137 . S
Co14 O27 2.244 . S
O15 Co14 2.216 . S
O15 C22 1.247 . S
O16 Co14 2.091 . S
O16 C22 1.261 . S
C17 O26 1.247 . S
C17 O27 1.272 . S
O18 Co14 2.004 1_655 S
O18 C23 1.259 . S
Co19 O20 2.061 . S
Co19 O25 2.052 . S
Co19 O27 2.135 1_655 S
O20 Co19 2.061 . S
O20 C23 1.235 . S
C21 O24 1.238 . S
C21 O25 1.241 . S
C22 O15 1.247 . S
C22 O16 1.261 . S
C23 O18 1.259 . S
C23 O20 1.235 . S
O24 Co14 2.021 1_655 S
O24 C21 1.238 . S
O25 Co19 2.052 . S
O25 C21 1.241 . S
O26 Co14 2.137 . S
O26 C17 1.247 . S
O27 Co14 2.244 . S
O27 C17 1.272 . S
O27 Co19 2.135 1_455 S
Co28 O29 2.216 . S
Co28 O30 2.091 . S
Co28 O32 2.004 . S
Co28 O38 2.021 . S
Co28 O40 2.137 . S
Co28 O41 2.244 . S
O29 Co28 2.216 . S
O29 C36 1.247 . S
O30 Co28 2.091 . S
O30 C36 1.261 . S
C31 O40 1.247 . S
C31 O41 1.272 . S
O32 Co28 2.004 . S
O32 C37 1.259 . S
Co33 O34 2.061 . S
Co33 O39 2.052 . S
Co33 O41 2.135 . S
O34 Co33 2.061 . S
O34 C37 1.235 . S
C35 O38 1.238 . S
C35 O39 1.241 . S
C36 O29 1.247 . S
C36 O30 1.261 . S
C37 O32 1.259 . S
C37 O34 1.235 . S
O38 Co28 2.021 . S
O38 C35 1.238 . S
O39 Co33 2.052 . S
O39 C35 1.241 . S
O40 Co28 2.137 . S
O40 C31 1.247 . S
O41 Co28 2.244 . S
O41 C31 1.272 . S
O41 Co33 2.135 . S
Co42 O43 2.216 . S
Co42 O44 2.091 . S
Co42 O46 2.004 . S
Co42 O52 2.021 . S
Co42 O54 2.137 . S
Co42 O55 2.244 . S
O43 Co42 2.216 . S
O43 C50 1.247 . S
O44 Co42 2.091 . S
O44 C50 1.261 . S
C45 O54 1.247 . S
C45 O55 1.272 . S
O46 Co42 2.004 . S
O46 C51 1.259 . S
Co47 O48 2.061 . S
Co47 O53 2.052 . S
Co47 O55 2.135 . S
O48 Co47 2.061 . S
O48 C51 1.235 . S
C49 O52 1.238 . S
C49 O53 1.241 . S
C50 O43 1.247 . S
C50 O44 1.261 . S
C51 O46 1.259 . S
C51 O48 1.235 . S
O52 Co42 2.021 . S
O52 C49 1.238 . S
O53 Co47 2.052 . S
O53 C49 1.241 . S
O54 Co42 2.137 . S
O54 C45 1.247 . S
O55 Co42 2.244 . S
O55 C45 1.272 . S
O55 Co47 2.135 . S
Co56 O57 2.216 . S
Co56 O58 2.091 . S
Co56 O60 2.004 1_455 S
Co56 O66 2.021 . S
Co56 O68 2.137 1_455 S
Co56 O69 2.244 1_455 S
O57 Co56 2.216 . S
O57 C64 1.247 . S
O58 Co56 2.091 . S
O58 C64 1.261 . S
C59 O68 1.247 . S
C59 O69 1.272 . S
O60 Co56 2.004 1_655 S
O60 C65 1.259 . S
Co61 O62 2.061 . S
Co61 O67 2.052 1_655 S
Co61 O69 2.135 . S
O62 Co61 2.061 . S
O62 C65 1.235 . S
C63 O66 1.238 . S
C63 O67 1.241 . S
C64 O57 1.247 . S
C64 O58 1.261 . S
C65 O60 1.259 . S
C65 O62 1.235 . S
O66 Co56 2.021 . S
O66 C63 1.238 . S
O67 Co61 2.052 1_455 S
O67 C63 1.241 . S
O68 Co56 2.137 1_655 S
O68 C59 1.247 . S
O69 Co56 2.244 1_655 S
O69 C59 1.272 . S
O69 Co61 2.135 . S
Co70 O71 2.216 . S
Co70 O72 2.091 . S
Co70 O74 2.004 . S
Co70 O80 2.021 . S
Co70 O82 2.137 . S
Co70 O83 2.244 . S
O71 Co70 2.216 . S
O71 C78 1.247 . S
O72 Co70 2.091 . S
O72 C78 1.261 . S
C73 O82 1.247 . S
C73 O83 1.272 . S
O74 Co70 2.004 . S
O74 C79 1.259 . S
Co75 O76 2.061 . S
Co75 O81 2.052 . S
Co75 O83 2.135 . S
O76 Co75 2.061 . S
O76 C79 1.235 . S
C77 O80 1.238 . S
C77 O81 1.241 . S
C78 O71 1.247 . S
C78 O72 1.261 . S
C79 O74 1.259 . S
C79 O76 1.235 . S
O80 Co70 2.021 . S
O80 C77 1.238 . S
O81 Co75 2.052 . S
O81 C77 1.241 . S
O82 Co70 2.137 . S
O82 C73 1.247 . S
O83 Co70 2.244 . S
O83 C73 1.272 . S
O83 Co75 2.135 . S
Co84 O85 2.216 . S
Co84 O86 2.091 . S
Co84 O88 2.004 . S
Co84 O94 2.021 . S
Co84 O96 2.137 . S
Co84 O97 2.244 . S
O85 Co84 2.216 . S
O85 C92 1.247 . S
O86 Co84 2.091 . S
O86 C92 1.261 . S
C87 O96 1.247 . S
C87 O97 1.272 . S
O88 Co84 2.004 . S
O88 C93 1.259 . S
Co89 O90 2.061 . S
Co89 O95 2.052 . S
Co89 O97 2.135 . S
O90 Co89 2.061 . S
O90 C93 1.235 . S
C91 O94 1.238 . S
C91 O95 1.241 . S
C92 O85 1.247 . S
C92 O86 1.261 . S
C93 O88 1.259 . S
C93 O90 1.235 . S
O94 Co84 2.021 . S
O94 C91 1.238 . S
O95 Co89 2.052 . S
O95 C91 1.241 . S
O96 Co84 2.137 . S
O96 C87 1.247 . S
O97 Co84 2.244 . S
O97 C87 1.272 . S
O97 Co89 2.135 . S
Co98 O99 2.256 . S
Co98 O100 2.116 . S
Co98 O102 1.970 1_655 S
Co98 O108 1.998 1_655 S
Co98 O110 2.161 . S
Co98 O111 2.241 1_655 S
O99 Co98 2.256 . S
O99 C106 1.247 . S
O100 Co98 2.116 . S
O100 C106 1.261 . S
C101 O110 1.247 . S
C101 O111 1.272 1_655 S
O102 Co98 1.970 1_455 S
O102 C107 1.259 . S
Co103 O104 2.061 . S
Co103 O109 2.052 . S
Co103 O111 2.135 . S
O104 Co103 2.061 . S
O104 C107 1.235 . S
C105 O108 1.238 . S
C105 O109 1.241 . S
C106 O99 1.247 . S
C106 O100 1.261 . S
C107 O102 1.259 . S
C107 O104 1.235 . S
O108 Co98 1.998 1_455 S
O108 C105 1.238 . S
O109 Co103 2.052 . S
O109 C105 1.241 . S
O110 Co98 2.161 . S
O110 C101 1.247 . S
O111 Co98 2.241 1_455 S
O111 C101 1.272 1_455 S
O111 Co103 2.135 . S
Co112 O113 2.249 . S
Co112 O114 2.114 . S
Co112 O116 1.976 1_565 S
Co112 O122 2.034 . S
Co112 O124 2.124 1_565 S
Co112 O125 2.228 1_565 S
O113 Co112 2.249 . S
O113 C120 1.247 . S
O114 Co112 2.114 . S
O114 C120 1.261 . S
C115 O124 1.247 . S
C115 O125 1.272 . S
O116 Co112 1.976 1_545 S
O116 C121 1.259 . S
Co117 O118 2.061 . S
Co117 O123 2.052 . S
Co117 O125 2.135 . S
O118 Co117 2.061 . S
O118 C121 1.235 . S
C119 O122 1.238 . S
C119 O123 1.241 1_565 S
C120 O113 1.247 . S
C120 O114 1.261 . S
C121 O116 1.259 . S
C121 O118 1.235 . S
O122 Co112 2.034 . S
O122 C119 1.238 . S
O123 Co117 2.052 . S
O123 C119 1.241 1_545 S
O124 Co112 2.124 1_545 S
O124 C115 1.247 . S
O125 Co112 2.228 1_545 S
O125 C115 1.272 . S
O125 Co117 2.135 . S
Co126 O127 2.216 . S
Co126 O128 2.091 . S
Co126 O130 2.004 . S
Co126 O136 2.021 . S
Co126 O138 2.137 . S
Co126 O139 2.244 . S
O127 Co126 2.216 . S
O127 C134 1.247 . S
O128 Co126 2.091 . S
O128 C134 1.261 . S
C129 O138 1.247 . S
C129 O139 1.272 . S
O130 Co126 2.004 . S
O130 C135 1.259 . S
Co131 O132 2.061 . S
Co131 O137 2.052 . S
Co131 O139 2.135 . S
O132 Co131 2.061 . S
O132 C135 1.235 . S
C133 O136 1.238 . S
C133 O137 1.241 . S
C134 O127 1.247 . S
C134 O128 1.261 . S
C135 O130 1.259 . S
C135 O132 1.235 . S
O136 Co126 2.021 . S
O136 C133 1.238 . S
O137 Co131 2.052 . S
O137 C133 1.241 . S
O138 Co126 2.137 . S
O138 C129 1.247 . S
O139 Co126 2.244 . S
O139 C129 1.272 . S
O139 Co131 2.135 . S
Co140 O141 2.216 1_545 S
Co140 O142 2.091 1_545 S
Co140 O144 2.004 . S
Co140 O150 2.021 1_545 S
Co140 O152 2.137 . S
Co140 O153 2.244 . S
O141 Co140 2.216 1_565 S
O141 C148 1.247 . S
O142 Co140 2.091 1_565 S
O142 C148 1.261 . S
C143 O152 1.247 . S
C143 O153 1.272 . S
O144 Co140 2.004 . S
O144 C149 1.259 . S
Co145 O146 2.061 . S
Co145 O151 2.052 1_545 S
Co145 O153 2.135 . S
O146 Co145 2.061 . S
O146 C149 1.235 . S
C147 O150 1.238 . S
C147 O151 1.241 . S
C148 O141 1.247 . S
C148 O142 1.261 . S
C149 O144 1.259 . S
C149 O146 1.235 . S
O150 Co140 2.021 1_565 S
O150 C147 1.238 . S
O151 Co145 2.052 1_565 S
O151 C147 1.241 . S
O152 Co140 2.137 . S
O152 C143 1.247 . S
O153 Co140 2.244 . S
O153 C143 1.272 . S
O153 Co145 2.135 . S
Co154 O155 2.216 1_554 S
Co154 O156 2.091 1_554 S
Co154 O158 2.004 . S
Co154 O164 2.021 . S
Co154 O166 2.137 1_554 S
Co154 O167 2.244 1_554 S
O155 Co154 2.216 1_556 S
O155 C162 1.247 . S
O156 Co154 2.091 1_556 S
O156 C162 1.261 . S
C157 O166 1.247 . S
C157 O167 1.272 . S
O158 Co154 2.004 . S
O158 C163 1.259 . S
Co159 O160 2.061 . S
Co159 O165 2.052 . S
Co159 O167 2.135 1_554 S
O160 Co159 2.061 . S
O160 C163 1.235 . S
C161 O164 1.238 . S
C161 O165 1.241 . S
C162 O155 1.247 . S
C162 O156 1.261 . S
C163 O158 1.259 . S
C163 O160 1.235 . S
O164 Co154 2.021 . S
O164 C161 1.238 . S
O165 Co159 2.052 . S
O165 C161 1.241 . S
O166 Co154 2.137 1_556 S
O166 C157 1.247 . S
O167 Co154 2.244 1_556 S
O167 C157 1.272 . S
O167 Co159 2.135 1_556 S
Co168 O169 2.216 . S
Co168 O170 2.091 . S
Co168 O172 2.004 1_554 S
Co168 O178 2.021 . S
Co168 O180 2.137 1_554 S
Co168 O181 2.244 1_554 S
O169 Co168 2.216 . S
O169 C176 1.247 . S
O170 Co168 2.091 . S
O170 C176 1.261 . S
C171 O180 1.247 . S
C171 O181 1.272 . S
O172 Co168 2.004 1_556 S
O172 C177 1.259 . S
Co173 O174 2.061 . S
Co173 O179 2.052 1_556 S
Co173 O181 2.135 . S
O174 Co173 2.061 . S
O174 C177 1.235 . S
C175 O178 1.238 . S
C175 O179 1.241 . S
C176 O169 1.247 . S
C176 O170 1.261 . S
C177 O172 1.259 . S
C177 O174 1.235 . S
O178 Co168 2.021 . S
O178 C175 1.238 . S
O179 Co173 2.052 1_554 S
O179 C175 1.241 . S
O180 Co168 2.137 1_556 S
O180 C171 1.247 . S
O181 Co168 2.244 1_556 S
O181 C171 1.272 . S
O181 Co173 2.135 . S
Co182 O183 2.216 . S
Co182 O184 2.091 . S
Co182 O186 2.004 1_554 S
Co182 O192 2.021 . S
Co182 O194 2.137 1_554 S
Co182 O195 2.244 1_554 S
O183 Co182 2.216 . S
O183 C190 1.247 . S
O184 Co182 2.091 . S
O184 C190 1.261 . S
C185 O194 1.247 . S
C185 O195 1.272 . S
O186 Co182 2.004 1_556 S
O186 C191 1.259 . S
Co187 O188 2.061 . S
Co187 O193 2.052 1_556 S
Co187 O195 2.135 . S
O188 Co187 2.061 . S
O188 C191 1.235 . S
C189 O192 1.238 . S
C189 O193 1.241 . S
C190 O183 1.247 . S
C190 O184 1.261 . S
C191 O186 1.259 . S
C191 O188 1.235 . S
O192 Co182 2.021 . S
O192 C189 1.238 . S
O193 Co187 2.052 1_554 S
O193 C189 1.241 . S
O194 Co182 2.137 1_556 S
O194 C185 1.247 . S
O195 Co182 2.244 1_556 S
O195 C185 1.272 . S
O195 Co187 2.135 . S
Co196 O197 2.216 . S
Co196 O198 2.091 . S
Co196 O200 2.004 . S
Co196 O206 2.021 . S
Co196 O208 2.137 . S
Co196 O209 2.244 . S
O197 Co196 2.216 . S
O197 C204 1.247 . S
O198 Co196 2.091 . S
O198 C204 1.261 . S
C199 O208 1.247 . S
C199 O209 1.272 . S
O200 Co196 2.004 . S
O200 C205 1.259 . S
Co201 O202 2.061 . S
Co201 O207 2.052 . S
Co201 O209 2.135 . S
O202 Co201 2.061 . S
O202 C205 1.235 . S
C203 O206 1.238 . S
C203 O207 1.241 . S
C204 O197 1.247 . S
C204 O198 1.261 . S
C205 O200 1.259 . S
C205 O202 1.235 . S
O206 Co196 2.021 . S
O206 C203 1.238 . S
O207 Co201 2.052 . S
O207 C203 1.241 . S
O208 Co196 2.137 . S
O208 C199 1.247 . S
O209 Co196 2.244 . S
O209 C199 1.272 . S
O209 Co201 2.135 . S
Co210 O211 2.216 . S
Co210 O212 2.091 . S
Co210 O214 2.004 . S
Co210 O220 2.021 . S
Co210 O222 2.137 . S
Co210 O223 2.244 . S
O211 Co210 2.216 . S
O211 C218 1.247 . S
O212 Co210 2.091 . S
O212 C218 1.261 . S
C213 O222 1.247 . S
C213 O223 1.272 . S
O214 Co210 2.004 . S
O214 C219 1.259 . S
Co215 O216 2.061 . S
Co215 O221 2.052 . S
Co215 O223 2.135 . S
O216 Co215 2.061 . S
O216 C219 1.235 . S
C217 O220 1.238 . S
C217 O221 1.241 . S
C218 O211 1.247 . S
C218 O212 1.261 . S
C219 O214 1.259 . S
C219 O216 1.235 . S
O220 Co210 2.021 . S
O220 C217 1.238 . S
O221 Co215 2.052 . S
O221 C217 1.241 . S
O222 Co210 2.137 . S
O222 C213 1.247 . S
O223 Co210 2.244 . S
O223 C213 1.272 . S
O223 Co215 2.135 . S
Co224 O225 2.216 . S
Co224 O226 2.091 . S
Co224 O228 2.004 1_565 S
Co224 O234 2.021 1_565 S
Co224 O236 2.137 . S
Co224 O237 2.244 . S
O225 Co224 2.216 . S
O225 C232 1.247 . S
O226 Co224 2.091 . S
O226 C232 1.261 . S
C227 O236 1.247 . S
C227 O237 1.272 . S
O228 Co224 2.004 1_545 S
O228 C233 1.259 . S
Co229 O230 2.061 . S
Co229 O235 2.052 . S
Co229 O237 2.135 1_545 S
O230 Co229 2.061 . S
O230 C233 1.235 . S
C231 O234 1.238 . S
C231 O235 1.241 . S
C232 O225 1.247 . S
C232 O226 1.261 . S
C233 O228 1.259 . S
C233 O230 1.235 . S
O234 Co224 2.021 1_545 S
O234 C231 1.238 . S
O235 Co229 2.052 . S
O235 C231 1.241 . S
O236 Co224 2.137 . S
O236 C227 1.247 . S
O237 Co224 2.244 . S
O237 C227 1.272 . S
O237 Co229 2.135 1_565 S
Co238 O239 2.216 . S
Co238 O240 2.091 . S
Co238 O242 2.004 . S
Co238 O248 2.021 . S
Co238 O250 2.137 . S
Co238 O251 2.244 . S
O239 Co238 2.216 . S
O239 C246 1.247 . S
O240 Co238 2.091 . S
O240 C246 1.261 . S
C241 O250 1.247 . S
C241 O251 1.272 . S
O242 Co238 2.004 . S
O242 C247 1.259 . S
Co243 O244 2.061 . S
Co243 O249 2.052 . S
Co243 O251 2.135 . S
O244 Co243 2.061 . S
O244 C247 1.235 . S
C245 O248 1.238 . S
C245 O249 1.241 . S
C246 O239 1.247 . S
C246 O240 1.261 . S
C247 O242 1.259 . S
C247 O244 1.235 . S
O248 Co238 2.021 . S
O248 C245 1.238 . S
O249 Co243 2.052 . S
O249 C245 1.241 . S
O250 Co238 2.137 . S
O250 C241 1.247 . S
O251 Co238 2.244 . S
O251 C241 1.272 . S
O251 Co243 2.135 . S
Co252 O253 2.216 . S
Co252 O254 2.091 . S
Co252 O256 2.004 . S
Co252 O262 2.021 . S
Co252 O264 2.137 . S
Co252 O265 2.244 . S
O253 Co252 2.216 . S
O253 C260 1.247 . S
O254 Co252 2.091 . S
O254 C260 1.261 . S
C255 O264 1.247 . S
C255 O265 1.272 . S
O256 Co252 2.004 . S
O256 C261 1.259 . S
Co257 O258 2.061 . S
Co257 O263 2.052 . S
Co257 O265 2.135 . S
O258 Co257 2.061 . S
O258 C261 1.235 . S
C259 O262 1.238 . S
C259 O263 1.241 . S
C260 O253 1.247 . S
C260 O254 1.261 . S
C261 O256 1.259 . S
C261 O258 1.235 . S
O262 Co252 2.021 . S
O262 C259 1.238 . S
O263 Co257 2.052 . S
O263 C259 1.241 . S
O264 Co252 2.137 . S
O264 C255 1.247 . S
O265 Co252 2.244 . S
O265 C255 1.272 . S
O265 Co257 2.135 . S
Co266 O267 2.216 . S
Co266 O268 2.091 . S
Co266 O270 2.004 1_545 S
Co266 O276 2.021 1_545 S
Co266 O278 2.137 . S
Co266 O279 2.244 . S
O267 Co266 2.216 . S
O267 C274 1.247 . S
O268 Co266 2.091 . S
O268 C274 1.261 . S
C269 O278 1.247 . S
C269 O279 1.272 . S
O270 Co266 2.004 1_565 S
O270 C275 1.259 . S
Co271 O272 2.061 . S
Co271 O277 2.052 . S
Co271 O279 2.135 1_565 S
O272 Co271 2.061 . S
O272 C275 1.235 . S
C273 O276 1.238 . S
C273 O277 1.241 . S
C274 O267 1.247 . S
C274 O268 1.261 . S
C275 O270 1.259 . S
C275 O272 1.235 . S
O276 Co266 2.021 1_565 S
O276 C273 1.238 . S
O277 Co271 2.052 . S
O277 C273 1.241 . S
O278 Co266 2.137 . S
O278 C269 1.247 . S
O279 Co266 2.244 . S
O279 C269 1.272 . S
O279 Co271 2.135 1_545 S
Co280 O281 2.212 1_554 S
Co280 O282 2.089 1_554 S
Co280 O284 2.008 . S
Co280 O290 2.029 . S
Co280 O292 2.129 1_554 S
Co280 O293 2.242 1_554 S
O281 Co280 2.212 1_556 S
O281 C288 1.247 . S
O282 Co280 2.089 1_556 S
O282 C288 1.261 . S
C283 O292 1.247 . S
C283 O293 1.272 . S
O284 Co280 2.008 . S
O284 C289 1.259 . S
Co285 O286 2.061 . S
Co285 O291 2.052 . S
Co285 O293 2.135 1_554 S
O286 Co285 2.061 . S
O286 C289 1.235 . S
C287 O290 1.238 . S
C287 O291 1.241 . S
C288 O281 1.247 . S
C288 O282 1.261 . S
C289 O284 1.259 . S
C289 O286 1.235 . S
O290 Co280 2.029 . S
O290 C287 1.238 . S
O291 Co285 2.052 . S
O291 C287 1.241 . S
O292 Co280 2.129 1_556 S
O292 C283 1.247 . S
O293 Co280 2.242 1_556 S
O293 C283 1.272 . S
O293 Co285 2.135 1_556 S
Co294 O295 2.216 . S
Co294 O296 2.091 . S
Co294 O298 2.004 . S
Co294 O304 2.021 . S
Co294 O306 2.137 . S
Co294 O307 2.244 . S
O295 Co294 2.216 . S
O295 C302 1.247 . S
O296 Co294 2.091 . S
O296 C302 1.261 . S
C297 O306 1.247 . S
C297 O307 1.272 . S
O298 Co294 2.004 . S
O298 C303 1.259 . S
Co299 O300 2.061 . S
Co299 O305 2.052 . S
Co299 O307 2.135 . S
O300 Co299 2.061 . S
O300 C303 1.235 . S
C301 O304 1.238 . S
C301 O305 1.241 . S
C302 O295 1.247 . S
C302 O296 1.261 . S
C303 O298 1.259 . S
C303 O300 1.235 . S
O304 Co294 2.021 . S
O304 C301 1.238 . S
O305 Co299 2.052 . S
O305 C301 1.241 . S
O306 Co294 2.137 . S
O306 C297 1.247 . S
O307 Co294 2.244 . S
O307 C297 1.272 . S
O307 Co299 2.135 . S
Co308 O309 2.216 . S
Co308 O310 2.091 . S
Co308 O312 2.004 . S
Co308 O318 2.021 . S
Co308 O320 2.137 . S
Co308 O321 2.244 . S
O309 Co308 2.216 . S
O309 C316 1.247 . S
O310 Co308 2.091 . S
O310 C316 1.261 . S
C311 O320 1.247 . S
C311 O321 1.272 . S
O312 Co308 2.004 . S
O312 C317 1.259 . S
Co313 O314 2.061 . S
Co313 O319 2.052 . S
Co313 O321 2.135 . S
O314 Co313 2.061 . S
O314 C317 1.235 . S
C315 O318 1.238 . S
C315 O319 1.241 . S
C316 O309 1.247 . S
C316 O310 1.261 . S
C317 O312 1.259 . S
C317 O314 1.235 . S
O318 Co308 2.021 . S
O318 C315 1.238 . S
O319 Co313 2.052 . S
O319 C315 1.241 . S
O320 Co308 2.137 . S
O320 C311 1.247 . S
O321 Co308 2.244 . S
O321 C311 1.272 . S
O321 Co313 2.135 . S
Co322 O323 2.216 . S
Co322 O324 2.091 . S
Co322 O326 2.004 . S
Co322 O332 2.021 . S
Co322 O334 2.137 . S
Co322 O335 2.244 . S
O323 Co322 2.216 . S
O323 C330 1.247 . S
O324 Co322 2.091 . S
O324 C330 1.261 . S
C325 O334 1.247 . S
C325 O335 1.272 . S
O326 Co322 2.004 . S
O326 C331 1.259 . S
Co327 O328 2.061 . S
Co327 O333 2.052 . S
Co327 O335 2.135 . S
O328 Co327 2.061 . S
O328 C331 1.235 . S
C329 O332 1.238 . S
C329 O333 1.241 . S
C330 O323 1.247 . S
C330 O324 1.261 . S
C331 O326 1.259 . S
C331 O328 1.235 . S
O332 Co322 2.021 . S
O332 C329 1.238 . S
O333 Co327 2.052 . S
O333 C329 1.241 . S
O334 Co322 2.137 . S
O334 C325 1.247 . S
O335 Co322 2.244 . S
O335 C325 1.272 . S
O335 Co327 2.135 . S
H336 C354 0.951 . S
H337 C356 0.951 . S
H338 C358 0.950 . S
H339 C359 0.950 . S
H340 C361 0.950 . S
H341 C364 0.950 . S
H342 C365 0.950 . S
H343 C367 0.950 . S
H344 C368 0.950 . S
H345 C369 0.951 . S
H346 C371 0.951 . S
H347 C373 0.950 . S
H348 C374 0.950 . S
H349 C376 0.950 . S
H350 C379 0.950 . S
H351 C380 0.950 . S
H352 C382 0.950 . S
H353 C383 0.950 . S
C354 H336 0.951 . S
C354 C355 1.366 . S
C354 C356 1.388 . S
C355 C354 1.366 . S
C355 C359 1.385 . S
C356 H337 0.951 . S
C356 C354 1.388 . S
C356 C357 1.366 . S
C357 C356 1.366 . S
C357 C358 1.414 . S
C357 C360 1.499 . S
C358 H338 0.950 . S
C358 C357 1.414 . S
C358 C359 1.374 . S
C359 H339 0.950 . S
C359 C355 1.385 . S
C359 C358 1.374 . S
C360 C357 1.499 . S
C360 C361 1.373 . S
C360 C362 1.389 . S
C361 H340 0.950 . S
C361 C360 1.373 . S
C361 C377 1.377 . S
C362 C360 1.389 . S
C362 C363 1.524 . S
C362 C376 1.377 . S
C363 C362 1.524 . S
C363 C364 1.397 . S
C363 C368 1.363 . S
C364 H341 0.950 . S
C364 C363 1.397 . S
C364 C365 1.334 . S
C365 H342 0.950 . S
C365 C364 1.334 . S
C365 C366 1.287 . S
C366 C365 1.287 . S
C366 C367 1.524 . S
C366 H385 0.913 . S
C367 H343 0.950 . S
C367 C366 1.524 . S
C367 C368 1.415 . S
C368 H344 0.950 . S
C368 C363 1.363 . S
C368 C367 1.415 . S
C369 H345 0.951 . S
C369 C370 1.366 . S
C369 C371 1.388 . S
C370 C369 1.366 . S
C370 C374 1.385 . S
C371 H346 0.951 . S
C371 C369 1.388 . S
C371 C372 1.366 . S
C372 C371 1.366 . S
C372 C373 1.414 . S
C372 C375 1.499 . S
C373 H347 0.950 . S
C373 C372 1.414 . S
C373 C374 1.374 . S
C374 H348 0.950 . S
C374 C370 1.385 . S
C374 C373 1.374 . S
C375 C372 1.499 . S
C375 C376 1.373 . S
C375 C377 1.389 . S
C376 H349 0.950 . S
C376 C362 1.377 . S
C376 C375 1.373 . S
C377 C361 1.377 . S
C377 C375 1.389 . S
C377 C378 1.524 . S
C378 C377 1.524 . S
C378 C379 1.397 . S
C378 C383 1.363 . S
C379 H350 0.950 . S
C379 C378 1.397 . S
C379 C380 1.334 . S
C380 H351 0.950 . S
C380 C379 1.334 . S
C380 C381 1.287 . S
C381 C380 1.287 . S
C381 C382 1.524 . S
C381 H384 0.999 . S
C382 H352 0.950 . S
C382 C381 1.524 . S
C382 C383 1.415 . S
C383 H353 0.950 . S
C383 C378 1.363 . S
C383 C382 1.415 . S
H384 C381 0.999 . S
H385 C366 0.913 . S
H386 C404 0.951 . S
H387 C406 0.951 . S
H388 C408 0.950 . S
H389 C409 0.950 . S
H390 C411 0.950 . S
H391 C414 0.950 . S
H392 C415 0.950 . S
H393 C417 0.950 . S
H394 C418 0.950 . S
H395 C419 0.951 . S
H396 C421 0.951 . S
H397 C423 0.950 . S
H398 C424 0.950 . S
H399 C426 0.950 . S
H400 C429 0.950 . S
H401 C430 0.950 . S
H402 C432 0.950 . S
H403 C433 0.950 . S
C404 H386 0.951 . S
C404 C405 1.366 . S
C404 C406 1.388 . S
C405 C404 1.366 . S
C405 C409 1.385 . S
C406 H387 0.951 . S
C406 C404 1.388 . S
C406 C407 1.366 . S
C407 C406 1.366 . S
C407 C408 1.414 . S
C407 C410 1.499 . S
C408 H388 0.950 . S
C408 C407 1.414 . S
C408 C409 1.374 . S
C409 H389 0.950 . S
C409 C405 1.385 . S
C409 C408 1.374 . S
C410 C407 1.499 . S
C410 C411 1.373 . S
C410 C412 1.389 . S
C411 H390 0.950 . S
C411 C410 1.373 . S
C411 C427 1.377 . S
C412 C410 1.389 . S
C412 C413 1.524 . S
C412 C426 1.377 . S
C413 C412 1.524 . S
C413 C414 1.397 . S
C413 C418 1.363 . S
C414 H391 0.950 . S
C414 C413 1.397 . S
C414 C415 1.334 . S
C415 H392 0.950 . S
C415 C414 1.334 . S
C415 C416 1.287 . S
C416 C415 1.287 . S
C416 C417 1.524 . S
C416 H435 0.913 . S
C417 H393 0.950 . S
C417 C416 1.524 . S
C417 C418 1.415 . S
C418 H394 0.950 . S
C418 C413 1.363 . S
C418 C417 1.415 . S
C419 H395 0.951 . S
C419 C420 1.366 . S
C419 C421 1.388 . S
C420 C419 1.366 . S
C420 C424 1.385 . S
C421 H396 0.951 . S
C421 C419 1.388 . S
C421 C422 1.366 . S
C422 C421 1.366 . S
C422 C423 1.414 . S
C422 C425 1.499 . S
C423 H397 0.950 . S
C423 C422 1.414 . S
C423 C424 1.374 . S
C424 H398 0.950 . S
C424 C420 1.385 . S
C424 C423 1.374 . S
C425 C422 1.499 . S
C425 C426 1.373 . S
C425 C427 1.389 . S
C426 H399 0.950 . S
C426 C412 1.377 . S
C426 C425 1.373 . S
C427 C411 1.377 . S
C427 C425 1.389 . S
C427 C428 1.524 . S
C428 C427 1.524 . S
C428 C429 1.397 . S
C428 C433 1.363 . S
C429 H400 0.950 . S
C429 C428 1.397 . S
C429 C430 1.334 . S
C430 H401 0.950 . S
C430 C429 1.334 . S
C430 C431 1.287 . S
C431 C430 1.287 . S
C431 C432 1.524 . S
C431 H434 0.999 . S
C432 H402 0.950 . S
C432 C431 1.524 . S
C432 C433 1.415 . S
C433 H403 0.950 . S
C433 C428 1.363 . S
C433 C432 1.415 . S
H434 C431 0.999 . S
H435 C416 0.913 . S
H436 C454 0.951 . S
H437 C456 0.951 . S
H438 C458 0.950 . S
H439 C459 0.950 . S
H440 C461 0.950 . S
H441 C464 0.950 . S
H442 C465 0.950 . S
H443 C467 0.950 . S
H444 C468 0.950 . S
H445 C469 0.951 . S
H446 C471 0.951 . S
H447 C473 0.950 . S
H448 C474 0.950 . S
H449 C476 0.950 . S
H450 C479 0.950 . S
H451 C480 0.950 . S
H452 C482 0.950 . S
H453 C483 0.950 . S
C454 H436 0.951 . S
C454 C455 1.366 . S
C454 C456 1.388 . S
C455 C454 1.366 . S
C455 C459 1.385 . S
C456 H437 0.951 . S
C456 C454 1.388 . S
C456 C457 1.366 . S
C457 C456 1.366 . S
C457 C458 1.414 . S
C457 C460 1.499 . S
C458 H438 0.950 . S
C458 C457 1.414 . S
C458 C459 1.374 . S
C459 H439 0.950 . S
C459 C455 1.385 . S
C459 C458 1.374 . S
C460 C457 1.499 . S
C460 C461 1.373 . S
C460 C462 1.389 . S
C461 H440 0.950 . S
C461 C460 1.373 . S
C461 C477 1.377 . S
C462 C460 1.389 . S
C462 C463 1.524 . S
C462 C476 1.377 . S
C463 C462 1.524 . S
C463 C464 1.397 . S
C463 C468 1.363 . S
C464 H441 0.950 . S
C464 C463 1.397 . S
C464 C465 1.334 . S
C465 H442 0.950 . S
C465 C464 1.334 . S
C465 C466 1.287 . S
C466 C465 1.287 . S
C466 C467 1.524 . S
C466 H485 0.913 . S
C467 H443 0.950 . S
C467 C466 1.524 . S
C467 C468 1.415 . S
C468 H444 0.950 . S
C468 C463 1.363 . S
C468 C467 1.415 . S
C469 H445 0.951 . S
C469 C470 1.366 . S
C469 C471 1.388 . S
C470 C469 1.366 . S
C470 C474 1.385 . S
C471 H446 0.951 . S
C471 C469 1.388 . S
C471 C472 1.366 . S
C472 C471 1.366 . S
C472 C473 1.414 . S
C472 C475 1.499 . S
C473 H447 0.950 . S
C473 C472 1.414 . S
C473 C474 1.374 . S
C474 H448 0.950 . S
C474 C470 1.385 . S
C474 C473 1.374 . S
C475 C472 1.499 . S
C475 C476 1.373 . S
C475 C477 1.389 . S
C476 H449 0.950 . S
C476 C462 1.377 . S
C476 C475 1.373 . S
C477 C461 1.377 . S
C477 C475 1.389 . S
C477 C478 1.524 . S
C478 C477 1.524 . S
C478 C479 1.397 . S
C478 C483 1.363 . S
C479 H450 0.950 . S
C479 C478 1.397 . S
C479 C480 1.334 . S
C480 H451 0.950 . S
C480 C479 1.334 . S
C480 C481 1.287 . S
C481 C480 1.287 . S
C481 C482 1.524 . S
C481 H484 0.999 . S
C482 H452 0.950 . S
C482 C481 1.524 . S
C482 C483 1.415 . S
C483 H453 0.950 . S
C483 C478 1.363 . S
C483 C482 1.415 . S
H484 C481 0.999 . S
H485 C466 0.913 . S
H486 C504 0.951 . S
H487 C506 0.951 . S
H488 C508 0.950 . S
H489 C509 0.950 . S
H490 C511 0.950 . S
H491 C514 0.950 . S
H492 C515 0.950 . S
H493 C517 0.950 . S
H494 C518 0.950 . S
H495 C519 0.951 . S
H496 C521 0.951 . S
H497 C523 0.950 . S
H498 C524 0.950 . S
H499 C526 0.950 . S
H500 C529 0.950 . S
H501 C530 0.950 1_556 S
H502 C532 0.950 . S
H503 C533 0.950 . S
C504 H486 0.951 . S
C504 C505 1.366 . S
C504 C506 1.388 . S
C505 C504 1.366 . S
C505 C509 1.385 . S
C506 H487 0.951 . S
C506 C504 1.388 . S
C506 C507 1.366 . S
C507 C506 1.366 . S
C507 C508 1.414 . S
C507 C510 1.499 . S
C508 H488 0.950 . S
C508 C507 1.414 . S
C508 C509 1.374 . S
C509 H489 0.950 . S
C509 C505 1.385 . S
C509 C508 1.374 . S
C510 C507 1.499 . S
C510 C511 1.373 . S
C510 C512 1.389 . S
C511 H490 0.950 . S
C511 C510 1.373 . S
C511 C527 1.377 . S
C512 C510 1.389 . S
C512 C513 1.524 . S
C512 C526 1.377 . S
C513 C512 1.524 . S
C513 C514 1.397 . S
C513 C518 1.363 . S
C514 H491 0.950 . S
C514 C513 1.397 . S
C514 C515 1.334 . S
C515 H492 0.950 . S
C515 C514 1.334 . S
C515 C516 1.287 . S
C516 C515 1.287 . S
C516 C517 1.524 . S
C516 H535 0.913 . S
C517 H493 0.950 . S
C517 C516 1.524 . S
C517 C518 1.415 . S
C518 H494 0.950 . S
C518 C513 1.363 . S
C518 C517 1.415 . S
C519 H495 0.951 . S
C519 C520 1.366 . S
C519 C521 1.388 . S
C520 C519 1.366 . S
C520 C524 1.385 . S
C521 H496 0.951 . S
C521 C519 1.388 . S
C521 C522 1.366 . S
C522 C521 1.366 . S
C522 C523 1.414 . S
C522 C525 1.499 . S
C523 H497 0.950 . S
C523 C522 1.414 . S
C523 C524 1.374 . S
C524 H498 0.950 . S
C524 C520 1.385 . S
C524 C523 1.374 . S
C525 C522 1.499 . S
C525 C526 1.373 . S
C525 C527 1.389 . S
C526 H499 0.950 . S
C526 C512 1.377 . S
C526 C525 1.373 . S
C527 C511 1.377 . S
C527 C525 1.389 . S
C527 C528 1.524 . S
C528 C527 1.524 . S
C528 C529 1.397 . S
C528 C533 1.363 . S
C529 H500 0.950 . S
C529 C528 1.397 . S
C529 C530 1.334 . S
C530 H501 0.950 1_554 S
C530 C529 1.334 . S
C530 C531 1.287 1_554 S
C531 C530 1.287 1_556 S
C531 C532 1.524 . S
C531 H534 0.999 . S
C532 H502 0.950 . S
C532 C531 1.524 . S
C532 C533 1.415 1_556 S
C533 H503 0.950 . S
C533 C528 1.363 . S
C533 C532 1.415 1_554 S
H534 C531 0.999 . S
H535 C516 0.913 . S
H536 C554 0.951 . S
H537 C556 0.951 . S
H538 C558 0.950 . S
H539 C559 0.950 . S
H540 C561 0.950 . S
H541 C564 0.950 . S
H542 C565 0.950 . S
H543 C567 0.950 . S
H544 C568 0.950 . S
H545 C569 0.951 . S
H546 C571 0.951 . S
H547 C573 0.950 . S
H548 C574 0.950 . S
H549 C576 0.950 . S
H550 C579 0.950 . S
H551 C580 0.950 . S
H552 C582 0.950 . S
H553 C583 0.950 . S
C554 H536 0.951 . S
C554 C555 1.366 . S
C554 C556 1.388 . S
C555 C554 1.366 . S
C555 C559 1.385 . S
C556 H537 0.951 . S
C556 C554 1.388 . S
C556 C557 1.366 . S
C557 C556 1.366 . S
C557 C558 1.414 . S
C557 C560 1.499 . S
C558 H538 0.950 . S
C558 C557 1.414 . S
C558 C559 1.374 . S
C559 H539 0.950 . S
C559 C555 1.385 . S
C559 C558 1.374 . S
C560 C557 1.499 . S
C560 C561 1.373 . S
C560 C562 1.389 . S
C561 H540 0.950 . S
C561 C560 1.373 . S
C561 C577 1.377 . S
C562 C560 1.389 . S
C562 C563 1.524 . S
C562 C576 1.377 . S
C563 C562 1.524 . S
C563 C564 1.397 . S
C563 C568 1.363 . S
C564 H541 0.950 . S
C564 C563 1.397 . S
C564 C565 1.334 . S
C565 H542 0.950 . S
C565 C564 1.334 . S
C565 C566 1.287 . S
C566 C565 1.287 . S
C566 C567 1.524 . S
C566 H585 0.913 . S
C567 H543 0.950 . S
C567 C566 1.524 . S
C567 C568 1.415 . S
C568 H544 0.950 . S
C568 C563 1.363 . S
C568 C567 1.415 . S
C569 H545 0.951 . S
C569 C570 1.366 . S
C569 C571 1.388 . S
C570 C569 1.366 . S
C570 C574 1.385 . S
C571 H546 0.951 . S
C571 C569 1.388 . S
C571 C572 1.366 . S
C572 C571 1.366 . S
C572 C573 1.414 . S
C572 C575 1.499 . S
C573 H547 0.950 . S
C573 C572 1.414 . S
C573 C574 1.374 . S
C574 H548 0.950 . S
C574 C570 1.385 . S
C574 C573 1.374 . S
C575 C572 1.499 . S
C575 C576 1.373 . S
C575 C577 1.389 . S
C576 H549 0.950 . S
C576 C562 1.377 . S
C576 C575 1.373 . S
C577 C561 1.377 . S
C577 C575 1.389 . S
C577 C578 1.524 . S
C578 C577 1.524 . S
C578 C579 1.397 . S
C578 C583 1.363 . S
C579 H550 0.950 . S
C579 C578 1.397 . S
C579 C580 1.334 . S
C580 H551 0.950 . S
C580 C579 1.334 . S
C580 C581 1.287 . S
C581 C580 1.287 . S
C581 C582 1.524 . S
C581 H584 0.999 . S
C582 H552 0.950 . S
C582 C581 1.524 . S
C582 C583 1.415 . S
C583 H553 0.950 . S
C583 C578 1.363 . S
C583 C582 1.415 . S
H584 C581 0.999 . S
H585 C566 0.913 . S
H586 C604 0.951 . S
H587 C606 0.951 . S
H588 C608 0.950 . S
H589 C609 0.950 . S
H590 C611 0.950 . S
H591 C614 0.950 . S
H592 C615 0.950 . S
H593 C617 0.950 . S
H594 C618 0.950 . S
H595 C619 0.951 . S
H596 C621 0.951 . S
H597 C623 0.950 . S
H598 C624 0.950 . S
H599 C626 0.950 . S
H600 C629 0.950 . S
H601 C630 0.950 . S
H602 C632 0.950 . S
H603 C633 0.950 . S
C604 H586 0.951 . S
C604 C605 1.366 . S
C604 C606 1.388 . S
C605 C604 1.366 . S
C605 C609 1.385 . S
C606 H587 0.951 . S
C606 C604 1.388 . S
C606 C607 1.366 . S
C607 C606 1.366 . S
C607 C608 1.414 . S
C607 C610 1.499 . S
C608 H588 0.950 . S
C608 C607 1.414 . S
C608 C609 1.374 . S
C609 H589 0.950 . S
C609 C605 1.385 . S
C609 C608 1.374 . S
C610 C607 1.499 . S
C610 C611 1.373 . S
C610 C612 1.389 . S
C611 H590 0.950 . S
C611 C610 1.373 . S
C611 C627 1.377 . S
C612 C610 1.389 . S
C612 C613 1.524 . S
C612 C626 1.377 . S
C613 C612 1.524 . S
C613 C614 1.397 . S
C613 C618 1.363 . S
C614 H591 0.950 . S
C614 C613 1.397 . S
C614 C615 1.334 . S
C615 H592 0.950 . S
C615 C614 1.334 . S
C615 C616 1.287 . S
C616 C615 1.287 . S
C616 C617 1.524 . S
C616 H635 0.913 . S
C617 H593 0.950 . S
C617 C616 1.524 . S
C617 C618 1.415 . S
C618 H594 0.950 . S
C618 C613 1.363 . S
C618 C617 1.415 . S
C619 H595 0.951 . S
C619 C620 1.366 . S
C619 C621 1.388 . S
C620 C619 1.366 . S
C620 C624 1.385 . S
C621 H596 0.951 . S
C621 C619 1.388 . S
C621 C622 1.366 . S
C622 C621 1.366 . S
C622 C623 1.414 . S
C622 C625 1.499 . S
C623 H597 0.950 . S
C623 C622 1.414 . S
C623 C624 1.374 . S
C624 H598 0.950 . S
C624 C620 1.385 . S
C624 C623 1.374 . S
C625 C622 1.499 . S
C625 C626 1.373 . S
C625 C627 1.389 . S
C626 H599 0.950 . S
C626 C612 1.377 . S
C626 C625 1.373 . S
C627 C611 1.377 . S
C627 C625 1.389 . S
C627 C628 1.524 . S
C628 C627 1.524 . S
C628 C629 1.397 . S
C628 C633 1.363 . S
C629 H600 0.950 . S
C629 C628 1.397 . S
C629 C630 1.334 . S
C630 H601 0.950 . S
C630 C629 1.334 . S
C630 C631 1.287 . S
C631 C630 1.287 . S
C631 C632 1.524 . S
C631 H634 0.999 . S
C632 H602 0.950 . S
C632 C631 1.524 . S
C632 C633 1.415 . S
C633 H603 0.950 . S
C633 C628 1.363 . S
C633 C632 1.415 . S
H634 C631 0.999 . S
H635 C616 0.913 . S
H636 C654 0.951 . S
H637 C656 0.951 . S
H638 C658 0.950 . S
H639 C659 0.950 . S
H640 C661 0.950 . S
H641 C664 0.950 . S
H642 C665 0.950 . S
H643 C667 0.950 . S
H644 C668 0.950 . S
H645 C669 0.951 . S
H646 C671 0.951 . S
H647 C673 0.950 . S
H648 C674 0.950 . S
H649 C676 0.950 . S
H650 C679 0.950 . S
H651 C680 0.950 . S
H652 C682 0.950 . S
H653 C683 0.950 . S
C654 H636 0.951 . S
C654 C655 1.366 . S
C654 C656 1.388 . S
C655 C654 1.366 . S
C655 C659 1.385 . S
C656 H637 0.951 . S
C656 C654 1.388 . S
C656 C657 1.366 . S
C657 C656 1.366 . S
C657 C658 1.414 . S
C657 C660 1.499 . S
C658 H638 0.950 . S
C658 C657 1.414 . S
C658 C659 1.374 . S
C659 H639 0.950 . S
C659 C655 1.385 . S
C659 C658 1.374 . S
C660 C657 1.499 . S
C660 C661 1.373 . S
C660 C662 1.389 . S
C661 H640 0.950 . S
C661 C660 1.373 . S
C661 C677 1.377 . S
C662 C660 1.389 . S
C662 C663 1.524 . S
C662 C676 1.377 . S
C663 C662 1.524 . S
C663 C664 1.397 . S
C663 C668 1.363 . S
C664 H641 0.950 . S
C664 C663 1.397 . S
C664 C665 1.334 . S
C665 H642 0.950 . S
C665 C664 1.334 . S
C665 C666 1.287 . S
C666 C665 1.287 . S
C666 C667 1.524 . S
C666 H685 0.913 . S
C667 H643 0.950 . S
C667 C666 1.524 . S
C667 C668 1.415 . S
C668 H644 0.950 . S
C668 C663 1.363 . S
C668 C667 1.415 . S
C669 H645 0.951 . S
C669 C670 1.366 . S
C669 C671 1.388 . S
C670 C669 1.366 . S
C670 C674 1.385 . S
C671 H646 0.951 . S
C671 C669 1.388 . S
C671 C672 1.366 . S
C672 C671 1.366 . S
C672 C673 1.414 . S
C672 C675 1.499 . S
C673 H647 0.950 . S
C673 C672 1.414 . S
C673 C674 1.374 . S
C674 H648 0.950 . S
C674 C670 1.385 . S
C674 C673 1.374 . S
C675 C672 1.499 . S
C675 C676 1.373 . S
C675 C677 1.389 . S
C676 H649 0.950 . S
C676 C662 1.377 . S
C676 C675 1.373 . S
C677 C661 1.377 . S
C677 C675 1.389 . S
C677 C678 1.524 . S
C678 C677 1.524 . S
C678 C679 1.397 . S
C678 C683 1.363 . S
C679 H650 0.950 . S
C679 C678 1.397 . S
C679 C680 1.334 . S
C680 H651 0.950 . S
C680 C679 1.334 . S
C680 C681 1.287 . S
C681 C680 1.287 . S
C681 C682 1.524 . S
C681 H684 0.999 . S
C682 H652 0.950 . S
C682 C681 1.524 . S
C682 C683 1.415 . S
C683 H653 0.950 . S
C683 C678 1.363 . S
C683 C682 1.415 . S
H684 C681 0.999 . S
H685 C666 0.913 . S
H686 C704 0.951 . S
H687 C706 0.951 . S
H688 C708 0.950 . S
H689 C709 0.950 . S
H690 C711 0.950 . S
H691 C714 0.950 . S
H692 C715 0.950 . S
H693 C717 0.950 . S
H694 C718 0.950 . S
H695 C719 0.951 . S
H696 C721 0.951 . S
H697 C723 0.950 . S
H698 C724 0.950 1_554 S
H699 C726 0.950 . S
H700 C729 0.950 . S
H701 C730 0.950 . S
H702 C732 0.950 . S
H703 C733 0.950 . S
C704 H686 0.951 . S
C704 C705 1.366 . S
C704 C706 1.388 . S
C705 C704 1.366 . S
C705 C709 1.385 . S
C706 H687 0.951 . S
C706 C704 1.388 . S
C706 C707 1.366 . S
C707 C706 1.366 . S
C707 C708 1.414 . S
C707 C710 1.499 . S
C708 H688 0.950 . S
C708 C707 1.414 . S
C708 C709 1.374 . S
C709 H689 0.950 . S
C709 C705 1.385 . S
C709 C708 1.374 . S
C710 C707 1.499 . S
C710 C711 1.373 . S
C710 C712 1.389 . S
C711 H690 0.950 . S
C711 C710 1.373 . S
C711 C727 1.377 . S
C712 C710 1.389 . S
C712 C713 1.524 . S
C712 C726 1.377 . S
C713 C712 1.524 . S
C713 C714 1.397 . S
C713 C718 1.363 . S
C714 H691 0.950 . S
C714 C713 1.397 . S
C714 C715 1.334 . S
C715 H692 0.950 . S
C715 C714 1.334 . S
C715 C716 1.287 . S
C716 C715 1.287 . S
C716 C717 1.524 . S
C716 H735 0.913 . S
C717 H693 0.950 . S
C717 C716 1.524 . S
C717 C718 1.415 . S
C718 H694 0.950 . S
C718 C713 1.363 . S
C718 C717 1.415 . S
C719 H695 0.951 . S
C719 C720 1.366 . S
C719 C721 1.388 . S
C720 C719 1.366 . S
C720 C724 1.385 . S
C721 H696 0.951 . S
C721 C719 1.388 . S
C721 C722 1.366 . S
C722 C721 1.366 . S
C722 C723 1.414 . S
C722 C725 1.499 . S
C723 H697 0.950 . S
C723 C722 1.414 . S
C723 C724 1.374 . S
C724 H698 0.950 1_556 S
C724 C720 1.385 . S
C724 C723 1.374 . S
C725 C722 1.499 . S
C725 C726 1.373 . S
C725 C727 1.389 . S
C726 H699 0.950 . S
C726 C712 1.377 . S
C726 C725 1.373 . S
C727 C711 1.377 . S
C727 C725 1.389 . S
C727 C728 1.524 . S
C728 C727 1.524 . S
C728 C729 1.397 . S
C728 C733 1.363 . S
C729 H700 0.950 . S
C729 C728 1.397 . S
C729 C730 1.334 . S
C730 H701 0.950 . S
C730 C729 1.334 . S
C730 C731 1.287 . S
C731 C730 1.287 . S
C731 C732 1.524 . S
C731 H734 0.999 . S
C732 H702 0.950 . S
C732 C731 1.524 . S
C732 C733 1.415 . S
C733 H703 0.950 . S
C733 C728 1.363 . S
C733 C732 1.415 . S
H734 C731 0.999 . S
H735 C716 0.913 . S
H736 C754 0.951 . S
H737 C756 0.951 . S
H738 C758 0.950 . S
H739 C759 0.950 . S
H740 C761 0.950 . S
H741 C764 0.950 . S
H742 C765 0.950 . S
H743 C767 0.950 . S
H744 C768 0.950 . S
H745 C769 0.951 . S
H746 C771 0.951 . S
H747 C773 0.950 . S
H748 C774 0.950 . S
H749 C776 0.950 . S
H750 C779 0.950 . S
H751 C780 0.950 . S
H752 C782 0.950 . S
H753 C783 0.950 . S
C754 H736 0.951 . S
C754 C755 1.366 . S
C754 C756 1.388 . S
C755 C754 1.366 . S
C755 C759 1.385 . S
C756 H737 0.951 . S
C756 C754 1.388 . S
C756 C757 1.366 . S
C757 C756 1.366 . S
C757 C758 1.414 . S
C757 C760 1.499 . S
C758 H738 0.950 . S
C758 C757 1.414 . S
C758 C759 1.374 . S
C759 H739 0.950 . S
C759 C755 1.385 . S
C759 C758 1.374 . S
C760 C757 1.499 . S
C760 C761 1.373 . S
C760 C762 1.389 . S
C761 H740 0.950 . S
C761 C760 1.373 . S
C761 C777 1.377 . S
C762 C760 1.389 . S
C762 C763 1.524 . S
C762 C776 1.377 . S
C763 C762 1.524 . S
C763 C764 1.397 . S
C763 C768 1.363 . S
C764 H741 0.950 . S
C764 C763 1.397 . S
C764 C765 1.334 . S
C765 H742 0.950 . S
C765 C764 1.334 . S
C765 C766 1.287 . S
C766 C765 1.287 . S
C766 C767 1.524 . S
C766 H785 0.913 . S
C767 H743 0.950 . S
C767 C766 1.524 . S
C767 C768 1.415 . S
C768 H744 0.950 . S
C768 C763 1.363 . S
C768 C767 1.415 . S
C769 H745 0.951 . S
C769 C770 1.366 . S
C769 C771 1.388 . S
C770 C769 1.366 . S
C770 C774 1.385 . S
C771 H746 0.951 . S
C771 C769 1.388 . S
C771 C772 1.366 . S
C772 C771 1.366 . S
C772 C773 1.414 . S
C772 C775 1.499 . S
C773 H747 0.950 . S
C773 C772 1.414 . S
C773 C774 1.374 . S
C774 H748 0.950 . S
C774 C770 1.385 . S
C774 C773 1.374 . S
C775 C772 1.499 . S
C775 C776 1.373 . S
C775 C777 1.389 . S
C776 H749 0.950 . S
C776 C762 1.377 . S
C776 C775 1.373 . S
C777 C761 1.377 . S
C777 C775 1.389 . S
C777 C778 1.524 . S
C778 C777 1.524 . S
C778 C779 1.397 . S
C778 C783 1.363 . S
C779 H750 0.950 . S
C779 C778 1.397 . S
C779 C780 1.334 . S
C780 H751 0.950 . S
C780 C779 1.334 . S
C780 C781 1.287 . S
C781 C780 1.287 . S
C781 C782 1.524 . S
C781 H784 0.999 . S
C782 H752 0.950 . S
C782 C781 1.524 . S
C782 C783 1.415 . S
C783 H753 0.950 . S
C783 C778 1.363 . S
C783 C782 1.415 . S
H784 C781 0.999 . S
H785 C766 0.913 . S
H786 C804 0.951 . S
H787 C806 0.951 . S
H788 C808 0.950 . S
H789 C809 0.950 . S
H790 C811 0.950 . S
H791 C814 0.950 . S
H792 C815 0.950 . S
H793 C817 0.950 1_565 S
H794 C818 0.950 . S
H795 C819 0.951 . S
H796 C821 0.951 . S
H797 C823 0.950 . S
H798 C824 0.950 . S
H799 C826 0.950 . S
H800 C829 0.950 . S
H801 C830 0.950 . S
H802 C832 0.950 . S
H803 C833 0.950 . S
C804 H786 0.951 . S
C804 C805 1.366 . S
C804 C806 1.388 . S
C805 C804 1.366 . S
C805 C809 1.385 . S
C806 H787 0.951 . S
C806 C804 1.388 . S
C806 C807 1.366 . S
C807 C806 1.366 . S
C807 C808 1.414 . S
C807 C810 1.499 . S
C808 H788 0.950 . S
C808 C807 1.414 . S
C808 C809 1.374 . S
C809 H789 0.950 . S
C809 C805 1.385 . S
C809 C808 1.374 . S
C810 C807 1.499 . S
C810 C811 1.373 . S
C810 C812 1.389 . S
C811 H790 0.950 . S
C811 C810 1.373 . S
C811 C827 1.377 . S
C812 C810 1.389 . S
C812 C813 1.524 . S
C812 C826 1.377 . S
C813 C812 1.524 . S
C813 C814 1.397 . S
C813 C818 1.363 . S
C814 H791 0.950 . S
C814 C813 1.397 . S
C814 C815 1.334 . S
C815 H792 0.950 . S
C815 C814 1.334 . S
C815 C816 1.287 . S
C816 C815 1.287 . S
C816 C817 1.524 . S
C816 H835 0.913 . S
C817 H793 0.950 1_545 S
C817 C816 1.524 . S
C817 C818 1.415 . S
C818 H794 0.950 . S
C818 C813 1.363 . S
C818 C817 1.415 . S
C819 H795 0.951 . S
C819 C820 1.366 . S
C819 C821 1.388 . S
C820 C819 1.366 . S
C820 C824 1.385 . S
C821 H796 0.951 . S
C821 C819 1.388 . S
C821 C822 1.366 . S
C822 C821 1.366 . S
C822 C823 1.414 . S
C822 C825 1.499 . S
C823 H797 0.950 . S
C823 C822 1.414 . S
C823 C824 1.374 . S
C824 H798 0.950 . S
C824 C820 1.385 . S
C824 C823 1.374 . S
C825 C822 1.499 . S
C825 C826 1.373 . S
C825 C827 1.389 . S
C826 H799 0.950 . S
C826 C812 1.377 . S
C826 C825 1.373 . S
C827 C811 1.377 . S
C827 C825 1.389 . S
C827 C828 1.524 . S
C828 C827 1.524 . S
C828 C829 1.397 . S
C828 C833 1.363 . S
C829 H800 0.950 . S
C829 C828 1.397 . S
C829 C830 1.334 . S
C830 H801 0.950 . S
C830 C829 1.334 . S
C830 C831 1.287 . S
C831 C830 1.287 . S
C831 C832 1.524 . S
C831 H834 0.999 . S
C832 H802 0.950 . S
C832 C831 1.524 . S
C832 C833 1.415 . S
C833 H803 0.950 . S
C833 C828 1.363 . S
C833 C832 1.415 . S
H834 C831 0.999 . S
H835 C816 0.913 . S
H836 C854 0.951 . S
H837 C856 0.951 . S
H838 C858 0.950 . S
H839 C859 0.950 . S
H840 C861 0.950 . S
H841 C864 0.950 . S
H842 C865 0.950 . S
H843 C867 0.950 . S
H844 C868 0.950 . S
H845 C869 0.951 . S
H846 C871 0.951 . S
H847 C873 0.950 . S
H848 C874 0.950 . S
H849 C876 0.950 . S
H850 C879 0.950 . S
H851 C880 0.950 . S
H852 C882 0.950 . S
H853 C883 0.950 . S
C854 H836 0.951 . S
C854 C855 1.366 . S
C854 C856 1.388 . S
C855 C854 1.366 . S
C855 C859 1.385 . S
C856 H837 0.951 . S
C856 C854 1.388 . S
C856 C857 1.366 . S
C857 C856 1.366 . S
C857 C858 1.414 . S
C857 C860 1.499 . S
C858 H838 0.950 . S
C858 C857 1.414 . S
C858 C859 1.374 . S
C859 H839 0.950 . S
C859 C855 1.385 . S
C859 C858 1.374 . S
C860 C857 1.499 . S
C860 C861 1.373 . S
C860 C862 1.389 . S
C861 H840 0.950 . S
C861 C860 1.373 . S
C861 C877 1.377 . S
C862 C860 1.389 . S
C862 C863 1.524 . S
C862 C876 1.377 . S
C863 C862 1.524 . S
C863 C864 1.397 . S
C863 C868 1.363 . S
C864 H841 0.950 . S
C864 C863 1.397 . S
C864 C865 1.334 1_565 S
C865 H842 0.950 . S
C865 C864 1.334 1_545 S
C865 C866 1.287 . S
C866 C865 1.287 . S
C866 C867 1.524 1_545 S
C866 H885 0.913 . S
C867 H843 0.950 . S
C867 C866 1.524 1_565 S
C867 C868 1.415 . S
C868 H844 0.950 . S
C868 C863 1.363 . S
C868 C867 1.415 . S
C869 H845 0.951 . S
C869 C870 1.366 . S
C869 C871 1.388 . S
C870 C869 1.366 . S
C870 C874 1.385 . S
C871 H846 0.951 . S
C871 C869 1.388 . S
C871 C872 1.366 . S
C872 C871 1.366 . S
C872 C873 1.414 . S
C872 C875 1.499 . S
C873 H847 0.950 . S
C873 C872 1.414 . S
C873 C874 1.374 . S
C874 H848 0.950 . S
C874 C870 1.385 . S
C874 C873 1.374 . S
C875 C872 1.499 . S
C875 C876 1.373 . S
C875 C877 1.389 . S
C876 H849 0.950 . S
C876 C862 1.377 . S
C876 C875 1.373 . S
C877 C861 1.377 . S
C877 C875 1.389 . S
C877 C878 1.524 . S
C878 C877 1.524 . S
C878 C879 1.397 . S
C878 C883 1.363 . S
C879 H850 0.950 . S
C879 C878 1.397 . S
C879 C880 1.334 . S
C880 H851 0.950 . S
C880 C879 1.334 . S
C880 C881 1.287 . S
C881 C880 1.287 . S
C881 C882 1.524 . S
C881 H884 0.999 . S
C882 H852 0.950 . S
C882 C881 1.524 . S
C882 C883 1.415 . S
C883 H853 0.950 . S
C883 C878 1.363 . S
C883 C882 1.415 . S
H884 C881 0.999 . S
H885 C866 0.913 . S
H886 C904 0.951 . S
H887 C906 0.951 . S
H888 C908 0.950 . S
H889 C909 0.950 . S
H890 C911 0.950 . S
H891 C914 0.950 . S
H892 C915 0.950 . S
H893 C917 0.950 . S
H894 C918 0.950 . S
H895 C919 0.951 . S
H896 C921 0.951 . S
H897 C923 0.950 . S
H898 C924 0.950 . S
H899 C926 0.950 . S
H900 C929 0.950 . S
H901 C930 0.950 . S
H902 C932 0.950 . S
H903 C933 0.950 . S
C904 H886 0.951 . S
C904 C905 1.366 . S
C904 C906 1.388 . S
C905 C904 1.366 . S
C905 C909 1.385 . S
C906 H887 0.951 . S
C906 C904 1.388 . S
C906 C907 1.366 . S
C907 C906 1.366 . S
C907 C908 1.414 . S
C907 C910 1.499 . S
C908 H888 0.950 . S
C908 C907 1.414 . S
C908 C909 1.374 . S
C909 H889 0.950 . S
C909 C905 1.385 . S
C909 C908 1.374 . S
C910 C907 1.499 . S
C910 C911 1.373 . S
C910 C912 1.389 . S
C911 H890 0.950 . S
C911 C910 1.373 . S
C911 C927 1.377 . S
C912 C910 1.389 . S
C912 C913 1.524 . S
C912 C926 1.377 . S
C913 C912 1.524 . S
C913 C914 1.397 . S
C913 C918 1.363 . S
C914 H891 0.950 . S
C914 C913 1.397 . S
C914 C915 1.334 . S
C915 H892 0.950 . S
C915 C914 1.334 . S
C915 C916 1.287 . S
C916 C915 1.287 . S
C916 C917 1.524 . S
C916 H935 0.913 . S
C917 H893 0.950 . S
C917 C916 1.524 . S
C917 C918 1.415 . S
C918 H894 0.950 . S
C918 C913 1.363 . S
C918 C917 1.415 . S
C919 H895 0.951 . S
C919 C920 1.366 . S
C919 C921 1.388 . S
C920 C919 1.366 . S
C920 C924 1.385 . S
C921 H896 0.951 . S
C921 C919 1.388 . S
C921 C922 1.366 . S
C922 C921 1.366 . S
C922 C923 1.414 . S
C922 C925 1.499 . S
C923 H897 0.950 . S
C923 C922 1.414 . S
C923 C924 1.374 . S
C924 H898 0.950 . S
C924 C920 1.385 . S
C924 C923 1.374 . S
C925 C922 1.499 . S
C925 C926 1.373 . S
C925 C927 1.389 . S
C926 H899 0.950 . S
C926 C912 1.377 . S
C926 C925 1.373 . S
C927 C911 1.377 . S
C927 C925 1.389 . S
C927 C928 1.524 . S
C928 C927 1.524 . S
C928 C929 1.397 . S
C928 C933 1.363 . S
C929 H900 0.950 . S
C929 C928 1.397 . S
C929 C930 1.334 1_565 S
C930 H901 0.950 . S
C930 C929 1.334 1_545 S
C930 C931 1.297 . S
C931 C930 1.297 . S
C931 C932 1.485 1_545 S
C931 H934 1.029 . S
C932 H902 0.950 . S
C932 C931 1.485 1_565 S
C932 C933 1.415 . S
C933 H903 0.950 . S
C933 C928 1.363 . S
C933 C932 1.415 . S
H934 C931 1.029 . S
H935 C916 0.913 . S
H936 C954 0.951 . S
H937 C956 0.951 . S
H938 C958 0.950 . S
H939 C959 0.950 . S
H940 C961 0.950 . S
H941 C964 0.950 . S
H942 C965 0.950 . S
H943 C967 0.950 . S
H944 C968 0.950 . S
H945 C969 0.951 . S
H946 C971 0.951 . S
H947 C973 0.950 . S
H948 C974 0.950 . S
H949 C976 0.950 . S
H950 C979 0.950 . S
H951 C980 0.950 . S
H952 C982 0.950 . S
H953 C983 0.950 . S
C954 H936 0.951 . S
C954 C955 1.366 . S
C954 C956 1.388 . S
C955 C954 1.366 . S
C955 C959 1.385 . S
C956 H937 0.951 . S
C956 C954 1.388 . S
C956 C957 1.366 . S
C957 C956 1.366 . S
C957 C958 1.414 . S
C957 C960 1.499 . S
C958 H938 0.950 . S
C958 C957 1.414 . S
C958 C959 1.374 . S
C959 H939 0.950 . S
C959 C955 1.385 . S
C959 C958 1.374 . S
C960 C957 1.499 . S
C960 C961 1.373 . S
C960 C962 1.389 . S
C961 H940 0.950 . S
C961 C960 1.373 . S
C961 C977 1.377 . S
C962 C960 1.389 . S
C962 C963 1.524 . S
C962 C976 1.377 . S
C963 C962 1.524 . S
C963 C964 1.397 . S
C963 C968 1.363 . S
C964 H941 0.950 . S
C964 C963 1.397 . S
C964 C965 1.334 . S
C965 H942 0.950 . S
C965 C964 1.334 . S
C965 C966 1.287 . S
C966 C965 1.287 . S
C966 C967 1.524 . S
C966 H985 0.913 . S
C967 H943 0.950 . S
C967 C966 1.524 . S
C967 C968 1.415 . S
C968 H944 0.950 . S
C968 C963 1.363 . S
C968 C967 1.415 . S
C969 H945 0.951 . S
C969 C970 1.366 . S
C969 C971 1.388 . S
C970 C969 1.366 . S
C970 C974 1.385 . S
C971 H946 0.951 . S
C971 C969 1.388 . S
C971 C972 1.366 . S
C972 C971 1.366 . S
C972 C973 1.414 . S
C972 C975 1.499 . S
C973 H947 0.950 . S
C973 C972 1.414 . S
C973 C974 1.374 . S
C974 H948 0.950 . S
C974 C970 1.385 . S
C974 C973 1.374 . S
C975 C972 1.499 . S
C975 C976 1.373 . S
C975 C977 1.389 . S
C976 H949 0.950 . S
C976 C962 1.377 . S
C976 C975 1.373 . S
C977 C961 1.377 . S
C977 C975 1.389 . S
C977 C978 1.524 . S
C978 C977 1.524 . S
C978 C979 1.397 . S
C978 C983 1.363 . S
C979 H950 0.950 . S
C979 C978 1.397 . S
C979 C980 1.334 . S
C980 H951 0.950 . S
C980 C979 1.334 . S
C980 C981 1.287 . S
C981 C980 1.287 . S
C981 C982 1.524 . S
C981 H984 0.999 . S
C982 H952 0.950 . S
C982 C981 1.524 . S
C982 C983 1.415 . S
C983 H953 0.950 . S
C983 C978 1.363 . S
C983 C982 1.415 . S
H984 C981 0.999 . S
H985 C966 0.913 . S
H986 C1004 0.951 1_455 S
H987 C1006 0.951 . S
H988 C1008 0.950 . S
H989 C1009 0.950 . S
H990 C1011 0.950 . S
H991 C1014 0.950 . S
H992 C1015 0.950 . S
H993 C1017 0.950 . S
H994 C1018 0.950 . S
H995 C1019 0.951 . S
H996 C1021 0.951 . S
H997 C1023 0.950 . S
H998 C1024 0.950 . S
H999 C1026 0.950 . S
H1000 C1029 0.950 . S
H1001 C1030 0.950 . S
H1002 C1032 0.950 . S
H1003 C1033 0.950 . S
C1004 H986 0.951 1_655 S
C1004 C1005 1.366 . S
C1004 C1006 1.388 . S
C1005 C1004 1.366 . S
C1005 C1009 1.385 . S
C1006 H987 0.951 . S
C1006 C1004 1.388 . S
C1006 C1007 1.366 . S
C1007 C1006 1.366 . S
C1007 C1008 1.414 . S
C1007 C1010 1.499 . S
C1008 H988 0.950 . S
C1008 C1007 1.414 . S
C1008 C1009 1.374 . S
C1009 H989 0.950 . S
C1009 C1005 1.385 . S
C1009 C1008 1.374 . S
C1010 C1007 1.499 . S
C1010 C1011 1.373 . S
C1010 C1012 1.389 . S
C1011 H990 0.950 . S
C1011 C1010 1.373 . S
C1011 C1027 1.377 . S
C1012 C1010 1.389 . S
C1012 C1013 1.524 . S
C1012 C1026 1.377 . S
C1013 C1012 1.524 . S
C1013 C1014 1.397 . S
C1013 C1018 1.363 . S
C1014 H991 0.950 . S
C1014 C1013 1.397 . S
C1014 C1015 1.334 . S
C1015 H992 0.950 . S
C1015 C1014 1.334 . S
C1015 C1016 1.287 . S
C1016 C1015 1.287 . S
C1016 C1017 1.524 1_655 S
C1016 H1035 0.913 1_655 S
C1017 H993 0.950 . S
C1017 C1016 1.524 1_455 S
C1017 C1018 1.415 1_455 S
C1018 H994 0.950 . S
C1018 C1013 1.363 . S
C1018 C1017 1.415 1_655 S
C1019 H995 0.951 . S
C1019 C1020 1.366 . S
C1019 C1021 1.388 . S
C1020 C1019 1.366 . S
C1020 C1024 1.385 . S
C1021 H996 0.951 . S
C1021 C1019 1.388 . S
C1021 C1022 1.366 . S
C1022 C1021 1.366 . S
C1022 C1023 1.414 . S
C1022 C1025 1.499 . S
C1023 H997 0.950 . S
C1023 C1022 1.414 . S
C1023 C1024 1.374 . S
C1024 H998 0.950 . S
C1024 C1020 1.385 . S
C1024 C1023 1.374 . S
C1025 C1022 1.499 . S
C1025 C1026 1.373 . S
C1025 C1027 1.389 . S
C1026 H999 0.950 . S
C1026 C1012 1.377 . S
C1026 C1025 1.373 . S
C1027 C1011 1.377 . S
C1027 C1025 1.389 . S
C1027 C1028 1.524 . S
C1028 C1027 1.524 . S
C1028 C1029 1.397 . S
C1028 C1033 1.363 . S
C1029 H1000 0.950 . S
C1029 C1028 1.397 . S
C1029 C1030 1.334 . S
C1030 H1001 0.950 . S
C1030 C1029 1.334 . S
C1030 C1031 1.287 . S
C1031 C1030 1.287 . S
C1031 C1032 1.524 . S
C1031 H1034 0.999 . S
C1032 H1002 0.950 . S
C1032 C1031 1.524 . S
C1032 C1033 1.415 . S
C1033 H1003 0.950 . S
C1033 C1028 1.363 . S
C1033 C1032 1.415 . S
H1034 C1031 0.999 . S
H1035 C1016 0.913 1_455 S
H1036 C1054 0.951 . S
H1037 C1056 0.951 . S
H1038 C1058 0.950 . S
H1039 C1059 0.950 . S
H1040 C1061 0.950 . S
H1041 C1064 0.950 . S
H1042 C1065 0.950 . S
H1043 C1067 0.950 . S
H1044 C1068 0.950 . S
H1045 C1069 0.951 . S
H1046 C1071 0.951 . S
H1047 C1073 0.950 . S
H1048 C1074 0.950 . S
H1049 C1076 0.950 . S
H1050 C1079 0.950 . S
H1051 C1080 0.950 . S
H1052 C1082 0.950 . S
H1053 C1083 0.950 . S
C1054 H1036 0.951 . S
C1054 C1055 1.366 . S
C1054 C1056 1.388 . S
C1055 C1054 1.366 . S
C1055 C1059 1.385 . S
C1056 H1037 0.951 . S
C1056 C1054 1.388 . S
C1056 C1057 1.366 . S
C1057 C1056 1.366 . S
C1057 C1058 1.414 . S
C1057 C1060 1.499 . S
C1058 H1038 0.950 . S
C1058 C1057 1.414 . S
C1058 C1059 1.374 . S
C1059 H1039 0.950 . S
C1059 C1055 1.385 . S
C1059 C1058 1.374 . S
C1060 C1057 1.499 . S
C1060 C1061 1.373 . S
C1060 C1062 1.389 . S
C1061 H1040 0.950 . S
C1061 C1060 1.373 . S
C1061 C1077 1.377 . S
C1062 C1060 1.389 . S
C1062 C1063 1.524 . S
C1062 C1076 1.377 . S
C1063 C1062 1.524 . S
C1063 C1064 1.397 . S
C1063 C1068 1.363 . S
C1064 H1041 0.950 . S
C1064 C1063 1.397 . S
C1064 C1065 1.334 . S
C1065 H1042 0.950 . S
C1065 C1064 1.334 . S
C1065 C1066 1.287 . S
C1066 C1065 1.287 . S
C1066 C1067 1.524 . S
C1066 H1085 0.913 . S
C1067 H1043 0.950 . S
C1067 C1066 1.524 . S
C1067 C1068 1.415 . S
C1068 H1044 0.950 . S
C1068 C1063 1.363 . S
C1068 C1067 1.415 . S
C1069 H1045 0.951 . S
C1069 C1070 1.366 . S
C1069 C1071 1.388 . S
C1070 C1069 1.366 . S
C1070 C1074 1.385 . S
C1071 H1046 0.951 . S
C1071 C1069 1.388 . S
C1071 C1072 1.366 . S
C1072 C1071 1.366 . S
C1072 C1073 1.414 . S
C1072 C1075 1.499 . S
C1073 H1047 0.950 . S
C1073 C1072 1.414 . S
C1073 C1074 1.374 . S
C1074 H1048 0.950 . S
C1074 C1070 1.385 . S
C1074 C1073 1.374 . S
C1075 C1072 1.499 . S
C1075 C1076 1.373 . S
C1075 C1077 1.389 . S
C1076 H1049 0.950 . S
C1076 C1062 1.377 . S
C1076 C1075 1.373 . S
C1077 C1061 1.377 . S
C1077 C1075 1.389 . S
C1077 C1078 1.524 . S
C1078 C1077 1.524 . S
C1078 C1079 1.397 . S
C1078 C1083 1.363 . S
C1079 H1050 0.950 . S
C1079 C1078 1.397 . S
C1079 C1080 1.334 . S
C1080 H1051 0.950 . S
C1080 C1079 1.334 . S
C1080 C1081 1.287 . S
C1081 C1080 1.287 . S
C1081 C1082 1.524 . S
C1081 H1084 0.999 . S
C1082 H1052 0.950 . S
C1082 C1081 1.524 . S
C1082 C1083 1.415 . S
C1083 H1053 0.950 . S
C1083 C1078 1.363 . S
C1083 C1082 1.415 . S
H1084 C1081 0.999 . S
H1085 C1066 0.913 . S
H1086 C1104 0.951 1_455 S
H1087 C1106 0.951 . S
H1088 C1108 0.950 . S
H1089 C1109 0.950 . S
H1090 C1111 0.950 . S
H1091 C1114 0.950 . S
H1092 C1115 0.950 . S
H1093 C1117 0.950 . S
H1094 C1118 0.950 . S
H1095 C1119 0.951 . S
H1096 C1121 0.951 . S
H1097 C1123 0.950 . S
H1098 C1124 0.950 . S
H1099 C1126 0.950 . S
H1100 C1129 0.950 . S
H1101 C1130 0.950 . S
H1102 C1132 0.950 . S
H1103 C1133 0.950 . S
C1104 H1086 0.951 1_655 S
C1104 C1105 1.366 . S
C1104 C1106 1.388 . S
C1105 C1104 1.366 . S
C1105 C1109 1.385 . S
C1106 H1087 0.951 . S
C1106 C1104 1.388 . S
C1106 C1107 1.366 . S
C1107 C1106 1.366 . S
C1107 C1108 1.414 . S
C1107 C1110 1.499 . S
C1108 H1088 0.950 . S
C1108 C1107 1.414 . S
C1108 C1109 1.374 . S
C1109 H1089 0.950 . S
C1109 C1105 1.385 . S
C1109 C1108 1.374 . S
C1110 C1107 1.499 . S
C1110 C1111 1.373 . S
C1110 C1112 1.389 . S
C1111 H1090 0.950 . S
C1111 C1110 1.373 . S
C1111 C1127 1.377 . S
C1112 C1110 1.389 . S
C1112 C1113 1.524 . S
C1112 C1126 1.377 . S
C1113 C1112 1.524 . S
C1113 C1114 1.397 . S
C1113 C1118 1.363 . S
C1114 H1091 0.950 . S
C1114 C1113 1.397 . S
C1114 C1115 1.334 . S
C1115 H1092 0.950 . S
C1115 C1114 1.334 . S
C1115 C1116 1.287 . S
C1116 C1115 1.287 . S
C1116 C1117 1.524 . S
C1116 H1135 0.913 . S
C1117 H1093 0.950 . S
C1117 C1116 1.524 . S
C1117 C1118 1.415 . S
C1118 H1094 0.950 . S
C1118 C1113 1.363 . S
C1118 C1117 1.415 . S
C1119 H1095 0.951 . S
C1119 C1120 1.366 . S
C1119 C1121 1.388 . S
C1120 C1119 1.366 . S
C1120 C1124 1.385 . S
C1121 H1096 0.951 . S
C1121 C1119 1.388 . S
C1121 C1122 1.366 . S
C1122 C1121 1.366 . S
C1122 C1123 1.414 . S
C1122 C1125 1.499 . S
C1123 H1097 0.950 . S
C1123 C1122 1.414 . S
C1123 C1124 1.374 . S
C1124 H1098 0.950 . S
C1124 C1120 1.385 . S
C1124 C1123 1.374 . S
C1125 C1122 1.499 . S
C1125 C1126 1.373 . S
C1125 C1127 1.389 . S
C1126 H1099 0.950 . S
C1126 C1112 1.377 . S
C1126 C1125 1.373 . S
C1127 C1111 1.377 . S
C1127 C1125 1.389 . S
C1127 C1128 1.524 . S
C1128 C1127 1.524 . S
C1128 C1129 1.397 . S
C1128 C1133 1.363 . S
C1129 H1100 0.950 . S
C1129 C1128 1.397 . S
C1129 C1130 1.334 . S
C1130 H1101 0.950 . S
C1130 C1129 1.334 . S
C1130 C1131 1.287 . S
C1131 C1130 1.287 . S
C1131 C1132 1.524 . S
C1131 H1134 0.999 . S
C1132 H1102 0.950 . S
C1132 C1131 1.524 . S
C1132 C1133 1.415 . S
C1133 H1103 0.950 . S
C1133 C1128 1.363 . S
C1133 C1132 1.415 . S
H1134 C1131 0.999 . S
H1135 C1116 0.913 . S
H1136 C1154 0.951 . S
H1137 C1156 0.951 . S
H1138 C1158 0.950 . S
H1139 C1159 0.950 . S
H1140 C1161 0.950 . S
H1141 C1164 0.950 . S
H1142 C1165 0.950 . S
H1143 C1167 0.950 . S
H1144 C1168 0.950 . S
H1145 C1169 0.951 . S
H1146 C1171 0.951 . S
H1147 C1173 0.950 . S
H1148 C1174 0.950 . S
H1149 C1176 0.950 . S
H1150 C1179 0.950 . S
H1151 C1180 0.950 . S
H1152 C1182 0.950 . S
H1153 C1183 0.950 . S
C1154 H1136 0.951 . S
C1154 C1155 1.366 . S
C1154 C1156 1.388 . S
C1155 C1154 1.366 . S
C1155 C1159 1.385 . S
C1156 H1137 0.951 . S
C1156 C1154 1.388 . S
C1156 C1157 1.366 . S
C1157 C1156 1.366 . S
C1157 C1158 1.414 . S
C1157 C1160 1.499 . S
C1158 H1138 0.950 . S
C1158 C1157 1.414 . S
C1158 C1159 1.374 . S
C1159 H1139 0.950 . S
C1159 C1155 1.385 . S
C1159 C1158 1.374 . S
C1160 C1157 1.499 . S
C1160 C1161 1.373 . S
C1160 C1162 1.389 . S
C1161 H1140 0.950 . S
C1161 C1160 1.373 . S
C1161 C1177 1.377 . S
C1162 C1160 1.389 . S
C1162 C1163 1.524 . S
C1162 C1176 1.377 . S
C1163 C1162 1.524 . S
C1163 C1164 1.397 . S
C1163 C1168 1.363 . S
C1164 H1141 0.950 . S
C1164 C1163 1.397 . S
C1164 C1165 1.334 . S
C1165 H1142 0.950 . S
C1165 C1164 1.334 . S
C1165 C1166 1.287 . S
C1166 C1165 1.287 . S
C1166 C1167 1.524 . S
C1166 H1185 0.913 . S
C1167 H1143 0.950 . S
C1167 C1166 1.524 . S
C1167 C1168 1.415 . S
C1168 H1144 0.950 . S
C1168 C1163 1.363 . S
C1168 C1167 1.415 . S
C1169 H1145 0.951 . S
C1169 C1170 1.366 . S
C1169 C1171 1.388 . S
C1170 C1169 1.366 . S
C1170 C1174 1.385 . S
C1171 H1146 0.951 . S
C1171 C1169 1.388 . S
C1171 C1172 1.366 . S
C1172 C1171 1.366 . S
C1172 C1173 1.414 . S
C1172 C1175 1.499 . S
C1173 H1147 0.950 . S
C1173 C1172 1.414 . S
C1173 C1174 1.374 . S
C1174 H1148 0.950 . S
C1174 C1170 1.385 . S
C1174 C1173 1.374 . S
C1175 C1172 1.499 . S
C1175 C1176 1.373 . S
C1175 C1177 1.389 . S
C1176 H1149 0.950 . S
C1176 C1162 1.377 . S
C1176 C1175 1.373 . S
C1177 C1161 1.377 . S
C1177 C1175 1.389 . S
C1177 C1178 1.524 . S
C1178 C1177 1.524 . S
C1178 C1179 1.397 . S
C1178 C1183 1.363 . S
C1179 H1150 0.950 . S
C1179 C1178 1.397 . S
C1179 C1180 1.334 . S
C1180 H1151 0.950 . S
C1180 C1179 1.334 . S
C1180 C1181 1.287 . S
C1181 C1180 1.287 . S
C1181 C1182 1.524 . S
C1181 H1184 0.999 . S
C1182 H1152 0.950 . S
C1182 C1181 1.524 . S
C1182 C1183 1.415 . S
C1183 H1153 0.950 . S
C1183 C1178 1.363 . S
C1183 C1182 1.415 . S
H1184 C1181 0.999 . S
H1185 C1166 0.913 . S
H1186 C1204 0.951 . S
H1187 C1206 0.951 . S
H1188 C1208 0.950 . S
H1189 C1209 0.950 . S
H1190 C1211 0.950 . S
H1191 C1214 0.950 . S
H1192 C1215 0.950 . S
H1193 C1217 0.950 . S
H1194 C1218 0.950 . S
H1195 C1219 0.951 . S
H1196 C1221 0.951 . S
H1197 C1223 0.950 . S
H1198 C1224 0.950 . S
H1199 C1226 0.950 . S
H1200 C1229 0.950 . S
H1201 C1230 0.950 . S
H1202 C1232 0.950 . S
H1203 C1233 0.950 . S
C1204 H1186 0.951 . S
C1204 C1205 1.366 . S
C1204 C1206 1.388 . S
C1205 C1204 1.366 . S
C1205 C1209 1.385 . S
C1206 H1187 0.951 . S
C1206 C1204 1.388 . S
C1206 C1207 1.366 . S
C1207 C1206 1.366 . S
C1207 C1208 1.414 . S
C1207 C1210 1.499 . S
C1208 H1188 0.950 . S
C1208 C1207 1.414 . S
C1208 C1209 1.374 . S
C1209 H1189 0.950 . S
C1209 C1205 1.385 . S
C1209 C1208 1.374 . S
C1210 C1207 1.499 . S
C1210 C1211 1.373 . S
C1210 C1212 1.389 . S
C1211 H1190 0.950 . S
C1211 C1210 1.373 . S
C1211 C1227 1.377 . S
C1212 C1210 1.389 . S
C1212 C1213 1.524 . S
C1212 C1226 1.377 . S
C1213 C1212 1.524 . S
C1213 C1214 1.397 . S
C1213 C1218 1.363 . S
C1214 H1191 0.950 . S
C1214 C1213 1.397 . S
C1214 C1215 1.334 . S
C1215 H1192 0.950 . S
C1215 C1214 1.334 . S
C1215 C1216 1.287 . S
C1216 C1215 1.287 . S
C1216 C1217 1.524 . S
C1216 H1235 0.913 . S
C1217 H1193 0.950 . S
C1217 C1216 1.524 . S
C1217 C1218 1.415 . S
C1218 H1194 0.950 . S
C1218 C1213 1.363 . S
C1218 C1217 1.415 . S
C1219 H1195 0.951 . S
C1219 C1220 1.366 . S
C1219 C1221 1.388 . S
C1220 C1219 1.366 . S
C1220 C1224 1.385 . S
C1221 H1196 0.951 . S
C1221 C1219 1.388 . S
C1221 C1222 1.366 . S
C1222 C1221 1.366 . S
C1222 C1223 1.414 . S
C1222 C1225 1.499 . S
C1223 H1197 0.950 . S
C1223 C1222 1.414 . S
C1223 C1224 1.374 . S
C1224 H1198 0.950 . S
C1224 C1220 1.385 . S
C1224 C1223 1.374 . S
C1225 C1222 1.499 . S
C1225 C1226 1.373 . S
C1225 C1227 1.389 . S
C1226 H1199 0.950 . S
C1226 C1212 1.377 . S
C1226 C1225 1.373 . S
C1227 C1211 1.377 . S
C1227 C1225 1.389 . S
C1227 C1228 1.524 . S
C1228 C1227 1.524 . S
C1228 C1229 1.397 . S
C1228 C1233 1.363 . S
C1229 H1200 0.950 . S
C1229 C1228 1.397 . S
C1229 C1230 1.334 . S
C1230 H1201 0.950 . S
C1230 C1229 1.334 . S
C1230 C1231 1.287 . S
C1231 C1230 1.287 . S
C1231 C1232 1.524 . S
C1231 H1234 0.999 . S
C1232 H1202 0.950 . S
C1232 C1231 1.524 . S
C1232 C1233 1.415 . S
C1233 H1203 0.950 . S
C1233 C1228 1.363 . S
C1233 C1232 1.415 . S
H1234 C1231 0.999 . S
H1235 C1216 0.913 . S
H1236 C1254 0.951 . S
H1237 C1256 0.951 . S
H1238 C1258 0.950 . S
H1239 C1259 0.950 . S
H1240 C1261 0.950 . S
H1241 C1264 0.950 . S
H1242 C1265 0.950 . S
H1243 C1267 0.950 . S
H1244 C1268 0.950 . S
H1245 C1269 0.951 . S
H1246 C1271 0.951 . S
H1247 C1273 0.950 . S
H1248 C1274 0.950 . S
H1249 C1276 0.950 . S
H1250 C1279 0.950 . S
H1251 C1280 0.950 . S
H1252 C1282 0.950 . S
H1253 C1283 0.950 . S
C1254 H1236 0.951 . S
C1254 C1255 1.366 . S
C1254 C1256 1.388 . S
C1255 C1254 1.366 . S
C1255 C1259 1.385 . S
C1256 H1237 0.951 . S
C1256 C1254 1.388 . S
C1256 C1257 1.366 . S
C1257 C1256 1.366 . S
C1257 C1258 1.414 . S
C1257 C1260 1.499 . S
C1258 H1238 0.950 . S
C1258 C1257 1.414 . S
C1258 C1259 1.374 . S
C1259 H1239 0.950 . S
C1259 C1255 1.385 . S
C1259 C1258 1.374 . S
C1260 C1257 1.499 . S
C1260 C1261 1.373 . S
C1260 C1262 1.389 . S
C1261 H1240 0.950 . S
C1261 C1260 1.373 . S
C1261 C1277 1.377 . S
C1262 C1260 1.389 . S
C1262 C1263 1.524 . S
C1262 C1276 1.377 . S
C1263 C1262 1.524 . S
C1263 C1264 1.397 . S
C1263 C1268 1.363 . S
C1264 H1241 0.950 . S
C1264 C1263 1.397 . S
C1264 C1265 1.334 . S
C1265 H1242 0.950 . S
C1265 C1264 1.334 . S
C1265 C1266 1.287 . S
C1266 C1265 1.287 . S
C1266 C1267 1.524 . S
C1266 H1285 0.913 . S
C1267 H1243 0.950 . S
C1267 C1266 1.524 . S
C1267 C1268 1.415 . S
C1268 H1244 0.950 . S
C1268 C1263 1.363 . S
C1268 C1267 1.415 . S
C1269 H1245 0.951 . S
C1269 C1270 1.366 . S
C1269 C1271 1.388 . S
C1270 C1269 1.366 . S
C1270 C1274 1.385 . S
C1271 H1246 0.951 . S
C1271 C1269 1.388 . S
C1271 C1272 1.366 . S
C1272 C1271 1.366 . S
C1272 C1273 1.414 . S
C1272 C1275 1.499 . S
C1273 H1247 0.950 . S
C1273 C1272 1.414 . S
C1273 C1274 1.374 . S
C1274 H1248 0.950 . S
C1274 C1270 1.385 . S
C1274 C1273 1.374 . S
C1275 C1272 1.499 . S
C1275 C1276 1.373 . S
C1275 C1277 1.389 . S
C1276 H1249 0.950 . S
C1276 C1262 1.377 . S
C1276 C1275 1.373 . S
C1277 C1261 1.377 . S
C1277 C1275 1.389 . S
C1277 C1278 1.524 . S
C1278 C1277 1.524 . S
C1278 C1279 1.397 . S
C1278 C1283 1.363 . S
C1279 H1250 0.950 . S
C1279 C1278 1.397 . S
C1279 C1280 1.334 . S
C1280 H1251 0.950 . S
C1280 C1279 1.334 . S
C1280 C1281 1.287 . S
C1281 C1280 1.287 . S
C1281 C1282 1.524 . S
C1281 H1284 0.999 . S
C1282 H1252 0.950 . S
C1282 C1281 1.524 . S
C1282 C1283 1.415 . S
C1283 H1253 0.950 . S
C1283 C1278 1.363 . S
C1283 C1282 1.415 . S
H1284 C1281 0.999 . S
H1285 C1266 0.913 . S
H1286 C1304 0.951 . S
H1287 C1306 0.951 . S
H1288 C1308 0.950 . S
H1289 C1309 0.950 . S
H1290 C1311 0.950 . S
H1291 C1314 0.950 . S
H1292 C1315 0.950 . S
H1293 C1317 0.950 . S
H1294 C1318 0.950 . S
H1295 C1319 0.951 1_455 S
H1296 C1321 0.951 . S
H1297 C1323 0.950 . S
H1298 C1324 0.950 . S
H1299 C1326 0.950 . S
H1300 C1329 0.950 . S
H1301 C1330 0.950 1_455 S
H1302 C1332 0.950 . S
H1303 C1333 0.952 . S
C1304 H1286 0.951 . S
C1304 C1305 1.366 . S
C1304 C1306 1.388 . S
C1305 C1304 1.366 . S
C1305 C1309 1.385 . S
C1306 H1287 0.951 . S
C1306 C1304 1.388 . S
C1306 C1307 1.366 . S
C1307 C1306 1.366 . S
C1307 C1308 1.414 . S
C1307 C1310 1.499 . S
C1308 H1288 0.950 . S
C1308 C1307 1.414 . S
C1308 C1309 1.374 . S
C1309 H1289 0.950 . S
C1309 C1305 1.385 . S
C1309 C1308 1.374 . S
C1310 C1307 1.499 . S
C1310 C1311 1.373 . S
C1310 C1312 1.389 . S
C1311 H1290 0.950 . S
C1311 C1310 1.373 . S
C1311 C1327 1.377 . S
C1312 C1310 1.389 . S
C1312 C1313 1.524 . S
C1312 C1326 1.377 . S
C1313 C1312 1.524 . S
C1313 C1314 1.397 . S
C1313 C1318 1.363 . S
C1314 H1291 0.950 . S
C1314 C1313 1.397 . S
C1314 C1315 1.334 . S
C1315 H1292 0.950 . S
C1315 C1314 1.334 . S
C1315 C1316 1.287 . S
C1316 C1315 1.287 . S
C1316 C1317 1.524 . S
C1316 H1335 0.913 . S
C1317 H1293 0.950 . S
C1317 C1316 1.524 . S
C1317 C1318 1.415 . S
C1318 H1294 0.950 . S
C1318 C1313 1.363 . S
C1318 C1317 1.415 . S
C1319 H1295 0.951 1_655 S
C1319 C1320 1.366 . S
C1319 C1321 1.388 . S
C1320 C1319 1.366 . S
C1320 C1324 1.385 . S
C1321 H1296 0.951 . S
C1321 C1319 1.388 . S
C1321 C1322 1.366 . S
C1322 C1321 1.366 . S
C1322 C1323 1.414 . S
C1322 C1325 1.499 . S
C1323 H1297 0.950 . S
C1323 C1322 1.414 . S
C1323 C1324 1.374 . S
C1324 H1298 0.950 . S
C1324 C1320 1.385 . S
C1324 C1323 1.374 . S
C1325 C1322 1.499 . S
C1325 C1326 1.373 . S
C1325 C1327 1.389 . S
C1326 H1299 0.950 . S
C1326 C1312 1.377 . S
C1326 C1325 1.373 . S
C1327 C1311 1.377 . S
C1327 C1325 1.389 . S
C1327 C1328 1.524 . S
C1328 C1327 1.524 . S
C1328 C1329 1.397 . S
C1328 C1333 1.373 . S
C1329 H1300 0.950 . S
C1329 C1328 1.397 . S
C1329 C1330 1.340 . S
C1330 H1301 0.950 1_655 S
C1330 C1329 1.340 . S
C1330 C1331 1.281 1_655 S
C1331 C1330 1.281 1_455 S
C1331 C1332 1.524 . S
C1331 H1334 0.999 . S
C1332 H1302 0.950 . S
C1332 C1331 1.524 . S
C1332 C1333 1.403 1_455 S
C1333 H1303 0.952 . S
C1333 C1328 1.373 . S
C1333 C1332 1.403 1_655 S
H1334 C1331 0.999 . S
H1335 C1316 0.913 . S
H1336 C1354 0.951 . S
H1337 C1356 0.951 . S
H1338 C1358 0.950 . S
H1339 C1359 0.950 . S
H1340 C1361 0.950 . S
H1341 C1364 0.950 . S
H1342 C1365 0.950 . S
H1343 C1367 0.950 . S
H1344 C1368 0.950 . S
H1345 C1369 0.951 . S
H1346 C1371 0.951 . S
H1347 C1373 0.950 . S
H1348 C1374 0.950 . S
H1349 C1376 0.950 . S
H1350 C1379 0.950 . S
H1351 C1380 0.950 . S
H1352 C1382 0.950 . S
H1353 C1383 0.950 . S
C1354 H1336 0.951 . S
C1354 C1355 1.366 . S
C1354 C1356 1.388 . S
C1355 C1354 1.366 . S
C1355 C1359 1.385 . S
C1356 H1337 0.951 . S
C1356 C1354 1.388 . S
C1356 C1357 1.366 . S
C1357 C1356 1.366 . S
C1357 C1358 1.414 . S
C1357 C1360 1.499 . S
C1358 H1338 0.950 . S
C1358 C1357 1.414 . S
C1358 C1359 1.374 . S
C1359 H1339 0.950 . S
C1359 C1355 1.385 . S
C1359 C1358 1.374 . S
C1360 C1357 1.499 . S
C1360 C1361 1.373 . S
C1360 C1362 1.389 . S
C1361 H1340 0.950 . S
C1361 C1360 1.373 . S
C1361 C1377 1.377 . S
C1362 C1360 1.389 . S
C1362 C1363 1.524 . S
C1362 C1376 1.377 . S
C1363 C1362 1.524 . S
C1363 C1364 1.397 . S
C1363 C1368 1.363 . S
C1364 H1341 0.950 . S
C1364 C1363 1.397 . S
C1364 C1365 1.334 . S
C1365 H1342 0.950 . S
C1365 C1364 1.334 . S
C1365 C1366 1.287 . S
C1366 C1365 1.287 . S
C1366 C1367 1.524 . S
C1366 H1385 0.913 . S
C1367 H1343 0.950 . S
C1367 C1366 1.524 . S
C1367 C1368 1.415 . S
C1368 H1344 0.950 . S
C1368 C1363 1.363 . S
C1368 C1367 1.415 . S
C1369 H1345 0.951 . S
C1369 C1370 1.366 . S
C1369 C1371 1.388 . S
C1370 C1369 1.366 . S
C1370 C1374 1.385 . S
C1371 H1346 0.951 . S
C1371 C1369 1.388 . S
C1371 C1372 1.366 . S
C1372 C1371 1.366 . S
C1372 C1373 1.414 . S
C1372 C1375 1.499 . S
C1373 H1347 0.950 . S
C1373 C1372 1.414 . S
C1373 C1374 1.374 . S
C1374 H1348 0.950 . S
C1374 C1370 1.385 . S
C1374 C1373 1.374 . S
C1375 C1372 1.499 . S
C1375 C1376 1.373 . S
C1375 C1377 1.389 . S
C1376 H1349 0.950 . S
C1376 C1362 1.377 . S
C1376 C1375 1.373 . S
C1377 C1361 1.377 . S
C1377 C1375 1.389 . S
C1377 C1378 1.524 . S
C1378 C1377 1.524 . S
C1378 C1379 1.397 . S
C1378 C1383 1.363 . S
C1379 H1350 0.950 . S
C1379 C1378 1.397 . S
C1379 C1380 1.334 . S
C1380 H1351 0.950 . S
C1380 C1379 1.334 . S
C1380 C1381 1.287 . S
C1381 C1380 1.287 . S
C1381 C1382 1.524 . S
C1381 H1384 0.999 . S
C1382 H1352 0.950 . S
C1382 C1381 1.524 . S
C1382 C1383 1.415 . S
C1383 H1353 0.950 . S
C1383 C1378 1.363 . S
C1383 C1382 1.415 . S
H1384 C1381 0.999 . S
H1385 C1366 0.913 . S
H1386 C1404 0.951 . S
H1387 C1406 0.951 . S
H1388 C1408 0.950 . S
H1389 C1409 0.950 . S
H1390 C1411 0.950 . S
H1391 C1414 0.950 . S
H1392 C1415 0.950 . S
H1393 C1417 0.950 . S
H1394 C1418 0.950 . S
H1395 C1419 0.951 . S
H1396 C1421 0.951 . S
H1397 C1423 0.950 . S
H1398 C1424 0.950 . S
H1399 C1426 0.950 . S
H1400 C1429 0.950 . S
H1401 C1430 0.950 . S
H1402 C1432 0.950 . S
H1403 C1433 0.950 . S
C1404 H1386 0.951 . S
C1404 C1405 1.366 . S
C1404 C1406 1.388 . S
C1405 C1404 1.366 . S
C1405 C1409 1.385 . S
C1406 H1387 0.951 . S
C1406 C1404 1.388 . S
C1406 C1407 1.366 . S
C1407 C1406 1.366 . S
C1407 C1408 1.414 . S
C1407 C1410 1.499 . S
C1408 H1388 0.950 . S
C1408 C1407 1.414 . S
C1408 C1409 1.374 . S
C1409 H1389 0.950 . S
C1409 C1405 1.385 . S
C1409 C1408 1.374 . S
C1410 C1407 1.499 . S
C1410 C1411 1.373 . S
C1410 C1412 1.389 . S
C1411 H1390 0.950 . S
C1411 C1410 1.373 . S
C1411 C1427 1.377 . S
C1412 C1410 1.389 . S
C1412 C1413 1.524 . S
C1412 C1426 1.377 . S
C1413 C1412 1.524 . S
C1413 C1414 1.397 . S
C1413 C1418 1.363 . S
C1414 H1391 0.950 . S
C1414 C1413 1.397 . S
C1414 C1415 1.334 . S
C1415 H1392 0.950 . S
C1415 C1414 1.334 . S
C1415 C1416 1.287 . S
C1416 C1415 1.287 . S
C1416 C1417 1.524 . S
C1416 H1435 0.913 . S
C1417 H1393 0.950 . S
C1417 C1416 1.524 . S
C1417 C1418 1.415 . S
C1418 H1394 0.950 . S
C1418 C1413 1.363 . S
C1418 C1417 1.415 . S
C1419 H1395 0.951 . S
C1419 C1420 1.366 . S
C1419 C1421 1.388 . S
C1420 C1419 1.366 . S
C1420 C1424 1.385 . S
C1421 H1396 0.951 . S
C1421 C1419 1.388 . S
C1421 C1422 1.366 . S
C1422 C1421 1.366 . S
C1422 C1423 1.414 . S
C1422 C1425 1.499 . S
C1423 H1397 0.950 . S
C1423 C1422 1.414 . S
C1423 C1424 1.374 . S
C1424 H1398 0.950 . S
C1424 C1420 1.385 . S
C1424 C1423 1.374 . S
C1425 C1422 1.499 . S
C1425 C1426 1.373 . S
C1425 C1427 1.389 . S
C1426 H1399 0.950 . S
C1426 C1412 1.377 . S
C1426 C1425 1.373 . S
C1427 C1411 1.377 . S
C1427 C1425 1.389 . S
C1427 C1428 1.524 . S
C1428 C1427 1.524 . S
C1428 C1429 1.397 . S
C1428 C1433 1.363 . S
C1429 H1400 0.950 . S
C1429 C1428 1.397 . S
C1429 C1430 1.334 . S
C1430 H1401 0.950 . S
C1430 C1429 1.334 . S
C1430 C1431 1.287 . S
C1431 C1430 1.287 . S
C1431 C1432 1.524 . S
C1431 H1434 0.999 . S
C1432 H1402 0.950 . S
C1432 C1431 1.524 . S
C1432 C1433 1.415 . S
C1433 H1403 0.950 . S
C1433 C1428 1.363 . S
C1433 C1432 1.415 . S
H1434 C1431 0.999 . S
H1435 C1416 0.913 . S
H1436 C1454 0.951 . S
H1437 C1456 0.951 . S
H1438 C1458 0.950 . S
H1439 C1459 0.950 . S
H1440 C1461 0.950 . S
H1441 C1464 0.950 . S
H1442 C1465 0.950 . S
H1443 C1467 0.950 . S
H1444 C1468 0.950 . S
H1445 C1469 0.951 . S
H1446 C1471 0.951 . S
H1447 C1473 0.950 . S
H1448 C1474 0.950 . S
H1449 C1476 0.950 . S
H1450 C1479 0.950 . S
H1451 C1480 0.950 . S
H1452 C1482 0.950 1_556 S
H1453 C1483 0.950 . S
C1454 H1436 0.951 . S
C1454 C1455 1.366 . S
C1454 C1456 1.388 . S
C1455 C1454 1.366 . S
C1455 C1459 1.385 . S
C1456 H1437 0.951 . S
C1456 C1454 1.388 . S
C1456 C1457 1.366 . S
C1457 C1456 1.366 . S
C1457 C1458 1.414 . S
C1457 C1460 1.499 . S
C1458 H1438 0.950 . S
C1458 C1457 1.414 . S
C1458 C1459 1.374 . S
C1459 H1439 0.950 . S
C1459 C1455 1.385 . S
C1459 C1458 1.374 . S
C1460 C1457 1.499 . S
C1460 C1461 1.373 . S
C1460 C1462 1.389 . S
C1461 H1440 0.950 . S
C1461 C1460 1.373 . S
C1461 C1477 1.377 . S
C1462 C1460 1.389 . S
C1462 C1463 1.524 . S
C1462 C1476 1.377 . S
C1463 C1462 1.524 . S
C1463 C1464 1.397 . S
C1463 C1468 1.363 . S
C1464 H1441 0.950 . S
C1464 C1463 1.397 . S
C1464 C1465 1.334 . S
C1465 H1442 0.950 . S
C1465 C1464 1.334 . S
C1465 C1466 1.287 . S
C1466 C1465 1.287 . S
C1466 C1467 1.524 . S
C1466 H1485 0.913 . S
C1467 H1443 0.950 . S
C1467 C1466 1.524 . S
C1467 C1468 1.415 . S
C1468 H1444 0.950 . S
C1468 C1463 1.363 . S
C1468 C1467 1.415 . S
C1469 H1445 0.951 . S
C1469 C1470 1.366 . S
C1469 C1471 1.388 . S
C1470 C1469 1.366 . S
C1470 C1474 1.385 . S
C1471 H1446 0.951 . S
C1471 C1469 1.388 . S
C1471 C1472 1.366 . S
C1472 C1471 1.366 . S
C1472 C1473 1.414 . S
C1472 C1475 1.499 . S
C1473 H1447 0.950 . S
C1473 C1472 1.414 . S
C1473 C1474 1.374 . S
C1474 H1448 0.950 . S
C1474 C1470 1.385 . S
C1474 C1473 1.374 . S
C1475 C1472 1.499 . S
C1475 C1476 1.373 . S
C1475 C1477 1.389 . S
C1476 H1449 0.950 . S
C1476 C1462 1.377 . S
C1476 C1475 1.373 . S
C1477 C1461 1.377 . S
C1477 C1475 1.389 . S
C1477 C1478 1.524 . S
C1478 C1477 1.524 . S
C1478 C1479 1.397 . S
C1478 C1483 1.363 . S
C1479 H1450 0.950 . S
C1479 C1478 1.397 . S
C1479 C1480 1.334 . S
C1480 H1451 0.950 . S
C1480 C1479 1.334 . S
C1480 C1481 1.287 . S
C1481 C1480 1.287 . S
C1481 C1482 1.524 . S
C1481 H1484 0.999 1_554 S
C1482 H1452 0.950 1_554 S
C1482 C1481 1.524 . S
C1482 C1483 1.415 . S
C1483 H1453 0.950 . S
C1483 C1478 1.363 . S
C1483 C1482 1.415 . S
H1484 C1481 0.999 1_556 S
H1485 C1466 0.913 . S
H1486 C1504 0.951 . S
H1487 C1506 0.951 . S
H1488 C1508 0.950 . S
H1489 C1509 0.950 . S
H1490 C1511 0.950 . S
H1491 C1514 0.950 . S
H1492 C1515 0.950 . S
H1493 C1517 0.950 . S
H1494 C1518 0.950 . S
H1495 C1519 0.951 . S
H1496 C1521 0.951 . S
H1497 C1523 0.950 . S
H1498 C1524 0.950 . S
H1499 C1526 0.950 . S
H1500 C1529 0.950 . S
H1501 C1530 0.950 . S
H1502 C1532 0.950 . S
H1503 C1533 0.950 . S
C1504 H1486 0.951 . S
C1504 C1505 1.366 . S
C1504 C1506 1.388 . S
C1505 C1504 1.366 . S
C1505 C1509 1.385 . S
C1506 H1487 0.951 . S
C1506 C1504 1.388 . S
C1506 C1507 1.366 . S
C1507 C1506 1.366 . S
C1507 C1508 1.414 . S
C1507 C1510 1.499 . S
C1508 H1488 0.950 . S
C1508 C1507 1.414 . S
C1508 C1509 1.374 . S
C1509 H1489 0.950 . S
C1509 C1505 1.385 . S
C1509 C1508 1.374 . S
C1510 C1507 1.499 . S
C1510 C1511 1.373 . S
C1510 C1512 1.389 . S
C1511 H1490 0.950 . S
C1511 C1510 1.373 . S
C1511 C1527 1.377 . S
C1512 C1510 1.389 . S
C1512 C1513 1.524 . S
C1512 C1526 1.377 . S
C1513 C1512 1.524 . S
C1513 C1514 1.397 . S
C1513 C1518 1.363 . S
C1514 H1491 0.950 . S
C1514 C1513 1.397 . S
C1514 C1515 1.334 . S
C1515 H1492 0.950 . S
C1515 C1514 1.334 . S
C1515 C1516 1.287 . S
C1516 C1515 1.287 . S
C1516 C1517 1.524 . S
C1516 H1535 0.913 . S
C1517 H1493 0.950 . S
C1517 C1516 1.524 . S
C1517 C1518 1.415 . S
C1518 H1494 0.950 . S
C1518 C1513 1.363 . S
C1518 C1517 1.415 . S
C1519 H1495 0.951 . S
C1519 C1520 1.366 . S
C1519 C1521 1.388 . S
C1520 C1519 1.366 . S
C1520 C1524 1.385 . S
C1521 H1496 0.951 . S
C1521 C1519 1.388 . S
C1521 C1522 1.366 . S
C1522 C1521 1.366 . S
C1522 C1523 1.414 . S
C1522 C1525 1.499 . S
C1523 H1497 0.950 . S
C1523 C1522 1.414 . S
C1523 C1524 1.374 . S
C1524 H1498 0.950 . S
C1524 C1520 1.385 . S
C1524 C1523 1.374 . S
C1525 C1522 1.499 . S
C1525 C1526 1.373 . S
C1525 C1527 1.389 . S
C1526 H1499 0.950 . S
C1526 C1512 1.377 . S
C1526 C1525 1.373 . S
C1527 C1511 1.377 . S
C1527 C1525 1.389 . S
C1527 C1528 1.524 . S
C1528 C1527 1.524 . S
C1528 C1529 1.397 . S
C1528 C1533 1.363 . S
C1529 H1500 0.950 . S
C1529 C1528 1.397 . S
C1529 C1530 1.334 1_565 S
C1530 H1501 0.950 . S
C1530 C1529 1.334 1_545 S
C1530 C1531 1.287 . S
C1531 C1530 1.287 . S
C1531 C1532 1.524 1_545 S
C1531 H1534 0.999 . S
C1532 H1502 0.950 . S
C1532 C1531 1.524 1_565 S
C1532 C1533 1.415 . S
C1533 H1503 0.950 . S
C1533 C1528 1.363 . S
C1533 C1532 1.415 . S
H1534 C1531 0.999 . S
H1535 C1516 0.913 . S
H1536 C1554 0.951 . S
H1537 C1556 0.951 . S
H1538 C1558 0.950 . S
H1539 C1559 0.950 . S
H1540 C1561 0.950 . S
H1541 C1564 0.950 . S
H1542 C1565 0.950 . S
H1543 C1567 0.950 . S
H1544 C1568 0.950 . S
H1545 C1569 0.951 . S
H1546 C1571 0.951 . S
H1547 C1573 0.950 . S
H1548 C1574 0.950 . S
H1549 C1576 0.950 . S
H1550 C1579 0.950 . S
H1551 C1580 0.950 . S
H1552 C1582 0.950 . S
H1553 C1583 0.950 . S
C1554 H1536 0.951 . S
C1554 C1555 1.366 . S
C1554 C1556 1.388 . S
C1555 C1554 1.366 . S
C1555 C1559 1.385 . S
C1556 H1537 0.951 . S
C1556 C1554 1.388 . S
C1556 C1557 1.366 . S
C1557 C1556 1.366 . S
C1557 C1558 1.414 . S
C1557 C1560 1.499 . S
C1558 H1538 0.950 . S
C1558 C1557 1.414 . S
C1558 C1559 1.374 . S
C1559 H1539 0.950 . S
C1559 C1555 1.385 . S
C1559 C1558 1.374 . S
C1560 C1557 1.499 . S
C1560 C1561 1.373 . S
C1560 C1562 1.389 . S
C1561 H1540 0.950 . S
C1561 C1560 1.373 . S
C1561 C1577 1.377 . S
C1562 C1560 1.389 . S
C1562 C1563 1.524 . S
C1562 C1576 1.377 . S
C1563 C1562 1.524 . S
C1563 C1564 1.397 . S
C1563 C1568 1.363 . S
C1564 H1541 0.950 . S
C1564 C1563 1.397 . S
C1564 C1565 1.334 1_565 S
C1565 H1542 0.950 . S
C1565 C1564 1.334 1_545 S
C1565 C1566 1.287 . S
C1566 C1565 1.287 . S
C1566 C1567 1.524 . S
C1566 H1585 0.913 . S
C1567 H1543 0.950 . S
C1567 C1566 1.524 . S
C1567 C1568 1.415 1_545 S
C1568 H1544 0.950 . S
C1568 C1563 1.363 . S
C1568 C1567 1.415 1_565 S
C1569 H1545 0.951 . S
C1569 C1570 1.366 . S
C1569 C1571 1.388 . S
C1570 C1569 1.366 . S
C1570 C1574 1.385 . S
C1571 H1546 0.951 . S
C1571 C1569 1.388 . S
C1571 C1572 1.366 . S
C1572 C1571 1.366 . S
C1572 C1573 1.414 . S
C1572 C1575 1.499 . S
C1573 H1547 0.950 . S
C1573 C1572 1.414 . S
C1573 C1574 1.374 . S
C1574 H1548 0.950 . S
C1574 C1570 1.385 . S
C1574 C1573 1.374 . S
C1575 C1572 1.499 . S
C1575 C1576 1.373 . S
C1575 C1577 1.389 . S
C1576 H1549 0.950 . S
C1576 C1562 1.377 . S
C1576 C1575 1.373 . S
C1577 C1561 1.377 . S
C1577 C1575 1.389 . S
C1577 C1578 1.524 . S
C1578 C1577 1.524 . S
C1578 C1579 1.397 . S
C1578 C1583 1.363 . S
C1579 H1550 0.950 . S
C1579 C1578 1.397 . S
C1579 C1580 1.334 . S
C1580 H1551 0.950 . S
C1580 C1579 1.334 . S
C1580 C1581 1.287 . S
C1581 C1580 1.287 . S
C1581 C1582 1.524 . S
C1581 H1584 0.999 . S
C1582 H1552 0.950 . S
C1582 C1581 1.524 . S
C1582 C1583 1.415 . S
C1583 H1553 0.950 . S
C1583 C1578 1.363 . S
C1583 C1582 1.415 . S
H1584 C1581 0.999 . S
H1585 C1566 0.913 . S
H1586 C1604 0.951 . S
H1587 C1606 0.951 . S
H1588 C1608 0.950 . S
H1589 C1609 0.950 . S
H1590 C1611 0.950 . S
H1591 C1614 0.950 . S
H1592 C1615 0.950 . S
H1593 C1617 0.950 . S
H1594 C1618 0.950 . S
H1595 C1619 0.951 . S
H1596 C1621 0.951 . S
H1597 C1623 0.950 . S
H1598 C1624 0.950 . S
H1599 C1626 0.950 . S
H1600 C1629 0.950 . S
H1601 C1630 0.950 . S
H1602 C1632 0.950 . S
H1603 C1633 0.950 . S
C1604 H1586 0.951 . S
C1604 C1605 1.366 . S
C1604 C1606 1.388 . S
C1605 C1604 1.366 . S
C1605 C1609 1.385 . S
C1606 H1587 0.951 . S
C1606 C1604 1.388 . S
C1606 C1607 1.366 . S
C1607 C1606 1.366 . S
C1607 C1608 1.414 . S
C1607 C1610 1.499 . S
C1608 H1588 0.950 . S
C1608 C1607 1.414 . S
C1608 C1609 1.374 . S
C1609 H1589 0.950 . S
C1609 C1605 1.385 . S
C1609 C1608 1.374 . S
C1610 C1607 1.499 . S
C1610 C1611 1.373 . S
C1610 C1612 1.389 . S
C1611 H1590 0.950 . S
C1611 C1610 1.373 . S
C1611 C1627 1.377 . S
C1612 C1610 1.389 . S
C1612 C1613 1.524 . S
C1612 C1626 1.377 . S
C1613 C1612 1.524 . S
C1613 C1614 1.397 . S
C1613 C1618 1.363 . S
C1614 H1591 0.950 . S
C1614 C1613 1.397 . S
C1614 C1615 1.334 . S
C1615 H1592 0.950 . S
C1615 C1614 1.334 . S
C1615 C1616 1.287 . S
C1616 C1615 1.287 . S
C1616 C1617 1.524 . S
C1616 H1635 0.913 1_545 S
C1617 H1593 0.950 . S
C1617 C1616 1.524 . S
C1617 C1618 1.415 . S
C1618 H1594 0.950 . S
C1618 C1613 1.363 . S
C1618 C1617 1.415 . S
C1619 H1595 0.951 . S
C1619 C1620 1.366 . S
C1619 C1621 1.388 . S
C1620 C1619 1.366 . S
C1620 C1624 1.385 . S
C1621 H1596 0.951 . S
C1621 C1619 1.388 . S
C1621 C1622 1.366 . S
C1622 C1621 1.366 . S
C1622 C1623 1.414 . S
C1622 C1625 1.499 . S
C1623 H1597 0.950 . S
C1623 C1622 1.414 . S
C1623 C1624 1.374 . S
C1624 H1598 0.950 . S
C1624 C1620 1.385 . S
C1624 C1623 1.374 . S
C1625 C1622 1.499 . S
C1625 C1626 1.373 . S
C1625 C1627 1.389 . S
C1626 H1599 0.950 . S
C1626 C1612 1.377 . S
C1626 C1625 1.373 . S
C1627 C1611 1.377 . S
C1627 C1625 1.389 . S
C1627 C1628 1.524 . S
C1628 C1627 1.524 . S
C1628 C1629 1.397 . S
C1628 C1633 1.363 . S
C1629 H1600 0.950 . S
C1629 C1628 1.397 . S
C1629 C1630 1.334 . S
C1630 H1601 0.950 . S
C1630 C1629 1.334 . S
C1630 C1631 1.287 . S
C1631 C1630 1.287 . S
C1631 C1632 1.524 . S
C1631 H1634 0.999 . S
C1632 H1602 0.950 . S
C1632 C1631 1.524 . S
C1632 C1633 1.415 . S
C1633 H1603 0.950 . S
C1633 C1628 1.363 . S
C1633 C1632 1.415 . S
H1634 C1631 0.999 . S
H1635 C1616 0.913 1_565 S
H1636 C1654 0.951 . S
H1637 C1656 0.951 . S
H1638 C1658 0.950 . S
H1639 C1659 0.950 . S
H1640 C1661 0.950 . S
H1641 C1664 0.950 . S
H1642 C1665 0.952 1_565 S
H1643 C1667 0.950 . S
H1644 C1668 0.950 . S
H1645 C1669 0.951 . S
H1646 C1671 0.951 . S
H1647 C1673 0.950 . S
H1648 C1674 0.950 . S
H1649 C1676 0.950 . S
H1650 C1679 0.950 . S
H1651 C1680 0.950 . S
H1652 C1682 0.950 . S
H1653 C1683 0.950 . S
C1654 H1636 0.951 . S
C1654 C1655 1.366 . S
C1654 C1656 1.388 . S
C1655 C1654 1.366 . S
C1655 C1659 1.385 . S
C1656 H1637 0.951 . S
C1656 C1654 1.388 . S
C1656 C1657 1.366 . S
C1657 C1656 1.366 . S
C1657 C1658 1.414 . S
C1657 C1660 1.499 . S
C1658 H1638 0.950 . S
C1658 C1657 1.414 . S
C1658 C1659 1.374 . S
C1659 H1639 0.950 . S
C1659 C1655 1.385 . S
C1659 C1658 1.374 . S
C1660 C1657 1.499 . S
C1660 C1661 1.373 . S
C1660 C1662 1.389 . S
C1661 H1640 0.950 . S
C1661 C1660 1.373 . S
C1661 C1677 1.377 . S
C1662 C1660 1.389 . S
C1662 C1663 1.524 . S
C1662 C1676 1.377 . S
C1663 C1662 1.524 . S
C1663 C1664 1.397 . S
C1663 C1668 1.363 . S
C1664 H1641 0.950 . S
C1664 C1663 1.397 . S
C1664 C1665 1.334 . S
C1665 H1642 0.952 1_545 S
C1665 C1664 1.334 . S
C1665 C1666 1.287 . S
C1666 C1665 1.287 . S
C1666 C1667 1.524 . S
C1666 H1685 0.913 . S
C1667 H1643 0.950 . S
C1667 C1666 1.524 . S
C1667 C1668 1.415 . S
C1668 H1644 0.950 . S
C1668 C1663 1.363 . S
C1668 C1667 1.415 . S
C1669 H1645 0.951 . S
C1669 C1670 1.366 . S
C1669 C1671 1.388 . S
C1670 C1669 1.366 . S
C1670 C1674 1.385 . S
C1671 H1646 0.951 . S
C1671 C1669 1.388 . S
C1671 C1672 1.366 . S
C1672 C1671 1.366 . S
C1672 C1673 1.414 . S
C1672 C1675 1.499 . S
C1673 H1647 0.950 . S
C1673 C1672 1.414 . S
C1673 C1674 1.374 . S
C1674 H1648 0.950 . S
C1674 C1670 1.385 . S
C1674 C1673 1.374 . S
C1675 C1672 1.499 . S
C1675 C1676 1.373 . S
C1675 C1677 1.389 . S
C1676 H1649 0.950 . S
C1676 C1662 1.377 . S
C1676 C1675 1.373 . S
C1677 C1661 1.377 . S
C1677 C1675 1.389 . S
C1677 C1678 1.524 . S
C1678 C1677 1.524 . S
C1678 C1679 1.397 . S
C1678 C1683 1.363 . S
C1679 H1650 0.950 . S
C1679 C1678 1.397 . S
C1679 C1680 1.334 . S
C1680 H1651 0.950 . S
C1680 C1679 1.334 . S
C1680 C1681 1.287 . S
C1681 C1680 1.287 . S
C1681 C1682 1.524 . S
C1681 H1684 0.999 . S
C1682 H1652 0.950 . S
C1682 C1681 1.524 . S
C1682 C1683 1.415 . S
C1683 H1653 0.950 . S
C1683 C1678 1.363 . S
C1683 C1682 1.415 . S
H1684 C1681 0.999 . S
H1685 C1666 0.913 . S
H1686 C1704 0.951 . S
H1687 C1706 0.951 . S
H1688 C1708 0.950 . S
H1689 C1709 0.950 . S
H1690 C1711 0.950 . S
H1691 C1714 0.950 . S
H1692 C1715 0.950 . S
H1693 C1717 0.950 . S
H1694 C1718 0.950 . S
H1695 C1719 0.996 . S
H1696 C1721 0.951 . S
H1697 C1723 0.950 . S
H1698 C1724 0.950 . S
H1699 C1726 0.950 . S
H1700 C1729 0.950 . S
H1701 C1730 0.950 . S
H1702 C1732 0.950 . S
H1703 C1733 0.940 1_556 S
C1704 H1686 0.951 . S
C1704 C1705 1.366 . S
C1704 C1706 1.388 . S
C1705 C1704 1.366 . S
C1705 C1709 1.385 . S
C1706 H1687 0.951 . S
C1706 C1704 1.388 . S
C1706 C1707 1.366 . S
C1707 C1706 1.366 . S
C1707 C1708 1.414 . S
C1707 C1710 1.499 . S
C1708 H1688 0.950 . S
C1708 C1707 1.414 . S
C1708 C1709 1.374 . S
C1709 H1689 0.950 . S
C1709 C1705 1.385 . S
C1709 C1708 1.374 . S
C1710 C1707 1.499 . S
C1710 C1711 1.373 . S
C1710 C1712 1.389 . S
C1711 H1690 0.950 . S
C1711 C1710 1.373 . S
C1711 C1727 1.377 . S
C1712 C1710 1.389 . S
C1712 C1713 1.524 . S
C1712 C1726 1.377 . S
C1713 C1712 1.524 . S
C1713 C1714 1.397 . S
C1713 C1718 1.363 . S
C1714 H1691 0.950 . S
C1714 C1713 1.397 . S
C1714 C1715 1.334 . S
C1715 H1692 0.950 . S
C1715 C1714 1.334 . S
C1715 C1716 1.287 . S
C1716 C1715 1.287 . S
C1716 C1717 1.524 . S
C1716 H1735 0.913 . S
C1717 H1693 0.950 . S
C1717 C1716 1.524 . S
C1717 C1718 1.415 . S
C1718 H1694 0.950 . S
C1718 C1713 1.363 . S
C1718 C1717 1.415 . S
C1719 H1695 0.996 . S
C1719 C1720 1.366 . S
C1719 C1721 1.388 . S
C1720 C1719 1.366 . S
C1720 C1724 1.385 . S
C1721 H1696 0.951 . S
C1721 C1719 1.388 . S
C1721 C1722 1.366 . S
C1722 C1721 1.366 . S
C1722 C1723 1.414 . S
C1722 C1725 1.499 . S
C1723 H1697 0.950 . S
C1723 C1722 1.414 . S
C1723 C1724 1.374 . S
C1724 H1698 0.950 . S
C1724 C1720 1.385 . S
C1724 C1723 1.374 . S
C1725 C1722 1.499 . S
C1725 C1726 1.373 . S
C1725 C1727 1.389 . S
C1726 H1699 0.950 . S
C1726 C1712 1.377 . S
C1726 C1725 1.373 . S
C1727 C1711 1.377 . S
C1727 C1725 1.389 . S
C1727 C1728 1.524 . S
C1728 C1727 1.524 . S
C1728 C1729 1.397 . S
C1728 C1733 1.337 1_556 S
C1729 H1700 0.950 . S
C1729 C1728 1.397 . S
C1729 C1730 1.334 1_556 S
C1730 H1701 0.950 . S
C1730 C1729 1.334 1_554 S
C1730 C1731 1.287 . S
C1731 C1730 1.287 . S
C1731 C1732 1.524 . S
C1731 H1734 0.999 . S
C1732 H1702 0.950 . S
C1732 C1731 1.524 . S
C1732 C1733 1.451 . S
C1733 H1703 0.940 1_554 S
C1733 C1728 1.337 1_554 S
C1733 C1732 1.451 . S
H1734 C1731 0.999 . S
H1735 C1716 0.913 . S
H1736 C1754 0.951 . S
H1737 C1756 0.951 . S
H1738 C1758 0.950 . S
H1739 C1759 0.950 . S
H1740 C1761 0.950 . S
H1741 C1764 0.950 . S
H1742 C1765 0.950 . S
H1743 C1767 0.950 . S
H1744 C1768 0.950 . S
H1745 C1769 0.951 . S
H1746 C1771 0.951 . S
H1747 C1773 0.950 . S
H1748 C1774 0.950 . S
H1749 C1776 0.950 . S
H1750 C1779 0.950 . S
H1751 C1780 0.950 . S
H1752 C1782 0.950 . S
H1753 C1783 0.950 . S
C1754 H1736 0.951 . S
C1754 C1755 1.366 . S
C1754 C1756 1.388 . S
C1755 C1754 1.366 . S
C1755 C1759 1.385 . S
C1756 H1737 0.951 . S
C1756 C1754 1.388 . S
C1756 C1757 1.366 . S
C1757 C1756 1.366 . S
C1757 C1758 1.414 . S
C1757 C1760 1.499 . S
C1758 H1738 0.950 . S
C1758 C1757 1.414 . S
C1758 C1759 1.374 . S
C1759 H1739 0.950 . S
C1759 C1755 1.385 . S
C1759 C1758 1.374 . S
C1760 C1757 1.499 . S
C1760 C1761 1.373 . S
C1760 C1762 1.389 . S
C1761 H1740 0.950 . S
C1761 C1760 1.373 . S
C1761 C1777 1.377 . S
C1762 C1760 1.389 . S
C1762 C1763 1.524 . S
C1762 C1776 1.377 . S
C1763 C1762 1.524 . S
C1763 C1764 1.397 . S
C1763 C1768 1.363 . S
C1764 H1741 0.950 . S
C1764 C1763 1.397 . S
C1764 C1765 1.334 . S
C1765 H1742 0.950 . S
C1765 C1764 1.334 . S
C1765 C1766 1.287 . S
C1766 C1765 1.287 . S
C1766 C1767 1.524 . S
C1766 H1785 0.913 . S
C1767 H1743 0.950 . S
C1767 C1766 1.524 . S
C1767 C1768 1.415 . S
C1768 H1744 0.950 . S
C1768 C1763 1.363 . S
C1768 C1767 1.415 . S
C1769 H1745 0.951 . S
C1769 C1770 1.366 . S
C1769 C1771 1.388 . S
C1770 C1769 1.366 . S
C1770 C1774 1.385 . S
C1771 H1746 0.951 . S
C1771 C1769 1.388 . S
C1771 C1772 1.366 . S
C1772 C1771 1.366 . S
C1772 C1773 1.414 . S
C1772 C1775 1.499 . S
C1773 H1747 0.950 . S
C1773 C1772 1.414 . S
C1773 C1774 1.374 . S
C1774 H1748 0.950 . S
C1774 C1770 1.385 . S
C1774 C1773 1.374 . S
C1775 C1772 1.499 . S
C1775 C1776 1.373 . S
C1775 C1777 1.389 . S
C1776 H1749 0.950 . S
C1776 C1762 1.377 . S
C1776 C1775 1.373 . S
C1777 C1761 1.377 . S
C1777 C1775 1.389 . S
C1777 C1778 1.524 . S
C1778 C1777 1.524 . S
C1778 C1779 1.397 . S
C1778 C1783 1.363 . S
C1779 H1750 0.950 . S
C1779 C1778 1.397 . S
C1779 C1780 1.334 . S
C1780 H1751 0.950 . S
C1780 C1779 1.334 . S
C1780 C1781 1.287 . S
C1781 C1780 1.287 . S
C1781 C1782 1.524 . S
C1781 H1784 0.999 . S
C1782 H1752 0.950 . S
C1782 C1781 1.524 . S
C1782 C1783 1.415 . S
C1783 H1753 0.950 . S
C1783 C1778 1.363 . S
C1783 C1782 1.415 . S
H1784 C1781 0.999 . S
H1785 C1766 0.913 . S
H1786 C1804 0.951 . S
H1787 C1806 0.951 . S
H1788 C1808 0.950 . S
H1789 C1809 0.950 . S
H1790 C1811 0.950 . S
H1791 C1814 0.950 . S
H1792 C1815 0.950 . S
H1793 C1817 0.950 . S
H1794 C1818 0.950 . S
H1795 C1819 0.951 . S
H1796 C1821 0.951 . S
H1797 C1823 0.950 . S
H1798 C1824 0.950 . S
H1799 C1826 0.950 . S
H1800 C1829 0.950 . S
H1801 C1830 0.950 . S
H1802 C1832 0.950 . S
H1803 C1833 0.950 . S
C1804 H1786 0.951 . S
C1804 C1805 1.366 . S
C1804 C1806 1.388 . S
C1805 C1804 1.366 . S
C1805 C1809 1.385 . S
C1806 H1787 0.951 . S
C1806 C1804 1.388 . S
C1806 C1807 1.366 . S
C1807 C1806 1.366 . S
C1807 C1808 1.414 . S
C1807 C1810 1.499 . S
C1808 H1788 0.950 . S
C1808 C1807 1.414 . S
C1808 C1809 1.374 . S
C1809 H1789 0.950 . S
C1809 C1805 1.385 . S
C1809 C1808 1.374 . S
C1810 C1807 1.499 . S
C1810 C1811 1.373 . S
C1810 C1812 1.389 . S
C1811 H1790 0.950 . S
C1811 C1810 1.373 . S
C1811 C1827 1.377 . S
C1812 C1810 1.389 . S
C1812 C1813 1.524 . S
C1812 C1826 1.377 . S
C1813 C1812 1.524 . S
C1813 C1814 1.397 . S
C1813 C1818 1.363 . S
C1814 H1791 0.950 . S
C1814 C1813 1.397 . S
C1814 C1815 1.334 . S
C1815 H1792 0.950 . S
C1815 C1814 1.334 . S
C1815 C1816 1.287 . S
C1816 C1815 1.287 . S
C1816 C1817 1.524 . S
C1816 H1835 0.913 . S
C1817 H1793 0.950 . S
C1817 C1816 1.524 . S
C1817 C1818 1.415 . S
C1818 H1794 0.950 . S
C1818 C1813 1.363 . S
C1818 C1817 1.415 . S
C1819 H1795 0.951 . S
C1819 C1820 1.366 . S
C1819 C1821 1.388 . S
C1820 C1819 1.366 . S
C1820 C1824 1.385 . S
C1821 H1796 0.951 . S
C1821 C1819 1.388 . S
C1821 C1822 1.366 . S
C1822 C1821 1.366 . S
C1822 C1823 1.414 . S
C1822 C1825 1.499 . S
C1823 H1797 0.950 . S
C1823 C1822 1.414 . S
C1823 C1824 1.374 . S
C1824 H1798 0.950 . S
C1824 C1820 1.385 . S
C1824 C1823 1.374 . S
C1825 C1822 1.499 . S
C1825 C1826 1.373 . S
C1825 C1827 1.389 . S
C1826 H1799 0.950 . S
C1826 C1812 1.377 . S
C1826 C1825 1.373 . S
C1827 C1811 1.377 . S
C1827 C1825 1.389 . S
C1827 C1828 1.524 . S
C1828 C1827 1.524 . S
C1828 C1829 1.397 . S
C1828 C1833 1.363 . S
C1829 H1800 0.950 . S
C1829 C1828 1.397 . S
C1829 C1830 1.334 . S
C1830 H1801 0.950 . S
C1830 C1829 1.334 . S
C1830 C1831 1.287 . S
C1831 C1830 1.287 . S
C1831 C1832 1.524 . S
C1831 H1834 0.999 . S
C1832 H1802 0.950 . S
C1832 C1831 1.524 . S
C1832 C1833 1.415 . S
C1833 H1803 0.950 . S
C1833 C1828 1.363 . S
C1833 C1832 1.415 . S
H1834 C1831 0.999 . S
H1835 C1816 0.913 . S
H1836 C1854 0.951 . S
H1837 C1856 0.951 . S
H1838 C1858 0.950 . S
H1839 C1859 0.950 . S
H1840 C1861 0.950 . S
H1841 C1864 0.950 . S
H1842 C1865 0.950 . S
H1843 C1867 0.950 . S
H1844 C1868 0.950 . S
H1845 C1869 0.951 . S
H1846 C1871 0.951 . S
H1847 C1873 0.950 . S
H1848 C1874 0.950 . S
H1849 C1876 0.950 . S
H1850 C1879 0.950 . S
H1851 C1880 0.950 . S
H1852 C1882 0.950 . S
H1853 C1883 0.950 . S
C1854 H1836 0.951 . S
C1854 C1855 1.366 . S
C1854 C1856 1.388 . S
C1855 C1854 1.366 . S
C1855 C1859 1.385 . S
C1856 H1837 0.951 . S
C1856 C1854 1.388 . S
C1856 C1857 1.366 . S
C1857 C1856 1.366 . S
C1857 C1858 1.414 . S
C1857 C1860 1.499 . S
C1858 H1838 0.950 . S
C1858 C1857 1.414 . S
C1858 C1859 1.374 . S
C1859 H1839 0.950 . S
C1859 C1855 1.385 . S
C1859 C1858 1.374 . S
C1860 C1857 1.499 . S
C1860 C1861 1.373 . S
C1860 C1862 1.389 . S
C1861 H1840 0.950 . S
C1861 C1860 1.373 . S
C1861 C1877 1.377 . S
C1862 C1860 1.389 . S
C1862 C1863 1.524 . S
C1862 C1876 1.377 . S
C1863 C1862 1.524 . S
C1863 C1864 1.397 . S
C1863 C1868 1.363 . S
C1864 H1841 0.950 . S
C1864 C1863 1.397 . S
C1864 C1865 1.334 . S
C1865 H1842 0.950 . S
C1865 C1864 1.334 . S
C1865 C1866 1.287 . S
C1866 C1865 1.287 . S
C1866 C1867 1.524 . S
C1866 H1885 0.913 . S
C1867 H1843 0.950 . S
C1867 C1866 1.524 . S
C1867 C1868 1.415 . S
C1868 H1844 0.950 . S
C1868 C1863 1.363 . S
C1868 C1867 1.415 . S
C1869 H1845 0.951 . S
C1869 C1870 1.366 . S
C1869 C1871 1.388 . S
C1870 C1869 1.366 . S
C1870 C1874 1.385 . S
C1871 H1846 0.951 . S
C1871 C1869 1.388 . S
C1871 C1872 1.366 . S
C1872 C1871 1.366 . S
C1872 C1873 1.414 . S
C1872 C1875 1.499 . S
C1873 H1847 0.950 . S
C1873 C1872 1.414 . S
C1873 C1874 1.374 . S
C1874 H1848 0.950 . S
C1874 C1870 1.385 . S
C1874 C1873 1.374 . S
C1875 C1872 1.499 . S
C1875 C1876 1.373 . S
C1875 C1877 1.389 . S
C1876 H1849 0.950 . S
C1876 C1862 1.377 . S
C1876 C1875 1.373 . S
C1877 C1861 1.377 . S
C1877 C1875 1.389 . S
C1877 C1878 1.524 . S
C1878 C1877 1.524 . S
C1878 C1879 1.397 . S
C1878 C1883 1.363 . S
C1879 H1850 0.950 . S
C1879 C1878 1.397 . S
C1879 C1880 1.334 . S
C1880 H1851 0.950 . S
C1880 C1879 1.334 . S
C1880 C1881 1.287 . S
C1881 C1880 1.287 . S
C1881 C1882 1.524 . S
C1881 H1884 0.999 . S
C1882 H1852 0.950 . S
C1882 C1881 1.524 . S
C1882 C1883 1.415 . S
C1883 H1853 0.950 . S
C1883 C1878 1.363 . S
C1883 C1882 1.415 . S
H1884 C1881 0.999 . S
H1885 C1866 0.913 . S
H1886 C1904 0.951 . S
H1887 C1906 0.951 . S
H1888 C1908 0.950 . S
H1889 C1909 0.950 1_455 S
H1890 C1911 0.950 . S
H1891 C1914 0.950 . S
H1892 C1915 0.950 . S
H1893 C1917 0.950 . S
H1894 C1918 0.950 . S
H1895 C1919 0.951 . S
H1896 C1921 0.951 . S
H1897 C1923 0.950 . S
H1898 C1924 0.950 . S
H1899 C1926 0.950 . S
H1900 C1929 0.950 . S
H1901 C1930 0.950 . S
H1902 C1932 0.950 . S
H1903 C1933 0.950 . S
C1904 H1886 0.951 . S
C1904 C1905 1.366 . S
C1904 C1906 1.388 . S
C1905 C1904 1.366 . S
C1905 C1909 1.385 . S
C1906 H1887 0.951 . S
C1906 C1904 1.388 . S
C1906 C1907 1.366 . S
C1907 C1906 1.366 . S
C1907 C1908 1.414 . S
C1907 C1910 1.499 . S
C1908 H1888 0.950 . S
C1908 C1907 1.414 . S
C1908 C1909 1.374 . S
C1909 H1889 0.950 1_655 S
C1909 C1905 1.385 . S
C1909 C1908 1.374 . S
C1910 C1907 1.499 . S
C1910 C1911 1.373 . S
C1910 C1912 1.389 . S
C1911 H1890 0.950 . S
C1911 C1910 1.373 . S
C1911 C1927 1.377 . S
C1912 C1910 1.389 . S
C1912 C1913 1.524 . S
C1912 C1926 1.377 . S
C1913 C1912 1.524 . S
C1913 C1914 1.397 . S
C1913 C1918 1.363 . S
C1914 H1891 0.950 . S
C1914 C1913 1.397 . S
C1914 C1915 1.334 . S
C1915 H1892 0.950 . S
C1915 C1914 1.334 . S
C1915 C1916 1.287 . S
C1916 C1915 1.287 . S
C1916 C1917 1.524 . S
C1916 H1935 0.913 . S
C1917 H1893 0.950 . S
C1917 C1916 1.524 . S
C1917 C1918 1.415 . S
C1918 H1894 0.950 . S
C1918 C1913 1.363 . S
C1918 C1917 1.415 . S
C1919 H1895 0.951 . S
C1919 C1920 1.366 . S
C1919 C1921 1.388 . S
C1920 C1919 1.366 . S
C1920 C1924 1.385 . S
C1921 H1896 0.951 . S
C1921 C1919 1.388 . S
C1921 C1922 1.366 . S
C1922 C1921 1.366 . S
C1922 C1923 1.414 . S
C1922 C1925 1.499 . S
C1923 H1897 0.950 . S
C1923 C1922 1.414 . S
C1923 C1924 1.374 . S
C1924 H1898 0.950 . S
C1924 C1920 1.385 . S
C1924 C1923 1.374 . S
C1925 C1922 1.499 . S
C1925 C1926 1.373 . S
C1925 C1927 1.389 . S
C1926 H1899 0.950 . S
C1926 C1912 1.377 . S
C1926 C1925 1.373 . S
C1927 C1911 1.377 . S
C1927 C1925 1.389 . S
C1927 C1928 1.524 . S
C1928 C1927 1.524 . S
C1928 C1929 1.397 . S
C1928 C1933 1.363 . S
C1929 H1900 0.950 . S
C1929 C1928 1.397 . S
C1929 C1930 1.334 . S
C1930 H1901 0.950 . S
C1930 C1929 1.334 . S
C1930 C1931 1.287 . S
C1931 C1930 1.287 . S
C1931 C1932 1.524 . S
C1931 H1934 0.999 . S
C1932 H1902 0.950 . S
C1932 C1931 1.524 . S
C1932 C1933 1.415 . S
C1933 H1903 0.950 . S
C1933 C1928 1.363 . S
C1933 C1932 1.415 . S
H1934 C1931 0.999 . S
H1935 C1916 0.913 . S
H1936 C1954 0.951 . S
H1937 C1956 0.951 . S
H1938 C1958 0.950 . S
H1939 C1959 0.950 . S
H1940 C1961 0.950 . S
H1941 C1964 0.950 . S
H1942 C1965 0.950 . S
H1943 C1967 0.950 . S
H1944 C1968 0.950 . S
H1945 C1969 0.951 . S
H1946 C1971 0.951 . S
H1947 C1973 0.950 . S
H1948 C1974 0.950 . S
H1949 C1976 0.950 . S
H1950 C1979 0.950 . S
H1951 C1980 0.950 . S
H1952 C1982 0.950 . S
H1953 C1983 0.950 . S
C1954 H1936 0.951 . S
C1954 C1955 1.366 . S
C1954 C1956 1.388 . S
C1955 C1954 1.366 . S
C1955 C1959 1.385 . S
C1956 H1937 0.951 . S
C1956 C1954 1.388 . S
C1956 C1957 1.366 . S
C1957 C1956 1.366 . S
C1957 C1958 1.414 . S
C1957 C1960 1.499 . S
C1958 H1938 0.950 . S
C1958 C1957 1.414 . S
C1958 C1959 1.374 . S
C1959 H1939 0.950 . S
C1959 C1955 1.385 . S
C1959 C1958 1.374 . S
C1960 C1957 1.499 . S
C1960 C1961 1.373 . S
C1960 C1962 1.389 . S
C1961 H1940 0.950 . S
C1961 C1960 1.373 . S
C1961 C1977 1.377 . S
C1962 C1960 1.389 . S
C1962 C1963 1.524 . S
C1962 C1976 1.377 . S
C1963 C1962 1.524 . S
C1963 C1964 1.397 . S
C1963 C1968 1.363 . S
C1964 H1941 0.950 . S
C1964 C1963 1.397 . S
C1964 C1965 1.334 . S
C1965 H1942 0.950 . S
C1965 C1964 1.334 . S
C1965 C1966 1.287 . S
C1966 C1965 1.287 . S
C1966 C1967 1.524 . S
C1966 H1985 0.913 . S
C1967 H1943 0.950 . S
C1967 C1966 1.524 . S
C1967 C1968 1.415 . S
C1968 H1944 0.950 . S
C1968 C1963 1.363 . S
C1968 C1967 1.415 . S
C1969 H1945 0.951 . S
C1969 C1970 1.366 . S
C1969 C1971 1.388 . S
C1970 C1969 1.366 . S
C1970 C1974 1.385 . S
C1971 H1946 0.951 . S
C1971 C1969 1.388 . S
C1971 C1972 1.366 . S
C1972 C1971 1.366 . S
C1972 C1973 1.414 . S
C1972 C1975 1.499 . S
C1973 H1947 0.950 . S
C1973 C1972 1.414 . S
C1973 C1974 1.374 . S
C1974 H1948 0.950 . S
C1974 C1970 1.385 . S
C1974 C1973 1.374 . S
C1975 C1972 1.499 . S
C1975 C1976 1.373 . S
C1975 C1977 1.389 . S
C1976 H1949 0.950 . S
C1976 C1962 1.377 . S
C1976 C1975 1.373 . S
C1977 C1961 1.377 . S
C1977 C1975 1.389 . S
C1977 C1978 1.524 . S
C1978 C1977 1.524 . S
C1978 C1979 1.397 . S
C1978 C1983 1.363 . S
C1979 H1950 0.950 . S
C1979 C1978 1.397 . S
C1979 C1980 1.334 . S
C1980 H1951 0.950 . S
C1980 C1979 1.334 . S
C1980 C1981 1.287 . S
C1981 C1980 1.287 . S
C1981 C1982 1.524 . S
C1981 H1984 0.999 . S
C1982 H1952 0.950 . S
C1982 C1981 1.524 . S
C1982 C1983 1.415 . S
C1983 H1953 0.950 . S
C1983 C1978 1.363 . S
C1983 C1982 1.415 . S
H1984 C1981 0.999 . S
H1985 C1966 0.913 . S
H1986 C2004 0.951 1_554 S
H1987 C2006 0.951 . S
H1988 C2008 0.950 . S
H1989 C2009 0.950 . S
H1990 C2011 0.950 . S
H1991 C2014 0.950 . S
H1992 C2015 0.950 . S
H1993 C2017 0.950 . S
H1994 C2018 0.950 . S
H1995 C2019 0.951 . S
H1996 C2021 0.951 . S
H1997 C2023 0.950 . S
H1998 C2024 0.950 . S
H1999 C2026 0.950 . S
H2000 C2029 0.950 . S
H2001 C2030 0.950 . S
H2002 C2032 0.950 . S
H2003 C2033 0.950 . S
C2004 H1986 0.951 1_556 S
C2004 C2005 1.366 . S
C2004 C2006 1.388 . S
C2005 C2004 1.366 . S
C2005 C2009 1.385 . S
C2006 H1987 0.951 . S
C2006 C2004 1.388 . S
C2006 C2007 1.366 . S
C2007 C2006 1.366 . S
C2007 C2008 1.414 . S
C2007 C2010 1.499 . S
C2008 H1988 0.950 . S
C2008 C2007 1.414 . S
C2008 C2009 1.374 . S
C2009 H1989 0.950 . S
C2009 C2005 1.385 . S
C2009 C2008 1.374 . S
C2010 C2007 1.499 . S
C2010 C2011 1.373 . S
C2010 C2012 1.389 . S
C2011 H1990 0.950 . S
C2011 C2010 1.373 . S
C2011 C2027 1.377 . S
C2012 C2010 1.389 . S
C2012 C2013 1.524 . S
C2012 C2026 1.377 . S
C2013 C2012 1.524 . S
C2013 C2014 1.397 . S
C2013 C2018 1.363 . S
C2014 H1991 0.950 . S
C2014 C2013 1.397 . S
C2014 C2015 1.334 . S
C2015 H1992 0.950 . S
C2015 C2014 1.334 . S
C2015 C2016 1.287 . S
C2016 C2015 1.287 . S
C2016 C2017 1.524 . S
C2016 H2035 0.913 . S
C2017 H1993 0.950 . S
C2017 C2016 1.524 . S
C2017 C2018 1.415 . S
C2018 H1994 0.950 . S
C2018 C2013 1.363 . S
C2018 C2017 1.415 . S
C2019 H1995 0.951 . S
C2019 C2020 1.366 . S
C2019 C2021 1.388 . S
C2020 C2019 1.366 . S
C2020 C2024 1.385 . S
C2021 H1996 0.951 . S
C2021 C2019 1.388 . S
C2021 C2022 1.366 . S
C2022 C2021 1.366 . S
C2022 C2023 1.414 . S
C2022 C2025 1.499 . S
C2023 H1997 0.950 . S
C2023 C2022 1.414 . S
C2023 C2024 1.374 . S
C2024 H1998 0.950 . S
C2024 C2020 1.385 . S
C2024 C2023 1.374 . S
C2025 C2022 1.499 . S
C2025 C2026 1.373 . S
C2025 C2027 1.389 . S
C2026 H1999 0.950 . S
C2026 C2012 1.377 . S
C2026 C2025 1.373 . S
C2027 C2011 1.377 . S
C2027 C2025 1.389 . S
C2027 C2028 1.524 . S
C2028 C2027 1.524 . S
C2028 C2029 1.397 . S
C2028 C2033 1.363 . S
C2029 H2000 0.950 . S
C2029 C2028 1.397 . S
C2029 C2030 1.334 . S
C2030 H2001 0.950 . S
C2030 C2029 1.334 . S
C2030 C2031 1.287 . S
C2031 C2030 1.287 . S
C2031 C2032 1.524 . S
C2031 H2034 0.999 . S
C2032 H2002 0.950 . S
C2032 C2031 1.524 . S
C2032 C2033 1.415 . S
C2033 H2003 0.950 . S
C2033 C2028 1.363 . S
C2033 C2032 1.415 . S
H2034 C2031 0.999 . S
H2035 C2016 0.913 . S
H2036 C2054 0.951 . S
H2037 C2056 0.951 . S
H2038 C2058 0.950 . S
H2039 C2059 0.950 . S
H2040 C2061 0.950 . S
H2041 C2064 0.950 . S
H2042 C2065 0.950 . S
H2043 C2067 0.950 . S
H2044 C2068 0.950 . S
H2045 C2069 0.951 . S
H2046 C2071 0.951 . S
H2047 C2073 0.950 . S
H2048 C2074 0.950 . S
H2049 C2076 0.950 . S
H2050 C2079 0.950 . S
H2051 C2080 0.950 . S
H2052 C2082 0.950 . S
H2053 C2083 0.950 . S
C2054 H2036 0.951 . S
C2054 C2055 1.366 . S
C2054 C2056 1.388 . S
C2055 C2054 1.366 . S
C2055 C2059 1.385 . S
C2056 H2037 0.951 . S
C2056 C2054 1.388 . S
C2056 C2057 1.366 . S
C2057 C2056 1.366 . S
C2057 C2058 1.414 . S
C2057 C2060 1.499 . S
C2058 H2038 0.950 . S
C2058 C2057 1.414 . S
C2058 C2059 1.374 . S
C2059 H2039 0.950 . S
C2059 C2055 1.385 . S
C2059 C2058 1.374 . S
C2060 C2057 1.499 . S
C2060 C2061 1.373 . S
C2060 C2062 1.389 . S
C2061 H2040 0.950 . S
C2061 C2060 1.373 . S
C2061 C2077 1.377 . S
C2062 C2060 1.389 . S
C2062 C2063 1.524 . S
C2062 C2076 1.377 . S
C2063 C2062 1.524 . S
C2063 C2064 1.397 . S
C2063 C2068 1.363 . S
C2064 H2041 0.950 . S
C2064 C2063 1.397 . S
C2064 C2065 1.334 . S
C2065 H2042 0.950 . S
C2065 C2064 1.334 . S
C2065 C2066 1.287 . S
C2066 C2065 1.287 . S
C2066 C2067 1.524 . S
C2066 H2085 0.913 . S
C2067 H2043 0.950 . S
C2067 C2066 1.524 . S
C2067 C2068 1.415 . S
C2068 H2044 0.950 . S
C2068 C2063 1.363 . S
C2068 C2067 1.415 . S
C2069 H2045 0.951 . S
C2069 C2070 1.366 . S
C2069 C2071 1.388 . S
C2070 C2069 1.366 . S
C2070 C2074 1.385 . S
C2071 H2046 0.951 . S
C2071 C2069 1.388 . S
C2071 C2072 1.366 . S
C2072 C2071 1.366 . S
C2072 C2073 1.414 . S
C2072 C2075 1.499 . S
C2073 H2047 0.950 . S
C2073 C2072 1.414 . S
C2073 C2074 1.374 . S
C2074 H2048 0.950 . S
C2074 C2070 1.385 . S
C2074 C2073 1.374 . S
C2075 C2072 1.499 . S
C2075 C2076 1.373 . S
C2075 C2077 1.389 . S
C2076 H2049 0.950 . S
C2076 C2062 1.377 . S
C2076 C2075 1.373 . S
C2077 C2061 1.377 . S
C2077 C2075 1.389 . S
C2077 C2078 1.524 . S
C2078 C2077 1.524 . S
C2078 C2079 1.397 . S
C2078 C2083 1.363 . S
C2079 H2050 0.950 . S
C2079 C2078 1.397 . S
C2079 C2080 1.334 . S
C2080 H2051 0.950 . S
C2080 C2079 1.334 . S
C2080 C2081 1.287 . S
C2081 C2080 1.287 . S
C2081 C2082 1.524 . S
C2081 H2084 0.999 . S
C2082 H2052 0.950 . S
C2082 C2081 1.524 . S
C2082 C2083 1.415 . S
C2083 H2053 0.950 . S
C2083 C2078 1.363 . S
C2083 C2082 1.415 . S
H2084 C2081 0.999 . S
H2085 C2066 0.913 . S
H2086 C2104 0.951 . S
H2087 C2106 0.951 . S
H2088 C2108 0.950 . S
H2089 C2109 0.950 . S
H2090 C2111 0.950 . S
H2091 C2114 0.950 . S
H2092 C2115 0.950 . S
H2093 C2117 0.950 . S
H2094 C2118 0.950 . S
H2095 C2119 0.951 . S
H2096 C2121 0.951 . S
H2097 C2123 0.950 . S
H2098 C2124 0.950 . S
H2099 C2126 0.950 . S
H2100 C2129 0.950 . S
H2101 C2130 0.950 . S
H2102 C2132 0.950 . S
H2103 C2133 0.950 . S
C2104 H2086 0.951 . S
C2104 C2105 1.366 . S
C2104 C2106 1.388 . S
C2105 C2104 1.366 . S
C2105 C2109 1.385 . S
C2106 H2087 0.951 . S
C2106 C2104 1.388 . S
C2106 C2107 1.366 . S
C2107 C2106 1.366 . S
C2107 C2108 1.414 . S
C2107 C2110 1.499 . S
C2108 H2088 0.950 . S
C2108 C2107 1.414 . S
C2108 C2109 1.374 . S
C2109 H2089 0.950 . S
C2109 C2105 1.385 . S
C2109 C2108 1.374 . S
C2110 C2107 1.499 . S
C2110 C2111 1.373 . S
C2110 C2112 1.389 . S
C2111 H2090 0.950 . S
C2111 C2110 1.373 . S
C2111 C2127 1.377 . S
C2112 C2110 1.389 . S
C2112 C2113 1.524 . S
C2112 C2126 1.377 . S
C2113 C2112 1.524 . S
C2113 C2114 1.397 . S
C2113 C2118 1.363 . S
C2114 H2091 0.950 . S
C2114 C2113 1.397 . S
C2114 C2115 1.334 . S
C2115 H2092 0.950 . S
C2115 C2114 1.334 . S
C2115 C2116 1.287 . S
C2116 C2115 1.287 . S
C2116 C2117 1.524 . S
C2116 H2135 0.913 . S
C2117 H2093 0.950 . S
C2117 C2116 1.524 . S
C2117 C2118 1.415 . S
C2118 H2094 0.950 . S
C2118 C2113 1.363 . S
C2118 C2117 1.415 . S
C2119 H2095 0.951 . S
C2119 C2120 1.366 . S
C2119 C2121 1.388 . S
C2120 C2119 1.366 . S
C2120 C2124 1.385 . S
C2121 H2096 0.951 . S
C2121 C2119 1.388 . S
C2121 C2122 1.366 . S
C2122 C2121 1.366 . S
C2122 C2123 1.414 . S
C2122 C2125 1.499 . S
C2123 H2097 0.950 . S
C2123 C2122 1.414 . S
C2123 C2124 1.374 . S
C2124 H2098 0.950 . S
C2124 C2120 1.385 . S
C2124 C2123 1.374 . S
C2125 C2122 1.499 . S
C2125 C2126 1.373 . S
C2125 C2127 1.389 . S
C2126 H2099 0.950 . S
C2126 C2112 1.377 . S
C2126 C2125 1.373 . S
C2127 C2111 1.377 . S
C2127 C2125 1.389 . S
C2127 C2128 1.524 . S
C2128 C2127 1.524 . S
C2128 C2129 1.397 . S
C2128 C2133 1.363 . S
C2129 H2100 0.950 . S
C2129 C2128 1.397 . S
C2129 C2130 1.334 . S
C2130 H2101 0.950 . S
C2130 C2129 1.334 . S
C2130 C2131 1.287 . S
C2131 C2130 1.287 . S
C2131 C2132 1.524 . S
C2131 H2134 0.999 . S
C2132 H2102 0.950 . S
C2132 C2131 1.524 . S
C2132 C2133 1.415 . S
C2133 H2103 0.950 . S
C2133 C2128 1.363 . S
C2133 C2132 1.415 . S
H2134 C2131 0.999 . S
H2135 C2116 0.913 . S
H2136 C2154 0.951 . S
H2137 C2156 0.951 . S
H2138 C2158 0.950 . S
H2139 C2159 0.950 . S
H2140 C2161 0.950 . S
H2141 C2164 0.950 . S
H2142 C2165 0.950 . S
H2143 C2167 0.950 . S
H2144 C2168 0.950 . S
H2145 C2169 0.951 . S
H2146 C2171 0.951 . S
H2147 C2173 0.950 . S
H2148 C2174 0.950 . S
H2149 C2176 0.950 . S
H2150 C2179 0.950 . S
H2151 C2180 0.950 . S
H2152 C2182 0.950 . S
H2153 C2183 0.950 . S
C2154 H2136 0.951 . S
C2154 C2155 1.366 . S
C2154 C2156 1.388 . S
C2155 C2154 1.366 . S
C2155 C2159 1.385 . S
C2156 H2137 0.951 . S
C2156 C2154 1.388 . S
C2156 C2157 1.366 . S
C2157 C2156 1.366 . S
C2157 C2158 1.414 . S
C2157 C2160 1.499 . S
C2158 H2138 0.950 . S
C2158 C2157 1.414 . S
C2158 C2159 1.374 . S
C2159 H2139 0.950 . S
C2159 C2155 1.385 . S
C2159 C2158 1.374 . S
C2160 C2157 1.499 . S
C2160 C2161 1.373 . S
C2160 C2162 1.389 . S
C2161 H2140 0.950 . S
C2161 C2160 1.373 . S
C2161 C2177 1.377 . S
C2162 C2160 1.389 . S
C2162 C2163 1.524 . S
C2162 C2176 1.377 . S
C2163 C2162 1.524 . S
C2163 C2164 1.397 . S
C2163 C2168 1.363 . S
C2164 H2141 0.950 . S
C2164 C2163 1.397 . S
C2164 C2165 1.334 . S
C2165 H2142 0.950 . S
C2165 C2164 1.334 . S
C2165 C2166 1.287 . S
C2166 C2165 1.287 . S
C2166 C2167 1.524 . S
C2166 H2185 0.913 . S
C2167 H2143 0.950 . S
C2167 C2166 1.524 . S
C2167 C2168 1.415 . S
C2168 H2144 0.950 . S
C2168 C2163 1.363 . S
C2168 C2167 1.415 . S
C2169 H2145 0.951 . S
C2169 C2170 1.366 . S
C2169 C2171 1.388 . S
C2170 C2169 1.366 . S
C2170 C2174 1.385 . S
C2171 H2146 0.951 . S
C2171 C2169 1.388 . S
C2171 C2172 1.366 . S
C2172 C2171 1.366 . S
C2172 C2173 1.414 . S
C2172 C2175 1.499 . S
C2173 H2147 0.950 . S
C2173 C2172 1.414 . S
C2173 C2174 1.374 . S
C2174 H2148 0.950 . S
C2174 C2170 1.385 . S
C2174 C2173 1.374 . S
C2175 C2172 1.499 . S
C2175 C2176 1.373 . S
C2175 C2177 1.389 . S
C2176 H2149 0.950 . S
C2176 C2162 1.377 . S
C2176 C2175 1.373 . S
C2177 C2161 1.377 . S
C2177 C2175 1.389 . S
C2177 C2178 1.524 . S
C2178 C2177 1.524 . S
C2178 C2179 1.397 . S
C2178 C2183 1.363 . S
C2179 H2150 0.950 . S
C2179 C2178 1.397 . S
C2179 C2180 1.334 . S
C2180 H2151 0.950 . S
C2180 C2179 1.334 . S
C2180 C2181 1.287 . S
C2181 C2180 1.287 . S
C2181 C2182 1.524 . S
C2181 H2184 0.999 . S
C2182 H2152 0.950 . S
C2182 C2181 1.524 . S
C2182 C2183 1.415 . S
C2183 H2153 0.950 . S
C2183 C2178 1.363 . S
C2183 C2182 1.415 . S
H2184 C2181 0.999 . S
H2185 C2166 0.913 . S
H2186 C2204 0.951 . S
H2187 C2206 0.951 . S
H2188 C2208 0.950 . S
H2189 C2209 0.950 . S
H2190 C2211 0.950 . S
H2191 C2214 0.950 . S
H2192 C2215 0.950 . S
H2193 C2217 0.950 . S
H2194 C2218 0.950 . S
H2195 C2219 0.951 . S
H2196 C2221 0.951 . S
H2197 C2223 0.950 . S
H2198 C2224 0.950 . S
H2199 C2226 0.950 . S
H2200 C2229 0.950 . S
H2201 C2230 0.950 . S
H2202 C2232 0.950 . S
H2203 C2233 0.950 . S
C2204 H2186 0.951 . S
C2204 C2205 1.366 . S
C2204 C2206 1.388 . S
C2205 C2204 1.366 . S
C2205 C2209 1.385 . S
C2206 H2187 0.951 . S
C2206 C2204 1.388 . S
C2206 C2207 1.366 . S
C2207 C2206 1.366 . S
C2207 C2208 1.414 . S
C2207 C2210 1.499 . S
C2208 H2188 0.950 . S
C2208 C2207 1.414 . S
C2208 C2209 1.374 . S
C2209 H2189 0.950 . S
C2209 C2205 1.385 . S
C2209 C2208 1.374 . S
C2210 C2207 1.499 . S
C2210 C2211 1.373 . S
C2210 C2212 1.389 . S
C2211 H2190 0.950 . S
C2211 C2210 1.373 . S
C2211 C2227 1.377 . S
C2212 C2210 1.389 . S
C2212 C2213 1.524 . S
C2212 C2226 1.377 . S
C2213 C2212 1.524 . S
C2213 C2214 1.397 . S
C2213 C2218 1.363 . S
C2214 H2191 0.950 . S
C2214 C2213 1.397 . S
C2214 C2215 1.334 . S
C2215 H2192 0.950 . S
C2215 C2214 1.334 . S
C2215 C2216 1.287 . S
C2216 C2215 1.287 . S
C2216 C2217 1.524 . S
C2216 H2235 0.913 . S
C2217 H2193 0.950 . S
C2217 C2216 1.524 . S
C2217 C2218 1.415 . S
C2218 H2194 0.950 . S
C2218 C2213 1.363 . S
C2218 C2217 1.415 . S
C2219 H2195 0.951 . S
C2219 C2220 1.366 . S
C2219 C2221 1.388 . S
C2220 C2219 1.366 . S
C2220 C2224 1.385 . S
C2221 H2196 0.951 . S
C2221 C2219 1.388 . S
C2221 C2222 1.366 . S
C2222 C2221 1.366 . S
C2222 C2223 1.414 . S
C2222 C2225 1.499 . S
C2223 H2197 0.950 . S
C2223 C2222 1.414 . S
C2223 C2224 1.374 . S
C2224 H2198 0.950 . S
C2224 C2220 1.385 . S
C2224 C2223 1.374 . S
C2225 C2222 1.499 . S
C2225 C2226 1.373 . S
C2225 C2227 1.389 . S
C2226 H2199 0.950 . S
C2226 C2212 1.377 . S
C2226 C2225 1.373 . S
C2227 C2211 1.377 . S
C2227 C2225 1.389 . S
C2227 C2228 1.524 . S
C2228 C2227 1.524 . S
C2228 C2229 1.397 . S
C2228 C2233 1.363 . S
C2229 H2200 0.950 . S
C2229 C2228 1.397 . S
C2229 C2230 1.334 . S
C2230 H2201 0.950 . S
C2230 C2229 1.334 . S
C2230 C2231 1.287 . S
C2231 C2230 1.287 . S
C2231 C2232 1.524 . S
C2231 H2234 0.999 . S
C2232 H2202 0.950 . S
C2232 C2231 1.524 . S
C2232 C2233 1.415 . S
C2233 H2203 0.950 . S
C2233 C2228 1.363 . S
C2233 C2232 1.415 . S
H2234 C2231 0.999 . S
H2235 C2216 0.913 . S
H2236 C2254 0.951 . S
H2237 C2256 0.951 . S
H2238 C2258 0.950 . S
H2239 C2259 0.950 . S
H2240 C2261 0.950 . S
H2241 C2264 0.950 . S
H2242 C2265 0.950 . S
H2243 C2267 0.950 . S
H2244 C2268 0.950 . S
H2245 C2269 0.951 . S
H2246 C2271 0.951 . S
H2247 C2273 0.950 . S
H2248 C2274 0.950 . S
H2249 C2276 0.950 . S
H2250 C2279 0.950 . S
H2251 C2280 0.950 . S
H2252 C2282 0.950 . S
H2253 C2283 0.950 . S
C2254 H2236 0.951 . S
C2254 C2255 1.366 . S
C2254 C2256 1.388 . S
C2255 C2254 1.366 . S
C2255 C2259 1.385 . S
C2256 H2237 0.951 . S
C2256 C2254 1.388 . S
C2256 C2257 1.366 . S
C2257 C2256 1.366 . S
C2257 C2258 1.414 . S
C2257 C2260 1.499 . S
C2258 H2238 0.950 . S
C2258 C2257 1.414 . S
C2258 C2259 1.374 . S
C2259 H2239 0.950 . S
C2259 C2255 1.385 . S
C2259 C2258 1.374 . S
C2260 C2257 1.499 . S
C2260 C2261 1.373 . S
C2260 C2262 1.389 . S
C2261 H2240 0.950 . S
C2261 C2260 1.373 . S
C2261 C2277 1.377 . S
C2262 C2260 1.389 . S
C2262 C2263 1.524 . S
C2262 C2276 1.377 . S
C2263 C2262 1.524 . S
C2263 C2264 1.397 . S
C2263 C2268 1.363 . S
C2264 H2241 0.950 . S
C2264 C2263 1.397 . S
C2264 C2265 1.334 . S
C2265 H2242 0.950 . S
C2265 C2264 1.334 . S
C2265 C2266 1.287 . S
C2266 C2265 1.287 . S
C2266 C2267 1.524 . S
C2266 H2285 0.913 . S
C2267 H2243 0.950 . S
C2267 C2266 1.524 . S
C2267 C2268 1.415 . S
C2268 H2244 0.950 . S
C2268 C2263 1.363 . S
C2268 C2267 1.415 . S
C2269 H2245 0.951 . S
C2269 C2270 1.366 . S
C2269 C2271 1.388 . S
C2270 C2269 1.366 . S
C2270 C2274 1.385 . S
C2271 H2246 0.951 . S
C2271 C2269 1.388 . S
C2271 C2272 1.366 . S
C2272 C2271 1.366 . S
C2272 C2273 1.414 . S
C2272 C2275 1.499 . S
C2273 H2247 0.950 . S
C2273 C2272 1.414 . S
C2273 C2274 1.374 . S
C2274 H2248 0.950 . S
C2274 C2270 1.385 . S
C2274 C2273 1.374 . S
C2275 C2272 1.499 . S
C2275 C2276 1.373 . S
C2275 C2277 1.389 . S
C2276 H2249 0.950 . S
C2276 C2262 1.377 . S
C2276 C2275 1.373 . S
C2277 C2261 1.377 . S
C2277 C2275 1.389 . S
C2277 C2278 1.524 . S
C2278 C2277 1.524 . S
C2278 C2279 1.397 . S
C2278 C2283 1.363 . S
C2279 H2250 0.950 . S
C2279 C2278 1.397 . S
C2279 C2280 1.334 . S
C2280 H2251 0.950 . S
C2280 C2279 1.334 . S
C2280 C2281 1.287 . S
C2281 C2280 1.287 . S
C2281 C2282 1.524 . S
C2281 H2284 0.999 . S
C2282 H2252 0.950 . S
C2282 C2281 1.524 . S
C2282 C2283 1.415 . S
C2283 H2253 0.950 . S
C2283 C2278 1.363 . S
C2283 C2282 1.415 . S
H2284 C2281 0.999 . S
H2285 C2266 0.913 . S
H2286 C2304 0.951 . S
H2287 C2306 0.951 . S
H2288 C2308 0.950 . S
H2289 C2309 0.950 . S
H2290 C2311 0.950 . S
H2291 C2314 0.950 . S
H2292 C2315 0.950 . S
H2293 C2317 0.950 . S
H2294 C2318 0.950 . S
H2295 C2319 0.951 . S
H2296 C2321 0.951 . S
H2297 C2323 0.950 . S
H2298 C2324 0.950 . S
H2299 C2326 0.950 . S
H2300 C2329 0.950 . S
H2301 C2330 0.950 . S
H2302 C2332 0.950 . S
H2303 C2333 0.950 . S
C2304 H2286 0.951 . S
C2304 C2305 1.366 . S
C2304 C2306 1.388 . S
C2305 C2304 1.366 . S
C2305 C2309 1.385 . S
C2306 H2287 0.951 . S
C2306 C2304 1.388 . S
C2306 C2307 1.366 . S
C2307 C2306 1.366 . S
C2307 C2308 1.414 . S
C2307 C2310 1.499 . S
C2308 H2288 0.950 . S
C2308 C2307 1.414 . S
C2308 C2309 1.374 . S
C2309 H2289 0.950 . S
C2309 C2305 1.385 . S
C2309 C2308 1.374 . S
C2310 C2307 1.499 . S
C2310 C2311 1.373 . S
C2310 C2312 1.389 . S
C2311 H2290 0.950 . S
C2311 C2310 1.373 . S
C2311 C2327 1.377 . S
C2312 C2310 1.389 . S
C2312 C2313 1.524 . S
C2312 C2326 1.377 . S
C2313 C2312 1.524 . S
C2313 C2314 1.397 . S
C2313 C2318 1.363 . S
C2314 H2291 0.950 . S
C2314 C2313 1.397 . S
C2314 C2315 1.334 . S
C2315 H2292 0.950 . S
C2315 C2314 1.334 . S
C2315 C2316 1.287 . S
C2316 C2315 1.287 . S
C2316 C2317 1.524 . S
C2316 H2335 0.913 . S
C2317 H2293 0.950 . S
C2317 C2316 1.524 . S
C2317 C2318 1.415 . S
C2318 H2294 0.950 . S
C2318 C2313 1.363 . S
C2318 C2317 1.415 . S
C2319 H2295 0.951 . S
C2319 C2320 1.366 . S
C2319 C2321 1.388 . S
C2320 C2319 1.366 . S
C2320 C2324 1.385 . S
C2321 H2296 0.951 . S
C2321 C2319 1.388 . S
C2321 C2322 1.366 . S
C2322 C2321 1.366 . S
C2322 C2323 1.414 . S
C2322 C2325 1.499 . S
C2323 H2297 0.950 . S
C2323 C2322 1.414 . S
C2323 C2324 1.374 . S
C2324 H2298 0.950 . S
C2324 C2320 1.385 . S
C2324 C2323 1.374 . S
C2325 C2322 1.499 . S
C2325 C2326 1.373 . S
C2325 C2327 1.389 . S
C2326 H2299 0.950 . S
C2326 C2312 1.377 . S
C2326 C2325 1.373 . S
C2327 C2311 1.377 . S
C2327 C2325 1.389 . S
C2327 C2328 1.524 . S
C2328 C2327 1.524 . S
C2328 C2329 1.397 . S
C2328 C2333 1.363 . S
C2329 H2300 0.950 . S
C2329 C2328 1.397 . S
C2329 C2330 1.334 . S
C2330 H2301 0.950 . S
C2330 C2329 1.334 . S
C2330 C2331 1.287 . S
C2331 C2330 1.287 . S
C2331 C2332 1.524 . S
C2331 H2334 0.999 . S
C2332 H2302 0.950 . S
C2332 C2331 1.524 . S
C2332 C2333 1.415 . S
C2333 H2303 0.950 . S
C2333 C2328 1.363 . S
C2333 C2332 1.415 . S
H2334 C2331 0.999 . S
H2335 C2316 0.913 . S
H2336 C2354 0.951 . S
H2337 C2356 0.951 . S
H2338 C2358 0.950 . S
H2339 C2359 0.950 . S
H2340 C2361 0.950 . S
H2341 C2364 0.950 . S
H2342 C2365 0.950 . S
H2343 C2367 0.950 . S
H2344 C2368 0.950 . S
H2345 C2369 0.951 . S
H2346 C2371 0.951 . S
H2347 C2373 0.950 . S
H2348 C2374 0.950 . S
H2349 C2376 0.950 . S
H2350 C2379 0.950 . S
H2351 C2380 0.950 . S
H2352 C2382 0.950 . S
H2353 C2383 0.950 . S
C2354 H2336 0.951 . S
C2354 C2355 1.366 . S
C2354 C2356 1.388 . S
C2355 C2354 1.366 . S
C2355 C2359 1.385 . S
C2356 H2337 0.951 . S
C2356 C2354 1.388 . S
C2356 C2357 1.366 . S
C2357 C2356 1.366 . S
C2357 C2358 1.414 . S
C2357 C2360 1.499 . S
C2358 H2338 0.950 . S
C2358 C2357 1.414 . S
C2358 C2359 1.374 . S
C2359 H2339 0.950 . S
C2359 C2355 1.385 . S
C2359 C2358 1.374 . S
C2360 C2357 1.499 . S
C2360 C2361 1.373 . S
C2360 C2362 1.389 . S
C2361 H2340 0.950 . S
C2361 C2360 1.373 . S
C2361 C2377 1.377 . S
C2362 C2360 1.389 . S
C2362 C2363 1.524 . S
C2362 C2376 1.377 . S
C2363 C2362 1.524 . S
C2363 C2364 1.397 . S
C2363 C2368 1.363 . S
C2364 H2341 0.950 . S
C2364 C2363 1.397 . S
C2364 C2365 1.334 . S
C2365 H2342 0.950 . S
C2365 C2364 1.334 . S
C2365 C2366 1.287 . S
C2366 C2365 1.287 . S
C2366 C2367 1.524 . S
C2366 H2385 0.913 . S
C2367 H2343 0.950 . S
C2367 C2366 1.524 . S
C2367 C2368 1.415 . S
C2368 H2344 0.950 . S
C2368 C2363 1.363 . S
C2368 C2367 1.415 . S
C2369 H2345 0.951 . S
C2369 C2370 1.366 . S
C2369 C2371 1.388 . S
C2370 C2369 1.366 . S
C2370 C2374 1.385 . S
C2371 H2346 0.951 . S
C2371 C2369 1.388 . S
C2371 C2372 1.366 . S
C2372 C2371 1.366 . S
C2372 C2373 1.414 . S
C2372 C2375 1.499 . S
C2373 H2347 0.950 . S
C2373 C2372 1.414 . S
C2373 C2374 1.374 . S
C2374 H2348 0.950 . S
C2374 C2370 1.385 . S
C2374 C2373 1.374 . S
C2375 C2372 1.499 . S
C2375 C2376 1.373 . S
C2375 C2377 1.389 . S
C2376 H2349 0.950 . S
C2376 C2362 1.377 . S
C2376 C2375 1.373 . S
C2377 C2361 1.377 . S
C2377 C2375 1.389 . S
C2377 C2378 1.524 . S
C2378 C2377 1.524 . S
C2378 C2379 1.397 . S
C2378 C2383 1.363 . S
C2379 H2350 0.950 . S
C2379 C2378 1.397 . S
C2379 C2380 1.334 . S
C2380 H2351 0.950 . S
C2380 C2379 1.334 . S
C2380 C2381 1.287 . S
C2381 C2380 1.287 . S
C2381 C2382 1.524 . S
C2381 H2384 0.999 . S
C2382 H2352 0.950 . S
C2382 C2381 1.524 . S
C2382 C2383 1.415 . S
C2383 H2353 0.950 . S
C2383 C2378 1.363 . S
C2383 C2382 1.415 . S
H2384 C2381 0.999 . S
H2385 C2366 0.913 . S
H2386 C2404 0.951 . S
H2387 C2406 0.951 . S
H2388 C2408 0.950 . S
H2389 C2409 0.950 . S
H2390 C2411 0.950 . S
H2391 C2414 0.950 . S
H2392 C2415 0.950 . S
H2393 C2417 0.950 . S
H2394 C2418 0.950 . S
H2395 C2419 0.951 . S
H2396 C2421 0.951 . S
H2397 C2423 0.950 . S
H2398 C2424 0.950 . S
H2399 C2426 0.950 . S
H2400 C2429 0.950 . S
H2401 C2430 0.950 . S
H2402 C2432 0.950 . S
H2403 C2433 0.950 . S
C2404 H2386 0.951 . S
C2404 C2405 1.366 . S
C2404 C2406 1.388 . S
C2405 C2404 1.366 . S
C2405 C2409 1.385 . S
C2406 H2387 0.951 . S
C2406 C2404 1.388 . S
C2406 C2407 1.366 . S
C2407 C2406 1.366 . S
C2407 C2408 1.414 . S
C2407 C2410 1.499 . S
C2408 H2388 0.950 . S
C2408 C2407 1.414 . S
C2408 C2409 1.374 . S
C2409 H2389 0.950 . S
C2409 C2405 1.385 . S
C2409 C2408 1.374 . S
C2410 C2407 1.499 . S
C2410 C2411 1.373 . S
C2410 C2412 1.389 . S
C2411 H2390 0.950 . S
C2411 C2410 1.373 . S
C2411 C2427 1.377 . S
C2412 C2410 1.389 . S
C2412 C2413 1.524 . S
C2412 C2426 1.377 . S
C2413 C2412 1.524 . S
C2413 C2414 1.397 . S
C2413 C2418 1.363 . S
C2414 H2391 0.950 . S
C2414 C2413 1.397 . S
C2414 C2415 1.334 . S
C2415 H2392 0.950 . S
C2415 C2414 1.334 . S
C2415 C2416 1.287 . S
C2416 C2415 1.287 . S
C2416 C2417 1.524 . S
C2416 H2435 0.913 . S
C2417 H2393 0.950 . S
C2417 C2416 1.524 . S
C2417 C2418 1.415 . S
C2418 H2394 0.950 . S
C2418 C2413 1.363 . S
C2418 C2417 1.415 . S
C2419 H2395 0.951 . S
C2419 C2420 1.366 . S
C2419 C2421 1.388 . S
C2420 C2419 1.366 . S
C2420 C2424 1.385 . S
C2421 H2396 0.951 . S
C2421 C2419 1.388 . S
C2421 C2422 1.366 . S
C2422 C2421 1.366 . S
C2422 C2423 1.414 . S
C2422 C2425 1.499 . S
C2423 H2397 0.950 . S
C2423 C2422 1.414 . S
C2423 C2424 1.374 . S
C2424 H2398 0.950 . S
C2424 C2420 1.385 . S
C2424 C2423 1.374 . S
C2425 C2422 1.499 . S
C2425 C2426 1.373 . S
C2425 C2427 1.389 . S
C2426 H2399 0.950 . S
C2426 C2412 1.377 . S
C2426 C2425 1.373 . S
C2427 C2411 1.377 . S
C2427 C2425 1.389 . S
C2427 C2428 1.524 . S
C2428 C2427 1.524 . S
C2428 C2429 1.397 . S
C2428 C2433 1.363 . S
C2429 H2400 0.950 . S
C2429 C2428 1.397 . S
C2429 C2430 1.334 . S
C2430 H2401 0.950 . S
C2430 C2429 1.334 . S
C2430 C2431 1.287 . S
C2431 C2430 1.287 . S
C2431 C2432 1.524 . S
C2431 H2434 0.999 . S
C2432 H2402 0.950 . S
C2432 C2431 1.524 . S
C2432 C2433 1.415 . S
C2433 H2403 0.950 . S
C2433 C2428 1.363 . S
C2433 C2432 1.415 . S
H2434 C2431 0.999 . S
H2435 C2416 0.913 . S
H2436 C2454 0.951 . S
H2437 C2456 0.951 . S
H2438 C2458 0.950 . S
H2439 C2459 0.950 . S
H2440 C2461 0.950 . S
H2441 C2464 0.950 . S
H2442 C2465 0.950 1_556 S
H2443 C2467 0.950 . S
H2444 C2468 0.950 . S
H2445 C2469 0.951 . S
H2446 C2471 0.951 . S
H2447 C2473 0.950 . S
H2448 C2474 0.950 . S
H2449 C2476 0.950 . S
H2450 C2479 0.950 . S
H2451 C2480 0.950 . S
H2452 C2482 0.950 . S
H2453 C2483 0.950 . S
C2454 H2436 0.951 . S
C2454 C2455 1.366 . S
C2454 C2456 1.388 . S
C2455 C2454 1.366 . S
C2455 C2459 1.385 . S
C2456 H2437 0.951 . S
C2456 C2454 1.388 . S
C2456 C2457 1.366 . S
C2457 C2456 1.366 . S
C2457 C2458 1.414 . S
C2457 C2460 1.499 . S
C2458 H2438 0.950 . S
C2458 C2457 1.414 . S
C2458 C2459 1.374 . S
C2459 H2439 0.950 . S
C2459 C2455 1.385 . S
C2459 C2458 1.374 . S
C2460 C2457 1.499 . S
C2460 C2461 1.373 . S
C2460 C2462 1.389 . S
C2461 H2440 0.950 . S
C2461 C2460 1.373 . S
C2461 C2477 1.377 . S
C2462 C2460 1.389 . S
C2462 C2463 1.524 . S
C2462 C2476 1.377 . S
C2463 C2462 1.524 . S
C2463 C2464 1.397 . S
C2463 C2468 1.363 . S
C2464 H2441 0.950 . S
C2464 C2463 1.397 . S
C2464 C2465 1.334 . S
C2465 H2442 0.950 1_554 S
C2465 C2464 1.334 . S
C2465 C2466 1.287 . S
C2466 C2465 1.287 . S
C2466 C2467 1.524 . S
C2466 H2485 0.913 1_554 S
C2467 H2443 0.950 . S
C2467 C2466 1.524 . S
C2467 C2468 1.415 . S
C2468 H2444 0.950 . S
C2468 C2463 1.363 . S
C2468 C2467 1.415 . S
C2469 H2445 0.951 . S
C2469 C2470 1.366 . S
C2469 C2471 1.388 . S
C2470 C2469 1.366 . S
C2470 C2474 1.385 . S
C2471 H2446 0.951 . S
C2471 C2469 1.388 . S
C2471 C2472 1.366 . S
C2472 C2471 1.366 . S
C2472 C2473 1.414 . S
C2472 C2475 1.499 . S
C2473 H2447 0.950 . S
C2473 C2472 1.414 . S
C2473 C2474 1.374 . S
C2474 H2448 0.950 . S
C2474 C2470 1.385 . S
C2474 C2473 1.374 . S
C2475 C2472 1.499 . S
C2475 C2476 1.373 . S
C2475 C2477 1.389 . S
C2476 H2449 0.950 . S
C2476 C2462 1.377 . S
C2476 C2475 1.373 . S
C2477 C2461 1.377 . S
C2477 C2475 1.389 . S
C2477 C2478 1.524 . S
C2478 C2477 1.524 . S
C2478 C2479 1.397 . S
C2478 C2483 1.363 . S
C2479 H2450 0.950 . S
C2479 C2478 1.397 . S
C2479 C2480 1.334 . S
C2480 H2451 0.950 . S
C2480 C2479 1.334 . S
C2480 C2481 1.287 . S
C2481 C2480 1.287 . S
C2481 C2482 1.524 . S
C2481 H2484 0.999 . S
C2482 H2452 0.950 . S
C2482 C2481 1.524 . S
C2482 C2483 1.415 . S
C2483 H2453 0.950 . S
C2483 C2478 1.363 . S
C2483 C2482 1.415 . S
H2484 C2481 0.999 . S
H2485 C2466 0.913 1_556 S
H2486 C2504 0.951 . S
H2487 C2506 0.951 . S
H2488 C2508 0.950 . S
H2489 C2509 0.950 . S
H2490 C2511 0.950 . S
H2491 C2514 0.950 . S
H2492 C2515 0.950 . S
H2493 C2517 0.950 . S
H2494 C2518 0.950 . S
H2495 C2519 0.951 . S
H2496 C2521 0.951 . S
H2497 C2523 0.950 . S
H2498 C2524 0.950 . S
H2499 C2526 0.950 . S
H2500 C2529 0.950 . S
H2501 C2530 0.950 . S
H2502 C2532 0.950 . S
H2503 C2533 0.950 . S
C2504 H2486 0.951 . S
C2504 C2505 1.366 . S
C2504 C2506 1.388 . S
C2505 C2504 1.366 . S
C2505 C2509 1.385 . S
C2506 H2487 0.951 . S
C2506 C2504 1.388 . S
C2506 C2507 1.366 . S
C2507 C2506 1.366 . S
C2507 C2508 1.414 . S
C2507 C2510 1.499 . S
C2508 H2488 0.950 . S
C2508 C2507 1.414 . S
C2508 C2509 1.374 . S
C2509 H2489 0.950 . S
C2509 C2505 1.385 . S
C2509 C2508 1.374 . S
C2510 C2507 1.499 . S
C2510 C2511 1.373 . S
C2510 C2512 1.389 . S
C2511 H2490 0.950 . S
C2511 C2510 1.373 . S
C2511 C2527 1.377 . S
C2512 C2510 1.389 . S
C2512 C2513 1.524 . S
C2512 C2526 1.377 . S
C2513 C2512 1.524 . S
C2513 C2514 1.397 . S
C2513 C2518 1.363 . S
C2514 H2491 0.950 . S
C2514 C2513 1.397 . S
C2514 C2515 1.334 . S
C2515 H2492 0.950 . S
C2515 C2514 1.334 . S
C2515 C2516 1.287 . S
C2516 C2515 1.287 . S
C2516 C2517 1.524 . S
C2516 H2535 0.913 . S
C2517 H2493 0.950 . S
C2517 C2516 1.524 . S
C2517 C2518 1.415 . S
C2518 H2494 0.950 . S
C2518 C2513 1.363 . S
C2518 C2517 1.415 . S
C2519 H2495 0.951 . S
C2519 C2520 1.366 . S
C2519 C2521 1.388 . S
C2520 C2519 1.366 . S
C2520 C2524 1.385 . S
C2521 H2496 0.951 . S
C2521 C2519 1.388 . S
C2521 C2522 1.366 . S
C2522 C2521 1.366 . S
C2522 C2523 1.414 . S
C2522 C2525 1.499 . S
C2523 H2497 0.950 . S
C2523 C2522 1.414 . S
C2523 C2524 1.374 . S
C2524 H2498 0.950 . S
C2524 C2520 1.385 . S
C2524 C2523 1.374 . S
C2525 C2522 1.499 . S
C2525 C2526 1.373 . S
C2525 C2527 1.389 . S
C2526 H2499 0.950 . S
C2526 C2512 1.377 . S
C2526 C2525 1.373 . S
C2527 C2511 1.377 . S
C2527 C2525 1.389 . S
C2527 C2528 1.524 . S
C2528 C2527 1.524 . S
C2528 C2529 1.397 . S
C2528 C2533 1.363 . S
C2529 H2500 0.950 . S
C2529 C2528 1.397 . S
C2529 C2530 1.334 . S
C2530 H2501 0.950 . S
C2530 C2529 1.334 . S
C2530 C2531 1.287 . S
C2531 C2530 1.287 . S
C2531 C2532 1.524 . S
C2531 H2534 0.999 . S
C2532 H2502 0.950 . S
C2532 C2531 1.524 . S
C2532 C2533 1.415 . S
C2533 H2503 0.950 . S
C2533 C2528 1.363 . S
C2533 C2532 1.415 . S
H2534 C2531 0.999 . S
H2535 C2516 0.913 . S
H2536 C2554 0.951 . S
H2537 C2556 0.951 . S
H2538 C2558 0.950 . S
H2539 C2559 0.950 . S
H2540 C2561 0.950 . S
H2541 C2564 0.950 . S
H2542 C2565 0.950 . S
H2543 C2567 0.950 . S
H2544 C2568 0.950 . S
H2545 C2569 0.951 . S
H2546 C2571 0.951 . S
H2547 C2573 0.950 . S
H2548 C2574 0.950 . S
H2549 C2576 0.950 . S
H2550 C2579 0.950 . S
H2551 C2580 0.950 . S
H2552 C2582 0.950 . S
H2553 C2583 0.950 . S
C2554 H2536 0.951 . S
C2554 C2555 1.366 . S
C2554 C2556 1.388 . S
C2555 C2554 1.366 . S
C2555 C2559 1.385 . S
C2556 H2537 0.951 . S
C2556 C2554 1.388 . S
C2556 C2557 1.366 . S
C2557 C2556 1.366 . S
C2557 C2558 1.414 . S
C2557 C2560 1.499 . S
C2558 H2538 0.950 . S
C2558 C2557 1.414 . S
C2558 C2559 1.374 . S
C2559 H2539 0.950 . S
C2559 C2555 1.385 . S
C2559 C2558 1.374 . S
C2560 C2557 1.499 . S
C2560 C2561 1.373 . S
C2560 C2562 1.389 . S
C2561 H2540 0.950 . S
C2561 C2560 1.373 . S
C2561 C2577 1.377 . S
C2562 C2560 1.389 . S
C2562 C2563 1.524 . S
C2562 C2576 1.377 . S
C2563 C2562 1.524 . S
C2563 C2564 1.397 . S
C2563 C2568 1.363 . S
C2564 H2541 0.950 . S
C2564 C2563 1.397 . S
C2564 C2565 1.334 . S
C2565 H2542 0.950 . S
C2565 C2564 1.334 . S
C2565 C2566 1.287 . S
C2566 C2565 1.287 . S
C2566 C2567 1.524 . S
C2566 H2585 0.913 . S
C2567 H2543 0.950 . S
C2567 C2566 1.524 . S
C2567 C2568 1.415 . S
C2568 H2544 0.950 . S
C2568 C2563 1.363 . S
C2568 C2567 1.415 . S
C2569 H2545 0.951 . S
C2569 C2570 1.366 . S
C2569 C2571 1.388 . S
C2570 C2569 1.366 . S
C2570 C2574 1.385 . S
C2571 H2546 0.951 . S
C2571 C2569 1.388 . S
C2571 C2572 1.366 . S
C2572 C2571 1.366 . S
C2572 C2573 1.414 . S
C2572 C2575 1.499 . S
C2573 H2547 0.950 . S
C2573 C2572 1.414 . S
C2573 C2574 1.374 . S
C2574 H2548 0.950 . S
C2574 C2570 1.385 . S
C2574 C2573 1.374 . S
C2575 C2572 1.499 . S
C2575 C2576 1.373 . S
C2575 C2577 1.389 . S
C2576 H2549 0.950 . S
C2576 C2562 1.377 . S
C2576 C2575 1.373 . S
C2577 C2561 1.377 . S
C2577 C2575 1.389 . S
C2577 C2578 1.524 . S
C2578 C2577 1.524 . S
C2578 C2579 1.397 . S
C2578 C2583 1.363 . S
C2579 H2550 0.950 . S
C2579 C2578 1.397 . S
C2579 C2580 1.334 . S
C2580 H2551 0.950 . S
C2580 C2579 1.334 . S
C2580 C2581 1.287 . S
C2581 C2580 1.287 . S
C2581 C2582 1.524 . S
C2581 H2584 0.999 . S
C2582 H2552 0.950 . S
C2582 C2581 1.524 . S
C2582 C2583 1.415 . S
C2583 H2553 0.950 . S
C2583 C2578 1.363 . S
C2583 C2582 1.415 . S
H2584 C2581 0.999 . S
H2585 C2566 0.913 . S
H2586 C2604 0.951 . S
H2587 C2606 0.951 . S
H2588 C2608 0.950 . S
H2589 C2609 0.950 . S
H2590 C2611 0.950 . S
H2591 C2614 0.950 . S
H2592 C2615 0.950 . S
H2593 C2617 0.950 . S
H2594 C2618 0.950 . S
H2595 C2619 0.951 . S
H2596 C2621 0.951 . S
H2597 C2623 0.950 . S
H2598 C2624 0.950 . S
H2599 C2626 0.950 . S
H2600 C2629 0.950 . S
H2601 C2630 0.950 . S
H2602 C2632 0.950 . S
H2603 C2633 0.950 . S
C2604 H2586 0.951 . S
C2604 C2605 1.366 . S
C2604 C2606 1.388 . S
C2605 C2604 1.366 . S
C2605 C2609 1.385 . S
C2606 H2587 0.951 . S
C2606 C2604 1.388 . S
C2606 C2607 1.366 . S
C2607 C2606 1.366 . S
C2607 C2608 1.414 . S
C2607 C2610 1.499 . S
C2608 H2588 0.950 . S
C2608 C2607 1.414 . S
C2608 C2609 1.374 . S
C2609 H2589 0.950 . S
C2609 C2605 1.385 . S
C2609 C2608 1.374 . S
C2610 C2607 1.499 . S
C2610 C2611 1.373 . S
C2610 C2612 1.389 . S
C2611 H2590 0.950 . S
C2611 C2610 1.373 . S
C2611 C2627 1.377 . S
C2612 C2610 1.389 . S
C2612 C2613 1.524 . S
C2612 C2626 1.377 . S
C2613 C2612 1.524 . S
C2613 C2614 1.397 . S
C2613 C2618 1.363 . S
C2614 H2591 0.950 . S
C2614 C2613 1.397 . S
C2614 C2615 1.334 . S
C2615 H2592 0.950 . S
C2615 C2614 1.334 . S
C2615 C2616 1.287 . S
C2616 C2615 1.287 . S
C2616 C2617 1.524 . S
C2616 H2635 0.913 . S
C2617 H2593 0.950 . S
C2617 C2616 1.524 . S
C2617 C2618 1.415 . S
C2618 H2594 0.950 . S
C2618 C2613 1.363 . S
C2618 C2617 1.415 . S
C2619 H2595 0.951 . S
C2619 C2620 1.366 . S
C2619 C2621 1.388 . S
C2620 C2619 1.366 . S
C2620 C2624 1.385 . S
C2621 H2596 0.951 . S
C2621 C2619 1.388 . S
C2621 C2622 1.366 . S
C2622 C2621 1.366 . S
C2622 C2623 1.414 . S
C2622 C2625 1.499 . S
C2623 H2597 0.950 . S
C2623 C2622 1.414 . S
C2623 C2624 1.374 . S
C2624 H2598 0.950 . S
C2624 C2620 1.385 . S
C2624 C2623 1.374 . S
C2625 C2622 1.499 . S
C2625 C2626 1.373 . S
C2625 C2627 1.389 . S
C2626 H2599 0.950 . S
C2626 C2612 1.377 . S
C2626 C2625 1.373 . S
C2627 C2611 1.377 . S
C2627 C2625 1.389 . S
C2627 C2628 1.524 . S
C2628 C2627 1.524 . S
C2628 C2629 1.397 . S
C2628 C2633 1.363 . S
C2629 H2600 0.950 . S
C2629 C2628 1.397 . S
C2629 C2630 1.334 . S
C2630 H2601 0.950 . S
C2630 C2629 1.334 . S
C2630 C2631 1.287 . S
C2631 C2630 1.287 . S
C2631 C2632 1.524 . S
C2631 H2634 0.999 . S
C2632 H2602 0.950 . S
C2632 C2631 1.524 . S
C2632 C2633 1.415 . S
C2633 H2603 0.950 . S
C2633 C2628 1.363 . S
C2633 C2632 1.415 . S
H2634 C2631 0.999 . S
H2635 C2616 0.913 . S
H2636 C2654 0.951 . S
H2637 C2656 0.951 . S
H2638 C2658 0.950 . S
H2639 C2659 0.950 . S
H2640 C2661 0.950 . S
H2641 C2664 0.950 . S
H2642 C2665 0.950 . S
H2643 C2667 0.950 . S
H2644 C2668 0.950 . S
H2645 C2669 0.951 . S
H2646 C2671 0.951 . S
H2647 C2673 0.950 . S
H2648 C2674 0.950 . S
H2649 C2676 0.950 . S
H2650 C2679 0.950 . S
H2651 C2680 0.950 . S
H2652 C2682 0.950 . S
H2653 C2683 0.950 . S
C2654 H2636 0.951 . S
C2654 C2655 1.366 . S
C2654 C2656 1.388 . S
C2655 C2654 1.366 . S
C2655 C2659 1.385 . S
C2656 H2637 0.951 . S
C2656 C2654 1.388 . S
C2656 C2657 1.366 . S
C2657 C2656 1.366 . S
C2657 C2658 1.414 . S
C2657 C2660 1.499 . S
C2658 H2638 0.950 . S
C2658 C2657 1.414 . S
C2658 C2659 1.374 . S
C2659 H2639 0.950 . S
C2659 C2655 1.385 . S
C2659 C2658 1.374 . S
C2660 C2657 1.499 . S
C2660 C2661 1.373 . S
C2660 C2662 1.389 . S
C2661 H2640 0.950 . S
C2661 C2660 1.373 . S
C2661 C2677 1.377 . S
C2662 C2660 1.389 . S
C2662 C2663 1.524 . S
C2662 C2676 1.377 . S
C2663 C2662 1.524 . S
C2663 C2664 1.397 . S
C2663 C2668 1.363 . S
C2664 H2641 0.950 . S
C2664 C2663 1.397 . S
C2664 C2665 1.334 . S
C2665 H2642 0.950 . S
C2665 C2664 1.334 . S
C2665 C2666 1.287 . S
C2666 C2665 1.287 . S
C2666 C2667 1.524 . S
C2666 H2685 0.913 . S
C2667 H2643 0.950 . S
C2667 C2666 1.524 . S
C2667 C2668 1.415 . S
C2668 H2644 0.950 . S
C2668 C2663 1.363 . S
C2668 C2667 1.415 . S
C2669 H2645 0.951 . S
C2669 C2670 1.366 . S
C2669 C2671 1.388 . S
C2670 C2669 1.366 . S
C2670 C2674 1.385 . S
C2671 H2646 0.951 . S
C2671 C2669 1.388 . S
C2671 C2672 1.366 . S
C2672 C2671 1.366 . S
C2672 C2673 1.414 . S
C2672 C2675 1.499 . S
C2673 H2647 0.950 . S
C2673 C2672 1.414 . S
C2673 C2674 1.374 . S
C2674 H2648 0.950 . S
C2674 C2670 1.385 . S
C2674 C2673 1.374 . S
C2675 C2672 1.499 . S
C2675 C2676 1.373 . S
C2675 C2677 1.389 . S
C2676 H2649 0.950 . S
C2676 C2662 1.377 . S
C2676 C2675 1.373 . S
C2677 C2661 1.377 . S
C2677 C2675 1.389 . S
C2677 C2678 1.524 . S
C2678 C2677 1.524 . S
C2678 C2679 1.397 . S
C2678 C2683 1.363 . S
C2679 H2650 0.950 . S
C2679 C2678 1.397 . S
C2679 C2680 1.334 . S
C2680 H2651 0.950 . S
C2680 C2679 1.334 . S
C2680 C2681 1.287 . S
C2681 C2680 1.287 . S
C2681 C2682 1.524 . S
C2681 H2684 0.999 . S
C2682 H2652 0.950 . S
C2682 C2681 1.524 . S
C2682 C2683 1.415 . S
C2683 H2653 0.950 . S
C2683 C2678 1.363 . S
C2683 C2682 1.415 . S
H2684 C2681 0.999 . S
H2685 C2666 0.913 . S
H2686 C2704 0.951 . S
H2687 C2706 0.951 . S
H2688 C2708 0.950 . S
H2689 C2709 0.950 . S
H2690 C2711 0.950 . S
H2691 C2714 0.950 . S
H2692 C2715 0.950 . S
H2693 C2717 0.950 . S
H2694 C2718 0.950 . S
H2695 C2719 0.951 . S
H2696 C2721 0.951 . S
H2697 C2723 0.950 . S
H2698 C2724 0.950 . S
H2699 C2726 0.950 . S
H2700 C2729 0.950 . S
H2701 C2730 0.950 . S
H2702 C2732 0.950 . S
H2703 C2733 0.950 . S
C2704 H2686 0.951 . S
C2704 C2705 1.366 . S
C2704 C2706 1.388 . S
C2705 C2704 1.366 . S
C2705 C2709 1.385 . S
C2706 H2687 0.951 . S
C2706 C2704 1.388 . S
C2706 C2707 1.366 . S
C2707 C2706 1.366 . S
C2707 C2708 1.414 . S
C2707 C2710 1.499 . S
C2708 H2688 0.950 . S
C2708 C2707 1.414 . S
C2708 C2709 1.374 . S
C2709 H2689 0.950 . S
C2709 C2705 1.385 . S
C2709 C2708 1.374 . S
C2710 C2707 1.499 . S
C2710 C2711 1.373 . S
C2710 C2712 1.389 . S
C2711 H2690 0.950 . S
C2711 C2710 1.373 . S
C2711 C2727 1.377 . S
C2712 C2710 1.389 . S
C2712 C2713 1.524 . S
C2712 C2726 1.377 . S
C2713 C2712 1.524 . S
C2713 C2714 1.397 . S
C2713 C2718 1.363 . S
C2714 H2691 0.950 . S
C2714 C2713 1.397 . S
C2714 C2715 1.334 . S
C2715 H2692 0.950 . S
C2715 C2714 1.334 . S
C2715 C2716 1.287 . S
C2716 C2715 1.287 . S
C2716 C2717 1.524 . S
C2716 H2735 0.913 . S
C2717 H2693 0.950 . S
C2717 C2716 1.524 . S
C2717 C2718 1.415 . S
C2718 H2694 0.950 . S
C2718 C2713 1.363 . S
C2718 C2717 1.415 . S
C2719 H2695 0.951 . S
C2719 C2720 1.366 . S
C2719 C2721 1.388 . S
C2720 C2719 1.366 . S
C2720 C2724 1.385 . S
C2721 H2696 0.951 . S
C2721 C2719 1.388 . S
C2721 C2722 1.366 . S
C2722 C2721 1.366 . S
C2722 C2723 1.414 . S
C2722 C2725 1.499 . S
C2723 H2697 0.950 . S
C2723 C2722 1.414 . S
C2723 C2724 1.374 . S
C2724 H2698 0.950 . S
C2724 C2720 1.385 . S
C2724 C2723 1.374 . S
C2725 C2722 1.499 . S
C2725 C2726 1.373 . S
C2725 C2727 1.389 . S
C2726 H2699 0.950 . S
C2726 C2712 1.377 . S
C2726 C2725 1.373 . S
C2727 C2711 1.377 . S
C2727 C2725 1.389 . S
C2727 C2728 1.524 . S
C2728 C2727 1.524 . S
C2728 C2729 1.397 . S
C2728 C2733 1.363 . S
C2729 H2700 0.950 . S
C2729 C2728 1.397 . S
C2729 C2730 1.334 . S
C2730 H2701 0.950 . S
C2730 C2729 1.334 . S
C2730 C2731 1.287 . S
C2731 C2730 1.287 . S
C2731 C2732 1.524 . S
C2731 H2734 0.999 . S
C2732 H2702 0.950 . S
C2732 C2731 1.524 . S
C2732 C2733 1.415 . S
C2733 H2703 0.950 . S
C2733 C2728 1.363 . S
C2733 C2732 1.415 . S
H2734 C2731 0.999 . S
H2735 C2716 0.913 . S
C355 C205 1.535 . S
C370 C3 1.544 . S
C405 C23 1.514 . S
C420 C218 1.525 . S
C455 C259 1.517 . S
C470 C35 1.522 . S
C505 C50 1.527 . S
C520 C190 1.527 . S
C555 C204 1.585 . S
C570 C63 1.563 . S
C605 C79 1.533 . S
C620 C219 1.533 . S
C655 C87 1.539 . S
C670 C255 1.540 . S
C705 C106 1.523 . S
C720 C191 1.513 . S
C755 C129 1.544 . S
C770 C115 1.545 . S
C805 C149 1.602 . S
C820 C133 1.589 . S
C855 C148 1.520 . S
C870 C157 1.517 . S
C905 C161 1.515 . S
C920 C119 1.511 . S
C955 C176 1.525 . S
C970 C51 1.514 . S
C1005 C59 1.539 . S
C1020 C227 1.545 . S
C1055 C246 1.527 . S
C1070 C22 1.527 . S
C1105 C21 1.434 . S
C1120 C303 1.444 . S
C1155 C134 1.417 . S
C1170 C9 1.406 . S
C1205 C329 1.412 . S
C1220 C45 1.430 . S
C1255 C162 1.400 . S
C1270 C36 1.400 . S
C1305 C302 1.453 . S
C1320 C101 1.448 . S
C1355 C135 1.429 . S
C1370 C93 1.429 . S
C1405 C77 1.402 . S
C1420 C325 1.424 . S
C1455 C64 1.404 . S
C1470 C163 1.392 . S
C1505 C217 1.410 . S
C1520 C273 1.410 . S
C1555 C232 1.453 . S
C1570 C213 1.453 . S
C1605 C189 1.435 . S
C1620 C233 1.441 . S
C1655 C269 1.423 . S
C1670 C185 1.421 . S
C1705 C37 1.406 . S
C1720 C288 1.417 . S
C1755 C143 1.423 . S
C1770 C105 1.402 . S
C1805 C8 1.400 . S
C1820 C316 1.400 . S
C1855 C275 1.535 . S
C1870 C31 1.544 . S
C1905 C7 1.522 . S
C1920 C231 1.512 . S
C1955 C274 1.585 . S
C1970 C91 1.564 . S
C2005 C177 1.532 . S
C2020 C107 1.533 . S
C2055 C78 1.524 . S
C2070 C247 1.513 . S
C2105 C297 1.545 . S
C2120 C283 1.544 . S
C2155 C331 1.602 . S
C2170 C287 1.589 . S
C2205 C311 1.517 . S
C2220 C330 1.520 . S
C2255 C301 1.511 . S
C2270 C315 1.516 . S
C2305 C121 1.443 . S
C2320 C49 1.435 . S
C2355 C17 1.430 . S
C2370 C147 1.412 . S
C2405 C73 1.449 . S
C2420 C120 1.453 . S
C2455 C289 1.429 . S
C2470 C65 1.429 . S
C2505 C92 1.404 . S
C2520 C317 1.392 . S
C2555 C175 1.410 . S
C2570 C203 1.410 . S
C2605 C260 1.454 . S
C2620 C171 1.450 . S
C2655 C245 1.434 . S
C2670 C261 1.444 . S
C2705 C199 1.423 . S
C2720 C241 1.421 . S
