# Generated by pormake.
# Topology umn, (4)-cn, num edge types: 1
# Building blocks:
#     Node 0, Type 0, BuildingBlock: CEKHIL_clean_sbu_0, # of connection points: 4
#     Node 1, Type 0, BuildingBlock: CEKHIL_clean_sbu_0, # of connection points: 4
#     Node 2, Type 0, BuildingBlock: CEKHIL_clean_sbu_0, # of connection points: 4
#     Node 3, Type 0, BuildingBlock: CEKHIL_clean_sbu_0, # of connection points: 4
#     Node 4, Type 0, BuildingBlock: CEKHIL_clean_sbu_0, # of connection points: 4
#     Node 5, Type 0, BuildingBlock: CEKHIL_clean_sbu_0, # of connection points: 4
#     Node 6, Type 0, BuildingBlock: CEKHIL_clean_sbu_0, # of connection points: 4
#     Node 7, Type 0, BuildingBlock: CEKHIL_clean_sbu_0, # of connection points: 4
#     Node 8, Type 0, BuildingBlock: CEKHIL_clean_sbu_0, # of connection points: 4
#     Node 9, Type 0, BuildingBlock: CEKHIL_clean_sbu_0, # of connection points: 4
#     Node 10, Type 0, BuildingBlock: CEKHIL_clean_sbu_0, # of connection points: 4
#     Node 11, Type 0, BuildingBlock: CEKHIL_clean_sbu_0, # of connection points: 4
#     Node 12, Type 0, BuildingBlock: CEKHIL_clean_sbu_0, # of connection points: 4
#     Node 13, Type 0, BuildingBlock: CEKHIL_clean_sbu_0, # of connection points: 4
#     Node 14, Type 0, BuildingBlock: CEKHIL_clean_sbu_0, # of connection points: 4
#     Node 15, Type 0, BuildingBlock: CEKHIL_clean_sbu_0, # of connection points: 4
#     Node 16, Type 0, BuildingBlock: CEKHIL_clean_sbu_0, # of connection points: 4
#     Node 17, Type 0, BuildingBlock: CEKHIL_clean_sbu_0, # of connection points: 4
#     Node 18, Type 0, BuildingBlock: CEKHIL_clean_sbu_0, # of connection points: 4
#     Node 19, Type 0, BuildingBlock: CEKHIL_clean_sbu_0, # of connection points: 4
#     Node 20, Type 0, BuildingBlock: CEKHIL_clean_sbu_0, # of connection points: 4
#     Node 21, Type 0, BuildingBlock: CEKHIL_clean_sbu_0, # of connection points: 4
#     Node 22, Type 0, BuildingBlock: CEKHIL_clean_sbu_0, # of connection points: 4
#     Node 23, Type 0, BuildingBlock: CEKHIL_clean_sbu_0, # of connection points: 4
#     Node 24, Type 0, BuildingBlock: CEKHIL_clean_sbu_0, # of connection points: 4
#     Node 25, Type 0, BuildingBlock: CEKHIL_clean_sbu_0, # of connection points: 4
#     Node 26, Type 0, BuildingBlock: CEKHIL_clean_sbu_0, # of connection points: 4
#     Node 27, Type 0, BuildingBlock: CEKHIL_clean_sbu_0, # of connection points: 4
#     Node 28, Type 0, BuildingBlock: CEKHIL_clean_sbu_0, # of connection points: 4
#     Node 29, Type 0, BuildingBlock: CEKHIL_clean_sbu_0, # of connection points: 4
#     Node 30, Type 0, BuildingBlock: CEKHIL_clean_sbu_0, # of connection points: 4
#     Node 31, Type 0, BuildingBlock: CEKHIL_clean_sbu_0, # of connection points: 4
#     Node 32, Type 0, BuildingBlock: CEKHIL_clean_sbu_0, # of connection points: 4
#     Node 33, Type 0, BuildingBlock: CEKHIL_clean_sbu_0, # of connection points: 4
#     Node 34, Type 0, BuildingBlock: CEKHIL_clean_sbu_0, # of connection points: 4
#     Node 35, Type 0, BuildingBlock: CEKHIL_clean_sbu_0, # of connection points: 4
#     Edge 36, Type (0, 0), None
#     Edge 37, Type (0, 0), None
#     Edge 38, Type (0, 0), None
#     Edge 39, Type (0, 0), None
#     Edge 40, Type (0, 0), None
#     Edge 41, Type (0, 0), None
#     Edge 42, Type (0, 0), None
#     Edge 43, Type (0, 0), None
#     Edge 44, Type (0, 0), None
#     Edge 45, Type (0, 0), None
#     Edge 46, Type (0, 0), None
#     Edge 47, Type (0, 0), None
#     Edge 48, Type (0, 0), None
#     Edge 49, Type (0, 0), None
#     Edge 50, Type (0, 0), None
#     Edge 51, Type (0, 0), None
#     Edge 52, Type (0, 0), None
#     Edge 53, Type (0, 0), None
#     Edge 54, Type (0, 0), None
#     Edge 55, Type (0, 0), None
#     Edge 56, Type (0, 0), None
#     Edge 57, Type (0, 0), None
#     Edge 58, Type (0, 0), None
#     Edge 59, Type (0, 0), None
#     Edge 60, Type (0, 0), None
#     Edge 61, Type (0, 0), None
#     Edge 62, Type (0, 0), None
#     Edge 63, Type (0, 0), None
#     Edge 64, Type (0, 0), None
#     Edge 65, Type (0, 0), None
#     Edge 66, Type (0, 0), None
#     Edge 67, Type (0, 0), None
#     Edge 68, Type (0, 0), None
#     Edge 69, Type (0, 0), None
#     Edge 70, Type (0, 0), None
#     Edge 71, Type (0, 0), None
#     Edge 72, Type (0, 0), None
#     Edge 73, Type (0, 0), None
#     Edge 74, Type (0, 0), None
#     Edge 75, Type (0, 0), None
#     Edge 76, Type (0, 0), None
#     Edge 77, Type (0, 0), None
#     Edge 78, Type (0, 0), None
#     Edge 79, Type (0, 0), None
#     Edge 80, Type (0, 0), None
#     Edge 81, Type (0, 0), None
#     Edge 82, Type (0, 0), None
#     Edge 83, Type (0, 0), None
#     Edge 84, Type (0, 0), None
#     Edge 85, Type (0, 0), None
#     Edge 86, Type (0, 0), None
#     Edge 87, Type (0, 0), None
#     Edge 88, Type (0, 0), None
#     Edge 89, Type (0, 0), None
#     Edge 90, Type (0, 0), None
#     Edge 91, Type (0, 0), None
#     Edge 92, Type (0, 0), None
#     Edge 93, Type (0, 0), None
#     Edge 94, Type (0, 0), None
#     Edge 95, Type (0, 0), None
#     Edge 96, Type (0, 0), None
#     Edge 97, Type (0, 0), None
#     Edge 98, Type (0, 0), None
#     Edge 99, Type (0, 0), None
#     Edge 100, Type (0, 0), None
#     Edge 101, Type (0, 0), None
#     Edge 102, Type (0, 0), None
#     Edge 103, Type (0, 0), None
#     Edge 104, Type (0, 0), None
#     Edge 105, Type (0, 0), None
#     Edge 106, Type (0, 0), None
#     Edge 107, Type (0, 0), None
# Relax obj value: 0.185
# Max RMSD: 0.216
# Mean RMSD: 0.216
data_MOF--net-umn--node1-CEKHIL_clean_sbu_0--edge1-none
_symmetry_space_group_name_H-M    P1
_symmetry_Int_Tables_number       1
_symmetry_cell_setting            triclinic
loop_
_symmetry_equiv_pos_as_xyz
'x, y, z'
_cell_length_a     36.940235
_cell_length_b     36.949625
_cell_length_c     15.069291
_cell_angle_alpha  90.002063
_cell_angle_beta   89.997018
_cell_angle_gamma 120.02267
loop_
_atom_site_label
_atom_site_type_symbol
_atom_site_fract_x
_atom_site_fract_y
_atom_site_fract_z
_atom_type_partial_charge
Co0 Co 0.36217 0.1053 0.21563 0.0
O1 O 0.37891 0.16357 0.20886 0.0
O2 O 0.31454 0.11101 0.18483 0.0
C3 C 0.41634 0.10483 0.13797 0.0
O4 O 0.33693 0.04262 0.22638 0.0
Co5 Co 0.42228 0.09523 0.34128 0.0
O6 O 0.37609 0.03673 0.33536 0.0
C7 C 0.34912 0.09473 0.41784 0.0
C8 C 0.33965 0.15097 0.19708 0.0
C9 C 0.34411 0.02146 0.28514 0.0
O10 O 0.34105 0.10217 0.34016 0.0
O11 O 0.38226 0.09327 0.43563 0.0
O12 O 0.38582 0.10534 0.09688 0.0
O13 O 0.41673 0.1127 0.22236 0.0
Co14 Co 0.89232 0.25642 0.21564 0.0
O15 O 0.83404 0.21486 0.20888 0.0
O16 O 0.88661 0.20309 0.18482 0.0
C17 C 0.89278 0.31103 0.13798 0.0
O18 O 0.95501 0.2939 0.22637 0.0
Co19 Co 0.90241 0.32659 0.3413 0.0
O20 O 0.96092 0.33892 0.33541 0.0
C21 C 0.90289 0.25394 0.41784 0.0
C22 C 0.84664 0.18823 0.19708 0.0
C23 C 0.97618 0.32222 0.28517 0.0
O24 O 0.89545 0.23843 0.34015 0.0
O25 O 0.90434 0.28853 0.43565 0.0
O26 O 0.89227 0.28001 0.09689 0.0
O27 O 0.88493 0.30356 0.22238 0.0
Co28 Co 0.74119 0.63546 0.21567 0.0
O29 O 0.78271 0.61872 0.20891 0.0
O30 O 0.79455 0.68308 0.18486 0.0
C31 C 0.68656 0.58131 0.13798 0.0
O32 O 0.70374 0.66069 0.22639 0.0
Co33 Co 0.67096 0.57537 0.34129 0.0
O34 O 0.65869 0.62157 0.33542 0.0
C35 C 0.74367 0.6485 0.41788 0.0
C36 C 0.80938 0.65796 0.1971 0.0
C37 C 0.67542 0.65354 0.28518 0.0
O38 O 0.75919 0.65658 0.34019 0.0
O39 O 0.70905 0.61537 0.43567 0.0
O40 O 0.71761 0.61183 0.09691 0.0
O41 O 0.69401 0.58092 0.22239 0.0
Co42 Co 0.10483 0.36267 0.35201 0.0
O43 O 0.16311 0.37939 0.35884 0.0
O44 O 0.11051 0.31504 0.38278 0.0
C45 C 0.10436 0.41682 0.42971 0.0
O46 O 0.04214 0.33746 0.3412 0.0
Co47 Co 0.0948 0.42281 0.22641 0.0
O48 O 0.03628 0.37661 0.23219 0.0
C49 C 0.09427 0.34965 0.1498 0.0
C50 C 0.15049 0.34014 0.37057 0.0
C51 C 0.021 0.34462 0.28235 0.0
O52 O 0.10172 0.34158 0.22747 0.0
O53 O 0.09281 0.38279 0.13203 0.0
O54 O 0.10485 0.38629 0.47078 0.0
O55 O 0.11225 0.41723 0.34533 0.0
Co56 Co 0.63496 0.7417 0.35198 0.0
O57 O 0.61822 0.78322 0.35881 0.0
O58 O 0.6826 0.79506 0.38274 0.0
C59 C 0.5808 0.68707 0.42971 0.0
O60 O 0.66018 0.70425 0.34118 0.0
Co61 Co 0.57481 0.67147 0.22642 0.0
O62 O 0.62102 0.65921 0.23218 0.0
C63 C 0.64796 0.74415 0.14977 0.0
C64 C 0.65748 0.80989 0.37055 0.0
C65 C 0.65303 0.67596 0.28233 0.0
O66 O 0.65604 0.75969 0.22744 0.0
O67 O 0.61482 0.70953 0.13202 0.0
O68 O 0.61134 0.7181 0.47076 0.0
O69 O 0.58039 0.69453 0.34532 0.0
Co70 Co 0.25592 0.89281 0.35197 0.0
O71 O 0.21437 0.83454 0.35878 0.0
O72 O 0.20257 0.88709 0.38275 0.0
C73 C 0.31052 0.89329 0.42969 0.0
O74 O 0.29339 0.95549 0.34119 0.0
Co75 Co 0.32614 0.90292 0.22638 0.0
O76 O 0.33842 0.9614 0.23212 0.0
C77 C 0.25346 0.90336 0.14976 0.0
C78 C 0.18772 0.84713 0.37055 0.0
C79 C 0.32168 0.97664 0.2823 0.0
O80 O 0.23793 0.8959 0.22743 0.0
O81 O 0.28808 0.90485 0.13199 0.0
O82 O 0.27949 0.89279 0.47074 0.0
O83 O 0.30308 0.88542 0.34529 0.0
Co84 Co 0.63496 0.89279 0.85203 0.0
O85 O 0.61822 0.83452 0.85879 0.0
O86 O 0.68259 0.88708 0.88281 0.0
C87 C 0.58079 0.89325 0.9297 0.0
O88 O 0.66019 0.95547 0.84128 0.0
Co89 Co 0.57483 0.90285 0.72639 0.0
O90 O 0.62102 0.96136 0.73231 0.0
C91 C 0.648 0.90337 0.64982 0.0
C92 C 0.65747 0.84712 0.87057 0.0
C93 C 0.65301 0.97663 0.78252 0.0
O94 O 0.65607 0.89592 0.7275 0.0
O95 O 0.61486 0.90482 0.63203 0.0
O96 O 0.61131 0.89274 0.97078 0.0
O97 O 0.58039 0.88539 0.84531 0.0
Co98 Co 0.10481 0.7417 0.85202 0.0
O99 O 0.16309 0.78325 0.85878 0.0
O100 O 0.11052 0.79502 0.88283 0.0
C101 C 0.10435 0.68709 0.92969 0.0
O102 O 0.04211 0.70421 0.84129 0.0
Co103 Co 0.09472 0.67152 0.72637 0.0
O104 O 0.03621 0.65919 0.73226 0.0
C105 C 0.09423 0.74417 0.64981 0.0
C106 C 0.15048 0.80989 0.87057 0.0
C107 C 0.02095 0.67588 0.7825 0.0
O108 O 0.10168 0.75968 0.7275 0.0
O109 O 0.09277 0.70958 0.63201 0.0
O110 O 0.10486 0.71811 0.97077 0.0
O111 O 0.1122 0.69455 0.84529 0.0
Co112 Co 0.25591 0.36263 0.85199 0.0
O113 O 0.21439 0.37937 0.85874 0.0
O114 O 0.20255 0.31501 0.88279 0.0
C115 C 0.31053 0.41678 0.92969 0.0
O116 O 0.29336 0.3374 0.84127 0.0
Co117 Co 0.32614 0.42272 0.72638 0.0
O118 O 0.33842 0.37653 0.73226 0.0
C119 C 0.25344 0.34959 0.64978 0.0
C120 C 0.18772 0.34012 0.87054 0.0
C121 C 0.32169 0.34456 0.78248 0.0
O122 O 0.23792 0.34152 0.72746 0.0
O123 O 0.28807 0.38272 0.632 0.0
O124 O 0.27949 0.38625 0.97075 0.0
O125 O 0.30309 0.41718 0.84528 0.0
Co126 Co 0.8923 0.63542 0.71565 0.0
O127 O 0.83402 0.6187 0.70882 0.0
O128 O 0.88661 0.68305 0.68486 0.0
C129 C 0.89277 0.58127 0.63796 0.0
O130 O 0.95499 0.66063 0.72646 0.0
Co131 Co 0.90234 0.57529 0.84126 0.0
O132 O 0.96085 0.62149 0.83548 0.0
C133 C 0.90285 0.64844 0.91786 0.0
C134 C 0.84664 0.65795 0.69707 0.0
C135 C 0.97612 0.65348 0.78532 0.0
O136 O 0.8954 0.65651 0.84018 0.0
O137 O 0.90431 0.6153 0.93563 0.0
O138 O 0.89228 0.61179 0.59688 0.0
O139 O 0.88488 0.58086 0.72234 0.0
Co140 Co 0.36217 0.25641 0.71567 0.0
O141 O 0.37891 0.21489 0.70885 0.0
O142 O 0.31453 0.20306 0.6849 0.0
C143 C 0.41632 0.31105 0.63796 0.0
O144 O 0.33694 0.29386 0.72648 0.0
Co145 Co 0.42231 0.32664 0.84126 0.0
O146 O 0.37609 0.3389 0.8355 0.0
C147 C 0.34916 0.25395 0.91789 0.0
C148 C 0.33965 0.18823 0.69709 0.0
C149 C 0.34409 0.32215 0.78534 0.0
O150 O 0.34108 0.23842 0.84022 0.0
O151 O 0.3823 0.28857 0.93565 0.0
O152 O 0.38579 0.28001 0.5969 0.0
O153 O 0.41674 0.30359 0.72235 0.0
Co154 Co 0.74119 0.10528 0.71569 0.0
O155 O 0.78273 0.16355 0.70888 0.0
O156 O 0.79453 0.111 0.68489 0.0
C157 C 0.68657 0.1048 0.63798 0.0
O158 O 0.70371 0.0426 0.72647 0.0
Co159 Co 0.67097 0.09517 0.84129 0.0
O160 O 0.65869 0.03669 0.83555 0.0
C161 C 0.74365 0.09473 0.9179 0.0
C162 C 0.80938 0.15096 0.6971 0.0
C163 C 0.67543 0.02144 0.78536 0.0
O164 O 0.75918 0.10219 0.84022 0.0
O165 O 0.70904 0.09325 0.93567 0.0
O166 O 0.7176 0.1053 0.59692 0.0
O167 O 0.69402 0.11266 0.72238 0.0
Co168 Co 0.02884 0.43864 0.54898 0.0
O169 O 0.04558 0.4969 0.54216 0.0
O170 O 0.98121 0.44434 0.51818 0.0
C171 C 0.08297 0.43812 0.47135 0.0
O172 O 0.0036 0.37596 0.55977 0.0
Co173 Co 0.08895 0.42856 0.67462 0.0
O174 O 0.04276 0.37006 0.66873 0.0
C175 C 0.01579 0.42806 0.75118 0.0
C176 C 0.00632 0.4843 0.53041 0.0
C177 C 0.01078 0.35479 0.61852 0.0
O178 O 0.00774 0.43553 0.67351 0.0
O179 O 0.04892 0.42658 0.76897 0.0
O180 O 0.05247 0.43865 0.43021 0.0
O181 O 0.08341 0.44605 0.55572 0.0
Co182 Co 0.55898 0.58975 0.54898 0.0
O183 O 0.5007 0.54819 0.54218 0.0
O184 O 0.55328 0.53643 0.51817 0.0
C185 C 0.55949 0.64437 0.47136 0.0
O186 O 0.62167 0.62723 0.55976 0.0
Co187 Co 0.56908 0.65993 0.67465 0.0
O188 O 0.62759 0.67226 0.66877 0.0
C189 C 0.56955 0.58727 0.75119 0.0
C190 C 0.51331 0.52156 0.5304 0.0
C191 C 0.64284 0.65555 0.61854 0.0
O192 O 0.56208 0.57175 0.67351 0.0
O193 O 0.57104 0.62187 0.76899 0.0
O194 O 0.55896 0.61335 0.43022 0.0
O195 O 0.55158 0.63689 0.55574 0.0
Co196 Co 0.40786 0.96879 0.54901 0.0
O197 O 0.44938 0.95205 0.54221 0.0
O198 O 0.46122 0.01641 0.51821 0.0
C199 C 0.35323 0.91468 0.47136 0.0
O200 O 0.37041 0.99402 0.55978 0.0
Co201 Co 0.33762 0.9087 0.67463 0.0
O202 O 0.32534 0.9549 0.66878 0.0
C203 C 0.41033 0.98183 0.75122 0.0
C204 C 0.47604 0.99129 0.53043 0.0
C205 C 0.34208 0.98687 0.61856 0.0
O206 O 0.42587 0.98989 0.67354 0.0
O207 O 0.3757 0.94871 0.769 0.0
O208 O 0.38427 0.94518 0.43024 0.0
O209 O 0.36068 0.91424 0.55574 0.0
Co210 Co 0.77149 0.696 0.68535 0.0
O211 O 0.82977 0.71272 0.69215 0.0
O212 O 0.77718 0.64837 0.71612 0.0
C213 C 0.77103 0.75015 0.76305 0.0
O214 O 0.7088 0.67079 0.67456 0.0
Co215 Co 0.76146 0.75614 0.55975 0.0
O216 O 0.70294 0.70994 0.56555 0.0
C217 C 0.76096 0.68301 0.48313 0.0
C218 C 0.81715 0.67347 0.70389 0.0
C219 C 0.68767 0.67795 0.61571 0.0
O220 O 0.76837 0.67491 0.56081 0.0
O221 O 0.7595 0.71615 0.46536 0.0
O222 O 0.77153 0.71963 0.80412 0.0
O223 O 0.77891 0.75056 0.67866 0.0
Co224 Co 0.30162 0.07503 0.68532 0.0
O225 O 0.28489 0.11655 0.69212 0.0
O226 O 0.34926 0.12839 0.71608 0.0
C227 C 0.24747 0.0204 0.76304 0.0
O228 O 0.32685 0.03759 0.67454 0.0
Co229 Co 0.24147 0.0048 0.55975 0.0
O230 O 0.28769 0.99254 0.56554 0.0
C231 C 0.31461 0.07749 0.4831 0.0
C232 C 0.32415 0.14322 0.70386 0.0
C233 C 0.31969 0.00929 0.61569 0.0
O234 O 0.32271 0.09301 0.56077 0.0
O235 O 0.28147 0.04286 0.46535 0.0
O236 O 0.278 0.05144 0.8041 0.0
O237 O 0.24706 0.02786 0.67865 0.0
Co238 Co 0.92258 0.22615 0.68531 0.0
O239 O 0.88104 0.16788 0.69209 0.0
O240 O 0.86924 0.22042 0.71609 0.0
C241 C 0.97719 0.22662 0.76302 0.0
O242 O 0.96006 0.28883 0.67455 0.0
Co243 Co 0.99281 0.23626 0.55972 0.0
O244 O 0.00508 0.29473 0.56549 0.0
C245 C 0.92012 0.23667 0.48309 0.0
C246 C 0.85439 0.18047 0.70386 0.0
C247 C 0.98835 0.30998 0.61567 0.0
O248 O 0.9046 0.22925 0.56077 0.0
O249 O 0.95474 0.23816 0.46532 0.0
O250 O 0.94616 0.22611 0.80408 0.0
O251 O 0.96974 0.21876 0.67862 0.0
Co252 Co 0.30163 0.22613 0.18536 0.0
O253 O 0.28489 0.16786 0.19211 0.0
O254 O 0.34926 0.22042 0.21615 0.0
C255 C 0.24745 0.22658 0.26303 0.0
O256 O 0.32685 0.28881 0.17464 0.0
Co257 Co 0.2415 0.23619 0.05973 0.0
O258 O 0.28769 0.2947 0.06567 0.0
C259 C 0.31465 0.23668 0.98314 0.0
C260 C 0.32414 0.18046 0.20388 0.0
C261 C 0.31968 0.30996 0.11589 0.0
O262 O 0.32275 0.22927 0.06083 0.0
O263 O 0.2815 0.23813 0.96536 0.0
O264 O 0.27797 0.22607 0.30412 0.0
O265 O 0.24707 0.21873 0.17864 0.0
Co266 Co 0.77147 0.07503 0.18536 0.0
O267 O 0.82975 0.11659 0.19209 0.0
O268 O 0.77718 0.12835 0.21617 0.0
C269 C 0.77101 0.02042 0.26302 0.0
O270 O 0.70878 0.03754 0.17465 0.0
Co271 Co 0.76138 0.00485 0.05971 0.0
O272 O 0.70288 0.99252 0.06563 0.0
C273 C 0.76092 0.0775 0.98314 0.0
C274 C 0.81714 0.14322 0.20388 0.0
C275 C 0.68761 0.00922 0.11587 0.0
O276 O 0.76832 0.093 0.06084 0.0
O277 O 0.75947 0.04291 0.96534 0.0
O278 O 0.77153 0.05145 0.30411 0.0
O279 O 0.77886 0.02789 0.17862 0.0
Co280 Co 0.92258 0.69596 0.18533 0.0
O281 O 0.88106 0.7127 0.19206 0.0
O282 O 0.86921 0.64834 0.21612 0.0
C283 C 0.9772 0.75011 0.26302 0.0
O284 O 0.96003 0.67074 0.17463 0.0
Co285 Co 0.99282 0.75606 0.05972 0.0
O286 O 0.00509 0.70986 0.06562 0.0
C287 C 0.92011 0.68294 0.98311 0.0
C288 C 0.85439 0.67346 0.20386 0.0
C289 C 0.98836 0.67789 0.11585 0.0
O290 O 0.9046 0.67484 0.0608 0.0
O291 O 0.95473 0.71608 0.96533 0.0
O292 O 0.94615 0.71959 0.30409 0.0
O293 O 0.96976 0.7505 0.17862 0.0
Co294 Co 0.55896 0.96875 0.04899 0.0
O295 O 0.50068 0.95203 0.04212 0.0
O296 O 0.55328 0.01638 1.01822 0.0
C297 C 0.55948 0.91464 0.97134 0.0
O298 O 0.62165 0.99397 0.05985 0.0
Co299 Co 0.56901 0.90862 0.17461 0.0
O300 O 0.62752 0.95482 0.16885 0.0
C301 C 0.56952 0.98177 0.2512 0.0
C302 C 0.5133 0.99128 1.0304 0.0
C303 C 0.64279 0.98681 0.1187 0.0
O304 O 0.56203 0.98982 0.17354 0.0
O305 O 0.571 0.94865 0.26897 0.0
O306 O 0.55897 0.94515 0.93022 0.0
O307 O 0.55153 0.91419 0.0557 0.0
Co308 Co 0.02884 0.58975 0.04902 0.0
O309 O 0.04558 0.54823 0.04215 0.0
O310 O 0.9812 0.53639 1.01825 0.0
C311 C 0.08295 0.64439 0.97134 0.0
O312 O 0.00361 0.62718 0.05987 0.0
Co313 Co 0.08898 0.65998 0.1746 0.0
O314 O 0.04276 0.67224 0.16886 0.0
C315 C 0.01583 0.58729 0.25123 0.0
C316 C 0.00632 0.52156 1.03042 0.0
C317 C 0.01076 0.65548 0.11871 0.0
O318 O 0.00777 0.57174 0.17357 0.0
O319 O 0.04896 0.62192 0.26898 0.0
O320 O 0.05243 0.61335 0.93023 0.0
O321 O 0.08341 0.63692 0.05571 0.0
Co322 Co 0.40785 0.43862 0.04903 0.0
O323 O 0.44939 0.49688 0.04218 0.0
O324 O 0.46119 0.44434 1.01824 0.0
C325 C 0.35323 0.43809 0.97136 0.0
O326 O 0.37038 0.37593 0.05986 0.0
Co327 Co 0.33763 0.4285 0.17463 0.0
O328 O 0.32535 0.37002 0.16891 0.0
C329 C 0.41032 0.42807 0.25124 0.0
C330 C 0.47604 0.48429 1.03042 0.0
C331 C 0.3421 0.35478 0.11874 0.0
O332 O 0.42586 0.43555 0.17357 0.0
O333 O 0.37569 0.42655 0.26901 0.0
O334 O 0.38426 0.43861 0.93026 0.0
O335 O 0.3607 0.44601 0.05574 0.0
Co336 Co 0.69551 0.77197 0.88231 0.0
O337 O 0.71224 0.83023 0.87552 0.0
O338 O 0.64787 0.77767 0.85151 0.0
C339 C 0.74963 0.77146 0.80468 0.0
O340 O 0.67027 0.70929 0.89307 0.0
Co341 Co 0.75562 0.76189 1.00795 0.0
O342 O 0.70942 0.70339 1.00203 0.0
C343 C 0.68248 0.76142 0.08452 0.0
C344 C 0.67299 0.81763 0.86376 0.0
C345 C 0.67744 0.68812 0.95182 0.0
O346 O 0.67439 0.76885 1.00684 0.0
O347 O 0.71561 0.75994 0.10231 0.0
O348 O 0.71914 0.77199 0.76354 0.0
O349 O 0.75007 0.77937 0.88905 0.0
Co350 Co 0.22565 0.92308 0.88231 0.0
O351 O 0.16737 0.88153 0.87553 0.0
O352 O 0.21994 0.86976 0.8515 0.0
C353 C 0.22616 0.9777 0.80469 0.0
O354 O 0.28834 0.96056 0.89306 0.0
Co355 Co 0.23575 0.99327 1.00797 0.0
O356 O 0.29426 0.00559 1.00208 0.0
C357 C 0.2362 0.9206 0.08453 0.0
C358 C 0.17998 0.8549 0.86375 0.0
C359 C 0.30951 0.98889 0.95184 0.0
O360 O 0.22877 0.90509 1.00683 0.0
O361 O 0.23768 0.95521 0.10233 0.0
O362 O 0.22562 0.94668 0.76355 0.0
O363 O 0.21825 0.97022 0.88907 0.0
Co364 Co 0.07452 0.30213 0.88234 0.0
O365 O 0.11604 0.28538 0.87557 0.0
O366 O 0.12788 0.34974 0.85154 0.0
C367 C 0.01989 0.24801 0.80469 0.0
O368 O 0.03708 0.32736 0.89308 0.0
Co369 Co 0.00428 0.24203 1.00796 0.0
O370 O 0.99201 0.28823 1.00209 0.0
C371 C 0.077 0.31514 0.08456 0.0
C372 C 0.14271 0.32463 0.86378 0.0
C373 C 0.00875 0.3202 0.95186 0.0
O374 O 0.09252 0.32323 1.00687 0.0
O375 O 0.04236 0.28202 0.10234 0.0
O376 O 0.05094 0.27851 0.76357 0.0
O377 O 0.02735 0.24758 0.88908 0.0
Co378 Co 0.43817 0.02934 1.01867 0.0
O379 O 0.49644 0.04605 1.02551 0.0
O380 O 0.44385 0.9817 0.04943 0.0
C381 C 0.43766 0.08345 0.09633 0.0
O382 O 0.37548 0.00413 1.00784 0.0
Co383 Co 0.42812 0.08948 0.89307 0.0
O384 O 0.36961 0.04328 0.89885 0.0
C385 C 0.42763 0.01635 0.81645 0.0
C386 C 0.48382 0.0068 0.03722 0.0
C387 C 0.35434 0.01129 0.949 0.0
O388 O 0.43507 0.00826 0.89412 0.0
O389 O 0.42614 0.04947 0.79869 0.0
O390 O 0.43817 0.05294 0.13745 0.0
O391 O 0.44559 0.0839 1.01197 0.0
Co392 Co 0.96829 0.40837 1.01864 0.0
O393 O 0.95155 0.44989 1.02548 0.0
O394 O 0.01593 0.46172 0.0494 0.0
C395 C 0.91417 0.35373 0.09633 0.0
O396 O 0.99352 0.37092 1.00782 0.0
Co397 Co 0.90814 0.33813 0.89308 0.0
O398 O 0.95435 0.32586 0.89884 0.0
C399 C 0.98127 0.41082 0.81642 0.0
C400 C 0.99081 0.47655 0.0372 0.0
C401 C 0.98636 0.34262 0.94899 0.0
O402 O 0.98936 0.42636 0.89409 0.0
O403 O 0.94814 0.37618 0.79868 0.0
O404 O 0.94469 0.38477 0.13743 0.0
O405 O 0.91372 0.3612 1.01196 0.0
Co406 Co 0.58925 0.55947 1.01863 0.0
O407 O 0.54771 0.50121 1.02546 0.0
O408 O 0.53591 0.55376 0.04941 0.0
C409 C 0.64386 0.56 0.09631 0.0
O410 O 0.62672 0.62216 1.00783 0.0
Co411 Co 0.65948 0.56959 0.89305 0.0
O412 O 0.67176 0.62807 0.89879 0.0
C413 C 0.58679 0.57 0.81641 0.0
C414 C 0.52106 0.5138 0.0372 0.0
C415 C 0.65502 0.64331 0.94896 0.0
O416 O 0.57126 0.56255 0.89408 0.0
O417 O 0.62142 0.57152 0.79865 0.0
O418 O 0.61283 0.55947 0.13741 0.0
O419 O 0.6364 0.55208 1.01193 0.0
Co420 Co 0.96829 0.55945 0.51868 0.0
O421 O 0.95155 0.50119 0.52547 0.0
O422 O 0.01592 0.55375 0.54946 0.0
C423 C 0.91416 0.55996 0.59632 0.0
O424 O 0.99352 0.62213 0.50792 0.0
Co425 Co 0.90816 0.56953 0.39306 0.0
O426 O 0.95435 0.62803 0.39898 0.0
C427 C 0.98131 0.57001 0.31647 0.0
C428 C 0.99081 0.51379 0.53722 0.0
C429 C 0.98634 0.6433 0.44918 0.0
O430 O 0.98939 0.56257 0.39415 0.0
O431 O 0.94818 0.57149 0.29869 0.0
O432 O 0.94466 0.55943 0.63746 0.0
O433 O 0.91372 0.55204 0.51195 0.0
Co434 Co 0.43814 0.40836 0.51868 0.0
O435 O 0.49642 0.44992 0.52546 0.0
O436 O 0.44385 0.46168 0.54948 0.0
C437 C 0.43764 0.35375 0.59631 0.0
O438 O 0.37545 0.37088 0.50793 0.0
Co439 Co 0.42805 0.33817 0.39303 0.0
O440 O 0.36954 0.32584 0.39893 0.0
C441 C 0.42759 0.41083 0.31647 0.0
C442 C 0.48381 0.47655 0.53722 0.0
C443 C 0.35428 0.34255 0.44916 0.0
O444 O 0.43502 0.42635 0.39415 0.0
O445 O 0.42611 0.37623 0.29867 0.0
O446 O 0.43817 0.38477 0.63744 0.0
O447 O 0.44555 0.36122 0.51193 0.0
Co448 Co 0.58924 0.0293 0.51865 0.0
O449 O 0.54772 0.04603 0.52542 0.0
O450 O 0.53588 0.98168 0.54944 0.0
C451 C 0.64387 0.08341 0.59631 0.0
O452 O 0.62669 0.00407 0.50791 0.0
Co453 Co 0.65949 0.0894 0.39305 0.0
O454 O 0.67177 0.0432 0.39892 0.0
C455 C 0.58678 0.01628 0.31643 0.0
C456 C 0.52106 0.00679 0.5372 0.0
C457 C 0.65503 0.01123 0.44914 0.0
O458 O 0.57125 0.0082 0.39411 0.0
O459 O 0.62141 0.0494 0.29866 0.0
O460 O 0.61283 0.05291 0.63743 0.0
O461 O 0.63642 0.08385 0.51193 0.0
Co462 Co 0.22563 0.30208 0.38232 0.0
O463 O 0.16735 0.28536 0.37547 0.0
O464 O 0.21994 0.34972 0.35155 0.0
C465 C 0.22614 0.24798 0.30467 0.0
O466 O 0.28832 0.3273 0.39315 0.0
Co467 Co 0.23568 0.24195 0.50793 0.0
O468 O 0.29419 0.28815 0.50215 0.0
C469 C 0.23616 0.31508 0.58454 0.0
C470 C 0.17997 0.32461 0.36375 0.0
C471 C 0.30946 0.32015 0.452 0.0
O472 O 0.22872 0.32316 0.50687 0.0
O473 O 0.23764 0.28196 0.6023 0.0
O474 O 0.22563 0.27848 0.26355 0.0
O475 O 0.21821 0.24752 0.38903 0.0
Co476 Co 0.69551 0.92308 0.38235 0.0
O477 O 0.71224 0.88156 0.37551 0.0
O478 O 0.64787 0.86973 0.35158 0.0
C479 C 0.74962 0.97772 0.30467 0.0
O480 O 0.67027 0.96052 0.39317 0.0
Co481 Co 0.75565 0.99332 0.50793 0.0
O482 O 0.70943 0.00557 0.50217 0.0
C483 C 0.68252 0.92062 0.58457 0.0
C484 C 0.67299 0.8549 0.36377 0.0
C485 C 0.67742 0.98882 0.45202 0.0
O486 O 0.67443 0.90509 0.5069 0.0
O487 O 0.71565 0.95525 0.60232 0.0
O488 O 0.71911 0.94668 0.26356 0.0
O489 O 0.75008 0.97025 0.38904 0.0
Co490 Co 0.07452 0.77195 0.38236 0.0
O491 O 0.11606 0.83021 0.37553 0.0
O492 O 0.12786 0.77767 0.35157 0.0
C493 C 0.0199 0.77142 0.30469 0.0
O494 O 0.03705 0.70927 0.39316 0.0
Co495 Co 0.00429 0.76182 0.50796 0.0
O496 O 0.99202 0.70335 0.50222 0.0
C497 C 0.07699 0.76143 0.58458 0.0
C498 C 0.14271 0.81762 0.36377 0.0
C499 C 0.00876 0.68811 0.45204 0.0
O500 O 0.09252 0.76887 0.5069 0.0
O501 O 0.04236 0.75991 0.60234 0.0
O502 O 0.05093 0.77195 0.26358 0.0
O503 O 0.02736 0.77934 0.38907 0.0
loop_
_geom_bond_atom_site_label_1
_geom_bond_atom_site_label_2
_geom_bond_distance
_geom_bond_site_symmetry_2
_ccdc_geom_bond_type
Co0 O1 2.216 . S
Co0 O2 2.091 . S
Co0 O4 2.004 . S
Co0 O10 2.021 . S
Co0 O12 2.137 . S
Co0 O13 2.244 . S
O1 Co0 2.216 . S
O1 C8 1.247 . S
O2 Co0 2.091 . S
O2 C8 1.261 . S
C3 O12 1.247 . S
C3 O13 1.272 . S
O4 Co0 2.004 . S
O4 C9 1.259 . S
Co5 O6 2.061 . S
Co5 O11 2.052 . S
Co5 O13 2.135 . S
O6 Co5 2.061 . S
O6 C9 1.235 . S
C7 O10 1.238 . S
C7 O11 1.241 . S
C8 O1 1.247 . S
C8 O2 1.261 . S
C9 O4 1.259 . S
C9 O6 1.235 . S
O10 Co0 2.021 . S
O10 C7 1.238 . S
O11 Co5 2.052 . S
O11 C7 1.241 . S
O12 Co0 2.137 . S
O12 C3 1.247 . S
O13 Co0 2.244 . S
O13 C3 1.272 . S
O13 Co5 2.135 . S
Co14 O15 2.216 . S
Co14 O16 2.091 . S
Co14 O18 2.004 . S
Co14 O24 2.021 . S
Co14 O26 2.137 . S
Co14 O27 2.244 . S
O15 Co14 2.216 . S
O15 C22 1.247 . S
O16 Co14 2.091 . S
O16 C22 1.261 . S
C17 O26 1.247 . S
C17 O27 1.272 . S
O18 Co14 2.004 . S
O18 C23 1.259 . S
Co19 O20 2.061 . S
Co19 O25 2.052 . S
Co19 O27 2.135 . S
O20 Co19 2.061 . S
O20 C23 1.235 . S
C21 O24 1.238 . S
C21 O25 1.241 . S
C22 O15 1.247 . S
C22 O16 1.261 . S
C23 O18 1.259 . S
C23 O20 1.235 . S
O24 Co14 2.021 . S
O24 C21 1.238 . S
O25 Co19 2.052 . S
O25 C21 1.241 . S
O26 Co14 2.137 . S
O26 C17 1.247 . S
O27 Co14 2.244 . S
O27 C17 1.272 . S
O27 Co19 2.135 . S
Co28 O29 2.216 . S
Co28 O30 2.091 . S
Co28 O32 2.004 . S
Co28 O38 2.021 . S
Co28 O40 2.137 . S
Co28 O41 2.244 . S
O29 Co28 2.216 . S
O29 C36 1.247 . S
O30 Co28 2.091 . S
O30 C36 1.261 . S
C31 O40 1.247 . S
C31 O41 1.272 . S
O32 Co28 2.004 . S
O32 C37 1.259 . S
Co33 O34 2.061 . S
Co33 O39 2.052 . S
Co33 O41 2.135 . S
O34 Co33 2.061 . S
O34 C37 1.235 . S
C35 O38 1.238 . S
C35 O39 1.241 . S
C36 O29 1.247 . S
C36 O30 1.261 . S
C37 O32 1.259 . S
C37 O34 1.235 . S
O38 Co28 2.021 . S
O38 C35 1.238 . S
O39 Co33 2.052 . S
O39 C35 1.241 . S
O40 Co28 2.137 . S
O40 C31 1.247 . S
O41 Co28 2.244 . S
O41 C31 1.272 . S
O41 Co33 2.135 . S
Co42 O43 2.216 . S
Co42 O44 2.091 . S
Co42 O46 2.004 . S
Co42 O52 2.021 . S
Co42 O54 2.137 . S
Co42 O55 2.244 . S
O43 Co42 2.216 . S
O43 C50 1.247 . S
O44 Co42 2.091 . S
O44 C50 1.261 . S
C45 O54 1.247 . S
C45 O55 1.272 . S
O46 Co42 2.004 . S
O46 C51 1.259 . S
Co47 O48 2.061 . S
Co47 O53 2.052 . S
Co47 O55 2.135 . S
O48 Co47 2.061 . S
O48 C51 1.235 . S
C49 O52 1.238 . S
C49 O53 1.241 . S
C50 O43 1.247 . S
C50 O44 1.261 . S
C51 O46 1.259 . S
C51 O48 1.235 . S
O52 Co42 2.021 . S
O52 C49 1.238 . S
O53 Co47 2.052 . S
O53 C49 1.241 . S
O54 Co42 2.137 . S
O54 C45 1.247 . S
O55 Co42 2.244 . S
O55 C45 1.272 . S
O55 Co47 2.135 . S
Co56 O57 2.216 . S
Co56 O58 2.091 . S
Co56 O60 2.004 . S
Co56 O66 2.021 . S
Co56 O68 2.137 . S
Co56 O69 2.244 . S
O57 Co56 2.216 . S
O57 C64 1.247 . S
O58 Co56 2.091 . S
O58 C64 1.261 . S
C59 O68 1.247 . S
C59 O69 1.272 . S
O60 Co56 2.004 . S
O60 C65 1.259 . S
Co61 O62 2.061 . S
Co61 O67 2.052 . S
Co61 O69 2.135 . S
O62 Co61 2.061 . S
O62 C65 1.235 . S
C63 O66 1.238 . S
C63 O67 1.241 . S
C64 O57 1.247 . S
C64 O58 1.261 . S
C65 O60 1.259 . S
C65 O62 1.235 . S
O66 Co56 2.021 . S
O66 C63 1.238 . S
O67 Co61 2.052 . S
O67 C63 1.241 . S
O68 Co56 2.137 . S
O68 C59 1.247 . S
O69 Co56 2.244 . S
O69 C59 1.272 . S
O69 Co61 2.135 . S
Co70 O71 2.216 . S
Co70 O72 2.091 . S
Co70 O74 2.004 . S
Co70 O80 2.021 . S
Co70 O82 2.137 . S
Co70 O83 2.244 . S
O71 Co70 2.216 . S
O71 C78 1.247 . S
O72 Co70 2.091 . S
O72 C78 1.261 . S
C73 O82 1.247 . S
C73 O83 1.272 . S
O74 Co70 2.004 . S
O74 C79 1.259 . S
Co75 O76 2.061 . S
Co75 O81 2.052 . S
Co75 O83 2.135 . S
O76 Co75 2.061 . S
O76 C79 1.235 . S
C77 O80 1.238 . S
C77 O81 1.241 . S
C78 O71 1.247 . S
C78 O72 1.261 . S
C79 O74 1.259 . S
C79 O76 1.235 . S
O80 Co70 2.021 . S
O80 C77 1.238 . S
O81 Co75 2.052 . S
O81 C77 1.241 . S
O82 Co70 2.137 . S
O82 C73 1.247 . S
O83 Co70 2.244 . S
O83 C73 1.272 . S
O83 Co75 2.135 . S
Co84 O85 2.216 . S
Co84 O86 2.091 . S
Co84 O88 2.004 . S
Co84 O94 2.021 . S
Co84 O96 2.137 . S
Co84 O97 2.244 . S
O85 Co84 2.216 . S
O85 C92 1.247 . S
O86 Co84 2.091 . S
O86 C92 1.261 . S
C87 O96 1.247 . S
C87 O97 1.272 . S
O88 Co84 2.004 . S
O88 C93 1.259 . S
Co89 O90 2.061 . S
Co89 O95 2.052 . S
Co89 O97 2.135 . S
O90 Co89 2.061 . S
O90 C93 1.235 . S
C91 O94 1.238 . S
C91 O95 1.241 . S
C92 O85 1.247 . S
C92 O86 1.261 . S
C93 O88 1.259 . S
C93 O90 1.235 . S
O94 Co84 2.021 . S
O94 C91 1.238 . S
O95 Co89 2.052 . S
O95 C91 1.241 . S
O96 Co84 2.137 . S
O96 C87 1.247 . S
O97 Co84 2.244 . S
O97 C87 1.272 . S
O97 Co89 2.135 . S
Co98 O99 2.216 . S
Co98 O100 2.091 . S
Co98 O102 2.004 . S
Co98 O108 2.021 . S
Co98 O110 2.137 . S
Co98 O111 2.244 . S
O99 Co98 2.216 . S
O99 C106 1.247 . S
O100 Co98 2.091 . S
O100 C106 1.261 . S
C101 O110 1.247 . S
C101 O111 1.272 . S
O102 Co98 2.004 . S
O102 C107 1.259 . S
Co103 O104 2.061 . S
Co103 O109 2.052 . S
Co103 O111 2.135 . S
O104 Co103 2.061 . S
O104 C107 1.235 . S
C105 O108 1.238 . S
C105 O109 1.241 . S
C106 O99 1.247 . S
C106 O100 1.261 . S
C107 O102 1.259 . S
C107 O104 1.235 . S
O108 Co98 2.021 . S
O108 C105 1.238 . S
O109 Co103 2.052 . S
O109 C105 1.241 . S
O110 Co98 2.137 . S
O110 C101 1.247 . S
O111 Co98 2.244 . S
O111 C101 1.272 . S
O111 Co103 2.135 . S
Co112 O113 2.216 . S
Co112 O114 2.091 . S
Co112 O116 2.004 . S
Co112 O122 2.021 . S
Co112 O124 2.137 . S
Co112 O125 2.244 . S
O113 Co112 2.216 . S
O113 C120 1.247 . S
O114 Co112 2.091 . S
O114 C120 1.261 . S
C115 O124 1.247 . S
C115 O125 1.272 . S
O116 Co112 2.004 . S
O116 C121 1.259 . S
Co117 O118 2.061 . S
Co117 O123 2.052 . S
Co117 O125 2.135 . S
O118 Co117 2.061 . S
O118 C121 1.235 . S
C119 O122 1.238 . S
C119 O123 1.241 . S
C120 O113 1.247 . S
C120 O114 1.261 . S
C121 O116 1.259 . S
C121 O118 1.235 . S
O122 Co112 2.021 . S
O122 C119 1.238 . S
O123 Co117 2.052 . S
O123 C119 1.241 . S
O124 Co112 2.137 . S
O124 C115 1.247 . S
O125 Co112 2.244 . S
O125 C115 1.272 . S
O125 Co117 2.135 . S
Co126 O127 2.216 . S
Co126 O128 2.091 . S
Co126 O130 2.004 . S
Co126 O136 2.021 . S
Co126 O138 2.137 . S
Co126 O139 2.244 . S
O127 Co126 2.216 . S
O127 C134 1.247 . S
O128 Co126 2.091 . S
O128 C134 1.261 . S
C129 O138 1.247 . S
C129 O139 1.272 . S
O130 Co126 2.004 . S
O130 C135 1.259 . S
Co131 O132 2.061 . S
Co131 O137 2.052 . S
Co131 O139 2.135 . S
O132 Co131 2.061 . S
O132 C135 1.235 . S
C133 O136 1.238 . S
C133 O137 1.241 . S
C134 O127 1.247 . S
C134 O128 1.261 . S
C135 O130 1.259 . S
C135 O132 1.235 . S
O136 Co126 2.021 . S
O136 C133 1.238 . S
O137 Co131 2.052 . S
O137 C133 1.241 . S
O138 Co126 2.137 . S
O138 C129 1.247 . S
O139 Co126 2.244 . S
O139 C129 1.272 . S
O139 Co131 2.135 . S
Co140 O141 2.216 . S
Co140 O142 2.091 . S
Co140 O144 2.004 . S
Co140 O150 2.021 . S
Co140 O152 2.137 . S
Co140 O153 2.244 . S
O141 Co140 2.216 . S
O141 C148 1.247 . S
O142 Co140 2.091 . S
O142 C148 1.261 . S
C143 O152 1.247 . S
C143 O153 1.272 . S
O144 Co140 2.004 . S
O144 C149 1.259 . S
Co145 O146 2.061 . S
Co145 O151 2.052 . S
Co145 O153 2.135 . S
O146 Co145 2.061 . S
O146 C149 1.235 . S
C147 O150 1.238 . S
C147 O151 1.241 . S
C148 O141 1.247 . S
C148 O142 1.261 . S
C149 O144 1.259 . S
C149 O146 1.235 . S
O150 Co140 2.021 . S
O150 C147 1.238 . S
O151 Co145 2.052 . S
O151 C147 1.241 . S
O152 Co140 2.137 . S
O152 C143 1.247 . S
O153 Co140 2.244 . S
O153 C143 1.272 . S
O153 Co145 2.135 . S
Co154 O155 2.216 . S
Co154 O156 2.091 . S
Co154 O158 2.004 . S
Co154 O164 2.021 . S
Co154 O166 2.137 . S
Co154 O167 2.244 . S
O155 Co154 2.216 . S
O155 C162 1.247 . S
O156 Co154 2.091 . S
O156 C162 1.261 . S
C157 O166 1.247 . S
C157 O167 1.272 . S
O158 Co154 2.004 . S
O158 C163 1.259 . S
Co159 O160 2.061 . S
Co159 O165 2.052 . S
Co159 O167 2.135 . S
O160 Co159 2.061 . S
O160 C163 1.235 . S
C161 O164 1.238 . S
C161 O165 1.241 . S
C162 O155 1.247 . S
C162 O156 1.261 . S
C163 O158 1.259 . S
C163 O160 1.235 . S
O164 Co154 2.021 . S
O164 C161 1.238 . S
O165 Co159 2.052 . S
O165 C161 1.241 . S
O166 Co154 2.137 . S
O166 C157 1.247 . S
O167 Co154 2.244 . S
O167 C157 1.272 . S
O167 Co159 2.135 . S
Co168 O169 2.216 . S
Co168 O170 2.091 1_455 S
Co168 O172 2.004 1_455 S
Co168 O178 2.021 . S
Co168 O180 2.137 . S
Co168 O181 2.244 . S
O169 Co168 2.216 . S
O169 C176 1.247 . S
O170 Co168 2.091 1_655 S
O170 C176 1.261 1_655 S
C171 O180 1.247 . S
C171 O181 1.272 . S
O172 Co168 2.004 1_655 S
O172 C177 1.259 . S
Co173 O174 2.061 . S
Co173 O179 2.052 . S
Co173 O181 2.135 . S
O174 Co173 2.061 . S
O174 C177 1.235 1_455 S
C175 O178 1.238 . S
C175 O179 1.241 . S
C176 O169 1.247 . S
C176 O170 1.261 1_455 S
C177 O172 1.259 . S
C177 O174 1.235 1_655 S
O178 Co168 2.021 . S
O178 C175 1.238 . S
O179 Co173 2.052 . S
O179 C175 1.241 . S
O180 Co168 2.137 . S
O180 C171 1.247 . S
O181 Co168 2.244 . S
O181 C171 1.272 . S
O181 Co173 2.135 . S
Co182 O183 2.216 . S
Co182 O184 2.091 . S
Co182 O186 2.004 . S
Co182 O192 2.021 . S
Co182 O194 2.137 . S
Co182 O195 2.244 . S
O183 Co182 2.216 . S
O183 C190 1.247 . S
O184 Co182 2.091 . S
O184 C190 1.261 . S
C185 O194 1.247 . S
C185 O195 1.272 . S
O186 Co182 2.004 . S
O186 C191 1.259 . S
Co187 O188 2.061 . S
Co187 O193 2.052 . S
Co187 O195 2.135 . S
O188 Co187 2.061 . S
O188 C191 1.235 . S
C189 O192 1.238 . S
C189 O193 1.241 . S
C190 O183 1.247 . S
C190 O184 1.261 . S
C191 O186 1.259 . S
C191 O188 1.235 . S
O192 Co182 2.021 . S
O192 C189 1.238 . S
O193 Co187 2.052 . S
O193 C189 1.241 . S
O194 Co182 2.137 . S
O194 C185 1.247 . S
O195 Co182 2.244 . S
O195 C185 1.272 . S
O195 Co187 2.135 . S
Co196 O197 2.216 . S
Co196 O198 2.091 1_565 S
Co196 O200 2.004 1_565 S
Co196 O206 2.021 . S
Co196 O208 2.137 . S
Co196 O209 2.244 . S
O197 Co196 2.216 . S
O197 C204 1.247 . S
O198 Co196 2.091 1_545 S
O198 C204 1.261 1_545 S
C199 O208 1.247 . S
C199 O209 1.272 . S
O200 Co196 2.004 1_545 S
O200 C205 1.259 . S
Co201 O202 2.061 . S
Co201 O207 2.052 . S
Co201 O209 2.135 . S
O202 Co201 2.061 . S
O202 C205 1.235 1_565 S
C203 O206 1.238 . S
C203 O207 1.241 . S
C204 O197 1.247 . S
C204 O198 1.261 1_565 S
C205 O200 1.259 . S
C205 O202 1.235 1_545 S
O206 Co196 2.021 . S
O206 C203 1.238 . S
O207 Co201 2.052 . S
O207 C203 1.241 . S
O208 Co196 2.137 . S
O208 C199 1.247 . S
O209 Co196 2.244 . S
O209 C199 1.272 . S
O209 Co201 2.135 . S
Co210 O211 2.216 . S
Co210 O212 2.091 . S
Co210 O214 2.004 . S
Co210 O220 2.021 . S
Co210 O222 2.137 . S
Co210 O223 2.244 . S
O211 Co210 2.216 . S
O211 C218 1.247 . S
O212 Co210 2.091 . S
O212 C218 1.261 . S
C213 O222 1.247 . S
C213 O223 1.272 . S
O214 Co210 2.004 . S
O214 C219 1.259 . S
Co215 O216 2.061 . S
Co215 O221 2.052 . S
Co215 O223 2.135 . S
O216 Co215 2.061 . S
O216 C219 1.235 . S
C217 O220 1.238 . S
C217 O221 1.241 . S
C218 O211 1.247 . S
C218 O212 1.261 . S
C219 O214 1.259 . S
C219 O216 1.235 . S
O220 Co210 2.021 . S
O220 C217 1.238 . S
O221 Co215 2.052 . S
O221 C217 1.241 . S
O222 Co210 2.137 . S
O222 C213 1.247 . S
O223 Co210 2.244 . S
O223 C213 1.272 . S
O223 Co215 2.135 . S
Co224 O225 2.216 . S
Co224 O226 2.091 . S
Co224 O228 2.004 . S
Co224 O234 2.021 . S
Co224 O236 2.137 . S
Co224 O237 2.244 . S
O225 Co224 2.216 . S
O225 C232 1.247 . S
O226 Co224 2.091 . S
O226 C232 1.261 . S
C227 O236 1.247 . S
C227 O237 1.272 . S
O228 Co224 2.004 . S
O228 C233 1.259 . S
Co229 O230 2.061 . S
Co229 O235 2.052 1_565 S
Co229 O237 2.135 1_565 S
O230 Co229 2.061 . S
O230 C233 1.235 1_565 S
C231 O234 1.238 . S
C231 O235 1.241 . S
C232 O225 1.247 . S
C232 O226 1.261 . S
C233 O228 1.259 . S
C233 O230 1.235 1_545 S
O234 Co224 2.021 . S
O234 C231 1.238 . S
O235 Co229 2.052 1_545 S
O235 C231 1.241 . S
O236 Co224 2.137 . S
O236 C227 1.247 . S
O237 Co224 2.244 . S
O237 C227 1.272 . S
O237 Co229 2.135 1_545 S
Co238 O239 2.216 . S
Co238 O240 2.091 . S
Co238 O242 2.004 . S
Co238 O248 2.021 . S
Co238 O250 2.137 . S
Co238 O251 2.244 . S
O239 Co238 2.216 . S
O239 C246 1.247 . S
O240 Co238 2.091 . S
O240 C246 1.261 . S
C241 O250 1.247 . S
C241 O251 1.272 . S
O242 Co238 2.004 . S
O242 C247 1.259 . S
Co243 O244 2.061 . S
Co243 O249 2.052 1_455 S
Co243 O251 2.135 1_455 S
O244 Co243 2.061 . S
O244 C247 1.235 1_455 S
C245 O248 1.238 . S
C245 O249 1.241 . S
C246 O239 1.247 . S
C246 O240 1.261 . S
C247 O242 1.259 . S
C247 O244 1.235 1_655 S
O248 Co238 2.021 . S
O248 C245 1.238 . S
O249 Co243 2.052 1_655 S
O249 C245 1.241 . S
O250 Co238 2.137 . S
O250 C241 1.247 . S
O251 Co238 2.244 . S
O251 C241 1.272 . S
O251 Co243 2.135 1_655 S
Co252 O253 2.216 . S
Co252 O254 2.091 . S
Co252 O256 2.004 . S
Co252 O262 2.021 1_554 S
Co252 O264 2.137 . S
Co252 O265 2.244 . S
O253 Co252 2.216 . S
O253 C260 1.247 . S
O254 Co252 2.091 . S
O254 C260 1.261 . S
C255 O264 1.247 . S
C255 O265 1.272 . S
O256 Co252 2.004 . S
O256 C261 1.259 . S
Co257 O258 2.061 . S
Co257 O263 2.052 1_554 S
Co257 O265 2.135 . S
O258 Co257 2.061 . S
O258 C261 1.235 . S
C259 O262 1.238 . S
C259 O263 1.241 . S
C260 O253 1.247 . S
C260 O254 1.261 . S
C261 O256 1.259 . S
C261 O258 1.235 . S
O262 Co252 2.021 1_556 S
O262 C259 1.238 . S
O263 Co257 2.052 1_556 S
O263 C259 1.241 . S
O264 Co252 2.137 . S
O264 C255 1.247 . S
O265 Co252 2.244 . S
O265 C255 1.272 . S
O265 Co257 2.135 . S
Co266 O267 2.216 . S
Co266 O268 2.091 . S
Co266 O270 2.004 . S
Co266 O276 2.021 1_554 S
Co266 O278 2.137 . S
Co266 O279 2.244 . S
O267 Co266 2.216 . S
O267 C274 1.247 . S
O268 Co266 2.091 . S
O268 C274 1.261 . S
C269 O278 1.247 . S
C269 O279 1.272 . S
O270 Co266 2.004 . S
O270 C275 1.259 . S
Co271 O272 2.061 . S
Co271 O277 2.052 1_564 S
Co271 O279 2.135 1_565 S
O272 Co271 2.061 . S
O272 C275 1.235 1_565 S
C273 O276 1.238 . S
C273 O277 1.241 . S
C274 O267 1.247 . S
C274 O268 1.261 . S
C275 O270 1.259 . S
C275 O272 1.235 1_545 S
O276 Co266 2.021 1_556 S
O276 C273 1.238 . S
O277 Co271 2.052 1_546 S
O277 C273 1.241 . S
O278 Co266 2.137 . S
O278 C269 1.247 . S
O279 Co266 2.244 . S
O279 C269 1.272 . S
O279 Co271 2.135 1_545 S
Co280 O281 2.216 . S
Co280 O282 2.091 . S
Co280 O284 2.004 . S
Co280 O290 2.021 1_554 S
Co280 O292 2.137 . S
Co280 O293 2.244 . S
O281 Co280 2.216 . S
O281 C288 1.247 . S
O282 Co280 2.091 . S
O282 C288 1.261 . S
C283 O292 1.247 . S
C283 O293 1.272 . S
O284 Co280 2.004 . S
O284 C289 1.259 . S
Co285 O286 2.061 . S
Co285 O291 2.052 1_454 S
Co285 O293 2.135 1_455 S
O286 Co285 2.061 . S
O286 C289 1.235 1_455 S
C287 O290 1.238 . S
C287 O291 1.241 . S
C288 O281 1.247 . S
C288 O282 1.261 . S
C289 O284 1.259 . S
C289 O286 1.235 1_655 S
O290 Co280 2.021 1_556 S
O290 C287 1.238 . S
O291 Co285 2.052 1_656 S
O291 C287 1.241 . S
O292 Co280 2.137 . S
O292 C283 1.247 . S
O293 Co280 2.244 . S
O293 C283 1.272 . S
O293 Co285 2.135 1_655 S
Co294 O295 2.216 . S
Co294 O296 2.091 1_565 S
Co294 O298 2.004 1_565 S
Co294 O304 2.021 . S
Co294 O306 2.137 1_554 S
Co294 O307 2.244 . S
O295 Co294 2.216 . S
O295 C302 1.247 . S
O296 Co294 2.091 1_545 S
O296 C302 1.261 1_545 S
C297 O306 1.247 . S
C297 O307 1.272 1_556 S
O298 Co294 2.004 1_545 S
O298 C303 1.259 . S
Co299 O300 2.061 . S
Co299 O305 2.052 . S
Co299 O307 2.135 . S
O300 Co299 2.061 . S
O300 C303 1.235 1_565 S
C301 O304 1.238 . S
C301 O305 1.241 . S
C302 O295 1.247 . S
C302 O296 1.261 1_565 S
C303 O298 1.259 . S
C303 O300 1.235 1_545 S
O304 Co294 2.021 . S
O304 C301 1.238 . S
O305 Co299 2.052 . S
O305 C301 1.241 . S
O306 Co294 2.137 1_556 S
O306 C297 1.247 . S
O307 Co294 2.244 . S
O307 C297 1.272 1_554 S
O307 Co299 2.135 . S
Co308 O309 2.216 . S
Co308 O310 2.091 1_455 S
Co308 O312 2.004 1_455 S
Co308 O318 2.021 . S
Co308 O320 2.137 1_554 S
Co308 O321 2.244 . S
O309 Co308 2.216 . S
O309 C316 1.247 . S
O310 Co308 2.091 1_655 S
O310 C316 1.261 1_655 S
C311 O320 1.247 . S
C311 O321 1.272 1_556 S
O312 Co308 2.004 1_655 S
O312 C317 1.259 . S
Co313 O314 2.061 . S
Co313 O319 2.052 . S
Co313 O321 2.135 . S
O314 Co313 2.061 . S
O314 C317 1.235 1_455 S
C315 O318 1.238 . S
C315 O319 1.241 . S
C316 O309 1.247 . S
C316 O310 1.261 1_455 S
C317 O312 1.259 . S
C317 O314 1.235 1_655 S
O318 Co308 2.021 . S
O318 C315 1.238 . S
O319 Co313 2.052 . S
O319 C315 1.241 . S
O320 Co308 2.137 1_556 S
O320 C311 1.247 . S
O321 Co308 2.244 . S
O321 C311 1.272 1_554 S
O321 Co313 2.135 . S
Co322 O323 2.216 . S
Co322 O324 2.091 . S
Co322 O326 2.004 . S
Co322 O332 2.021 . S
Co322 O334 2.137 1_554 S
Co322 O335 2.244 . S
O323 Co322 2.216 . S
O323 C330 1.247 . S
O324 Co322 2.091 . S
O324 C330 1.261 . S
C325 O334 1.247 . S
C325 O335 1.272 1_556 S
O326 Co322 2.004 . S
O326 C331 1.259 . S
Co327 O328 2.061 . S
Co327 O333 2.052 . S
Co327 O335 2.135 . S
O328 Co327 2.061 . S
O328 C331 1.235 . S
C329 O332 1.238 . S
C329 O333 1.241 . S
C330 O323 1.247 . S
C330 O324 1.261 . S
C331 O326 1.259 . S
C331 O328 1.235 . S
O332 Co322 2.021 . S
O332 C329 1.238 . S
O333 Co327 2.052 . S
O333 C329 1.241 . S
O334 Co322 2.137 1_556 S
O334 C325 1.247 . S
O335 Co322 2.244 . S
O335 C325 1.272 1_554 S
O335 Co327 2.135 . S
Co336 O337 2.216 . S
Co336 O338 2.091 . S
Co336 O340 2.004 . S
Co336 O346 2.021 1_556 S
Co336 O348 2.137 . S
Co336 O349 2.244 . S
O337 Co336 2.216 . S
O337 C344 1.247 . S
O338 Co336 2.091 . S
O338 C344 1.261 . S
C339 O348 1.247 . S
C339 O349 1.272 . S
O340 Co336 2.004 . S
O340 C345 1.259 . S
Co341 O342 2.061 . S
Co341 O347 2.052 1_556 S
Co341 O349 2.135 . S
O342 Co341 2.061 . S
O342 C345 1.235 . S
C343 O346 1.238 . S
C343 O347 1.241 . S
C344 O337 1.247 . S
C344 O338 1.261 . S
C345 O340 1.259 . S
C345 O342 1.235 . S
O346 Co336 2.021 1_554 S
O346 C343 1.238 . S
O347 Co341 2.052 1_554 S
O347 C343 1.241 . S
O348 Co336 2.137 . S
O348 C339 1.247 . S
O349 Co336 2.244 . S
O349 C339 1.272 . S
O349 Co341 2.135 . S
Co350 O351 2.216 . S
Co350 O352 2.091 . S
Co350 O354 2.004 . S
Co350 O360 2.021 1_556 S
Co350 O362 2.137 . S
Co350 O363 2.244 . S
O351 Co350 2.216 . S
O351 C358 1.247 . S
O352 Co350 2.091 . S
O352 C358 1.261 . S
C353 O362 1.247 . S
C353 O363 1.272 . S
O354 Co350 2.004 . S
O354 C359 1.259 . S
Co355 O356 2.061 . S
Co355 O361 2.052 1_546 S
Co355 O363 2.135 1_545 S
O356 Co355 2.061 . S
O356 C359 1.235 1_545 S
C357 O360 1.238 . S
C357 O361 1.241 . S
C358 O351 1.247 . S
C358 O352 1.261 . S
C359 O354 1.259 . S
C359 O356 1.235 1_565 S
O360 Co350 2.021 1_554 S
O360 C357 1.238 . S
O361 Co355 2.052 1_564 S
O361 C357 1.241 . S
O362 Co350 2.137 . S
O362 C353 1.247 . S
O363 Co350 2.244 . S
O363 C353 1.272 . S
O363 Co355 2.135 1_565 S
Co364 O365 2.216 . S
Co364 O366 2.091 . S
Co364 O368 2.004 . S
Co364 O374 2.021 1_556 S
Co364 O376 2.137 . S
Co364 O377 2.244 . S
O365 Co364 2.216 . S
O365 C372 1.247 . S
O366 Co364 2.091 . S
O366 C372 1.261 . S
C367 O376 1.247 . S
C367 O377 1.272 . S
O368 Co364 2.004 . S
O368 C373 1.259 . S
Co369 O370 2.061 . S
Co369 O375 2.052 1_656 S
Co369 O377 2.135 1_655 S
O370 Co369 2.061 . S
O370 C373 1.235 1_655 S
C371 O374 1.238 . S
C371 O375 1.241 . S
C372 O365 1.247 . S
C372 O366 1.261 . S
C373 O368 1.259 . S
C373 O370 1.235 1_455 S
O374 Co364 2.021 1_554 S
O374 C371 1.238 . S
O375 Co369 2.052 1_454 S
O375 C371 1.241 . S
O376 Co364 2.137 . S
O376 C367 1.247 . S
O377 Co364 2.244 . S
O377 C367 1.272 . S
O377 Co369 2.135 1_455 S
Co378 O379 2.216 . S
Co378 O380 2.091 1_545 S
Co378 O382 2.004 1_545 S
Co378 O388 2.021 . S
Co378 O390 2.137 1_556 S
Co378 O391 2.244 . S
O379 Co378 2.216 . S
O379 C386 1.247 . S
O380 Co378 2.091 1_565 S
O380 C386 1.261 1_565 S
C381 O390 1.247 . S
C381 O391 1.272 1_554 S
O382 Co378 2.004 1_565 S
O382 C387 1.259 . S
Co383 O384 2.061 . S
Co383 O389 2.052 . S
Co383 O391 2.135 . S
O384 Co383 2.061 . S
O384 C387 1.235 1_545 S
C385 O388 1.238 . S
C385 O389 1.241 . S
C386 O379 1.247 . S
C386 O380 1.261 1_545 S
C387 O382 1.259 . S
C387 O384 1.235 1_565 S
O388 Co378 2.021 . S
O388 C385 1.238 . S
O389 Co383 2.052 . S
O389 C385 1.241 . S
O390 Co378 2.137 1_554 S
O390 C381 1.247 . S
O391 Co378 2.244 . S
O391 C381 1.272 1_556 S
O391 Co383 2.135 . S
Co392 O393 2.216 . S
Co392 O394 2.091 1_655 S
Co392 O396 2.004 1_655 S
Co392 O402 2.021 . S
Co392 O404 2.137 1_556 S
Co392 O405 2.244 . S
O393 Co392 2.216 . S
O393 C400 1.247 . S
O394 Co392 2.091 1_455 S
O394 C400 1.261 1_455 S
C395 O404 1.247 . S
C395 O405 1.272 1_554 S
O396 Co392 2.004 1_455 S
O396 C401 1.259 . S
Co397 O398 2.061 . S
Co397 O403 2.052 . S
Co397 O405 2.135 . S
O398 Co397 2.061 . S
O398 C401 1.235 1_655 S
C399 O402 1.238 . S
C399 O403 1.241 . S
C400 O393 1.247 . S
C400 O394 1.261 1_655 S
C401 O396 1.259 . S
C401 O398 1.235 1_455 S
O402 Co392 2.021 . S
O402 C399 1.238 . S
O403 Co397 2.052 . S
O403 C399 1.241 . S
O404 Co392 2.137 1_554 S
O404 C395 1.247 . S
O405 Co392 2.244 . S
O405 C395 1.272 1_556 S
O405 Co397 2.135 . S
Co406 O407 2.216 . S
Co406 O408 2.091 . S
Co406 O410 2.004 . S
Co406 O416 2.021 . S
Co406 O418 2.137 1_556 S
Co406 O419 2.244 . S
O407 Co406 2.216 . S
O407 C414 1.247 . S
O408 Co406 2.091 . S
O408 C414 1.261 . S
C409 O418 1.247 . S
C409 O419 1.272 1_554 S
O410 Co406 2.004 . S
O410 C415 1.259 . S
Co411 O412 2.061 . S
Co411 O417 2.052 . S
Co411 O419 2.135 . S
O412 Co411 2.061 . S
O412 C415 1.235 . S
C413 O416 1.238 . S
C413 O417 1.241 . S
C414 O407 1.247 . S
C414 O408 1.261 . S
C415 O410 1.259 . S
C415 O412 1.235 . S
O416 Co406 2.021 . S
O416 C413 1.238 . S
O417 Co411 2.052 . S
O417 C413 1.241 . S
O418 Co406 2.137 1_554 S
O418 C409 1.247 . S
O419 Co406 2.244 . S
O419 C409 1.272 1_556 S
O419 Co411 2.135 . S
Co420 O421 2.216 . S
Co420 O422 2.091 1_655 S
Co420 O424 2.004 1_655 S
Co420 O430 2.021 . S
Co420 O432 2.137 . S
Co420 O433 2.244 . S
O421 Co420 2.216 . S
O421 C428 1.247 . S
O422 Co420 2.091 1_455 S
O422 C428 1.261 1_455 S
C423 O432 1.247 . S
C423 O433 1.272 . S
O424 Co420 2.004 1_455 S
O424 C429 1.259 . S
Co425 O426 2.061 . S
Co425 O431 2.052 . S
Co425 O433 2.135 . S
O426 Co425 2.061 . S
O426 C429 1.235 1_655 S
C427 O430 1.238 . S
C427 O431 1.241 . S
C428 O421 1.247 . S
C428 O422 1.261 1_655 S
C429 O424 1.259 . S
C429 O426 1.235 1_455 S
O430 Co420 2.021 . S
O430 C427 1.238 . S
O431 Co425 2.052 . S
O431 C427 1.241 . S
O432 Co420 2.137 . S
O432 C423 1.247 . S
O433 Co420 2.244 . S
O433 C423 1.272 . S
O433 Co425 2.135 . S
Co434 O435 2.216 . S
Co434 O436 2.091 . S
Co434 O438 2.004 . S
Co434 O444 2.021 . S
Co434 O446 2.137 . S
Co434 O447 2.244 . S
O435 Co434 2.216 . S
O435 C442 1.247 . S
O436 Co434 2.091 . S
O436 C442 1.261 . S
C437 O446 1.247 . S
C437 O447 1.272 . S
O438 Co434 2.004 . S
O438 C443 1.259 . S
Co439 O440 2.061 . S
Co439 O445 2.052 . S
Co439 O447 2.135 . S
O440 Co439 2.061 . S
O440 C443 1.235 . S
C441 O444 1.238 . S
C441 O445 1.241 . S
C442 O435 1.247 . S
C442 O436 1.261 . S
C443 O438 1.259 . S
C443 O440 1.235 . S
O444 Co434 2.021 . S
O444 C441 1.238 . S
O445 Co439 2.052 . S
O445 C441 1.241 . S
O446 Co434 2.137 . S
O446 C437 1.247 . S
O447 Co434 2.244 . S
O447 C437 1.272 . S
O447 Co439 2.135 . S
Co448 O449 2.216 . S
Co448 O450 2.091 1_545 S
Co448 O452 2.004 1_545 S
Co448 O458 2.021 . S
Co448 O460 2.137 . S
Co448 O461 2.244 . S
O449 Co448 2.216 . S
O449 C456 1.247 . S
O450 Co448 2.091 1_565 S
O450 C456 1.261 1_565 S
C451 O460 1.247 . S
C451 O461 1.272 . S
O452 Co448 2.004 1_565 S
O452 C457 1.259 . S
Co453 O454 2.061 . S
Co453 O459 2.052 . S
Co453 O461 2.135 . S
O454 Co453 2.061 . S
O454 C457 1.235 1_545 S
C455 O458 1.238 . S
C455 O459 1.241 . S
C456 O449 1.247 . S
C456 O450 1.261 1_545 S
C457 O452 1.259 . S
C457 O454 1.235 1_565 S
O458 Co448 2.021 . S
O458 C455 1.238 . S
O459 Co453 2.052 . S
O459 C455 1.241 . S
O460 Co448 2.137 . S
O460 C451 1.247 . S
O461 Co448 2.244 . S
O461 C451 1.272 . S
O461 Co453 2.135 . S
Co462 O463 2.216 . S
Co462 O464 2.091 . S
Co462 O466 2.004 . S
Co462 O472 2.021 . S
Co462 O474 2.137 . S
Co462 O475 2.244 . S
O463 Co462 2.216 . S
O463 C470 1.247 . S
O464 Co462 2.091 . S
O464 C470 1.261 . S
C465 O474 1.247 . S
C465 O475 1.272 . S
O466 Co462 2.004 . S
O466 C471 1.259 . S
Co467 O468 2.061 . S
Co467 O473 2.052 . S
Co467 O475 2.135 . S
O468 Co467 2.061 . S
O468 C471 1.235 . S
C469 O472 1.238 . S
C469 O473 1.241 . S
C470 O463 1.247 . S
C470 O464 1.261 . S
C471 O466 1.259 . S
C471 O468 1.235 . S
O472 Co462 2.021 . S
O472 C469 1.238 . S
O473 Co467 2.052 . S
O473 C469 1.241 . S
O474 Co462 2.137 . S
O474 C465 1.247 . S
O475 Co462 2.244 . S
O475 C465 1.272 . S
O475 Co467 2.135 . S
Co476 O477 2.216 . S
Co476 O478 2.091 . S
Co476 O480 2.004 . S
Co476 O486 2.021 . S
Co476 O488 2.137 . S
Co476 O489 2.244 . S
O477 Co476 2.216 . S
O477 C484 1.247 . S
O478 Co476 2.091 . S
O478 C484 1.261 . S
C479 O488 1.247 . S
C479 O489 1.272 . S
O480 Co476 2.004 . S
O480 C485 1.259 . S
Co481 O482 2.061 . S
Co481 O487 2.052 1_545 S
Co481 O489 2.135 1_545 S
O482 Co481 2.061 . S
O482 C485 1.235 1_545 S
C483 O486 1.238 . S
C483 O487 1.241 . S
C484 O477 1.247 . S
C484 O478 1.261 . S
C485 O480 1.259 . S
C485 O482 1.235 1_565 S
O486 Co476 2.021 . S
O486 C483 1.238 . S
O487 Co481 2.052 1_565 S
O487 C483 1.241 . S
O488 Co476 2.137 . S
O488 C479 1.247 . S
O489 Co476 2.244 . S
O489 C479 1.272 . S
O489 Co481 2.135 1_565 S
Co490 O491 2.216 . S
Co490 O492 2.091 . S
Co490 O494 2.004 . S
Co490 O500 2.021 . S
Co490 O502 2.137 . S
Co490 O503 2.244 . S
O491 Co490 2.216 . S
O491 C498 1.247 . S
O492 Co490 2.091 . S
O492 C498 1.261 . S
C493 O502 1.247 . S
C493 O503 1.272 . S
O494 Co490 2.004 . S
O494 C499 1.259 . S
Co495 O496 2.061 . S
Co495 O501 2.052 1_655 S
Co495 O503 2.135 1_655 S
O496 Co495 2.061 . S
O496 C499 1.235 1_655 S
C497 O500 1.238 . S
C497 O501 1.241 . S
C498 O491 1.247 . S
C498 O492 1.261 . S
C499 O494 1.259 . S
C499 O496 1.235 1_455 S
O500 Co490 2.021 . S
O500 C497 1.238 . S
O501 Co495 2.052 1_455 S
O501 C497 1.241 . S
O502 Co490 2.137 . S
O502 C493 1.247 . S
O503 Co490 2.244 . S
O503 C493 1.272 . S
O503 Co495 2.135 1_455 S
C79 C9 0.778 1_565 S
C51 C23 0.778 1_455 S
C37 C65 0.778 . S
C93 C163 0.778 1_565 S
C107 C135 0.778 1_455 S
C149 C121 0.778 . S
C177 C247 0.778 . S
C191 C219 0.778 . S
C233 C205 0.778 . S
C331 C261 0.778 . S
C303 C275 0.778 . S
C289 C317 0.778 . S
C415 C345 0.778 . S
C387 C359 0.778 . S
C373 C401 0.778 . S
C499 C429 0.778 . S
C471 C443 0.778 . S
C485 C457 0.778 . S
C231 C7 3.081 . S
C245 C21 3.081 . S
C217 C35 3.080 . S
C49 C371 3.081 . S
C63 C343 3.080 . S
C77 C357 3.081 . S
C91 C483 3.081 . S
C497 C105 3.081 . S
C469 C119 3.080 . S
C287 C133 3.081 . S
C259 C147 3.080 . S
C161 C273 3.081 . S
C175 C399 3.080 1_455 S
C413 C189 3.081 . S
C385 C203 3.080 1_545 S
C301 C455 3.080 1_565 S
C427 C315 3.080 1_655 S
C329 C441 3.081 . S
C260 C8 1.732 . S
C274 C22 1.732 . S
C36 C288 1.732 . S
C50 C470 1.732 . S
C484 C64 1.732 . S
C498 C78 1.732 . S
C92 C344 1.732 . S
C106 C358 1.732 . S
C372 C120 1.732 . S
C134 C218 1.732 . S
C148 C232 1.732 . S
C246 C162 1.732 . S
C176 C428 1.731 1_455 S
C190 C442 1.732 . S
C456 C204 1.732 1_545 S
C386 C302 1.731 1_546 S
C316 C400 1.732 1_454 S
C330 C414 1.732 1_554 S
C381 C3 1.961 . S
C17 C395 1.961 . S
C409 C31 1.961 . S
C45 C171 1.961 . S
C185 C59 1.961 . S
C199 C73 1.961 . S
C87 C297 1.961 . S
C311 C101 1.961 . S
C115 C325 1.961 . S
C129 C423 1.961 . S
C143 C437 1.961 . S
C451 C157 1.961 . S
C213 C339 1.960 . S
C227 C353 1.961 1_545 S
C241 C367 1.961 1_655 S
C255 C465 1.960 . S
C269 C479 1.961 1_545 S
C493 C283 1.961 1_455 S
