# Generated by pormake.
# Topology rho, (4)-cn, num edge types: 1
# Building blocks:
#     Node 0, Type 0, BuildingBlock: QUQFOY_clean_sbu_3, # of connection points: 4
#     Node 1, Type 0, BuildingBlock: QUQFOY_clean_sbu_3, # of connection points: 4
#     Node 2, Type 0, BuildingBlock: QUQFOY_clean_sbu_3, # of connection points: 4
#     Node 3, Type 0, BuildingBlock: QUQFOY_clean_sbu_3, # of connection points: 4
#     Node 4, Type 0, BuildingBlock: QUQFOY_clean_sbu_3, # of connection points: 4
#     Node 5, Type 0, BuildingBlock: QUQFOY_clean_sbu_3, # of connection points: 4
#     Node 6, Type 0, BuildingBlock: QUQFOY_clean_sbu_3, # of connection points: 4
#     Node 7, Type 0, BuildingBlock: QUQFOY_clean_sbu_3, # of connection points: 4
#     Node 8, Type 0, BuildingBlock: QUQFOY_clean_sbu_3, # of connection points: 4
#     Node 9, Type 0, BuildingBlock: QUQFOY_clean_sbu_3, # of connection points: 4
#     Node 10, Type 0, BuildingBlock: QUQFOY_clean_sbu_3, # of connection points: 4
#     Node 11, Type 0, BuildingBlock: QUQFOY_clean_sbu_3, # of connection points: 4
#     Node 12, Type 0, BuildingBlock: QUQFOY_clean_sbu_3, # of connection points: 4
#     Node 13, Type 0, BuildingBlock: QUQFOY_clean_sbu_3, # of connection points: 4
#     Node 14, Type 0, BuildingBlock: QUQFOY_clean_sbu_3, # of connection points: 4
#     Node 15, Type 0, BuildingBlock: QUQFOY_clean_sbu_3, # of connection points: 4
#     Node 16, Type 0, BuildingBlock: QUQFOY_clean_sbu_3, # of connection points: 4
#     Node 17, Type 0, BuildingBlock: QUQFOY_clean_sbu_3, # of connection points: 4
#     Node 18, Type 0, BuildingBlock: QUQFOY_clean_sbu_3, # of connection points: 4
#     Node 19, Type 0, BuildingBlock: QUQFOY_clean_sbu_3, # of connection points: 4
#     Node 20, Type 0, BuildingBlock: QUQFOY_clean_sbu_3, # of connection points: 4
#     Node 21, Type 0, BuildingBlock: QUQFOY_clean_sbu_3, # of connection points: 4
#     Node 22, Type 0, BuildingBlock: QUQFOY_clean_sbu_3, # of connection points: 4
#     Node 23, Type 0, BuildingBlock: QUQFOY_clean_sbu_3, # of connection points: 4
#     Node 24, Type 0, BuildingBlock: QUQFOY_clean_sbu_3, # of connection points: 4
#     Node 25, Type 0, BuildingBlock: QUQFOY_clean_sbu_3, # of connection points: 4
#     Node 26, Type 0, BuildingBlock: QUQFOY_clean_sbu_3, # of connection points: 4
#     Node 27, Type 0, BuildingBlock: QUQFOY_clean_sbu_3, # of connection points: 4
#     Node 28, Type 0, BuildingBlock: QUQFOY_clean_sbu_3, # of connection points: 4
#     Node 29, Type 0, BuildingBlock: QUQFOY_clean_sbu_3, # of connection points: 4
#     Node 30, Type 0, BuildingBlock: QUQFOY_clean_sbu_3, # of connection points: 4
#     Node 31, Type 0, BuildingBlock: QUQFOY_clean_sbu_3, # of connection points: 4
#     Node 32, Type 0, BuildingBlock: QUQFOY_clean_sbu_3, # of connection points: 4
#     Node 33, Type 0, BuildingBlock: QUQFOY_clean_sbu_3, # of connection points: 4
#     Node 34, Type 0, BuildingBlock: QUQFOY_clean_sbu_3, # of connection points: 4
#     Node 35, Type 0, BuildingBlock: QUQFOY_clean_sbu_3, # of connection points: 4
#     Node 36, Type 0, BuildingBlock: QUQFOY_clean_sbu_3, # of connection points: 4
#     Node 37, Type 0, BuildingBlock: QUQFOY_clean_sbu_3, # of connection points: 4
#     Node 38, Type 0, BuildingBlock: QUQFOY_clean_sbu_3, # of connection points: 4
#     Node 39, Type 0, BuildingBlock: QUQFOY_clean_sbu_3, # of connection points: 4
#     Node 40, Type 0, BuildingBlock: QUQFOY_clean_sbu_3, # of connection points: 4
#     Node 41, Type 0, BuildingBlock: QUQFOY_clean_sbu_3, # of connection points: 4
#     Node 42, Type 0, BuildingBlock: QUQFOY_clean_sbu_3, # of connection points: 4
#     Node 43, Type 0, BuildingBlock: QUQFOY_clean_sbu_3, # of connection points: 4
#     Node 44, Type 0, BuildingBlock: QUQFOY_clean_sbu_3, # of connection points: 4
#     Node 45, Type 0, BuildingBlock: QUQFOY_clean_sbu_3, # of connection points: 4
#     Node 46, Type 0, BuildingBlock: QUQFOY_clean_sbu_3, # of connection points: 4
#     Node 47, Type 0, BuildingBlock: QUQFOY_clean_sbu_3, # of connection points: 4
#     Edge 48, Type (0, 0), BuildingBlock: KIFKEQ_clean_linker_1, # of connection points: 2
#     Edge 49, Type (0, 0), BuildingBlock: KIFKEQ_clean_linker_1, # of connection points: 2
#     Edge 50, Type (0, 0), BuildingBlock: KIFKEQ_clean_linker_1, # of connection points: 2
#     Edge 51, Type (0, 0), BuildingBlock: KIFKEQ_clean_linker_1, # of connection points: 2
#     Edge 52, Type (0, 0), BuildingBlock: KIFKEQ_clean_linker_1, # of connection points: 2
#     Edge 53, Type (0, 0), BuildingBlock: KIFKEQ_clean_linker_1, # of connection points: 2
#     Edge 54, Type (0, 0), BuildingBlock: KIFKEQ_clean_linker_1, # of connection points: 2
#     Edge 55, Type (0, 0), BuildingBlock: KIFKEQ_clean_linker_1, # of connection points: 2
#     Edge 56, Type (0, 0), BuildingBlock: KIFKEQ_clean_linker_1, # of connection points: 2
#     Edge 57, Type (0, 0), BuildingBlock: KIFKEQ_clean_linker_1, # of connection points: 2
#     Edge 58, Type (0, 0), BuildingBlock: KIFKEQ_clean_linker_1, # of connection points: 2
#     Edge 59, Type (0, 0), BuildingBlock: KIFKEQ_clean_linker_1, # of connection points: 2
#     Edge 60, Type (0, 0), BuildingBlock: KIFKEQ_clean_linker_1, # of connection points: 2
#     Edge 61, Type (0, 0), BuildingBlock: KIFKEQ_clean_linker_1, # of connection points: 2
#     Edge 62, Type (0, 0), BuildingBlock: KIFKEQ_clean_linker_1, # of connection points: 2
#     Edge 63, Type (0, 0), BuildingBlock: KIFKEQ_clean_linker_1, # of connection points: 2
#     Edge 64, Type (0, 0), BuildingBlock: KIFKEQ_clean_linker_1, # of connection points: 2
#     Edge 65, Type (0, 0), BuildingBlock: KIFKEQ_clean_linker_1, # of connection points: 2
#     Edge 66, Type (0, 0), BuildingBlock: KIFKEQ_clean_linker_1, # of connection points: 2
#     Edge 67, Type (0, 0), BuildingBlock: KIFKEQ_clean_linker_1, # of connection points: 2
#     Edge 68, Type (0, 0), BuildingBlock: KIFKEQ_clean_linker_1, # of connection points: 2
#     Edge 69, Type (0, 0), BuildingBlock: KIFKEQ_clean_linker_1, # of connection points: 2
#     Edge 70, Type (0, 0), BuildingBlock: KIFKEQ_clean_linker_1, # of connection points: 2
#     Edge 71, Type (0, 0), BuildingBlock: KIFKEQ_clean_linker_1, # of connection points: 2
#     Edge 72, Type (0, 0), BuildingBlock: KIFKEQ_clean_linker_1, # of connection points: 2
#     Edge 73, Type (0, 0), BuildingBlock: KIFKEQ_clean_linker_1, # of connection points: 2
#     Edge 74, Type (0, 0), BuildingBlock: KIFKEQ_clean_linker_1, # of connection points: 2
#     Edge 75, Type (0, 0), BuildingBlock: KIFKEQ_clean_linker_1, # of connection points: 2
#     Edge 76, Type (0, 0), BuildingBlock: KIFKEQ_clean_linker_1, # of connection points: 2
#     Edge 77, Type (0, 0), BuildingBlock: KIFKEQ_clean_linker_1, # of connection points: 2
#     Edge 78, Type (0, 0), BuildingBlock: KIFKEQ_clean_linker_1, # of connection points: 2
#     Edge 79, Type (0, 0), BuildingBlock: KIFKEQ_clean_linker_1, # of connection points: 2
#     Edge 80, Type (0, 0), BuildingBlock: KIFKEQ_clean_linker_1, # of connection points: 2
#     Edge 81, Type (0, 0), BuildingBlock: KIFKEQ_clean_linker_1, # of connection points: 2
#     Edge 82, Type (0, 0), BuildingBlock: KIFKEQ_clean_linker_1, # of connection points: 2
#     Edge 83, Type (0, 0), BuildingBlock: KIFKEQ_clean_linker_1, # of connection points: 2
#     Edge 84, Type (0, 0), BuildingBlock: KIFKEQ_clean_linker_1, # of connection points: 2
#     Edge 85, Type (0, 0), BuildingBlock: KIFKEQ_clean_linker_1, # of connection points: 2
#     Edge 86, Type (0, 0), BuildingBlock: KIFKEQ_clean_linker_1, # of connection points: 2
#     Edge 87, Type (0, 0), BuildingBlock: KIFKEQ_clean_linker_1, # of connection points: 2
#     Edge 88, Type (0, 0), BuildingBlock: KIFKEQ_clean_linker_1, # of connection points: 2
#     Edge 89, Type (0, 0), BuildingBlock: KIFKEQ_clean_linker_1, # of connection points: 2
#     Edge 90, Type (0, 0), BuildingBlock: KIFKEQ_clean_linker_1, # of connection points: 2
#     Edge 91, Type (0, 0), BuildingBlock: KIFKEQ_clean_linker_1, # of connection points: 2
#     Edge 92, Type (0, 0), BuildingBlock: KIFKEQ_clean_linker_1, # of connection points: 2
#     Edge 93, Type (0, 0), BuildingBlock: KIFKEQ_clean_linker_1, # of connection points: 2
#     Edge 94, Type (0, 0), BuildingBlock: KIFKEQ_clean_linker_1, # of connection points: 2
#     Edge 95, Type (0, 0), BuildingBlock: KIFKEQ_clean_linker_1, # of connection points: 2
#     Edge 96, Type (0, 0), BuildingBlock: KIFKEQ_clean_linker_1, # of connection points: 2
#     Edge 97, Type (0, 0), BuildingBlock: KIFKEQ_clean_linker_1, # of connection points: 2
#     Edge 98, Type (0, 0), BuildingBlock: KIFKEQ_clean_linker_1, # of connection points: 2
#     Edge 99, Type (0, 0), BuildingBlock: KIFKEQ_clean_linker_1, # of connection points: 2
#     Edge 100, Type (0, 0), BuildingBlock: KIFKEQ_clean_linker_1, # of connection points: 2
#     Edge 101, Type (0, 0), BuildingBlock: KIFKEQ_clean_linker_1, # of connection points: 2
#     Edge 102, Type (0, 0), BuildingBlock: KIFKEQ_clean_linker_1, # of connection points: 2
#     Edge 103, Type (0, 0), BuildingBlock: KIFKEQ_clean_linker_1, # of connection points: 2
#     Edge 104, Type (0, 0), BuildingBlock: KIFKEQ_clean_linker_1, # of connection points: 2
#     Edge 105, Type (0, 0), BuildingBlock: KIFKEQ_clean_linker_1, # of connection points: 2
#     Edge 106, Type (0, 0), BuildingBlock: KIFKEQ_clean_linker_1, # of connection points: 2
#     Edge 107, Type (0, 0), BuildingBlock: KIFKEQ_clean_linker_1, # of connection points: 2
#     Edge 108, Type (0, 0), BuildingBlock: KIFKEQ_clean_linker_1, # of connection points: 2
#     Edge 109, Type (0, 0), BuildingBlock: KIFKEQ_clean_linker_1, # of connection points: 2
#     Edge 110, Type (0, 0), BuildingBlock: KIFKEQ_clean_linker_1, # of connection points: 2
#     Edge 111, Type (0, 0), BuildingBlock: KIFKEQ_clean_linker_1, # of connection points: 2
#     Edge 112, Type (0, 0), BuildingBlock: KIFKEQ_clean_linker_1, # of connection points: 2
#     Edge 113, Type (0, 0), BuildingBlock: KIFKEQ_clean_linker_1, # of connection points: 2
#     Edge 114, Type (0, 0), BuildingBlock: KIFKEQ_clean_linker_1, # of connection points: 2
#     Edge 115, Type (0, 0), BuildingBlock: KIFKEQ_clean_linker_1, # of connection points: 2
#     Edge 116, Type (0, 0), BuildingBlock: KIFKEQ_clean_linker_1, # of connection points: 2
#     Edge 117, Type (0, 0), BuildingBlock: KIFKEQ_clean_linker_1, # of connection points: 2
#     Edge 118, Type (0, 0), BuildingBlock: KIFKEQ_clean_linker_1, # of connection points: 2
#     Edge 119, Type (0, 0), BuildingBlock: KIFKEQ_clean_linker_1, # of connection points: 2
#     Edge 120, Type (0, 0), BuildingBlock: KIFKEQ_clean_linker_1, # of connection points: 2
#     Edge 121, Type (0, 0), BuildingBlock: KIFKEQ_clean_linker_1, # of connection points: 2
#     Edge 122, Type (0, 0), BuildingBlock: KIFKEQ_clean_linker_1, # of connection points: 2
#     Edge 123, Type (0, 0), BuildingBlock: KIFKEQ_clean_linker_1, # of connection points: 2
#     Edge 124, Type (0, 0), BuildingBlock: KIFKEQ_clean_linker_1, # of connection points: 2
#     Edge 125, Type (0, 0), BuildingBlock: KIFKEQ_clean_linker_1, # of connection points: 2
#     Edge 126, Type (0, 0), BuildingBlock: KIFKEQ_clean_linker_1, # of connection points: 2
#     Edge 127, Type (0, 0), BuildingBlock: KIFKEQ_clean_linker_1, # of connection points: 2
#     Edge 128, Type (0, 0), BuildingBlock: KIFKEQ_clean_linker_1, # of connection points: 2
#     Edge 129, Type (0, 0), BuildingBlock: KIFKEQ_clean_linker_1, # of connection points: 2
#     Edge 130, Type (0, 0), BuildingBlock: KIFKEQ_clean_linker_1, # of connection points: 2
#     Edge 131, Type (0, 0), BuildingBlock: KIFKEQ_clean_linker_1, # of connection points: 2
#     Edge 132, Type (0, 0), BuildingBlock: KIFKEQ_clean_linker_1, # of connection points: 2
#     Edge 133, Type (0, 0), BuildingBlock: KIFKEQ_clean_linker_1, # of connection points: 2
#     Edge 134, Type (0, 0), BuildingBlock: KIFKEQ_clean_linker_1, # of connection points: 2
#     Edge 135, Type (0, 0), BuildingBlock: KIFKEQ_clean_linker_1, # of connection points: 2
#     Edge 136, Type (0, 0), BuildingBlock: KIFKEQ_clean_linker_1, # of connection points: 2
#     Edge 137, Type (0, 0), BuildingBlock: KIFKEQ_clean_linker_1, # of connection points: 2
#     Edge 138, Type (0, 0), BuildingBlock: KIFKEQ_clean_linker_1, # of connection points: 2
#     Edge 139, Type (0, 0), BuildingBlock: KIFKEQ_clean_linker_1, # of connection points: 2
#     Edge 140, Type (0, 0), BuildingBlock: KIFKEQ_clean_linker_1, # of connection points: 2
#     Edge 141, Type (0, 0), BuildingBlock: KIFKEQ_clean_linker_1, # of connection points: 2
#     Edge 142, Type (0, 0), BuildingBlock: KIFKEQ_clean_linker_1, # of connection points: 2
#     Edge 143, Type (0, 0), BuildingBlock: KIFKEQ_clean_linker_1, # of connection points: 2
# Relax obj value: 0.073
# Max RMSD: 0.094
# Mean RMSD: 0.088
data_MOF--net-rho--node1-QUQFOY_clean_sbu_3--edge1-KIFKEQ_clean_linker_1
_symmetry_space_group_name_H-M    P1
_symmetry_Int_Tables_number       1
_symmetry_cell_setting            triclinic
loop_
_symmetry_equiv_pos_as_xyz
'x, y, z'
_cell_length_a     74.449505
_cell_length_b     75.190604
_cell_length_c     75.092358
_cell_angle_alpha  90.127641
_cell_angle_beta   90.175886
_cell_angle_gamma 90.896627
loop_
_atom_site_label
_atom_site_type_symbol
_atom_site_fract_x
_atom_site_fract_y
_atom_site_fract_z
_atom_type_partial_charge
C0 C 0.10924 0.19966 0.36845 0.0
O1 O 0.0941 0.19291 0.37265 0.0
Cd2 Cd 0.07032 0.21 0.38539 0.0
O3 O 0.11221 0.21632 0.37005 0.0
Cd4 Cd 0.09606 0.24347 0.37873 0.0
C5 C 0.09258 0.22895 0.42116 0.0
O6 O 0.06667 0.23511 0.3663 0.0
O7 O 0.06764 0.25867 0.38273 0.0
O8 O 0.11129 0.25812 0.35396 0.0
C9 C 0.05859 0.24842 0.37261 0.0
O10 O 0.08029 0.21838 0.41548 0.0
C11 C 0.11526 0.27219 0.36259 0.0
O12 O 0.10132 0.23888 0.41044 0.0
O13 O 0.11101 0.27253 0.37895 0.0
C14 C 0.78954 0.09971 0.38052 0.0
O15 O 0.79565 0.08478 0.38528 0.0
Cd16 Cd 0.77702 0.06118 0.39672 0.0
O17 O 0.7727 0.10241 0.3807 0.0
Cd18 Cd 0.74467 0.08573 0.3874 0.0
C19 C 0.75622 0.08403 0.43057 0.0
O20 O 0.75221 0.0557 0.37705 0.0
O21 O 0.72938 0.05793 0.3945 0.0
O22 O 0.73273 0.09816 0.36008 0.0
C23 C 0.73888 0.0482 0.3846 0.0
O24 O 0.76678 0.07179 0.42567 0.0
C25 C 0.71795 0.10298 0.36677 0.0
O26 O 0.74712 0.09262 0.41915 0.0
O27 O 0.71576 0.10028 0.38333 0.0
C28 C 0.87554 0.78173 0.37191 0.0
O29 O 0.89033 0.78858 0.3772 0.0
Cd30 Cd 0.91505 0.77145 0.38807 0.0
O31 O 0.873 0.76494 0.3722 0.0
Cd32 Cd 0.88894 0.73755 0.38044 0.0
C33 C 0.89381 0.75108 0.42336 0.0
O34 O 0.91775 0.74707 0.36781 0.0
O35 O 0.91756 0.72214 0.38191 0.0
O36 O 0.87143 0.72474 0.35605 0.0
C37 C 0.92626 0.73349 0.37282 0.0
O38 O 0.90597 0.76177 0.41779 0.0
C39 C 0.86844 0.70991 0.36362 0.0
O40 O 0.88469 0.7415 0.4125 0.0
O41 O 0.87451 0.70809 0.37932 0.0
C42 C 0.20398 0.87956 0.379 0.0
O43 O 0.19802 0.89523 0.3803 0.0
Cd44 Cd 0.21565 0.91952 0.39158 0.0
O45 O 0.22056 0.87646 0.38167 0.0
Cd46 Cd 0.24941 0.89286 0.38705 0.0
C47 C 0.23468 0.89884 0.4287 0.0
O48 O 0.24164 0.92126 0.37363 0.0
O49 O 0.26559 0.92131 0.38975 0.0
O50 O 0.25932 0.87611 0.36151 0.0
C51 C 0.25494 0.92993 0.37995 0.0
O52 O 0.22392 0.90968 0.42142 0.0
C53 C 0.27488 0.87286 0.36748 0.0
O54 O 0.24574 0.89 0.41939 0.0
O55 O 0.27852 0.87824 0.38317 0.0
C56 C 0.09968 0.78587 0.6114 0.0
O57 O 0.08353 0.79036 0.60866 0.0
Cd58 Cd 0.05975 0.77029 0.59983 0.0
O59 O 0.10412 0.76957 0.61078 0.0
Cd60 Cd 0.08981 0.73976 0.60671 0.0
C61 C 0.08054 0.74995 0.56395 0.0
O62 O 0.06066 0.74601 0.61974 0.0
O63 O 0.06235 0.72126 0.60549 0.0
O64 O 0.10603 0.72989 0.63275 0.0
C65 C 0.05287 0.73184 0.61451 0.0
O66 O 0.06825 0.75969 0.57034 0.0
C67 C 0.11253 0.7161 0.6256 0.0
O68 O 0.09144 0.74186 0.57414 0.0
O69 O 0.10902 0.71355 0.6092 0.0
C70 C 0.29065 0.11425 0.61329 0.0
O71 O 0.29729 0.11097 0.59811 0.0
Cd72 Cd 0.27866 0.09906 0.57471 0.0
O73 O 0.27375 0.11305 0.61572 0.0
Cd74 Cd 0.24564 0.10743 0.59893 0.0
C75 C 0.25713 0.06469 0.59734 0.0
O76 O 0.25415 0.1186 0.56961 0.0
O77 O 0.23107 0.10087 0.57047 0.0
O78 O 0.23498 0.13516 0.61066 0.0
C79 C 0.24096 0.11138 0.5615 0.0
O80 O 0.26827 0.06992 0.58552 0.0
C81 C 0.21997 0.1292 0.61618 0.0
O82 O 0.24737 0.0758 0.60553 0.0
O83 O 0.21697 0.1126 0.6143 0.0
C84 C 0.88091 0.20073 0.60714 0.0
O85 O 0.89625 0.19476 0.60311 0.0
Cd86 Cd 0.92193 0.21272 0.59486 0.0
O87 O 0.87808 0.21739 0.60718 0.0
Cd88 Cd 0.89451 0.24554 0.60117 0.0
C89 C 0.903 0.23335 0.55852 0.0
O90 O 0.92331 0.23748 0.61458 0.0
O91 O 0.9227 0.26222 0.60018 0.0
O92 O 0.87758 0.25796 0.62579 0.0
C93 C 0.93166 0.25133 0.60931 0.0
O94 O 0.91487 0.2232 0.56506 0.0
C95 C 0.87361 0.27224 0.61779 0.0
O96 O 0.89254 0.2421 0.56859 0.0
O97 O 0.87877 0.2738 0.60175 0.0
C98 C 0.70124 0.87878 0.60954 0.0
O99 O 0.69612 0.88161 0.59367 0.0
Cd100 Cd 0.71552 0.88887 0.56947 0.0
O101 O 0.71791 0.87868 0.61353 0.0
Cd102 Cd 0.74731 0.88145 0.59784 0.0
C103 C 0.73858 0.92436 0.58884 0.0
O104 O 0.73778 0.8668 0.5705 0.0
O105 O 0.76331 0.88039 0.56906 0.0
O106 O 0.75677 0.85663 0.61611 0.0
C107 C 0.75158 0.87062 0.56143 0.0
O108 O 0.72798 0.91824 0.57687 0.0
C109 C 0.77259 0.86257 0.61888 0.0
O110 O 0.74672 0.91397 0.59944 0.0
O111 O 0.77638 0.8779 0.61273 0.0
C112 C 0.38121 0.11339 0.28549 0.0
O113 O 0.3966 0.10878 0.29095 0.0
Cd114 Cd 0.41957 0.09749 0.2723 0.0
O115 O 0.37736 0.11294 0.26894 0.0
Cd116 Cd 0.39276 0.10562 0.24054 0.0
C117 C 0.396 0.06265 0.25291 0.0
O118 O 0.42235 0.11777 0.24795 0.0
O119 O 0.42113 0.10075 0.22485 0.0
O120 O 0.38008 0.13173 0.22665 0.0
C121 C 0.43029 0.11129 0.2346 0.0
O122 O 0.4083 0.06798 0.26357 0.0
C123 C 0.37327 0.12353 0.21341 0.0
O124 O 0.3875 0.07364 0.24329 0.0
O125 O 0.37499 0.10675 0.21306 0.0
C126 C 0.87357 0.37115 0.20059 0.0
O127 O 0.88872 0.37508 0.19384 0.0
Cd128 Cd 0.91292 0.38746 0.21135 0.0
O129 O 0.8711 0.37262 0.2173 0.0
Cd130 Cd 0.88779 0.38047 0.24488 0.0
C131 C 0.8911 0.42283 0.2311 0.0
O132 O 0.9181 0.37013 0.23752 0.0
O133 O 0.91565 0.38793 0.25997 0.0
O134 O 0.87617 0.35319 0.25753 0.0
C135 C 0.92562 0.37827 0.25046 0.0
O136 O 0.90249 0.41675 0.2201 0.0
C137 C 0.8695 0.36007 0.27141 0.0
O138 O 0.88259 0.41247 0.24165 0.0
O139 O 0.87094 0.37688 0.27296 0.0
C140 C 0.5986 0.87379 0.28419 0.0
O141 O 0.58293 0.87769 0.28937 0.0
Cd142 Cd 0.55985 0.88904 0.27046 0.0
O143 O 0.60295 0.87542 0.26787 0.0
Cd144 Cd 0.58854 0.8847 0.23962 0.0
C145 C 0.58218 0.92629 0.25476 0.0
O146 O 0.55866 0.87116 0.24419 0.0
O147 O 0.56114 0.89007 0.22282 0.0
O148 O 0.60505 0.86079 0.22557 0.0
C149 C 0.55142 0.87886 0.23106 0.0
O150 O 0.56912 0.91952 0.26349 0.0
C151 C 0.60971 0.86975 0.21199 0.0
O152 O 0.59268 0.91646 0.24587 0.0
O153 O 0.60513 0.88594 0.21158 0.0
C154 C 0.11493 0.61662 0.20327 0.0
O155 O 0.09942 0.61337 0.19684 0.0
Cd156 Cd 0.07472 0.6027 0.21468 0.0
O157 O 0.11773 0.61563 0.21998 0.0
Cd158 Cd 0.10128 0.6101 0.24807 0.0
C159 C 0.09512 0.5673 0.23571 0.0
O160 O 0.07223 0.62217 0.23956 0.0
O161 O 0.07287 0.60707 0.26396 0.0
O162 O 0.11582 0.63647 0.26014 0.0
C163 C 0.06392 0.61633 0.25313 0.0
O164 O 0.08346 0.57316 0.22483 0.0
C165 C 0.12143 0.62925 0.27433 0.0
O166 O 0.10454 0.57792 0.24529 0.0
O167 O 0.11827 0.61269 0.2761 0.0
C168 C 0.3684 0.86514 0.70605 0.0
O169 O 0.3839 0.86761 0.69943 0.0
Cd170 Cd 0.40874 0.87869 0.71686 0.0
O171 O 0.36585 0.86718 0.7227 0.0
Cd172 Cd 0.38321 0.87374 0.75022 0.0
C173 C 0.38941 0.91563 0.73613 0.0
O174 O 0.41173 0.85988 0.74225 0.0
O175 O 0.41241 0.87795 0.76455 0.0
O176 O 0.366 0.84931 0.76316 0.0
C177 C 0.42065 0.86691 0.75492 0.0
O178 O 0.40105 0.90911 0.72566 0.0
C179 C 0.36329 0.85689 0.778 0.0
O180 O 0.37979 0.90558 0.74599 0.0
O181 O 0.3694 0.87266 0.77982 0.0
C182 C 0.10041 0.37747 0.77742 0.0
O183 O 0.08487 0.38158 0.78286 0.0
Cd184 Cd 0.06098 0.39219 0.76462 0.0
O185 O 0.10441 0.37859 0.76096 0.0
Cd186 Cd 0.08963 0.38694 0.73254 0.0
C187 C 0.08272 0.42902 0.7469 0.0
O188 O 0.06059 0.37324 0.73934 0.0
O189 O 0.06149 0.38894 0.71549 0.0
O190 O 0.10683 0.36284 0.71972 0.0
C191 C 0.0524 0.37903 0.72581 0.0
O192 O 0.0702 0.42228 0.75637 0.0
C193 C 0.11081 0.37102 0.70547 0.0
O194 O 0.09295 0.41914 0.7377 0.0
O195 O 0.10562 0.38697 0.70413 0.0
C196 C 0.61084 0.11043 0.71518 0.0
O197 O 0.59486 0.10903 0.70936 0.0
Cd198 Cd 0.57096 0.0971 0.72715 0.0
O199 O 0.61435 0.10741 0.73152 0.0
Cd200 Cd 0.59871 0.1009 0.76004 0.0
C201 C 0.59186 0.0596 0.74466 0.0
O202 O 0.5694 0.11408 0.75379 0.0
O203 O 0.57073 0.09594 0.77591 0.0
O204 O 0.61593 0.12627 0.7709 0.0
C205 C 0.5614 0.1064 0.76662 0.0
O206 O 0.58046 0.06697 0.73446 0.0
C207 C 0.61986 0.11963 0.7859 0.0
O208 O 0.60152 0.06884 0.75539 0.0
O209 O 0.61444 0.10379 0.78884 0.0
C210 C 0.88164 0.61032 0.78447 0.0
O211 O 0.89697 0.60523 0.78965 0.0
Cd212 Cd 0.91967 0.59414 0.77053 0.0
O213 O 0.87745 0.60992 0.768 0.0
Cd214 Cd 0.89219 0.60137 0.73961 0.0
C215 C 0.89607 0.55874 0.75269 0.0
O216 O 0.92136 0.61488 0.7465 0.0
O217 O 0.92085 0.59724 0.72392 0.0
O218 O 0.87579 0.62569 0.72597 0.0
C219 C 0.92952 0.60853 0.73323 0.0
O220 O 0.90938 0.56419 0.76202 0.0
C221 C 0.87198 0.61728 0.71174 0.0
O222 O 0.88652 0.56969 0.74408 0.0
O223 O 0.87699 0.60125 0.71078 0.0
C224 C 0.19767 0.36906 0.11051 0.0
O225 O 0.19047 0.37253 0.09559 0.0
Cd226 Cd 0.20761 0.38343 0.07076 0.0
O227 O 0.21468 0.36971 0.11239 0.0
Cd228 Cd 0.2423 0.37458 0.09471 0.0
C229 C 0.23112 0.41771 0.09191 0.0
O230 O 0.23144 0.36324 0.06614 0.0
O231 O 0.25653 0.37803 0.06566 0.0
O232 O 0.25333 0.3473 0.10724 0.0
C233 C 0.2448 0.36891 0.05725 0.0
O234 O 0.21931 0.41242 0.08068 0.0
C235 C 0.26852 0.35352 0.11209 0.0
O236 O 0.24105 0.40663 0.09997 0.0
O237 O 0.27141 0.37003 0.10953 0.0
C238 C 0.28702 0.59991 0.87802 0.0
O239 O 0.29232 0.58402 0.87946 0.0
Cd240 Cd 0.2733 0.56054 0.89049 0.0
O241 O 0.27061 0.60365 0.88066 0.0
Cd242 Cd 0.24171 0.58814 0.88673 0.0
C243 C 0.25625 0.5813 0.92818 0.0
O244 O 0.24658 0.55888 0.87316 0.0
O245 O 0.22535 0.56065 0.89253 0.0
O246 O 0.22979 0.60359 0.86111 0.0
C247 C 0.2336 0.55132 0.88122 0.0
O248 O 0.2657 0.56932 0.9209 0.0
C249 C 0.21528 0.60819 0.86852 0.0
O250 O 0.24666 0.59161 0.91877 0.0
O251 O 0.21335 0.60419 0.88485 0.0
C252 C 0.37415 0.28439 0.86795 0.0
O253 O 0.38901 0.29191 0.87194 0.0
Cd254 Cd 0.41351 0.27631 0.8852 0.0
O255 O 0.37198 0.26765 0.86981 0.0
Cd256 Cd 0.38941 0.24121 0.87839 0.0
C257 C 0.3922 0.25625 0.92081 0.0
O258 O 0.41841 0.25109 0.8664 0.0
O259 O 0.41839 0.22707 0.88205 0.0
O260 O 0.37465 0.22585 0.85362 0.0
C261 C 0.42709 0.23809 0.87256 0.0
O262 O 0.40325 0.26802 0.91512 0.0
C263 C 0.37094 0.21184 0.86238 0.0
O264 O 0.38468 0.24522 0.91017 0.0
O265 O 0.37526 0.21179 0.87875 0.0
C266 C 0.70577 0.38492 0.87963 0.0
O267 O 0.70047 0.40082 0.88108 0.0
Cd268 Cd 0.71958 0.42396 0.89282 0.0
O269 O 0.72217 0.38116 0.88232 0.0
Cd270 Cd 0.75156 0.396 0.88806 0.0
C271 C 0.73713 0.40162 0.92969 0.0
O272 O 0.7461 0.42534 0.87552 0.0
O273 O 0.76843 0.4235 0.89377 0.0
O274 O 0.76073 0.382 0.86094 0.0
C275 C 0.75929 0.43299 0.88326 0.0
O276 O 0.72748 0.4136 0.92264 0.0
C277 C 0.77527 0.37562 0.86679 0.0
O278 O 0.74705 0.39178 0.92012 0.0
O279 O 0.77883 0.37822 0.88319 0.0
C280 C 0.61045 0.70051 0.87186 0.0
O281 O 0.59546 0.69438 0.87731 0.0
Cd282 Cd 0.57156 0.7127 0.88772 0.0
O283 O 0.61367 0.71721 0.87177 0.0
Cd284 Cd 0.59886 0.74544 0.8794 0.0
C285 C 0.59371 0.73341 0.92259 0.0
O286 O 0.56984 0.73659 0.86687 0.0
O287 O 0.57056 0.76166 0.88072 0.0
O288 O 0.61617 0.75705 0.85443 0.0
C289 C 0.5616 0.75038 0.87167 0.0
O290 O 0.58121 0.72296 0.91715 0.0
C291 C 0.6197 0.77204 0.86153 0.0
O292 O 0.60316 0.74239 0.9116 0.0
O293 O 0.61413 0.77445 0.87731 0.0
C294 C 0.78389 0.61022 0.11203 0.0
O295 O 0.78915 0.60709 0.09628 0.0
Cd296 Cd 0.76981 0.59796 0.07253 0.0
O297 O 0.76721 0.60989 0.1159 0.0
Cd298 Cd 0.7378 0.60611 0.10033 0.0
C299 C 0.74771 0.56304 0.09378 0.0
O300 O 0.74694 0.61948 0.07239 0.0
O301 O 0.72162 0.60541 0.07156 0.0
O302 O 0.72834 0.6316 0.11762 0.0
C303 C 0.73316 0.61494 0.0635 0.0
O304 O 0.75839 0.56871 0.08176 0.0
C305 C 0.71261 0.62565 0.12071 0.0
O306 O 0.73897 0.57384 0.10343 0.0
O307 O 0.70885 0.61007 0.11513 0.0
C308 C 0.38312 0.69903 0.11348 0.0
O309 O 0.39907 0.69378 0.11112 0.0
Cd310 Cd 0.42291 0.71188 0.09934 0.0
O311 O 0.37908 0.71526 0.11099 0.0
Cd312 Cd 0.39454 0.74396 0.10376 0.0
C313 C 0.40172 0.72901 0.06198 0.0
O314 O 0.42387 0.73794 0.1172 0.0
O315 O 0.42227 0.76144 0.10096 0.0
O316 O 0.37749 0.75703 0.12798 0.0
C317 C 0.4317 0.75156 0.11077 0.0
O318 O 0.41345 0.71899 0.06897 0.0
C319 C 0.37288 0.77071 0.1193 0.0
O320 O 0.39218 0.73913 0.0716 0.0
O321 O 0.37778 0.7716 0.10313 0.0
C322 C 0.60201 0.27777 0.11389 0.0
O323 O 0.5857 0.28212 0.11207 0.0
Cd324 Cd 0.56293 0.26242 0.10048 0.0
O325 O 0.60683 0.26182 0.1111 0.0
Cd326 Cd 0.59314 0.23228 0.10414 0.0
C327 C 0.58504 0.24687 0.06279 0.0
O328 O 0.5636 0.23602 0.11756 0.0
O329 O 0.56599 0.21435 0.09895 0.0
O330 O 0.60898 0.22129 0.12978 0.0
C331 C 0.55626 0.22277 0.10981 0.0
O332 O 0.57243 0.25553 0.07009 0.0
C333 C 0.61562 0.20781 0.12221 0.0
O334 O 0.59593 0.23784 0.07214 0.0
O335 O 0.61232 0.20584 0.10569 0.0
C336 C 0.86632 0.69457 0.6067 0.0
O337 O 0.87053 0.68766 0.59187 0.0
Cd338 Cd 0.88506 0.70468 0.56877 0.0
O339 O 0.86825 0.71124 0.60927 0.0
Cd340 Cd 0.87702 0.7389 0.59375 0.0
C341 C 0.91964 0.72413 0.59351 0.0
O342 O 0.8676 0.73047 0.56369 0.0
O343 O 0.88395 0.75433 0.56607 0.0
O344 O 0.8496 0.75143 0.60504 0.0
C345 C 0.87518 0.74365 0.55612 0.0
O346 O 0.91429 0.71334 0.58142 0.0
C347 C 0.85682 0.76527 0.61184 0.0
O348 O 0.90869 0.73454 0.60113 0.0
O349 O 0.87381 0.76682 0.61057 0.0
C350 C 0.19298 0.88389 0.60943 0.0
O351 O 0.18799 0.89939 0.60514 0.0
Cd352 Cd 0.2074 0.92393 0.59746 0.0
O353 O 0.20962 0.88021 0.61031 0.0
Cd354 Cd 0.23895 0.89569 0.6058 0.0
C355 C 0.22952 0.90401 0.56251 0.0
O356 O 0.23119 0.92459 0.61859 0.0
O357 O 0.25651 0.9233 0.60498 0.0
O358 O 0.25036 0.87937 0.63137 0.0
C359 C 0.24553 0.93248 0.61379 0.0
O360 O 0.2193 0.91609 0.56842 0.0
C361 C 0.26495 0.87497 0.62397 0.0
O362 O 0.23747 0.89347 0.57312 0.0
O363 O 0.26704 0.87947 0.6078 0.0
C364 C 0.11736 0.28972 0.60317 0.0
O365 O 0.11318 0.29596 0.58804 0.0
Cd366 Cd 0.0994 0.27779 0.56525 0.0
O367 O 0.11574 0.27312 0.60627 0.0
Cd368 Cd 0.10764 0.24474 0.59132 0.0
C369 C 0.06485 0.25853 0.58989 0.0
O370 O 0.11794 0.25251 0.56133 0.0
O371 O 0.10214 0.22837 0.56376 0.0
O372 O 0.134 0.23368 0.60654 0.0
C373 C 0.11098 0.23891 0.55385 0.0
O374 O 0.07012 0.26899 0.57755 0.0
C375 C 0.12693 0.21886 0.61094 0.0
O376 O 0.07593 0.24865 0.59802 0.0
O377 O 0.11063 0.21613 0.60655 0.0
C378 C 0.77168 0.12119 0.61051 0.0
O379 O 0.76597 0.1125 0.62375 0.0
Cd380 Cd 0.74399 0.09612 0.60487 0.0
O381 O 0.76332 0.11895 0.596 0.0
Cd382 Cd 0.73618 0.09718 0.60096 0.0
C383 C 0.74227 0.10015 0.5629 0.0
O384 O 0.74794 0.06695 0.61205 0.0
O385 O 0.72839 0.06654 0.59092 0.0
O386 O 0.72572 0.10882 0.6301 0.0
C387 C 0.73824 0.05781 0.60148 0.0
O388 O 0.75466 0.09476 0.57304 0.0
C389 C 0.70941 0.10982 0.62525 0.0
O390 O 0.72774 0.1046 0.57023 0.0
O391 O 0.70582 0.10555 0.60926 0.0
C392 C 0.87728 0.2015 0.37492 0.0
O393 O 0.89359 0.19698 0.37616 0.0
Cd394 Cd 0.91701 0.21633 0.38612 0.0
O395 O 0.87275 0.2176 0.37752 0.0
Cd396 Cd 0.88783 0.24716 0.38296 0.0
C397 C 0.89713 0.23361 0.42433 0.0
O398 O 0.91565 0.24142 0.36711 0.0
O399 O 0.91646 0.26368 0.3851 0.0
O400 O 0.86891 0.25801 0.35906 0.0
C401 C 0.92441 0.25456 0.37338 0.0
O402 O 0.90872 0.22387 0.41674 0.0
C403 C 0.86583 0.27298 0.36615 0.0
O404 O 0.88672 0.24337 0.41522 0.0
O405 O 0.87222 0.2757 0.38164 0.0
C406 C 0.69334 0.8642 0.37752 0.0
O407 O 0.68744 0.86692 0.39311 0.0
Cd408 Cd 0.70583 0.87963 0.41602 0.0
O409 O 0.71 0.86627 0.37409 0.0
Cd410 Cd 0.73829 0.87277 0.39084 0.0
C411 C 0.72541 0.91511 0.39363 0.0
O412 O 0.7311 0.86087 0.4203 0.0
O413 O 0.75329 0.87961 0.41904 0.0
O414 O 0.75206 0.84626 0.37901 0.0
C415 C 0.74419 0.86855 0.42815 0.0
O416 O 0.71421 0.90938 0.40515 0.0
C417 C 0.766 0.85411 0.37303 0.0
O418 O 0.73583 0.90451 0.38561 0.0
O419 O 0.7667 0.87094 0.37459 0.0
C420 C 0.10876 0.784 0.38204 0.0
O421 O 0.09273 0.78905 0.38423 0.0
Cd422 Cd 0.06839 0.76979 0.39209 0.0
O423 O 0.11266 0.76758 0.38321 0.0
Cd424 Cd 0.09711 0.73839 0.38817 0.0
C425 C 0.08714 0.75093 0.42992 0.0
O426 O 0.06956 0.74528 0.37207 0.0
O427 O 0.0685 0.72184 0.38844 0.0
O428 O 0.11673 0.7283 0.3646 0.0
C429 C 0.06071 0.73177 0.37732 0.0
O430 O 0.0757 0.76094 0.42246 0.0
C431 C 0.11971 0.71315 0.3713 0.0
O432 O 0.09769 0.74147 0.42066 0.0
O433 O 0.11273 0.70988 0.38638 0.0
C434 C 0.28611 0.11479 0.37801 0.0
O435 O 0.29227 0.11159 0.39345 0.0
Cd436 Cd 0.27493 0.09945 0.41729 0.0
O437 O 0.26944 0.11267 0.37454 0.0
Cd438 Cd 0.24136 0.10471 0.39071 0.0
C439 C 0.25634 0.06286 0.39563 0.0
O440 O 0.24977 0.11834 0.41892 0.0
O441 O 0.2259 0.10191 0.41963 0.0
O442 O 0.22779 0.12888 0.37422 0.0
C443 C 0.23665 0.1123 0.42782 0.0
O444 O 0.26675 0.06924 0.40764 0.0
C445 C 0.21315 0.1206 0.37098 0.0
O446 O 0.2462 0.07296 0.38662 0.0
O447 O 0.21193 0.10458 0.37625 0.0
C448 C 0.60391 0.88174 0.70204 0.0
O449 O 0.5882 0.88579 0.69699 0.0
Cd450 Cd 0.56373 0.89158 0.71669 0.0
O451 O 0.60757 0.88018 0.71854 0.0
Cd452 Cd 0.59211 0.88256 0.74762 0.0
C453 C 0.58327 0.92598 0.74063 0.0
O454 O 0.56378 0.86866 0.73842 0.0
O455 O 0.56377 0.88078 0.76441 0.0
O456 O 0.60849 0.85643 0.75623 0.0
C457 C 0.55533 0.87184 0.75265 0.0
O458 O 0.57111 0.92027 0.73001 0.0
C459 C 0.61424 0.86255 0.77098 0.0
O460 O 0.59399 0.91527 0.74818 0.0
O461 O 0.61026 0.87851 0.77471 0.0
C462 C 0.11405 0.61327 0.78339 0.0
O463 O 0.09831 0.61102 0.78952 0.0
Cd464 Cd 0.07391 0.60001 0.77172 0.0
O465 O 0.1172 0.61102 0.76685 0.0
Cd466 Cd 0.10095 0.6046 0.73846 0.0
C467 C 0.09313 0.56272 0.75247 0.0
O468 O 0.07282 0.61886 0.74638 0.0
O469 O 0.07228 0.60315 0.72237 0.0
O470 O 0.11903 0.62919 0.72714 0.0
C471 C 0.06404 0.61323 0.73297 0.0
O472 O 0.08221 0.56981 0.76333 0.0
C473 C 0.122 0.6223 0.71202 0.0
O474 O 0.10254 0.57226 0.74191 0.0
O475 O 0.11591 0.60663 0.7094 0.0
C476 C 0.37192 0.10243 0.79086 0.0
O477 O 0.37531 0.08807 0.79896 0.0
Cd478 Cd 0.3913 0.06474 0.78434 0.0
O479 O 0.3754 0.10406 0.77434 0.0
Cd480 Cd 0.38623 0.08686 0.74857 0.0
C481 C 0.42743 0.08863 0.76715 0.0
O482 O 0.37509 0.05735 0.7576 0.0
O483 O 0.39305 0.05843 0.73509 0.0
O484 O 0.36089 0.10006 0.73342 0.0
C485 C 0.38307 0.04916 0.74519 0.0
O486 O 0.4212 0.07768 0.77858 0.0
C487 C 0.36935 0.10381 0.71923 0.0
O488 O 0.41748 0.09465 0.7548 0.0
O489 O 0.3859 0.09996 0.71875 0.0
C490 C 0.86456 0.37553 0.69752 0.0
O491 O 0.86776 0.39068 0.69067 0.0
Cd492 Cd 0.88184 0.41469 0.70701 0.0
O493 O 0.86736 0.37287 0.71404 0.0
Cd494 Cd 0.87692 0.389 0.74129 0.0
C495 C 0.91843 0.39206 0.7237 0.0
O496 O 0.86552 0.41855 0.73394 0.0
O497 O 0.88351 0.41691 0.75642 0.0
O498 O 0.85197 0.37365 0.75572 0.0
C499 C 0.87364 0.42642 0.74667 0.0
O500 O 0.91208 0.40407 0.71362 0.0
C501 C 0.86051 0.37001 0.76988 0.0
O502 O 0.90834 0.38352 0.73449 0.0
O503 O 0.87697 0.37468 0.77057 0.0
C504 C 0.61582 0.11059 0.28194 0.0
O505 O 0.60012 0.10956 0.28846 0.0
Cd506 Cd 0.57474 0.09916 0.27166 0.0
O507 O 0.61846 0.10752 0.26545 0.0
Cd508 Cd 0.60137 0.10097 0.23762 0.0
C509 C 0.59201 0.06021 0.25396 0.0
O510 O 0.57423 0.1169 0.2455 0.0
O511 O 0.57237 0.1004 0.22208 0.0
O512 O 0.6207 0.12388 0.22493 0.0
C513 C 0.56486 0.11124 0.2325 0.0
O514 O 0.58158 0.06822 0.26464 0.0
C515 C 0.62291 0.11615 0.21008 0.0
O516 O 0.60153 0.06886 0.24276 0.0
O517 O 0.61576 0.1008 0.20824 0.0
C518 C 0.88121 0.60397 0.20414 0.0
O519 O 0.89699 0.6006 0.19888 0.0
Cd520 Cd 0.92077 0.59238 0.21843 0.0
O521 O 0.87738 0.60366 0.22066 0.0
Cd522 Cd 0.89246 0.59864 0.24969 0.0
C523 C 0.89975 0.55611 0.23833 0.0
O524 O 0.92083 0.61322 0.24231 0.0
O525 O 0.92115 0.59701 0.26591 0.0
O526 O 0.87647 0.62449 0.25942 0.0
C527 C 0.92937 0.6079 0.25584 0.0
O528 O 0.91209 0.56267 0.2285 0.0
C529 C 0.87097 0.61807 0.27406 0.0
O530 O 0.8893 0.56619 0.24702 0.0
O531 O 0.87493 0.60201 0.27731 0.0
C532 C 0.36332 0.87673 0.19441 0.0
O533 O 0.3668 0.89146 0.18688 0.0
Cd534 Cd 0.38334 0.9142 0.20266 0.0
O535 O 0.36643 0.87477 0.21097 0.0
Cd536 Cd 0.37629 0.89219 0.23732 0.0
C537 C 0.41785 0.88964 0.22085 0.0
O538 O 0.36796 0.92267 0.22932 0.0
O539 O 0.38785 0.91968 0.25008 0.0
O540 O 0.34894 0.88335 0.25239 0.0
C541 C 0.37787 0.9299 0.24118 0.0
O542 O 0.41249 0.90092 0.20944 0.0
C543 C 0.35648 0.87686 0.26605 0.0
O544 O 0.40719 0.8834 0.23259 0.0
O545 O 0.37355 0.87721 0.26635 0.0
C546 C 0.11398 0.38025 0.28923 0.0
O547 O 0.10977 0.3945 0.29718 0.0
Cd548 Cd 0.09459 0.41799 0.282 0.0
O549 O 0.11165 0.37864 0.27249 0.0
Cd550 Cd 0.10213 0.39627 0.24644 0.0
C551 C 0.05962 0.39467 0.26178 0.0
O552 O 0.11247 0.42582 0.25662 0.0
O553 O 0.09588 0.42481 0.233 0.0
O554 O 0.12826 0.38389 0.2318 0.0
C555 C 0.10516 0.43406 0.24384 0.0
O556 O 0.06503 0.40552 0.27379 0.0
C557 C 0.12014 0.38002 0.21739 0.0
O558 O 0.07047 0.3886 0.25029 0.0
O559 O 0.10348 0.38336 0.2166 0.0
C560 C 0.78981 0.61877 0.87957 0.0
O561 O 0.79618 0.61688 0.89513 0.0
Cd562 Cd 0.77893 0.60318 0.91819 0.0
O563 O 0.77328 0.61538 0.8764 0.0
Cd564 Cd 0.74559 0.60737 0.89306 0.0
C565 C 0.76191 0.56625 0.89572 0.0
O566 O 0.75243 0.62025 0.92217 0.0
O567 O 0.73109 0.60049 0.92138 0.0
O568 O 0.73166 0.63323 0.88042 0.0
C569 C 0.7398 0.61215 0.93023 0.0
O570 O 0.77275 0.57294 0.90716 0.0
C571 C 0.71762 0.62522 0.87478 0.0
O572 O 0.75047 0.57589 0.88782 0.0
O573 O 0.71682 0.60847 0.87699 0.0
C574 C 0.69102 0.37853 0.11265 0.0
O575 O 0.68495 0.39351 0.10799 0.0
Cd576 Cd 0.70251 0.41777 0.09676 0.0
O577 O 0.70788 0.37571 0.11254 0.0
Cd578 Cd 0.73625 0.39252 0.10601 0.0
C579 C 0.72435 0.39579 0.06266 0.0
O580 O 0.72731 0.42196 0.11633 0.0
O581 O 0.75185 0.42084 0.10122 0.0
O582 O 0.74984 0.38176 0.13328 0.0
C583 C 0.74084 0.43013 0.10992 0.0
O584 O 0.7129 0.40699 0.06807 0.0
C585 C 0.76364 0.37535 0.12593 0.0
O586 O 0.7345 0.38775 0.07361 0.0
O587 O 0.76438 0.3762 0.10905 0.0
C588 C 0.61744 0.79315 0.10631 0.0
O589 O 0.6132 0.79989 0.09142 0.0
Cd590 Cd 0.59951 0.78229 0.06804 0.0
O591 O 0.61596 0.77645 0.10881 0.0
Cd592 Cd 0.60808 0.74859 0.09309 0.0
C593 C 0.56504 0.76199 0.09187 0.0
O594 O 0.61779 0.75698 0.06313 0.0
O595 O 0.6019 0.73281 0.06535 0.0
O596 O 0.63554 0.7365 0.10491 0.0
C597 C 0.61064 0.74353 0.05552 0.0
O598 O 0.57026 0.77286 0.07987 0.0
C599 C 0.62837 0.72267 0.1117 0.0
O600 O 0.5762 0.75202 0.09979 0.0
O601 O 0.61142 0.72093 0.11015 0.0
C602 C 0.29185 0.6004 0.11284 0.0
O603 O 0.2977 0.58505 0.10914 0.0
Cd604 Cd 0.27992 0.56079 0.09798 0.0
O605 O 0.27511 0.60363 0.11175 0.0
Cd606 Cd 0.24658 0.58738 0.10458 0.0
C607 C 0.26067 0.58243 0.06214 0.0
O608 O 0.25431 0.55823 0.11668 0.0
O609 O 0.23005 0.5593 0.10107 0.0
O610 O 0.23362 0.60271 0.12999 0.0
C611 C 0.24067 0.55011 0.11034 0.0
O612 O 0.27138 0.57097 0.06845 0.0
C613 C 0.21912 0.60673 0.12214 0.0
O614 O 0.25028 0.59113 0.07231 0.0
O615 O 0.21768 0.60241 0.10582 0.0
C616 C 0.36756 0.19301 0.10355 0.0
O617 O 0.37198 0.18599 0.08885 0.0
Cd618 Cd 0.38755 0.20312 0.06671 0.0
O619 O 0.37025 0.20956 0.10628 0.0
Cd620 Cd 0.38134 0.23681 0.09125 0.0
C621 C 0.42262 0.21953 0.09271 0.0
O622 O 0.37131 0.22987 0.06082 0.0
O623 O 0.39059 0.2514 0.06394 0.0
O624 O 0.35498 0.24934 0.10493 0.0
C625 C 0.38033 0.24244 0.05373 0.0
O626 O 0.41687 0.20905 0.08053 0.0
C627 C 0.3623 0.26407 0.10926 0.0
O628 O 0.41233 0.23092 0.09978 0.0
O629 O 0.37881 0.26622 0.10547 0.0
C630 C 0.194 0.36674 0.87143 0.0
O631 O 0.18756 0.36882 0.88691 0.0
Cd632 Cd 0.20468 0.38155 0.91068 0.0
O633 O 0.21067 0.3695 0.86851 0.0
Cd634 Cd 0.2383 0.37655 0.88609 0.0
C635 C 0.22333 0.41815 0.88925 0.0
O636 O 0.23031 0.36329 0.91477 0.0
O637 O 0.25211 0.38248 0.91509 0.0
O638 O 0.2527 0.35167 0.87143 0.0
C639 C 0.24283 0.37098 0.92345 0.0
O640 O 0.21217 0.4118 0.9005 0.0
C641 C 0.26721 0.36007 0.86804 0.0
O642 O 0.23434 0.40811 0.8813 0.0
O643 O 0.268 0.37639 0.87242 0.0
C644 C 0.61015 0.28975 0.88063 0.0
O645 O 0.59422 0.29468 0.88368 0.0
Cd646 Cd 0.57019 0.2754 0.89225 0.0
O647 O 0.61418 0.27333 0.88126 0.0
Cd648 Cd 0.59855 0.24417 0.88652 0.0
C649 C 0.59019 0.25594 0.92896 0.0
O650 O 0.57029 0.25112 0.8719 0.0
O651 O 0.56982 0.22789 0.88862 0.0
O652 O 0.61415 0.23221 0.86102 0.0
C653 C 0.56166 0.23767 0.8776 0.0
O654 O 0.5785 0.26617 0.92224 0.0
C655 C 0.61949 0.21818 0.86861 0.0
O656 O 0.60027 0.24664 0.91904 0.0
O657 O 0.61581 0.21651 0.88505 0.0
C658 C 0.38171 0.69617 0.88011 0.0
O659 O 0.39787 0.69182 0.88296 0.0
Cd660 Cd 0.42142 0.71249 0.89042 0.0
O661 O 0.37714 0.71243 0.88068 0.0
Cd662 Cd 0.39127 0.74217 0.88567 0.0
C663 C 0.40209 0.73128 0.92774 0.0
O664 O 0.41926 0.7366 0.87016 0.0
O665 O 0.41917 0.75995 0.88682 0.0
O666 O 0.37372 0.75185 0.86056 0.0
C667 C 0.42742 0.75049 0.8756 0.0
O668 O 0.41447 0.72222 0.92058 0.0
C669 C 0.36814 0.76607 0.8676 0.0
O670 O 0.39046 0.73915 0.91821 0.0
O671 O 0.37268 0.76898 0.8837 0.0
H672 H 0.12813 0.38021 0.32293 0.0
H673 H 0.11383 0.34551 0.27905 0.0
H674 H 0.1349 0.35439 0.3412 0.0
H675 H 0.11951 0.3198 0.29742 0.0
H676 H 0.1322 0.27409 0.33043 0.0
H677 H 0.13803 0.30081 0.31291 0.0
H678 H 0.11814 0.333 0.35622 0.0
H679 H 0.11348 0.30645 0.37394 0.0
C680 C 0.12653 0.36706 0.31717 0.0
C681 C 0.12024 0.36488 0.29964 0.0
C682 C 0.13032 0.35223 0.32766 0.0
C683 C 0.12754 0.3349 0.32095 0.0
C684 C 0.12212 0.33284 0.30308 0.0
C685 C 0.11868 0.34764 0.29252 0.0
C686 C 0.12956 0.28696 0.33632 0.0
C687 C 0.12217 0.28821 0.35343 0.0
C688 C 0.13274 0.30228 0.32624 0.0
C689 C 0.12816 0.31912 0.33291 0.0
C690 C 0.12201 0.32037 0.35058 0.0
C691 C 0.11921 0.30508 0.36078 0.0
H692 H 0.72081 0.11707 0.33348 0.0
H693 H 0.6822 0.10362 0.37425 0.0
H694 H 0.69643 0.12366 0.31293 0.0
H695 H 0.65781 0.10923 0.35355 0.0
H696 H 0.61541 0.12513 0.31535 0.0
H697 H 0.64052 0.12825 0.33608 0.0
H698 H 0.676 0.10642 0.29639 0.0
H699 H 0.65114 0.10418 0.27551 0.0
C700 C 0.70708 0.11569 0.33808 0.0
C701 C 0.70337 0.10966 0.35538 0.0
C702 C 0.69309 0.11932 0.32627 0.0
C703 C 0.67509 0.11667 0.33141 0.0
C704 C 0.67145 0.11162 0.3491 0.0
C705 C 0.68545 0.1083 0.361 0.0
C706 C 0.62865 0.12126 0.311 0.0
C707 C 0.63128 0.11425 0.29386 0.0
C708 C 0.64304 0.12295 0.32291 0.0
C709 C 0.66031 0.11742 0.31804 0.0
C710 C 0.663 0.1111 0.3006 0.0
C711 C 0.64869 0.10967 0.28862 0.0
H712 H 0.874 0.67471 0.3691 0.0
H713 H 0.84534 0.71112 0.33544 0.0
H714 H 0.8678 0.65074 0.34819 0.0
H715 H 0.83794 0.68687 0.31498 0.0
H716 H 0.86308 0.65299 0.27055 0.0
H717 H 0.85577 0.67363 0.29391 0.0
H718 H 0.85132 0.63012 0.33135 0.0
H719 H 0.85968 0.60939 0.3078 0.0
C720 C 0.86573 0.67741 0.35755 0.0
C721 C 0.86051 0.69481 0.35364 0.0
C722 C 0.86204 0.6636 0.34554 0.0
C723 C 0.85274 0.66689 0.32955 0.0
C724 C 0.8457 0.68395 0.3268 0.0
C725 C 0.8498 0.69784 0.33858 0.0
C726 C 0.86021 0.64773 0.28367 0.0
C727 C 0.86237 0.62961 0.28742 0.0
C728 C 0.85579 0.65961 0.29715 0.0
C729 C 0.85317 0.65367 0.31473 0.0
C730 C 0.85368 0.63526 0.31809 0.0
C731 C 0.85834 0.62334 0.30458 0.0
H732 H 0.32013 0.87436 0.26804 0.0
H733 H 0.36836 0.86474 0.29843 0.0
H734 H 0.30202 0.86759 0.29389 0.0
H735 H 0.35005 0.85735 0.32448 0.0
H736 H 0.31112 0.87836 0.36924 0.0
H737 H 0.33233 0.87408 0.34502 0.0
H738 H 0.29103 0.84654 0.3146 0.0
H739 H 0.26966 0.85166 0.3385 0.0
C740 C 0.32687 0.87043 0.28019 0.0
C741 C 0.34569 0.8703 0.28124 0.0
C742 C 0.31644 0.86633 0.29503 0.0
C743 C 0.32453 0.86189 0.31135 0.0
C744 C 0.34338 0.8609 0.31218 0.0
C745 C 0.35387 0.86506 0.29725 0.0
C746 C 0.30676 0.87092 0.35759 0.0
C747 C 0.28869 0.86566 0.35556 0.0
C748 C 0.31893 0.86841 0.34369 0.0
C749 C 0.31326 0.86037 0.32763 0.0
C750 C 0.29569 0.85328 0.32655 0.0
C751 C 0.28347 0.85608 0.34028 0.0
H752 H 0.11637 0.61802 0.67643 0.0
H753 H 0.14399 0.65149 0.71478 0.0
H754 H 0.12074 0.64061 0.65374 0.0
H755 H 0.14941 0.67377 0.69182 0.0
H756 H 0.11994 0.71788 0.66101 0.0
H757 H 0.12912 0.69393 0.68018 0.0
H758 H 0.13607 0.65995 0.63422 0.0
H759 H 0.12601 0.684 0.61495 0.0
C760 C 0.12407 0.62991 0.6798 0.0
C761 C 0.12949 0.63321 0.69743 0.0
C762 C 0.12667 0.6429 0.66674 0.0
C763 C 0.13501 0.65932 0.67102 0.0
C764 C 0.14238 0.66157 0.68818 0.0
C765 C 0.13943 0.64875 0.70132 0.0
C766 C 0.12376 0.70543 0.65491 0.0
C767 C 0.12189 0.70273 0.6365 0.0
C768 C 0.12924 0.69165 0.66594 0.0
C769 C 0.13319 0.67482 0.65883 0.0
C770 C 0.13278 0.6726 0.64021 0.0
C771 C 0.12713 0.68642 0.62914 0.0
H772 H 0.3264 0.1236 0.61288 0.0
H773 H 0.28199 0.113 0.64842 0.0
H774 H 0.34665 0.12621 0.63839 0.0
H775 H 0.30217 0.11462 0.67368 0.0
H776 H 0.33862 0.1229 0.71879 0.0
H777 H 0.32062 0.13067 0.6929 0.0
H778 H 0.36024 0.10698 0.65853 0.0
H779 H 0.37866 0.10033 0.68439 0.0
C780 C 0.32095 0.12194 0.62615 0.0
C781 C 0.30263 0.11795 0.62863 0.0
C782 C 0.33257 0.12332 0.64077 0.0
C783 C 0.32615 0.12046 0.65817 0.0
C784 C 0.30765 0.11723 0.6606 0.0
C785 C 0.29603 0.11615 0.64604 0.0
C786 C 0.3436 0.11972 0.70564 0.0
C787 C 0.3599 0.11084 0.70356 0.0
C788 C 0.33324 0.12404 0.69079 0.0
C789 C 0.33872 0.11912 0.67357 0.0
C790 C 0.35559 0.11116 0.6715 0.0
C791 C 0.36614 0.10722 0.68635 0.0
H792 H 0.85446 0.2709 0.6487 0.0
H793 H 0.87467 0.30729 0.60887 0.0
H794 H 0.84603 0.29595 0.66738 0.0
H795 H 0.86733 0.33228 0.62784 0.0
H796 H 0.85217 0.37641 0.66311 0.0
H797 H 0.8481 0.35127 0.64285 0.0
H798 H 0.86248 0.31538 0.68535 0.0
H799 H 0.86555 0.34028 0.70561 0.0
C800 C 0.85688 0.28428 0.64386 0.0
C801 C 0.86542 0.28716 0.62746 0.0
C802 C 0.8522 0.29866 0.65461 0.0
C803 C 0.85636 0.31621 0.64937 0.0
C804 C 0.86374 0.31904 0.63235 0.0
C805 C 0.86808 0.30467 0.62145 0.0
C806 C 0.85408 0.36309 0.66817 0.0
C807 C 0.8594 0.36036 0.68591 0.0
C808 C 0.85186 0.34866 0.65653 0.0
C809 C 0.85521 0.33122 0.66231 0.0
C810 C 0.85951 0.3285 0.68036 0.0
C811 C 0.86143 0.34287 0.69203 0.0
H812 H 0.66612 0.8691 0.60517 0.0
H813 H 0.70538 0.88306 0.64553 0.0
H814 H 0.64283 0.86753 0.62774 0.0
H815 H 0.6819 0.88225 0.6681 0.0
H816 H 0.6028 0.8904 0.66683 0.0
H817 H 0.62659 0.88794 0.64501 0.0
H818 H 0.66106 0.86469 0.68483 0.0
H819 H 0.63735 0.86782 0.70693 0.0
C820 C 0.66977 0.87183 0.61889 0.0
C821 C 0.68755 0.87635 0.62356 0.0
C822 C 0.65639 0.87105 0.63183 0.0
C823 C 0.6604 0.87503 0.64973 0.0
C824 C 0.67833 0.87894 0.65449 0.0
C825 C 0.69179 0.87949 0.64154 0.0
C826 C 0.61541 0.88467 0.67093 0.0
C827 C 0.61819 0.87935 0.68863 0.0
C828 C 0.62905 0.88314 0.65837 0.0
C829 C 0.64576 0.87603 0.66311 0.0
C830 C 0.64845 0.87044 0.68077 0.0
C831 C 0.63483 0.87215 0.69341 0.0
H832 H 0.34743 0.1262 0.27927 0.0
H833 H 0.38356 0.11105 0.32158 0.0
H834 H 0.32382 0.13116 0.30114 0.0
H835 H 0.35998 0.11526 0.34317 0.0
H836 H 0.31899 0.13076 0.38157 0.0
H837 H 0.3416 0.13509 0.35859 0.0
H838 H 0.30468 0.11333 0.31933 0.0
H839 H 0.28181 0.10987 0.34223 0.0
C840 C 0.35037 0.12404 0.29322 0.0
C841 C 0.36734 0.11811 0.29866 0.0
C842 C 0.33682 0.12679 0.30575 0.0
C843 C 0.33993 0.12355 0.32394 0.0
C844 C 0.35712 0.11823 0.32936 0.0
C845 C 0.37066 0.11564 0.31691 0.0
C846 C 0.31563 0.1272 0.36796 0.0
C847 C 0.29875 0.11975 0.36371 0.0
C848 C 0.32861 0.12959 0.35479 0.0
C849 C 0.32512 0.12422 0.33715 0.0
C850 C 0.30783 0.11775 0.33273 0.0
C851 C 0.29472 0.11566 0.34587 0.0
H852 H 0.871 0.30867 0.37039 0.0
H853 H 0.84326 0.26971 0.33768 0.0
H854 H 0.86576 0.3313 0.34797 0.0
H855 H 0.83704 0.29255 0.31562 0.0
H856 H 0.86457 0.32426 0.2705 0.0
H857 H 0.85717 0.30476 0.29498 0.0
H858 H 0.84919 0.35035 0.32912 0.0
H859 H 0.85736 0.37004 0.30444 0.0
C860 C 0.8631 0.30513 0.35873 0.0
C861 C 0.85788 0.28738 0.35556 0.0
C862 C 0.86001 0.31814 0.34585 0.0
C863 C 0.8514 0.31367 0.3297 0.0
C864 C 0.84426 0.29634 0.32762 0.0
C865 C 0.84767 0.28327 0.34032 0.0
C866 C 0.86096 0.33019 0.28313 0.0
C867 C 0.86185 0.34869 0.28561 0.0
C868 C 0.85648 0.31896 0.29721 0.0
C869 C 0.85263 0.32591 0.31416 0.0
C870 C 0.85234 0.34452 0.31633 0.0
C871 C 0.85693 0.35581 0.30218 0.0
H872 H 0.69796 0.86983 0.34193 0.0
H873 H 0.65942 0.85029 0.38035 0.0
H874 H 0.67495 0.8688 0.31887 0.0
H875 H 0.63657 0.84839 0.35713 0.0
H876 H 0.59618 0.87551 0.32035 0.0
H877 H 0.61937 0.86951 0.3421 0.0
H878 H 0.65492 0.85298 0.29995 0.0
H879 H 0.63179 0.85978 0.27801 0.0
C880 C 0.68469 0.86483 0.34533 0.0
C881 C 0.68041 0.86041 0.36299 0.0
C882 C 0.67147 0.86415 0.33208 0.0
C883 C 0.65377 0.85878 0.33617 0.0
C884 C 0.64991 0.85307 0.35359 0.0
C885 C 0.66304 0.85404 0.36689 0.0
C886 C 0.60886 0.87042 0.3157 0.0
C887 C 0.61218 0.86829 0.29743 0.0
C888 C 0.62217 0.86681 0.32823 0.0
C889 C 0.6391 0.86075 0.32283 0.0
C890 C 0.64216 0.85791 0.30457 0.0
C891 C 0.62888 0.86173 0.292 0.0
H892 H 0.12776 0.66492 0.27425 0.0
H893 H 0.13256 0.61834 0.30739 0.0
H894 H 0.13412 0.68379 0.29961 0.0
H895 H 0.13978 0.63734 0.33294 0.0
H896 H 0.11487 0.6773 0.37383 0.0
H897 H 0.12203 0.65553 0.3511 0.0
H898 H 0.15206 0.69577 0.32218 0.0
H899 H 0.14387 0.71776 0.34449 0.0
C900 C 0.13072 0.65868 0.28689 0.0
C901 C 0.12929 0.64016 0.28888 0.0
C902 C 0.13457 0.66954 0.30151 0.0
C903 C 0.13728 0.66216 0.3185 0.0
C904 C 0.13739 0.64351 0.32015 0.0
C905 C 0.13337 0.6326 0.30549 0.0
C906 C 0.12344 0.68135 0.36287 0.0
C907 C 0.12848 0.69927 0.36067 0.0
C908 C 0.12764 0.66883 0.34982 0.0
C909 C 0.13724 0.67395 0.33448 0.0
C910 C 0.14412 0.69147 0.33349 0.0
C911 C 0.13957 0.70406 0.34633 0.0
H912 H 0.33289 0.86908 0.71343 0.0
H913 H 0.36896 0.85245 0.67186 0.0
H914 H 0.3078 0.86676 0.69291 0.0
H915 H 0.34363 0.84914 0.65141 0.0
H916 H 0.30047 0.87472 0.61557 0.0
H917 H 0.32529 0.86805 0.63532 0.0
H918 H 0.28767 0.8503 0.67558 0.0
H919 H 0.26279 0.85804 0.65605 0.0
C920 C 0.33539 0.86448 0.69999 0.0
C921 C 0.35294 0.86119 0.6942 0.0
C922 C 0.32093 0.86298 0.68819 0.0
C923 C 0.3236 0.85787 0.67036 0.0
C924 C 0.34107 0.85352 0.6649 0.0
C925 C 0.3556 0.85532 0.67665 0.0
C926 C 0.29751 0.86905 0.62851 0.0
C927 C 0.2797 0.86716 0.63438 0.0
C928 C 0.31178 0.86511 0.63986 0.0
C929 C 0.30857 0.85889 0.65725 0.0
C930 C 0.29069 0.85556 0.6625 0.0
C931 C 0.27641 0.85984 0.65126 0.0
H932 H 0.13074 0.34089 0.70631 0.0
H933 H 0.10852 0.37957 0.67038 0.0
H934 H 0.13848 0.3221 0.68108 0.0
H935 H 0.11511 0.36044 0.64527 0.0
H936 H 0.12853 0.32456 0.60086 0.0
H937 H 0.13332 0.34548 0.62535 0.0
H938 H 0.12156 0.30339 0.66297 0.0
H939 H 0.11783 0.28252 0.63866 0.0
C940 C 0.12774 0.34547 0.69297 0.0
C941 C 0.11883 0.36155 0.69029 0.0
C942 C 0.13202 0.33464 0.6785 0.0
C943 C 0.12702 0.33946 0.66108 0.0
C944 C 0.11933 0.35624 0.65838 0.0
C945 C 0.11543 0.36723 0.67284 0.0
C946 C 0.12733 0.31976 0.6144 0.0
C947 C 0.1226 0.30193 0.61782 0.0
C948 C 0.12997 0.33177 0.62846 0.0
C949 C 0.12761 0.32628 0.64623 0.0
C950 C 0.12379 0.30819 0.64957 0.0
C951 C 0.12148 0.29616 0.63555 0.0
H952 H 0.67331 0.10646 0.62019 0.0
H953 H 0.71307 0.12301 0.65908 0.0
H954 H 0.6498 0.10978 0.6422 0.0
H955 H 0.68939 0.12715 0.68103 0.0
H956 H 0.64673 0.10556 0.7203 0.0
H957 H 0.67059 0.10872 0.69848 0.0
H958 H 0.63238 0.12843 0.66008 0.0
H959 H 0.60836 0.12446 0.68173 0.0
C960 C 0.67698 0.11121 0.63336 0.0
C961 C 0.69505 0.1143 0.63796 0.0
C962 C 0.66346 0.11324 0.64599 0.0
C963 C 0.66765 0.11863 0.66349 0.0
C964 C 0.68569 0.12262 0.6678 0.0
C965 C 0.69926 0.12037 0.6552 0.0
C966 C 0.64346 0.11076 0.70726 0.0
C967 C 0.62562 0.11454 0.70266 0.0
C968 C 0.65719 0.1127 0.69475 0.0
C969 C 0.65345 0.11869 0.67741 0.0
C970 C 0.63572 0.12339 0.67316 0.0
C971 C 0.62195 0.1212 0.6856 0.0
H972 H 0.86575 0.70328 0.64186 0.0
H973 H 0.8546 0.65982 0.60555 0.0
H974 H 0.86177 0.68349 0.66688 0.0
H975 H 0.84952 0.64 0.63077 0.0
H976 H 0.8742 0.60754 0.67697 0.0
H977 H 0.86767 0.62573 0.65122 0.0
H978 H 0.8449 0.66567 0.68565 0.0
H979 H 0.85262 0.64781 0.71153 0.0
C980 C 0.86193 0.68956 0.63923 0.0
C981 C 0.86079 0.68306 0.62171 0.0
C982 C 0.85947 0.67816 0.65366 0.0
C983 C 0.85547 0.65999 0.65096 0.0
C984 C 0.85303 0.65379 0.63339 0.0
C985 C 0.85583 0.66516 0.61892 0.0
C986 C 0.86747 0.62004 0.67899 0.0
C987 C 0.86423 0.62643 0.69624 0.0
C988 C 0.86359 0.63049 0.66417 0.0
C989 C 0.85604 0.64743 0.66627 0.0
C990 C 0.85124 0.65299 0.68351 0.0
C991 C 0.85551 0.6427 0.69836 0.0
H992 H 0.30304 0.3622 0.12229 0.0
H993 H 0.26615 0.3177 0.11604 0.0
H994 H 0.32749 0.34161 0.12792 0.0
H995 H 0.29038 0.29729 0.12073 0.0
H996 H 0.33327 0.26081 0.13083 0.0
H997 H 0.31181 0.2838 0.13819 0.0
H998 H 0.34473 0.32255 0.11028 0.0
H999 H 0.36669 0.2997 0.10409 0.0
C1000 C 0.3001 0.34805 0.12238 0.0
C1001 C 0.28272 0.34156 0.11851 0.0
C1002 C 0.31413 0.33623 0.12547 0.0
C1003 C 0.31105 0.31772 0.1246 0.0
C1004 C 0.29337 0.31139 0.12181 0.0
C1005 C 0.2794 0.32315 0.11893 0.0
C1006 C 0.33609 0.27437 0.12674 0.0
C1007 C 0.35144 0.27849 0.11669 0.0
C1008 C 0.32375 0.28754 0.13081 0.0
C1009 C 0.3262 0.30499 0.1244 0.0
C1010 C 0.34234 0.30934 0.11554 0.0
C1011 C 0.35493 0.29622 0.11188 0.0
H1012 H 0.38483 0.6605 0.88541 0.0
H1013 H 0.3475 0.70009 0.86738 0.0
H1014 H 0.36171 0.63762 0.88223 0.0
H1015 H 0.32446 0.677 0.86343 0.0
H1016 H 0.28278 0.63553 0.88318 0.0
H1017 H 0.30565 0.65885 0.88126 0.0
H1018 H 0.34391 0.62042 0.86253 0.0
H1019 H 0.32118 0.59694 0.86525 0.0
C1020 C 0.37175 0.66428 0.88047 0.0
C1021 C 0.36796 0.68214 0.87678 0.0
C1022 C 0.35849 0.6511 0.8785 0.0
C1023 C 0.34116 0.65542 0.87257 0.0
C1024 C 0.33755 0.67323 0.86832 0.0
C1025 C 0.35078 0.68646 0.8705 0.0
C1026 C 0.29602 0.63209 0.87845 0.0
C1027 C 0.30024 0.61436 0.87457 0.0
C1028 C 0.30914 0.64551 0.87724 0.0
C1029 C 0.32672 0.64153 0.8719 0.0
C1030 C 0.33064 0.62391 0.8671 0.0
C1031 C 0.31758 0.61046 0.86854 0.0
H1032 H 0.26811 0.32823 0.85061 0.0
H1033 H 0.30221 0.37059 0.871 0.0
H1034 H 0.29447 0.31029 0.84492 0.0
H1035 H 0.32843 0.35241 0.8664 0.0
H1036 H 0.33868 0.27503 0.86823 0.0
H1037 H 0.31324 0.29409 0.86331 0.0
H1038 H 0.34935 0.33743 0.84923 0.0
H1039 H 0.37493 0.31845 0.85516 0.0
C1040 C 0.28128 0.33377 0.85366 0.0
C1041 C 0.28312 0.35069 0.86145 0.0
C1042 C 0.29639 0.32345 0.85056 0.0
C1043 C 0.31362 0.32967 0.85557 0.0
C1044 C 0.31548 0.34714 0.8622 0.0
C1045 C 0.30039 0.35759 0.86495 0.0
C1046 C 0.3412 0.28855 0.86385 0.0
C1047 C 0.35881 0.29531 0.86235 0.0
C1048 C 0.32656 0.2995 0.86085 0.0
C1049 C 0.32915 0.31743 0.85597 0.0
C1050 C 0.34681 0.32384 0.85336 0.0
C1051 C 0.36149 0.31294 0.85667 0.0
H1052 H 0.60753 0.32557 0.88488 0.0
H1053 H 0.64459 0.28491 0.86882 0.0
H1054 H 0.63098 0.34799 0.8818 0.0
H1055 H 0.66806 0.30761 0.86495 0.0
H1056 H 0.70967 0.34937 0.88533 0.0
H1057 H 0.68674 0.32611 0.88286 0.0
H1058 H 0.6493 0.36445 0.86231 0.0
H1059 H 0.67204 0.38786 0.86562 0.0
C1060 C 0.62063 0.32144 0.88037 0.0
C1061 C 0.62422 0.30342 0.87722 0.0
C1062 C 0.63409 0.33437 0.87845 0.0
C1063 C 0.65147 0.32967 0.87309 0.0
C1064 C 0.65491 0.31169 0.86937 0.0
C1065 C 0.64145 0.29868 0.8715 0.0
C1066 C 0.6966 0.35279 0.88009 0.0
C1067 C 0.69258 0.37049 0.8759 0.0
C1068 C 0.68346 0.33941 0.87856 0.0
C1069 C 0.66606 0.3434 0.87257 0.0
C1070 C 0.6624 0.36096 0.8674 0.0
C1071 C 0.67546 0.37438 0.8692 0.0
H1072 H 0.71548 0.66106 0.87109 0.0
H1073 H 0.68489 0.61233 0.86335 0.0
H1074 H 0.68879 0.6782 0.86575 0.0
H1075 H 0.65806 0.62961 0.85722 0.0
H1076 H 0.61283 0.66524 0.87989 0.0
H1077 H 0.63848 0.64617 0.87548 0.0
H1078 H 0.66589 0.68852 0.84707 0.0
H1079 H 0.64048 0.70787 0.85227 0.0
C1080 C 0.70312 0.654 0.86776 0.0
C1081 C 0.70223 0.63534 0.86793 0.0
C1082 C 0.68777 0.66387 0.86453 0.0
C1083 C 0.67115 0.65532 0.86123 0.0
C1084 C 0.67056 0.63662 0.86009 0.0
C1085 C 0.68595 0.62672 0.86347 0.0
C1086 C 0.62422 0.67039 0.87247 0.0
C1087 C 0.62479 0.68816 0.86673 0.0
C1088 C 0.63891 0.65939 0.86979 0.0
C1089 C 0.6544 0.66585 0.8611 0.0
C1090 C 0.65438 0.68324 0.85421 0.0
C1091 C 0.63979 0.69432 0.85713 0.0
H1092 H 0.6647 0.72291 0.11515 0.0
H1093 H 0.61742 0.69083 0.12623 0.0
H1094 H 0.68362 0.69853 0.12368 0.0
H1095 H 0.63651 0.66635 0.13553 0.0
H1096 H 0.71745 0.6559 0.14033 0.0
H1097 H 0.6955 0.67917 0.14492 0.0
H1098 H 0.65465 0.64585 0.1201 0.0
H1099 H 0.67637 0.62236 0.11645 0.0
C1100 C 0.65833 0.71075 0.11983 0.0
C1101 C 0.63956 0.70871 0.11973 0.0
C1102 C 0.66922 0.69675 0.12495 0.0
C1103 C 0.66165 0.68035 0.13026 0.0
C1104 C 0.64281 0.67869 0.13126 0.0
C1105 C 0.63187 0.69274 0.126 0.0
C1106 C 0.70363 0.65338 0.13641 0.0
C1107 C 0.69867 0.63748 0.12774 0.0
C1108 C 0.69106 0.66675 0.1389 0.0
C1109 C 0.67341 0.66464 0.13238 0.0
C1110 C 0.66808 0.64801 0.12532 0.0
C1111 C 0.68058 0.63451 0.12316 0.0
H1112 H 0.38729 0.66686 0.12947 0.0
H1113 H 0.34702 0.70131 0.10751 0.0
H1114 H 0.36464 0.64354 0.13353 0.0
H1115 H 0.32449 0.67771 0.11069 0.0
H1116 H 0.28479 0.63429 0.12428 0.0
H1117 H 0.30631 0.65878 0.12855 0.0
H1118 H 0.34958 0.62384 0.11427 0.0
H1119 H 0.32833 0.59943 0.11079 0.0
C1120 C 0.37355 0.66946 0.12558 0.0
C1121 C 0.36896 0.68582 0.11797 0.0
C1122 C 0.36057 0.65606 0.1278 0.0
C1123 C 0.34277 0.65857 0.12213 0.0
C1124 C 0.33801 0.67531 0.11536 0.0
C1125 C 0.35095 0.68883 0.11343 0.0
C1126 C 0.29894 0.63183 0.12233 0.0
C1127 C 0.30482 0.61492 0.11711 0.0
C1128 C 0.31127 0.64589 0.12466 0.0
C1129 C 0.32972 0.64336 0.12169 0.0
C1130 C 0.33557 0.62628 0.11702 0.0
C1131 C 0.32331 0.61224 0.11487 0.0
H1132 H 0.69839 0.34527 0.12555 0.0
H1133 H 0.65458 0.37866 0.10927 0.0
H1134 H 0.67724 0.32053 0.1299 0.0
H1135 H 0.63371 0.35396 0.11288 0.0
H1136 H 0.63826 0.27643 0.10874 0.0
H1137 H 0.66005 0.30069 0.11177 0.0
H1138 H 0.61851 0.33457 0.13237 0.0
H1139 H 0.59658 0.3105 0.12853 0.0
C1140 C 0.68426 0.34736 0.123 0.0
C1141 C 0.67821 0.36392 0.11696 0.0
C1142 C 0.67214 0.33316 0.12539 0.0
C1143 C 0.65374 0.33517 0.12166 0.0
C1144 C 0.64769 0.35193 0.1162 0.0
C1145 C 0.65973 0.36612 0.11398 0.0
C1146 C 0.63384 0.28899 0.11413 0.0
C1147 C 0.61565 0.29165 0.11813 0.0
C1148 C 0.64637 0.3029 0.11598 0.0
C1149 C 0.64103 0.31971 0.12211 0.0
C1150 C 0.62303 0.32196 0.12718 0.0
C1151 C 0.61046 0.30814 0.12507 0.0
H1152 H 0.62052 0.82725 0.76747 0.0
H1153 H 0.62788 0.87129 0.80392 0.0
H1154 H 0.62864 0.8067 0.79064 0.0
H1155 H 0.63704 0.85066 0.82719 0.0
H1156 H 0.64089 0.76962 0.83209 0.0
H1157 H 0.64749 0.79325 0.81082 0.0
H1158 H 0.62106 0.83088 0.84522 0.0
H1159 H 0.61565 0.80752 0.86684 0.0
C1160 C 0.62444 0.83261 0.78033 0.0
C1161 C 0.62317 0.85086 0.78397 0.0
C1162 C 0.62931 0.82077 0.79369 0.0
C1163 C 0.63329 0.82691 0.81101 0.0
C1164 C 0.63363 0.84538 0.81416 0.0
C1165 C 0.6285 0.85724 0.8008 0.0
C1166 C 0.63704 0.78309 0.83529 0.0
C1167 C 0.62748 0.78671 0.85092 0.0
C1168 C 0.64067 0.79662 0.82305 0.0
C1169 C 0.63432 0.81393 0.82596 0.0
C1170 C 0.62625 0.81781 0.84243 0.0
C1171 C 0.62302 0.80435 0.85486 0.0
H1172 H 0.17957 0.60736 0.87621 0.0
H1173 H 0.21763 0.62512 0.83655 0.0
H1174 H 0.155 0.61275 0.85566 0.0
H1175 H 0.19301 0.63151 0.81621 0.0
H1176 H 0.14993 0.60984 0.77741 0.0
H1177 H 0.17424 0.61338 0.79875 0.0
H1178 H 0.13645 0.63086 0.83853 0.0
H1179 H 0.11196 0.62643 0.81729 0.0
C1180 C 0.18262 0.61303 0.8633 0.0
C1181 C 0.20049 0.61556 0.85786 0.0
C1182 C 0.16851 0.6162 0.85148 0.0
C1183 C 0.17199 0.62225 0.83407 0.0
C1184 C 0.18984 0.62633 0.82929 0.0
C1185 C 0.20396 0.62284 0.841 0.0
C1186 C 0.14683 0.61465 0.79064 0.0
C1187 C 0.129 0.61762 0.79573 0.0
C1188 C 0.16083 0.61684 0.8029 0.0
C1189 C 0.15737 0.62234 0.82048 0.0
C1190 C 0.1396 0.62626 0.82524 0.0
C1191 C 0.12556 0.62379 0.81304 0.0
H1192 H 0.35742 0.10309 0.82437 0.0
H1193 H 0.37192 0.13696 0.78012 0.0
H1194 H 0.35067 0.12929 0.8422 0.0
H1195 H 0.36621 0.163 0.79804 0.0
H1196 H 0.3538 0.20934 0.83026 0.0
H1197 H 0.34767 0.1823 0.81319 0.0
H1198 H 0.36786 0.15089 0.8569 0.0
H1199 H 0.37286 0.17778 0.87419 0.0
C1200 C 0.35903 0.11613 0.81841 0.0
C1201 C 0.36543 0.11797 0.80093 0.0
C1202 C 0.35526 0.13116 0.82865 0.0
C1203 C 0.35812 0.14836 0.82172 0.0
C1204 C 0.36356 0.15007 0.80386 0.0
C1205 C 0.36702 0.13507 0.79356 0.0
C1206 C 0.35647 0.19659 0.83633 0.0
C1207 C 0.36405 0.19564 0.85343 0.0
C1208 C 0.35309 0.18108 0.82651 0.0
C1209 C 0.35765 0.16435 0.83344 0.0
C1210 C 0.364 0.16343 0.85109 0.0
C1211 C 0.36701 0.17891 0.86102 0.0
H1212 H 0.83098 0.34822 0.77029 0.0
H1213 H 0.86841 0.3761 0.80475 0.0
H1214 H 0.81151 0.3421 0.79564 0.0
H1215 H 0.84848 0.37122 0.82989 0.0
H1216 H 0.80958 0.36424 0.87357 0.0
H1217 H 0.83195 0.35567 0.85149 0.0
H1218 H 0.79201 0.36082 0.8099 0.0
H1219 H 0.76985 0.36839 0.83181 0.0
C1220 C 0.83514 0.35279 0.78338 0.0
C1221 C 0.851 0.36287 0.78556 0.0
C1222 C 0.82394 0.34943 0.79791 0.0
C1223 C 0.82807 0.35665 0.81479 0.0
C1224 C 0.84479 0.36536 0.81719 0.0
C1225 C 0.85623 0.36829 0.80273 0.0
C1226 C 0.80556 0.36304 0.85974 0.0
C1227 C 0.78804 0.36728 0.85439 0.0
C1228 C 0.8184 0.35826 0.84705 0.0
C1229 C 0.81396 0.35776 0.82879 0.0
C1230 C 0.79604 0.36077 0.82376 0.0
C1231 C 0.78327 0.36535 0.83639 0.0
H1232 H 0.62699 0.1749 0.11143 0.0
H1233 H 0.62509 0.20987 0.15707 0.0
H1234 H 0.63669 0.15065 0.13068 0.0
H1235 H 0.63395 0.18583 0.17623 0.0
H1236 H 0.64726 0.14355 0.21118 0.0
H1237 H 0.6535 0.1647 0.18735 0.0
H1238 H 0.62103 0.13267 0.15132 0.0
H1239 H 0.61583 0.11112 0.17485 0.0
C1240 C 0.62899 0.1775 0.1255 0.0
C1241 C 0.62496 0.19419 0.1328 0.0
C1242 C 0.63444 0.16359 0.13655 0.0
C1243 C 0.63588 0.16612 0.1551 0.0
C1244 C 0.63324 0.18327 0.16205 0.0
C1245 C 0.62792 0.19712 0.15104 0.0
C1246 C 0.64203 0.14076 0.19797 0.0
C1247 C 0.63078 0.12592 0.19491 0.0
C1248 C 0.64547 0.15294 0.18433 0.0
C1249 C 0.63727 0.15076 0.16753 0.0
C1250 C 0.62761 0.13487 0.16402 0.0
C1251 C 0.62453 0.12249 0.17757 0.0
H1252 H 0.88248 0.59843 0.16831 0.0
H1253 H 0.84788 0.6177 0.20999 0.0
H1254 H 0.85868 0.6025 0.14667 0.0
H1255 H 0.82417 0.62253 0.18811 0.0
H1256 H 0.77996 0.60512 0.14782 0.0
H1257 H 0.80351 0.60587 0.17041 0.0
H1258 H 0.84187 0.62333 0.13073 0.0
H1259 H 0.81848 0.62174 0.10806 0.0
C1260 C 0.86987 0.60382 0.17281 0.0
C1261 C 0.86704 0.60766 0.19088 0.0
C1262 C 0.85622 0.6063 0.16035 0.0
C1263 C 0.83947 0.61291 0.1656 0.0
C1264 C 0.8368 0.61718 0.18364 0.0
C1265 C 0.85042 0.61449 0.19617 0.0
C1266 C 0.79338 0.60934 0.144 0.0
C1267 C 0.79745 0.61313 0.12615 0.0
C1268 C 0.80689 0.60985 0.15697 0.0
C1269 C 0.82468 0.61443 0.15236 0.0
C1270 C 0.82844 0.61928 0.13467 0.0
C1271 C 0.81502 0.61848 0.12169 0.0
H1272 H 0.35364 0.77025 0.15017 0.0
H1273 H 0.3731 0.80529 0.10882 0.0
H1274 H 0.3446 0.79588 0.16773 0.0
H1275 H 0.36523 0.8309 0.12668 0.0
H1276 H 0.35041 0.87627 0.16016 0.0
H1277 H 0.34608 0.85031 0.141 0.0
H1278 H 0.36056 0.81618 0.18492 0.0
H1279 H 0.36383 0.84188 0.20408 0.0
C1280 C 0.35577 0.78345 0.14476 0.0
C1281 C 0.36428 0.78581 0.12827 0.0
C1282 C 0.35074 0.79817 0.15487 0.0
C1283 C 0.35456 0.81557 0.1489 0.0
C1284 C 0.36189 0.81781 0.13176 0.0
C1285 C 0.36654 0.80308 0.1215 0.0
C1286 C 0.35224 0.86316 0.16577 0.0
C1287 C 0.35771 0.86115 0.18357 0.0
C1288 C 0.34989 0.84826 0.15476 0.0
C1289 C 0.35326 0.83107 0.16123 0.0
C1290 C 0.35759 0.82909 0.17938 0.0
C1291 C 0.35963 0.84392 0.19043 0.0
H1292 H 0.20718 0.37208 0.1454 0.0
H1293 H 0.16221 0.35885 0.11112 0.0
H1294 H 0.18766 0.37097 0.1711 0.0
H1295 H 0.14268 0.35669 0.13705 0.0
H1296 H 0.11049 0.38244 0.18252 0.0
H1297 H 0.12889 0.37606 0.1567 0.0
H1298 H 0.17016 0.35532 0.19127 0.0
H1299 H 0.15209 0.36283 0.21713 0.0
C1300 C 0.19318 0.36846 0.14341 0.0
C1301 C 0.18619 0.36576 0.12622 0.0
C1302 C 0.18194 0.36768 0.15822 0.0
C1303 C 0.16347 0.36385 0.15625 0.0
C1304 C 0.15672 0.3601 0.13909 0.0
C1305 C 0.16793 0.36121 0.12421 0.0
C1306 C 0.12339 0.37628 0.18455 0.0
C1307 C 0.12999 0.37336 0.2018 0.0
C1308 C 0.13394 0.37248 0.16972 0.0
C1309 C 0.1512 0.36535 0.17181 0.0
C1310 C 0.15719 0.36127 0.18911 0.0
C1311 C 0.14679 0.36544 0.20395 0.0
H1312 H 0.78416 0.61319 0.84407 0.0
H1313 H 0.82329 0.63393 0.88163 0.0
H1314 H 0.80637 0.61499 0.82045 0.0
H1315 H 0.84533 0.63651 0.85784 0.0
H1316 H 0.88482 0.60871 0.82056 0.0
H1317 H 0.8622 0.61495 0.84266 0.0
H1318 H 0.82573 0.63141 0.80113 0.0
H1319 H 0.84834 0.62447 0.77878 0.0
C1320 C 0.79737 0.61862 0.84717 0.0
C1321 C 0.80209 0.62312 0.86476 0.0
C1322 C 0.8101 0.61974 0.83359 0.0
C1323 C 0.82776 0.62561 0.83729 0.0
C1324 C 0.832 0.63147 0.85462 0.0
C1325 C 0.81935 0.6301 0.86824 0.0
C1326 C 0.87206 0.61383 0.81609 0.0
C1327 C 0.86833 0.61591 0.79787 0.0
C1328 C 0.85909 0.61759 0.82883 0.0
C1329 C 0.84209 0.62371 0.82371 0.0
C1330 C 0.83859 0.62649 0.80551 0.0
C1331 C 0.85157 0.62257 0.79271 0.0
H1332 H 0.37025 0.86183 0.81323 0.0
H1333 H 0.33946 0.82907 0.77667 0.0
H1334 H 0.36452 0.84058 0.83691 0.0
H1335 H 0.33254 0.80829 0.80063 0.0
H1336 H 0.35841 0.76315 0.83286 0.0
H1337 H 0.35052 0.78689 0.81296 0.0
H1338 H 0.34852 0.82343 0.85751 0.0
H1339 H 0.35743 0.79949 0.87746 0.0
C1340 C 0.36161 0.85042 0.81047 0.0
C1341 C 0.35564 0.84684 0.79307 0.0
C1342 C 0.3582 0.83821 0.8241 0.0
C1343 C 0.34843 0.82237 0.82065 0.0
C1344 C 0.34066 0.81999 0.80366 0.0
C1345 C 0.34449 0.83195 0.78994 0.0
C1346 C 0.35593 0.77615 0.83852 0.0
C1347 C 0.35896 0.77953 0.85668 0.0
C1348 C 0.35118 0.78985 0.82706 0.0
C1349 C 0.34912 0.80729 0.8335 0.0
C1350 C 0.35044 0.81028 0.85199 0.0
C1351 C 0.3554 0.79653 0.86347 0.0
H1352 H 0.1993 0.37371 0.83616 0.0
H1353 H 0.16062 0.35146 0.873 0.0
H1354 H 0.17673 0.37292 0.81263 0.0
H1355 H 0.13826 0.34989 0.84931 0.0
H1356 H 0.13396 0.36435 0.77092 0.0
H1357 H 0.1571 0.35721 0.79276 0.0
H1358 H 0.12113 0.37196 0.83523 0.0
H1359 H 0.09798 0.3784 0.81359 0.0
C1360 C 0.18612 0.36816 0.83909 0.0
C1361 C 0.18161 0.36293 0.85648 0.0
C1362 C 0.17318 0.36763 0.82557 0.0
C1363 C 0.15555 0.36165 0.82914 0.0
C1364 C 0.15155 0.35506 0.84622 0.0
C1365 C 0.16439 0.35584 0.85977 0.0
C1366 C 0.13097 0.36586 0.78494 0.0
C1367 C 0.11416 0.37204 0.79051 0.0
C1368 C 0.14425 0.36183 0.79745 0.0
C1369 C 0.14102 0.364 0.81577 0.0
C1370 C 0.12403 0.36976 0.82128 0.0
C1371 C 0.11075 0.37364 0.80882 0.0
H1372 H 0.64331 0.14735 0.78162 0.0
H1373 H 0.61442 0.11753 0.82165 0.0
H1374 H 0.65079 0.17024 0.80355 0.0
H1375 H 0.62076 0.14086 0.84333 0.0
H1376 H 0.63033 0.18547 0.88033 0.0
H1377 H 0.63776 0.15982 0.86188 0.0
H1378 H 0.63286 0.19244 0.81476 0.0
H1379 H 0.62637 0.21789 0.83312 0.0
C1380 C 0.63886 0.14557 0.79523 0.0
C1381 C 0.62807 0.13086 0.79992 0.0
C1382 C 0.64299 0.15875 0.80778 0.0
C1383 C 0.63591 0.15776 0.82513 0.0
C1384 C 0.62653 0.14216 0.83018 0.0
C1385 C 0.6228 0.12875 0.81771 0.0
C1386 C 0.63136 0.18719 0.86605 0.0
C1387 C 0.62749 0.20363 0.85816 0.0
C1388 C 0.63548 0.17247 0.85545 0.0
C1389 C 0.63566 0.17387 0.83675 0.0
C1390 C 0.6331 0.19072 0.82907 0.0
C1391 C 0.62918 0.2054 0.83964 0.0
H1392 H 0.84163 0.35552 0.2101 0.0
H1393 H 0.87071 0.37598 0.16466 0.0
H1394 H 0.81494 0.35132 0.19162 0.0
H1395 H 0.8439 0.37255 0.14638 0.0
H1396 H 0.79498 0.36073 0.11422 0.0
H1397 H 0.8218 0.35472 0.13187 0.0
H1398 H 0.79378 0.37079 0.17949 0.0
H1399 H 0.76698 0.37604 0.16202 0.0
C1400 C 0.84236 0.35899 0.19612 0.0
C1401 C 0.85822 0.3663 0.18889 0.0
C1402 C 0.82703 0.35667 0.18554 0.0
C1403 C 0.82712 0.36186 0.16754 0.0
C1404 C 0.84331 0.36823 0.16011 0.0
C1405 C 0.85871 0.37032 0.17064 0.0
C1406 C 0.79448 0.3626 0.12851 0.0
C1407 C 0.77892 0.36903 0.1367 0.0
C1408 C 0.80989 0.35928 0.13862 0.0
C1409 C 0.81009 0.36246 0.15711 0.0
C1410 C 0.79415 0.36795 0.16535 0.0
C1411 C 0.77875 0.3711 0.15529 0.0
H1412 H 0.62976 0.83972 0.21159 0.0
H1413 H 0.60765 0.87994 0.17737 0.0
H1414 H 0.63794 0.82225 0.18556 0.0
H1415 H 0.61458 0.86208 0.15142 0.0
H1416 H 0.62816 0.82822 0.10547 0.0
H1417 H 0.63273 0.84811 0.13085 0.0
H1418 H 0.62145 0.80428 0.16658 0.0
H1419 H 0.61801 0.78447 0.14142 0.0
C1420 C 0.62687 0.84491 0.19846 0.0
C1421 C 0.61788 0.86104 0.19646 0.0
C1422 C 0.63139 0.83484 0.18352 0.0
C1423 C 0.62651 0.84044 0.16631 0.0
C1424 C 0.61871 0.85728 0.16435 0.0
C1425 C 0.61462 0.86754 0.17928 0.0
C1426 C 0.62703 0.82284 0.11879 0.0
C1427 C 0.62253 0.80483 0.12143 0.0
C1428 C 0.62954 0.83425 0.13336 0.0
C1429 C 0.62726 0.82795 0.15088 0.0
C1430 C 0.62365 0.8097 0.15341 0.0
C1431 C 0.62148 0.79828 0.1389 0.0
H1432 H 0.15059 0.61436 0.21089 0.0
H1433 H 0.11382 0.62685 0.16828 0.0
H1434 H 0.17554 0.61626 0.19038 0.0
H1435 H 0.13901 0.62977 0.14775 0.0
H1436 H 0.18363 0.60466 0.11348 0.0
H1437 H 0.15837 0.61103 0.13271 0.0
H1438 H 0.19494 0.63252 0.17246 0.0
H1439 H 0.22026 0.62502 0.15353 0.0
C1440 C 0.14788 0.61796 0.1972 0.0
C1441 C 0.1302 0.62024 0.19117 0.0
C1442 C 0.16227 0.61922 0.18539 0.0
C1443 C 0.1594 0.6231 0.16727 0.0
C1444 C 0.14175 0.62637 0.16148 0.0
C1445 C 0.12729 0.6248 0.17327 0.0
C1446 C 0.18623 0.61105 0.12619 0.0
C1447 C 0.2039 0.6141 0.13214 0.0
C1448 C 0.1717 0.61482 0.13724 0.0
C1449 C 0.17454 0.62203 0.15437 0.0
C1450 C 0.19223 0.62645 0.15963 0.0
C1451 C 0.20676 0.62232 0.14872 0.0
H1452 H 0.37103 0.15712 0.10709 0.0
H1453 H 0.35005 0.20335 0.13365 0.0
H1454 H 0.36671 0.13977 0.13399 0.0
H1455 H 0.34489 0.18577 0.16042 0.0
H1456 H 0.37212 0.15938 0.209 0.0
H1457 H 0.36503 0.17536 0.182 0.0
H1458 H 0.3493 0.1259 0.15641 0.0
H1459 H 0.3572 0.10977 0.18343 0.0
C1460 C 0.36494 0.16343 0.11851 0.0
C1461 C 0.36123 0.18169 0.11838 0.0
C1462 C 0.36234 0.15344 0.13396 0.0
C1463 C 0.35573 0.16143 0.14954 0.0
C1464 C 0.35047 0.1793 0.14883 0.0
C1465 C 0.35333 0.18937 0.13346 0.0
C1466 C 0.36683 0.15193 0.19774 0.0
C1467 C 0.36552 0.13329 0.19824 0.0
C1468 C 0.36259 0.16113 0.18222 0.0
C1469 C 0.35675 0.15192 0.16687 0.0
C1470 C 0.35412 0.13338 0.16785 0.0
C1471 C 0.35854 0.12414 0.18336 0.0
H1472 H 0.82051 0.76516 0.61512 0.0
H1473 H 0.86783 0.79745 0.62582 0.0
H1474 H 0.80162 0.78975 0.62312 0.0
H1475 H 0.84877 0.82216 0.63457 0.0
H1476 H 0.80882 0.86574 0.6146 0.0
H1477 H 0.83055 0.84232 0.61868 0.0
H1478 H 0.78983 0.80958 0.64405 0.0
H1479 H 0.76786 0.83275 0.63905 0.0
C1480 C 0.8269 0.77742 0.6196 0.0
C1481 C 0.84567 0.77944 0.61956 0.0
C1482 C 0.81602 0.79155 0.62441 0.0
C1483 C 0.82361 0.80806 0.62946 0.0
C1484 C 0.84246 0.80973 0.6305 0.0
C1485 C 0.85338 0.79555 0.62557 0.0
C1486 C 0.80464 0.85374 0.62152 0.0
C1487 C 0.78657 0.85089 0.62615 0.0
C1488 C 0.81715 0.84028 0.62393 0.0
C1489 C 0.81186 0.82381 0.63128 0.0
C1490 C 0.79424 0.82186 0.63781 0.0
C1491 C 0.78167 0.83519 0.6351 0.0
H1492 H 0.84126 0.20265 0.38194 0.0
H1493 H 0.88219 0.16879 0.36028 0.0
H1494 H 0.81961 0.17802 0.38032 0.0
H1495 H 0.86045 0.14441 0.35801 0.0
H1496 H 0.82609 0.10015 0.38335 0.0
H1497 H 0.84649 0.1252 0.37898 0.0
H1498 H 0.80203 0.15769 0.36256 0.0
H1499 H 0.78142 0.13266 0.36752 0.0
C1500 C 0.84552 0.19007 0.37646 0.0
C1501 C 0.86348 0.18757 0.3715 0.0
C1502 C 0.83309 0.17596 0.37544 0.0
C1503 C 0.83835 0.15913 0.36926 0.0
C1504 C 0.85605 0.15704 0.36326 0.0
C1505 C 0.8685 0.17105 0.36448 0.0
C1506 C 0.82065 0.11256 0.37861 0.0
C1507 C 0.8021 0.11442 0.37592 0.0
C1508 C 0.8324 0.12694 0.37599 0.0
C1509 C 0.82592 0.14352 0.37044 0.0
C1510 C 0.80743 0.1452 0.3671 0.0
C1511 C 0.79564 0.13082 0.36985 0.0
H1512 H 0.76905 0.81814 0.37166 0.0
H1513 H 0.79806 0.86697 0.36021 0.0
H1514 H 0.79613 0.80138 0.36689 0.0
H1515 H 0.82522 0.85006 0.35471 0.0
H1516 H 0.87217 0.81729 0.37835 0.0
H1517 H 0.84573 0.83524 0.37368 0.0
H1518 H 0.81886 0.79057 0.34813 0.0
H1519 H 0.84511 0.77239 0.35351 0.0
C1520 C 0.78112 0.82526 0.36763 0.0
C1521 C 0.78148 0.8439 0.36658 0.0
C1522 C 0.79669 0.81561 0.36476 0.0
C1523 C 0.81298 0.82436 0.36059 0.0
C1524 C 0.813 0.84293 0.35826 0.0
C1525 C 0.79741 0.85261 0.36128 0.0
C1526 C 0.86073 0.81138 0.37149 0.0
C1527 C 0.86061 0.79334 0.36659 0.0
C1528 C 0.84557 0.82173 0.36868 0.0
C1529 C 0.83003 0.81432 0.3607 0.0
C1530 C 0.83043 0.7966 0.35468 0.0
C1531 C 0.8455 0.78619 0.35771 0.0
H1532 H 0.14364 0.77859 0.37186 0.0
H1533 H 0.10622 0.81996 0.38499 0.0
H1534 H 0.1673 0.80105 0.36772 0.0
H1535 H 0.12983 0.84218 0.3816 0.0
H1536 H 0.20833 0.84438 0.38665 0.0
H1537 H 0.18565 0.82074 0.38499 0.0
H1538 H 0.14838 0.8574 0.36127 0.0
H1539 H 0.1708 0.88118 0.36374 0.0
C1540 C 0.14046 0.79246 0.37386 0.0
C1541 C 0.12306 0.79748 0.37877 0.0
C1542 C 0.15403 0.80533 0.37156 0.0
C1543 C 0.1505 0.82346 0.37429 0.0
C1544 C 0.13301 0.82841 0.37899 0.0
C1545 C 0.11945 0.81561 0.38109 0.0
C1546 C 0.19536 0.84731 0.38087 0.0
C1547 C 0.19124 0.86468 0.37557 0.0
C1548 C 0.18237 0.83372 0.37983 0.0
C1549 C 0.16506 0.8372 0.37324 0.0
C1550 C 0.16139 0.85435 0.36688 0.0
C1551 C 0.17427 0.86797 0.36818 0.0
H1552 H 0.1779 0.11119 0.37417 0.0
H1553 H 0.21314 0.15134 0.35177 0.0
H1554 H 0.15225 0.12994 0.36873 0.0
H1555 H 0.18733 0.16981 0.34524 0.0
H1556 H 0.14501 0.20768 0.36779 0.0
H1557 H 0.16956 0.18749 0.36317 0.0
H1558 H 0.13156 0.14496 0.35124 0.0
H1559 H 0.10686 0.16513 0.35686 0.0
C1560 C 0.18007 0.12378 0.36748 0.0
C1561 C 0.19752 0.12997 0.36369 0.0
C1562 C 0.16531 0.13456 0.36425 0.0
C1563 C 0.16768 0.15163 0.35685 0.0
C1564 C 0.18503 0.15701 0.35148 0.0
C1565 C 0.19982 0.14637 0.35506 0.0
C1566 C 0.14187 0.19408 0.36393 0.0
C1567 C 0.124 0.18794 0.36297 0.0
C1568 C 0.15601 0.18247 0.3611 0.0
C1569 C 0.15263 0.16446 0.35693 0.0
C1570 C 0.1347 0.15862 0.35482 0.0
C1571 C 0.12053 0.17019 0.35795 0.0
H1572 H 0.18573 0.12117 0.62749 0.0
H1573 H 0.22277 0.1651 0.61901 0.0
H1574 H 0.16161 0.14217 0.63291 0.0
H1575 H 0.19885 0.18588 0.62346 0.0
H1576 H 0.15639 0.22313 0.63213 0.0
H1577 H 0.17781 0.2004 0.64043 0.0
H1578 H 0.1442 0.16044 0.6147 0.0
H1579 H 0.12233 0.18305 0.60758 0.0
C1580 C 0.18878 0.13529 0.62705 0.0
C1581 C 0.20608 0.14148 0.62257 0.0
C1582 C 0.17494 0.14734 0.63002 0.0
C1583 C 0.17813 0.16579 0.6284 0.0
C1584 C 0.19578 0.17186 0.6251 0.0
C1585 C 0.20957 0.15988 0.62234 0.0
C1586 C 0.15341 0.20938 0.62872 0.0
C1587 C 0.1379 0.20484 0.61899 0.0
C1588 C 0.16573 0.19635 0.63334 0.0
C1589 C 0.16306 0.1786 0.62781 0.0
C1590 C 0.14676 0.1739 0.61931 0.0
C1591 C 0.13422 0.18689 0.6151 0.0
H1592 H 0.79247 0.13239 0.58302 0.0
H1593 H 0.78735 0.13602 0.64022 0.0
H1594 H 0.81971 0.15081 0.58434 0.0
H1595 H 0.81456 0.15493 0.64142 0.0
H1596 H 0.84929 0.20743 0.62415 0.0
H1597 H 0.8231 0.18749 0.62678 0.0
H1598 H 0.85202 0.14611 0.59985 0.0
H1599 H 0.87832 0.1658 0.59748 0.0
C1600 C 0.79711 0.13722 0.59587 0.0
C1601 C 0.78781 0.1328 0.61153 0.0
C1602 C 0.81274 0.14764 0.59661 0.0
C1603 C 0.8192 0.15413 0.61298 0.0
C1604 C 0.80979 0.15002 0.62865 0.0
C1605 C 0.7943 0.13923 0.62796 0.0
C1606 C 0.85014 0.19399 0.61903 0.0
C1607 C 0.86582 0.18821 0.61052 0.0
C1608 C 0.83521 0.1826 0.62062 0.0
C1609 C 0.83562 0.16538 0.61342 0.0
C1610 C 0.85143 0.1594 0.60542 0.0
C1611 C 0.86646 0.17064 0.60413 0.0
H1612 H 0.1572 0.88495 0.60174 0.0
H1613 H 0.19772 0.85083 0.62387 0.0
H1614 H 0.13502 0.86117 0.60444 0.0
H1615 H 0.17526 0.82712 0.62731 0.0
H1616 H 0.13604 0.78295 0.60793 0.0
H1617 H 0.15858 0.80669 0.60957 0.0
H1618 H 0.11737 0.84396 0.62394 0.0
H1619 H 0.09476 0.82035 0.62148 0.0
C1620 C 0.16132 0.87245 0.60748 0.0
C1621 C 0.17926 0.86977 0.6125 0.0
C1622 C 0.14853 0.8588 0.60916 0.0
C1623 C 0.15329 0.84216 0.61611 0.0
C1624 C 0.17116 0.83965 0.62162 0.0
C1625 C 0.18402 0.85327 0.61975 0.0
C1626 C 0.13183 0.79618 0.61161 0.0
C1627 C 0.1136 0.79982 0.61438 0.0
C1628 C 0.14478 0.80981 0.61266 0.0
C1629 C 0.13982 0.82733 0.61673 0.0
C1630 C 0.12165 0.83073 0.62034 0.0
C1631 C 0.10868 0.81717 0.61904 0.0
H1632 H 0.12094 0.24577 0.43779 0.0
H1633 H 0.0732 0.21411 0.4483 0.0
H1634 H 0.12725 0.2473 0.46964 0.0
H1635 H 0.07913 0.21616 0.48006 0.0
H1636 H 0.10134 0.20928 0.53503 0.0
H1637 H 0.09853 0.20617 0.50287 0.0
H1638 H 0.11657 0.26071 0.49635 0.0
H1639 H 0.12002 0.26355 0.52855 0.0
C1640 C 0.11175 0.23919 0.44689 0.0
C1641 C 0.09657 0.2298 0.44049 0.0
C1642 C 0.11532 0.24015 0.46517 0.0
C1643 C 0.10373 0.23184 0.47747 0.0
C1644 C 0.08857 0.22243 0.47101 0.0
C1645 C 0.08508 0.22136 0.45276 0.0
C1646 C 0.10488 0.22055 0.5267 0.0
C1647 C 0.1108 0.23669 0.5343 0.0
C1648 C 0.10314 0.21882 0.50826 0.0
C1649 C 0.10709 0.23326 0.49698 0.0
C1650 C 0.11357 0.24925 0.50459 0.0
C1651 C 0.11548 0.25092 0.52306 0.0
H1652 H 0.71662 0.10526 0.53728 0.0
H1653 H 0.77325 0.09565 0.54442 0.0
H1654 H 0.72024 0.10281 0.50504 0.0
H1655 H 0.77697 0.09374 0.51231 0.0
H1656 H 0.77204 0.06682 0.45824 0.0
H1657 H 0.76873 0.07246 0.48984 0.0
H1658 H 0.73337 0.11604 0.4784 0.0
H1659 H 0.73632 0.11008 0.44653 0.0
C1660 C 0.72988 0.10289 0.53195 0.0
C1661 C 0.74461 0.10044 0.54337 0.0
C1662 C 0.73197 0.10158 0.51348 0.0
C1663 C 0.74886 0.09788 0.50611 0.0
C1664 C 0.7637 0.0962 0.51756 0.0
C1665 C 0.76159 0.09739 0.53597 0.0
C1666 C 0.76359 0.07766 0.46239 0.0
C1667 C 0.75445 0.088 0.44981 0.0
C1668 C 0.7618 0.08098 0.48056 0.0
C1669 C 0.75089 0.09478 0.48667 0.0
C1670 C 0.74177 0.1052 0.47412 0.0
C1671 C 0.74353 0.10184 0.45587 0.0
H1672 H 0.91422 0.76484 0.45044 0.0
H1673 H 0.86532 0.73479 0.4401 0.0
H1674 H 0.90856 0.76315 0.48221 0.0
H1675 H 0.85929 0.73363 0.472 0.0
H1676 H 0.86569 0.71859 0.53124 0.0
H1677 H 0.86951 0.72042 0.49904 0.0
H1678 H 0.88953 0.77445 0.50463 0.0
H1679 H 0.88634 0.77232 0.5368 0.0
C1680 C 0.90216 0.75799 0.45494 0.0
C1681 C 0.89022 0.74996 0.44272 0.0
C1682 C 0.89884 0.75713 0.4732 0.0
C1683 C 0.88338 0.74838 0.47971 0.0
C1684 C 0.87142 0.74032 0.46748 0.0
C1685 C 0.87484 0.74104 0.44918 0.0
C1686 C 0.87078 0.73089 0.52554 0.0
C1687 C 0.87586 0.74526 0.53653 0.0
C1688 C 0.8729 0.73198 0.50708 0.0
C1689 C 0.88 0.74753 0.49922 0.0
C1690 C 0.88443 0.76212 0.51023 0.0
C1691 C 0.88248 0.76096 0.52868 0.0
H1692 H 0.20734 0.90758 0.45062 0.0
H1693 H 0.2607 0.88578 0.45109 0.0
H1694 H 0.20687 0.9073 0.48287 0.0
H1695 H 0.26042 0.88595 0.48377 0.0
H1696 H 0.21991 0.92785 0.53726 0.0
H1697 H 0.22198 0.92502 0.50522 0.0
H1698 H 0.24609 0.87346 0.5111 0.0
H1699 H 0.2444 0.87649 0.54358 0.0
C1700 C 0.21902 0.90272 0.45763 0.0
C1701 C 0.23417 0.89695 0.44829 0.0
C1702 C 0.21877 0.90264 0.47615 0.0
C1703 C 0.23376 0.89697 0.4859 0.0
C1704 C 0.24866 0.89041 0.47662 0.0
C1705 C 0.24885 0.89035 0.45794 0.0
C1706 C 0.22568 0.91588 0.53181 0.0
C1707 C 0.23179 0.90229 0.54301 0.0
C1708 C 0.22679 0.91422 0.51339 0.0
C1709 C 0.23389 0.89886 0.50559 0.0
C1710 C 0.24056 0.88546 0.51673 0.0
C1711 C 0.23953 0.88717 0.5353 0.0
H1712 H 0.0551 0.75771 0.53933 0.0
H1713 H 0.10931 0.73857 0.54429 0.0
H1714 H 0.05761 0.75694 0.50718 0.0
H1715 H 0.11207 0.73837 0.51179 0.0
H1716 H 0.07333 0.77502 0.45287 0.0
H1717 H 0.07282 0.77396 0.4851 0.0
H1718 H 0.10161 0.7245 0.48407 0.0
H1719 H 0.10265 0.72589 0.45149 0.0
C1720 C 0.06762 0.75341 0.53354 0.0
C1721 C 0.08208 0.7484 0.54438 0.0
C1722 C 0.0691 0.75306 0.51507 0.0
C1723 C 0.08516 0.74792 0.50688 0.0
C1724 C 0.09949 0.74235 0.51768 0.0
C1725 C 0.09794 0.74253 0.53628 0.0
C1726 C 0.07961 0.76392 0.45946 0.0
C1727 C 0.08786 0.75044 0.4496 0.0
C1728 C 0.07923 0.76325 0.47798 0.0
C1729 C 0.08688 0.74897 0.48719 0.0
C1730 C 0.09564 0.73571 0.47739 0.0
C1731 C 0.09618 0.73647 0.45874 0.0
H1732 H 0.20824 0.10525 0.44974 0.0
H1733 H 0.26321 0.12446 0.44987 0.0
H1734 H 0.20761 0.10722 0.48216 0.0
H1735 H 0.26298 0.12558 0.48217 0.0
H1736 H 0.22108 0.09023 0.53919 0.0
H1737 H 0.21894 0.09213 0.50695 0.0
H1738 H 0.25254 0.1396 0.50785 0.0
H1739 H 0.2554 0.13706 0.54008 0.0
C1740 C 0.22018 0.1099 0.45673 0.0
C1741 C 0.23578 0.11464 0.44731 0.0
C1742 C 0.21988 0.11092 0.47531 0.0
C1743 C 0.23529 0.11644 0.48488 0.0
C1744 C 0.25075 0.12156 0.47533 0.0
C1745 C 0.25094 0.1208 0.45677 0.0
C1746 C 0.22792 0.10112 0.53249 0.0
C1747 C 0.23854 0.1134 0.54211 0.0
C1748 C 0.22659 0.10231 0.51398 0.0
C1749 C 0.23562 0.11599 0.5047 0.0
C1750 C 0.24571 0.12866 0.51447 0.0
C1751 C 0.24728 0.12728 0.53296 0.0
H1752 H 0.92796 0.2241 0.53406 0.0
H1753 H 0.87471 0.24564 0.53864 0.0
H1754 H 0.92553 0.22482 0.5019 0.0
H1755 H 0.87196 0.24576 0.50614 0.0
H1756 H 0.90999 0.20859 0.44686 0.0
H1757 H 0.91018 0.20897 0.47915 0.0
H1758 H 0.88278 0.25924 0.47886 0.0
H1759 H 0.88199 0.25848 0.44628 0.0
C1760 C 0.91565 0.22889 0.52818 0.0
C1761 C 0.90146 0.23466 0.53892 0.0
C1762 C 0.9142 0.2292 0.50969 0.0
C1763 C 0.89842 0.23504 0.50139 0.0
C1764 C 0.88434 0.24124 0.5121 0.0
C1765 C 0.88587 0.24111 0.53071 0.0
C1766 C 0.90393 0.2197 0.45365 0.0
C1767 C 0.89613 0.23359 0.44401 0.0
C1768 C 0.90413 0.21999 0.4722 0.0
C1769 C 0.89679 0.2343 0.48164 0.0
C1770 C 0.88848 0.24797 0.47202 0.0
C1771 C 0.88809 0.24758 0.45336 0.0
H1772 H 0.76538 0.88923 0.44971 0.0
H1773 H 0.72986 0.84327 0.45018 0.0
H1774 H 0.76846 0.88749 0.48188 0.0
H1775 H 0.73356 0.84096 0.48236 0.0
H1776 H 0.72427 0.85851 0.54024 0.0
H1777 H 0.72396 0.85615 0.50799 0.0
H1778 H 0.78004 0.87199 0.50657 0.0
H1779 H 0.78006 0.87511 0.53893 0.0
C1780 C 0.75846 0.87856 0.45668 0.0
C1781 C 0.74723 0.8665 0.44746 0.0
C1782 C 0.76035 0.87746 0.47514 0.0
C1783 C 0.75121 0.86411 0.48479 0.0
C1784 C 0.74052 0.85162 0.47543 0.0
C1785 C 0.73846 0.85287 0.45697 0.0
C1786 C 0.73659 0.86131 0.53306 0.0
C1787 C 0.75214 0.86716 0.54208 0.0
C1788 C 0.73646 0.85984 0.51453 0.0
C1789 C 0.75195 0.86398 0.5046 0.0
C1790 C 0.76776 0.86905 0.51375 0.0
C1791 C 0.76782 0.87073 0.53229 0.0
H1792 H 0.45205 0.13673 0.24955 0.0
H1793 H 0.45263 0.09127 0.21433 0.0
H1794 H 0.48461 0.13956 0.24723 0.0
H1795 H 0.48518 0.09345 0.21269 0.0
H1796 H 0.54307 0.10632 0.20366 0.0
H1797 H 0.51052 0.10901 0.20235 0.0
H1798 H 0.51022 0.12516 0.25768 0.0
H1799 H 0.54279 0.12333 0.25861 0.0
C1800 C 0.45917 0.12734 0.24131 0.0
C1801 C 0.44984 0.11372 0.2322 0.0
C1802 C 0.47785 0.12888 0.24006 0.0
C1803 C 0.48763 0.11665 0.22989 0.0
C1804 C 0.47816 0.1033 0.22042 0.0
C1805 C 0.45946 0.10195 0.22145 0.0
C1806 C 0.53602 0.11069 0.21544 0.0
C1807 C 0.54542 0.11453 0.23125 0.0
C1808 C 0.51735 0.11211 0.21475 0.0
C1809 C 0.50764 0.1171 0.22997 0.0
C1810 C 0.51719 0.12151 0.24562 0.0
C1811 C 0.53589 0.12037 0.2462 0.0
H1812 H 0.87141 0.53649 0.25197 0.0
H1813 H 0.92278 0.53136 0.22592 0.0
H1814 H 0.86697 0.50413 0.25035 0.0
H1815 H 0.91851 0.4994 0.22466 0.0
H1816 H 0.87807 0.44273 0.25884 0.0
H1817 H 0.87882 0.47524 0.26148 0.0
H1818 H 0.89934 0.47915 0.20786 0.0
H1819 H 0.89902 0.44697 0.2054 0.0
C1820 C 0.8818 0.52848 0.24607 0.0
C1821 C 0.89735 0.53653 0.23888 0.0
C1822 C 0.87927 0.50997 0.24517 0.0
C1823 C 0.89223 0.49925 0.23707 0.0
C1824 C 0.90803 0.50731 0.23053 0.0
C1825 C 0.91052 0.52567 0.23136 0.0
C1826 C 0.88247 0.45059 0.24756 0.0
C1827 C 0.88876 0.4423 0.23202 0.0
C1828 C 0.88288 0.46919 0.24906 0.0
C1829 C 0.88951 0.47974 0.23502 0.0
C1830 C 0.89465 0.47139 0.21911 0.0
C1831 C 0.89438 0.45293 0.21767 0.0
H1832 H 0.53157 0.89969 0.20923 0.0
H1833 H 0.52714 0.85516 0.24528 0.0
H1834 H 0.49921 0.89979 0.2058 0.0
H1835 H 0.49457 0.85466 0.2412 0.0
H1836 H 0.43721 0.87631 0.2486 0.0
H1837 H 0.46943 0.87137 0.24972 0.0
H1838 H 0.47362 0.88568 0.19411 0.0
H1839 H 0.44157 0.89148 0.19332 0.0
C1840 C 0.52368 0.88967 0.21617 0.0
C1841 C 0.53189 0.8775 0.22764 0.0
C1842 C 0.50506 0.88963 0.21409 0.0
C1843 C 0.49417 0.87723 0.22323 0.0
C1844 C 0.50248 0.8646 0.2342 0.0
C1845 C 0.52115 0.86479 0.23645 0.0
C1846 C 0.44501 0.87821 0.23658 0.0
C1847 C 0.43692 0.88451 0.22094 0.0
C1848 C 0.4635 0.87527 0.23717 0.0
C1849 C 0.47425 0.87831 0.22205 0.0
C1850 C 0.46589 0.88365 0.20615 0.0
C1851 C 0.44748 0.88688 0.20565 0.0
H1852 H 0.07358 0.54103 0.22201 0.0
H1853 H 0.1222 0.54954 0.25267 0.0
H1854 H 0.07731 0.50913 0.22413 0.0
H1855 H 0.1263 0.51741 0.25427 0.0
H1856 H 0.1156 0.4583 0.26928 0.0
H1857 H 0.11405 0.49069 0.26743 0.0
H1858 H 0.09558 0.48619 0.21294 0.0
H1859 H 0.09647 0.45397 0.21506 0.0
C1860 C 0.08518 0.53609 0.22908 0.0
C1861 C 0.09762 0.54786 0.23712 0.0
C1862 C 0.08739 0.51776 0.2302 0.0
C1863 C 0.10222 0.51066 0.23921 0.0
C1864 C 0.11465 0.52241 0.24736 0.0
C1865 C 0.11234 0.54083 0.24637 0.0
C1866 C 0.11134 0.46429 0.25689 0.0
C1867 C 0.10597 0.45363 0.24238 0.0
C1868 C 0.11052 0.48285 0.25579 0.0
C1869 C 0.10447 0.49106 0.24011 0.0
C1870 C 0.09985 0.48033 0.22538 0.0
C1871 C 0.10048 0.46185 0.22655 0.0
H1872 H 0.44189 0.84322 0.73743 0.0
H1873 H 0.44383 0.88604 0.77586 0.0
H1874 H 0.47459 0.8415 0.73842 0.0
H1875 H 0.47638 0.88491 0.7763 0.0
H1876 H 0.53211 0.86151 0.72632 0.0
H1877 H 0.49964 0.85815 0.7282 0.0
H1878 H 0.50219 0.86929 0.78468 0.0
H1879 H 0.53466 0.87343 0.78256 0.0
C1880 C 0.4493 0.85222 0.74613 0.0
C1881 C 0.4403 0.86482 0.75649 0.0
C1882 C 0.46805 0.85133 0.74662 0.0
C1883 C 0.47821 0.86315 0.75735 0.0
C1884 C 0.46908 0.87539 0.76809 0.0
C1885 C 0.45036 0.87614 0.76774 0.0
C1886 C 0.52575 0.86307 0.73917 0.0
C1887 C 0.5359 0.86791 0.75426 0.0
C1888 C 0.50711 0.86102 0.74029 0.0
C1889 C 0.4982 0.86355 0.75658 0.0
C1890 C 0.50852 0.86761 0.77184 0.0
C1891 C 0.52715 0.86988 0.77067 0.0
H1892 H 0.1113 0.44867 0.73392 0.0
H1893 H 0.05988 0.45371 0.75986 0.0
H1894 H 0.11566 0.48099 0.73546 0.0
H1895 H 0.06395 0.4857 0.76089 0.0
H1896 H 0.08253 0.53942 0.77812 0.0
H1897 H 0.08165 0.50718 0.77661 0.0
H1898 H 0.1047 0.50913 0.72389 0.0
H1899 H 0.10616 0.54163 0.72567 0.0
C1900 C 0.10089 0.45666 0.73982 0.0
C1901 C 0.08532 0.44859 0.74692 0.0
C1902 C 0.10336 0.47517 0.74064 0.0
C1903 C 0.09027 0.48593 0.74852 0.0
C1904 C 0.07454 0.47782 0.75517 0.0
C1905 C 0.07215 0.45942 0.75447 0.0
C1906 C 0.08754 0.533 0.76623 0.0
C1907 C 0.09422 0.54309 0.75193 0.0
C1908 C 0.08694 0.51449 0.76533 0.0
C1909 C 0.09277 0.50555 0.74998 0.0
C1910 C 0.10015 0.51559 0.73592 0.0
C1911 C 0.10094 0.5342 0.73692 0.0
H1912 H 0.44856 0.10158 0.74029 0.0
H1913 H 0.4495 0.08801 0.79613 0.0
H1914 H 0.48072 0.10798 0.74128 0.0
H1915 H 0.48142 0.0953 0.79744 0.0
H1916 H 0.54065 0.085 0.78753 0.0
H1917 H 0.5082 0.08273 0.78828 0.0
H1918 H 0.50472 0.12637 0.75105 0.0
H1919 H 0.53749 0.12799 0.74965 0.0
C1920 C 0.4556 0.10028 0.75286 0.0
C1921 C 0.44658 0.09406 0.76808 0.0
C1922 C 0.47404 0.10408 0.75348 0.0
C1923 C 0.4838 0.10202 0.76941 0.0
C1924 C 0.4745 0.0966 0.78482 0.0
C1925 C 0.45616 0.0925 0.78411 0.0
C1926 C 0.53299 0.09424 0.77961 0.0
C1927 C 0.54164 0.10661 0.76844 0.0
C1928 C 0.5143 0.09303 0.78014 0.0
C1929 C 0.50371 0.10436 0.76972 0.0
C1930 C 0.5124 0.11721 0.75902 0.0
C1931 C 0.53118 0.11825 0.75832 0.0
H1932 H 0.86615 0.54246 0.73832 0.0
H1933 H 0.916 0.5314 0.76548 0.0
H1934 H 0.85883 0.51072 0.73767 0.0
H1935 H 0.90899 0.49977 0.76432 0.0
H1936 H 0.88552 0.44587 0.77499 0.0
H1937 H 0.88941 0.47799 0.77696 0.0
H1938 H 0.86762 0.48334 0.72384 0.0
H1939 H 0.86315 0.45113 0.72217 0.0
C1940 C 0.87559 0.53326 0.74407 0.0
C1941 C 0.89165 0.53948 0.752 0.0
C1942 C 0.87143 0.51505 0.74363 0.0
C1943 C 0.88326 0.50267 0.75103 0.0
C1944 C 0.89936 0.50893 0.75883 0.0
C1945 C 0.90346 0.52709 0.75938 0.0
C1946 C 0.88138 0.45392 0.76381 0.0
C1947 C 0.87415 0.44599 0.74838 0.0
C1948 C 0.88373 0.47234 0.76488 0.0
C1949 C 0.87911 0.48326 0.75045 0.0
C1950 C 0.87122 0.47536 0.73525 0.0
C1951 C 0.8687 0.4569 0.73426 0.0
H1952 H 0.21083 0.53026 0.10283 0.0
H1953 H 0.26642 0.52583 0.11857 0.0
H1954 H 0.20838 0.49806 0.10014 0.0
H1955 H 0.2642 0.49355 0.11522 0.0
H1956 H 0.21652 0.44499 0.07331 0.0
H1957 H 0.21878 0.47658 0.07959 0.0
H1958 H 0.25157 0.46587 0.12583 0.0
H1959 H 0.24977 0.43407 0.11916 0.0
C1960 C 0.22252 0.52236 0.10579 0.0
C1961 C 0.23885 0.53054 0.11076 0.0
C1962 C 0.22117 0.50391 0.10411 0.0
C1963 C 0.23619 0.49321 0.10714 0.0
C1964 C 0.25235 0.50136 0.11288 0.0
C1965 C 0.25364 0.51986 0.11475 0.0
C1966 C 0.22422 0.44932 0.08483 0.0
C1967 C 0.23293 0.43698 0.09576 0.0
C1968 C 0.2254 0.46747 0.08853 0.0
C1969 C 0.23517 0.47379 0.10336 0.0
C1970 C 0.24403 0.46147 0.11423 0.0
C1971 C 0.24296 0.44324 0.11044 0.0
H1972 H 0.21323 0.53091 0.9034 0.0
H1973 H 0.24692 0.52789 0.8568 0.0
H1974 H 0.21007 0.49881 0.90367 0.0
H1975 H 0.24302 0.49558 0.85645 0.0
H1976 H 0.25104 0.43817 0.87586 0.0
H1977 H 0.2524 0.47033 0.87222 0.0
H1978 H 0.19738 0.47373 0.89009 0.0
H1979 H 0.19642 0.44171 0.8946 0.0
C1980 C 0.2197 0.52338 0.89298 0.0
C1981 C 0.23041 0.53192 0.88013 0.0
C1982 C 0.21777 0.50491 0.89305 0.0
C1983 C 0.22627 0.49449 0.88008 0.0
C1984 C 0.23653 0.50312 0.86684 0.0
C1985 C 0.23867 0.52164 0.86694 0.0
C1986 C 0.23922 0.44581 0.87891 0.0
C1987 C 0.2237 0.43746 0.88572 0.0
C1988 C 0.23994 0.46426 0.8767 0.0
C1989 C 0.22504 0.47473 0.88097 0.0
C1990 C 0.20927 0.4662 0.88708 0.0
C1991 C 0.20867 0.44781 0.88959 0.0
H1992 H 0.44759 0.20888 0.87766 0.0
H1993 H 0.45079 0.26425 0.8627 0.0
H1994 H 0.48018 0.20703 0.87619 0.0
H1995 H 0.48342 0.26274 0.86208 0.0
H1996 H 0.54172 0.25352 0.8518 0.0
H1997 H 0.50921 0.25203 0.84794 0.0
H1998 H 0.50518 0.21639 0.89294 0.0
H1999 H 0.53767 0.21723 0.89615 0.0
C2000 C 0.4553 0.22066 0.87406 0.0
C2001 C 0.4467 0.23673 0.87039 0.0
C2002 C 0.47399 0.21965 0.87332 0.0
C2003 C 0.48452 0.23478 0.86919 0.0
C2004 C 0.4758 0.25074 0.86505 0.0
C2005 C 0.45708 0.25166 0.86551 0.0
C2006 C 0.53385 0.24519 0.8607 0.0
C2007 C 0.54219 0.23556 0.87433 0.0
C2008 C 0.51521 0.24444 0.85858 0.0
C2009 C 0.50448 0.23422 0.87022 0.0
C2010 C 0.51296 0.22419 0.88353 0.0
C2011 C 0.53161 0.22474 0.88547 0.0
H2012 H 0.7353 0.54495 0.88177 0.0
H2013 H 0.79007 0.54411 0.90079 0.0
H2014 H 0.7358 0.51287 0.87731 0.0
H2015 H 0.79099 0.51223 0.89546 0.0
H2016 H 0.77885 0.45366 0.90623 0.0
H2017 H 0.78009 0.48588 0.90782 0.0
H2018 H 0.74663 0.48885 0.86075 0.0
H2019 H 0.74466 0.45644 0.85979 0.0
C2020 C 0.74754 0.53793 0.88472 0.0
C2021 C 0.76257 0.547 0.8918 0.0
C2022 C 0.7479 0.51953 0.88204 0.0
C2023 C 0.76342 0.50984 0.88611 0.0
C2024 C 0.77866 0.51911 0.89258 0.0
C2025 C 0.77818 0.53743 0.89555 0.0
C2026 C 0.77189 0.46119 0.89612 0.0
C2027 C 0.76158 0.45253 0.88294 0.0
C2028 C 0.77268 0.47973 0.89696 0.0
C2029 C 0.76342 0.49009 0.88444 0.0
C2030 C 0.75364 0.48135 0.87084 0.0
C2031 C 0.75262 0.46277 0.87018 0.0
H2032 H 0.45114 0.77174 0.89389 0.0
H2033 H 0.44729 0.73542 0.84935 0.0
H2034 H 0.4836 0.77313 0.89056 0.0
H2035 H 0.47973 0.73744 0.8454 0.0
H2036 H 0.53768 0.72454 0.86143 0.0
H2037 H 0.50516 0.72651 0.86013 0.0
H2038 H 0.50891 0.7823 0.87404 0.0
H2039 H 0.54148 0.78003 0.87612 0.0
C2040 C 0.45722 0.76437 0.88312 0.0
C2041 C 0.44673 0.7533 0.87202 0.0
C2042 C 0.47586 0.76524 0.88112 0.0
C2043 C 0.48438 0.75526 0.8678 0.0
C2044 C 0.4737 0.74497 0.85607 0.0
C2045 C 0.45509 0.7439 0.85824 0.0
C2046 C 0.53155 0.73728 0.86404 0.0
C2047 C 0.54208 0.75211 0.86905 0.0
C2048 C 0.51288 0.73845 0.86316 0.0
C2049 C 0.50433 0.75456 0.86705 0.0
C2050 C 0.51499 0.7696 0.87131 0.0
C2051 C 0.53366 0.76835 0.87241 0.0
H2052 H 0.76046 0.53643 0.07287 0.0
H2053 H 0.73122 0.54573 0.12157 0.0
H2054 H 0.75873 0.50462 0.07809 0.0
H2055 H 0.72995 0.51373 0.12708 0.0
H2056 H 0.71517 0.45395 0.11948 0.0
H2057 H 0.71654 0.48624 0.11626 0.0
H2058 H 0.77118 0.48281 0.09742 0.0
H2059 H 0.76958 0.45058 0.10011 0.0
C2060 C 0.75372 0.53169 0.08476 0.0
C2061 C 0.74602 0.54365 0.09683 0.0
C2062 C 0.75285 0.51342 0.08782 0.0
C2063 C 0.7444 0.50661 0.10312 0.0
C2064 C 0.73646 0.51853 0.11511 0.0
C2065 C 0.73723 0.53687 0.11197 0.0
C2066 C 0.72752 0.46014 0.11481 0.0
C2067 C 0.74222 0.44974 0.10988 0.0
C2068 C 0.72832 0.47865 0.11302 0.0
C2069 C 0.74389 0.48711 0.10637 0.0
C2070 C 0.75883 0.4767 0.10218 0.0
C2071 C 0.75798 0.45823 0.10383 0.0
H2072 H 0.53722 0.77712 0.07414 0.0
H2073 H 0.54908 0.74453 0.1199 0.0
H2074 H 0.50546 0.77511 0.08094 0.0
H2075 H 0.51712 0.74302 0.12713 0.0
H2076 H 0.45095 0.78168 0.10344 0.0
H2077 H 0.48346 0.78494 0.10118 0.0
H2078 H 0.48942 0.73002 0.11679 0.0
H2079 H 0.45688 0.72705 0.11976 0.0
C2080 C 0.53307 0.76968 0.08579 0.0
C2081 C 0.54572 0.76097 0.09646 0.0
C2082 C 0.51481 0.76864 0.0898 0.0
C2083 C 0.50868 0.75903 0.10469 0.0
C2084 C 0.52134 0.7504 0.11546 0.0
C2085 C 0.53967 0.75132 0.11136 0.0
C2086 C 0.45926 0.77037 0.10664 0.0
C2087 C 0.4514 0.75405 0.11162 0.0
C2088 C 0.47788 0.7722 0.10521 0.0
C2089 C 0.48908 0.75766 0.10847 0.0
C2090 C 0.48123 0.74155 0.11428 0.0
C2091 C 0.46258 0.73979 0.11594 0.0
H2092 H 0.53209 0.237 0.13297 0.0
H2093 H 0.53596 0.20241 0.08719 0.0
H2094 H 0.49939 0.2346 0.13158 0.0
H2095 H 0.50348 0.20071 0.08518 0.0
H2096 H 0.44475 0.1912 0.09001 0.0
H2097 H 0.4766 0.19009 0.09711 0.0
H2098 H 0.47552 0.24506 0.11414 0.0
H2099 H 0.4434 0.24577 0.10791 0.0
C2100 C 0.52594 0.22882 0.12267 0.0
C2101 C 0.53658 0.21994 0.11016 0.0
C2102 C 0.50719 0.22755 0.12176 0.0
C2103 C 0.49869 0.21756 0.10818 0.0
C2104 C 0.50945 0.20828 0.09602 0.0
C2105 C 0.52814 0.20934 0.09709 0.0
C2106 C 0.45131 0.20298 0.09544 0.0
C2107 C 0.44164 0.21862 0.09826 0.0
C2108 C 0.46961 0.2024 0.09942 0.0
C2109 C 0.47879 0.21756 0.10598 0.0
C2110 C 0.46893 0.23304 0.10933 0.0
C2111 C 0.45052 0.23351 0.10565 0.0
H2112 H 0.60033 0.71435 0.03634 0.0
H2113 H 0.62038 0.76823 0.03049 0.0
H2114 H 0.59773 0.7116 0.00414 0.0
H2115 H 0.61718 0.76573 -0.00178 0.0
H2116 H 0.62213 0.75008 0.93944 0.0
H2117 H 0.62791 0.75194 0.97143 0.0
H2118 H 0.57862 0.72255 0.98143 0.0
H2119 H 0.57318 0.7202 0.94965 0.0
C2120 C 0.6042 0.72561 0.02815 0.0
C2121 C 0.61044 0.74154 0.03594 0.0
C2122 C 0.60259 0.72408 0.00969 0.0
C2123 C 0.60701 0.73852 -0.00143 0.0
C2124 C 0.6138 0.75429 0.00635 0.0
C2125 C 0.61556 0.75576 0.02486 0.0
C2126 C 0.61256 0.744 0.94849 0.0
C2127 C 0.59723 0.73494 0.94197 0.0
C2128 C 0.61583 0.74513 0.96683 0.0
C2129 C 0.6038 0.7373 0.97903 0.0
C2130 C 0.5884 0.7284 0.97245 0.0
C2131 C 0.5852 0.72716 0.95418 0.0
H2132 H 0.24244 0.60795 0.94906 0.0
H2133 H 0.27046 0.55811 0.95185 0.0
H2134 H 0.24375 0.61037 0.98159 0.0
H2135 H 0.27127 0.56024 0.98398 0.0
H2136 H 0.28726 0.57536 0.03871 0.0
H2137 H 0.28627 0.57711 0.00648 0.0
H2138 H 0.23217 0.59698 0.00901 0.0
H2139 H 0.23345 0.59583 0.04159 0.0
C2140 C 0.24879 0.5975 0.95659 0.0
C2141 C 0.2565 0.58293 0.94784 0.0
C2142 C 0.24948 0.59885 0.9752 0.0
C2143 C 0.25783 0.58561 0.98539 0.0
C2144 C 0.26517 0.57092 0.97657 0.0
C2145 C 0.2646 0.56965 0.95809 0.0
C2146 C 0.27518 0.58024 0.03243 0.0
C2147 C 0.26034 0.58522 0.04267 0.0
C2148 C 0.27458 0.58116 0.01392 0.0
C2149 C 0.25899 0.58682 0.00512 0.0
C2150 C 0.24439 0.59259 0.01537 0.0
C2151 C 0.24509 0.59188 0.03402 0.0
H2152 H 0.40428 0.26238 0.0348 0.0
H2153 H 0.35694 0.22895 0.02873 0.0
H2154 H 0.40586 0.26609 0.00278 0.0
H2155 H 0.35794 0.23336 -0.00346 0.0
H2156 H 0.37838 0.22786 0.93913 0.0
H2157 H 0.37438 0.22512 0.97116 0.0
H2158 H 0.39281 0.27955 0.97803 0.0
H2159 H 0.39764 0.28192 0.94609 0.0
C2160 C 0.39403 0.25602 0.02661 0.0
C2161 C 0.38051 0.24532 0.03428 0.0
C2162 C 0.39484 0.25827 0.0082 0.0
C2163 C 0.38199 0.25009 -0.00303 0.0
C2164 C 0.36824 0.23964 0.00471 0.0
C2165 C 0.36758 0.23719 0.02317 0.0
C2166 C 0.38148 0.23926 0.94749 0.0
C2167 C 0.38849 0.25505 0.94011 0.0
C2168 C 0.37908 0.23774 0.96588 0.0
C2169 C 0.38337 0.25207 0.97729 0.0
C2170 C 0.38976 0.26808 0.96975 0.0
C2171 C 0.39244 0.2695 0.95141 0.0
H2172 H 0.75362 0.38398 0.04404 0.0
H2173 H 0.69889 0.4011 0.03745 0.0
H2174 H 0.7573 0.3837 0.01159 0.0
H2175 H 0.70235 0.40031 0.00534 0.0
H2176 H 0.72145 0.42348 0.95368 0.0
H2177 H 0.71877 0.41969 0.98552 0.0
H2178 H 0.74797 0.37058 0.98236 0.0
H2179 H 0.75105 0.37459 0.95008 0.0
C2180 C 0.74229 0.38732 0.03567 0.0
C2181 C 0.72607 0.39288 0.04327 0.0
C2182 C 0.74438 0.38712 0.01711 0.0
C2183 C 0.73023 0.39236 0.00592 0.0
C2184 C 0.71368 0.3967 0.0136 0.0
C2185 C 0.71166 0.39708 0.03201 0.0
C2186 C 0.72732 0.41182 0.95966 0.0
C2187 C 0.73632 0.39924 0.94926 0.0
C2188 C 0.72567 0.40959 0.97797 0.0
C2189 C 0.73285 0.39465 0.98645 0.0
C2190 C 0.74228 0.38223 0.97619 0.0
C2191 C 0.744 0.3845 0.95773 0.0
H2192 H 0.60537 0.22962 0.94911 0.0
H2193 H 0.57836 0.2799 0.95317 0.0
H2194 H 0.60507 0.22697 0.9816 0.0
H2195 H 0.57864 0.27762 0.98537 0.0
H2196 H 0.56042 0.25862 0.03895 0.0
H2197 H 0.56299 0.2604 0.00688 0.0
H2198 H 0.61634 0.2387 0.00979 0.0
H2199 H 0.6135 0.23635 0.04218 0.0
C2200 C 0.59961 0.24021 0.95694 0.0
C2201 C 0.59166 0.25484 0.94858 0.0
C2202 C 0.5995 0.23873 0.97554 0.0
C2203 C 0.59157 0.25195 0.98609 0.0
C2204 C 0.5844 0.26694 0.97767 0.0
C2205 C 0.58433 0.26831 0.95917 0.0
C2206 C 0.57274 0.25423 0.03282 0.0
C2207 C 0.58681 0.24748 0.04317 0.0
C2208 C 0.57426 0.25535 0.01438 0.0
C2209 C 0.58999 0.24996 0.00573 0.0
C2210 C 0.60401 0.2429 0.01602 0.0
C2211 C 0.60241 0.24162 0.03457 0.0
H2212 H 0.70477 0.60842 0.04116 0.0
H2213 H 0.75996 0.627 0.04187 0.0
H2214 H 0.70453 0.61013 0.00871 0.0
H2215 H 0.76002 0.628 0.00956 0.0
H2216 H 0.75311 0.63875 0.95146 0.0
H2217 H 0.74951 0.64202 0.98354 0.0
H2218 H 0.7167 0.59405 0.98454 0.0
H2219 H 0.71969 0.59129 0.95241 0.0
C2220 C 0.71681 0.61293 0.03437 0.0
C2221 C 0.73241 0.61747 0.04403 0.0
C2222 C 0.71673 0.6138 0.01578 0.0
C2223 C 0.7323 0.61906 0.00647 0.0
C2224 C 0.7477 0.62414 0.01624 0.0
C2225 C 0.74771 0.62345 0.0348 0.0
C2226 C 0.745 0.62901 0.95855 0.0
C2227 C 0.73679 0.61469 0.94947 0.0
C2228 C 0.743 0.63083 0.97694 0.0
C2229 C 0.73293 0.61823 0.98669 0.0
C2230 C 0.72433 0.60416 0.97747 0.0
C2231 C 0.72616 0.60248 0.95905 0.0
H2232 H 0.37411 0.74214 0.9488 0.0
H2233 H 0.4283 0.72247 0.95122 0.0
H2234 H 0.37259 0.74152 0.98136 0.0
H2235 H 0.42699 0.72237 0.98345 0.0
H2236 H 0.38508 0.75383 0.04113 0.0
H2237 H 0.38439 0.75508 0.00859 0.0
H2238 H 0.41267 0.70538 0.00618 0.0
H2239 H 0.41388 0.70444 0.03846 0.0
C2240 C 0.38573 0.73786 0.95627 0.0
C2241 C 0.40125 0.73217 0.94742 0.0
C2242 C 0.38488 0.73755 0.97491 0.0
C2243 C 0.39957 0.73163 0.98502 0.0
C2244 C 0.41524 0.72653 0.9761 0.0
C2245 C 0.41603 0.7267 0.95758 0.0
C2246 C 0.39103 0.74313 0.03361 0.0
C2247 C 0.39973 0.72915 0.04237 0.0
C2248 C 0.39058 0.74381 0.01497 0.0
C2249 C 0.39872 0.73047 0.00476 0.0
C2250 C 0.40671 0.71613 0.0136 0.0
C2251 C 0.4073 0.71554 0.03214 0.0
H2252 H 0.21779 0.35839 0.03479 0.0
H2253 H 0.27363 0.37485 0.03566 0.0
H2254 H 0.21841 0.35742 0.00241 0.0
H2255 H 0.27454 0.37314 0.00327 0.0
H2256 H 0.26268 0.39144 0.94641 0.0
H2257 H 0.26393 0.3893 0.97866 0.0
H2258 H 0.22904 0.3428 0.9767 0.0
H2259 H 0.22719 0.34547 0.94438 0.0
C2260 C 0.23029 0.36151 0.02805 0.0
C2261 C 0.24562 0.36684 0.03773 0.0
C2262 C 0.23069 0.36085 0.00946 0.0
C2263 C 0.24651 0.36529 0.00016 0.0
C2264 C 0.26203 0.36999 0.00995 0.0
C2265 C 0.26154 0.37087 0.02852 0.0
C2266 C 0.25537 0.38069 0.95285 0.0
C2267 C 0.24473 0.3687 0.94289 0.0
C2268 C 0.25618 0.37937 0.97137 0.0
C2269 C 0.24655 0.36589 0.98035 0.0
C2270 C 0.23636 0.35355 0.97028 0.0
C2271 C 0.23539 0.355 0.95175 0.0
H2272 H 0.041 0.62459 0.7586 0.0
H2273 H 0.04295 0.60736 0.70376 0.0
H2274 H 0.0084 0.62532 0.75703 0.0
H2275 H 0.01032 0.60888 0.70183 0.0
H2276 H 0.95276 0.58912 0.71333 0.0
H2277 H 0.98527 0.59246 0.712 0.0
H2278 H 0.98262 0.63903 0.74576 0.0
H2279 H 0.95014 0.63509 0.74774 0.0
C2280 C 0.03445 0.62133 0.74608 0.0
C2281 C 0.04448 0.61576 0.73135 0.0
C2282 C 0.01573 0.62184 0.74512 0.0
C2283 C 0.00664 0.61705 0.72932 0.0
C2284 C 0.01681 0.61228 0.71433 0.0
C2285 C 0.03552 0.61153 0.71538 0.0
C2286 C 0.95913 0.60016 0.72032 0.0
C2287 C 0.94896 0.61173 0.73079 0.0
C2288 C 0.97779 0.60217 0.71947 0.0
C2289 C 0.98666 0.61597 0.72887 0.0
C2290 C 0.97632 0.62802 0.73868 0.0
C2291 C 0.95769 0.62585 0.73973 0.0
H2292 H 0.36229 0.93433 0.75169 0.0
H2293 H 0.41195 0.94113 0.72267 0.0
H2294 H 0.35917 0.96655 0.75316 0.0
H2295 H 0.40924 0.97318 0.72473 0.0
H2296 H 0.39276 0.02948 0.71651 0.0
H2297 H 0.39275 -0.00274 0.7137 0.0
H2298 H 0.37165 -0.00756 0.76709 0.0
H2299 H 0.37096 0.0248 0.76955 0.0
C2300 C 0.37258 0.9427 0.74569 0.0
C2301 C 0.38734 0.93516 0.73701 0.0
C2302 C 0.37084 0.96118 0.74662 0.0
C2303 C 0.38392 0.97251 0.73902 0.0
C2304 C 0.39869 0.96491 0.7304 0.0
C2305 C 0.40033 0.94648 0.72932 0.0
C2306 C 0.38799 0.02153 0.72759 0.0
C2307 C 0.38196 0.02964 0.74329 0.0
C2308 C 0.3881 0.00304 0.72604 0.0
C2309 C 0.38243 0.99219 0.74025 0.0
C2310 C 0.37595 0.00035 0.75581 0.0
C2311 C 0.37563 0.0189 0.75727 0.0
H2312 H 0.03191 0.38675 0.69682 0.0
H2313 H 0.0284 0.36822 0.75112 0.0
H2314 H -0.00075 0.38756 0.69508 0.0
H2315 H -0.00421 0.36972 0.74968 0.0
H2316 H 0.93618 0.36408 0.73862 0.0
H2317 H 0.96832 0.35829 0.73765 0.0
H2318 H 0.97666 0.40607 0.70663 0.0
H2319 H 0.94463 0.41145 0.70704 0.0
C2320 C 0.02413 0.38277 0.70835 0.0
C2321 C 0.03269 0.37757 0.72414 0.0
C2322 C 0.00542 0.38335 0.70741 0.0
C2323 C -0.00514 0.37897 0.72233 0.0
C2324 C 0.00345 0.37303 0.73788 0.0
C2325 C 0.02217 0.37225 0.73874 0.0
C2326 C 0.94489 0.37328 0.73151 0.0
C2327 C 0.93785 0.38824 0.72293 0.0
C2328 C 0.96333 0.37 0.73101 0.0
C2329 C 0.97512 0.38169 0.72204 0.0
C2330 C 0.96798 0.39657 0.71335 0.0
C2331 C 0.94959 0.39974 0.71372 0.0
H2332 H 0.61217 0.94484 0.75433 0.0
H2333 H 0.55858 0.9511 0.7332 0.0
H2334 H 0.61588 0.97727 0.75576 0.0
H2335 H 0.5621 0.98314 0.73504 0.0
H2336 H 0.60657 0.03753 0.7698 0.0
H2337 H 0.60529 0.00493 0.77014 0.0
H2338 H 0.57914 0.00506 0.71869 0.0
H2339 H 0.57999 0.0373 0.71856 0.0
C2340 C 0.60112 0.95311 0.75023 0.0
C2341 C 0.58518 0.94541 0.74341 0.0
C2342 C 0.60324 0.97166 0.75108 0.0
C2343 C 0.58941 0.98278 0.74518 0.0
C2344 C 0.57321 0.97498 0.7392 0.0
C2345 C 0.57115 0.95657 0.73824 0.0
C2346 C 0.60072 0.03054 0.75851 0.0
C2347 C 0.59315 0.03999 0.74427 0.0
C2348 C 0.60001 0.01189 0.7587 0.0
C2349 C 0.59179 0.00243 0.74461 0.0
C2350 C 0.58509 0.01194 0.73 0.0
C2351 C 0.58568 0.03045 0.72988 0.0
H2352 H 0.95063 0.35694 0.23475 0.0
H2353 H 0.94512 0.40047 0.27186 0.0
H2354 H 0.98326 0.35852 0.23847 0.0
H2355 H 0.97745 0.40266 0.27493 0.0
H2356 H 0.03501 0.39596 0.28852 0.0
H2357 H 0.00295 0.38948 0.28672 0.0
H2358 H 0.00849 0.37635 0.23092 0.0
H2359 H 0.04075 0.38196 0.23305 0.0
C2360 C 0.9564 0.36684 0.24368 0.0
C2361 C 0.94532 0.37856 0.25302 0.0
C2362 C 0.9751 0.36784 0.24573 0.0
C2363 C 0.98309 0.38071 0.25703 0.0
C2364 C 0.97188 0.3923 0.26643 0.0
C2365 C 0.95326 0.39115 0.26456 0.0
C2366 C 0.02938 0.39154 0.27591 0.0
C2367 C 0.04036 0.38961 0.26089 0.0
C2368 C 0.01096 0.38792 0.27483 0.0
C2369 C 0.00299 0.38263 0.2586 0.0
C2370 C 0.01411 0.3802 0.24369 0.0
C2371 C 0.03262 0.38352 0.24487 0.0
H2372 H 0.58061 0.03856 0.28075 0.0
H2373 H 0.60489 0.03743 0.22858 0.0
H2374 H 0.57985 0.00629 0.28135 0.0
H2375 H 0.60352 0.00494 0.22888 0.0
H2376 H 0.55934 0.95113 0.26762 0.0
H2377 H 0.563 0.9832 0.26737 0.0
H2378 H 0.61479 0.9781 0.24216 0.0
H2379 H 0.61083 0.94576 0.24186 0.0
C2380 C 0.58574 0.0314 0.26936 0.0
C2381 C 0.59265 0.04056 0.25454 0.0
C2382 C 0.58522 0.01287 0.26966 0.0
C2383 C 0.59137 0.00298 0.25505 0.0
C2384 C 0.59879 0.01212 0.24042 0.0
C2385 C 0.5995 0.03074 0.2402 0.0
C2386 C 0.57156 0.95679 0.26206 0.0
C2387 C 0.58482 0.94585 0.25481 0.0
C2388 C 0.57372 0.97523 0.26202 0.0
C2389 C 0.58928 0.98327 0.2549 0.0
C2390 C 0.60257 0.97235 0.24761 0.0
C2391 C 0.60034 0.95382 0.24752 0.0
H2392 H 0.04372 0.61055 0.28283 0.0
H2393 H 0.03981 0.62569 0.22753 0.0
H2394 H 0.01111 0.61109 0.28534 0.0
H2395 H 0.00723 0.6254 0.22971 0.0
H2396 H 0.949 0.63421 0.23992 0.0
H2397 H 0.98144 0.63887 0.24099 0.0
H2398 H 0.98609 0.59389 0.27643 0.0
H2399 H 0.9536 0.58988 0.27601 0.0
C2400 C 0.03586 0.61402 0.27121 0.0
C2401 C 0.04428 0.61801 0.25497 0.0
C2402 C 0.01716 0.61421 0.2726 0.0
C2403 C 0.00644 0.61814 0.2577 0.0
C2404 C 0.01498 0.62259 0.24157 0.0
C2405 C 0.03369 0.62265 0.24026 0.0
C2406 C 0.95698 0.62548 0.24811 0.0
C2407 C 0.9488 0.61162 0.25779 0.0
C2408 C 0.97559 0.62806 0.24863 0.0
C2409 C 0.98649 0.61664 0.25863 0.0
C2410 C 0.97818 0.60312 0.26877 0.0
C2411 C 0.95953 0.60073 0.26845 0.0
H2412 H 0.40244 0.03724 0.27777 0.0
H2413 H 0.37982 0.04467 0.22534 0.0
H2414 H 0.39641 0.00547 0.2756 0.0
H2415 H 0.37461 0.01267 0.22269 0.0
H2416 H 0.35506 0.95525 0.22856 0.0
H2417 H 0.35794 0.98749 0.23212 0.0
H2418 H 0.40757 0.98057 0.26122 0.0
H2419 H 0.40415 0.94859 0.25843 0.0
C2420 C 0.39628 0.03204 0.26571 0.0
C2421 C 0.39172 0.04343 0.25168 0.0
C2422 C 0.39291 0.01378 0.2644 0.0
C2423 C 0.38522 0.00637 0.24887 0.0
C2424 C 0.38035 0.01786 0.23494 0.0
C2425 C 0.38344 0.03621 0.2364 0.0
C2426 C 0.3665 0.96069 0.2358 0.0
C2427 C 0.37933 0.94941 0.24328 0.0
C2428 C 0.36823 0.97917 0.23776 0.0
C2429 C 0.38296 0.98672 0.24703 0.0
C2430 C 0.39581 0.97532 0.25437 0.0
C2431 C 0.39393 0.95692 0.25266 0.0
H2432 H 0.76284 0.03575 0.61676 0.0
H2433 H 0.71463 0.03562 0.58461 0.0
H2434 H 0.76438 0.00341 0.61372 0.0
H2435 H 0.7157 0.00346 0.58217 0.0
H2436 H 0.73153 0.9495 0.56395 0.0
H2437 H 0.73254 0.9816 0.56746 0.0
H2438 H 0.7505 0.97557 0.62189 0.0
H2439 H 0.75018 0.94328 0.61808 0.0
C2440 C 0.75248 0.02878 0.60923 0.0
C2441 C 0.7387 0.0382 0.6008 0.0
C2442 C 0.75331 0.01026 0.60754 0.0
C2443 C 0.74029 0.00082 0.59751 0.0
C2444 C 0.72624 0.0103 0.58958 0.0
C2445 C 0.72553 0.02875 0.5911 0.0
C2446 C 0.73582 0.95501 0.57664 0.0
C2447 C 0.74063 0.94386 0.59078 0.0
C2448 C 0.73627 0.97344 0.57871 0.0
C2449 C 0.74128 0.98121 0.59507 0.0
C2450 C 0.74667 0.97006 0.60908 0.0
C2451 C 0.74643 0.95155 0.60692 0.0
H2452 H 0.75325 0.02416 0.36141 0.0
H2453 H 0.71814 0.0283 0.40686 0.0
H2454 H 0.74894 0.99188 0.36143 0.0
H2455 H 0.71458 -0.00376 0.40755 0.0
H2456 H 0.6993 0.93962 0.39822 0.0
H2457 H 0.70154 0.97159 0.39375 0.0
H2458 H 0.75681 0.9662 0.37722 0.0
H2459 H 0.75413 0.93407 0.38075 0.0
C2460 C 0.74466 0.01815 0.37142 0.0
C2461 C 0.73601 0.02873 0.3841 0.0
C2462 C 0.74227 -0.00036 0.37153 0.0
C2463 C 0.73139 0.99135 0.38449 0.0
C2464 C 0.72272 0.00207 0.3971 0.0
C2465 C 0.72488 0.02051 0.3968 0.0
C2466 C 0.71188 0.94528 0.39349 0.0
C2467 C 0.72658 0.93438 0.38996 0.0
C2468 C 0.71323 0.96364 0.39103 0.0
C2469 C 0.72945 0.97161 0.38536 0.0
C2470 C 0.74403 0.96059 0.38139 0.0
C2471 C 0.74255 0.94215 0.38352 0.0
H2472 H 0.94643 0.70374 0.37586 0.0
H2473 H 0.95018 0.75982 0.36392 0.0
H2474 H 0.97898 0.7016 0.37385 0.0
H2475 H 0.98275 0.75797 0.36278 0.0
H2476 H 0.041 0.74899 0.35215 0.0
H2477 H 0.00849 0.74785 0.34806 0.0
H2478 H 0.00407 0.7098 0.39101 0.0
H2479 H 0.0365 0.71035 0.39443 0.0
C2480 C 0.95425 0.71561 0.37279 0.0
C2481 C 0.94581 0.73197 0.37016 0.0
C2482 C 0.97291 0.71443 0.37174 0.0
C2483 C 0.98359 0.72965 0.36835 0.0
C2484 C 0.97502 0.7459 0.36517 0.0
C2485 C 0.95633 0.74702 0.36594 0.0
C2486 C 0.03305 0.74021 0.36052 0.0
C2487 C 0.04127 0.72984 0.37367 0.0
C2488 C 0.0144 0.73964 0.35828 0.0
C2489 C 0.00355 0.72886 0.3693 0.0
C2490 C 0.01192 0.71807 0.38207 0.0
C2491 C 0.03056 0.71846 0.38413 0.0
H2492 H 0.27204 0.037 0.41545 0.0
H2493 H 0.24062 0.04487 0.3677 0.0
H2494 H 0.27212 0.00522 0.4098 0.0
H2495 H 0.24121 0.01298 0.36168 0.0
H2496 H 0.22872 0.95288 0.36978 0.0
H2497 H 0.22934 0.98522 0.37242 0.0
H2498 H 0.28446 0.98353 0.39057 0.0
H2499 H 0.28356 0.95121 0.38856 0.0
C2500 C 0.26526 0.03197 0.40365 0.0
C2501 C 0.25631 0.0435 0.39204 0.0
C2502 C 0.26543 0.01371 0.40031 0.0
C2503 C 0.25681 0.00651 0.38519 0.0
C2504 C 0.24785 0.01804 0.37355 0.0
C2505 C 0.24756 0.03634 0.37696 0.0
C2506 C 0.24103 0.95946 0.37412 0.0
C2507 C 0.25603 0.94953 0.37914 0.0
C2508 C 0.24141 0.97801 0.37558 0.0
C2509 C 0.25688 0.98699 0.38194 0.0
C2510 C 0.27217 0.97703 0.38606 0.0
C2511 C 0.27172 0.95851 0.38478 0.0
H2512 H 0.03952 0.27849 0.37839 0.0
H2513 H 0.03389 0.22402 0.36065 0.0
H2514 H 0.00717 0.28218 0.37567 0.0
H2515 H 0.00149 0.22734 0.35876 0.0
H2516 H 0.94425 0.23955 0.34705 0.0
H2517 H 0.97686 0.24 0.34414 0.0
H2518 H 0.98113 0.27345 0.39095 0.0
H2519 H 0.94861 0.27368 0.39325 0.0
C2520 C 0.03133 0.2673 0.37391 0.0
C2521 C 0.03917 0.25094 0.36984 0.0
C2522 C 0.01278 0.26937 0.37244 0.0
C2523 C 0.00162 0.25502 0.36714 0.0
C2524 C 0.00961 0.23878 0.36261 0.0
C2525 C 0.0282 0.23681 0.36382 0.0
C2526 C 0.9522 0.24722 0.35653 0.0
C2527 C 0.94391 0.25648 0.37044 0.0
C2528 C 0.9709 0.24737 0.35496 0.0
C2529 C 0.98172 0.25658 0.36743 0.0
C2530 C 0.9733 0.2664 0.38094 0.0
C2531 C 0.95461 0.26646 0.38234 0.0
H2532 H 0.23792 0.04852 0.62413 0.0
H2533 H 0.273 0.03733 0.57986 0.0
H2534 H 0.23584 0.01676 0.63077 0.0
H2535 H 0.27051 0.00578 0.58613 0.0
H2536 H 0.27626 0.95175 0.60889 0.0
H2537 H 0.27956 0.98395 0.60714 0.0
H2538 H 0.22311 0.98944 0.61888 0.0
H2539 H 0.21999 0.95716 0.62125 0.0
C2540 C 0.24514 0.0393 0.61579 0.0
C2541 C 0.25565 0.04548 0.60149 0.0
C2542 C 0.24389 0.0211 0.61956 0.0
C2543 C 0.2531 0.00871 0.60907 0.0
C2544 C 0.26355 0.01494 0.59475 0.0
C2545 C 0.26487 0.03308 0.59106 0.0
C2546 C 0.26461 0.95986 0.61134 0.0
C2547 C 0.24784 0.95196 0.61504 0.0
C2548 C 0.26647 0.97831 0.61022 0.0
C2549 C 0.25153 0.98929 0.61254 0.0
C2550 C 0.23491 0.9814 0.61711 0.0
C2551 C 0.2331 0.9629 0.61841 0.0
H2552 H 0.95599 0.22546 0.61684 0.0
H2553 H 0.95186 0.28124 0.60412 0.0
H2554 H 0.98861 0.22766 0.61395 0.0
H2555 H 0.98441 0.28362 0.60185 0.0
H2556 H 0.03728 0.27513 0.57312 0.0
H2557 H 0.00558 0.27381 0.58035 0.0
H2558 H 0.01685 0.23961 0.62507 0.0
H2559 H 0.04874 0.24052 0.61749 0.0
C2560 C 0.96209 0.23827 0.61384 0.0
C2561 C 0.9514 0.25313 0.61048 0.0
C2562 C 0.98079 0.23956 0.61223 0.0
C2563 C 0.98911 0.25576 0.60737 0.0
C2564 C 0.97841 0.27084 0.60514 0.0
C2565 C 0.95976 0.26951 0.60657 0.0
C2566 C 0.03306 0.26736 0.58454 0.0
C2567 C 0.04558 0.25791 0.5947 0.0
C2568 C 0.01485 0.26672 0.58879 0.0
C2569 C 0.00865 0.25672 0.60339 0.0
C2570 C 0.02116 0.24732 0.61365 0.0
C2571 C 0.03944 0.2479 0.60933 0.0
H2572 H 0.02805 0.75699 0.62253 0.0
H2573 H 0.03313 0.70179 0.60765 0.0
H2574 H -0.00446 0.75446 0.61919 0.0
H2575 H 0.00059 0.69901 0.60499 0.0
H2576 H 0.94719 0.70756 0.57676 0.0
H2577 H 0.97888 0.70872 0.58421 0.0
H2578 H 0.96759 0.74231 0.62949 0.0
H2579 H 0.93574 0.74164 0.62161 0.0
C2580 C 0.02218 0.7442 0.61894 0.0
C2581 C 0.03313 0.72964 0.61514 0.0
C2582 C 0.00352 0.74272 0.61709 0.0
C2583 C -0.00458 0.72659 0.61157 0.0
C2584 C 0.00638 0.71176 0.60881 0.0
C2585 C 0.02503 0.7133 0.61046 0.0
C2586 C 0.95141 0.71515 0.58836 0.0
C2587 C 0.9389 0.72455 0.59856 0.0
C2588 C 0.96962 0.7157 0.59274 0.0
C2589 C 0.97584 0.72552 0.60754 0.0
C2590 C 0.96331 0.73477 0.61789 0.0
C2591 C 0.94504 0.73433 0.61341 0.0
loop_
_geom_bond_atom_site_label_1
_geom_bond_atom_site_label_2
_geom_bond_distance
_geom_bond_site_symmetry_2
_ccdc_geom_bond_type
C0 O1 1.306 . S
C0 O3 1.160 . S
O1 C0 1.306 . S
O1 Cd2 2.228 . S
Cd2 O1 2.228 . S
Cd2 O6 2.273 . S
Cd2 O10 2.277 . S
O3 C0 1.160 . S
O3 Cd4 2.203 . S
Cd4 O3 2.203 . S
Cd4 O6 2.411 . S
Cd4 O7 2.333 . S
Cd4 O8 2.352 . S
Cd4 O12 2.277 . S
Cd4 O13 2.356 . S
C5 O10 1.209 . S
C5 O12 1.226 . S
O6 Cd2 2.273 . S
O6 Cd4 2.411 . S
O6 C9 1.320 . S
O7 Cd4 2.333 . S
O7 C9 1.214 . S
O8 Cd4 2.352 . S
O8 C11 1.258 . S
C9 O6 1.320 . S
C9 O7 1.214 . S
O10 Cd2 2.277 . S
O10 C5 1.209 . S
C11 O8 1.258 . S
C11 O13 1.282 . S
O12 Cd4 2.277 . S
O12 C5 1.226 . S
O13 Cd4 2.356 . S
O13 C11 1.282 . S
C14 O15 1.306 . S
C14 O17 1.160 . S
O15 C14 1.306 . S
O15 Cd16 2.228 . S
Cd16 O15 2.228 . S
Cd16 O20 2.273 . S
Cd16 O24 2.277 . S
O17 C14 1.160 . S
O17 Cd18 2.203 . S
Cd18 O17 2.203 . S
Cd18 O20 2.411 . S
Cd18 O21 2.333 . S
Cd18 O22 2.352 . S
Cd18 O26 2.277 . S
Cd18 O27 2.356 . S
C19 O24 1.209 . S
C19 O26 1.226 . S
O20 Cd16 2.273 . S
O20 Cd18 2.411 . S
O20 C23 1.320 . S
O21 Cd18 2.333 . S
O21 C23 1.214 . S
O22 Cd18 2.352 . S
O22 C25 1.258 . S
C23 O20 1.320 . S
C23 O21 1.214 . S
O24 Cd16 2.277 . S
O24 C19 1.209 . S
C25 O22 1.258 . S
C25 O27 1.282 . S
O26 Cd18 2.277 . S
O26 C19 1.226 . S
O27 Cd18 2.356 . S
O27 C25 1.282 . S
C28 O29 1.306 . S
C28 O31 1.160 . S
O29 C28 1.306 . S
O29 Cd30 2.228 . S
Cd30 O29 2.228 . S
Cd30 O34 2.273 . S
Cd30 O38 2.277 . S
O31 C28 1.160 . S
O31 Cd32 2.203 . S
Cd32 O31 2.203 . S
Cd32 O34 2.411 . S
Cd32 O35 2.333 . S
Cd32 O36 2.352 . S
Cd32 O40 2.277 . S
Cd32 O41 2.356 . S
C33 O38 1.209 . S
C33 O40 1.226 . S
O34 Cd30 2.273 . S
O34 Cd32 2.411 . S
O34 C37 1.320 . S
O35 Cd32 2.333 . S
O35 C37 1.214 . S
O36 Cd32 2.352 . S
O36 C39 1.258 . S
C37 O34 1.320 . S
C37 O35 1.214 . S
O38 Cd30 2.277 . S
O38 C33 1.209 . S
C39 O36 1.258 . S
C39 O41 1.282 . S
O40 Cd32 2.277 . S
O40 C33 1.226 . S
O41 Cd32 2.356 . S
O41 C39 1.282 . S
C42 O43 1.306 . S
C42 O45 1.160 . S
O43 C42 1.306 . S
O43 Cd44 2.228 . S
Cd44 O43 2.228 . S
Cd44 O48 2.273 . S
Cd44 O52 2.277 . S
O45 C42 1.160 . S
O45 Cd46 2.203 . S
Cd46 O45 2.203 . S
Cd46 O48 2.411 . S
Cd46 O49 2.333 . S
Cd46 O50 2.352 . S
Cd46 O54 2.277 . S
Cd46 O55 2.356 . S
C47 O52 1.209 . S
C47 O54 1.226 . S
O48 Cd44 2.273 . S
O48 Cd46 2.411 . S
O48 C51 1.320 . S
O49 Cd46 2.333 . S
O49 C51 1.214 . S
O50 Cd46 2.352 . S
O50 C53 1.258 . S
C51 O48 1.320 . S
C51 O49 1.214 . S
O52 Cd44 2.277 . S
O52 C47 1.209 . S
C53 O50 1.258 . S
C53 O55 1.282 . S
O54 Cd46 2.277 . S
O54 C47 1.226 . S
O55 Cd46 2.356 . S
O55 C53 1.282 . S
C56 O57 1.306 . S
C56 O59 1.160 . S
O57 C56 1.306 . S
O57 Cd58 2.228 . S
Cd58 O57 2.228 . S
Cd58 O62 2.273 . S
Cd58 O66 2.277 . S
O59 C56 1.160 . S
O59 Cd60 2.203 . S
Cd60 O59 2.203 . S
Cd60 O62 2.411 . S
Cd60 O63 2.333 . S
Cd60 O64 2.352 . S
Cd60 O68 2.277 . S
Cd60 O69 2.356 . S
C61 O66 1.209 . S
C61 O68 1.226 . S
O62 Cd58 2.273 . S
O62 Cd60 2.411 . S
O62 C65 1.320 . S
O63 Cd60 2.333 . S
O63 C65 1.214 . S
O64 Cd60 2.352 . S
O64 C67 1.258 . S
C65 O62 1.320 . S
C65 O63 1.214 . S
O66 Cd58 2.277 . S
O66 C61 1.209 . S
C67 O64 1.258 . S
C67 O69 1.282 . S
O68 Cd60 2.277 . S
O68 C61 1.226 . S
O69 Cd60 2.356 . S
O69 C67 1.282 . S
C70 O71 1.306 . S
C70 O73 1.160 . S
O71 C70 1.306 . S
O71 Cd72 2.228 . S
Cd72 O71 2.228 . S
Cd72 O76 2.273 . S
Cd72 O80 2.277 . S
O73 C70 1.160 . S
O73 Cd74 2.203 . S
Cd74 O73 2.203 . S
Cd74 O76 2.411 . S
Cd74 O77 2.333 . S
Cd74 O78 2.352 . S
Cd74 O82 2.277 . S
Cd74 O83 2.356 . S
C75 O80 1.209 . S
C75 O82 1.226 . S
O76 Cd72 2.273 . S
O76 Cd74 2.411 . S
O76 C79 1.320 . S
O77 Cd74 2.333 . S
O77 C79 1.214 . S
O78 Cd74 2.352 . S
O78 C81 1.258 . S
C79 O76 1.320 . S
C79 O77 1.214 . S
O80 Cd72 2.277 . S
O80 C75 1.209 . S
C81 O78 1.258 . S
C81 O83 1.282 . S
O82 Cd74 2.277 . S
O82 C75 1.226 . S
O83 Cd74 2.356 . S
O83 C81 1.282 . S
C84 O85 1.306 . S
C84 O87 1.160 . S
O85 C84 1.306 . S
O85 Cd86 2.228 . S
Cd86 O85 2.228 . S
Cd86 O90 2.273 . S
Cd86 O94 2.277 . S
O87 C84 1.160 . S
O87 Cd88 2.203 . S
Cd88 O87 2.203 . S
Cd88 O90 2.411 . S
Cd88 O91 2.333 . S
Cd88 O92 2.352 . S
Cd88 O96 2.277 . S
Cd88 O97 2.356 . S
C89 O94 1.209 . S
C89 O96 1.226 . S
O90 Cd86 2.273 . S
O90 Cd88 2.411 . S
O90 C93 1.320 . S
O91 Cd88 2.333 . S
O91 C93 1.214 . S
O92 Cd88 2.352 . S
O92 C95 1.258 . S
C93 O90 1.320 . S
C93 O91 1.214 . S
O94 Cd86 2.277 . S
O94 C89 1.209 . S
C95 O92 1.258 . S
C95 O97 1.282 . S
O96 Cd88 2.277 . S
O96 C89 1.226 . S
O97 Cd88 2.356 . S
O97 C95 1.282 . S
C98 O99 1.306 . S
C98 O101 1.160 . S
O99 C98 1.306 . S
O99 Cd100 2.228 . S
Cd100 O99 2.228 . S
Cd100 O104 2.273 . S
Cd100 O108 2.277 . S
O101 C98 1.160 . S
O101 Cd102 2.203 . S
Cd102 O101 2.203 . S
Cd102 O104 2.411 . S
Cd102 O105 2.333 . S
Cd102 O106 2.352 . S
Cd102 O110 2.277 . S
Cd102 O111 2.356 . S
C103 O108 1.209 . S
C103 O110 1.226 . S
O104 Cd100 2.273 . S
O104 Cd102 2.411 . S
O104 C107 1.320 . S
O105 Cd102 2.333 . S
O105 C107 1.214 . S
O106 Cd102 2.352 . S
O106 C109 1.258 . S
C107 O104 1.320 . S
C107 O105 1.214 . S
O108 Cd100 2.277 . S
O108 C103 1.209 . S
C109 O106 1.258 . S
C109 O111 1.282 . S
O110 Cd102 2.277 . S
O110 C103 1.226 . S
O111 Cd102 2.356 . S
O111 C109 1.282 . S
C112 O113 1.306 . S
C112 O115 1.160 . S
O113 C112 1.306 . S
O113 Cd114 2.228 . S
Cd114 O113 2.228 . S
Cd114 O118 2.273 . S
Cd114 O122 2.277 . S
O115 C112 1.160 . S
O115 Cd116 2.203 . S
Cd116 O115 2.203 . S
Cd116 O118 2.411 . S
Cd116 O119 2.333 . S
Cd116 O120 2.352 . S
Cd116 O124 2.277 . S
Cd116 O125 2.356 . S
C117 O122 1.209 . S
C117 O124 1.226 . S
O118 Cd114 2.273 . S
O118 Cd116 2.411 . S
O118 C121 1.320 . S
O119 Cd116 2.333 . S
O119 C121 1.214 . S
O120 Cd116 2.352 . S
O120 C123 1.258 . S
C121 O118 1.320 . S
C121 O119 1.214 . S
O122 Cd114 2.277 . S
O122 C117 1.209 . S
C123 O120 1.258 . S
C123 O125 1.282 . S
O124 Cd116 2.277 . S
O124 C117 1.226 . S
O125 Cd116 2.356 . S
O125 C123 1.282 . S
C126 O127 1.306 . S
C126 O129 1.160 . S
O127 C126 1.306 . S
O127 Cd128 2.228 . S
Cd128 O127 2.228 . S
Cd128 O132 2.273 . S
Cd128 O136 2.277 . S
O129 C126 1.160 . S
O129 Cd130 2.203 . S
Cd130 O129 2.203 . S
Cd130 O132 2.411 . S
Cd130 O133 2.333 . S
Cd130 O134 2.352 . S
Cd130 O138 2.277 . S
Cd130 O139 2.356 . S
C131 O136 1.209 . S
C131 O138 1.226 . S
O132 Cd128 2.273 . S
O132 Cd130 2.411 . S
O132 C135 1.320 . S
O133 Cd130 2.333 . S
O133 C135 1.214 . S
O134 Cd130 2.352 . S
O134 C137 1.258 . S
C135 O132 1.320 . S
C135 O133 1.214 . S
O136 Cd128 2.277 . S
O136 C131 1.209 . S
C137 O134 1.258 . S
C137 O139 1.282 . S
O138 Cd130 2.277 . S
O138 C131 1.226 . S
O139 Cd130 2.356 . S
O139 C137 1.282 . S
C140 O141 1.306 . S
C140 O143 1.160 . S
O141 C140 1.306 . S
O141 Cd142 2.228 . S
Cd142 O141 2.228 . S
Cd142 O146 2.273 . S
Cd142 O150 2.277 . S
O143 C140 1.160 . S
O143 Cd144 2.203 . S
Cd144 O143 2.203 . S
Cd144 O146 2.411 . S
Cd144 O147 2.333 . S
Cd144 O148 2.352 . S
Cd144 O152 2.277 . S
Cd144 O153 2.356 . S
C145 O150 1.209 . S
C145 O152 1.226 . S
O146 Cd142 2.273 . S
O146 Cd144 2.411 . S
O146 C149 1.320 . S
O147 Cd144 2.333 . S
O147 C149 1.214 . S
O148 Cd144 2.352 . S
O148 C151 1.258 . S
C149 O146 1.320 . S
C149 O147 1.214 . S
O150 Cd142 2.277 . S
O150 C145 1.209 . S
C151 O148 1.258 . S
C151 O153 1.282 . S
O152 Cd144 2.277 . S
O152 C145 1.226 . S
O153 Cd144 2.356 . S
O153 C151 1.282 . S
C154 O155 1.306 . S
C154 O157 1.160 . S
O155 C154 1.306 . S
O155 Cd156 2.228 . S
Cd156 O155 2.228 . S
Cd156 O160 2.273 . S
Cd156 O164 2.277 . S
O157 C154 1.160 . S
O157 Cd158 2.203 . S
Cd158 O157 2.203 . S
Cd158 O160 2.411 . S
Cd158 O161 2.333 . S
Cd158 O162 2.352 . S
Cd158 O166 2.277 . S
Cd158 O167 2.356 . S
C159 O164 1.209 . S
C159 O166 1.226 . S
O160 Cd156 2.273 . S
O160 Cd158 2.411 . S
O160 C163 1.320 . S
O161 Cd158 2.333 . S
O161 C163 1.214 . S
O162 Cd158 2.352 . S
O162 C165 1.258 . S
C163 O160 1.320 . S
C163 O161 1.214 . S
O164 Cd156 2.277 . S
O164 C159 1.209 . S
C165 O162 1.258 . S
C165 O167 1.282 . S
O166 Cd158 2.277 . S
O166 C159 1.226 . S
O167 Cd158 2.356 . S
O167 C165 1.282 . S
C168 O169 1.306 . S
C168 O171 1.160 . S
O169 C168 1.306 . S
O169 Cd170 2.228 . S
Cd170 O169 2.228 . S
Cd170 O174 2.273 . S
Cd170 O178 2.277 . S
O171 C168 1.160 . S
O171 Cd172 2.203 . S
Cd172 O171 2.203 . S
Cd172 O174 2.411 . S
Cd172 O175 2.333 . S
Cd172 O176 2.352 . S
Cd172 O180 2.277 . S
Cd172 O181 2.356 . S
C173 O178 1.209 . S
C173 O180 1.226 . S
O174 Cd170 2.273 . S
O174 Cd172 2.411 . S
O174 C177 1.320 . S
O175 Cd172 2.333 . S
O175 C177 1.214 . S
O176 Cd172 2.352 . S
O176 C179 1.258 . S
C177 O174 1.320 . S
C177 O175 1.214 . S
O178 Cd170 2.277 . S
O178 C173 1.209 . S
C179 O176 1.258 . S
C179 O181 1.282 . S
O180 Cd172 2.277 . S
O180 C173 1.226 . S
O181 Cd172 2.356 . S
O181 C179 1.282 . S
C182 O183 1.306 . S
C182 O185 1.160 . S
O183 C182 1.306 . S
O183 Cd184 2.228 . S
Cd184 O183 2.228 . S
Cd184 O188 2.273 . S
Cd184 O192 2.277 . S
O185 C182 1.160 . S
O185 Cd186 2.203 . S
Cd186 O185 2.203 . S
Cd186 O188 2.411 . S
Cd186 O189 2.333 . S
Cd186 O190 2.352 . S
Cd186 O194 2.277 . S
Cd186 O195 2.356 . S
C187 O192 1.209 . S
C187 O194 1.226 . S
O188 Cd184 2.273 . S
O188 Cd186 2.411 . S
O188 C191 1.320 . S
O189 Cd186 2.333 . S
O189 C191 1.214 . S
O190 Cd186 2.352 . S
O190 C193 1.258 . S
C191 O188 1.320 . S
C191 O189 1.214 . S
O192 Cd184 2.277 . S
O192 C187 1.209 . S
C193 O190 1.258 . S
C193 O195 1.282 . S
O194 Cd186 2.277 . S
O194 C187 1.226 . S
O195 Cd186 2.356 . S
O195 C193 1.282 . S
C196 O197 1.306 . S
C196 O199 1.160 . S
O197 C196 1.306 . S
O197 Cd198 2.228 . S
Cd198 O197 2.228 . S
Cd198 O202 2.273 . S
Cd198 O206 2.277 . S
O199 C196 1.160 . S
O199 Cd200 2.203 . S
Cd200 O199 2.203 . S
Cd200 O202 2.411 . S
Cd200 O203 2.333 . S
Cd200 O204 2.352 . S
Cd200 O208 2.277 . S
Cd200 O209 2.356 . S
C201 O206 1.209 . S
C201 O208 1.226 . S
O202 Cd198 2.273 . S
O202 Cd200 2.411 . S
O202 C205 1.320 . S
O203 Cd200 2.333 . S
O203 C205 1.214 . S
O204 Cd200 2.352 . S
O204 C207 1.258 . S
C205 O202 1.320 . S
C205 O203 1.214 . S
O206 Cd198 2.277 . S
O206 C201 1.209 . S
C207 O204 1.258 . S
C207 O209 1.282 . S
O208 Cd200 2.277 . S
O208 C201 1.226 . S
O209 Cd200 2.356 . S
O209 C207 1.282 . S
C210 O211 1.306 . S
C210 O213 1.160 . S
O211 C210 1.306 . S
O211 Cd212 2.228 . S
Cd212 O211 2.228 . S
Cd212 O216 2.273 . S
Cd212 O220 2.277 . S
O213 C210 1.160 . S
O213 Cd214 2.203 . S
Cd214 O213 2.203 . S
Cd214 O216 2.411 . S
Cd214 O217 2.333 . S
Cd214 O218 2.352 . S
Cd214 O222 2.277 . S
Cd214 O223 2.356 . S
C215 O220 1.209 . S
C215 O222 1.226 . S
O216 Cd212 2.273 . S
O216 Cd214 2.411 . S
O216 C219 1.320 . S
O217 Cd214 2.333 . S
O217 C219 1.214 . S
O218 Cd214 2.352 . S
O218 C221 1.258 . S
C219 O216 1.320 . S
C219 O217 1.214 . S
O220 Cd212 2.277 . S
O220 C215 1.209 . S
C221 O218 1.258 . S
C221 O223 1.282 . S
O222 Cd214 2.277 . S
O222 C215 1.226 . S
O223 Cd214 2.356 . S
O223 C221 1.282 . S
C224 O225 1.306 . S
C224 O227 1.160 . S
O225 C224 1.306 . S
O225 Cd226 2.228 . S
Cd226 O225 2.228 . S
Cd226 O230 2.273 . S
Cd226 O234 2.277 . S
O227 C224 1.160 . S
O227 Cd228 2.203 . S
Cd228 O227 2.203 . S
Cd228 O230 2.411 . S
Cd228 O231 2.333 . S
Cd228 O232 2.352 . S
Cd228 O236 2.277 . S
Cd228 O237 2.356 . S
C229 O234 1.209 . S
C229 O236 1.226 . S
O230 Cd226 2.273 . S
O230 Cd228 2.411 . S
O230 C233 1.320 . S
O231 Cd228 2.333 . S
O231 C233 1.214 . S
O232 Cd228 2.352 . S
O232 C235 1.258 . S
C233 O230 1.320 . S
C233 O231 1.214 . S
O234 Cd226 2.277 . S
O234 C229 1.209 . S
C235 O232 1.258 . S
C235 O237 1.282 . S
O236 Cd228 2.277 . S
O236 C229 1.226 . S
O237 Cd228 2.356 . S
O237 C235 1.282 . S
C238 O239 1.306 . S
C238 O241 1.160 . S
O239 C238 1.306 . S
O239 Cd240 2.228 . S
Cd240 O239 2.228 . S
Cd240 O244 2.273 . S
Cd240 O248 2.277 . S
O241 C238 1.160 . S
O241 Cd242 2.203 . S
Cd242 O241 2.203 . S
Cd242 O244 2.411 . S
Cd242 O245 2.333 . S
Cd242 O246 2.352 . S
Cd242 O250 2.277 . S
Cd242 O251 2.356 . S
C243 O248 1.209 . S
C243 O250 1.226 . S
O244 Cd240 2.273 . S
O244 Cd242 2.411 . S
O244 C247 1.320 . S
O245 Cd242 2.333 . S
O245 C247 1.214 . S
O246 Cd242 2.352 . S
O246 C249 1.258 . S
C247 O244 1.320 . S
C247 O245 1.214 . S
O248 Cd240 2.277 . S
O248 C243 1.209 . S
C249 O246 1.258 . S
C249 O251 1.282 . S
O250 Cd242 2.277 . S
O250 C243 1.226 . S
O251 Cd242 2.356 . S
O251 C249 1.282 . S
C252 O253 1.306 . S
C252 O255 1.160 . S
O253 C252 1.306 . S
O253 Cd254 2.228 . S
Cd254 O253 2.228 . S
Cd254 O258 2.273 . S
Cd254 O262 2.277 . S
O255 C252 1.160 . S
O255 Cd256 2.203 . S
Cd256 O255 2.203 . S
Cd256 O258 2.411 . S
Cd256 O259 2.333 . S
Cd256 O260 2.352 . S
Cd256 O264 2.277 . S
Cd256 O265 2.356 . S
C257 O262 1.209 . S
C257 O264 1.226 . S
O258 Cd254 2.273 . S
O258 Cd256 2.411 . S
O258 C261 1.320 . S
O259 Cd256 2.333 . S
O259 C261 1.214 . S
O260 Cd256 2.352 . S
O260 C263 1.258 . S
C261 O258 1.320 . S
C261 O259 1.214 . S
O262 Cd254 2.277 . S
O262 C257 1.209 . S
C263 O260 1.258 . S
C263 O265 1.282 . S
O264 Cd256 2.277 . S
O264 C257 1.226 . S
O265 Cd256 2.356 . S
O265 C263 1.282 . S
C266 O267 1.306 . S
C266 O269 1.160 . S
O267 C266 1.306 . S
O267 Cd268 2.228 . S
Cd268 O267 2.228 . S
Cd268 O272 2.273 . S
Cd268 O276 2.277 . S
O269 C266 1.160 . S
O269 Cd270 2.203 . S
Cd270 O269 2.203 . S
Cd270 O272 2.411 . S
Cd270 O273 2.333 . S
Cd270 O274 2.352 . S
Cd270 O278 2.277 . S
Cd270 O279 2.356 . S
C271 O276 1.209 . S
C271 O278 1.226 . S
O272 Cd268 2.273 . S
O272 Cd270 2.411 . S
O272 C275 1.320 . S
O273 Cd270 2.333 . S
O273 C275 1.214 . S
O274 Cd270 2.352 . S
O274 C277 1.258 . S
C275 O272 1.320 . S
C275 O273 1.214 . S
O276 Cd268 2.277 . S
O276 C271 1.209 . S
C277 O274 1.258 . S
C277 O279 1.282 . S
O278 Cd270 2.277 . S
O278 C271 1.226 . S
O279 Cd270 2.356 . S
O279 C277 1.282 . S
C280 O281 1.306 . S
C280 O283 1.160 . S
O281 C280 1.306 . S
O281 Cd282 2.228 . S
Cd282 O281 2.228 . S
Cd282 O286 2.273 . S
Cd282 O290 2.277 . S
O283 C280 1.160 . S
O283 Cd284 2.203 . S
Cd284 O283 2.203 . S
Cd284 O286 2.411 . S
Cd284 O287 2.333 . S
Cd284 O288 2.352 . S
Cd284 O292 2.277 . S
Cd284 O293 2.356 . S
C285 O290 1.209 . S
C285 O292 1.226 . S
O286 Cd282 2.273 . S
O286 Cd284 2.411 . S
O286 C289 1.320 . S
O287 Cd284 2.333 . S
O287 C289 1.214 . S
O288 Cd284 2.352 . S
O288 C291 1.258 . S
C289 O286 1.320 . S
C289 O287 1.214 . S
O290 Cd282 2.277 . S
O290 C285 1.209 . S
C291 O288 1.258 . S
C291 O293 1.282 . S
O292 Cd284 2.277 . S
O292 C285 1.226 . S
O293 Cd284 2.356 . S
O293 C291 1.282 . S
C294 O295 1.306 . S
C294 O297 1.160 . S
O295 C294 1.306 . S
O295 Cd296 2.228 . S
Cd296 O295 2.228 . S
Cd296 O300 2.273 . S
Cd296 O304 2.277 . S
O297 C294 1.160 . S
O297 Cd298 2.203 . S
Cd298 O297 2.203 . S
Cd298 O300 2.411 . S
Cd298 O301 2.333 . S
Cd298 O302 2.352 . S
Cd298 O306 2.277 . S
Cd298 O307 2.356 . S
C299 O304 1.209 . S
C299 O306 1.226 . S
O300 Cd296 2.273 . S
O300 Cd298 2.411 . S
O300 C303 1.320 . S
O301 Cd298 2.333 . S
O301 C303 1.214 . S
O302 Cd298 2.352 . S
O302 C305 1.258 . S
C303 O300 1.320 . S
C303 O301 1.214 . S
O304 Cd296 2.277 . S
O304 C299 1.209 . S
C305 O302 1.258 . S
C305 O307 1.282 . S
O306 Cd298 2.277 . S
O306 C299 1.226 . S
O307 Cd298 2.356 . S
O307 C305 1.282 . S
C308 O309 1.306 . S
C308 O311 1.160 . S
O309 C308 1.306 . S
O309 Cd310 2.228 . S
Cd310 O309 2.228 . S
Cd310 O314 2.273 . S
Cd310 O318 2.277 . S
O311 C308 1.160 . S
O311 Cd312 2.203 . S
Cd312 O311 2.203 . S
Cd312 O314 2.411 . S
Cd312 O315 2.333 . S
Cd312 O316 2.352 . S
Cd312 O320 2.277 . S
Cd312 O321 2.356 . S
C313 O318 1.209 . S
C313 O320 1.226 . S
O314 Cd310 2.273 . S
O314 Cd312 2.411 . S
O314 C317 1.320 . S
O315 Cd312 2.333 . S
O315 C317 1.214 . S
O316 Cd312 2.352 . S
O316 C319 1.258 . S
C317 O314 1.320 . S
C317 O315 1.214 . S
O318 Cd310 2.277 . S
O318 C313 1.209 . S
C319 O316 1.258 . S
C319 O321 1.282 . S
O320 Cd312 2.277 . S
O320 C313 1.226 . S
O321 Cd312 2.356 . S
O321 C319 1.282 . S
C322 O323 1.306 . S
C322 O325 1.160 . S
O323 C322 1.306 . S
O323 Cd324 2.228 . S
Cd324 O323 2.228 . S
Cd324 O328 2.273 . S
Cd324 O332 2.277 . S
O325 C322 1.160 . S
O325 Cd326 2.203 . S
Cd326 O325 2.203 . S
Cd326 O328 2.411 . S
Cd326 O329 2.333 . S
Cd326 O330 2.352 . S
Cd326 O334 2.277 . S
Cd326 O335 2.356 . S
C327 O332 1.209 . S
C327 O334 1.226 . S
O328 Cd324 2.273 . S
O328 Cd326 2.411 . S
O328 C331 1.320 . S
O329 Cd326 2.333 . S
O329 C331 1.214 . S
O330 Cd326 2.352 . S
O330 C333 1.258 . S
C331 O328 1.320 . S
C331 O329 1.214 . S
O332 Cd324 2.277 . S
O332 C327 1.209 . S
C333 O330 1.258 . S
C333 O335 1.282 . S
O334 Cd326 2.277 . S
O334 C327 1.226 . S
O335 Cd326 2.356 . S
O335 C333 1.282 . S
C336 O337 1.306 . S
C336 O339 1.160 . S
O337 C336 1.306 . S
O337 Cd338 2.228 . S
Cd338 O337 2.228 . S
Cd338 O342 2.273 . S
Cd338 O346 2.277 . S
O339 C336 1.160 . S
O339 Cd340 2.203 . S
Cd340 O339 2.203 . S
Cd340 O342 2.411 . S
Cd340 O343 2.333 . S
Cd340 O344 2.352 . S
Cd340 O348 2.277 . S
Cd340 O349 2.356 . S
C341 O346 1.209 . S
C341 O348 1.226 . S
O342 Cd338 2.273 . S
O342 Cd340 2.411 . S
O342 C345 1.320 . S
O343 Cd340 2.333 . S
O343 C345 1.214 . S
O344 Cd340 2.352 . S
O344 C347 1.258 . S
C345 O342 1.320 . S
C345 O343 1.214 . S
O346 Cd338 2.277 . S
O346 C341 1.209 . S
C347 O344 1.258 . S
C347 O349 1.282 . S
O348 Cd340 2.277 . S
O348 C341 1.226 . S
O349 Cd340 2.356 . S
O349 C347 1.282 . S
C350 O351 1.306 . S
C350 O353 1.160 . S
O351 C350 1.306 . S
O351 Cd352 2.228 . S
Cd352 O351 2.228 . S
Cd352 O356 2.273 . S
Cd352 O360 2.277 . S
O353 C350 1.160 . S
O353 Cd354 2.203 . S
Cd354 O353 2.203 . S
Cd354 O356 2.411 . S
Cd354 O357 2.333 . S
Cd354 O358 2.352 . S
Cd354 O362 2.277 . S
Cd354 O363 2.356 . S
C355 O360 1.209 . S
C355 O362 1.226 . S
O356 Cd352 2.273 . S
O356 Cd354 2.411 . S
O356 C359 1.320 . S
O357 Cd354 2.333 . S
O357 C359 1.214 . S
O358 Cd354 2.352 . S
O358 C361 1.258 . S
C359 O356 1.320 . S
C359 O357 1.214 . S
O360 Cd352 2.277 . S
O360 C355 1.209 . S
C361 O358 1.258 . S
C361 O363 1.282 . S
O362 Cd354 2.277 . S
O362 C355 1.226 . S
O363 Cd354 2.356 . S
O363 C361 1.282 . S
C364 O365 1.306 . S
C364 O367 1.160 . S
O365 C364 1.306 . S
O365 Cd366 2.228 . S
Cd366 O365 2.228 . S
Cd366 O370 2.273 . S
Cd366 O374 2.277 . S
O367 C364 1.160 . S
O367 Cd368 2.203 . S
Cd368 O367 2.203 . S
Cd368 O370 2.411 . S
Cd368 O371 2.333 . S
Cd368 O372 2.352 . S
Cd368 O376 2.277 . S
Cd368 O377 2.356 . S
C369 O374 1.209 . S
C369 O376 1.226 . S
O370 Cd366 2.273 . S
O370 Cd368 2.411 . S
O370 C373 1.320 . S
O371 Cd368 2.333 . S
O371 C373 1.214 . S
O372 Cd368 2.352 . S
O372 C375 1.258 . S
C373 O370 1.320 . S
C373 O371 1.214 . S
O374 Cd366 2.277 . S
O374 C369 1.209 . S
C375 O372 1.258 . S
C375 O377 1.282 . S
O376 Cd368 2.277 . S
O376 C369 1.226 . S
O377 Cd368 2.356 . S
O377 C375 1.282 . S
C378 O379 1.306 . S
C378 O381 1.160 . S
O379 C378 1.306 . S
O379 Cd380 2.228 . S
Cd380 O379 2.228 . S
Cd380 O384 2.273 . S
Cd380 O388 2.277 . S
O381 C378 1.160 . S
O381 Cd382 2.203 . S
Cd382 O381 2.203 . S
Cd382 O384 2.411 . S
Cd382 O385 2.333 . S
Cd382 O386 2.352 . S
Cd382 O390 2.277 . S
Cd382 O391 2.356 . S
C383 O388 1.209 . S
C383 O390 1.226 . S
O384 Cd380 2.273 . S
O384 Cd382 2.411 . S
O384 C387 1.320 . S
O385 Cd382 2.333 . S
O385 C387 1.214 . S
O386 Cd382 2.352 . S
O386 C389 1.258 . S
C387 O384 1.320 . S
C387 O385 1.214 . S
O388 Cd380 2.277 . S
O388 C383 1.209 . S
C389 O386 1.258 . S
C389 O391 1.282 . S
O390 Cd382 2.277 . S
O390 C383 1.226 . S
O391 Cd382 2.356 . S
O391 C389 1.282 . S
C392 O393 1.306 . S
C392 O395 1.160 . S
O393 C392 1.306 . S
O393 Cd394 2.228 . S
Cd394 O393 2.228 . S
Cd394 O398 2.273 . S
Cd394 O402 2.277 . S
O395 C392 1.160 . S
O395 Cd396 2.203 . S
Cd396 O395 2.203 . S
Cd396 O398 2.411 . S
Cd396 O399 2.333 . S
Cd396 O400 2.352 . S
Cd396 O404 2.277 . S
Cd396 O405 2.356 . S
C397 O402 1.209 . S
C397 O404 1.226 . S
O398 Cd394 2.273 . S
O398 Cd396 2.411 . S
O398 C401 1.320 . S
O399 Cd396 2.333 . S
O399 C401 1.214 . S
O400 Cd396 2.352 . S
O400 C403 1.258 . S
C401 O398 1.320 . S
C401 O399 1.214 . S
O402 Cd394 2.277 . S
O402 C397 1.209 . S
C403 O400 1.258 . S
C403 O405 1.282 . S
O404 Cd396 2.277 . S
O404 C397 1.226 . S
O405 Cd396 2.356 . S
O405 C403 1.282 . S
C406 O407 1.306 . S
C406 O409 1.160 . S
O407 C406 1.306 . S
O407 Cd408 2.228 . S
Cd408 O407 2.228 . S
Cd408 O412 2.273 . S
Cd408 O416 2.277 . S
O409 C406 1.160 . S
O409 Cd410 2.203 . S
Cd410 O409 2.203 . S
Cd410 O412 2.411 . S
Cd410 O413 2.333 . S
Cd410 O414 2.352 . S
Cd410 O418 2.277 . S
Cd410 O419 2.356 . S
C411 O416 1.209 . S
C411 O418 1.226 . S
O412 Cd408 2.273 . S
O412 Cd410 2.411 . S
O412 C415 1.320 . S
O413 Cd410 2.333 . S
O413 C415 1.214 . S
O414 Cd410 2.352 . S
O414 C417 1.258 . S
C415 O412 1.320 . S
C415 O413 1.214 . S
O416 Cd408 2.277 . S
O416 C411 1.209 . S
C417 O414 1.258 . S
C417 O419 1.282 . S
O418 Cd410 2.277 . S
O418 C411 1.226 . S
O419 Cd410 2.356 . S
O419 C417 1.282 . S
C420 O421 1.306 . S
C420 O423 1.160 . S
O421 C420 1.306 . S
O421 Cd422 2.228 . S
Cd422 O421 2.228 . S
Cd422 O426 2.273 . S
Cd422 O430 2.277 . S
O423 C420 1.160 . S
O423 Cd424 2.203 . S
Cd424 O423 2.203 . S
Cd424 O426 2.411 . S
Cd424 O427 2.333 . S
Cd424 O428 2.352 . S
Cd424 O432 2.277 . S
Cd424 O433 2.356 . S
C425 O430 1.209 . S
C425 O432 1.226 . S
O426 Cd422 2.273 . S
O426 Cd424 2.411 . S
O426 C429 1.320 . S
O427 Cd424 2.333 . S
O427 C429 1.214 . S
O428 Cd424 2.352 . S
O428 C431 1.258 . S
C429 O426 1.320 . S
C429 O427 1.214 . S
O430 Cd422 2.277 . S
O430 C425 1.209 . S
C431 O428 1.258 . S
C431 O433 1.282 . S
O432 Cd424 2.277 . S
O432 C425 1.226 . S
O433 Cd424 2.356 . S
O433 C431 1.282 . S
C434 O435 1.306 . S
C434 O437 1.160 . S
O435 C434 1.306 . S
O435 Cd436 2.228 . S
Cd436 O435 2.228 . S
Cd436 O440 2.273 . S
Cd436 O444 2.277 . S
O437 C434 1.160 . S
O437 Cd438 2.203 . S
Cd438 O437 2.203 . S
Cd438 O440 2.411 . S
Cd438 O441 2.333 . S
Cd438 O442 2.352 . S
Cd438 O446 2.277 . S
Cd438 O447 2.356 . S
C439 O444 1.209 . S
C439 O446 1.226 . S
O440 Cd436 2.273 . S
O440 Cd438 2.411 . S
O440 C443 1.320 . S
O441 Cd438 2.333 . S
O441 C443 1.214 . S
O442 Cd438 2.352 . S
O442 C445 1.258 . S
C443 O440 1.320 . S
C443 O441 1.214 . S
O444 Cd436 2.277 . S
O444 C439 1.209 . S
C445 O442 1.258 . S
C445 O447 1.282 . S
O446 Cd438 2.277 . S
O446 C439 1.226 . S
O447 Cd438 2.356 . S
O447 C445 1.282 . S
C448 O449 1.306 . S
C448 O451 1.160 . S
O449 C448 1.306 . S
O449 Cd450 2.228 . S
Cd450 O449 2.228 . S
Cd450 O454 2.273 . S
Cd450 O458 2.277 . S
O451 C448 1.160 . S
O451 Cd452 2.203 . S
Cd452 O451 2.203 . S
Cd452 O454 2.411 . S
Cd452 O455 2.333 . S
Cd452 O456 2.352 . S
Cd452 O460 2.277 . S
Cd452 O461 2.356 . S
C453 O458 1.209 . S
C453 O460 1.226 . S
O454 Cd450 2.273 . S
O454 Cd452 2.411 . S
O454 C457 1.320 . S
O455 Cd452 2.333 . S
O455 C457 1.214 . S
O456 Cd452 2.352 . S
O456 C459 1.258 . S
C457 O454 1.320 . S
C457 O455 1.214 . S
O458 Cd450 2.277 . S
O458 C453 1.209 . S
C459 O456 1.258 . S
C459 O461 1.282 . S
O460 Cd452 2.277 . S
O460 C453 1.226 . S
O461 Cd452 2.356 . S
O461 C459 1.282 . S
C462 O463 1.306 . S
C462 O465 1.160 . S
O463 C462 1.306 . S
O463 Cd464 2.228 . S
Cd464 O463 2.228 . S
Cd464 O468 2.273 . S
Cd464 O472 2.277 . S
O465 C462 1.160 . S
O465 Cd466 2.203 . S
Cd466 O465 2.203 . S
Cd466 O468 2.411 . S
Cd466 O469 2.333 . S
Cd466 O470 2.352 . S
Cd466 O474 2.277 . S
Cd466 O475 2.356 . S
C467 O472 1.209 . S
C467 O474 1.226 . S
O468 Cd464 2.273 . S
O468 Cd466 2.411 . S
O468 C471 1.320 . S
O469 Cd466 2.333 . S
O469 C471 1.214 . S
O470 Cd466 2.352 . S
O470 C473 1.258 . S
C471 O468 1.320 . S
C471 O469 1.214 . S
O472 Cd464 2.277 . S
O472 C467 1.209 . S
C473 O470 1.258 . S
C473 O475 1.282 . S
O474 Cd466 2.277 . S
O474 C467 1.226 . S
O475 Cd466 2.356 . S
O475 C473 1.282 . S
C476 O477 1.306 . S
C476 O479 1.160 . S
O477 C476 1.306 . S
O477 Cd478 2.228 . S
Cd478 O477 2.228 . S
Cd478 O482 2.273 . S
Cd478 O486 2.277 . S
O479 C476 1.160 . S
O479 Cd480 2.203 . S
Cd480 O479 2.203 . S
Cd480 O482 2.411 . S
Cd480 O483 2.333 . S
Cd480 O484 2.352 . S
Cd480 O488 2.277 . S
Cd480 O489 2.356 . S
C481 O486 1.209 . S
C481 O488 1.226 . S
O482 Cd478 2.273 . S
O482 Cd480 2.411 . S
O482 C485 1.320 . S
O483 Cd480 2.333 . S
O483 C485 1.214 . S
O484 Cd480 2.352 . S
O484 C487 1.258 . S
C485 O482 1.320 . S
C485 O483 1.214 . S
O486 Cd478 2.277 . S
O486 C481 1.209 . S
C487 O484 1.258 . S
C487 O489 1.282 . S
O488 Cd480 2.277 . S
O488 C481 1.226 . S
O489 Cd480 2.356 . S
O489 C487 1.282 . S
C490 O491 1.306 . S
C490 O493 1.160 . S
O491 C490 1.306 . S
O491 Cd492 2.228 . S
Cd492 O491 2.228 . S
Cd492 O496 2.273 . S
Cd492 O500 2.277 . S
O493 C490 1.160 . S
O493 Cd494 2.203 . S
Cd494 O493 2.203 . S
Cd494 O496 2.411 . S
Cd494 O497 2.333 . S
Cd494 O498 2.352 . S
Cd494 O502 2.277 . S
Cd494 O503 2.356 . S
C495 O500 1.209 . S
C495 O502 1.226 . S
O496 Cd492 2.273 . S
O496 Cd494 2.411 . S
O496 C499 1.320 . S
O497 Cd494 2.333 . S
O497 C499 1.214 . S
O498 Cd494 2.352 . S
O498 C501 1.258 . S
C499 O496 1.320 . S
C499 O497 1.214 . S
O500 Cd492 2.277 . S
O500 C495 1.209 . S
C501 O498 1.258 . S
C501 O503 1.282 . S
O502 Cd494 2.277 . S
O502 C495 1.226 . S
O503 Cd494 2.356 . S
O503 C501 1.282 . S
C504 O505 1.306 . S
C504 O507 1.160 . S
O505 C504 1.306 . S
O505 Cd506 2.228 . S
Cd506 O505 2.228 . S
Cd506 O510 2.273 . S
Cd506 O514 2.277 . S
O507 C504 1.160 . S
O507 Cd508 2.203 . S
Cd508 O507 2.203 . S
Cd508 O510 2.411 . S
Cd508 O511 2.333 . S
Cd508 O512 2.352 . S
Cd508 O516 2.277 . S
Cd508 O517 2.356 . S
C509 O514 1.209 . S
C509 O516 1.226 . S
O510 Cd506 2.273 . S
O510 Cd508 2.411 . S
O510 C513 1.320 . S
O511 Cd508 2.333 . S
O511 C513 1.214 . S
O512 Cd508 2.352 . S
O512 C515 1.258 . S
C513 O510 1.320 . S
C513 O511 1.214 . S
O514 Cd506 2.277 . S
O514 C509 1.209 . S
C515 O512 1.258 . S
C515 O517 1.282 . S
O516 Cd508 2.277 . S
O516 C509 1.226 . S
O517 Cd508 2.356 . S
O517 C515 1.282 . S
C518 O519 1.306 . S
C518 O521 1.160 . S
O519 C518 1.306 . S
O519 Cd520 2.228 . S
Cd520 O519 2.228 . S
Cd520 O524 2.273 . S
Cd520 O528 2.277 . S
O521 C518 1.160 . S
O521 Cd522 2.203 . S
Cd522 O521 2.203 . S
Cd522 O524 2.411 . S
Cd522 O525 2.333 . S
Cd522 O526 2.352 . S
Cd522 O530 2.277 . S
Cd522 O531 2.356 . S
C523 O528 1.209 . S
C523 O530 1.226 . S
O524 Cd520 2.273 . S
O524 Cd522 2.411 . S
O524 C527 1.320 . S
O525 Cd522 2.333 . S
O525 C527 1.214 . S
O526 Cd522 2.352 . S
O526 C529 1.258 . S
C527 O524 1.320 . S
C527 O525 1.214 . S
O528 Cd520 2.277 . S
O528 C523 1.209 . S
C529 O526 1.258 . S
C529 O531 1.282 . S
O530 Cd522 2.277 . S
O530 C523 1.226 . S
O531 Cd522 2.356 . S
O531 C529 1.282 . S
C532 O533 1.306 . S
C532 O535 1.160 . S
O533 C532 1.306 . S
O533 Cd534 2.228 . S
Cd534 O533 2.228 . S
Cd534 O538 2.273 . S
Cd534 O542 2.277 . S
O535 C532 1.160 . S
O535 Cd536 2.203 . S
Cd536 O535 2.203 . S
Cd536 O538 2.411 . S
Cd536 O539 2.333 . S
Cd536 O540 2.352 . S
Cd536 O544 2.277 . S
Cd536 O545 2.356 . S
C537 O542 1.209 . S
C537 O544 1.226 . S
O538 Cd534 2.273 . S
O538 Cd536 2.411 . S
O538 C541 1.320 . S
O539 Cd536 2.333 . S
O539 C541 1.214 . S
O540 Cd536 2.352 . S
O540 C543 1.258 . S
C541 O538 1.320 . S
C541 O539 1.214 . S
O542 Cd534 2.277 . S
O542 C537 1.209 . S
C543 O540 1.258 . S
C543 O545 1.282 . S
O544 Cd536 2.277 . S
O544 C537 1.226 . S
O545 Cd536 2.356 . S
O545 C543 1.282 . S
C546 O547 1.306 . S
C546 O549 1.160 . S
O547 C546 1.306 . S
O547 Cd548 2.228 . S
Cd548 O547 2.228 . S
Cd548 O552 2.273 . S
Cd548 O556 2.277 . S
O549 C546 1.160 . S
O549 Cd550 2.203 . S
Cd550 O549 2.203 . S
Cd550 O552 2.411 . S
Cd550 O553 2.333 . S
Cd550 O554 2.352 . S
Cd550 O558 2.277 . S
Cd550 O559 2.356 . S
C551 O556 1.209 . S
C551 O558 1.226 . S
O552 Cd548 2.273 . S
O552 Cd550 2.411 . S
O552 C555 1.320 . S
O553 Cd550 2.333 . S
O553 C555 1.214 . S
O554 Cd550 2.352 . S
O554 C557 1.258 . S
C555 O552 1.320 . S
C555 O553 1.214 . S
O556 Cd548 2.277 . S
O556 C551 1.209 . S
C557 O554 1.258 . S
C557 O559 1.282 . S
O558 Cd550 2.277 . S
O558 C551 1.226 . S
O559 Cd550 2.356 . S
O559 C557 1.282 . S
C560 O561 1.306 . S
C560 O563 1.160 . S
O561 C560 1.306 . S
O561 Cd562 2.228 . S
Cd562 O561 2.228 . S
Cd562 O566 2.273 . S
Cd562 O570 2.277 . S
O563 C560 1.160 . S
O563 Cd564 2.203 . S
Cd564 O563 2.203 . S
Cd564 O566 2.411 . S
Cd564 O567 2.333 . S
Cd564 O568 2.352 . S
Cd564 O572 2.277 . S
Cd564 O573 2.356 . S
C565 O570 1.209 . S
C565 O572 1.226 . S
O566 Cd562 2.273 . S
O566 Cd564 2.411 . S
O566 C569 1.320 . S
O567 Cd564 2.333 . S
O567 C569 1.214 . S
O568 Cd564 2.352 . S
O568 C571 1.258 . S
C569 O566 1.320 . S
C569 O567 1.214 . S
O570 Cd562 2.277 . S
O570 C565 1.209 . S
C571 O568 1.258 . S
C571 O573 1.282 . S
O572 Cd564 2.277 . S
O572 C565 1.226 . S
O573 Cd564 2.356 . S
O573 C571 1.282 . S
C574 O575 1.306 . S
C574 O577 1.160 . S
O575 C574 1.306 . S
O575 Cd576 2.228 . S
Cd576 O575 2.228 . S
Cd576 O580 2.273 . S
Cd576 O584 2.277 . S
O577 C574 1.160 . S
O577 Cd578 2.203 . S
Cd578 O577 2.203 . S
Cd578 O580 2.411 . S
Cd578 O581 2.333 . S
Cd578 O582 2.352 . S
Cd578 O586 2.277 . S
Cd578 O587 2.356 . S
C579 O584 1.209 . S
C579 O586 1.226 . S
O580 Cd576 2.273 . S
O580 Cd578 2.411 . S
O580 C583 1.320 . S
O581 Cd578 2.333 . S
O581 C583 1.214 . S
O582 Cd578 2.352 . S
O582 C585 1.258 . S
C583 O580 1.320 . S
C583 O581 1.214 . S
O584 Cd576 2.277 . S
O584 C579 1.209 . S
C585 O582 1.258 . S
C585 O587 1.282 . S
O586 Cd578 2.277 . S
O586 C579 1.226 . S
O587 Cd578 2.356 . S
O587 C585 1.282 . S
C588 O589 1.306 . S
C588 O591 1.160 . S
O589 C588 1.306 . S
O589 Cd590 2.228 . S
Cd590 O589 2.228 . S
Cd590 O594 2.273 . S
Cd590 O598 2.277 . S
O591 C588 1.160 . S
O591 Cd592 2.203 . S
Cd592 O591 2.203 . S
Cd592 O594 2.411 . S
Cd592 O595 2.333 . S
Cd592 O596 2.352 . S
Cd592 O600 2.277 . S
Cd592 O601 2.356 . S
C593 O598 1.209 . S
C593 O600 1.226 . S
O594 Cd590 2.273 . S
O594 Cd592 2.411 . S
O594 C597 1.320 . S
O595 Cd592 2.333 . S
O595 C597 1.214 . S
O596 Cd592 2.352 . S
O596 C599 1.258 . S
C597 O594 1.320 . S
C597 O595 1.214 . S
O598 Cd590 2.277 . S
O598 C593 1.209 . S
C599 O596 1.258 . S
C599 O601 1.282 . S
O600 Cd592 2.277 . S
O600 C593 1.226 . S
O601 Cd592 2.356 . S
O601 C599 1.282 . S
C602 O603 1.306 . S
C602 O605 1.160 . S
O603 C602 1.306 . S
O603 Cd604 2.228 . S
Cd604 O603 2.228 . S
Cd604 O608 2.273 . S
Cd604 O612 2.277 . S
O605 C602 1.160 . S
O605 Cd606 2.203 . S
Cd606 O605 2.203 . S
Cd606 O608 2.411 . S
Cd606 O609 2.333 . S
Cd606 O610 2.352 . S
Cd606 O614 2.277 . S
Cd606 O615 2.356 . S
C607 O612 1.209 . S
C607 O614 1.226 . S
O608 Cd604 2.273 . S
O608 Cd606 2.411 . S
O608 C611 1.320 . S
O609 Cd606 2.333 . S
O609 C611 1.214 . S
O610 Cd606 2.352 . S
O610 C613 1.258 . S
C611 O608 1.320 . S
C611 O609 1.214 . S
O612 Cd604 2.277 . S
O612 C607 1.209 . S
C613 O610 1.258 . S
C613 O615 1.282 . S
O614 Cd606 2.277 . S
O614 C607 1.226 . S
O615 Cd606 2.356 . S
O615 C613 1.282 . S
C616 O617 1.306 . S
C616 O619 1.160 . S
O617 C616 1.306 . S
O617 Cd618 2.228 . S
Cd618 O617 2.228 . S
Cd618 O622 2.273 . S
Cd618 O626 2.277 . S
O619 C616 1.160 . S
O619 Cd620 2.203 . S
Cd620 O619 2.203 . S
Cd620 O622 2.411 . S
Cd620 O623 2.333 . S
Cd620 O624 2.352 . S
Cd620 O628 2.277 . S
Cd620 O629 2.356 . S
C621 O626 1.209 . S
C621 O628 1.226 . S
O622 Cd618 2.273 . S
O622 Cd620 2.411 . S
O622 C625 1.320 . S
O623 Cd620 2.333 . S
O623 C625 1.214 . S
O624 Cd620 2.352 . S
O624 C627 1.258 . S
C625 O622 1.320 . S
C625 O623 1.214 . S
O626 Cd618 2.277 . S
O626 C621 1.209 . S
C627 O624 1.258 . S
C627 O629 1.282 . S
O628 Cd620 2.277 . S
O628 C621 1.226 . S
O629 Cd620 2.356 . S
O629 C627 1.282 . S
C630 O631 1.306 . S
C630 O633 1.160 . S
O631 C630 1.306 . S
O631 Cd632 2.228 . S
Cd632 O631 2.228 . S
Cd632 O636 2.273 . S
Cd632 O640 2.277 . S
O633 C630 1.160 . S
O633 Cd634 2.203 . S
Cd634 O633 2.203 . S
Cd634 O636 2.411 . S
Cd634 O637 2.333 . S
Cd634 O638 2.352 . S
Cd634 O642 2.277 . S
Cd634 O643 2.356 . S
C635 O640 1.209 . S
C635 O642 1.226 . S
O636 Cd632 2.273 . S
O636 Cd634 2.411 . S
O636 C639 1.320 . S
O637 Cd634 2.333 . S
O637 C639 1.214 . S
O638 Cd634 2.352 . S
O638 C641 1.258 . S
C639 O636 1.320 . S
C639 O637 1.214 . S
O640 Cd632 2.277 . S
O640 C635 1.209 . S
C641 O638 1.258 . S
C641 O643 1.282 . S
O642 Cd634 2.277 . S
O642 C635 1.226 . S
O643 Cd634 2.356 . S
O643 C641 1.282 . S
C644 O645 1.306 . S
C644 O647 1.160 . S
O645 C644 1.306 . S
O645 Cd646 2.228 . S
Cd646 O645 2.228 . S
Cd646 O650 2.273 . S
Cd646 O654 2.277 . S
O647 C644 1.160 . S
O647 Cd648 2.203 . S
Cd648 O647 2.203 . S
Cd648 O650 2.411 . S
Cd648 O651 2.333 . S
Cd648 O652 2.352 . S
Cd648 O656 2.277 . S
Cd648 O657 2.356 . S
C649 O654 1.209 . S
C649 O656 1.226 . S
O650 Cd646 2.273 . S
O650 Cd648 2.411 . S
O650 C653 1.320 . S
O651 Cd648 2.333 . S
O651 C653 1.214 . S
O652 Cd648 2.352 . S
O652 C655 1.258 . S
C653 O650 1.320 . S
C653 O651 1.214 . S
O654 Cd646 2.277 . S
O654 C649 1.209 . S
C655 O652 1.258 . S
C655 O657 1.282 . S
O656 Cd648 2.277 . S
O656 C649 1.226 . S
O657 Cd648 2.356 . S
O657 C655 1.282 . S
C658 O659 1.306 . S
C658 O661 1.160 . S
O659 C658 1.306 . S
O659 Cd660 2.228 . S
Cd660 O659 2.228 . S
Cd660 O664 2.273 . S
Cd660 O668 2.277 . S
O661 C658 1.160 . S
O661 Cd662 2.203 . S
Cd662 O661 2.203 . S
Cd662 O664 2.411 . S
Cd662 O665 2.333 . S
Cd662 O666 2.352 . S
Cd662 O670 2.277 . S
Cd662 O671 2.356 . S
C663 O668 1.209 . S
C663 O670 1.226 . S
O664 Cd660 2.273 . S
O664 Cd662 2.411 . S
O664 C667 1.320 . S
O665 Cd662 2.333 . S
O665 C667 1.214 . S
O666 Cd662 2.352 . S
O666 C669 1.258 . S
C667 O664 1.320 . S
C667 O665 1.214 . S
O668 Cd660 2.277 . S
O668 C663 1.209 . S
C669 O666 1.258 . S
C669 O671 1.282 . S
O670 Cd662 2.277 . S
O670 C663 1.226 . S
O671 Cd662 2.356 . S
O671 C669 1.282 . S
H672 C680 0.950 . S
H673 C685 0.950 . S
H674 C682 0.950 . S
H675 C684 0.950 . S
H676 C686 0.950 . S
H677 C688 0.950 . S
H678 C690 0.950 . S
H679 C691 0.950 . S
C680 H672 0.950 . S
C680 C681 1.386 . S
C680 C682 1.391 . S
C681 C680 1.386 . S
C681 C685 1.393 . S
C682 H674 0.950 . S
C682 C680 1.391 . S
C682 C683 1.400 . S
C683 C682 1.400 . S
C683 C684 1.398 . S
C683 C689 1.491 . S
C684 H675 0.950 . S
C684 C683 1.398 . S
C684 C685 1.391 . S
C685 H673 0.950 . S
C685 C681 1.393 . S
C685 C684 1.391 . S
C686 H676 0.950 . S
C686 C687 1.386 . S
C686 C688 1.391 . S
C687 C686 1.386 . S
C687 C691 1.393 . S
C688 H677 0.950 . S
C688 C686 1.391 . S
C688 C689 1.400 . S
C689 C683 1.491 . S
C689 C688 1.400 . S
C689 C690 1.398 . S
C690 H678 0.950 . S
C690 C689 1.398 . S
C690 C691 1.391 . S
C691 H679 0.950 . S
C691 C687 1.393 . S
C691 C690 1.391 . S
H692 C700 0.950 . S
H693 C705 0.950 . S
H694 C702 0.950 . S
H695 C704 0.950 . S
H696 C706 0.950 . S
H697 C708 0.950 . S
H698 C710 0.950 . S
H699 C711 0.950 . S
C700 H692 0.950 . S
C700 C701 1.386 . S
C700 C702 1.391 . S
C701 C700 1.386 . S
C701 C705 1.393 . S
C702 H694 0.950 . S
C702 C700 1.391 . S
C702 C703 1.400 . S
C703 C702 1.400 . S
C703 C704 1.398 . S
C703 C709 1.491 . S
C704 H695 0.950 . S
C704 C703 1.398 . S
C704 C705 1.391 . S
C705 H693 0.950 . S
C705 C701 1.393 . S
C705 C704 1.391 . S
C706 H696 0.950 . S
C706 C707 1.386 . S
C706 C708 1.391 . S
C707 C706 1.386 . S
C707 C711 1.393 . S
C708 H697 0.950 . S
C708 C706 1.391 . S
C708 C709 1.400 . S
C709 C703 1.491 . S
C709 C708 1.400 . S
C709 C710 1.398 . S
C710 H698 0.950 . S
C710 C709 1.398 . S
C710 C711 1.391 . S
C711 H699 0.950 . S
C711 C707 1.393 . S
C711 C710 1.391 . S
H712 C720 0.950 . S
H713 C725 0.950 . S
H714 C722 0.950 . S
H715 C724 0.950 . S
H716 C726 0.950 . S
H717 C728 0.950 . S
H718 C730 0.950 . S
H719 C731 0.950 . S
C720 H712 0.950 . S
C720 C721 1.386 . S
C720 C722 1.391 . S
C721 C720 1.386 . S
C721 C725 1.393 . S
C722 H714 0.950 . S
C722 C720 1.391 . S
C722 C723 1.400 . S
C723 C722 1.400 . S
C723 C724 1.398 . S
C723 C729 1.491 . S
C724 H715 0.950 . S
C724 C723 1.398 . S
C724 C725 1.391 . S
C725 H713 0.950 . S
C725 C721 1.393 . S
C725 C724 1.391 . S
C726 H716 0.950 . S
C726 C727 1.386 . S
C726 C728 1.391 . S
C727 C726 1.386 . S
C727 C731 1.393 . S
C728 H717 0.950 . S
C728 C726 1.391 . S
C728 C729 1.400 . S
C729 C723 1.491 . S
C729 C728 1.400 . S
C729 C730 1.398 . S
C730 H718 0.950 . S
C730 C729 1.398 . S
C730 C731 1.391 . S
C731 H719 0.950 . S
C731 C727 1.393 . S
C731 C730 1.391 . S
H732 C740 0.950 . S
H733 C745 0.950 . S
H734 C742 0.950 . S
H735 C744 0.950 . S
H736 C746 0.950 . S
H737 C748 0.950 . S
H738 C750 0.950 . S
H739 C751 0.950 . S
C740 H732 0.950 . S
C740 C741 1.386 . S
C740 C742 1.391 . S
C741 C740 1.386 . S
C741 C745 1.393 . S
C742 H734 0.950 . S
C742 C740 1.391 . S
C742 C743 1.400 . S
C743 C742 1.400 . S
C743 C744 1.398 . S
C743 C749 1.491 . S
C744 H735 0.950 . S
C744 C743 1.398 . S
C744 C745 1.391 . S
C745 H733 0.950 . S
C745 C741 1.393 . S
C745 C744 1.391 . S
C746 H736 0.950 . S
C746 C747 1.386 . S
C746 C748 1.391 . S
C747 C746 1.386 . S
C747 C751 1.393 . S
C748 H737 0.950 . S
C748 C746 1.391 . S
C748 C749 1.400 . S
C749 C743 1.491 . S
C749 C748 1.400 . S
C749 C750 1.398 . S
C750 H738 0.950 . S
C750 C749 1.398 . S
C750 C751 1.391 . S
C751 H739 0.950 . S
C751 C747 1.393 . S
C751 C750 1.391 . S
H752 C760 0.950 . S
H753 C765 0.950 . S
H754 C762 0.950 . S
H755 C764 0.950 . S
H756 C766 0.950 . S
H757 C768 0.950 . S
H758 C770 0.950 . S
H759 C771 0.950 . S
C760 H752 0.950 . S
C760 C761 1.386 . S
C760 C762 1.391 . S
C761 C760 1.386 . S
C761 C765 1.393 . S
C762 H754 0.950 . S
C762 C760 1.391 . S
C762 C763 1.400 . S
C763 C762 1.400 . S
C763 C764 1.398 . S
C763 C769 1.491 . S
C764 H755 0.950 . S
C764 C763 1.398 . S
C764 C765 1.391 . S
C765 H753 0.950 . S
C765 C761 1.393 . S
C765 C764 1.391 . S
C766 H756 0.950 . S
C766 C767 1.386 . S
C766 C768 1.391 . S
C767 C766 1.386 . S
C767 C771 1.393 . S
C768 H757 0.950 . S
C768 C766 1.391 . S
C768 C769 1.400 . S
C769 C763 1.491 . S
C769 C768 1.400 . S
C769 C770 1.398 . S
C770 H758 0.950 . S
C770 C769 1.398 . S
C770 C771 1.391 . S
C771 H759 0.950 . S
C771 C767 1.393 . S
C771 C770 1.391 . S
H772 C780 0.950 . S
H773 C785 0.950 . S
H774 C782 0.950 . S
H775 C784 0.950 . S
H776 C786 0.950 . S
H777 C788 0.950 . S
H778 C790 0.950 . S
H779 C791 0.950 . S
C780 H772 0.950 . S
C780 C781 1.386 . S
C780 C782 1.391 . S
C781 C780 1.386 . S
C781 C785 1.393 . S
C782 H774 0.950 . S
C782 C780 1.391 . S
C782 C783 1.400 . S
C783 C782 1.400 . S
C783 C784 1.398 . S
C783 C789 1.491 . S
C784 H775 0.950 . S
C784 C783 1.398 . S
C784 C785 1.391 . S
C785 H773 0.950 . S
C785 C781 1.393 . S
C785 C784 1.391 . S
C786 H776 0.950 . S
C786 C787 1.386 . S
C786 C788 1.391 . S
C787 C786 1.386 . S
C787 C791 1.393 . S
C788 H777 0.950 . S
C788 C786 1.391 . S
C788 C789 1.400 . S
C789 C783 1.491 . S
C789 C788 1.400 . S
C789 C790 1.398 . S
C790 H778 0.950 . S
C790 C789 1.398 . S
C790 C791 1.391 . S
C791 H779 0.950 . S
C791 C787 1.393 . S
C791 C790 1.391 . S
H792 C800 0.950 . S
H793 C805 0.950 . S
H794 C802 0.950 . S
H795 C804 0.950 . S
H796 C806 0.950 . S
H797 C808 0.950 . S
H798 C810 0.950 . S
H799 C811 0.950 . S
C800 H792 0.950 . S
C800 C801 1.386 . S
C800 C802 1.391 . S
C801 C800 1.386 . S
C801 C805 1.393 . S
C802 H794 0.950 . S
C802 C800 1.391 . S
C802 C803 1.400 . S
C803 C802 1.400 . S
C803 C804 1.398 . S
C803 C809 1.491 . S
C804 H795 0.950 . S
C804 C803 1.398 . S
C804 C805 1.391 . S
C805 H793 0.950 . S
C805 C801 1.393 . S
C805 C804 1.391 . S
C806 H796 0.950 . S
C806 C807 1.386 . S
C806 C808 1.391 . S
C807 C806 1.386 . S
C807 C811 1.393 . S
C808 H797 0.950 . S
C808 C806 1.391 . S
C808 C809 1.400 . S
C809 C803 1.491 . S
C809 C808 1.400 . S
C809 C810 1.398 . S
C810 H798 0.950 . S
C810 C809 1.398 . S
C810 C811 1.391 . S
C811 H799 0.950 . S
C811 C807 1.393 . S
C811 C810 1.391 . S
H812 C820 0.950 . S
H813 C825 0.950 . S
H814 C822 0.950 . S
H815 C824 0.950 . S
H816 C826 0.950 . S
H817 C828 0.950 . S
H818 C830 0.950 . S
H819 C831 0.950 . S
C820 H812 0.950 . S
C820 C821 1.386 . S
C820 C822 1.391 . S
C821 C820 1.386 . S
C821 C825 1.393 . S
C822 H814 0.950 . S
C822 C820 1.391 . S
C822 C823 1.400 . S
C823 C822 1.400 . S
C823 C824 1.398 . S
C823 C829 1.491 . S
C824 H815 0.950 . S
C824 C823 1.398 . S
C824 C825 1.391 . S
C825 H813 0.950 . S
C825 C821 1.393 . S
C825 C824 1.391 . S
C826 H816 0.950 . S
C826 C827 1.386 . S
C826 C828 1.391 . S
C827 C826 1.386 . S
C827 C831 1.393 . S
C828 H817 0.950 . S
C828 C826 1.391 . S
C828 C829 1.400 . S
C829 C823 1.491 . S
C829 C828 1.400 . S
C829 C830 1.398 . S
C830 H818 0.950 . S
C830 C829 1.398 . S
C830 C831 1.391 . S
C831 H819 0.950 . S
C831 C827 1.393 . S
C831 C830 1.391 . S
H832 C840 0.950 . S
H833 C845 0.950 . S
H834 C842 0.950 . S
H835 C844 0.950 . S
H836 C846 0.950 . S
H837 C848 0.950 . S
H838 C850 0.950 . S
H839 C851 0.950 . S
C840 H832 0.950 . S
C840 C841 1.386 . S
C840 C842 1.391 . S
C841 C840 1.386 . S
C841 C845 1.393 . S
C842 H834 0.950 . S
C842 C840 1.391 . S
C842 C843 1.400 . S
C843 C842 1.400 . S
C843 C844 1.398 . S
C843 C849 1.491 . S
C844 H835 0.950 . S
C844 C843 1.398 . S
C844 C845 1.391 . S
C845 H833 0.950 . S
C845 C841 1.393 . S
C845 C844 1.391 . S
C846 H836 0.950 . S
C846 C847 1.386 . S
C846 C848 1.391 . S
C847 C846 1.386 . S
C847 C851 1.393 . S
C848 H837 0.950 . S
C848 C846 1.391 . S
C848 C849 1.400 . S
C849 C843 1.491 . S
C849 C848 1.400 . S
C849 C850 1.398 . S
C850 H838 0.950 . S
C850 C849 1.398 . S
C850 C851 1.391 . S
C851 H839 0.950 . S
C851 C847 1.393 . S
C851 C850 1.391 . S
H852 C860 0.950 . S
H853 C865 0.950 . S
H854 C862 0.950 . S
H855 C864 0.950 . S
H856 C866 0.950 . S
H857 C868 0.950 . S
H858 C870 0.950 . S
H859 C871 0.950 . S
C860 H852 0.950 . S
C860 C861 1.386 . S
C860 C862 1.391 . S
C861 C860 1.386 . S
C861 C865 1.393 . S
C862 H854 0.950 . S
C862 C860 1.391 . S
C862 C863 1.400 . S
C863 C862 1.400 . S
C863 C864 1.398 . S
C863 C869 1.491 . S
C864 H855 0.950 . S
C864 C863 1.398 . S
C864 C865 1.391 . S
C865 H853 0.950 . S
C865 C861 1.393 . S
C865 C864 1.391 . S
C866 H856 0.950 . S
C866 C867 1.386 . S
C866 C868 1.391 . S
C867 C866 1.386 . S
C867 C871 1.393 . S
C868 H857 0.950 . S
C868 C866 1.391 . S
C868 C869 1.400 . S
C869 C863 1.491 . S
C869 C868 1.400 . S
C869 C870 1.398 . S
C870 H858 0.950 . S
C870 C869 1.398 . S
C870 C871 1.391 . S
C871 H859 0.950 . S
C871 C867 1.393 . S
C871 C870 1.391 . S
H872 C880 0.950 . S
H873 C885 0.950 . S
H874 C882 0.950 . S
H875 C884 0.950 . S
H876 C886 0.950 . S
H877 C888 0.950 . S
H878 C890 0.950 . S
H879 C891 0.950 . S
C880 H872 0.950 . S
C880 C881 1.386 . S
C880 C882 1.391 . S
C881 C880 1.386 . S
C881 C885 1.393 . S
C882 H874 0.950 . S
C882 C880 1.391 . S
C882 C883 1.400 . S
C883 C882 1.400 . S
C883 C884 1.398 . S
C883 C889 1.491 . S
C884 H875 0.950 . S
C884 C883 1.398 . S
C884 C885 1.391 . S
C885 H873 0.950 . S
C885 C881 1.393 . S
C885 C884 1.391 . S
C886 H876 0.950 . S
C886 C887 1.386 . S
C886 C888 1.391 . S
C887 C886 1.386 . S
C887 C891 1.393 . S
C888 H877 0.950 . S
C888 C886 1.391 . S
C888 C889 1.400 . S
C889 C883 1.491 . S
C889 C888 1.400 . S
C889 C890 1.398 . S
C890 H878 0.950 . S
C890 C889 1.398 . S
C890 C891 1.391 . S
C891 H879 0.950 . S
C891 C887 1.393 . S
C891 C890 1.391 . S
H892 C900 0.950 . S
H893 C905 0.950 . S
H894 C902 0.950 . S
H895 C904 0.950 . S
H896 C906 0.950 . S
H897 C908 0.950 . S
H898 C910 0.950 . S
H899 C911 0.950 . S
C900 H892 0.950 . S
C900 C901 1.386 . S
C900 C902 1.391 . S
C901 C900 1.386 . S
C901 C905 1.393 . S
C902 H894 0.950 . S
C902 C900 1.391 . S
C902 C903 1.400 . S
C903 C902 1.400 . S
C903 C904 1.398 . S
C903 C909 1.491 . S
C904 H895 0.950 . S
C904 C903 1.398 . S
C904 C905 1.391 . S
C905 H893 0.950 . S
C905 C901 1.393 . S
C905 C904 1.391 . S
C906 H896 0.950 . S
C906 C907 1.386 . S
C906 C908 1.391 . S
C907 C906 1.386 . S
C907 C911 1.393 . S
C908 H897 0.950 . S
C908 C906 1.391 . S
C908 C909 1.400 . S
C909 C903 1.491 . S
C909 C908 1.400 . S
C909 C910 1.398 . S
C910 H898 0.950 . S
C910 C909 1.398 . S
C910 C911 1.391 . S
C911 H899 0.950 . S
C911 C907 1.393 . S
C911 C910 1.391 . S
H912 C920 0.950 . S
H913 C925 0.950 . S
H914 C922 0.950 . S
H915 C924 0.950 . S
H916 C926 0.950 . S
H917 C928 0.950 . S
H918 C930 0.950 . S
H919 C931 0.950 . S
C920 H912 0.950 . S
C920 C921 1.386 . S
C920 C922 1.391 . S
C921 C920 1.386 . S
C921 C925 1.393 . S
C922 H914 0.950 . S
C922 C920 1.391 . S
C922 C923 1.400 . S
C923 C922 1.400 . S
C923 C924 1.398 . S
C923 C929 1.491 . S
C924 H915 0.950 . S
C924 C923 1.398 . S
C924 C925 1.391 . S
C925 H913 0.950 . S
C925 C921 1.393 . S
C925 C924 1.391 . S
C926 H916 0.950 . S
C926 C927 1.386 . S
C926 C928 1.391 . S
C927 C926 1.386 . S
C927 C931 1.393 . S
C928 H917 0.950 . S
C928 C926 1.391 . S
C928 C929 1.400 . S
C929 C923 1.491 . S
C929 C928 1.400 . S
C929 C930 1.398 . S
C930 H918 0.950 . S
C930 C929 1.398 . S
C930 C931 1.391 . S
C931 H919 0.950 . S
C931 C927 1.393 . S
C931 C930 1.391 . S
H932 C940 0.950 . S
H933 C945 0.950 . S
H934 C942 0.950 . S
H935 C944 0.950 . S
H936 C946 0.950 . S
H937 C948 0.950 . S
H938 C950 0.950 . S
H939 C951 0.950 . S
C940 H932 0.950 . S
C940 C941 1.386 . S
C940 C942 1.391 . S
C941 C940 1.386 . S
C941 C945 1.393 . S
C942 H934 0.950 . S
C942 C940 1.391 . S
C942 C943 1.400 . S
C943 C942 1.400 . S
C943 C944 1.398 . S
C943 C949 1.491 . S
C944 H935 0.950 . S
C944 C943 1.398 . S
C944 C945 1.391 . S
C945 H933 0.950 . S
C945 C941 1.393 . S
C945 C944 1.391 . S
C946 H936 0.950 . S
C946 C947 1.386 . S
C946 C948 1.391 . S
C947 C946 1.386 . S
C947 C951 1.393 . S
C948 H937 0.950 . S
C948 C946 1.391 . S
C948 C949 1.400 . S
C949 C943 1.491 . S
C949 C948 1.400 . S
C949 C950 1.398 . S
C950 H938 0.950 . S
C950 C949 1.398 . S
C950 C951 1.391 . S
C951 H939 0.950 . S
C951 C947 1.393 . S
C951 C950 1.391 . S
H952 C960 0.950 . S
H953 C965 0.950 . S
H954 C962 0.950 . S
H955 C964 0.950 . S
H956 C966 0.950 . S
H957 C968 0.950 . S
H958 C970 0.950 . S
H959 C971 0.950 . S
C960 H952 0.950 . S
C960 C961 1.386 . S
C960 C962 1.391 . S
C961 C960 1.386 . S
C961 C965 1.393 . S
C962 H954 0.950 . S
C962 C960 1.391 . S
C962 C963 1.400 . S
C963 C962 1.400 . S
C963 C964 1.398 . S
C963 C969 1.491 . S
C964 H955 0.950 . S
C964 C963 1.398 . S
C964 C965 1.391 . S
C965 H953 0.950 . S
C965 C961 1.393 . S
C965 C964 1.391 . S
C966 H956 0.950 . S
C966 C967 1.386 . S
C966 C968 1.391 . S
C967 C966 1.386 . S
C967 C971 1.393 . S
C968 H957 0.950 . S
C968 C966 1.391 . S
C968 C969 1.400 . S
C969 C963 1.491 . S
C969 C968 1.400 . S
C969 C970 1.398 . S
C970 H958 0.950 . S
C970 C969 1.398 . S
C970 C971 1.391 . S
C971 H959 0.950 . S
C971 C967 1.393 . S
C971 C970 1.391 . S
H972 C980 0.950 . S
H973 C985 0.950 . S
H974 C982 0.950 . S
H975 C984 0.950 . S
H976 C986 0.950 . S
H977 C988 0.950 . S
H978 C990 0.950 . S
H979 C991 0.950 . S
C980 H972 0.950 . S
C980 C981 1.386 . S
C980 C982 1.391 . S
C981 C980 1.386 . S
C981 C985 1.393 . S
C982 H974 0.950 . S
C982 C980 1.391 . S
C982 C983 1.400 . S
C983 C982 1.400 . S
C983 C984 1.398 . S
C983 C989 1.491 . S
C984 H975 0.950 . S
C984 C983 1.398 . S
C984 C985 1.391 . S
C985 H973 0.950 . S
C985 C981 1.393 . S
C985 C984 1.391 . S
C986 H976 0.950 . S
C986 C987 1.386 . S
C986 C988 1.391 . S
C987 C986 1.386 . S
C987 C991 1.393 . S
C988 H977 0.950 . S
C988 C986 1.391 . S
C988 C989 1.400 . S
C989 C983 1.491 . S
C989 C988 1.400 . S
C989 C990 1.398 . S
C990 H978 0.950 . S
C990 C989 1.398 . S
C990 C991 1.391 . S
C991 H979 0.950 . S
C991 C987 1.393 . S
C991 C990 1.391 . S
H992 C1000 0.950 . S
H993 C1005 0.950 . S
H994 C1002 0.950 . S
H995 C1004 0.950 . S
H996 C1006 0.950 . S
H997 C1008 0.950 . S
H998 C1010 0.950 . S
H999 C1011 0.950 . S
C1000 H992 0.950 . S
C1000 C1001 1.386 . S
C1000 C1002 1.391 . S
C1001 C1000 1.386 . S
C1001 C1005 1.393 . S
C1002 H994 0.950 . S
C1002 C1000 1.391 . S
C1002 C1003 1.400 . S
C1003 C1002 1.400 . S
C1003 C1004 1.398 . S
C1003 C1009 1.491 . S
C1004 H995 0.950 . S
C1004 C1003 1.398 . S
C1004 C1005 1.391 . S
C1005 H993 0.950 . S
C1005 C1001 1.393 . S
C1005 C1004 1.391 . S
C1006 H996 0.950 . S
C1006 C1007 1.386 . S
C1006 C1008 1.391 . S
C1007 C1006 1.386 . S
C1007 C1011 1.393 . S
C1008 H997 0.950 . S
C1008 C1006 1.391 . S
C1008 C1009 1.400 . S
C1009 C1003 1.491 . S
C1009 C1008 1.400 . S
C1009 C1010 1.398 . S
C1010 H998 0.950 . S
C1010 C1009 1.398 . S
C1010 C1011 1.391 . S
C1011 H999 0.950 . S
C1011 C1007 1.393 . S
C1011 C1010 1.391 . S
H1012 C1020 0.950 . S
H1013 C1025 0.950 . S
H1014 C1022 0.950 . S
H1015 C1024 0.950 . S
H1016 C1026 0.950 . S
H1017 C1028 0.950 . S
H1018 C1030 0.950 . S
H1019 C1031 0.950 . S
C1020 H1012 0.950 . S
C1020 C1021 1.386 . S
C1020 C1022 1.391 . S
C1021 C1020 1.386 . S
C1021 C1025 1.393 . S
C1022 H1014 0.950 . S
C1022 C1020 1.391 . S
C1022 C1023 1.400 . S
C1023 C1022 1.400 . S
C1023 C1024 1.398 . S
C1023 C1029 1.491 . S
C1024 H1015 0.950 . S
C1024 C1023 1.398 . S
C1024 C1025 1.391 . S
C1025 H1013 0.950 . S
C1025 C1021 1.393 . S
C1025 C1024 1.391 . S
C1026 H1016 0.950 . S
C1026 C1027 1.386 . S
C1026 C1028 1.391 . S
C1027 C1026 1.386 . S
C1027 C1031 1.393 . S
C1028 H1017 0.950 . S
C1028 C1026 1.391 . S
C1028 C1029 1.400 . S
C1029 C1023 1.491 . S
C1029 C1028 1.400 . S
C1029 C1030 1.398 . S
C1030 H1018 0.950 . S
C1030 C1029 1.398 . S
C1030 C1031 1.391 . S
C1031 H1019 0.950 . S
C1031 C1027 1.393 . S
C1031 C1030 1.391 . S
H1032 C1040 0.950 . S
H1033 C1045 0.950 . S
H1034 C1042 0.950 . S
H1035 C1044 0.950 . S
H1036 C1046 0.950 . S
H1037 C1048 0.950 . S
H1038 C1050 0.950 . S
H1039 C1051 0.950 . S
C1040 H1032 0.950 . S
C1040 C1041 1.386 . S
C1040 C1042 1.391 . S
C1041 C1040 1.386 . S
C1041 C1045 1.393 . S
C1042 H1034 0.950 . S
C1042 C1040 1.391 . S
C1042 C1043 1.400 . S
C1043 C1042 1.400 . S
C1043 C1044 1.398 . S
C1043 C1049 1.491 . S
C1044 H1035 0.950 . S
C1044 C1043 1.398 . S
C1044 C1045 1.391 . S
C1045 H1033 0.950 . S
C1045 C1041 1.393 . S
C1045 C1044 1.391 . S
C1046 H1036 0.950 . S
C1046 C1047 1.386 . S
C1046 C1048 1.391 . S
C1047 C1046 1.386 . S
C1047 C1051 1.393 . S
C1048 H1037 0.950 . S
C1048 C1046 1.391 . S
C1048 C1049 1.400 . S
C1049 C1043 1.491 . S
C1049 C1048 1.400 . S
C1049 C1050 1.398 . S
C1050 H1038 0.950 . S
C1050 C1049 1.398 . S
C1050 C1051 1.391 . S
C1051 H1039 0.950 . S
C1051 C1047 1.393 . S
C1051 C1050 1.391 . S
H1052 C1060 0.950 . S
H1053 C1065 0.950 . S
H1054 C1062 0.950 . S
H1055 C1064 0.950 . S
H1056 C1066 0.950 . S
H1057 C1068 0.950 . S
H1058 C1070 0.950 . S
H1059 C1071 0.950 . S
C1060 H1052 0.950 . S
C1060 C1061 1.386 . S
C1060 C1062 1.391 . S
C1061 C1060 1.386 . S
C1061 C1065 1.393 . S
C1062 H1054 0.950 . S
C1062 C1060 1.391 . S
C1062 C1063 1.400 . S
C1063 C1062 1.400 . S
C1063 C1064 1.398 . S
C1063 C1069 1.491 . S
C1064 H1055 0.950 . S
C1064 C1063 1.398 . S
C1064 C1065 1.391 . S
C1065 H1053 0.950 . S
C1065 C1061 1.393 . S
C1065 C1064 1.391 . S
C1066 H1056 0.950 . S
C1066 C1067 1.386 . S
C1066 C1068 1.391 . S
C1067 C1066 1.386 . S
C1067 C1071 1.393 . S
C1068 H1057 0.950 . S
C1068 C1066 1.391 . S
C1068 C1069 1.400 . S
C1069 C1063 1.491 . S
C1069 C1068 1.400 . S
C1069 C1070 1.398 . S
C1070 H1058 0.950 . S
C1070 C1069 1.398 . S
C1070 C1071 1.391 . S
C1071 H1059 0.950 . S
C1071 C1067 1.393 . S
C1071 C1070 1.391 . S
H1072 C1080 0.950 . S
H1073 C1085 0.950 . S
H1074 C1082 0.950 . S
H1075 C1084 0.950 . S
H1076 C1086 0.950 . S
H1077 C1088 0.950 . S
H1078 C1090 0.950 . S
H1079 C1091 0.950 . S
C1080 H1072 0.950 . S
C1080 C1081 1.386 . S
C1080 C1082 1.391 . S
C1081 C1080 1.386 . S
C1081 C1085 1.393 . S
C1082 H1074 0.950 . S
C1082 C1080 1.391 . S
C1082 C1083 1.400 . S
C1083 C1082 1.400 . S
C1083 C1084 1.398 . S
C1083 C1089 1.491 . S
C1084 H1075 0.950 . S
C1084 C1083 1.398 . S
C1084 C1085 1.391 . S
C1085 H1073 0.950 . S
C1085 C1081 1.393 . S
C1085 C1084 1.391 . S
C1086 H1076 0.950 . S
C1086 C1087 1.386 . S
C1086 C1088 1.391 . S
C1087 C1086 1.386 . S
C1087 C1091 1.393 . S
C1088 H1077 0.950 . S
C1088 C1086 1.391 . S
C1088 C1089 1.400 . S
C1089 C1083 1.491 . S
C1089 C1088 1.400 . S
C1089 C1090 1.398 . S
C1090 H1078 0.950 . S
C1090 C1089 1.398 . S
C1090 C1091 1.391 . S
C1091 H1079 0.950 . S
C1091 C1087 1.393 . S
C1091 C1090 1.391 . S
H1092 C1100 0.950 . S
H1093 C1105 0.950 . S
H1094 C1102 0.950 . S
H1095 C1104 0.950 . S
H1096 C1106 0.950 . S
H1097 C1108 0.950 . S
H1098 C1110 0.950 . S
H1099 C1111 0.950 . S
C1100 H1092 0.950 . S
C1100 C1101 1.386 . S
C1100 C1102 1.391 . S
C1101 C1100 1.386 . S
C1101 C1105 1.393 . S
C1102 H1094 0.950 . S
C1102 C1100 1.391 . S
C1102 C1103 1.400 . S
C1103 C1102 1.400 . S
C1103 C1104 1.398 . S
C1103 C1109 1.491 . S
C1104 H1095 0.950 . S
C1104 C1103 1.398 . S
C1104 C1105 1.391 . S
C1105 H1093 0.950 . S
C1105 C1101 1.393 . S
C1105 C1104 1.391 . S
C1106 H1096 0.950 . S
C1106 C1107 1.386 . S
C1106 C1108 1.391 . S
C1107 C1106 1.386 . S
C1107 C1111 1.393 . S
C1108 H1097 0.950 . S
C1108 C1106 1.391 . S
C1108 C1109 1.400 . S
C1109 C1103 1.491 . S
C1109 C1108 1.400 . S
C1109 C1110 1.398 . S
C1110 H1098 0.950 . S
C1110 C1109 1.398 . S
C1110 C1111 1.391 . S
C1111 H1099 0.950 . S
C1111 C1107 1.393 . S
C1111 C1110 1.391 . S
H1112 C1120 0.950 . S
H1113 C1125 0.950 . S
H1114 C1122 0.950 . S
H1115 C1124 0.950 . S
H1116 C1126 0.950 . S
H1117 C1128 0.950 . S
H1118 C1130 0.950 . S
H1119 C1131 0.950 . S
C1120 H1112 0.950 . S
C1120 C1121 1.386 . S
C1120 C1122 1.391 . S
C1121 C1120 1.386 . S
C1121 C1125 1.393 . S
C1122 H1114 0.950 . S
C1122 C1120 1.391 . S
C1122 C1123 1.400 . S
C1123 C1122 1.400 . S
C1123 C1124 1.398 . S
C1123 C1129 1.491 . S
C1124 H1115 0.950 . S
C1124 C1123 1.398 . S
C1124 C1125 1.391 . S
C1125 H1113 0.950 . S
C1125 C1121 1.393 . S
C1125 C1124 1.391 . S
C1126 H1116 0.950 . S
C1126 C1127 1.386 . S
C1126 C1128 1.391 . S
C1127 C1126 1.386 . S
C1127 C1131 1.393 . S
C1128 H1117 0.950 . S
C1128 C1126 1.391 . S
C1128 C1129 1.400 . S
C1129 C1123 1.491 . S
C1129 C1128 1.400 . S
C1129 C1130 1.398 . S
C1130 H1118 0.950 . S
C1130 C1129 1.398 . S
C1130 C1131 1.391 . S
C1131 H1119 0.950 . S
C1131 C1127 1.393 . S
C1131 C1130 1.391 . S
H1132 C1140 0.950 . S
H1133 C1145 0.950 . S
H1134 C1142 0.950 . S
H1135 C1144 0.950 . S
H1136 C1146 0.950 . S
H1137 C1148 0.950 . S
H1138 C1150 0.950 . S
H1139 C1151 0.950 . S
C1140 H1132 0.950 . S
C1140 C1141 1.386 . S
C1140 C1142 1.391 . S
C1141 C1140 1.386 . S
C1141 C1145 1.393 . S
C1142 H1134 0.950 . S
C1142 C1140 1.391 . S
C1142 C1143 1.400 . S
C1143 C1142 1.400 . S
C1143 C1144 1.398 . S
C1143 C1149 1.491 . S
C1144 H1135 0.950 . S
C1144 C1143 1.398 . S
C1144 C1145 1.391 . S
C1145 H1133 0.950 . S
C1145 C1141 1.393 . S
C1145 C1144 1.391 . S
C1146 H1136 0.950 . S
C1146 C1147 1.386 . S
C1146 C1148 1.391 . S
C1147 C1146 1.386 . S
C1147 C1151 1.393 . S
C1148 H1137 0.950 . S
C1148 C1146 1.391 . S
C1148 C1149 1.400 . S
C1149 C1143 1.491 . S
C1149 C1148 1.400 . S
C1149 C1150 1.398 . S
C1150 H1138 0.950 . S
C1150 C1149 1.398 . S
C1150 C1151 1.391 . S
C1151 H1139 0.950 . S
C1151 C1147 1.393 . S
C1151 C1150 1.391 . S
H1152 C1160 0.950 . S
H1153 C1165 0.950 . S
H1154 C1162 0.950 . S
H1155 C1164 0.950 . S
H1156 C1166 0.950 . S
H1157 C1168 0.950 . S
H1158 C1170 0.950 . S
H1159 C1171 0.950 . S
C1160 H1152 0.950 . S
C1160 C1161 1.386 . S
C1160 C1162 1.391 . S
C1161 C1160 1.386 . S
C1161 C1165 1.393 . S
C1162 H1154 0.950 . S
C1162 C1160 1.391 . S
C1162 C1163 1.400 . S
C1163 C1162 1.400 . S
C1163 C1164 1.398 . S
C1163 C1169 1.491 . S
C1164 H1155 0.950 . S
C1164 C1163 1.398 . S
C1164 C1165 1.391 . S
C1165 H1153 0.950 . S
C1165 C1161 1.393 . S
C1165 C1164 1.391 . S
C1166 H1156 0.950 . S
C1166 C1167 1.386 . S
C1166 C1168 1.391 . S
C1167 C1166 1.386 . S
C1167 C1171 1.393 . S
C1168 H1157 0.950 . S
C1168 C1166 1.391 . S
C1168 C1169 1.400 . S
C1169 C1163 1.491 . S
C1169 C1168 1.400 . S
C1169 C1170 1.398 . S
C1170 H1158 0.950 . S
C1170 C1169 1.398 . S
C1170 C1171 1.391 . S
C1171 H1159 0.950 . S
C1171 C1167 1.393 . S
C1171 C1170 1.391 . S
H1172 C1180 0.950 . S
H1173 C1185 0.950 . S
H1174 C1182 0.950 . S
H1175 C1184 0.950 . S
H1176 C1186 0.950 . S
H1177 C1188 0.950 . S
H1178 C1190 0.950 . S
H1179 C1191 0.950 . S
C1180 H1172 0.950 . S
C1180 C1181 1.386 . S
C1180 C1182 1.391 . S
C1181 C1180 1.386 . S
C1181 C1185 1.393 . S
C1182 H1174 0.950 . S
C1182 C1180 1.391 . S
C1182 C1183 1.400 . S
C1183 C1182 1.400 . S
C1183 C1184 1.398 . S
C1183 C1189 1.491 . S
C1184 H1175 0.950 . S
C1184 C1183 1.398 . S
C1184 C1185 1.391 . S
C1185 H1173 0.950 . S
C1185 C1181 1.393 . S
C1185 C1184 1.391 . S
C1186 H1176 0.950 . S
C1186 C1187 1.386 . S
C1186 C1188 1.391 . S
C1187 C1186 1.386 . S
C1187 C1191 1.393 . S
C1188 H1177 0.950 . S
C1188 C1186 1.391 . S
C1188 C1189 1.400 . S
C1189 C1183 1.491 . S
C1189 C1188 1.400 . S
C1189 C1190 1.398 . S
C1190 H1178 0.950 . S
C1190 C1189 1.398 . S
C1190 C1191 1.391 . S
C1191 H1179 0.950 . S
C1191 C1187 1.393 . S
C1191 C1190 1.391 . S
H1192 C1200 0.950 . S
H1193 C1205 0.950 . S
H1194 C1202 0.950 . S
H1195 C1204 0.950 . S
H1196 C1206 0.950 . S
H1197 C1208 0.950 . S
H1198 C1210 0.950 . S
H1199 C1211 0.950 . S
C1200 H1192 0.950 . S
C1200 C1201 1.386 . S
C1200 C1202 1.391 . S
C1201 C1200 1.386 . S
C1201 C1205 1.393 . S
C1202 H1194 0.950 . S
C1202 C1200 1.391 . S
C1202 C1203 1.400 . S
C1203 C1202 1.400 . S
C1203 C1204 1.398 . S
C1203 C1209 1.491 . S
C1204 H1195 0.950 . S
C1204 C1203 1.398 . S
C1204 C1205 1.391 . S
C1205 H1193 0.950 . S
C1205 C1201 1.393 . S
C1205 C1204 1.391 . S
C1206 H1196 0.950 . S
C1206 C1207 1.386 . S
C1206 C1208 1.391 . S
C1207 C1206 1.386 . S
C1207 C1211 1.393 . S
C1208 H1197 0.950 . S
C1208 C1206 1.391 . S
C1208 C1209 1.400 . S
C1209 C1203 1.491 . S
C1209 C1208 1.400 . S
C1209 C1210 1.398 . S
C1210 H1198 0.950 . S
C1210 C1209 1.398 . S
C1210 C1211 1.391 . S
C1211 H1199 0.950 . S
C1211 C1207 1.393 . S
C1211 C1210 1.391 . S
H1212 C1220 0.950 . S
H1213 C1225 0.950 . S
H1214 C1222 0.950 . S
H1215 C1224 0.950 . S
H1216 C1226 0.950 . S
H1217 C1228 0.950 . S
H1218 C1230 0.950 . S
H1219 C1231 0.950 . S
C1220 H1212 0.950 . S
C1220 C1221 1.386 . S
C1220 C1222 1.391 . S
C1221 C1220 1.386 . S
C1221 C1225 1.393 . S
C1222 H1214 0.950 . S
C1222 C1220 1.391 . S
C1222 C1223 1.400 . S
C1223 C1222 1.400 . S
C1223 C1224 1.398 . S
C1223 C1229 1.491 . S
C1224 H1215 0.950 . S
C1224 C1223 1.398 . S
C1224 C1225 1.391 . S
C1225 H1213 0.950 . S
C1225 C1221 1.393 . S
C1225 C1224 1.391 . S
C1226 H1216 0.950 . S
C1226 C1227 1.386 . S
C1226 C1228 1.391 . S
C1227 C1226 1.386 . S
C1227 C1231 1.393 . S
C1228 H1217 0.950 . S
C1228 C1226 1.391 . S
C1228 C1229 1.400 . S
C1229 C1223 1.491 . S
C1229 C1228 1.400 . S
C1229 C1230 1.398 . S
C1230 H1218 0.950 . S
C1230 C1229 1.398 . S
C1230 C1231 1.391 . S
C1231 H1219 0.950 . S
C1231 C1227 1.393 . S
C1231 C1230 1.391 . S
H1232 C1240 0.950 . S
H1233 C1245 0.950 . S
H1234 C1242 0.950 . S
H1235 C1244 0.950 . S
H1236 C1246 0.950 . S
H1237 C1248 0.950 . S
H1238 C1250 0.950 . S
H1239 C1251 0.950 . S
C1240 H1232 0.950 . S
C1240 C1241 1.386 . S
C1240 C1242 1.391 . S
C1241 C1240 1.386 . S
C1241 C1245 1.393 . S
C1242 H1234 0.950 . S
C1242 C1240 1.391 . S
C1242 C1243 1.400 . S
C1243 C1242 1.400 . S
C1243 C1244 1.398 . S
C1243 C1249 1.491 . S
C1244 H1235 0.950 . S
C1244 C1243 1.398 . S
C1244 C1245 1.391 . S
C1245 H1233 0.950 . S
C1245 C1241 1.393 . S
C1245 C1244 1.391 . S
C1246 H1236 0.950 . S
C1246 C1247 1.386 . S
C1246 C1248 1.391 . S
C1247 C1246 1.386 . S
C1247 C1251 1.393 . S
C1248 H1237 0.950 . S
C1248 C1246 1.391 . S
C1248 C1249 1.400 . S
C1249 C1243 1.491 . S
C1249 C1248 1.400 . S
C1249 C1250 1.398 . S
C1250 H1238 0.950 . S
C1250 C1249 1.398 . S
C1250 C1251 1.391 . S
C1251 H1239 0.950 . S
C1251 C1247 1.393 . S
C1251 C1250 1.391 . S
H1252 C1260 0.950 . S
H1253 C1265 0.950 . S
H1254 C1262 0.950 . S
H1255 C1264 0.950 . S
H1256 C1266 0.950 . S
H1257 C1268 0.950 . S
H1258 C1270 0.950 . S
H1259 C1271 0.950 . S
C1260 H1252 0.950 . S
C1260 C1261 1.386 . S
C1260 C1262 1.391 . S
C1261 C1260 1.386 . S
C1261 C1265 1.393 . S
C1262 H1254 0.950 . S
C1262 C1260 1.391 . S
C1262 C1263 1.400 . S
C1263 C1262 1.400 . S
C1263 C1264 1.398 . S
C1263 C1269 1.491 . S
C1264 H1255 0.950 . S
C1264 C1263 1.398 . S
C1264 C1265 1.391 . S
C1265 H1253 0.950 . S
C1265 C1261 1.393 . S
C1265 C1264 1.391 . S
C1266 H1256 0.950 . S
C1266 C1267 1.386 . S
C1266 C1268 1.391 . S
C1267 C1266 1.386 . S
C1267 C1271 1.393 . S
C1268 H1257 0.950 . S
C1268 C1266 1.391 . S
C1268 C1269 1.400 . S
C1269 C1263 1.491 . S
C1269 C1268 1.400 . S
C1269 C1270 1.398 . S
C1270 H1258 0.950 . S
C1270 C1269 1.398 . S
C1270 C1271 1.391 . S
C1271 H1259 0.950 . S
C1271 C1267 1.393 . S
C1271 C1270 1.391 . S
H1272 C1280 0.950 . S
H1273 C1285 0.950 . S
H1274 C1282 0.950 . S
H1275 C1284 0.950 . S
H1276 C1286 0.950 . S
H1277 C1288 0.950 . S
H1278 C1290 0.950 . S
H1279 C1291 0.950 . S
C1280 H1272 0.950 . S
C1280 C1281 1.386 . S
C1280 C1282 1.391 . S
C1281 C1280 1.386 . S
C1281 C1285 1.393 . S
C1282 H1274 0.950 . S
C1282 C1280 1.391 . S
C1282 C1283 1.400 . S
C1283 C1282 1.400 . S
C1283 C1284 1.398 . S
C1283 C1289 1.491 . S
C1284 H1275 0.950 . S
C1284 C1283 1.398 . S
C1284 C1285 1.391 . S
C1285 H1273 0.950 . S
C1285 C1281 1.393 . S
C1285 C1284 1.391 . S
C1286 H1276 0.950 . S
C1286 C1287 1.386 . S
C1286 C1288 1.391 . S
C1287 C1286 1.386 . S
C1287 C1291 1.393 . S
C1288 H1277 0.950 . S
C1288 C1286 1.391 . S
C1288 C1289 1.400 . S
C1289 C1283 1.491 . S
C1289 C1288 1.400 . S
C1289 C1290 1.398 . S
C1290 H1278 0.950 . S
C1290 C1289 1.398 . S
C1290 C1291 1.391 . S
C1291 H1279 0.950 . S
C1291 C1287 1.393 . S
C1291 C1290 1.391 . S
H1292 C1300 0.950 . S
H1293 C1305 0.950 . S
H1294 C1302 0.950 . S
H1295 C1304 0.950 . S
H1296 C1306 0.950 . S
H1297 C1308 0.950 . S
H1298 C1310 0.950 . S
H1299 C1311 0.950 . S
C1300 H1292 0.950 . S
C1300 C1301 1.386 . S
C1300 C1302 1.391 . S
C1301 C1300 1.386 . S
C1301 C1305 1.393 . S
C1302 H1294 0.950 . S
C1302 C1300 1.391 . S
C1302 C1303 1.400 . S
C1303 C1302 1.400 . S
C1303 C1304 1.398 . S
C1303 C1309 1.491 . S
C1304 H1295 0.950 . S
C1304 C1303 1.398 . S
C1304 C1305 1.391 . S
C1305 H1293 0.950 . S
C1305 C1301 1.393 . S
C1305 C1304 1.391 . S
C1306 H1296 0.950 . S
C1306 C1307 1.386 . S
C1306 C1308 1.391 . S
C1307 C1306 1.386 . S
C1307 C1311 1.393 . S
C1308 H1297 0.950 . S
C1308 C1306 1.391 . S
C1308 C1309 1.400 . S
C1309 C1303 1.491 . S
C1309 C1308 1.400 . S
C1309 C1310 1.398 . S
C1310 H1298 0.950 . S
C1310 C1309 1.398 . S
C1310 C1311 1.391 . S
C1311 H1299 0.950 . S
C1311 C1307 1.393 . S
C1311 C1310 1.391 . S
H1312 C1320 0.950 . S
H1313 C1325 0.950 . S
H1314 C1322 0.950 . S
H1315 C1324 0.950 . S
H1316 C1326 0.950 . S
H1317 C1328 0.950 . S
H1318 C1330 0.950 . S
H1319 C1331 0.950 . S
C1320 H1312 0.950 . S
C1320 C1321 1.386 . S
C1320 C1322 1.391 . S
C1321 C1320 1.386 . S
C1321 C1325 1.393 . S
C1322 H1314 0.950 . S
C1322 C1320 1.391 . S
C1322 C1323 1.400 . S
C1323 C1322 1.400 . S
C1323 C1324 1.398 . S
C1323 C1329 1.491 . S
C1324 H1315 0.950 . S
C1324 C1323 1.398 . S
C1324 C1325 1.391 . S
C1325 H1313 0.950 . S
C1325 C1321 1.393 . S
C1325 C1324 1.391 . S
C1326 H1316 0.950 . S
C1326 C1327 1.386 . S
C1326 C1328 1.391 . S
C1327 C1326 1.386 . S
C1327 C1331 1.393 . S
C1328 H1317 0.950 . S
C1328 C1326 1.391 . S
C1328 C1329 1.400 . S
C1329 C1323 1.491 . S
C1329 C1328 1.400 . S
C1329 C1330 1.398 . S
C1330 H1318 0.950 . S
C1330 C1329 1.398 . S
C1330 C1331 1.391 . S
C1331 H1319 0.950 . S
C1331 C1327 1.393 . S
C1331 C1330 1.391 . S
H1332 C1340 0.950 . S
H1333 C1345 0.950 . S
H1334 C1342 0.950 . S
H1335 C1344 0.950 . S
H1336 C1346 0.950 . S
H1337 C1348 0.950 . S
H1338 C1350 0.950 . S
H1339 C1351 0.950 . S
C1340 H1332 0.950 . S
C1340 C1341 1.386 . S
C1340 C1342 1.391 . S
C1341 C1340 1.386 . S
C1341 C1345 1.393 . S
C1342 H1334 0.950 . S
C1342 C1340 1.391 . S
C1342 C1343 1.400 . S
C1343 C1342 1.400 . S
C1343 C1344 1.398 . S
C1343 C1349 1.491 . S
C1344 H1335 0.950 . S
C1344 C1343 1.398 . S
C1344 C1345 1.391 . S
C1345 H1333 0.950 . S
C1345 C1341 1.393 . S
C1345 C1344 1.391 . S
C1346 H1336 0.950 . S
C1346 C1347 1.386 . S
C1346 C1348 1.391 . S
C1347 C1346 1.386 . S
C1347 C1351 1.393 . S
C1348 H1337 0.950 . S
C1348 C1346 1.391 . S
C1348 C1349 1.400 . S
C1349 C1343 1.491 . S
C1349 C1348 1.400 . S
C1349 C1350 1.398 . S
C1350 H1338 0.950 . S
C1350 C1349 1.398 . S
C1350 C1351 1.391 . S
C1351 H1339 0.950 . S
C1351 C1347 1.393 . S
C1351 C1350 1.391 . S
H1352 C1360 0.950 . S
H1353 C1365 0.950 . S
H1354 C1362 0.950 . S
H1355 C1364 0.950 . S
H1356 C1366 0.950 . S
H1357 C1368 0.950 . S
H1358 C1370 0.950 . S
H1359 C1371 0.950 . S
C1360 H1352 0.950 . S
C1360 C1361 1.386 . S
C1360 C1362 1.391 . S
C1361 C1360 1.386 . S
C1361 C1365 1.393 . S
C1362 H1354 0.950 . S
C1362 C1360 1.391 . S
C1362 C1363 1.400 . S
C1363 C1362 1.400 . S
C1363 C1364 1.398 . S
C1363 C1369 1.491 . S
C1364 H1355 0.950 . S
C1364 C1363 1.398 . S
C1364 C1365 1.391 . S
C1365 H1353 0.950 . S
C1365 C1361 1.393 . S
C1365 C1364 1.391 . S
C1366 H1356 0.950 . S
C1366 C1367 1.386 . S
C1366 C1368 1.391 . S
C1367 C1366 1.386 . S
C1367 C1371 1.393 . S
C1368 H1357 0.950 . S
C1368 C1366 1.391 . S
C1368 C1369 1.400 . S
C1369 C1363 1.491 . S
C1369 C1368 1.400 . S
C1369 C1370 1.398 . S
C1370 H1358 0.950 . S
C1370 C1369 1.398 . S
C1370 C1371 1.391 . S
C1371 H1359 0.950 . S
C1371 C1367 1.393 . S
C1371 C1370 1.391 . S
H1372 C1380 0.950 . S
H1373 C1385 0.950 . S
H1374 C1382 0.950 . S
H1375 C1384 0.950 . S
H1376 C1386 0.950 . S
H1377 C1388 0.950 . S
H1378 C1390 0.950 . S
H1379 C1391 0.950 . S
C1380 H1372 0.950 . S
C1380 C1381 1.386 . S
C1380 C1382 1.391 . S
C1381 C1380 1.386 . S
C1381 C1385 1.393 . S
C1382 H1374 0.950 . S
C1382 C1380 1.391 . S
C1382 C1383 1.400 . S
C1383 C1382 1.400 . S
C1383 C1384 1.398 . S
C1383 C1389 1.491 . S
C1384 H1375 0.950 . S
C1384 C1383 1.398 . S
C1384 C1385 1.391 . S
C1385 H1373 0.950 . S
C1385 C1381 1.393 . S
C1385 C1384 1.391 . S
C1386 H1376 0.950 . S
C1386 C1387 1.386 . S
C1386 C1388 1.391 . S
C1387 C1386 1.386 . S
C1387 C1391 1.393 . S
C1388 H1377 0.950 . S
C1388 C1386 1.391 . S
C1388 C1389 1.400 . S
C1389 C1383 1.491 . S
C1389 C1388 1.400 . S
C1389 C1390 1.398 . S
C1390 H1378 0.950 . S
C1390 C1389 1.398 . S
C1390 C1391 1.391 . S
C1391 H1379 0.950 . S
C1391 C1387 1.393 . S
C1391 C1390 1.391 . S
H1392 C1400 0.950 . S
H1393 C1405 0.950 . S
H1394 C1402 0.950 . S
H1395 C1404 0.950 . S
H1396 C1406 0.950 . S
H1397 C1408 0.950 . S
H1398 C1410 0.950 . S
H1399 C1411 0.950 . S
C1400 H1392 0.950 . S
C1400 C1401 1.386 . S
C1400 C1402 1.391 . S
C1401 C1400 1.386 . S
C1401 C1405 1.393 . S
C1402 H1394 0.950 . S
C1402 C1400 1.391 . S
C1402 C1403 1.400 . S
C1403 C1402 1.400 . S
C1403 C1404 1.398 . S
C1403 C1409 1.491 . S
C1404 H1395 0.950 . S
C1404 C1403 1.398 . S
C1404 C1405 1.391 . S
C1405 H1393 0.950 . S
C1405 C1401 1.393 . S
C1405 C1404 1.391 . S
C1406 H1396 0.950 . S
C1406 C1407 1.386 . S
C1406 C1408 1.391 . S
C1407 C1406 1.386 . S
C1407 C1411 1.393 . S
C1408 H1397 0.950 . S
C1408 C1406 1.391 . S
C1408 C1409 1.400 . S
C1409 C1403 1.491 . S
C1409 C1408 1.400 . S
C1409 C1410 1.398 . S
C1410 H1398 0.950 . S
C1410 C1409 1.398 . S
C1410 C1411 1.391 . S
C1411 H1399 0.950 . S
C1411 C1407 1.393 . S
C1411 C1410 1.391 . S
H1412 C1420 0.950 . S
H1413 C1425 0.950 . S
H1414 C1422 0.950 . S
H1415 C1424 0.950 . S
H1416 C1426 0.950 . S
H1417 C1428 0.950 . S
H1418 C1430 0.950 . S
H1419 C1431 0.950 . S
C1420 H1412 0.950 . S
C1420 C1421 1.386 . S
C1420 C1422 1.391 . S
C1421 C1420 1.386 . S
C1421 C1425 1.393 . S
C1422 H1414 0.950 . S
C1422 C1420 1.391 . S
C1422 C1423 1.400 . S
C1423 C1422 1.400 . S
C1423 C1424 1.398 . S
C1423 C1429 1.491 . S
C1424 H1415 0.950 . S
C1424 C1423 1.398 . S
C1424 C1425 1.391 . S
C1425 H1413 0.950 . S
C1425 C1421 1.393 . S
C1425 C1424 1.391 . S
C1426 H1416 0.950 . S
C1426 C1427 1.386 . S
C1426 C1428 1.391 . S
C1427 C1426 1.386 . S
C1427 C1431 1.393 . S
C1428 H1417 0.950 . S
C1428 C1426 1.391 . S
C1428 C1429 1.400 . S
C1429 C1423 1.491 . S
C1429 C1428 1.400 . S
C1429 C1430 1.398 . S
C1430 H1418 0.950 . S
C1430 C1429 1.398 . S
C1430 C1431 1.391 . S
C1431 H1419 0.950 . S
C1431 C1427 1.393 . S
C1431 C1430 1.391 . S
H1432 C1440 0.950 . S
H1433 C1445 0.950 . S
H1434 C1442 0.950 . S
H1435 C1444 0.950 . S
H1436 C1446 0.950 . S
H1437 C1448 0.950 . S
H1438 C1450 0.950 . S
H1439 C1451 0.950 . S
C1440 H1432 0.950 . S
C1440 C1441 1.386 . S
C1440 C1442 1.391 . S
C1441 C1440 1.386 . S
C1441 C1445 1.393 . S
C1442 H1434 0.950 . S
C1442 C1440 1.391 . S
C1442 C1443 1.400 . S
C1443 C1442 1.400 . S
C1443 C1444 1.398 . S
C1443 C1449 1.491 . S
C1444 H1435 0.950 . S
C1444 C1443 1.398 . S
C1444 C1445 1.391 . S
C1445 H1433 0.950 . S
C1445 C1441 1.393 . S
C1445 C1444 1.391 . S
C1446 H1436 0.950 . S
C1446 C1447 1.386 . S
C1446 C1448 1.391 . S
C1447 C1446 1.386 . S
C1447 C1451 1.393 . S
C1448 H1437 0.950 . S
C1448 C1446 1.391 . S
C1448 C1449 1.400 . S
C1449 C1443 1.491 . S
C1449 C1448 1.400 . S
C1449 C1450 1.398 . S
C1450 H1438 0.950 . S
C1450 C1449 1.398 . S
C1450 C1451 1.391 . S
C1451 H1439 0.950 . S
C1451 C1447 1.393 . S
C1451 C1450 1.391 . S
H1452 C1460 0.950 . S
H1453 C1465 0.950 . S
H1454 C1462 0.950 . S
H1455 C1464 0.950 . S
H1456 C1466 0.950 . S
H1457 C1468 0.950 . S
H1458 C1470 0.950 . S
H1459 C1471 0.950 . S
C1460 H1452 0.950 . S
C1460 C1461 1.386 . S
C1460 C1462 1.391 . S
C1461 C1460 1.386 . S
C1461 C1465 1.393 . S
C1462 H1454 0.950 . S
C1462 C1460 1.391 . S
C1462 C1463 1.400 . S
C1463 C1462 1.400 . S
C1463 C1464 1.398 . S
C1463 C1469 1.491 . S
C1464 H1455 0.950 . S
C1464 C1463 1.398 . S
C1464 C1465 1.391 . S
C1465 H1453 0.950 . S
C1465 C1461 1.393 . S
C1465 C1464 1.391 . S
C1466 H1456 0.950 . S
C1466 C1467 1.386 . S
C1466 C1468 1.391 . S
C1467 C1466 1.386 . S
C1467 C1471 1.393 . S
C1468 H1457 0.950 . S
C1468 C1466 1.391 . S
C1468 C1469 1.400 . S
C1469 C1463 1.491 . S
C1469 C1468 1.400 . S
C1469 C1470 1.398 . S
C1470 H1458 0.950 . S
C1470 C1469 1.398 . S
C1470 C1471 1.391 . S
C1471 H1459 0.950 . S
C1471 C1467 1.393 . S
C1471 C1470 1.391 . S
H1472 C1480 0.950 . S
H1473 C1485 0.950 . S
H1474 C1482 0.950 . S
H1475 C1484 0.950 . S
H1476 C1486 0.950 . S
H1477 C1488 0.950 . S
H1478 C1490 0.950 . S
H1479 C1491 0.950 . S
C1480 H1472 0.950 . S
C1480 C1481 1.386 . S
C1480 C1482 1.391 . S
C1481 C1480 1.386 . S
C1481 C1485 1.393 . S
C1482 H1474 0.950 . S
C1482 C1480 1.391 . S
C1482 C1483 1.400 . S
C1483 C1482 1.400 . S
C1483 C1484 1.398 . S
C1483 C1489 1.491 . S
C1484 H1475 0.950 . S
C1484 C1483 1.398 . S
C1484 C1485 1.391 . S
C1485 H1473 0.950 . S
C1485 C1481 1.393 . S
C1485 C1484 1.391 . S
C1486 H1476 0.950 . S
C1486 C1487 1.386 . S
C1486 C1488 1.391 . S
C1487 C1486 1.386 . S
C1487 C1491 1.393 . S
C1488 H1477 0.950 . S
C1488 C1486 1.391 . S
C1488 C1489 1.400 . S
C1489 C1483 1.491 . S
C1489 C1488 1.400 . S
C1489 C1490 1.398 . S
C1490 H1478 0.950 . S
C1490 C1489 1.398 . S
C1490 C1491 1.391 . S
C1491 H1479 0.950 . S
C1491 C1487 1.393 . S
C1491 C1490 1.391 . S
H1492 C1500 0.950 . S
H1493 C1505 0.950 . S
H1494 C1502 0.950 . S
H1495 C1504 0.950 . S
H1496 C1506 0.950 . S
H1497 C1508 0.950 . S
H1498 C1510 0.950 . S
H1499 C1511 0.950 . S
C1500 H1492 0.950 . S
C1500 C1501 1.386 . S
C1500 C1502 1.391 . S
C1501 C1500 1.386 . S
C1501 C1505 1.393 . S
C1502 H1494 0.950 . S
C1502 C1500 1.391 . S
C1502 C1503 1.400 . S
C1503 C1502 1.400 . S
C1503 C1504 1.398 . S
C1503 C1509 1.491 . S
C1504 H1495 0.950 . S
C1504 C1503 1.398 . S
C1504 C1505 1.391 . S
C1505 H1493 0.950 . S
C1505 C1501 1.393 . S
C1505 C1504 1.391 . S
C1506 H1496 0.950 . S
C1506 C1507 1.386 . S
C1506 C1508 1.391 . S
C1507 C1506 1.386 . S
C1507 C1511 1.393 . S
C1508 H1497 0.950 . S
C1508 C1506 1.391 . S
C1508 C1509 1.400 . S
C1509 C1503 1.491 . S
C1509 C1508 1.400 . S
C1509 C1510 1.398 . S
C1510 H1498 0.950 . S
C1510 C1509 1.398 . S
C1510 C1511 1.391 . S
C1511 H1499 0.950 . S
C1511 C1507 1.393 . S
C1511 C1510 1.391 . S
H1512 C1520 0.950 . S
H1513 C1525 0.950 . S
H1514 C1522 0.950 . S
H1515 C1524 0.950 . S
H1516 C1526 0.950 . S
H1517 C1528 0.950 . S
H1518 C1530 0.950 . S
H1519 C1531 0.950 . S
C1520 H1512 0.950 . S
C1520 C1521 1.386 . S
C1520 C1522 1.391 . S
C1521 C1520 1.386 . S
C1521 C1525 1.393 . S
C1522 H1514 0.950 . S
C1522 C1520 1.391 . S
C1522 C1523 1.400 . S
C1523 C1522 1.400 . S
C1523 C1524 1.398 . S
C1523 C1529 1.491 . S
C1524 H1515 0.950 . S
C1524 C1523 1.398 . S
C1524 C1525 1.391 . S
C1525 H1513 0.950 . S
C1525 C1521 1.393 . S
C1525 C1524 1.391 . S
C1526 H1516 0.950 . S
C1526 C1527 1.386 . S
C1526 C1528 1.391 . S
C1527 C1526 1.386 . S
C1527 C1531 1.393 . S
C1528 H1517 0.950 . S
C1528 C1526 1.391 . S
C1528 C1529 1.400 . S
C1529 C1523 1.491 . S
C1529 C1528 1.400 . S
C1529 C1530 1.398 . S
C1530 H1518 0.950 . S
C1530 C1529 1.398 . S
C1530 C1531 1.391 . S
C1531 H1519 0.950 . S
C1531 C1527 1.393 . S
C1531 C1530 1.391 . S
H1532 C1540 0.950 . S
H1533 C1545 0.950 . S
H1534 C1542 0.950 . S
H1535 C1544 0.950 . S
H1536 C1546 0.950 . S
H1537 C1548 0.950 . S
H1538 C1550 0.950 . S
H1539 C1551 0.950 . S
C1540 H1532 0.950 . S
C1540 C1541 1.386 . S
C1540 C1542 1.391 . S
C1541 C1540 1.386 . S
C1541 C1545 1.393 . S
C1542 H1534 0.950 . S
C1542 C1540 1.391 . S
C1542 C1543 1.400 . S
C1543 C1542 1.400 . S
C1543 C1544 1.398 . S
C1543 C1549 1.491 . S
C1544 H1535 0.950 . S
C1544 C1543 1.398 . S
C1544 C1545 1.391 . S
C1545 H1533 0.950 . S
C1545 C1541 1.393 . S
C1545 C1544 1.391 . S
C1546 H1536 0.950 . S
C1546 C1547 1.386 . S
C1546 C1548 1.391 . S
C1547 C1546 1.386 . S
C1547 C1551 1.393 . S
C1548 H1537 0.950 . S
C1548 C1546 1.391 . S
C1548 C1549 1.400 . S
C1549 C1543 1.491 . S
C1549 C1548 1.400 . S
C1549 C1550 1.398 . S
C1550 H1538 0.950 . S
C1550 C1549 1.398 . S
C1550 C1551 1.391 . S
C1551 H1539 0.950 . S
C1551 C1547 1.393 . S
C1551 C1550 1.391 . S
H1552 C1560 0.950 . S
H1553 C1565 0.950 . S
H1554 C1562 0.950 . S
H1555 C1564 0.950 . S
H1556 C1566 0.950 . S
H1557 C1568 0.950 . S
H1558 C1570 0.950 . S
H1559 C1571 0.950 . S
C1560 H1552 0.950 . S
C1560 C1561 1.386 . S
C1560 C1562 1.391 . S
C1561 C1560 1.386 . S
C1561 C1565 1.393 . S
C1562 H1554 0.950 . S
C1562 C1560 1.391 . S
C1562 C1563 1.400 . S
C1563 C1562 1.400 . S
C1563 C1564 1.398 . S
C1563 C1569 1.491 . S
C1564 H1555 0.950 . S
C1564 C1563 1.398 . S
C1564 C1565 1.391 . S
C1565 H1553 0.950 . S
C1565 C1561 1.393 . S
C1565 C1564 1.391 . S
C1566 H1556 0.950 . S
C1566 C1567 1.386 . S
C1566 C1568 1.391 . S
C1567 C1566 1.386 . S
C1567 C1571 1.393 . S
C1568 H1557 0.950 . S
C1568 C1566 1.391 . S
C1568 C1569 1.400 . S
C1569 C1563 1.491 . S
C1569 C1568 1.400 . S
C1569 C1570 1.398 . S
C1570 H1558 0.950 . S
C1570 C1569 1.398 . S
C1570 C1571 1.391 . S
C1571 H1559 0.950 . S
C1571 C1567 1.393 . S
C1571 C1570 1.391 . S
H1572 C1580 0.950 . S
H1573 C1585 0.950 . S
H1574 C1582 0.950 . S
H1575 C1584 0.950 . S
H1576 C1586 0.950 . S
H1577 C1588 0.950 . S
H1578 C1590 0.950 . S
H1579 C1591 0.950 . S
C1580 H1572 0.950 . S
C1580 C1581 1.386 . S
C1580 C1582 1.391 . S
C1581 C1580 1.386 . S
C1581 C1585 1.393 . S
C1582 H1574 0.950 . S
C1582 C1580 1.391 . S
C1582 C1583 1.400 . S
C1583 C1582 1.400 . S
C1583 C1584 1.398 . S
C1583 C1589 1.491 . S
C1584 H1575 0.950 . S
C1584 C1583 1.398 . S
C1584 C1585 1.391 . S
C1585 H1573 0.950 . S
C1585 C1581 1.393 . S
C1585 C1584 1.391 . S
C1586 H1576 0.950 . S
C1586 C1587 1.386 . S
C1586 C1588 1.391 . S
C1587 C1586 1.386 . S
C1587 C1591 1.393 . S
C1588 H1577 0.950 . S
C1588 C1586 1.391 . S
C1588 C1589 1.400 . S
C1589 C1583 1.491 . S
C1589 C1588 1.400 . S
C1589 C1590 1.398 . S
C1590 H1578 0.950 . S
C1590 C1589 1.398 . S
C1590 C1591 1.391 . S
C1591 H1579 0.950 . S
C1591 C1587 1.393 . S
C1591 C1590 1.391 . S
H1592 C1600 0.950 . S
H1593 C1605 0.950 . S
H1594 C1602 0.950 . S
H1595 C1604 0.950 . S
H1596 C1606 0.950 . S
H1597 C1608 0.950 . S
H1598 C1610 0.950 . S
H1599 C1611 0.950 . S
C1600 H1592 0.950 . S
C1600 C1601 1.386 . S
C1600 C1602 1.391 . S
C1601 C1600 1.386 . S
C1601 C1605 1.393 . S
C1602 H1594 0.950 . S
C1602 C1600 1.391 . S
C1602 C1603 1.400 . S
C1603 C1602 1.400 . S
C1603 C1604 1.398 . S
C1603 C1609 1.491 . S
C1604 H1595 0.950 . S
C1604 C1603 1.398 . S
C1604 C1605 1.391 . S
C1605 H1593 0.950 . S
C1605 C1601 1.393 . S
C1605 C1604 1.391 . S
C1606 H1596 0.950 . S
C1606 C1607 1.386 . S
C1606 C1608 1.391 . S
C1607 C1606 1.386 . S
C1607 C1611 1.393 . S
C1608 H1597 0.950 . S
C1608 C1606 1.391 . S
C1608 C1609 1.400 . S
C1609 C1603 1.491 . S
C1609 C1608 1.400 . S
C1609 C1610 1.398 . S
C1610 H1598 0.950 . S
C1610 C1609 1.398 . S
C1610 C1611 1.391 . S
C1611 H1599 0.950 . S
C1611 C1607 1.393 . S
C1611 C1610 1.391 . S
H1612 C1620 0.950 . S
H1613 C1625 0.950 . S
H1614 C1622 0.950 . S
H1615 C1624 0.950 . S
H1616 C1626 0.950 . S
H1617 C1628 0.950 . S
H1618 C1630 0.950 . S
H1619 C1631 0.950 . S
C1620 H1612 0.950 . S
C1620 C1621 1.386 . S
C1620 C1622 1.391 . S
C1621 C1620 1.386 . S
C1621 C1625 1.393 . S
C1622 H1614 0.950 . S
C1622 C1620 1.391 . S
C1622 C1623 1.400 . S
C1623 C1622 1.400 . S
C1623 C1624 1.398 . S
C1623 C1629 1.491 . S
C1624 H1615 0.950 . S
C1624 C1623 1.398 . S
C1624 C1625 1.391 . S
C1625 H1613 0.950 . S
C1625 C1621 1.393 . S
C1625 C1624 1.391 . S
C1626 H1616 0.950 . S
C1626 C1627 1.386 . S
C1626 C1628 1.391 . S
C1627 C1626 1.386 . S
C1627 C1631 1.393 . S
C1628 H1617 0.950 . S
C1628 C1626 1.391 . S
C1628 C1629 1.400 . S
C1629 C1623 1.491 . S
C1629 C1628 1.400 . S
C1629 C1630 1.398 . S
C1630 H1618 0.950 . S
C1630 C1629 1.398 . S
C1630 C1631 1.391 . S
C1631 H1619 0.950 . S
C1631 C1627 1.393 . S
C1631 C1630 1.391 . S
H1632 C1640 0.950 . S
H1633 C1645 0.950 . S
H1634 C1642 0.950 . S
H1635 C1644 0.950 . S
H1636 C1646 0.950 . S
H1637 C1648 0.950 . S
H1638 C1650 0.950 . S
H1639 C1651 0.950 . S
C1640 H1632 0.950 . S
C1640 C1641 1.386 . S
C1640 C1642 1.391 . S
C1641 C1640 1.386 . S
C1641 C1645 1.393 . S
C1642 H1634 0.950 . S
C1642 C1640 1.391 . S
C1642 C1643 1.400 . S
C1643 C1642 1.400 . S
C1643 C1644 1.398 . S
C1643 C1649 1.491 . S
C1644 H1635 0.950 . S
C1644 C1643 1.398 . S
C1644 C1645 1.391 . S
C1645 H1633 0.950 . S
C1645 C1641 1.393 . S
C1645 C1644 1.391 . S
C1646 H1636 0.950 . S
C1646 C1647 1.386 . S
C1646 C1648 1.391 . S
C1647 C1646 1.386 . S
C1647 C1651 1.393 . S
C1648 H1637 0.950 . S
C1648 C1646 1.391 . S
C1648 C1649 1.400 . S
C1649 C1643 1.491 . S
C1649 C1648 1.400 . S
C1649 C1650 1.398 . S
C1650 H1638 0.950 . S
C1650 C1649 1.398 . S
C1650 C1651 1.391 . S
C1651 H1639 0.950 . S
C1651 C1647 1.393 . S
C1651 C1650 1.391 . S
H1652 C1660 0.950 . S
H1653 C1665 0.950 . S
H1654 C1662 0.950 . S
H1655 C1664 0.950 . S
H1656 C1666 0.950 . S
H1657 C1668 0.950 . S
H1658 C1670 0.950 . S
H1659 C1671 0.950 . S
C1660 H1652 0.950 . S
C1660 C1661 1.386 . S
C1660 C1662 1.391 . S
C1661 C1660 1.386 . S
C1661 C1665 1.393 . S
C1662 H1654 0.950 . S
C1662 C1660 1.391 . S
C1662 C1663 1.400 . S
C1663 C1662 1.400 . S
C1663 C1664 1.398 . S
C1663 C1669 1.491 . S
C1664 H1655 0.950 . S
C1664 C1663 1.398 . S
C1664 C1665 1.391 . S
C1665 H1653 0.950 . S
C1665 C1661 1.393 . S
C1665 C1664 1.391 . S
C1666 H1656 0.950 . S
C1666 C1667 1.386 . S
C1666 C1668 1.391 . S
C1667 C1666 1.386 . S
C1667 C1671 1.393 . S
C1668 H1657 0.950 . S
C1668 C1666 1.391 . S
C1668 C1669 1.400 . S
C1669 C1663 1.491 . S
C1669 C1668 1.400 . S
C1669 C1670 1.398 . S
C1670 H1658 0.950 . S
C1670 C1669 1.398 . S
C1670 C1671 1.391 . S
C1671 H1659 0.950 . S
C1671 C1667 1.393 . S
C1671 C1670 1.391 . S
H1672 C1680 0.950 . S
H1673 C1685 0.950 . S
H1674 C1682 0.950 . S
H1675 C1684 0.950 . S
H1676 C1686 0.950 . S
H1677 C1688 0.950 . S
H1678 C1690 0.950 . S
H1679 C1691 0.950 . S
C1680 H1672 0.950 . S
C1680 C1681 1.386 . S
C1680 C1682 1.391 . S
C1681 C1680 1.386 . S
C1681 C1685 1.393 . S
C1682 H1674 0.950 . S
C1682 C1680 1.391 . S
C1682 C1683 1.400 . S
C1683 C1682 1.400 . S
C1683 C1684 1.398 . S
C1683 C1689 1.491 . S
C1684 H1675 0.950 . S
C1684 C1683 1.398 . S
C1684 C1685 1.391 . S
C1685 H1673 0.950 . S
C1685 C1681 1.393 . S
C1685 C1684 1.391 . S
C1686 H1676 0.950 . S
C1686 C1687 1.386 . S
C1686 C1688 1.391 . S
C1687 C1686 1.386 . S
C1687 C1691 1.393 . S
C1688 H1677 0.950 . S
C1688 C1686 1.391 . S
C1688 C1689 1.400 . S
C1689 C1683 1.491 . S
C1689 C1688 1.400 . S
C1689 C1690 1.398 . S
C1690 H1678 0.950 . S
C1690 C1689 1.398 . S
C1690 C1691 1.391 . S
C1691 H1679 0.950 . S
C1691 C1687 1.393 . S
C1691 C1690 1.391 . S
H1692 C1700 0.950 . S
H1693 C1705 0.950 . S
H1694 C1702 0.950 . S
H1695 C1704 0.950 . S
H1696 C1706 0.950 . S
H1697 C1708 0.950 . S
H1698 C1710 0.950 . S
H1699 C1711 0.950 . S
C1700 H1692 0.950 . S
C1700 C1701 1.386 . S
C1700 C1702 1.391 . S
C1701 C1700 1.386 . S
C1701 C1705 1.393 . S
C1702 H1694 0.950 . S
C1702 C1700 1.391 . S
C1702 C1703 1.400 . S
C1703 C1702 1.400 . S
C1703 C1704 1.398 . S
C1703 C1709 1.491 . S
C1704 H1695 0.950 . S
C1704 C1703 1.398 . S
C1704 C1705 1.391 . S
C1705 H1693 0.950 . S
C1705 C1701 1.393 . S
C1705 C1704 1.391 . S
C1706 H1696 0.950 . S
C1706 C1707 1.386 . S
C1706 C1708 1.391 . S
C1707 C1706 1.386 . S
C1707 C1711 1.393 . S
C1708 H1697 0.950 . S
C1708 C1706 1.391 . S
C1708 C1709 1.400 . S
C1709 C1703 1.491 . S
C1709 C1708 1.400 . S
C1709 C1710 1.398 . S
C1710 H1698 0.950 . S
C1710 C1709 1.398 . S
C1710 C1711 1.391 . S
C1711 H1699 0.950 . S
C1711 C1707 1.393 . S
C1711 C1710 1.391 . S
H1712 C1720 0.950 . S
H1713 C1725 0.950 . S
H1714 C1722 0.950 . S
H1715 C1724 0.950 . S
H1716 C1726 0.950 . S
H1717 C1728 0.950 . S
H1718 C1730 0.950 . S
H1719 C1731 0.950 . S
C1720 H1712 0.950 . S
C1720 C1721 1.386 . S
C1720 C1722 1.391 . S
C1721 C1720 1.386 . S
C1721 C1725 1.393 . S
C1722 H1714 0.950 . S
C1722 C1720 1.391 . S
C1722 C1723 1.400 . S
C1723 C1722 1.400 . S
C1723 C1724 1.398 . S
C1723 C1729 1.491 . S
C1724 H1715 0.950 . S
C1724 C1723 1.398 . S
C1724 C1725 1.391 . S
C1725 H1713 0.950 . S
C1725 C1721 1.393 . S
C1725 C1724 1.391 . S
C1726 H1716 0.950 . S
C1726 C1727 1.386 . S
C1726 C1728 1.391 . S
C1727 C1726 1.386 . S
C1727 C1731 1.393 . S
C1728 H1717 0.950 . S
C1728 C1726 1.391 . S
C1728 C1729 1.400 . S
C1729 C1723 1.491 . S
C1729 C1728 1.400 . S
C1729 C1730 1.398 . S
C1730 H1718 0.950 . S
C1730 C1729 1.398 . S
C1730 C1731 1.391 . S
C1731 H1719 0.950 . S
C1731 C1727 1.393 . S
C1731 C1730 1.391 . S
H1732 C1740 0.950 . S
H1733 C1745 0.950 . S
H1734 C1742 0.950 . S
H1735 C1744 0.950 . S
H1736 C1746 0.950 . S
H1737 C1748 0.950 . S
H1738 C1750 0.950 . S
H1739 C1751 0.950 . S
C1740 H1732 0.950 . S
C1740 C1741 1.386 . S
C1740 C1742 1.391 . S
C1741 C1740 1.386 . S
C1741 C1745 1.393 . S
C1742 H1734 0.950 . S
C1742 C1740 1.391 . S
C1742 C1743 1.400 . S
C1743 C1742 1.400 . S
C1743 C1744 1.398 . S
C1743 C1749 1.491 . S
C1744 H1735 0.950 . S
C1744 C1743 1.398 . S
C1744 C1745 1.391 . S
C1745 H1733 0.950 . S
C1745 C1741 1.393 . S
C1745 C1744 1.391 . S
C1746 H1736 0.950 . S
C1746 C1747 1.386 . S
C1746 C1748 1.391 . S
C1747 C1746 1.386 . S
C1747 C1751 1.393 . S
C1748 H1737 0.950 . S
C1748 C1746 1.391 . S
C1748 C1749 1.400 . S
C1749 C1743 1.491 . S
C1749 C1748 1.400 . S
C1749 C1750 1.398 . S
C1750 H1738 0.950 . S
C1750 C1749 1.398 . S
C1750 C1751 1.391 . S
C1751 H1739 0.950 . S
C1751 C1747 1.393 . S
C1751 C1750 1.391 . S
H1752 C1760 0.950 . S
H1753 C1765 0.950 . S
H1754 C1762 0.950 . S
H1755 C1764 0.950 . S
H1756 C1766 0.950 . S
H1757 C1768 0.950 . S
H1758 C1770 0.950 . S
H1759 C1771 0.950 . S
C1760 H1752 0.950 . S
C1760 C1761 1.386 . S
C1760 C1762 1.391 . S
C1761 C1760 1.386 . S
C1761 C1765 1.393 . S
C1762 H1754 0.950 . S
C1762 C1760 1.391 . S
C1762 C1763 1.400 . S
C1763 C1762 1.400 . S
C1763 C1764 1.398 . S
C1763 C1769 1.491 . S
C1764 H1755 0.950 . S
C1764 C1763 1.398 . S
C1764 C1765 1.391 . S
C1765 H1753 0.950 . S
C1765 C1761 1.393 . S
C1765 C1764 1.391 . S
C1766 H1756 0.950 . S
C1766 C1767 1.386 . S
C1766 C1768 1.391 . S
C1767 C1766 1.386 . S
C1767 C1771 1.393 . S
C1768 H1757 0.950 . S
C1768 C1766 1.391 . S
C1768 C1769 1.400 . S
C1769 C1763 1.491 . S
C1769 C1768 1.400 . S
C1769 C1770 1.398 . S
C1770 H1758 0.950 . S
C1770 C1769 1.398 . S
C1770 C1771 1.391 . S
C1771 H1759 0.950 . S
C1771 C1767 1.393 . S
C1771 C1770 1.391 . S
H1772 C1780 0.950 . S
H1773 C1785 0.950 . S
H1774 C1782 0.950 . S
H1775 C1784 0.950 . S
H1776 C1786 0.950 . S
H1777 C1788 0.950 . S
H1778 C1790 0.950 . S
H1779 C1791 0.950 . S
C1780 H1772 0.950 . S
C1780 C1781 1.386 . S
C1780 C1782 1.391 . S
C1781 C1780 1.386 . S
C1781 C1785 1.393 . S
C1782 H1774 0.950 . S
C1782 C1780 1.391 . S
C1782 C1783 1.400 . S
C1783 C1782 1.400 . S
C1783 C1784 1.398 . S
C1783 C1789 1.491 . S
C1784 H1775 0.950 . S
C1784 C1783 1.398 . S
C1784 C1785 1.391 . S
C1785 H1773 0.950 . S
C1785 C1781 1.393 . S
C1785 C1784 1.391 . S
C1786 H1776 0.950 . S
C1786 C1787 1.386 . S
C1786 C1788 1.391 . S
C1787 C1786 1.386 . S
C1787 C1791 1.393 . S
C1788 H1777 0.950 . S
C1788 C1786 1.391 . S
C1788 C1789 1.400 . S
C1789 C1783 1.491 . S
C1789 C1788 1.400 . S
C1789 C1790 1.398 . S
C1790 H1778 0.950 . S
C1790 C1789 1.398 . S
C1790 C1791 1.391 . S
C1791 H1779 0.950 . S
C1791 C1787 1.393 . S
C1791 C1790 1.391 . S
H1792 C1800 0.950 . S
H1793 C1805 0.950 . S
H1794 C1802 0.950 . S
H1795 C1804 0.950 . S
H1796 C1806 0.950 . S
H1797 C1808 0.950 . S
H1798 C1810 0.950 . S
H1799 C1811 0.950 . S
C1800 H1792 0.950 . S
C1800 C1801 1.386 . S
C1800 C1802 1.391 . S
C1801 C1800 1.386 . S
C1801 C1805 1.393 . S
C1802 H1794 0.950 . S
C1802 C1800 1.391 . S
C1802 C1803 1.400 . S
C1803 C1802 1.400 . S
C1803 C1804 1.398 . S
C1803 C1809 1.491 . S
C1804 H1795 0.950 . S
C1804 C1803 1.398 . S
C1804 C1805 1.391 . S
C1805 H1793 0.950 . S
C1805 C1801 1.393 . S
C1805 C1804 1.391 . S
C1806 H1796 0.950 . S
C1806 C1807 1.386 . S
C1806 C1808 1.391 . S
C1807 C1806 1.386 . S
C1807 C1811 1.393 . S
C1808 H1797 0.950 . S
C1808 C1806 1.391 . S
C1808 C1809 1.400 . S
C1809 C1803 1.491 . S
C1809 C1808 1.400 . S
C1809 C1810 1.398 . S
C1810 H1798 0.950 . S
C1810 C1809 1.398 . S
C1810 C1811 1.391 . S
C1811 H1799 0.950 . S
C1811 C1807 1.393 . S
C1811 C1810 1.391 . S
H1812 C1820 0.950 . S
H1813 C1825 0.950 . S
H1814 C1822 0.950 . S
H1815 C1824 0.950 . S
H1816 C1826 0.950 . S
H1817 C1828 0.950 . S
H1818 C1830 0.950 . S
H1819 C1831 0.950 . S
C1820 H1812 0.950 . S
C1820 C1821 1.386 . S
C1820 C1822 1.391 . S
C1821 C1820 1.386 . S
C1821 C1825 1.393 . S
C1822 H1814 0.950 . S
C1822 C1820 1.391 . S
C1822 C1823 1.400 . S
C1823 C1822 1.400 . S
C1823 C1824 1.398 . S
C1823 C1829 1.491 . S
C1824 H1815 0.950 . S
C1824 C1823 1.398 . S
C1824 C1825 1.391 . S
C1825 H1813 0.950 . S
C1825 C1821 1.393 . S
C1825 C1824 1.391 . S
C1826 H1816 0.950 . S
C1826 C1827 1.386 . S
C1826 C1828 1.391 . S
C1827 C1826 1.386 . S
C1827 C1831 1.393 . S
C1828 H1817 0.950 . S
C1828 C1826 1.391 . S
C1828 C1829 1.400 . S
C1829 C1823 1.491 . S
C1829 C1828 1.400 . S
C1829 C1830 1.398 . S
C1830 H1818 0.950 . S
C1830 C1829 1.398 . S
C1830 C1831 1.391 . S
C1831 H1819 0.950 . S
C1831 C1827 1.393 . S
C1831 C1830 1.391 . S
H1832 C1840 0.950 . S
H1833 C1845 0.950 . S
H1834 C1842 0.950 . S
H1835 C1844 0.950 . S
H1836 C1846 0.950 . S
H1837 C1848 0.950 . S
H1838 C1850 0.950 . S
H1839 C1851 0.950 . S
C1840 H1832 0.950 . S
C1840 C1841 1.386 . S
C1840 C1842 1.391 . S
C1841 C1840 1.386 . S
C1841 C1845 1.393 . S
C1842 H1834 0.950 . S
C1842 C1840 1.391 . S
C1842 C1843 1.400 . S
C1843 C1842 1.400 . S
C1843 C1844 1.398 . S
C1843 C1849 1.491 . S
C1844 H1835 0.950 . S
C1844 C1843 1.398 . S
C1844 C1845 1.391 . S
C1845 H1833 0.950 . S
C1845 C1841 1.393 . S
C1845 C1844 1.391 . S
C1846 H1836 0.950 . S
C1846 C1847 1.386 . S
C1846 C1848 1.391 . S
C1847 C1846 1.386 . S
C1847 C1851 1.393 . S
C1848 H1837 0.950 . S
C1848 C1846 1.391 . S
C1848 C1849 1.400 . S
C1849 C1843 1.491 . S
C1849 C1848 1.400 . S
C1849 C1850 1.398 . S
C1850 H1838 0.950 . S
C1850 C1849 1.398 . S
C1850 C1851 1.391 . S
C1851 H1839 0.950 . S
C1851 C1847 1.393 . S
C1851 C1850 1.391 . S
H1852 C1860 0.950 . S
H1853 C1865 0.950 . S
H1854 C1862 0.950 . S
H1855 C1864 0.950 . S
H1856 C1866 0.950 . S
H1857 C1868 0.950 . S
H1858 C1870 0.950 . S
H1859 C1871 0.950 . S
C1860 H1852 0.950 . S
C1860 C1861 1.386 . S
C1860 C1862 1.391 . S
C1861 C1860 1.386 . S
C1861 C1865 1.393 . S
C1862 H1854 0.950 . S
C1862 C1860 1.391 . S
C1862 C1863 1.400 . S
C1863 C1862 1.400 . S
C1863 C1864 1.398 . S
C1863 C1869 1.491 . S
C1864 H1855 0.950 . S
C1864 C1863 1.398 . S
C1864 C1865 1.391 . S
C1865 H1853 0.950 . S
C1865 C1861 1.393 . S
C1865 C1864 1.391 . S
C1866 H1856 0.950 . S
C1866 C1867 1.386 . S
C1866 C1868 1.391 . S
C1867 C1866 1.386 . S
C1867 C1871 1.393 . S
C1868 H1857 0.950 . S
C1868 C1866 1.391 . S
C1868 C1869 1.400 . S
C1869 C1863 1.491 . S
C1869 C1868 1.400 . S
C1869 C1870 1.398 . S
C1870 H1858 0.950 . S
C1870 C1869 1.398 . S
C1870 C1871 1.391 . S
C1871 H1859 0.950 . S
C1871 C1867 1.393 . S
C1871 C1870 1.391 . S
H1872 C1880 0.950 . S
H1873 C1885 0.950 . S
H1874 C1882 0.950 . S
H1875 C1884 0.950 . S
H1876 C1886 0.950 . S
H1877 C1888 0.950 . S
H1878 C1890 0.950 . S
H1879 C1891 0.950 . S
C1880 H1872 0.950 . S
C1880 C1881 1.386 . S
C1880 C1882 1.391 . S
C1881 C1880 1.386 . S
C1881 C1885 1.393 . S
C1882 H1874 0.950 . S
C1882 C1880 1.391 . S
C1882 C1883 1.400 . S
C1883 C1882 1.400 . S
C1883 C1884 1.398 . S
C1883 C1889 1.491 . S
C1884 H1875 0.950 . S
C1884 C1883 1.398 . S
C1884 C1885 1.391 . S
C1885 H1873 0.950 . S
C1885 C1881 1.393 . S
C1885 C1884 1.391 . S
C1886 H1876 0.950 . S
C1886 C1887 1.386 . S
C1886 C1888 1.391 . S
C1887 C1886 1.386 . S
C1887 C1891 1.393 . S
C1888 H1877 0.950 . S
C1888 C1886 1.391 . S
C1888 C1889 1.400 . S
C1889 C1883 1.491 . S
C1889 C1888 1.400 . S
C1889 C1890 1.398 . S
C1890 H1878 0.950 . S
C1890 C1889 1.398 . S
C1890 C1891 1.391 . S
C1891 H1879 0.950 . S
C1891 C1887 1.393 . S
C1891 C1890 1.391 . S
H1892 C1900 0.950 . S
H1893 C1905 0.950 . S
H1894 C1902 0.950 . S
H1895 C1904 0.950 . S
H1896 C1906 0.950 . S
H1897 C1908 0.950 . S
H1898 C1910 0.950 . S
H1899 C1911 0.950 . S
C1900 H1892 0.950 . S
C1900 C1901 1.386 . S
C1900 C1902 1.391 . S
C1901 C1900 1.386 . S
C1901 C1905 1.393 . S
C1902 H1894 0.950 . S
C1902 C1900 1.391 . S
C1902 C1903 1.400 . S
C1903 C1902 1.400 . S
C1903 C1904 1.398 . S
C1903 C1909 1.491 . S
C1904 H1895 0.950 . S
C1904 C1903 1.398 . S
C1904 C1905 1.391 . S
C1905 H1893 0.950 . S
C1905 C1901 1.393 . S
C1905 C1904 1.391 . S
C1906 H1896 0.950 . S
C1906 C1907 1.386 . S
C1906 C1908 1.391 . S
C1907 C1906 1.386 . S
C1907 C1911 1.393 . S
C1908 H1897 0.950 . S
C1908 C1906 1.391 . S
C1908 C1909 1.400 . S
C1909 C1903 1.491 . S
C1909 C1908 1.400 . S
C1909 C1910 1.398 . S
C1910 H1898 0.950 . S
C1910 C1909 1.398 . S
C1910 C1911 1.391 . S
C1911 H1899 0.950 . S
C1911 C1907 1.393 . S
C1911 C1910 1.391 . S
H1912 C1920 0.950 . S
H1913 C1925 0.950 . S
H1914 C1922 0.950 . S
H1915 C1924 0.950 . S
H1916 C1926 0.950 . S
H1917 C1928 0.950 . S
H1918 C1930 0.950 . S
H1919 C1931 0.950 . S
C1920 H1912 0.950 . S
C1920 C1921 1.386 . S
C1920 C1922 1.391 . S
C1921 C1920 1.386 . S
C1921 C1925 1.393 . S
C1922 H1914 0.950 . S
C1922 C1920 1.391 . S
C1922 C1923 1.400 . S
C1923 C1922 1.400 . S
C1923 C1924 1.398 . S
C1923 C1929 1.491 . S
C1924 H1915 0.950 . S
C1924 C1923 1.398 . S
C1924 C1925 1.391 . S
C1925 H1913 0.950 . S
C1925 C1921 1.393 . S
C1925 C1924 1.391 . S
C1926 H1916 0.950 . S
C1926 C1927 1.386 . S
C1926 C1928 1.391 . S
C1927 C1926 1.386 . S
C1927 C1931 1.393 . S
C1928 H1917 0.950 . S
C1928 C1926 1.391 . S
C1928 C1929 1.400 . S
C1929 C1923 1.491 . S
C1929 C1928 1.400 . S
C1929 C1930 1.398 . S
C1930 H1918 0.950 . S
C1930 C1929 1.398 . S
C1930 C1931 1.391 . S
C1931 H1919 0.950 . S
C1931 C1927 1.393 . S
C1931 C1930 1.391 . S
H1932 C1940 0.950 . S
H1933 C1945 0.950 . S
H1934 C1942 0.950 . S
H1935 C1944 0.950 . S
H1936 C1946 0.950 . S
H1937 C1948 0.950 . S
H1938 C1950 0.950 . S
H1939 C1951 0.950 . S
C1940 H1932 0.950 . S
C1940 C1941 1.386 . S
C1940 C1942 1.391 . S
C1941 C1940 1.386 . S
C1941 C1945 1.393 . S
C1942 H1934 0.950 . S
C1942 C1940 1.391 . S
C1942 C1943 1.400 . S
C1943 C1942 1.400 . S
C1943 C1944 1.398 . S
C1943 C1949 1.491 . S
C1944 H1935 0.950 . S
C1944 C1943 1.398 . S
C1944 C1945 1.391 . S
C1945 H1933 0.950 . S
C1945 C1941 1.393 . S
C1945 C1944 1.391 . S
C1946 H1936 0.950 . S
C1946 C1947 1.386 . S
C1946 C1948 1.391 . S
C1947 C1946 1.386 . S
C1947 C1951 1.393 . S
C1948 H1937 0.950 . S
C1948 C1946 1.391 . S
C1948 C1949 1.400 . S
C1949 C1943 1.491 . S
C1949 C1948 1.400 . S
C1949 C1950 1.398 . S
C1950 H1938 0.950 . S
C1950 C1949 1.398 . S
C1950 C1951 1.391 . S
C1951 H1939 0.950 . S
C1951 C1947 1.393 . S
C1951 C1950 1.391 . S
H1952 C1960 0.950 . S
H1953 C1965 0.950 . S
H1954 C1962 0.950 . S
H1955 C1964 0.950 . S
H1956 C1966 0.950 . S
H1957 C1968 0.950 . S
H1958 C1970 0.950 . S
H1959 C1971 0.950 . S
C1960 H1952 0.950 . S
C1960 C1961 1.386 . S
C1960 C1962 1.391 . S
C1961 C1960 1.386 . S
C1961 C1965 1.393 . S
C1962 H1954 0.950 . S
C1962 C1960 1.391 . S
C1962 C1963 1.400 . S
C1963 C1962 1.400 . S
C1963 C1964 1.398 . S
C1963 C1969 1.491 . S
C1964 H1955 0.950 . S
C1964 C1963 1.398 . S
C1964 C1965 1.391 . S
C1965 H1953 0.950 . S
C1965 C1961 1.393 . S
C1965 C1964 1.391 . S
C1966 H1956 0.950 . S
C1966 C1967 1.386 . S
C1966 C1968 1.391 . S
C1967 C1966 1.386 . S
C1967 C1971 1.393 . S
C1968 H1957 0.950 . S
C1968 C1966 1.391 . S
C1968 C1969 1.400 . S
C1969 C1963 1.491 . S
C1969 C1968 1.400 . S
C1969 C1970 1.398 . S
C1970 H1958 0.950 . S
C1970 C1969 1.398 . S
C1970 C1971 1.391 . S
C1971 H1959 0.950 . S
C1971 C1967 1.393 . S
C1971 C1970 1.391 . S
H1972 C1980 0.950 . S
H1973 C1985 0.950 . S
H1974 C1982 0.950 . S
H1975 C1984 0.950 . S
H1976 C1986 0.950 . S
H1977 C1988 0.950 . S
H1978 C1990 0.950 . S
H1979 C1991 0.950 . S
C1980 H1972 0.950 . S
C1980 C1981 1.386 . S
C1980 C1982 1.391 . S
C1981 C1980 1.386 . S
C1981 C1985 1.393 . S
C1982 H1974 0.950 . S
C1982 C1980 1.391 . S
C1982 C1983 1.400 . S
C1983 C1982 1.400 . S
C1983 C1984 1.398 . S
C1983 C1989 1.491 . S
C1984 H1975 0.950 . S
C1984 C1983 1.398 . S
C1984 C1985 1.391 . S
C1985 H1973 0.950 . S
C1985 C1981 1.393 . S
C1985 C1984 1.391 . S
C1986 H1976 0.950 . S
C1986 C1987 1.386 . S
C1986 C1988 1.391 . S
C1987 C1986 1.386 . S
C1987 C1991 1.393 . S
C1988 H1977 0.950 . S
C1988 C1986 1.391 . S
C1988 C1989 1.400 . S
C1989 C1983 1.491 . S
C1989 C1988 1.400 . S
C1989 C1990 1.398 . S
C1990 H1978 0.950 . S
C1990 C1989 1.398 . S
C1990 C1991 1.391 . S
C1991 H1979 0.950 . S
C1991 C1987 1.393 . S
C1991 C1990 1.391 . S
H1992 C2000 0.950 . S
H1993 C2005 0.950 . S
H1994 C2002 0.950 . S
H1995 C2004 0.950 . S
H1996 C2006 0.950 . S
H1997 C2008 0.950 . S
H1998 C2010 0.950 . S
H1999 C2011 0.950 . S
C2000 H1992 0.950 . S
C2000 C2001 1.386 . S
C2000 C2002 1.391 . S
C2001 C2000 1.386 . S
C2001 C2005 1.393 . S
C2002 H1994 0.950 . S
C2002 C2000 1.391 . S
C2002 C2003 1.400 . S
C2003 C2002 1.400 . S
C2003 C2004 1.398 . S
C2003 C2009 1.491 . S
C2004 H1995 0.950 . S
C2004 C2003 1.398 . S
C2004 C2005 1.391 . S
C2005 H1993 0.950 . S
C2005 C2001 1.393 . S
C2005 C2004 1.391 . S
C2006 H1996 0.950 . S
C2006 C2007 1.386 . S
C2006 C2008 1.391 . S
C2007 C2006 1.386 . S
C2007 C2011 1.393 . S
C2008 H1997 0.950 . S
C2008 C2006 1.391 . S
C2008 C2009 1.400 . S
C2009 C2003 1.491 . S
C2009 C2008 1.400 . S
C2009 C2010 1.398 . S
C2010 H1998 0.950 . S
C2010 C2009 1.398 . S
C2010 C2011 1.391 . S
C2011 H1999 0.950 . S
C2011 C2007 1.393 . S
C2011 C2010 1.391 . S
H2012 C2020 0.950 . S
H2013 C2025 0.950 . S
H2014 C2022 0.950 . S
H2015 C2024 0.950 . S
H2016 C2026 0.950 . S
H2017 C2028 0.950 . S
H2018 C2030 0.950 . S
H2019 C2031 0.950 . S
C2020 H2012 0.950 . S
C2020 C2021 1.386 . S
C2020 C2022 1.391 . S
C2021 C2020 1.386 . S
C2021 C2025 1.393 . S
C2022 H2014 0.950 . S
C2022 C2020 1.391 . S
C2022 C2023 1.400 . S
C2023 C2022 1.400 . S
C2023 C2024 1.398 . S
C2023 C2029 1.491 . S
C2024 H2015 0.950 . S
C2024 C2023 1.398 . S
C2024 C2025 1.391 . S
C2025 H2013 0.950 . S
C2025 C2021 1.393 . S
C2025 C2024 1.391 . S
C2026 H2016 0.950 . S
C2026 C2027 1.386 . S
C2026 C2028 1.391 . S
C2027 C2026 1.386 . S
C2027 C2031 1.393 . S
C2028 H2017 0.950 . S
C2028 C2026 1.391 . S
C2028 C2029 1.400 . S
C2029 C2023 1.491 . S
C2029 C2028 1.400 . S
C2029 C2030 1.398 . S
C2030 H2018 0.950 . S
C2030 C2029 1.398 . S
C2030 C2031 1.391 . S
C2031 H2019 0.950 . S
C2031 C2027 1.393 . S
C2031 C2030 1.391 . S
H2032 C2040 0.950 . S
H2033 C2045 0.950 . S
H2034 C2042 0.950 . S
H2035 C2044 0.950 . S
H2036 C2046 0.950 . S
H2037 C2048 0.950 . S
H2038 C2050 0.950 . S
H2039 C2051 0.950 . S
C2040 H2032 0.950 . S
C2040 C2041 1.386 . S
C2040 C2042 1.391 . S
C2041 C2040 1.386 . S
C2041 C2045 1.393 . S
C2042 H2034 0.950 . S
C2042 C2040 1.391 . S
C2042 C2043 1.400 . S
C2043 C2042 1.400 . S
C2043 C2044 1.398 . S
C2043 C2049 1.491 . S
C2044 H2035 0.950 . S
C2044 C2043 1.398 . S
C2044 C2045 1.391 . S
C2045 H2033 0.950 . S
C2045 C2041 1.393 . S
C2045 C2044 1.391 . S
C2046 H2036 0.950 . S
C2046 C2047 1.386 . S
C2046 C2048 1.391 . S
C2047 C2046 1.386 . S
C2047 C2051 1.393 . S
C2048 H2037 0.950 . S
C2048 C2046 1.391 . S
C2048 C2049 1.400 . S
C2049 C2043 1.491 . S
C2049 C2048 1.400 . S
C2049 C2050 1.398 . S
C2050 H2038 0.950 . S
C2050 C2049 1.398 . S
C2050 C2051 1.391 . S
C2051 H2039 0.950 . S
C2051 C2047 1.393 . S
C2051 C2050 1.391 . S
H2052 C2060 0.950 . S
H2053 C2065 0.950 . S
H2054 C2062 0.950 . S
H2055 C2064 0.950 . S
H2056 C2066 0.950 . S
H2057 C2068 0.950 . S
H2058 C2070 0.950 . S
H2059 C2071 0.950 . S
C2060 H2052 0.950 . S
C2060 C2061 1.386 . S
C2060 C2062 1.391 . S
C2061 C2060 1.386 . S
C2061 C2065 1.393 . S
C2062 H2054 0.950 . S
C2062 C2060 1.391 . S
C2062 C2063 1.400 . S
C2063 C2062 1.400 . S
C2063 C2064 1.398 . S
C2063 C2069 1.491 . S
C2064 H2055 0.950 . S
C2064 C2063 1.398 . S
C2064 C2065 1.391 . S
C2065 H2053 0.950 . S
C2065 C2061 1.393 . S
C2065 C2064 1.391 . S
C2066 H2056 0.950 . S
C2066 C2067 1.386 . S
C2066 C2068 1.391 . S
C2067 C2066 1.386 . S
C2067 C2071 1.393 . S
C2068 H2057 0.950 . S
C2068 C2066 1.391 . S
C2068 C2069 1.400 . S
C2069 C2063 1.491 . S
C2069 C2068 1.400 . S
C2069 C2070 1.398 . S
C2070 H2058 0.950 . S
C2070 C2069 1.398 . S
C2070 C2071 1.391 . S
C2071 H2059 0.950 . S
C2071 C2067 1.393 . S
C2071 C2070 1.391 . S
H2072 C2080 0.950 . S
H2073 C2085 0.950 . S
H2074 C2082 0.950 . S
H2075 C2084 0.950 . S
H2076 C2086 0.950 . S
H2077 C2088 0.950 . S
H2078 C2090 0.950 . S
H2079 C2091 0.950 . S
C2080 H2072 0.950 . S
C2080 C2081 1.386 . S
C2080 C2082 1.391 . S
C2081 C2080 1.386 . S
C2081 C2085 1.393 . S
C2082 H2074 0.950 . S
C2082 C2080 1.391 . S
C2082 C2083 1.400 . S
C2083 C2082 1.400 . S
C2083 C2084 1.398 . S
C2083 C2089 1.491 . S
C2084 H2075 0.950 . S
C2084 C2083 1.398 . S
C2084 C2085 1.391 . S
C2085 H2073 0.950 . S
C2085 C2081 1.393 . S
C2085 C2084 1.391 . S
C2086 H2076 0.950 . S
C2086 C2087 1.386 . S
C2086 C2088 1.391 . S
C2087 C2086 1.386 . S
C2087 C2091 1.393 . S
C2088 H2077 0.950 . S
C2088 C2086 1.391 . S
C2088 C2089 1.400 . S
C2089 C2083 1.491 . S
C2089 C2088 1.400 . S
C2089 C2090 1.398 . S
C2090 H2078 0.950 . S
C2090 C2089 1.398 . S
C2090 C2091 1.391 . S
C2091 H2079 0.950 . S
C2091 C2087 1.393 . S
C2091 C2090 1.391 . S
H2092 C2100 0.950 . S
H2093 C2105 0.950 . S
H2094 C2102 0.950 . S
H2095 C2104 0.950 . S
H2096 C2106 0.950 . S
H2097 C2108 0.950 . S
H2098 C2110 0.950 . S
H2099 C2111 0.950 . S
C2100 H2092 0.950 . S
C2100 C2101 1.386 . S
C2100 C2102 1.391 . S
C2101 C2100 1.386 . S
C2101 C2105 1.393 . S
C2102 H2094 0.950 . S
C2102 C2100 1.391 . S
C2102 C2103 1.400 . S
C2103 C2102 1.400 . S
C2103 C2104 1.398 . S
C2103 C2109 1.491 . S
C2104 H2095 0.950 . S
C2104 C2103 1.398 . S
C2104 C2105 1.391 . S
C2105 H2093 0.950 . S
C2105 C2101 1.393 . S
C2105 C2104 1.391 . S
C2106 H2096 0.950 . S
C2106 C2107 1.386 . S
C2106 C2108 1.391 . S
C2107 C2106 1.386 . S
C2107 C2111 1.393 . S
C2108 H2097 0.950 . S
C2108 C2106 1.391 . S
C2108 C2109 1.400 . S
C2109 C2103 1.491 . S
C2109 C2108 1.400 . S
C2109 C2110 1.398 . S
C2110 H2098 0.950 . S
C2110 C2109 1.398 . S
C2110 C2111 1.391 . S
C2111 H2099 0.950 . S
C2111 C2107 1.393 . S
C2111 C2110 1.391 . S
H2112 C2120 0.950 . S
H2113 C2125 0.950 . S
H2114 C2122 0.950 . S
H2115 C2124 0.950 . S
H2116 C2126 0.950 . S
H2117 C2128 0.950 . S
H2118 C2130 0.950 . S
H2119 C2131 0.950 . S
C2120 H2112 0.950 . S
C2120 C2121 1.386 . S
C2120 C2122 1.391 . S
C2121 C2120 1.386 . S
C2121 C2125 1.393 . S
C2122 H2114 0.950 . S
C2122 C2120 1.391 . S
C2122 C2123 1.400 . S
C2123 C2122 1.400 . S
C2123 C2124 1.398 . S
C2123 C2129 1.491 1_554 S
C2124 H2115 0.950 . S
C2124 C2123 1.398 . S
C2124 C2125 1.391 . S
C2125 H2113 0.950 . S
C2125 C2121 1.393 . S
C2125 C2124 1.391 . S
C2126 H2116 0.950 . S
C2126 C2127 1.386 . S
C2126 C2128 1.391 . S
C2127 C2126 1.386 . S
C2127 C2131 1.393 . S
C2128 H2117 0.950 . S
C2128 C2126 1.391 . S
C2128 C2129 1.400 . S
C2129 C2123 1.491 1_556 S
C2129 C2128 1.400 . S
C2129 C2130 1.398 . S
C2130 H2118 0.950 . S
C2130 C2129 1.398 . S
C2130 C2131 1.391 . S
C2131 H2119 0.950 . S
C2131 C2127 1.393 . S
C2131 C2130 1.391 . S
H2132 C2140 0.950 . S
H2133 C2145 0.950 . S
H2134 C2142 0.950 . S
H2135 C2144 0.950 . S
H2136 C2146 0.950 . S
H2137 C2148 0.950 . S
H2138 C2150 0.950 . S
H2139 C2151 0.950 . S
C2140 H2132 0.950 . S
C2140 C2141 1.386 . S
C2140 C2142 1.391 . S
C2141 C2140 1.386 . S
C2141 C2145 1.393 . S
C2142 H2134 0.950 . S
C2142 C2140 1.391 . S
C2142 C2143 1.400 . S
C2143 C2142 1.400 . S
C2143 C2144 1.398 . S
C2143 C2149 1.491 1_556 S
C2144 H2135 0.950 . S
C2144 C2143 1.398 . S
C2144 C2145 1.391 . S
C2145 H2133 0.950 . S
C2145 C2141 1.393 . S
C2145 C2144 1.391 . S
C2146 H2136 0.950 . S
C2146 C2147 1.386 . S
C2146 C2148 1.391 . S
C2147 C2146 1.386 . S
C2147 C2151 1.393 . S
C2148 H2137 0.950 . S
C2148 C2146 1.391 . S
C2148 C2149 1.400 . S
C2149 C2143 1.491 1_554 S
C2149 C2148 1.400 . S
C2149 C2150 1.398 . S
C2150 H2138 0.950 . S
C2150 C2149 1.398 . S
C2150 C2151 1.391 . S
C2151 H2139 0.950 . S
C2151 C2147 1.393 . S
C2151 C2150 1.391 . S
H2152 C2160 0.950 . S
H2153 C2165 0.950 . S
H2154 C2162 0.950 . S
H2155 C2164 0.950 . S
H2156 C2166 0.950 . S
H2157 C2168 0.950 . S
H2158 C2170 0.950 . S
H2159 C2171 0.950 . S
C2160 H2152 0.950 . S
C2160 C2161 1.386 . S
C2160 C2162 1.391 . S
C2161 C2160 1.386 . S
C2161 C2165 1.393 . S
C2162 H2154 0.950 . S
C2162 C2160 1.391 . S
C2162 C2163 1.400 . S
C2163 C2162 1.400 . S
C2163 C2164 1.398 . S
C2163 C2169 1.491 1_554 S
C2164 H2155 0.950 . S
C2164 C2163 1.398 . S
C2164 C2165 1.391 . S
C2165 H2153 0.950 . S
C2165 C2161 1.393 . S
C2165 C2164 1.391 . S
C2166 H2156 0.950 . S
C2166 C2167 1.386 . S
C2166 C2168 1.391 . S
C2167 C2166 1.386 . S
C2167 C2171 1.393 . S
C2168 H2157 0.950 . S
C2168 C2166 1.391 . S
C2168 C2169 1.400 . S
C2169 C2163 1.491 1_556 S
C2169 C2168 1.400 . S
C2169 C2170 1.398 . S
C2170 H2158 0.950 . S
C2170 C2169 1.398 . S
C2170 C2171 1.391 . S
C2171 H2159 0.950 . S
C2171 C2167 1.393 . S
C2171 C2170 1.391 . S
H2172 C2180 0.950 . S
H2173 C2185 0.950 . S
H2174 C2182 0.950 . S
H2175 C2184 0.950 . S
H2176 C2186 0.950 . S
H2177 C2188 0.950 . S
H2178 C2190 0.950 . S
H2179 C2191 0.950 . S
C2180 H2172 0.950 . S
C2180 C2181 1.386 . S
C2180 C2182 1.391 . S
C2181 C2180 1.386 . S
C2181 C2185 1.393 . S
C2182 H2174 0.950 . S
C2182 C2180 1.391 . S
C2182 C2183 1.400 . S
C2183 C2182 1.400 . S
C2183 C2184 1.398 . S
C2183 C2189 1.491 1_554 S
C2184 H2175 0.950 . S
C2184 C2183 1.398 . S
C2184 C2185 1.391 . S
C2185 H2173 0.950 . S
C2185 C2181 1.393 . S
C2185 C2184 1.391 . S
C2186 H2176 0.950 . S
C2186 C2187 1.386 . S
C2186 C2188 1.391 . S
C2187 C2186 1.386 . S
C2187 C2191 1.393 . S
C2188 H2177 0.950 . S
C2188 C2186 1.391 . S
C2188 C2189 1.400 . S
C2189 C2183 1.491 1_556 S
C2189 C2188 1.400 . S
C2189 C2190 1.398 . S
C2190 H2178 0.950 . S
C2190 C2189 1.398 . S
C2190 C2191 1.391 . S
C2191 H2179 0.950 . S
C2191 C2187 1.393 . S
C2191 C2190 1.391 . S
H2192 C2200 0.950 . S
H2193 C2205 0.950 . S
H2194 C2202 0.950 . S
H2195 C2204 0.950 . S
H2196 C2206 0.950 . S
H2197 C2208 0.950 . S
H2198 C2210 0.950 . S
H2199 C2211 0.950 . S
C2200 H2192 0.950 . S
C2200 C2201 1.386 . S
C2200 C2202 1.391 . S
C2201 C2200 1.386 . S
C2201 C2205 1.393 . S
C2202 H2194 0.950 . S
C2202 C2200 1.391 . S
C2202 C2203 1.400 . S
C2203 C2202 1.400 . S
C2203 C2204 1.398 . S
C2203 C2209 1.491 1_556 S
C2204 H2195 0.950 . S
C2204 C2203 1.398 . S
C2204 C2205 1.391 . S
C2205 H2193 0.950 . S
C2205 C2201 1.393 . S
C2205 C2204 1.391 . S
C2206 H2196 0.950 . S
C2206 C2207 1.386 . S
C2206 C2208 1.391 . S
C2207 C2206 1.386 . S
C2207 C2211 1.393 . S
C2208 H2197 0.950 . S
C2208 C2206 1.391 . S
C2208 C2209 1.400 . S
C2209 C2203 1.491 1_554 S
C2209 C2208 1.400 . S
C2209 C2210 1.398 . S
C2210 H2198 0.950 . S
C2210 C2209 1.398 . S
C2210 C2211 1.391 . S
C2211 H2199 0.950 . S
C2211 C2207 1.393 . S
C2211 C2210 1.391 . S
H2212 C2220 0.950 . S
H2213 C2225 0.950 . S
H2214 C2222 0.950 . S
H2215 C2224 0.950 . S
H2216 C2226 0.950 . S
H2217 C2228 0.950 . S
H2218 C2230 0.950 . S
H2219 C2231 0.950 . S
C2220 H2212 0.950 . S
C2220 C2221 1.386 . S
C2220 C2222 1.391 . S
C2221 C2220 1.386 . S
C2221 C2225 1.393 . S
C2222 H2214 0.950 . S
C2222 C2220 1.391 . S
C2222 C2223 1.400 . S
C2223 C2222 1.400 . S
C2223 C2224 1.398 . S
C2223 C2229 1.491 1_554 S
C2224 H2215 0.950 . S
C2224 C2223 1.398 . S
C2224 C2225 1.391 . S
C2225 H2213 0.950 . S
C2225 C2221 1.393 . S
C2225 C2224 1.391 . S
C2226 H2216 0.950 . S
C2226 C2227 1.386 . S
C2226 C2228 1.391 . S
C2227 C2226 1.386 . S
C2227 C2231 1.393 . S
C2228 H2217 0.950 . S
C2228 C2226 1.391 . S
C2228 C2229 1.400 . S
C2229 C2223 1.491 1_556 S
C2229 C2228 1.400 . S
C2229 C2230 1.398 . S
C2230 H2218 0.950 . S
C2230 C2229 1.398 . S
C2230 C2231 1.391 . S
C2231 H2219 0.950 . S
C2231 C2227 1.393 . S
C2231 C2230 1.391 . S
H2232 C2240 0.950 . S
H2233 C2245 0.950 . S
H2234 C2242 0.950 . S
H2235 C2244 0.950 . S
H2236 C2246 0.950 . S
H2237 C2248 0.950 . S
H2238 C2250 0.950 . S
H2239 C2251 0.950 . S
C2240 H2232 0.950 . S
C2240 C2241 1.386 . S
C2240 C2242 1.391 . S
C2241 C2240 1.386 . S
C2241 C2245 1.393 . S
C2242 H2234 0.950 . S
C2242 C2240 1.391 . S
C2242 C2243 1.400 . S
C2243 C2242 1.400 . S
C2243 C2244 1.398 . S
C2243 C2249 1.491 1_556 S
C2244 H2235 0.950 . S
C2244 C2243 1.398 . S
C2244 C2245 1.391 . S
C2245 H2233 0.950 . S
C2245 C2241 1.393 . S
C2245 C2244 1.391 . S
C2246 H2236 0.950 . S
C2246 C2247 1.386 . S
C2246 C2248 1.391 . S
C2247 C2246 1.386 . S
C2247 C2251 1.393 . S
C2248 H2237 0.950 . S
C2248 C2246 1.391 . S
C2248 C2249 1.400 . S
C2249 C2243 1.491 1_554 S
C2249 C2248 1.400 . S
C2249 C2250 1.398 . S
C2250 H2238 0.950 . S
C2250 C2249 1.398 . S
C2250 C2251 1.391 . S
C2251 H2239 0.950 . S
C2251 C2247 1.393 . S
C2251 C2250 1.391 . S
H2252 C2260 0.950 . S
H2253 C2265 0.950 . S
H2254 C2262 0.950 . S
H2255 C2264 0.950 . S
H2256 C2266 0.950 . S
H2257 C2268 0.950 . S
H2258 C2270 0.950 . S
H2259 C2271 0.950 . S
C2260 H2252 0.950 . S
C2260 C2261 1.386 . S
C2260 C2262 1.391 . S
C2261 C2260 1.386 . S
C2261 C2265 1.393 . S
C2262 H2254 0.950 . S
C2262 C2260 1.391 . S
C2262 C2263 1.400 . S
C2263 C2262 1.400 . S
C2263 C2264 1.398 . S
C2263 C2269 1.491 1_554 S
C2264 H2255 0.950 . S
C2264 C2263 1.398 . S
C2264 C2265 1.391 . S
C2265 H2253 0.950 . S
C2265 C2261 1.393 . S
C2265 C2264 1.391 . S
C2266 H2256 0.950 . S
C2266 C2267 1.386 . S
C2266 C2268 1.391 . S
C2267 C2266 1.386 . S
C2267 C2271 1.393 . S
C2268 H2257 0.950 . S
C2268 C2266 1.391 . S
C2268 C2269 1.400 . S
C2269 C2263 1.491 1_556 S
C2269 C2268 1.400 . S
C2269 C2270 1.398 . S
C2270 H2258 0.950 . S
C2270 C2269 1.398 . S
C2270 C2271 1.391 . S
C2271 H2259 0.950 . S
C2271 C2267 1.393 . S
C2271 C2270 1.391 . S
H2272 C2280 0.950 . S
H2273 C2285 0.950 . S
H2274 C2282 0.950 . S
H2275 C2284 0.950 . S
H2276 C2286 0.950 . S
H2277 C2288 0.950 . S
H2278 C2290 0.950 . S
H2279 C2291 0.950 . S
C2280 H2272 0.950 . S
C2280 C2281 1.386 . S
C2280 C2282 1.391 . S
C2281 C2280 1.386 . S
C2281 C2285 1.393 . S
C2282 H2274 0.950 . S
C2282 C2280 1.391 . S
C2282 C2283 1.400 . S
C2283 C2282 1.400 . S
C2283 C2284 1.398 . S
C2283 C2289 1.491 1_455 S
C2284 H2275 0.950 . S
C2284 C2283 1.398 . S
C2284 C2285 1.391 . S
C2285 H2273 0.950 . S
C2285 C2281 1.393 . S
C2285 C2284 1.391 . S
C2286 H2276 0.950 . S
C2286 C2287 1.386 . S
C2286 C2288 1.391 . S
C2287 C2286 1.386 . S
C2287 C2291 1.393 . S
C2288 H2277 0.950 . S
C2288 C2286 1.391 . S
C2288 C2289 1.400 . S
C2289 C2283 1.491 1_655 S
C2289 C2288 1.400 . S
C2289 C2290 1.398 . S
C2290 H2278 0.950 . S
C2290 C2289 1.398 . S
C2290 C2291 1.391 . S
C2291 H2279 0.950 . S
C2291 C2287 1.393 . S
C2291 C2290 1.391 . S
H2292 C2300 0.950 . S
H2293 C2305 0.950 . S
H2294 C2302 0.950 . S
H2295 C2304 0.950 . S
H2296 C2306 0.950 . S
H2297 C2308 0.950 . S
H2298 C2310 0.950 . S
H2299 C2311 0.950 . S
C2300 H2292 0.950 . S
C2300 C2301 1.386 . S
C2300 C2302 1.391 . S
C2301 C2300 1.386 . S
C2301 C2305 1.393 . S
C2302 H2294 0.950 . S
C2302 C2300 1.391 . S
C2302 C2303 1.400 . S
C2303 C2302 1.400 . S
C2303 C2304 1.398 . S
C2303 C2309 1.491 1_565 S
C2304 H2295 0.950 . S
C2304 C2303 1.398 . S
C2304 C2305 1.391 . S
C2305 H2293 0.950 . S
C2305 C2301 1.393 . S
C2305 C2304 1.391 . S
C2306 H2296 0.950 . S
C2306 C2307 1.386 . S
C2306 C2308 1.391 . S
C2307 C2306 1.386 . S
C2307 C2311 1.393 . S
C2308 H2297 0.950 . S
C2308 C2306 1.391 . S
C2308 C2309 1.400 . S
C2309 C2303 1.491 1_545 S
C2309 C2308 1.400 . S
C2309 C2310 1.398 . S
C2310 H2298 0.950 . S
C2310 C2309 1.398 . S
C2310 C2311 1.391 . S
C2311 H2299 0.950 . S
C2311 C2307 1.393 . S
C2311 C2310 1.391 . S
H2312 C2320 0.950 . S
H2313 C2325 0.950 . S
H2314 C2322 0.950 . S
H2315 C2324 0.950 . S
H2316 C2326 0.950 . S
H2317 C2328 0.950 . S
H2318 C2330 0.950 . S
H2319 C2331 0.950 . S
C2320 H2312 0.950 . S
C2320 C2321 1.386 . S
C2320 C2322 1.391 . S
C2321 C2320 1.386 . S
C2321 C2325 1.393 . S
C2322 H2314 0.950 . S
C2322 C2320 1.391 . S
C2322 C2323 1.400 . S
C2323 C2322 1.400 . S
C2323 C2324 1.398 . S
C2323 C2329 1.491 1_455 S
C2324 H2315 0.950 . S
C2324 C2323 1.398 . S
C2324 C2325 1.391 . S
C2325 H2313 0.950 . S
C2325 C2321 1.393 . S
C2325 C2324 1.391 . S
C2326 H2316 0.950 . S
C2326 C2327 1.386 . S
C2326 C2328 1.391 . S
C2327 C2326 1.386 . S
C2327 C2331 1.393 . S
C2328 H2317 0.950 . S
C2328 C2326 1.391 . S
C2328 C2329 1.400 . S
C2329 C2323 1.491 1_655 S
C2329 C2328 1.400 . S
C2329 C2330 1.398 . S
C2330 H2318 0.950 . S
C2330 C2329 1.398 . S
C2330 C2331 1.391 . S
C2331 H2319 0.950 . S
C2331 C2327 1.393 . S
C2331 C2330 1.391 . S
H2332 C2340 0.950 . S
H2333 C2345 0.950 . S
H2334 C2342 0.950 . S
H2335 C2344 0.950 . S
H2336 C2346 0.950 . S
H2337 C2348 0.950 . S
H2338 C2350 0.950 . S
H2339 C2351 0.950 . S
C2340 H2332 0.950 . S
C2340 C2341 1.386 . S
C2340 C2342 1.391 . S
C2341 C2340 1.386 . S
C2341 C2345 1.393 . S
C2342 H2334 0.950 . S
C2342 C2340 1.391 . S
C2342 C2343 1.400 . S
C2343 C2342 1.400 . S
C2343 C2344 1.398 . S
C2343 C2349 1.491 1_565 S
C2344 H2335 0.950 . S
C2344 C2343 1.398 . S
C2344 C2345 1.391 . S
C2345 H2333 0.950 . S
C2345 C2341 1.393 . S
C2345 C2344 1.391 . S
C2346 H2336 0.950 . S
C2346 C2347 1.386 . S
C2346 C2348 1.391 . S
C2347 C2346 1.386 . S
C2347 C2351 1.393 . S
C2348 H2337 0.950 . S
C2348 C2346 1.391 . S
C2348 C2349 1.400 . S
C2349 C2343 1.491 1_545 S
C2349 C2348 1.400 . S
C2349 C2350 1.398 . S
C2350 H2338 0.950 . S
C2350 C2349 1.398 . S
C2350 C2351 1.391 . S
C2351 H2339 0.950 . S
C2351 C2347 1.393 . S
C2351 C2350 1.391 . S
H2352 C2360 0.950 . S
H2353 C2365 0.950 . S
H2354 C2362 0.950 . S
H2355 C2364 0.950 . S
H2356 C2366 0.950 . S
H2357 C2368 0.950 . S
H2358 C2370 0.950 . S
H2359 C2371 0.950 . S
C2360 H2352 0.950 . S
C2360 C2361 1.386 . S
C2360 C2362 1.391 . S
C2361 C2360 1.386 . S
C2361 C2365 1.393 . S
C2362 H2354 0.950 . S
C2362 C2360 1.391 . S
C2362 C2363 1.400 . S
C2363 C2362 1.400 . S
C2363 C2364 1.398 . S
C2363 C2369 1.491 1_655 S
C2364 H2355 0.950 . S
C2364 C2363 1.398 . S
C2364 C2365 1.391 . S
C2365 H2353 0.950 . S
C2365 C2361 1.393 . S
C2365 C2364 1.391 . S
C2366 H2356 0.950 . S
C2366 C2367 1.386 . S
C2366 C2368 1.391 . S
C2367 C2366 1.386 . S
C2367 C2371 1.393 . S
C2368 H2357 0.950 . S
C2368 C2366 1.391 . S
C2368 C2369 1.400 . S
C2369 C2363 1.491 1_455 S
C2369 C2368 1.400 . S
C2369 C2370 1.398 . S
C2370 H2358 0.950 . S
C2370 C2369 1.398 . S
C2370 C2371 1.391 . S
C2371 H2359 0.950 . S
C2371 C2367 1.393 . S
C2371 C2370 1.391 . S
H2372 C2380 0.950 . S
H2373 C2385 0.950 . S
H2374 C2382 0.950 . S
H2375 C2384 0.950 . S
H2376 C2386 0.950 . S
H2377 C2388 0.950 . S
H2378 C2390 0.950 . S
H2379 C2391 0.950 . S
C2380 H2372 0.950 . S
C2380 C2381 1.386 . S
C2380 C2382 1.391 . S
C2381 C2380 1.386 . S
C2381 C2385 1.393 . S
C2382 H2374 0.950 . S
C2382 C2380 1.391 . S
C2382 C2383 1.400 . S
C2383 C2382 1.400 . S
C2383 C2384 1.398 . S
C2383 C2389 1.491 1_545 S
C2384 H2375 0.950 . S
C2384 C2383 1.398 . S
C2384 C2385 1.391 . S
C2385 H2373 0.950 . S
C2385 C2381 1.393 . S
C2385 C2384 1.391 . S
C2386 H2376 0.950 . S
C2386 C2387 1.386 . S
C2386 C2388 1.391 . S
C2387 C2386 1.386 . S
C2387 C2391 1.393 . S
C2388 H2377 0.950 . S
C2388 C2386 1.391 . S
C2388 C2389 1.400 . S
C2389 C2383 1.491 1_565 S
C2389 C2388 1.400 . S
C2389 C2390 1.398 . S
C2390 H2378 0.950 . S
C2390 C2389 1.398 . S
C2390 C2391 1.391 . S
C2391 H2379 0.950 . S
C2391 C2387 1.393 . S
C2391 C2390 1.391 . S
H2392 C2400 0.950 . S
H2393 C2405 0.950 . S
H2394 C2402 0.950 . S
H2395 C2404 0.950 . S
H2396 C2406 0.950 . S
H2397 C2408 0.950 . S
H2398 C2410 0.950 . S
H2399 C2411 0.950 . S
C2400 H2392 0.950 . S
C2400 C2401 1.386 . S
C2400 C2402 1.391 . S
C2401 C2400 1.386 . S
C2401 C2405 1.393 . S
C2402 H2394 0.950 . S
C2402 C2400 1.391 . S
C2402 C2403 1.400 . S
C2403 C2402 1.400 . S
C2403 C2404 1.398 . S
C2403 C2409 1.491 1_455 S
C2404 H2395 0.950 . S
C2404 C2403 1.398 . S
C2404 C2405 1.391 . S
C2405 H2393 0.950 . S
C2405 C2401 1.393 . S
C2405 C2404 1.391 . S
C2406 H2396 0.950 . S
C2406 C2407 1.386 . S
C2406 C2408 1.391 . S
C2407 C2406 1.386 . S
C2407 C2411 1.393 . S
C2408 H2397 0.950 . S
C2408 C2406 1.391 . S
C2408 C2409 1.400 . S
C2409 C2403 1.491 1_655 S
C2409 C2408 1.400 . S
C2409 C2410 1.398 . S
C2410 H2398 0.950 . S
C2410 C2409 1.398 . S
C2410 C2411 1.391 . S
C2411 H2399 0.950 . S
C2411 C2407 1.393 . S
C2411 C2410 1.391 . S
H2412 C2420 0.950 . S
H2413 C2425 0.950 . S
H2414 C2422 0.950 . S
H2415 C2424 0.950 . S
H2416 C2426 0.950 . S
H2417 C2428 0.950 . S
H2418 C2430 0.950 . S
H2419 C2431 0.950 . S
C2420 H2412 0.950 . S
C2420 C2421 1.386 . S
C2420 C2422 1.391 . S
C2421 C2420 1.386 . S
C2421 C2425 1.393 . S
C2422 H2414 0.950 . S
C2422 C2420 1.391 . S
C2422 C2423 1.400 . S
C2423 C2422 1.400 . S
C2423 C2424 1.398 . S
C2423 C2429 1.491 1_545 S
C2424 H2415 0.950 . S
C2424 C2423 1.398 . S
C2424 C2425 1.391 . S
C2425 H2413 0.950 . S
C2425 C2421 1.393 . S
C2425 C2424 1.391 . S
C2426 H2416 0.950 . S
C2426 C2427 1.386 . S
C2426 C2428 1.391 . S
C2427 C2426 1.386 . S
C2427 C2431 1.393 . S
C2428 H2417 0.950 . S
C2428 C2426 1.391 . S
C2428 C2429 1.400 . S
C2429 C2423 1.491 1_565 S
C2429 C2428 1.400 . S
C2429 C2430 1.398 . S
C2430 H2418 0.950 . S
C2430 C2429 1.398 . S
C2430 C2431 1.391 . S
C2431 H2419 0.950 . S
C2431 C2427 1.393 . S
C2431 C2430 1.391 . S
H2432 C2440 0.950 . S
H2433 C2445 0.950 . S
H2434 C2442 0.950 . S
H2435 C2444 0.950 . S
H2436 C2446 0.950 . S
H2437 C2448 0.950 . S
H2438 C2450 0.950 . S
H2439 C2451 0.950 . S
C2440 H2432 0.950 . S
C2440 C2441 1.386 . S
C2440 C2442 1.391 . S
C2441 C2440 1.386 . S
C2441 C2445 1.393 . S
C2442 H2434 0.950 . S
C2442 C2440 1.391 . S
C2442 C2443 1.400 . S
C2443 C2442 1.400 . S
C2443 C2444 1.398 . S
C2443 C2449 1.491 1_545 S
C2444 H2435 0.950 . S
C2444 C2443 1.398 . S
C2444 C2445 1.391 . S
C2445 H2433 0.950 . S
C2445 C2441 1.393 . S
C2445 C2444 1.391 . S
C2446 H2436 0.950 . S
C2446 C2447 1.386 . S
C2446 C2448 1.391 . S
C2447 C2446 1.386 . S
C2447 C2451 1.393 . S
C2448 H2437 0.950 . S
C2448 C2446 1.391 . S
C2448 C2449 1.400 . S
C2449 C2443 1.491 1_565 S
C2449 C2448 1.400 . S
C2449 C2450 1.398 . S
C2450 H2438 0.950 . S
C2450 C2449 1.398 . S
C2450 C2451 1.391 . S
C2451 H2439 0.950 . S
C2451 C2447 1.393 . S
C2451 C2450 1.391 . S
H2452 C2460 0.950 . S
H2453 C2465 0.950 . S
H2454 C2462 0.950 . S
H2455 C2464 0.950 . S
H2456 C2466 0.950 . S
H2457 C2468 0.950 . S
H2458 C2470 0.950 . S
H2459 C2471 0.950 . S
C2460 H2452 0.950 . S
C2460 C2461 1.386 . S
C2460 C2462 1.391 . S
C2461 C2460 1.386 . S
C2461 C2465 1.393 . S
C2462 H2454 0.950 . S
C2462 C2460 1.391 . S
C2462 C2463 1.400 . S
C2463 C2462 1.400 . S
C2463 C2464 1.398 . S
C2463 C2469 1.491 1_545 S
C2464 H2455 0.950 . S
C2464 C2463 1.398 . S
C2464 C2465 1.391 . S
C2465 H2453 0.950 . S
C2465 C2461 1.393 . S
C2465 C2464 1.391 . S
C2466 H2456 0.950 . S
C2466 C2467 1.386 . S
C2466 C2468 1.391 . S
C2467 C2466 1.386 . S
C2467 C2471 1.393 . S
C2468 H2457 0.950 . S
C2468 C2466 1.391 . S
C2468 C2469 1.400 . S
C2469 C2463 1.491 1_565 S
C2469 C2468 1.400 . S
C2469 C2470 1.398 . S
C2470 H2458 0.950 . S
C2470 C2469 1.398 . S
C2470 C2471 1.391 . S
C2471 H2459 0.950 . S
C2471 C2467 1.393 . S
C2471 C2470 1.391 . S
H2472 C2480 0.950 . S
H2473 C2485 0.950 . S
H2474 C2482 0.950 . S
H2475 C2484 0.950 . S
H2476 C2486 0.950 . S
H2477 C2488 0.950 . S
H2478 C2490 0.950 . S
H2479 C2491 0.950 . S
C2480 H2472 0.950 . S
C2480 C2481 1.386 . S
C2480 C2482 1.391 . S
C2481 C2480 1.386 . S
C2481 C2485 1.393 . S
C2482 H2474 0.950 . S
C2482 C2480 1.391 . S
C2482 C2483 1.400 . S
C2483 C2482 1.400 . S
C2483 C2484 1.398 . S
C2483 C2489 1.491 1_655 S
C2484 H2475 0.950 . S
C2484 C2483 1.398 . S
C2484 C2485 1.391 . S
C2485 H2473 0.950 . S
C2485 C2481 1.393 . S
C2485 C2484 1.391 . S
C2486 H2476 0.950 . S
C2486 C2487 1.386 . S
C2486 C2488 1.391 . S
C2487 C2486 1.386 . S
C2487 C2491 1.393 . S
C2488 H2477 0.950 . S
C2488 C2486 1.391 . S
C2488 C2489 1.400 . S
C2489 C2483 1.491 1_455 S
C2489 C2488 1.400 . S
C2489 C2490 1.398 . S
C2490 H2478 0.950 . S
C2490 C2489 1.398 . S
C2490 C2491 1.391 . S
C2491 H2479 0.950 . S
C2491 C2487 1.393 . S
C2491 C2490 1.391 . S
H2492 C2500 0.950 . S
H2493 C2505 0.950 . S
H2494 C2502 0.950 . S
H2495 C2504 0.950 . S
H2496 C2506 0.950 . S
H2497 C2508 0.950 . S
H2498 C2510 0.950 . S
H2499 C2511 0.950 . S
C2500 H2492 0.950 . S
C2500 C2501 1.386 . S
C2500 C2502 1.391 . S
C2501 C2500 1.386 . S
C2501 C2505 1.393 . S
C2502 H2494 0.950 . S
C2502 C2500 1.391 . S
C2502 C2503 1.400 . S
C2503 C2502 1.400 . S
C2503 C2504 1.398 . S
C2503 C2509 1.491 1_545 S
C2504 H2495 0.950 . S
C2504 C2503 1.398 . S
C2504 C2505 1.391 . S
C2505 H2493 0.950 . S
C2505 C2501 1.393 . S
C2505 C2504 1.391 . S
C2506 H2496 0.950 . S
C2506 C2507 1.386 . S
C2506 C2508 1.391 . S
C2507 C2506 1.386 . S
C2507 C2511 1.393 . S
C2508 H2497 0.950 . S
C2508 C2506 1.391 . S
C2508 C2509 1.400 . S
C2509 C2503 1.491 1_565 S
C2509 C2508 1.400 . S
C2509 C2510 1.398 . S
C2510 H2498 0.950 . S
C2510 C2509 1.398 . S
C2510 C2511 1.391 . S
C2511 H2499 0.950 . S
C2511 C2507 1.393 . S
C2511 C2510 1.391 . S
H2512 C2520 0.950 . S
H2513 C2525 0.950 . S
H2514 C2522 0.950 . S
H2515 C2524 0.950 . S
H2516 C2526 0.950 . S
H2517 C2528 0.950 . S
H2518 C2530 0.950 . S
H2519 C2531 0.950 . S
C2520 H2512 0.950 . S
C2520 C2521 1.386 . S
C2520 C2522 1.391 . S
C2521 C2520 1.386 . S
C2521 C2525 1.393 . S
C2522 H2514 0.950 . S
C2522 C2520 1.391 . S
C2522 C2523 1.400 . S
C2523 C2522 1.400 . S
C2523 C2524 1.398 . S
C2523 C2529 1.491 1_455 S
C2524 H2515 0.950 . S
C2524 C2523 1.398 . S
C2524 C2525 1.391 . S
C2525 H2513 0.950 . S
C2525 C2521 1.393 . S
C2525 C2524 1.391 . S
C2526 H2516 0.950 . S
C2526 C2527 1.386 . S
C2526 C2528 1.391 . S
C2527 C2526 1.386 . S
C2527 C2531 1.393 . S
C2528 H2517 0.950 . S
C2528 C2526 1.391 . S
C2528 C2529 1.400 . S
C2529 C2523 1.491 1_655 S
C2529 C2528 1.400 . S
C2529 C2530 1.398 . S
C2530 H2518 0.950 . S
C2530 C2529 1.398 . S
C2530 C2531 1.391 . S
C2531 H2519 0.950 . S
C2531 C2527 1.393 . S
C2531 C2530 1.391 . S
H2532 C2540 0.950 . S
H2533 C2545 0.950 . S
H2534 C2542 0.950 . S
H2535 C2544 0.950 . S
H2536 C2546 0.950 . S
H2537 C2548 0.950 . S
H2538 C2550 0.950 . S
H2539 C2551 0.950 . S
C2540 H2532 0.950 . S
C2540 C2541 1.386 . S
C2540 C2542 1.391 . S
C2541 C2540 1.386 . S
C2541 C2545 1.393 . S
C2542 H2534 0.950 . S
C2542 C2540 1.391 . S
C2542 C2543 1.400 . S
C2543 C2542 1.400 . S
C2543 C2544 1.398 . S
C2543 C2549 1.491 1_545 S
C2544 H2535 0.950 . S
C2544 C2543 1.398 . S
C2544 C2545 1.391 . S
C2545 H2533 0.950 . S
C2545 C2541 1.393 . S
C2545 C2544 1.391 . S
C2546 H2536 0.950 . S
C2546 C2547 1.386 . S
C2546 C2548 1.391 . S
C2547 C2546 1.386 . S
C2547 C2551 1.393 . S
C2548 H2537 0.950 . S
C2548 C2546 1.391 . S
C2548 C2549 1.400 . S
C2549 C2543 1.491 1_565 S
C2549 C2548 1.400 . S
C2549 C2550 1.398 . S
C2550 H2538 0.950 . S
C2550 C2549 1.398 . S
C2550 C2551 1.391 . S
C2551 H2539 0.950 . S
C2551 C2547 1.393 . S
C2551 C2550 1.391 . S
H2552 C2560 0.950 . S
H2553 C2565 0.950 . S
H2554 C2562 0.950 . S
H2555 C2564 0.950 . S
H2556 C2566 0.950 . S
H2557 C2568 0.950 . S
H2558 C2570 0.950 . S
H2559 C2571 0.950 . S
C2560 H2552 0.950 . S
C2560 C2561 1.386 . S
C2560 C2562 1.391 . S
C2561 C2560 1.386 . S
C2561 C2565 1.393 . S
C2562 H2554 0.950 . S
C2562 C2560 1.391 . S
C2562 C2563 1.400 . S
C2563 C2562 1.400 . S
C2563 C2564 1.398 . S
C2563 C2569 1.491 1_655 S
C2564 H2555 0.950 . S
C2564 C2563 1.398 . S
C2564 C2565 1.391 . S
C2565 H2553 0.950 . S
C2565 C2561 1.393 . S
C2565 C2564 1.391 . S
C2566 H2556 0.950 . S
C2566 C2567 1.386 . S
C2566 C2568 1.391 . S
C2567 C2566 1.386 . S
C2567 C2571 1.393 . S
C2568 H2557 0.950 . S
C2568 C2566 1.391 . S
C2568 C2569 1.400 . S
C2569 C2563 1.491 1_455 S
C2569 C2568 1.400 . S
C2569 C2570 1.398 . S
C2570 H2558 0.950 . S
C2570 C2569 1.398 . S
C2570 C2571 1.391 . S
C2571 H2559 0.950 . S
C2571 C2567 1.393 . S
C2571 C2570 1.391 . S
H2572 C2580 0.950 . S
H2573 C2585 0.950 . S
H2574 C2582 0.950 . S
H2575 C2584 0.950 . S
H2576 C2586 0.950 . S
H2577 C2588 0.950 . S
H2578 C2590 0.950 . S
H2579 C2591 0.950 . S
C2580 H2572 0.950 . S
C2580 C2581 1.386 . S
C2580 C2582 1.391 . S
C2581 C2580 1.386 . S
C2581 C2585 1.393 . S
C2582 H2574 0.950 . S
C2582 C2580 1.391 . S
C2582 C2583 1.400 . S
C2583 C2582 1.400 . S
C2583 C2584 1.398 . S
C2583 C2589 1.491 1_455 S
C2584 H2575 0.950 . S
C2584 C2583 1.398 . S
C2584 C2585 1.391 . S
C2585 H2573 0.950 . S
C2585 C2581 1.393 . S
C2585 C2584 1.391 . S
C2586 H2576 0.950 . S
C2586 C2587 1.386 . S
C2586 C2588 1.391 . S
C2587 C2586 1.386 . S
C2587 C2591 1.393 . S
C2588 H2577 0.950 . S
C2588 C2586 1.391 . S
C2588 C2589 1.400 . S
C2589 C2583 1.491 1_655 S
C2589 C2588 1.400 . S
C2589 C2590 1.398 . S
C2590 H2578 0.950 . S
C2590 C2589 1.398 . S
C2590 C2591 1.391 . S
C2591 H2579 0.950 . S
C2591 C2587 1.393 . S
C2591 C2590 1.391 . S
C681 C546 1.322 . S
C687 C11 1.341 . S
C701 C25 1.201 . S
C707 C504 1.213 . S
C721 C39 1.301 . S
C727 C529 1.287 . S
C741 C543 1.168 . S
C747 C53 1.167 . S
C761 C473 1.217 . S
C767 C67 1.228 . S
C781 C70 1.219 . S
C787 C487 1.208 . S
C801 C95 1.260 . S
C807 C490 1.268 . S
C821 C98 1.255 . S
C827 C448 1.245 . S
C841 C112 1.394 . S
C847 C434 1.398 . S
C861 C403 1.208 . S
C867 C137 1.216 . S
C881 C406 1.339 . S
C887 C140 1.327 . S
C901 C165 1.266 . S
C907 C431 1.277 . S
C921 C168 1.224 . S
C927 C361 1.240 . S
C941 C193 1.283 . S
C947 C364 1.288 . S
C961 C389 1.167 . S
C967 C196 1.179 . S
C981 C336 1.349 . S
C987 C221 1.344 . S
C1001 C235 1.215 . S
C1007 C627 1.207 . S
C1021 C658 1.226 . S
C1027 C238 1.240 . S
C1041 C641 1.347 . S
C1047 C252 1.350 . S
C1061 C644 1.157 . S
C1067 C266 1.163 . S
C1081 C571 1.334 . S
C1087 C280 1.328 . S
C1101 C599 1.231 . S
C1107 C305 1.222 . S
C1121 C308 1.269 . S
C1127 C602 1.251 . S
C1141 C574 1.184 . S
C1147 C322 1.192 . S
C1161 C459 1.311 . S
C1167 C291 1.301 . S
C1181 C249 1.210 . S
C1187 C462 1.192 . S
C1201 C476 1.310 . S
C1207 C263 1.331 . S
C1221 C501 1.180 . S
C1227 C277 1.164 . S
C1241 C333 1.232 . S
C1247 C515 1.224 . S
C1261 C518 1.233 . S
C1267 C294 1.243 . S
C1281 C319 1.253 . S
C1287 C532 1.264 . S
C1301 C224 1.215 . S
C1307 C557 1.233 . S
C1321 C560 1.398 . S
C1327 C210 1.383 . S
C1341 C179 1.288 . S
C1347 C669 1.277 . S
C1361 C630 1.339 . S
C1367 C182 1.338 . S
C1381 C207 1.192 . S
C1387 C655 1.208 . S
C1401 C126 1.150 . S
C1407 C585 1.166 . S
C1421 C151 1.287 . S
C1427 C588 1.296 . S
C1441 C154 1.235 . S
C1447 C613 1.255 . S
C1461 C616 1.330 . S
C1467 C123 1.348 . S
C1481 C347 1.239 . S
C1487 C109 1.242 . S
C1501 C392 1.230 . S
C1507 C14 1.212 . S
C1521 C417 1.327 . S
C1527 C28 1.310 . S
C1541 C420 1.165 . S
C1547 C42 1.180 . S
C1561 C445 1.362 . S
C1567 C0 1.362 . S
C1581 C81 1.205 . S
C1587 C375 1.190 . S
C1601 C378 1.248 . S
C1607 C84 1.250 . S
C1621 C350 1.197 . S
C1627 C56 1.202 . S
C1641 C5 1.501 . S
C1647 C373 1.484 . S
C1661 C383 1.454 . S
C1667 C19 1.448 . S
C1681 C33 1.491 . S
C1687 C345 1.492 . S
C1701 C47 1.450 . S
C1707 C355 1.441 . S
C1721 C61 1.451 . S
C1727 C425 1.458 . S
C1741 C443 1.490 . S
C1747 C79 1.499 . S
C1761 C89 1.456 . S
C1767 C397 1.464 . S
C1781 C415 1.503 . S
C1787 C107 1.499 . S
C1801 C121 1.482 . S
C1807 C513 1.471 . S
C1821 C523 1.452 . S
C1827 C131 1.457 . S
C1841 C149 1.456 . S
C1847 C537 1.465 . S
C1861 C159 1.479 . S
C1867 C555 1.479 . S
C1881 C177 1.458 . S
C1887 C457 1.444 . S
C1901 C187 1.471 . S
C1907 C467 1.480 . S
C1921 C481 1.432 . S
C1927 C205 1.420 . S
C1941 C215 1.498 . S
C1947 C499 1.481 . S
C1961 C611 1.468 . S
C1967 C229 1.484 . S
C1981 C247 1.483 . S
C1987 C635 1.491 . S
C2001 C261 1.448 . S
C2007 C653 1.454 . S
C2021 C565 1.476 . S
C2027 C275 1.472 . S
C2041 C667 1.466 . S
C2047 C289 1.469 . S
C2061 C299 1.463 . S
C2067 C583 1.461 . S
C2081 C593 1.465 . S
C2087 C317 1.449 . S
C2101 C331 1.431 . S
C2107 C621 1.448 . S
C2121 C597 1.496 . S
C2127 C285 1.495 . S
C2141 C243 1.459 . S
C2147 C607 1.462 . S
C2161 C625 1.491 . S
C2167 C257 1.494 . S
C2181 C579 1.437 . S
C2187 C271 1.436 . S
C2201 C649 1.445 . S
C2207 C327 1.447 . S
C2221 C303 1.491 . S
C2227 C569 1.503 . S
C2241 C663 1.467 . S
C2247 C313 1.472 . S
C2261 C233 1.504 . S
C2267 C639 1.493 . S
C2281 C471 1.480 . S
C2287 C219 1.474 . S
C2301 C173 1.476 . S
C2307 C485 1.464 . S
C2321 C191 1.463 . S
C2327 C495 1.463 . S
C2341 C453 1.457 . S
C2347 C201 1.463 . S
C2361 C135 1.428 . S
C2367 C551 1.437 . S
C2381 C509 1.474 . S
C2387 C145 1.479 . S
C2401 C163 1.446 . S
C2407 C527 1.445 . S
C2421 C117 1.495 . S
C2427 C541 1.492 . S
C2441 C387 1.474 . S
C2447 C103 1.482 . S
C2461 C23 1.483 . S
C2467 C411 1.486 . S
C2481 C37 1.449 . S
C2487 C429 1.447 . S
C2501 C439 1.486 . S
C2507 C51 1.468 . S
C2521 C9 1.476 . S
C2527 C401 1.462 . S
C2541 C75 1.459 . S
C2547 C359 1.459 . S
C2561 C93 1.453 . S
C2567 C369 1.454 . S
C2581 C65 1.448 . S
C2587 C341 1.450 . S
