# Generated by pormake.
# Topology reo, (8)-cn, num edge types: 1
# Building blocks:
#     Node 0, Type 0, BuildingBlock: GIZVER_clean_sbu_0, # of connection points: 8
#     Node 1, Type 0, BuildingBlock: GIZVER_clean_sbu_0, # of connection points: 8
#     Node 2, Type 0, BuildingBlock: GIZVER_clean_sbu_0, # of connection points: 8
#     Edge 3, Type (0, 0), BuildingBlock: MIFKUJ_clean_linker_0, # of connection points: 2
#     Edge 4, Type (0, 0), BuildingBlock: MIFKUJ_clean_linker_0, # of connection points: 2
#     Edge 5, Type (0, 0), BuildingBlock: MIFKUJ_clean_linker_0, # of connection points: 2
#     Edge 6, Type (0, 0), BuildingBlock: MIFKUJ_clean_linker_0, # of connection points: 2
#     Edge 7, Type (0, 0), BuildingBlock: MIFKUJ_clean_linker_0, # of connection points: 2
#     Edge 8, Type (0, 0), BuildingBlock: MIFKUJ_clean_linker_0, # of connection points: 2
#     Edge 9, Type (0, 0), BuildingBlock: MIFKUJ_clean_linker_0, # of connection points: 2
#     Edge 10, Type (0, 0), BuildingBlock: MIFKUJ_clean_linker_0, # of connection points: 2
#     Edge 11, Type (0, 0), BuildingBlock: MIFKUJ_clean_linker_0, # of connection points: 2
#     Edge 12, Type (0, 0), BuildingBlock: MIFKUJ_clean_linker_0, # of connection points: 2
#     Edge 13, Type (0, 0), BuildingBlock: MIFKUJ_clean_linker_0, # of connection points: 2
#     Edge 14, Type (0, 0), BuildingBlock: MIFKUJ_clean_linker_0, # of connection points: 2
# Relax obj value: 0.086
# Max RMSD: 0.191
# Mean RMSD: 0.141
data_MOF--net-reo--node1-GIZVER_clean_sbu_0--edge1-MIFKUJ_clean_linker_0
_symmetry_space_group_name_H-M    P1
_symmetry_Int_Tables_number       1
_symmetry_cell_setting            triclinic
loop_
_symmetry_equiv_pos_as_xyz
'x, y, z'
_cell_length_a     30.851042
_cell_length_b     31.710411
_cell_length_c     32.031906
_cell_angle_alpha  106.2288
_cell_angle_beta   95.05924
_cell_angle_gamma 82.872851
loop_
_atom_site_label
_atom_site_type_symbol
_atom_site_fract_x
_atom_site_fract_y
_atom_site_fract_z
_atom_type_partial_charge
Co0 Co 0.02556 0.96699 0.5893 0.0
Co1 Co 0.09005 0.99412 0.5616 0.0
Co2 Co 1.00705 1.01799 0.50501 0.0
O3 O 0.04003 0.97249 0.5328 0.0
H4 H 0.047 0.94426 0.51208 0.0
O5 O 0.9735 0.06366 0.47809 0.0
Co6 Co 0.98928 0.07474 0.42478 0.0
Co7 Co 0.92532 0.04118 0.44556 0.0
H8 H 0.96453 0.09068 0.49973 0.0
O9 O 0.1367 0.95599 0.57094 0.0
O10 O 0.08222 0.98873 0.61621 0.0
O11 O 0.09688 0.05581 0.57026 0.0
O12 O 0.02719 0.07104 0.55021 0.0
O13 O 0.05908 1.01506 0.46791 0.0
O14 O 1.00304 0.08871 0.37781 0.0
O15 O 0.96622 0.13307 0.43394 0.0
O16 O 0.01736 1.01662 0.40868 0.0
O17 O 0.98758 0.96464 0.45965 0.0
O18 O 0.92148 0.97845 0.42982 0.0
O19 O 0.9323 0.05597 0.39509 0.0
O20 O 0.87749 0.0794 0.4418 0.0
C21 C 0.03209 0.91811 0.62294 0.0
C22 C 0.959 0.0279 0.58349 0.0
C23 C 0.06351 0.08322 0.56908 0.0
C24 C 0.12111 0.96743 0.60934 0.0
C25 C 0.98372 0.12726 0.39664 0.0
C26 C 0.05544 1.01176 0.42672 0.0
C27 C 0.95413 0.95168 0.43526 0.0
C28 C 0.89391 0.07744 0.40521 0.0
O29 O 0.01339 0.95769 0.63933 0.0
O30 O 0.04869 0.90917 0.58472 0.0
O31 O 0.95499 0.0212 0.54188 0.0
O32 O 0.99729 0.02495 0.60145 0.0
Co33 Co 0.59533 1.01029 0.92989 0.0
Co34 Co 0.60173 0.05826 1.00418 0.0
Co35 Co 0.51349 0.02245 0.00924 0.0
O36 O 0.55155 0.04486 0.97258 0.0
H37 H 0.53692 0.07018 0.96409 0.0
O38 O 0.47506 1.0001 0.04575 0.0
Co39 Co 0.42291 0.02832 0.08065 0.0
Co40 Co 0.42989 0.98003 0.00838 0.0
H41 H 0.49066 0.97656 0.05652 0.0
O42 O 0.62222 0.10825 1.0012 0.0
O43 O 0.64538 0.03681 0.96753 0.0
O44 O 0.60943 0.04421 0.05853 0.0
O45 O 0.53801 0.05811 0.06734 0.0
O46 O 0.46662 0.07527 1.00662 0.0
O47 O 0.37695 0.05049 0.11451 0.0
O48 O 0.42436 0.99188 0.11792 0.0
O49 O 0.41291 0.07068 0.04789 0.0
O50 O 0.49032 0.98695 0.95046 0.0
O51 O 0.41903 0.99844 0.95686 0.0
O52 O 0.38275 0.99026 0.03926 0.0
O53 O 0.42036 0.92495 1.00481 0.0
C54 C 0.62511 1.01814 0.87594 0.0
C55 C 0.59174 0.94971 0.98787 0.0
C56 C 0.57739 0.05322 0.08275 0.0
C57 C 0.6506 0.07885 0.97851 0.0
C58 C 0.38892 1.01787 0.13162 0.0
C59 C 0.42837 0.0887 0.02228 0.0
C60 C 0.45159 0.99231 0.93401 0.0
C61 C 0.38663 0.94708 0.02552 0.0
O62 O 0.63318 0.98241 0.88885 0.0
O63 O 0.59638 0.04949 0.89645 0.0
O64 O 0.55972 0.9692 0.01206 0.0
O65 O 0.60244 0.96524 0.9582 0.0
Co66 Co 1.00014 0.43228 0.05513 0.0
Co67 Co 0.93039 0.45504 0.01041 0.0
Co68 Co 1.00497 0.51505 1.00374 0.0
O69 O 0.97554 0.48661 0.04133 0.0
H70 H 0.96417 0.50824 0.06672 0.0
O71 O 0.03393 0.54402 0.96635 0.0
Co72 Co 0.01246 0.60125 0.95613 0.0
Co73 Co 0.07975 0.57224 0.99913 0.0
H74 H 0.04467 0.52293 0.94033 0.0
O75 O 0.88635 0.43744 0.03673 0.0
O76 O 0.95247 0.40132 0.02014 0.0
O77 O 0.92772 0.44454 0.94833 0.0
O78 O 0.99186 0.46959 0.947 0.0
O79 O 0.94675 0.5536 0.99704 0.0
O80 O 0.99526 0.65202 0.94201 0.0
O81 O 0.04147 0.59574 0.9065 0.0
O82 O 0.97747 0.61502 1.00493 0.0
O83 O 0.01743 0.56057 0.06019 0.0
O84 O 0.08501 0.57768 0.06097 0.0
O85 O 0.06167 0.6285 0.99398 0.0
O86 O 0.12545 0.58682 0.97464 0.0
C87 C 0.9949 0.40225 0.10465 0.0
C88 C 0.0673 0.43436 1.00541 0.0
C89 C 0.96008 0.44779 0.92802 0.0
C90 C 0.91361 0.40212 0.03291 0.0
C91 C 0.01959 0.63449 0.90907 0.0
C92 C 0.94319 0.59589 1.00291 0.0
C93 C 0.05086 0.57836 0.08049 0.0
C94 C 0.10236 0.62508 0.98437 0.0
O95 O 0.0204 0.38407 0.07274 0.0
O96 O 0.97205 0.44008 0.10536 0.0
O97 O 0.06398 0.47656 0.01049 0.0
O98 O 0.03273 0.41643 1.00501 0.0
H99 H 0.92508 0.40656 0.15455 0.0
H100 H 0.91837 0.36323 0.20593 0.0
H101 H 0.05005 0.30165 0.18264 0.0
H102 H 0.05574 0.34293 0.12986 0.0
H103 H 1.00568 0.24208 0.18514 0.0
H104 H 0.01618 0.38705 0.28123 0.0
H105 H 0.99557 0.46706 0.30965 0.0
H106 H 0.8675 0.44235 0.33344 0.0
H107 H 0.88721 0.36213 0.30464 0.0
H108 H 0.0494 0.14491 0.35609 0.0
H109 H 0.04727 0.19621 0.3114 0.0
H110 H 0.91203 0.23897 0.33814 0.0
H111 H 0.91487 0.18897 0.38543 0.0
H112 H 0.95162 0.30757 0.33307 0.0
H113 H 0.94858 0.15921 0.24403 0.0
H114 H 0.97356 0.08008 0.21727 0.0
H115 H 0.09422 0.11195 0.18228 0.0
H116 H 0.06983 0.19136 0.2088 0.0
C117 C 0.95269 0.38407 0.16078 0.0
C118 C 0.9911 0.37857 0.1383 0.0
C119 C 0.94894 0.35931 0.19039 0.0
C120 C 0.98397 0.32933 0.1992 0.0
C121 C 0.02235 0.32424 0.17678 0.0
C122 C 0.02571 0.34815 0.14661 0.0
C123 C 0.98082 0.30226 0.23062 0.0
C124 C 0.99444 0.25673 0.21769 0.0
C125 C 0.96491 0.32054 0.2729 0.0
C126 C 0.95302 0.36866 0.29039 0.0
C127 C 0.98353 0.39871 0.29227 0.0
C128 C 0.97203 0.44409 0.30847 0.0
C129 C 0.93021 0.4598 0.32322 0.0
C130 C 0.89986 0.43013 0.32193 0.0
C131 C 0.91118 0.38471 0.30571 0.0
C132 C 0.01941 0.16589 0.3532 0.0
C133 C 0.9824 0.16298 0.37446 0.0
C134 C 0.01811 0.19496 0.32724 0.0
C135 C 0.97926 0.22082 0.32009 0.0
C136 C 0.94247 0.21934 0.34273 0.0
C137 C 0.94409 0.19083 0.36987 0.0
C138 C 0.9773 0.24767 0.28774 0.0
C139 C 0.96272 0.29301 0.30046 0.0
C140 C 0.99283 0.2293 0.24528 0.0
C141 C 1.00721 0.18139 0.22839 0.0
C142 C 0.9803 0.1494 0.23044 0.0
C143 C 0.99442 0.10445 0.21538 0.0
C144 C 0.03546 0.09097 0.19805 0.0
C145 C 0.06236 0.12243 0.19558 0.0
C146 C 0.04831 0.16744 0.2105 0.0
H147 H 0.04643 0.05615 0.18656 0.0
H148 H 0.92137 0.49495 0.33573 0.0
H149 H 0.88852 0.04368 0.31711 0.0
H150 H 0.82792 0.06024 0.26795 0.0
H151 H 0.77493 0.16772 0.37221 0.0
H152 H 0.83447 0.14964 0.42189 0.0
H153 H 0.71577 0.11698 0.34175 0.0
H154 H 0.80768 0.18439 0.27248 0.0
H155 H 0.87312 0.19297 0.23787 0.0
H156 H 0.85607 0.07274 0.13789 0.0
H157 H 0.79041 0.06356 0.17175 0.0
H158 H 0.56445 0.13364 0.14116 0.0
H159 H 0.61013 0.15725 0.20875 0.0
H160 H 0.66441 0.02228 0.19421 0.0
H161 H 0.61921 0.9988 0.12707 0.0
H162 H 0.71536 0.10911 0.18498 0.0
H163 H 0.63556 0.03571 0.27057 0.0
H164 H 0.56829 0.02995 0.30408 0.0
H165 H 0.56219 0.16773 0.37253 0.0
H166 H 0.62917 0.17431 0.33887 0.0
C167 C 0.86474 0.07175 0.32906 0.0
C168 C 0.86561 0.09498 0.37326 0.0
C169 C 0.83011 0.08142 0.3009 0.0
C170 C 0.79663 0.11528 0.31635 0.0
C171 C 0.80007 0.14124 0.35962 0.0
C172 C 0.83412 0.13097 0.38792 0.0
C173 C 0.75517 0.11864 0.28965 0.0
C174 C 0.71577 0.11642 0.30773 0.0
C175 C 0.75465 0.11786 0.24523 0.0
C176 C 0.79423 0.12321 0.22482 0.0
C177 C 0.818 0.15969 0.24323 0.0
C178 C 0.85508 0.1647 0.22366 0.0
C179 C 0.86885 0.13325 0.18582 0.0
C180 C 0.84535 0.09702 0.16721 0.0
C181 C 0.80809 0.09202 0.18646 0.0
C182 C 0.58418 0.10888 0.154 0.0
C183 C 0.58829 0.06446 0.12956 0.0
C184 C 0.61041 0.12238 0.19228 0.0
C185 C 0.64033 0.09138 0.20626 0.0
C186 C 0.64097 0.04647 0.18415 0.0
C187 C 0.61506 0.03307 0.146 0.0
C188 C 0.6774 0.1057 0.23692 0.0
C189 C 0.71569 0.11121 0.21941 0.0
C190 C 0.67694 0.10969 0.2817 0.0
C191 C 0.63685 0.10564 0.30175 0.0
C192 C 0.61954 0.06485 0.29234 0.0
C193 C 0.58158 0.06141 0.31147 0.0
C194 C 0.56087 0.0985 0.34028 0.0
C195 C 0.57818 0.13907 0.35012 0.0
C196 C 0.61612 0.14267 0.33104 0.0
H197 H 0.53149 0.09577 0.35507 0.0
H198 H 0.89779 0.13677 0.17088 0.0
H199 H 0.01232 0.8824 0.44536 0.0
H200 H 0.02766 0.81137 0.39169 0.0
H201 H 0.91925 0.84526 0.30845 0.0
H202 H 0.90362 0.91652 0.36187 0.0
H203 H 0.98315 0.73801 0.34588 0.0
H204 H 0.95882 0.82386 0.20782 0.0
H205 H 0.95957 0.89839 0.19829 0.0
H206 H 0.0499 0.93108 0.30954 0.0
H207 H 0.05012 0.85669 0.31934 0.0
H208 H 0.98405 0.58592 0.13369 0.0
H209 H 0.9696 0.64266 0.20157 0.0
H210 H 0.09181 0.69371 0.19697 0.0
H211 H 0.1064 0.63731 0.12868 0.0
H212 H 0.02557 0.75764 0.20708 0.0
H213 H 0.0776 0.64323 0.27468 0.0
H214 H 0.08206 0.56944 0.28703 0.0
H215 H 0.94781 0.59319 0.32055 0.0
H216 H 0.94234 0.66696 0.30783 0.0
C217 C 0.99105 0.87438 0.4161 0.0
C218 C 0.95709 0.90544 0.40764 0.0
C219 C 0.99979 0.83364 0.38556 0.0
C220 C 0.975 0.82339 0.3459 0.0
C221 C 0.93899 0.85279 0.33878 0.0
C222 C 0.93002 0.89346 0.36944 0.0
C223 C 0.99003 0.7848 0.31007 0.0
C224 C 0.99222 0.74213 0.31541 0.0
C225 C 1.0031 0.79042 0.2709 0.0
C226 C 1.00411 0.83487 0.26453 0.0
C227 C 0.97899 0.84692 0.23009 0.0
C228 C 0.97922 0.88916 0.22468 0.0
C229 C 1.00465 0.91954 0.25339 0.0
C230 C 0.03008 0.90765 0.28743 0.0
C231 C 0.03001 0.86546 0.29294 0.0
C232 C 1.00835 0.60862 0.1475 0.0
C233 C 0.04629 0.60717 0.1255 0.0
C234 C 1.00005 0.64101 0.18645 0.0
C235 C 0.02958 0.67249 0.20434 0.0
C236 C 0.06851 0.66981 0.18365 0.0
C237 C 0.07692 0.63734 0.14472 0.0
C238 C 0.018 0.71041 0.24232 0.0
C239 C 0.01643 0.75321 0.23741 0.0
C240 C 1.0063 0.70477 0.28206 0.0
C241 C 1.00947 0.66051 0.28992 0.0
C242 C 0.04892 0.6326 0.28435 0.0
C243 C 0.05165 0.5908 0.29148 0.0
C244 C 0.01521 0.5766 0.30446 0.0
C245 C 0.97599 0.60423 0.31045 0.0
C246 C 0.97308 0.64607 0.30334 0.0
H247 H 0.0174 0.54424 0.30998 0.0
H248 H 1.00471 0.95224 0.24921 0.0
H249 H 0.41069 0.98556 0.20446 0.0
H250 H 0.36152 0.981 0.25913 0.0
H251 H 0.25106 0.0252 0.18434 0.0
H252 H 0.30014 0.0326 0.1318 0.0
H253 H 0.24528 0.07047 0.26424 0.0
H254 H 0.23972 0.89414 0.21973 0.0
H255 H 0.27687 0.81834 0.20567 0.0
H256 H 0.38442 0.86621 0.29346 0.0
H257 H 0.3468 0.94188 0.3095 0.0
H258 H 0.05542 1.01784 0.34284 0.0
H259 H 0.11674 1.01851 0.30028 0.0
H260 H 0.20689 0.99875 0.40526 0.0
H261 H 0.14488 0.99995 0.44948 0.0
H262 H 0.22972 0.94264 0.31998 0.0
H263 H 0.19664 0.09453 0.38953 0.0
H264 H 0.15444 0.1674 0.41387 0.0
H265 H 0.1217 0.16776 0.28089 0.0
H266 H 0.1625 0.09424 0.25567 0.0
C267 C 0.37585 0.99375 0.19944 0.0
C268 C 0.35971 1.00968 0.16351 0.0
C269 C 0.34734 0.99053 0.23067 0.0
C270 C 0.30162 1.00168 0.22617 0.0
C271 C 0.28576 1.01614 0.18931 0.0
C272 C 0.31413 0.02043 0.15898 0.0
C273 C 0.27029 1.0032 0.26099 0.0
C274 C 0.24188 0.04211 0.27587 0.0
C275 C 0.26585 0.96728 0.27831 0.0
C276 C 0.29152 0.92385 0.26414 0.0
C277 C 0.27168 0.88852 0.23536 0.0
C278 C 0.29236 0.84548 0.22775 0.0
C279 C 0.33312 0.8375 0.24846 0.0
C280 C 0.35309 0.8725 0.27708 0.0
C281 C 0.33205 0.91546 0.28549 0.0
C282 C 0.08811 1.01411 0.35754 0.0
C283 C 0.09458 1.00939 0.40034 0.0
C284 C 0.12345 1.01444 0.33278 0.0
C285 C 0.1669 1.00915 0.3493 0.0
C286 C 0.17384 1.00315 0.39154 0.0
C287 C 0.13821 1.0038 0.41691 0.0
C288 C 0.20439 1.00926 0.3218 0.0
C289 C 0.23344 0.97091 0.30829 0.0
C290 C 0.20945 0.04568 0.30574 0.0
C291 C 0.18241 0.0886 0.32071 0.0
C292 C 0.17978 0.10973 0.36544 0.0
C293 C 0.15621 0.15126 0.37941 0.0
C294 C 0.1355 0.17224 0.34896 0.0
C295 C 0.13775 0.15147 0.30445 0.0
C296 C 0.16101 0.10981 0.2903 0.0
H297 H 0.11768 0.20461 0.35988 0.0
H298 H 0.34922 0.8042 0.24232 0.0
H299 H 0.99672 0.92923 0.70085 0.0
H300 H 0.99749 0.87701 0.74374 0.0
H301 H 0.07183 0.77826 0.64787 0.0
H302 H 0.07054 0.83096 0.60374 0.0
H303 H 0.01298 0.73934 0.6759 0.0
H304 H 0.1203 0.83076 0.74797 0.0
H305 H 0.15861 0.89597 0.78488 0.0
H306 H 0.06349 0.93644 0.88228 0.0
H307 H 0.02421 0.87168 0.84564 0.0
H308 H 0.06488 0.60973 0.83314 0.0
H309 H 0.06735 0.65211 0.77978 0.0
H310 H 0.98114 0.75766 0.85561 0.0
H311 H 0.97872 0.71605 0.90868 0.0
H312 H 0.04953 0.78961 0.83445 0.0
H313 H 0.9462 0.69059 0.75766 0.0
H314 H 0.91897 0.61827 0.72338 0.0
H315 H 0.02274 0.58413 0.63513 0.0
H316 H 0.05099 0.65606 0.66932 0.0
C317 C 0.01351 0.89652 0.6886 0.0
C318 C 0.03386 0.88473 0.64863 0.0
C319 C 0.01406 0.86649 0.71353 0.0
C320 C 0.03535 0.8235 0.69984 0.0
C321 C 0.05525 0.81115 0.65955 0.0
C322 C 0.05466 0.84142 0.63432 0.0
C323 C 0.03625 0.79229 0.72802 0.0
C324 C 0.02222 0.74993 0.7104 0.0
C325 C 0.04761 0.80569 0.77335 0.0
C326 C 0.06904 0.84653 0.79377 0.0
C327 C 0.10709 0.85394 0.77684 0.0
C328 C 0.1291 0.89075 0.79783 0.0
C329 C 0.11351 0.92031 0.83593 0.0
C330 C 0.07554 0.91347 0.85278 0.0
C331 C 0.05338 0.87672 0.83191 0.0
C332 C 0.04634 0.6419 0.83839 0.0
C333 C 0.02177 0.65929 0.87561 0.0
C334 C 0.04746 0.66605 0.80756 0.0
C335 C 0.02414 0.70827 0.81317 0.0
C336 C 0.99939 0.72531 0.85012 0.0
C337 C 0.99817 0.7013 0.8807 0.0
C338 C 0.02746 0.73617 0.78254 0.0
C339 C 0.04156 0.77836 0.79984 0.0
C340 C 0.01787 0.72176 0.73693 0.0
C341 C 1.00102 0.6785 0.7164 0.0
C342 C 0.96348 0.66749 0.73123 0.0
C343 C 0.9478 0.62661 0.71175 0.0
C344 C 0.96919 0.59657 0.67719 0.0
C345 C 1.00625 0.6074 0.66196 0.0
C346 C 0.02209 0.64824 0.68136 0.0
H347 H 0.95699 0.56494 0.66214 0.0
H348 H 0.13102 0.94834 0.85261 0.0
H349 H 0.44281 0.91496 0.87329 0.0
H350 H 0.39401 0.90816 0.80774 0.0
H351 H 0.38571 0.0491 0.82712 0.0
H352 H 0.43419 0.05578 0.89277 0.0
H353 H 0.30829 0.01906 0.83575 0.0
H354 H 0.42116 0.9815 0.73381 0.0
H355 H 0.48759 0.93949 0.69963 0.0
H356 H 0.42453 0.82016 0.66539 0.0
H357 H 0.35789 0.86135 0.69994 0.0
H358 H 0.14571 0.03798 0.67105 0.0
H359 H 0.20974 0.03995 0.72162 0.0
H360 H 0.23101 0.89739 0.68091 0.0
H361 H 0.16875 0.89601 0.62736 0.0
H362 H 0.30356 0.92693 0.68273 0.0
H363 H 0.18926 0.96493 0.78287 0.0
H364 H 0.12261 1.00731 0.81639 0.0
H365 H 0.18867 0.12464 0.85815 0.0
H366 H 0.25504 0.08364 0.82313 0.0
C367 C 0.43276 0.94395 0.86183 0.0
C368 C 0.44237 0.98578 0.88738 0.0
C369 C 0.40464 0.94015 0.82462 0.0
C370 C 0.38598 0.97822 0.81296 0.0
C371 C 0.39983 0.01939 0.8357 0.0
C372 C 0.42787 0.02315 0.87283 0.0
C373 C 0.34596 0.9764 0.78386 0.0
C374 C 0.30726 0.9996 0.80197 0.0
C375 C 0.34459 0.94932 0.74066 0.0
C376 C 0.38464 0.92447 0.71984 0.0
C377 C 0.42157 0.94623 0.71936 0.0
C378 C 0.45925 0.92257 0.69983 0.0
C379 C 0.46032 0.87717 0.68044 0.0
C380 C 0.42367 0.85533 0.68046 0.0
C381 C 0.38592 0.87883 0.69996 0.0
C382 C 0.16347 1.0071 0.67388 0.0
C383 C 0.15229 0.9668 0.6462 0.0
C384 C 0.20007 1.00817 0.70275 0.0
C385 C 0.22496 0.96876 0.70572 0.0
C386 C 0.21239 0.92822 0.67923 0.0
C387 C 0.17665 0.92731 0.64914 0.0
C388 C 0.26556 0.97013 0.73438 0.0
C389 C 0.30436 0.94655 0.71643 0.0
C390 C 0.26698 0.99666 0.77808 0.0
C391 C 0.22716 0.02114 0.80001 0.0
C392 C 0.18953 0.99981 0.79893 0.0
C393 C 0.15177 0.02361 0.81818 0.0
C394 C 0.1515 0.06852 0.83957 0.0
C395 C 0.18893 0.08983 0.84159 0.0
C396 C 0.22658 0.06636 0.82187 0.0
H397 H 0.12226 0.08683 0.85454 0.0
H398 H 0.48952 0.85891 0.66533 0.0
H399 H 0.92441 0.37084 0.89016 0.0
H400 H 0.94333 0.31697 0.82193 0.0
H401 H 0.02453 0.4067 0.79495 0.0
H402 H 1.00764 0.45983 0.86478 0.0
H403 H 0.93693 0.30614 0.74101 0.0
H404 H 0.1125 0.3539 0.74586 0.0
H405 H 0.16693 0.391 0.80073 0.0
H406 H 0.11351 0.34762 0.89899 0.0
H407 H 0.05901 0.31017 0.84485 0.0
H408 H 0.01844 0.15754 0.5543 0.0
H409 H 1.00505 0.22926 0.60769 0.0
H410 H 0.09139 0.1819 0.70218 0.0
H411 H 0.10681 0.11119 0.64806 0.0
H412 H 0.09549 0.265 0.71885 0.0
H413 H 0.97782 0.17427 0.6944 0.0
H414 H 0.92318 0.12814 0.64916 0.0
H415 H 0.86151 0.23915 0.60668 0.0
H416 H 0.91603 0.286 0.65156 0.0
C417 C 0.94572 0.37948 0.86938 0.0
C418 C 0.9649 0.41942 0.88304 0.0
C419 C 0.95652 0.34857 0.83025 0.0
C420 C 0.98618 0.3572 0.80357 0.0
C421 C 1.00258 0.39864 0.8155 0.0
C422 C 0.99266 0.42916 0.85525 0.0
C423 C 1.00217 0.32154 0.76526 0.0
C424 C 0.97159 0.2975 0.73601 0.0
C425 C 0.04744 0.30911 0.7592 0.0
C426 C 0.08143 0.32975 0.79143 0.0
C427 C 0.1126 0.3521 0.77914 0.0
C428 C 0.14336 0.37327 0.81015 0.0
C429 C 0.1434 0.37196 0.85341 0.0
C430 C 0.11319 0.3489 0.86561 0.0
C431 C 0.08238 0.32772 0.83481 0.0
C432 C 0.03559 0.16303 0.58606 0.0
C433 C 0.06341 0.12883 0.59721 0.0
C434 C 0.02767 0.20386 0.61666 0.0
C435 C 0.0461 0.21058 0.65945 0.0
C436 C 0.07658 0.17755 0.66951 0.0
C437 C 0.08543 0.1371 0.63852 0.0
C438 C 0.03024 0.24967 0.6947 0.0
C439 C 0.06082 0.27422 0.7234 0.0
C440 C 0.98502 0.26101 0.70173 0.0
C441 C 0.95128 0.23347 0.67588 0.0
C442 C 0.95268 0.1888 0.6753 0.0
C443 C 0.92179 0.16251 0.64969 0.0
C444 C 0.88918 0.18056 0.62471 0.0
C445 C 0.88699 0.22515 0.62582 0.0
C446 C 0.91781 0.25163 0.65142 0.0
H447 H 0.86543 0.16006 0.60475 0.0
H448 H 0.16671 0.38888 0.87755 0.0
H449 H 0.66027 0.95268 0.80913 0.0
H450 H 0.71071 0.95738 0.75647 0.0
H451 H 0.70352 0.09857 0.81089 0.0
H452 H 0.65109 0.09401 0.86273 0.0
H453 H 0.71236 0.08266 0.72771 0.0
H454 H 0.78927 0.02027 0.837 0.0
H455 H 0.80646 0.96758 0.8814 0.0
H456 H 0.82889 0.86137 0.7658 0.0
H457 H 0.81126 0.9133 0.72058 0.0
H458 H 0.96053 0.03832 0.67135 0.0
H459 H 0.90082 0.0406 0.71687 0.0
H460 H 0.80924 0.03002 0.60571 0.0
H461 H 0.86965 0.02755 0.55931 0.0
H462 H 0.84989 0.98217 0.71767 0.0
H463 H 0.70867 0.07723 0.63939 0.0
H464 H 0.69692 0.13837 0.60453 0.0
H465 H 0.81203 0.19195 0.67395 0.0
H466 H 0.82488 0.13077 0.70853 0.0
C467 C 0.66886 0.98492 0.8096 0.0
C468 C 0.65141 0.02294 0.84044 0.0
C469 C 0.69823 0.98756 0.77951 0.0
C470 C 0.7125 0.02819 0.77995 0.0
C471 C 0.69369 0.06661 0.8096 0.0
C472 C 0.66346 0.06404 0.83934 0.0
C473 C 0.74807 0.03001 0.75083 0.0
C474 C 0.7422 0.06032 0.7254 0.0
C475 C 0.78804 1.00188 0.74797 0.0
C476 C 0.79864 0.9707 0.77531 0.0
C477 C 0.79769 0.98569 0.82097 0.0
C478 C 0.80749 0.95593 0.84631 0.0
C479 C 0.81869 0.91116 0.8264 0.0
C480 C 0.82016 0.89605 0.78115 0.0
C481 C 0.81028 0.92563 0.75566 0.0
C482 C 0.92779 0.03649 0.65617 0.0
C483 C 0.92047 0.0323 0.61108 0.0
C484 C 0.89337 0.03779 0.68257 0.0
C485 C 0.84997 0.03538 0.66526 0.0
C486 C 0.84214 0.03231 0.6204 0.0
C487 C 0.87688 0.03074 0.59368 0.0
C488 C 0.81394 0.03432 0.69414 0.0
C489 C 0.81976 1.00406 0.71953 0.0
C490 C 0.77466 0.06328 0.6979 0.0
C491 C 0.76794 0.0992 0.67609 0.0
C492 C 0.73159 0.10194 0.64695 0.0
C493 C 0.72484 0.13651 0.62715 0.0
C494 C 0.75396 0.1688 0.63671 0.0
C495 C 0.78988 0.16659 0.66608 0.0
C496 C 0.79704 0.13185 0.68559 0.0
H497 H 0.74855 0.19567 0.62155 0.0
H498 H 0.8263 0.88813 0.84597 0.0
H499 H 0.1554 0.45356 0.02603 0.0
H500 H 0.22108 0.40053 0.02709 0.0
H501 H 0.14183 0.29253 0.97793 0.0
H502 H 0.07731 0.34438 0.97798 0.0
H503 H 0.19055 0.27209 0.03685 0.0
H504 H 0.22771 0.32509 0.91614 0.0
H505 H 0.24512 0.3807 0.88106 0.0
H506 H 0.34636 0.4201 0.98026 0.0
H507 H 0.33019 0.36425 0.01546 0.0
H508 H 0.34542 0.0858 0.98539 0.0
H509 H 0.29067 0.14674 0.97922 0.0
H510 H 0.38597 0.23912 0.03184 0.0
H511 H 0.44171 0.17722 0.03603 0.0
H512 H 0.33355 0.27248 0.9778 0.0
H513 H 0.30234 0.21661 0.09436 0.0
H514 H 0.2889 0.15988 0.12959 0.0
H515 H 0.17599 0.12898 0.04282 0.0
H516 H 0.18913 0.18508 1.00662 0.0
C517 C 0.15207 0.41853 0.01489 0.0
C518 C 0.1102 0.40401 1.00198 0.0
C519 C 0.19 0.38781 0.01537 0.0
C520 C 0.18751 0.34145 1.00253 0.0
C521 C 0.14578 0.32746 0.98862 0.0
C522 C 0.10833 0.35774 0.98852 0.0
C523 C 0.22667 0.30697 1.00504 0.0
C524 C 0.22146 0.27222 0.0232 0.0
C525 C 0.26848 0.3068 0.98927 0.0
C526 C 0.27744 0.34089 0.96865 0.0
C527 C 0.25347 0.34584 0.9306 0.0
C528 C 0.26317 0.3773 0.91066 0.0
C529 C 0.29648 0.40416 0.92865 0.0
C530 C 0.32046 0.39938 0.96643 0.0
C531 C 0.31121 0.36771 0.98627 0.0
C532 C 0.35518 0.11898 0.99467 0.0
C533 C 0.39853 0.12604 0.01068 0.0
C534 C 0.32337 0.15429 0.99181 0.0
C535 C 0.33287 0.19869 1.00636 0.0
C536 C 0.37685 0.20574 0.02055 0.0
C537 C 0.40911 0.17007 0.02269 0.0
C538 C 0.29664 0.23695 0.00812 0.0
C539 C 0.30251 0.2724 0.99121 0.0
C540 C 0.25537 0.23808 0.0254 0.0
C541 C 0.24693 0.20483 0.04756 0.0
C542 C 0.27475 0.19758 0.08267 0.0
C543 C 0.2672 0.16553 0.1028 0.0
C544 C 0.23167 0.14078 0.0884 0.0
C545 C 0.20352 0.14815 0.05392 0.0
C546 C 0.21099 0.18009 0.0336 0.0
H547 H 0.22591 0.11595 0.104 0.0
H548 H 0.30385 0.42853 0.91319 0.0
H549 H 0.0699 0.70982 0.02328 0.0
H550 H 0.10948 0.77552 0.04354 0.0
H551 H 0.22422 0.69751 0.98501 0.0
H552 H 0.18538 0.63135 0.96511 0.0
H553 H 0.22414 0.7708 0.08513 0.0
H554 H 0.22841 0.76686 0.91762 0.0
H555 H 0.19182 0.73244 0.84678 0.0
H556 H 0.06681 0.76993 0.9033 0.0
H557 H 0.10265 0.80549 0.97397 0.0
H558 H 0.38907 0.8585 0.01098 0.0
H559 H 0.32933 0.81653 0.01426 0.0
H560 H 0.24349 0.93712 0.05359 0.0
H561 H 0.30355 0.98006 0.05023 0.0
H562 H 0.21693 0.85599 0.97558 0.0
H563 H 0.27576 0.89789 0.1268 0.0
H564 H 0.34495 0.90437 0.17157 0.0
H565 H 0.37632 0.76389 0.13008 0.0
H566 H 0.30858 0.75658 0.08299 0.0
C567 C 0.10351 0.70659 0.01453 0.0
C568 C 0.12453 0.6654 0.99246 0.0
C569 C 0.12611 0.74402 0.02663 0.0
C570 C 0.16973 0.74085 0.01628 0.0
C571 C 0.19066 0.70012 0.99375 0.0
C572 C 0.16828 0.66258 0.982 0.0
C573 C 0.1926 0.78068 0.02536 0.0
C574 C 0.22162 0.79058 0.06216 0.0
C575 C 0.19072 0.80459 0.99405 0.0
C576 C 0.1681 0.78865 0.95089 0.0
C577 C 0.19303 0.76842 0.91458 0.0
C578 C 0.17249 0.74858 0.87453 0.0
C579 C 0.12708 0.74874 0.87053 0.0
C580 C 0.102 0.76964 0.90633 0.0
C581 C 0.12237 0.78983 0.94638 0.0
C582 C 0.35759 0.8763 0.02041 0.0
C583 C 0.35089 0.92256 0.03028 0.0
C584 C 0.32358 0.85224 0.0222 0.0
C585 C 0.28241 0.87397 0.03415 0.0
C586 C 0.27529 0.9201 0.04422 0.0
C587 C 0.30957 0.94442 0.04261 0.0
C588 C 0.2474 0.84745 0.03616 0.0
C589 C 0.21698 0.83891 1.00061 0.0
C590 C 0.25019 0.82305 0.06733 0.0
C591 C 0.28698 0.82672 0.10108 0.0
C592 C 0.29736 0.86832 0.12714 0.0
C593 C 0.3367 0.87224 0.15245 0.0
C594 C 0.36526 0.83467 0.15328 0.0
C595 C 0.35428 0.79301 0.1292 0.0
C596 C 0.31544 0.78897 0.10306 0.0
H597 H 0.39561 0.8378 0.17307 0.0
H598 H 0.11158 0.7325 0.83966 0.0
H599 H 0.65585 0.15116 0.95169 0.0
H600 H 0.72142 0.18689 0.9524 0.0
H601 H 0.80097 0.07793 0.98606 0.0
H602 H 0.73472 0.04138 0.98444 0.0
H603 H 0.8096 0.15812 0.04699 0.0
H604 H 0.82843 0.10311 0.89424 0.0
H605 H 0.81135 0.08281 0.81487 0.0
H606 H 0.75461 0.21522 0.82297 0.0
H607 H 0.77213 0.23667 0.90218 0.0
H608 H 0.96278 0.32301 0.02655 0.0
H609 H 0.93571 0.25164 0.01778 0.0
H610 H 0.80482 0.31596 0.03804 0.0
H611 H 0.83139 0.38766 0.04726 0.0
H612 H 0.84639 0.23964 0.94554 0.0
H613 H 0.8052 0.28024 0.10328 0.0
H614 H 0.82977 0.30393 0.18104 0.0
H615 H 0.93412 0.19857 0.15986 0.0
H616 H 0.91013 0.17442 0.08211 0.0
C617 C 0.68747 0.13415 0.95774 0.0
C618 C 0.69048 0.09392 0.9684 0.0
C619 C 0.72498 0.15439 0.95784 0.0
C620 C 0.76609 0.13502 0.96924 0.0
C621 C 0.76953 0.09322 0.97694 0.0
C622 C 0.73183 0.0724 0.97592 0.0
C623 C 0.80288 0.16264 0.98054 0.0
C624 C 0.81873 0.17493 0.02437 0.0
C625 C 0.81472 0.18484 0.95132 0.0
C626 C 0.80159 0.17146 0.90417 0.0
C627 C 0.81193 0.12779 0.87916 0.0
C628 C 0.80233 0.11613 0.83417 0.0
C629 C 0.78176 0.14765 0.81397 0.0
C630 C 0.77062 0.19088 0.83868 0.0
C631 C 0.78063 0.20287 0.88355 0.0
C632 C 0.9284 0.32222 0.03038 0.0
C633 C 0.89902 0.36091 0.03688 0.0
C634 C 0.91315 0.28141 0.02551 0.0
C635 C 0.86848 0.27889 0.02736 0.0
C636 C 0.83956 0.31763 0.03697 0.0
C637 C 0.85476 0.35848 0.04204 0.0
C638 C 0.85058 0.23608 0.01182 0.0
C639 C 0.8385 0.2214 0.96744 0.0
C640 C 0.84225 0.2118 0.04035 0.0
C641 C 0.85602 0.22568 0.08708 0.0
C642 C 0.83343 0.26226 0.11531 0.0
C643 C 0.84721 0.27573 0.15936 0.0
C644 C 0.88347 0.25276 0.17543 0.0
C645 C 0.90606 0.21637 0.14745 0.0
C646 C 0.89231 0.20267 0.10344 0.0
H647 H 0.89393 0.26309 0.20957 0.0
H648 H 0.77457 0.13874 0.77919 0.0
H649 H 0.87848 0.6206 0.0632 0.0
H650 H 0.81604 0.67786 0.06665 0.0
H651 H 0.84862 0.69426 0.94436 0.0
H652 H 0.91106 0.63821 0.94172 0.0
H653 H 0.83166 0.77117 0.99263 0.0
H654 H 0.75203 0.64327 0.96405 0.0
H655 H 0.73018 0.57653 0.97823 0.0
H656 H 0.68681 0.65345 0.10319 0.0
H657 H 0.70888 0.72058 0.08994 0.0
H658 H 0.64472 0.89229 0.92886 0.0
H659 H 0.69835 0.83215 0.93734 0.0
H660 H 0.66115 0.85193 0.06839 0.0
H661 H 0.6063 0.91355 0.06007 0.0
H662 H 0.68001 0.76045 0.02544 0.0
H663 H 0.75285 0.88959 0.05021 0.0
H664 H 0.77336 0.95632 0.03503 0.0
H665 H 0.83098 0.87681 0.91766 0.0
H666 H 0.80954 0.80972 0.93126 0.0
C667 C 0.87156 0.63556 0.03648 0.0
C668 C 0.89972 0.6238 1.00172 0.0
C669 C 0.83566 0.66874 0.03848 0.0
C670 C 0.8264 0.69118 1.00561 0.0
C671 C 0.85422 0.67841 0.97052 0.0
C672 C 0.89008 0.64573 0.96877 0.0
C673 C 0.78955 0.72893 0.00797 0.0
C674 C 0.79849 0.76818 0.99927 0.0
C675 C 0.74592 0.72706 0.01828 0.0
C676 C 0.73254 0.68682 0.0262 0.0
C677 C 0.73811 0.64588 0.99467 0.0
C678 C 0.72564 0.608 1.00252 0.0
C679 C 0.70724 0.61072 0.04164 0.0
C680 C 0.70113 0.65137 0.07294 0.0
C681 C 0.71359 0.68935 0.06526 0.0
C682 C 0.6473 0.88416 0.95971 0.0
C683 C 0.62061 0.90885 0.99384 0.0
C684 C 0.67855 0.84931 0.96451 0.0
C685 C 0.68513 0.83717 1.00377 0.0
C686 C 0.65735 0.86024 0.03762 0.0
C687 C 0.62567 0.89565 0.03282 0.0
C688 C 0.72214 0.80178 0.00885 0.0
C689 C 0.71328 0.76327 0.01896 0.0
C690 C 0.76599 0.80421 0.99982 0.0
C691 C 0.77916 0.84456 0.99157 0.0
C692 C 0.76946 0.88633 0.02088 0.0
C693 C 0.7812 0.92427 0.01251 0.0
C694 C 0.8032 0.92085 0.97522 0.0
C695 C 0.81362 0.87946 0.94631 0.0
C696 C 0.80165 0.84146 0.95433 0.0
H697 H 0.81232 0.95024 0.96881 0.0
H698 H 0.69761 0.58136 0.04766 0.0
loop_
_geom_bond_atom_site_label_1
_geom_bond_atom_site_label_2
_geom_bond_distance
_geom_bond_site_symmetry_2
_ccdc_geom_bond_type
Co0 O3 2.042 . S
Co0 O10 2.264 . S
Co0 O29 2.286 . S
Co0 O30 2.069 . S
Co0 O32 2.015 1_455 S
Co1 O3 2.122 1_545 S
Co1 O9 2.073 1_545 S
Co1 O10 2.327 1_545 S
Co1 O11 1.976 . S
Co2 O3 2.087 1_545 S
Co2 O5 2.087 1_455 S
Co2 O12 2.111 . S
Co2 O13 2.143 . S
Co2 O17 2.111 1_445 S
Co2 O31 2.143 1_445 S
O3 Co0 2.042 . S
O3 Co1 2.122 1_565 S
O3 Co2 2.087 1_565 S
O3 H4 0.980 . S
H4 O3 0.980 . S
O5 Co2 2.087 1_655 S
O5 Co6 2.042 . S
O5 Co7 2.122 1_545 S
O5 H8 0.980 . S
Co6 O5 2.042 . S
Co6 O14 2.286 . S
Co6 O15 2.069 . S
Co6 O16 2.015 1_655 S
Co6 O19 2.264 . S
Co7 O5 2.122 1_565 S
Co7 O18 1.976 . S
Co7 O19 2.327 1_565 S
Co7 O20 2.073 1_565 S
H8 O5 0.980 . S
O9 Co1 2.073 1_565 S
O9 C24 1.245 . S
O10 Co0 2.264 . S
O10 Co1 2.327 1_565 S
O10 C24 1.257 . S
O11 Co1 1.976 . S
O11 C23 1.251 . S
O12 Co2 2.111 . S
O12 C23 1.274 . S
O13 Co2 2.143 . S
O13 C26 1.246 1_545 S
O14 Co6 2.286 . S
O14 C25 1.259 . S
O15 Co6 2.069 . S
O15 C25 1.289 . S
O16 Co6 2.015 1_455 S
O16 C26 1.257 1_545 S
O17 Co2 2.111 1_665 S
O17 C27 1.274 . S
O18 Co7 1.976 . S
O18 C27 1.251 . S
O19 Co6 2.264 . S
O19 Co7 2.327 1_545 S
O19 C28 1.257 . S
O20 Co7 2.073 1_545 S
O20 C28 1.245 . S
C21 O29 1.259 . S
C21 O30 1.289 . S
C22 O31 1.246 1_545 S
C22 O32 1.257 1_545 S
C23 O11 1.251 . S
C23 O12 1.274 . S
C24 O9 1.245 . S
C24 O10 1.257 . S
C25 O14 1.259 . S
C25 O15 1.289 . S
C26 O13 1.246 1_565 S
C26 O16 1.257 1_565 S
C27 O17 1.274 . S
C27 O18 1.251 . S
C28 O19 1.257 . S
C28 O20 1.245 . S
O29 Co0 2.286 . S
O29 C21 1.259 . S
O30 Co0 2.069 . S
O30 C21 1.289 . S
O31 Co2 2.143 1_665 S
O31 C22 1.246 1_565 S
O32 Co0 2.015 1_655 S
O32 C22 1.257 1_565 S
Co33 O36 2.042 . S
Co33 O43 2.264 . S
Co33 O62 2.286 1_545 S
Co33 O63 2.069 . S
Co33 O65 2.015 1_545 S
Co34 O36 2.122 1_554 S
Co34 O42 2.073 . S
Co34 O43 2.327 1_554 S
Co34 O44 1.976 . S
Co35 O36 2.087 1_554 S
Co35 O38 2.087 1_545 S
Co35 O45 2.111 . S
Co35 O46 2.143 . S
Co35 O50 2.111 1_544 S
Co35 O64 2.143 1_544 S
O36 Co33 2.042 . S
O36 Co34 2.122 1_556 S
O36 Co35 2.087 1_556 S
O36 H37 0.980 . S
H37 O36 0.980 . S
O38 Co35 2.087 1_565 S
O38 Co39 2.042 . S
O38 Co40 2.122 1_554 S
O38 H41 0.980 . S
Co39 O38 2.042 . S
Co39 O47 2.286 1_565 S
Co39 O48 2.069 . S
Co39 O49 2.015 1_565 S
Co39 O52 2.264 . S
Co40 O38 2.122 1_556 S
Co40 O51 1.976 . S
Co40 O52 2.327 1_556 S
Co40 O53 2.073 . S
H41 O38 0.980 . S
O42 Co34 2.073 . S
O42 C57 1.245 1_554 S
O43 Co33 2.264 . S
O43 Co34 2.327 1_556 S
O43 C57 1.257 . S
O44 Co34 1.976 . S
O44 C56 1.251 . S
O45 Co35 2.111 . S
O45 C56 1.274 . S
O46 Co35 2.143 . S
O46 C59 1.246 . S
O47 Co39 2.286 1_545 S
O47 C58 1.259 1_545 S
O48 Co39 2.069 . S
O48 C58 1.289 . S
O49 Co39 2.015 1_545 S
O49 C59 1.257 . S
O50 Co35 2.111 1_566 S
O50 C60 1.274 . S
O51 Co40 1.976 . S
O51 C60 1.251 . S
O52 Co39 2.264 . S
O52 Co40 2.327 1_554 S
O52 C61 1.257 . S
O53 Co40 2.073 . S
O53 C61 1.245 1_556 S
C54 O62 1.259 1_545 S
C54 O63 1.289 . S
C55 O64 1.246 . S
C55 O65 1.257 . S
C56 O44 1.251 . S
C56 O45 1.274 . S
C57 O42 1.245 1_556 S
C57 O43 1.257 . S
C58 O47 1.259 1_565 S
C58 O48 1.289 . S
C59 O46 1.246 . S
C59 O49 1.257 . S
C60 O50 1.274 . S
C60 O51 1.251 . S
C61 O52 1.257 . S
C61 O53 1.245 1_554 S
O62 Co33 2.286 1_565 S
O62 C54 1.259 1_565 S
O63 Co33 2.069 . S
O63 C54 1.289 . S
O64 Co35 2.143 1_566 S
O64 C55 1.246 . S
O65 Co33 2.015 1_565 S
O65 C55 1.257 . S
Co66 O69 2.042 . S
Co66 O76 2.264 . S
Co66 O95 2.286 1_655 S
Co66 O96 2.069 . S
Co66 O98 2.015 1_655 S
Co67 O69 2.122 1_556 S
Co67 O75 2.073 1_556 S
Co67 O76 2.327 1_556 S
Co67 O77 1.976 . S
Co68 O69 2.087 1_455 S
Co68 O71 2.087 1_554 S
Co68 O78 2.111 1_454 S
Co68 O79 2.143 1_454 S
Co68 O83 2.111 . S
Co68 O97 2.143 . S
O69 Co66 2.042 . S
O69 Co67 2.122 1_554 S
O69 Co68 2.087 1_655 S
O69 H70 0.980 . S
H70 O69 0.980 . S
O71 Co68 2.087 1_556 S
O71 Co72 2.042 . S
O71 Co73 2.122 1_556 S
O71 H74 0.980 . S
Co72 O71 2.042 . S
Co72 O80 2.286 1_455 S
Co72 O81 2.069 . S
Co72 O82 2.015 1_455 S
Co72 O85 2.264 . S
Co73 O71 2.122 1_554 S
Co73 O84 1.976 . S
Co73 O85 2.327 1_554 S
Co73 O86 2.073 1_554 S
H74 O71 0.980 . S
O75 Co67 2.073 1_554 S
O75 C90 1.245 . S
O76 Co66 2.264 . S
O76 Co67 2.327 1_554 S
O76 C90 1.257 . S
O77 Co67 1.976 . S
O77 C89 1.251 . S
O78 Co68 2.111 1_656 S
O78 C89 1.274 . S
O79 Co68 2.143 1_656 S
O79 C92 1.243 . S
O80 Co72 2.286 1_655 S
O80 C91 1.259 1_655 S
O81 Co72 2.069 . S
O81 C91 1.289 . S
O82 Co72 2.015 1_655 S
O82 C92 1.268 . S
O83 Co68 2.111 . S
O83 C93 1.274 . S
O84 Co73 1.976 . S
O84 C93 1.251 . S
O85 Co72 2.264 . S
O85 Co73 2.327 1_556 S
O85 C94 1.257 . S
O86 Co73 2.073 1_556 S
O86 C94 1.245 . S
C87 O95 1.259 1_655 S
C87 O96 1.289 . S
C88 O97 1.242 . S
C88 O98 1.272 . S
C89 O77 1.251 . S
C89 O78 1.274 . S
C90 O75 1.245 . S
C90 O76 1.257 . S
C91 O80 1.259 1_455 S
C91 O81 1.289 . S
C92 O79 1.243 . S
C92 O82 1.268 . S
C93 O83 1.274 . S
C93 O84 1.251 . S
C94 O85 1.257 . S
C94 O86 1.245 . S
O95 Co66 2.286 1_455 S
O95 C87 1.259 1_455 S
O96 Co66 2.069 . S
O96 C87 1.289 . S
O97 Co68 2.143 . S
O97 C88 1.242 . S
O98 Co66 2.015 1_455 S
O98 C88 1.272 . S
H99 C117 0.951 . S
H100 C119 0.951 . S
H101 C121 0.950 . S
H102 C122 0.950 . S
H103 C124 0.950 . S
H104 C127 0.950 . S
H105 C128 0.950 . S
H106 C130 0.950 . S
H107 C131 0.950 . S
H108 C132 0.951 1_455 S
H109 C134 0.951 1_455 S
H110 C136 0.950 . S
H111 C137 0.950 . S
H112 C139 0.950 . S
H113 C142 0.950 . S
H114 C143 0.950 . S
H115 C145 0.950 . S
H116 C146 0.950 . S
C117 H99 0.951 . S
C117 C118 1.366 . S
C117 C119 1.388 . S
C118 C117 1.366 . S
C118 C122 1.385 1_655 S
C119 H100 0.951 . S
C119 C117 1.388 . S
C119 C120 1.366 . S
C120 C119 1.366 . S
C120 C121 1.414 1_655 S
C120 C123 1.499 . S
C121 H101 0.950 . S
C121 C120 1.414 1_455 S
C121 C122 1.374 . S
C122 H102 0.950 . S
C122 C118 1.385 1_455 S
C122 C121 1.374 . S
C123 C120 1.499 . S
C123 C124 1.373 . S
C123 C125 1.389 . S
C124 H103 0.950 . S
C124 C123 1.373 . S
C124 C140 1.377 . S
C125 C123 1.389 . S
C125 C126 1.524 . S
C125 C139 1.377 . S
C126 C125 1.524 . S
C126 C127 1.397 . S
C126 C131 1.363 . S
C127 H104 0.950 . S
C127 C126 1.397 . S
C127 C128 1.334 . S
C128 H105 0.950 . S
C128 C127 1.334 . S
C128 C129 1.287 . S
C129 C128 1.287 . S
C129 C130 1.524 . S
C129 H148 0.913 . S
C130 H106 0.950 . S
C130 C129 1.524 . S
C130 C131 1.415 . S
C131 H107 0.950 . S
C131 C126 1.363 . S
C131 C130 1.415 . S
C132 H108 0.951 1_655 S
C132 C133 1.366 . S
C132 C134 1.388 . S
C133 C132 1.366 . S
C133 C137 1.385 . S
C134 H109 0.951 1_655 S
C134 C132 1.388 . S
C134 C135 1.366 . S
C135 C134 1.366 . S
C135 C136 1.414 . S
C135 C138 1.499 . S
C136 H110 0.950 . S
C136 C135 1.414 . S
C136 C137 1.374 . S
C137 H111 0.950 . S
C137 C133 1.385 . S
C137 C136 1.374 . S
C138 C135 1.499 . S
C138 C139 1.373 . S
C138 C140 1.389 . S
C139 H112 0.950 . S
C139 C125 1.377 . S
C139 C138 1.373 . S
C140 C124 1.377 . S
C140 C138 1.389 . S
C140 C141 1.524 . S
C141 C140 1.524 . S
C141 C142 1.397 . S
C141 C146 1.363 1_655 S
C142 H113 0.950 . S
C142 C141 1.397 . S
C142 C143 1.334 . S
C143 H114 0.950 . S
C143 C142 1.334 . S
C143 C144 1.287 . S
C144 C143 1.287 . S
C144 C145 1.524 1_655 S
C144 H147 0.999 1_655 S
C145 H115 0.950 . S
C145 C144 1.524 1_455 S
C145 C146 1.415 . S
C146 H116 0.950 . S
C146 C141 1.363 1_455 S
C146 C145 1.415 . S
H147 C144 0.999 1_455 S
H148 C129 0.913 . S
H149 C167 0.951 1_565 S
H150 C169 0.951 . S
H151 C171 0.950 . S
H152 C172 0.950 . S
H153 C174 0.950 . S
H154 C177 0.950 . S
H155 C178 0.950 . S
H156 C180 0.950 . S
H157 C181 0.950 . S
H158 C182 0.951 . S
H159 C184 0.951 . S
H160 C186 0.950 . S
H161 C187 0.950 . S
H162 C189 0.951 1_565 S
H163 C192 0.950 . S
H164 C193 0.950 . S
H165 C195 0.950 . S
H166 C196 0.950 . S
C167 H149 0.951 1_545 S
C167 C168 1.366 . S
C167 C169 1.388 1_545 S
C168 C167 1.366 . S
C168 C172 1.385 . S
C169 H150 0.951 . S
C169 C167 1.388 1_565 S
C169 C170 1.366 1_565 S
C170 C169 1.366 1_545 S
C170 C171 1.414 . S
C170 C173 1.499 . S
C171 H151 0.950 . S
C171 C170 1.414 . S
C171 C172 1.374 . S
C172 H152 0.950 . S
C172 C168 1.385 . S
C172 C171 1.374 . S
C173 C170 1.499 . S
C173 C174 1.373 . S
C173 C175 1.389 . S
C174 H153 0.950 . S
C174 C173 1.373 . S
C174 C190 1.377 . S
C175 C173 1.389 . S
C175 C176 1.524 . S
C175 C189 1.377 . S
C176 C175 1.524 . S
C176 C177 1.397 . S
C176 C181 1.363 1_545 S
C177 H154 0.950 . S
C177 C176 1.397 . S
C177 C178 1.334 . S
C178 H155 0.950 . S
C178 C177 1.334 . S
C178 C179 1.287 . S
C179 C178 1.287 . S
C179 C180 1.524 1_545 S
C179 H198 0.913 . S
C180 H156 0.950 . S
C180 C179 1.524 1_565 S
C180 C181 1.415 . S
C181 H157 0.950 . S
C181 C176 1.363 1_565 S
C181 C180 1.415 . S
C182 H158 0.951 . S
C182 C183 1.366 . S
C182 C184 1.388 . S
C183 C182 1.366 . S
C183 C187 1.385 1_545 S
C184 H159 0.951 . S
C184 C182 1.388 . S
C184 C185 1.366 . S
C185 C184 1.366 . S
C185 C186 1.414 1_545 S
C185 C188 1.499 . S
C186 H160 0.950 . S
C186 C185 1.414 1_565 S
C186 C187 1.374 . S
C187 H161 0.950 . S
C187 C183 1.385 1_565 S
C187 C186 1.374 . S
C188 C185 1.499 . S
C188 C189 1.373 . S
C188 C190 1.389 . S
C189 H162 0.951 1_545 S
C189 C175 1.377 . S
C189 C188 1.373 . S
C190 C174 1.377 . S
C190 C188 1.389 . S
C190 C191 1.524 . S
C191 C190 1.524 . S
C191 C192 1.397 1_545 S
C191 C196 1.363 . S
C192 H163 0.950 . S
C192 C191 1.397 1_565 S
C192 C193 1.334 . S
C193 H164 0.950 . S
C193 C192 1.334 . S
C193 C194 1.287 1_565 S
C194 C193 1.287 1_545 S
C194 C195 1.524 . S
C194 H197 0.999 . S
C195 H165 0.950 . S
C195 C194 1.524 . S
C195 C196 1.415 . S
C196 H166 0.950 . S
C196 C191 1.363 . S
C196 C195 1.415 . S
H197 C194 0.999 . S
H198 C179 0.913 . S
H199 C217 0.951 . S
H200 C219 0.951 . S
H201 C221 0.950 . S
H202 C222 0.952 . S
H203 C224 0.950 . S
H204 C227 0.950 . S
H205 C228 0.950 . S
H206 C230 0.950 . S
H207 C231 0.950 . S
H208 C232 0.951 . S
H209 C234 0.951 . S
H210 C236 0.950 . S
H211 C237 0.950 . S
H212 C239 0.950 . S
H213 C242 0.950 . S
H214 C243 0.950 . S
H215 C245 0.950 . S
H216 C246 0.950 . S
C217 H199 0.951 . S
C217 C218 1.366 . S
C217 C219 1.388 . S
C218 C217 1.366 . S
C218 C222 1.382 1_455 S
C219 H200 0.951 . S
C219 C217 1.388 . S
C219 C220 1.366 . S
C220 C219 1.366 . S
C220 C221 1.414 1_455 S
C220 C223 1.499 . S
C221 H201 0.950 . S
C221 C220 1.414 1_655 S
C221 C222 1.374 . S
C222 H202 0.952 . S
C222 C218 1.382 1_655 S
C222 C221 1.374 . S
C223 C220 1.499 . S
C223 C224 1.373 . S
C223 C225 1.389 1_455 S
C224 H203 0.950 . S
C224 C223 1.373 . S
C224 C240 1.377 . S
C225 C223 1.389 1_655 S
C225 C226 1.524 . S
C225 C239 1.377 . S
C226 C225 1.524 . S
C226 C227 1.397 . S
C226 C231 1.363 . S
C227 H204 0.950 . S
C227 C226 1.397 . S
C227 C228 1.334 . S
C228 H205 0.950 . S
C228 C227 1.334 . S
C228 C229 1.287 . S
C229 C228 1.287 . S
C229 C230 1.524 . S
C229 H248 0.913 . S
C230 H206 0.950 . S
C230 C229 1.524 . S
C230 C231 1.415 . S
C231 H207 0.950 . S
C231 C226 1.363 . S
C231 C230 1.415 . S
C232 H208 0.951 . S
C232 C233 1.366 . S
C232 C234 1.388 . S
C233 C232 1.366 . S
C233 C237 1.385 1_655 S
C234 H209 0.951 . S
C234 C232 1.388 . S
C234 C235 1.366 . S
C235 C234 1.366 . S
C235 C236 1.414 1_655 S
C235 C238 1.499 1_655 S
C236 H210 0.950 . S
C236 C235 1.414 1_455 S
C236 C237 1.374 . S
C237 H211 0.950 . S
C237 C233 1.385 1_455 S
C237 C236 1.374 . S
C238 C235 1.499 1_455 S
C238 C239 1.373 1_455 S
C238 C240 1.389 . S
C239 H212 0.950 . S
C239 C225 1.377 . S
C239 C238 1.373 1_655 S
C240 C224 1.377 . S
C240 C238 1.389 . S
C240 C241 1.524 . S
C241 C240 1.524 . S
C241 C242 1.397 . S
C241 C246 1.363 . S
C242 H213 0.950 . S
C242 C241 1.397 . S
C242 C243 1.334 . S
C243 H214 0.950 . S
C243 C242 1.334 . S
C243 C244 1.287 . S
C244 C243 1.287 . S
C244 C245 1.524 . S
C244 H247 0.999 . S
C245 H215 0.950 . S
C245 C244 1.524 . S
C245 C246 1.415 . S
C246 H216 0.950 . S
C246 C241 1.363 . S
C246 C245 1.415 . S
H247 C244 0.999 . S
H248 C229 0.913 . S
H249 C267 0.951 . S
H250 C269 0.951 . S
H251 C271 0.950 . S
H252 C272 0.950 . S
H253 C274 0.950 . S
H254 C277 0.950 . S
H255 C278 0.950 . S
H256 C280 0.950 . S
H257 C281 0.950 . S
H258 C282 0.951 . S
H259 C284 0.954 . S
H260 C286 0.950 . S
H261 C287 0.950 . S
H262 C289 0.950 . S
H263 C292 0.950 . S
H264 C293 0.950 . S
H265 C295 0.950 . S
H266 C296 0.950 . S
C267 H249 0.951 . S
C267 C268 1.366 . S
C267 C269 1.388 . S
C268 C267 1.366 . S
C268 C272 1.385 . S
C269 H250 0.951 . S
C269 C267 1.388 . S
C269 C270 1.366 . S
C270 C269 1.366 . S
C270 C271 1.414 . S
C270 C273 1.499 . S
C271 H251 0.950 . S
C271 C270 1.414 . S
C271 C272 1.374 . S
C272 H252 0.950 . S
C272 C268 1.385 . S
C272 C271 1.374 . S
C273 C270 1.499 . S
C273 C274 1.373 1_565 S
C273 C275 1.389 . S
C274 H253 0.950 . S
C274 C273 1.373 1_545 S
C274 C290 1.377 . S
C275 C273 1.389 . S
C275 C276 1.524 . S
C275 C289 1.377 . S
C276 C275 1.524 . S
C276 C277 1.397 . S
C276 C281 1.363 . S
C277 H254 0.950 . S
C277 C276 1.397 . S
C277 C278 1.334 . S
C278 H255 0.950 . S
C278 C277 1.334 . S
C278 C279 1.287 . S
C279 C278 1.287 . S
C279 C280 1.524 . S
C279 H298 0.913 . S
C280 H256 0.950 . S
C280 C279 1.524 . S
C280 C281 1.415 . S
C281 H257 0.950 . S
C281 C276 1.363 . S
C281 C280 1.415 . S
C282 H258 0.951 . S
C282 C283 1.366 . S
C282 C284 1.388 . S
C283 C282 1.366 . S
C283 C287 1.385 . S
C284 H259 0.954 . S
C284 C282 1.388 . S
C284 C285 1.366 . S
C285 C284 1.366 . S
C285 C286 1.414 . S
C285 C288 1.499 . S
C286 H260 0.950 . S
C286 C285 1.414 . S
C286 C287 1.374 . S
C287 H261 0.950 . S
C287 C283 1.385 . S
C287 C286 1.374 . S
C288 C285 1.499 . S
C288 C289 1.373 . S
C288 C290 1.389 1_565 S
C289 H262 0.950 . S
C289 C275 1.377 . S
C289 C288 1.373 . S
C290 C274 1.377 . S
C290 C288 1.389 1_545 S
C290 C291 1.524 . S
C291 C290 1.524 . S
C291 C292 1.397 . S
C291 C296 1.363 . S
C292 H263 0.950 . S
C292 C291 1.397 . S
C292 C293 1.334 . S
C293 H264 0.950 . S
C293 C292 1.334 . S
C293 C294 1.287 . S
C294 C293 1.287 . S
C294 C295 1.524 . S
C294 H297 0.999 . S
C295 H265 0.950 . S
C295 C294 1.524 . S
C295 C296 1.415 . S
C296 H266 0.950 . S
C296 C291 1.363 . S
C296 C295 1.415 . S
H297 C294 0.999 . S
H298 C279 0.913 . S
H299 C317 0.951 . S
H300 C319 0.951 . S
H301 C321 0.950 . S
H302 C322 0.950 . S
H303 C324 0.950 1_655 S
H304 C327 0.950 . S
H305 C328 0.950 . S
H306 C330 0.950 . S
H307 C331 0.950 . S
H308 C332 0.951 . S
H309 C334 0.951 . S
H310 C336 0.950 . S
H311 C337 0.950 . S
H312 C339 0.950 . S
H313 C342 0.950 . S
H314 C343 0.950 . S
H315 C345 0.950 . S
H316 C346 0.950 . S
C317 H299 0.951 . S
C317 C318 1.366 . S
C317 C319 1.388 . S
C318 C317 1.366 . S
C318 C322 1.385 . S
C319 H300 0.951 . S
C319 C317 1.388 . S
C319 C320 1.366 . S
C320 C319 1.366 . S
C320 C321 1.414 . S
C320 C323 1.499 . S
C321 H301 0.950 . S
C321 C320 1.414 . S
C321 C322 1.374 . S
C322 H302 0.950 . S
C322 C318 1.385 . S
C322 C321 1.374 . S
C323 C320 1.499 . S
C323 C324 1.373 . S
C323 C325 1.389 . S
C324 H303 0.950 1_455 S
C324 C323 1.373 . S
C324 C340 1.377 . S
C325 C323 1.389 . S
C325 C326 1.524 . S
C325 C339 1.377 . S
C326 C325 1.524 . S
C326 C327 1.397 . S
C326 C331 1.363 . S
C327 H304 0.950 . S
C327 C326 1.397 . S
C327 C328 1.334 . S
C328 H305 0.950 . S
C328 C327 1.334 . S
C328 C329 1.287 . S
C329 C328 1.287 . S
C329 C330 1.524 . S
C329 H348 0.913 . S
C330 H306 0.950 . S
C330 C329 1.524 . S
C330 C331 1.415 . S
C331 H307 0.950 . S
C331 C326 1.363 . S
C331 C330 1.415 . S
C332 H308 0.951 . S
C332 C333 1.366 . S
C332 C334 1.388 . S
C333 C332 1.366 . S
C333 C337 1.385 . S
C334 H309 0.951 . S
C334 C332 1.388 . S
C334 C335 1.366 . S
C335 C334 1.366 . S
C335 C336 1.414 . S
C335 C338 1.499 . S
C336 H310 0.950 . S
C336 C335 1.414 . S
C336 C337 1.374 . S
C337 H311 0.950 . S
C337 C333 1.385 . S
C337 C336 1.374 . S
C338 C335 1.499 . S
C338 C339 1.373 . S
C338 C340 1.389 . S
C339 H312 0.950 . S
C339 C325 1.377 . S
C339 C338 1.373 . S
C340 C324 1.377 . S
C340 C338 1.389 . S
C340 C341 1.524 1_455 S
C341 C340 1.524 1_655 S
C341 C342 1.397 . S
C341 C346 1.363 . S
C342 H313 0.950 . S
C342 C341 1.397 . S
C342 C343 1.334 . S
C343 H314 0.950 . S
C343 C342 1.334 . S
C343 C344 1.287 . S
C344 C343 1.287 . S
C344 C345 1.524 . S
C344 H347 0.999 . S
C345 H315 0.950 . S
C345 C344 1.524 . S
C345 C346 1.415 . S
C346 H316 0.950 . S
C346 C341 1.363 . S
C346 C345 1.415 . S
H347 C344 0.999 . S
H348 C329 0.913 . S
H349 C367 0.951 . S
H350 C369 0.951 . S
H351 C371 0.950 . S
H352 C372 0.950 . S
H353 C374 0.950 . S
H354 C377 0.950 1_545 S
H355 C378 0.950 . S
H356 C380 0.950 . S
H357 C381 0.950 . S
H358 C382 0.951 . S
H359 C384 0.951 . S
H360 C386 0.950 . S
H361 C387 0.950 . S
H362 C389 0.950 . S
H363 C392 0.950 . S
H364 C393 0.950 . S
H365 C395 0.950 . S
H366 C396 0.950 . S
C367 H349 0.951 . S
C367 C368 1.366 . S
C367 C369 1.388 . S
C368 C367 1.366 . S
C368 C372 1.385 1_565 S
C369 H350 0.951 . S
C369 C367 1.388 . S
C369 C370 1.366 . S
C370 C369 1.366 . S
C370 C371 1.414 1_565 S
C370 C373 1.499 . S
C371 H351 0.950 . S
C371 C370 1.414 1_545 S
C371 C372 1.374 . S
C372 H352 0.950 . S
C372 C368 1.385 1_545 S
C372 C371 1.374 . S
C373 C370 1.499 . S
C373 C374 1.373 1_565 S
C373 C375 1.389 . S
C374 H353 0.950 . S
C374 C373 1.373 1_545 S
C374 C390 1.377 1_545 S
C375 C373 1.389 . S
C375 C376 1.524 . S
C375 C389 1.377 . S
C376 C375 1.524 . S
C376 C377 1.397 . S
C376 C381 1.363 . S
C377 H354 0.950 1_565 S
C377 C376 1.397 . S
C377 C378 1.334 . S
C378 H355 0.950 . S
C378 C377 1.334 . S
C378 C379 1.287 . S
C379 C378 1.287 . S
C379 C380 1.524 . S
C379 H398 0.913 . S
C380 H356 0.950 . S
C380 C379 1.524 . S
C380 C381 1.415 . S
C381 H357 0.950 . S
C381 C376 1.363 . S
C381 C380 1.415 . S
C382 H358 0.951 . S
C382 C383 1.366 1_545 S
C382 C384 1.388 . S
C383 C382 1.366 1_565 S
C383 C387 1.385 . S
C384 H359 0.951 . S
C384 C382 1.388 . S
C384 C385 1.366 1_545 S
C385 C384 1.366 1_565 S
C385 C386 1.414 . S
C385 C388 1.499 . S
C386 H360 0.950 . S
C386 C385 1.414 . S
C386 C387 1.374 . S
C387 H361 0.950 . S
C387 C383 1.385 . S
C387 C386 1.374 . S
C388 C385 1.499 . S
C388 C389 1.373 . S
C388 C390 1.389 . S
C389 H362 0.950 . S
C389 C375 1.377 . S
C389 C388 1.373 . S
C390 C374 1.377 1_565 S
C390 C388 1.389 . S
C390 C391 1.524 1_565 S
C391 C390 1.524 1_545 S
C391 C392 1.397 1_545 S
C391 C396 1.363 . S
C392 H363 0.950 . S
C392 C391 1.397 1_565 S
C392 C393 1.334 . S
C393 H364 0.950 . S
C393 C392 1.334 . S
C393 C394 1.287 1_565 S
C394 C393 1.287 1_545 S
C394 C395 1.524 . S
C394 H397 0.999 . S
C395 H365 0.950 . S
C395 C394 1.524 . S
C395 C396 1.415 . S
C396 H366 0.950 . S
C396 C391 1.363 . S
C396 C395 1.415 . S
H397 C394 0.999 . S
H398 C379 0.913 . S
H399 C417 0.951 . S
H400 C419 0.951 . S
H401 C421 0.950 . S
H402 C422 0.950 . S
H403 C424 0.950 . S
H404 C427 0.950 . S
H405 C428 0.950 . S
H406 C430 0.950 . S
H407 C431 0.950 . S
H408 C432 0.951 . S
H409 C434 0.951 . S
H410 C436 0.950 . S
H411 C437 0.952 . S
H412 C439 0.950 . S
H413 C442 0.950 . S
H414 C443 0.950 . S
H415 C445 0.950 . S
H416 C446 0.950 . S
C417 H399 0.951 . S
C417 C418 1.366 . S
C417 C419 1.388 . S
C418 C417 1.366 . S
C418 C422 1.385 1_455 S
C419 H400 0.951 . S
C419 C417 1.388 . S
C419 C420 1.366 . S
C420 C419 1.366 . S
C420 C421 1.414 1_455 S
C420 C423 1.499 . S
C421 H401 0.950 . S
C421 C420 1.414 1_655 S
C421 C422 1.374 . S
C422 H402 0.950 . S
C422 C418 1.385 1_655 S
C422 C421 1.374 . S
C423 C420 1.499 . S
C423 C424 1.373 1_455 S
C423 C425 1.389 . S
C424 H403 0.950 . S
C424 C423 1.373 1_655 S
C424 C440 1.377 . S
C425 C423 1.389 . S
C425 C426 1.524 . S
C425 C439 1.377 . S
C426 C425 1.524 . S
C426 C427 1.397 . S
C426 C431 1.363 . S
C427 H404 0.950 . S
C427 C426 1.397 . S
C427 C428 1.334 . S
C428 H405 0.950 . S
C428 C427 1.334 . S
C428 C429 1.287 . S
C429 C428 1.287 . S
C429 C430 1.524 . S
C429 H448 0.913 . S
C430 H406 0.950 . S
C430 C429 1.524 . S
C430 C431 1.415 . S
C431 H407 0.950 . S
C431 C426 1.363 . S
C431 C430 1.415 . S
C432 H408 0.951 . S
C432 C433 1.366 . S
C432 C434 1.388 . S
C433 C432 1.366 . S
C433 C437 1.382 1_655 S
C434 H409 0.951 . S
C434 C432 1.388 . S
C434 C435 1.366 . S
C435 C434 1.366 . S
C435 C436 1.414 1_655 S
C435 C438 1.499 . S
C436 H410 0.950 . S
C436 C435 1.414 1_455 S
C436 C437 1.374 . S
C437 H411 0.952 . S
C437 C433 1.382 1_455 S
C437 C436 1.374 . S
C438 C435 1.499 . S
C438 C439 1.373 1_655 S
C438 C440 1.389 . S
C439 H412 0.950 . S
C439 C425 1.377 . S
C439 C438 1.373 1_455 S
C440 C424 1.377 . S
C440 C438 1.389 . S
C440 C441 1.524 . S
C441 C440 1.524 . S
C441 C442 1.397 . S
C441 C446 1.363 . S
C442 H413 0.950 . S
C442 C441 1.397 . S
C442 C443 1.334 . S
C443 H414 0.950 . S
C443 C442 1.334 . S
C443 C444 1.287 . S
C444 C443 1.287 . S
C444 C445 1.524 . S
C444 H447 0.999 . S
C445 H415 0.950 . S
C445 C444 1.524 . S
C445 C446 1.415 . S
C446 H416 0.950 . S
C446 C441 1.363 . S
C446 C445 1.415 . S
H447 C444 0.999 . S
H448 C429 0.913 . S
H449 C467 0.951 . S
H450 C469 0.951 . S
H451 C471 0.950 . S
H452 C472 0.950 . S
H453 C474 0.950 . S
H454 C477 0.950 . S
H455 C478 0.950 . S
H456 C480 0.950 . S
H457 C481 0.950 . S
H458 C482 0.951 . S
H459 C484 0.951 . S
H460 C486 0.950 . S
H461 C487 0.950 . S
H462 C489 0.950 . S
H463 C492 0.950 . S
H464 C493 0.950 . S
H465 C495 0.950 . S
H466 C496 0.950 . S
C467 H449 0.951 . S
C467 C468 1.366 1_565 S
C467 C469 1.388 . S
C468 C467 1.366 1_545 S
C468 C472 1.385 . S
C469 H450 0.951 . S
C469 C467 1.388 . S
C469 C470 1.366 1_565 S
C470 C469 1.366 1_545 S
C470 C471 1.414 . S
C470 C473 1.499 . S
C471 H451 0.950 . S
C471 C470 1.414 . S
C471 C472 1.374 . S
C472 H452 0.950 . S
C472 C468 1.385 . S
C472 C471 1.374 . S
C473 C470 1.499 . S
C473 C474 1.373 . S
C473 C475 1.389 1_545 S
C474 H453 0.950 . S
C474 C473 1.373 . S
C474 C490 1.377 . S
C475 C473 1.389 1_565 S
C475 C476 1.524 . S
C475 C489 1.377 . S
C476 C475 1.524 . S
C476 C477 1.397 . S
C476 C481 1.363 . S
C477 H454 0.950 . S
C477 C476 1.397 . S
C477 C478 1.334 . S
C478 H455 0.950 . S
C478 C477 1.334 . S
C478 C479 1.287 . S
C479 C478 1.287 . S
C479 C480 1.524 . S
C479 H498 0.913 . S
C480 H456 0.950 . S
C480 C479 1.524 . S
C480 C481 1.415 . S
C481 H457 0.950 . S
C481 C476 1.363 . S
C481 C480 1.415 . S
C482 H458 0.951 . S
C482 C483 1.366 . S
C482 C484 1.388 . S
C483 C482 1.366 . S
C483 C487 1.385 1_545 S
C484 H459 0.951 . S
C484 C482 1.388 . S
C484 C485 1.366 . S
C485 C484 1.366 . S
C485 C486 1.414 1_545 S
C485 C488 1.499 . S
C486 H460 0.950 . S
C486 C485 1.414 1_565 S
C486 C487 1.374 . S
C487 H461 0.950 . S
C487 C483 1.385 1_565 S
C487 C486 1.374 . S
C488 C485 1.499 . S
C488 C489 1.373 1_545 S
C488 C490 1.389 . S
C489 H462 0.950 . S
C489 C475 1.377 . S
C489 C488 1.373 1_565 S
C490 C474 1.377 . S
C490 C488 1.389 . S
C490 C491 1.524 . S
C491 C490 1.524 . S
C491 C492 1.397 . S
C491 C496 1.363 . S
C492 H463 0.950 . S
C492 C491 1.397 . S
C492 C493 1.334 . S
C493 H464 0.950 . S
C493 C492 1.334 . S
C493 C494 1.287 . S
C494 C493 1.287 . S
C494 C495 1.524 . S
C494 H497 0.999 . S
C495 H465 0.950 . S
C495 C494 1.524 . S
C495 C496 1.415 . S
C496 H466 0.950 . S
C496 C491 1.363 . S
C496 C495 1.415 . S
H497 C494 0.999 . S
H498 C479 0.913 . S
H499 C517 0.951 . S
H500 C519 0.951 . S
H501 C521 0.950 . S
H502 C522 0.950 . S
H503 C524 0.950 . S
H504 C527 0.950 . S
H505 C528 0.950 1_556 S
H506 C530 0.950 . S
H507 C531 0.950 . S
H508 C532 0.951 . S
H509 C534 0.951 . S
H510 C536 0.950 . S
H511 C537 0.950 . S
H512 C539 0.950 . S
H513 C542 0.950 . S
H514 C543 0.950 1_554 S
H515 C545 0.950 . S
H516 C546 0.950 . S
C517 H499 0.951 . S
C517 C518 1.366 1_554 S
C517 C519 1.388 . S
C518 C517 1.366 1_556 S
C518 C522 1.385 . S
C519 H500 0.951 . S
C519 C517 1.388 . S
C519 C520 1.366 1_554 S
C520 C519 1.366 1_556 S
C520 C521 1.414 . S
C520 C523 1.499 . S
C521 H501 0.950 . S
C521 C520 1.414 . S
C521 C522 1.374 . S
C522 H502 0.950 . S
C522 C518 1.385 . S
C522 C521 1.374 . S
C523 C520 1.499 . S
C523 C524 1.373 . S
C523 C525 1.389 1_556 S
C524 H503 0.950 . S
C524 C523 1.373 . S
C524 C540 1.377 . S
C525 C523 1.389 1_554 S
C525 C526 1.524 . S
C525 C539 1.377 . S
C526 C525 1.524 . S
C526 C527 1.397 1_554 S
C526 C531 1.363 . S
C527 H504 0.950 . S
C527 C526 1.397 1_556 S
C527 C528 1.334 1_556 S
C528 H505 0.950 1_554 S
C528 C527 1.334 1_554 S
C528 C529 1.287 . S
C529 C528 1.287 . S
C529 C530 1.524 . S
C529 H548 0.913 . S
C530 H506 0.950 . S
C530 C529 1.524 . S
C530 C531 1.415 . S
C531 H507 0.950 . S
C531 C526 1.363 . S
C531 C530 1.415 . S
C532 H508 0.951 . S
C532 C533 1.366 1_556 S
C532 C534 1.388 . S
C533 C532 1.366 1_554 S
C533 C537 1.385 . S
C534 H509 0.951 . S
C534 C532 1.388 . S
C534 C535 1.366 1_556 S
C535 C534 1.366 1_554 S
C535 C536 1.414 . S
C535 C538 1.499 . S
C536 H510 0.950 . S
C536 C535 1.414 . S
C536 C537 1.374 . S
C537 H511 0.950 . S
C537 C533 1.385 . S
C537 C536 1.374 . S
C538 C535 1.499 . S
C538 C539 1.373 . S
C538 C540 1.389 1_554 S
C539 H512 0.950 . S
C539 C525 1.377 . S
C539 C538 1.373 . S
C540 C524 1.377 . S
C540 C538 1.389 1_556 S
C540 C541 1.524 . S
C541 C540 1.524 . S
C541 C542 1.397 1_556 S
C541 C546 1.363 . S
C542 H513 0.950 . S
C542 C541 1.397 1_554 S
C542 C543 1.334 1_554 S
C543 H514 0.950 1_556 S
C543 C542 1.334 1_556 S
C543 C544 1.287 . S
C544 C543 1.287 . S
C544 C545 1.524 . S
C544 H547 0.999 . S
C545 H515 0.950 . S
C545 C544 1.524 . S
C545 C546 1.415 . S
C546 H516 0.950 . S
C546 C541 1.363 . S
C546 C545 1.415 . S
H547 C544 0.999 . S
H548 C529 0.913 . S
H549 C567 0.951 . S
H550 C569 0.951 . S
H551 C571 0.950 . S
H552 C572 0.950 . S
H553 C574 0.950 . S
H554 C577 0.950 . S
H555 C578 0.950 . S
H556 C580 0.950 . S
H557 C581 0.950 . S
H558 C582 0.951 . S
H559 C584 0.951 . S
H560 C586 0.950 . S
H561 C587 0.950 . S
H562 C589 0.950 . S
H563 C592 0.950 . S
H564 C593 0.950 . S
H565 C595 0.950 . S
H566 C596 0.950 . S
C567 H549 0.951 . S
C567 C568 1.366 . S
C567 C569 1.388 . S
C568 C567 1.366 . S
C568 C572 1.385 . S
C569 H550 0.951 . S
C569 C567 1.388 . S
C569 C570 1.366 . S
C570 C569 1.366 . S
C570 C571 1.414 . S
C570 C573 1.499 . S
C571 H551 0.950 . S
C571 C570 1.414 . S
C571 C572 1.374 . S
C572 H552 0.950 . S
C572 C568 1.385 . S
C572 C571 1.374 . S
C573 C570 1.499 . S
C573 C574 1.373 1_556 S
C573 C575 1.389 . S
C574 H553 0.950 . S
C574 C573 1.373 1_554 S
C574 C590 1.377 . S
C575 C573 1.389 . S
C575 C576 1.524 . S
C575 C589 1.377 . S
C576 C575 1.524 . S
C576 C577 1.397 . S
C576 C581 1.363 . S
C577 H554 0.950 . S
C577 C576 1.397 . S
C577 C578 1.334 . S
C578 H555 0.950 . S
C578 C577 1.334 . S
C578 C579 1.287 . S
C579 C578 1.287 . S
C579 C580 1.524 . S
C579 H598 0.913 . S
C580 H556 0.950 . S
C580 C579 1.524 . S
C580 C581 1.415 . S
C581 H557 0.950 . S
C581 C576 1.363 . S
C581 C580 1.415 . S
C582 H558 0.951 . S
C582 C583 1.366 . S
C582 C584 1.388 . S
C583 C582 1.366 . S
C583 C587 1.385 . S
C584 H559 0.951 . S
C584 C582 1.388 . S
C584 C585 1.366 . S
C585 C584 1.366 . S
C585 C586 1.414 . S
C585 C588 1.499 . S
C586 H560 0.950 . S
C586 C585 1.414 . S
C586 C587 1.374 . S
C587 H561 0.950 . S
C587 C583 1.385 . S
C587 C586 1.374 . S
C588 C585 1.499 . S
C588 C589 1.373 1_554 S
C588 C590 1.389 . S
C589 H562 0.950 . S
C589 C575 1.377 . S
C589 C588 1.373 1_556 S
C590 C574 1.377 . S
C590 C588 1.389 . S
C590 C591 1.524 . S
C591 C590 1.524 . S
C591 C592 1.397 . S
C591 C596 1.363 . S
C592 H563 0.950 . S
C592 C591 1.397 . S
C592 C593 1.334 . S
C593 H564 0.950 . S
C593 C592 1.334 . S
C593 C594 1.287 . S
C594 C593 1.287 . S
C594 C595 1.524 . S
C594 H597 0.999 . S
C595 H565 0.950 . S
C595 C594 1.524 . S
C595 C596 1.415 . S
C596 H566 0.950 . S
C596 C591 1.363 . S
C596 C595 1.415 . S
H597 C594 0.999 . S
H598 C579 0.913 . S
H599 C617 0.951 . S
H600 C619 0.951 . S
H601 C621 0.950 . S
H602 C622 0.950 . S
H603 C624 0.950 . S
H604 C627 0.950 . S
H605 C628 0.950 . S
H606 C630 0.950 . S
H607 C631 0.950 . S
H608 C632 0.951 . S
H609 C634 0.951 . S
H610 C636 0.950 . S
H611 C637 0.950 . S
H612 C639 0.950 . S
H613 C642 0.950 . S
H614 C643 0.950 . S
H615 C645 0.950 . S
H616 C646 0.950 . S
C617 H599 0.951 . S
C617 C618 1.366 . S
C617 C619 1.388 . S
C618 C617 1.366 . S
C618 C622 1.385 . S
C619 H600 0.951 . S
C619 C617 1.388 . S
C619 C620 1.366 . S
C620 C619 1.366 . S
C620 C621 1.414 . S
C620 C623 1.499 . S
C621 H601 0.950 . S
C621 C620 1.414 . S
C621 C622 1.374 . S
C622 H602 0.950 . S
C622 C618 1.385 . S
C622 C621 1.374 . S
C623 C620 1.499 . S
C623 C624 1.373 1_556 S
C623 C625 1.389 . S
C624 H603 0.950 . S
C624 C623 1.373 1_554 S
C624 C640 1.377 . S
C625 C623 1.389 . S
C625 C626 1.524 . S
C625 C639 1.377 . S
C626 C625 1.524 . S
C626 C627 1.397 . S
C626 C631 1.363 . S
C627 H604 0.950 . S
C627 C626 1.397 . S
C627 C628 1.334 . S
C628 H605 0.950 . S
C628 C627 1.334 . S
C628 C629 1.287 . S
C629 C628 1.287 . S
C629 C630 1.524 . S
C629 H648 0.913 . S
C630 H606 0.950 . S
C630 C629 1.524 . S
C630 C631 1.415 . S
C631 H607 0.950 . S
C631 C626 1.363 . S
C631 C630 1.415 . S
C632 H608 0.951 . S
C632 C633 1.366 . S
C632 C634 1.388 . S
C633 C632 1.366 . S
C633 C637 1.385 . S
C634 H609 0.951 . S
C634 C632 1.388 . S
C634 C635 1.366 . S
C635 C634 1.366 . S
C635 C636 1.414 . S
C635 C638 1.499 . S
C636 H610 0.950 . S
C636 C635 1.414 . S
C636 C637 1.374 . S
C637 H611 0.950 . S
C637 C633 1.385 . S
C637 C636 1.374 . S
C638 C635 1.499 . S
C638 C639 1.373 1_554 S
C638 C640 1.389 . S
C639 H612 0.950 . S
C639 C625 1.377 . S
C639 C638 1.373 1_556 S
C640 C624 1.377 . S
C640 C638 1.389 . S
C640 C641 1.524 . S
C641 C640 1.524 . S
C641 C642 1.397 . S
C641 C646 1.363 . S
C642 H613 0.950 . S
C642 C641 1.397 . S
C642 C643 1.334 . S
C643 H614 0.950 . S
C643 C642 1.334 . S
C643 C644 1.287 . S
C644 C643 1.287 . S
C644 C645 1.524 . S
C644 H647 0.999 . S
C645 H615 0.950 . S
C645 C644 1.524 . S
C645 C646 1.415 . S
C646 H616 0.950 . S
C646 C641 1.363 . S
C646 C645 1.415 . S
H647 C644 0.999 . S
H648 C629 0.913 . S
H649 C667 0.951 . S
H650 C669 0.951 . S
H651 C671 0.950 . S
H652 C672 0.950 . S
H653 C674 0.950 . S
H654 C677 0.950 1_556 S
H655 C678 0.950 . S
H656 C680 0.950 . S
H657 C681 0.950 . S
H658 C682 0.951 . S
H659 C684 0.951 . S
H660 C686 0.950 . S
H661 C687 0.950 . S
H662 C689 0.950 . S
H663 C692 0.950 1_554 S
H664 C693 0.950 . S
H665 C695 0.950 . S
H666 C696 0.950 . S
C667 H649 0.951 . S
C667 C668 1.366 . S
C667 C669 1.388 . S
C668 C667 1.366 . S
C668 C672 1.385 1_554 S
C669 H650 0.951 . S
C669 C667 1.388 . S
C669 C670 1.366 . S
C670 C669 1.366 . S
C670 C671 1.414 1_554 S
C670 C673 1.499 . S
C671 H651 0.950 . S
C671 C670 1.414 1_556 S
C671 C672 1.374 . S
C672 H652 0.950 . S
C672 C668 1.385 1_556 S
C672 C671 1.374 . S
C673 C670 1.499 . S
C673 C674 1.373 1_554 S
C673 C675 1.389 . S
C674 H653 0.950 . S
C674 C673 1.373 1_556 S
C674 C690 1.377 . S
C675 C673 1.389 . S
C675 C676 1.524 . S
C675 C689 1.377 . S
C676 C675 1.524 . S
C676 C677 1.397 . S
C676 C681 1.363 . S
C677 H654 0.950 1_554 S
C677 C676 1.397 . S
C677 C678 1.334 . S
C678 H655 0.950 . S
C678 C677 1.334 . S
C678 C679 1.287 . S
C679 C678 1.287 . S
C679 C680 1.524 . S
C679 H698 0.913 . S
C680 H656 0.950 . S
C680 C679 1.524 . S
C680 C681 1.415 . S
C681 H657 0.950 . S
C681 C676 1.363 . S
C681 C680 1.415 . S
C682 H658 0.951 . S
C682 C683 1.366 . S
C682 C684 1.388 . S
C683 C682 1.366 . S
C683 C687 1.385 1_556 S
C684 H659 0.951 . S
C684 C682 1.388 . S
C684 C685 1.366 . S
C685 C684 1.366 . S
C685 C686 1.414 1_556 S
C685 C688 1.499 1_556 S
C686 H660 0.950 . S
C686 C685 1.414 1_554 S
C686 C687 1.374 . S
C687 H661 0.950 . S
C687 C683 1.385 1_554 S
C687 C686 1.374 . S
C688 C685 1.499 1_554 S
C688 C689 1.373 . S
C688 C690 1.389 1_554 S
C689 H662 0.950 . S
C689 C675 1.377 . S
C689 C688 1.373 . S
C690 C674 1.377 . S
C690 C688 1.389 1_556 S
C690 C691 1.524 . S
C691 C690 1.524 . S
C691 C692 1.397 . S
C691 C696 1.363 . S
C692 H663 0.950 1_556 S
C692 C691 1.397 . S
C692 C693 1.334 . S
C693 H664 0.950 . S
C693 C692 1.334 . S
C693 C694 1.287 . S
C694 C693 1.287 . S
C694 C695 1.524 . S
C694 H697 0.999 . S
C695 H665 0.950 . S
C695 C694 1.524 . S
C695 C696 1.415 . S
C696 H666 0.950 . S
C696 C691 1.363 . S
C696 C695 1.415 . S
H697 C694 0.999 . S
H698 C679 0.913 . S
C118 C87 1.892 . S
C133 C25 1.854 . S
C168 C28 1.069 . S
C183 C56 1.058 . S
C218 C27 0.997 1_455 S
C233 C93 1.001 1_655 S
C268 C58 2.056 . S
C283 C26 1.942 . S
C318 C21 1.855 . S
C333 C91 1.894 . S
C368 C60 1.058 . S
C383 C24 1.069 . S
C418 C89 1.000 1_455 S
C433 C23 0.994 1_655 S
C468 C54 2.056 . S
C483 C22 1.948 . S
C518 C88 2.108 1_556 S
C533 C59 2.158 . S
C568 C94 1.046 . S
C583 C61 1.049 . S
C618 C57 1.050 . S
C633 C90 1.046 . S
C668 C92 2.108 1_554 S
C683 C55 2.163 . S
