# Generated by pormake.
# Topology bcu-j, (5)-cn, num edge types: 1
# Building blocks:
#     Node 0, Type 0, BuildingBlock: XOMCOT_clean_sbu_1, # of connection points: 5
#     Node 1, Type 0, BuildingBlock: XOMCOT_clean_sbu_1, # of connection points: 5
#     Node 2, Type 0, BuildingBlock: XOMCOT_clean_sbu_1, # of connection points: 5
#     Node 3, Type 0, BuildingBlock: XOMCOT_clean_sbu_1, # of connection points: 5
#     Node 4, Type 0, BuildingBlock: XOMCOT_clean_sbu_1, # of connection points: 5
#     Node 5, Type 0, BuildingBlock: XOMCOT_clean_sbu_1, # of connection points: 5
#     Node 6, Type 0, BuildingBlock: XOMCOT_clean_sbu_1, # of connection points: 5
#     Node 7, Type 0, BuildingBlock: XOMCOT_clean_sbu_1, # of connection points: 5
#     Node 8, Type 0, BuildingBlock: XOMCOT_clean_sbu_1, # of connection points: 5
#     Node 9, Type 0, BuildingBlock: XOMCOT_clean_sbu_1, # of connection points: 5
#     Node 10, Type 0, BuildingBlock: XOMCOT_clean_sbu_1, # of connection points: 5
#     Node 11, Type 0, BuildingBlock: XOMCOT_clean_sbu_1, # of connection points: 5
#     Node 12, Type 0, BuildingBlock: XOMCOT_clean_sbu_1, # of connection points: 5
#     Node 13, Type 0, BuildingBlock: XOMCOT_clean_sbu_1, # of connection points: 5
#     Node 14, Type 0, BuildingBlock: XOMCOT_clean_sbu_1, # of connection points: 5
#     Node 15, Type 0, BuildingBlock: XOMCOT_clean_sbu_1, # of connection points: 5
#     Edge 16, Type (0, 0), None
#     Edge 17, Type (0, 0), None
#     Edge 18, Type (0, 0), None
#     Edge 19, Type (0, 0), None
#     Edge 20, Type (0, 0), None
#     Edge 21, Type (0, 0), None
#     Edge 22, Type (0, 0), None
#     Edge 23, Type (0, 0), None
#     Edge 24, Type (0, 0), None
#     Edge 25, Type (0, 0), None
#     Edge 26, Type (0, 0), None
#     Edge 27, Type (0, 0), None
#     Edge 28, Type (0, 0), None
#     Edge 29, Type (0, 0), None
#     Edge 30, Type (0, 0), None
#     Edge 31, Type (0, 0), None
#     Edge 32, Type (0, 0), None
#     Edge 33, Type (0, 0), None
#     Edge 34, Type (0, 0), None
#     Edge 35, Type (0, 0), None
#     Edge 36, Type (0, 0), None
#     Edge 37, Type (0, 0), None
#     Edge 38, Type (0, 0), None
#     Edge 39, Type (0, 0), None
#     Edge 40, Type (0, 0), None
#     Edge 41, Type (0, 0), None
#     Edge 42, Type (0, 0), None
#     Edge 43, Type (0, 0), None
#     Edge 44, Type (0, 0), None
#     Edge 45, Type (0, 0), None
#     Edge 46, Type (0, 0), None
#     Edge 47, Type (0, 0), None
#     Edge 48, Type (0, 0), None
#     Edge 49, Type (0, 0), None
#     Edge 50, Type (0, 0), None
#     Edge 51, Type (0, 0), None
#     Edge 52, Type (0, 0), None
#     Edge 53, Type (0, 0), None
#     Edge 54, Type (0, 0), None
#     Edge 55, Type (0, 0), None
# Relax obj value: 0.664
# Max RMSD: 0.310
# Mean RMSD: 0.310
data_MOF--net-bcu-j--node1-XOMCOT_clean_sbu_1--edge1-none
_symmetry_space_group_name_H-M    P1
_symmetry_Int_Tables_number       1
_symmetry_cell_setting            triclinic
loop_
_symmetry_equiv_pos_as_xyz
'x, y, z'
_cell_length_a     23.095218
_cell_length_b     23.095012
_cell_length_c     25.914812
_cell_angle_alpha  90.000031
_cell_angle_beta   89.999973
_cell_angle_gamma 89.996183
loop_
_atom_site_label
_atom_site_type_symbol
_atom_site_fract_x
_atom_site_fract_y
_atom_site_fract_z
_atom_type_partial_charge
C0 C 0.10825 0.09311 0.54834 0.0
C1 C 0.16393 0.07338 0.543 0.0
N2 N 0.1893 0.07373 0.58989 0.0
N3 N 0.09828 0.10416 0.59861 0.0
C4 C 0.14915 0.0938 0.62281 0.0
H5 H 0.07617 0.09648 0.51807 0.0
Co6 Co 0.02815 0.12532 0.62846 0.0
C7 C 0.03416 0.04872 0.72042 0.0
O8 O -0.01313 0.02309 0.70441 0.0
N9 N 0.95758 0.14912 0.66128 0.0
C10 C 0.88252 0.1508 0.71602 0.0
C11 C 0.91168 0.11855 0.67936 0.0
C12 C 0.95181 0.20105 0.68457 0.0
N13 N 0.90902 0.20236 0.71953 0.0
O14 O 0.06173 0.1986 0.64079 0.0
H15 H 0.90252 0.07384 0.67032 0.0
H16 H -0.01802 0.23629 0.68083 0.0
O17 O 0.05497 0.09173 0.69528 0.0
C18 C 0.05209 0.22332 0.59726 0.0
O19 O 0.02495 0.19412 0.56101 0.0
N20 N -0.00501 0.05633 0.6052 0.0
C21 C -0.01318 -0.00793 0.51455 0.0
C22 C 0.02474 0.97511 0.55459 0.0
C23 C 0.02692 0.00689 0.60035 0.0
C24 C 0.95228 0.06827 0.57061 0.0
C25 C 0.94626 0.03565 0.52598 0.0
H26 H 0.06177 -0.00208 0.62706 0.0
H27 H 0.92779 0.108 0.57347 0.0
H28 H 0.15591 0.09808 0.66396 0.0
H29 H 0.18383 0.05868 0.50749 0.0
H30 H 0.84915 0.13525 0.74185 0.0
H31 H 0.05644 0.94124 0.55004 0.0
H32 H 0.91249 0.04823 0.49948 0.0
C33 C 0.37831 0.09305 0.54995 0.0
C34 C 0.39519 0.14944 0.54279 0.0
N35 N 0.38965 0.17748 0.58814 0.0
N36 N 0.36381 0.08559 0.59991 0.0
C37 C 0.36986 0.13822 0.62195 0.0
H38 H 0.37704 0.05959 0.52081 0.0
Co39 Co 0.33804 0.01902 0.63284 0.0
C40 C 0.41841 0.02899 0.72403 0.0
O41 O 0.44289 -0.02043 0.71209 0.0
N42 N 0.31058 0.95223 0.6684 0.0
C43 C 0.30434 0.87786 0.72328 0.0
C44 C 0.33964 0.90677 0.68887 0.0
C45 C 0.25684 0.94707 0.68823 0.0
N46 N 0.25242 0.90426 0.72329 0.0
O47 O 0.26683 0.05857 0.64506 0.0
H48 H 0.38473 0.8971 0.68212 0.0
H49 H 0.22222 0.97696 0.68042 0.0
O50 O 0.37524 0.04768 0.69774 0.0
C51 C 0.24251 0.05236 0.60079 0.0
O52 O 0.26981 0.02279 0.56488 0.0
N53 N 0.40304 -0.0204 0.60952 0.0
C54 C 0.46409 0.96459 0.51782 0.0
C55 C 0.48893 -0.00536 0.55991 0.0
C56 C 0.45684 0.00337 0.60486 0.0
C57 C 0.38329 0.94159 0.57342 0.0
C58 C 0.41232 0.93439 0.52697 0.0
H59 H 0.47155 0.03611 0.63159 0.0
H60 H 0.33982 0.92456 0.57628 0.0
H61 H 0.36066 0.14746 0.66207 0.0
H62 H 0.41026 0.16837 0.50699 0.0
H63 H 0.31758 0.84374 0.74933 0.0
H64 H 0.53054 0.01572 0.55739 0.0
H65 H 0.39056 0.90954 0.49757 0.0
C66 C 0.34813 0.36343 0.54843 0.0
C67 C 0.29245 0.38317 0.54309 0.0
N68 N 0.26707 0.38281 0.58997 0.0
N69 N 0.35808 0.35237 0.5987 0.0
C70 C 0.30721 0.36272 0.6229 0.0
H71 H 0.38021 0.36007 0.51817 0.0
Co72 Co 0.4282 0.33119 0.62856 0.0
C73 C 0.42214 0.40778 0.72054 0.0
O74 O 0.46942 0.43344 0.70454 0.0
N75 N 0.49876 0.30738 0.6614 0.0
C76 C 0.57378 0.30568 0.71617 0.0
C77 C 0.54463 0.33795 0.67953 0.0
C78 C 0.50453 0.25543 0.68465 0.0
N79 N 0.54731 0.25411 0.71963 0.0
O80 O 0.39461 0.25791 0.64086 0.0
H81 H 0.55379 0.38267 0.67053 0.0
H82 H 0.47438 0.22018 0.68087 0.0
O83 O 0.40136 0.36475 0.69539 0.0
C84 C 0.40427 0.23321 0.59733 0.0
O85 O 0.43144 0.26244 0.5611 0.0
N86 N 0.46137 0.40019 0.60533 0.0
C87 C 0.46959 0.46442 0.51468 0.0
C88 C 0.43163 0.48139 0.55469 0.0
C89 C 0.42944 0.44962 0.60046 0.0
C90 C 0.50412 0.38825 0.57076 0.0
C91 C 0.51015 0.42087 0.52613 0.0
H92 H 0.39458 0.4586 0.62715 0.0
H93 H 0.52862 0.34853 0.57364 0.0
H94 H 0.30044 0.35843 0.66404 0.0
H95 H 0.27255 0.39789 0.50758 0.0
H96 H 0.60713 0.32122 0.74203 0.0
H97 H 0.39993 0.51524 0.55011 0.0
H98 H 0.54394 0.4083 0.49966 0.0
C99 C 0.07809 0.36352 0.54996 0.0
C100 C 0.0612 0.30714 0.54277 0.0
N101 N 0.06669 0.27906 0.58812 0.0
N102 N 0.09256 0.37095 0.59994 0.0
C103 C 0.08648 0.3183 0.62195 0.0
H104 H 0.07939 0.39699 0.52084 0.0
Co105 Co 0.11831 0.4375 0.63291 0.0
C106 C 0.03792 0.42745 0.72408 0.0
O107 O 0.01344 0.47687 0.71218 0.0
N108 N 0.14575 0.50427 0.66852 0.0
C109 C 0.15196 0.57858 0.72346 0.0
C110 C 0.11668 0.5497 0.68902 0.0
C111 C 0.19948 0.50941 0.68837 0.0
N112 N 0.20388 0.55219 0.72346 0.0
O113 O 0.18952 0.39794 0.64513 0.0
H114 H 0.07159 0.55937 0.68226 0.0
H115 H 0.23411 0.47953 0.68056 0.0
O116 O 0.0811 0.40877 0.69779 0.0
C117 C 0.21386 0.40418 0.60086 0.0
O118 O 0.18657 0.43378 0.56496 0.0
N119 N 0.0533 0.47691 0.60961 0.0
C120 C -0.00769 0.49188 0.51788 0.0
C121 C 0.96746 0.46183 0.55996 0.0
C122 C -0.00049 0.45312 0.60493 0.0
C123 C 0.07305 0.51494 0.57352 0.0
C124 C 0.04405 0.52213 0.52706 0.0
H125 H -0.01519 0.42038 0.63165 0.0
H126 H 0.11651 0.53201 0.57641 0.0
H127 H 0.09566 0.30903 0.66207 0.0
H128 H 0.04616 0.28822 0.50695 0.0
H129 H 0.13871 0.61268 0.74953 0.0
H130 H 0.92586 0.44073 0.55742 0.0
H131 H 0.0658 0.54699 0.49767 0.0
C132 C 0.08733 0.37477 0.94015 0.0
C133 C 0.14018 0.40147 0.94429 0.0
N134 N 0.16688 0.39792 0.89816 0.0
N135 N 0.08048 0.35587 0.89128 0.0
C136 C 0.13045 0.36926 0.86701 0.0
H137 H 0.05574 0.37028 0.97059 0.0
Co138 Co 0.01557 0.323 0.86067 0.0
C139 C 0.0097 0.39169 0.76408 0.0
O140 O 0.95419 0.39938 0.77278 0.0
N141 N 0.95123 0.28915 0.8276 0.0
C142 C 0.86988 0.24685 0.79919 0.0
C143 C 0.89459 0.27912 0.83854 0.0
C144 C 0.95937 0.26314 0.78185 0.0
N145 N 0.91113 0.23787 0.76364 0.0
O146 O 0.05946 0.2547 0.84803 0.0
H147 H 0.87226 0.29263 0.87305 0.0
H148 H 0.00121 0.26064 0.76329 0.0
O149 O 0.03936 0.36044 0.79493 0.0
C150 C 0.05922 0.23011 0.89235 0.0
O151 O 0.03167 0.2554 0.93059 0.0
N152 N 0.97216 0.38555 0.88278 0.0
C153 C 0.95894 0.45818 0.96731 0.0
C154 C -0.02047 0.47996 0.91987 0.0
C155 C -0.01262 0.44241 0.87823 0.0
C156 C 0.94414 0.36627 0.92571 0.0
C157 C 0.93723 0.40163 0.96843 0.0
H158 H 0.01315 0.45733 0.84618 0.0
H159 H 0.9373 0.32048 0.93116 0.0
H160 H 0.1397 0.35914 0.82706 0.0
H161 H 0.15774 0.42165 0.97862 0.0
H162 H 0.82603 0.23048 0.79736 0.0
H163 H -0.00555 0.52414 0.91603 0.0
H164 H 0.92167 0.38184 0.00359 0.0
C165 C 0.11061 0.09712 0.93915 0.0
C166 C 0.08907 0.1517 0.94709 0.0
N167 N 0.08501 0.1784 0.90095 0.0
N168 N 0.11895 0.08936 0.88817 0.0
C169 C 0.10487 0.14041 0.86593 0.0
H170 H 0.11617 0.06388 0.96813 0.0
Co171 Co 0.13662 0.01924 0.85706 0.0
C172 C 0.06446 0.02183 0.76426 0.0
O173 O 0.04846 0.96938 0.77778 0.0
N174 N 0.1584 0.94889 0.82474 0.0
C175 C 0.21462 0.87241 0.80744 0.0
C176 C 0.18262 0.90046 0.84489 0.0
C177 C 0.17716 0.94916 0.77547 0.0
N178 N 0.21151 0.90385 0.76387 0.0
O179 O 0.21138 0.04812 0.84348 0.0
H180 H 0.18548 0.89051 0.88548 0.0
H181 H 0.17407 -0.01297 0.75144 0.0
O182 O 0.10266 0.04854 0.79107 0.0
C183 C 0.23637 0.03734 0.88655 0.0
O184 O 0.20809 0.00762 0.92176 0.0
N185 N 0.0647 -0.00955 0.87936 0.0
C186 C -0.01039 -0.00764 0.96327 0.0
C187 C -0.01998 0.02855 0.92051 0.0
C188 C 0.017 0.0256 0.8781 0.0
C189 C 0.0699 0.94994 0.91723 0.0
C190 C 0.03211 0.94928 0.95891 0.0
H191 H 0.01296 0.05911 0.84929 0.0
H192 H 0.10767 0.9233 0.91986 0.0
H193 H 0.10511 0.14829 0.82478 0.0
H194 H 0.07519 0.1695 0.98373 0.0
H195 H 0.2438 0.83648 0.8139 0.0
H196 H 0.94777 0.06248 0.92107 0.0
H197 H 0.03924 0.91764 0.98903 0.0
C198 C 0.36894 0.08151 0.9401 0.0
C199 C 0.31608 0.0548 0.94421 0.0
N200 N 0.2894 0.0584 0.89809 0.0
N201 N 0.3758 0.10046 0.89125 0.0
C202 C 0.32583 0.08709 0.86696 0.0
H203 H 0.40052 0.08597 0.97056 0.0
Co204 Co 0.44071 0.13336 0.86068 0.0
C205 C 0.44662 0.0647 0.76406 0.0
O206 O 0.50212 0.057 0.77278 0.0
N207 N 0.50506 0.16723 0.82764 0.0
C208 C 0.58641 0.20959 0.79929 0.0
C209 C 0.56169 0.1773 0.83861 0.0
C210 C 0.49695 0.19326 0.78188 0.0
N211 N 0.54519 0.21856 0.76372 0.0
O212 O 0.39682 0.20166 0.84805 0.0
H213 H 0.584 0.1638 0.87314 0.0
H214 H 0.45511 0.19574 0.76331 0.0
O215 O 0.41696 0.09594 0.79492 0.0
C216 C 0.39704 0.22622 0.89238 0.0
O217 O 0.42457 0.2009 0.93062 0.0
N218 N 0.48413 0.07081 0.88279 0.0
C219 C 0.49742 -0.00184 0.96729 0.0
C220 C 0.47684 0.97638 0.91984 0.0
C221 C 0.46895 0.01394 0.87822 0.0
C222 C 0.51213 0.09009 0.92572 0.0
C223 C 0.51908 0.05472 0.96843 0.0
H224 H 0.44319 -0.00098 0.84616 0.0
H225 H 0.51894 0.13589 0.93119 0.0
H226 H 0.31659 0.09724 0.82702 0.0
H227 H 0.29852 0.03459 0.97853 0.0
H228 H 0.63025 0.22599 0.79749 0.0
H229 H 0.46195 0.93219 0.91598 0.0
H230 H 0.53462 0.07451 0.0036 0.0
C231 C 0.34567 0.35919 0.93924 0.0
C232 C 0.36719 0.3046 0.94715 0.0
N233 N 0.37126 0.27793 0.901 0.0
N234 N 0.33733 0.36698 0.88826 0.0
C235 C 0.35141 0.31595 0.866 0.0
H236 H 0.3401 0.3924 0.96824 0.0
Co237 Co 0.31966 0.43712 0.85719 0.0
C238 C 0.39184 0.43462 0.7644 0.0
O239 O 0.40783 0.48706 0.77795 0.0
N240 N 0.29789 0.50749 0.82491 0.0
C241 C 0.24167 0.58399 0.80764 0.0
C242 C 0.27367 0.55591 0.84508 0.0
C243 C 0.27912 0.50725 0.77564 0.0
N244 N 0.24478 0.55257 0.76406 0.0
O245 O 0.24491 0.40824 0.84358 0.0
H246 H 0.27082 0.56584 0.88568 0.0
H247 H 0.28221 0.46939 0.75159 0.0
O248 O 0.35364 0.40788 0.79118 0.0
C249 C 0.21992 0.41898 0.88665 0.0
O250 O 0.24818 0.44868 0.92189 0.0
N251 N 0.39158 0.4659 0.87952 0.0
C252 C 0.46671 0.46398 0.96341 0.0
C253 C 0.47629 0.4278 0.92063 0.0
C254 C 0.43929 0.43076 0.87824 0.0
C255 C 0.38638 0.50638 0.91742 0.0
C256 C 0.42419 0.50703 0.95907 0.0
H257 H 0.44332 0.39726 0.84941 0.0
H258 H 0.34859 0.533 0.92007 0.0
H259 H 0.35118 0.30809 0.82484 0.0
H260 H 0.38106 0.28677 0.98378 0.0
H261 H 0.2125 0.61991 0.81411 0.0
H262 H 0.50855 0.39388 0.92117 0.0
H263 H 0.41706 0.53866 0.98921 0.0
C264 C 0.86229 0.87931 0.4293 0.0
C265 C 0.80577 0.89572 0.4365 0.0
N266 N 0.77775 0.89002 0.39115 0.0
N267 N 0.86985 0.86494 0.37932 0.0
C268 C 0.81716 0.87059 0.35731 0.0
H269 H 0.89578 0.87828 0.45842 0.0
Co270 Co 0.93663 0.8398 0.34634 0.0
C271 C 0.92583 0.92013 0.25522 0.0
O272 O 0.97498 0.94511 0.26718 0.0
N273 N 0.00365 0.81296 0.31074 0.0
C274 C 0.07796 0.80737 0.25575 0.0
C275 C 0.04875 0.84244 0.29015 0.0
C276 C 0.00933 0.75923 0.291 0.0
N277 N 0.05211 0.75519 0.25587 0.0
O278 O 0.89773 0.76823 0.33414 0.0
H279 H 0.05798 0.88764 0.29681 0.0
H280 H -0.02016 0.72431 0.29892 0.0
O281 O 0.90758 0.87674 0.28146 0.0
C282 C 0.90415 0.74398 0.37843 0.0
O283 O 0.93355 0.77152 0.4143 0.0
N284 N 0.97544 0.90517 0.36961 0.0
C285 C -0.01006 0.96625 0.46139 0.0
C286 C 0.95946 -0.00923 0.41938 0.0
C287 C 0.95106 0.95868 0.37439 0.0
C288 C 0.01382 0.88584 0.40559 0.0
C289 C 0.02085 0.91491 0.45203 0.0
H290 H 0.91809 0.97304 0.34773 0.0
H291 H 0.03141 0.8426 0.40263 0.0
H292 H 0.80797 0.86137 0.31718 0.0
H293 H 0.78673 0.91059 0.47233 0.0
H294 H 0.11187 0.82092 0.22961 0.0
H295 H 0.93786 0.03209 0.42191 0.0
H296 H 0.04626 0.89347 0.48121 0.0
C297 C 0.59225 0.84687 0.43098 0.0
C298 C 0.57291 0.79105 0.4363 0.0
N299 N 0.57342 0.76572 0.38939 0.0
N300 N 0.60319 0.85695 0.38071 0.0
C301 C 0.5932 0.80602 0.35649 0.0
H302 H 0.59537 0.87896 0.46126 0.0
Co303 Co 0.62368 0.92727 0.35084 0.0
C304 C 0.54705 0.92051 0.25895 0.0
O305 O 0.52093 0.96751 0.27501 0.0
N306 N 0.64682 -0.00195 0.31798 0.0
C307 C 0.64779 0.07305 0.26316 0.0
C308 C 0.61581 0.04363 0.29984 0.0
C309 C 0.6987 0.00428 0.29469 0.0
N310 N 0.6996 0.04706 0.25969 0.0
O311 O 0.69725 0.89435 0.33848 0.0
H312 H 0.57101 0.05237 0.30885 0.0
H313 H 0.73423 0.97446 0.29846 0.0
O314 O 0.59031 0.90013 0.28403 0.0
C315 C 0.7219 0.9042 0.382 0.0
O316 O 0.69247 0.9311 0.41826 0.0
N317 N 0.55437 0.9598 0.37414 0.0
C318 C 0.48999 0.96765 0.46472 0.0
C319 C 0.47351 0.9293 0.42487 0.0
C320 C 0.50528 0.92735 0.37909 0.0
C321 C 0.56586 0.00275 0.40863 0.0
C322 C 0.53312 0.00862 0.45321 0.0
H323 H 0.49668 0.89232 0.35248 0.0
H324 H 0.60533 0.02764 0.40571 0.0
H325 H 0.59749 0.79932 0.31534 0.0
H326 H 0.55836 0.77102 0.4718 0.0
H327 H 0.63192 0.10625 0.2373 0.0
H328 H 0.44009 0.89716 0.42967 0.0
H329 H 0.54526 0.04261 0.47966 0.0
C330 C 0.59422 0.57706 0.42935 0.0
C331 C 0.65074 0.56065 0.43654 0.0
N332 N 0.67875 0.56635 0.39119 0.0
N333 N 0.58665 0.59142 0.37937 0.0
C334 C 0.63933 0.58577 0.35735 0.0
H335 H 0.56074 0.57809 0.45848 0.0
Co336 Co 0.51986 0.61658 0.3464 0.0
C337 C 0.53064 0.5362 0.2553 0.0
O338 O 0.4815 0.51122 0.26729 0.0
N339 N 0.45285 0.64344 0.31081 0.0
C340 C 0.37853 0.64903 0.25583 0.0
C341 C 0.40775 0.61396 0.29021 0.0
C342 C 0.44715 0.69718 0.29109 0.0
N343 N 0.40437 0.70122 0.25596 0.0
O344 O 0.55879 0.68813 0.33417 0.0
H345 H 0.39853 0.56875 0.29686 0.0
H346 H 0.47665 0.7321 0.29901 0.0
O347 O 0.54889 0.57961 0.28152 0.0
C348 C 0.55239 0.71239 0.37846 0.0
O349 O 0.52298 0.68487 0.41434 0.0
N350 N 0.48103 0.55124 0.36971 0.0
C351 C 0.46649 0.49022 0.46151 0.0
C352 C 0.49695 0.46566 0.41952 0.0
C353 C 0.50539 0.49772 0.37451 0.0
C354 C 0.44267 0.57062 0.40567 0.0
C355 C 0.43562 0.54158 0.45213 0.0
H356 H 0.53835 0.48333 0.34785 0.0
H357 H 0.4251 0.61387 0.4027 0.0
H358 H 0.64852 0.59499 0.31722 0.0
H359 H 0.66979 0.54578 0.47236 0.0
H360 H 0.34462 0.63549 0.22969 0.0
H361 H 0.51853 0.42433 0.42207 0.0
H362 H 0.41023 0.56305 0.48131 0.0
C363 C 0.86426 0.60952 0.43098 0.0
C364 C 0.88363 0.66533 0.43628 0.0
N365 N 0.88316 0.69064 0.38937 0.0
N366 N 0.85331 0.59943 0.38071 0.0
C367 C 0.86333 0.65035 0.35648 0.0
H368 H 0.86112 0.57744 0.46126 0.0
Co369 Co 0.83282 0.5291 0.35086 0.0
C370 C 0.90944 0.53586 0.25896 0.0
O371 O 0.93557 0.48887 0.27502 0.0
N372 N 0.80967 0.45832 0.318 0.0
C373 C 0.8087 0.38331 0.26318 0.0
C374 C 0.84069 0.41274 0.29985 0.0
C375 C 0.75779 0.45208 0.29472 0.0
N376 N 0.75688 0.4093 0.25973 0.0
O377 O 0.75924 0.56202 0.3385 0.0
H378 H 0.88549 0.40401 0.30885 0.0
H379 H 0.72225 0.4819 0.2985 0.0
O380 O 0.86617 0.55623 0.28404 0.0
C381 C 0.7346 0.55217 0.38203 0.0
O382 O 0.76404 0.52527 0.41828 0.0
N383 N 0.90213 0.49658 0.37415 0.0
C384 C 0.96646 0.48878 0.46476 0.0
C385 C -0.01704 0.5271 0.4249 0.0
C386 C 0.95122 0.52903 0.3791 0.0
C387 C 0.89063 0.45363 0.40864 0.0
C388 C 0.92334 0.44779 0.45324 0.0
H389 H 0.95983 0.56405 0.35248 0.0
H390 H 0.85117 0.42873 0.40572 0.0
H391 H 0.85903 0.65704 0.31533 0.0
H392 H 0.89819 0.68537 0.47178 0.0
H393 H 0.82456 0.35011 0.23732 0.0
H394 H 0.01637 0.55925 0.4297 0.0
H395 H 0.9112 0.4138 0.4797 0.0
C396 C 0.86021 0.61176 0.04016 0.0
C397 C 0.80582 0.58976 0.03223 0.0
N398 N 0.77914 0.58548 0.07836 0.0
N399 N 0.8679 0.62018 0.09115 0.0
C400 C 0.81698 0.60564 0.11338 0.0
H401 H 0.89339 0.6176 0.01118 0.0
Co402 Co 0.9379 0.63844 0.12222 0.0
C403 C 0.93601 0.56638 0.21509 0.0
O404 O -0.01141 0.55084 0.20156 0.0
N405 N 0.00808 0.66081 0.15448 0.0
C406 C 0.08418 0.71755 0.17172 0.0
C407 C 0.05633 0.68534 0.1343 0.0
C408 C 0.00769 0.67963 0.20373 0.0
N409 N 0.05278 0.71427 0.2153 0.0
O410 O 0.90841 0.71298 0.13575 0.0
H411 H 0.06625 0.68822 0.0937 0.0
H412 H 0.96984 0.67631 0.22777 0.0
O413 O 0.90892 0.60431 0.18827 0.0
C414 C 0.91895 0.73803 0.09266 0.0
O415 O 0.94889 0.70998 0.05745 0.0
N416 N 0.96727 0.56672 0.1 0.0
C417 C 0.96569 0.49162 0.0161 0.0
C418 C 0.92962 0.48183 0.05893 0.0
C419 C 0.93245 0.51879 0.10133 0.0
C420 C 0.00771 0.57214 0.0621 0.0
C421 C 0.00855 0.53433 0.02044 0.0
H422 H 0.89901 0.51455 0.13019 0.0
H423 H 0.03414 0.61006 0.05945 0.0
H424 H 0.8091 0.60578 0.15454 0.0
H425 H 0.78814 0.57572 -0.00441 0.0
H426 H 0.11992 0.74695 0.16524 0.0
H427 H 0.89583 0.44944 0.05843 0.0
H428 H 0.04014 0.54163 -0.00968 0.0
C429 C 0.87365 0.87023 0.03912 0.0
C430 C 0.90079 0.8176 0.035 0.0
N431 N 0.89745 0.79089 0.08112 0.0
N432 N 0.85468 0.87695 0.08798 0.0
C433 C 0.86847 0.82708 0.11227 0.0
H434 H 0.86891 0.90179 0.00867 0.0
Co435 Co 0.82127 0.94158 0.11859 0.0
C436 C 0.88984 0.94803 0.21521 0.0
O437 O 0.89703 0.0036 0.2065 0.0
N438 N 0.78687 0.00564 0.15166 0.0
C439 C 0.74377 0.08658 0.18003 0.0
C440 C 0.77628 0.06216 0.1407 0.0
C441 C 0.76093 -0.00273 0.19742 0.0
N442 N 0.73518 0.04527 0.2156 0.0
O443 O 0.75334 0.89713 0.13123 0.0
H444 H 0.78956 0.08459 0.10616 0.0
H445 H 0.75882 0.95541 0.21599 0.0
O446 O 0.85889 0.91809 0.18434 0.0
C447 C 0.72873 0.89716 0.08692 0.0
O448 O 0.75377 0.92492 0.04867 0.0
N449 N 0.8835 -0.0145 0.09649 0.0
C450 C 0.95615 -0.00088 0.01204 0.0
C451 C 0.978 -0.02131 0.05949 0.0
C452 C 0.94046 0.97066 0.10111 0.0
C453 C 0.86411 0.01342 0.05354 0.0
C454 C 0.89949 0.02055 0.01085 0.0
H455 H 0.95551 0.94498 0.13317 0.0
H456 H 0.81828 0.01996 0.04803 0.0
H457 H 0.85842 0.81776 0.15221 0.0
H458 H 0.92114 0.8002 0.00067 0.0
H459 H 0.72695 0.13027 0.18183 0.0
H460 H 0.02226 0.96396 0.06334 0.0
H461 H 0.87971 0.03599 0.97564 0.0
C462 C 0.59621 0.84454 0.04015 0.0
C463 C 0.65059 0.86657 0.0322 0.0
N464 N 0.67726 0.8709 0.07833 0.0
N465 N 0.58853 0.83614 0.09114 0.0
C466 C 0.63945 0.85071 0.11336 0.0
H467 H 0.56303 0.83867 0.01117 0.0
Co468 Co 0.51855 0.81789 0.12223 0.0
C469 C 0.52046 0.88998 0.21509 0.0
O470 O 0.46787 0.90552 0.20157 0.0
N471 N 0.44838 0.79554 0.15453 0.0
C472 C 0.37221 0.73893 0.17187 0.0
C473 C 0.40004 0.7711 0.13442 0.0
C474 C 0.44883 0.77671 0.20377 0.0
N475 N 0.4037 0.74215 0.2154 0.0
O476 O 0.54804 0.74336 0.13579 0.0
H477 H 0.39003 0.76827 0.09383 0.0
H478 H 0.48673 0.77995 0.22776 0.0
O479 O 0.54754 0.85206 0.18826 0.0
C480 C 0.53747 0.7183 0.09272 0.0
O481 O 0.50751 0.74633 0.05751 0.0
N482 N 0.48917 0.88959 0.09998 0.0
C483 C 0.49071 0.96469 0.01607 0.0
C484 C 0.52677 0.97451 0.0589 0.0
C485 C 0.52396 0.93754 0.10131 0.0
C486 C 0.44876 0.88413 0.06206 0.0
C487 C 0.44789 0.92193 0.0204 0.0
H488 H 0.55739 0.94181 0.13017 0.0
H489 H 0.42239 0.84617 0.05939 0.0
H490 H 0.64734 0.85057 0.15452 0.0
H491 H 0.66826 0.8806 -0.00444 0.0
H492 H 0.33641 0.7096 0.16544 0.0
H493 H 0.56053 0.00692 0.05841 0.0
H494 H 0.41632 0.91459 -0.00973 0.0
C495 C 0.58276 0.58608 0.03919 0.0
C496 C 0.55561 0.63872 0.03506 0.0
N497 N 0.55897 0.66544 0.08118 0.0
N498 N 0.60174 0.57938 0.08805 0.0
C499 C 0.58795 0.62925 0.11232 0.0
H500 H 0.58749 0.55452 0.00874 0.0
Co501 Co 0.63516 0.51475 0.11865 0.0
C502 C 0.56662 0.5083 0.21529 0.0
O503 O 0.55943 0.45273 0.20659 0.0
N504 N 0.66957 0.4507 0.15172 0.0
C505 C 0.71272 0.36978 0.18006 0.0
C506 C 0.68019 0.39419 0.14073 0.0
C507 C 0.69551 0.45907 0.19748 0.0
N508 N 0.72129 0.41107 0.21565 0.0
O509 O 0.70309 0.55921 0.13128 0.0
H510 H 0.66694 0.37177 0.10618 0.0
H511 H 0.6976 0.50092 0.21605 0.0
O512 O 0.59755 0.53824 0.1844 0.0
C513 C 0.72769 0.55918 0.08697 0.0
O514 O 0.70266 0.5314 0.04872 0.0
N515 N 0.57292 0.47083 0.09657 0.0
C516 C 0.50022 0.45721 0.01215 0.0
C517 C 0.47839 0.47764 0.05962 0.0
C518 C 0.51596 0.48567 0.10121 0.0
C519 C 0.59228 0.44291 0.05361 0.0
C520 C 0.55687 0.43579 0.01093 0.0
H521 H 0.50093 0.51135 0.13328 0.0
H522 H 0.63811 0.43636 0.04808 0.0
H523 H 0.59801 0.63858 0.15226 0.0
H524 H 0.53526 0.65611 0.00074 0.0
H525 H 0.72957 0.3261 0.18185 0.0
H526 H 0.43414 0.49236 0.06349 0.0
H527 H 0.57663 0.42035 0.97571 0.0
loop_
_geom_bond_atom_site_label_1
_geom_bond_atom_site_label_2
_geom_bond_distance
_geom_bond_site_symmetry_2
_ccdc_geom_bond_type
C0 C1 1.351 . S
C0 N3 1.368 . S
C0 H5 0.931 . S
C1 C0 1.351 . S
C1 N2 1.373 . S
C1 H29 0.930 . S
N2 C1 1.373 . S
N2 C4 1.340 . S
N3 C0 1.368 . S
N3 C4 1.321 . S
N3 Co6 2.135 . S
C4 N2 1.340 . S
C4 N3 1.321 . S
C4 H28 0.930 . S
H5 C0 0.931 . S
Co6 N3 2.135 . S
Co6 N9 2.121 1_455 S
Co6 O14 2.055 . S
Co6 O17 2.039 . S
Co6 N20 2.140 1_455 S
C7 O8 1.227 . S
C7 O17 1.265 . S
O8 C7 1.227 . S
N9 Co6 2.121 1_655 S
N9 C11 1.375 . S
N9 C12 1.313 . S
C10 C11 1.338 . S
C10 N13 1.377 . S
C10 H30 0.930 . S
C11 N9 1.375 . S
C11 C10 1.338 . S
C11 H15 0.931 . S
C12 N9 1.313 . S
C12 N13 1.344 . S
C12 H16 0.930 . S
N13 C10 1.377 . S
N13 C12 1.344 . S
O14 Co6 2.055 . S
O14 C18 1.253 . S
H15 C11 0.931 . S
H16 C12 0.930 . S
O17 Co6 2.039 . S
O17 C7 1.265 . S
C18 O14 1.253 . S
C18 O19 1.227 . S
O19 C18 1.227 . S
N20 Co6 2.140 1_655 S
N20 C23 1.346 . S
N20 C24 1.345 . S
C21 C22 1.387 1_545 S
C21 C25 1.391 . S
C22 C21 1.387 1_565 S
C22 C23 1.369 1_565 S
C22 H31 0.929 . S
C23 N20 1.346 . S
C23 C22 1.369 1_545 S
C23 H26 0.928 1_655 S
C24 N20 1.345 . S
C24 C25 1.371 . S
C24 H27 0.931 . S
C25 C21 1.391 . S
C25 C24 1.371 . S
C25 H32 0.930 . S
H26 C23 0.928 1_455 S
H27 C24 0.931 . S
H28 C4 0.930 . S
H29 C1 0.930 . S
H30 C10 0.930 . S
H31 C22 0.929 . S
H32 C25 0.930 . S
C33 C34 1.351 . S
C33 N36 1.368 . S
C33 H38 0.931 . S
C34 C33 1.351 . S
C34 N35 1.373 . S
C34 H62 0.930 . S
N35 C34 1.373 . S
N35 C37 1.340 . S
N36 C33 1.368 . S
N36 C37 1.321 . S
N36 Co39 2.135 . S
C37 N35 1.340 . S
C37 N36 1.321 . S
C37 H61 0.930 . S
H38 C33 0.931 . S
Co39 N36 2.135 . S
Co39 N42 2.121 1_545 S
Co39 O47 2.055 . S
Co39 O50 2.039 . S
Co39 N53 2.140 1_545 S
C40 O41 1.227 . S
C40 O50 1.265 . S
O41 C40 1.227 . S
N42 Co39 2.121 1_565 S
N42 C44 1.375 . S
N42 C45 1.313 . S
C43 C44 1.338 . S
C43 N46 1.377 . S
C43 H63 0.930 . S
C44 N42 1.375 . S
C44 C43 1.338 . S
C44 H48 0.931 . S
C45 N42 1.313 . S
C45 N46 1.344 . S
C45 H49 0.930 . S
N46 C43 1.377 . S
N46 C45 1.344 . S
O47 Co39 2.055 . S
O47 C51 1.253 . S
H48 C44 0.931 . S
H49 C45 0.930 . S
O50 Co39 2.039 . S
O50 C40 1.265 . S
C51 O47 1.253 . S
C51 O52 1.227 . S
O52 C51 1.227 . S
N53 Co39 2.140 1_565 S
N53 C56 1.346 . S
N53 C57 1.345 . S
C54 C55 1.387 . S
C54 C58 1.391 . S
C55 C54 1.387 . S
C55 C56 1.369 . S
C55 H64 0.929 . S
C56 N53 1.346 . S
C56 C55 1.369 . S
C56 H59 0.928 1_565 S
C57 N53 1.345 . S
C57 C58 1.371 . S
C57 H60 0.931 . S
C58 C54 1.391 . S
C58 C57 1.371 . S
C58 H65 0.930 . S
H59 C56 0.928 1_545 S
H60 C57 0.931 . S
H61 C37 0.930 . S
H62 C34 0.930 . S
H63 C43 0.930 . S
H64 C55 0.929 . S
H65 C58 0.930 . S
C66 C67 1.351 . S
C66 N69 1.368 . S
C66 H71 0.931 . S
C67 C66 1.351 . S
C67 N68 1.373 . S
C67 H95 0.930 . S
N68 C67 1.373 . S
N68 C70 1.340 . S
N69 C66 1.368 . S
N69 C70 1.321 . S
N69 Co72 2.135 . S
C70 N68 1.340 . S
C70 N69 1.321 . S
C70 H94 0.930 . S
H71 C66 0.931 . S
Co72 N69 2.135 . S
Co72 N75 2.121 . S
Co72 O80 2.055 . S
Co72 O83 2.039 . S
Co72 N86 2.140 . S
C73 O74 1.227 . S
C73 O83 1.265 . S
O74 C73 1.227 . S
N75 Co72 2.121 . S
N75 C77 1.375 . S
N75 C78 1.313 . S
C76 C77 1.338 . S
C76 N79 1.377 . S
C76 H96 0.930 . S
C77 N75 1.375 . S
C77 C76 1.338 . S
C77 H81 0.931 . S
C78 N75 1.313 . S
C78 N79 1.344 . S
C78 H82 0.930 . S
N79 C76 1.377 . S
N79 C78 1.344 . S
O80 Co72 2.055 . S
O80 C84 1.253 . S
H81 C77 0.931 . S
H82 C78 0.930 . S
O83 Co72 2.039 . S
O83 C73 1.265 . S
C84 O80 1.253 . S
C84 O85 1.227 . S
O85 C84 1.227 . S
N86 Co72 2.140 . S
N86 C89 1.346 . S
N86 C90 1.345 . S
C87 C88 1.387 . S
C87 C91 1.391 . S
C88 C87 1.387 . S
C88 C89 1.369 . S
C88 H97 0.929 . S
C89 N86 1.346 . S
C89 C88 1.369 . S
C89 H92 0.928 . S
C90 N86 1.345 . S
C90 C91 1.371 . S
C90 H93 0.931 . S
C91 C87 1.391 . S
C91 C90 1.371 . S
C91 H98 0.930 . S
H92 C89 0.928 . S
H93 C90 0.931 . S
H94 C70 0.930 . S
H95 C67 0.930 . S
H96 C76 0.930 . S
H97 C88 0.929 . S
H98 C91 0.930 . S
C99 C100 1.351 . S
C99 N102 1.368 . S
C99 H104 0.931 . S
C100 C99 1.351 . S
C100 N101 1.373 . S
C100 H128 0.930 . S
N101 C100 1.373 . S
N101 C103 1.340 . S
N102 C99 1.368 . S
N102 C103 1.321 . S
N102 Co105 2.135 . S
C103 N101 1.340 . S
C103 N102 1.321 . S
C103 H127 0.930 . S
H104 C99 0.931 . S
Co105 N102 2.135 . S
Co105 N108 2.121 . S
Co105 O113 2.055 . S
Co105 O116 2.039 . S
Co105 N119 2.140 . S
C106 O107 1.227 . S
C106 O116 1.265 . S
O107 C106 1.227 . S
N108 Co105 2.121 . S
N108 C110 1.375 . S
N108 C111 1.313 . S
C109 C110 1.338 . S
C109 N112 1.377 . S
C109 H129 0.930 . S
C110 N108 1.375 . S
C110 C109 1.338 . S
C110 H114 0.931 . S
C111 N108 1.313 . S
C111 N112 1.344 . S
C111 H115 0.930 . S
N112 C109 1.377 . S
N112 C111 1.344 . S
O113 Co105 2.055 . S
O113 C117 1.253 . S
H114 C110 0.931 . S
H115 C111 0.930 . S
O116 Co105 2.039 . S
O116 C106 1.265 . S
C117 O113 1.253 . S
C117 O118 1.227 . S
O118 C117 1.227 . S
N119 Co105 2.140 . S
N119 C122 1.346 . S
N119 C123 1.345 . S
C120 C121 1.387 1_455 S
C120 C124 1.391 . S
C121 C120 1.387 1_655 S
C121 C122 1.369 1_655 S
C121 H130 0.929 . S
C122 N119 1.346 . S
C122 C121 1.369 1_455 S
C122 H125 0.928 . S
C123 N119 1.345 . S
C123 C124 1.371 . S
C123 H126 0.931 . S
C124 C120 1.391 . S
C124 C123 1.371 . S
C124 H131 0.930 . S
H125 C122 0.928 . S
H126 C123 0.931 . S
H127 C103 0.930 . S
H128 C100 0.930 . S
H129 C109 0.930 . S
H130 C121 0.929 . S
H131 C124 0.930 . S
C132 C133 1.351 . S
C132 N135 1.368 . S
C132 H137 0.931 . S
C133 C132 1.351 . S
C133 N134 1.373 . S
C133 H161 0.930 . S
N134 C133 1.373 . S
N134 C136 1.340 . S
N135 C132 1.368 . S
N135 C136 1.321 . S
N135 Co138 2.135 . S
C136 N134 1.340 . S
C136 N135 1.321 . S
C136 H160 0.930 . S
H137 C132 0.931 . S
Co138 N135 2.135 . S
Co138 N141 2.121 1_455 S
Co138 O146 2.055 . S
Co138 O149 2.039 . S
Co138 N152 2.140 1_455 S
C139 O140 1.227 . S
C139 O149 1.265 . S
O140 C139 1.227 . S
N141 Co138 2.121 1_655 S
N141 C143 1.375 . S
N141 C144 1.313 . S
C142 C143 1.338 . S
C142 N145 1.377 . S
C142 H162 0.930 . S
C143 N141 1.375 . S
C143 C142 1.338 . S
C143 H147 0.931 . S
C144 N141 1.313 . S
C144 N145 1.344 . S
C144 H148 0.930 . S
N145 C142 1.377 . S
N145 C144 1.344 . S
O146 Co138 2.055 . S
O146 C150 1.253 . S
H147 C143 0.931 . S
H148 C144 0.930 . S
O149 Co138 2.039 . S
O149 C139 1.265 . S
C150 O146 1.253 . S
C150 O151 1.227 . S
O151 C150 1.227 . S
N152 Co138 2.140 1_655 S
N152 C155 1.346 . S
N152 C156 1.345 . S
C153 C154 1.387 . S
C153 C157 1.391 . S
C154 C153 1.387 . S
C154 C155 1.369 . S
C154 H163 0.929 . S
C155 N152 1.346 . S
C155 C154 1.369 . S
C155 H158 0.928 1_655 S
C156 N152 1.345 . S
C156 C157 1.371 . S
C156 H159 0.931 . S
C157 C153 1.391 . S
C157 C156 1.371 . S
C157 H164 0.930 . S
H158 C155 0.928 1_455 S
H159 C156 0.931 . S
H160 C136 0.930 . S
H161 C133 0.930 . S
H162 C142 0.930 . S
H163 C154 0.929 . S
H164 C157 0.930 . S
C165 C166 1.351 . S
C165 N168 1.368 . S
C165 H170 0.931 . S
C166 C165 1.351 . S
C166 N167 1.373 . S
C166 H194 0.930 . S
N167 C166 1.373 . S
N167 C169 1.340 . S
N168 C165 1.368 . S
N168 C169 1.321 . S
N168 Co171 2.135 . S
C169 N167 1.340 . S
C169 N168 1.321 . S
C169 H193 0.930 . S
H170 C165 0.931 . S
Co171 N168 2.135 . S
Co171 N174 2.121 1_545 S
Co171 O179 2.055 . S
Co171 O182 2.039 . S
Co171 N185 2.140 1_545 S
C172 O173 1.227 . S
C172 O182 1.265 . S
O173 C172 1.227 . S
N174 Co171 2.121 1_565 S
N174 C176 1.375 . S
N174 C177 1.313 . S
C175 C176 1.338 . S
C175 N178 1.377 . S
C175 H195 0.930 . S
C176 N174 1.375 . S
C176 C175 1.338 . S
C176 H180 0.931 . S
C177 N174 1.313 . S
C177 N178 1.344 . S
C177 H181 0.930 . S
N178 C175 1.377 . S
N178 C177 1.344 . S
O179 Co171 2.055 . S
O179 C183 1.253 . S
H180 C176 0.931 . S
H181 C177 0.930 . S
O182 Co171 2.039 . S
O182 C172 1.265 . S
C183 O179 1.253 . S
C183 O184 1.227 . S
O184 C183 1.227 . S
N185 Co171 2.140 1_565 S
N185 C188 1.346 . S
N185 C189 1.345 . S
C186 C187 1.387 1_455 S
C186 C190 1.391 . S
C187 C186 1.387 1_655 S
C187 C188 1.369 1_655 S
C187 H196 0.929 . S
C188 N185 1.346 . S
C188 C187 1.369 1_455 S
C188 H191 0.928 1_565 S
C189 N185 1.345 . S
C189 C190 1.371 . S
C189 H192 0.931 . S
C190 C186 1.391 . S
C190 C189 1.371 . S
C190 H197 0.930 . S
H191 C188 0.928 1_545 S
H192 C189 0.931 . S
H193 C169 0.930 . S
H194 C166 0.930 . S
H195 C175 0.930 . S
H196 C187 0.929 . S
H197 C190 0.930 . S
C198 C199 1.351 . S
C198 N201 1.368 . S
C198 H203 0.931 . S
C199 C198 1.351 . S
C199 N200 1.373 . S
C199 H227 0.930 . S
N200 C199 1.373 . S
N200 C202 1.340 . S
N201 C198 1.368 . S
N201 C202 1.321 . S
N201 Co204 2.135 . S
C202 N200 1.340 . S
C202 N201 1.321 . S
C202 H226 0.930 . S
H203 C198 0.931 . S
Co204 N201 2.135 . S
Co204 N207 2.121 . S
Co204 O212 2.055 . S
Co204 O215 2.039 . S
Co204 N218 2.140 . S
C205 O206 1.227 . S
C205 O215 1.265 . S
O206 C205 1.227 . S
N207 Co204 2.121 . S
N207 C209 1.375 . S
N207 C210 1.313 . S
C208 C209 1.338 . S
C208 N211 1.377 . S
C208 H228 0.930 . S
C209 N207 1.375 . S
C209 C208 1.338 . S
C209 H213 0.931 . S
C210 N207 1.313 . S
C210 N211 1.344 . S
C210 H214 0.930 . S
N211 C208 1.377 . S
N211 C210 1.344 . S
O212 Co204 2.055 . S
O212 C216 1.253 . S
H213 C209 0.931 . S
H214 C210 0.930 . S
O215 Co204 2.039 . S
O215 C205 1.265 . S
C216 O212 1.253 . S
C216 O217 1.227 . S
O217 C216 1.227 . S
N218 Co204 2.140 . S
N218 C221 1.346 . S
N218 C222 1.345 . S
C219 C220 1.387 1_545 S
C219 C223 1.391 . S
C220 C219 1.387 1_565 S
C220 C221 1.369 1_565 S
C220 H229 0.929 . S
C221 N218 1.346 . S
C221 C220 1.369 1_545 S
C221 H224 0.928 . S
C222 N218 1.345 . S
C222 C223 1.371 . S
C222 H225 0.931 . S
C223 C219 1.391 . S
C223 C222 1.371 . S
C223 H230 0.930 . S
H224 C221 0.928 . S
H225 C222 0.931 . S
H226 C202 0.930 . S
H227 C199 0.930 . S
H228 C208 0.930 . S
H229 C220 0.929 . S
H230 C223 0.930 . S
C231 C232 1.351 . S
C231 N234 1.368 . S
C231 H236 0.931 . S
C232 C231 1.351 . S
C232 N233 1.373 . S
C232 H260 0.930 . S
N233 C232 1.373 . S
N233 C235 1.340 . S
N234 C231 1.368 . S
N234 C235 1.321 . S
N234 Co237 2.135 . S
C235 N233 1.340 . S
C235 N234 1.321 . S
C235 H259 0.930 . S
H236 C231 0.931 . S
Co237 N234 2.135 . S
Co237 N240 2.121 . S
Co237 O245 2.055 . S
Co237 O248 2.039 . S
Co237 N251 2.140 . S
C238 O239 1.227 . S
C238 O248 1.265 . S
O239 C238 1.227 . S
N240 Co237 2.121 . S
N240 C242 1.375 . S
N240 C243 1.313 . S
C241 C242 1.338 . S
C241 N244 1.377 . S
C241 H261 0.930 . S
C242 N240 1.375 . S
C242 C241 1.338 . S
C242 H246 0.931 . S
C243 N240 1.313 . S
C243 N244 1.344 . S
C243 H247 0.930 . S
N244 C241 1.377 . S
N244 C243 1.344 . S
O245 Co237 2.055 . S
O245 C249 1.253 . S
H246 C242 0.931 . S
H247 C243 0.930 . S
O248 Co237 2.039 . S
O248 C238 1.265 . S
C249 O245 1.253 . S
C249 O250 1.227 . S
O250 C249 1.227 . S
N251 Co237 2.140 . S
N251 C254 1.346 . S
N251 C255 1.345 . S
C252 C253 1.387 . S
C252 C256 1.391 . S
C253 C252 1.387 . S
C253 C254 1.369 . S
C253 H262 0.929 . S
C254 N251 1.346 . S
C254 C253 1.369 . S
C254 H257 0.928 . S
C255 N251 1.345 . S
C255 C256 1.371 . S
C255 H258 0.931 . S
C256 C252 1.391 . S
C256 C255 1.371 . S
C256 H263 0.930 . S
H257 C254 0.928 . S
H258 C255 0.931 . S
H259 C235 0.930 . S
H260 C232 0.930 . S
H261 C241 0.930 . S
H262 C253 0.929 . S
H263 C256 0.930 . S
C264 C265 1.351 . S
C264 N267 1.368 . S
C264 H269 0.931 . S
C265 C264 1.351 . S
C265 N266 1.373 . S
C265 H293 0.930 . S
N266 C265 1.373 . S
N266 C268 1.340 . S
N267 C264 1.368 . S
N267 C268 1.321 . S
N267 Co270 2.135 . S
C268 N266 1.340 . S
C268 N267 1.321 . S
C268 H292 0.930 . S
H269 C264 0.931 . S
Co270 N267 2.135 . S
Co270 N273 2.121 1_655 S
Co270 O278 2.055 . S
Co270 O281 2.039 . S
Co270 N284 2.140 1_655 S
C271 O272 1.227 . S
C271 O281 1.265 . S
O272 C271 1.227 . S
N273 Co270 2.121 1_455 S
N273 C275 1.375 . S
N273 C276 1.313 . S
C274 C275 1.338 . S
C274 N277 1.377 . S
C274 H294 0.930 . S
C275 N273 1.375 . S
C275 C274 1.338 . S
C275 H279 0.931 . S
C276 N273 1.313 . S
C276 N277 1.344 . S
C276 H280 0.930 . S
N277 C274 1.377 . S
N277 C276 1.344 . S
O278 Co270 2.055 . S
O278 C282 1.253 . S
H279 C275 0.931 . S
H280 C276 0.930 . S
O281 Co270 2.039 . S
O281 C271 1.265 . S
C282 O278 1.253 . S
C282 O283 1.227 . S
O283 C282 1.227 . S
N284 Co270 2.140 1_455 S
N284 C287 1.346 . S
N284 C288 1.345 . S
C285 C286 1.387 1_565 S
C285 C289 1.391 . S
C286 C285 1.387 1_545 S
C286 C287 1.369 1_545 S
C286 H295 0.929 . S
C287 N284 1.346 . S
C287 C286 1.369 1_565 S
C287 H290 0.928 1_455 S
C288 N284 1.345 . S
C288 C289 1.371 . S
C288 H291 0.931 . S
C289 C285 1.391 . S
C289 C288 1.371 . S
C289 H296 0.930 . S
H290 C287 0.928 1_655 S
H291 C288 0.931 . S
H292 C268 0.930 . S
H293 C265 0.930 . S
H294 C274 0.930 . S
H295 C286 0.929 . S
H296 C289 0.930 . S
C297 C298 1.351 . S
C297 N300 1.368 . S
C297 H302 0.931 . S
C298 C297 1.351 . S
C298 N299 1.373 . S
C298 H326 0.930 . S
N299 C298 1.373 . S
N299 C301 1.340 . S
N300 C297 1.368 . S
N300 C301 1.321 . S
N300 Co303 2.135 . S
C301 N299 1.340 . S
C301 N300 1.321 . S
C301 H325 0.930 . S
H302 C297 0.931 . S
Co303 N300 2.135 . S
Co303 N306 2.121 1_565 S
Co303 O311 2.055 . S
Co303 O314 2.039 . S
Co303 N317 2.140 1_565 S
C304 O305 1.227 . S
C304 O314 1.265 . S
O305 C304 1.227 . S
N306 Co303 2.121 1_545 S
N306 C308 1.375 . S
N306 C309 1.313 . S
C307 C308 1.338 . S
C307 N310 1.377 . S
C307 H327 0.930 . S
C308 N306 1.375 . S
C308 C307 1.338 . S
C308 H312 0.931 . S
C309 N306 1.313 . S
C309 N310 1.344 . S
C309 H313 0.930 . S
N310 C307 1.377 . S
N310 C309 1.344 . S
O311 Co303 2.055 . S
O311 C315 1.253 . S
H312 C308 0.931 . S
H313 C309 0.930 . S
O314 Co303 2.039 . S
O314 C304 1.265 . S
C315 O311 1.253 . S
C315 O316 1.227 . S
O316 C315 1.227 . S
N317 Co303 2.140 1_545 S
N317 C320 1.346 . S
N317 C321 1.345 . S
C318 C319 1.387 . S
C318 C322 1.391 . S
C319 C318 1.387 . S
C319 C320 1.369 . S
C319 H328 0.929 . S
C320 N317 1.346 . S
C320 C319 1.369 . S
C320 H323 0.928 1_545 S
C321 N317 1.345 . S
C321 C322 1.371 . S
C321 H324 0.931 . S
C322 C318 1.391 . S
C322 C321 1.371 . S
C322 H329 0.930 . S
H323 C320 0.928 1_565 S
H324 C321 0.931 . S
H325 C301 0.930 . S
H326 C298 0.930 . S
H327 C307 0.930 . S
H328 C319 0.929 . S
H329 C322 0.930 . S
C330 C331 1.351 . S
C330 N333 1.368 . S
C330 H335 0.931 . S
C331 C330 1.351 . S
C331 N332 1.373 . S
C331 H359 0.930 . S
N332 C331 1.373 . S
N332 C334 1.340 . S
N333 C330 1.368 . S
N333 C334 1.321 . S
N333 Co336 2.135 . S
C334 N332 1.340 . S
C334 N333 1.321 . S
C334 H358 0.930 . S
H335 C330 0.931 . S
Co336 N333 2.135 . S
Co336 N339 2.121 . S
Co336 O344 2.055 . S
Co336 O347 2.039 . S
Co336 N350 2.140 . S
C337 O338 1.227 . S
C337 O347 1.265 . S
O338 C337 1.227 . S
N339 Co336 2.121 . S
N339 C341 1.375 . S
N339 C342 1.313 . S
C340 C341 1.338 . S
C340 N343 1.377 . S
C340 H360 0.930 . S
C341 N339 1.375 . S
C341 C340 1.338 . S
C341 H345 0.931 . S
C342 N339 1.313 . S
C342 N343 1.344 . S
C342 H346 0.930 . S
N343 C340 1.377 . S
N343 C342 1.344 . S
O344 Co336 2.055 . S
O344 C348 1.253 . S
H345 C341 0.931 . S
H346 C342 0.930 . S
O347 Co336 2.039 . S
O347 C337 1.265 . S
C348 O344 1.253 . S
C348 O349 1.227 . S
O349 C348 1.227 . S
N350 Co336 2.140 . S
N350 C353 1.346 . S
N350 C354 1.345 . S
C351 C352 1.387 . S
C351 C355 1.391 . S
C352 C351 1.387 . S
C352 C353 1.369 . S
C352 H361 0.929 . S
C353 N350 1.346 . S
C353 C352 1.369 . S
C353 H356 0.928 . S
C354 N350 1.345 . S
C354 C355 1.371 . S
C354 H357 0.931 . S
C355 C351 1.391 . S
C355 C354 1.371 . S
C355 H362 0.930 . S
H356 C353 0.928 . S
H357 C354 0.931 . S
H358 C334 0.930 . S
H359 C331 0.930 . S
H360 C340 0.930 . S
H361 C352 0.929 . S
H362 C355 0.930 . S
C363 C364 1.351 . S
C363 N366 1.368 . S
C363 H368 0.931 . S
C364 C363 1.351 . S
C364 N365 1.373 . S
C364 H392 0.930 . S
N365 C364 1.373 . S
N365 C367 1.340 . S
N366 C363 1.368 . S
N366 C367 1.321 . S
N366 Co369 2.135 . S
C367 N365 1.340 . S
C367 N366 1.321 . S
C367 H391 0.930 . S
H368 C363 0.931 . S
Co369 N366 2.135 . S
Co369 N372 2.121 . S
Co369 O377 2.055 . S
Co369 O380 2.039 . S
Co369 N383 2.140 . S
C370 O371 1.227 . S
C370 O380 1.265 . S
O371 C370 1.227 . S
N372 Co369 2.121 . S
N372 C374 1.375 . S
N372 C375 1.313 . S
C373 C374 1.338 . S
C373 N376 1.377 . S
C373 H393 0.930 . S
C374 N372 1.375 . S
C374 C373 1.338 . S
C374 H378 0.931 . S
C375 N372 1.313 . S
C375 N376 1.344 . S
C375 H379 0.930 . S
N376 C373 1.377 . S
N376 C375 1.344 . S
O377 Co369 2.055 . S
O377 C381 1.253 . S
H378 C374 0.931 . S
H379 C375 0.930 . S
O380 Co369 2.039 . S
O380 C370 1.265 . S
C381 O377 1.253 . S
C381 O382 1.227 . S
O382 C381 1.227 . S
N383 Co369 2.140 . S
N383 C386 1.346 . S
N383 C387 1.345 . S
C384 C385 1.387 1_655 S
C384 C388 1.391 . S
C385 C384 1.387 1_455 S
C385 C386 1.369 1_455 S
C385 H394 0.929 . S
C386 N383 1.346 . S
C386 C385 1.369 1_655 S
C386 H389 0.928 . S
C387 N383 1.345 . S
C387 C388 1.371 . S
C387 H390 0.931 . S
C388 C384 1.391 . S
C388 C387 1.371 . S
C388 H395 0.930 . S
H389 C386 0.928 . S
H390 C387 0.931 . S
H391 C367 0.930 . S
H392 C364 0.930 . S
H393 C373 0.930 . S
H394 C385 0.929 . S
H395 C388 0.930 . S
C396 C397 1.351 . S
C396 N399 1.368 . S
C396 H401 0.931 . S
C397 C396 1.351 . S
C397 N398 1.373 . S
C397 H425 0.930 . S
N398 C397 1.373 . S
N398 C400 1.340 . S
N399 C396 1.368 . S
N399 C400 1.321 . S
N399 Co402 2.135 . S
C400 N398 1.340 . S
C400 N399 1.321 . S
C400 H424 0.930 . S
H401 C396 0.931 . S
Co402 N399 2.135 . S
Co402 N405 2.121 1_655 S
Co402 O410 2.055 . S
Co402 O413 2.039 . S
Co402 N416 2.140 1_655 S
C403 O404 1.227 . S
C403 O413 1.265 . S
O404 C403 1.227 . S
N405 Co402 2.121 1_455 S
N405 C407 1.375 . S
N405 C408 1.313 . S
C406 C407 1.338 . S
C406 N409 1.377 . S
C406 H426 0.930 . S
C407 N405 1.375 . S
C407 C406 1.338 . S
C407 H411 0.931 . S
C408 N405 1.313 . S
C408 N409 1.344 . S
C408 H412 0.930 . S
N409 C406 1.377 . S
N409 C408 1.344 . S
O410 Co402 2.055 . S
O410 C414 1.253 . S
H411 C407 0.931 . S
H412 C408 0.930 . S
O413 Co402 2.039 . S
O413 C403 1.265 . S
C414 O410 1.253 . S
C414 O415 1.227 . S
O415 C414 1.227 . S
N416 Co402 2.140 1_455 S
N416 C419 1.346 . S
N416 C420 1.345 . S
C417 C418 1.387 . S
C417 C421 1.391 . S
C418 C417 1.387 . S
C418 C419 1.369 . S
C418 H427 0.929 . S
C419 N416 1.346 . S
C419 C418 1.369 . S
C419 H422 0.928 1_455 S
C420 N416 1.345 . S
C420 C421 1.371 . S
C420 H423 0.931 . S
C421 C417 1.391 . S
C421 C420 1.371 . S
C421 H428 0.930 . S
H422 C419 0.928 1_655 S
H423 C420 0.931 . S
H424 C400 0.930 . S
H425 C397 0.930 . S
H426 C406 0.930 . S
H427 C418 0.929 . S
H428 C421 0.930 . S
C429 C430 1.351 . S
C429 N432 1.368 . S
C429 H434 0.931 . S
C430 C429 1.351 . S
C430 N431 1.373 . S
C430 H458 0.930 . S
N431 C430 1.373 . S
N431 C433 1.340 . S
N432 C429 1.368 . S
N432 C433 1.321 . S
N432 Co435 2.135 . S
C433 N431 1.340 . S
C433 N432 1.321 . S
C433 H457 0.930 . S
H434 C429 0.931 . S
Co435 N432 2.135 . S
Co435 N438 2.121 1_565 S
Co435 O443 2.055 . S
Co435 O446 2.039 . S
Co435 N449 2.140 1_565 S
C436 O437 1.227 . S
C436 O446 1.265 . S
O437 C436 1.227 . S
N438 Co435 2.121 1_545 S
N438 C440 1.375 . S
N438 C441 1.313 . S
C439 C440 1.338 . S
C439 N442 1.377 . S
C439 H459 0.930 . S
C440 N438 1.375 . S
C440 C439 1.338 . S
C440 H444 0.931 . S
C441 N438 1.313 . S
C441 N442 1.344 . S
C441 H445 0.930 . S
N442 C439 1.377 . S
N442 C441 1.344 . S
O443 Co435 2.055 . S
O443 C447 1.253 . S
H444 C440 0.931 . S
H445 C441 0.930 . S
O446 Co435 2.039 . S
O446 C436 1.265 . S
C447 O443 1.253 . S
C447 O448 1.227 . S
O448 C447 1.227 . S
N449 Co435 2.140 1_545 S
N449 C452 1.346 . S
N449 C453 1.345 . S
C450 C451 1.387 1_655 S
C450 C454 1.391 . S
C451 C450 1.387 1_455 S
C451 C452 1.369 1_455 S
C451 H460 0.929 . S
C452 N449 1.346 . S
C452 C451 1.369 1_655 S
C452 H455 0.928 1_545 S
C453 N449 1.345 . S
C453 C454 1.371 . S
C453 H456 0.931 . S
C454 C450 1.391 . S
C454 C453 1.371 . S
C454 H461 0.930 . S
H455 C452 0.928 1_565 S
H456 C453 0.931 . S
H457 C433 0.930 . S
H458 C430 0.930 . S
H459 C439 0.930 . S
H460 C451 0.929 . S
H461 C454 0.930 . S
C462 C463 1.351 . S
C462 N465 1.368 . S
C462 H467 0.931 . S
C463 C462 1.351 . S
C463 N464 1.373 . S
C463 H491 0.930 . S
N464 C463 1.373 . S
N464 C466 1.340 . S
N465 C462 1.368 . S
N465 C466 1.321 . S
N465 Co468 2.135 . S
C466 N464 1.340 . S
C466 N465 1.321 . S
C466 H490 0.930 . S
H467 C462 0.931 . S
Co468 N465 2.135 . S
Co468 N471 2.121 . S
Co468 O476 2.055 . S
Co468 O479 2.039 . S
Co468 N482 2.140 . S
C469 O470 1.227 . S
C469 O479 1.265 . S
O470 C469 1.227 . S
N471 Co468 2.121 . S
N471 C473 1.375 . S
N471 C474 1.313 . S
C472 C473 1.338 . S
C472 N475 1.377 . S
C472 H492 0.930 . S
C473 N471 1.375 . S
C473 C472 1.338 . S
C473 H477 0.931 . S
C474 N471 1.313 . S
C474 N475 1.344 . S
C474 H478 0.930 . S
N475 C472 1.377 . S
N475 C474 1.344 . S
O476 Co468 2.055 . S
O476 C480 1.253 . S
H477 C473 0.931 . S
H478 C474 0.930 . S
O479 Co468 2.039 . S
O479 C469 1.265 . S
C480 O476 1.253 . S
C480 O481 1.227 . S
O481 C480 1.227 . S
N482 Co468 2.140 . S
N482 C485 1.346 . S
N482 C486 1.345 . S
C483 C484 1.387 1_565 S
C483 C487 1.391 . S
C484 C483 1.387 1_545 S
C484 C485 1.369 1_545 S
C484 H493 0.929 . S
C485 N482 1.346 . S
C485 C484 1.369 1_565 S
C485 H488 0.928 . S
C486 N482 1.345 . S
C486 C487 1.371 . S
C486 H489 0.931 . S
C487 C483 1.391 . S
C487 C486 1.371 . S
C487 H494 0.930 . S
H488 C485 0.928 . S
H489 C486 0.931 . S
H490 C466 0.930 . S
H491 C463 0.930 . S
H492 C472 0.930 . S
H493 C484 0.929 . S
H494 C487 0.930 . S
C495 C496 1.351 . S
C495 N498 1.368 . S
C495 H500 0.931 . S
C496 C495 1.351 . S
C496 N497 1.373 . S
C496 H524 0.930 . S
N497 C496 1.373 . S
N497 C499 1.340 . S
N498 C495 1.368 . S
N498 C499 1.321 . S
N498 Co501 2.135 . S
C499 N497 1.340 . S
C499 N498 1.321 . S
C499 H523 0.930 . S
H500 C495 0.931 . S
Co501 N498 2.135 . S
Co501 N504 2.121 . S
Co501 O509 2.055 . S
Co501 O512 2.039 . S
Co501 N515 2.140 . S
C502 O503 1.227 . S
C502 O512 1.265 . S
O503 C502 1.227 . S
N504 Co501 2.121 . S
N504 C506 1.375 . S
N504 C507 1.313 . S
C505 C506 1.338 . S
C505 N508 1.377 . S
C505 H525 0.930 . S
C506 N504 1.375 . S
C506 C505 1.338 . S
C506 H510 0.931 . S
C507 N504 1.313 . S
C507 N508 1.344 . S
C507 H511 0.930 . S
N508 C505 1.377 . S
N508 C507 1.344 . S
O509 Co501 2.055 . S
O509 C513 1.253 . S
H510 C506 0.931 . S
H511 C507 0.930 . S
O512 Co501 2.039 . S
O512 C502 1.265 . S
C513 O509 1.253 . S
C513 O514 1.227 . S
O514 C513 1.227 . S
N515 Co501 2.140 . S
N515 C518 1.346 . S
N515 C519 1.345 . S
C516 C517 1.387 . S
C516 C520 1.391 . S
C517 C516 1.387 . S
C517 C518 1.369 . S
C517 H526 0.929 . S
C518 N515 1.346 . S
C518 C517 1.369 . S
C518 H521 0.928 . S
C519 N515 1.345 . S
C519 C520 1.371 . S
C519 H522 0.931 . S
C520 C516 1.391 . S
C520 C519 1.371 . S
C520 H527 0.930 . S
H521 C518 0.928 . S
H522 C519 0.931 . S
H523 C499 0.930 . S
H524 C496 0.930 . S
H525 C505 0.930 . S
H526 C517 0.929 . S
H527 C520 0.930 . S
C7 C172 0.482 . S
C40 C205 0.482 . S
C238 C73 0.481 . S
C139 C106 0.482 . S
C271 C436 0.482 . S
C304 C469 0.482 . S
C337 C502 0.481 . S
C370 C403 0.482 . S
C285 C21 4.072 1_465 S
C318 C54 4.072 1_545 S
C87 C351 4.072 . S
C384 C120 4.072 1_655 S
C153 C417 4.072 1_656 S
C186 C450 4.072 1_466 S
C219 C483 4.072 1_546 S
C252 C516 4.072 1_556 S
N13 N145 2.411 . S
N46 N178 2.411 . S
N211 N79 2.411 . S
N112 N244 2.411 . S
N409 N277 2.411 . S
N442 N310 2.411 . S
N343 N475 2.411 . S
N508 N376 2.411 . S
C51 N2 1.720 . S
N35 C84 1.720 . S
N68 C117 1.720 . S
N101 C18 1.720 . S
C249 N134 1.720 . S
N167 C150 1.720 . S
N200 C183 1.720 . S
N233 C216 1.720 . S
N266 C315 1.720 . S
N299 C348 1.720 . S
C381 N332 1.720 . S
N365 C282 1.720 . S
N398 C513 1.720 . S
C414 N431 1.720 . S
C447 N464 1.720 . S
N497 C480 1.720 . S
