# Generated by pormake.
# Topology wkr, (6)-cn, num edge types: 1
# Building blocks:
#     Node 0, Type 0, BuildingBlock: IZENUY_clean_sbu_0, # of connection points: 6
#     Node 1, Type 0, BuildingBlock: IZENUY_clean_sbu_0, # of connection points: 6
#     Node 2, Type 0, BuildingBlock: IZENUY_clean_sbu_0, # of connection points: 6
#     Node 3, Type 0, BuildingBlock: IZENUY_clean_sbu_0, # of connection points: 6
#     Node 4, Type 0, BuildingBlock: IZENUY_clean_sbu_0, # of connection points: 6
#     Node 5, Type 0, BuildingBlock: IZENUY_clean_sbu_0, # of connection points: 6
#     Node 6, Type 0, BuildingBlock: IZENUY_clean_sbu_0, # of connection points: 6
#     Node 7, Type 0, BuildingBlock: IZENUY_clean_sbu_0, # of connection points: 6
#     Node 8, Type 0, BuildingBlock: IZENUY_clean_sbu_0, # of connection points: 6
#     Node 9, Type 0, BuildingBlock: IZENUY_clean_sbu_0, # of connection points: 6
#     Node 10, Type 0, BuildingBlock: IZENUY_clean_sbu_0, # of connection points: 6
#     Node 11, Type 0, BuildingBlock: IZENUY_clean_sbu_0, # of connection points: 6
#     Node 12, Type 0, BuildingBlock: IZENUY_clean_sbu_0, # of connection points: 6
#     Node 13, Type 0, BuildingBlock: IZENUY_clean_sbu_0, # of connection points: 6
#     Node 14, Type 0, BuildingBlock: IZENUY_clean_sbu_0, # of connection points: 6
#     Node 15, Type 0, BuildingBlock: IZENUY_clean_sbu_0, # of connection points: 6
#     Node 16, Type 0, BuildingBlock: IZENUY_clean_sbu_0, # of connection points: 6
#     Node 17, Type 0, BuildingBlock: IZENUY_clean_sbu_0, # of connection points: 6
#     Node 18, Type 0, BuildingBlock: IZENUY_clean_sbu_0, # of connection points: 6
#     Node 19, Type 0, BuildingBlock: IZENUY_clean_sbu_0, # of connection points: 6
#     Node 20, Type 0, BuildingBlock: IZENUY_clean_sbu_0, # of connection points: 6
#     Node 21, Type 0, BuildingBlock: IZENUY_clean_sbu_0, # of connection points: 6
#     Node 22, Type 0, BuildingBlock: IZENUY_clean_sbu_0, # of connection points: 6
#     Node 23, Type 0, BuildingBlock: IZENUY_clean_sbu_0, # of connection points: 6
#     Edge 24, Type (0, 0), BuildingBlock: CIFDUS_clean_linker_0, # of connection points: 2
#     Edge 25, Type (0, 0), BuildingBlock: CIFDUS_clean_linker_0, # of connection points: 2
#     Edge 26, Type (0, 0), BuildingBlock: CIFDUS_clean_linker_0, # of connection points: 2
#     Edge 27, Type (0, 0), BuildingBlock: CIFDUS_clean_linker_0, # of connection points: 2
#     Edge 28, Type (0, 0), BuildingBlock: CIFDUS_clean_linker_0, # of connection points: 2
#     Edge 29, Type (0, 0), BuildingBlock: CIFDUS_clean_linker_0, # of connection points: 2
#     Edge 30, Type (0, 0), BuildingBlock: CIFDUS_clean_linker_0, # of connection points: 2
#     Edge 31, Type (0, 0), BuildingBlock: CIFDUS_clean_linker_0, # of connection points: 2
#     Edge 32, Type (0, 0), BuildingBlock: CIFDUS_clean_linker_0, # of connection points: 2
#     Edge 33, Type (0, 0), BuildingBlock: CIFDUS_clean_linker_0, # of connection points: 2
#     Edge 34, Type (0, 0), BuildingBlock: CIFDUS_clean_linker_0, # of connection points: 2
#     Edge 35, Type (0, 0), BuildingBlock: CIFDUS_clean_linker_0, # of connection points: 2
#     Edge 36, Type (0, 0), BuildingBlock: CIFDUS_clean_linker_0, # of connection points: 2
#     Edge 37, Type (0, 0), BuildingBlock: CIFDUS_clean_linker_0, # of connection points: 2
#     Edge 38, Type (0, 0), BuildingBlock: CIFDUS_clean_linker_0, # of connection points: 2
#     Edge 39, Type (0, 0), BuildingBlock: CIFDUS_clean_linker_0, # of connection points: 2
#     Edge 40, Type (0, 0), BuildingBlock: CIFDUS_clean_linker_0, # of connection points: 2
#     Edge 41, Type (0, 0), BuildingBlock: CIFDUS_clean_linker_0, # of connection points: 2
#     Edge 42, Type (0, 0), BuildingBlock: CIFDUS_clean_linker_0, # of connection points: 2
#     Edge 43, Type (0, 0), BuildingBlock: CIFDUS_clean_linker_0, # of connection points: 2
#     Edge 44, Type (0, 0), BuildingBlock: CIFDUS_clean_linker_0, # of connection points: 2
#     Edge 45, Type (0, 0), BuildingBlock: CIFDUS_clean_linker_0, # of connection points: 2
#     Edge 46, Type (0, 0), BuildingBlock: CIFDUS_clean_linker_0, # of connection points: 2
#     Edge 47, Type (0, 0), BuildingBlock: CIFDUS_clean_linker_0, # of connection points: 2
#     Edge 48, Type (0, 0), BuildingBlock: CIFDUS_clean_linker_0, # of connection points: 2
#     Edge 49, Type (0, 0), BuildingBlock: CIFDUS_clean_linker_0, # of connection points: 2
#     Edge 50, Type (0, 0), BuildingBlock: CIFDUS_clean_linker_0, # of connection points: 2
#     Edge 51, Type (0, 0), BuildingBlock: CIFDUS_clean_linker_0, # of connection points: 2
#     Edge 52, Type (0, 0), BuildingBlock: CIFDUS_clean_linker_0, # of connection points: 2
#     Edge 53, Type (0, 0), BuildingBlock: CIFDUS_clean_linker_0, # of connection points: 2
#     Edge 54, Type (0, 0), BuildingBlock: CIFDUS_clean_linker_0, # of connection points: 2
#     Edge 55, Type (0, 0), BuildingBlock: CIFDUS_clean_linker_0, # of connection points: 2
#     Edge 56, Type (0, 0), BuildingBlock: CIFDUS_clean_linker_0, # of connection points: 2
#     Edge 57, Type (0, 0), BuildingBlock: CIFDUS_clean_linker_0, # of connection points: 2
#     Edge 58, Type (0, 0), BuildingBlock: CIFDUS_clean_linker_0, # of connection points: 2
#     Edge 59, Type (0, 0), BuildingBlock: CIFDUS_clean_linker_0, # of connection points: 2
#     Edge 60, Type (0, 0), BuildingBlock: CIFDUS_clean_linker_0, # of connection points: 2
#     Edge 61, Type (0, 0), BuildingBlock: CIFDUS_clean_linker_0, # of connection points: 2
#     Edge 62, Type (0, 0), BuildingBlock: CIFDUS_clean_linker_0, # of connection points: 2
#     Edge 63, Type (0, 0), BuildingBlock: CIFDUS_clean_linker_0, # of connection points: 2
#     Edge 64, Type (0, 0), BuildingBlock: CIFDUS_clean_linker_0, # of connection points: 2
#     Edge 65, Type (0, 0), BuildingBlock: CIFDUS_clean_linker_0, # of connection points: 2
#     Edge 66, Type (0, 0), BuildingBlock: CIFDUS_clean_linker_0, # of connection points: 2
#     Edge 67, Type (0, 0), BuildingBlock: CIFDUS_clean_linker_0, # of connection points: 2
#     Edge 68, Type (0, 0), BuildingBlock: CIFDUS_clean_linker_0, # of connection points: 2
#     Edge 69, Type (0, 0), BuildingBlock: CIFDUS_clean_linker_0, # of connection points: 2
#     Edge 70, Type (0, 0), BuildingBlock: CIFDUS_clean_linker_0, # of connection points: 2
#     Edge 71, Type (0, 0), BuildingBlock: CIFDUS_clean_linker_0, # of connection points: 2
#     Edge 72, Type (0, 0), BuildingBlock: CIFDUS_clean_linker_0, # of connection points: 2
#     Edge 73, Type (0, 0), BuildingBlock: CIFDUS_clean_linker_0, # of connection points: 2
#     Edge 74, Type (0, 0), BuildingBlock: CIFDUS_clean_linker_0, # of connection points: 2
#     Edge 75, Type (0, 0), BuildingBlock: CIFDUS_clean_linker_0, # of connection points: 2
#     Edge 76, Type (0, 0), BuildingBlock: CIFDUS_clean_linker_0, # of connection points: 2
#     Edge 77, Type (0, 0), BuildingBlock: CIFDUS_clean_linker_0, # of connection points: 2
#     Edge 78, Type (0, 0), BuildingBlock: CIFDUS_clean_linker_0, # of connection points: 2
#     Edge 79, Type (0, 0), BuildingBlock: CIFDUS_clean_linker_0, # of connection points: 2
#     Edge 80, Type (0, 0), BuildingBlock: CIFDUS_clean_linker_0, # of connection points: 2
#     Edge 81, Type (0, 0), BuildingBlock: CIFDUS_clean_linker_0, # of connection points: 2
#     Edge 82, Type (0, 0), BuildingBlock: CIFDUS_clean_linker_0, # of connection points: 2
#     Edge 83, Type (0, 0), BuildingBlock: CIFDUS_clean_linker_0, # of connection points: 2
#     Edge 84, Type (0, 0), BuildingBlock: CIFDUS_clean_linker_0, # of connection points: 2
#     Edge 85, Type (0, 0), BuildingBlock: CIFDUS_clean_linker_0, # of connection points: 2
#     Edge 86, Type (0, 0), BuildingBlock: CIFDUS_clean_linker_0, # of connection points: 2
#     Edge 87, Type (0, 0), BuildingBlock: CIFDUS_clean_linker_0, # of connection points: 2
#     Edge 88, Type (0, 0), BuildingBlock: CIFDUS_clean_linker_0, # of connection points: 2
#     Edge 89, Type (0, 0), BuildingBlock: CIFDUS_clean_linker_0, # of connection points: 2
#     Edge 90, Type (0, 0), BuildingBlock: CIFDUS_clean_linker_0, # of connection points: 2
#     Edge 91, Type (0, 0), BuildingBlock: CIFDUS_clean_linker_0, # of connection points: 2
#     Edge 92, Type (0, 0), BuildingBlock: CIFDUS_clean_linker_0, # of connection points: 2
#     Edge 93, Type (0, 0), BuildingBlock: CIFDUS_clean_linker_0, # of connection points: 2
#     Edge 94, Type (0, 0), BuildingBlock: CIFDUS_clean_linker_0, # of connection points: 2
#     Edge 95, Type (0, 0), BuildingBlock: CIFDUS_clean_linker_0, # of connection points: 2
# Relax obj value: 0.596
# Max RMSD: 0.292
# Mean RMSD: 0.292
data_MOF--net-wkr--node1-IZENUY_clean_sbu_0--edge1-CIFDUS_clean_linker_0
_symmetry_space_group_name_H-M    P1
_symmetry_Int_Tables_number       1
_symmetry_cell_setting            triclinic
loop_
_symmetry_equiv_pos_as_xyz
'x, y, z'
_cell_length_a     43.128168
_cell_length_b     42.854073
_cell_length_c     46.687539
_cell_angle_alpha  90.477206
_cell_angle_beta   90.203945
_cell_angle_gamma 119.66791
loop_
_atom_site_label
_atom_site_type_symbol
_atom_site_fract_x
_atom_site_fract_y
_atom_site_fract_z
_atom_type_partial_charge
Fe0 Fe 0.48847 0.15387 0.1732 0.0
Fe1 Fe 0.55609 0.22639 0.17238 0.0
O2 O 0.53582 0.17936 0.17131 0.0
Fe3 Fe 0.56135 0.15783 0.16726 0.0
O4 O 0.54134 0.13064 0.19816 0.0
O5 O 0.48628 0.11143 0.18623 0.0
O6 O 0.49045 0.16976 0.21062 0.0
C7 C 0.50435 0.20324 0.21686 0.0
C8 C 0.50541 0.12649 0.12594 0.0
O9 O 0.52279 0.22643 0.19797 0.0
C10 C 0.6016 0.21626 0.13401 0.0
O11 O 0.48067 0.19033 0.15929 0.0
O12 O 0.53196 0.22425 0.14011 0.0
O13 O 0.52895 0.12453 0.14135 0.0
O14 O 0.48664 0.1392 0.13617 0.0
C15 C 0.59864 0.21392 0.2082 0.0
O16 O 0.59399 0.2356 0.14961 0.0
O17 O 0.58498 0.18282 0.13617 0.0
C18 C 0.49927 0.21387 0.14088 0.0
O19 O 0.58122 0.22968 0.20337 0.0
O20 O 0.59652 0.18857 0.19242 0.0
C21 C 0.50971 0.10596 0.19815 0.0
Fe22 Fe 0.37086 0.50116 0.16743 0.0
Fe23 Fe 0.39023 0.58141 0.17137 0.0
O24 O 0.40109 0.54765 0.16377 0.0
Fe25 Fe 0.44539 0.56106 0.15235 0.0
O26 O 0.44328 0.51854 0.15724 0.0
O27 O 0.40431 0.49503 0.18963 0.0
O28 O 0.35096 0.50456 0.20217 0.0
C29 C 0.34941 0.53048 0.21456 0.0
C30 C 0.40357 0.51453 0.11106 0.0
O31 O 0.36633 0.56189 0.20461 0.0
C32 C 0.44225 0.61901 0.13211 0.0
O33 O 0.33488 0.50256 0.14721 0.0
O34 O 0.34941 0.55989 0.15142 0.0
O35 O 0.42866 0.5464 0.1165 0.0
O36 O 0.38519 0.49264 0.13129 0.0
C37 C 0.45107 0.59451 0.20339 0.0
O38 O 0.40997 0.60545 0.13818 0.0
O39 O 0.45995 0.60706 0.14389 0.0
C40 C 0.32971 0.52858 0.14171 0.0
O41 O 0.43152 0.60637 0.19276 0.0
O42 O 0.4599 0.57489 0.18888 0.0
C43 C 0.43464 0.50238 0.18012 0.0
Fe44 Fe 0.86826 0.36747 0.17356 0.0
Fe45 Fe 0.8108 0.38973 0.17732 0.0
O46 O 0.85533 0.40048 0.17082 0.0
Fe47 Fe 0.88645 0.44476 0.16087 0.0
O48 O 0.91356 0.45052 0.19133 0.0
O49 O 0.9159 0.40103 0.18578 0.0
O50 O 0.8531 0.35761 0.21162 0.0
C51 C 0.82063 0.34637 0.21903 0.0
C52 C 0.90193 0.40263 0.12359 0.0
O53 O 0.80061 0.35272 0.20287 0.0
C54 C 0.83089 0.4391 0.13135 0.0
O55 O 0.82406 0.33054 0.1605 0.0
O56 O 0.79611 0.35956 0.14719 0.0
O57 O 0.91252 0.43195 0.13721 0.0
O58 O 0.88158 0.37322 0.13574 0.0
C59 C 0.85061 0.45191 0.20705 0.0
O60 O 0.812 0.42442 0.15325 0.0
O61 O 0.86093 0.4417 0.12938 0.0
C62 C 0.80017 0.3324 0.14542 0.0
O63 O 0.82526 0.41988 0.2079 0.0
O64 O 0.86521 0.46438 0.18321 0.0
C65 C 0.92995 0.43377 0.19495 0.0
Fe66 Fe 0.45757 0.80228 0.16173 0.0
Fe67 Fe 0.46442 0.87558 0.15393 0.0
O68 O 0.48394 0.84926 0.1628 0.0
Fe69 Fe 0.53022 0.86992 0.17056 0.0
O70 O 0.5218 0.84885 0.20664 0.0
O71 O 0.48394 0.7946 0.18995 0.0
O72 O 0.42989 0.80338 0.18991 0.0
C73 C 0.41309 0.82053 0.18829 0.0
C74 C 0.51676 0.81063 0.13524 0.0
O75 O 0.42086 0.84453 0.16962 0.0
C76 C 0.52692 0.90641 0.12299 0.0
O77 O 0.42575 0.80077 0.13428 0.0
O78 O 0.4516 0.85535 0.11873 0.0
O79 O 0.53536 0.8327 0.15503 0.0
O80 O 0.48402 0.80043 0.13305 0.0
C81 C 0.50818 0.91856 0.19511 0.0
O82 O 0.50457 0.91111 0.13704 0.0
O83 O 0.54044 0.88918 0.13441 0.0
C84 C 0.42761 0.82331 0.11593 0.0
O85 O 0.47638 0.89699 0.18847 0.0
O86 O 0.5327 0.91197 0.18661 0.0
C87 C 0.50477 0.81464 0.20998 0.0
Fe88 Fe 0.61541 0.45223 0.1605 0.0
Fe89 Fe 0.68479 0.52551 0.16373 0.0
O90 O 0.66215 0.47801 0.16367 0.0
Fe91 Fe 0.6876 0.45572 0.16533 0.0
O92 O 0.67049 0.4393 0.1998 0.0
O93 O 0.61379 0.42102 0.18788 0.0
O94 O 0.6076 0.4744 0.18991 0.0
C95 C 0.61819 0.50719 0.1922 0.0
C96 C 0.62662 0.40334 0.13431 0.0
O97 O 0.64828 0.53 0.18176 0.0
C98 C 0.72119 0.50549 0.12469 0.0
O99 O 0.61141 0.48098 0.13348 0.0
O100 O 0.66629 0.52622 0.12851 0.0
O101 O 0.65384 0.41216 0.14968 0.0
O102 O 0.61816 0.42689 0.13028 0.0
C103 C 0.72644 0.51335 0.20327 0.0
O104 O 0.72297 0.52842 0.14326 0.0
O105 O 0.7043 0.47229 0.1303 0.0
C106 C 0.63491 0.50645 0.11878 0.0
O107 O 0.70627 0.52722 0.19953 0.0
O108 O 0.72676 0.49298 0.18354 0.0
C109 C 0.63765 0.42316 0.20524 0.0
Fe110 Fe 0.15075 0.60665 0.14375 0.0
Fe111 Fe 0.16849 0.68222 0.16309 0.0
O112 O 0.18119 0.64876 0.16022 0.0
Fe113 Fe 0.22243 0.65536 0.1732 0.0
O114 O 0.20081 0.60968 0.18806 0.0
O115 O 0.14344 0.58572 0.17816 0.0
O116 O 0.11217 0.61204 0.14874 0.0
C117 C 0.10423 0.61922 0.1725 0.0
C118 C 0.21461 0.61026 0.12869 0.0
O119 O 0.12671 0.64979 0.18343 0.0
C120 C 0.23857 0.71848 0.14361 0.0
O121 O 0.15806 0.62838 0.10968 0.0
O122 O 0.14607 0.66997 0.12689 0.0
O123 O 0.23247 0.64127 0.13917 0.0
O124 O 0.18239 0.59174 0.13499 0.0
C125 C 0.21299 0.69676 0.21491 0.0
O126 O 0.20726 0.71385 0.14274 0.0
O127 O 0.24753 0.70081 0.15995 0.0
C128 C 0.15104 0.65355 0.10567 0.0
O129 O 0.19295 0.7032 0.19837 0.0
O130 O 0.219 0.67162 0.20837 0.0
C131 C 0.16822 0.59091 0.19531 0.0
Fe132 Fe 0.8415 0.45836 0.37986 0.0
Fe133 Fe 0.91219 0.48784 0.41234 0.0
O134 O 0.88005 0.49534 0.3941 0.0
Fe135 Fe 0.89009 0.5404 0.38999 0.0
O136 O 0.86967 0.53547 0.35304 0.0
O137 O 0.84378 0.47737 0.34464 0.0
O138 O 0.86747 0.43848 0.36498 0.0
C139 C 0.90098 0.4541 0.36043 0.0
C140 C 0.81762 0.50385 0.40414 0.0
O141 O 0.92324 0.47645 0.37804 0.0
C142 C 0.90201 0.52996 0.44975 0.0
O143 O 0.8322 0.43391 0.41345 0.0
O144 O 0.88458 0.44053 0.41904 0.0
O145 O 0.84783 0.53221 0.40569 0.0
O146 O 0.81295 0.47489 0.3927 0.0
C147 C 0.95825 0.5475 0.38634 0.0
O148 O 0.89984 0.49948 0.4459 0.0
O149 O 0.90713 0.5512 0.42844 0.0
C150 C 0.85195 0.42287 0.42347 0.0
O151 O 0.94797 0.53387 0.41006 0.0
O152 O 0.93457 0.55102 0.37243 0.0
C153 C 0.84985 0.50814 0.33715 0.0
Fe154 Fe 0.38915 0.82447 0.38469 0.0
Fe155 Fe 0.4447 0.90221 0.39505 0.0
O156 O 0.39921 0.869 0.39091 0.0
Fe157 Fe 0.36733 0.88323 0.39188 0.0
O158 O 0.34276 0.85843 0.35833 0.0
O159 O 0.35612 0.81488 0.35602 0.0
O160 O 0.42367 0.84034 0.35711 0.0
C161 C 0.43558 0.86968 0.34327 0.0
C162 C 0.33505 0.81727 0.42182 0.0
O163 O 0.44767 0.89995 0.35627 0.0
C164 C 0.41295 0.90656 0.44359 0.0
O165 O 0.41928 0.82568 0.4133 0.0
O166 O 0.46392 0.87372 0.39823 0.0
O167 O 0.33613 0.84609 0.41424 0.0
O168 O 0.35497 0.80648 0.41121 0.0
C169 C 0.42526 0.94729 0.37412 0.0
O170 O 0.4377 0.90182 0.43296 0.0
O171 O 0.38833 0.90705 0.42745 0.0
C172 C 0.45242 0.84597 0.41246 0.0
O173 O 0.43938 0.941 0.39435 0.0
O174 O 0.39434 0.92257 0.36752 0.0
C175 C 0.33883 0.82949 0.34657 0.0
Fe176 Fe 0.49411 0.34661 0.4083 0.0
Fe177 Fe 0.55699 0.33445 0.40002 0.0
O178 O 0.54071 0.36409 0.40978 0.0
Fe179 Fe 0.57137 0.40884 0.42028 0.0
O180 O 0.55013 0.42943 0.40129 0.0
O181 O 0.49563 0.38642 0.39126 0.0
O182 O 0.49121 0.32895 0.37076 0.0
C183 C 0.49941 0.30526 0.36405 0.0
C184 C 0.51606 0.38628 0.46119 0.0
O185 O 0.5167 0.29907 0.38239 0.0
C186 C 0.61747 0.38561 0.43057 0.0
O187 O 0.48715 0.30496 0.42716 0.0
O188 O 0.54209 0.31307 0.43337 0.0
O189 O 0.54806 0.40663 0.45347 0.0
O190 O 0.49262 0.36301 0.44435 0.0
C191 C 0.58981 0.39236 0.36571 0.0
O192 O 0.60236 0.36012 0.41326 0.0
O193 O 0.59831 0.39628 0.44195 0.0
C194 C 0.51029 0.30095 0.44189 0.0
O195 O 0.57189 0.35822 0.36734 0.0
O196 O 0.59615 0.41395 0.38697 0.0
C197 C 0.52024 0.41906 0.38991 0.0
Fe198 Fe 0.16027 0.56689 0.41211 0.0
Fe199 Fe 0.17838 0.50854 0.39388 0.0
O200 O 0.19077 0.55476 0.39657 0.0
Fe201 Fe 0.23264 0.58923 0.3854 0.0
O202 O 0.21192 0.61409 0.36984 0.0
O203 O 0.15416 0.58214 0.37806 0.0
O204 O 0.12148 0.52418 0.40447 0.0
C205 C 0.11543 0.50813 0.38089 0.0
C206 C 0.22359 0.62471 0.43088 0.0
O207 O 0.13767 0.49873 0.37202 0.0
C208 C 0.24729 0.54208 0.41618 0.0
O209 O 0.16642 0.55127 0.44611 0.0
O210 O 0.15377 0.49783 0.42866 0.0
O211 O 0.24172 0.61227 0.41995 0.0
O212 O 0.19202 0.61257 0.42282 0.0
C213 C 0.22483 0.53901 0.34387 0.0
O214 O 0.21614 0.51539 0.41596 0.0
O215 O 0.25683 0.56826 0.39944 0.0
C216 C 0.15998 0.51937 0.44993 0.0
O217 O 0.20443 0.51248 0.35986 0.0
O218 O 0.23046 0.57012 0.35022 0.0
C219 C 0.17955 0.60127 0.36161 0.0
Fe220 Fe 0.67003 0.17503 0.39417 0.0
Fe221 Fe 0.66544 0.24337 0.40355 0.0
O222 O 0.64464 0.1961 0.40138 0.0
Fe223 Fe 0.59917 0.17039 0.40881 0.0
O224 O 0.58994 0.14824 0.37469 0.0
O225 O 0.63158 0.13345 0.37731 0.0
O226 O 0.6821 0.19655 0.35854 0.0
C227 C 0.69975 0.2307 0.35573 0.0
C228 C 0.63036 0.13886 0.44136 0.0
O229 O 0.70106 0.25087 0.37671 0.0
C230 C 0.61118 0.22188 0.44622 0.0
O231 O 0.71127 0.21182 0.4108 0.0
O232 O 0.69112 0.24296 0.43376 0.0
O233 O 0.60327 0.13478 0.42738 0.0
O234 O 0.6607 0.15513 0.42986 0.0
C235 C 0.60655 0.22543 0.37176 0.0
O236 O 0.63265 0.24519 0.42887 0.0
O237 O 0.60636 0.19091 0.44375 0.0
C238 C 0.7137 0.23253 0.43154 0.0
O239 O 0.63999 0.24403 0.37392 0.0
O240 O 0.58842 0.20227 0.39064 0.0
C241 C 0.60111 0.12735 0.3678 0.0
Fe242 Fe 0.46285 0.65845 0.38715 0.0
Fe243 Fe 0.47923 0.60345 0.4136 0.0
O244 O 0.49425 0.64508 0.39624 0.0
Fe245 Fe 0.54027 0.67241 0.3889 0.0
O246 O 0.5335 0.69294 0.35506 0.0
O247 O 0.47512 0.66443 0.34936 0.0
O248 O 0.42794 0.6124 0.37838 0.0
C249 C 0.43277 0.58724 0.36915 0.0
C250 C 0.52039 0.71976 0.41067 0.0
O251 O 0.45473 0.58031 0.38159 0.0
C252 C 0.53682 0.64776 0.4459 0.0
O253 O 0.44814 0.65469 0.42426 0.0
O254 O 0.43998 0.60095 0.42941 0.0
O255 O 0.54267 0.70885 0.41096 0.0
O256 O 0.49305 0.70555 0.39472 0.0
C257 C 0.52965 0.60434 0.37741 0.0
O258 O 0.5036 0.62635 0.4455 0.0
O259 O 0.55437 0.65898 0.42255 0.0
C260 C 0.43444 0.62563 0.4378 0.0
O261 O 0.51555 0.59725 0.40162 0.0
O262 O 0.5401 0.63543 0.36694 0.0
C263 C 0.5058 0.68634 0.34006 0.0
Fe264 Fe 0.46973 0.79486 0.89345 0.0
Fe265 Fe 0.46595 0.86053 0.91244 0.0
O266 O 0.49203 0.84151 0.90193 0.0
Fe267 Fe 0.53877 0.86574 0.89982 0.0
O268 O 0.53915 0.84631 0.86354 0.0
O269 O 0.50726 0.79243 0.8779 0.0
O270 O 0.45878 0.80558 0.85976 0.0
C271 C 0.44668 0.82712 0.85674 0.0
C272 C 0.51557 0.80374 0.93586 0.0
O273 O 0.44043 0.84265 0.87809 0.0
C274 C 0.52277 0.88973 0.95242 0.0
O275 O 0.42438 0.78227 0.90437 0.0
O276 O 0.4377 0.82305 0.93486 0.0
O277 O 0.54038 0.82908 0.9208 0.0
O278 O 0.48274 0.78792 0.92809 0.0
C279 C 0.51845 0.91636 0.87988 0.0
O280 O 0.49081 0.88014 0.94555 0.0
O281 O 0.5442 0.88766 0.93491 0.0
C282 C 0.41415 0.79507 0.92369 0.0
O283 O 0.49024 0.90121 0.89376 0.0
O284 O 0.54073 0.90482 0.88007 0.0
C285 C 0.52709 0.81304 0.85905 0.0
Fe286 Fe 0.66978 0.51516 0.89749 0.0
Fe287 Fe 0.67196 0.44579 0.90596 0.0
O288 O 0.64753 0.46893 0.90618 0.0
Fe289 Fe 0.60238 0.44616 0.91688 0.0
O290 O 0.58759 0.45853 0.88541 0.0
O291 O 0.62894 0.51503 0.88282 0.0
O292 O 0.68112 0.5057 0.86095 0.0
C293 C 0.70064 0.49114 0.85734 0.0
C294 C 0.63379 0.51137 0.94816 0.0
O295 O 0.7044 0.47425 0.87818 0.0
C296 C 0.62401 0.4104 0.9513 0.0
O297 O 0.71334 0.52349 0.91225 0.0
O298 O 0.6986 0.47373 0.93522 0.0
O299 O 0.6059 0.48409 0.93839 0.0
O300 O 0.66175 0.52675 0.93325 0.0
C301 C 0.61147 0.40095 0.87696 0.0
O302 O 0.64455 0.4112 0.93189 0.0
O303 O 0.61201 0.43147 0.95014 0.0
C304 C 0.71879 0.50707 0.93263 0.0
O305 O 0.6451 0.41775 0.87748 0.0
O306 O 0.59298 0.40514 0.89633 0.0
C307 C 0.59711 0.48981 0.87768 0.0
Fe308 Fe 0.23005 0.66819 0.88927 0.0
Fe309 Fe 0.16014 0.60222 0.9056 0.0
O310 O 0.18336 0.64737 0.89396 0.0
Fe311 Fe 0.16109 0.67208 0.88815 0.0
O312 O 0.17725 0.68276 0.85064 0.0
O313 O 0.2332 0.70122 0.86227 0.0
O314 O 0.2234 0.63759 0.85982 0.0
C315 C 0.20328 0.60386 0.86135 0.0
C316 C 0.22421 0.71971 0.91877 0.0
O317 O 0.18946 0.59044 0.88524 0.0
C318 C 0.13075 0.63594 0.93846 0.0
O319 O 0.23724 0.64017 0.91491 0.0
O320 O 0.1871 0.61268 0.93783 0.0
O321 O 0.19938 0.71505 0.90135 0.0
O322 O 0.23634 0.69825 0.91862 0.0
C323 C 0.11056 0.59945 0.86829 0.0
O324 O 0.1277 0.60756 0.92726 0.0
O325 O 0.14578 0.66521 0.92511 0.0
C326 C 0.22002 0.62413 0.93697 0.0
O327 O 0.13118 0.58797 0.87509 0.0
O328 O 0.11832 0.63165 0.87509 0.0
C329 C 0.21044 0.70022 0.84445 0.0
Fe330 Fe 0.57679 0.21932 0.88741 0.0
Fe331 Fe 0.57409 0.15903 0.92201 0.0
O332 O 0.55158 0.17666 0.90293 0.0
Fe333 Fe 0.50559 0.15322 0.8983 0.0
O334 O 0.50582 0.1678 0.86032 0.0
O335 O 0.54204 0.22322 0.86823 0.0
O336 O 0.58488 0.19668 0.85846 0.0
C337 C 0.59437 0.17294 0.86281 0.0
C338 C 0.53253 0.22292 0.92641 0.0
O339 O 0.59892 0.16334 0.88806 0.0
C340 C 0.51678 0.13973 0.9569 0.0
O341 O 0.62117 0.23105 0.90021 0.0
O342 O 0.60569 0.20153 0.93795 0.0
O343 O 0.5059 0.19381 0.9152 0.0
O344 O 0.56515 0.23634 0.91809 0.0
C345 C 0.52535 0.09975 0.89081 0.0
O346 O 0.55004 0.15363 0.95448 0.0
O347 O 0.49669 0.13402 0.93507 0.0
C348 C 0.62999 0.22446 0.92363 0.0
O349 O 0.54426 0.11304 0.91268 0.0
O350 O 0.50639 0.11309 0.88161 0.0
C351 C 0.51846 0.20001 0.85268 0.0
Fe352 Fe 0.36114 0.50622 0.89482 0.0
Fe353 Fe 0.38091 0.58532 0.89199 0.0
O354 O 0.39366 0.55236 0.89576 0.0
Fe355 Fe 0.43914 0.56601 0.90035 0.0
O356 O 0.43812 0.54203 0.86858 0.0
O357 O 0.39232 0.49087 0.87962 0.0
O358 O 0.34589 0.50976 0.85809 0.0
C359 C 0.33329 0.53068 0.85277 0.0
C360 C 0.40413 0.51132 0.94068 0.0
O361 O 0.34068 0.55683 0.86983 0.0
C362 C 0.43895 0.61847 0.93183 0.0
O363 O 0.32626 0.51396 0.91146 0.0
O364 O 0.35652 0.57086 0.92483 0.0
O365 O 0.43093 0.52897 0.92469 0.0
O366 O 0.37299 0.50104 0.93129 0.0
C367 C 0.43634 0.60595 0.85554 0.0
O368 O 0.41895 0.62045 0.91278 0.0
O369 O 0.44309 0.59156 0.93238 0.0
C370 C 0.33012 0.53974 0.92784 0.0
O371 O 0.40476 0.59965 0.85883 0.0
O372 O 0.45384 0.60498 0.877 0.0
C373 C 0.42284 0.50866 0.86763 0.0
Fe374 Fe 0.81787 0.36673 0.89803 0.0
Fe375 Fe 0.89468 0.4248 0.90964 0.0
O376 O 0.86305 0.37944 0.90154 0.0
Fe377 Fe 0.87941 0.34953 0.89665 0.0
O378 O 0.85494 0.32905 0.86196 0.0
O379 O 0.80679 0.33317 0.86917 0.0
O380 O 0.8305 0.40115 0.87029 0.0
C381 C 0.86114 0.42174 0.85893 0.0
C382 C 0.81751 0.31224 0.93043 0.0
O383 O 0.89111 0.43342 0.87218 0.0
C384 C 0.90044 0.38638 0.95272 0.0
O385 O 0.81756 0.39574 0.92697 0.0
O386 O 0.866 0.44266 0.91651 0.0
O387 O 0.84372 0.31369 0.9171 0.0
O388 O 0.80516 0.33294 0.92505 0.0
C389 C 0.94113 0.41246 0.88239 0.0
O390 O 0.89487 0.41225 0.9463 0.0
O391 O 0.90272 0.36567 0.93306 0.0
C392 C 0.83619 0.42912 0.92729 0.0
O393 O 0.93436 0.42164 0.90537 0.0
O394 O 0.91732 0.38219 0.87325 0.0
C395 C 0.82299 0.32061 0.85479 0.0
Fe396 Fe 0.20325 0.58991 0.69026 0.0
Fe397 Fe 0.13258 0.55342 0.65767 0.0
O398 O 0.16829 0.55098 0.67458 0.0
Fe399 Fe 0.16535 0.5083 0.67523 0.0
O400 O 0.1847 0.51186 0.71186 0.0
O401 O 0.20602 0.56886 0.72312 0.0
O402 O 0.1713 0.59988 0.70857 0.0
C403 C 0.13774 0.57944 0.71198 0.0
C404 C 0.23628 0.55725 0.65979 0.0
O405 O 0.11795 0.55722 0.69306 0.0
C406 C 0.15457 0.52362 0.61748 0.0
O407 O 0.20791 0.6174 0.65922 0.0
O408 O 0.15251 0.60144 0.65491 0.0
O409 O 0.20977 0.5255 0.65968 0.0
O410 O 0.23687 0.58302 0.67363 0.0
C411 C 0.0932 0.48849 0.67832 0.0
O412 O 0.14998 0.55014 0.62349 0.0
O413 O 0.15049 0.50012 0.63646 0.0
C414 C 0.18416 0.62349 0.65016 0.0
O415 O 0.10321 0.5053 0.65588 0.0
O416 O 0.11879 0.48857 0.69224 0.0
C417 C 0.20244 0.53847 0.72874 0.0
Fe418 Fe 0.63208 0.19803 0.69397 0.0
Fe419 Fe 0.59375 0.13175 0.65495 0.0
O420 O 0.6328 0.16384 0.67334 0.0
Fe421 Fe 0.67137 0.15953 0.67081 0.0
O422 O 0.69149 0.18041 0.70717 0.0
O423 O 0.65017 0.18908 0.72643 0.0
O424 O 0.58716 0.16795 0.70772 0.0
C425 C 0.57084 0.13387 0.70884 0.0
C426 C 0.69285 0.23088 0.66078 0.0
O427 O 0.57323 0.11506 0.68916 0.0
C428 C 0.64205 0.14717 0.61318 0.0
O429 O 0.615 0.21164 0.6636 0.0
O430 O 0.57181 0.15835 0.65251 0.0
O431 O 0.6955 0.20357 0.65397 0.0
O432 O 0.67635 0.23133 0.68294 0.0
C433 C 0.61685 0.08857 0.67507 0.0
O434 O 0.61456 0.14865 0.62076 0.0
O435 O 0.66153 0.14296 0.63219 0.0
C436 C 0.58656 0.19167 0.65016 0.0
O437 O 0.60834 0.09881 0.65319 0.0
O438 O 0.64503 0.1129 0.6879 0.0
C439 C 0.68038 0.19107 0.72851 0.0
Fe440 Fe 0.46528 0.65072 0.67917 0.0
Fe441 Fe 0.49054 0.60505 0.64726 0.0
O442 O 0.50041 0.64554 0.66546 0.0
Fe443 Fe 0.54571 0.67908 0.66983 0.0
O444 O 0.54059 0.69715 0.70519 0.0
O445 O 0.48401 0.66214 0.71532 0.0
O446 O 0.4399 0.60385 0.69072 0.0
C447 C 0.45097 0.58193 0.69571 0.0
C448 C 0.51174 0.71692 0.65352 0.0
O449 O 0.47495 0.58129 0.68074 0.0
C450 C 0.5376 0.6552 0.61154 0.0
O451 O 0.44301 0.64044 0.64438 0.0
O452 O 0.44494 0.59151 0.63696 0.0
O453 O 0.53823 0.71198 0.65074 0.0
O454 O 0.48576 0.69769 0.66958 0.0
C455 C 0.54829 0.61628 0.67779 0.0
O456 O 0.50611 0.62913 0.61412 0.0
O457 O 0.55796 0.66951 0.63355 0.0
C458 C 0.43015 0.60995 0.63269 0.0
O459 O 0.53427 0.61015 0.65351 0.0
O460 O 0.55446 0.64574 0.68976 0.0
C461 C 0.51463 0.68725 0.72244 0.0
Fe462 Fe 0.80338 0.44142 0.67399 0.0
Fe463 Fe 0.87435 0.45632 0.64843 0.0
O464 O 0.84802 0.47235 0.66539 0.0
Fe465 Fe 0.8666 0.51884 0.67293 0.0
O466 O 0.83932 0.51261 0.70651 0.0
O467 O 0.80957 0.45391 0.71201 0.0
O468 O 0.81327 0.40545 0.68222 0.0
C469 C 0.84257 0.40971 0.69186 0.0
C470 C 0.79994 0.49972 0.65136 0.0
O471 O 0.8715 0.43109 0.67987 0.0
C472 C 0.89027 0.51489 0.61639 0.0
O473 O 0.79319 0.42704 0.63657 0.0
O474 O 0.83786 0.41763 0.63115 0.0
O475 O 0.83307 0.52129 0.65044 0.0
O476 O 0.78708 0.47235 0.667 0.0
C477 C 0.9222 0.50639 0.68668 0.0
O478 O 0.87791 0.48137 0.61669 0.0
O479 O 0.8949 0.5326 0.63982 0.0
C480 C 0.80828 0.41307 0.62253 0.0
O481 O 0.9162 0.49175 0.66236 0.0
O482 O 0.9025 0.51891 0.69553 0.0
C483 C 0.81891 0.4851 0.72161 0.0
Fe484 Fe 0.42167 0.8598 0.64868 0.0
Fe485 Fe 0.35568 0.86622 0.66462 0.0
O486 O 0.37627 0.84007 0.65835 0.0
Fe487 Fe 0.35033 0.79288 0.66105 0.0
O488 O 0.3762 0.7943 0.69142 0.0
O489 O 0.42854 0.8284 0.67106 0.0
O490 O 0.43689 0.88899 0.6797 0.0
C491 C 0.42772 0.91161 0.68607 0.0
C492 C 0.39934 0.79931 0.61787 0.0
O493 O 0.39695 0.90626 0.67859 0.0
C494 C 0.30611 0.80768 0.63074 0.0
O495 O 0.42047 0.89373 0.62506 0.0
O496 O 0.36512 0.88324 0.62834 0.0
O497 O 0.37779 0.78205 0.6375 0.0
O498 O 0.4113 0.83243 0.6166 0.0
C499 C 0.32238 0.81536 0.70636 0.0
O500 O 0.31201 0.83149 0.64986 0.0
O501 O 0.32458 0.79217 0.6304 0.0
C502 C 0.39356 0.89427 0.61425 0.0
O503 O 0.34342 0.84869 0.7017 0.0
O504 O 0.31751 0.7928 0.68664 0.0
C505 C 0.40989 0.81082 0.69234 0.0
Fe506 Fe 0.56509 0.34713 0.67349 0.0
Fe507 Fe 0.5699 0.42074 0.67208 0.0
O508 O 0.54448 0.37367 0.67451 0.0
Fe509 Fe 0.49742 0.35214 0.67716 0.0
O510 O 0.49998 0.33588 0.71341 0.0
O511 O 0.53164 0.31182 0.69736 0.0
O512 O 0.58943 0.36739 0.70536 0.0
C513 C 0.6059 0.40027 0.71176 0.0
C514 C 0.50789 0.30497 0.6413 0.0
O515 O 0.60618 0.42375 0.69504 0.0
C516 C 0.51381 0.3986 0.6319 0.0
O517 O 0.60318 0.37767 0.6514 0.0
O518 O 0.59102 0.41948 0.63935 0.0
O519 O 0.48929 0.30923 0.66037 0.0
O520 O 0.54095 0.32643 0.64096 0.0
C521 C 0.51982 0.42051 0.70512 0.0
O522 O 0.53679 0.42329 0.64828 0.0
O523 O 0.4949 0.36689 0.64111 0.0
C524 C 0.60886 0.40403 0.63599 0.0
O525 O 0.55125 0.42668 0.70484 0.0
O526 O 0.4962 0.39184 0.69282 0.0
C527 C 0.51334 0.31531 0.71729 0.0
H528 H 0.4926 0.23986 0.34863 0.0
H529 H 0.49922 0.33468 0.31157 0.0
H530 H 0.50165 0.31228 0.26349 0.0
H531 H 0.50443 0.26647 0.23151 0.0
H532 H 0.49339 0.1698 0.26874 0.0
H533 H 0.49022 0.19197 0.31656 0.0
C534 C 0.49392 0.25544 0.33004 0.0
C535 C 0.49528 0.28904 0.33418 0.0
C536 C 0.49477 0.24199 0.30217 0.0
C537 C 0.49737 0.30862 0.30947 0.0
C538 C 0.49911 0.29584 0.28181 0.0
C539 C 0.50089 0.24996 0.25001 0.0
C540 C 0.49905 0.21608 0.24601 0.0
C541 C 0.49815 0.26266 0.27779 0.0
C542 C 0.49451 0.19555 0.27065 0.0
C543 C 0.49284 0.2084 0.29821 0.0
H544 H 0.3169 0.56912 0.22999 0.0
H545 H 0.32578 0.47821 0.25744 0.0
H546 H 0.28689 0.47058 0.29849 0.0
H547 H 0.25083 0.49143 0.32821 0.0
H548 H 0.242 0.58142 0.29725 0.0
H549 H 0.27902 0.58684 0.25663 0.0
C550 C 0.31054 0.54753 0.24488 0.0
C551 C 0.32515 0.5246 0.24027 0.0
C552 C 0.28735 0.54278 0.26816 0.0
C553 C 0.3155 0.49654 0.26001 0.0
C554 C 0.29301 0.49215 0.28367 0.0
C555 C 0.25627 0.5117 0.31228 0.0
C556 C 0.24265 0.53578 0.31643 0.0
C557 C 0.2786 0.51515 0.28817 0.0
C558 C 0.25128 0.56219 0.29527 0.0
C559 C 0.27295 0.5656 0.2718 0.0
H560 H 0.75082 0.29277 0.22914 0.0
H561 H 0.85298 0.34961 0.27121 0.0
H562 H 0.82565 0.32232 0.31696 0.0
H563 H 0.77121 0.28232 0.34607 0.0
H564 H 0.67154 0.21701 0.30158 0.0
H565 H 0.69916 0.24596 0.25634 0.0
C566 C 0.76735 0.29913 0.24822 0.0
C567 C 0.80437 0.32493 0.24643 0.0
C568 C 0.75147 0.28124 0.27441 0.0
C569 C 0.82473 0.33139 0.27166 0.0
C570 C 0.80887 0.31532 0.29799 0.0
C571 C 0.75546 0.27433 0.32648 0.0
C572 C 0.71875 0.24751 0.32775 0.0
C573 C 0.77204 0.29042 0.29987 0.0
C574 C 0.69948 0.23742 0.30171 0.0
C575 C 0.71532 0.25427 0.27567 0.0
H576 H 0.47564 0.74193 0.22153 0.0
H577 H 0.54792 0.84574 0.25837 0.0
H578 H 0.55731 0.81651 0.29994 0.0
H579 H 0.5435 0.76048 0.32753 0.0
H580 H 0.46956 0.65773 0.29042 0.0
H581 H 0.46297 0.68697 0.24798 0.0
C582 C 0.4936 0.75848 0.23852 0.0
C583 C 0.51091 0.79661 0.23615 0.0
C584 C 0.49892 0.74128 0.26271 0.0
C585 C 0.53399 0.81669 0.25897 0.0
C586 C 0.53946 0.79977 0.28299 0.0
C587 C 0.52659 0.7444 0.30988 0.0
C588 C 0.50762 0.70619 0.31237 0.0
C589 C 0.52207 0.76195 0.2853 0.0
C590 C 0.48495 0.68662 0.2893 0.0
C591 C 0.48097 0.70358 0.26493 0.0
H592 H 0.75949 0.47553 0.22017 0.0
H593 H 0.74817 0.56557 0.24748 0.0
H594 H 0.78714 0.57455 0.28919 0.0
H595 H 0.82432 0.55549 0.31951 0.0
H596 H 0.82913 0.4616 0.29201 0.0
H597 H 0.79398 0.45618 0.24972 0.0
C598 C 0.76549 0.49743 0.23501 0.0
C599 C 0.75048 0.51996 0.22981 0.0
C600 C 0.78756 0.50205 0.25941 0.0
C601 C 0.75886 0.54763 0.25021 0.0
C602 C 0.78145 0.55282 0.27429 0.0
C603 C 0.81846 0.53433 0.30397 0.0
C604 C 0.83139 0.50984 0.30924 0.0
C605 C 0.79619 0.53019 0.27933 0.0
C606 C 0.82121 0.48171 0.28893 0.0
C607 C 0.80053 0.47827 0.26449 0.0
H608 H 0.30635 0.75818 0.3301 0.0
H609 H 0.31209 0.85729 0.30495 0.0
H610 H 0.27273 0.82626 0.26358 0.0
H611 H 0.23745 0.76992 0.23251 0.0
H612 H 0.23218 0.67178 0.26096 0.0
H613 H 0.26907 0.70292 0.30221 0.0
C614 C 0.29905 0.7733 0.31576 0.0
C615 C 0.31293 0.81063 0.32126 0.0
C616 C 0.2757 0.75498 0.29209 0.0
C617 C 0.30226 0.82883 0.30193 0.0
C618 C 0.27955 0.81087 0.27799 0.0
C619 C 0.24359 0.75506 0.24802 0.0
C620 C 0.23085 0.71762 0.24288 0.0
C621 C 0.26596 0.77372 0.27258 0.0
C622 C 0.24056 0.7 0.2636 0.0
C623 C 0.26223 0.71805 0.28749 0.0
H624 H 0.55616 0.76043 0.73692 0.0
H625 H 0.47878 0.65835 0.77147 0.0
H626 H 0.47794 0.68755 0.81618 0.0
H627 H 0.49604 0.7418 0.84504 0.0
H628 H 0.569 0.84575 0.8108 0.0
H629 H 0.57429 0.81653 0.76682 0.0
C630 C 0.53968 0.74451 0.75446 0.0
C631 C 0.51837 0.70657 0.75077 0.0
C632 C 0.53802 0.76207 0.78021 0.0
C633 C 0.49626 0.68703 0.77363 0.0
C634 C 0.49545 0.70392 0.79926 0.0
C635 C 0.51346 0.75843 0.82818 0.0
C636 C 0.53237 0.79637 0.83185 0.0
C637 C 0.51581 0.74141 0.80274 0.0
C638 C 0.55426 0.81674 0.80912 0.0
C639 C 0.55723 0.79986 0.7838 0.0
H640 H 0.78063 0.52082 0.73477 0.0
H641 H 0.81712 0.4531 0.77216 0.0
H642 H 0.78568 0.44988 0.81641 0.0
H643 H 0.74541 0.46381 0.84462 0.0
H644 H 0.70478 0.52819 0.8072 0.0
H645 H 0.73927 0.53473 0.76363 0.0
C646 C 0.78234 0.50596 0.7528 0.0
C647 C 0.80261 0.48801 0.7499 0.0
C648 C 0.76263 0.50308 0.77841 0.0
C649 C 0.80284 0.46785 0.77351 0.0
C650 C 0.78441 0.46575 0.79896 0.0
C651 C 0.74396 0.47946 0.82707 0.0
C652 C 0.72206 0.4956 0.82992 0.0
C653 C 0.76381 0.48285 0.80168 0.0
C654 C 0.72108 0.51546 0.8063 0.0
C655 C 0.74102 0.51924 0.78114 0.0
H656 H 0.26186 0.75051 0.71637 0.0
H657 H 0.3372 0.84823 0.75983 0.0
H658 H 0.30992 0.82189 0.806 0.0
H659 H 0.26595 0.76929 0.83461 0.0
H660 H 0.18777 0.67445 0.79008 0.0
H661 H 0.21401 0.70123 0.74419 0.0
C662 C 0.27226 0.76636 0.73586 0.0
C663 C 0.30249 0.80136 0.73433 0.0
C664 C 0.25552 0.75135 0.76238 0.0
C665 C 0.31463 0.82123 0.76008 0.0
C666 C 0.29887 0.80607 0.7866 0.0
C667 C 0.25421 0.75466 0.81487 0.0
C668 C 0.22407 0.71952 0.8162 0.0
C669 C 0.26952 0.77088 0.78815 0.0
C670 C 0.20987 0.7014 0.79008 0.0
C671 C 0.22538 0.71679 0.76367 0.0
H672 H 0.51237 0.26001 0.84429 0.0
H673 H 0.50662 0.1698 0.79836 0.0
H674 H 0.50399 0.19669 0.75274 0.0
H675 H 0.50769 0.24859 0.72541 0.0
H676 H 0.509 0.33648 0.77207 0.0
H677 H 0.50865 0.30793 0.81741 0.0
C678 C 0.50971 0.24572 0.82434 0.0
C679 C 0.50941 0.2124 0.82511 0.0
C680 C 0.50769 0.26132 0.79808 0.0
C681 C 0.50626 0.19483 0.79878 0.0
C682 C 0.50514 0.21057 0.77256 0.0
C683 C 0.50738 0.26132 0.7455 0.0
C684 C 0.50831 0.29499 0.74495 0.0
C685 C 0.50646 0.24417 0.77183 0.0
C686 C 0.50782 0.31064 0.77145 0.0
C687 C 0.50783 0.29429 0.79754 0.0
H688 H 0.22756 0.49038 0.74269 0.0
H689 H 0.22559 0.58437 0.7743 0.0
H690 H 0.26381 0.5892 0.81417 0.0
H691 H 0.30045 0.56961 0.83981 0.0
H692 H 0.30695 0.47787 0.80928 0.0
H693 H 0.26529 0.46978 0.7699 0.0
C694 C 0.23484 0.51146 0.75861 0.0
C695 C 0.22227 0.53643 0.75524 0.0
C696 C 0.25848 0.51501 0.7818 0.0
C697 C 0.23369 0.56421 0.77597 0.0
C698 C 0.25605 0.56727 0.79896 0.0
C699 C 0.2929 0.5476 0.82473 0.0
C700 C 0.30735 0.52439 0.82809 0.0
C701 C 0.26902 0.54323 0.80201 0.0
C702 C 0.29665 0.49628 0.80775 0.0
C703 C 0.27262 0.49164 0.78506 0.0
H704 H 0.75587 0.22392 0.73856 0.0
H705 H 0.65862 0.20505 0.77952 0.0
H706 H 0.69265 0.24126 0.82051 0.0
H707 H 0.74998 0.28142 0.84502 0.0
H708 H 0.84846 0.30142 0.80617 0.0
H709 H 0.81466 0.26286 0.76511 0.0
C710 C 0.74192 0.22712 0.75659 0.0
C711 C 0.70374 0.2105 0.75522 0.0
C712 C 0.76227 0.24917 0.78084 0.0
C713 C 0.68731 0.2164 0.77923 0.0
C714 C 0.70702 0.23767 0.80297 0.0
C715 C 0.76442 0.27749 0.8277 0.0
C716 C 0.80246 0.29516 0.82937 0.0
C717 C 0.74454 0.25471 0.80401 0.0
C718 C 0.81963 0.28867 0.80622 0.0
C719 C 0.80003 0.26641 0.78244 0.0
H720 H 0.5595 0.08466 0.20576 0.0
H721 H 0.44557 0.04303 0.20353 0.0
H722 H 0.43592 0.9818 0.20702 0.0
H723 H 0.45951 0.94036 0.20543 0.0
H724 H 0.57323 0.98122 0.20266 0.0
H725 H 0.58324 0.04269 0.2069 0.0
C726 C 0.53242 0.06234 0.20649 0.0
C727 C 0.50318 0.06882 0.20438 0.0
C728 C 0.52711 0.02705 0.20744 0.0
C729 C 0.46851 0.03918 0.20513 0.0
C730 C 0.46304 1.0041 0.20703 0.0
C731 C 0.48669 0.96246 0.2063 0.0
C732 C 0.51564 0.95563 0.20372 0.0
C733 C 0.49212 0.99771 0.20746 0.0
C734 C 0.55042 0.9852 0.20475 0.0
C735 C 0.55609 0.02046 0.20692 0.0
H736 H 0.55203 0.46319 0.21514 0.0
H737 H 0.61944 0.57162 0.18586 0.0
H738 H 0.56786 0.58081 0.18505 0.0
H739 H 0.50343 0.55471 0.18328 0.0
H740 H 0.43398 0.44566 0.20963 0.0
H741 H 0.48685 0.43996 0.22086 0.0
C742 C 0.55579 0.48925 0.20925 0.0
C743 C 0.59004 0.51665 0.20019 0.0
C744 C 0.52552 0.49391 0.2078 0.0
C745 C 0.59392 0.55011 0.19294 0.0
C746 C 0.5642 0.55521 0.19218 0.0
C747 C 0.49939 0.53002 0.19272 0.0
C748 C 0.46421 0.50073 0.19592 0.0
C749 C 0.52977 0.52683 0.19829 0.0
C750 C 0.46032 0.46882 0.20739 0.0
C751 C 0.49071 0.46551 0.21343 0.0
H752 H 0.96177 0.49496 0.22812 0.0
H753 H 0.98609 0.43157 0.16973 0.0
H754 H 0.04374 0.48434 0.15983 0.0
H755 H 0.08056 0.54907 0.16019 0.0
H756 H 0.05918 0.61526 0.218 0.0
H757 H 1.006 0.56051 0.2351 0.0
C758 C 0.98036 0.49226 0.21415 0.0
C759 C 0.96917 0.45876 0.19966 0.0
C760 C 1.01309 0.52347 0.20754 0.0
C761 C 0.9937 0.45621 0.18154 0.0
C762 C 0.02645 0.48681 0.17538 0.0
C763 C 0.06524 0.55216 0.1772 0.0
C764 C 0.07445 0.58714 0.18758 0.0
C765 C 0.03543 0.52074 0.18709 0.0
C766 C 0.05326 0.58931 0.20944 0.0
C767 C 0.02276 0.55782 0.21917 0.0
H768 H 0.97791 0.50008 0.40509 0.0
H769 H 1.00857 0.58273 0.34154 0.0
H770 H 0.05944 0.57365 0.32877 0.0
H771 H 0.09764 0.54494 0.34088 0.0
H772 H 0.05298 0.45238 0.39559 0.0
H773 H 1.00141 0.45971 0.40389 0.0
C774 C 0.9939 0.51522 0.38706 0.0
C775 C 0.98787 0.54172 0.37394 0.0
C776 C 0.01983 0.50698 0.37763 0.0
C777 C 1.01143 0.5618 0.35194 0.0
C778 C 0.04048 0.55635 0.34453 0.0
C779 C 0.07573 0.52502 0.35323 0.0
C780 C 0.07996 0.49824 0.36805 0.0
C781 C 0.04519 0.52913 0.35764 0.0
C782 C 0.05078 0.47285 0.38372 0.0
C783 C 0.02162 0.47773 0.38917 0.0
H784 H 0.49102 0.96382 0.35679 0.0
H785 H 0.4175 1.00453 0.35617 0.0
H786 H 0.46767 0.06527 0.34799 0.0
H787 H 0.53254 0.10711 0.35153 0.0
H788 H 0.60521 0.06553 0.35962 0.0
H789 H 0.55499 1.00441 0.35372 0.0
C790 C 0.48537 0.98547 0.35349 0.0
C791 C 0.44997 0.9791 0.35676 0.0
C792 C 0.51457 0.02039 0.35094 0.0
C793 C 0.44396 1.00815 0.35316 0.0
C794 C 0.47291 0.04305 0.34908 0.0
C795 C 0.53778 0.08486 0.35142 0.0
C796 C 0.57307 0.09129 0.35653 0.0
C797 C 0.50843 0.04963 0.34956 0.0
C798 C 0.57877 0.06177 0.35591 0.0
C799 C 0.54988 0.02673 0.35273 0.0
H800 H 0.57124 0.48517 0.37166 0.0
H801 H 0.45711 0.41915 0.38024 0.0
H802 H 0.45012 0.47132 0.36992 0.0
H803 H 0.47715 0.53673 0.36786 0.0
H804 H 0.59115 0.60387 0.36184 0.0
H805 H 0.59754 0.54995 0.36122 0.0
C806 C 0.54466 0.48186 0.37069 0.0
C807 C 0.51466 0.44801 0.37721 0.0
C808 C 0.54095 0.51227 0.36528 0.0
C809 C 0.48059 0.44451 0.37544 0.0
C810 C 0.47666 0.47452 0.3697 0.0
C811 C 0.50336 0.53975 0.36477 0.0
C812 C 0.53363 0.57469 0.36419 0.0
C813 C 0.50674 0.50871 0.36572 0.0
C814 C 0.56737 0.57765 0.36145 0.0
C815 C 0.57098 0.54669 0.36171 0.0
H816 H 0.47788 0.03389 0.86196 0.0
H817 H 0.58787 0.10069 0.88827 0.0
H818 H 0.5992 0.0517 0.88221 0.0
H819 H 0.57504 0.98618 0.88022 0.0
H820 H 0.46869 0.91959 0.84693 0.0
H821 H 0.45961 0.97128 0.84436 0.0
C822 C 0.50457 0.03813 0.86534 0.0
C823 C 0.53136 0.07131 0.87665 0.0
C824 C 0.51181 1.00924 0.86115 0.0
C825 C 0.56599 0.07568 0.88029 0.0
C826 C 0.57284 0.04736 0.87694 0.0
C827 C 0.55068 0.98321 0.87082 0.0
C828 C 0.52249 0.94865 0.86442 0.0
C829 C 0.54555 1.01341 0.86891 0.0
C830 C 0.49099 0.94582 0.85234 0.0
C831 C 0.48541 0.97543 0.85126 0.0
H832 H 0.52536 0.44434 0.88153 0.0
H833 H 0.60167 0.54999 0.85168 0.0
H834 H 0.55244 0.56135 0.84048 0.0
H835 H 0.48904 0.54382 0.84401 0.0
H836 H 0.41412 0.44156 0.88029 0.0
H837 H 0.46153 0.42576 0.88303 0.0
C838 C 0.53153 0.46983 0.87216 0.0
C839 C 0.56771 0.49637 0.86746 0.0
C840 C 0.50317 0.47661 0.86686 0.0
C841 C 0.57451 0.52912 0.85557 0.0
C842 C 0.54624 0.53556 0.84921 0.0
C843 C 0.48264 0.51769 0.85215 0.0
C844 C 0.44756 0.49394 0.8621 0.0
C845 C 0.5106 0.50984 0.85543 0.0
C846 C 0.44034 0.46028 0.87228 0.0
C847 C 0.46772 0.45151 0.87422 0.0
H848 H 0.95272 0.48024 0.87809 0.0
H849 H 0.99644 0.41355 0.85118 0.0
H850 H 0.05235 0.46794 0.83844 0.0
H851 H 0.09147 0.53399 0.84391 0.0
H852 H 0.04679 0.59884 0.87387 0.0
H853 H 0.98767 0.54528 0.87501 0.0
C854 C 0.97354 0.47701 0.86804 0.0
C855 C 0.96971 0.44223 0.86523 0.0
C856 C 1.00566 0.50833 0.86163 0.0
C857 C 0.99804 0.43951 0.85313 0.0
C858 C 0.03024 0.47079 0.84623 0.0
C859 C 0.06862 0.5367 0.84989 0.0
C860 C 0.07393 0.57075 0.85922 0.0
C861 C 0.03481 0.50535 0.85165 0.0
C862 C 0.04383 0.57345 0.86655 0.0
C863 C 1.01001 0.54259 0.86757 0.0
H864 H 0.06644 0.53066 0.66154 0.0
H865 H 0.04258 0.44461 0.7206 0.0
H866 H 0.9868 0.445 0.73318 0.0
H867 H 0.94347 0.46769 0.72183 0.0
H868 H 0.98229 0.56594 0.67428 0.0
H869 H 0.03758 0.56572 0.66537 0.0
C870 C 0.05083 0.51286 0.67861 0.0
C871 C 0.06031 0.48819 0.69058 0.0
C872 C 0.02241 0.51663 0.6885 0.0
C873 C 0.03716 0.46447 0.71127 0.0
C874 C 1.00535 0.46496 0.71857 0.0
C875 C 0.96472 0.49046 0.71121 0.0
C876 C 0.95814 0.5169 0.6985 0.0
C877 C 0.99758 0.49092 0.70695 0.0
C878 C 0.98642 0.54568 0.68457 0.0
C879 C 1.01775 0.545 0.67882 0.0
H880 H 0.54777 0.062 0.66093 0.0
H881 H 0.61347 0.03514 0.71387 0.0
H882 H 0.55904 0.97724 0.72478 0.0
H883 H 0.49258 0.93317 0.71448 0.0
H884 H 0.43125 0.97368 0.67082 0.0
H885 H 0.48504 0.03054 0.66392 0.0
C886 C 0.55121 0.04548 0.67665 0.0
C887 C 0.58573 0.05475 0.68731 0.0
C888 C 0.52015 0.01499 0.68497 0.0
C889 C 0.58782 0.02995 0.70568 0.0
C890 C 0.55651 0.99679 0.71192 0.0
C891 C 0.49086 0.955 0.70447 0.0
C892 C 0.45756 0.94863 0.69261 0.0
C893 C 0.52241 0.98884 0.7012 0.0
C894 C 0.45593 0.97735 0.68007 0.0
C895 C 0.48692 1.00984 0.67573 0.0
H896 H 0.5626 0.48696 0.73165 0.0
H897 H 0.46679 0.42777 0.68026 0.0
H898 H 0.46831 0.48333 0.66818 0.0
H899 H 0.50165 0.5472 0.66498 0.0
H900 H 0.59079 0.61055 0.72167 0.0
H901 H 0.58816 0.55438 0.73795 0.0
C902 C 0.54136 0.48613 0.7186 0.0
C903 C 0.51484 0.45275 0.7065 0.0
C904 C 0.54192 0.51875 0.71196 0.0
C905 C 0.48752 0.45248 0.68986 0.0
C906 C 0.4886 0.48447 0.68261 0.0
C907 C 0.51963 0.54956 0.68216 0.0
C908 C 0.54602 0.58386 0.69239 0.0
C909 C 0.51638 0.5176 0.69257 0.0
C910 C 0.56993 0.58496 0.71348 0.0
C911 C 0.56834 0.55271 0.72275 0.0
H912 H 0.56615 0.16767 0.24922 0.0
H913 H 0.65504 0.27226 0.23149 0.0
H914 H 0.65843 0.28946 0.28204 0.0
H915 H 0.6352 0.27462 0.33038 0.0
H916 H 0.5456 0.17015 0.34814 0.0
H917 H 0.54074 0.15401 0.29737 0.0
C918 C 0.5873 0.19357 0.25682 0.0
C919 C 0.61151 0.21819 0.23732 0.0
C920 C 0.58723 0.20395 0.28518 0.0
C921 C 0.63738 0.25252 0.24668 0.0
C922 C 0.63845 0.26266 0.27521 0.0
C923 C 0.61401 0.2486 0.32303 0.0
C924 C 0.59179 0.22296 0.34298 0.0
C925 C 0.61303 0.23878 0.29442 0.0
C926 C 0.56358 0.18999 0.3332 0.0
C927 C 0.56139 0.18044 0.30434 0.0
H928 H 0.47015 0.57079 0.3322 0.0
H929 H 0.37716 0.58341 0.3386 0.0
H930 H 0.37708 0.59034 0.28673 0.0
H931 H 0.40905 0.60212 0.24193 0.0
H932 H 0.49976 0.58565 0.23458 0.0
H933 H 0.49704 0.5738 0.28597 0.0
C934 C 0.44885 0.57331 0.32225 0.0
C935 C 0.42378 0.5767 0.33911 0.0
C936 C 0.44996 0.57878 0.29285 0.0
C937 C 0.39672 0.58074 0.32589 0.0
C938 C 0.39707 0.58534 0.29641 0.0
C939 C 0.428 0.59546 0.25132 0.0
C940 C 0.45457 0.59472 0.23454 0.0
C941 C 0.42464 0.58616 0.28005 0.0
C942 C 0.47936 0.5868 0.24727 0.0
C943 C 0.47738 0.57938 0.2764 0.0
H944 H 0.87317 0.41499 0.23712 0.0
H945 H 0.88019 0.51853 0.2336 0.0
H946 H 0.90998 0.53395 0.28096 0.0
H947 H 0.91864 0.50999 0.32669 0.0
H948 H 0.90748 0.40437 0.3284 0.0
H949 H 0.90158 0.40062 0.27603 0.0
C950 C 0.88166 0.44112 0.24644 0.0
C951 C 0.87287 0.46484 0.23297 0.0
C952 C 0.89919 0.44971 0.27265 0.0
C953 C 0.88567 0.49945 0.24433 0.0
C954 C 0.90291 0.50826 0.27112 0.0
C955 C 0.91552 0.48641 0.31541 0.0
C956 C 0.91208 0.45686 0.33091 0.0
C957 C 0.90746 0.48243 0.28617 0.0
C958 C 0.90912 0.4268 0.31661 0.0
C959 C 0.90448 0.42414 0.28707 0.0
H960 H 0.41341 0.87773 0.21199 0.0
H961 H 0.36836 0.76339 0.22081 0.0
H962 H 0.36795 0.76961 0.2728 0.0
H963 H 0.39764 0.8083 0.31342 0.0
H964 H 0.45167 0.92381 0.30502 0.0
H965 H 0.4343 0.91673 0.25441 0.0
C966 C 0.40245 0.85411 0.22533 0.0
C967 C 0.39277 0.82044 0.21315 0.0
C968 C 0.40669 0.85849 0.25494 0.0
C969 C 0.37684 0.78968 0.23012 0.0
C970 C 0.37753 0.79338 0.25975 0.0
C971 C 0.40572 0.83214 0.3007 0.0
C972 C 0.42713 0.8666 0.31262 0.0
C973 C 0.39561 0.82785 0.27209 0.0
C974 C 0.43629 0.89701 0.29597 0.0
C975 C 0.42588 0.89297 0.26725 0.0
H976 H 0.61298 0.36238 0.32767 0.0
H977 H 0.59877 0.45401 0.34292 0.0
H978 H 0.61062 0.47046 0.29248 0.0
H979 H 0.62035 0.45561 0.2441 0.0
H980 H 0.63643 0.36529 0.22908 0.0
H981 H 0.62671 0.34987 0.27999 0.0
C982 C 0.61293 0.38618 0.31989 0.0
C983 C 0.60469 0.40688 0.33825 0.0
C984 C 0.61874 0.39466 0.29122 0.0
C985 C 0.60528 0.43803 0.3287 0.0
C986 C 0.61147 0.44703 0.30001 0.0
C987 C 0.62102 0.43224 0.25214 0.0
C988 C 0.62754 0.41055 0.23365 0.0
C989 C 0.6171 0.42485 0.28108 0.0
C990 C 0.63013 0.38125 0.24353 0.0
C991 C 0.62517 0.37291 0.27239 0.0
H992 H 0.16803 0.6389 0.3205 0.0
H993 H 0.16669 0.54013 0.33648 0.0
H994 H 0.1625 0.52569 0.28609 0.0
H995 H 0.16657 0.54609 0.2364 0.0
H996 H 0.15077 0.63577 0.2213 0.0
H997 H 0.15239 0.64846 0.27173 0.0
C998 C 0.16674 0.61434 0.31274 0.0
C999 C 0.17155 0.59215 0.33152 0.0
C1000 C 0.16076 0.60462 0.28378 0.0
C1001 C 0.16672 0.559 0.32184 0.0
C1002 C 0.16343 0.55035 0.29306 0.0
C1003 C 0.16272 0.5678 0.24434 0.0
C1004 C 0.16014 0.59111 0.22538 0.0
C1005 C 0.16196 0.57384 0.27364 0.0
C1006 C 0.15352 0.61811 0.23561 0.0
C1007 C 0.15468 0.62555 0.26457 0.0
H1008 H 0.48111 0.82304 0.81092 0.0
H1009 H 0.39848 0.84621 0.83692 0.0
H1010 H 0.38339 0.84775 0.78656 0.0
H1011 H 0.38812 0.83366 0.73646 0.0
H1012 H 0.46842 0.8073 0.7107 0.0
H1013 H 0.49014 0.81532 0.76051 0.0
C1014 C 0.4596 0.82827 0.80558 0.0
C1015 C 0.43983 0.83314 0.82732 0.0
C1016 C 0.45046 0.82784 0.777 0.0
C1017 C 0.41336 0.84163 0.82035 0.0
C1018 C 0.40464 0.84223 0.79169 0.0
C1019 C 0.41033 0.82961 0.74185 0.0
C1020 C 0.42606 0.81866 0.72067 0.0
C1021 C 0.42203 0.83386 0.77008 0.0
C1022 C 0.45576 0.81502 0.72714 0.0
C1023 C 0.46799 0.8196 0.75539 0.0
H1024 H 0.60606 0.44234 0.83893 0.0
H1025 H 0.5909 0.33625 0.85131 0.0
H1026 H 0.59432 0.32922 0.79937 0.0
H1027 H 0.60642 0.35563 0.75189 0.0
H1028 H 0.62364 0.46311 0.74022 0.0
H1029 H 0.61792 0.46872 0.79174 0.0
C1030 C 0.60152 0.41695 0.83013 0.0
C1031 C 0.59668 0.38919 0.8485 0.0
C1032 C 0.60649 0.41453 0.80098 0.0
C1033 C 0.5932 0.35725 0.83723 0.0
C1034 C 0.59631 0.3538 0.80779 0.0
C1035 C 0.60942 0.38057 0.76055 0.0
C1036 C 0.61503 0.40881 0.74219 0.0
C1037 C 0.60414 0.38281 0.78972 0.0
C1038 C 0.61949 0.44107 0.75387 0.0
C1039 C 0.61535 0.44394 0.78317 0.0
H1040 H 0.17014 0.62896 0.83001 0.0
H1041 H 0.18559 0.53783 0.83707 0.0
H1042 H 0.15181 0.51316 0.79184 0.0
H1043 H 0.13142 0.5274 0.7462 0.0
H1044 H 0.11728 0.62006 0.74262 0.0
H1045 H 0.13031 0.63065 0.79393 0.0
C1046 C 0.16597 0.6037 0.82187 0.0
C1047 C 0.18201 0.58638 0.8356 0.0
C1048 C 0.145 0.58917 0.79766 0.0
C1049 C 0.17465 0.55233 0.82594 0.0
C1050 C 0.15491 0.53808 0.80053 0.0
C1051 C 0.13012 0.5492 0.75706 0.0
C1052 C 0.12503 0.574 0.74107 0.0
C1053 C 0.14187 0.5576 0.78545 0.0
C1054 C 0.12202 0.60139 0.75479 0.0
C1055 C 0.13065 0.60805 0.78368 0.0
H1056 H 0.53615 0.13757 0.83177 0.0
H1057 H 0.64385 0.15722 0.83977 0.0
H1058 H 0.63921 0.13121 0.79166 0.0
H1059 H 0.61042 0.12023 0.74422 0.0
H1060 H 0.50807 0.11409 0.73555 0.0
H1061 H 0.5025 0.11365 0.78771 0.0
C1062 C 0.5582 0.13515 0.82327 0.0
C1063 C 0.59062 0.1501 0.83835 0.0
C1064 C 0.55574 0.12209 0.79562 0.0
C1065 C 0.61896 0.14635 0.8279 0.0
C1066 C 0.6162 0.13156 0.80055 0.0
C1067 C 0.58648 0.11764 0.75402 0.0
C1068 C 0.55996 0.11802 0.73679 0.0
C1069 C 0.58566 0.12193 0.78359 0.0
C1070 C 0.52872 0.11414 0.74888 0.0
C1071 C 0.52598 0.11461 0.77851 0.0
H1072 H 0.49781 0.59321 0.73733 0.0
H1073 H 0.38553 0.53742 0.71662 0.0
H1074 H 0.37113 0.53848 0.76701 0.0
H1075 H 0.39096 0.5674 0.81327 0.0
H1076 H 0.50315 0.62691 0.83471 0.0
H1077 H 0.51758 0.61321 0.78703 0.0
C1078 C 0.47022 0.57958 0.74422 0.0
C1079 C 0.44261 0.56538 0.72371 0.0
C1080 C 0.46241 0.58286 0.77277 0.0
C1081 C 0.40695 0.54822 0.73238 0.0
C1082 C 0.39885 0.54963 0.76098 0.0
C1083 C 0.41865 0.57764 0.80761 0.0
C1084 C 0.44612 0.59954 0.82689 0.0
C1085 C 0.42645 0.56923 0.78074 0.0
C1086 C 0.48171 0.61106 0.81969 0.0
C1087 C 0.48986 0.60278 0.79271 0.0
H1088 H 0.88815 0.45619 0.72944 0.0
H1089 H 0.79716 0.34998 0.72186 0.0
H1090 H 0.79375 0.34564 0.77431 0.0
H1091 H 0.81531 0.37399 0.82117 0.0
H1092 H 0.90935 0.47879 0.82816 0.0
H1093 H 0.91344 0.48213 0.77584 0.0
C1094 C 0.86913 0.43121 0.73914 0.0
C1095 C 0.84414 0.40275 0.7221 0.0
C1096 C 0.86736 0.42933 0.76874 0.0
C1097 C 0.8172 0.37173 0.73486 0.0
C1098 C 0.81507 0.36951 0.76464 0.0
C1099 C 0.83657 0.39768 0.81126 0.0
C1100 C 0.86169 0.42647 0.82814 0.0
C1101 C 0.83961 0.39856 0.78163 0.0
C1102 C 0.88951 0.45672 0.81527 0.0
C1103 C 0.89204 0.45839 0.78559 0.0
H1104 H 0.4967 0.26074 0.1766 0.0
H1105 H 0.48776 0.23427 0.08713 0.0
H1106 H 0.52663 0.29814 0.07585 0.0
H1107 H 0.57713 0.35849 0.09333 0.0
H1108 H 0.61006 0.3609 0.18099 0.0
H1109 H 0.55301 0.31022 0.1923 0.0
C1110 C 0.50293 0.26899 0.15452 0.0
C1111 C 0.49142 0.24249 0.13312 0.0
C1112 C 0.53288 0.30222 0.14882 0.0
C1113 C 0.49724 0.25393 0.10442 0.0
C1114 C 0.52079 0.29024 0.09803 0.0
C1115 C 0.57183 0.34762 0.11477 0.0
C1116 C 0.59678 0.36585 0.13699 0.0
C1117 C 0.54131 0.31401 0.12024 0.0
C1118 C 0.59033 0.34991 0.16415 0.0
C1119 C 0.55762 0.32045 0.17064 0.0
H1120 H 0.19747 0.54117 0.13595 0.0
H1121 H 0.274 0.63939 0.09541 0.0
H1122 H 0.31221 0.61343 0.08541 0.0
H1123 H 0.3301 0.57007 0.09956 0.0
H1124 H 0.25959 0.47852 0.14977 0.0
H1125 H 0.2117 0.4929 0.14311 0.0
C1126 C 0.22199 0.55644 0.12412 0.0
C1127 C 0.23332 0.59229 0.11673 0.0
C1128 C 0.24479 0.5422 0.12022 0.0
C1129 C 0.26513 0.61194 0.10159 0.0
C1130 C 0.28689 0.59708 0.09589 0.0
C1131 C 0.30362 0.55236 0.10785 0.0
C1132 C 0.29835 0.52379 0.12558 0.0
C1133 C 0.27793 0.56317 0.10666 0.0
C1134 C 0.26416 0.50066 0.13608 0.0
C1135 C 0.23712 0.50946 0.13283 0.0
H1136 H 0.75498 0.33113 0.10502 0.0
H1137 H 0.77607 0.26134 0.15763 0.0
H1138 H 0.7143 0.21326 0.15097 0.0
H1139 H 0.65219 0.19813 0.14178 0.0
H1140 H 0.63045 0.27378 0.09852 0.0
H1141 H 0.69425 0.31254 0.08969 0.0
C1142 C 0.74632 0.305 0.11435 0.0
C1143 C 0.7697 0.30008 0.13251 0.0
C1144 C 0.71022 0.27886 0.11257 0.0
C1145 C 0.75853 0.26593 0.14382 0.0
C1146 C 0.72302 0.23863 0.14035 0.0
C1147 C 0.66143 0.22241 0.12939 0.0
C1148 C 0.63694 0.23326 0.12066 0.0
C1149 C 0.6982 0.24576 0.12651 0.0
C1150 C 0.64898 0.26504 0.10524 0.0
C1151 C 0.68541 0.28722 0.10044 0.0
H1152 H 0.5093 0.67065 0.14386 0.0
H1153 H 0.41835 0.64607 0.08994 0.0
H1154 H 0.44716 0.70875 0.07458 0.0
H1155 H 0.48886 0.77089 0.08743 0.0
H1156 H 0.56821 0.79471 0.15307 0.0
H1157 H 0.55633 0.73284 0.15076 0.0
C1158 C 0.49617 0.67881 0.12816 0.0
C1159 C 0.46145 0.65425 0.11846 0.0
C1160 C 0.51155 0.71509 0.12134 0.0
C1161 C 0.44474 0.66492 0.0981 0.0
C1162 C 0.46129 0.70061 0.08927 0.0
C1163 C 0.50447 0.76271 0.10044 0.0
C1164 C 0.52759 0.78637 0.12172 0.0
C1165 C 0.49348 0.7262 0.10228 0.0
C1166 C 0.54929 0.77657 0.13726 0.0
C1167 C 0.54179 0.74091 0.13645 0.0
H1168 H 0.7865 0.43229 0.08728 0.0
H1169 H 0.86684 0.50919 0.14482 0.0
H1170 H 0.84605 0.55175 0.13632 0.0
H1171 H 0.79174 0.55485 0.12716 0.0
H1172 H 0.71145 0.47848 0.07 0.0
H1173 H 0.74722 0.44988 0.06097 0.0
C1174 C 0.80033 0.459 0.09681 0.0
C1175 C 0.82674 0.46728 0.11762 0.0
C1176 C 0.78838 0.4835 0.09167 0.0
C1177 C 0.84545 0.50208 0.12945 0.0
C1178 C 0.83374 0.52652 0.12449 0.0
C1179 C 0.78329 0.53357 0.11118 0.0
C1180 C 0.74773 0.51565 0.10188 0.0
C1181 C 0.80315 0.51604 0.10776 0.0
C1182 C 0.73812 0.49072 0.07913 0.0
C1183 C 0.75809 0.47363 0.07458 0.0
H1184 H 0.37787 0.76457 0.08664 0.0
H1185 H 0.39983 0.86772 0.11989 0.0
H1186 H 0.33653 0.84551 0.12662 0.0
H1187 H 0.27891 0.79119 0.1377 0.0
H1188 H 0.25581 0.69002 0.09965 0.0
H1189 H 0.31528 0.71721 0.07923 0.0
C1190 C 0.36861 0.78273 0.09369 0.0
C1191 C 0.39331 0.81697 0.10401 0.0
C1192 C 0.33203 0.76991 0.09734 0.0
C1193 C 0.3812 0.84075 0.11244 0.0
C1194 C 0.34492 0.82798 0.11668 0.0
C1195 C 0.28626 0.77575 0.12355 0.0
C1196 C 0.26407 0.73856 0.12112 0.0
C1197 C 0.32047 0.79172 0.11149 0.0
C1198 C 0.27335 0.71864 0.10248 0.0
C1199 C 0.30735 0.7341 0.09086 0.0
H1200 H 0.76249 0.48615 0.37119 0.0
H1201 H 0.79871 0.51591 0.45815 0.0
H1202 H 0.73645 0.48495 0.47479 0.0
H1203 H 0.67211 0.43815 0.46452 0.0
H1204 H 0.64866 0.3911 0.37929 0.0
H1205 H 0.70402 0.43803 0.36208 0.0
C1206 C 0.75657 0.48684 0.39374 0.0
C1207 C 0.78476 0.50307 0.41335 0.0
C1208 C 0.72223 0.46406 0.4034 0.0
C1209 C 0.77725 0.50389 0.44255 0.0
C1210 C 0.7417 0.48523 0.45209 0.0
C1211 C 0.67936 0.4383 0.4423 0.0
C1212 C 0.65491 0.41195 0.42307 0.0
C1213 C 0.71407 0.46318 0.43283 0.0
C1214 C 0.6655 0.41178 0.39452 0.0
C1215 C 0.69757 0.4387 0.38444 0.0
H1216 H 0.20392 0.67551 0.43241 0.0
H1217 H 0.28422 0.6518 0.46356 0.0
H1218 H 0.32348 0.71511 0.4753 0.0
H1219 H 0.34093 0.77641 0.46199 0.0
H1220 H 0.26483 0.79944 0.42136 0.0
H1221 H 0.21727 0.73797 0.4297 0.0
C1222 C 0.22952 0.68404 0.44268 0.0
C1223 C 0.24188 0.65944 0.44616 0.0
C1224 C 0.25274 0.7207 0.44754 0.0
C1225 C 0.27476 0.67058 0.45988 0.0
C1226 C 0.29713 0.70674 0.46662 0.0
C1227 C 0.31351 0.76825 0.45623 0.0
C1228 C 0.30635 0.79153 0.44012 0.0
C1229 C 0.28744 0.73216 0.45837 0.0
C1230 C 0.27092 0.7816 0.43339 0.0
C1231 C 0.24391 0.74622 0.43763 0.0
H1232 H 0.47115 0.22727 0.44271 0.0
H1233 H 0.52975 0.31776 0.49838 0.0
H1234 H 0.57509 0.30034 0.50644 0.0
H1235 H 0.60672 0.27079 0.48276 0.0
H1236 H 0.54303 0.17521 0.43171 0.0
H1237 H 0.4916 0.18346 0.43587 0.0
C1238 C 0.49266 0.24189 0.45805 0.0
C1239 C 0.50091 0.27664 0.46631 0.0
C1240 C 0.519 0.23197 0.46153 0.0
C1241 C 0.52533 0.29253 0.48924 0.0
C1242 C 0.5521 0.28336 0.4931 0.0
C1243 C 0.58138 0.2514 0.4732 0.0
C1244 C 0.57936 0.22379 0.4555 0.0
C1245 C 0.55086 0.25509 0.47682 0.0
C1246 C 0.54584 0.19778 0.44435 0.0
C1247 C 0.51609 0.20211 0.44694 0.0
H1248 H 0.28593 0.59912 0.44889 0.0
H1249 H 0.26775 0.49274 0.43061 0.0
H1250 H 0.32678 0.50949 0.45049 0.0
H1251 H 0.38765 0.55881 0.45569 0.0
H1252 H 0.40823 0.66821 0.45871 0.0
H1253 H 0.34453 0.64645 0.46425 0.0
C1254 C 0.2946 0.57939 0.45017 0.0
C1255 C 0.27376 0.54542 0.43739 0.0
C1256 C 0.32945 0.59036 0.45873 0.0
C1257 C 0.28401 0.5193 0.43988 0.0
C1258 C 0.31781 0.52907 0.45098 0.0
C1259 C 0.37836 0.578 0.45838 0.0
C1260 C 0.40214 0.61502 0.4549 0.0
C1261 C 0.34171 0.56533 0.45782 0.0
C1262 C 0.39015 0.63955 0.46012 0.0
C1263 C 0.35371 0.62706 0.46297 0.0
H1264 H 0.8108 0.38252 0.46734 0.0
H1265 H 0.8615 0.37798 0.38924 0.0
H1266 H 0.83026 0.31265 0.39066 0.0
H1267 H 0.77844 0.25851 0.40767 0.0
H1268 H 0.72621 0.26238 0.48495 0.0
H1269 H 0.77013 0.32572 0.49186 0.0
C1270 C 0.81537 0.36702 0.4511 0.0
C1271 C 0.83711 0.38442 0.42774 0.0
C1272 C 0.79761 0.32941 0.45222 0.0
C1273 C 0.84398 0.36467 0.40706 0.0
C1274 C 0.8264 0.3274 0.40795 0.0
C1275 C 0.7779 0.27266 0.42688 0.0
C1276 C 0.74834 0.25674 0.44494 0.0
C1277 C 0.80175 0.3095 0.4296 0.0
C1278 C 0.74842 0.27478 0.4703 0.0
C1279 C 0.77299 0.31121 0.47388 0.0
H1280 H 0.5594 0.79078 0.40239 0.0
H1281 H 0.48574 0.71135 0.46019 0.0
H1282 H 0.45741 0.74752 0.46949 0.0
H1283 H 0.44343 0.79262 0.44939 0.0
H1284 H 0.51969 0.87305 0.39276 0.0
H1285 H 0.55729 0.84608 0.39515 0.0
C1286 C 0.53881 0.78269 0.41851 0.0
C1287 C 0.52365 0.74825 0.42978 0.0
C1288 C 0.52202 0.8031 0.42297 0.0
C1289 C 0.49724 0.73781 0.45085 0.0
C1290 C 0.48053 0.75811 0.45572 0.0
C1291 C 0.46867 0.80463 0.43819 0.0
C1292 C 0.4778 0.83363 0.41991 0.0
C1293 C 0.49083 0.78928 0.4399 0.0
C1294 C 0.51129 0.8499 0.40633 0.0
C1295 C 0.5331 0.83465 0.40771 0.0
H1296 H 0.55727 0.77387 0.92792 0.0
H1297 H 0.49012 0.78535 0.98988 0.0
H1298 H 0.45935 0.72101 0.99877 0.0
H1299 H 0.43804 0.66182 0.97452 0.0
H1300 H 0.5062 0.65071 0.91291 0.0
H1301 H 0.54987 0.71432 0.91783 0.0
C1302 C 0.53768 0.76265 0.94485 0.0
C1303 C 0.5238 0.7833 0.95659 0.0
C1304 C 0.51885 0.7253 0.94851 0.0
C1305 C 0.49997 0.76922 0.97961 0.0
C1306 C 0.48158 0.73219 0.98408 0.0
C1307 C 0.46317 0.67316 0.9632 0.0
C1308 C 0.46863 0.65232 0.94274 0.0
C1309 C 0.48843 0.7098 0.96635 0.0
C1310 C 0.50135 0.66676 0.92839 0.0
C1311 C 0.52637 0.7031 0.9312 0.0
H1312 H 0.80551 0.44597 0.97178 0.0
H1313 H 0.8336 0.4659 0.88254 0.0
H1314 H 0.81248 0.50872 0.88056 0.0
H1315 H 0.7775 0.53257 0.90146 0.0
H1316 H 0.74006 0.50608 0.98781 0.0
H1317 H 0.77657 0.47762 0.99498 0.0
C1318 C 0.80662 0.45959 0.95201 0.0
C1319 C 0.81994 0.45207 0.92716 0.0
C1320 C 0.79417 0.48434 0.95091 0.0
C1321 C 0.8225 0.47065 0.90177 0.0
C1322 C 0.81102 0.49562 0.90069 0.0
C1323 C 0.77889 0.52228 0.92233 0.0
C1324 C 0.75489 0.51947 0.9435 0.0
C1325 C 0.796 0.502 0.92487 0.0
C1326 C 0.75783 0.50755 0.97087 0.0
C1327 C 0.77762 0.49004 0.97461 0.0
H1328 H 0.36767 0.78944 0.96588 0.0
H1329 H 0.37876 0.78922 0.87401 0.0
H1330 H 0.32282 0.78791 0.86715 0.0
H1331 H 0.26568 0.7736 0.88587 0.0
H1332 H 0.24359 0.74494 0.97419 0.0
H1333 H 0.30767 0.77387 0.98495 0.0
C1334 C 0.35771 0.78924 0.94448 0.0
C1335 C 0.37807 0.7906 0.92059 0.0
C1336 C 0.32308 0.78407 0.94039 0.0
C1337 C 0.36454 0.78951 0.89288 0.0
C1338 C 0.33226 0.78864 0.88884 0.0
C1339 C 0.27516 0.77529 0.9077 0.0
C1340 C 0.25036 0.75578 0.9288 0.0
C1341 C 0.31078 0.78467 0.91233 0.0
C1342 C 0.26243 0.75911 0.95731 0.0
C1343 C 0.29903 0.77438 0.96322 0.0
H1344 H 0.56942 0.25275 0.97422 0.0
H1345 H 0.48486 0.2473 0.92146 0.0
H1346 H 0.50216 0.30913 0.93492 0.0
H1347 H 0.55343 0.36814 0.94635 0.0
H1348 H 0.6469 0.37518 0.98635 0.0
H1349 H 0.6149 0.31022 0.99377 0.0
C1350 C 0.55373 0.2647 0.96695 0.0
C1351 C 0.52675 0.24627 0.94627 0.0
C1352 C 0.56683 0.30139 0.97171 0.0
C1353 C 0.50596 0.2612 0.9372 0.0
C1354 C 0.51649 0.29689 0.94438 0.0
C1355 C 0.56614 0.35553 0.95787 0.0
C1356 C 0.6024 0.37603 0.96573 0.0
C1357 C 0.54881 0.31799 0.95929 0.0
C1358 C 0.61901 0.3597 0.9802 0.0
C1359 C 0.60077 0.32258 0.98417 0.0
H1360 H 0.19774 0.55398 0.93586 0.0
H1361 H 0.27671 0.65442 0.97354 0.0
H1362 H 0.3149 0.62866 0.98427 0.0
H1363 H 0.33254 0.5853 0.96901 0.0
H1364 H 0.25879 0.49091 0.92082 0.0
H1365 H 0.21127 0.50513 0.92925 0.0
C1366 C 0.22256 0.5695 0.9477 0.0
C1367 C 0.2347 0.60588 0.95397 0.0
C1368 C 0.24561 0.55554 0.95125 0.0
C1369 C 0.26702 0.62628 0.96875 0.0
C1370 C 0.28893 0.61164 0.97453 0.0
C1371 C 0.3057 0.56718 0.96119 0.0
C1372 C 0.29947 0.538 0.94328 0.0
C1373 C 0.27965 0.57738 0.96378 0.0
C1374 C 0.26446 0.51398 0.93414 0.0
C1375 C 0.2374 0.52242 0.93863 0.0
H1376 H 0.78221 0.24784 0.90723 0.0
H1377 H 0.79688 0.30476 0.98668 0.0
H1378 H 0.73244 0.27279 0.99459 0.0
H1379 H 0.67362 0.24669 0.97011 0.0
H1380 H 0.66498 0.20935 0.88275 0.0
H1381 H 0.72406 0.21636 0.88546 0.0
C1382 C 0.77118 0.25157 0.92702 0.0
C1383 C 0.79335 0.27962 0.94554 0.0
C1384 C 0.7345 0.23829 0.92863 0.0
C1385 C 0.77971 0.28377 0.97168 0.0
C1386 C 0.74282 0.26643 0.97567 0.0
C1387 C 0.68475 0.23972 0.95198 0.0
C1388 C 0.66533 0.22792 0.92628 0.0
C1389 C 0.72012 0.24671 0.95284 0.0
C1390 C 0.67955 0.21872 0.90274 0.0
C1391 C 0.71334 0.22251 0.90431 0.0
H1392 H 0.26817 0.51686 0.64893 0.0
H1393 H 0.27496 0.61872 0.63135 0.0
H1394 H 0.33549 0.64262 0.61399 0.0
H1395 H 0.3902 0.63899 0.61512 0.0
H1396 H 0.38436 0.53761 0.633 0.0
H1397 H 0.31994 0.50899 0.63793 0.0
C1398 C 0.28262 0.54383 0.64047 0.0
C1399 C 0.268 0.56653 0.64253 0.0
C1400 C 0.31782 0.55776 0.63088 0.0
C1401 C 0.28646 0.60124 0.63095 0.0
C1402 C 0.32101 0.61496 0.62093 0.0
C1403 C 0.37464 0.61038 0.61908 0.0
C1404 C 0.39204 0.59086 0.6247 0.0
C1405 C 0.33769 0.5942 0.62256 0.0
C1406 C 0.37162 0.55354 0.6291 0.0
C1407 C 0.33471 0.5371 0.63221 0.0
H1408 H 0.73701 0.37972 0.61337 0.0
H1409 H 0.83009 0.37282 0.59102 0.0
H1410 H 0.79657 0.30765 0.59516 0.0
H1411 H 0.74898 0.25825 0.62333 0.0
H1412 H 0.66229 0.27214 0.65444 0.0
H1413 H 0.68417 0.32736 0.62903 0.0
C1414 C 0.74949 0.3638 0.60806 0.0
C1415 C 0.78642 0.38078 0.60477 0.0
C1416 C 0.73122 0.32709 0.61357 0.0
C1417 C 0.80183 0.3601 0.59562 0.0
C1418 C 0.78289 0.32282 0.59856 0.0
C1419 C 0.7347 0.27314 0.62397 0.0
C1420 C 0.70478 0.26158 0.64151 0.0
C1421 C 0.74891 0.30677 0.61078 0.0
C1422 C 0.68585 0.28058 0.64165 0.0
C1423 C 0.69827 0.31239 0.62697 0.0
H1424 H 0.47056 0.83066 0.62394 0.0
H1425 H 0.37853 0.73476 0.59193 0.0
H1426 H 0.41259 0.70302 0.59225 0.0
H1427 H 0.46218 0.6987 0.61326 0.0
H1428 H 0.54862 0.79059 0.65518 0.0
H1429 H 0.52408 0.82837 0.63885 0.0
C1430 C 0.4585 0.80326 0.61588 0.0
C1431 C 0.42216 0.78496 0.60779 0.0
C1432 C 0.4773 0.78446 0.61855 0.0
C1433 C 0.40651 0.74932 0.59798 0.0
C1434 C 0.42588 0.73114 0.59852 0.0
C1435 C 0.47627 0.72732 0.61787 0.0
C1436 C 0.50699 0.74205 0.63536 0.0
C1437 C 0.46041 0.74781 0.61047 0.0
C1438 C 0.52518 0.77895 0.64144 0.0
C1439 C 0.51078 0.8003 0.63246 0.0
H1440 H 0.76576 0.45828 0.60661 0.0
H1441 H 0.77479 0.54665 0.6574 0.0
H1442 H 0.71189 0.52717 0.64806 0.0
H1443 H 0.65284 0.47497 0.64002 0.0
H1444 H 0.64313 0.37837 0.60215 0.0
H1445 H 0.70707 0.41017 0.59162 0.0
C1446 C 0.75417 0.47408 0.6145 0.0
C1447 C 0.77432 0.50332 0.63307 0.0
C1448 C 0.71725 0.45991 0.6123 0.0
C1449 C 0.75965 0.5241 0.64299 0.0
C1450 C 0.72347 0.51235 0.63822 0.0
C1451 C 0.66455 0.46128 0.62851 0.0
C1452 C 0.64363 0.4244 0.62198 0.0
C1453 C 0.70159 0.47868 0.62515 0.0
C1454 C 0.65895 0.40669 0.60747 0.0
C1455 C 0.69545 0.42483 0.60167 0.0
H1456 H 0.21366 0.66045 0.60195 0.0
H1457 H 0.17339 0.6674 0.68466 0.0
H1458 H 0.19754 0.73196 0.67912 0.0
H1459 H 0.24364 0.78627 0.65693 0.0
H1460 H 0.28853 0.77966 0.57657 0.0
H1461 H 0.24626 0.71545 0.57315 0.0
C1462 C 0.20955 0.67619 0.61827 0.0
C1463 C 0.19316 0.66019 0.64399 0.0
C1464 C 0.22363 0.7132 0.61495 0.0
C1465 C 0.18684 0.67996 0.66496 0.0
C1466 C 0.20036 0.71667 0.66171 0.0
C1467 C 0.24262 0.77115 0.63783 0.0
C1468 C 0.27045 0.78651 0.61809 0.0
C1469 C 0.22069 0.73383 0.63759 0.0
C1470 C 0.26796 0.76759 0.59265 0.0
C1471 C 0.24454 0.73066 0.59113 0.0
H1472 H 0.53582 0.28978 0.59554 0.0
H1473 H 0.4564 0.239 0.6607 0.0
H1474 H 0.471 0.19095 0.66422 0.0
H1475 H 0.51995 0.17708 0.66157 0.0
H1476 H 0.60988 0.23999 0.60729 0.0
H1477 H 0.57964 0.27084 0.58767 0.0
C1478 C 0.5207 0.26724 0.6096 0.0
C1479 C 0.497 0.26907 0.62925 0.0
C1480 C 0.53324 0.24336 0.61481 0.0
C1481 C 0.47591 0.23898 0.64615 0.0
C1482 C 0.48501 0.21203 0.64877 0.0
C1483 C 0.5324 0.19705 0.645 0.0
C1484 C 0.56708 0.20706 0.63608 0.0
C1485 C 0.51594 0.21619 0.63542 0.0
C1486 C 0.58339 0.23273 0.61469 0.0
C1487 C 0.566 0.25001 0.60339 0.0
H1488 H 0.53694 0.10872 0.99729 0.0
H1489 H 0.46528 0.14995 0.98268 0.0
H1490 H 0.45191 0.14563 0.03413 0.0
H1491 H 0.46694 0.13735 0.08389 0.0
H1492 H 0.53923 0.09621 0.09733 0.0
H1493 H 0.54553 0.09279 0.04579 0.0
C1494 C 0.51775 0.11601 1.00529 0.0
C1495 C 0.50217 0.12973 0.98624 0.0
C1496 C 0.51057 0.11375 0.03479 0.0
C1497 C 0.47733 0.13898 0.99686 0.0
C1498 C 0.46999 0.13682 1.02632 0.0
C1499 C 0.48341 0.12681 0.07558 0.0
C1500 C 0.50285 0.11738 0.09475 0.0
C1501 C 0.48732 0.12526 0.04563 0.0
C1502 C 0.52409 0.10388 0.08335 0.0
C1503 C 0.52786 0.10203 0.05377 0.0
H1504 H 0.35363 0.47597 0.98206 0.0
H1505 H 0.46755 0.5378 0.96955 0.0
H1506 H 0.47733 0.54134 1.02115 0.0
H1507 H 0.45364 0.53302 0.06992 0.0
H1508 H 0.34026 0.47055 0.08341 0.0
H1509 H 0.33022 0.46079 1.0315 0.0
C1510 C 0.38065 0.48959 0.99055 0.0
C1511 C 0.40977 0.50686 0.97166 0.0
C1512 C 0.3862 0.49172 1.02053 0.0
C1513 C 0.44455 0.52428 0.9833 0.0
C1514 C 0.45022 0.52652 1.01293 0.0
C1515 C 0.42674 0.51671 0.06153 0.0
C1516 C 0.3977 0.50269 0.08051 0.0
C1517 C 0.42126 0.51129 1.03175 0.0
C1518 C 0.36307 0.48141 0.06932 0.0
C1519 C 0.35734 0.4761 0.0396 0.0
H1520 H 0.88025 0.34635 0.08432 0.0
H1521 H 0.944 0.46181 0.09198 0.0
H1522 H 0.95194 0.4664 0.04041 0.0
H1523 H 0.936 0.43886 0.99247 0.0
H1524 H 0.87379 0.32385 0.98329 0.0
H1525 H 0.87055 0.31789 0.03568 0.0
C1526 C 0.89646 0.37247 0.0748 0.0
C1527 C 0.9112 0.40371 0.09244 0.0
C1528 C 0.90111 0.37509 0.04462 0.0
C1529 C 0.9321 0.43723 0.07935 0.0
C1530 C 0.93664 0.43997 0.04965 0.0
C1531 C 0.92241 0.41239 1.00191 0.0
C1532 C 0.90527 0.38184 0.98385 0.0
C1533 C 0.92058 0.40925 1.03201 0.0
C1534 C 0.8877 0.34779 0.99656 0.0
C1535 C 0.88551 0.34444 1.0266 0.0
H1536 H 0.49909 0.92043 0.99213 0.0
H1537 H 0.57052 0.87789 0.98207 0.0
H1538 H 0.58111 0.88223 0.03378 0.0
H1539 H 0.56507 0.89214 0.08263 0.0
H1540 H 0.49554 0.93721 0.09205 0.0
H1541 H 0.48988 0.93835 0.04029 0.0
C1542 C 0.51752 0.91277 1.00119 0.0
C1543 C 0.53389 0.8988 0.98309 0.0
C1544 C 0.52377 0.91559 1.03108 0.0
C1545 C 0.55777 0.88909 0.99532 0.0
C1546 C 0.56366 0.8913 1.02502 0.0
C1547 C 0.54938 0.90303 0.0734 0.0
C1548 C 0.53054 0.91423 0.09157 0.0
C1549 C 0.54616 0.90373 0.04325 0.0
C1550 C 0.51032 0.92822 0.07891 0.0
C1551 C 0.50684 0.92873 0.04914 0.0
H1552 H 0.58245 0.48027 0.98969 0.0
H1553 H 0.69083 0.56504 0.97713 0.0
H1554 H 0.6998 0.57362 1.02874 0.0
H1555 H 0.6795 0.55225 0.0777 0.0
H1556 H 0.57114 0.46747 0.09031 0.0
H1557 H 0.55973 0.46427 0.03894 0.0
C1558 C 0.6078 0.50129 0.99815 0.0
C1559 C 0.63592 0.52179 0.97916 0.0
C1560 C 0.61304 0.50589 1.02816 0.0
C1561 C 0.66858 0.54875 0.99088 0.0
C1562 C 0.67385 0.55357 1.02058 0.0
C1563 C 0.65308 0.53358 0.06936 0.0
C1564 C 0.62636 0.50997 0.0882 0.0
C1565 C 0.64668 0.53158 0.03948 0.0
C1566 C 0.59238 0.48597 0.07665 0.0
C1567 C 0.58583 0.48399 0.04707 0.0
H1568 H 0.10748 0.60171 0.06889 0.0
H1569 H 0.1763 0.71619 0.07606 0.0
H1570 H 0.1717 0.72188 1.02406 0.0
H1571 H 0.15502 0.69263 0.97613 0.0
H1572 H 0.0869 0.57758 0.97005 0.0
H1573 H 0.08363 0.57383 1.02208 0.0
C1574 C 0.1208 0.628 0.05908 0.0
C1575 C 0.14237 0.65849 0.07604 0.0
C1576 C 0.11828 0.63086 1.02937 0.0
C1577 C 0.15939 0.69243 0.06333 0.0
C1578 C 0.15696 0.69558 0.03361 0.0
C1579 C 0.13857 0.66688 0.98616 0.0
C1580 C 0.12153 0.63535 0.96913 0.0
C1581 C 0.13742 0.66478 1.01629 0.0
C1582 C 0.10053 0.60221 0.98257 0.0
C1583 C 0.09877 0.6 1.01236 0.0
H1584 H 0.8622 0.54159 0.57726 0.0
H1585 H 0.95051 0.5234 0.59244 0.0
H1586 H 0.96508 0.53104 0.54155 0.0
H1587 H 0.94632 0.53233 0.49192 0.0
H1588 H 0.85937 0.55216 0.4757 0.0
H1589 H 0.85073 0.55487 0.5275 0.0
C1590 C 0.8856 0.541 0.56955 0.0
C1591 C 0.90565 0.53251 0.58873 0.0
C1592 C 0.8935 0.54488 0.5399 0.0
C1593 C 0.93518 0.53062 0.57826 0.0
C1594 C 0.94321 0.53452 0.54905 0.0
C1595 C 0.92623 0.5384 0.49976 0.0
C1596 C 0.90333 0.54181 0.48001 0.0
C1597 C 0.92167 0.54011 0.52953 0.0
C1598 C 0.87734 0.54953 0.49045 0.0
C1599 C 0.87229 0.55084 0.52011 0.0
H1600 H 0.44901 0.92118 0.57601 0.0
H1601 H 0.3367 0.88614 0.58205 0.0
H1602 H 0.33272 0.8897 0.53021 0.0
H1603 H 0.35981 0.89665 0.48199 0.0
H1604 H 0.47246 0.9326 0.47694 0.0
H1605 H 0.47733 0.93507 0.52877 0.0
C1606 C 0.42379 0.91501 0.56612 0.0
C1607 C 0.39329 0.90327 0.58328 0.0
C1608 C 0.42149 0.9169 0.53602 0.0
C1609 C 0.36085 0.89539 0.56971 0.0
C1610 C 0.3584 0.89719 0.53985 0.0
C1611 C 0.38553 0.90579 0.49223 0.0
C1612 C 0.41554 0.91398 0.47522 0.0
C1613 C 0.38836 0.90705 0.52259 0.0
C1614 C 0.44863 0.9256 0.48917 0.0
C1615 C 0.45158 0.92705 0.51902 0.0
H1616 H 0.55164 0.43908 0.50196 0.0
H1617 H 0.45958 0.33382 0.49009 0.0
H1618 H 0.44846 0.32981 0.54144 0.0
H1619 H 0.46813 0.35341 0.59039 0.0
H1620 H 0.5596 0.45903 0.60245 0.0
H1621 H 0.5671 0.46573 0.55069 0.0
C1622 C 0.52881 0.41549 0.51052 0.0
C1623 C 0.50663 0.38677 0.49193 0.0
C1624 C 0.52241 0.41328 0.54031 0.0
C1625 C 0.47708 0.35651 0.50362 0.0
C1626 C 0.47075 0.35405 0.53313 0.0
C1627 C 0.48927 0.37825 0.58175 0.0
C1628 C 0.51333 0.40555 0.60059 0.0
C1629 C 0.49368 0.38191 0.55179 0.0
C1630 C 0.54053 0.4375 0.58872 0.0
C1631 C 0.54505 0.44129 0.55899 0.0
H1632 H 0.11712 0.47069 0.57731 0.0
H1633 H 0.21369 0.57161 0.59145 0.0
H1634 H 0.22656 0.57625 0.54036 0.0
H1635 H 0.20619 0.55641 0.49152 0.0
H1636 H 0.10871 0.45729 0.47533 0.0
H1637 H 0.10043 0.44655 0.52721 0.0
C1638 C 0.1414 0.49303 0.56912 0.0
C1639 C 0.16455 0.52082 0.58788 0.0
C1640 C 0.14814 0.49602 0.53939 0.0
C1641 C 0.19566 0.55001 0.57723 0.0
C1642 C 0.20292 0.55274 0.54806 0.0
C1643 C 0.18347 0.53209 0.49939 0.0
C1644 C 0.15787 0.50785 0.47989 0.0
C1645 C 0.17872 0.52665 0.52892 0.0
C1646 C 0.12875 0.47624 0.49009 0.0
C1647 C 0.12393 0.47033 0.51972 0.0
H1648 H 0.684 0.15683 0.4816 0.0
H1649 H 0.56931 0.10438 0.4726 0.0
H1650 H 0.56324 0.10127 0.52448 0.0
H1651 H 0.59005 0.11767 0.57246 0.0
H1652 H 0.70423 0.16879 0.58293 0.0
H1653 H 0.71086 0.16799 0.53064 0.0
C1654 C 0.65761 0.14397 0.49093 0.0
C1655 C 0.62713 0.13087 0.47282 0.0
C1656 C 0.6542 0.14246 0.52117 0.0
C1657 C 0.59328 0.11465 0.48564 0.0
C1658 C 0.58975 0.11304 0.51546 0.0
C1659 C 0.61648 0.12847 0.5634 0.0
C1660 C 0.64667 0.14365 0.58174 0.0
C1661 C 0.61998 0.12761 0.53342 0.0
C1662 C 0.68055 0.15694 0.56946 0.0
C1663 C 0.68431 0.15658 0.53949 0.0
H1664 H 0.56067 0.62363 0.57294 0.0
H1665 H 0.54014 0.71155 0.58418 0.0
H1666 H 0.54495 0.72187 0.53246 0.0
H1667 H 0.54459 0.69886 0.4837 0.0
H1668 H 0.5637 0.61008 0.47228 0.0
H1669 H 0.57103 0.60762 0.52415 0.0
C1670 C 0.55866 0.64587 0.56405 0.0
C1671 C 0.55053 0.66714 0.58223 0.0
C1672 C 0.56107 0.65132 0.53419 0.0
C1673 C 0.54706 0.69534 0.57057 0.0
C1674 C 0.54949 0.701 0.54098 0.0
C1675 C 0.55207 0.68016 0.49257 0.0
C1676 C 0.55438 0.65516 0.47426 0.0
C1677 C 0.55519 0.67832 0.52249 0.0
C1678 C 0.56276 0.63015 0.48595 0.0
C1679 C 0.56638 0.62842 0.51565 0.0
loop_
_geom_bond_atom_site_label_1
_geom_bond_atom_site_label_2
_geom_bond_distance
_geom_bond_site_symmetry_2
_ccdc_geom_bond_type
Fe0 O2 1.918 . S
Fe0 O5 1.997 . S
Fe0 O6 2.002 . S
Fe0 O11 1.976 . S
Fe0 O14 1.996 . S
Fe1 O2 1.918 . S
Fe1 O9 1.997 . S
Fe1 O12 1.996 . S
Fe1 O16 1.976 . S
Fe1 O19 2.002 . S
O2 Fe0 1.918 . S
O2 Fe1 1.918 . S
O2 Fe3 1.918 . S
Fe3 O2 1.918 . S
Fe3 O4 2.002 . S
Fe3 O13 1.976 . S
Fe3 O17 1.996 . S
Fe3 O20 1.997 . S
O4 Fe3 2.002 . S
O4 C21 1.295 . S
O5 Fe0 1.997 . S
O5 C21 1.235 . S
O6 Fe0 2.002 . S
O6 C7 1.295 . S
C7 O6 1.295 . S
C7 O9 1.235 . S
C8 O13 1.287 . S
C8 O14 1.255 . S
O9 Fe1 1.997 . S
O9 C7 1.235 . S
C10 O16 1.287 . S
C10 O17 1.255 . S
O11 Fe0 1.976 . S
O11 C18 1.287 . S
O12 Fe1 1.996 . S
O12 C18 1.255 . S
O13 Fe3 1.976 . S
O13 C8 1.287 . S
O14 Fe0 1.996 . S
O14 C8 1.255 . S
C15 O19 1.295 . S
C15 O20 1.235 . S
O16 Fe1 1.976 . S
O16 C10 1.287 . S
O17 Fe3 1.996 . S
O17 C10 1.255 . S
C18 O11 1.287 . S
C18 O12 1.255 . S
O19 Fe1 2.002 . S
O19 C15 1.295 . S
O20 Fe3 1.997 . S
O20 C15 1.235 . S
C21 O4 1.295 . S
C21 O5 1.235 . S
Fe22 O24 1.918 . S
Fe22 O27 1.997 . S
Fe22 O28 2.002 . S
Fe22 O33 1.976 . S
Fe22 O36 1.996 . S
Fe23 O24 1.918 . S
Fe23 O31 1.997 . S
Fe23 O34 1.996 . S
Fe23 O38 1.976 . S
Fe23 O41 2.002 . S
O24 Fe22 1.918 . S
O24 Fe23 1.918 . S
O24 Fe25 1.918 . S
Fe25 O24 1.918 . S
Fe25 O26 2.002 . S
Fe25 O35 1.976 . S
Fe25 O39 1.996 . S
Fe25 O42 1.997 . S
O26 Fe25 2.002 . S
O26 C43 1.295 . S
O27 Fe22 1.997 . S
O27 C43 1.235 . S
O28 Fe22 2.002 . S
O28 C29 1.295 . S
C29 O28 1.295 . S
C29 O31 1.235 . S
C30 O35 1.287 . S
C30 O36 1.255 . S
O31 Fe23 1.997 . S
O31 C29 1.235 . S
C32 O38 1.287 . S
C32 O39 1.255 . S
O33 Fe22 1.976 . S
O33 C40 1.287 . S
O34 Fe23 1.996 . S
O34 C40 1.255 . S
O35 Fe25 1.976 . S
O35 C30 1.287 . S
O36 Fe22 1.996 . S
O36 C30 1.255 . S
C37 O41 1.295 . S
C37 O42 1.235 . S
O38 Fe23 1.976 . S
O38 C32 1.287 . S
O39 Fe25 1.996 . S
O39 C32 1.255 . S
C40 O33 1.287 . S
C40 O34 1.255 . S
O41 Fe23 2.002 . S
O41 C37 1.295 . S
O42 Fe25 1.997 . S
O42 C37 1.235 . S
C43 O26 1.295 . S
C43 O27 1.235 . S
Fe44 O46 1.918 . S
Fe44 O49 1.997 . S
Fe44 O50 2.002 . S
Fe44 O55 1.976 . S
Fe44 O58 1.996 . S
Fe45 O46 1.918 . S
Fe45 O53 1.997 . S
Fe45 O56 1.996 . S
Fe45 O60 1.976 . S
Fe45 O63 2.002 . S
O46 Fe44 1.918 . S
O46 Fe45 1.918 . S
O46 Fe47 1.918 . S
Fe47 O46 1.918 . S
Fe47 O48 2.002 . S
Fe47 O57 1.976 . S
Fe47 O61 1.996 . S
Fe47 O64 1.997 . S
O48 Fe47 2.002 . S
O48 C65 1.295 . S
O49 Fe44 1.997 . S
O49 C65 1.235 . S
O50 Fe44 2.002 . S
O50 C51 1.295 . S
C51 O50 1.295 . S
C51 O53 1.235 . S
C52 O57 1.287 . S
C52 O58 1.255 . S
O53 Fe45 1.997 . S
O53 C51 1.235 . S
C54 O60 1.287 . S
C54 O61 1.255 . S
O55 Fe44 1.976 . S
O55 C62 1.287 . S
O56 Fe45 1.996 . S
O56 C62 1.255 . S
O57 Fe47 1.976 . S
O57 C52 1.287 . S
O58 Fe44 1.996 . S
O58 C52 1.255 . S
C59 O63 1.295 . S
C59 O64 1.235 . S
O60 Fe45 1.976 . S
O60 C54 1.287 . S
O61 Fe47 1.996 . S
O61 C54 1.255 . S
C62 O55 1.287 . S
C62 O56 1.255 . S
O63 Fe45 2.002 . S
O63 C59 1.295 . S
O64 Fe47 1.997 . S
O64 C59 1.235 . S
C65 O48 1.295 . S
C65 O49 1.235 . S
Fe66 O68 1.918 . S
Fe66 O71 1.997 . S
Fe66 O72 2.002 . S
Fe66 O77 1.976 . S
Fe66 O80 1.996 . S
Fe67 O68 1.918 . S
Fe67 O75 1.997 . S
Fe67 O78 1.996 . S
Fe67 O82 1.976 . S
Fe67 O85 2.002 . S
O68 Fe66 1.918 . S
O68 Fe67 1.918 . S
O68 Fe69 1.918 . S
Fe69 O68 1.918 . S
Fe69 O70 2.002 . S
Fe69 O79 1.976 . S
Fe69 O83 1.996 . S
Fe69 O86 1.997 . S
O70 Fe69 2.002 . S
O70 C87 1.295 . S
O71 Fe66 1.997 . S
O71 C87 1.235 . S
O72 Fe66 2.002 . S
O72 C73 1.295 . S
C73 O72 1.295 . S
C73 O75 1.235 . S
C74 O79 1.287 . S
C74 O80 1.255 . S
O75 Fe67 1.997 . S
O75 C73 1.235 . S
C76 O82 1.287 . S
C76 O83 1.255 . S
O77 Fe66 1.976 . S
O77 C84 1.287 . S
O78 Fe67 1.996 . S
O78 C84 1.255 . S
O79 Fe69 1.976 . S
O79 C74 1.287 . S
O80 Fe66 1.996 . S
O80 C74 1.255 . S
C81 O85 1.295 . S
C81 O86 1.235 . S
O82 Fe67 1.976 . S
O82 C76 1.287 . S
O83 Fe69 1.996 . S
O83 C76 1.255 . S
C84 O77 1.287 . S
C84 O78 1.255 . S
O85 Fe67 2.002 . S
O85 C81 1.295 . S
O86 Fe69 1.997 . S
O86 C81 1.235 . S
C87 O70 1.295 . S
C87 O71 1.235 . S
Fe88 O90 1.918 . S
Fe88 O93 1.997 . S
Fe88 O94 2.002 . S
Fe88 O99 1.976 . S
Fe88 O102 1.996 . S
Fe89 O90 1.918 . S
Fe89 O97 1.997 . S
Fe89 O100 1.996 . S
Fe89 O104 1.976 . S
Fe89 O107 2.002 . S
O90 Fe88 1.918 . S
O90 Fe89 1.918 . S
O90 Fe91 1.918 . S
Fe91 O90 1.918 . S
Fe91 O92 2.002 . S
Fe91 O101 1.976 . S
Fe91 O105 1.996 . S
Fe91 O108 1.997 . S
O92 Fe91 2.002 . S
O92 C109 1.295 . S
O93 Fe88 1.997 . S
O93 C109 1.235 . S
O94 Fe88 2.002 . S
O94 C95 1.295 . S
C95 O94 1.295 . S
C95 O97 1.235 . S
C96 O101 1.287 . S
C96 O102 1.255 . S
O97 Fe89 1.997 . S
O97 C95 1.235 . S
C98 O104 1.287 . S
C98 O105 1.255 . S
O99 Fe88 1.976 . S
O99 C106 1.287 . S
O100 Fe89 1.996 . S
O100 C106 1.255 . S
O101 Fe91 1.976 . S
O101 C96 1.287 . S
O102 Fe88 1.996 . S
O102 C96 1.255 . S
C103 O107 1.295 . S
C103 O108 1.235 . S
O104 Fe89 1.976 . S
O104 C98 1.287 . S
O105 Fe91 1.996 . S
O105 C98 1.255 . S
C106 O99 1.287 . S
C106 O100 1.255 . S
O107 Fe89 2.002 . S
O107 C103 1.295 . S
O108 Fe91 1.997 . S
O108 C103 1.235 . S
C109 O92 1.295 . S
C109 O93 1.235 . S
Fe110 O112 1.918 . S
Fe110 O115 1.997 . S
Fe110 O116 2.002 . S
Fe110 O121 1.976 . S
Fe110 O124 1.996 . S
Fe111 O112 1.918 . S
Fe111 O119 1.997 . S
Fe111 O122 1.996 . S
Fe111 O126 1.976 . S
Fe111 O129 2.002 . S
O112 Fe110 1.918 . S
O112 Fe111 1.918 . S
O112 Fe113 1.918 . S
Fe113 O112 1.918 . S
Fe113 O114 2.002 . S
Fe113 O123 1.976 . S
Fe113 O127 1.996 . S
Fe113 O130 1.997 . S
O114 Fe113 2.002 . S
O114 C131 1.295 . S
O115 Fe110 1.997 . S
O115 C131 1.235 . S
O116 Fe110 2.002 . S
O116 C117 1.295 . S
C117 O116 1.295 . S
C117 O119 1.235 . S
C118 O123 1.287 . S
C118 O124 1.255 . S
O119 Fe111 1.997 . S
O119 C117 1.235 . S
C120 O126 1.287 . S
C120 O127 1.255 . S
O121 Fe110 1.976 . S
O121 C128 1.287 . S
O122 Fe111 1.996 . S
O122 C128 1.255 . S
O123 Fe113 1.976 . S
O123 C118 1.287 . S
O124 Fe110 1.996 . S
O124 C118 1.255 . S
C125 O129 1.295 . S
C125 O130 1.235 . S
O126 Fe111 1.976 . S
O126 C120 1.287 . S
O127 Fe113 1.996 . S
O127 C120 1.255 . S
C128 O121 1.287 . S
C128 O122 1.255 . S
O129 Fe111 2.002 . S
O129 C125 1.295 . S
O130 Fe113 1.997 . S
O130 C125 1.235 . S
C131 O114 1.295 . S
C131 O115 1.235 . S
Fe132 O134 1.918 . S
Fe132 O137 1.997 . S
Fe132 O138 2.002 . S
Fe132 O143 1.976 . S
Fe132 O146 1.996 . S
Fe133 O134 1.918 . S
Fe133 O141 1.997 . S
Fe133 O144 1.996 . S
Fe133 O148 1.976 . S
Fe133 O151 2.002 . S
O134 Fe132 1.918 . S
O134 Fe133 1.918 . S
O134 Fe135 1.918 . S
Fe135 O134 1.918 . S
Fe135 O136 2.002 . S
Fe135 O145 1.976 . S
Fe135 O149 1.996 . S
Fe135 O152 1.997 . S
O136 Fe135 2.002 . S
O136 C153 1.295 . S
O137 Fe132 1.997 . S
O137 C153 1.235 . S
O138 Fe132 2.002 . S
O138 C139 1.295 . S
C139 O138 1.295 . S
C139 O141 1.235 . S
C140 O145 1.287 . S
C140 O146 1.255 . S
O141 Fe133 1.997 . S
O141 C139 1.235 . S
C142 O148 1.287 . S
C142 O149 1.255 . S
O143 Fe132 1.976 . S
O143 C150 1.287 . S
O144 Fe133 1.996 . S
O144 C150 1.255 . S
O145 Fe135 1.976 . S
O145 C140 1.287 . S
O146 Fe132 1.996 . S
O146 C140 1.255 . S
C147 O151 1.295 . S
C147 O152 1.235 . S
O148 Fe133 1.976 . S
O148 C142 1.287 . S
O149 Fe135 1.996 . S
O149 C142 1.255 . S
C150 O143 1.287 . S
C150 O144 1.255 . S
O151 Fe133 2.002 . S
O151 C147 1.295 . S
O152 Fe135 1.997 . S
O152 C147 1.235 . S
C153 O136 1.295 . S
C153 O137 1.235 . S
Fe154 O156 1.918 . S
Fe154 O159 1.997 . S
Fe154 O160 2.002 . S
Fe154 O165 1.976 . S
Fe154 O168 1.996 . S
Fe155 O156 1.918 . S
Fe155 O163 1.997 . S
Fe155 O166 1.996 . S
Fe155 O170 1.976 . S
Fe155 O173 2.002 . S
O156 Fe154 1.918 . S
O156 Fe155 1.918 . S
O156 Fe157 1.918 . S
Fe157 O156 1.918 . S
Fe157 O158 2.002 . S
Fe157 O167 1.976 . S
Fe157 O171 1.996 . S
Fe157 O174 1.997 . S
O158 Fe157 2.002 . S
O158 C175 1.295 . S
O159 Fe154 1.997 . S
O159 C175 1.235 . S
O160 Fe154 2.002 . S
O160 C161 1.295 . S
C161 O160 1.295 . S
C161 O163 1.235 . S
C162 O167 1.287 . S
C162 O168 1.255 . S
O163 Fe155 1.997 . S
O163 C161 1.235 . S
C164 O170 1.287 . S
C164 O171 1.255 . S
O165 Fe154 1.976 . S
O165 C172 1.287 . S
O166 Fe155 1.996 . S
O166 C172 1.255 . S
O167 Fe157 1.976 . S
O167 C162 1.287 . S
O168 Fe154 1.996 . S
O168 C162 1.255 . S
C169 O173 1.295 . S
C169 O174 1.235 . S
O170 Fe155 1.976 . S
O170 C164 1.287 . S
O171 Fe157 1.996 . S
O171 C164 1.255 . S
C172 O165 1.287 . S
C172 O166 1.255 . S
O173 Fe155 2.002 . S
O173 C169 1.295 . S
O174 Fe157 1.997 . S
O174 C169 1.235 . S
C175 O158 1.295 . S
C175 O159 1.235 . S
Fe176 O178 1.918 . S
Fe176 O181 1.997 . S
Fe176 O182 2.002 . S
Fe176 O187 1.976 . S
Fe176 O190 1.996 . S
Fe177 O178 1.918 . S
Fe177 O185 1.997 . S
Fe177 O188 1.996 . S
Fe177 O192 1.976 . S
Fe177 O195 2.002 . S
O178 Fe176 1.918 . S
O178 Fe177 1.918 . S
O178 Fe179 1.918 . S
Fe179 O178 1.918 . S
Fe179 O180 2.002 . S
Fe179 O189 1.976 . S
Fe179 O193 1.996 . S
Fe179 O196 1.997 . S
O180 Fe179 2.002 . S
O180 C197 1.295 . S
O181 Fe176 1.997 . S
O181 C197 1.235 . S
O182 Fe176 2.002 . S
O182 C183 1.295 . S
C183 O182 1.295 . S
C183 O185 1.235 . S
C184 O189 1.287 . S
C184 O190 1.255 . S
O185 Fe177 1.997 . S
O185 C183 1.235 . S
C186 O192 1.287 . S
C186 O193 1.255 . S
O187 Fe176 1.976 . S
O187 C194 1.287 . S
O188 Fe177 1.996 . S
O188 C194 1.255 . S
O189 Fe179 1.976 . S
O189 C184 1.287 . S
O190 Fe176 1.996 . S
O190 C184 1.255 . S
C191 O195 1.295 . S
C191 O196 1.235 . S
O192 Fe177 1.976 . S
O192 C186 1.287 . S
O193 Fe179 1.996 . S
O193 C186 1.255 . S
C194 O187 1.287 . S
C194 O188 1.255 . S
O195 Fe177 2.002 . S
O195 C191 1.295 . S
O196 Fe179 1.997 . S
O196 C191 1.235 . S
C197 O180 1.295 . S
C197 O181 1.235 . S
Fe198 O200 1.918 . S
Fe198 O203 1.997 . S
Fe198 O204 2.002 . S
Fe198 O209 1.976 . S
Fe198 O212 1.996 . S
Fe199 O200 1.918 . S
Fe199 O207 1.997 . S
Fe199 O210 1.996 . S
Fe199 O214 1.976 . S
Fe199 O217 2.002 . S
O200 Fe198 1.918 . S
O200 Fe199 1.918 . S
O200 Fe201 1.918 . S
Fe201 O200 1.918 . S
Fe201 O202 2.002 . S
Fe201 O211 1.976 . S
Fe201 O215 1.996 . S
Fe201 O218 1.997 . S
O202 Fe201 2.002 . S
O202 C219 1.295 . S
O203 Fe198 1.997 . S
O203 C219 1.235 . S
O204 Fe198 2.002 . S
O204 C205 1.295 . S
C205 O204 1.295 . S
C205 O207 1.235 . S
C206 O211 1.287 . S
C206 O212 1.255 . S
O207 Fe199 1.997 . S
O207 C205 1.235 . S
C208 O214 1.287 . S
C208 O215 1.255 . S
O209 Fe198 1.976 . S
O209 C216 1.287 . S
O210 Fe199 1.996 . S
O210 C216 1.255 . S
O211 Fe201 1.976 . S
O211 C206 1.287 . S
O212 Fe198 1.996 . S
O212 C206 1.255 . S
C213 O217 1.295 . S
C213 O218 1.235 . S
O214 Fe199 1.976 . S
O214 C208 1.287 . S
O215 Fe201 1.996 . S
O215 C208 1.255 . S
C216 O209 1.287 . S
C216 O210 1.255 . S
O217 Fe199 2.002 . S
O217 C213 1.295 . S
O218 Fe201 1.997 . S
O218 C213 1.235 . S
C219 O202 1.295 . S
C219 O203 1.235 . S
Fe220 O222 1.918 . S
Fe220 O225 1.997 . S
Fe220 O226 2.002 . S
Fe220 O231 1.976 . S
Fe220 O234 1.996 . S
Fe221 O222 1.918 . S
Fe221 O229 1.997 . S
Fe221 O232 1.996 . S
Fe221 O236 1.976 . S
Fe221 O239 2.002 . S
O222 Fe220 1.918 . S
O222 Fe221 1.918 . S
O222 Fe223 1.918 . S
Fe223 O222 1.918 . S
Fe223 O224 2.002 . S
Fe223 O233 1.976 . S
Fe223 O237 1.996 . S
Fe223 O240 1.997 . S
O224 Fe223 2.002 . S
O224 C241 1.295 . S
O225 Fe220 1.997 . S
O225 C241 1.235 . S
O226 Fe220 2.002 . S
O226 C227 1.295 . S
C227 O226 1.295 . S
C227 O229 1.235 . S
C228 O233 1.287 . S
C228 O234 1.255 . S
O229 Fe221 1.997 . S
O229 C227 1.235 . S
C230 O236 1.287 . S
C230 O237 1.255 . S
O231 Fe220 1.976 . S
O231 C238 1.287 . S
O232 Fe221 1.996 . S
O232 C238 1.255 . S
O233 Fe223 1.976 . S
O233 C228 1.287 . S
O234 Fe220 1.996 . S
O234 C228 1.255 . S
C235 O239 1.295 . S
C235 O240 1.235 . S
O236 Fe221 1.976 . S
O236 C230 1.287 . S
O237 Fe223 1.996 . S
O237 C230 1.255 . S
C238 O231 1.287 . S
C238 O232 1.255 . S
O239 Fe221 2.002 . S
O239 C235 1.295 . S
O240 Fe223 1.997 . S
O240 C235 1.235 . S
C241 O224 1.295 . S
C241 O225 1.235 . S
Fe242 O244 1.918 . S
Fe242 O247 1.997 . S
Fe242 O248 2.002 . S
Fe242 O253 1.976 . S
Fe242 O256 1.996 . S
Fe243 O244 1.918 . S
Fe243 O251 1.997 . S
Fe243 O254 1.996 . S
Fe243 O258 1.976 . S
Fe243 O261 2.002 . S
O244 Fe242 1.918 . S
O244 Fe243 1.918 . S
O244 Fe245 1.918 . S
Fe245 O244 1.918 . S
Fe245 O246 2.002 . S
Fe245 O255 1.976 . S
Fe245 O259 1.996 . S
Fe245 O262 1.997 . S
O246 Fe245 2.002 . S
O246 C263 1.295 . S
O247 Fe242 1.997 . S
O247 C263 1.235 . S
O248 Fe242 2.002 . S
O248 C249 1.295 . S
C249 O248 1.295 . S
C249 O251 1.235 . S
C250 O255 1.287 . S
C250 O256 1.255 . S
O251 Fe243 1.997 . S
O251 C249 1.235 . S
C252 O258 1.287 . S
C252 O259 1.255 . S
O253 Fe242 1.976 . S
O253 C260 1.287 . S
O254 Fe243 1.996 . S
O254 C260 1.255 . S
O255 Fe245 1.976 . S
O255 C250 1.287 . S
O256 Fe242 1.996 . S
O256 C250 1.255 . S
C257 O261 1.295 . S
C257 O262 1.235 . S
O258 Fe243 1.976 . S
O258 C252 1.287 . S
O259 Fe245 1.996 . S
O259 C252 1.255 . S
C260 O253 1.287 . S
C260 O254 1.255 . S
O261 Fe243 2.002 . S
O261 C257 1.295 . S
O262 Fe245 1.997 . S
O262 C257 1.235 . S
C263 O246 1.295 . S
C263 O247 1.235 . S
Fe264 O266 1.918 . S
Fe264 O269 1.997 . S
Fe264 O270 2.002 . S
Fe264 O275 1.976 . S
Fe264 O278 1.996 . S
Fe265 O266 1.918 . S
Fe265 O273 1.997 . S
Fe265 O276 1.996 . S
Fe265 O280 1.976 . S
Fe265 O283 2.002 . S
O266 Fe264 1.918 . S
O266 Fe265 1.918 . S
O266 Fe267 1.918 . S
Fe267 O266 1.918 . S
Fe267 O268 2.002 . S
Fe267 O277 1.976 . S
Fe267 O281 1.996 . S
Fe267 O284 1.997 . S
O268 Fe267 2.002 . S
O268 C285 1.295 . S
O269 Fe264 1.997 . S
O269 C285 1.235 . S
O270 Fe264 2.002 . S
O270 C271 1.295 . S
C271 O270 1.295 . S
C271 O273 1.235 . S
C272 O277 1.287 . S
C272 O278 1.255 . S
O273 Fe265 1.997 . S
O273 C271 1.235 . S
C274 O280 1.287 . S
C274 O281 1.255 . S
O275 Fe264 1.976 . S
O275 C282 1.287 . S
O276 Fe265 1.996 . S
O276 C282 1.255 . S
O277 Fe267 1.976 . S
O277 C272 1.287 . S
O278 Fe264 1.996 . S
O278 C272 1.255 . S
C279 O283 1.295 . S
C279 O284 1.235 . S
O280 Fe265 1.976 . S
O280 C274 1.287 . S
O281 Fe267 1.996 . S
O281 C274 1.255 . S
C282 O275 1.287 . S
C282 O276 1.255 . S
O283 Fe265 2.002 . S
O283 C279 1.295 . S
O284 Fe267 1.997 . S
O284 C279 1.235 . S
C285 O268 1.295 . S
C285 O269 1.235 . S
Fe286 O288 1.918 . S
Fe286 O291 1.997 . S
Fe286 O292 2.002 . S
Fe286 O297 1.976 . S
Fe286 O300 1.996 . S
Fe287 O288 1.918 . S
Fe287 O295 1.997 . S
Fe287 O298 1.996 . S
Fe287 O302 1.976 . S
Fe287 O305 2.002 . S
O288 Fe286 1.918 . S
O288 Fe287 1.918 . S
O288 Fe289 1.918 . S
Fe289 O288 1.918 . S
Fe289 O290 2.002 . S
Fe289 O299 1.976 . S
Fe289 O303 1.996 . S
Fe289 O306 1.997 . S
O290 Fe289 2.002 . S
O290 C307 1.295 . S
O291 Fe286 1.997 . S
O291 C307 1.235 . S
O292 Fe286 2.002 . S
O292 C293 1.295 . S
C293 O292 1.295 . S
C293 O295 1.235 . S
C294 O299 1.287 . S
C294 O300 1.255 . S
O295 Fe287 1.997 . S
O295 C293 1.235 . S
C296 O302 1.287 . S
C296 O303 1.255 . S
O297 Fe286 1.976 . S
O297 C304 1.287 . S
O298 Fe287 1.996 . S
O298 C304 1.255 . S
O299 Fe289 1.976 . S
O299 C294 1.287 . S
O300 Fe286 1.996 . S
O300 C294 1.255 . S
C301 O305 1.295 . S
C301 O306 1.235 . S
O302 Fe287 1.976 . S
O302 C296 1.287 . S
O303 Fe289 1.996 . S
O303 C296 1.255 . S
C304 O297 1.287 . S
C304 O298 1.255 . S
O305 Fe287 2.002 . S
O305 C301 1.295 . S
O306 Fe289 1.997 . S
O306 C301 1.235 . S
C307 O290 1.295 . S
C307 O291 1.235 . S
Fe308 O310 1.918 . S
Fe308 O313 1.997 . S
Fe308 O314 2.002 . S
Fe308 O319 1.976 . S
Fe308 O322 1.996 . S
Fe309 O310 1.918 . S
Fe309 O317 1.997 . S
Fe309 O320 1.996 . S
Fe309 O324 1.976 . S
Fe309 O327 2.002 . S
O310 Fe308 1.918 . S
O310 Fe309 1.918 . S
O310 Fe311 1.918 . S
Fe311 O310 1.918 . S
Fe311 O312 2.002 . S
Fe311 O321 1.976 . S
Fe311 O325 1.996 . S
Fe311 O328 1.997 . S
O312 Fe311 2.002 . S
O312 C329 1.295 . S
O313 Fe308 1.997 . S
O313 C329 1.235 . S
O314 Fe308 2.002 . S
O314 C315 1.295 . S
C315 O314 1.295 . S
C315 O317 1.235 . S
C316 O321 1.287 . S
C316 O322 1.255 . S
O317 Fe309 1.997 . S
O317 C315 1.235 . S
C318 O324 1.287 . S
C318 O325 1.255 . S
O319 Fe308 1.976 . S
O319 C326 1.287 . S
O320 Fe309 1.996 . S
O320 C326 1.255 . S
O321 Fe311 1.976 . S
O321 C316 1.287 . S
O322 Fe308 1.996 . S
O322 C316 1.255 . S
C323 O327 1.295 . S
C323 O328 1.235 . S
O324 Fe309 1.976 . S
O324 C318 1.287 . S
O325 Fe311 1.996 . S
O325 C318 1.255 . S
C326 O319 1.287 . S
C326 O320 1.255 . S
O327 Fe309 2.002 . S
O327 C323 1.295 . S
O328 Fe311 1.997 . S
O328 C323 1.235 . S
C329 O312 1.295 . S
C329 O313 1.235 . S
Fe330 O332 1.918 . S
Fe330 O335 1.997 . S
Fe330 O336 2.002 . S
Fe330 O341 1.976 . S
Fe330 O344 1.996 . S
Fe331 O332 1.918 . S
Fe331 O339 1.997 . S
Fe331 O342 1.996 . S
Fe331 O346 1.976 . S
Fe331 O349 2.002 . S
O332 Fe330 1.918 . S
O332 Fe331 1.918 . S
O332 Fe333 1.918 . S
Fe333 O332 1.918 . S
Fe333 O334 2.002 . S
Fe333 O343 1.976 . S
Fe333 O347 1.996 . S
Fe333 O350 1.997 . S
O334 Fe333 2.002 . S
O334 C351 1.295 . S
O335 Fe330 1.997 . S
O335 C351 1.235 . S
O336 Fe330 2.002 . S
O336 C337 1.295 . S
C337 O336 1.295 . S
C337 O339 1.235 . S
C338 O343 1.287 . S
C338 O344 1.255 . S
O339 Fe331 1.997 . S
O339 C337 1.235 . S
C340 O346 1.287 . S
C340 O347 1.255 . S
O341 Fe330 1.976 . S
O341 C348 1.287 . S
O342 Fe331 1.996 . S
O342 C348 1.255 . S
O343 Fe333 1.976 . S
O343 C338 1.287 . S
O344 Fe330 1.996 . S
O344 C338 1.255 . S
C345 O349 1.295 . S
C345 O350 1.235 . S
O346 Fe331 1.976 . S
O346 C340 1.287 . S
O347 Fe333 1.996 . S
O347 C340 1.255 . S
C348 O341 1.287 . S
C348 O342 1.255 . S
O349 Fe331 2.002 . S
O349 C345 1.295 . S
O350 Fe333 1.997 . S
O350 C345 1.235 . S
C351 O334 1.295 . S
C351 O335 1.235 . S
Fe352 O354 1.918 . S
Fe352 O357 1.997 . S
Fe352 O358 2.002 . S
Fe352 O363 1.976 . S
Fe352 O366 1.996 . S
Fe353 O354 1.918 . S
Fe353 O361 1.997 . S
Fe353 O364 1.996 . S
Fe353 O368 1.976 . S
Fe353 O371 2.002 . S
O354 Fe352 1.918 . S
O354 Fe353 1.918 . S
O354 Fe355 1.918 . S
Fe355 O354 1.918 . S
Fe355 O356 2.002 . S
Fe355 O365 1.976 . S
Fe355 O369 1.996 . S
Fe355 O372 1.997 . S
O356 Fe355 2.002 . S
O356 C373 1.295 . S
O357 Fe352 1.997 . S
O357 C373 1.235 . S
O358 Fe352 2.002 . S
O358 C359 1.295 . S
C359 O358 1.295 . S
C359 O361 1.235 . S
C360 O365 1.287 . S
C360 O366 1.255 . S
O361 Fe353 1.997 . S
O361 C359 1.235 . S
C362 O368 1.287 . S
C362 O369 1.255 . S
O363 Fe352 1.976 . S
O363 C370 1.287 . S
O364 Fe353 1.996 . S
O364 C370 1.255 . S
O365 Fe355 1.976 . S
O365 C360 1.287 . S
O366 Fe352 1.996 . S
O366 C360 1.255 . S
C367 O371 1.295 . S
C367 O372 1.235 . S
O368 Fe353 1.976 . S
O368 C362 1.287 . S
O369 Fe355 1.996 . S
O369 C362 1.255 . S
C370 O363 1.287 . S
C370 O364 1.255 . S
O371 Fe353 2.002 . S
O371 C367 1.295 . S
O372 Fe355 1.997 . S
O372 C367 1.235 . S
C373 O356 1.295 . S
C373 O357 1.235 . S
Fe374 O376 1.918 . S
Fe374 O379 1.997 . S
Fe374 O380 2.002 . S
Fe374 O385 1.976 . S
Fe374 O388 1.996 . S
Fe375 O376 1.918 . S
Fe375 O383 1.997 . S
Fe375 O386 1.996 . S
Fe375 O390 1.976 . S
Fe375 O393 2.002 . S
O376 Fe374 1.918 . S
O376 Fe375 1.918 . S
O376 Fe377 1.918 . S
Fe377 O376 1.918 . S
Fe377 O378 2.002 . S
Fe377 O387 1.976 . S
Fe377 O391 1.996 . S
Fe377 O394 1.997 . S
O378 Fe377 2.002 . S
O378 C395 1.295 . S
O379 Fe374 1.997 . S
O379 C395 1.235 . S
O380 Fe374 2.002 . S
O380 C381 1.295 . S
C381 O380 1.295 . S
C381 O383 1.235 . S
C382 O387 1.287 . S
C382 O388 1.255 . S
O383 Fe375 1.997 . S
O383 C381 1.235 . S
C384 O390 1.287 . S
C384 O391 1.255 . S
O385 Fe374 1.976 . S
O385 C392 1.287 . S
O386 Fe375 1.996 . S
O386 C392 1.255 . S
O387 Fe377 1.976 . S
O387 C382 1.287 . S
O388 Fe374 1.996 . S
O388 C382 1.255 . S
C389 O393 1.295 . S
C389 O394 1.235 . S
O390 Fe375 1.976 . S
O390 C384 1.287 . S
O391 Fe377 1.996 . S
O391 C384 1.255 . S
C392 O385 1.287 . S
C392 O386 1.255 . S
O393 Fe375 2.002 . S
O393 C389 1.295 . S
O394 Fe377 1.997 . S
O394 C389 1.235 . S
C395 O378 1.295 . S
C395 O379 1.235 . S
Fe396 O398 1.918 . S
Fe396 O401 1.997 . S
Fe396 O402 2.002 . S
Fe396 O407 1.976 . S
Fe396 O410 1.996 . S
Fe397 O398 1.918 . S
Fe397 O405 1.997 . S
Fe397 O408 1.996 . S
Fe397 O412 1.976 . S
Fe397 O415 2.002 . S
O398 Fe396 1.918 . S
O398 Fe397 1.918 . S
O398 Fe399 1.918 . S
Fe399 O398 1.918 . S
Fe399 O400 2.002 . S
Fe399 O409 1.976 . S
Fe399 O413 1.996 . S
Fe399 O416 1.997 . S
O400 Fe399 2.002 . S
O400 C417 1.295 . S
O401 Fe396 1.997 . S
O401 C417 1.235 . S
O402 Fe396 2.002 . S
O402 C403 1.295 . S
C403 O402 1.295 . S
C403 O405 1.235 . S
C404 O409 1.287 . S
C404 O410 1.255 . S
O405 Fe397 1.997 . S
O405 C403 1.235 . S
C406 O412 1.287 . S
C406 O413 1.255 . S
O407 Fe396 1.976 . S
O407 C414 1.287 . S
O408 Fe397 1.996 . S
O408 C414 1.255 . S
O409 Fe399 1.976 . S
O409 C404 1.287 . S
O410 Fe396 1.996 . S
O410 C404 1.255 . S
C411 O415 1.295 . S
C411 O416 1.235 . S
O412 Fe397 1.976 . S
O412 C406 1.287 . S
O413 Fe399 1.996 . S
O413 C406 1.255 . S
C414 O407 1.287 . S
C414 O408 1.255 . S
O415 Fe397 2.002 . S
O415 C411 1.295 . S
O416 Fe399 1.997 . S
O416 C411 1.235 . S
C417 O400 1.295 . S
C417 O401 1.235 . S
Fe418 O420 1.918 . S
Fe418 O423 1.997 . S
Fe418 O424 2.002 . S
Fe418 O429 1.976 . S
Fe418 O432 1.996 . S
Fe419 O420 1.918 . S
Fe419 O427 1.997 . S
Fe419 O430 1.996 . S
Fe419 O434 1.976 . S
Fe419 O437 2.002 . S
O420 Fe418 1.918 . S
O420 Fe419 1.918 . S
O420 Fe421 1.918 . S
Fe421 O420 1.918 . S
Fe421 O422 2.002 . S
Fe421 O431 1.976 . S
Fe421 O435 1.996 . S
Fe421 O438 1.997 . S
O422 Fe421 2.002 . S
O422 C439 1.295 . S
O423 Fe418 1.997 . S
O423 C439 1.235 . S
O424 Fe418 2.002 . S
O424 C425 1.295 . S
C425 O424 1.295 . S
C425 O427 1.235 . S
C426 O431 1.287 . S
C426 O432 1.255 . S
O427 Fe419 1.997 . S
O427 C425 1.235 . S
C428 O434 1.287 . S
C428 O435 1.255 . S
O429 Fe418 1.976 . S
O429 C436 1.287 . S
O430 Fe419 1.996 . S
O430 C436 1.255 . S
O431 Fe421 1.976 . S
O431 C426 1.287 . S
O432 Fe418 1.996 . S
O432 C426 1.255 . S
C433 O437 1.295 . S
C433 O438 1.235 . S
O434 Fe419 1.976 . S
O434 C428 1.287 . S
O435 Fe421 1.996 . S
O435 C428 1.255 . S
C436 O429 1.287 . S
C436 O430 1.255 . S
O437 Fe419 2.002 . S
O437 C433 1.295 . S
O438 Fe421 1.997 . S
O438 C433 1.235 . S
C439 O422 1.295 . S
C439 O423 1.235 . S
Fe440 O442 1.918 . S
Fe440 O445 1.997 . S
Fe440 O446 2.002 . S
Fe440 O451 1.976 . S
Fe440 O454 1.996 . S
Fe441 O442 1.918 . S
Fe441 O449 1.997 . S
Fe441 O452 1.996 . S
Fe441 O456 1.976 . S
Fe441 O459 2.002 . S
O442 Fe440 1.918 . S
O442 Fe441 1.918 . S
O442 Fe443 1.918 . S
Fe443 O442 1.918 . S
Fe443 O444 2.002 . S
Fe443 O453 1.976 . S
Fe443 O457 1.996 . S
Fe443 O460 1.997 . S
O444 Fe443 2.002 . S
O444 C461 1.295 . S
O445 Fe440 1.997 . S
O445 C461 1.235 . S
O446 Fe440 2.002 . S
O446 C447 1.295 . S
C447 O446 1.295 . S
C447 O449 1.235 . S
C448 O453 1.287 . S
C448 O454 1.255 . S
O449 Fe441 1.997 . S
O449 C447 1.235 . S
C450 O456 1.287 . S
C450 O457 1.255 . S
O451 Fe440 1.976 . S
O451 C458 1.287 . S
O452 Fe441 1.996 . S
O452 C458 1.255 . S
O453 Fe443 1.976 . S
O453 C448 1.287 . S
O454 Fe440 1.996 . S
O454 C448 1.255 . S
C455 O459 1.295 . S
C455 O460 1.235 . S
O456 Fe441 1.976 . S
O456 C450 1.287 . S
O457 Fe443 1.996 . S
O457 C450 1.255 . S
C458 O451 1.287 . S
C458 O452 1.255 . S
O459 Fe441 2.002 . S
O459 C455 1.295 . S
O460 Fe443 1.997 . S
O460 C455 1.235 . S
C461 O444 1.295 . S
C461 O445 1.235 . S
Fe462 O464 1.918 . S
Fe462 O467 1.997 . S
Fe462 O468 2.002 . S
Fe462 O473 1.976 . S
Fe462 O476 1.996 . S
Fe463 O464 1.918 . S
Fe463 O471 1.997 . S
Fe463 O474 1.996 . S
Fe463 O478 1.976 . S
Fe463 O481 2.002 . S
O464 Fe462 1.918 . S
O464 Fe463 1.918 . S
O464 Fe465 1.918 . S
Fe465 O464 1.918 . S
Fe465 O466 2.002 . S
Fe465 O475 1.976 . S
Fe465 O479 1.996 . S
Fe465 O482 1.997 . S
O466 Fe465 2.002 . S
O466 C483 1.295 . S
O467 Fe462 1.997 . S
O467 C483 1.235 . S
O468 Fe462 2.002 . S
O468 C469 1.295 . S
C469 O468 1.295 . S
C469 O471 1.235 . S
C470 O475 1.287 . S
C470 O476 1.255 . S
O471 Fe463 1.997 . S
O471 C469 1.235 . S
C472 O478 1.287 . S
C472 O479 1.255 . S
O473 Fe462 1.976 . S
O473 C480 1.287 . S
O474 Fe463 1.996 . S
O474 C480 1.255 . S
O475 Fe465 1.976 . S
O475 C470 1.287 . S
O476 Fe462 1.996 . S
O476 C470 1.255 . S
C477 O481 1.295 . S
C477 O482 1.235 . S
O478 Fe463 1.976 . S
O478 C472 1.287 . S
O479 Fe465 1.996 . S
O479 C472 1.255 . S
C480 O473 1.287 . S
C480 O474 1.255 . S
O481 Fe463 2.002 . S
O481 C477 1.295 . S
O482 Fe465 1.997 . S
O482 C477 1.235 . S
C483 O466 1.295 . S
C483 O467 1.235 . S
Fe484 O486 1.918 . S
Fe484 O489 1.997 . S
Fe484 O490 2.002 . S
Fe484 O495 1.976 . S
Fe484 O498 1.996 . S
Fe485 O486 1.918 . S
Fe485 O493 1.997 . S
Fe485 O496 1.996 . S
Fe485 O500 1.976 . S
Fe485 O503 2.002 . S
O486 Fe484 1.918 . S
O486 Fe485 1.918 . S
O486 Fe487 1.918 . S
Fe487 O486 1.918 . S
Fe487 O488 2.002 . S
Fe487 O497 1.976 . S
Fe487 O501 1.996 . S
Fe487 O504 1.997 . S
O488 Fe487 2.002 . S
O488 C505 1.295 . S
O489 Fe484 1.997 . S
O489 C505 1.235 . S
O490 Fe484 2.002 . S
O490 C491 1.295 . S
C491 O490 1.295 . S
C491 O493 1.235 . S
C492 O497 1.287 . S
C492 O498 1.255 . S
O493 Fe485 1.997 . S
O493 C491 1.235 . S
C494 O500 1.287 . S
C494 O501 1.255 . S
O495 Fe484 1.976 . S
O495 C502 1.287 . S
O496 Fe485 1.996 . S
O496 C502 1.255 . S
O497 Fe487 1.976 . S
O497 C492 1.287 . S
O498 Fe484 1.996 . S
O498 C492 1.255 . S
C499 O503 1.295 . S
C499 O504 1.235 . S
O500 Fe485 1.976 . S
O500 C494 1.287 . S
O501 Fe487 1.996 . S
O501 C494 1.255 . S
C502 O495 1.287 . S
C502 O496 1.255 . S
O503 Fe485 2.002 . S
O503 C499 1.295 . S
O504 Fe487 1.997 . S
O504 C499 1.235 . S
C505 O488 1.295 . S
C505 O489 1.235 . S
Fe506 O508 1.918 . S
Fe506 O511 1.997 . S
Fe506 O512 2.002 . S
Fe506 O517 1.976 . S
Fe506 O520 1.996 . S
Fe507 O508 1.918 . S
Fe507 O515 1.997 . S
Fe507 O518 1.996 . S
Fe507 O522 1.976 . S
Fe507 O525 2.002 . S
O508 Fe506 1.918 . S
O508 Fe507 1.918 . S
O508 Fe509 1.918 . S
Fe509 O508 1.918 . S
Fe509 O510 2.002 . S
Fe509 O519 1.976 . S
Fe509 O523 1.996 . S
Fe509 O526 1.997 . S
O510 Fe509 2.002 . S
O510 C527 1.295 . S
O511 Fe506 1.997 . S
O511 C527 1.235 . S
O512 Fe506 2.002 . S
O512 C513 1.295 . S
C513 O512 1.295 . S
C513 O515 1.235 . S
C514 O519 1.287 . S
C514 O520 1.255 . S
O515 Fe507 1.997 . S
O515 C513 1.235 . S
C516 O522 1.287 . S
C516 O523 1.255 . S
O517 Fe506 1.976 . S
O517 C524 1.287 . S
O518 Fe507 1.996 . S
O518 C524 1.255 . S
O519 Fe509 1.976 . S
O519 C514 1.287 . S
O520 Fe506 1.996 . S
O520 C514 1.255 . S
C521 O525 1.295 . S
C521 O526 1.235 . S
O522 Fe507 1.976 . S
O522 C516 1.287 . S
O523 Fe509 1.996 . S
O523 C516 1.255 . S
C524 O517 1.287 . S
C524 O518 1.255 . S
O525 Fe507 2.002 . S
O525 C521 1.295 . S
O526 Fe509 1.997 . S
O526 C521 1.235 . S
C527 O510 1.295 . S
C527 O511 1.235 . S
H528 C534 0.930 . S
H529 C537 0.930 . S
H530 C538 0.930 . S
H531 C539 0.930 . S
H532 C542 0.930 . S
H533 C543 0.930 . S
C534 H528 0.930 . S
C534 C535 1.355 . S
C534 C536 1.415 . S
C535 C534 1.355 . S
C535 C537 1.419 . S
C536 C534 1.415 . S
C536 C541 1.425 . S
C536 C543 1.409 . S
C537 H529 0.930 . S
C537 C535 1.419 . S
C537 C538 1.362 . S
C538 H530 0.930 . S
C538 C537 1.362 . S
C538 C541 1.409 . S
C539 H531 0.930 . S
C539 C540 1.355 . S
C539 C541 1.415 . S
C540 C539 1.355 . S
C540 C542 1.419 . S
C541 C536 1.425 . S
C541 C538 1.409 . S
C541 C539 1.415 . S
C542 H532 0.930 . S
C542 C540 1.419 . S
C542 C543 1.362 . S
C543 H533 0.930 . S
C543 C536 1.409 . S
C543 C542 1.362 . S
H544 C550 0.930 . S
H545 C553 0.930 . S
H546 C554 0.930 . S
H547 C555 0.930 . S
H548 C558 0.930 . S
H549 C559 0.930 . S
C550 H544 0.930 . S
C550 C551 1.355 . S
C550 C552 1.415 . S
C551 C550 1.355 . S
C551 C553 1.419 . S
C552 C550 1.415 . S
C552 C557 1.425 . S
C552 C559 1.409 . S
C553 H545 0.930 . S
C553 C551 1.419 . S
C553 C554 1.362 . S
C554 H546 0.930 . S
C554 C553 1.362 . S
C554 C557 1.409 . S
C555 H547 0.930 . S
C555 C556 1.355 . S
C555 C557 1.415 . S
C556 C555 1.355 . S
C556 C558 1.419 . S
C557 C552 1.425 . S
C557 C554 1.409 . S
C557 C555 1.415 . S
C558 H548 0.930 . S
C558 C556 1.419 . S
C558 C559 1.362 . S
C559 H549 0.930 . S
C559 C552 1.409 . S
C559 C558 1.362 . S
H560 C566 0.930 . S
H561 C569 0.930 . S
H562 C570 0.930 . S
H563 C571 0.930 . S
H564 C574 0.930 . S
H565 C575 0.930 . S
C566 H560 0.930 . S
C566 C567 1.355 . S
C566 C568 1.415 . S
C567 C566 1.355 . S
C567 C569 1.419 . S
C568 C566 1.415 . S
C568 C573 1.425 . S
C568 C575 1.409 . S
C569 H561 0.930 . S
C569 C567 1.419 . S
C569 C570 1.362 . S
C570 H562 0.930 . S
C570 C569 1.362 . S
C570 C573 1.409 . S
C571 H563 0.930 . S
C571 C572 1.355 . S
C571 C573 1.415 . S
C572 C571 1.355 . S
C572 C574 1.419 . S
C573 C568 1.425 . S
C573 C570 1.409 . S
C573 C571 1.415 . S
C574 H564 0.930 . S
C574 C572 1.419 . S
C574 C575 1.362 . S
C575 H565 0.930 . S
C575 C568 1.409 . S
C575 C574 1.362 . S
H576 C582 0.930 . S
H577 C585 0.930 . S
H578 C586 0.930 . S
H579 C587 0.930 . S
H580 C590 0.930 . S
H581 C591 0.930 . S
C582 H576 0.930 . S
C582 C583 1.355 . S
C582 C584 1.415 . S
C583 C582 1.355 . S
C583 C585 1.419 . S
C584 C582 1.415 . S
C584 C589 1.425 . S
C584 C591 1.409 . S
C585 H577 0.930 . S
C585 C583 1.419 . S
C585 C586 1.362 . S
C586 H578 0.930 . S
C586 C585 1.362 . S
C586 C589 1.409 . S
C587 H579 0.930 . S
C587 C588 1.355 . S
C587 C589 1.415 . S
C588 C587 1.355 . S
C588 C590 1.419 . S
C589 C584 1.425 . S
C589 C586 1.409 . S
C589 C587 1.415 . S
C590 H580 0.930 . S
C590 C588 1.419 . S
C590 C591 1.362 . S
C591 H581 0.930 . S
C591 C584 1.409 . S
C591 C590 1.362 . S
H592 C598 0.930 . S
H593 C601 0.930 . S
H594 C602 0.930 . S
H595 C603 0.930 . S
H596 C606 0.930 . S
H597 C607 0.930 . S
C598 H592 0.930 . S
C598 C599 1.355 . S
C598 C600 1.415 . S
C599 C598 1.355 . S
C599 C601 1.419 . S
C600 C598 1.415 . S
C600 C605 1.425 . S
C600 C607 1.409 . S
C601 H593 0.930 . S
C601 C599 1.419 . S
C601 C602 1.362 . S
C602 H594 0.930 . S
C602 C601 1.362 . S
C602 C605 1.409 . S
C603 H595 0.930 . S
C603 C604 1.355 . S
C603 C605 1.415 . S
C604 C603 1.355 . S
C604 C606 1.419 . S
C605 C600 1.425 . S
C605 C602 1.409 . S
C605 C603 1.415 . S
C606 H596 0.930 . S
C606 C604 1.419 . S
C606 C607 1.362 . S
C607 H597 0.930 . S
C607 C600 1.409 . S
C607 C606 1.362 . S
H608 C614 0.930 . S
H609 C617 0.930 . S
H610 C618 0.930 . S
H611 C619 0.930 . S
H612 C622 0.930 . S
H613 C623 0.930 . S
C614 H608 0.930 . S
C614 C615 1.355 . S
C614 C616 1.415 . S
C615 C614 1.355 . S
C615 C617 1.419 . S
C616 C614 1.415 . S
C616 C621 1.425 . S
C616 C623 1.409 . S
C617 H609 0.930 . S
C617 C615 1.419 . S
C617 C618 1.362 . S
C618 H610 0.930 . S
C618 C617 1.362 . S
C618 C621 1.409 . S
C619 H611 0.930 . S
C619 C620 1.355 . S
C619 C621 1.415 . S
C620 C619 1.355 . S
C620 C622 1.419 . S
C621 C616 1.425 . S
C621 C618 1.409 . S
C621 C619 1.415 . S
C622 H612 0.930 . S
C622 C620 1.419 . S
C622 C623 1.362 . S
C623 H613 0.930 . S
C623 C616 1.409 . S
C623 C622 1.362 . S
H624 C630 0.930 . S
H625 C633 0.930 . S
H626 C634 0.930 . S
H627 C635 0.930 . S
H628 C638 0.930 . S
H629 C639 0.930 . S
C630 H624 0.930 . S
C630 C631 1.355 . S
C630 C632 1.415 . S
C631 C630 1.355 . S
C631 C633 1.419 . S
C632 C630 1.415 . S
C632 C637 1.425 . S
C632 C639 1.409 . S
C633 H625 0.930 . S
C633 C631 1.419 . S
C633 C634 1.362 . S
C634 H626 0.930 . S
C634 C633 1.362 . S
C634 C637 1.409 . S
C635 H627 0.930 . S
C635 C636 1.355 . S
C635 C637 1.415 . S
C636 C635 1.355 . S
C636 C638 1.419 . S
C637 C632 1.425 . S
C637 C634 1.409 . S
C637 C635 1.415 . S
C638 H628 0.930 . S
C638 C636 1.419 . S
C638 C639 1.362 . S
C639 H629 0.930 . S
C639 C632 1.409 . S
C639 C638 1.362 . S
H640 C646 0.930 . S
H641 C649 0.930 . S
H642 C650 0.930 . S
H643 C651 0.930 . S
H644 C654 0.930 . S
H645 C655 0.930 . S
C646 H640 0.930 . S
C646 C647 1.355 . S
C646 C648 1.415 . S
C647 C646 1.355 . S
C647 C649 1.419 . S
C648 C646 1.415 . S
C648 C653 1.425 . S
C648 C655 1.409 . S
C649 H641 0.930 . S
C649 C647 1.419 . S
C649 C650 1.362 . S
C650 H642 0.930 . S
C650 C649 1.362 . S
C650 C653 1.409 . S
C651 H643 0.930 . S
C651 C652 1.355 . S
C651 C653 1.415 . S
C652 C651 1.355 . S
C652 C654 1.419 . S
C653 C648 1.425 . S
C653 C650 1.409 . S
C653 C651 1.415 . S
C654 H644 0.930 . S
C654 C652 1.419 . S
C654 C655 1.362 . S
C655 H645 0.930 . S
C655 C648 1.409 . S
C655 C654 1.362 . S
H656 C662 0.930 . S
H657 C665 0.930 . S
H658 C666 0.930 . S
H659 C667 0.930 . S
H660 C670 0.930 . S
H661 C671 0.930 . S
C662 H656 0.930 . S
C662 C663 1.355 . S
C662 C664 1.415 . S
C663 C662 1.355 . S
C663 C665 1.419 . S
C664 C662 1.415 . S
C664 C669 1.425 . S
C664 C671 1.409 . S
C665 H657 0.930 . S
C665 C663 1.419 . S
C665 C666 1.362 . S
C666 H658 0.930 . S
C666 C665 1.362 . S
C666 C669 1.409 . S
C667 H659 0.930 . S
C667 C668 1.355 . S
C667 C669 1.415 . S
C668 C667 1.355 . S
C668 C670 1.419 . S
C669 C664 1.425 . S
C669 C666 1.409 . S
C669 C667 1.415 . S
C670 H660 0.930 . S
C670 C668 1.419 . S
C670 C671 1.362 . S
C671 H661 0.930 . S
C671 C664 1.409 . S
C671 C670 1.362 . S
H672 C678 0.930 . S
H673 C681 0.930 . S
H674 C682 0.930 . S
H675 C683 0.930 . S
H676 C686 0.930 . S
H677 C687 0.930 . S
C678 H672 0.930 . S
C678 C679 1.355 . S
C678 C680 1.415 . S
C679 C678 1.355 . S
C679 C681 1.419 . S
C680 C678 1.415 . S
C680 C685 1.425 . S
C680 C687 1.409 . S
C681 H673 0.930 . S
C681 C679 1.419 . S
C681 C682 1.362 . S
C682 H674 0.930 . S
C682 C681 1.362 . S
C682 C685 1.409 . S
C683 H675 0.930 . S
C683 C684 1.355 . S
C683 C685 1.415 . S
C684 C683 1.355 . S
C684 C686 1.419 . S
C685 C680 1.425 . S
C685 C682 1.409 . S
C685 C683 1.415 . S
C686 H676 0.930 . S
C686 C684 1.419 . S
C686 C687 1.362 . S
C687 H677 0.930 . S
C687 C680 1.409 . S
C687 C686 1.362 . S
H688 C694 0.930 . S
H689 C697 0.930 . S
H690 C698 0.930 . S
H691 C699 0.930 . S
H692 C702 0.930 . S
H693 C703 0.930 . S
C694 H688 0.930 . S
C694 C695 1.355 . S
C694 C696 1.415 . S
C695 C694 1.355 . S
C695 C697 1.419 . S
C696 C694 1.415 . S
C696 C701 1.425 . S
C696 C703 1.409 . S
C697 H689 0.930 . S
C697 C695 1.419 . S
C697 C698 1.362 . S
C698 H690 0.930 . S
C698 C697 1.362 . S
C698 C701 1.409 . S
C699 H691 0.930 . S
C699 C700 1.355 . S
C699 C701 1.415 . S
C700 C699 1.355 . S
C700 C702 1.419 . S
C701 C696 1.425 . S
C701 C698 1.409 . S
C701 C699 1.415 . S
C702 H692 0.930 . S
C702 C700 1.419 . S
C702 C703 1.362 . S
C703 H693 0.930 . S
C703 C696 1.409 . S
C703 C702 1.362 . S
H704 C710 0.930 . S
H705 C713 0.930 . S
H706 C714 0.930 . S
H707 C715 0.930 . S
H708 C718 0.930 . S
H709 C719 0.930 . S
C710 H704 0.930 . S
C710 C711 1.355 . S
C710 C712 1.415 . S
C711 C710 1.355 . S
C711 C713 1.419 . S
C712 C710 1.415 . S
C712 C717 1.425 . S
C712 C719 1.409 . S
C713 H705 0.930 . S
C713 C711 1.419 . S
C713 C714 1.362 . S
C714 H706 0.930 . S
C714 C713 1.362 . S
C714 C717 1.409 . S
C715 H707 0.930 . S
C715 C716 1.355 . S
C715 C717 1.415 . S
C716 C715 1.355 . S
C716 C718 1.419 . S
C717 C712 1.425 . S
C717 C714 1.409 . S
C717 C715 1.415 . S
C718 H708 0.930 . S
C718 C716 1.419 . S
C718 C719 1.362 . S
C719 H709 0.930 . S
C719 C712 1.409 . S
C719 C718 1.362 . S
H720 C726 0.930 1_565 S
H721 C729 0.930 . S
H722 C730 0.930 . S
H723 C731 0.930 1_545 S
H724 C734 0.930 . S
H725 C735 0.930 . S
C726 H720 0.930 1_545 S
C726 C727 1.355 . S
C726 C728 1.415 1_545 S
C727 C726 1.355 . S
C727 C729 1.419 . S
C728 C726 1.415 1_565 S
C728 C733 1.425 1_565 S
C728 C735 1.409 . S
C729 H721 0.930 . S
C729 C727 1.419 . S
C729 C730 1.362 . S
C730 H722 0.930 . S
C730 C729 1.362 . S
C730 C733 1.409 . S
C731 H723 0.930 1_565 S
C731 C732 1.355 . S
C731 C733 1.415 1_565 S
C732 C731 1.355 . S
C732 C734 1.419 . S
C733 C728 1.425 1_545 S
C733 C730 1.409 . S
C733 C731 1.415 1_545 S
C734 H724 0.930 . S
C734 C732 1.419 . S
C734 C735 1.362 . S
C735 H725 0.930 . S
C735 C728 1.409 . S
C735 C734 1.362 . S
H736 C742 0.930 . S
H737 C745 0.930 . S
H738 C746 0.930 . S
H739 C747 0.930 . S
H740 C750 0.930 . S
H741 C751 0.930 . S
C742 H736 0.930 . S
C742 C743 1.355 . S
C742 C744 1.415 . S
C743 C742 1.355 . S
C743 C745 1.419 . S
C744 C742 1.415 . S
C744 C749 1.425 . S
C744 C751 1.409 . S
C745 H737 0.930 . S
C745 C743 1.419 . S
C745 C746 1.362 . S
C746 H738 0.930 . S
C746 C745 1.362 . S
C746 C749 1.409 . S
C747 H739 0.930 . S
C747 C748 1.355 . S
C747 C749 1.415 . S
C748 C747 1.355 . S
C748 C750 1.419 . S
C749 C744 1.425 . S
C749 C746 1.409 . S
C749 C747 1.415 . S
C750 H740 0.930 . S
C750 C748 1.419 . S
C750 C751 1.362 . S
C751 H741 0.930 . S
C751 C744 1.409 . S
C751 C750 1.362 . S
H752 C758 0.930 . S
H753 C761 0.931 1_455 S
H754 C762 0.930 . S
H755 C763 0.930 . S
H756 C766 0.931 1_655 S
H757 C767 0.930 . S
C758 H752 0.930 . S
C758 C759 1.355 . S
C758 C760 1.415 . S
C759 C758 1.355 . S
C759 C761 1.418 . S
C760 C758 1.415 . S
C760 C765 1.425 1_655 S
C760 C767 1.409 . S
C761 H753 0.931 1_655 S
C761 C759 1.418 . S
C761 C762 1.363 1_655 S
C762 H754 0.930 . S
C762 C761 1.363 1_455 S
C762 C765 1.409 . S
C763 H755 0.930 . S
C763 C764 1.355 . S
C763 C765 1.415 . S
C764 C763 1.355 . S
C764 C766 1.418 . S
C765 C760 1.425 1_455 S
C765 C762 1.409 . S
C765 C763 1.415 . S
C766 H756 0.931 1_455 S
C766 C764 1.418 . S
C766 C767 1.363 1_455 S
C767 H757 0.930 . S
C767 C760 1.409 . S
C767 C766 1.363 1_655 S
H768 C774 0.930 1_455 S
H769 C777 0.930 . S
H770 C778 0.930 . S
H771 C779 0.930 1_655 S
H772 C782 0.930 . S
H773 C783 0.930 . S
C774 H768 0.930 1_655 S
C774 C775 1.355 . S
C774 C776 1.415 1_655 S
C775 C774 1.355 . S
C775 C777 1.419 . S
C776 C774 1.415 1_455 S
C776 C781 1.425 1_455 S
C776 C783 1.409 . S
C777 H769 0.930 . S
C777 C775 1.419 . S
C777 C778 1.362 . S
C778 H770 0.930 . S
C778 C777 1.362 . S
C778 C781 1.409 . S
C779 H771 0.930 1_455 S
C779 C780 1.355 . S
C779 C781 1.415 1_455 S
C780 C779 1.355 . S
C780 C782 1.419 . S
C781 C776 1.425 1_655 S
C781 C778 1.409 . S
C781 C779 1.415 1_655 S
C782 H772 0.930 . S
C782 C780 1.419 . S
C782 C783 1.362 . S
C783 H773 0.930 . S
C783 C776 1.409 . S
C783 C782 1.362 . S
H784 C790 0.930 1_545 S
H785 C793 0.930 . S
H786 C794 0.930 . S
H787 C795 0.930 1_565 S
H788 C798 0.930 . S
H789 C799 0.930 . S
C790 H784 0.930 1_565 S
C790 C791 1.355 . S
C790 C792 1.415 1_565 S
C791 C790 1.355 . S
C791 C793 1.419 . S
C792 C790 1.415 1_545 S
C792 C797 1.425 1_545 S
C792 C799 1.409 . S
C793 H785 0.930 . S
C793 C791 1.419 . S
C793 C794 1.362 . S
C794 H786 0.930 . S
C794 C793 1.362 . S
C794 C797 1.409 . S
C795 H787 0.930 1_545 S
C795 C796 1.355 . S
C795 C797 1.415 1_545 S
C796 C795 1.355 . S
C796 C798 1.419 . S
C797 C792 1.425 1_565 S
C797 C794 1.409 . S
C797 C795 1.415 1_565 S
C798 H788 0.930 . S
C798 C796 1.419 . S
C798 C799 1.362 . S
C799 H789 0.930 . S
C799 C792 1.409 . S
C799 C798 1.362 . S
H800 C806 0.930 . S
H801 C809 0.930 . S
H802 C810 0.930 . S
H803 C811 0.930 . S
H804 C814 0.930 . S
H805 C815 0.930 . S
C806 H800 0.930 . S
C806 C807 1.355 . S
C806 C808 1.415 . S
C807 C806 1.355 . S
C807 C809 1.419 . S
C808 C806 1.415 . S
C808 C813 1.425 . S
C808 C815 1.409 . S
C809 H801 0.930 . S
C809 C807 1.419 . S
C809 C810 1.362 . S
C810 H802 0.930 . S
C810 C809 1.362 . S
C810 C813 1.409 . S
C811 H803 0.930 . S
C811 C812 1.355 . S
C811 C813 1.415 . S
C812 C811 1.355 . S
C812 C814 1.419 . S
C813 C808 1.425 . S
C813 C810 1.409 . S
C813 C811 1.415 . S
C814 H804 0.930 . S
C814 C812 1.419 . S
C814 C815 1.362 . S
C815 H805 0.930 . S
C815 C808 1.409 . S
C815 C814 1.362 . S
H816 C822 0.930 1_565 S
H817 C825 0.930 . S
H818 C826 0.930 . S
H819 C827 0.930 1_545 S
H820 C830 0.930 . S
H821 C831 0.930 . S
C822 H816 0.930 1_545 S
C822 C823 1.355 . S
C822 C824 1.415 1_545 S
C823 C822 1.355 . S
C823 C825 1.419 . S
C824 C822 1.415 1_565 S
C824 C829 1.425 1_565 S
C824 C831 1.409 . S
C825 H817 0.930 . S
C825 C823 1.419 . S
C825 C826 1.362 . S
C826 H818 0.930 . S
C826 C825 1.362 . S
C826 C829 1.409 . S
C827 H819 0.930 1_565 S
C827 C828 1.355 . S
C827 C829 1.415 1_565 S
C828 C827 1.355 . S
C828 C830 1.419 . S
C829 C824 1.425 1_545 S
C829 C826 1.409 . S
C829 C827 1.415 1_545 S
C830 H820 0.930 . S
C830 C828 1.419 . S
C830 C831 1.362 . S
C831 H821 0.930 . S
C831 C824 1.409 . S
C831 C830 1.362 . S
H832 C838 0.930 . S
H833 C841 0.930 . S
H834 C842 0.930 . S
H835 C843 0.930 . S
H836 C846 0.930 . S
H837 C847 0.930 . S
C838 H832 0.930 . S
C838 C839 1.355 . S
C838 C840 1.415 . S
C839 C838 1.355 . S
C839 C841 1.419 . S
C840 C838 1.415 . S
C840 C845 1.425 . S
C840 C847 1.409 . S
C841 H833 0.930 . S
C841 C839 1.419 . S
C841 C842 1.362 . S
C842 H834 0.930 . S
C842 C841 1.362 . S
C842 C845 1.409 . S
C843 H835 0.930 . S
C843 C844 1.355 . S
C843 C845 1.415 . S
C844 C843 1.355 . S
C844 C846 1.419 . S
C845 C840 1.425 . S
C845 C842 1.409 . S
C845 C843 1.415 . S
C846 H836 0.930 . S
C846 C844 1.419 . S
C846 C847 1.362 . S
C847 H837 0.930 . S
C847 C840 1.409 . S
C847 C846 1.362 . S
H848 C854 0.930 . S
H849 C857 0.930 . S
H850 C858 0.930 . S
H851 C859 0.930 . S
H852 C862 0.930 . S
H853 C863 0.930 . S
C854 H848 0.930 . S
C854 C855 1.355 . S
C854 C856 1.415 . S
C855 C854 1.355 . S
C855 C857 1.419 1_655 S
C856 C854 1.415 . S
C856 C861 1.425 1_655 S
C856 C863 1.409 . S
C857 H849 0.930 . S
C857 C855 1.419 1_455 S
C857 C858 1.362 . S
C858 H850 0.930 . S
C858 C857 1.362 . S
C858 C861 1.409 . S
C859 H851 0.930 . S
C859 C860 1.355 . S
C859 C861 1.415 . S
C860 C859 1.355 . S
C860 C862 1.419 1_455 S
C861 C856 1.425 1_455 S
C861 C858 1.409 . S
C861 C859 1.415 . S
C862 H852 0.930 . S
C862 C860 1.419 1_655 S
C862 C863 1.362 . S
C863 H853 0.930 . S
C863 C856 1.409 . S
C863 C862 1.362 . S
H864 C870 0.930 . S
H865 C873 0.930 . S
H866 C874 0.930 . S
H867 C875 0.930 . S
H868 C878 0.930 . S
H869 C879 0.930 . S
C870 H864 0.930 . S
C870 C871 1.355 . S
C870 C872 1.415 . S
C871 C870 1.355 . S
C871 C873 1.419 1_455 S
C872 C870 1.415 . S
C872 C877 1.425 1_455 S
C872 C879 1.409 . S
C873 H865 0.930 . S
C873 C871 1.419 1_655 S
C873 C874 1.362 . S
C874 H866 0.930 . S
C874 C873 1.362 . S
C874 C877 1.409 . S
C875 H867 0.930 . S
C875 C876 1.355 . S
C875 C877 1.415 . S
C876 C875 1.355 . S
C876 C878 1.419 1_655 S
C877 C872 1.425 1_655 S
C877 C874 1.409 . S
C877 C875 1.415 . S
C878 H868 0.930 . S
C878 C876 1.419 1_455 S
C878 C879 1.362 . S
C879 H869 0.930 . S
C879 C872 1.409 . S
C879 C878 1.362 . S
H880 C886 0.930 . S
H881 C889 0.930 . S
H882 C890 0.930 . S
H883 C891 0.930 . S
H884 C894 0.930 . S
H885 C895 0.930 . S
C886 H880 0.930 . S
C886 C887 1.355 . S
C886 C888 1.415 . S
C887 C886 1.355 . S
C887 C889 1.419 . S
C888 C886 1.415 . S
C888 C893 1.425 1_545 S
C888 C895 1.409 1_545 S
C889 H881 0.930 . S
C889 C887 1.419 . S
C889 C890 1.362 . S
C890 H882 0.930 . S
C890 C889 1.362 . S
C890 C893 1.409 1_545 S
C891 H883 0.930 . S
C891 C892 1.355 . S
C891 C893 1.415 . S
C892 C891 1.355 . S
C892 C894 1.419 . S
C893 C888 1.425 1_565 S
C893 C890 1.409 1_565 S
C893 C891 1.415 . S
C894 H884 0.930 . S
C894 C892 1.419 . S
C894 C895 1.362 . S
C895 H885 0.930 . S
C895 C888 1.409 1_565 S
C895 C894 1.362 . S
H896 C902 0.930 . S
H897 C905 0.930 . S
H898 C906 0.930 . S
H899 C907 0.930 . S
H900 C910 0.930 . S
H901 C911 0.930 . S
C902 H896 0.930 . S
C902 C903 1.355 . S
C902 C904 1.415 . S
C903 C902 1.355 . S
C903 C905 1.419 . S
C904 C902 1.415 . S
C904 C909 1.425 . S
C904 C911 1.409 . S
C905 H897 0.930 . S
C905 C903 1.419 . S
C905 C906 1.362 . S
C906 H898 0.930 . S
C906 C905 1.362 . S
C906 C909 1.409 . S
C907 H899 0.930 . S
C907 C908 1.355 . S
C907 C909 1.415 . S
C908 C907 1.355 . S
C908 C910 1.419 . S
C909 C904 1.425 . S
C909 C906 1.409 . S
C909 C907 1.415 . S
C910 H900 0.930 . S
C910 C908 1.419 . S
C910 C911 1.362 . S
C911 H901 0.930 . S
C911 C904 1.409 . S
C911 C910 1.362 . S
H912 C918 0.930 . S
H913 C921 0.930 . S
H914 C922 0.930 . S
H915 C923 0.930 . S
H916 C926 0.930 . S
H917 C927 0.930 . S
C918 H912 0.930 . S
C918 C919 1.355 . S
C918 C920 1.415 . S
C919 C918 1.355 . S
C919 C921 1.419 . S
C920 C918 1.415 . S
C920 C925 1.425 . S
C920 C927 1.409 . S
C921 H913 0.930 . S
C921 C919 1.419 . S
C921 C922 1.362 . S
C922 H914 0.930 . S
C922 C921 1.362 . S
C922 C925 1.409 . S
C923 H915 0.930 . S
C923 C924 1.355 . S
C923 C925 1.415 . S
C924 C923 1.355 . S
C924 C926 1.419 . S
C925 C920 1.425 . S
C925 C922 1.409 . S
C925 C923 1.415 . S
C926 H916 0.930 . S
C926 C924 1.419 . S
C926 C927 1.362 . S
C927 H917 0.930 . S
C927 C920 1.409 . S
C927 C926 1.362 . S
H928 C934 0.930 . S
H929 C937 0.930 . S
H930 C938 0.930 . S
H931 C939 0.930 . S
H932 C942 0.930 . S
H933 C943 0.930 . S
C934 H928 0.930 . S
C934 C935 1.355 . S
C934 C936 1.415 . S
C935 C934 1.355 . S
C935 C937 1.419 . S
C936 C934 1.415 . S
C936 C941 1.425 . S
C936 C943 1.409 . S
C937 H929 0.930 . S
C937 C935 1.419 . S
C937 C938 1.362 . S
C938 H930 0.930 . S
C938 C937 1.362 . S
C938 C941 1.409 . S
C939 H931 0.930 . S
C939 C940 1.355 . S
C939 C941 1.415 . S
C940 C939 1.355 . S
C940 C942 1.419 . S
C941 C936 1.425 . S
C941 C938 1.409 . S
C941 C939 1.415 . S
C942 H932 0.930 . S
C942 C940 1.419 . S
C942 C943 1.362 . S
C943 H933 0.930 . S
C943 C936 1.409 . S
C943 C942 1.362 . S
H944 C950 0.930 . S
H945 C953 0.930 . S
H946 C954 0.930 . S
H947 C955 0.930 . S
H948 C958 0.930 . S
H949 C959 0.930 . S
C950 H944 0.930 . S
C950 C951 1.355 . S
C950 C952 1.415 . S
C951 C950 1.355 . S
C951 C953 1.419 . S
C952 C950 1.415 . S
C952 C957 1.425 . S
C952 C959 1.409 . S
C953 H945 0.930 . S
C953 C951 1.419 . S
C953 C954 1.362 . S
C954 H946 0.930 . S
C954 C953 1.362 . S
C954 C957 1.409 . S
C955 H947 0.930 . S
C955 C956 1.355 . S
C955 C957 1.415 . S
C956 C955 1.355 . S
C956 C958 1.419 . S
C957 C952 1.425 . S
C957 C954 1.409 . S
C957 C955 1.415 . S
C958 H948 0.930 . S
C958 C956 1.419 . S
C958 C959 1.362 . S
C959 H949 0.930 . S
C959 C952 1.409 . S
C959 C958 1.362 . S
H960 C966 0.930 . S
H961 C969 0.930 . S
H962 C970 0.930 . S
H963 C971 0.930 . S
H964 C974 0.930 . S
H965 C975 0.930 . S
C966 H960 0.930 . S
C966 C967 1.355 . S
C966 C968 1.415 . S
C967 C966 1.355 . S
C967 C969 1.419 . S
C968 C966 1.415 . S
C968 C973 1.425 . S
C968 C975 1.409 . S
C969 H961 0.930 . S
C969 C967 1.419 . S
C969 C970 1.362 . S
C970 H962 0.930 . S
C970 C969 1.362 . S
C970 C973 1.409 . S
C971 H963 0.930 . S
C971 C972 1.355 . S
C971 C973 1.415 . S
C972 C971 1.355 . S
C972 C974 1.419 . S
C973 C968 1.425 . S
C973 C970 1.409 . S
C973 C971 1.415 . S
C974 H964 0.930 . S
C974 C972 1.419 . S
C974 C975 1.362 . S
C975 H965 0.930 . S
C975 C968 1.409 . S
C975 C974 1.362 . S
H976 C982 0.930 . S
H977 C985 0.930 . S
H978 C986 0.930 . S
H979 C987 0.930 . S
H980 C990 0.930 . S
H981 C991 0.930 . S
C982 H976 0.930 . S
C982 C983 1.355 . S
C982 C984 1.415 . S
C983 C982 1.355 . S
C983 C985 1.419 . S
C984 C982 1.415 . S
C984 C989 1.425 . S
C984 C991 1.409 . S
C985 H977 0.930 . S
C985 C983 1.419 . S
C985 C986 1.362 . S
C986 H978 0.930 . S
C986 C985 1.362 . S
C986 C989 1.409 . S
C987 H979 0.930 . S
C987 C988 1.355 . S
C987 C989 1.415 . S
C988 C987 1.355 . S
C988 C990 1.419 . S
C989 C984 1.425 . S
C989 C986 1.409 . S
C989 C987 1.415 . S
C990 H980 0.930 . S
C990 C988 1.419 . S
C990 C991 1.362 . S
C991 H981 0.930 . S
C991 C984 1.409 . S
C991 C990 1.362 . S
H992 C998 0.930 . S
H993 C1001 0.930 . S
H994 C1002 0.930 . S
H995 C1003 0.930 . S
H996 C1006 0.930 . S
H997 C1007 0.930 . S
C998 H992 0.930 . S
C998 C999 1.355 . S
C998 C1000 1.415 . S
C999 C998 1.355 . S
C999 C1001 1.419 . S
C1000 C998 1.415 . S
C1000 C1005 1.425 . S
C1000 C1007 1.409 . S
C1001 H993 0.930 . S
C1001 C999 1.419 . S
C1001 C1002 1.362 . S
C1002 H994 0.930 . S
C1002 C1001 1.362 . S
C1002 C1005 1.409 . S
C1003 H995 0.930 . S
C1003 C1004 1.355 . S
C1003 C1005 1.415 . S
C1004 C1003 1.355 . S
C1004 C1006 1.419 . S
C1005 C1000 1.425 . S
C1005 C1002 1.409 . S
C1005 C1003 1.415 . S
C1006 H996 0.930 . S
C1006 C1004 1.419 . S
C1006 C1007 1.362 . S
C1007 H997 0.930 . S
C1007 C1000 1.409 . S
C1007 C1006 1.362 . S
H1008 C1014 0.930 . S
H1009 C1017 0.930 . S
H1010 C1018 0.930 . S
H1011 C1019 0.930 . S
H1012 C1022 0.930 . S
H1013 C1023 0.930 . S
C1014 H1008 0.930 . S
C1014 C1015 1.355 . S
C1014 C1016 1.415 . S
C1015 C1014 1.355 . S
C1015 C1017 1.419 . S
C1016 C1014 1.415 . S
C1016 C1021 1.425 . S
C1016 C1023 1.409 . S
C1017 H1009 0.930 . S
C1017 C1015 1.419 . S
C1017 C1018 1.362 . S
C1018 H1010 0.930 . S
C1018 C1017 1.362 . S
C1018 C1021 1.409 . S
C1019 H1011 0.930 . S
C1019 C1020 1.355 . S
C1019 C1021 1.415 . S
C1020 C1019 1.355 . S
C1020 C1022 1.419 . S
C1021 C1016 1.425 . S
C1021 C1018 1.409 . S
C1021 C1019 1.415 . S
C1022 H1012 0.930 . S
C1022 C1020 1.419 . S
C1022 C1023 1.362 . S
C1023 H1013 0.930 . S
C1023 C1016 1.409 . S
C1023 C1022 1.362 . S
H1024 C1030 0.930 . S
H1025 C1033 0.930 . S
H1026 C1034 0.930 . S
H1027 C1035 0.930 . S
H1028 C1038 0.930 . S
H1029 C1039 0.930 . S
C1030 H1024 0.930 . S
C1030 C1031 1.355 . S
C1030 C1032 1.415 . S
C1031 C1030 1.355 . S
C1031 C1033 1.419 . S
C1032 C1030 1.415 . S
C1032 C1037 1.425 . S
C1032 C1039 1.409 . S
C1033 H1025 0.930 . S
C1033 C1031 1.419 . S
C1033 C1034 1.362 . S
C1034 H1026 0.930 . S
C1034 C1033 1.362 . S
C1034 C1037 1.409 . S
C1035 H1027 0.930 . S
C1035 C1036 1.355 . S
C1035 C1037 1.415 . S
C1036 C1035 1.355 . S
C1036 C1038 1.419 . S
C1037 C1032 1.425 . S
C1037 C1034 1.409 . S
C1037 C1035 1.415 . S
C1038 H1028 0.930 . S
C1038 C1036 1.419 . S
C1038 C1039 1.362 . S
C1039 H1029 0.930 . S
C1039 C1032 1.409 . S
C1039 C1038 1.362 . S
H1040 C1046 0.930 . S
H1041 C1049 0.930 . S
H1042 C1050 0.930 . S
H1043 C1051 0.930 . S
H1044 C1054 0.930 . S
H1045 C1055 0.930 . S
C1046 H1040 0.930 . S
C1046 C1047 1.355 . S
C1046 C1048 1.415 . S
C1047 C1046 1.355 . S
C1047 C1049 1.419 . S
C1048 C1046 1.415 . S
C1048 C1053 1.425 . S
C1048 C1055 1.409 . S
C1049 H1041 0.930 . S
C1049 C1047 1.419 . S
C1049 C1050 1.362 . S
C1050 H1042 0.930 . S
C1050 C1049 1.362 . S
C1050 C1053 1.409 . S
C1051 H1043 0.930 . S
C1051 C1052 1.355 . S
C1051 C1053 1.415 . S
C1052 C1051 1.355 . S
C1052 C1054 1.419 . S
C1053 C1048 1.425 . S
C1053 C1050 1.409 . S
C1053 C1051 1.415 . S
C1054 H1044 0.930 . S
C1054 C1052 1.419 . S
C1054 C1055 1.362 . S
C1055 H1045 0.930 . S
C1055 C1048 1.409 . S
C1055 C1054 1.362 . S
H1056 C1062 0.930 . S
H1057 C1065 0.930 . S
H1058 C1066 0.930 . S
H1059 C1067 0.930 . S
H1060 C1070 0.930 . S
H1061 C1071 0.930 . S
C1062 H1056 0.930 . S
C1062 C1063 1.355 . S
C1062 C1064 1.415 . S
C1063 C1062 1.355 . S
C1063 C1065 1.419 . S
C1064 C1062 1.415 . S
C1064 C1069 1.425 . S
C1064 C1071 1.409 . S
C1065 H1057 0.930 . S
C1065 C1063 1.419 . S
C1065 C1066 1.362 . S
C1066 H1058 0.930 . S
C1066 C1065 1.362 . S
C1066 C1069 1.409 . S
C1067 H1059 0.930 . S
C1067 C1068 1.355 . S
C1067 C1069 1.415 . S
C1068 C1067 1.355 . S
C1068 C1070 1.419 . S
C1069 C1064 1.425 . S
C1069 C1066 1.409 . S
C1069 C1067 1.415 . S
C1070 H1060 0.930 . S
C1070 C1068 1.419 . S
C1070 C1071 1.362 . S
C1071 H1061 0.930 . S
C1071 C1064 1.409 . S
C1071 C1070 1.362 . S
H1072 C1078 0.930 . S
H1073 C1081 0.930 . S
H1074 C1082 0.930 . S
H1075 C1083 0.930 . S
H1076 C1086 0.930 . S
H1077 C1087 0.930 . S
C1078 H1072 0.930 . S
C1078 C1079 1.355 . S
C1078 C1080 1.415 . S
C1079 C1078 1.355 . S
C1079 C1081 1.419 . S
C1080 C1078 1.415 . S
C1080 C1085 1.425 . S
C1080 C1087 1.409 . S
C1081 H1073 0.930 . S
C1081 C1079 1.419 . S
C1081 C1082 1.362 . S
C1082 H1074 0.930 . S
C1082 C1081 1.362 . S
C1082 C1085 1.409 . S
C1083 H1075 0.930 . S
C1083 C1084 1.355 . S
C1083 C1085 1.415 . S
C1084 C1083 1.355 . S
C1084 C1086 1.419 . S
C1085 C1080 1.425 . S
C1085 C1082 1.409 . S
C1085 C1083 1.415 . S
C1086 H1076 0.930 . S
C1086 C1084 1.419 . S
C1086 C1087 1.362 . S
C1087 H1077 0.930 . S
C1087 C1080 1.409 . S
C1087 C1086 1.362 . S
H1088 C1094 0.930 . S
H1089 C1097 0.930 . S
H1090 C1098 0.930 . S
H1091 C1099 0.930 . S
H1092 C1102 0.930 . S
H1093 C1103 0.930 . S
C1094 H1088 0.930 . S
C1094 C1095 1.355 . S
C1094 C1096 1.415 . S
C1095 C1094 1.355 . S
C1095 C1097 1.419 . S
C1096 C1094 1.415 . S
C1096 C1101 1.425 . S
C1096 C1103 1.409 . S
C1097 H1089 0.930 . S
C1097 C1095 1.419 . S
C1097 C1098 1.362 . S
C1098 H1090 0.930 . S
C1098 C1097 1.362 . S
C1098 C1101 1.409 . S
C1099 H1091 0.930 . S
C1099 C1100 1.355 . S
C1099 C1101 1.415 . S
C1100 C1099 1.355 . S
C1100 C1102 1.419 . S
C1101 C1096 1.425 . S
C1101 C1098 1.409 . S
C1101 C1099 1.415 . S
C1102 H1092 0.930 . S
C1102 C1100 1.419 . S
C1102 C1103 1.362 . S
C1103 H1093 0.930 . S
C1103 C1096 1.409 . S
C1103 C1102 1.362 . S
H1104 C1110 0.930 . S
H1105 C1113 0.930 . S
H1106 C1114 0.930 . S
H1107 C1115 0.930 . S
H1108 C1118 0.930 . S
H1109 C1119 0.930 . S
C1110 H1104 0.930 . S
C1110 C1111 1.355 . S
C1110 C1112 1.415 . S
C1111 C1110 1.355 . S
C1111 C1113 1.419 . S
C1112 C1110 1.415 . S
C1112 C1117 1.425 . S
C1112 C1119 1.409 . S
C1113 H1105 0.930 . S
C1113 C1111 1.419 . S
C1113 C1114 1.362 . S
C1114 H1106 0.930 . S
C1114 C1113 1.362 . S
C1114 C1117 1.409 . S
C1115 H1107 0.930 . S
C1115 C1116 1.355 . S
C1115 C1117 1.415 . S
C1116 C1115 1.355 . S
C1116 C1118 1.419 . S
C1117 C1112 1.425 . S
C1117 C1114 1.409 . S
C1117 C1115 1.415 . S
C1118 H1108 0.930 . S
C1118 C1116 1.419 . S
C1118 C1119 1.362 . S
C1119 H1109 0.930 . S
C1119 C1112 1.409 . S
C1119 C1118 1.362 . S
H1120 C1126 0.930 . S
H1121 C1129 0.930 . S
H1122 C1130 0.930 . S
H1123 C1131 0.930 . S
H1124 C1134 0.930 . S
H1125 C1135 0.930 . S
C1126 H1120 0.930 . S
C1126 C1127 1.355 . S
C1126 C1128 1.415 . S
C1127 C1126 1.355 . S
C1127 C1129 1.419 . S
C1128 C1126 1.415 . S
C1128 C1133 1.425 . S
C1128 C1135 1.409 . S
C1129 H1121 0.930 . S
C1129 C1127 1.419 . S
C1129 C1130 1.362 . S
C1130 H1122 0.930 . S
C1130 C1129 1.362 . S
C1130 C1133 1.409 . S
C1131 H1123 0.930 . S
C1131 C1132 1.355 . S
C1131 C1133 1.415 . S
C1132 C1131 1.355 . S
C1132 C1134 1.419 . S
C1133 C1128 1.425 . S
C1133 C1130 1.409 . S
C1133 C1131 1.415 . S
C1134 H1124 0.930 . S
C1134 C1132 1.419 . S
C1134 C1135 1.362 . S
C1135 H1125 0.930 . S
C1135 C1128 1.409 . S
C1135 C1134 1.362 . S
H1136 C1142 0.930 . S
H1137 C1145 0.930 . S
H1138 C1146 0.930 . S
H1139 C1147 0.930 . S
H1140 C1150 0.930 . S
H1141 C1151 0.930 . S
C1142 H1136 0.930 . S
C1142 C1143 1.355 . S
C1142 C1144 1.415 . S
C1143 C1142 1.355 . S
C1143 C1145 1.419 . S
C1144 C1142 1.415 . S
C1144 C1149 1.425 . S
C1144 C1151 1.409 . S
C1145 H1137 0.930 . S
C1145 C1143 1.419 . S
C1145 C1146 1.362 . S
C1146 H1138 0.930 . S
C1146 C1145 1.362 . S
C1146 C1149 1.409 . S
C1147 H1139 0.930 . S
C1147 C1148 1.355 . S
C1147 C1149 1.415 . S
C1148 C1147 1.355 . S
C1148 C1150 1.419 . S
C1149 C1144 1.425 . S
C1149 C1146 1.409 . S
C1149 C1147 1.415 . S
C1150 H1140 0.930 . S
C1150 C1148 1.419 . S
C1150 C1151 1.362 . S
C1151 H1141 0.930 . S
C1151 C1144 1.409 . S
C1151 C1150 1.362 . S
H1152 C1158 0.930 . S
H1153 C1161 0.930 . S
H1154 C1162 0.930 . S
H1155 C1163 0.930 . S
H1156 C1166 0.930 . S
H1157 C1167 0.930 . S
C1158 H1152 0.930 . S
C1158 C1159 1.355 . S
C1158 C1160 1.415 . S
C1159 C1158 1.355 . S
C1159 C1161 1.419 . S
C1160 C1158 1.415 . S
C1160 C1165 1.425 . S
C1160 C1167 1.409 . S
C1161 H1153 0.930 . S
C1161 C1159 1.419 . S
C1161 C1162 1.362 . S
C1162 H1154 0.930 . S
C1162 C1161 1.362 . S
C1162 C1165 1.409 . S
C1163 H1155 0.930 . S
C1163 C1164 1.355 . S
C1163 C1165 1.415 . S
C1164 C1163 1.355 . S
C1164 C1166 1.419 . S
C1165 C1160 1.425 . S
C1165 C1162 1.409 . S
C1165 C1163 1.415 . S
C1166 H1156 0.930 . S
C1166 C1164 1.419 . S
C1166 C1167 1.362 . S
C1167 H1157 0.930 . S
C1167 C1160 1.409 . S
C1167 C1166 1.362 . S
H1168 C1174 0.930 . S
H1169 C1177 0.930 . S
H1170 C1178 0.930 . S
H1171 C1179 0.930 . S
H1172 C1182 0.930 . S
H1173 C1183 0.930 . S
C1174 H1168 0.930 . S
C1174 C1175 1.355 . S
C1174 C1176 1.415 . S
C1175 C1174 1.355 . S
C1175 C1177 1.419 . S
C1176 C1174 1.415 . S
C1176 C1181 1.425 . S
C1176 C1183 1.409 . S
C1177 H1169 0.930 . S
C1177 C1175 1.419 . S
C1177 C1178 1.362 . S
C1178 H1170 0.930 . S
C1178 C1177 1.362 . S
C1178 C1181 1.409 . S
C1179 H1171 0.930 . S
C1179 C1180 1.355 . S
C1179 C1181 1.415 . S
C1180 C1179 1.355 . S
C1180 C1182 1.419 . S
C1181 C1176 1.425 . S
C1181 C1178 1.409 . S
C1181 C1179 1.415 . S
C1182 H1172 0.930 . S
C1182 C1180 1.419 . S
C1182 C1183 1.362 . S
C1183 H1173 0.930 . S
C1183 C1176 1.409 . S
C1183 C1182 1.362 . S
H1184 C1190 0.930 . S
H1185 C1193 0.930 . S
H1186 C1194 0.930 . S
H1187 C1195 0.930 . S
H1188 C1198 0.930 . S
H1189 C1199 0.930 . S
C1190 H1184 0.930 . S
C1190 C1191 1.355 . S
C1190 C1192 1.415 . S
C1191 C1190 1.355 . S
C1191 C1193 1.419 . S
C1192 C1190 1.415 . S
C1192 C1197 1.425 . S
C1192 C1199 1.409 . S
C1193 H1185 0.930 . S
C1193 C1191 1.419 . S
C1193 C1194 1.362 . S
C1194 H1186 0.930 . S
C1194 C1193 1.362 . S
C1194 C1197 1.409 . S
C1195 H1187 0.930 . S
C1195 C1196 1.355 . S
C1195 C1197 1.415 . S
C1196 C1195 1.355 . S
C1196 C1198 1.419 . S
C1197 C1192 1.425 . S
C1197 C1194 1.409 . S
C1197 C1195 1.415 . S
C1198 H1188 0.930 . S
C1198 C1196 1.419 . S
C1198 C1199 1.362 . S
C1199 H1189 0.930 . S
C1199 C1192 1.409 . S
C1199 C1198 1.362 . S
H1200 C1206 0.930 . S
H1201 C1209 0.930 . S
H1202 C1210 0.930 . S
H1203 C1211 0.930 . S
H1204 C1214 0.930 . S
H1205 C1215 0.930 . S
C1206 H1200 0.930 . S
C1206 C1207 1.355 . S
C1206 C1208 1.415 . S
C1207 C1206 1.355 . S
C1207 C1209 1.419 . S
C1208 C1206 1.415 . S
C1208 C1213 1.425 . S
C1208 C1215 1.409 . S
C1209 H1201 0.930 . S
C1209 C1207 1.419 . S
C1209 C1210 1.362 . S
C1210 H1202 0.930 . S
C1210 C1209 1.362 . S
C1210 C1213 1.409 . S
C1211 H1203 0.930 . S
C1211 C1212 1.355 . S
C1211 C1213 1.415 . S
C1212 C1211 1.355 . S
C1212 C1214 1.419 . S
C1213 C1208 1.425 . S
C1213 C1210 1.409 . S
C1213 C1211 1.415 . S
C1214 H1204 0.930 . S
C1214 C1212 1.419 . S
C1214 C1215 1.362 . S
C1215 H1205 0.930 . S
C1215 C1208 1.409 . S
C1215 C1214 1.362 . S
H1216 C1222 0.930 . S
H1217 C1225 0.930 . S
H1218 C1226 0.930 . S
H1219 C1227 0.930 . S
H1220 C1230 0.930 . S
H1221 C1231 0.930 . S
C1222 H1216 0.930 . S
C1222 C1223 1.355 . S
C1222 C1224 1.415 . S
C1223 C1222 1.355 . S
C1223 C1225 1.419 . S
C1224 C1222 1.415 . S
C1224 C1229 1.425 . S
C1224 C1231 1.409 . S
C1225 H1217 0.930 . S
C1225 C1223 1.419 . S
C1225 C1226 1.362 . S
C1226 H1218 0.930 . S
C1226 C1225 1.362 . S
C1226 C1229 1.409 . S
C1227 H1219 0.930 . S
C1227 C1228 1.355 . S
C1227 C1229 1.415 . S
C1228 C1227 1.355 . S
C1228 C1230 1.419 . S
C1229 C1224 1.425 . S
C1229 C1226 1.409 . S
C1229 C1227 1.415 . S
C1230 H1220 0.930 . S
C1230 C1228 1.419 . S
C1230 C1231 1.362 . S
C1231 H1221 0.930 . S
C1231 C1224 1.409 . S
C1231 C1230 1.362 . S
H1232 C1238 0.930 . S
H1233 C1241 0.930 . S
H1234 C1242 0.930 . S
H1235 C1243 0.930 . S
H1236 C1246 0.930 . S
H1237 C1247 0.930 . S
C1238 H1232 0.930 . S
C1238 C1239 1.355 . S
C1238 C1240 1.415 . S
C1239 C1238 1.355 . S
C1239 C1241 1.419 . S
C1240 C1238 1.415 . S
C1240 C1245 1.425 . S
C1240 C1247 1.409 . S
C1241 H1233 0.930 . S
C1241 C1239 1.419 . S
C1241 C1242 1.362 . S
C1242 H1234 0.930 . S
C1242 C1241 1.362 . S
C1242 C1245 1.409 . S
C1243 H1235 0.930 . S
C1243 C1244 1.355 . S
C1243 C1245 1.415 . S
C1244 C1243 1.355 . S
C1244 C1246 1.419 . S
C1245 C1240 1.425 . S
C1245 C1242 1.409 . S
C1245 C1243 1.415 . S
C1246 H1236 0.930 . S
C1246 C1244 1.419 . S
C1246 C1247 1.362 . S
C1247 H1237 0.930 . S
C1247 C1240 1.409 . S
C1247 C1246 1.362 . S
H1248 C1254 0.930 . S
H1249 C1257 0.930 . S
H1250 C1258 0.930 . S
H1251 C1259 0.930 . S
H1252 C1262 0.930 . S
H1253 C1263 0.930 . S
C1254 H1248 0.930 . S
C1254 C1255 1.355 . S
C1254 C1256 1.415 . S
C1255 C1254 1.355 . S
C1255 C1257 1.419 . S
C1256 C1254 1.415 . S
C1256 C1261 1.425 . S
C1256 C1263 1.409 . S
C1257 H1249 0.930 . S
C1257 C1255 1.419 . S
C1257 C1258 1.362 . S
C1258 H1250 0.930 . S
C1258 C1257 1.362 . S
C1258 C1261 1.409 . S
C1259 H1251 0.930 . S
C1259 C1260 1.355 . S
C1259 C1261 1.415 . S
C1260 C1259 1.355 . S
C1260 C1262 1.419 . S
C1261 C1256 1.425 . S
C1261 C1258 1.409 . S
C1261 C1259 1.415 . S
C1262 H1252 0.930 . S
C1262 C1260 1.419 . S
C1262 C1263 1.362 . S
C1263 H1253 0.930 . S
C1263 C1256 1.409 . S
C1263 C1262 1.362 . S
H1264 C1270 0.930 . S
H1265 C1273 0.930 . S
H1266 C1274 0.930 . S
H1267 C1275 0.930 . S
H1268 C1278 0.930 . S
H1269 C1279 0.930 . S
C1270 H1264 0.930 . S
C1270 C1271 1.355 . S
C1270 C1272 1.415 . S
C1271 C1270 1.355 . S
C1271 C1273 1.419 . S
C1272 C1270 1.415 . S
C1272 C1277 1.425 . S
C1272 C1279 1.409 . S
C1273 H1265 0.930 . S
C1273 C1271 1.419 . S
C1273 C1274 1.362 . S
C1274 H1266 0.930 . S
C1274 C1273 1.362 . S
C1274 C1277 1.409 . S
C1275 H1267 0.930 . S
C1275 C1276 1.355 . S
C1275 C1277 1.415 . S
C1276 C1275 1.355 . S
C1276 C1278 1.419 . S
C1277 C1272 1.425 . S
C1277 C1274 1.409 . S
C1277 C1275 1.415 . S
C1278 H1268 0.930 . S
C1278 C1276 1.419 . S
C1278 C1279 1.362 . S
C1279 H1269 0.930 . S
C1279 C1272 1.409 . S
C1279 C1278 1.362 . S
H1280 C1286 0.930 . S
H1281 C1289 0.930 . S
H1282 C1290 0.930 . S
H1283 C1291 0.930 . S
H1284 C1294 0.930 . S
H1285 C1295 0.930 . S
C1286 H1280 0.930 . S
C1286 C1287 1.355 . S
C1286 C1288 1.415 . S
C1287 C1286 1.355 . S
C1287 C1289 1.419 . S
C1288 C1286 1.415 . S
C1288 C1293 1.425 . S
C1288 C1295 1.409 . S
C1289 H1281 0.930 . S
C1289 C1287 1.419 . S
C1289 C1290 1.362 . S
C1290 H1282 0.930 . S
C1290 C1289 1.362 . S
C1290 C1293 1.409 . S
C1291 H1283 0.930 . S
C1291 C1292 1.355 . S
C1291 C1293 1.415 . S
C1292 C1291 1.355 . S
C1292 C1294 1.419 . S
C1293 C1288 1.425 . S
C1293 C1290 1.409 . S
C1293 C1291 1.415 . S
C1294 H1284 0.930 . S
C1294 C1292 1.419 . S
C1294 C1295 1.362 . S
C1295 H1285 0.930 . S
C1295 C1288 1.409 . S
C1295 C1294 1.362 . S
H1296 C1302 0.930 . S
H1297 C1305 0.930 . S
H1298 C1306 0.930 . S
H1299 C1307 0.930 . S
H1300 C1310 0.930 . S
H1301 C1311 0.930 . S
C1302 H1296 0.930 . S
C1302 C1303 1.355 . S
C1302 C1304 1.415 . S
C1303 C1302 1.355 . S
C1303 C1305 1.419 . S
C1304 C1302 1.415 . S
C1304 C1309 1.425 . S
C1304 C1311 1.409 . S
C1305 H1297 0.930 . S
C1305 C1303 1.419 . S
C1305 C1306 1.362 . S
C1306 H1298 0.930 . S
C1306 C1305 1.362 . S
C1306 C1309 1.409 . S
C1307 H1299 0.930 . S
C1307 C1308 1.355 . S
C1307 C1309 1.415 . S
C1308 C1307 1.355 . S
C1308 C1310 1.419 . S
C1309 C1304 1.425 . S
C1309 C1306 1.409 . S
C1309 C1307 1.415 . S
C1310 H1300 0.930 . S
C1310 C1308 1.419 . S
C1310 C1311 1.362 . S
C1311 H1301 0.930 . S
C1311 C1304 1.409 . S
C1311 C1310 1.362 . S
H1312 C1318 0.930 . S
H1313 C1321 0.930 . S
H1314 C1322 0.930 . S
H1315 C1323 0.930 . S
H1316 C1326 0.930 . S
H1317 C1327 0.930 . S
C1318 H1312 0.930 . S
C1318 C1319 1.355 . S
C1318 C1320 1.415 . S
C1319 C1318 1.355 . S
C1319 C1321 1.419 . S
C1320 C1318 1.415 . S
C1320 C1325 1.425 . S
C1320 C1327 1.409 . S
C1321 H1313 0.930 . S
C1321 C1319 1.419 . S
C1321 C1322 1.362 . S
C1322 H1314 0.930 . S
C1322 C1321 1.362 . S
C1322 C1325 1.409 . S
C1323 H1315 0.930 . S
C1323 C1324 1.355 . S
C1323 C1325 1.415 . S
C1324 C1323 1.355 . S
C1324 C1326 1.419 . S
C1325 C1320 1.425 . S
C1325 C1322 1.409 . S
C1325 C1323 1.415 . S
C1326 H1316 0.930 . S
C1326 C1324 1.419 . S
C1326 C1327 1.362 . S
C1327 H1317 0.930 . S
C1327 C1320 1.409 . S
C1327 C1326 1.362 . S
H1328 C1334 0.930 . S
H1329 C1337 0.930 . S
H1330 C1338 0.930 . S
H1331 C1339 0.930 . S
H1332 C1342 0.930 . S
H1333 C1343 0.930 . S
C1334 H1328 0.930 . S
C1334 C1335 1.355 . S
C1334 C1336 1.415 . S
C1335 C1334 1.355 . S
C1335 C1337 1.419 . S
C1336 C1334 1.415 . S
C1336 C1341 1.425 . S
C1336 C1343 1.409 . S
C1337 H1329 0.930 . S
C1337 C1335 1.419 . S
C1337 C1338 1.362 . S
C1338 H1330 0.930 . S
C1338 C1337 1.362 . S
C1338 C1341 1.409 . S
C1339 H1331 0.930 . S
C1339 C1340 1.355 . S
C1339 C1341 1.415 . S
C1340 C1339 1.355 . S
C1340 C1342 1.419 . S
C1341 C1336 1.425 . S
C1341 C1338 1.409 . S
C1341 C1339 1.415 . S
C1342 H1332 0.930 . S
C1342 C1340 1.419 . S
C1342 C1343 1.362 . S
C1343 H1333 0.930 . S
C1343 C1336 1.409 . S
C1343 C1342 1.362 . S
H1344 C1350 0.930 . S
H1345 C1353 0.930 . S
H1346 C1354 0.930 . S
H1347 C1355 0.930 . S
H1348 C1358 0.930 . S
H1349 C1359 0.930 . S
C1350 H1344 0.930 . S
C1350 C1351 1.355 . S
C1350 C1352 1.415 . S
C1351 C1350 1.355 . S
C1351 C1353 1.419 . S
C1352 C1350 1.415 . S
C1352 C1357 1.425 . S
C1352 C1359 1.409 . S
C1353 H1345 0.930 . S
C1353 C1351 1.419 . S
C1353 C1354 1.362 . S
C1354 H1346 0.930 . S
C1354 C1353 1.362 . S
C1354 C1357 1.409 . S
C1355 H1347 0.930 . S
C1355 C1356 1.355 . S
C1355 C1357 1.415 . S
C1356 C1355 1.355 . S
C1356 C1358 1.419 . S
C1357 C1352 1.425 . S
C1357 C1354 1.409 . S
C1357 C1355 1.415 . S
C1358 H1348 0.930 . S
C1358 C1356 1.419 . S
C1358 C1359 1.362 . S
C1359 H1349 0.930 . S
C1359 C1352 1.409 . S
C1359 C1358 1.362 . S
H1360 C1366 0.930 . S
H1361 C1369 0.930 . S
H1362 C1370 0.930 . S
H1363 C1371 0.930 . S
H1364 C1374 0.930 . S
H1365 C1375 0.930 . S
C1366 H1360 0.930 . S
C1366 C1367 1.355 . S
C1366 C1368 1.415 . S
C1367 C1366 1.355 . S
C1367 C1369 1.419 . S
C1368 C1366 1.415 . S
C1368 C1373 1.425 . S
C1368 C1375 1.409 . S
C1369 H1361 0.930 . S
C1369 C1367 1.419 . S
C1369 C1370 1.362 . S
C1370 H1362 0.930 . S
C1370 C1369 1.362 . S
C1370 C1373 1.409 . S
C1371 H1363 0.930 . S
C1371 C1372 1.355 . S
C1371 C1373 1.415 . S
C1372 C1371 1.355 . S
C1372 C1374 1.419 . S
C1373 C1368 1.425 . S
C1373 C1370 1.409 . S
C1373 C1371 1.415 . S
C1374 H1364 0.930 . S
C1374 C1372 1.419 . S
C1374 C1375 1.362 . S
C1375 H1365 0.930 . S
C1375 C1368 1.409 . S
C1375 C1374 1.362 . S
H1376 C1382 0.930 . S
H1377 C1385 0.930 . S
H1378 C1386 0.930 . S
H1379 C1387 0.930 . S
H1380 C1390 0.930 . S
H1381 C1391 0.930 . S
C1382 H1376 0.930 . S
C1382 C1383 1.355 . S
C1382 C1384 1.415 . S
C1383 C1382 1.355 . S
C1383 C1385 1.419 . S
C1384 C1382 1.415 . S
C1384 C1389 1.425 . S
C1384 C1391 1.409 . S
C1385 H1377 0.930 . S
C1385 C1383 1.419 . S
C1385 C1386 1.362 . S
C1386 H1378 0.930 . S
C1386 C1385 1.362 . S
C1386 C1389 1.409 . S
C1387 H1379 0.930 . S
C1387 C1388 1.355 . S
C1387 C1389 1.415 . S
C1388 C1387 1.355 . S
C1388 C1390 1.419 . S
C1389 C1384 1.425 . S
C1389 C1386 1.409 . S
C1389 C1387 1.415 . S
C1390 H1380 0.930 . S
C1390 C1388 1.419 . S
C1390 C1391 1.362 . S
C1391 H1381 0.930 . S
C1391 C1384 1.409 . S
C1391 C1390 1.362 . S
H1392 C1398 0.930 . S
H1393 C1401 0.930 . S
H1394 C1402 0.930 . S
H1395 C1403 0.930 . S
H1396 C1406 0.930 . S
H1397 C1407 0.930 . S
C1398 H1392 0.930 . S
C1398 C1399 1.355 . S
C1398 C1400 1.415 . S
C1399 C1398 1.355 . S
C1399 C1401 1.419 . S
C1400 C1398 1.415 . S
C1400 C1405 1.425 . S
C1400 C1407 1.409 . S
C1401 H1393 0.930 . S
C1401 C1399 1.419 . S
C1401 C1402 1.362 . S
C1402 H1394 0.930 . S
C1402 C1401 1.362 . S
C1402 C1405 1.409 . S
C1403 H1395 0.930 . S
C1403 C1404 1.355 . S
C1403 C1405 1.415 . S
C1404 C1403 1.355 . S
C1404 C1406 1.419 . S
C1405 C1400 1.425 . S
C1405 C1402 1.409 . S
C1405 C1403 1.415 . S
C1406 H1396 0.930 . S
C1406 C1404 1.419 . S
C1406 C1407 1.362 . S
C1407 H1397 0.930 . S
C1407 C1400 1.409 . S
C1407 C1406 1.362 . S
H1408 C1414 0.930 . S
H1409 C1417 0.930 . S
H1410 C1418 0.930 . S
H1411 C1419 0.930 . S
H1412 C1422 0.930 . S
H1413 C1423 0.930 . S
C1414 H1408 0.930 . S
C1414 C1415 1.355 . S
C1414 C1416 1.415 . S
C1415 C1414 1.355 . S
C1415 C1417 1.419 . S
C1416 C1414 1.415 . S
C1416 C1421 1.425 . S
C1416 C1423 1.409 . S
C1417 H1409 0.930 . S
C1417 C1415 1.419 . S
C1417 C1418 1.362 . S
C1418 H1410 0.930 . S
C1418 C1417 1.362 . S
C1418 C1421 1.409 . S
C1419 H1411 0.930 . S
C1419 C1420 1.355 . S
C1419 C1421 1.415 . S
C1420 C1419 1.355 . S
C1420 C1422 1.419 . S
C1421 C1416 1.425 . S
C1421 C1418 1.409 . S
C1421 C1419 1.415 . S
C1422 H1412 0.930 . S
C1422 C1420 1.419 . S
C1422 C1423 1.362 . S
C1423 H1413 0.930 . S
C1423 C1416 1.409 . S
C1423 C1422 1.362 . S
H1424 C1430 0.930 . S
H1425 C1433 0.930 . S
H1426 C1434 0.930 . S
H1427 C1435 0.930 . S
H1428 C1438 0.930 . S
H1429 C1439 0.930 . S
C1430 H1424 0.930 . S
C1430 C1431 1.355 . S
C1430 C1432 1.415 . S
C1431 C1430 1.355 . S
C1431 C1433 1.419 . S
C1432 C1430 1.415 . S
C1432 C1437 1.425 . S
C1432 C1439 1.409 . S
C1433 H1425 0.930 . S
C1433 C1431 1.419 . S
C1433 C1434 1.362 . S
C1434 H1426 0.930 . S
C1434 C1433 1.362 . S
C1434 C1437 1.409 . S
C1435 H1427 0.930 . S
C1435 C1436 1.355 . S
C1435 C1437 1.415 . S
C1436 C1435 1.355 . S
C1436 C1438 1.419 . S
C1437 C1432 1.425 . S
C1437 C1434 1.409 . S
C1437 C1435 1.415 . S
C1438 H1428 0.930 . S
C1438 C1436 1.419 . S
C1438 C1439 1.362 . S
C1439 H1429 0.930 . S
C1439 C1432 1.409 . S
C1439 C1438 1.362 . S
H1440 C1446 0.930 . S
H1441 C1449 0.930 . S
H1442 C1450 0.930 . S
H1443 C1451 0.930 . S
H1444 C1454 0.930 . S
H1445 C1455 0.930 . S
C1446 H1440 0.930 . S
C1446 C1447 1.355 . S
C1446 C1448 1.415 . S
C1447 C1446 1.355 . S
C1447 C1449 1.419 . S
C1448 C1446 1.415 . S
C1448 C1453 1.425 . S
C1448 C1455 1.409 . S
C1449 H1441 0.930 . S
C1449 C1447 1.419 . S
C1449 C1450 1.362 . S
C1450 H1442 0.930 . S
C1450 C1449 1.362 . S
C1450 C1453 1.409 . S
C1451 H1443 0.930 . S
C1451 C1452 1.355 . S
C1451 C1453 1.415 . S
C1452 C1451 1.355 . S
C1452 C1454 1.419 . S
C1453 C1448 1.425 . S
C1453 C1450 1.409 . S
C1453 C1451 1.415 . S
C1454 H1444 0.930 . S
C1454 C1452 1.419 . S
C1454 C1455 1.362 . S
C1455 H1445 0.930 . S
C1455 C1448 1.409 . S
C1455 C1454 1.362 . S
H1456 C1462 0.930 . S
H1457 C1465 0.930 . S
H1458 C1466 0.930 . S
H1459 C1467 0.930 . S
H1460 C1470 0.930 . S
H1461 C1471 0.930 . S
C1462 H1456 0.930 . S
C1462 C1463 1.355 . S
C1462 C1464 1.415 . S
C1463 C1462 1.355 . S
C1463 C1465 1.419 . S
C1464 C1462 1.415 . S
C1464 C1469 1.425 . S
C1464 C1471 1.409 . S
C1465 H1457 0.930 . S
C1465 C1463 1.419 . S
C1465 C1466 1.362 . S
C1466 H1458 0.930 . S
C1466 C1465 1.362 . S
C1466 C1469 1.409 . S
C1467 H1459 0.930 . S
C1467 C1468 1.355 . S
C1467 C1469 1.415 . S
C1468 C1467 1.355 . S
C1468 C1470 1.419 . S
C1469 C1464 1.425 . S
C1469 C1466 1.409 . S
C1469 C1467 1.415 . S
C1470 H1460 0.930 . S
C1470 C1468 1.419 . S
C1470 C1471 1.362 . S
C1471 H1461 0.930 . S
C1471 C1464 1.409 . S
C1471 C1470 1.362 . S
H1472 C1478 0.930 . S
H1473 C1481 0.930 . S
H1474 C1482 0.930 . S
H1475 C1483 0.930 . S
H1476 C1486 0.930 . S
H1477 C1487 0.930 . S
C1478 H1472 0.930 . S
C1478 C1479 1.355 . S
C1478 C1480 1.415 . S
C1479 C1478 1.355 . S
C1479 C1481 1.419 . S
C1480 C1478 1.415 . S
C1480 C1485 1.425 . S
C1480 C1487 1.409 . S
C1481 H1473 0.930 . S
C1481 C1479 1.419 . S
C1481 C1482 1.362 . S
C1482 H1474 0.930 . S
C1482 C1481 1.362 . S
C1482 C1485 1.409 . S
C1483 H1475 0.930 . S
C1483 C1484 1.355 . S
C1483 C1485 1.415 . S
C1484 C1483 1.355 . S
C1484 C1486 1.419 . S
C1485 C1480 1.425 . S
C1485 C1482 1.409 . S
C1485 C1483 1.415 . S
C1486 H1476 0.930 . S
C1486 C1484 1.419 . S
C1486 C1487 1.362 . S
C1487 H1477 0.930 . S
C1487 C1480 1.409 . S
C1487 C1486 1.362 . S
H1488 C1494 0.930 . S
H1489 C1497 0.930 . S
H1490 C1498 0.930 . S
H1491 C1499 0.930 . S
H1492 C1502 0.930 . S
H1493 C1503 0.930 . S
C1494 H1488 0.930 . S
C1494 C1495 1.355 . S
C1494 C1496 1.415 . S
C1495 C1494 1.355 . S
C1495 C1497 1.419 . S
C1496 C1494 1.415 . S
C1496 C1501 1.425 1_556 S
C1496 C1503 1.409 1_556 S
C1497 H1489 0.930 . S
C1497 C1495 1.419 . S
C1497 C1498 1.362 . S
C1498 H1490 0.930 . S
C1498 C1497 1.362 . S
C1498 C1501 1.409 1_556 S
C1499 H1491 0.930 . S
C1499 C1500 1.355 . S
C1499 C1501 1.415 . S
C1500 C1499 1.355 . S
C1500 C1502 1.419 . S
C1501 C1496 1.425 1_554 S
C1501 C1498 1.409 1_554 S
C1501 C1499 1.415 . S
C1502 H1492 0.930 . S
C1502 C1500 1.419 . S
C1502 C1503 1.362 . S
C1503 H1493 0.930 . S
C1503 C1496 1.409 1_554 S
C1503 C1502 1.362 . S
H1504 C1510 0.930 . S
H1505 C1513 0.930 . S
H1506 C1514 0.930 . S
H1507 C1515 0.930 . S
H1508 C1518 0.930 . S
H1509 C1519 0.930 . S
C1510 H1504 0.930 . S
C1510 C1511 1.355 . S
C1510 C1512 1.415 . S
C1511 C1510 1.355 . S
C1511 C1513 1.419 . S
C1512 C1510 1.415 . S
C1512 C1517 1.425 1_556 S
C1512 C1519 1.409 1_556 S
C1513 H1505 0.930 . S
C1513 C1511 1.419 . S
C1513 C1514 1.362 . S
C1514 H1506 0.930 . S
C1514 C1513 1.362 . S
C1514 C1517 1.409 1_556 S
C1515 H1507 0.930 . S
C1515 C1516 1.355 . S
C1515 C1517 1.415 . S
C1516 C1515 1.355 . S
C1516 C1518 1.419 . S
C1517 C1512 1.425 1_554 S
C1517 C1514 1.409 1_554 S
C1517 C1515 1.415 . S
C1518 H1508 0.930 . S
C1518 C1516 1.419 . S
C1518 C1519 1.362 . S
C1519 H1509 0.930 . S
C1519 C1512 1.409 1_554 S
C1519 C1518 1.362 . S
H1520 C1526 0.930 . S
H1521 C1529 0.930 . S
H1522 C1530 0.930 . S
H1523 C1531 0.930 . S
H1524 C1534 0.930 . S
H1525 C1535 0.930 . S
C1526 H1520 0.930 . S
C1526 C1527 1.355 . S
C1526 C1528 1.415 . S
C1527 C1526 1.355 . S
C1527 C1529 1.419 . S
C1528 C1526 1.415 . S
C1528 C1533 1.425 1_554 S
C1528 C1535 1.409 1_554 S
C1529 H1521 0.930 . S
C1529 C1527 1.419 . S
C1529 C1530 1.362 . S
C1530 H1522 0.930 . S
C1530 C1529 1.362 . S
C1530 C1533 1.409 1_554 S
C1531 H1523 0.930 . S
C1531 C1532 1.355 . S
C1531 C1533 1.415 . S
C1532 C1531 1.355 . S
C1532 C1534 1.419 . S
C1533 C1528 1.425 1_556 S
C1533 C1530 1.409 1_556 S
C1533 C1531 1.415 . S
C1534 H1524 0.930 . S
C1534 C1532 1.419 . S
C1534 C1535 1.362 . S
C1535 H1525 0.930 . S
C1535 C1528 1.409 1_556 S
C1535 C1534 1.362 . S
H1536 C1542 0.930 . S
H1537 C1545 0.930 . S
H1538 C1546 0.930 . S
H1539 C1547 0.930 . S
H1540 C1550 0.930 . S
H1541 C1551 0.930 . S
C1542 H1536 0.930 . S
C1542 C1543 1.355 . S
C1542 C1544 1.415 . S
C1543 C1542 1.355 . S
C1543 C1545 1.419 . S
C1544 C1542 1.415 . S
C1544 C1549 1.425 1_556 S
C1544 C1551 1.409 1_556 S
C1545 H1537 0.930 . S
C1545 C1543 1.419 . S
C1545 C1546 1.362 . S
C1546 H1538 0.930 . S
C1546 C1545 1.362 . S
C1546 C1549 1.409 1_556 S
C1547 H1539 0.930 . S
C1547 C1548 1.355 . S
C1547 C1549 1.415 . S
C1548 C1547 1.355 . S
C1548 C1550 1.419 . S
C1549 C1544 1.425 1_554 S
C1549 C1546 1.409 1_554 S
C1549 C1547 1.415 . S
C1550 H1540 0.930 . S
C1550 C1548 1.419 . S
C1550 C1551 1.362 . S
C1551 H1541 0.930 . S
C1551 C1544 1.409 1_554 S
C1551 C1550 1.362 . S
H1552 C1558 0.930 . S
H1553 C1561 0.930 . S
H1554 C1562 0.930 . S
H1555 C1563 0.930 . S
H1556 C1566 0.930 . S
H1557 C1567 0.930 . S
C1558 H1552 0.930 . S
C1558 C1559 1.355 . S
C1558 C1560 1.415 . S
C1559 C1558 1.355 . S
C1559 C1561 1.419 . S
C1560 C1558 1.415 . S
C1560 C1565 1.425 1_556 S
C1560 C1567 1.409 1_556 S
C1561 H1553 0.930 . S
C1561 C1559 1.419 . S
C1561 C1562 1.362 . S
C1562 H1554 0.930 . S
C1562 C1561 1.362 . S
C1562 C1565 1.409 1_556 S
C1563 H1555 0.930 . S
C1563 C1564 1.355 . S
C1563 C1565 1.415 . S
C1564 C1563 1.355 . S
C1564 C1566 1.419 . S
C1565 C1560 1.425 1_554 S
C1565 C1562 1.409 1_554 S
C1565 C1563 1.415 . S
C1566 H1556 0.930 . S
C1566 C1564 1.419 . S
C1566 C1567 1.362 . S
C1567 H1557 0.930 . S
C1567 C1560 1.409 1_554 S
C1567 C1566 1.362 . S
H1568 C1574 0.930 . S
H1569 C1577 0.930 . S
H1570 C1578 0.930 . S
H1571 C1579 0.930 . S
H1572 C1582 0.930 . S
H1573 C1583 0.930 . S
C1574 H1568 0.930 . S
C1574 C1575 1.355 . S
C1574 C1576 1.415 . S
C1575 C1574 1.355 . S
C1575 C1577 1.419 . S
C1576 C1574 1.415 . S
C1576 C1581 1.425 1_554 S
C1576 C1583 1.409 1_554 S
C1577 H1569 0.930 . S
C1577 C1575 1.419 . S
C1577 C1578 1.362 . S
C1578 H1570 0.930 . S
C1578 C1577 1.362 . S
C1578 C1581 1.409 1_554 S
C1579 H1571 0.930 . S
C1579 C1580 1.355 . S
C1579 C1581 1.415 . S
C1580 C1579 1.355 . S
C1580 C1582 1.419 . S
C1581 C1576 1.425 1_556 S
C1581 C1578 1.409 1_556 S
C1581 C1579 1.415 . S
C1582 H1572 0.930 . S
C1582 C1580 1.419 . S
C1582 C1583 1.362 . S
C1583 H1573 0.930 . S
C1583 C1576 1.409 1_556 S
C1583 C1582 1.362 . S
H1584 C1590 0.930 . S
H1585 C1593 0.930 . S
H1586 C1594 0.930 . S
H1587 C1595 0.930 . S
H1588 C1598 0.930 . S
H1589 C1599 0.930 . S
C1590 H1584 0.930 . S
C1590 C1591 1.355 . S
C1590 C1592 1.415 . S
C1591 C1590 1.355 . S
C1591 C1593 1.419 . S
C1592 C1590 1.415 . S
C1592 C1597 1.425 . S
C1592 C1599 1.409 . S
C1593 H1585 0.930 . S
C1593 C1591 1.419 . S
C1593 C1594 1.362 . S
C1594 H1586 0.930 . S
C1594 C1593 1.362 . S
C1594 C1597 1.409 . S
C1595 H1587 0.930 . S
C1595 C1596 1.355 . S
C1595 C1597 1.415 . S
C1596 C1595 1.355 . S
C1596 C1598 1.419 . S
C1597 C1592 1.425 . S
C1597 C1594 1.409 . S
C1597 C1595 1.415 . S
C1598 H1588 0.930 . S
C1598 C1596 1.419 . S
C1598 C1599 1.362 . S
C1599 H1589 0.930 . S
C1599 C1592 1.409 . S
C1599 C1598 1.362 . S
H1600 C1606 0.930 . S
H1601 C1609 0.930 . S
H1602 C1610 0.930 . S
H1603 C1611 0.930 . S
H1604 C1614 0.930 . S
H1605 C1615 0.930 . S
C1606 H1600 0.930 . S
C1606 C1607 1.355 . S
C1606 C1608 1.415 . S
C1607 C1606 1.355 . S
C1607 C1609 1.419 . S
C1608 C1606 1.415 . S
C1608 C1613 1.425 . S
C1608 C1615 1.409 . S
C1609 H1601 0.930 . S
C1609 C1607 1.419 . S
C1609 C1610 1.362 . S
C1610 H1602 0.930 . S
C1610 C1609 1.362 . S
C1610 C1613 1.409 . S
C1611 H1603 0.930 . S
C1611 C1612 1.355 . S
C1611 C1613 1.415 . S
C1612 C1611 1.355 . S
C1612 C1614 1.419 . S
C1613 C1608 1.425 . S
C1613 C1610 1.409 . S
C1613 C1611 1.415 . S
C1614 H1604 0.930 . S
C1614 C1612 1.419 . S
C1614 C1615 1.362 . S
C1615 H1605 0.930 . S
C1615 C1608 1.409 . S
C1615 C1614 1.362 . S
H1616 C1622 0.930 . S
H1617 C1625 0.930 . S
H1618 C1626 0.930 . S
H1619 C1627 0.930 . S
H1620 C1630 0.930 . S
H1621 C1631 0.930 . S
C1622 H1616 0.930 . S
C1622 C1623 1.355 . S
C1622 C1624 1.415 . S
C1623 C1622 1.355 . S
C1623 C1625 1.419 . S
C1624 C1622 1.415 . S
C1624 C1629 1.425 . S
C1624 C1631 1.409 . S
C1625 H1617 0.930 . S
C1625 C1623 1.419 . S
C1625 C1626 1.362 . S
C1626 H1618 0.930 . S
C1626 C1625 1.362 . S
C1626 C1629 1.409 . S
C1627 H1619 0.930 . S
C1627 C1628 1.355 . S
C1627 C1629 1.415 . S
C1628 C1627 1.355 . S
C1628 C1630 1.419 . S
C1629 C1624 1.425 . S
C1629 C1626 1.409 . S
C1629 C1627 1.415 . S
C1630 H1620 0.930 . S
C1630 C1628 1.419 . S
C1630 C1631 1.362 . S
C1631 H1621 0.930 . S
C1631 C1624 1.409 . S
C1631 C1630 1.362 . S
H1632 C1638 0.930 . S
H1633 C1641 0.930 . S
H1634 C1642 0.930 . S
H1635 C1643 0.930 . S
H1636 C1646 0.930 . S
H1637 C1647 0.930 . S
C1638 H1632 0.930 . S
C1638 C1639 1.355 . S
C1638 C1640 1.415 . S
C1639 C1638 1.355 . S
C1639 C1641 1.419 . S
C1640 C1638 1.415 . S
C1640 C1645 1.425 . S
C1640 C1647 1.409 . S
C1641 H1633 0.930 . S
C1641 C1639 1.419 . S
C1641 C1642 1.362 . S
C1642 H1634 0.930 . S
C1642 C1641 1.362 . S
C1642 C1645 1.409 . S
C1643 H1635 0.930 . S
C1643 C1644 1.355 . S
C1643 C1645 1.415 . S
C1644 C1643 1.355 . S
C1644 C1646 1.419 . S
C1645 C1640 1.425 . S
C1645 C1642 1.409 . S
C1645 C1643 1.415 . S
C1646 H1636 0.930 . S
C1646 C1644 1.419 . S
C1646 C1647 1.362 . S
C1647 H1637 0.930 . S
C1647 C1640 1.409 . S
C1647 C1646 1.362 . S
H1648 C1654 0.930 . S
H1649 C1657 0.930 . S
H1650 C1658 0.930 . S
H1651 C1659 0.930 . S
H1652 C1662 0.930 . S
H1653 C1663 0.930 . S
C1654 H1648 0.930 . S
C1654 C1655 1.355 . S
C1654 C1656 1.415 . S
C1655 C1654 1.355 . S
C1655 C1657 1.419 . S
C1656 C1654 1.415 . S
C1656 C1661 1.425 . S
C1656 C1663 1.409 . S
C1657 H1649 0.930 . S
C1657 C1655 1.419 . S
C1657 C1658 1.362 . S
C1658 H1650 0.930 . S
C1658 C1657 1.362 . S
C1658 C1661 1.409 . S
C1659 H1651 0.930 . S
C1659 C1660 1.355 . S
C1659 C1661 1.415 . S
C1660 C1659 1.355 . S
C1660 C1662 1.419 . S
C1661 C1656 1.425 . S
C1661 C1658 1.409 . S
C1661 C1659 1.415 . S
C1662 H1652 0.930 . S
C1662 C1660 1.419 . S
C1662 C1663 1.362 . S
C1663 H1653 0.930 . S
C1663 C1656 1.409 . S
C1663 C1662 1.362 . S
H1664 C1670 0.930 . S
H1665 C1673 0.930 . S
H1666 C1674 0.930 . S
H1667 C1675 0.930 . S
H1668 C1678 0.930 . S
H1669 C1679 0.930 . S
C1670 H1664 0.930 . S
C1670 C1671 1.355 . S
C1670 C1672 1.415 . S
C1671 C1670 1.355 . S
C1671 C1673 1.419 . S
C1672 C1670 1.415 . S
C1672 C1677 1.425 . S
C1672 C1679 1.409 . S
C1673 H1665 0.930 . S
C1673 C1671 1.419 . S
C1673 C1674 1.362 . S
C1674 H1666 0.930 . S
C1674 C1673 1.362 . S
C1674 C1677 1.409 . S
C1675 H1667 0.930 . S
C1675 C1676 1.355 . S
C1675 C1677 1.415 . S
C1676 C1675 1.355 . S
C1676 C1678 1.419 . S
C1677 C1672 1.425 . S
C1677 C1674 1.409 . S
C1677 C1675 1.415 . S
C1678 H1668 0.930 . S
C1678 C1676 1.419 . S
C1678 C1679 1.362 . S
C1679 H1669 0.930 . S
C1679 C1672 1.409 . S
C1679 C1678 1.362 . S
C535 C183 1.739 . S
C540 C7 1.708 . S
C551 C29 1.736 . S
C556 C213 1.666 . S
C567 C51 1.691 . S
C572 C227 1.744 . S
C583 C87 1.684 . S
C588 C263 1.744 . S
C599 C103 1.705 . S
C604 C153 1.662 . S
C615 C175 1.692 . S
C620 C125 1.668 . S
C631 C461 1.704 . S
C636 C285 1.741 . S
C647 C483 1.714 . S
C652 C293 1.736 . S
C663 C499 1.742 . S
C668 C329 1.702 . S
C679 C351 1.736 . S
C684 C527 1.715 . S
C695 C417 1.665 . S
C700 C359 1.698 . S
C711 C439 1.665 . S
C716 C395 1.698 . S
C727 C21 2.397 . S
C732 C81 2.388 . S
C743 C95 2.464 . S
C748 C43 2.454 . S
C759 C65 2.467 . S
C764 C117 2.463 . S
C775 C147 2.398 . S
C780 C205 2.389 . S
C791 C169 2.412 . S
C796 C241 2.398 . S
C807 C197 2.448 . S
C812 C257 2.460 . S
C823 C345 2.386 . S
C828 C279 2.392 . S
C839 C307 2.390 . S
C844 C373 2.386 . S
C855 C389 2.465 . S
C860 C323 2.467 . S
C871 C411 2.466 . S
C876 C477 2.458 . S
C887 C433 2.425 . S
C892 C491 2.408 . S
C903 C521 2.397 . S
C908 C455 2.411 . S
C919 C15 0.590 . S
C924 C235 0.702 . S
C935 C249 0.660 . S
C940 C37 0.708 . S
C951 C59 0.593 . S
C956 C139 0.693 . S
C967 C73 0.666 . S
C972 C161 0.609 . S
C983 C191 0.721 . S
C988 C109 0.594 . S
C999 C219 0.625 . S
C1004 C131 0.647 . S
C1015 C271 0.612 . S
C1020 C505 0.726 . S
C1031 C301 0.593 . S
C1036 C513 0.720 . S
C1047 C315 0.614 . S
C1052 C403 0.726 . S
C1063 C337 0.684 . S
C1068 C425 0.688 . S
C1079 C447 0.723 . S
C1084 C367 0.627 . S
C1095 C469 0.590 . S
C1100 C381 0.708 . S
C1111 C18 0.858 . S
C1116 C96 0.802 . S
C1127 C118 0.829 . S
C1132 C40 0.890 . S
C1143 C62 0.863 . S
C1148 C10 0.860 . S
C1159 C32 0.828 . S
C1164 C74 0.730 . S
C1175 C54 0.792 . S
C1180 C98 0.833 . S
C1191 C84 0.804 . S
C1196 C120 0.719 . S
C1207 C140 0.750 . S
C1212 C186 0.786 . S
C1223 C206 0.850 . S
C1228 C162 0.887 . S
C1239 C194 0.763 . S
C1244 C230 0.784 . S
C1255 C208 0.891 . S
C1260 C260 0.845 . S
C1271 C150 0.784 . S
C1276 C238 0.789 . S
C1287 C250 0.826 . S
C1292 C172 0.790 . S
C1303 C272 0.842 . S
C1308 C362 0.795 . S
C1319 C392 0.813 . S
C1324 C304 0.876 . S
C1335 C282 0.786 . S
C1340 C316 0.747 . S
C1351 C338 0.885 . S
C1356 C296 0.852 . S
C1367 C326 0.853 . S
C1372 C370 0.883 . S
C1383 C382 0.726 . S
C1388 C348 0.795 . S
C1399 C404 0.769 . S
C1404 C458 0.783 . S
C1415 C480 0.784 . S
C1420 C426 0.767 . S
C1431 C492 0.859 . S
C1436 C448 0.870 . S
C1447 C470 0.736 . S
C1452 C524 0.833 . S
C1463 C414 0.804 . S
C1468 C494 0.863 . S
C1479 C514 0.773 . S
C1484 C436 0.850 . S
C1495 C340 1.489 . S
C1500 C8 1.482 . S
C1511 C360 1.490 . S
C1516 C30 1.481 . S
C1527 C52 1.489 . S
C1532 C384 1.482 . S
C1543 C274 1.476 . S
C1548 C76 1.495 . S
C1559 C294 1.492 . S
C1564 C106 1.480 . S
C1575 C128 1.478 . S
C1580 C318 1.494 . S
C1591 C472 1.493 . S
C1596 C142 1.478 . S
C1607 C502 1.493 . S
C1612 C164 1.479 . S
C1623 C184 1.478 . S
C1628 C516 1.493 . S
C1639 C406 1.476 . S
C1644 C216 1.495 . S
C1655 C228 1.478 . S
C1660 C428 1.493 . S
C1671 C450 1.483 . S
C1676 C252 1.488 . S
