# Generated by pormake.
# Topology smq, (6)-cn, num edge types: 1
# Building blocks:
#     Node 0, Type 0, BuildingBlock: IZENUY_clean_sbu_0, # of connection points: 6
#     Node 1, Type 0, BuildingBlock: IZENUY_clean_sbu_0, # of connection points: 6
#     Node 2, Type 0, BuildingBlock: IZENUY_clean_sbu_0, # of connection points: 6
#     Node 3, Type 0, BuildingBlock: IZENUY_clean_sbu_0, # of connection points: 6
#     Node 4, Type 0, BuildingBlock: IZENUY_clean_sbu_0, # of connection points: 6
#     Node 5, Type 0, BuildingBlock: IZENUY_clean_sbu_0, # of connection points: 6
#     Node 6, Type 0, BuildingBlock: IZENUY_clean_sbu_0, # of connection points: 6
#     Node 7, Type 0, BuildingBlock: IZENUY_clean_sbu_0, # of connection points: 6
#     Node 8, Type 0, BuildingBlock: IZENUY_clean_sbu_0, # of connection points: 6
#     Node 9, Type 0, BuildingBlock: IZENUY_clean_sbu_0, # of connection points: 6
#     Node 10, Type 0, BuildingBlock: IZENUY_clean_sbu_0, # of connection points: 6
#     Node 11, Type 0, BuildingBlock: IZENUY_clean_sbu_0, # of connection points: 6
#     Node 12, Type 0, BuildingBlock: IZENUY_clean_sbu_0, # of connection points: 6
#     Node 13, Type 0, BuildingBlock: IZENUY_clean_sbu_0, # of connection points: 6
#     Node 14, Type 0, BuildingBlock: IZENUY_clean_sbu_0, # of connection points: 6
#     Node 15, Type 0, BuildingBlock: IZENUY_clean_sbu_0, # of connection points: 6
#     Node 16, Type 0, BuildingBlock: IZENUY_clean_sbu_0, # of connection points: 6
#     Node 17, Type 0, BuildingBlock: IZENUY_clean_sbu_0, # of connection points: 6
#     Node 18, Type 0, BuildingBlock: IZENUY_clean_sbu_0, # of connection points: 6
#     Node 19, Type 0, BuildingBlock: IZENUY_clean_sbu_0, # of connection points: 6
#     Node 20, Type 0, BuildingBlock: IZENUY_clean_sbu_0, # of connection points: 6
#     Node 21, Type 0, BuildingBlock: IZENUY_clean_sbu_0, # of connection points: 6
#     Node 22, Type 0, BuildingBlock: IZENUY_clean_sbu_0, # of connection points: 6
#     Node 23, Type 0, BuildingBlock: IZENUY_clean_sbu_0, # of connection points: 6
#     Edge 24, Type (0, 0), BuildingBlock: XUDNAN_clean_linker_2, # of connection points: 2
#     Edge 25, Type (0, 0), BuildingBlock: XUDNAN_clean_linker_2, # of connection points: 2
#     Edge 26, Type (0, 0), BuildingBlock: XUDNAN_clean_linker_2, # of connection points: 2
#     Edge 27, Type (0, 0), BuildingBlock: XUDNAN_clean_linker_2, # of connection points: 2
#     Edge 28, Type (0, 0), BuildingBlock: XUDNAN_clean_linker_2, # of connection points: 2
#     Edge 29, Type (0, 0), BuildingBlock: XUDNAN_clean_linker_2, # of connection points: 2
#     Edge 30, Type (0, 0), BuildingBlock: XUDNAN_clean_linker_2, # of connection points: 2
#     Edge 31, Type (0, 0), BuildingBlock: XUDNAN_clean_linker_2, # of connection points: 2
#     Edge 32, Type (0, 0), BuildingBlock: XUDNAN_clean_linker_2, # of connection points: 2
#     Edge 33, Type (0, 0), BuildingBlock: XUDNAN_clean_linker_2, # of connection points: 2
#     Edge 34, Type (0, 0), BuildingBlock: XUDNAN_clean_linker_2, # of connection points: 2
#     Edge 35, Type (0, 0), BuildingBlock: XUDNAN_clean_linker_2, # of connection points: 2
#     Edge 36, Type (0, 0), BuildingBlock: XUDNAN_clean_linker_2, # of connection points: 2
#     Edge 37, Type (0, 0), BuildingBlock: XUDNAN_clean_linker_2, # of connection points: 2
#     Edge 38, Type (0, 0), BuildingBlock: XUDNAN_clean_linker_2, # of connection points: 2
#     Edge 39, Type (0, 0), BuildingBlock: XUDNAN_clean_linker_2, # of connection points: 2
#     Edge 40, Type (0, 0), BuildingBlock: XUDNAN_clean_linker_2, # of connection points: 2
#     Edge 41, Type (0, 0), BuildingBlock: XUDNAN_clean_linker_2, # of connection points: 2
#     Edge 42, Type (0, 0), BuildingBlock: XUDNAN_clean_linker_2, # of connection points: 2
#     Edge 43, Type (0, 0), BuildingBlock: XUDNAN_clean_linker_2, # of connection points: 2
#     Edge 44, Type (0, 0), BuildingBlock: XUDNAN_clean_linker_2, # of connection points: 2
#     Edge 45, Type (0, 0), BuildingBlock: XUDNAN_clean_linker_2, # of connection points: 2
#     Edge 46, Type (0, 0), BuildingBlock: XUDNAN_clean_linker_2, # of connection points: 2
#     Edge 47, Type (0, 0), BuildingBlock: XUDNAN_clean_linker_2, # of connection points: 2
#     Edge 48, Type (0, 0), BuildingBlock: XUDNAN_clean_linker_2, # of connection points: 2
#     Edge 49, Type (0, 0), BuildingBlock: XUDNAN_clean_linker_2, # of connection points: 2
#     Edge 50, Type (0, 0), BuildingBlock: XUDNAN_clean_linker_2, # of connection points: 2
#     Edge 51, Type (0, 0), BuildingBlock: XUDNAN_clean_linker_2, # of connection points: 2
#     Edge 52, Type (0, 0), BuildingBlock: XUDNAN_clean_linker_2, # of connection points: 2
#     Edge 53, Type (0, 0), BuildingBlock: XUDNAN_clean_linker_2, # of connection points: 2
#     Edge 54, Type (0, 0), BuildingBlock: XUDNAN_clean_linker_2, # of connection points: 2
#     Edge 55, Type (0, 0), BuildingBlock: XUDNAN_clean_linker_2, # of connection points: 2
#     Edge 56, Type (0, 0), BuildingBlock: XUDNAN_clean_linker_2, # of connection points: 2
#     Edge 57, Type (0, 0), BuildingBlock: XUDNAN_clean_linker_2, # of connection points: 2
#     Edge 58, Type (0, 0), BuildingBlock: XUDNAN_clean_linker_2, # of connection points: 2
#     Edge 59, Type (0, 0), BuildingBlock: XUDNAN_clean_linker_2, # of connection points: 2
#     Edge 60, Type (0, 0), BuildingBlock: XUDNAN_clean_linker_2, # of connection points: 2
#     Edge 61, Type (0, 0), BuildingBlock: XUDNAN_clean_linker_2, # of connection points: 2
#     Edge 62, Type (0, 0), BuildingBlock: XUDNAN_clean_linker_2, # of connection points: 2
#     Edge 63, Type (0, 0), BuildingBlock: XUDNAN_clean_linker_2, # of connection points: 2
#     Edge 64, Type (0, 0), BuildingBlock: XUDNAN_clean_linker_2, # of connection points: 2
#     Edge 65, Type (0, 0), BuildingBlock: XUDNAN_clean_linker_2, # of connection points: 2
#     Edge 66, Type (0, 0), BuildingBlock: XUDNAN_clean_linker_2, # of connection points: 2
#     Edge 67, Type (0, 0), BuildingBlock: XUDNAN_clean_linker_2, # of connection points: 2
#     Edge 68, Type (0, 0), BuildingBlock: XUDNAN_clean_linker_2, # of connection points: 2
#     Edge 69, Type (0, 0), BuildingBlock: XUDNAN_clean_linker_2, # of connection points: 2
#     Edge 70, Type (0, 0), BuildingBlock: XUDNAN_clean_linker_2, # of connection points: 2
#     Edge 71, Type (0, 0), BuildingBlock: XUDNAN_clean_linker_2, # of connection points: 2
#     Edge 72, Type (0, 0), BuildingBlock: XUDNAN_clean_linker_2, # of connection points: 2
#     Edge 73, Type (0, 0), BuildingBlock: XUDNAN_clean_linker_2, # of connection points: 2
#     Edge 74, Type (0, 0), BuildingBlock: XUDNAN_clean_linker_2, # of connection points: 2
#     Edge 75, Type (0, 0), BuildingBlock: XUDNAN_clean_linker_2, # of connection points: 2
#     Edge 76, Type (0, 0), BuildingBlock: XUDNAN_clean_linker_2, # of connection points: 2
#     Edge 77, Type (0, 0), BuildingBlock: XUDNAN_clean_linker_2, # of connection points: 2
#     Edge 78, Type (0, 0), BuildingBlock: XUDNAN_clean_linker_2, # of connection points: 2
#     Edge 79, Type (0, 0), BuildingBlock: XUDNAN_clean_linker_2, # of connection points: 2
#     Edge 80, Type (0, 0), BuildingBlock: XUDNAN_clean_linker_2, # of connection points: 2
#     Edge 81, Type (0, 0), BuildingBlock: XUDNAN_clean_linker_2, # of connection points: 2
#     Edge 82, Type (0, 0), BuildingBlock: XUDNAN_clean_linker_2, # of connection points: 2
#     Edge 83, Type (0, 0), BuildingBlock: XUDNAN_clean_linker_2, # of connection points: 2
#     Edge 84, Type (0, 0), BuildingBlock: XUDNAN_clean_linker_2, # of connection points: 2
#     Edge 85, Type (0, 0), BuildingBlock: XUDNAN_clean_linker_2, # of connection points: 2
#     Edge 86, Type (0, 0), BuildingBlock: XUDNAN_clean_linker_2, # of connection points: 2
#     Edge 87, Type (0, 0), BuildingBlock: XUDNAN_clean_linker_2, # of connection points: 2
#     Edge 88, Type (0, 0), BuildingBlock: XUDNAN_clean_linker_2, # of connection points: 2
#     Edge 89, Type (0, 0), BuildingBlock: XUDNAN_clean_linker_2, # of connection points: 2
#     Edge 90, Type (0, 0), BuildingBlock: XUDNAN_clean_linker_2, # of connection points: 2
#     Edge 91, Type (0, 0), BuildingBlock: XUDNAN_clean_linker_2, # of connection points: 2
#     Edge 92, Type (0, 0), BuildingBlock: XUDNAN_clean_linker_2, # of connection points: 2
#     Edge 93, Type (0, 0), BuildingBlock: XUDNAN_clean_linker_2, # of connection points: 2
#     Edge 94, Type (0, 0), BuildingBlock: XUDNAN_clean_linker_2, # of connection points: 2
#     Edge 95, Type (0, 0), BuildingBlock: XUDNAN_clean_linker_2, # of connection points: 2
# Relax obj value: 0.236
# Max RMSD: 0.213
# Mean RMSD: 0.213
data_MOF--net-smq--node1-IZENUY_clean_sbu_0--edge1-XUDNAN_clean_linker_2
_symmetry_space_group_name_H-M    P1
_symmetry_Int_Tables_number       1
_symmetry_cell_setting            triclinic
loop_
_symmetry_equiv_pos_as_xyz
'x, y, z'
_cell_length_a     45.227159
_cell_length_b     45.206292
_cell_length_c     45.209306
_cell_angle_alpha  89.950919
_cell_angle_beta   89.968795
_cell_angle_gamma 90.048701
loop_
_atom_site_label
_atom_site_type_symbol
_atom_site_fract_x
_atom_site_fract_y
_atom_site_fract_z
_atom_type_partial_charge
Fe0 Fe 0.00347 0.18877 0.30613 0.0
Fe1 Fe 0.0063 0.18524 0.23817 0.0
O2 O 0.00418 0.20644 0.27103 0.0
Fe3 Fe 0.00292 0.2455 0.26885 0.0
O4 O 0.03727 0.24842 0.28898 0.0
O5 O 0.02461 0.21805 0.32488 0.0
O6 O 0.03872 0.17128 0.29934 0.0
C7 C 0.04564 0.15615 0.27705 0.0
C8 C 0.96368 0.23285 0.31616 0.0
O9 O 0.02925 0.15579 0.25433 0.0
C10 C 0.96545 0.23071 0.22411 0.0
O11 O 0.98235 0.15636 0.2934 0.0
O12 O 0.97231 0.16656 0.24699 0.0
O13 O 0.98088 0.2503 0.30257 0.0
O14 O 0.96817 0.20537 0.31565 0.0
C15 C 0.04264 0.23061 0.22258 0.0
O16 O 0.9836 0.21081 0.21638 0.0
O17 O 0.9686 0.24461 0.24814 0.0
C18 C 0.96602 0.15362 0.27079 0.0
O19 O 0.0404 0.20309 0.22659 0.0
O20 O 0.02468 0.2482 0.23481 0.0
C21 C 0.04211 0.23713 0.31402 0.0
Fe22 Fe 0.33317 0.49599 0.79885 0.0
Fe23 Fe 0.3234 0.5103 0.73381 0.0
O24 O 0.30872 0.50371 0.76935 0.0
Fe25 Fe 0.2699 0.505 0.77503 0.0
O26 O 0.27368 0.5347 0.80175 0.0
O27 O 0.31043 0.51475 0.82684 0.0
O28 O 0.35156 0.53115 0.7943 0.0
C29 C 0.36252 0.54042 0.77053 0.0
C30 C 0.28908 0.45657 0.81082 0.0
O31 O 0.35836 0.52624 0.74684 0.0
C32 C 0.27276 0.47626 0.72209 0.0
O33 O 0.36006 0.47545 0.7757 0.0
O34 O 0.33825 0.47352 0.7324 0.0
O35 O 0.26979 0.47612 0.80453 0.0
O36 O 0.31598 0.46088 0.80534 0.0
C37 C 0.28149 0.55281 0.73512 0.0
O38 O 0.29133 0.49559 0.71402 0.0
O39 O 0.26386 0.47531 0.74854 0.0
C40 C 0.35488 0.46208 0.75153 0.0
O41 O 0.30871 0.54717 0.73383 0.0
O42 O 0.26349 0.53414 0.74632 0.0
C43 C 0.29069 0.53447 0.82388 0.0
Fe44 Fe 0.9985 0.75848 0.26525 0.0
Fe45 Fe 0.00197 0.81687 0.30066 0.0
O46 O 0.00267 0.79744 0.26653 0.0
Fe47 Fe 0.00671 0.81753 0.23337 0.0
O48 O 0.971 0.80526 0.22051 0.0
O49 O 0.97851 0.75814 0.2294 0.0
O50 O 0.96282 0.76064 0.28345 0.0
C51 C 0.95775 0.77307 0.30793 0.0
C52 C 0.0404 0.76617 0.22248 0.0
O53 O 0.97601 0.79133 0.31881 0.0
C54 C 0.04781 0.84447 0.26784 0.0
O55 O 0.0182 0.75235 0.30052 0.0
O56 O 0.0337 0.79657 0.31422 0.0
O57 O 0.02567 0.78811 0.2135 0.0
O58 O 0.03395 0.75349 0.24655 0.0
C59 C 0.96774 0.85223 0.26533 0.0
O60 O 0.02864 0.84569 0.28846 0.0
O61 O 0.04257 0.83029 0.2445 0.0
C62 C 0.0358 0.76873 0.31517 0.0
O63 O 0.96934 0.83786 0.28915 0.0
O64 O 0.98882 0.85097 0.24714 0.0
C65 C 0.9654 0.7785 0.21512 0.0
Fe66 Fe 0.67202 0.49995 0.79959 0.0
Fe67 Fe 0.68039 0.50255 0.73267 0.0
O68 O 0.69576 0.50419 0.76858 0.0
Fe69 Fe 0.73435 0.50966 0.77281 0.0
O70 O 0.7383 0.47586 0.79383 0.0
O71 O 0.6992 0.48029 0.82258 0.0
O72 O 0.65996 0.46354 0.78712 0.0
C73 C 0.64912 0.4587 0.76199 0.0
C74 C 0.7086 0.5447 0.81874 0.0
O75 O 0.6494 0.47877 0.7427 0.0
C76 C 0.72431 0.5461 0.72569 0.0
O77 O 0.64088 0.51977 0.78189 0.0
O78 O 0.65935 0.53541 0.73956 0.0
O79 O 0.73081 0.53231 0.80674 0.0
O80 O 0.68271 0.5354 0.81429 0.0
C81 C 0.72911 0.46875 0.72484 0.0
O82 O 0.70804 0.52609 0.71515 0.0
O83 O 0.7338 0.54419 0.75185 0.0
C84 C 0.6417 0.53855 0.76087 0.0
O85 O 0.70126 0.4697 0.72454 0.0
O86 O 0.74403 0.48768 0.73949 0.0
C87 C 0.72357 0.46807 0.81621 0.0
Fe88 Fe 0.00107 0.81385 0.77438 0.0
Fe89 Fe 0.00713 0.75955 0.73393 0.0
O90 O 0.00383 0.79842 0.73849 0.0
Fe91 Fe 0.00363 0.82227 0.70715 0.0
O92 O 0.03714 0.84084 0.71996 0.0
O93 O 0.02083 0.84793 0.76497 0.0
O94 O 0.03623 0.79833 0.78543 0.0
C95 C 0.04239 0.77114 0.7849 0.0
C96 C 0.96027 0.84673 0.74438 0.0
O97 O 0.02835 0.75355 0.76816 0.0
C98 C 0.96815 0.77712 0.68772 0.0
O99 O 0.98091 0.78275 0.79014 0.0
O100 O 0.97222 0.75256 0.75295 0.0
O101 O 0.97897 0.84991 0.72377 0.0
O102 O 0.9655 0.82991 0.76594 0.0
C103 C 0.04659 0.77976 0.69246 0.0
O104 O 0.98632 0.75896 0.69905 0.0
O105 O 0.97059 0.8046 0.69233 0.0
C106 C 0.96591 0.76241 0.7783 0.0
O107 O 0.04232 0.76348 0.71474 0.0
O108 O 0.02791 0.79905 0.68479 0.0
C109 C 0.04053 0.85158 0.74547 0.0
Fe110 Fe 0.67935 0.50112 0.26978 0.0
Fe111 Fe 0.73753 0.50932 0.23591 0.0
O112 O 0.69859 0.50516 0.23591 0.0
Fe113 Fe 0.67858 0.50511 0.20216 0.0
O114 O 0.64579 0.5237 0.21788 0.0
O115 O 0.65966 0.53492 0.26301 0.0
O116 O 0.70522 0.52356 0.29138 0.0
C117 C 0.72348 0.54332 0.28364 0.0
C118 C 0.65049 0.46083 0.23223 0.0
O119 O 0.73578 0.54244 0.25858 0.0
C120 C 0.72934 0.471 0.18963 0.0
O121 O 0.69897 0.46748 0.27843 0.0
O122 O 0.74316 0.48549 0.26859 0.0
O123 O 0.66427 0.46846 0.2093 0.0
O124 O 0.64972 0.47775 0.25453 0.0
C125 C 0.71839 0.54941 0.19148 0.0
O126 O 0.74181 0.47643 0.21392 0.0
O127 O 0.70794 0.48672 0.18064 0.0
C128 C 0.72672 0.46618 0.28078 0.0
O129 O 0.73869 0.53385 0.20305 0.0
O130 O 0.69175 0.54154 0.19291 0.0
C131 C 0.64509 0.54077 0.24012 0.0
Fe132 Fe 0.00544 0.18036 0.76757 0.0
Fe133 Fe 0.00765 0.24217 0.74002 0.0
O134 O 0.0046 0.2034 0.73608 0.0
Fe135 Fe 0.00115 0.18734 0.70047 0.0
O136 O 0.97852 0.15577 0.71306 0.0
O137 O 0.96902 0.16639 0.75942 0.0
O138 O 0.98727 0.20714 0.79219 0.0
C139 C 0.97151 0.22963 0.7866 0.0
C140 C 0.04124 0.15077 0.72654 0.0
O141 O 0.9749 0.24395 0.7629 0.0
C142 C 0.0426 0.23283 0.69165 0.0
O143 O 0.04182 0.19324 0.77749 0.0
O144 O 0.03215 0.24067 0.77275 0.0
O145 O 0.03554 0.16752 0.70505 0.0
O146 O 0.02394 0.14956 0.74858 0.0
C147 C 0.96412 0.23424 0.69528 0.0
O148 O 0.0409 0.24267 0.71764 0.0
O149 O 0.02273 0.21607 0.68132 0.0
C150 C 0.04837 0.21986 0.7823 0.0
O151 O 0.9833 0.25032 0.70816 0.0
O152 O 0.96704 0.20658 0.69406 0.0
C153 C 0.96173 0.15419 0.7355 0.0
Fe154 Fe 0.33117 0.50617 0.20972 0.0
Fe155 Fe 0.3244 0.49507 0.27598 0.0
O156 O 0.3081 0.50181 0.24112 0.0
Fe157 Fe 0.26921 0.50437 0.23762 0.0
O158 O 0.26852 0.47366 0.21162 0.0
O159 O 0.30434 0.49067 0.18343 0.0
O160 O 0.34552 0.46898 0.21404 0.0
C161 C 0.3574 0.4594 0.23736 0.0
C162 C 0.29116 0.54999 0.1999 0.0
O163 O 0.35601 0.47431 0.26104 0.0
C164 C 0.27746 0.53406 0.28965 0.0
O165 O 0.36204 0.52312 0.23036 0.0
O166 O 0.3433 0.53009 0.27432 0.0
O167 O 0.2705 0.53238 0.20749 0.0
O168 O 0.31784 0.54315 0.20381 0.0
C169 C 0.27746 0.45815 0.28029 0.0
O170 O 0.29598 0.51451 0.29715 0.0
O171 O 0.26711 0.53498 0.26372 0.0
C172 C 0.35945 0.53877 0.25343 0.0
O173 O 0.3053 0.46011 0.27966 0.0
O174 O 0.26152 0.47734 0.26731 0.0
C175 C 0.28288 0.47319 0.18771 0.0
Fe176 Fe 0.27162 0.00163 0.2429 0.0
Fe177 Fe 0.29774 0.01092 0.18056 0.0
O178 O 0.26703 0.00347 0.20396 0.0
Fe179 Fe 0.23149 0.99779 0.18846 0.0
O180 O 0.21166 0.01428 0.2196 0.0
O181 O 0.24627 0.03252 0.24845 0.0
O182 O 0.30198 0.0285 0.24426 0.0
C183 C 0.30997 0.04845 0.22629 0.0
C184 C 0.22887 0.95651 0.23177 0.0
O185 O 0.30582 0.04564 0.1989 0.0
C186 C 0.26884 0.96715 0.14953 0.0
O187 O 0.29715 0.97072 0.23943 0.0
O188 O 0.32405 0.99046 0.2037 0.0
O189 O 0.22875 0.96097 0.20421 0.0
O190 O 0.2418 0.97455 0.24889 0.0
C191 C 0.25189 0.04606 0.1574 0.0
O192 O 0.29246 0.97645 0.16089 0.0
O193 O 0.24473 0.98046 0.15422 0.0
C194 C 0.31982 0.97053 0.22303 0.0
O195 O 0.27637 0.03292 0.15346 0.0
O196 O 0.2318 0.03433 0.17269 0.0
C197 C 0.22013 0.03304 0.23854 0.0
Fe198 Fe 0.50092 0.74173 0.68058 0.0
Fe199 Fe 0.49834 0.7718 0.74111 0.0
O200 O 0.49948 0.77439 0.70208 0.0
Fe201 Fe 0.49929 0.80976 0.6848 0.0
O202 O 0.47803 0.79788 0.65215 0.0
O203 O 0.46718 0.75152 0.6618 0.0
O204 O 0.47765 0.72021 0.7059 0.0
C205 C 0.46006 0.72777 0.72639 0.0
C206 C 0.54125 0.78011 0.65225 0.0
O207 O 0.4636 0.75175 0.74029 0.0
C208 C 0.53814 0.81648 0.73321 0.0
O209 O 0.53469 0.72909 0.6984 0.0
O210 O 0.51915 0.73732 0.74351 0.0
O211 O 0.53441 0.80265 0.6671 0.0
O212 O 0.52446 0.75768 0.65153 0.0
C213 C 0.45955 0.81909 0.72926 0.0
O214 O 0.53307 0.79124 0.74399 0.0
O215 O 0.5208 0.82782 0.71429 0.0
C216 C 0.53657 0.72452 0.72586 0.0
O217 O 0.47717 0.80576 0.74635 0.0
O218 O 0.46408 0.81942 0.70174 0.0
C219 C 0.46145 0.77552 0.64894 0.0
Fe220 Fe 0.74063 0.99832 0.24426 0.0
Fe221 Fe 0.705 0.00186 0.18604 0.0
O222 O 0.73933 0.00319 0.20526 0.0
Fe223 Fe 0.77266 0.00991 0.18579 0.0
O224 O 0.79527 0.98687 0.21014 0.0
O225 O 0.76393 0.9655 0.24074 0.0
O226 O 0.7086 0.9737 0.24602 0.0
C227 C 0.69611 0.95774 0.22678 0.0
C228 C 0.7841 0.04265 0.23465 0.0
O229 O 0.69652 0.96495 0.19983 0.0
C230 C 0.73263 0.04838 0.15751 0.0
O231 O 0.71764 0.03072 0.24984 0.0
O232 O 0.68418 0.01988 0.21591 0.0
O233 O 0.7802 0.04302 0.20707 0.0
O234 O 0.77304 0.02211 0.25014 0.0
C235 C 0.74499 0.97076 0.1487 0.0
O236 O 0.71016 0.03889 0.17098 0.0
O237 O 0.75636 0.03375 0.15754 0.0
C238 C 0.69295 0.03544 0.23756 0.0
O239 O 0.72035 0.98354 0.15285 0.0
O240 O 0.76761 0.97751 0.16341 0.0
C241 C 0.78822 0.96557 0.22689 0.0
Fe242 Fe 0.50277 0.23418 0.7383 0.0
Fe243 Fe 0.50421 0.19556 0.68206 0.0
O244 O 0.50241 0.23076 0.69917 0.0
Fe245 Fe 0.49989 0.26276 0.67695 0.0
O246 O 0.51974 0.28653 0.70291 0.0
O247 O 0.53627 0.2565 0.73742 0.0
O248 O 0.52687 0.20157 0.74435 0.0
C249 C 0.54451 0.18912 0.72641 0.0
C250 C 0.46045 0.27682 0.71983 0.0
O251 O 0.53917 0.18811 0.69918 0.0
C252 C 0.46247 0.22304 0.64823 0.0
O253 O 0.4694 0.21231 0.74126 0.0
O254 O 0.48318 0.17642 0.71141 0.0
O255 O 0.46453 0.27186 0.69275 0.0
O256 O 0.4787 0.26748 0.73907 0.0
C257 C 0.54221 0.23153 0.6476 0.0
O258 O 0.46892 0.20104 0.66396 0.0
O259 O 0.47977 0.24491 0.64677 0.0
C260 C 0.46531 0.18694 0.73034 0.0
O261 O 0.52605 0.20859 0.64988 0.0
O262 O 0.53511 0.25525 0.66026 0.0
C263 C 0.53872 0.27982 0.72229 0.0
Fe264 Fe 0.29754 0.00797 0.83167 0.0
Fe265 Fe 0.23063 0.00723 0.82842 0.0
O266 O 0.26498 0.00555 0.81012 0.0
Fe267 Fe 0.26647 0.00152 0.77103 0.0
O268 O 0.28855 0.96813 0.77379 0.0
O269 O 0.31958 0.98433 0.80757 0.0
O270 O 0.28788 0.97462 0.85211 0.0
C271 C 0.26429 0.97233 0.8667 0.0
C272 C 0.31116 0.04395 0.78474 0.0
O273 O 0.24389 0.99107 0.86315 0.0
C274 C 0.21914 0.03876 0.77606 0.0
O275 O 0.28137 0.03286 0.85974 0.0
O276 O 0.23828 0.04453 0.8406 0.0
O277 O 0.29969 0.02552 0.76676 0.0
O278 O 0.3088 0.04085 0.81234 0.0
C279 C 0.22062 0.96208 0.78991 0.0
O280 O 0.21048 0.02325 0.79755 0.0
O281 O 0.24433 0.03465 0.76486 0.0
C282 C 0.26035 0.05107 0.85625 0.0
O283 O 0.22181 0.97035 0.81655 0.0
O284 O 0.23338 0.97685 0.76946 0.0
C285 C 0.31194 0.96533 0.7886 0.0
Fe286 Fe 0.49834 0.8011 0.32398 0.0
Fe287 Fe 0.49945 0.73385 0.31971 0.0
O288 O 0.50058 0.76874 0.30192 0.0
Fe289 Fe 0.50379 0.77066 0.26286 0.0
O290 O 0.52784 0.80379 0.26311 0.0
O291 O 0.53362 0.81402 0.31057 0.0
O292 O 0.51925 0.78479 0.35511 0.0
C293 C 0.53828 0.76407 0.35433 0.0
C294 C 0.46445 0.81608 0.27323 0.0
O295 O 0.53407 0.74158 0.33827 0.0
C296 C 0.46174 0.72483 0.27385 0.0
O297 O 0.46219 0.79001 0.33842 0.0
O298 O 0.47787 0.74646 0.35144 0.0
O299 O 0.47058 0.79273 0.25932 0.0
O300 O 0.47807 0.82313 0.29662 0.0
C301 C 0.53876 0.72277 0.27271 0.0
O302 O 0.46518 0.72514 0.30152 0.0
O303 O 0.47998 0.73765 0.25656 0.0
C304 C 0.45761 0.76556 0.35098 0.0
O305 O 0.52027 0.71389 0.29154 0.0
O306 O 0.53757 0.74874 0.26278 0.0
C307 C 0.54208 0.816 0.28404 0.0
Fe308 Fe 0.73537 0.99949 0.76546 0.0
Fe309 Fe 0.70385 0.00342 0.82552 0.0
O310 O 0.7369 0.00336 0.80441 0.0
Fe311 Fe 0.77136 0.00714 0.82242 0.0
O312 O 0.77988 0.04048 0.80207 0.0
O313 O 0.76843 0.02241 0.75843 0.0
O314 O 0.71396 0.03299 0.7624 0.0
C315 C 0.69011 0.03825 0.7758 0.0
C316 C 0.78258 0.96428 0.77805 0.0
O317 O 0.68148 0.02164 0.79671 0.0
C318 C 0.74261 0.96819 0.85852 0.0
O319 O 0.70196 0.97568 0.76555 0.0
O320 O 0.69448 0.96699 0.8128 0.0
O321 O 0.7915 0.98382 0.79605 0.0
O322 O 0.75732 0.96593 0.76629 0.0
C323 C 0.73463 0.04777 0.85231 0.0
O324 O 0.72039 0.98521 0.85807 0.0
O325 O 0.76493 0.97364 0.84295 0.0
C326 C 0.69157 0.95964 0.78617 0.0
O327 O 0.71133 0.03994 0.83938 0.0
O328 O 0.75732 0.0313 0.85213 0.0
C329 C 0.78157 0.04152 0.77426 0.0
Fe330 Fe 0.50343 0.20039 0.33019 0.0
Fe331 Fe 0.5103 0.26746 0.32563 0.0
O332 O 0.50636 0.23268 0.30814 0.0
Fe333 Fe 0.50524 0.22992 0.26893 0.0
O334 O 0.47913 0.19816 0.26865 0.0
O335 O 0.46724 0.19284 0.31558 0.0
O336 O 0.48482 0.21854 0.36127 0.0
C337 C 0.46853 0.2412 0.36062 0.0
C338 C 0.54012 0.1825 0.28365 0.0
O339 O 0.47539 0.26301 0.34476 0.0
C340 C 0.54804 0.27548 0.27949 0.0
O341 O 0.53963 0.20645 0.34589 0.0
O342 O 0.5321 0.25316 0.35685 0.0
O343 O 0.53777 0.20599 0.26872 0.0
O344 O 0.52129 0.17611 0.30327 0.0
C345 C 0.47139 0.27951 0.27796 0.0
O346 O 0.545 0.27445 0.30718 0.0
O347 O 0.53052 0.26145 0.26258 0.0
C348 C 0.5478 0.22998 0.35831 0.0
O349 O 0.4896 0.28778 0.29752 0.0
O350 O 0.47302 0.25402 0.26655 0.0
C351 C 0.46107 0.18981 0.2886 0.0
Fe352 Fe 0.24443 0.27576 0.0121 0.0
Fe353 Fe 0.18343 0.30213 0.99761 0.0
O354 O 0.20592 0.27155 0.00718 0.0
Fe355 Fe 0.18969 0.23635 0.01202 0.0
O356 O 0.20111 0.2353 0.05012 0.0
O357 O 0.2475 0.24623 0.04077 0.0
O358 O 0.23899 0.30226 0.04192 0.0
C359 C 0.22425 0.32587 0.03918 0.0
C360 C 0.24239 0.22372 0.98206 0.0
O361 O 0.20581 0.3291 0.01827 0.0
C362 C 0.16253 0.25559 0.96178 0.0
O363 O 0.24817 0.30542 0.98413 0.0
O364 O 0.20389 0.3089 0.96405 0.0
O365 O 0.22234 0.21552 0.99976 0.0
O366 O 0.25172 0.24997 0.98226 0.0
C367 C 0.14942 0.27415 0.03906 0.0
O368 O 0.15754 0.28009 0.97467 0.0
O369 O 0.17787 0.23593 0.97413 0.0
C370 C 0.23138 0.31314 0.96294 0.0
O371 O 0.16192 0.29771 0.03109 0.0
O372 O 0.15403 0.25044 0.02505 0.0
C373 C 0.22786 0.23516 0.05768 0.0
Fe374 Fe 0.18372 0.76424 0.00268 0.0
Fe375 Fe 0.24606 0.7376 0.0038 0.0
O376 O 0.20705 0.73292 0.00392 0.0
Fe377 Fe 0.19107 0.69705 0.00488 0.0
O378 O 0.17256 0.70302 0.96986 0.0
O379 O 0.15413 0.74615 0.98163 0.0
O380 O 0.19918 0.77543 0.96765 0.0
C381 C 0.2257 0.78341 0.96492 0.0
C382 C 0.15553 0.7303 0.0439 0.0
O383 O 0.24561 0.7717 0.9809 0.0
C384 C 0.23617 0.69057 0.04456 0.0
O385 O 0.20877 0.78842 0.02359 0.0
O386 O 0.24513 0.75943 0.03755 0.0
O387 O 0.15857 0.70814 0.02698 0.0
O388 O 0.16738 0.7547 0.03765 0.0
C389 C 0.24004 0.69028 0.96634 0.0
O390 O 0.25315 0.70497 0.02736 0.0
O391 O 0.20884 0.6887 0.03957 0.0
C392 C 0.23036 0.78294 0.04051 0.0
O393 O 0.25 0.71613 0.97005 0.0
O394 O 0.22066 0.67953 0.98346 0.0
C395 C 0.15588 0.7245 0.96404 0.0
Fe396 Fe 0.76963 0.7456 0.50291 0.0
Fe397 Fe 0.79929 0.68462 0.50048 0.0
O398 O 0.76693 0.70639 0.50377 0.0
Fe399 Fe 0.73244 0.68841 0.50802 0.0
O400 O 0.71162 0.71607 0.48728 0.0
O401 O 0.74467 0.74834 0.47129 0.0
O402 O 0.80076 0.74583 0.47596 0.0
C403 C 0.80858 0.72587 0.45764 0.0
C404 C 0.72457 0.73454 0.54611 0.0
O405 O 0.80569 0.6988 0.46378 0.0
C406 C 0.77055 0.65732 0.54605 0.0
O407 O 0.7944 0.74572 0.53509 0.0
O408 O 0.82386 0.71213 0.51675 0.0
O409 O 0.72531 0.70687 0.54269 0.0
O410 O 0.7387 0.75166 0.52884 0.0
C411 C 0.75867 0.65328 0.46655 0.0
O412 O 0.79398 0.66981 0.53741 0.0
O413 O 0.74757 0.65761 0.52994 0.0
C414 C 0.81811 0.73105 0.53638 0.0
O415 O 0.78113 0.65287 0.48308 0.0
O416 O 0.73687 0.66919 0.47311 0.0
C417 C 0.71944 0.73632 0.4696 0.0
Fe418 Fe 0.82007 0.238 1.0005 0.0
Fe419 Fe 0.7631 0.27531 0.00362 0.0
O420 O 0.8023 0.27273 0.00346 0.0
Fe421 Fe 0.82416 0.30503 0.00632 0.0
O422 O 0.84064 0.29836 0.97051 0.0
O423 O 0.85213 0.25215 0.97973 0.0
O424 O 0.8029 0.23091 0.96525 0.0
C425 C 0.77535 0.23006 0.96117 0.0
C426 C 0.85357 0.26483 0.04281 0.0
O427 O 0.75776 0.24362 0.97841 0.0
C428 C 0.78159 0.31636 0.04735 0.0
O429 O 0.79128 0.21763 0.02033 0.0
O430 O 0.76007 0.25144 0.03611 0.0
O431 O 0.85472 0.28715 0.026 0.0
O432 O 0.83791 0.24287 0.036 0.0
C433 C 0.77806 0.32268 0.9687 0.0
O434 O 0.76204 0.30736 0.02924 0.0
O435 O 0.80872 0.31314 0.04202 0.0
C436 C 0.77138 0.22594 0.03815 0.0
O437 O 0.76331 0.29907 0.97092 0.0
O438 O 0.7977 0.32905 0.98749 0.0
C439 C 0.85388 0.27491 0.96343 0.0
Fe440 Fe 0.23632 0.26589 0.50105 0.0
Fe441 Fe 0.27092 0.32385 0.50839 0.0
O442 O 0.237 0.3049 0.5043 0.0
Fe443 Fe 0.20351 0.32519 0.50345 0.0
O444 O 0.18113 0.29594 0.52095 0.0
O445 O 0.21415 0.26293 0.53419 0.0
O446 O 0.26869 0.25993 0.52486 0.0
C447 C 0.2813 0.27631 0.54381 0.0
C448 C 0.1939 0.28533 0.45951 0.0
O449 O 0.27947 0.30413 0.54218 0.0
C450 C 0.242 0.35881 0.4685 0.0
O451 O 0.25924 0.26657 0.46805 0.0
O452 O 0.29216 0.29769 0.48599 0.0
O453 O 0.19558 0.31209 0.46682 0.0
O454 O 0.20368 0.26507 0.47633 0.0
C455 C 0.23273 0.35331 0.54799 0.0
O456 O 0.26468 0.34393 0.47452 0.0
O457 O 0.21972 0.358 0.48547 0.0
C458 C 0.28427 0.27892 0.46678 0.0
O459 O 0.25554 0.35353 0.53165 0.0
O460 O 0.20988 0.33942 0.54024 0.0
C461 C 0.18974 0.27564 0.53821 0.0
Fe462 Fe 0.81914 0.70318 1.00056 0.0
Fe463 Fe 0.82418 0.77025 0.99491 0.0
O464 O 0.80208 0.73848 1.00002 0.0
Fe465 Fe 0.7634 0.74228 0.00474 0.0
O466 O 0.76469 0.72419 0.04043 0.0
O467 O 0.79328 0.68703 0.02747 0.0
O468 O 0.84198 0.71342 0.03208 0.0
C469 C 0.85922 0.73527 0.03207 0.0
C470 C 0.76952 0.69147 0.96786 0.0
O471 O 0.85737 0.75462 0.01202 0.0
C472 C 0.7724 0.7847 0.96317 0.0
O473 O 0.84785 0.71308 0.973 0.0
O474 O 0.83506 0.75777 0.9587 0.0
O475 O 0.75435 0.70741 0.98537 0.0
O476 O 0.79731 0.69072 0.9696 0.0
C477 C 0.78757 0.79128 0.03709 0.0
O478 O 0.79549 0.7922 0.97687 0.0
O479 O 0.75924 0.76087 0.96923 0.0
C480 C 0.84737 0.73334 0.95346 0.0
O481 O 0.81385 0.78427 0.0308 0.0
O482 O 0.76597 0.77813 0.02472 0.0
C483 C 0.77558 0.69903 0.04556 0.0
Fe484 Fe 0.77504 0.26977 0.50804 0.0
Fe485 Fe 0.8029 0.33171 0.5068 0.0
O486 O 0.77121 0.30875 0.5053 0.0
Fe487 Fe 0.73618 0.32537 0.50108 0.0
O488 O 0.71648 0.29776 0.52312 0.0
O489 O 0.75075 0.26756 0.54012 0.0
O490 O 0.8065 0.27193 0.5344 0.0
C491 C 0.81434 0.29309 0.55134 0.0
C492 C 0.72943 0.27757 0.46487 0.0
O493 O 0.81047 0.31964 0.54382 0.0
C494 C 0.77277 0.35664 0.46133 0.0
O495 O 0.79909 0.26891 0.47554 0.0
O496 O 0.82802 0.30432 0.49119 0.0
O497 O 0.72919 0.30536 0.46727 0.0
O498 O 0.74398 0.26161 0.48287 0.0
C499 C 0.76225 0.36297 0.54043 0.0
O500 O 0.7965 0.34468 0.46965 0.0
O501 O 0.74987 0.35582 0.47759 0.0
C502 C 0.82223 0.28422 0.47278 0.0
O503 O 0.78398 0.3636 0.52296 0.0
O504 O 0.74087 0.34592 0.53526 0.0
C505 C 0.72493 0.27819 0.54125 0.0
Fe506 Fe 0.27224 0.68394 0.50657 0.0
Fe507 Fe 0.23325 0.73843 0.49616 0.0
O508 O 0.23668 0.69997 0.50382 0.0
Fe509 Fe 0.20488 0.67743 0.50883 0.0
O510 O 0.21633 0.66638 0.54579 0.0
O511 O 0.26189 0.65553 0.53365 0.0
O512 O 0.28154 0.70756 0.53735 0.0
C513 C 0.28229 0.7354 0.53578 0.0
C514 C 0.24271 0.64326 0.47293 0.0
O515 O 0.26757 0.74898 0.51603 0.0
C516 C 0.18642 0.71252 0.46284 0.0
O517 O 0.28958 0.70906 0.47997 0.0
O518 O 0.25292 0.73489 0.46117 0.0
O519 O 0.22126 0.64459 0.49102 0.0
O520 O 0.26482 0.65994 0.4757 0.0
C521 C 0.19112 0.73045 0.53929 0.0
O522 O 0.19837 0.73487 0.47495 0.0
O523 O 0.19099 0.68687 0.47266 0.0
C524 C 0.27849 0.72399 0.45912 0.0
O525 O 0.21364 0.74446 0.53053 0.0
O526 O 0.18314 0.70654 0.52699 0.0
C527 C 0.24099 0.65527 0.55219 0.0
H528 H 0.07238 0.19951 0.17937 0.0
H529 H 0.05616 0.2884 0.21199 0.0
H530 H 0.08181 0.30908 0.16861 0.0
H531 H 0.14622 0.21562 0.14697 0.0
H532 H 0.13997 0.19144 0.11595 0.0
H533 H 0.12292 0.1835 0.15111 0.0
H534 H 0.07156 0.18251 0.12567 0.0
H535 H 0.08834 0.19099 0.09055 0.0
H536 H 0.0594 0.21432 0.10491 0.0
H537 H 0.10559 0.32043 0.12017 0.0
H538 H 0.12989 0.32152 0.07128 0.0
H539 H 0.13019 0.22543 0.06969 0.0
C540 C 0.07483 0.22329 0.17775 0.0
C541 C 0.06218 0.24233 0.19907 0.0
C542 C 0.06558 0.27335 0.19592 0.0
C543 C 0.0801 0.28535 0.17134 0.0
C544 C 0.09128 0.26606 0.15017 0.0
C545 C 0.08928 0.23569 0.15329 0.0
C546 C 0.10234 0.21999 0.12672 0.0
C547 C 0.12947 0.20155 0.13573 0.0
C548 C 0.07901 0.20083 0.11104 0.0
C549 C 0.1112 0.24631 0.10793 0.0
C550 C 0.10481 0.27265 0.12196 0.0
C551 C 0.11087 0.29995 0.10898 0.0
C552 C 0.12448 0.30034 0.08113 0.0
C553 C 0.13169 0.27359 0.06651 0.0
C554 C 0.12459 0.24628 0.08006 0.0
H555 H 0.23259 0.55597 0.69853 0.0
H556 H 0.30969 0.60483 0.72809 0.0
H557 H 0.30408 0.63929 0.68645 0.0
H558 H 0.24708 0.55779 0.62566 0.0
H559 H 0.21019 0.56376 0.61184 0.0
H560 H 0.21553 0.54618 0.64713 0.0
H561 H 0.18295 0.58565 0.6727 0.0
H562 H 0.17678 0.60301 0.63731 0.0
H563 H 0.19133 0.62433 0.66768 0.0
H564 H 0.29926 0.65883 0.63633 0.0
H565 H 0.28776 0.67133 0.58467 0.0
H566 H 0.20962 0.61613 0.58793 0.0
C567 C 0.24718 0.57492 0.69711 0.0
C568 C 0.27145 0.57789 0.71668 0.0
C569 C 0.29084 0.60231 0.71351 0.0
C570 C 0.28791 0.62194 0.68983 0.0
C571 C 0.26505 0.61734 0.66978 0.0
C572 C 0.2443 0.59517 0.67358 0.0
C573 C 0.22327 0.59411 0.64728 0.0
C574 C 0.22409 0.56365 0.63209 0.0
C575 C 0.19171 0.60227 0.65681 0.0
C576 C 0.23656 0.61796 0.62757 0.0
C577 C 0.26079 0.6308 0.6411 0.0
C578 C 0.2795 0.65007 0.62604 0.0
C579 C 0.27289 0.65704 0.59667 0.0
C580 C 0.24733 0.64569 0.58279 0.0
C581 C 0.22878 0.6259 0.59845 0.0
H582 H 0.85874 0.71345 0.08911 0.0
H583 H 0.91017 0.76659 0.02771 0.0
H584 H 0.9444 0.77987 0.06775 0.0
H585 H 0.86289 0.7623 0.14831 0.0
H586 H 0.86649 0.73492 0.17709 0.0
H587 H 0.8479 0.7257 0.14313 0.0
H588 H 0.88348 0.68165 0.13502 0.0
H589 H 0.90202 0.69046 0.16919 0.0
H590 H 0.92285 0.68791 0.13529 0.0
H591 H 0.96879 0.79289 0.11393 0.0
H592 H 0.98543 0.80231 0.16475 0.0
H593 H 0.92033 0.74012 0.19826 0.0
C594 C 0.87776 0.7271 0.084 0.0
C595 C 0.88193 0.73887 0.05525 0.0
C596 C 0.90658 0.75731 0.04952 0.0
C597 C 0.92619 0.76495 0.07211 0.0
C598 C 0.92095 0.7539 0.10035 0.0
C599 C 0.89764 0.73509 0.10648 0.0
C600 C 0.89619 0.72818 0.1394 0.0
C601 C 0.86661 0.73839 0.15275 0.0
C602 C 0.90146 0.69508 0.14505 0.0
C603 C 0.9218 0.74675 0.15075 0.0
C604 C 0.93566 0.76127 0.12763 0.0
C605 C 0.95848 0.78133 0.13219 0.0
C606 C 0.96758 0.78671 0.16116 0.0
C607 C 0.95408 0.77199 0.1853 0.0
C608 C 0.93109 0.75145 0.18008 0.0
H609 H 0.70509 0.42169 0.69595 0.0
H610 H 0.78475 0.475 0.70116 0.0
H611 H 0.80324 0.45144 0.65542 0.0
H612 H 0.73931 0.35445 0.66269 0.0
H613 H 0.70732 0.3479 0.63984 0.0
H614 H 0.70311 0.36514 0.67552 0.0
H615 H 0.67625 0.40912 0.65066 0.0
H616 H 0.68093 0.39241 0.61488 0.0
H617 H 0.69449 0.42933 0.62147 0.0
H618 H 0.80961 0.42735 0.60575 0.0
H619 H 0.80591 0.40093 0.55822 0.0
H620 H 0.72111 0.36455 0.5851 0.0
C621 C 0.72678 0.42788 0.68795 0.0
C622 C 0.74346 0.45024 0.70208 0.0
C623 C 0.77172 0.45773 0.69087 0.0
C624 C 0.7823 0.4446 0.6648 0.0
C625 C 0.76445 0.42387 0.65052 0.0
C626 C 0.73751 0.41516 0.662 0.0
C627 C 0.72148 0.39422 0.64136 0.0
C628 C 0.7176 0.36361 0.65571 0.0
C629 C 0.69153 0.40706 0.63152 0.0
C630 C 0.74323 0.3932 0.61598 0.0
C631 C 0.76795 0.41026 0.62178 0.0
C632 C 0.79054 0.41363 0.60113 0.0
C633 C 0.78809 0.39873 0.57408 0.0
C634 C 0.76313 0.38077 0.56784 0.0
C635 C 0.7404 0.37818 0.58911 0.0
H636 H 0.06512 0.79982 0.83326 0.0
H637 H 0.06459 0.71475 0.78874 0.0
H638 H 0.09394 0.69336 0.8296 0.0
H639 H 0.13965 0.79456 0.86389 0.0
H640 H 0.12921 0.8126 0.89785 0.0
H641 H 0.11019 0.82139 0.86397 0.0
H642 H 0.06024 0.80829 0.88891 0.0
H643 H 0.0791 0.79902 0.92272 0.0
H644 H 0.05531 0.77222 0.90526 0.0
H645 H 0.122 0.68094 0.87648 0.0
H646 H 0.14717 0.67878 0.92498 0.0
H647 H 0.12736 0.77168 0.93907 0.0
C648 C 0.07159 0.77683 0.83173 0.0
C649 C 0.06264 0.75901 0.80765 0.0
C650 C 0.07124 0.72887 0.8069 0.0
C651 C 0.08788 0.71651 0.83002 0.0
C652 C 0.0957 0.73456 0.85376 0.0
C653 C 0.08794 0.76411 0.85467 0.0
C654 C 0.09805 0.77851 0.88314 0.0
C655 C 0.12062 0.80322 0.87683 0.0
C656 C 0.0716 0.79019 0.90106 0.0
C657 C 0.11242 0.75237 0.8983 0.0
C658 C 0.11106 0.72725 0.88095 0.0
C659 C 0.12315 0.70046 0.89026 0.0
C660 C 0.13729 0.69942 0.9179 0.0
C661 C 0.13893 0.72495 0.93601 0.0
C662 C 0.12611 0.75165 0.926 0.0
H663 H 0.69104 0.5672 0.32826 0.0
H664 H 0.7793 0.56568 0.29076 0.0
H665 H 0.7979 0.59421 0.33365 0.0
H666 H 0.69621 0.64296 0.35935 0.0
H667 H 0.67442 0.63294 0.39124 0.0
H668 H 0.66834 0.61458 0.35642 0.0
H669 H 0.67664 0.56412 0.38257 0.0
H670 H 0.68359 0.58259 0.41713 0.0
H671 H 0.71077 0.55763 0.40211 0.0
H672 H 0.80763 0.61726 0.38341 0.0
H673 H 0.8068 0.64033 0.4329 0.0
H674 H 0.71146 0.63004 0.43625 0.0
C675 C 0.71418 0.5734 0.32884 0.0
C676 C 0.73381 0.56429 0.30633 0.0
C677 C 0.76391 0.57272 0.30771 0.0
C678 C 0.77466 0.58872 0.33204 0.0
C679 C 0.75486 0.59655 0.35437 0.0
C680 C 0.72511 0.58983 0.35262 0.0
C681 C 0.70849 0.60061 0.37964 0.0
C682 C 0.68552 0.62418 0.37114 0.0
C683 C 0.69403 0.57469 0.39634 0.0
C684 C 0.73366 0.61389 0.39723 0.0
C685 C 0.76026 0.61103 0.38241 0.0
C686 C 0.78688 0.62003 0.39501 0.0
C687 C 0.78621 0.63282 0.42324 0.0
C688 C 0.75906 0.63692 0.43833 0.0
C689 C 0.73249 0.62729 0.42511 0.0
H690 H 0.94964 0.20041 0.83506 0.0
H691 H 0.94895 0.28563 0.79066 0.0
H692 H 0.919 0.30642 0.83125 0.0
H693 H 0.87377 0.20505 0.86284 0.0
H694 H 0.8826 0.18656 0.89704 0.0
H695 H 0.9032 0.17822 0.86396 0.0
H696 H 0.95197 0.19107 0.89125 0.0
H697 H 0.93152 0.19976 0.9243 0.0
H698 H 0.95605 0.22687 0.90832 0.0
H699 H 0.89164 0.31866 0.87774 0.0
H700 H 0.86521 0.32069 0.92534 0.0
H701 H 0.8824 0.22714 0.93895 0.0
C702 C 0.94305 0.2234 0.8338 0.0
C703 C 0.95176 0.24145 0.80978 0.0
C704 C 0.94248 0.27137 0.8088 0.0
C705 C 0.92556 0.28341 0.83179 0.0
C706 C 0.91778 0.26515 0.85538 0.0
C707 C 0.92584 0.23569 0.85637 0.0
C708 C 0.91441 0.22085 0.88418 0.0
C709 C 0.89218 0.19622 0.87654 0.0
C710 C 0.94002 0.20895 0.90313 0.0
C711 C 0.89928 0.24678 0.899 0.0
C712 C 0.90147 0.27209 0.88199 0.0
C713 C 0.88957 0.29894 0.89118 0.0
C714 C 0.87464 0.29987 0.91831 0.0
C715 C 0.87166 0.27409 0.93595 0.0
C716 C 0.88438 0.24728 0.92611 0.0
H717 H 0.30499 0.41644 0.31466 0.0
H718 H 0.21974 0.45776 0.29906 0.0
H719 H 0.20052 0.43512 0.34484 0.0
H720 H 0.27527 0.34736 0.34907 0.0
H721 H 0.30514 0.34535 0.37531 0.0
H722 H 0.31143 0.36102 0.33917 0.0
H723 H 0.33096 0.40916 0.3627 0.0
H724 H 0.32506 0.39408 0.39904 0.0
H725 H 0.30828 0.42882 0.38896 0.0
H726 H 0.19271 0.41361 0.39581 0.0
H727 H 0.19541 0.39025 0.44523 0.0
H728 H 0.28598 0.36386 0.42725 0.0
C729 C 0.28199 0.42001 0.32031 0.0
C730 C 0.26392 0.43895 0.3032 0.0
C731 C 0.23402 0.44321 0.31163 0.0
C732 C 0.22291 0.43056 0.33772 0.0
C733 C 0.24184 0.41339 0.35492 0.0
C734 C 0.27057 0.40756 0.34623 0.0
C735 C 0.28693 0.38984 0.36944 0.0
C736 C 0.29518 0.35907 0.35753 0.0
C737 C 0.31442 0.40649 0.38069 0.0
C738 C 0.26334 0.38775 0.39308 0.0
C739 C 0.23739 0.40117 0.38424 0.0
C740 C 0.21282 0.40273 0.40284 0.0
C741 C 0.21465 0.38966 0.43098 0.0
C742 C 0.24095 0.3754 0.44027 0.0
C743 C 0.26557 0.37471 0.42099 0.0
H744 H 0.1695 0.04994 0.21131 0.0
H745 H 0.22077 0.06413 0.29115 0.0
H746 H 0.18138 0.09732 0.31017 0.0
H747 H 0.14182 0.12483 0.20526 0.0
H748 H 0.10651 0.11299 0.19108 0.0
H749 H 0.13909 0.0912 0.18407 0.0
H750 H 0.11327 0.04536 0.20706 0.0
H751 H 0.08072 0.06703 0.21441 0.0
H752 H 0.09877 0.04755 0.24414 0.0
H753 H 0.13482 0.12727 0.32087 0.0
H754 H 0.08714 0.15381 0.3213 0.0
H755 H 0.06757 0.11983 0.23362 0.0
C756 C 0.17253 0.05998 0.23285 0.0
C757 C 0.19802 0.05422 0.24996 0.0
C758 C 0.20136 0.06822 0.27774 0.0
C759 C 0.17909 0.087 0.2887 0.0
C760 C 0.15396 0.09174 0.27138 0.0
C761 C 0.15083 0.07886 0.24388 0.0
C762 C 0.122 0.08754 0.22932 0.0
C763 C 0.1277 0.10519 0.20075 0.0
C764 C 0.10255 0.06024 0.2234 0.0
C765 C 0.10892 0.10688 0.25319 0.0
C766 C 0.12764 0.10912 0.27727 0.0
C767 C 0.12007 0.12571 0.3021 0.0
C768 C 0.09284 0.14059 0.30216 0.0
C769 C 0.07344 0.13879 0.27754 0.0
C770 C 0.08173 0.12158 0.25285 0.0
H771 H 0.43514 0.68241 0.69573 0.0
H772 H 0.44008 0.72145 0.78323 0.0
H773 H 0.41445 0.67783 0.80407 0.0
H774 H 0.36133 0.64638 0.70677 0.0
H775 H 0.37192 0.61484 0.68488 0.0
H776 H 0.38713 0.65079 0.67668 0.0
H777 H 0.43997 0.62909 0.68147 0.0
H778 H 0.42505 0.59328 0.6904 0.0
H779 H 0.45067 0.61092 0.71533 0.0
H780 H 0.39446 0.62736 0.81602 0.0
H781 H 0.37527 0.57632 0.81759 0.0
H782 H 0.38269 0.57076 0.72196 0.0
C783 C 0.43013 0.68209 0.71917 0.0
C784 C 0.43956 0.7052 0.73792 0.0
C785 C 0.43275 0.70408 0.76846 0.0
C786 C 0.41839 0.67932 0.7805 0.0
C787 C 0.41059 0.65628 0.76157 0.0
C788 C 0.41555 0.65778 0.73144 0.0
C789 C 0.40593 0.62966 0.71605 0.0
C790 C 0.38004 0.63578 0.69485 0.0
C791 C 0.43197 0.61488 0.69987 0.0
C792 C 0.39604 0.61156 0.7424 0.0
C793 C 0.39873 0.62736 0.76842 0.0
C794 C 0.39185 0.61492 0.79575 0.0
C795 C 0.38118 0.58582 0.79642 0.0
C796 C 0.37752 0.56947 0.76991 0.0
C797 C 0.38539 0.58255 0.74264 0.0
H798 H 0.92287 0.87689 0.29984 0.0
H799 H 0.94964 0.86025 0.20903 0.0
H800 H 0.90289 0.88074 0.19122 0.0
H801 H 0.84303 0.86391 0.2901 0.0
H802 H 0.83211 0.89439 0.31333 0.0
H803 H 0.86649 0.87541 0.3202 0.0
H804 H 0.89502 0.92498 0.31634 0.0
H805 H 0.86072 0.94409 0.30988 0.0
H806 H 0.89065 0.9476 0.28377 0.0
H807 H 0.85535 0.90372 0.18209 0.0
H808 H 0.81167 0.93601 0.18153 0.0
H809 H 0.81441 0.94211 0.27724 0.0
C810 C 0.9187 0.8775 0.27626 0.0
C811 C 0.93991 0.86671 0.25588 0.0
C812 C 0.93387 0.8683 0.22515 0.0
C813 C 0.90719 0.87967 0.21474 0.0
C814 C 0.88671 0.88992 0.2352 0.0
C815 C 0.8922 0.88965 0.26527 0.0
C816 C 0.86733 0.90509 0.2819 0.0
C817 C 0.85129 0.8834 0.30261 0.0
C818 C 0.87914 0.93204 0.29897 0.0
C819 C 0.8475 0.91443 0.25633 0.0
C820 C 0.859 0.90465 0.22974 0.0
C821 C 0.84595 0.91137 0.20273 0.0
C822 C 0.82111 0.92964 0.20263 0.0
C823 C 0.80958 0.94114 0.22931 0.0
C824 C 0.8224 0.93287 0.25664 0.0
H825 H 0.61974 0.41705 0.79616 0.0
H826 H 0.65375 0.43415 0.70799 0.0
H827 H 0.63659 0.38536 0.69164 0.0
H828 H 0.63177 0.33522 0.79702 0.0
H829 H 0.59706 0.328 0.81527 0.0
H830 H 0.61656 0.36211 0.82219 0.0
H831 H 0.57012 0.392 0.80688 0.0
H832 H 0.55051 0.35803 0.80016 0.0
H833 H 0.5535 0.38535 0.77124 0.0
H834 H 0.61204 0.33853 0.68273 0.0
H835 H 0.57651 0.29734 0.6802 0.0
H836 H 0.55515 0.3094 0.7729 0.0
C837 C 0.62397 0.41013 0.77363 0.0
C838 C 0.63845 0.42912 0.75343 0.0
C839 C 0.64295 0.41982 0.72388 0.0
C840 C 0.63345 0.39205 0.7144 0.0
C841 C 0.61899 0.37392 0.73461 0.0
C842 C 0.61381 0.38256 0.76349 0.0
C843 C 0.59423 0.36024 0.77928 0.0
C844 C 0.61091 0.34552 0.80497 0.0
C845 C 0.56539 0.37478 0.79 0.0
C846 C 0.58851 0.33839 0.75441 0.0
C847 C 0.60372 0.34651 0.72911 0.0
C848 C 0.60038 0.33156 0.70244 0.0
C849 C 0.58018 0.30826 0.70121 0.0
C850 C 0.56364 0.30012 0.72645 0.0
C851 C 0.56832 0.31478 0.75361 0.0
H852 H 0.18678 0.95274 0.7394 0.0
H853 H 0.2066 0.91694 0.82633 0.0
H854 H 0.16444 0.88303 0.82223 0.0
H855 H 0.11121 0.95334 0.74584 0.0
H856 H 0.10216 0.94129 0.70894 0.0
H857 H 0.13656 0.96012 0.71579 0.0
H858 H 0.16574 0.91633 0.6933 0.0
H859 H 0.13137 0.89753 0.6858 0.0
H860 H 0.15967 0.87944 0.70724 0.0
H861 H 0.11577 0.86147 0.81435 0.0
H862 H 0.06693 0.84442 0.79842 0.0
H863 H 0.07882 0.88804 0.71364 0.0
C864 C 0.18288 0.93692 0.75697 0.0
C865 C 0.19992 0.93758 0.78327 0.0
C866 C 0.19377 0.91698 0.80609 0.0
C867 C 0.16984 0.89759 0.80399 0.0
C868 C 0.15249 0.89856 0.77865 0.0
C869 C 0.15904 0.91692 0.75507 0.0
C870 C 0.13555 0.91408 0.73109 0.0
C871 C 0.12049 0.94399 0.72507 0.0
C872 C 0.14888 0.90107 0.70267 0.0
C873 C 0.11429 0.89235 0.74561 0.0
C874 C 0.12464 0.88402 0.77314 0.0
C875 C 0.10785 0.86694 0.79244 0.0
C876 C 0.07997 0.8575 0.7832 0.0
C877 C 0.06926 0.86436 0.75458 0.0
C878 C 0.08673 0.88199 0.73543 0.0
H879 H 0.52532 0.66645 0.25779 0.0
H880 H 0.59743 0.72962 0.25949 0.0
H881 H 0.63235 0.68982 0.24509 0.0
H882 H 0.5616 0.60762 0.28909 0.0
H883 H 0.54443 0.57969 0.26642 0.0
H884 H 0.52566 0.61403 0.2733 0.0
H885 H 0.52172 0.62281 0.21562 0.0
H886 H 0.54009 0.58784 0.21022 0.0
H887 H 0.55488 0.62102 0.19372 0.0
H888 H 0.65965 0.64199 0.24064 0.0
H889 H 0.67737 0.59035 0.24032 0.0
H890 H 0.58712 0.5586 0.23651 0.0
C891 C 0.54839 0.67199 0.25437 0.0
C892 C 0.55893 0.7009 0.25971 0.0
C893 C 0.58909 0.70757 0.2552 0.0
C894 C 0.60896 0.68513 0.24709 0.0
C895 C 0.59797 0.65655 0.24284 0.0
C896 C 0.56826 0.65009 0.24565 0.0
C897 C 0.56227 0.61736 0.24153 0.0
C898 C 0.54762 0.6039 0.26921 0.0
C899 C 0.54362 0.61192 0.21363 0.0
C900 C 0.59345 0.60605 0.23752 0.0
C901 C 0.6137 0.62908 0.23828 0.0
C902 C 0.64401 0.62394 0.23888 0.0
C903 C 0.65384 0.59462 0.23874 0.0
C904 C 0.63352 0.57087 0.23725 0.0
C905 C 0.60297 0.57657 0.23637 0.0
H906 H 0.81508 0.08372 0.8019 0.0
H907 H 0.79973 0.04298 0.71629 0.0
H908 H 0.84273 0.06986 0.69594 0.0
H909 H 0.84223 0.15618 0.77343 0.0
H910 H 0.86883 0.15912 0.80297 0.0
H911 H 0.83441 0.13994 0.809 0.0
H912 H 0.86388 0.09379 0.82606 0.0
H913 H 0.89826 0.1126 0.81918 0.0
H914 H 0.89083 0.07766 0.80148 0.0
H915 H 0.89073 0.09689 0.6865 0.0
H916 H 0.93814 0.12417 0.68812 0.0
H917 H 0.92171 0.14629 0.78015 0.0
C918 C 0.82027 0.08092 0.77868 0.0
C919 C 0.80401 0.06118 0.76072 0.0
C920 C 0.81175 0.05807 0.73049 0.0
C921 C 0.83618 0.0732 0.71873 0.0
C922 C 0.85243 0.09157 0.73739 0.0
C923 C 0.84452 0.09581 0.76663 0.0
C924 C 0.8666 0.11523 0.78257 0.0
C925 C 0.85216 0.14435 0.79257 0.0
C926 C 0.88072 0.09882 0.80886 0.0
C927 C 0.8887 0.12043 0.75801 0.0
C928 C 0.88006 0.1069 0.73203 0.0
C929 C 0.89758 0.10785 0.70664 0.0
C930 C 0.92454 0.12323 0.70782 0.0
C931 C 0.93375 0.13726 0.73427 0.0
C932 C 0.91542 0.13579 0.75957 0.0
H933 H 0.45135 0.32803 0.30706 0.0
H934 H 0.44382 0.28142 0.22355 0.0
H935 H 0.41284 0.3222 0.20386 0.0
H936 H 0.37632 0.35824 0.30757 0.0
H937 H 0.38801 0.39249 0.32428 0.0
H938 H 0.40779 0.3588 0.33202 0.0
H939 H 0.45658 0.38331 0.3148 0.0
H940 H 0.43714 0.41708 0.30676 0.0
H941 H 0.45872 0.39934 0.27833 0.0
H942 H 0.38578 0.37044 0.1925 0.0
H943 H 0.36203 0.41969 0.19154 0.0
H944 H 0.38767 0.43355 0.28304 0.0
C945 C 0.44296 0.32619 0.2847 0.0
C946 C 0.4501 0.30165 0.26674 0.0
C947 C 0.43849 0.29998 0.23771 0.0
C948 C 0.421 0.32308 0.22634 0.0
C949 C 0.41509 0.34738 0.24446 0.0
C950 C 0.4254 0.34879 0.27319 0.0
C951 C 0.41653 0.37738 0.28811 0.0
C952 C 0.39593 0.37136 0.31455 0.0
C953 C 0.44388 0.39533 0.29754 0.0
C954 C 0.40022 0.39232 0.26307 0.0
C955 C 0.39949 0.37472 0.23808 0.0
C956 C 0.38608 0.38429 0.21202 0.0
C957 C 0.37282 0.41239 0.21164 0.0
C958 C 0.37311 0.43063 0.23716 0.0
C959 C 0.38711 0.42029 0.2631 0.0
H960 H 0.26964 0.1913 0.05629 0.0
H961 H 0.20083 0.22999 0.11064 0.0
H962 H 0.20257 0.18678 0.14386 0.0
H963 H 0.24256 0.12087 0.05766 0.0
H964 H 0.27732 0.10148 0.05952 0.0
H965 H 0.27565 0.1377 0.04307 0.0
H966 H 0.31568 0.15685 0.07922 0.0
H967 H 0.31809 0.12045 0.09538 0.0
H968 H 0.31063 0.15205 0.11849 0.0
H969 H 0.2051 0.13718 0.16563 0.0
H970 H 0.21253 0.08533 0.17949 0.0
H971 H 0.28062 0.07681 0.11215 0.0
C972 C 0.25619 0.19131 0.07613 0.0
C973 C 0.23568 0.21432 0.08149 0.0
C974 C 0.21718 0.21292 0.10668 0.0
C975 C 0.21788 0.18837 0.12552 0.0
C976 C 0.23724 0.16536 0.11886 0.0
C977 C 0.2565 0.1667 0.09515 0.0
C978 C 0.273 0.13759 0.09156 0.0
C979 C 0.26675 0.1236 0.06116 0.0
C980 C 0.30633 0.14201 0.09646 0.0
C981 C 0.25931 0.11949 0.1164 0.0
C982 C 0.23876 0.13613 0.13175 0.0
C983 C 0.22156 0.12409 0.15421 0.0
C984 C 0.22578 0.09441 0.16168 0.0
C985 C 0.24719 0.07684 0.14692 0.0
C986 C 0.26426 0.08968 0.12398 0.0
H987 H 0.26736 0.80469 0.9247 0.0
H988 H 0.1944 0.83079 0.9814 0.0
H989 H 0.2008 0.8825 0.96634 0.0
H990 H 0.3123 0.8721 0.93406 0.0
H991 H 0.3234 0.87376 0.89579 0.0
H992 H 0.31547 0.83853 0.91278 0.0
H993 H 0.27683 0.82726 0.87199 0.0
H994 H 0.28493 0.86229 0.85481 0.0
H995 H 0.24748 0.85336 0.86516 0.0
H996 H 0.21251 0.93022 0.94461 0.0
H997 H 0.22643 0.97231 0.91315 0.0
H998 H 0.29097 0.91742 0.86795 0.0
C999 C 0.25297 0.82145 0.93393 0.0
C1000 C 0.23035 0.81382 0.95414 0.0
C1001 C 0.21169 0.83616 0.96568 0.0
C1002 C 0.21529 0.86565 0.95749 0.0
C1003 C 0.23751 0.87258 0.93744 0.0
C1004 C 0.25586 0.85128 0.92541 0.0
C1005 C 0.27628 0.86497 0.90243 0.0
C1006 C 0.3088 0.86217 0.91184 0.0
C1007 C 0.27105 0.85115 0.87178 0.0
C1008 C 0.26609 0.89701 0.90332 0.0
C1009 C 0.24402 0.90076 0.92409 0.0
C1010 C 0.22992 0.92774 0.92837 0.0
C1011 C 0.23797 0.95151 0.91037 0.0
C1012 C 0.25986 0.94818 0.88824 0.0
C1013 C 0.27457 0.92072 0.88509 0.0
H1014 H 0.57487 0.7189 0.37168 0.0
H1015 H 0.56392 0.81409 0.37692 0.0
H1016 H 0.61167 0.81809 0.40329 0.0
H1017 H 0.60549 0.70978 0.44413 0.0
H1018 H 0.6304 0.68073 0.43298 0.0
H1019 H 0.59611 0.68603 0.41351 0.0
H1020 H 0.62533 0.69051 0.3645 0.0
H1021 H 0.65993 0.68645 0.38382 0.0
H1022 H 0.65363 0.71841 0.36088 0.0
H1023 H 0.66168 0.81146 0.42859 0.0
H1024 H 0.70556 0.79398 0.4566 0.0
H1025 H 0.68172 0.70326 0.43688 0.0
C1026 C 0.58246 0.7406 0.37844 0.0
C1027 C 0.56564 0.76619 0.37225 0.0
C1028 C 0.5763 0.79414 0.38163 0.0
C1029 C 0.60354 0.79667 0.39638 0.0
C1030 C 0.61973 0.771 0.40185 0.0
C1031 C 0.60931 0.74346 0.39356 0.0
C1032 C 0.6301 0.71912 0.40333 0.0
C1033 C 0.6146 0.69766 0.42477 0.0
C1034 C 0.64299 0.70266 0.37652 0.0
C1035 C 0.65362 0.73719 0.41885 0.0
C1036 C 0.64769 0.76713 0.41722 0.0
C1037 C 0.66649 0.78805 0.43002 0.0
C1038 C 0.69146 0.77801 0.44565 0.0
C1039 C 0.69692 0.74736 0.44875 0.0
C1040 C 0.67801 0.72685 0.43474 0.0
H1041 H 0.80662 0.18797 0.9309 0.0
H1042 H 0.71753 0.22094 0.94507 0.0
H1043 H 0.69765 0.17876 0.91662 0.0
H1044 H 0.79465 0.15696 0.85594 0.0
H1045 H 0.81807 0.12562 0.8635 0.0
H1046 H 0.82528 0.1606 0.88118 0.0
H1047 H 0.82291 0.13469 0.93228 0.0
H1048 H 0.81505 0.09982 0.91481 0.0
H1049 H 0.7902 0.11424 0.94244 0.0
H1050 H 0.68729 0.13098 0.89067 0.0
H1051 H 0.68703 0.08177 0.86729 0.0
H1052 H 0.78292 0.07906 0.87189 0.0
C1053 C 0.78295 0.18685 0.92741 0.0
C1054 C 0.76361 0.20789 0.94016 0.0
C1055 C 0.73277 0.2052 0.93543 0.0
C1056 C 0.72128 0.1813 0.91933 0.0
C1057 C 0.74093 0.16037 0.90811 0.0
C1058 C 0.77114 0.16305 0.91169 0.0
C1059 C 0.78735 0.13645 0.89936 0.0
C1060 C 0.80752 0.14546 0.87345 0.0
C1061 C 0.8049 0.12036 0.92368 0.0
C1062 C 0.76146 0.11804 0.88886 0.0
C1063 C 0.73493 0.1324 0.89384 0.0
C1064 C 0.70792 0.11962 0.88648 0.0
C1065 C 0.70803 0.09158 0.87334 0.0
C1066 C 0.73496 0.07645 0.86797 0.0
C1067 C 0.76198 0.08991 0.87599 0.0
H1068 H 0.32767 0.31108 0.44033 0.0
H1069 H 0.2925 0.22212 0.4479 0.0
H1070 H 0.33592 0.20277 0.42074 0.0
H1071 H 0.35915 0.30164 0.36534 0.0
H1072 H 0.39099 0.32423 0.37338 0.0
H1073 H 0.35632 0.33161 0.39149 0.0
H1074 H 0.38132 0.32716 0.44253 0.0
H1075 H 0.41628 0.31984 0.425 0.0
H1076 H 0.4016 0.29408 0.4517 0.0
H1077 H 0.38615 0.19273 0.39919 0.0
H1078 H 0.43601 0.19316 0.37694 0.0
H1079 H 0.43685 0.2891 0.38026 0.0
C1080 C 0.32886 0.2876 0.43565 0.0
C1081 C 0.3069 0.26799 0.44612 0.0
C1082 C 0.30902 0.23745 0.43973 0.0
C1083 C 0.33366 0.22629 0.42455 0.0
C1084 C 0.35551 0.24611 0.41544 0.0
C1085 C 0.35295 0.27622 0.42005 0.0
C1086 C 0.3797 0.29273 0.40842 0.0
C1087 C 0.371 0.31378 0.38314 0.0
C1088 C 0.39566 0.30943 0.43341 0.0
C1089 C 0.39809 0.26712 0.39724 0.0
C1090 C 0.38386 0.24041 0.40177 0.0
C1091 C 0.39728 0.21353 0.39504 0.0
C1092 C 0.42571 0.214 0.38271 0.0
C1093 C 0.44021 0.24117 0.37682 0.0
C1094 C 0.42619 0.26803 0.38433 0.0
H1095 H 0.74335 0.8101 0.07549 0.0
H1096 H 0.82103 0.83963 0.02727 0.0
H1097 H 0.81363 0.89011 0.04566 0.0
H1098 H 0.69977 0.87845 0.06729 0.0
H1099 H 0.68533 0.87723 0.10444 0.0
H1100 H 0.69455 0.84336 0.08555 0.0
H1101 H 0.72939 0.82845 0.12852 0.0
H1102 H 0.71992 0.86204 0.14765 0.0
H1103 H 0.75812 0.85364 0.13997 0.0
H1104 H 0.80064 0.93612 0.07052 0.0
H1105 H 0.78512 0.97518 0.10517 0.0
H1106 H 0.7161 0.91796 0.13929 0.0
C1107 C 0.75864 0.82731 0.06885 0.0
C1108 C 0.78291 0.82089 0.05015 0.0
C1109 C 0.80259 0.84389 0.04197 0.0
C1110 C 0.79838 0.87276 0.05199 0.0
C1111 C 0.77449 0.87843 0.07046 0.0
C1112 C 0.75511 0.85645 0.07924 0.0
C1113 C 0.7328 0.8685 0.10134 0.0
C1114 C 0.70124 0.86678 0.0889 0.0
C1115 C 0.73522 0.85219 0.13113 0.0
C1116 C 0.74315 0.90043 0.10388 0.0
C1117 C 0.76694 0.9056 0.08537 0.0
C1118 C 0.7818 0.93256 0.08485 0.0
C1119 C 0.7728 0.95462 0.10449 0.0
C1120 C 0.74913 0.94968 0.12431 0.0
C1121 C 0.73363 0.9225 0.1236 0.0
H1122 H 0.5704 0.27896 0.62354 0.0
H1123 H 0.57738 0.18379 0.63362 0.0
H1124 H 0.62704 0.18528 0.6102 0.0
H1125 H 0.60573 0.28368 0.55249 0.0
H1126 H 0.62344 0.31839 0.56097 0.0
H1127 H 0.58881 0.30899 0.57821 0.0
H1128 H 0.61267 0.31704 0.62959 0.0
H1129 H 0.64771 0.32568 0.61271 0.0
H1130 H 0.64522 0.29638 0.63967 0.0
H1131 H 0.67737 0.19834 0.58692 0.0
H1132 H 0.72012 0.22062 0.56056 0.0
H1133 H 0.67829 0.30669 0.5658 0.0
C1134 C 0.58221 0.25832 0.62063 0.0
C1135 C 0.57001 0.23121 0.6303 0.0
C1136 C 0.58618 0.20475 0.62602 0.0
C1137 C 0.6145 0.20545 0.61304 0.0
C1138 C 0.62614 0.23277 0.60439 0.0
C1139 C 0.6102 0.25863 0.60767 0.0
C1140 C 0.62702 0.28512 0.59608 0.0
C1141 C 0.61025 0.29989 0.57041 0.0
C1142 C 0.63355 0.30735 0.621 0.0
C1143 C 0.65495 0.27022 0.58549 0.0
C1144 C 0.65437 0.24009 0.59078 0.0
C1145 C 0.67796 0.22189 0.58265 0.0
C1146 C 0.70224 0.23473 0.56793 0.0
C1147 C 0.70243 0.26533 0.56118 0.0
C1148 C 0.6787 0.28322 0.57065 0.0
H1149 H 0.31001 0.71542 0.58527 0.0
H1150 H 0.30755 0.79001 0.52506 0.0
H1151 H 0.35196 0.81087 0.54955 0.0
H1152 H 0.33804 0.75484 0.65077 0.0
H1153 H 0.36055 0.72376 0.66154 0.0
H1154 H 0.32635 0.71772 0.64204 0.0
H1155 H 0.35462 0.68787 0.60223 0.0
H1156 H 0.38893 0.6942 0.62127 0.0
H1157 H 0.38521 0.70485 0.58301 0.0
H1158 H 0.40013 0.82061 0.57825 0.0
H1159 H 0.44574 0.81881 0.60868 0.0
H1160 H 0.41604 0.73606 0.64741 0.0
C1161 C 0.31835 0.73638 0.57748 0.0
C1162 C 0.30526 0.75098 0.55321 0.0
C1163 C 0.317 0.77852 0.54383 0.0
C1164 C 0.34231 0.79045 0.55753 0.0
C1165 C 0.35538 0.77464 0.58064 0.0
C1166 C 0.34348 0.74832 0.59068 0.0
C1167 C 0.36249 0.73424 0.61427 0.0
C1168 C 0.34587 0.73257 0.64391 0.0
C1169 C 0.37346 0.70349 0.60459 0.0
C1170 C 0.38749 0.75634 0.6155 0.0
C1171 C 0.38298 0.77974 0.59632 0.0
C1172 C 0.40373 0.80246 0.59345 0.0
C1173 C 0.4296 0.80121 0.61072 0.0
C1174 C 0.43463 0.77716 0.63021 0.0
C1175 C 0.41311 0.75462 0.63253 0.0
H1176 H 0.85679 0.77554 0.9114 0.0
H1177 H 0.87327 0.68294 0.93068 0.0
H1178 H 0.89951 0.67801 0.88276 0.0
H1179 H 0.84667 0.76803 0.8313 0.0
H1180 H 0.86541 0.8024 0.82366 0.0
H1181 H 0.84519 0.79783 0.85773 0.0
H1182 H 0.89192 0.81118 0.88803 0.0
H1183 H 0.91203 0.81652 0.85417 0.0
H1184 H 0.92574 0.79106 0.88164 0.0
H1185 H 0.92756 0.68479 0.83398 0.0
H1186 H 0.9583 0.70385 0.79254 0.0
H1187 H 0.92305 0.79165 0.80693 0.0
C1188 C 0.86556 0.75405 0.90553 0.0
C1189 C 0.86297 0.72961 0.92485 0.0
C1190 C 0.87507 0.70201 0.91628 0.0
C1191 C 0.88977 0.69895 0.88899 0.0
C1192 C 0.89201 0.72365 0.87054 0.0
C1193 C 0.88027 0.75069 0.87863 0.0
C1194 C 0.88765 0.77457 0.85643 0.0
C1195 C 0.85955 0.78639 0.84139 0.0
C1196 C 0.9054 0.79979 0.87094 0.0
C1197 C 0.90633 0.75707 0.835 0.0
C1198 C 0.90813 0.72758 0.84297 0.0
C1199 C 0.9259 0.70772 0.8273 0.0
C1200 C 0.94307 0.7186 0.80368 0.0
C1201 C 0.94253 0.74903 0.79649 0.0
C1202 C 0.92331 0.76816 0.81176 0.0
H1203 H 0.72399 0.37469 0.43052 0.0
H1204 H 0.81994 0.37357 0.42723 0.0
H1205 H 0.81858 0.39807 0.37845 0.0
H1206 H 0.71239 0.35979 0.35292 0.0
H1207 H 0.68077 0.38384 0.35013 0.0
H1208 H 0.68911 0.36593 0.38472 0.0
H1209 H 0.69037 0.41651 0.41136 0.0
H1210 H 0.68148 0.43464 0.37706 0.0
H1211 H 0.71402 0.44545 0.39737 0.0
H1212 H 0.80675 0.42502 0.33125 0.0
H1213 H 0.78525 0.45315 0.28961 0.0
H1214 H 0.69713 0.43447 0.32306 0.0
C1215 C 0.74473 0.37974 0.41963 0.0
C1216 C 0.77206 0.37243 0.43276 0.0
C1217 C 0.79872 0.37903 0.41761 0.0
C1218 C 0.79818 0.39286 0.38985 0.0
C1219 C 0.77083 0.3996 0.37745 0.0
C1220 C 0.7446 0.39325 0.39184 0.0
C1221 C 0.71818 0.40315 0.37394 0.0
C1222 C 0.69899 0.37658 0.36488 0.0
C1223 C 0.69996 0.42632 0.39094 0.0
C1224 C 0.73366 0.41667 0.34751 0.0
C1225 C 0.76402 0.4143 0.34987 0.0
C1226 C 0.78299 0.42675 0.32898 0.0
C1227 C 0.77059 0.44266 0.30541 0.0
C1228 C 0.73954 0.44591 0.30299 0.0
C1229 C 0.72094 0.43208 0.324 0.0
H1230 H 0.05154 0.26397 0.82397 0.0
H1231 H 0.09851 0.1879 0.78915 0.0
H1232 H 0.13519 0.19215 0.82921 0.0
H1233 H 0.11804 0.30493 0.85238 0.0
H1234 H 0.09866 0.3173 0.88494 0.0
H1235 H 0.07875 0.31147 0.8509 0.0
H1236 H 0.04313 0.27572 0.8781 0.0
H1237 H 0.0631 0.2811 0.91208 0.0
H1238 H 0.05803 0.2443 0.89762 0.0
H1239 H 0.16295 0.20045 0.87506 0.0
H1240 H 0.18176 0.21296 0.92434 0.0
H1241 H 0.117 0.28359 0.93149 0.0
C1242 C 0.07018 0.24894 0.82426 0.0
C1243 C 0.07252 0.22585 0.80332 0.0
C1244 C 0.09653 0.20587 0.8049 0.0
C1245 C 0.11747 0.20813 0.82752 0.0
C1246 C 0.11405 0.23048 0.84842 0.0
C1247 C 0.09119 0.2507 0.847 0.0
C1248 C 0.0912 0.27074 0.87397 0.0
C1249 C 0.09702 0.30303 0.86501 0.0
C1250 C 0.06214 0.26777 0.89147 0.0
C1251 C 0.1171 0.25802 0.89108 0.0
C1252 C 0.13004 0.23503 0.87564 0.0
C1253 C 0.15325 0.21862 0.88725 0.0
C1254 C 0.16359 0.2258 0.91543 0.0
C1255 C 0.15073 0.24918 0.93193 0.0
C1256 C 0.12735 0.26573 0.91938 0.0
H1257 H 0.30909 0.56233 0.33171 0.0
H1258 H 0.21951 0.54778 0.30108 0.0
H1259 H 0.20019 0.57289 0.34597 0.0
H1260 H 0.29721 0.54974 0.40688 0.0
H1261 H 0.32152 0.5786 0.41974 0.0
H1262 H 0.3282 0.56125 0.38455 0.0
H1263 H 0.32662 0.61227 0.35816 0.0
H1264 H 0.32088 0.62973 0.39348 0.0
H1265 H 0.2952 0.63614 0.36371 0.0
H1266 H 0.19122 0.59574 0.397 0.0
H1267 H 0.19327 0.62127 0.44543 0.0
H1268 H 0.28906 0.62229 0.44055 0.0
C1269 C 0.28541 0.56497 0.33424 0.0
C1270 C 0.26569 0.55331 0.3131 0.0
C1271 C 0.23488 0.55699 0.31697 0.0
C1272 C 0.22378 0.57094 0.34248 0.0
C1273 C 0.24388 0.58144 0.36345 0.0
C1274 C 0.27408 0.57927 0.35914 0.0
C1275 C 0.29114 0.59249 0.38467 0.0
C1276 C 0.31066 0.56912 0.39984 0.0
C1277 C 0.30953 0.61924 0.37438 0.0
C1278 C 0.26589 0.60189 0.40444 0.0
C1279 C 0.23878 0.59517 0.39204 0.0
C1280 C 0.21235 0.60131 0.40675 0.0
C1281 C 0.21372 0.61551 0.43439 0.0
C1282 C 0.24131 0.62366 0.44679 0.0
C1283 C 0.26763 0.6163 0.43169 0.0
H1284 H 0.87336 0.21741 0.07516 0.0
H1285 H 0.86912 0.31332 0.07481 0.0
H1286 H 0.89256 0.31457 0.12407 0.0
H1287 H 0.86072 0.20611 0.15413 0.0
H1288 H 0.88699 0.17621 0.15637 0.0
H1289 H 0.86747 0.18304 0.12233 0.0
H1290 H 0.91774 0.18712 0.09474 0.0
H1291 H 0.93703 0.18046 0.1289 0.0
H1292 H 0.94501 0.21323 0.10759 0.0
H1293 H 0.91642 0.30554 0.17321 0.0
H1294 H 0.94587 0.28723 0.2155 0.0
H1295 H 0.93737 0.19755 0.18247 0.0
C1296 C 0.87735 0.23864 0.08552 0.0
C1297 C 0.86949 0.26527 0.07124 0.0
C1298 C 0.87526 0.29267 0.08529 0.0
C1299 C 0.88824 0.29359 0.11339 0.0
C1300 C 0.89557 0.26695 0.12698 0.0
C1301 C 0.8908 0.23999 0.11334 0.0
C1302 C 0.90292 0.21476 0.13171 0.0
C1303 C 0.87803 0.19381 0.14174 0.0
C1304 C 0.92712 0.19792 0.11473 0.0
C1305 C 0.91562 0.23181 0.15757 0.0
C1306 C 0.91052 0.26181 0.15476 0.0
C1307 C 0.92054 0.28209 0.17571 0.0
C1308 C 0.93707 0.27151 0.19971 0.0
C1309 C 0.94385 0.24106 0.20209 0.0
C1310 C 0.93246 0.22096 0.18108 0.0
H1311 H 0.29676 0.46416 0.66841 0.0
H1312 H 0.22238 0.44186 0.72491 0.0
H1313 H 0.20322 0.4083 0.68597 0.0
H1314 H 0.25825 0.46448 0.59959 0.0
H1315 H 0.28846 0.44818 0.57934 0.0
H1316 H 0.29581 0.4704 0.61154 0.0
H1317 H 0.32502 0.42702 0.63512 0.0
H1318 H 0.31788 0.40467 0.60295 0.0
H1319 H 0.30747 0.39143 0.63911 0.0
H1320 H 0.19213 0.37788 0.63992 0.0
H1321 H 0.19126 0.35123 0.59222 0.0
H1322 H 0.27398 0.39329 0.56733 0.0
C1323 C 0.2763 0.45241 0.67262 0.0
C1324 C 0.26084 0.45586 0.69954 0.0
C1325 C 0.23449 0.43961 0.70436 0.0
C1326 C 0.22345 0.42059 0.68238 0.0
C1327 C 0.23924 0.41793 0.65596 0.0
C1328 C 0.26523 0.43325 0.65119 0.0
C1329 C 0.27854 0.42614 0.62136 0.0
C1330 C 0.28036 0.45396 0.60181 0.0
C1331 C 0.30902 0.41144 0.62486 0.0
C1332 C 0.25584 0.40454 0.60981 0.0
C1333 C 0.23326 0.40012 0.62998 0.0
C1334 C 0.20971 0.38118 0.624 0.0
C1335 C 0.20936 0.36624 0.59679 0.0
C1336 C 0.2325 0.37026 0.57597 0.0
C1337 C 0.25595 0.38974 0.5827 0.0
H1338 H 0.13385 0.776 0.07623 0.0
H1339 H 0.13807 0.68014 0.07413 0.0
H1340 H 0.11247 0.67814 0.1227 0.0
H1341 H 0.14665 0.78574 0.15379 0.0
H1342 H 0.12114 0.81629 0.15606 0.0
H1343 H 0.14036 0.80902 0.122 0.0
H1344 H 0.08965 0.80636 0.09485 0.0
H1345 H 0.07085 0.8134 0.12919 0.0
H1346 H 0.06183 0.78093 0.10793 0.0
H1347 H 0.08565 0.68772 0.17234 0.0
H1348 H 0.05655 0.70766 0.21455 0.0
H1349 H 0.07214 0.79672 0.18246 0.0
C1350 C 0.1294 0.75449 0.08585 0.0
C1351 C 0.13792 0.72821 0.07139 0.0
C1352 C 0.13146 0.70057 0.08473 0.0
C1353 C 0.1172 0.69925 0.11241 0.0
C1354 C 0.1096 0.72576 0.1263 0.0
C1355 C 0.11528 0.75281 0.11316 0.0
C1356 C 0.10412 0.7782 0.13163 0.0
C1357 C 0.12962 0.79847 0.14146 0.0
C1358 C 0.08019 0.79573 0.11491 0.0
C1359 C 0.09122 0.76137 0.1574 0.0
C1360 C 0.09459 0.73115 0.15424 0.0
C1361 C 0.08306 0.71136 0.17507 0.0
C1362 C 0.06681 0.72282 0.19908 0.0
C1363 C 0.06221 0.75367 0.2017 0.0
C1364 C 0.07537 0.773 0.18104 0.0
H1365 H 0.69584 0.56743 0.67761 0.0
H1366 H 0.77794 0.57519 0.72649 0.0
H1367 H 0.79868 0.60633 0.68625 0.0
H1368 H 0.72646 0.5588 0.6083 0.0
H1369 H 0.69895 0.58 0.58875 0.0
H1370 H 0.68944 0.56171 0.6228 0.0
H1371 H 0.67176 0.6113 0.64493 0.0
H1372 H 0.68103 0.63011 0.61105 0.0
H1373 H 0.69644 0.64263 0.6456 0.0
H1374 H 0.81189 0.63192 0.63763 0.0
H1375 H 0.81495 0.65352 0.58749 0.0
H1376 H 0.72371 0.62837 0.57138 0.0
C1377 C 0.71799 0.57621 0.68016 0.0
C1378 C 0.73535 0.56895 0.70509 0.0
C1379 C 0.76421 0.58078 0.70768 0.0
C1380 C 0.77618 0.5983 0.68486 0.0
C1381 C 0.75879 0.60403 0.65997 0.0
C1382 C 0.73009 0.59376 0.65783 0.0
C1383 C 0.71628 0.60177 0.62843 0.0
C1384 C 0.70727 0.57391 0.61106 0.0
C1385 C 0.68983 0.62271 0.63278 0.0
C1386 C 0.74196 0.61744 0.61386 0.0
C1387 C 0.76626 0.61869 0.63235 0.0
C1388 C 0.79286 0.63132 0.62314 0.0
C1389 C 0.79445 0.64335 0.59451 0.0
C1390 C 0.76962 0.64258 0.57536 0.0
C1391 C 0.74314 0.6293 0.58533 0.0
H1392 H 0.82308 0.93456 0.81093 0.0
H1393 H 0.79105 0.94561 0.72125 0.0
H1394 H 0.83249 0.91498 0.7027 0.0
H1395 H 0.89794 0.9393 0.79655 0.0
H1396 H 0.90934 0.911 0.82224 0.0
H1397 H 0.87581 0.93135 0.82878 0.0
H1398 H 0.84592 0.88244 0.83111 0.0
H1399 H 0.8795 0.86187 0.82506 0.0
H1400 H 0.84828 0.85658 0.80087 0.0
H1401 H 0.88111 0.88917 0.69373 0.0
H1402 H 0.92953 0.86376 0.6954 0.0
H1403 H 0.92757 0.86641 0.7913 0.0
C1404 C 0.82451 0.92994 0.78746 0.0
C1405 C 0.80406 0.94231 0.76743 0.0
C1406 C 0.80644 0.93599 0.73689 0.0
C1407 C 0.82994 0.91879 0.72619 0.0
C1408 C 0.85031 0.90758 0.74646 0.0
C1409 C 0.84736 0.91224 0.77654 0.0
C1410 C 0.87242 0.8981 0.79364 0.0
C1411 C 0.8899 0.92133 0.81133 0.0
C1412 C 0.86083 0.87327 0.81386 0.0
C1413 C 0.89058 0.88576 0.76841 0.0
C1414 C 0.87754 0.89155 0.74136 0.0
C1415 C 0.89127 0.88406 0.71479 0.0
C1416 C 0.91885 0.86992 0.71594 0.0
C1417 C 0.93216 0.86317 0.74346 0.0
C1418 C 0.91773 0.8711 0.76997 0.0
H1419 H 0.57366 0.32183 0.30875 0.0
H1420 H 0.56565 0.28222 0.22165 0.0
H1421 H 0.59229 0.32493 0.20003 0.0
H1422 H 0.55834 0.39401 0.28581 0.0
H1423 H 0.58347 0.41161 0.31125 0.0
H1424 H 0.56724 0.37643 0.32049 0.0
H1425 H 0.61923 0.35405 0.32812 0.0
H1426 H 0.63577 0.38913 0.31906 0.0
H1427 H 0.64624 0.3564 0.29886 0.0
H1428 H 0.61735 0.37351 0.18773 0.0
H1429 H 0.63948 0.42344 0.18576 0.0
H1430 H 0.62832 0.4319 0.28078 0.0
C1431 C 0.57812 0.32166 0.28521 0.0
C1432 C 0.56779 0.29846 0.26691 0.0
C1433 C 0.57354 0.2996 0.23613 0.0
C1434 C 0.58859 0.32379 0.22365 0.0
C1435 C 0.59756 0.34672 0.24225 0.0
C1436 C 0.59264 0.34576 0.27239 0.0
C1437 C 0.60255 0.37407 0.2873 0.0
C1438 C 0.57634 0.38996 0.30207 0.0
C1439 C 0.62745 0.36802 0.30964 0.0
C1440 C 0.61379 0.39121 0.26083 0.0
C1441 C 0.6109 0.37502 0.23506 0.0
C1442 C 0.61974 0.38634 0.20778 0.0
C1443 C 0.63218 0.41479 0.20689 0.0
C1444 C 0.63539 0.43174 0.23308 0.0
C1445 C 0.62586 0.41971 0.26031 0.0
H1446 H 0.17155 0.06258 0.8031 0.0
H1447 H 0.21755 0.06066 0.71889 0.0
H1448 H 0.17685 0.08987 0.69634 0.0
H1449 H 0.10059 0.0518 0.77603 0.0
H1450 H 0.08284 0.07619 0.80207 0.0
H1451 H 0.11676 0.05793 0.81195 0.0
H1452 H 0.14131 0.10854 0.8235 0.0
H1453 H 0.10727 0.12697 0.81418 0.0
H1454 H 0.1411 0.13724 0.7958 0.0
H1455 H 0.12884 0.11697 0.68294 0.0
H1456 H 0.07992 0.14139 0.68049 0.0
H1457 H 0.06634 0.1231 0.77378 0.0
C1458 C 0.17333 0.06854 0.77995 0.0
C1459 C 0.19758 0.05925 0.76265 0.0
C1460 C 0.19918 0.06771 0.73254 0.0
C1461 C 0.17613 0.08414 0.71957 0.0
C1462 C 0.152 0.09206 0.73719 0.0
C1463 C 0.15076 0.0848 0.76684 0.0
C1464 C 0.1223 0.09495 0.78103 0.0
C1465 C 0.10459 0.06865 0.79349 0.0
C1466 C 0.12837 0.11831 0.80504 0.0
C1467 C 0.10715 0.10843 0.75458 0.0
C1468 C 0.12461 0.1069 0.7295 0.0
C1469 C 0.11506 0.11827 0.70248 0.0
C1470 C 0.08719 0.13194 0.70126 0.0
C1471 C 0.06913 0.13379 0.72686 0.0
C1472 C 0.07932 0.12162 0.7537 0.0
H1473 H 0.41146 0.56306 0.23153 0.0
H1474 H 0.32917 0.5848 0.27587 0.0
H1475 H 0.34352 0.63718 0.27732 0.0
H1476 H 0.45452 0.60971 0.27559 0.0
H1477 H 0.47975 0.62161 0.24721 0.0
H1478 H 0.46212 0.58605 0.24438 0.0
H1479 H 0.44092 0.59941 0.19313 0.0
H1480 H 0.45923 0.63481 0.19497 0.0
H1481 H 0.41991 0.63298 0.18858 0.0
H1482 H 0.36797 0.68545 0.27939 0.0
H1483 H 0.40346 0.72645 0.28559 0.0
H1484 H 0.47068 0.67548 0.24033 0.0
C1485 C 0.39639 0.57903 0.24105 0.0
C1486 C 0.36926 0.56993 0.25361 0.0
C1487 C 0.35022 0.59127 0.2664 0.0
C1488 C 0.35798 0.62116 0.267 0.0
C1489 C 0.38495 0.62952 0.25481 0.0
C1490 C 0.40407 0.60916 0.24231 0.0
C1491 C 0.43324 0.62372 0.23427 0.0
C1492 C 0.45891 0.60938 0.25138 0.0
C1493 C 0.43863 0.62267 0.20073 0.0
C1494 C 0.42763 0.65517 0.24468 0.0
C1495 C 0.39938 0.65801 0.25603 0.0
C1496 C 0.38987 0.68383 0.26987 0.0
C1497 C 0.41005 0.70705 0.27316 0.0
C1498 C 0.43929 0.70435 0.2625 0.0
C1499 C 0.44799 0.67846 0.24738 0.0
H1500 H 0.81687 0.08577 0.20702 0.0
H1501 H 0.80473 0.04172 0.2916 0.0
H1502 H 0.84899 0.06693 0.31097 0.0
H1503 H 0.8927 0.0796 0.20345 0.0
H1504 H 0.89945 0.11548 0.18735 0.0
H1505 H 0.8647 0.09716 0.18113 0.0
H1506 H 0.83684 0.14258 0.20157 0.0
H1507 H 0.8714 0.16132 0.20821 0.0
H1508 H 0.84544 0.15628 0.23802 0.0
H1509 H 0.89762 0.0928 0.31947 0.0
H1510 H 0.94485 0.12042 0.31735 0.0
H1511 H 0.92481 0.14692 0.22716 0.0
C1512 C 0.82305 0.08194 0.22984 0.0
C1513 C 0.80731 0.06169 0.24773 0.0
C1514 C 0.81635 0.05719 0.27744 0.0
C1515 C 0.84153 0.07136 0.28867 0.0
C1516 C 0.85722 0.09024 0.27005 0.0
C1517 C 0.84806 0.09595 0.24143 0.0
C1518 C 0.86958 0.11609 0.22553 0.0
C1519 C 0.88236 0.10117 0.19774 0.0
C1520 C 0.85493 0.14583 0.21789 0.0
C1521 C 0.89283 0.11978 0.24929 0.0
C1522 C 0.88521 0.10501 0.27492 0.0
C1523 C 0.90371 0.10471 0.2996 0.0
C1524 C 0.93056 0.12027 0.29813 0.0
C1525 C 0.93868 0.13567 0.27206 0.0
C1526 C 0.91945 0.13525 0.24741 0.0
H1527 H 0.46247 0.32123 0.76153 0.0
H1528 H 0.40722 0.2822 0.69349 0.0
H1529 H 0.37257 0.32394 0.69753 0.0
H1530 H 0.40011 0.35579 0.8056 0.0
H1531 H 0.42175 0.3883 0.81364 0.0
H1532 H 0.43971 0.35298 0.80924 0.0
H1533 H 0.47346 0.37558 0.76883 0.0
H1534 H 0.45528 0.41076 0.77263 0.0
H1535 H 0.45693 0.393 0.73699 0.0
H1536 H 0.34852 0.37197 0.70272 0.0
H1537 H 0.33256 0.4228 0.71233 0.0
H1538 H 0.40204 0.43261 0.77802 0.0
C1539 C 0.44242 0.32098 0.74845 0.0
C1540 C 0.43723 0.29837 0.72746 0.0
C1541 C 0.41138 0.2992 0.70986 0.0
C1542 C 0.39161 0.32283 0.71197 0.0
C1543 C 0.39794 0.34543 0.73186 0.0
C1544 C 0.42238 0.34465 0.75018 0.0
C1545 C 0.42502 0.3732 0.76777 0.0
C1546 C 0.42143 0.3672 0.80104 0.0
C1547 C 0.45442 0.38906 0.76115 0.0
C1548 C 0.39886 0.39042 0.75563 0.0
C1549 C 0.3836 0.37374 0.73506 0.0
C1550 C 0.35991 0.3851 0.71917 0.0
C1551 C 0.35123 0.4142 0.72463 0.0
C1552 C 0.36609 0.43182 0.74592 0.0
C1553 C 0.39016 0.41964 0.76178 0.0
H1554 H 0.19456 0.91587 0.20233 0.0
H1555 H 0.21301 0.95046 0.29 0.0
H1556 H 0.17001 0.92338 0.30975 0.0
H1557 H 0.11915 0.9225 0.20462 0.0
H1558 H 0.11084 0.88853 0.18546 0.0
H1559 H 0.14538 0.90711 0.17883 0.0
H1560 H 0.17369 0.85961 0.19255 0.0
H1561 H 0.13949 0.84048 0.19997 0.0
H1562 H 0.16761 0.8424 0.22805 0.0
H1563 H 0.12078 0.89802 0.31858 0.0
H1564 H 0.0725 0.87206 0.31637 0.0
H1565 H 0.08742 0.85382 0.22325 0.0
C1566 C 0.19009 0.91713 0.22584 0.0
C1567 C 0.20719 0.93541 0.24453 0.0
C1568 C 0.20038 0.93655 0.27516 0.0
C1569 C 0.17588 0.92131 0.28663 0.0
C1570 C 0.15866 0.90463 0.26732 0.0
C1571 C 0.16585 0.90193 0.23769 0.0
C1572 C 0.14307 0.88372 0.22133 0.0
C1573 C 0.12877 0.90155 0.19609 0.0
C1574 C 0.15681 0.85484 0.20979 0.0
C1575 C 0.12131 0.87775 0.24607 0.0
C1576 C 0.1307 0.88974 0.27251 0.0
C1577 C 0.1134 0.88815 0.29808 0.0
C1578 C 0.08592 0.87359 0.29658 0.0
C1579 C 0.07611 0.86092 0.2697 0.0
C1580 C 0.09423 0.86311 0.24425 0.0
H1581 H 0.5732 0.68682 0.69478 0.0
H1582 H 0.53931 0.70501 0.7829 0.0
H1583 H 0.56182 0.6591 0.8012 0.0
H1584 H 0.56137 0.61046 0.69507 0.0
H1585 H 0.59514 0.60081 0.67621 0.0
H1586 H 0.57842 0.63638 0.66996 0.0
H1587 H 0.62705 0.66249 0.68512 0.0
H1588 H 0.64416 0.62704 0.69117 0.0
H1589 H 0.64365 0.65411 0.72037 0.0
H1590 H 0.58423 0.60923 0.80935 0.0
H1591 H 0.61075 0.56141 0.80777 0.0
H1592 H 0.63065 0.57615 0.71489 0.0
C1593 C 0.57097 0.68144 0.71802 0.0
C1594 C 0.55427 0.69949 0.73728 0.0
C1595 C 0.5519 0.69158 0.76759 0.0
C1596 C 0.56453 0.66545 0.77827 0.0
C1597 C 0.57984 0.6476 0.75851 0.0
C1598 C 0.58369 0.6555 0.72919 0.0
C1599 C 0.60104 0.63217 0.71263 0.0
C1600 C 0.58289 0.61919 0.68696 0.0
C1601 C 0.63073 0.64471 0.70168 0.0
C1602 C 0.60553 0.60968 0.73706 0.0
C1603 C 0.59315 0.61898 0.76335 0.0
C1604 C 0.59421 0.60173 0.78893 0.0
C1605 C 0.60904 0.57451 0.78777 0.0
C1606 C 0.62262 0.565 0.76123 0.0
C1607 C 0.62044 0.58275 0.73554 0.0
H1608 H 0.74254 0.95057 0.91683 0.0
H1609 H 0.73893 0.91856 0.82668 0.0
H1610 H 0.7373 0.86701 0.84468 0.0
H1611 H 0.7937 0.89775 0.93963 0.0
H1612 H 0.77933 0.89342 0.97659 0.0
H1613 H 0.77404 0.92769 0.95712 0.0
H1614 H 0.7174 0.92324 0.96496 0.0
H1615 H 0.72268 0.88877 0.98433 0.0
H1616 H 0.69838 0.89038 0.95277 0.0
H1617 H 0.74006 0.81907 0.87184 0.0
H1618 H 0.75424 0.77839 0.9059 0.0
H1619 H 0.76093 0.84133 0.97781 0.0
C1620 C 0.74048 0.93261 0.90113 0.0
C1621 C 0.73969 0.93821 0.87051 0.0
C1622 C 0.7386 0.9144 0.85029 0.0
C1623 C 0.7376 0.88514 0.86029 0.0
C1624 C 0.73847 0.88008 0.89063 0.0
C1625 C 0.74038 0.9031 0.91079 0.0
C1626 C 0.7456 0.89148 0.94177 0.0
C1627 C 0.77491 0.90328 0.9545 0.0
C1628 C 0.71944 0.89891 0.96216 0.0
C1629 C 0.74717 0.85857 0.93564 0.0
C1630 C 0.74209 0.85235 0.90618 0.0
C1631 C 0.74375 0.82357 0.89505 0.0
C1632 C 0.75167 0.80063 0.91444 0.0
C1633 C 0.75842 0.80696 0.94423 0.0
C1634 C 0.75554 0.83609 0.95505 0.0
H1635 H 0.79967 0.17665 0.05752 0.0
H1636 H 0.71754 0.22516 0.06732 0.0
H1637 H 0.69814 0.18522 0.09975 0.0
H1638 H 0.76914 0.10553 0.05282 0.0
H1639 H 0.79824 0.08789 0.07356 0.0
H1640 H 0.80588 0.12104 0.05284 0.0
H1641 H 0.82565 0.14652 0.10022 0.0
H1642 H 0.81832 0.11339 0.12113 0.0
H1643 H 0.80263 0.14813 0.13273 0.0
H1644 H 0.68718 0.13746 0.12916 0.0
H1645 H 0.68688 0.08879 0.15448 0.0
H1646 H 0.7767 0.07322 0.12439 0.0
C1647 C 0.77763 0.17907 0.06659 0.0
C1648 C 0.76002 0.20395 0.05973 0.0
C1649 C 0.73144 0.20633 0.07234 0.0
C1650 C 0.72024 0.1837 0.09068 0.0
C1651 C 0.73805 0.1591 0.09641 0.0
C1652 C 0.7663 0.15697 0.08495 0.0
C1653 C 0.78113 0.12839 0.09392 0.0
C1654 C 0.78905 0.10961 0.06666 0.0
C1655 C 0.80854 0.13448 0.11315 0.0
C1656 C 0.75662 0.11428 0.11175 0.0
C1657 C 0.73193 0.13223 0.11314 0.0
C1658 C 0.70648 0.12334 0.12825 0.0
C1659 C 0.70645 0.09558 0.14243 0.0
C1660 C 0.73169 0.077 0.14133 0.0
C1661 C 0.75696 0.0867 0.12566 0.0
H1662 H 0.43441 0.27241 0.62841 0.0
H1663 H 0.42504 0.17704 0.6348 0.0
H1664 H 0.37534 0.18058 0.61209 0.0
H1665 H 0.35871 0.28949 0.64664 0.0
H1666 H 0.35684 0.32049 0.62161 0.0
H1667 H 0.39159 0.31042 0.63826 0.0
H1668 H 0.41569 0.3057 0.58644 0.0
H1669 H 0.38125 0.31627 0.56962 0.0
H1670 H 0.39882 0.28208 0.55911 0.0
H1671 H 0.32772 0.19471 0.58652 0.0
H1672 H 0.28646 0.21801 0.55933 0.0
H1673 H 0.32661 0.30425 0.57257 0.0
C1674 C 0.42209 0.25218 0.62475 0.0
C1675 C 0.43372 0.22438 0.63291 0.0
C1676 C 0.4166 0.19853 0.62842 0.0
C1677 C 0.38834 0.20036 0.61572 0.0
C1678 C 0.37744 0.22822 0.60818 0.0
C1679 C 0.3938 0.25365 0.61262 0.0
C1680 C 0.37724 0.2809 0.60259 0.0
C1681 C 0.3707 0.30153 0.62884 0.0
C1682 C 0.39426 0.29718 0.57797 0.0
C1683 C 0.34926 0.26679 0.59097 0.0
C1684 C 0.34968 0.23641 0.59454 0.0
C1685 C 0.32699 0.21849 0.58389 0.0
C1686 C 0.30367 0.23192 0.5685 0.0
C1687 C 0.30323 0.26295 0.56398 0.0
C1688 C 0.32601 0.28056 0.57607 0.0
H1689 H 0.19908 0.83016 0.06187 0.0
H1690 H 0.28628 0.79013 0.06289 0.0
H1691 H 0.30566 0.83333 0.09021 0.0
H1692 H 0.22138 0.90374 0.05061 0.0
H1693 H 0.1942 0.91994 0.07486 0.0
H1694 H 0.18661 0.88523 0.05687 0.0
H1695 H 0.17655 0.86045 0.10764 0.0
H1696 H 0.18362 0.8952 0.12581 0.0
H1697 H 0.20412 0.8627 0.13633 0.0
H1698 H 0.31627 0.88255 0.11396 0.0
H1699 H 0.3164 0.93159 0.13767 0.0
H1700 H 0.22182 0.93895 0.12275 0.0
C1701 C 0.22219 0.83031 0.06818 0.0
C1702 C 0.24121 0.80679 0.06018 0.0
C1703 C 0.27126 0.80777 0.06892 0.0
C1704 C 0.2825 0.8323 0.08429 0.0
C1705 C 0.26331 0.85545 0.09112 0.0
C1706 C 0.23366 0.8544 0.08387 0.0
C1707 C 0.21772 0.88213 0.09392 0.0
C1708 C 0.20419 0.89873 0.06748 0.0
C1709 C 0.19411 0.87467 0.11731 0.0
C1710 C 0.2432 0.89928 0.10733 0.0
C1711 C 0.2693 0.88352 0.10542 0.0
C1712 C 0.29592 0.89497 0.11581 0.0
C1713 C 0.29577 0.92298 0.12914 0.0
C1714 C 0.26914 0.93928 0.13213 0.0
C1715 C 0.2426 0.92723 0.12073 0.0
H1716 H 0.68004 0.70476 0.57447 0.0
H1717 H 0.71704 0.79263 0.56241 0.0
H1718 H 0.67468 0.81391 0.58965 0.0
H1719 H 0.60715 0.72452 0.5608 0.0
H1720 H 0.59101 0.69974 0.58758 0.0
H1721 H 0.62599 0.69084 0.57083 0.0
H1722 H 0.6503 0.68647 0.62253 0.0
H1723 H 0.61521 0.6948 0.63946 0.0
H1724 H 0.64729 0.71678 0.64824 0.0
H1725 H 0.62648 0.82577 0.61536 0.0
H1726 H 0.57701 0.82721 0.63852 0.0
H1727 H 0.57082 0.73165 0.63113 0.0
C1728 C 0.67974 0.72842 0.57816 0.0
C1729 C 0.70206 0.74702 0.56643 0.0
C1730 C 0.70035 0.77792 0.57133 0.0
C1731 C 0.67634 0.79021 0.58672 0.0
C1732 C 0.65421 0.7713 0.59701 0.0
C1733 C 0.65583 0.74104 0.59311 0.0
C1734 C 0.62828 0.7257 0.60447 0.0
C1735 C 0.61216 0.70924 0.57942 0.0
C1736 C 0.63573 0.70471 0.63021 0.0
C1737 C 0.61065 0.75212 0.61498 0.0
C1738 C 0.62608 0.77819 0.61078 0.0
C1739 C 0.61424 0.80548 0.6188 0.0
C1740 C 0.58606 0.80608 0.6318 0.0
C1741 C 0.56986 0.77958 0.63631 0.0
C1742 C 0.58239 0.75233 0.62757 0.0
H1743 H 0.25384 0.16501 0.98962 0.0
H1744 H 0.2528 0.23512 0.92414 0.0
H1745 H 0.26069 0.19826 0.88452 0.0
H1746 H 0.31174 0.11927 0.95136 0.0
H1747 H 0.29431 0.08519 0.96259 0.0
H1748 H 0.29175 0.11747 0.98583 0.0
H1749 H 0.23475 0.11309 0.98525 0.0
H1750 H 0.23692 0.08118 0.96161 0.0
H1751 H 0.21548 0.11283 0.95033 0.0
H1752 H 0.25894 0.15358 0.85221 0.0
H1753 H 0.25675 0.10403 0.82909 0.0
H1754 H 0.26514 0.06302 0.9153 0.0
C1755 C 0.2562 0.17257 0.96699 0.0
C1756 C 0.25294 0.20274 0.95972 0.0
C1757 C 0.25576 0.21207 0.93 0.0
C1758 C 0.26004 0.19131 0.90742 0.0
C1759 C 0.26228 0.16154 0.91517 0.0
C1760 C 0.26134 0.15224 0.94429 0.0
C1761 C 0.26349 0.11887 0.94655 0.0
C1762 C 0.29203 0.10966 0.96252 0.0
C1763 C 0.23602 0.10574 0.96183 0.0
C1764 C 0.26451 0.11079 0.91408 0.0
C1765 C 0.26352 0.13576 0.89637 0.0
C1766 C 0.26075 0.13391 0.86574 0.0
C1767 C 0.25939 0.1058 0.85284 0.0
C1768 C 0.26155 0.0801 0.87049 0.0
C1769 C 0.2643 0.08254 0.90143 0.0
H1770 H 0.30716 0.77496 0.44318 0.0
H1771 H 0.2939 0.68321 0.41904 0.0
H1772 H 0.33541 0.68638 0.3838 0.0
H1773 H 0.33409 0.80099 0.36662 0.0
H1774 H 0.36066 0.82569 0.38313 0.0
H1775 H 0.32604 0.81839 0.40157 0.0
H1776 H 0.3547 0.80229 0.44843 0.0
H1777 H 0.38936 0.80889 0.43006 0.0
H1778 H 0.38165 0.77304 0.44577 0.0
H1779 H 0.38349 0.69528 0.3612 0.0
H1780 H 0.4328 0.71147 0.34575 0.0
H1781 H 0.41548 0.79936 0.38024 0.0
C1782 C 0.31214 0.75616 0.4292 0.0
C1783 C 0.29702 0.72906 0.43299 0.0
C1784 C 0.30488 0.70428 0.41572 0.0
C1785 C 0.32846 0.70587 0.39579 0.0
C1786 C 0.34386 0.73247 0.39337 0.0
C1787 C 0.33574 0.75746 0.40902 0.0
C1788 C 0.35807 0.78224 0.40437 0.0
C1789 C 0.34386 0.80837 0.38794 0.0
C1790 C 0.37175 0.79218 0.43392 0.0
C1791 C 0.38071 0.76669 0.38504 0.0
C1792 C 0.37183 0.73803 0.37901 0.0
C1793 C 0.39026 0.71796 0.36483 0.0
C1794 C 0.41838 0.72739 0.35628 0.0
C1795 C 0.42779 0.75687 0.36123 0.0
C1796 C 0.40855 0.77691 0.37557 0.0
H1797 H 0.58152 0.27838 0.3711 0.0
H1798 H 0.5786 0.18293 0.38103 0.0
H1799 H 0.62755 0.18403 0.40535 0.0
H1800 H 0.66025 0.2826 0.35517 0.0
H1801 H 0.66482 0.31696 0.3748 0.0
H1802 H 0.62993 0.30831 0.35762 0.0
H1803 H 0.60312 0.31569 0.40782 0.0
H1804 H 0.63788 0.32459 0.42496 0.0
H1805 H 0.61538 0.29514 0.43973 0.0
H1806 H 0.67575 0.1961 0.43089 0.0
H1807 H 0.71818 0.21828 0.45719 0.0
H1808 H 0.6901 0.30551 0.42827 0.0
C1809 C 0.59106 0.25772 0.37861 0.0
C1810 C 0.57618 0.23059 0.37443 0.0
C1811 C 0.58963 0.20397 0.38405 0.0
C1812 C 0.61745 0.20437 0.39778 0.0
C1813 C 0.63166 0.23151 0.40131 0.0
C1814 C 0.61891 0.25768 0.39196 0.0
C1815 C 0.63856 0.28392 0.39859 0.0
C1816 C 0.64901 0.29883 0.36983 0.0
C1817 C 0.62279 0.30613 0.419 0.0
C1818 C 0.66385 0.26859 0.41419 0.0
C1819 C 0.65969 0.23833 0.41525 0.0
C1820 C 0.67941 0.21975 0.42995 0.0
C1821 C 0.70351 0.23255 0.44476 0.0
C1822 C 0.70756 0.26364 0.44484 0.0
C1823 C 0.68786 0.28165 0.42854 0.0
H1824 H 0.15496 0.23959 0.44997 0.0
H1825 H 0.19486 0.31655 0.40867 0.0
H1826 H 0.16249 0.3103 0.36528 0.0
H1827 H 0.14127 0.1969 0.38037 0.0
H1828 H 0.1062 0.18322 0.3935 0.0
H1829 H 0.13553 0.19089 0.41938 0.0
H1830 H 0.10054 0.22574 0.44844 0.0
H1831 H 0.07127 0.2185 0.42249 0.0
H1832 H 0.08289 0.25602 0.4294 0.0
H1833 H 0.12331 0.29902 0.32891 0.0
H1834 H 0.07963 0.28271 0.30079 0.0
H1835 H 0.06341 0.21391 0.36602 0.0
C1836 C 0.15742 0.25446 0.43133 0.0
C1837 C 0.17749 0.27834 0.43236 0.0
C1838 C 0.17962 0.29804 0.40809 0.0
C1839 C 0.16141 0.29464 0.38337 0.0
C1840 C 0.14112 0.27151 0.38335 0.0
C1841 C 0.13905 0.25162 0.40654 0.0
C1842 C 0.11354 0.23035 0.40191 0.0
C1843 C 0.12482 0.19845 0.39859 0.0
C1844 C 0.09072 0.23282 0.42705 0.0
C1845 C 0.10123 0.24196 0.37298 0.0
C1846 C 0.11774 0.26545 0.36252 0.0
C1847 C 0.11031 0.28046 0.33668 0.0
C1848 C 0.08538 0.2711 0.32095 0.0
C1849 C 0.06799 0.24713 0.33126 0.0
C1850 C 0.07615 0.23239 0.35762 0.0
H1851 H 0.2113 0.65268 0.92902 0.0
H1852 H 0.29865 0.68347 0.95369 0.0
H1853 H 0.32113 0.64651 0.92003 0.0
H1854 H 0.22727 0.57653 0.92269 0.0
H1855 H 0.20467 0.57041 0.89044 0.0
H1856 H 0.19543 0.59953 0.91597 0.0
H1857 H 0.19689 0.63791 0.87342 0.0
H1858 H 0.20579 0.60886 0.84765 0.0
H1859 H 0.22951 0.64077 0.85065 0.0
H1860 H 0.33375 0.60272 0.88791 0.0
H1861 H 0.33606 0.56061 0.85317 0.0
H1862 H 0.24056 0.56187 0.84494 0.0
C1863 C 0.23516 0.65177 0.92703 0.0
C1864 C 0.25337 0.67071 0.94392 0.0
C1865 C 0.28443 0.6692 0.94073 0.0
C1866 C 0.29733 0.64819 0.92185 0.0
C1867 C 0.27877 0.62943 0.90584 0.0
C1868 C 0.24834 0.63153 0.90765 0.0
C1869 C 0.2334 0.60933 0.88743 0.0
C1870 C 0.21406 0.58767 0.9052 0.0
C1871 C 0.21533 0.62517 0.86336 0.0
C1872 C 0.26017 0.59393 0.87444 0.0
C1873 C 0.28611 0.60559 0.88571 0.0
C1874 C 0.31363 0.59378 0.87853 0.0
C1875 C 0.31471 0.56977 0.85894 0.0
C1876 C 0.28854 0.55823 0.84622 0.0
C1877 C 0.26092 0.57052 0.85409 0.0
H1878 H 0.93892 0.79547 0.3614 0.0
H1879 H 0.91611 0.73146 0.29349 0.0
H1880 H 0.87272 0.71608 0.32269 0.0
H1881 H 0.92047 0.75103 0.42265 0.0
H1882 H 0.9054 0.78072 0.44456 0.0
H1883 H 0.93341 0.7884 0.41733 0.0
H1884 H 0.89893 0.82682 0.39248 0.0
H1885 H 0.87071 0.81917 0.41962 0.0
H1886 H 0.86248 0.81576 0.38076 0.0
H1887 H 0.83471 0.70445 0.3607 0.0
H1888 H 0.80407 0.69745 0.40529 0.0
H1889 H 0.84983 0.7699 0.4484 0.0
C1890 C 0.92466 0.7784 0.35251 0.0
C1891 C 0.93105 0.76463 0.32511 0.0
C1892 C 0.91179 0.74236 0.31437 0.0
C1893 C 0.88699 0.73352 0.33076 0.0
C1894 C 0.88152 0.74734 0.35774 0.0
C1895 C 0.89968 0.7694 0.36853 0.0
C1896 C 0.88946 0.77971 0.3988 0.0
C1897 C 0.91362 0.77465 0.42221 0.0
C1898 C 0.87982 0.8123 0.39785 0.0
C1899 C 0.86319 0.75939 0.40369 0.0
C1900 C 0.85896 0.74106 0.37957 0.0
C1901 C 0.8375 0.71897 0.37951 0.0
C1902 C 0.82025 0.71513 0.40494 0.0
C1903 C 0.8244 0.73336 0.43007 0.0
C1904 C 0.84575 0.75617 0.42921 0.0
H1905 H 0.69453 0.43067 0.85493 0.0
H1906 H 0.78185 0.45528 0.82333 0.0
H1907 H 0.80432 0.41943 0.85759 0.0
H1908 H 0.7136 0.42015 0.93089 0.0
H1909 H 0.69035 0.38819 0.93628 0.0
H1910 H 0.68065 0.41551 0.90895 0.0
H1911 H 0.67917 0.37488 0.86862 0.0
H1912 H 0.68888 0.3474 0.89585 0.0
H1913 H 0.71109 0.35169 0.86301 0.0
H1914 H 0.81776 0.38466 0.89727 0.0
H1915 H 0.82167 0.34925 0.9384 0.0
H1916 H 0.72609 0.3426 0.94263 0.0
C1917 C 0.71836 0.42843 0.85526 0.0
C1918 C 0.73648 0.44588 0.83654 0.0
C1919 C 0.76754 0.44212 0.83736 0.0
C1920 C 0.78053 0.42184 0.85678 0.0
C1921 C 0.76216 0.40506 0.87494 0.0
C1922 C 0.73175 0.40775 0.8742 0.0
C1923 C 0.71733 0.38661 0.89607 0.0
C1924 C 0.69943 0.40364 0.91943 0.0
C1925 C 0.69797 0.36379 0.87992 0.0
C1926 C 0.74447 0.37215 0.90961 0.0
C1927 C 0.77001 0.38341 0.89707 0.0
C1928 C 0.79796 0.37528 0.90693 0.0
C1929 C 0.79995 0.35517 0.93031 0.0
C1930 C 0.77425 0.34289 0.94332 0.0
C1931 C 0.74607 0.35123 0.93263 0.0
H1932 H 0.14969 0.70162 0.57317 0.0
H1933 H 0.19209 0.78699 0.56085 0.0
H1934 H 0.1622 0.80757 0.60156 0.0
H1935 H 0.07772 0.7284 0.58876 0.0
H1936 H 0.06961 0.70093 0.61653 0.0
H1937 H 0.09518 0.6926 0.58718 0.0
H1938 H 0.13522 0.67911 0.62589 0.0
H1939 H 0.10978 0.68757 0.6554 0.0
H1940 H 0.14525 0.70572 0.65382 0.0
H1941 H 0.12534 0.81994 0.64052 0.0
H1942 H 0.08417 0.82308 0.67633 0.0
H1943 H 0.06737 0.72926 0.66593 0.0
C1944 C 0.1527 0.72465 0.57904 0.0
C1945 C 0.17311 0.74276 0.56368 0.0
C1946 C 0.1766 0.77269 0.57226 0.0
C1947 C 0.15977 0.78457 0.5954 0.0
C1948 C 0.13987 0.76614 0.61005 0.0
C1949 C 0.13636 0.73678 0.60238 0.0
C1950 C 0.11302 0.72194 0.6214 0.0
C1951 C 0.08737 0.71029 0.60233 0.0
C1952 C 0.12664 0.69711 0.64025 0.0
C1953 C 0.10341 0.74777 0.64046 0.0
C1954 C 0.11929 0.77303 0.63353 0.0
C1955 C 0.1131 0.80024 0.64651 0.0
C1956 C 0.08973 0.80183 0.66675 0.0
C1957 C 0.07313 0.77632 0.67407 0.0
C1958 C 0.08034 0.74885 0.66119 0.0
H1959 H 0.76788 0.56183 0.15763 0.0
H1960 H 0.68342 0.59751 0.18564 0.0
H1961 H 0.69189 0.64194 0.15561 0.0
H1962 H 0.8082 0.63329 0.15023 0.0
H1963 H 0.82687 0.62195 0.11689 0.0
H1964 H 0.81677 0.5948 0.14435 0.0
H1965 H 0.78799 0.56524 0.10459 0.0
H1966 H 0.7979 0.5923 0.07709 0.0
H1967 H 0.75954 0.5835 0.08345 0.0
H1968 H 0.70737 0.68095 0.12079 0.0
H1969 H 0.72719 0.71075 0.07973 0.0
H1970 H 0.79997 0.64882 0.07007 0.0
C1971 C 0.75163 0.5794 0.15797 0.0
C1972 C 0.72532 0.57659 0.17465 0.0
C1973 C 0.704 0.59949 0.17366 0.0
C1974 C 0.70859 0.62485 0.1566 0.0
C1975 C 0.73445 0.62685 0.1401 0.0
C1976 C 0.75554 0.6047 0.1403 0.0
C1977 C 0.77969 0.61114 0.11786 0.0
C1978 C 0.80966 0.61556 0.13326 0.0
C1979 C 0.78136 0.58659 0.09436 0.0
C1980 C 0.76844 0.63993 0.10473 0.0
C1981 C 0.74265 0.64883 0.11841 0.0
C1982 C 0.72764 0.67434 0.10994 0.0
C1983 C 0.7391 0.69113 0.08657 0.0
C1984 C 0.76506 0.68209 0.07156 0.0
C1985 C 0.78003 0.65626 0.08104 0.0
H1986 H 0.84222 0.24163 0.56863 0.0
H1987 H 0.82697 0.33282 0.59475 0.0
H1988 H 0.86143 0.32683 0.63632 0.0
H1989 H 0.85009 0.21197 0.64505 0.0
H1990 H 0.87869 0.18645 0.63416 0.0
H1991 H 0.85037 0.1969 0.60814 0.0
H1992 H 0.89076 0.21375 0.57105 0.0
H1993 H 0.91914 0.20362 0.59701 0.0
H1994 H 0.9178 0.24074 0.58248 0.0
H1995 H 0.90173 0.31311 0.67143 0.0
H1996 H 0.94259 0.29076 0.70016 0.0
H1997 H 0.93047 0.20834 0.65236 0.0
C1998 C 0.84562 0.26009 0.58348 0.0
C1999 C 0.83205 0.2877 0.57827 0.0
C2000 C 0.83732 0.31147 0.5981 0.0
C2001 C 0.8568 0.30832 0.62188 0.0
C2002 C 0.87061 0.28117 0.62584 0.0
C2003 C 0.86499 0.25732 0.6075 0.0
C2004 C 0.8839 0.23101 0.61586 0.0
C2005 C 0.86461 0.20505 0.62643 0.0
C2006 C 0.90409 0.22176 0.59007 0.0
C2007 C 0.90152 0.24415 0.64111 0.0
C2008 C 0.89348 0.27306 0.6466 0.0
C2009 C 0.90794 0.2903 0.66771 0.0
C2010 C 0.9312 0.27752 0.68377 0.0
C2011 C 0.93959 0.24783 0.67862 0.0
C2012 C 0.92435 0.231 0.65711 0.0
H2013 H 0.27378 0.41327 0.18556 0.0
H2014 H 0.26816 0.49361 0.13348 0.0
H2015 H 0.25097 0.4646 0.09039 0.0
H2016 H 0.30328 0.36874 0.12679 0.0
H2017 H 0.28388 0.33557 0.1375 0.0
H2018 H 0.2935 0.36274 0.16499 0.0
H2019 H 0.23857 0.36631 0.18088 0.0
H2020 H 0.2288 0.3391 0.15347 0.0
H2021 H 0.21079 0.37466 0.15354 0.0
H2022 H 0.23378 0.42744 0.05357 0.0
H2023 H 0.22164 0.38375 0.02329 0.0
H2024 H 0.24251 0.32635 0.09739 0.0
C2025 C 0.26854 0.42463 0.16512 0.0
C2026 C 0.27182 0.4556 0.1627 0.0
C2027 C 0.26555 0.46987 0.13559 0.0
C2028 C 0.25575 0.45361 0.11112 0.0
C2029 C 0.2529 0.42305 0.11402 0.0
C2030 C 0.25943 0.40858 0.14018 0.0
C2031 C 0.25626 0.37533 0.13666 0.0
C2032 C 0.286 0.35968 0.14178 0.0
C2033 C 0.23217 0.36314 0.15737 0.0
C2034 C 0.24682 0.37343 0.1045 0.0
C2035 C 0.24464 0.40129 0.09208 0.0
C2036 C 0.23557 0.40549 0.06296 0.0
C2037 C 0.22863 0.38054 0.04599 0.0
C2038 C 0.23129 0.3517 0.05796 0.0
C2039 C 0.2406 0.34814 0.08761 0.0
H2040 H 0.35635 0.07783 0.19992 0.0
H2041 H 0.30187 0.07583 0.2789 0.0
H2042 H 0.33183 0.11593 0.3006 0.0
H2043 H 0.42362 0.08622 0.23731 0.0
H2044 H 0.4406 0.11038 0.21048 0.0
H2045 H 0.4125 0.08461 0.19905 0.0
H2046 H 0.38182 0.12761 0.17688 0.0
H2047 H 0.40992 0.15355 0.18819 0.0
H2048 H 0.37215 0.1587 0.19986 0.0
H2049 H 0.36906 0.15269 0.31542 0.0
H2050 H 0.41334 0.1828 0.32415 0.0
H2051 H 0.4462 0.16059 0.23665 0.0
C2052 C 0.35038 0.08642 0.22146 0.0
C2053 C 0.32665 0.07405 0.2377 0.0
C2054 C 0.31993 0.08513 0.26616 0.0
C2055 C 0.3367 0.10798 0.27856 0.0
C2056 C 0.36029 0.11936 0.26231 0.0
C2057 C 0.36731 0.10897 0.23444 0.0
C2058 C 0.3956 0.12317 0.22309 0.0
C2059 C 0.41948 0.09969 0.21715 0.0
C2060 C 0.3895 0.14187 0.19536 0.0
C2061 C 0.40371 0.14256 0.24927 0.0
C2062 C 0.38266 0.14028 0.27136 0.0
C2063 C 0.38561 0.15483 0.29825 0.0
C2064 C 0.41099 0.17178 0.30303 0.0
C2065 C 0.43338 0.17394 0.28116 0.0
C2066 C 0.42937 0.15957 0.25366 0.0
H2067 H 0.33069 0.94058 0.73626 0.0
H2068 H 0.33684 0.93269 0.83168 0.0
H2069 H 0.37184 0.89128 0.82619 0.0
H2070 H 0.33913 0.86076 0.71858 0.0
H2071 H 0.36192 0.86791 0.68664 0.0
H2072 H 0.33425 0.89438 0.69767 0.0
H2073 H 0.37434 0.93528 0.70015 0.0
H2074 H 0.40211 0.90895 0.68925 0.0
H2075 H 0.40654 0.92971 0.72298 0.0
H2076 H 0.40798 0.85382 0.81121 0.0
H2077 H 0.44569 0.82282 0.78768 0.0
H2078 H 0.41904 0.8556 0.70127 0.0
C2079 C 0.33901 0.9296 0.75585 0.0
C2080 C 0.33105 0.93945 0.78439 0.0
C2081 C 0.34278 0.92528 0.80967 0.0
C2082 C 0.36251 0.90171 0.80677 0.0
C2083 C 0.37048 0.89282 0.77841 0.0
C2084 C 0.3593 0.90629 0.75334 0.0
C2085 C 0.37376 0.894 0.72564 0.0
C2086 C 0.3509 0.87833 0.70597 0.0
C2087 C 0.39016 0.91844 0.70851 0.0
C2088 C 0.39519 0.87204 0.73921 0.0
C2089 C 0.39246 0.87151 0.76964 0.0
C2090 C 0.41027 0.85385 0.78738 0.0
C2091 C 0.43173 0.83638 0.77372 0.0
C2092 C 0.43551 0.83684 0.74258 0.0
C2093 C 0.41669 0.85471 0.72509 0.0
H2094 H 0.64884 0.92997 0.19923 0.0
H2095 H 0.7034 0.92784 0.27822 0.0
H2096 H 0.67191 0.8887 0.29908 0.0
H2097 H 0.58083 0.92186 0.23563 0.0
H2098 H 0.56383 0.89833 0.20831 0.0
H2099 H 0.59244 0.92386 0.19752 0.0
H2100 H 0.62284 0.88082 0.17513 0.0
H2101 H 0.5942 0.85513 0.18569 0.0
H2102 H 0.6317 0.84921 0.19777 0.0
H2103 H 0.63271 0.85416 0.3139 0.0
H2104 H 0.58801 0.82415 0.32147 0.0
H2105 H 0.55766 0.84679 0.2332 0.0
C2106 C 0.65449 0.92074 0.2206 0.0
C2107 C 0.67863 0.93198 0.23709 0.0
C2108 C 0.685 0.9197 0.26522 0.0
C2109 C 0.6673 0.89736 0.27724 0.0
C2110 C 0.64327 0.88732 0.26088 0.0
C2111 C 0.63684 0.89835 0.2331 0.0
C2112 C 0.60848 0.88471 0.22123 0.0
C2113 C 0.58501 0.90862 0.21533 0.0
C2114 C 0.61468 0.86638 0.1933 0.0
C2115 C 0.59969 0.865 0.24705 0.0
C2116 C 0.62032 0.86683 0.26952 0.0
C2117 C 0.61656 0.85222 0.29635 0.0
C2118 C 0.59097 0.83537 0.30049 0.0
C2119 C 0.56935 0.83311 0.27794 0.0
C2120 C 0.57399 0.84783 0.25067 0.0
H2121 H 0.63461 0.05488 0.79539 0.0
H2122 H 0.70593 0.08103 0.73637 0.0
H2123 H 0.67823 0.12564 0.72254 0.0
H2124 H 0.57606 0.07752 0.74821 0.0
H2125 H 0.55257 0.09062 0.77764 0.0
H2126 H 0.57889 0.06163 0.78469 0.0
H2127 H 0.60155 0.09274 0.82715 0.0
H2128 H 0.57548 0.12202 0.81995 0.0
H2129 H 0.61461 0.12968 0.81962 0.0
H2130 H 0.64264 0.16529 0.71245 0.0
H2131 H 0.59886 0.19659 0.70401 0.0
H2132 H 0.54992 0.14647 0.76959 0.0
C2133 C 0.64443 0.07005 0.77964 0.0
C2134 C 0.67246 0.06435 0.76694 0.0
C2135 C 0.68446 0.08473 0.74633 0.0
C2136 C 0.66901 0.11032 0.73848 0.0
C2137 C 0.64159 0.11535 0.75146 0.0
C2138 C 0.62921 0.0958 0.77142 0.0
C2139 C 0.59851 0.10582 0.7806 0.0
C2140 C 0.57513 0.08252 0.77228 0.0
C2141 C 0.59749 0.11299 0.81381 0.0
C2142 C 0.59538 0.13364 0.76205 0.0
C2143 C 0.62077 0.13882 0.74576 0.0
C2144 C 0.6228 0.16181 0.72539 0.0
C2145 C 0.59791 0.17948 0.72081 0.0
C2146 C 0.57143 0.17417 0.73659 0.0
C2147 C 0.57029 0.15145 0.75801 0.0
H2148 H 0.83429 0.781 0.56933 0.0
H2149 H 0.85022 0.6868 0.55931 0.0
H2150 H 0.88753 0.68861 0.59846 0.0
H2151 H 0.91026 0.80022 0.57951 0.0
H2152 H 0.90386 0.82864 0.60671 0.0
H2153 H 0.87579 0.82023 0.57974 0.0
H2154 H 0.83803 0.81066 0.62174 0.0
H2155 H 0.866 0.81914 0.64885 0.0
H2156 H 0.84672 0.78426 0.65035 0.0
H2157 H 0.92425 0.69963 0.6361 0.0
H2158 H 0.96044 0.7199 0.67088 0.0
H2159 H 0.92431 0.80802 0.65731 0.0
C2160 C 0.84537 0.76079 0.57581 0.0
C2161 C 0.83917 0.73369 0.56134 0.0
C2162 C 0.85452 0.70778 0.57003 0.0
C2163 C 0.87576 0.70853 0.59234 0.0
C2164 C 0.88184 0.73545 0.60578 0.0
C2165 C 0.86733 0.76121 0.59799 0.0
C2166 C 0.87993 0.78734 0.61512 0.0
C2167 C 0.89325 0.81047 0.594 0.0
C2168 C 0.85625 0.80116 0.63521 0.0
C2169 C 0.90387 0.77209 0.63326 0.0
C2170 C 0.90415 0.74211 0.62756 0.0
C2171 C 0.92425 0.72308 0.64091 0.0
C2172 C 0.94483 0.73491 0.66065 0.0
C2173 C 0.94546 0.76563 0.66689 0.0
C2174 C 0.92449 0.78445 0.65303 0.0
H2175 H 0.7362 0.35666 0.05396 0.0
H2176 H 0.81027 0.31617 0.09957 0.0
H2177 H 0.80325 0.3501 0.14152 0.0
H2178 H 0.75287 0.42947 0.0738 0.0
H2179 H 0.7153 0.44162 0.07914 0.0
H2180 H 0.72314 0.41181 0.05395 0.0
H2181 H 0.6868 0.37766 0.08224 0.0
H2182 H 0.67849 0.40753 0.10729 0.0
H2183 H 0.69121 0.37255 0.12155 0.0
H2184 H 0.79198 0.39048 0.17589 0.0
H2185 H 0.77499 0.43414 0.20322 0.0
H2186 H 0.70799 0.45013 0.13614 0.0
C2187 C 0.75028 0.35446 0.07321 0.0
C2188 C 0.77366 0.33374 0.07372 0.0
C2189 C 0.79223 0.33191 0.09885 0.0
C2190 C 0.78841 0.35105 0.12277 0.0
C2191 C 0.76591 0.37193 0.12124 0.0
C2192 C 0.74691 0.37369 0.09735 0.0
C2193 C 0.72579 0.39957 0.10081 0.0
C2194 C 0.72952 0.42193 0.07541 0.0
C2195 C 0.69366 0.38867 0.10312 0.0
C2196 C 0.73643 0.41233 0.12998 0.0
C2197 C 0.75947 0.39582 0.14133 0.0
C2198 C 0.77374 0.40346 0.16745 0.0
C2199 C 0.76397 0.42846 0.18273 0.0
C2200 C 0.74014 0.44571 0.17186 0.0
C2201 C 0.72627 0.43748 0.14502 0.0
H2202 H 0.04319 0.24457 0.63221 0.0
H2203 H 0.09958 0.23819 0.70951 0.0
H2204 H 0.14351 0.24744 0.67822 0.0
H2205 H 0.09158 0.21059 0.58016 0.0
H2206 H 0.08289 0.2355 0.55026 0.0
H2207 H 0.05582 0.2281 0.57855 0.0
H2208 H 0.05145 0.2842 0.58943 0.0
H2209 H 0.07833 0.2918 0.56099 0.0
H2210 H 0.08428 0.30512 0.59808 0.0
H2211 H 0.18123 0.25358 0.63824 0.0
H2212 H 0.21033 0.26341 0.59301 0.0
H2213 H 0.12931 0.27085 0.54226 0.0
C2214 C 0.06482 0.24529 0.64246 0.0
C2215 C 0.06821 0.24062 0.67315 0.0
C2216 C 0.09667 0.24194 0.68602 0.0
C2217 C 0.12169 0.24698 0.66843 0.0
C2218 C 0.11769 0.25126 0.63817 0.0
C2219 C 0.08995 0.25111 0.62535 0.0
C2220 C 0.09175 0.25751 0.59248 0.0
C2221 C 0.07981 0.23136 0.5743 0.0
C2222 C 0.07549 0.28638 0.5848 0.0
C2223 C 0.12487 0.26083 0.58877 0.0
C2224 C 0.13941 0.25667 0.61535 0.0
C2225 C 0.17012 0.25723 0.61736 0.0
C2226 C 0.18643 0.26261 0.59158 0.0
C2227 C 0.17196 0.26792 0.56435 0.0
C2228 C 0.14081 0.26707 0.56293 0.0
H2229 H 0.24125 0.56349 0.16736 0.0
H2230 H 0.3281 0.59671 0.1914 0.0
H2231 H 0.32242 0.63767 0.156 0.0
H2232 H 0.24688 0.57715 0.09184 0.0
H2233 H 0.20914 0.58876 0.08651 0.0
H2234 H 0.2182 0.56374 0.11612 0.0
H2235 H 0.1946 0.5995 0.15416 0.0
H2236 H 0.18513 0.62453 0.12459 0.0
H2237 H 0.20669 0.63749 0.1555 0.0
H2238 H 0.31022 0.67148 0.11408 0.0
H2239 H 0.28991 0.69876 0.07125 0.0
H2240 H 0.21044 0.64492 0.07522 0.0
C2241 C 0.25869 0.57984 0.16574 0.0
C2242 C 0.28513 0.57681 0.18208 0.0
C2243 C 0.30769 0.59844 0.17897 0.0
C2244 C 0.30469 0.62185 0.15895 0.0
C2245 C 0.27888 0.62361 0.14234 0.0
C2246 C 0.25604 0.60352 0.14581 0.0
C2247 C 0.23124 0.60978 0.12416 0.0
C2248 C 0.22608 0.58328 0.10344 0.0
C2249 C 0.20273 0.61834 0.14059 0.0
C2250 C 0.2441 0.63597 0.10758 0.0
C2251 C 0.27158 0.64361 0.11844 0.0
C2252 C 0.2885 0.66603 0.10564 0.0
C2253 C 0.2769 0.68126 0.08121 0.0
C2254 C 0.24859 0.67409 0.06997 0.0
C2255 C 0.23203 0.65117 0.08349 0.0
H2256 H 0.83881 0.23309 0.44292 0.0
H2257 H 0.85058 0.32839 0.44474 0.0
H2258 H 0.88441 0.32537 0.40239 0.0
H2259 H 0.91457 0.21714 0.42788 0.0
H2260 H 0.90742 0.18611 0.4039 0.0
H2261 H 0.88136 0.19552 0.4325 0.0
H2262 H 0.83971 0.19937 0.39338 0.0
H2263 H 0.8657 0.19001 0.36464 0.0
H2264 H 0.84442 0.2236 0.36203 0.0
H2265 H 0.91782 0.31295 0.36169 0.0
H2266 H 0.95273 0.2912 0.32632 0.0
H2267 H 0.92297 0.20313 0.3512 0.0
C2268 C 0.84828 0.25324 0.43405 0.0
C2269 C 0.84195 0.28101 0.44695 0.0
C2270 C 0.85513 0.30691 0.4352 0.0
C2271 C 0.87427 0.30547 0.41103 0.0
C2272 C 0.88041 0.27789 0.39898 0.0
C2273 C 0.86815 0.25214 0.41011 0.0
C2274 C 0.88063 0.22529 0.39422 0.0
C2275 C 0.89696 0.20481 0.41592 0.0
C2276 C 0.85615 0.20858 0.37758 0.0
C2277 C 0.90197 0.24011 0.37284 0.0
C2278 C 0.90099 0.27048 0.37579 0.0
C2279 C 0.91882 0.28918 0.35907 0.0
C2280 C 0.93863 0.27654 0.33901 0.0
C2281 C 0.94079 0.24541 0.33599 0.0
C2282 C 0.92188 0.22699 0.35295 0.0
H2283 H 0.20578 0.35952 0.93366 0.0
H2284 H 0.2846 0.30499 0.93595 0.0
H2285 H 0.30504 0.33296 0.8935 0.0
H2286 H 0.2018 0.37044 0.85354 0.0
H2287 H 0.19065 0.40859 0.85652 0.0
H2288 H 0.1808 0.38261 0.88516 0.0
H2289 H 0.20577 0.41606 0.9244 0.0
H2290 H 0.2155 0.4422 0.89595 0.0
H2291 H 0.24382 0.42694 0.91947 0.0
H2292 H 0.31702 0.36661 0.85185 0.0
H2293 H 0.32369 0.40805 0.81751 0.0
H2294 H 0.23861 0.44407 0.84393 0.0
C2295 C 0.22718 0.35329 0.92491 0.0
C2296 C 0.24359 0.32992 0.93774 0.0
C2297 C 0.27178 0.32279 0.92632 0.0
C2298 C 0.2834 0.3384 0.90214 0.0
C2299 C 0.26669 0.36131 0.88997 0.0
C2300 C 0.2394 0.36909 0.9012 0.0
C2301 C 0.22726 0.39632 0.88568 0.0
C2302 C 0.19842 0.38904 0.86925 0.0
C2303 C 0.22284 0.42189 0.90769 0.0
C2304 C 0.25218 0.40285 0.86416 0.0
C2305 C 0.27435 0.38192 0.86672 0.0
C2306 C 0.29989 0.38318 0.84972 0.0
C2307 C 0.30343 0.40694 0.83028 0.0
C2308 C 0.2818 0.42962 0.82818 0.0
C2309 C 0.25546 0.42709 0.84488 0.0
H2310 H 0.16185 0.76413 0.44028 0.0
H2311 H 0.1619 0.66861 0.42954 0.0
H2312 H 0.12445 0.6729 0.39045 0.0
H2313 H 0.0842 0.77419 0.43009 0.0
H2314 H 0.08759 0.80824 0.40959 0.0
H2315 H 0.1155 0.79815 0.43615 0.0
H2316 H 0.15583 0.80257 0.39567 0.0
H2317 H 0.12804 0.81277 0.36901 0.0
H2318 H 0.15204 0.78177 0.36188 0.0
H2319 H 0.08565 0.68677 0.35388 0.0
H2320 H 0.04875 0.70982 0.32104 0.0
H2321 H 0.07347 0.79647 0.35446 0.0
C2322 C 0.15417 0.74415 0.42953 0.0
C2323 C 0.16487 0.71601 0.43821 0.0
C2324 C 0.15405 0.69043 0.42356 0.0
C2325 C 0.13275 0.6926 0.40121 0.0
C2326 C 0.12238 0.72051 0.3935 0.0
C2327 C 0.13277 0.74588 0.40704 0.0
C2328 C 0.11738 0.77308 0.39472 0.0
C2329 C 0.10015 0.78937 0.41909 0.0
C2330 C 0.13966 0.79377 0.37941 0.0
C2331 C 0.09661 0.75892 0.37245 0.0
C2332 C 0.09993 0.72857 0.37212 0.0
C2333 C 0.08291 0.71055 0.35382 0.0
C2334 C 0.06192 0.72387 0.33528 0.0
C2335 C 0.05806 0.75498 0.33509 0.0
C2336 C 0.07581 0.77264 0.35397 0.0
H2337 H 0.7606 0.56647 0.84273 0.0
H2338 H 0.66534 0.57891 0.8433 0.0
H2339 H 0.67062 0.61813 0.88057 0.0
H2340 H 0.77143 0.5766 0.92009 0.0
H2341 H 0.80585 0.59639 0.91631 0.0
H2342 H 0.79496 0.56996 0.88859 0.0
H2343 H 0.79981 0.61023 0.84803 0.0
H2344 H 0.81083 0.63676 0.87564 0.0
H2345 H 0.77976 0.64446 0.85191 0.0
H2346 H 0.6857 0.65481 0.91931 0.0
H2347 H 0.71007 0.68725 0.95591 0.0
H2348 H 0.79541 0.65151 0.93009 0.0
C2349 C 0.74089 0.57761 0.85049 0.0
C2350 C 0.71256 0.56939 0.84007 0.0
C2351 C 0.68732 0.58455 0.85097 0.0
C2352 C 0.69004 0.60697 0.87216 0.0
C2353 C 0.71816 0.61422 0.88228 0.0
C2354 C 0.74318 0.60015 0.87173 0.0
C2355 C 0.77074 0.6119 0.88677 0.0
C2356 C 0.78667 0.58724 0.90396 0.0
C2357 C 0.79151 0.62672 0.86424 0.0
C2358 C 0.75721 0.63448 0.90756 0.0
C2359 C 0.72687 0.63551 0.90458 0.0
C2360 C 0.70949 0.65431 0.92178 0.0
C2361 C 0.72353 0.67262 0.94256 0.0
C2362 C 0.75465 0.672 0.94599 0.0
C2363 C 0.77157 0.65263 0.92809 0.0
H2364 H 0.56313 0.86638 0.70883 0.0
H2365 H 0.57093 0.80508 0.78252 0.0
H2366 H 0.6135 0.83325 0.80133 0.0
H2367 H 0.64279 0.87769 0.69861 0.0
H2368 H 0.63887 0.91634 0.68962 0.0
H2369 H 0.60956 0.89074 0.6809 0.0
H2370 H 0.57251 0.92277 0.71064 0.0
H2371 H 0.60164 0.94848 0.71934 0.0
H2372 H 0.58048 0.93167 0.74868 0.0
H2373 H 0.65164 0.86949 0.81462 0.0
H2374 H 0.68486 0.9118 0.82139 0.0
H2375 H 0.65576 0.94892 0.73779 0.0
C2376 C 0.57384 0.8589 0.72891 0.0
C2377 C 0.5636 0.83362 0.74431 0.0
C2378 C 0.57834 0.82436 0.77035 0.0
C2379 C 0.6026 0.84016 0.78118 0.0
C2380 C 0.61209 0.86493 0.76554 0.0
C2381 C 0.59838 0.87425 0.7399 0.0
C2382 C 0.61281 0.9021 0.72788 0.0
C2383 C 0.62684 0.89637 0.69744 0.0
C2384 C 0.59053 0.92777 0.72657 0.0
C2385 C 0.63624 0.90737 0.75128 0.0
C2386 C 0.63535 0.8855 0.77267 0.0
C2387 C 0.65304 0.88642 0.79774 0.0
C2388 C 0.67194 0.91055 0.80134 0.0
C2389 C 0.67342 0.93329 0.77981 0.0
C2390 C 0.65564 0.93144 0.75419 0.0
H2391 H 0.56325 0.15639 0.23328 0.0
H2392 H 0.57501 0.16417 0.32811 0.0
H2393 H 0.61717 0.1299 0.32607 0.0
H2394 H 0.57656 0.07896 0.23112 0.0
H2395 H 0.59573 0.07915 0.19615 0.0
H2396 H 0.56859 0.10717 0.20406 0.0
H2397 H 0.60744 0.14803 0.19366 0.0
H2398 H 0.63471 0.1201 0.18563 0.0
H2399 H 0.64203 0.14767 0.21346 0.0
H2400 H 0.65715 0.09418 0.31448 0.0
H2401 H 0.69062 0.05603 0.2943 0.0
H2402 H 0.65101 0.06735 0.20759 0.0
C2403 C 0.57515 0.1512 0.2534 0.0
C2404 C 0.56625 0.16321 0.28083 0.0
C2405 C 0.58169 0.15538 0.3069 0.0
C2406 C 0.60571 0.13597 0.30595 0.0
C2407 C 0.61377 0.12409 0.27878 0.0
C2408 C 0.5989 0.13112 0.25296 0.0
C2409 C 0.61076 0.11317 0.22718 0.0
C2410 C 0.58646 0.09344 0.21385 0.0
C2411 C 0.62456 0.13346 0.20359 0.0
C2412 C 0.63422 0.09486 0.24272 0.0
C2413 C 0.63591 0.10196 0.27236 0.0
C2414 C 0.65605 0.08833 0.2913 0.0
C2415 C 0.67496 0.06672 0.27967 0.0
C2416 C 0.67318 0.05854 0.24952 0.0
C2417 C 0.65256 0.07289 0.23085 0.0
H2418 H 0.35635 0.04643 0.74325 0.0
H2419 H 0.30525 0.09947 0.80458 0.0
H2420 H 0.33767 0.14216 0.79515 0.0
H2421 H 0.42557 0.07332 0.76513 0.0
H2422 H 0.4422 0.07399 0.7289 0.0
H2423 H 0.41279 0.04831 0.73683 0.0
H2424 H 0.38243 0.06884 0.69283 0.0
H2425 H 0.41196 0.09433 0.68448 0.0
H2426 H 0.37503 0.10797 0.69064 0.0
H2427 H 0.37749 0.17726 0.78357 0.0
H2428 H 0.42186 0.2046 0.76823 0.0
H2429 H 0.44926 0.12984 0.71438 0.0
C2430 C 0.35154 0.06737 0.75382 0.0
C2431 C 0.32803 0.06991 0.77431 0.0
C2432 C 0.32293 0.09727 0.7886 0.0
C2433 C 0.34126 0.12162 0.78342 0.0
C2434 C 0.36481 0.11829 0.76392 0.0
C2435 C 0.36999 0.09204 0.74908 0.0
C2436 C 0.39824 0.09419 0.73093 0.0
C2437 C 0.42104 0.07108 0.74107 0.0
C2438 C 0.39151 0.09116 0.69775 0.0
C2439 C 0.40827 0.1254 0.7385 0.0
C2440 C 0.38844 0.13882 0.75743 0.0
C2441 C 0.39307 0.16715 0.76848 0.0
C2442 C 0.41852 0.18245 0.75974 0.0
C2443 C 0.43923 0.16945 0.74012 0.0
C2444 C 0.43391 0.14045 0.72939 0.0
H2445 H 0.42562 0.85238 0.30265 0.0
H2446 H 0.4547 0.82684 0.21484 0.0
H2447 H 0.4206 0.86339 0.19286 0.0
H2448 H 0.34794 0.8619 0.2822 0.0
H2449 H 0.34243 0.89279 0.30677 0.0
H2450 H 0.36929 0.86477 0.31574 0.0
H2451 H 0.40986 0.90502 0.31989 0.0
H2452 H 0.38318 0.93315 0.31082 0.0
H2453 H 0.41642 0.92955 0.2891 0.0
H2454 H 0.38682 0.90512 0.18064 0.0
H2455 H 0.35061 0.94577 0.1782 0.0
H2456 H 0.33896 0.94144 0.27336 0.0
C2457 C 0.42469 0.85451 0.2788 0.0
C2458 C 0.44289 0.83698 0.26038 0.0
C2459 C 0.44087 0.84002 0.22929 0.0
C2460 C 0.42167 0.86078 0.21663 0.0
C2461 C 0.40417 0.87787 0.23535 0.0
C2462 C 0.40503 0.87463 0.26573 0.0
C2463 C 0.38315 0.89526 0.28066 0.0
C2464 C 0.35929 0.87762 0.29733 0.0
C2465 C 0.39912 0.91704 0.30134 0.0
C2466 C 0.37031 0.911 0.25393 0.0
C2467 C 0.38308 0.90079 0.22809 0.0
C2468 C 0.37632 0.91299 0.20065 0.0
C2469 C 0.35581 0.93613 0.1995 0.0
C2470 C 0.3418 0.94648 0.22552 0.0
C2471 C 0.34905 0.93362 0.25309 0.0
loop_
_geom_bond_atom_site_label_1
_geom_bond_atom_site_label_2
_geom_bond_distance
_geom_bond_site_symmetry_2
_ccdc_geom_bond_type
Fe0 O2 1.918 1_455 S
Fe0 O5 2.012 . S
Fe0 O6 2.018 . S
Fe0 O11 1.960 1_455 S
Fe0 O14 1.980 1_455 S
Fe1 O2 1.918 1_455 S
Fe1 O9 2.011 . S
Fe1 O12 1.981 1_455 S
Fe1 O16 1.961 1_455 S
Fe1 O19 2.017 . S
O2 Fe0 1.918 1_655 S
O2 Fe1 1.918 1_655 S
O2 Fe3 1.918 1_655 S
Fe3 O2 1.918 1_455 S
Fe3 O4 2.017 . S
Fe3 O13 1.962 1_455 S
Fe3 O17 1.982 1_455 S
Fe3 O20 2.011 . S
O4 Fe3 2.017 . S
O4 C21 1.295 . S
O5 Fe0 2.012 . S
O5 C21 1.235 . S
O6 Fe0 2.018 . S
O6 C7 1.295 . S
C7 O6 1.295 . S
C7 O9 1.235 . S
C8 O13 1.287 . S
C8 O14 1.255 . S
O9 Fe1 2.011 . S
O9 C7 1.235 . S
C10 O16 1.287 . S
C10 O17 1.255 . S
O11 Fe0 1.960 1_655 S
O11 C18 1.287 . S
O12 Fe1 1.981 1_655 S
O12 C18 1.255 . S
O13 Fe3 1.962 1_655 S
O13 C8 1.287 . S
O14 Fe0 1.980 1_655 S
O14 C8 1.255 . S
C15 O19 1.295 . S
C15 O20 1.235 . S
O16 Fe1 1.961 1_655 S
O16 C10 1.287 . S
O17 Fe3 1.982 1_655 S
O17 C10 1.255 . S
C18 O11 1.287 . S
C18 O12 1.255 . S
O19 Fe1 2.017 . S
O19 C15 1.295 . S
O20 Fe3 2.011 . S
O20 C15 1.235 . S
C21 O4 1.295 . S
C21 O5 1.235 . S
Fe22 O24 1.918 . S
Fe22 O27 1.997 . S
Fe22 O28 2.002 . S
Fe22 O33 1.976 . S
Fe22 O36 1.996 . S
Fe23 O24 1.918 . S
Fe23 O31 1.997 . S
Fe23 O34 1.996 . S
Fe23 O38 1.976 . S
Fe23 O41 2.002 . S
O24 Fe22 1.918 . S
O24 Fe23 1.918 . S
O24 Fe25 1.918 . S
Fe25 O24 1.918 . S
Fe25 O26 2.002 . S
Fe25 O35 1.976 . S
Fe25 O39 1.996 . S
Fe25 O42 1.997 . S
O26 Fe25 2.002 . S
O26 C43 1.295 . S
O27 Fe22 1.997 . S
O27 C43 1.235 . S
O28 Fe22 2.002 . S
O28 C29 1.295 . S
C29 O28 1.295 . S
C29 O31 1.235 . S
C30 O35 1.287 . S
C30 O36 1.255 . S
O31 Fe23 1.997 . S
O31 C29 1.235 . S
C32 O38 1.287 . S
C32 O39 1.255 . S
O33 Fe22 1.976 . S
O33 C40 1.287 . S
O34 Fe23 1.996 . S
O34 C40 1.255 . S
O35 Fe25 1.976 . S
O35 C30 1.287 . S
O36 Fe22 1.996 . S
O36 C30 1.255 . S
C37 O41 1.295 . S
C37 O42 1.235 . S
O38 Fe23 1.976 . S
O38 C32 1.287 . S
O39 Fe25 1.996 . S
O39 C32 1.255 . S
C40 O33 1.287 . S
C40 O34 1.255 . S
O41 Fe23 2.002 . S
O41 C37 1.295 . S
O42 Fe25 1.997 . S
O42 C37 1.235 . S
C43 O26 1.295 . S
C43 O27 1.235 . S
Fe44 O46 1.918 . S
Fe44 O49 1.997 1_455 S
Fe44 O50 2.002 1_455 S
Fe44 O55 1.976 . S
Fe44 O58 1.996 . S
Fe45 O46 1.918 . S
Fe45 O53 1.997 1_455 S
Fe45 O56 1.996 . S
Fe45 O60 1.976 . S
Fe45 O63 2.002 1_455 S
O46 Fe44 1.918 . S
O46 Fe45 1.918 . S
O46 Fe47 1.918 . S
Fe47 O46 1.918 . S
Fe47 O48 2.002 1_455 S
Fe47 O57 1.976 . S
Fe47 O61 1.996 . S
Fe47 O64 1.997 1_455 S
O48 Fe47 2.002 1_655 S
O48 C65 1.295 . S
O49 Fe44 1.997 1_655 S
O49 C65 1.235 . S
O50 Fe44 2.002 1_655 S
O50 C51 1.295 . S
C51 O50 1.295 . S
C51 O53 1.235 . S
C52 O57 1.287 . S
C52 O58 1.255 . S
O53 Fe45 1.997 1_655 S
O53 C51 1.235 . S
C54 O60 1.287 . S
C54 O61 1.255 . S
O55 Fe44 1.976 . S
O55 C62 1.287 . S
O56 Fe45 1.996 . S
O56 C62 1.255 . S
O57 Fe47 1.976 . S
O57 C52 1.287 . S
O58 Fe44 1.996 . S
O58 C52 1.255 . S
C59 O63 1.295 . S
C59 O64 1.235 . S
O60 Fe45 1.976 . S
O60 C54 1.287 . S
O61 Fe47 1.996 . S
O61 C54 1.255 . S
C62 O55 1.287 . S
C62 O56 1.255 . S
O63 Fe45 2.002 1_655 S
O63 C59 1.295 . S
O64 Fe47 1.997 1_655 S
O64 C59 1.235 . S
C65 O48 1.295 . S
C65 O49 1.235 . S
Fe66 O68 1.918 . S
Fe66 O71 1.997 . S
Fe66 O72 2.002 . S
Fe66 O77 1.976 . S
Fe66 O80 1.996 . S
Fe67 O68 1.918 . S
Fe67 O75 1.997 . S
Fe67 O78 1.996 . S
Fe67 O82 1.976 . S
Fe67 O85 2.002 . S
O68 Fe66 1.918 . S
O68 Fe67 1.918 . S
O68 Fe69 1.918 . S
Fe69 O68 1.918 . S
Fe69 O70 2.002 . S
Fe69 O79 1.976 . S
Fe69 O83 1.996 . S
Fe69 O86 1.997 . S
O70 Fe69 2.002 . S
O70 C87 1.295 . S
O71 Fe66 1.997 . S
O71 C87 1.235 . S
O72 Fe66 2.002 . S
O72 C73 1.295 . S
C73 O72 1.295 . S
C73 O75 1.235 . S
C74 O79 1.287 . S
C74 O80 1.255 . S
O75 Fe67 1.997 . S
O75 C73 1.235 . S
C76 O82 1.287 . S
C76 O83 1.255 . S
O77 Fe66 1.976 . S
O77 C84 1.287 . S
O78 Fe67 1.996 . S
O78 C84 1.255 . S
O79 Fe69 1.976 . S
O79 C74 1.287 . S
O80 Fe66 1.996 . S
O80 C74 1.255 . S
C81 O85 1.295 . S
C81 O86 1.235 . S
O82 Fe67 1.976 . S
O82 C76 1.287 . S
O83 Fe69 1.996 . S
O83 C76 1.255 . S
C84 O77 1.287 . S
C84 O78 1.255 . S
O85 Fe67 2.002 . S
O85 C81 1.295 . S
O86 Fe69 1.997 . S
O86 C81 1.235 . S
C87 O70 1.295 . S
C87 O71 1.235 . S
Fe88 O90 1.919 . S
Fe88 O93 1.997 . S
Fe88 O94 2.002 . S
Fe88 O99 1.976 1_455 S
Fe88 O102 1.996 1_455 S
Fe89 O90 1.919 . S
Fe89 O97 1.997 . S
Fe89 O100 1.996 1_455 S
Fe89 O104 1.976 1_455 S
Fe89 O107 2.002 . S
O90 Fe88 1.919 . S
O90 Fe89 1.919 . S
O90 Fe91 1.919 . S
Fe91 O90 1.919 . S
Fe91 O92 2.002 . S
Fe91 O101 1.976 1_455 S
Fe91 O105 1.996 1_455 S
Fe91 O108 1.997 . S
O92 Fe91 2.002 . S
O92 C109 1.295 . S
O93 Fe88 1.997 . S
O93 C109 1.235 . S
O94 Fe88 2.002 . S
O94 C95 1.295 . S
C95 O94 1.295 . S
C95 O97 1.235 . S
C96 O101 1.287 . S
C96 O102 1.255 . S
O97 Fe89 1.997 . S
O97 C95 1.235 . S
C98 O104 1.287 . S
C98 O105 1.255 . S
O99 Fe88 1.976 1_655 S
O99 C106 1.287 . S
O100 Fe89 1.996 1_655 S
O100 C106 1.255 . S
O101 Fe91 1.976 1_655 S
O101 C96 1.287 . S
O102 Fe88 1.996 1_655 S
O102 C96 1.255 . S
C103 O107 1.295 . S
C103 O108 1.235 . S
O104 Fe89 1.976 1_655 S
O104 C98 1.287 . S
O105 Fe91 1.996 1_655 S
O105 C98 1.255 . S
C106 O99 1.287 . S
C106 O100 1.255 . S
O107 Fe89 2.002 . S
O107 C103 1.295 . S
O108 Fe91 1.997 . S
O108 C103 1.235 . S
C109 O92 1.295 . S
C109 O93 1.235 . S
Fe110 O112 1.918 . S
Fe110 O115 1.997 . S
Fe110 O116 2.002 . S
Fe110 O121 1.976 . S
Fe110 O124 1.996 . S
Fe111 O112 1.918 . S
Fe111 O119 1.997 . S
Fe111 O122 1.996 . S
Fe111 O126 1.976 . S
Fe111 O129 2.002 . S
O112 Fe110 1.918 . S
O112 Fe111 1.918 . S
O112 Fe113 1.918 . S
Fe113 O112 1.918 . S
Fe113 O114 2.002 . S
Fe113 O123 1.976 . S
Fe113 O127 1.996 . S
Fe113 O130 1.997 . S
O114 Fe113 2.002 . S
O114 C131 1.295 . S
O115 Fe110 1.997 . S
O115 C131 1.235 . S
O116 Fe110 2.002 . S
O116 C117 1.295 . S
C117 O116 1.295 . S
C117 O119 1.235 . S
C118 O123 1.287 . S
C118 O124 1.255 . S
O119 Fe111 1.997 . S
O119 C117 1.235 . S
C120 O126 1.287 . S
C120 O127 1.255 . S
O121 Fe110 1.976 . S
O121 C128 1.287 . S
O122 Fe111 1.996 . S
O122 C128 1.255 . S
O123 Fe113 1.976 . S
O123 C118 1.287 . S
O124 Fe110 1.996 . S
O124 C118 1.255 . S
C125 O129 1.295 . S
C125 O130 1.235 . S
O126 Fe111 1.976 . S
O126 C120 1.287 . S
O127 Fe113 1.996 . S
O127 C120 1.255 . S
C128 O121 1.287 . S
C128 O122 1.255 . S
O129 Fe111 2.002 . S
O129 C125 1.295 . S
O130 Fe113 1.997 . S
O130 C125 1.235 . S
C131 O114 1.295 . S
C131 O115 1.235 . S
Fe132 O134 1.918 . S
Fe132 O137 1.997 1_455 S
Fe132 O138 2.002 1_455 S
Fe132 O143 1.976 . S
Fe132 O146 1.996 . S
Fe133 O134 1.918 . S
Fe133 O141 1.997 1_455 S
Fe133 O144 1.996 . S
Fe133 O148 1.976 . S
Fe133 O151 2.002 1_455 S
O134 Fe132 1.918 . S
O134 Fe133 1.918 . S
O134 Fe135 1.918 . S
Fe135 O134 1.918 . S
Fe135 O136 2.002 1_455 S
Fe135 O145 1.976 . S
Fe135 O149 1.996 . S
Fe135 O152 1.997 1_455 S
O136 Fe135 2.002 1_655 S
O136 C153 1.295 . S
O137 Fe132 1.997 1_655 S
O137 C153 1.235 . S
O138 Fe132 2.002 1_655 S
O138 C139 1.295 . S
C139 O138 1.295 . S
C139 O141 1.235 . S
C140 O145 1.287 . S
C140 O146 1.255 . S
O141 Fe133 1.997 1_655 S
O141 C139 1.235 . S
C142 O148 1.287 . S
C142 O149 1.255 . S
O143 Fe132 1.976 . S
O143 C150 1.287 . S
O144 Fe133 1.996 . S
O144 C150 1.255 . S
O145 Fe135 1.976 . S
O145 C140 1.287 . S
O146 Fe132 1.996 . S
O146 C140 1.255 . S
C147 O151 1.295 . S
C147 O152 1.235 . S
O148 Fe133 1.976 . S
O148 C142 1.287 . S
O149 Fe135 1.996 . S
O149 C142 1.255 . S
C150 O143 1.287 . S
C150 O144 1.255 . S
O151 Fe133 2.002 1_655 S
O151 C147 1.295 . S
O152 Fe135 1.997 1_655 S
O152 C147 1.235 . S
C153 O136 1.295 . S
C153 O137 1.235 . S
Fe154 O156 1.918 . S
Fe154 O159 1.997 . S
Fe154 O160 2.002 . S
Fe154 O165 1.976 . S
Fe154 O168 1.996 . S
Fe155 O156 1.918 . S
Fe155 O163 1.997 . S
Fe155 O166 1.996 . S
Fe155 O170 1.976 . S
Fe155 O173 2.002 . S
O156 Fe154 1.918 . S
O156 Fe155 1.918 . S
O156 Fe157 1.918 . S
Fe157 O156 1.918 . S
Fe157 O158 2.002 . S
Fe157 O167 1.976 . S
Fe157 O171 1.996 . S
Fe157 O174 1.997 . S
O158 Fe157 2.002 . S
O158 C175 1.295 . S
O159 Fe154 1.997 . S
O159 C175 1.235 . S
O160 Fe154 2.002 . S
O160 C161 1.295 . S
C161 O160 1.295 . S
C161 O163 1.235 . S
C162 O167 1.287 . S
C162 O168 1.255 . S
O163 Fe155 1.997 . S
O163 C161 1.235 . S
C164 O170 1.287 . S
C164 O171 1.255 . S
O165 Fe154 1.976 . S
O165 C172 1.287 . S
O166 Fe155 1.996 . S
O166 C172 1.255 . S
O167 Fe157 1.976 . S
O167 C162 1.287 . S
O168 Fe154 1.996 . S
O168 C162 1.255 . S
C169 O173 1.295 . S
C169 O174 1.235 . S
O170 Fe155 1.976 . S
O170 C164 1.287 . S
O171 Fe157 1.996 . S
O171 C164 1.255 . S
C172 O165 1.287 . S
C172 O166 1.255 . S
O173 Fe155 2.002 . S
O173 C169 1.295 . S
O174 Fe157 1.997 . S
O174 C169 1.235 . S
C175 O158 1.295 . S
C175 O159 1.235 . S
Fe176 O178 1.918 . S
Fe176 O181 1.997 . S
Fe176 O182 2.002 . S
Fe176 O187 1.976 1_545 S
Fe176 O190 1.996 1_545 S
Fe177 O178 1.918 . S
Fe177 O185 1.997 . S
Fe177 O188 1.996 1_545 S
Fe177 O192 1.976 1_545 S
Fe177 O195 2.002 . S
O178 Fe176 1.918 . S
O178 Fe177 1.918 . S
O178 Fe179 1.918 . S
Fe179 O178 1.918 . S
Fe179 O180 2.002 . S
Fe179 O189 1.976 1_545 S
Fe179 O193 1.996 1_545 S
Fe179 O196 1.997 . S
O180 Fe179 2.002 . S
O180 C197 1.295 . S
O181 Fe176 1.997 . S
O181 C197 1.235 . S
O182 Fe176 2.002 . S
O182 C183 1.295 . S
C183 O182 1.295 . S
C183 O185 1.235 . S
C184 O189 1.287 . S
C184 O190 1.255 . S
O185 Fe177 1.997 . S
O185 C183 1.235 . S
C186 O192 1.287 . S
C186 O193 1.255 . S
O187 Fe176 1.976 1_565 S
O187 C194 1.287 . S
O188 Fe177 1.996 1_565 S
O188 C194 1.255 . S
O189 Fe179 1.976 1_565 S
O189 C184 1.287 . S
O190 Fe176 1.996 1_565 S
O190 C184 1.255 . S
C191 O195 1.295 . S
C191 O196 1.235 . S
O192 Fe177 1.976 1_565 S
O192 C186 1.287 . S
O193 Fe179 1.996 1_565 S
O193 C186 1.255 . S
C194 O187 1.287 . S
C194 O188 1.255 . S
O195 Fe177 2.002 . S
O195 C191 1.295 . S
O196 Fe179 1.997 . S
O196 C191 1.235 . S
C197 O180 1.295 . S
C197 O181 1.235 . S
Fe198 O200 1.918 . S
Fe198 O203 1.997 . S
Fe198 O204 2.002 . S
Fe198 O209 1.976 . S
Fe198 O212 1.996 . S
Fe199 O200 1.918 . S
Fe199 O207 1.997 . S
Fe199 O210 1.996 . S
Fe199 O214 1.976 . S
Fe199 O217 2.002 . S
O200 Fe198 1.918 . S
O200 Fe199 1.918 . S
O200 Fe201 1.918 . S
Fe201 O200 1.918 . S
Fe201 O202 2.002 . S
Fe201 O211 1.976 . S
Fe201 O215 1.996 . S
Fe201 O218 1.997 . S
O202 Fe201 2.002 . S
O202 C219 1.295 . S
O203 Fe198 1.997 . S
O203 C219 1.235 . S
O204 Fe198 2.002 . S
O204 C205 1.295 . S
C205 O204 1.295 . S
C205 O207 1.235 . S
C206 O211 1.287 . S
C206 O212 1.255 . S
O207 Fe199 1.997 . S
O207 C205 1.235 . S
C208 O214 1.287 . S
C208 O215 1.255 . S
O209 Fe198 1.976 . S
O209 C216 1.287 . S
O210 Fe199 1.996 . S
O210 C216 1.255 . S
O211 Fe201 1.976 . S
O211 C206 1.287 . S
O212 Fe198 1.996 . S
O212 C206 1.255 . S
C213 O217 1.295 . S
C213 O218 1.235 . S
O214 Fe199 1.976 . S
O214 C208 1.287 . S
O215 Fe201 1.996 . S
O215 C208 1.255 . S
C216 O209 1.287 . S
C216 O210 1.255 . S
O217 Fe199 2.002 . S
O217 C213 1.295 . S
O218 Fe201 1.997 . S
O218 C213 1.235 . S
C219 O202 1.295 . S
C219 O203 1.235 . S
Fe220 O222 1.918 . S
Fe220 O225 1.997 1_545 S
Fe220 O226 2.002 1_545 S
Fe220 O231 1.976 . S
Fe220 O234 1.996 . S
Fe221 O222 1.918 . S
Fe221 O229 1.997 1_545 S
Fe221 O232 1.996 . S
Fe221 O236 1.976 . S
Fe221 O239 2.002 1_545 S
O222 Fe220 1.918 . S
O222 Fe221 1.918 . S
O222 Fe223 1.918 . S
Fe223 O222 1.918 . S
Fe223 O224 2.002 1_545 S
Fe223 O233 1.976 . S
Fe223 O237 1.996 . S
Fe223 O240 1.997 1_545 S
O224 Fe223 2.002 1_565 S
O224 C241 1.295 . S
O225 Fe220 1.997 1_565 S
O225 C241 1.235 . S
O226 Fe220 2.002 1_565 S
O226 C227 1.295 . S
C227 O226 1.295 . S
C227 O229 1.235 . S
C228 O233 1.287 . S
C228 O234 1.255 . S
O229 Fe221 1.997 1_565 S
O229 C227 1.235 . S
C230 O236 1.287 . S
C230 O237 1.255 . S
O231 Fe220 1.976 . S
O231 C238 1.287 . S
O232 Fe221 1.996 . S
O232 C238 1.255 . S
O233 Fe223 1.976 . S
O233 C228 1.287 . S
O234 Fe220 1.996 . S
O234 C228 1.255 . S
C235 O239 1.295 . S
C235 O240 1.235 . S
O236 Fe221 1.976 . S
O236 C230 1.287 . S
O237 Fe223 1.996 . S
O237 C230 1.255 . S
C238 O231 1.287 . S
C238 O232 1.255 . S
O239 Fe221 2.002 1_565 S
O239 C235 1.295 . S
O240 Fe223 1.997 1_565 S
O240 C235 1.235 . S
C241 O224 1.295 . S
C241 O225 1.235 . S
Fe242 O244 1.918 . S
Fe242 O247 1.997 . S
Fe242 O248 2.002 . S
Fe242 O253 1.976 . S
Fe242 O256 1.996 . S
Fe243 O244 1.918 . S
Fe243 O251 1.997 . S
Fe243 O254 1.996 . S
Fe243 O258 1.976 . S
Fe243 O261 2.002 . S
O244 Fe242 1.918 . S
O244 Fe243 1.918 . S
O244 Fe245 1.918 . S
Fe245 O244 1.918 . S
Fe245 O246 2.002 . S
Fe245 O255 1.976 . S
Fe245 O259 1.996 . S
Fe245 O262 1.997 . S
O246 Fe245 2.002 . S
O246 C263 1.295 . S
O247 Fe242 1.997 . S
O247 C263 1.235 . S
O248 Fe242 2.002 . S
O248 C249 1.295 . S
C249 O248 1.295 . S
C249 O251 1.235 . S
C250 O255 1.287 . S
C250 O256 1.255 . S
O251 Fe243 1.997 . S
O251 C249 1.235 . S
C252 O258 1.287 . S
C252 O259 1.255 . S
O253 Fe242 1.976 . S
O253 C260 1.287 . S
O254 Fe243 1.996 . S
O254 C260 1.255 . S
O255 Fe245 1.976 . S
O255 C250 1.287 . S
O256 Fe242 1.996 . S
O256 C250 1.255 . S
C257 O261 1.295 . S
C257 O262 1.235 . S
O258 Fe243 1.976 . S
O258 C252 1.287 . S
O259 Fe245 1.996 . S
O259 C252 1.255 . S
C260 O253 1.287 . S
C260 O254 1.255 . S
O261 Fe243 2.002 . S
O261 C257 1.295 . S
O262 Fe245 1.997 . S
O262 C257 1.235 . S
C263 O246 1.295 . S
C263 O247 1.235 . S
Fe264 O266 1.918 . S
Fe264 O269 1.997 1_545 S
Fe264 O270 2.002 1_545 S
Fe264 O275 1.976 . S
Fe264 O278 1.996 . S
Fe265 O266 1.918 . S
Fe265 O273 1.997 1_545 S
Fe265 O276 1.996 . S
Fe265 O280 1.976 . S
Fe265 O283 2.002 1_545 S
O266 Fe264 1.918 . S
O266 Fe265 1.918 . S
O266 Fe267 1.918 . S
Fe267 O266 1.918 . S
Fe267 O268 2.002 1_545 S
Fe267 O277 1.976 . S
Fe267 O281 1.996 . S
Fe267 O284 1.997 1_545 S
O268 Fe267 2.002 1_565 S
O268 C285 1.295 . S
O269 Fe264 1.997 1_565 S
O269 C285 1.235 . S
O270 Fe264 2.002 1_565 S
O270 C271 1.295 . S
C271 O270 1.295 . S
C271 O273 1.235 . S
C272 O277 1.287 . S
C272 O278 1.255 . S
O273 Fe265 1.997 1_565 S
O273 C271 1.235 . S
C274 O280 1.287 . S
C274 O281 1.255 . S
O275 Fe264 1.976 . S
O275 C282 1.287 . S
O276 Fe265 1.996 . S
O276 C282 1.255 . S
O277 Fe267 1.976 . S
O277 C272 1.287 . S
O278 Fe264 1.996 . S
O278 C272 1.255 . S
C279 O283 1.295 . S
C279 O284 1.235 . S
O280 Fe265 1.976 . S
O280 C274 1.287 . S
O281 Fe267 1.996 . S
O281 C274 1.255 . S
C282 O275 1.287 . S
C282 O276 1.255 . S
O283 Fe265 2.002 1_565 S
O283 C279 1.295 . S
O284 Fe267 1.997 1_565 S
O284 C279 1.235 . S
C285 O268 1.295 . S
C285 O269 1.235 . S
Fe286 O288 1.918 . S
Fe286 O291 1.997 . S
Fe286 O292 2.002 . S
Fe286 O297 1.976 . S
Fe286 O300 1.996 . S
Fe287 O288 1.918 . S
Fe287 O295 1.997 . S
Fe287 O298 1.996 . S
Fe287 O302 1.976 . S
Fe287 O305 2.002 . S
O288 Fe286 1.918 . S
O288 Fe287 1.918 . S
O288 Fe289 1.918 . S
Fe289 O288 1.918 . S
Fe289 O290 2.002 . S
Fe289 O299 1.976 . S
Fe289 O303 1.996 . S
Fe289 O306 1.997 . S
O290 Fe289 2.002 . S
O290 C307 1.295 . S
O291 Fe286 1.997 . S
O291 C307 1.235 . S
O292 Fe286 2.002 . S
O292 C293 1.295 . S
C293 O292 1.295 . S
C293 O295 1.235 . S
C294 O299 1.287 . S
C294 O300 1.255 . S
O295 Fe287 1.997 . S
O295 C293 1.235 . S
C296 O302 1.287 . S
C296 O303 1.255 . S
O297 Fe286 1.976 . S
O297 C304 1.287 . S
O298 Fe287 1.996 . S
O298 C304 1.255 . S
O299 Fe289 1.976 . S
O299 C294 1.287 . S
O300 Fe286 1.996 . S
O300 C294 1.255 . S
C301 O305 1.295 . S
C301 O306 1.235 . S
O302 Fe287 1.976 . S
O302 C296 1.287 . S
O303 Fe289 1.996 . S
O303 C296 1.255 . S
C304 O297 1.287 . S
C304 O298 1.255 . S
O305 Fe287 2.002 . S
O305 C301 1.295 . S
O306 Fe289 1.997 . S
O306 C301 1.235 . S
C307 O290 1.295 . S
C307 O291 1.235 . S
Fe308 O310 1.918 . S
Fe308 O313 1.997 . S
Fe308 O314 2.002 . S
Fe308 O319 1.976 1_545 S
Fe308 O322 1.996 1_545 S
Fe309 O310 1.918 . S
Fe309 O317 1.997 . S
Fe309 O320 1.996 1_545 S
Fe309 O324 1.976 1_545 S
Fe309 O327 2.002 . S
O310 Fe308 1.918 . S
O310 Fe309 1.918 . S
O310 Fe311 1.918 . S
Fe311 O310 1.918 . S
Fe311 O312 2.002 . S
Fe311 O321 1.976 1_545 S
Fe311 O325 1.996 1_545 S
Fe311 O328 1.997 . S
O312 Fe311 2.002 . S
O312 C329 1.295 . S
O313 Fe308 1.997 . S
O313 C329 1.235 . S
O314 Fe308 2.002 . S
O314 C315 1.295 . S
C315 O314 1.295 . S
C315 O317 1.235 . S
C316 O321 1.287 . S
C316 O322 1.255 . S
O317 Fe309 1.997 . S
O317 C315 1.235 . S
C318 O324 1.287 . S
C318 O325 1.255 . S
O319 Fe308 1.976 1_565 S
O319 C326 1.287 . S
O320 Fe309 1.996 1_565 S
O320 C326 1.255 . S
O321 Fe311 1.976 1_565 S
O321 C316 1.287 . S
O322 Fe308 1.996 1_565 S
O322 C316 1.255 . S
C323 O327 1.295 . S
C323 O328 1.235 . S
O324 Fe309 1.976 1_565 S
O324 C318 1.287 . S
O325 Fe311 1.996 1_565 S
O325 C318 1.255 . S
C326 O319 1.287 . S
C326 O320 1.255 . S
O327 Fe309 2.002 . S
O327 C323 1.295 . S
O328 Fe311 1.997 . S
O328 C323 1.235 . S
C329 O312 1.295 . S
C329 O313 1.235 . S
Fe330 O332 1.918 . S
Fe330 O335 1.997 . S
Fe330 O336 2.002 . S
Fe330 O341 1.976 . S
Fe330 O344 1.996 . S
Fe331 O332 1.918 . S
Fe331 O339 1.997 . S
Fe331 O342 1.996 . S
Fe331 O346 1.976 . S
Fe331 O349 2.002 . S
O332 Fe330 1.918 . S
O332 Fe331 1.918 . S
O332 Fe333 1.918 . S
Fe333 O332 1.918 . S
Fe333 O334 2.002 . S
Fe333 O343 1.976 . S
Fe333 O347 1.996 . S
Fe333 O350 1.997 . S
O334 Fe333 2.002 . S
O334 C351 1.295 . S
O335 Fe330 1.997 . S
O335 C351 1.235 . S
O336 Fe330 2.002 . S
O336 C337 1.295 . S
C337 O336 1.295 . S
C337 O339 1.235 . S
C338 O343 1.287 . S
C338 O344 1.255 . S
O339 Fe331 1.997 . S
O339 C337 1.235 . S
C340 O346 1.287 . S
C340 O347 1.255 . S
O341 Fe330 1.976 . S
O341 C348 1.287 . S
O342 Fe331 1.996 . S
O342 C348 1.255 . S
O343 Fe333 1.976 . S
O343 C338 1.287 . S
O344 Fe330 1.996 . S
O344 C338 1.255 . S
C345 O349 1.295 . S
C345 O350 1.235 . S
O346 Fe331 1.976 . S
O346 C340 1.287 . S
O347 Fe333 1.996 . S
O347 C340 1.255 . S
C348 O341 1.287 . S
C348 O342 1.255 . S
O349 Fe331 2.002 . S
O349 C345 1.295 . S
O350 Fe333 1.997 . S
O350 C345 1.235 . S
C351 O334 1.295 . S
C351 O335 1.235 . S
Fe352 O354 1.918 . S
Fe352 O357 1.997 . S
Fe352 O358 2.002 . S
Fe352 O363 1.976 1_554 S
Fe352 O366 1.996 1_554 S
Fe353 O354 1.918 . S
Fe353 O361 1.997 . S
Fe353 O364 1.996 1_554 S
Fe353 O368 1.976 1_554 S
Fe353 O371 2.002 . S
O354 Fe352 1.918 . S
O354 Fe353 1.918 . S
O354 Fe355 1.918 . S
Fe355 O354 1.918 . S
Fe355 O356 2.002 . S
Fe355 O365 1.976 1_554 S
Fe355 O369 1.996 1_554 S
Fe355 O372 1.997 . S
O356 Fe355 2.002 . S
O356 C373 1.295 . S
O357 Fe352 1.997 . S
O357 C373 1.235 . S
O358 Fe352 2.002 . S
O358 C359 1.295 . S
C359 O358 1.295 . S
C359 O361 1.235 . S
C360 O365 1.287 . S
C360 O366 1.255 . S
O361 Fe353 1.997 . S
O361 C359 1.235 . S
C362 O368 1.287 . S
C362 O369 1.255 . S
O363 Fe352 1.976 1_556 S
O363 C370 1.287 . S
O364 Fe353 1.996 1_556 S
O364 C370 1.255 . S
O365 Fe355 1.976 1_556 S
O365 C360 1.287 . S
O366 Fe352 1.996 1_556 S
O366 C360 1.255 . S
C367 O371 1.295 . S
C367 O372 1.235 . S
O368 Fe353 1.976 1_556 S
O368 C362 1.287 . S
O369 Fe355 1.996 1_556 S
O369 C362 1.255 . S
C370 O363 1.287 . S
C370 O364 1.255 . S
O371 Fe353 2.002 . S
O371 C367 1.295 . S
O372 Fe355 1.997 . S
O372 C367 1.235 . S
C373 O356 1.295 . S
C373 O357 1.235 . S
Fe374 O376 1.918 . S
Fe374 O379 1.997 1_554 S
Fe374 O380 2.002 1_554 S
Fe374 O385 1.976 . S
Fe374 O388 1.996 . S
Fe375 O376 1.918 . S
Fe375 O383 1.997 1_554 S
Fe375 O386 1.996 . S
Fe375 O390 1.976 . S
Fe375 O393 2.002 1_554 S
O376 Fe374 1.918 . S
O376 Fe375 1.918 . S
O376 Fe377 1.918 . S
Fe377 O376 1.918 . S
Fe377 O378 2.002 1_554 S
Fe377 O387 1.976 . S
Fe377 O391 1.996 . S
Fe377 O394 1.997 1_554 S
O378 Fe377 2.002 1_556 S
O378 C395 1.295 . S
O379 Fe374 1.997 1_556 S
O379 C395 1.235 . S
O380 Fe374 2.002 1_556 S
O380 C381 1.295 . S
C381 O380 1.295 . S
C381 O383 1.235 . S
C382 O387 1.287 . S
C382 O388 1.255 . S
O383 Fe375 1.997 1_556 S
O383 C381 1.235 . S
C384 O390 1.287 . S
C384 O391 1.255 . S
O385 Fe374 1.976 . S
O385 C392 1.287 . S
O386 Fe375 1.996 . S
O386 C392 1.255 . S
O387 Fe377 1.976 . S
O387 C382 1.287 . S
O388 Fe374 1.996 . S
O388 C382 1.255 . S
C389 O393 1.295 . S
C389 O394 1.235 . S
O390 Fe375 1.976 . S
O390 C384 1.287 . S
O391 Fe377 1.996 . S
O391 C384 1.255 . S
C392 O385 1.287 . S
C392 O386 1.255 . S
O393 Fe375 2.002 1_556 S
O393 C389 1.295 . S
O394 Fe377 1.997 1_556 S
O394 C389 1.235 . S
C395 O378 1.295 . S
C395 O379 1.235 . S
Fe396 O398 1.918 . S
Fe396 O401 1.997 . S
Fe396 O402 2.002 . S
Fe396 O407 1.976 . S
Fe396 O410 1.996 . S
Fe397 O398 1.918 . S
Fe397 O405 1.997 . S
Fe397 O408 1.996 . S
Fe397 O412 1.976 . S
Fe397 O415 2.002 . S
O398 Fe396 1.918 . S
O398 Fe397 1.918 . S
O398 Fe399 1.918 . S
Fe399 O398 1.918 . S
Fe399 O400 2.002 . S
Fe399 O409 1.976 . S
Fe399 O413 1.996 . S
Fe399 O416 1.997 . S
O400 Fe399 2.002 . S
O400 C417 1.295 . S
O401 Fe396 1.997 . S
O401 C417 1.235 . S
O402 Fe396 2.002 . S
O402 C403 1.295 . S
C403 O402 1.295 . S
C403 O405 1.235 . S
C404 O409 1.287 . S
C404 O410 1.255 . S
O405 Fe397 1.997 . S
O405 C403 1.235 . S
C406 O412 1.287 . S
C406 O413 1.255 . S
O407 Fe396 1.976 . S
O407 C414 1.287 . S
O408 Fe397 1.996 . S
O408 C414 1.255 . S
O409 Fe399 1.976 . S
O409 C404 1.287 . S
O410 Fe396 1.996 . S
O410 C404 1.255 . S
C411 O415 1.295 . S
C411 O416 1.235 . S
O412 Fe397 1.976 . S
O412 C406 1.287 . S
O413 Fe399 1.996 . S
O413 C406 1.255 . S
C414 O407 1.287 . S
C414 O408 1.255 . S
O415 Fe397 2.002 . S
O415 C411 1.295 . S
O416 Fe399 1.997 . S
O416 C411 1.235 . S
C417 O400 1.295 . S
C417 O401 1.235 . S
Fe418 O420 1.918 . S
Fe418 O423 1.997 1_554 S
Fe418 O424 2.002 1_554 S
Fe418 O429 1.976 . S
Fe418 O432 1.996 . S
Fe419 O420 1.918 . S
Fe419 O427 1.997 1_554 S
Fe419 O430 1.996 . S
Fe419 O434 1.976 . S
Fe419 O437 2.002 1_554 S
O420 Fe418 1.918 . S
O420 Fe419 1.918 . S
O420 Fe421 1.918 . S
Fe421 O420 1.918 . S
Fe421 O422 2.002 1_554 S
Fe421 O431 1.976 . S
Fe421 O435 1.996 . S
Fe421 O438 1.997 1_554 S
O422 Fe421 2.002 1_556 S
O422 C439 1.295 . S
O423 Fe418 1.997 1_556 S
O423 C439 1.235 . S
O424 Fe418 2.002 1_556 S
O424 C425 1.295 . S
C425 O424 1.295 . S
C425 O427 1.235 . S
C426 O431 1.287 . S
C426 O432 1.255 . S
O427 Fe419 1.997 1_556 S
O427 C425 1.235 . S
C428 O434 1.287 . S
C428 O435 1.255 . S
O429 Fe418 1.976 . S
O429 C436 1.287 . S
O430 Fe419 1.996 . S
O430 C436 1.255 . S
O431 Fe421 1.976 . S
O431 C426 1.287 . S
O432 Fe418 1.996 . S
O432 C426 1.255 . S
C433 O437 1.295 . S
C433 O438 1.235 . S
O434 Fe419 1.976 . S
O434 C428 1.287 . S
O435 Fe421 1.996 . S
O435 C428 1.255 . S
C436 O429 1.287 . S
C436 O430 1.255 . S
O437 Fe419 2.002 1_556 S
O437 C433 1.295 . S
O438 Fe421 1.997 1_556 S
O438 C433 1.235 . S
C439 O422 1.295 . S
C439 O423 1.235 . S
Fe440 O442 1.918 . S
Fe440 O445 1.997 . S
Fe440 O446 2.002 . S
Fe440 O451 1.976 . S
Fe440 O454 1.996 . S
Fe441 O442 1.918 . S
Fe441 O449 1.997 . S
Fe441 O452 1.996 . S
Fe441 O456 1.976 . S
Fe441 O459 2.002 . S
O442 Fe440 1.918 . S
O442 Fe441 1.918 . S
O442 Fe443 1.918 . S
Fe443 O442 1.918 . S
Fe443 O444 2.002 . S
Fe443 O453 1.976 . S
Fe443 O457 1.996 . S
Fe443 O460 1.997 . S
O444 Fe443 2.002 . S
O444 C461 1.295 . S
O445 Fe440 1.997 . S
O445 C461 1.235 . S
O446 Fe440 2.002 . S
O446 C447 1.295 . S
C447 O446 1.295 . S
C447 O449 1.235 . S
C448 O453 1.287 . S
C448 O454 1.255 . S
O449 Fe441 1.997 . S
O449 C447 1.235 . S
C450 O456 1.287 . S
C450 O457 1.255 . S
O451 Fe440 1.976 . S
O451 C458 1.287 . S
O452 Fe441 1.996 . S
O452 C458 1.255 . S
O453 Fe443 1.976 . S
O453 C448 1.287 . S
O454 Fe440 1.996 . S
O454 C448 1.255 . S
C455 O459 1.295 . S
C455 O460 1.235 . S
O456 Fe441 1.976 . S
O456 C450 1.287 . S
O457 Fe443 1.996 . S
O457 C450 1.255 . S
C458 O451 1.287 . S
C458 O452 1.255 . S
O459 Fe441 2.002 . S
O459 C455 1.295 . S
O460 Fe443 1.997 . S
O460 C455 1.235 . S
C461 O444 1.295 . S
C461 O445 1.235 . S
Fe462 O464 1.919 . S
Fe462 O467 1.997 . S
Fe462 O468 2.002 . S
Fe462 O473 1.976 1_554 S
Fe462 O476 1.996 1_554 S
Fe463 O464 1.919 . S
Fe463 O471 1.997 . S
Fe463 O474 1.996 1_554 S
Fe463 O478 1.976 1_554 S
Fe463 O481 2.002 . S
O464 Fe462 1.919 . S
O464 Fe463 1.919 . S
O464 Fe465 1.919 . S
Fe465 O464 1.919 . S
Fe465 O466 2.002 . S
Fe465 O475 1.976 1_554 S
Fe465 O479 1.996 1_554 S
Fe465 O482 1.997 . S
O466 Fe465 2.002 . S
O466 C483 1.295 . S
O467 Fe462 1.997 . S
O467 C483 1.235 . S
O468 Fe462 2.002 . S
O468 C469 1.295 . S
C469 O468 1.295 . S
C469 O471 1.235 . S
C470 O475 1.287 . S
C470 O476 1.255 . S
O471 Fe463 1.997 . S
O471 C469 1.235 . S
C472 O478 1.287 . S
C472 O479 1.255 . S
O473 Fe462 1.976 1_556 S
O473 C480 1.287 . S
O474 Fe463 1.996 1_556 S
O474 C480 1.255 . S
O475 Fe465 1.976 1_556 S
O475 C470 1.287 . S
O476 Fe462 1.996 1_556 S
O476 C470 1.255 . S
C477 O481 1.295 . S
C477 O482 1.235 . S
O478 Fe463 1.976 1_556 S
O478 C472 1.287 . S
O479 Fe465 1.996 1_556 S
O479 C472 1.255 . S
C480 O473 1.287 . S
C480 O474 1.255 . S
O481 Fe463 2.002 . S
O481 C477 1.295 . S
O482 Fe465 1.997 . S
O482 C477 1.235 . S
C483 O466 1.295 . S
C483 O467 1.235 . S
Fe484 O486 1.918 . S
Fe484 O489 1.997 . S
Fe484 O490 2.002 . S
Fe484 O495 1.976 . S
Fe484 O498 1.996 . S
Fe485 O486 1.918 . S
Fe485 O493 1.997 . S
Fe485 O496 1.996 . S
Fe485 O500 1.976 . S
Fe485 O503 2.002 . S
O486 Fe484 1.918 . S
O486 Fe485 1.918 . S
O486 Fe487 1.918 . S
Fe487 O486 1.918 . S
Fe487 O488 2.002 . S
Fe487 O497 1.976 . S
Fe487 O501 1.996 . S
Fe487 O504 1.997 . S
O488 Fe487 2.002 . S
O488 C505 1.295 . S
O489 Fe484 1.997 . S
O489 C505 1.235 . S
O490 Fe484 2.002 . S
O490 C491 1.295 . S
C491 O490 1.295 . S
C491 O493 1.235 . S
C492 O497 1.287 . S
C492 O498 1.255 . S
O493 Fe485 1.997 . S
O493 C491 1.235 . S
C494 O500 1.287 . S
C494 O501 1.255 . S
O495 Fe484 1.976 . S
O495 C502 1.287 . S
O496 Fe485 1.996 . S
O496 C502 1.255 . S
O497 Fe487 1.976 . S
O497 C492 1.287 . S
O498 Fe484 1.996 . S
O498 C492 1.255 . S
C499 O503 1.295 . S
C499 O504 1.235 . S
O500 Fe485 1.976 . S
O500 C494 1.287 . S
O501 Fe487 1.996 . S
O501 C494 1.255 . S
C502 O495 1.287 . S
C502 O496 1.255 . S
O503 Fe485 2.002 . S
O503 C499 1.295 . S
O504 Fe487 1.997 . S
O504 C499 1.235 . S
C505 O488 1.295 . S
C505 O489 1.235 . S
Fe506 O508 1.918 . S
Fe506 O511 1.997 . S
Fe506 O512 2.002 . S
Fe506 O517 1.976 . S
Fe506 O520 1.996 . S
Fe507 O508 1.918 . S
Fe507 O515 1.997 . S
Fe507 O518 1.996 . S
Fe507 O522 1.976 . S
Fe507 O525 2.002 . S
O508 Fe506 1.918 . S
O508 Fe507 1.918 . S
O508 Fe509 1.918 . S
Fe509 O508 1.918 . S
Fe509 O510 2.002 . S
Fe509 O519 1.976 . S
Fe509 O523 1.996 . S
Fe509 O526 1.997 . S
O510 Fe509 2.002 . S
O510 C527 1.295 . S
O511 Fe506 1.997 . S
O511 C527 1.235 . S
O512 Fe506 2.002 . S
O512 C513 1.295 . S
C513 O512 1.295 . S
C513 O515 1.235 . S
C514 O519 1.287 . S
C514 O520 1.255 . S
O515 Fe507 1.997 . S
O515 C513 1.235 . S
C516 O522 1.287 . S
C516 O523 1.255 . S
O517 Fe506 1.976 . S
O517 C524 1.287 . S
O518 Fe507 1.996 . S
O518 C524 1.255 . S
O519 Fe509 1.976 . S
O519 C514 1.287 . S
O520 Fe506 1.996 . S
O520 C514 1.255 . S
C521 O525 1.295 . S
C521 O526 1.235 . S
O522 Fe507 1.976 . S
O522 C516 1.287 . S
O523 Fe509 1.996 . S
O523 C516 1.255 . S
C524 O517 1.287 . S
C524 O518 1.255 . S
O525 Fe507 2.002 . S
O525 C521 1.295 . S
O526 Fe509 1.997 . S
O526 C521 1.235 . S
C527 O510 1.295 . S
C527 O511 1.235 . S
H528 C540 0.930 . S
H529 C542 0.930 . S
H530 C543 0.930 . S
H531 C547 0.959 . S
H532 C547 0.959 . S
H533 C547 0.961 . S
H534 C548 0.960 . S
H535 C548 0.961 . S
H536 C548 0.959 . S
H537 C551 0.929 . S
H538 C552 0.931 . S
H539 C554 0.930 . S
C540 H528 0.930 . S
C540 C541 1.399 . S
C540 C545 1.399 . S
C541 C540 1.399 . S
C541 C542 1.376 . S
C542 H529 0.930 . S
C542 C541 1.376 . S
C542 C543 1.388 . S
C543 H530 0.930 . S
C543 C542 1.388 . S
C543 C544 1.390 . S
C544 C543 1.390 . S
C544 C545 1.394 . S
C544 C550 1.465 . S
C545 C540 1.399 . S
C545 C544 1.394 . S
C545 C546 1.516 . S
C546 C545 1.516 . S
C546 C547 1.502 . S
C546 C548 1.561 . S
C546 C549 1.526 . S
C547 H531 0.959 . S
C547 H532 0.959 . S
C547 H533 0.961 . S
C547 C546 1.502 . S
C548 H534 0.960 . S
C548 H535 0.961 . S
C548 H536 0.959 . S
C548 C546 1.561 . S
C549 C546 1.526 . S
C549 C550 1.396 . S
C549 C554 1.390 . S
C550 C544 1.465 . S
C550 C549 1.396 . S
C550 C551 1.399 . S
C551 H537 0.929 . S
C551 C550 1.399 . S
C551 C552 1.385 . S
C552 H538 0.931 . S
C552 C551 1.385 . S
C552 C553 1.389 . S
C553 C552 1.389 . S
C553 C554 1.387 . S
C554 H539 0.930 . S
C554 C549 1.390 . S
C554 C553 1.387 . S
H555 C567 0.930 . S
H556 C569 0.930 . S
H557 C570 0.930 . S
H558 C574 0.959 . S
H559 C574 0.959 . S
H560 C574 0.961 . S
H561 C575 0.960 . S
H562 C575 0.961 . S
H563 C575 0.959 . S
H564 C578 0.929 . S
H565 C579 0.931 . S
H566 C581 0.930 . S
C567 H555 0.930 . S
C567 C568 1.399 . S
C567 C572 1.399 . S
C568 C567 1.399 . S
C568 C569 1.376 . S
C569 H556 0.930 . S
C569 C568 1.376 . S
C569 C570 1.388 . S
C570 H557 0.930 . S
C570 C569 1.388 . S
C570 C571 1.390 . S
C571 C570 1.390 . S
C571 C572 1.394 . S
C571 C577 1.465 . S
C572 C567 1.399 . S
C572 C571 1.394 . S
C572 C573 1.516 . S
C573 C572 1.516 . S
C573 C574 1.502 . S
C573 C575 1.561 . S
C573 C576 1.526 . S
C574 H558 0.959 . S
C574 H559 0.959 . S
C574 H560 0.961 . S
C574 C573 1.502 . S
C575 H561 0.960 . S
C575 H562 0.961 . S
C575 H563 0.959 . S
C575 C573 1.561 . S
C576 C573 1.526 . S
C576 C577 1.396 . S
C576 C581 1.390 . S
C577 C571 1.465 . S
C577 C576 1.396 . S
C577 C578 1.399 . S
C578 H564 0.929 . S
C578 C577 1.399 . S
C578 C579 1.385 . S
C579 H565 0.931 . S
C579 C578 1.385 . S
C579 C580 1.389 . S
C580 C579 1.389 . S
C580 C581 1.387 . S
C581 H566 0.930 . S
C581 C576 1.390 . S
C581 C580 1.387 . S
H582 C594 0.930 . S
H583 C596 0.930 . S
H584 C597 0.930 . S
H585 C601 0.959 . S
H586 C601 0.959 . S
H587 C601 0.961 . S
H588 C602 0.960 . S
H589 C602 0.961 . S
H590 C602 0.959 . S
H591 C605 0.929 . S
H592 C606 0.931 . S
H593 C608 0.930 . S
C594 H582 0.930 . S
C594 C595 1.399 . S
C594 C599 1.399 . S
C595 C594 1.399 . S
C595 C596 1.376 . S
C596 H583 0.930 . S
C596 C595 1.376 . S
C596 C597 1.388 . S
C597 H584 0.930 . S
C597 C596 1.388 . S
C597 C598 1.390 . S
C598 C597 1.390 . S
C598 C599 1.394 . S
C598 C604 1.465 . S
C599 C594 1.399 . S
C599 C598 1.394 . S
C599 C600 1.516 . S
C600 C599 1.516 . S
C600 C601 1.502 . S
C600 C602 1.561 . S
C600 C603 1.526 . S
C601 H585 0.959 . S
C601 H586 0.959 . S
C601 H587 0.961 . S
C601 C600 1.502 . S
C602 H588 0.960 . S
C602 H589 0.961 . S
C602 H590 0.959 . S
C602 C600 1.561 . S
C603 C600 1.526 . S
C603 C604 1.396 . S
C603 C608 1.390 . S
C604 C598 1.465 . S
C604 C603 1.396 . S
C604 C605 1.399 . S
C605 H591 0.929 . S
C605 C604 1.399 . S
C605 C606 1.385 . S
C606 H592 0.931 . S
C606 C605 1.385 . S
C606 C607 1.389 . S
C607 C606 1.389 . S
C607 C608 1.387 . S
C608 H593 0.930 . S
C608 C603 1.390 . S
C608 C607 1.387 . S
H609 C621 0.930 . S
H610 C623 0.930 . S
H611 C624 0.930 . S
H612 C628 0.959 . S
H613 C628 0.959 . S
H614 C628 0.961 . S
H615 C629 0.960 . S
H616 C629 0.961 . S
H617 C629 0.959 . S
H618 C632 0.929 . S
H619 C633 0.931 . S
H620 C635 0.930 . S
C621 H609 0.930 . S
C621 C622 1.399 . S
C621 C626 1.399 . S
C622 C621 1.399 . S
C622 C623 1.376 . S
C623 H610 0.930 . S
C623 C622 1.376 . S
C623 C624 1.388 . S
C624 H611 0.930 . S
C624 C623 1.388 . S
C624 C625 1.390 . S
C625 C624 1.390 . S
C625 C626 1.394 . S
C625 C631 1.465 . S
C626 C621 1.399 . S
C626 C625 1.394 . S
C626 C627 1.516 . S
C627 C626 1.516 . S
C627 C628 1.502 . S
C627 C629 1.561 . S
C627 C630 1.526 . S
C628 H612 0.959 . S
C628 H613 0.959 . S
C628 H614 0.961 . S
C628 C627 1.502 . S
C629 H615 0.960 . S
C629 H616 0.961 . S
C629 H617 0.959 . S
C629 C627 1.561 . S
C630 C627 1.526 . S
C630 C631 1.396 . S
C630 C635 1.390 . S
C631 C625 1.465 . S
C631 C630 1.396 . S
C631 C632 1.399 . S
C632 H618 0.929 . S
C632 C631 1.399 . S
C632 C633 1.385 . S
C633 H619 0.931 . S
C633 C632 1.385 . S
C633 C634 1.389 . S
C634 C633 1.389 . S
C634 C635 1.387 . S
C635 H620 0.930 . S
C635 C630 1.390 . S
C635 C634 1.387 . S
H636 C648 0.930 . S
H637 C650 0.930 . S
H638 C651 0.930 . S
H639 C655 0.959 . S
H640 C655 0.959 . S
H641 C655 0.961 . S
H642 C656 0.960 . S
H643 C656 0.961 . S
H644 C656 0.959 . S
H645 C659 0.929 . S
H646 C660 0.931 . S
H647 C662 0.930 . S
C648 H636 0.930 . S
C648 C649 1.399 . S
C648 C653 1.399 . S
C649 C648 1.399 . S
C649 C650 1.376 . S
C650 H637 0.930 . S
C650 C649 1.376 . S
C650 C651 1.388 . S
C651 H638 0.930 . S
C651 C650 1.388 . S
C651 C652 1.390 . S
C652 C651 1.390 . S
C652 C653 1.394 . S
C652 C658 1.465 . S
C653 C648 1.399 . S
C653 C652 1.394 . S
C653 C654 1.516 . S
C654 C653 1.516 . S
C654 C655 1.502 . S
C654 C656 1.561 . S
C654 C657 1.526 . S
C655 H639 0.959 . S
C655 H640 0.959 . S
C655 H641 0.961 . S
C655 C654 1.502 . S
C656 H642 0.960 . S
C656 H643 0.961 . S
C656 H644 0.959 . S
C656 C654 1.561 . S
C657 C654 1.526 . S
C657 C658 1.396 . S
C657 C662 1.390 . S
C658 C652 1.465 . S
C658 C657 1.396 . S
C658 C659 1.399 . S
C659 H645 0.929 . S
C659 C658 1.399 . S
C659 C660 1.385 . S
C660 H646 0.931 . S
C660 C659 1.385 . S
C660 C661 1.389 . S
C661 C660 1.389 . S
C661 C662 1.387 . S
C662 H647 0.930 . S
C662 C657 1.390 . S
C662 C661 1.387 . S
H663 C675 0.930 . S
H664 C677 0.930 . S
H665 C678 0.930 . S
H666 C682 0.959 . S
H667 C682 0.959 . S
H668 C682 0.961 . S
H669 C683 0.960 . S
H670 C683 0.961 . S
H671 C683 0.959 . S
H672 C686 0.929 . S
H673 C687 0.931 . S
H674 C689 0.930 . S
C675 H663 0.930 . S
C675 C676 1.399 . S
C675 C680 1.399 . S
C676 C675 1.399 . S
C676 C677 1.376 . S
C677 H664 0.930 . S
C677 C676 1.376 . S
C677 C678 1.388 . S
C678 H665 0.930 . S
C678 C677 1.388 . S
C678 C679 1.390 . S
C679 C678 1.390 . S
C679 C680 1.394 . S
C679 C685 1.465 . S
C680 C675 1.399 . S
C680 C679 1.394 . S
C680 C681 1.516 . S
C681 C680 1.516 . S
C681 C682 1.502 . S
C681 C683 1.561 . S
C681 C684 1.526 . S
C682 H666 0.959 . S
C682 H667 0.959 . S
C682 H668 0.961 . S
C682 C681 1.502 . S
C683 H669 0.960 . S
C683 H670 0.961 . S
C683 H671 0.959 . S
C683 C681 1.561 . S
C684 C681 1.526 . S
C684 C685 1.396 . S
C684 C689 1.390 . S
C685 C679 1.465 . S
C685 C684 1.396 . S
C685 C686 1.399 . S
C686 H672 0.929 . S
C686 C685 1.399 . S
C686 C687 1.385 . S
C687 H673 0.931 . S
C687 C686 1.385 . S
C687 C688 1.389 . S
C688 C687 1.389 . S
C688 C689 1.387 . S
C689 H674 0.930 . S
C689 C684 1.390 . S
C689 C688 1.387 . S
H690 C702 0.930 . S
H691 C704 0.930 . S
H692 C705 0.930 . S
H693 C709 0.959 . S
H694 C709 0.959 . S
H695 C709 0.961 . S
H696 C710 0.960 . S
H697 C710 0.961 . S
H698 C710 0.959 . S
H699 C713 0.929 . S
H700 C714 0.931 . S
H701 C716 0.930 . S
C702 H690 0.930 . S
C702 C703 1.399 . S
C702 C707 1.399 . S
C703 C702 1.399 . S
C703 C704 1.376 . S
C704 H691 0.930 . S
C704 C703 1.376 . S
C704 C705 1.388 . S
C705 H692 0.930 . S
C705 C704 1.388 . S
C705 C706 1.390 . S
C706 C705 1.390 . S
C706 C707 1.394 . S
C706 C712 1.465 . S
C707 C702 1.399 . S
C707 C706 1.394 . S
C707 C708 1.516 . S
C708 C707 1.516 . S
C708 C709 1.502 . S
C708 C710 1.561 . S
C708 C711 1.526 . S
C709 H693 0.959 . S
C709 H694 0.959 . S
C709 H695 0.961 . S
C709 C708 1.502 . S
C710 H696 0.960 . S
C710 H697 0.961 . S
C710 H698 0.959 . S
C710 C708 1.561 . S
C711 C708 1.526 . S
C711 C712 1.396 . S
C711 C716 1.390 . S
C712 C706 1.465 . S
C712 C711 1.396 . S
C712 C713 1.399 . S
C713 H699 0.929 . S
C713 C712 1.399 . S
C713 C714 1.385 . S
C714 H700 0.931 . S
C714 C713 1.385 . S
C714 C715 1.389 . S
C715 C714 1.389 . S
C715 C716 1.387 . S
C716 H701 0.930 . S
C716 C711 1.390 . S
C716 C715 1.387 . S
H717 C729 0.930 . S
H718 C731 0.930 . S
H719 C732 0.930 . S
H720 C736 0.959 . S
H721 C736 0.959 . S
H722 C736 0.961 . S
H723 C737 0.960 . S
H724 C737 0.961 . S
H725 C737 0.959 . S
H726 C740 0.929 . S
H727 C741 0.931 . S
H728 C743 0.930 . S
C729 H717 0.930 . S
C729 C730 1.399 . S
C729 C734 1.399 . S
C730 C729 1.399 . S
C730 C731 1.376 . S
C731 H718 0.930 . S
C731 C730 1.376 . S
C731 C732 1.388 . S
C732 H719 0.930 . S
C732 C731 1.388 . S
C732 C733 1.390 . S
C733 C732 1.390 . S
C733 C734 1.394 . S
C733 C739 1.465 . S
C734 C729 1.399 . S
C734 C733 1.394 . S
C734 C735 1.516 . S
C735 C734 1.516 . S
C735 C736 1.502 . S
C735 C737 1.561 . S
C735 C738 1.526 . S
C736 H720 0.959 . S
C736 H721 0.959 . S
C736 H722 0.961 . S
C736 C735 1.502 . S
C737 H723 0.960 . S
C737 H724 0.961 . S
C737 H725 0.959 . S
C737 C735 1.561 . S
C738 C735 1.526 . S
C738 C739 1.396 . S
C738 C743 1.390 . S
C739 C733 1.465 . S
C739 C738 1.396 . S
C739 C740 1.399 . S
C740 H726 0.929 . S
C740 C739 1.399 . S
C740 C741 1.385 . S
C741 H727 0.931 . S
C741 C740 1.385 . S
C741 C742 1.389 . S
C742 C741 1.389 . S
C742 C743 1.387 . S
C743 H728 0.930 . S
C743 C738 1.390 . S
C743 C742 1.387 . S
H744 C756 0.930 . S
H745 C758 0.930 . S
H746 C759 0.930 . S
H747 C763 0.959 . S
H748 C763 0.959 . S
H749 C763 0.961 . S
H750 C764 0.960 . S
H751 C764 0.961 . S
H752 C764 0.959 . S
H753 C767 0.929 . S
H754 C768 0.931 . S
H755 C770 0.930 . S
C756 H744 0.930 . S
C756 C757 1.399 . S
C756 C761 1.399 . S
C757 C756 1.399 . S
C757 C758 1.376 . S
C758 H745 0.930 . S
C758 C757 1.376 . S
C758 C759 1.388 . S
C759 H746 0.930 . S
C759 C758 1.388 . S
C759 C760 1.390 . S
C760 C759 1.390 . S
C760 C761 1.394 . S
C760 C766 1.465 . S
C761 C756 1.399 . S
C761 C760 1.394 . S
C761 C762 1.516 . S
C762 C761 1.516 . S
C762 C763 1.502 . S
C762 C764 1.561 . S
C762 C765 1.526 . S
C763 H747 0.959 . S
C763 H748 0.959 . S
C763 H749 0.961 . S
C763 C762 1.502 . S
C764 H750 0.960 . S
C764 H751 0.961 . S
C764 H752 0.959 . S
C764 C762 1.561 . S
C765 C762 1.526 . S
C765 C766 1.396 . S
C765 C770 1.390 . S
C766 C760 1.465 . S
C766 C765 1.396 . S
C766 C767 1.399 . S
C767 H753 0.929 . S
C767 C766 1.399 . S
C767 C768 1.385 . S
C768 H754 0.931 . S
C768 C767 1.385 . S
C768 C769 1.389 . S
C769 C768 1.389 . S
C769 C770 1.387 . S
C770 H755 0.930 . S
C770 C765 1.390 . S
C770 C769 1.387 . S
H771 C783 0.930 . S
H772 C785 0.930 . S
H773 C786 0.930 . S
H774 C790 0.959 . S
H775 C790 0.959 . S
H776 C790 0.961 . S
H777 C791 0.960 . S
H778 C791 0.961 . S
H779 C791 0.959 . S
H780 C794 0.929 . S
H781 C795 0.931 . S
H782 C797 0.930 . S
C783 H771 0.930 . S
C783 C784 1.399 . S
C783 C788 1.399 . S
C784 C783 1.399 . S
C784 C785 1.376 . S
C785 H772 0.930 . S
C785 C784 1.376 . S
C785 C786 1.388 . S
C786 H773 0.930 . S
C786 C785 1.388 . S
C786 C787 1.390 . S
C787 C786 1.390 . S
C787 C788 1.394 . S
C787 C793 1.465 . S
C788 C783 1.399 . S
C788 C787 1.394 . S
C788 C789 1.516 . S
C789 C788 1.516 . S
C789 C790 1.502 . S
C789 C791 1.561 . S
C789 C792 1.526 . S
C790 H774 0.959 . S
C790 H775 0.959 . S
C790 H776 0.961 . S
C790 C789 1.502 . S
C791 H777 0.960 . S
C791 H778 0.961 . S
C791 H779 0.959 . S
C791 C789 1.561 . S
C792 C789 1.526 . S
C792 C793 1.396 . S
C792 C797 1.390 . S
C793 C787 1.465 . S
C793 C792 1.396 . S
C793 C794 1.399 . S
C794 H780 0.929 . S
C794 C793 1.399 . S
C794 C795 1.385 . S
C795 H781 0.931 . S
C795 C794 1.385 . S
C795 C796 1.389 . S
C796 C795 1.389 . S
C796 C797 1.387 . S
C797 H782 0.930 . S
C797 C792 1.390 . S
C797 C796 1.387 . S
H798 C810 0.930 . S
H799 C812 0.930 . S
H800 C813 0.930 . S
H801 C817 0.959 . S
H802 C817 0.959 . S
H803 C817 0.961 . S
H804 C818 0.960 . S
H805 C818 0.961 . S
H806 C818 0.959 . S
H807 C821 0.929 . S
H808 C822 0.931 . S
H809 C824 0.930 . S
C810 H798 0.930 . S
C810 C811 1.399 . S
C810 C815 1.399 . S
C811 C810 1.399 . S
C811 C812 1.376 . S
C812 H799 0.930 . S
C812 C811 1.376 . S
C812 C813 1.388 . S
C813 H800 0.930 . S
C813 C812 1.388 . S
C813 C814 1.390 . S
C814 C813 1.390 . S
C814 C815 1.394 . S
C814 C820 1.465 . S
C815 C810 1.399 . S
C815 C814 1.394 . S
C815 C816 1.516 . S
C816 C815 1.516 . S
C816 C817 1.502 . S
C816 C818 1.561 . S
C816 C819 1.526 . S
C817 H801 0.959 . S
C817 H802 0.959 . S
C817 H803 0.961 . S
C817 C816 1.502 . S
C818 H804 0.960 . S
C818 H805 0.961 . S
C818 H806 0.959 . S
C818 C816 1.561 . S
C819 C816 1.526 . S
C819 C820 1.396 . S
C819 C824 1.390 . S
C820 C814 1.465 . S
C820 C819 1.396 . S
C820 C821 1.399 . S
C821 H807 0.929 . S
C821 C820 1.399 . S
C821 C822 1.385 . S
C822 H808 0.931 . S
C822 C821 1.385 . S
C822 C823 1.389 . S
C823 C822 1.389 . S
C823 C824 1.387 . S
C824 H809 0.930 . S
C824 C819 1.390 . S
C824 C823 1.387 . S
H825 C837 0.930 . S
H826 C839 0.930 . S
H827 C840 0.930 . S
H828 C844 0.959 . S
H829 C844 0.959 . S
H830 C844 0.961 . S
H831 C845 0.960 . S
H832 C845 0.961 . S
H833 C845 0.959 . S
H834 C848 0.929 . S
H835 C849 0.931 . S
H836 C851 0.930 . S
C837 H825 0.930 . S
C837 C838 1.399 . S
C837 C842 1.399 . S
C838 C837 1.399 . S
C838 C839 1.376 . S
C839 H826 0.930 . S
C839 C838 1.376 . S
C839 C840 1.388 . S
C840 H827 0.930 . S
C840 C839 1.388 . S
C840 C841 1.390 . S
C841 C840 1.390 . S
C841 C842 1.394 . S
C841 C847 1.465 . S
C842 C837 1.399 . S
C842 C841 1.394 . S
C842 C843 1.516 . S
C843 C842 1.516 . S
C843 C844 1.502 . S
C843 C845 1.561 . S
C843 C846 1.526 . S
C844 H828 0.959 . S
C844 H829 0.959 . S
C844 H830 0.961 . S
C844 C843 1.502 . S
C845 H831 0.960 . S
C845 H832 0.961 . S
C845 H833 0.959 . S
C845 C843 1.561 . S
C846 C843 1.526 . S
C846 C847 1.396 . S
C846 C851 1.390 . S
C847 C841 1.465 . S
C847 C846 1.396 . S
C847 C848 1.399 . S
C848 H834 0.929 . S
C848 C847 1.399 . S
C848 C849 1.385 . S
C849 H835 0.931 . S
C849 C848 1.385 . S
C849 C850 1.389 . S
C850 C849 1.389 . S
C850 C851 1.387 . S
C851 H836 0.930 . S
C851 C846 1.390 . S
C851 C850 1.387 . S
H852 C864 0.930 . S
H853 C866 0.930 . S
H854 C867 0.930 . S
H855 C871 0.959 . S
H856 C871 0.959 . S
H857 C871 0.961 . S
H858 C872 0.960 . S
H859 C872 0.961 . S
H860 C872 0.959 . S
H861 C875 0.929 . S
H862 C876 0.931 . S
H863 C878 0.930 . S
C864 H852 0.930 . S
C864 C865 1.399 . S
C864 C869 1.399 . S
C865 C864 1.399 . S
C865 C866 1.376 . S
C866 H853 0.930 . S
C866 C865 1.376 . S
C866 C867 1.388 . S
C867 H854 0.930 . S
C867 C866 1.388 . S
C867 C868 1.390 . S
C868 C867 1.390 . S
C868 C869 1.394 . S
C868 C874 1.465 . S
C869 C864 1.399 . S
C869 C868 1.394 . S
C869 C870 1.516 . S
C870 C869 1.516 . S
C870 C871 1.502 . S
C870 C872 1.561 . S
C870 C873 1.526 . S
C871 H855 0.959 . S
C871 H856 0.959 . S
C871 H857 0.961 . S
C871 C870 1.502 . S
C872 H858 0.960 . S
C872 H859 0.961 . S
C872 H860 0.959 . S
C872 C870 1.561 . S
C873 C870 1.526 . S
C873 C874 1.396 . S
C873 C878 1.390 . S
C874 C868 1.465 . S
C874 C873 1.396 . S
C874 C875 1.399 . S
C875 H861 0.929 . S
C875 C874 1.399 . S
C875 C876 1.385 . S
C876 H862 0.931 . S
C876 C875 1.385 . S
C876 C877 1.389 . S
C877 C876 1.389 . S
C877 C878 1.387 . S
C878 H863 0.930 . S
C878 C873 1.390 . S
C878 C877 1.387 . S
H879 C891 0.930 . S
H880 C893 0.930 . S
H881 C894 0.930 . S
H882 C898 0.959 . S
H883 C898 0.959 . S
H884 C898 0.961 . S
H885 C899 0.960 . S
H886 C899 0.961 . S
H887 C899 0.959 . S
H888 C902 0.929 . S
H889 C903 0.931 . S
H890 C905 0.930 . S
C891 H879 0.930 . S
C891 C892 1.399 . S
C891 C896 1.399 . S
C892 C891 1.399 . S
C892 C893 1.376 . S
C893 H880 0.930 . S
C893 C892 1.376 . S
C893 C894 1.388 . S
C894 H881 0.930 . S
C894 C893 1.388 . S
C894 C895 1.390 . S
C895 C894 1.390 . S
C895 C896 1.394 . S
C895 C901 1.465 . S
C896 C891 1.399 . S
C896 C895 1.394 . S
C896 C897 1.516 . S
C897 C896 1.516 . S
C897 C898 1.502 . S
C897 C899 1.561 . S
C897 C900 1.526 . S
C898 H882 0.959 . S
C898 H883 0.959 . S
C898 H884 0.961 . S
C898 C897 1.502 . S
C899 H885 0.960 . S
C899 H886 0.961 . S
C899 H887 0.959 . S
C899 C897 1.561 . S
C900 C897 1.526 . S
C900 C901 1.396 . S
C900 C905 1.390 . S
C901 C895 1.465 . S
C901 C900 1.396 . S
C901 C902 1.399 . S
C902 H888 0.929 . S
C902 C901 1.399 . S
C902 C903 1.385 . S
C903 H889 0.931 . S
C903 C902 1.385 . S
C903 C904 1.389 . S
C904 C903 1.389 . S
C904 C905 1.387 . S
C905 H890 0.930 . S
C905 C900 1.390 . S
C905 C904 1.387 . S
H906 C918 0.930 . S
H907 C920 0.930 . S
H908 C921 0.930 . S
H909 C925 0.959 . S
H910 C925 0.959 . S
H911 C925 0.961 . S
H912 C926 0.960 . S
H913 C926 0.961 . S
H914 C926 0.959 . S
H915 C929 0.929 . S
H916 C930 0.931 . S
H917 C932 0.930 . S
C918 H906 0.930 . S
C918 C919 1.399 . S
C918 C923 1.399 . S
C919 C918 1.399 . S
C919 C920 1.376 . S
C920 H907 0.930 . S
C920 C919 1.376 . S
C920 C921 1.388 . S
C921 H908 0.930 . S
C921 C920 1.388 . S
C921 C922 1.390 . S
C922 C921 1.390 . S
C922 C923 1.394 . S
C922 C928 1.465 . S
C923 C918 1.399 . S
C923 C922 1.394 . S
C923 C924 1.516 . S
C924 C923 1.516 . S
C924 C925 1.502 . S
C924 C926 1.561 . S
C924 C927 1.526 . S
C925 H909 0.959 . S
C925 H910 0.959 . S
C925 H911 0.961 . S
C925 C924 1.502 . S
C926 H912 0.960 . S
C926 H913 0.961 . S
C926 H914 0.959 . S
C926 C924 1.561 . S
C927 C924 1.526 . S
C927 C928 1.396 . S
C927 C932 1.390 . S
C928 C922 1.465 . S
C928 C927 1.396 . S
C928 C929 1.399 . S
C929 H915 0.929 . S
C929 C928 1.399 . S
C929 C930 1.385 . S
C930 H916 0.931 . S
C930 C929 1.385 . S
C930 C931 1.389 . S
C931 C930 1.389 . S
C931 C932 1.387 . S
C932 H917 0.930 . S
C932 C927 1.390 . S
C932 C931 1.387 . S
H933 C945 0.930 . S
H934 C947 0.930 . S
H935 C948 0.930 . S
H936 C952 0.959 . S
H937 C952 0.959 . S
H938 C952 0.961 . S
H939 C953 0.960 . S
H940 C953 0.961 . S
H941 C953 0.959 . S
H942 C956 0.929 . S
H943 C957 0.931 . S
H944 C959 0.930 . S
C945 H933 0.930 . S
C945 C946 1.399 . S
C945 C950 1.399 . S
C946 C945 1.399 . S
C946 C947 1.376 . S
C947 H934 0.930 . S
C947 C946 1.376 . S
C947 C948 1.388 . S
C948 H935 0.930 . S
C948 C947 1.388 . S
C948 C949 1.390 . S
C949 C948 1.390 . S
C949 C950 1.394 . S
C949 C955 1.465 . S
C950 C945 1.399 . S
C950 C949 1.394 . S
C950 C951 1.516 . S
C951 C950 1.516 . S
C951 C952 1.502 . S
C951 C953 1.561 . S
C951 C954 1.526 . S
C952 H936 0.959 . S
C952 H937 0.959 . S
C952 H938 0.961 . S
C952 C951 1.502 . S
C953 H939 0.960 . S
C953 H940 0.961 . S
C953 H941 0.959 . S
C953 C951 1.561 . S
C954 C951 1.526 . S
C954 C955 1.396 . S
C954 C959 1.390 . S
C955 C949 1.465 . S
C955 C954 1.396 . S
C955 C956 1.399 . S
C956 H942 0.929 . S
C956 C955 1.399 . S
C956 C957 1.385 . S
C957 H943 0.931 . S
C957 C956 1.385 . S
C957 C958 1.389 . S
C958 C957 1.389 . S
C958 C959 1.387 . S
C959 H944 0.930 . S
C959 C954 1.390 . S
C959 C958 1.387 . S
H960 C972 0.930 . S
H961 C974 0.930 . S
H962 C975 0.930 . S
H963 C979 0.959 . S
H964 C979 0.959 . S
H965 C979 0.961 . S
H966 C980 0.960 . S
H967 C980 0.961 . S
H968 C980 0.959 . S
H969 C983 0.929 . S
H970 C984 0.931 . S
H971 C986 0.930 . S
C972 H960 0.930 . S
C972 C973 1.399 . S
C972 C977 1.399 . S
C973 C972 1.399 . S
C973 C974 1.376 . S
C974 H961 0.930 . S
C974 C973 1.376 . S
C974 C975 1.388 . S
C975 H962 0.930 . S
C975 C974 1.388 . S
C975 C976 1.390 . S
C976 C975 1.390 . S
C976 C977 1.394 . S
C976 C982 1.465 . S
C977 C972 1.399 . S
C977 C976 1.394 . S
C977 C978 1.516 . S
C978 C977 1.516 . S
C978 C979 1.502 . S
C978 C980 1.561 . S
C978 C981 1.526 . S
C979 H963 0.959 . S
C979 H964 0.959 . S
C979 H965 0.961 . S
C979 C978 1.502 . S
C980 H966 0.960 . S
C980 H967 0.961 . S
C980 H968 0.959 . S
C980 C978 1.561 . S
C981 C978 1.526 . S
C981 C982 1.396 . S
C981 C986 1.390 . S
C982 C976 1.465 . S
C982 C981 1.396 . S
C982 C983 1.399 . S
C983 H969 0.929 . S
C983 C982 1.399 . S
C983 C984 1.385 . S
C984 H970 0.931 . S
C984 C983 1.385 . S
C984 C985 1.389 . S
C985 C984 1.389 . S
C985 C986 1.387 . S
C986 H971 0.930 . S
C986 C981 1.390 . S
C986 C985 1.387 . S
H987 C999 0.930 . S
H988 C1001 0.930 . S
H989 C1002 0.930 . S
H990 C1006 0.959 . S
H991 C1006 0.959 . S
H992 C1006 0.961 . S
H993 C1007 0.960 . S
H994 C1007 0.961 . S
H995 C1007 0.959 . S
H996 C1010 0.929 . S
H997 C1011 0.931 . S
H998 C1013 0.930 . S
C999 H987 0.930 . S
C999 C1000 1.399 . S
C999 C1004 1.399 . S
C1000 C999 1.399 . S
C1000 C1001 1.376 . S
C1001 H988 0.930 . S
C1001 C1000 1.376 . S
C1001 C1002 1.388 . S
C1002 H989 0.930 . S
C1002 C1001 1.388 . S
C1002 C1003 1.390 . S
C1003 C1002 1.390 . S
C1003 C1004 1.394 . S
C1003 C1009 1.465 . S
C1004 C999 1.399 . S
C1004 C1003 1.394 . S
C1004 C1005 1.516 . S
C1005 C1004 1.516 . S
C1005 C1006 1.502 . S
C1005 C1007 1.561 . S
C1005 C1008 1.526 . S
C1006 H990 0.959 . S
C1006 H991 0.959 . S
C1006 H992 0.961 . S
C1006 C1005 1.502 . S
C1007 H993 0.960 . S
C1007 H994 0.961 . S
C1007 H995 0.959 . S
C1007 C1005 1.561 . S
C1008 C1005 1.526 . S
C1008 C1009 1.396 . S
C1008 C1013 1.390 . S
C1009 C1003 1.465 . S
C1009 C1008 1.396 . S
C1009 C1010 1.399 . S
C1010 H996 0.929 . S
C1010 C1009 1.399 . S
C1010 C1011 1.385 . S
C1011 H997 0.931 . S
C1011 C1010 1.385 . S
C1011 C1012 1.389 . S
C1012 C1011 1.389 . S
C1012 C1013 1.387 . S
C1013 H998 0.930 . S
C1013 C1008 1.390 . S
C1013 C1012 1.387 . S
H1014 C1026 0.930 . S
H1015 C1028 0.930 . S
H1016 C1029 0.930 . S
H1017 C1033 0.959 . S
H1018 C1033 0.959 . S
H1019 C1033 0.961 . S
H1020 C1034 0.960 . S
H1021 C1034 0.961 . S
H1022 C1034 0.959 . S
H1023 C1037 0.929 . S
H1024 C1038 0.931 . S
H1025 C1040 0.930 . S
C1026 H1014 0.930 . S
C1026 C1027 1.399 . S
C1026 C1031 1.399 . S
C1027 C1026 1.399 . S
C1027 C1028 1.376 . S
C1028 H1015 0.930 . S
C1028 C1027 1.376 . S
C1028 C1029 1.388 . S
C1029 H1016 0.930 . S
C1029 C1028 1.388 . S
C1029 C1030 1.390 . S
C1030 C1029 1.390 . S
C1030 C1031 1.394 . S
C1030 C1036 1.465 . S
C1031 C1026 1.399 . S
C1031 C1030 1.394 . S
C1031 C1032 1.516 . S
C1032 C1031 1.516 . S
C1032 C1033 1.502 . S
C1032 C1034 1.561 . S
C1032 C1035 1.526 . S
C1033 H1017 0.959 . S
C1033 H1018 0.959 . S
C1033 H1019 0.961 . S
C1033 C1032 1.502 . S
C1034 H1020 0.960 . S
C1034 H1021 0.961 . S
C1034 H1022 0.959 . S
C1034 C1032 1.561 . S
C1035 C1032 1.526 . S
C1035 C1036 1.396 . S
C1035 C1040 1.390 . S
C1036 C1030 1.465 . S
C1036 C1035 1.396 . S
C1036 C1037 1.399 . S
C1037 H1023 0.929 . S
C1037 C1036 1.399 . S
C1037 C1038 1.385 . S
C1038 H1024 0.931 . S
C1038 C1037 1.385 . S
C1038 C1039 1.389 . S
C1039 C1038 1.389 . S
C1039 C1040 1.387 . S
C1040 H1025 0.930 . S
C1040 C1035 1.390 . S
C1040 C1039 1.387 . S
H1041 C1053 0.930 . S
H1042 C1055 0.930 . S
H1043 C1056 0.930 . S
H1044 C1060 0.959 . S
H1045 C1060 0.959 . S
H1046 C1060 0.961 . S
H1047 C1061 0.960 . S
H1048 C1061 0.961 . S
H1049 C1061 0.959 . S
H1050 C1064 0.929 . S
H1051 C1065 0.931 . S
H1052 C1067 0.930 . S
C1053 H1041 0.930 . S
C1053 C1054 1.399 . S
C1053 C1058 1.399 . S
C1054 C1053 1.399 . S
C1054 C1055 1.376 . S
C1055 H1042 0.930 . S
C1055 C1054 1.376 . S
C1055 C1056 1.388 . S
C1056 H1043 0.930 . S
C1056 C1055 1.388 . S
C1056 C1057 1.390 . S
C1057 C1056 1.390 . S
C1057 C1058 1.394 . S
C1057 C1063 1.465 . S
C1058 C1053 1.399 . S
C1058 C1057 1.394 . S
C1058 C1059 1.516 . S
C1059 C1058 1.516 . S
C1059 C1060 1.502 . S
C1059 C1061 1.561 . S
C1059 C1062 1.526 . S
C1060 H1044 0.959 . S
C1060 H1045 0.959 . S
C1060 H1046 0.961 . S
C1060 C1059 1.502 . S
C1061 H1047 0.960 . S
C1061 H1048 0.961 . S
C1061 H1049 0.959 . S
C1061 C1059 1.561 . S
C1062 C1059 1.526 . S
C1062 C1063 1.396 . S
C1062 C1067 1.390 . S
C1063 C1057 1.465 . S
C1063 C1062 1.396 . S
C1063 C1064 1.399 . S
C1064 H1050 0.929 . S
C1064 C1063 1.399 . S
C1064 C1065 1.385 . S
C1065 H1051 0.931 . S
C1065 C1064 1.385 . S
C1065 C1066 1.389 . S
C1066 C1065 1.389 . S
C1066 C1067 1.387 . S
C1067 H1052 0.930 . S
C1067 C1062 1.390 . S
C1067 C1066 1.387 . S
H1068 C1080 0.930 . S
H1069 C1082 0.930 . S
H1070 C1083 0.930 . S
H1071 C1087 0.959 . S
H1072 C1087 0.959 . S
H1073 C1087 0.961 . S
H1074 C1088 0.960 . S
H1075 C1088 0.961 . S
H1076 C1088 0.959 . S
H1077 C1091 0.929 . S
H1078 C1092 0.931 . S
H1079 C1094 0.930 . S
C1080 H1068 0.930 . S
C1080 C1081 1.399 . S
C1080 C1085 1.399 . S
C1081 C1080 1.399 . S
C1081 C1082 1.376 . S
C1082 H1069 0.930 . S
C1082 C1081 1.376 . S
C1082 C1083 1.388 . S
C1083 H1070 0.930 . S
C1083 C1082 1.388 . S
C1083 C1084 1.390 . S
C1084 C1083 1.390 . S
C1084 C1085 1.394 . S
C1084 C1090 1.465 . S
C1085 C1080 1.399 . S
C1085 C1084 1.394 . S
C1085 C1086 1.516 . S
C1086 C1085 1.516 . S
C1086 C1087 1.502 . S
C1086 C1088 1.561 . S
C1086 C1089 1.526 . S
C1087 H1071 0.959 . S
C1087 H1072 0.959 . S
C1087 H1073 0.961 . S
C1087 C1086 1.502 . S
C1088 H1074 0.960 . S
C1088 H1075 0.961 . S
C1088 H1076 0.959 . S
C1088 C1086 1.561 . S
C1089 C1086 1.526 . S
C1089 C1090 1.396 . S
C1089 C1094 1.390 . S
C1090 C1084 1.465 . S
C1090 C1089 1.396 . S
C1090 C1091 1.399 . S
C1091 H1077 0.929 . S
C1091 C1090 1.399 . S
C1091 C1092 1.385 . S
C1092 H1078 0.931 . S
C1092 C1091 1.385 . S
C1092 C1093 1.389 . S
C1093 C1092 1.389 . S
C1093 C1094 1.387 . S
C1094 H1079 0.930 . S
C1094 C1089 1.390 . S
C1094 C1093 1.387 . S
H1095 C1107 0.930 . S
H1096 C1109 0.930 . S
H1097 C1110 0.930 . S
H1098 C1114 0.959 . S
H1099 C1114 0.959 . S
H1100 C1114 0.961 . S
H1101 C1115 0.960 . S
H1102 C1115 0.961 . S
H1103 C1115 0.959 . S
H1104 C1118 0.929 . S
H1105 C1119 0.931 . S
H1106 C1121 0.930 . S
C1107 H1095 0.930 . S
C1107 C1108 1.399 . S
C1107 C1112 1.399 . S
C1108 C1107 1.399 . S
C1108 C1109 1.376 . S
C1109 H1096 0.930 . S
C1109 C1108 1.376 . S
C1109 C1110 1.388 . S
C1110 H1097 0.930 . S
C1110 C1109 1.388 . S
C1110 C1111 1.390 . S
C1111 C1110 1.390 . S
C1111 C1112 1.394 . S
C1111 C1117 1.465 . S
C1112 C1107 1.399 . S
C1112 C1111 1.394 . S
C1112 C1113 1.516 . S
C1113 C1112 1.516 . S
C1113 C1114 1.502 . S
C1113 C1115 1.561 . S
C1113 C1116 1.526 . S
C1114 H1098 0.959 . S
C1114 H1099 0.959 . S
C1114 H1100 0.961 . S
C1114 C1113 1.502 . S
C1115 H1101 0.960 . S
C1115 H1102 0.961 . S
C1115 H1103 0.959 . S
C1115 C1113 1.561 . S
C1116 C1113 1.526 . S
C1116 C1117 1.396 . S
C1116 C1121 1.390 . S
C1117 C1111 1.465 . S
C1117 C1116 1.396 . S
C1117 C1118 1.399 . S
C1118 H1104 0.929 . S
C1118 C1117 1.399 . S
C1118 C1119 1.385 . S
C1119 H1105 0.931 . S
C1119 C1118 1.385 . S
C1119 C1120 1.389 . S
C1120 C1119 1.389 . S
C1120 C1121 1.387 . S
C1121 H1106 0.930 . S
C1121 C1116 1.390 . S
C1121 C1120 1.387 . S
H1122 C1134 0.930 . S
H1123 C1136 0.930 . S
H1124 C1137 0.930 . S
H1125 C1141 0.959 . S
H1126 C1141 0.959 . S
H1127 C1141 0.961 . S
H1128 C1142 0.960 . S
H1129 C1142 0.961 . S
H1130 C1142 0.959 . S
H1131 C1145 0.929 . S
H1132 C1146 0.931 . S
H1133 C1148 0.930 . S
C1134 H1122 0.930 . S
C1134 C1135 1.399 . S
C1134 C1139 1.399 . S
C1135 C1134 1.399 . S
C1135 C1136 1.376 . S
C1136 H1123 0.930 . S
C1136 C1135 1.376 . S
C1136 C1137 1.388 . S
C1137 H1124 0.930 . S
C1137 C1136 1.388 . S
C1137 C1138 1.390 . S
C1138 C1137 1.390 . S
C1138 C1139 1.394 . S
C1138 C1144 1.465 . S
C1139 C1134 1.399 . S
C1139 C1138 1.394 . S
C1139 C1140 1.516 . S
C1140 C1139 1.516 . S
C1140 C1141 1.502 . S
C1140 C1142 1.561 . S
C1140 C1143 1.526 . S
C1141 H1125 0.959 . S
C1141 H1126 0.959 . S
C1141 H1127 0.961 . S
C1141 C1140 1.502 . S
C1142 H1128 0.960 . S
C1142 H1129 0.961 . S
C1142 H1130 0.959 . S
C1142 C1140 1.561 . S
C1143 C1140 1.526 . S
C1143 C1144 1.396 . S
C1143 C1148 1.390 . S
C1144 C1138 1.465 . S
C1144 C1143 1.396 . S
C1144 C1145 1.399 . S
C1145 H1131 0.929 . S
C1145 C1144 1.399 . S
C1145 C1146 1.385 . S
C1146 H1132 0.931 . S
C1146 C1145 1.385 . S
C1146 C1147 1.389 . S
C1147 C1146 1.389 . S
C1147 C1148 1.387 . S
C1148 H1133 0.930 . S
C1148 C1143 1.390 . S
C1148 C1147 1.387 . S
H1149 C1161 0.930 . S
H1150 C1163 0.930 . S
H1151 C1164 0.930 . S
H1152 C1168 0.959 . S
H1153 C1168 0.959 . S
H1154 C1168 0.961 . S
H1155 C1169 0.960 . S
H1156 C1169 0.961 . S
H1157 C1169 0.959 . S
H1158 C1172 0.929 . S
H1159 C1173 0.931 . S
H1160 C1175 0.930 . S
C1161 H1149 0.930 . S
C1161 C1162 1.399 . S
C1161 C1166 1.399 . S
C1162 C1161 1.399 . S
C1162 C1163 1.376 . S
C1163 H1150 0.930 . S
C1163 C1162 1.376 . S
C1163 C1164 1.388 . S
C1164 H1151 0.930 . S
C1164 C1163 1.388 . S
C1164 C1165 1.390 . S
C1165 C1164 1.390 . S
C1165 C1166 1.394 . S
C1165 C1171 1.465 . S
C1166 C1161 1.399 . S
C1166 C1165 1.394 . S
C1166 C1167 1.516 . S
C1167 C1166 1.516 . S
C1167 C1168 1.502 . S
C1167 C1169 1.561 . S
C1167 C1170 1.526 . S
C1168 H1152 0.959 . S
C1168 H1153 0.959 . S
C1168 H1154 0.961 . S
C1168 C1167 1.502 . S
C1169 H1155 0.960 . S
C1169 H1156 0.961 . S
C1169 H1157 0.959 . S
C1169 C1167 1.561 . S
C1170 C1167 1.526 . S
C1170 C1171 1.396 . S
C1170 C1175 1.390 . S
C1171 C1165 1.465 . S
C1171 C1170 1.396 . S
C1171 C1172 1.399 . S
C1172 H1158 0.929 . S
C1172 C1171 1.399 . S
C1172 C1173 1.385 . S
C1173 H1159 0.931 . S
C1173 C1172 1.385 . S
C1173 C1174 1.389 . S
C1174 C1173 1.389 . S
C1174 C1175 1.387 . S
C1175 H1160 0.930 . S
C1175 C1170 1.390 . S
C1175 C1174 1.387 . S
H1176 C1188 0.930 . S
H1177 C1190 0.930 . S
H1178 C1191 0.930 . S
H1179 C1195 0.959 . S
H1180 C1195 0.959 . S
H1181 C1195 0.961 . S
H1182 C1196 0.960 . S
H1183 C1196 0.961 . S
H1184 C1196 0.959 . S
H1185 C1199 0.929 . S
H1186 C1200 0.931 . S
H1187 C1202 0.930 . S
C1188 H1176 0.930 . S
C1188 C1189 1.399 . S
C1188 C1193 1.399 . S
C1189 C1188 1.399 . S
C1189 C1190 1.376 . S
C1190 H1177 0.930 . S
C1190 C1189 1.376 . S
C1190 C1191 1.388 . S
C1191 H1178 0.930 . S
C1191 C1190 1.388 . S
C1191 C1192 1.390 . S
C1192 C1191 1.390 . S
C1192 C1193 1.394 . S
C1192 C1198 1.465 . S
C1193 C1188 1.399 . S
C1193 C1192 1.394 . S
C1193 C1194 1.516 . S
C1194 C1193 1.516 . S
C1194 C1195 1.502 . S
C1194 C1196 1.561 . S
C1194 C1197 1.526 . S
C1195 H1179 0.959 . S
C1195 H1180 0.959 . S
C1195 H1181 0.961 . S
C1195 C1194 1.502 . S
C1196 H1182 0.960 . S
C1196 H1183 0.961 . S
C1196 H1184 0.959 . S
C1196 C1194 1.561 . S
C1197 C1194 1.526 . S
C1197 C1198 1.396 . S
C1197 C1202 1.390 . S
C1198 C1192 1.465 . S
C1198 C1197 1.396 . S
C1198 C1199 1.399 . S
C1199 H1185 0.929 . S
C1199 C1198 1.399 . S
C1199 C1200 1.385 . S
C1200 H1186 0.931 . S
C1200 C1199 1.385 . S
C1200 C1201 1.389 . S
C1201 C1200 1.389 . S
C1201 C1202 1.387 . S
C1202 H1187 0.930 . S
C1202 C1197 1.390 . S
C1202 C1201 1.387 . S
H1203 C1215 0.930 . S
H1204 C1217 0.930 . S
H1205 C1218 0.930 . S
H1206 C1222 0.959 . S
H1207 C1222 0.959 . S
H1208 C1222 0.961 . S
H1209 C1223 0.960 . S
H1210 C1223 0.961 . S
H1211 C1223 0.959 . S
H1212 C1226 0.929 . S
H1213 C1227 0.931 . S
H1214 C1229 0.930 . S
C1215 H1203 0.930 . S
C1215 C1216 1.399 . S
C1215 C1220 1.399 . S
C1216 C1215 1.399 . S
C1216 C1217 1.376 . S
C1217 H1204 0.930 . S
C1217 C1216 1.376 . S
C1217 C1218 1.388 . S
C1218 H1205 0.930 . S
C1218 C1217 1.388 . S
C1218 C1219 1.390 . S
C1219 C1218 1.390 . S
C1219 C1220 1.394 . S
C1219 C1225 1.465 . S
C1220 C1215 1.399 . S
C1220 C1219 1.394 . S
C1220 C1221 1.516 . S
C1221 C1220 1.516 . S
C1221 C1222 1.502 . S
C1221 C1223 1.561 . S
C1221 C1224 1.526 . S
C1222 H1206 0.959 . S
C1222 H1207 0.959 . S
C1222 H1208 0.961 . S
C1222 C1221 1.502 . S
C1223 H1209 0.960 . S
C1223 H1210 0.961 . S
C1223 H1211 0.959 . S
C1223 C1221 1.561 . S
C1224 C1221 1.526 . S
C1224 C1225 1.396 . S
C1224 C1229 1.390 . S
C1225 C1219 1.465 . S
C1225 C1224 1.396 . S
C1225 C1226 1.399 . S
C1226 H1212 0.929 . S
C1226 C1225 1.399 . S
C1226 C1227 1.385 . S
C1227 H1213 0.931 . S
C1227 C1226 1.385 . S
C1227 C1228 1.389 . S
C1228 C1227 1.389 . S
C1228 C1229 1.387 . S
C1229 H1214 0.930 . S
C1229 C1224 1.390 . S
C1229 C1228 1.387 . S
H1230 C1242 0.930 . S
H1231 C1244 0.930 . S
H1232 C1245 0.930 . S
H1233 C1249 0.959 . S
H1234 C1249 0.959 . S
H1235 C1249 0.961 . S
H1236 C1250 0.960 . S
H1237 C1250 0.961 . S
H1238 C1250 0.959 . S
H1239 C1253 0.929 . S
H1240 C1254 0.931 . S
H1241 C1256 0.930 . S
C1242 H1230 0.930 . S
C1242 C1243 1.399 . S
C1242 C1247 1.399 . S
C1243 C1242 1.399 . S
C1243 C1244 1.376 . S
C1244 H1231 0.930 . S
C1244 C1243 1.376 . S
C1244 C1245 1.388 . S
C1245 H1232 0.930 . S
C1245 C1244 1.388 . S
C1245 C1246 1.390 . S
C1246 C1245 1.390 . S
C1246 C1247 1.394 . S
C1246 C1252 1.465 . S
C1247 C1242 1.399 . S
C1247 C1246 1.394 . S
C1247 C1248 1.516 . S
C1248 C1247 1.516 . S
C1248 C1249 1.502 . S
C1248 C1250 1.561 . S
C1248 C1251 1.526 . S
C1249 H1233 0.959 . S
C1249 H1234 0.959 . S
C1249 H1235 0.961 . S
C1249 C1248 1.502 . S
C1250 H1236 0.960 . S
C1250 H1237 0.961 . S
C1250 H1238 0.959 . S
C1250 C1248 1.561 . S
C1251 C1248 1.526 . S
C1251 C1252 1.396 . S
C1251 C1256 1.390 . S
C1252 C1246 1.465 . S
C1252 C1251 1.396 . S
C1252 C1253 1.399 . S
C1253 H1239 0.929 . S
C1253 C1252 1.399 . S
C1253 C1254 1.385 . S
C1254 H1240 0.931 . S
C1254 C1253 1.385 . S
C1254 C1255 1.389 . S
C1255 C1254 1.389 . S
C1255 C1256 1.387 . S
C1256 H1241 0.930 . S
C1256 C1251 1.390 . S
C1256 C1255 1.387 . S
H1257 C1269 0.930 . S
H1258 C1271 0.930 . S
H1259 C1272 0.930 . S
H1260 C1276 0.959 . S
H1261 C1276 0.959 . S
H1262 C1276 0.961 . S
H1263 C1277 0.960 . S
H1264 C1277 0.961 . S
H1265 C1277 0.959 . S
H1266 C1280 0.929 . S
H1267 C1281 0.931 . S
H1268 C1283 0.930 . S
C1269 H1257 0.930 . S
C1269 C1270 1.399 . S
C1269 C1274 1.399 . S
C1270 C1269 1.399 . S
C1270 C1271 1.376 . S
C1271 H1258 0.930 . S
C1271 C1270 1.376 . S
C1271 C1272 1.388 . S
C1272 H1259 0.930 . S
C1272 C1271 1.388 . S
C1272 C1273 1.390 . S
C1273 C1272 1.390 . S
C1273 C1274 1.394 . S
C1273 C1279 1.465 . S
C1274 C1269 1.399 . S
C1274 C1273 1.394 . S
C1274 C1275 1.516 . S
C1275 C1274 1.516 . S
C1275 C1276 1.502 . S
C1275 C1277 1.561 . S
C1275 C1278 1.526 . S
C1276 H1260 0.959 . S
C1276 H1261 0.959 . S
C1276 H1262 0.961 . S
C1276 C1275 1.502 . S
C1277 H1263 0.960 . S
C1277 H1264 0.961 . S
C1277 H1265 0.959 . S
C1277 C1275 1.561 . S
C1278 C1275 1.526 . S
C1278 C1279 1.396 . S
C1278 C1283 1.390 . S
C1279 C1273 1.465 . S
C1279 C1278 1.396 . S
C1279 C1280 1.399 . S
C1280 H1266 0.929 . S
C1280 C1279 1.399 . S
C1280 C1281 1.385 . S
C1281 H1267 0.931 . S
C1281 C1280 1.385 . S
C1281 C1282 1.389 . S
C1282 C1281 1.389 . S
C1282 C1283 1.387 . S
C1283 H1268 0.930 . S
C1283 C1278 1.390 . S
C1283 C1282 1.387 . S
H1284 C1296 0.930 . S
H1285 C1298 0.930 . S
H1286 C1299 0.930 . S
H1287 C1303 0.959 . S
H1288 C1303 0.959 . S
H1289 C1303 0.961 . S
H1290 C1304 0.960 . S
H1291 C1304 0.961 . S
H1292 C1304 0.959 . S
H1293 C1307 0.929 . S
H1294 C1308 0.931 . S
H1295 C1310 0.930 . S
C1296 H1284 0.930 . S
C1296 C1297 1.399 . S
C1296 C1301 1.399 . S
C1297 C1296 1.399 . S
C1297 C1298 1.376 . S
C1298 H1285 0.930 . S
C1298 C1297 1.376 . S
C1298 C1299 1.388 . S
C1299 H1286 0.930 . S
C1299 C1298 1.388 . S
C1299 C1300 1.390 . S
C1300 C1299 1.390 . S
C1300 C1301 1.394 . S
C1300 C1306 1.465 . S
C1301 C1296 1.399 . S
C1301 C1300 1.394 . S
C1301 C1302 1.516 . S
C1302 C1301 1.516 . S
C1302 C1303 1.502 . S
C1302 C1304 1.561 . S
C1302 C1305 1.526 . S
C1303 H1287 0.959 . S
C1303 H1288 0.959 . S
C1303 H1289 0.961 . S
C1303 C1302 1.502 . S
C1304 H1290 0.960 . S
C1304 H1291 0.961 . S
C1304 H1292 0.959 . S
C1304 C1302 1.561 . S
C1305 C1302 1.526 . S
C1305 C1306 1.396 . S
C1305 C1310 1.390 . S
C1306 C1300 1.465 . S
C1306 C1305 1.396 . S
C1306 C1307 1.399 . S
C1307 H1293 0.929 . S
C1307 C1306 1.399 . S
C1307 C1308 1.385 . S
C1308 H1294 0.931 . S
C1308 C1307 1.385 . S
C1308 C1309 1.389 . S
C1309 C1308 1.389 . S
C1309 C1310 1.387 . S
C1310 H1295 0.930 . S
C1310 C1305 1.390 . S
C1310 C1309 1.387 . S
H1311 C1323 0.930 . S
H1312 C1325 0.930 . S
H1313 C1326 0.930 . S
H1314 C1330 0.959 . S
H1315 C1330 0.959 . S
H1316 C1330 0.961 . S
H1317 C1331 0.960 . S
H1318 C1331 0.961 . S
H1319 C1331 0.959 . S
H1320 C1334 0.929 . S
H1321 C1335 0.931 . S
H1322 C1337 0.930 . S
C1323 H1311 0.930 . S
C1323 C1324 1.399 . S
C1323 C1328 1.399 . S
C1324 C1323 1.399 . S
C1324 C1325 1.376 . S
C1325 H1312 0.930 . S
C1325 C1324 1.376 . S
C1325 C1326 1.388 . S
C1326 H1313 0.930 . S
C1326 C1325 1.388 . S
C1326 C1327 1.390 . S
C1327 C1326 1.390 . S
C1327 C1328 1.394 . S
C1327 C1333 1.465 . S
C1328 C1323 1.399 . S
C1328 C1327 1.394 . S
C1328 C1329 1.516 . S
C1329 C1328 1.516 . S
C1329 C1330 1.502 . S
C1329 C1331 1.561 . S
C1329 C1332 1.526 . S
C1330 H1314 0.959 . S
C1330 H1315 0.959 . S
C1330 H1316 0.961 . S
C1330 C1329 1.502 . S
C1331 H1317 0.960 . S
C1331 H1318 0.961 . S
C1331 H1319 0.959 . S
C1331 C1329 1.561 . S
C1332 C1329 1.526 . S
C1332 C1333 1.396 . S
C1332 C1337 1.390 . S
C1333 C1327 1.465 . S
C1333 C1332 1.396 . S
C1333 C1334 1.399 . S
C1334 H1320 0.929 . S
C1334 C1333 1.399 . S
C1334 C1335 1.385 . S
C1335 H1321 0.931 . S
C1335 C1334 1.385 . S
C1335 C1336 1.389 . S
C1336 C1335 1.389 . S
C1336 C1337 1.387 . S
C1337 H1322 0.930 . S
C1337 C1332 1.390 . S
C1337 C1336 1.387 . S
H1338 C1350 0.930 . S
H1339 C1352 0.930 . S
H1340 C1353 0.930 . S
H1341 C1357 0.959 . S
H1342 C1357 0.959 . S
H1343 C1357 0.961 . S
H1344 C1358 0.960 . S
H1345 C1358 0.961 . S
H1346 C1358 0.959 . S
H1347 C1361 0.929 . S
H1348 C1362 0.931 . S
H1349 C1364 0.930 . S
C1350 H1338 0.930 . S
C1350 C1351 1.399 . S
C1350 C1355 1.399 . S
C1351 C1350 1.399 . S
C1351 C1352 1.376 . S
C1352 H1339 0.930 . S
C1352 C1351 1.376 . S
C1352 C1353 1.388 . S
C1353 H1340 0.930 . S
C1353 C1352 1.388 . S
C1353 C1354 1.390 . S
C1354 C1353 1.390 . S
C1354 C1355 1.394 . S
C1354 C1360 1.465 . S
C1355 C1350 1.399 . S
C1355 C1354 1.394 . S
C1355 C1356 1.516 . S
C1356 C1355 1.516 . S
C1356 C1357 1.502 . S
C1356 C1358 1.561 . S
C1356 C1359 1.526 . S
C1357 H1341 0.959 . S
C1357 H1342 0.959 . S
C1357 H1343 0.961 . S
C1357 C1356 1.502 . S
C1358 H1344 0.960 . S
C1358 H1345 0.961 . S
C1358 H1346 0.959 . S
C1358 C1356 1.561 . S
C1359 C1356 1.526 . S
C1359 C1360 1.396 . S
C1359 C1364 1.390 . S
C1360 C1354 1.465 . S
C1360 C1359 1.396 . S
C1360 C1361 1.399 . S
C1361 H1347 0.929 . S
C1361 C1360 1.399 . S
C1361 C1362 1.385 . S
C1362 H1348 0.931 . S
C1362 C1361 1.385 . S
C1362 C1363 1.389 . S
C1363 C1362 1.389 . S
C1363 C1364 1.387 . S
C1364 H1349 0.930 . S
C1364 C1359 1.390 . S
C1364 C1363 1.387 . S
H1365 C1377 0.930 . S
H1366 C1379 0.930 . S
H1367 C1380 0.930 . S
H1368 C1384 0.959 . S
H1369 C1384 0.959 . S
H1370 C1384 0.961 . S
H1371 C1385 0.960 . S
H1372 C1385 0.961 . S
H1373 C1385 0.959 . S
H1374 C1388 0.929 . S
H1375 C1389 0.931 . S
H1376 C1391 0.930 . S
C1377 H1365 0.930 . S
C1377 C1378 1.399 . S
C1377 C1382 1.399 . S
C1378 C1377 1.399 . S
C1378 C1379 1.376 . S
C1379 H1366 0.930 . S
C1379 C1378 1.376 . S
C1379 C1380 1.388 . S
C1380 H1367 0.930 . S
C1380 C1379 1.388 . S
C1380 C1381 1.390 . S
C1381 C1380 1.390 . S
C1381 C1382 1.394 . S
C1381 C1387 1.465 . S
C1382 C1377 1.399 . S
C1382 C1381 1.394 . S
C1382 C1383 1.516 . S
C1383 C1382 1.516 . S
C1383 C1384 1.502 . S
C1383 C1385 1.561 . S
C1383 C1386 1.526 . S
C1384 H1368 0.959 . S
C1384 H1369 0.959 . S
C1384 H1370 0.961 . S
C1384 C1383 1.502 . S
C1385 H1371 0.960 . S
C1385 H1372 0.961 . S
C1385 H1373 0.959 . S
C1385 C1383 1.561 . S
C1386 C1383 1.526 . S
C1386 C1387 1.396 . S
C1386 C1391 1.390 . S
C1387 C1381 1.465 . S
C1387 C1386 1.396 . S
C1387 C1388 1.399 . S
C1388 H1374 0.929 . S
C1388 C1387 1.399 . S
C1388 C1389 1.385 . S
C1389 H1375 0.931 . S
C1389 C1388 1.385 . S
C1389 C1390 1.389 . S
C1390 C1389 1.389 . S
C1390 C1391 1.387 . S
C1391 H1376 0.930 . S
C1391 C1386 1.390 . S
C1391 C1390 1.387 . S
H1392 C1404 0.930 . S
H1393 C1406 0.930 . S
H1394 C1407 0.930 . S
H1395 C1411 0.959 . S
H1396 C1411 0.959 . S
H1397 C1411 0.961 . S
H1398 C1412 0.960 . S
H1399 C1412 0.961 . S
H1400 C1412 0.959 . S
H1401 C1415 0.929 . S
H1402 C1416 0.931 . S
H1403 C1418 0.930 . S
C1404 H1392 0.930 . S
C1404 C1405 1.399 . S
C1404 C1409 1.399 . S
C1405 C1404 1.399 . S
C1405 C1406 1.376 . S
C1406 H1393 0.930 . S
C1406 C1405 1.376 . S
C1406 C1407 1.388 . S
C1407 H1394 0.930 . S
C1407 C1406 1.388 . S
C1407 C1408 1.390 . S
C1408 C1407 1.390 . S
C1408 C1409 1.394 . S
C1408 C1414 1.465 . S
C1409 C1404 1.399 . S
C1409 C1408 1.394 . S
C1409 C1410 1.516 . S
C1410 C1409 1.516 . S
C1410 C1411 1.502 . S
C1410 C1412 1.561 . S
C1410 C1413 1.526 . S
C1411 H1395 0.959 . S
C1411 H1396 0.959 . S
C1411 H1397 0.961 . S
C1411 C1410 1.502 . S
C1412 H1398 0.960 . S
C1412 H1399 0.961 . S
C1412 H1400 0.959 . S
C1412 C1410 1.561 . S
C1413 C1410 1.526 . S
C1413 C1414 1.396 . S
C1413 C1418 1.390 . S
C1414 C1408 1.465 . S
C1414 C1413 1.396 . S
C1414 C1415 1.399 . S
C1415 H1401 0.929 . S
C1415 C1414 1.399 . S
C1415 C1416 1.385 . S
C1416 H1402 0.931 . S
C1416 C1415 1.385 . S
C1416 C1417 1.389 . S
C1417 C1416 1.389 . S
C1417 C1418 1.387 . S
C1418 H1403 0.930 . S
C1418 C1413 1.390 . S
C1418 C1417 1.387 . S
H1419 C1431 0.930 . S
H1420 C1433 0.930 . S
H1421 C1434 0.930 . S
H1422 C1438 0.959 . S
H1423 C1438 0.959 . S
H1424 C1438 0.961 . S
H1425 C1439 0.960 . S
H1426 C1439 0.961 . S
H1427 C1439 0.959 . S
H1428 C1442 0.929 . S
H1429 C1443 0.931 . S
H1430 C1445 0.930 . S
C1431 H1419 0.930 . S
C1431 C1432 1.399 . S
C1431 C1436 1.399 . S
C1432 C1431 1.399 . S
C1432 C1433 1.376 . S
C1433 H1420 0.930 . S
C1433 C1432 1.376 . S
C1433 C1434 1.388 . S
C1434 H1421 0.930 . S
C1434 C1433 1.388 . S
C1434 C1435 1.390 . S
C1435 C1434 1.390 . S
C1435 C1436 1.394 . S
C1435 C1441 1.465 . S
C1436 C1431 1.399 . S
C1436 C1435 1.394 . S
C1436 C1437 1.516 . S
C1437 C1436 1.516 . S
C1437 C1438 1.502 . S
C1437 C1439 1.561 . S
C1437 C1440 1.526 . S
C1438 H1422 0.959 . S
C1438 H1423 0.959 . S
C1438 H1424 0.961 . S
C1438 C1437 1.502 . S
C1439 H1425 0.960 . S
C1439 H1426 0.961 . S
C1439 H1427 0.959 . S
C1439 C1437 1.561 . S
C1440 C1437 1.526 . S
C1440 C1441 1.396 . S
C1440 C1445 1.390 . S
C1441 C1435 1.465 . S
C1441 C1440 1.396 . S
C1441 C1442 1.399 . S
C1442 H1428 0.929 . S
C1442 C1441 1.399 . S
C1442 C1443 1.385 . S
C1443 H1429 0.931 . S
C1443 C1442 1.385 . S
C1443 C1444 1.389 . S
C1444 C1443 1.389 . S
C1444 C1445 1.387 . S
C1445 H1430 0.930 . S
C1445 C1440 1.390 . S
C1445 C1444 1.387 . S
H1446 C1458 0.930 . S
H1447 C1460 0.930 . S
H1448 C1461 0.930 . S
H1449 C1465 0.959 . S
H1450 C1465 0.959 . S
H1451 C1465 0.961 . S
H1452 C1466 0.960 . S
H1453 C1466 0.961 . S
H1454 C1466 0.959 . S
H1455 C1469 0.929 . S
H1456 C1470 0.931 . S
H1457 C1472 0.930 . S
C1458 H1446 0.930 . S
C1458 C1459 1.399 . S
C1458 C1463 1.399 . S
C1459 C1458 1.399 . S
C1459 C1460 1.376 . S
C1460 H1447 0.930 . S
C1460 C1459 1.376 . S
C1460 C1461 1.388 . S
C1461 H1448 0.930 . S
C1461 C1460 1.388 . S
C1461 C1462 1.390 . S
C1462 C1461 1.390 . S
C1462 C1463 1.394 . S
C1462 C1468 1.465 . S
C1463 C1458 1.399 . S
C1463 C1462 1.394 . S
C1463 C1464 1.516 . S
C1464 C1463 1.516 . S
C1464 C1465 1.502 . S
C1464 C1466 1.561 . S
C1464 C1467 1.526 . S
C1465 H1449 0.959 . S
C1465 H1450 0.959 . S
C1465 H1451 0.961 . S
C1465 C1464 1.502 . S
C1466 H1452 0.960 . S
C1466 H1453 0.961 . S
C1466 H1454 0.959 . S
C1466 C1464 1.561 . S
C1467 C1464 1.526 . S
C1467 C1468 1.396 . S
C1467 C1472 1.390 . S
C1468 C1462 1.465 . S
C1468 C1467 1.396 . S
C1468 C1469 1.399 . S
C1469 H1455 0.929 . S
C1469 C1468 1.399 . S
C1469 C1470 1.385 . S
C1470 H1456 0.931 . S
C1470 C1469 1.385 . S
C1470 C1471 1.389 . S
C1471 C1470 1.389 . S
C1471 C1472 1.387 . S
C1472 H1457 0.930 . S
C1472 C1467 1.390 . S
C1472 C1471 1.387 . S
H1473 C1485 0.930 . S
H1474 C1487 0.930 . S
H1475 C1488 0.930 . S
H1476 C1492 0.959 . S
H1477 C1492 0.959 . S
H1478 C1492 0.961 . S
H1479 C1493 0.960 . S
H1480 C1493 0.961 . S
H1481 C1493 0.959 . S
H1482 C1496 0.929 . S
H1483 C1497 0.931 . S
H1484 C1499 0.930 . S
C1485 H1473 0.930 . S
C1485 C1486 1.399 . S
C1485 C1490 1.399 . S
C1486 C1485 1.399 . S
C1486 C1487 1.376 . S
C1487 H1474 0.930 . S
C1487 C1486 1.376 . S
C1487 C1488 1.388 . S
C1488 H1475 0.930 . S
C1488 C1487 1.388 . S
C1488 C1489 1.390 . S
C1489 C1488 1.390 . S
C1489 C1490 1.394 . S
C1489 C1495 1.465 . S
C1490 C1485 1.399 . S
C1490 C1489 1.394 . S
C1490 C1491 1.516 . S
C1491 C1490 1.516 . S
C1491 C1492 1.502 . S
C1491 C1493 1.561 . S
C1491 C1494 1.526 . S
C1492 H1476 0.959 . S
C1492 H1477 0.959 . S
C1492 H1478 0.961 . S
C1492 C1491 1.502 . S
C1493 H1479 0.960 . S
C1493 H1480 0.961 . S
C1493 H1481 0.959 . S
C1493 C1491 1.561 . S
C1494 C1491 1.526 . S
C1494 C1495 1.396 . S
C1494 C1499 1.390 . S
C1495 C1489 1.465 . S
C1495 C1494 1.396 . S
C1495 C1496 1.399 . S
C1496 H1482 0.929 . S
C1496 C1495 1.399 . S
C1496 C1497 1.385 . S
C1497 H1483 0.931 . S
C1497 C1496 1.385 . S
C1497 C1498 1.389 . S
C1498 C1497 1.389 . S
C1498 C1499 1.387 . S
C1499 H1484 0.930 . S
C1499 C1494 1.390 . S
C1499 C1498 1.387 . S
H1500 C1512 0.930 . S
H1501 C1514 0.930 . S
H1502 C1515 0.930 . S
H1503 C1519 0.959 . S
H1504 C1519 0.959 . S
H1505 C1519 0.961 . S
H1506 C1520 0.960 . S
H1507 C1520 0.961 . S
H1508 C1520 0.959 . S
H1509 C1523 0.929 . S
H1510 C1524 0.931 . S
H1511 C1526 0.930 . S
C1512 H1500 0.930 . S
C1512 C1513 1.399 . S
C1512 C1517 1.399 . S
C1513 C1512 1.399 . S
C1513 C1514 1.376 . S
C1514 H1501 0.930 . S
C1514 C1513 1.376 . S
C1514 C1515 1.388 . S
C1515 H1502 0.930 . S
C1515 C1514 1.388 . S
C1515 C1516 1.390 . S
C1516 C1515 1.390 . S
C1516 C1517 1.394 . S
C1516 C1522 1.465 . S
C1517 C1512 1.399 . S
C1517 C1516 1.394 . S
C1517 C1518 1.516 . S
C1518 C1517 1.516 . S
C1518 C1519 1.502 . S
C1518 C1520 1.561 . S
C1518 C1521 1.526 . S
C1519 H1503 0.959 . S
C1519 H1504 0.959 . S
C1519 H1505 0.961 . S
C1519 C1518 1.502 . S
C1520 H1506 0.960 . S
C1520 H1507 0.961 . S
C1520 H1508 0.959 . S
C1520 C1518 1.561 . S
C1521 C1518 1.526 . S
C1521 C1522 1.396 . S
C1521 C1526 1.390 . S
C1522 C1516 1.465 . S
C1522 C1521 1.396 . S
C1522 C1523 1.399 . S
C1523 H1509 0.929 . S
C1523 C1522 1.399 . S
C1523 C1524 1.385 . S
C1524 H1510 0.931 . S
C1524 C1523 1.385 . S
C1524 C1525 1.389 . S
C1525 C1524 1.389 . S
C1525 C1526 1.387 . S
C1526 H1511 0.930 . S
C1526 C1521 1.390 . S
C1526 C1525 1.387 . S
H1527 C1539 0.930 . S
H1528 C1541 0.930 . S
H1529 C1542 0.930 . S
H1530 C1546 0.959 . S
H1531 C1546 0.959 . S
H1532 C1546 0.961 . S
H1533 C1547 0.960 . S
H1534 C1547 0.961 . S
H1535 C1547 0.959 . S
H1536 C1550 0.929 . S
H1537 C1551 0.931 . S
H1538 C1553 0.930 . S
C1539 H1527 0.930 . S
C1539 C1540 1.399 . S
C1539 C1544 1.399 . S
C1540 C1539 1.399 . S
C1540 C1541 1.376 . S
C1541 H1528 0.930 . S
C1541 C1540 1.376 . S
C1541 C1542 1.388 . S
C1542 H1529 0.930 . S
C1542 C1541 1.388 . S
C1542 C1543 1.390 . S
C1543 C1542 1.390 . S
C1543 C1544 1.394 . S
C1543 C1549 1.465 . S
C1544 C1539 1.399 . S
C1544 C1543 1.394 . S
C1544 C1545 1.516 . S
C1545 C1544 1.516 . S
C1545 C1546 1.502 . S
C1545 C1547 1.561 . S
C1545 C1548 1.526 . S
C1546 H1530 0.959 . S
C1546 H1531 0.959 . S
C1546 H1532 0.961 . S
C1546 C1545 1.502 . S
C1547 H1533 0.960 . S
C1547 H1534 0.961 . S
C1547 H1535 0.959 . S
C1547 C1545 1.561 . S
C1548 C1545 1.526 . S
C1548 C1549 1.396 . S
C1548 C1553 1.390 . S
C1549 C1543 1.465 . S
C1549 C1548 1.396 . S
C1549 C1550 1.399 . S
C1550 H1536 0.929 . S
C1550 C1549 1.399 . S
C1550 C1551 1.385 . S
C1551 H1537 0.931 . S
C1551 C1550 1.385 . S
C1551 C1552 1.389 . S
C1552 C1551 1.389 . S
C1552 C1553 1.387 . S
C1553 H1538 0.930 . S
C1553 C1548 1.390 . S
C1553 C1552 1.387 . S
H1554 C1566 0.930 . S
H1555 C1568 0.930 . S
H1556 C1569 0.930 . S
H1557 C1573 0.959 . S
H1558 C1573 0.959 . S
H1559 C1573 0.961 . S
H1560 C1574 0.960 . S
H1561 C1574 0.961 . S
H1562 C1574 0.959 . S
H1563 C1577 0.929 . S
H1564 C1578 0.931 . S
H1565 C1580 0.930 . S
C1566 H1554 0.930 . S
C1566 C1567 1.399 . S
C1566 C1571 1.399 . S
C1567 C1566 1.399 . S
C1567 C1568 1.376 . S
C1568 H1555 0.930 . S
C1568 C1567 1.376 . S
C1568 C1569 1.388 . S
C1569 H1556 0.930 . S
C1569 C1568 1.388 . S
C1569 C1570 1.390 . S
C1570 C1569 1.390 . S
C1570 C1571 1.394 . S
C1570 C1576 1.465 . S
C1571 C1566 1.399 . S
C1571 C1570 1.394 . S
C1571 C1572 1.516 . S
C1572 C1571 1.516 . S
C1572 C1573 1.502 . S
C1572 C1574 1.561 . S
C1572 C1575 1.526 . S
C1573 H1557 0.959 . S
C1573 H1558 0.959 . S
C1573 H1559 0.961 . S
C1573 C1572 1.502 . S
C1574 H1560 0.960 . S
C1574 H1561 0.961 . S
C1574 H1562 0.959 . S
C1574 C1572 1.561 . S
C1575 C1572 1.526 . S
C1575 C1576 1.396 . S
C1575 C1580 1.390 . S
C1576 C1570 1.465 . S
C1576 C1575 1.396 . S
C1576 C1577 1.399 . S
C1577 H1563 0.929 . S
C1577 C1576 1.399 . S
C1577 C1578 1.385 . S
C1578 H1564 0.931 . S
C1578 C1577 1.385 . S
C1578 C1579 1.389 . S
C1579 C1578 1.389 . S
C1579 C1580 1.387 . S
C1580 H1565 0.930 . S
C1580 C1575 1.390 . S
C1580 C1579 1.387 . S
H1581 C1593 0.930 . S
H1582 C1595 0.930 . S
H1583 C1596 0.930 . S
H1584 C1600 0.959 . S
H1585 C1600 0.959 . S
H1586 C1600 0.961 . S
H1587 C1601 0.960 . S
H1588 C1601 0.961 . S
H1589 C1601 0.959 . S
H1590 C1604 0.929 . S
H1591 C1605 0.931 . S
H1592 C1607 0.930 . S
C1593 H1581 0.930 . S
C1593 C1594 1.399 . S
C1593 C1598 1.399 . S
C1594 C1593 1.399 . S
C1594 C1595 1.376 . S
C1595 H1582 0.930 . S
C1595 C1594 1.376 . S
C1595 C1596 1.388 . S
C1596 H1583 0.930 . S
C1596 C1595 1.388 . S
C1596 C1597 1.390 . S
C1597 C1596 1.390 . S
C1597 C1598 1.394 . S
C1597 C1603 1.465 . S
C1598 C1593 1.399 . S
C1598 C1597 1.394 . S
C1598 C1599 1.516 . S
C1599 C1598 1.516 . S
C1599 C1600 1.502 . S
C1599 C1601 1.561 . S
C1599 C1602 1.526 . S
C1600 H1584 0.959 . S
C1600 H1585 0.959 . S
C1600 H1586 0.961 . S
C1600 C1599 1.502 . S
C1601 H1587 0.960 . S
C1601 H1588 0.961 . S
C1601 H1589 0.959 . S
C1601 C1599 1.561 . S
C1602 C1599 1.526 . S
C1602 C1603 1.396 . S
C1602 C1607 1.390 . S
C1603 C1597 1.465 . S
C1603 C1602 1.396 . S
C1603 C1604 1.399 . S
C1604 H1590 0.929 . S
C1604 C1603 1.399 . S
C1604 C1605 1.385 . S
C1605 H1591 0.931 . S
C1605 C1604 1.385 . S
C1605 C1606 1.389 . S
C1606 C1605 1.389 . S
C1606 C1607 1.387 . S
C1607 H1592 0.930 . S
C1607 C1602 1.390 . S
C1607 C1606 1.387 . S
H1608 C1620 0.930 . S
H1609 C1622 0.930 . S
H1610 C1623 0.930 . S
H1611 C1627 0.959 . S
H1612 C1627 0.959 . S
H1613 C1627 0.961 . S
H1614 C1628 0.960 . S
H1615 C1628 0.961 . S
H1616 C1628 0.959 . S
H1617 C1631 0.929 . S
H1618 C1632 0.931 . S
H1619 C1634 0.930 . S
C1620 H1608 0.930 . S
C1620 C1621 1.399 . S
C1620 C1625 1.399 . S
C1621 C1620 1.399 . S
C1621 C1622 1.376 . S
C1622 H1609 0.930 . S
C1622 C1621 1.376 . S
C1622 C1623 1.388 . S
C1623 H1610 0.930 . S
C1623 C1622 1.388 . S
C1623 C1624 1.390 . S
C1624 C1623 1.390 . S
C1624 C1625 1.394 . S
C1624 C1630 1.465 . S
C1625 C1620 1.399 . S
C1625 C1624 1.394 . S
C1625 C1626 1.516 . S
C1626 C1625 1.516 . S
C1626 C1627 1.502 . S
C1626 C1628 1.561 . S
C1626 C1629 1.526 . S
C1627 H1611 0.959 . S
C1627 H1612 0.959 . S
C1627 H1613 0.961 . S
C1627 C1626 1.502 . S
C1628 H1614 0.960 . S
C1628 H1615 0.961 . S
C1628 H1616 0.959 . S
C1628 C1626 1.561 . S
C1629 C1626 1.526 . S
C1629 C1630 1.396 . S
C1629 C1634 1.390 . S
C1630 C1624 1.465 . S
C1630 C1629 1.396 . S
C1630 C1631 1.399 . S
C1631 H1617 0.929 . S
C1631 C1630 1.399 . S
C1631 C1632 1.385 . S
C1632 H1618 0.931 . S
C1632 C1631 1.385 . S
C1632 C1633 1.389 . S
C1633 C1632 1.389 . S
C1633 C1634 1.387 . S
C1634 H1619 0.930 . S
C1634 C1629 1.390 . S
C1634 C1633 1.387 . S
H1635 C1647 0.930 . S
H1636 C1649 0.930 . S
H1637 C1650 0.930 . S
H1638 C1654 0.959 . S
H1639 C1654 0.959 . S
H1640 C1654 0.961 . S
H1641 C1655 0.960 . S
H1642 C1655 0.961 . S
H1643 C1655 0.959 . S
H1644 C1658 0.929 . S
H1645 C1659 0.931 . S
H1646 C1661 0.930 . S
C1647 H1635 0.930 . S
C1647 C1648 1.399 . S
C1647 C1652 1.399 . S
C1648 C1647 1.399 . S
C1648 C1649 1.376 . S
C1649 H1636 0.930 . S
C1649 C1648 1.376 . S
C1649 C1650 1.388 . S
C1650 H1637 0.930 . S
C1650 C1649 1.388 . S
C1650 C1651 1.390 . S
C1651 C1650 1.390 . S
C1651 C1652 1.394 . S
C1651 C1657 1.465 . S
C1652 C1647 1.399 . S
C1652 C1651 1.394 . S
C1652 C1653 1.516 . S
C1653 C1652 1.516 . S
C1653 C1654 1.502 . S
C1653 C1655 1.561 . S
C1653 C1656 1.526 . S
C1654 H1638 0.959 . S
C1654 H1639 0.959 . S
C1654 H1640 0.961 . S
C1654 C1653 1.502 . S
C1655 H1641 0.960 . S
C1655 H1642 0.961 . S
C1655 H1643 0.959 . S
C1655 C1653 1.561 . S
C1656 C1653 1.526 . S
C1656 C1657 1.396 . S
C1656 C1661 1.390 . S
C1657 C1651 1.465 . S
C1657 C1656 1.396 . S
C1657 C1658 1.399 . S
C1658 H1644 0.929 . S
C1658 C1657 1.399 . S
C1658 C1659 1.385 . S
C1659 H1645 0.931 . S
C1659 C1658 1.385 . S
C1659 C1660 1.389 . S
C1660 C1659 1.389 . S
C1660 C1661 1.387 . S
C1661 H1646 0.930 . S
C1661 C1656 1.390 . S
C1661 C1660 1.387 . S
H1662 C1674 0.930 . S
H1663 C1676 0.930 . S
H1664 C1677 0.930 . S
H1665 C1681 0.959 . S
H1666 C1681 0.959 . S
H1667 C1681 0.961 . S
H1668 C1682 0.960 . S
H1669 C1682 0.961 . S
H1670 C1682 0.959 . S
H1671 C1685 0.929 . S
H1672 C1686 0.931 . S
H1673 C1688 0.930 . S
C1674 H1662 0.930 . S
C1674 C1675 1.399 . S
C1674 C1679 1.399 . S
C1675 C1674 1.399 . S
C1675 C1676 1.376 . S
C1676 H1663 0.930 . S
C1676 C1675 1.376 . S
C1676 C1677 1.388 . S
C1677 H1664 0.930 . S
C1677 C1676 1.388 . S
C1677 C1678 1.390 . S
C1678 C1677 1.390 . S
C1678 C1679 1.394 . S
C1678 C1684 1.465 . S
C1679 C1674 1.399 . S
C1679 C1678 1.394 . S
C1679 C1680 1.516 . S
C1680 C1679 1.516 . S
C1680 C1681 1.502 . S
C1680 C1682 1.561 . S
C1680 C1683 1.526 . S
C1681 H1665 0.959 . S
C1681 H1666 0.959 . S
C1681 H1667 0.961 . S
C1681 C1680 1.502 . S
C1682 H1668 0.960 . S
C1682 H1669 0.961 . S
C1682 H1670 0.959 . S
C1682 C1680 1.561 . S
C1683 C1680 1.526 . S
C1683 C1684 1.396 . S
C1683 C1688 1.390 . S
C1684 C1678 1.465 . S
C1684 C1683 1.396 . S
C1684 C1685 1.399 . S
C1685 H1671 0.929 . S
C1685 C1684 1.399 . S
C1685 C1686 1.385 . S
C1686 H1672 0.931 . S
C1686 C1685 1.385 . S
C1686 C1687 1.389 . S
C1687 C1686 1.389 . S
C1687 C1688 1.387 . S
C1688 H1673 0.930 . S
C1688 C1683 1.390 . S
C1688 C1687 1.387 . S
H1689 C1701 0.930 . S
H1690 C1703 0.930 . S
H1691 C1704 0.930 . S
H1692 C1708 0.959 . S
H1693 C1708 0.959 . S
H1694 C1708 0.961 . S
H1695 C1709 0.960 . S
H1696 C1709 0.961 . S
H1697 C1709 0.959 . S
H1698 C1712 0.929 . S
H1699 C1713 0.931 . S
H1700 C1715 0.930 . S
C1701 H1689 0.930 . S
C1701 C1702 1.399 . S
C1701 C1706 1.399 . S
C1702 C1701 1.399 . S
C1702 C1703 1.376 . S
C1703 H1690 0.930 . S
C1703 C1702 1.376 . S
C1703 C1704 1.388 . S
C1704 H1691 0.930 . S
C1704 C1703 1.388 . S
C1704 C1705 1.390 . S
C1705 C1704 1.390 . S
C1705 C1706 1.394 . S
C1705 C1711 1.465 . S
C1706 C1701 1.399 . S
C1706 C1705 1.394 . S
C1706 C1707 1.516 . S
C1707 C1706 1.516 . S
C1707 C1708 1.502 . S
C1707 C1709 1.561 . S
C1707 C1710 1.526 . S
C1708 H1692 0.959 . S
C1708 H1693 0.959 . S
C1708 H1694 0.961 . S
C1708 C1707 1.502 . S
C1709 H1695 0.960 . S
C1709 H1696 0.961 . S
C1709 H1697 0.959 . S
C1709 C1707 1.561 . S
C1710 C1707 1.526 . S
C1710 C1711 1.396 . S
C1710 C1715 1.390 . S
C1711 C1705 1.465 . S
C1711 C1710 1.396 . S
C1711 C1712 1.399 . S
C1712 H1698 0.929 . S
C1712 C1711 1.399 . S
C1712 C1713 1.385 . S
C1713 H1699 0.931 . S
C1713 C1712 1.385 . S
C1713 C1714 1.389 . S
C1714 C1713 1.389 . S
C1714 C1715 1.387 . S
C1715 H1700 0.930 . S
C1715 C1710 1.390 . S
C1715 C1714 1.387 . S
H1716 C1728 0.930 . S
H1717 C1730 0.930 . S
H1718 C1731 0.930 . S
H1719 C1735 0.959 . S
H1720 C1735 0.959 . S
H1721 C1735 0.961 . S
H1722 C1736 0.960 . S
H1723 C1736 0.961 . S
H1724 C1736 0.959 . S
H1725 C1739 0.929 . S
H1726 C1740 0.931 . S
H1727 C1742 0.930 . S
C1728 H1716 0.930 . S
C1728 C1729 1.399 . S
C1728 C1733 1.399 . S
C1729 C1728 1.399 . S
C1729 C1730 1.376 . S
C1730 H1717 0.930 . S
C1730 C1729 1.376 . S
C1730 C1731 1.388 . S
C1731 H1718 0.930 . S
C1731 C1730 1.388 . S
C1731 C1732 1.390 . S
C1732 C1731 1.390 . S
C1732 C1733 1.394 . S
C1732 C1738 1.465 . S
C1733 C1728 1.399 . S
C1733 C1732 1.394 . S
C1733 C1734 1.516 . S
C1734 C1733 1.516 . S
C1734 C1735 1.502 . S
C1734 C1736 1.561 . S
C1734 C1737 1.526 . S
C1735 H1719 0.959 . S
C1735 H1720 0.959 . S
C1735 H1721 0.961 . S
C1735 C1734 1.502 . S
C1736 H1722 0.960 . S
C1736 H1723 0.961 . S
C1736 H1724 0.959 . S
C1736 C1734 1.561 . S
C1737 C1734 1.526 . S
C1737 C1738 1.396 . S
C1737 C1742 1.390 . S
C1738 C1732 1.465 . S
C1738 C1737 1.396 . S
C1738 C1739 1.399 . S
C1739 H1725 0.929 . S
C1739 C1738 1.399 . S
C1739 C1740 1.385 . S
C1740 H1726 0.931 . S
C1740 C1739 1.385 . S
C1740 C1741 1.389 . S
C1741 C1740 1.389 . S
C1741 C1742 1.387 . S
C1742 H1727 0.930 . S
C1742 C1737 1.390 . S
C1742 C1741 1.387 . S
H1743 C1755 0.930 . S
H1744 C1757 0.930 . S
H1745 C1758 0.930 . S
H1746 C1762 0.959 . S
H1747 C1762 0.959 . S
H1748 C1762 0.961 . S
H1749 C1763 0.960 . S
H1750 C1763 0.961 . S
H1751 C1763 0.959 . S
H1752 C1766 0.929 . S
H1753 C1767 0.931 . S
H1754 C1769 0.930 . S
C1755 H1743 0.930 . S
C1755 C1756 1.399 . S
C1755 C1760 1.399 . S
C1756 C1755 1.399 . S
C1756 C1757 1.376 . S
C1757 H1744 0.930 . S
C1757 C1756 1.376 . S
C1757 C1758 1.388 . S
C1758 H1745 0.930 . S
C1758 C1757 1.388 . S
C1758 C1759 1.390 . S
C1759 C1758 1.390 . S
C1759 C1760 1.394 . S
C1759 C1765 1.465 . S
C1760 C1755 1.399 . S
C1760 C1759 1.394 . S
C1760 C1761 1.516 . S
C1761 C1760 1.516 . S
C1761 C1762 1.502 . S
C1761 C1763 1.561 . S
C1761 C1764 1.526 . S
C1762 H1746 0.959 . S
C1762 H1747 0.959 . S
C1762 H1748 0.961 . S
C1762 C1761 1.502 . S
C1763 H1749 0.960 . S
C1763 H1750 0.961 . S
C1763 H1751 0.959 . S
C1763 C1761 1.561 . S
C1764 C1761 1.526 . S
C1764 C1765 1.396 . S
C1764 C1769 1.390 . S
C1765 C1759 1.465 . S
C1765 C1764 1.396 . S
C1765 C1766 1.399 . S
C1766 H1752 0.929 . S
C1766 C1765 1.399 . S
C1766 C1767 1.385 . S
C1767 H1753 0.931 . S
C1767 C1766 1.385 . S
C1767 C1768 1.389 . S
C1768 C1767 1.389 . S
C1768 C1769 1.387 . S
C1769 H1754 0.930 . S
C1769 C1764 1.390 . S
C1769 C1768 1.387 . S
H1770 C1782 0.930 . S
H1771 C1784 0.930 . S
H1772 C1785 0.930 . S
H1773 C1789 0.959 . S
H1774 C1789 0.959 . S
H1775 C1789 0.961 . S
H1776 C1790 0.960 . S
H1777 C1790 0.961 . S
H1778 C1790 0.959 . S
H1779 C1793 0.929 . S
H1780 C1794 0.931 . S
H1781 C1796 0.930 . S
C1782 H1770 0.930 . S
C1782 C1783 1.399 . S
C1782 C1787 1.399 . S
C1783 C1782 1.399 . S
C1783 C1784 1.376 . S
C1784 H1771 0.930 . S
C1784 C1783 1.376 . S
C1784 C1785 1.388 . S
C1785 H1772 0.930 . S
C1785 C1784 1.388 . S
C1785 C1786 1.390 . S
C1786 C1785 1.390 . S
C1786 C1787 1.394 . S
C1786 C1792 1.465 . S
C1787 C1782 1.399 . S
C1787 C1786 1.394 . S
C1787 C1788 1.516 . S
C1788 C1787 1.516 . S
C1788 C1789 1.502 . S
C1788 C1790 1.561 . S
C1788 C1791 1.526 . S
C1789 H1773 0.959 . S
C1789 H1774 0.959 . S
C1789 H1775 0.961 . S
C1789 C1788 1.502 . S
C1790 H1776 0.960 . S
C1790 H1777 0.961 . S
C1790 H1778 0.959 . S
C1790 C1788 1.561 . S
C1791 C1788 1.526 . S
C1791 C1792 1.396 . S
C1791 C1796 1.390 . S
C1792 C1786 1.465 . S
C1792 C1791 1.396 . S
C1792 C1793 1.399 . S
C1793 H1779 0.929 . S
C1793 C1792 1.399 . S
C1793 C1794 1.385 . S
C1794 H1780 0.931 . S
C1794 C1793 1.385 . S
C1794 C1795 1.389 . S
C1795 C1794 1.389 . S
C1795 C1796 1.387 . S
C1796 H1781 0.930 . S
C1796 C1791 1.390 . S
C1796 C1795 1.387 . S
H1797 C1809 0.930 . S
H1798 C1811 0.930 . S
H1799 C1812 0.930 . S
H1800 C1816 0.959 . S
H1801 C1816 0.959 . S
H1802 C1816 0.961 . S
H1803 C1817 0.960 . S
H1804 C1817 0.961 . S
H1805 C1817 0.959 . S
H1806 C1820 0.929 . S
H1807 C1821 0.931 . S
H1808 C1823 0.930 . S
C1809 H1797 0.930 . S
C1809 C1810 1.399 . S
C1809 C1814 1.399 . S
C1810 C1809 1.399 . S
C1810 C1811 1.376 . S
C1811 H1798 0.930 . S
C1811 C1810 1.376 . S
C1811 C1812 1.388 . S
C1812 H1799 0.930 . S
C1812 C1811 1.388 . S
C1812 C1813 1.390 . S
C1813 C1812 1.390 . S
C1813 C1814 1.394 . S
C1813 C1819 1.465 . S
C1814 C1809 1.399 . S
C1814 C1813 1.394 . S
C1814 C1815 1.516 . S
C1815 C1814 1.516 . S
C1815 C1816 1.502 . S
C1815 C1817 1.561 . S
C1815 C1818 1.526 . S
C1816 H1800 0.959 . S
C1816 H1801 0.959 . S
C1816 H1802 0.961 . S
C1816 C1815 1.502 . S
C1817 H1803 0.960 . S
C1817 H1804 0.961 . S
C1817 H1805 0.959 . S
C1817 C1815 1.561 . S
C1818 C1815 1.526 . S
C1818 C1819 1.396 . S
C1818 C1823 1.390 . S
C1819 C1813 1.465 . S
C1819 C1818 1.396 . S
C1819 C1820 1.399 . S
C1820 H1806 0.929 . S
C1820 C1819 1.399 . S
C1820 C1821 1.385 . S
C1821 H1807 0.931 . S
C1821 C1820 1.385 . S
C1821 C1822 1.389 . S
C1822 C1821 1.389 . S
C1822 C1823 1.387 . S
C1823 H1808 0.930 . S
C1823 C1818 1.390 . S
C1823 C1822 1.387 . S
H1824 C1836 0.930 . S
H1825 C1838 0.930 . S
H1826 C1839 0.930 . S
H1827 C1843 0.959 . S
H1828 C1843 0.959 . S
H1829 C1843 0.961 . S
H1830 C1844 0.960 . S
H1831 C1844 0.961 . S
H1832 C1844 0.959 . S
H1833 C1847 0.929 . S
H1834 C1848 0.931 . S
H1835 C1850 0.930 . S
C1836 H1824 0.930 . S
C1836 C1837 1.399 . S
C1836 C1841 1.399 . S
C1837 C1836 1.399 . S
C1837 C1838 1.376 . S
C1838 H1825 0.930 . S
C1838 C1837 1.376 . S
C1838 C1839 1.388 . S
C1839 H1826 0.930 . S
C1839 C1838 1.388 . S
C1839 C1840 1.390 . S
C1840 C1839 1.390 . S
C1840 C1841 1.394 . S
C1840 C1846 1.465 . S
C1841 C1836 1.399 . S
C1841 C1840 1.394 . S
C1841 C1842 1.516 . S
C1842 C1841 1.516 . S
C1842 C1843 1.502 . S
C1842 C1844 1.561 . S
C1842 C1845 1.526 . S
C1843 H1827 0.959 . S
C1843 H1828 0.959 . S
C1843 H1829 0.961 . S
C1843 C1842 1.502 . S
C1844 H1830 0.960 . S
C1844 H1831 0.961 . S
C1844 H1832 0.959 . S
C1844 C1842 1.561 . S
C1845 C1842 1.526 . S
C1845 C1846 1.396 . S
C1845 C1850 1.390 . S
C1846 C1840 1.465 . S
C1846 C1845 1.396 . S
C1846 C1847 1.399 . S
C1847 H1833 0.929 . S
C1847 C1846 1.399 . S
C1847 C1848 1.385 . S
C1848 H1834 0.931 . S
C1848 C1847 1.385 . S
C1848 C1849 1.389 . S
C1849 C1848 1.389 . S
C1849 C1850 1.387 . S
C1850 H1835 0.930 . S
C1850 C1845 1.390 . S
C1850 C1849 1.387 . S
H1851 C1863 0.930 . S
H1852 C1865 0.930 . S
H1853 C1866 0.930 . S
H1854 C1870 0.959 . S
H1855 C1870 0.959 . S
H1856 C1870 0.961 . S
H1857 C1871 0.960 . S
H1858 C1871 0.961 . S
H1859 C1871 0.959 . S
H1860 C1874 0.929 . S
H1861 C1875 0.931 . S
H1862 C1877 0.930 . S
C1863 H1851 0.930 . S
C1863 C1864 1.399 . S
C1863 C1868 1.399 . S
C1864 C1863 1.399 . S
C1864 C1865 1.376 . S
C1865 H1852 0.930 . S
C1865 C1864 1.376 . S
C1865 C1866 1.388 . S
C1866 H1853 0.930 . S
C1866 C1865 1.388 . S
C1866 C1867 1.390 . S
C1867 C1866 1.390 . S
C1867 C1868 1.394 . S
C1867 C1873 1.465 . S
C1868 C1863 1.399 . S
C1868 C1867 1.394 . S
C1868 C1869 1.516 . S
C1869 C1868 1.516 . S
C1869 C1870 1.502 . S
C1869 C1871 1.561 . S
C1869 C1872 1.526 . S
C1870 H1854 0.959 . S
C1870 H1855 0.959 . S
C1870 H1856 0.961 . S
C1870 C1869 1.502 . S
C1871 H1857 0.960 . S
C1871 H1858 0.961 . S
C1871 H1859 0.959 . S
C1871 C1869 1.561 . S
C1872 C1869 1.526 . S
C1872 C1873 1.396 . S
C1872 C1877 1.390 . S
C1873 C1867 1.465 . S
C1873 C1872 1.396 . S
C1873 C1874 1.399 . S
C1874 H1860 0.929 . S
C1874 C1873 1.399 . S
C1874 C1875 1.385 . S
C1875 H1861 0.931 . S
C1875 C1874 1.385 . S
C1875 C1876 1.389 . S
C1876 C1875 1.389 . S
C1876 C1877 1.387 . S
C1877 H1862 0.930 . S
C1877 C1872 1.390 . S
C1877 C1876 1.387 . S
H1878 C1890 0.930 . S
H1879 C1892 0.930 . S
H1880 C1893 0.930 . S
H1881 C1897 0.959 . S
H1882 C1897 0.959 . S
H1883 C1897 0.961 . S
H1884 C1898 0.960 . S
H1885 C1898 0.961 . S
H1886 C1898 0.959 . S
H1887 C1901 0.929 . S
H1888 C1902 0.931 . S
H1889 C1904 0.930 . S
C1890 H1878 0.930 . S
C1890 C1891 1.399 . S
C1890 C1895 1.399 . S
C1891 C1890 1.399 . S
C1891 C1892 1.376 . S
C1892 H1879 0.930 . S
C1892 C1891 1.376 . S
C1892 C1893 1.388 . S
C1893 H1880 0.930 . S
C1893 C1892 1.388 . S
C1893 C1894 1.390 . S
C1894 C1893 1.390 . S
C1894 C1895 1.394 . S
C1894 C1900 1.465 . S
C1895 C1890 1.399 . S
C1895 C1894 1.394 . S
C1895 C1896 1.516 . S
C1896 C1895 1.516 . S
C1896 C1897 1.502 . S
C1896 C1898 1.561 . S
C1896 C1899 1.526 . S
C1897 H1881 0.959 . S
C1897 H1882 0.959 . S
C1897 H1883 0.961 . S
C1897 C1896 1.502 . S
C1898 H1884 0.960 . S
C1898 H1885 0.961 . S
C1898 H1886 0.959 . S
C1898 C1896 1.561 . S
C1899 C1896 1.526 . S
C1899 C1900 1.396 . S
C1899 C1904 1.390 . S
C1900 C1894 1.465 . S
C1900 C1899 1.396 . S
C1900 C1901 1.399 . S
C1901 H1887 0.929 . S
C1901 C1900 1.399 . S
C1901 C1902 1.385 . S
C1902 H1888 0.931 . S
C1902 C1901 1.385 . S
C1902 C1903 1.389 . S
C1903 C1902 1.389 . S
C1903 C1904 1.387 . S
C1904 H1889 0.930 . S
C1904 C1899 1.390 . S
C1904 C1903 1.387 . S
H1905 C1917 0.930 . S
H1906 C1919 0.930 . S
H1907 C1920 0.930 . S
H1908 C1924 0.959 . S
H1909 C1924 0.959 . S
H1910 C1924 0.961 . S
H1911 C1925 0.960 . S
H1912 C1925 0.961 . S
H1913 C1925 0.959 . S
H1914 C1928 0.929 . S
H1915 C1929 0.931 . S
H1916 C1931 0.930 . S
C1917 H1905 0.930 . S
C1917 C1918 1.399 . S
C1917 C1922 1.399 . S
C1918 C1917 1.399 . S
C1918 C1919 1.376 . S
C1919 H1906 0.930 . S
C1919 C1918 1.376 . S
C1919 C1920 1.388 . S
C1920 H1907 0.930 . S
C1920 C1919 1.388 . S
C1920 C1921 1.390 . S
C1921 C1920 1.390 . S
C1921 C1922 1.394 . S
C1921 C1927 1.465 . S
C1922 C1917 1.399 . S
C1922 C1921 1.394 . S
C1922 C1923 1.516 . S
C1923 C1922 1.516 . S
C1923 C1924 1.502 . S
C1923 C1925 1.561 . S
C1923 C1926 1.526 . S
C1924 H1908 0.959 . S
C1924 H1909 0.959 . S
C1924 H1910 0.961 . S
C1924 C1923 1.502 . S
C1925 H1911 0.960 . S
C1925 H1912 0.961 . S
C1925 H1913 0.959 . S
C1925 C1923 1.561 . S
C1926 C1923 1.526 . S
C1926 C1927 1.396 . S
C1926 C1931 1.390 . S
C1927 C1921 1.465 . S
C1927 C1926 1.396 . S
C1927 C1928 1.399 . S
C1928 H1914 0.929 . S
C1928 C1927 1.399 . S
C1928 C1929 1.385 . S
C1929 H1915 0.931 . S
C1929 C1928 1.385 . S
C1929 C1930 1.389 . S
C1930 C1929 1.389 . S
C1930 C1931 1.387 . S
C1931 H1916 0.930 . S
C1931 C1926 1.390 . S
C1931 C1930 1.387 . S
H1932 C1944 0.930 . S
H1933 C1946 0.930 . S
H1934 C1947 0.930 . S
H1935 C1951 0.959 . S
H1936 C1951 0.959 . S
H1937 C1951 0.961 . S
H1938 C1952 0.960 . S
H1939 C1952 0.961 . S
H1940 C1952 0.959 . S
H1941 C1955 0.929 . S
H1942 C1956 0.931 . S
H1943 C1958 0.930 . S
C1944 H1932 0.930 . S
C1944 C1945 1.399 . S
C1944 C1949 1.399 . S
C1945 C1944 1.399 . S
C1945 C1946 1.376 . S
C1946 H1933 0.930 . S
C1946 C1945 1.376 . S
C1946 C1947 1.388 . S
C1947 H1934 0.930 . S
C1947 C1946 1.388 . S
C1947 C1948 1.390 . S
C1948 C1947 1.390 . S
C1948 C1949 1.394 . S
C1948 C1954 1.465 . S
C1949 C1944 1.399 . S
C1949 C1948 1.394 . S
C1949 C1950 1.516 . S
C1950 C1949 1.516 . S
C1950 C1951 1.502 . S
C1950 C1952 1.561 . S
C1950 C1953 1.526 . S
C1951 H1935 0.959 . S
C1951 H1936 0.959 . S
C1951 H1937 0.961 . S
C1951 C1950 1.502 . S
C1952 H1938 0.960 . S
C1952 H1939 0.961 . S
C1952 H1940 0.959 . S
C1952 C1950 1.561 . S
C1953 C1950 1.526 . S
C1953 C1954 1.396 . S
C1953 C1958 1.390 . S
C1954 C1948 1.465 . S
C1954 C1953 1.396 . S
C1954 C1955 1.399 . S
C1955 H1941 0.929 . S
C1955 C1954 1.399 . S
C1955 C1956 1.385 . S
C1956 H1942 0.931 . S
C1956 C1955 1.385 . S
C1956 C1957 1.389 . S
C1957 C1956 1.389 . S
C1957 C1958 1.387 . S
C1958 H1943 0.930 . S
C1958 C1953 1.390 . S
C1958 C1957 1.387 . S
H1959 C1971 0.930 . S
H1960 C1973 0.930 . S
H1961 C1974 0.930 . S
H1962 C1978 0.959 . S
H1963 C1978 0.959 . S
H1964 C1978 0.961 . S
H1965 C1979 0.960 . S
H1966 C1979 0.961 . S
H1967 C1979 0.959 . S
H1968 C1982 0.929 . S
H1969 C1983 0.931 . S
H1970 C1985 0.930 . S
C1971 H1959 0.930 . S
C1971 C1972 1.399 . S
C1971 C1976 1.399 . S
C1972 C1971 1.399 . S
C1972 C1973 1.376 . S
C1973 H1960 0.930 . S
C1973 C1972 1.376 . S
C1973 C1974 1.388 . S
C1974 H1961 0.930 . S
C1974 C1973 1.388 . S
C1974 C1975 1.390 . S
C1975 C1974 1.390 . S
C1975 C1976 1.394 . S
C1975 C1981 1.465 . S
C1976 C1971 1.399 . S
C1976 C1975 1.394 . S
C1976 C1977 1.516 . S
C1977 C1976 1.516 . S
C1977 C1978 1.502 . S
C1977 C1979 1.561 . S
C1977 C1980 1.526 . S
C1978 H1962 0.959 . S
C1978 H1963 0.959 . S
C1978 H1964 0.961 . S
C1978 C1977 1.502 . S
C1979 H1965 0.960 . S
C1979 H1966 0.961 . S
C1979 H1967 0.959 . S
C1979 C1977 1.561 . S
C1980 C1977 1.526 . S
C1980 C1981 1.396 . S
C1980 C1985 1.390 . S
C1981 C1975 1.465 . S
C1981 C1980 1.396 . S
C1981 C1982 1.399 . S
C1982 H1968 0.929 . S
C1982 C1981 1.399 . S
C1982 C1983 1.385 . S
C1983 H1969 0.931 . S
C1983 C1982 1.385 . S
C1983 C1984 1.389 . S
C1984 C1983 1.389 . S
C1984 C1985 1.387 . S
C1985 H1970 0.930 . S
C1985 C1980 1.390 . S
C1985 C1984 1.387 . S
H1986 C1998 0.930 . S
H1987 C2000 0.930 . S
H1988 C2001 0.930 . S
H1989 C2005 0.959 . S
H1990 C2005 0.959 . S
H1991 C2005 0.961 . S
H1992 C2006 0.960 . S
H1993 C2006 0.961 . S
H1994 C2006 0.959 . S
H1995 C2009 0.929 . S
H1996 C2010 0.931 . S
H1997 C2012 0.930 . S
C1998 H1986 0.930 . S
C1998 C1999 1.399 . S
C1998 C2003 1.399 . S
C1999 C1998 1.399 . S
C1999 C2000 1.376 . S
C2000 H1987 0.930 . S
C2000 C1999 1.376 . S
C2000 C2001 1.388 . S
C2001 H1988 0.930 . S
C2001 C2000 1.388 . S
C2001 C2002 1.390 . S
C2002 C2001 1.390 . S
C2002 C2003 1.394 . S
C2002 C2008 1.465 . S
C2003 C1998 1.399 . S
C2003 C2002 1.394 . S
C2003 C2004 1.516 . S
C2004 C2003 1.516 . S
C2004 C2005 1.502 . S
C2004 C2006 1.561 . S
C2004 C2007 1.526 . S
C2005 H1989 0.959 . S
C2005 H1990 0.959 . S
C2005 H1991 0.961 . S
C2005 C2004 1.502 . S
C2006 H1992 0.960 . S
C2006 H1993 0.961 . S
C2006 H1994 0.959 . S
C2006 C2004 1.561 . S
C2007 C2004 1.526 . S
C2007 C2008 1.396 . S
C2007 C2012 1.390 . S
C2008 C2002 1.465 . S
C2008 C2007 1.396 . S
C2008 C2009 1.399 . S
C2009 H1995 0.929 . S
C2009 C2008 1.399 . S
C2009 C2010 1.385 . S
C2010 H1996 0.931 . S
C2010 C2009 1.385 . S
C2010 C2011 1.389 . S
C2011 C2010 1.389 . S
C2011 C2012 1.387 . S
C2012 H1997 0.930 . S
C2012 C2007 1.390 . S
C2012 C2011 1.387 . S
H2013 C2025 0.930 . S
H2014 C2027 0.930 . S
H2015 C2028 0.930 . S
H2016 C2032 0.959 . S
H2017 C2032 0.959 . S
H2018 C2032 0.961 . S
H2019 C2033 0.960 . S
H2020 C2033 0.961 . S
H2021 C2033 0.959 . S
H2022 C2036 0.929 . S
H2023 C2037 0.931 . S
H2024 C2039 0.930 . S
C2025 H2013 0.930 . S
C2025 C2026 1.399 . S
C2025 C2030 1.399 . S
C2026 C2025 1.399 . S
C2026 C2027 1.376 . S
C2027 H2014 0.930 . S
C2027 C2026 1.376 . S
C2027 C2028 1.388 . S
C2028 H2015 0.930 . S
C2028 C2027 1.388 . S
C2028 C2029 1.390 . S
C2029 C2028 1.390 . S
C2029 C2030 1.394 . S
C2029 C2035 1.465 . S
C2030 C2025 1.399 . S
C2030 C2029 1.394 . S
C2030 C2031 1.516 . S
C2031 C2030 1.516 . S
C2031 C2032 1.502 . S
C2031 C2033 1.561 . S
C2031 C2034 1.526 . S
C2032 H2016 0.959 . S
C2032 H2017 0.959 . S
C2032 H2018 0.961 . S
C2032 C2031 1.502 . S
C2033 H2019 0.960 . S
C2033 H2020 0.961 . S
C2033 H2021 0.959 . S
C2033 C2031 1.561 . S
C2034 C2031 1.526 . S
C2034 C2035 1.396 . S
C2034 C2039 1.390 . S
C2035 C2029 1.465 . S
C2035 C2034 1.396 . S
C2035 C2036 1.399 . S
C2036 H2022 0.929 . S
C2036 C2035 1.399 . S
C2036 C2037 1.385 . S
C2037 H2023 0.931 . S
C2037 C2036 1.385 . S
C2037 C2038 1.389 . S
C2038 C2037 1.389 . S
C2038 C2039 1.387 . S
C2039 H2024 0.930 . S
C2039 C2034 1.390 . S
C2039 C2038 1.387 . S
H2040 C2052 0.930 . S
H2041 C2054 0.930 . S
H2042 C2055 0.930 . S
H2043 C2059 0.959 . S
H2044 C2059 0.959 . S
H2045 C2059 0.961 . S
H2046 C2060 0.960 . S
H2047 C2060 0.961 . S
H2048 C2060 0.959 . S
H2049 C2063 0.929 . S
H2050 C2064 0.931 . S
H2051 C2066 0.930 . S
C2052 H2040 0.930 . S
C2052 C2053 1.399 . S
C2052 C2057 1.399 . S
C2053 C2052 1.399 . S
C2053 C2054 1.376 . S
C2054 H2041 0.930 . S
C2054 C2053 1.376 . S
C2054 C2055 1.388 . S
C2055 H2042 0.930 . S
C2055 C2054 1.388 . S
C2055 C2056 1.390 . S
C2056 C2055 1.390 . S
C2056 C2057 1.394 . S
C2056 C2062 1.465 . S
C2057 C2052 1.399 . S
C2057 C2056 1.394 . S
C2057 C2058 1.516 . S
C2058 C2057 1.516 . S
C2058 C2059 1.502 . S
C2058 C2060 1.561 . S
C2058 C2061 1.526 . S
C2059 H2043 0.959 . S
C2059 H2044 0.959 . S
C2059 H2045 0.961 . S
C2059 C2058 1.502 . S
C2060 H2046 0.960 . S
C2060 H2047 0.961 . S
C2060 H2048 0.959 . S
C2060 C2058 1.561 . S
C2061 C2058 1.526 . S
C2061 C2062 1.396 . S
C2061 C2066 1.390 . S
C2062 C2056 1.465 . S
C2062 C2061 1.396 . S
C2062 C2063 1.399 . S
C2063 H2049 0.929 . S
C2063 C2062 1.399 . S
C2063 C2064 1.385 . S
C2064 H2050 0.931 . S
C2064 C2063 1.385 . S
C2064 C2065 1.389 . S
C2065 C2064 1.389 . S
C2065 C2066 1.387 . S
C2066 H2051 0.930 . S
C2066 C2061 1.390 . S
C2066 C2065 1.387 . S
H2067 C2079 0.930 . S
H2068 C2081 0.930 . S
H2069 C2082 0.930 . S
H2070 C2086 0.959 . S
H2071 C2086 0.959 . S
H2072 C2086 0.961 . S
H2073 C2087 0.960 . S
H2074 C2087 0.961 . S
H2075 C2087 0.959 . S
H2076 C2090 0.929 . S
H2077 C2091 0.931 . S
H2078 C2093 0.930 . S
C2079 H2067 0.930 . S
C2079 C2080 1.399 . S
C2079 C2084 1.399 . S
C2080 C2079 1.399 . S
C2080 C2081 1.376 . S
C2081 H2068 0.930 . S
C2081 C2080 1.376 . S
C2081 C2082 1.388 . S
C2082 H2069 0.930 . S
C2082 C2081 1.388 . S
C2082 C2083 1.390 . S
C2083 C2082 1.390 . S
C2083 C2084 1.394 . S
C2083 C2089 1.465 . S
C2084 C2079 1.399 . S
C2084 C2083 1.394 . S
C2084 C2085 1.516 . S
C2085 C2084 1.516 . S
C2085 C2086 1.502 . S
C2085 C2087 1.561 . S
C2085 C2088 1.526 . S
C2086 H2070 0.959 . S
C2086 H2071 0.959 . S
C2086 H2072 0.961 . S
C2086 C2085 1.502 . S
C2087 H2073 0.960 . S
C2087 H2074 0.961 . S
C2087 H2075 0.959 . S
C2087 C2085 1.561 . S
C2088 C2085 1.526 . S
C2088 C2089 1.396 . S
C2088 C2093 1.390 . S
C2089 C2083 1.465 . S
C2089 C2088 1.396 . S
C2089 C2090 1.399 . S
C2090 H2076 0.929 . S
C2090 C2089 1.399 . S
C2090 C2091 1.385 . S
C2091 H2077 0.931 . S
C2091 C2090 1.385 . S
C2091 C2092 1.389 . S
C2092 C2091 1.389 . S
C2092 C2093 1.387 . S
C2093 H2078 0.930 . S
C2093 C2088 1.390 . S
C2093 C2092 1.387 . S
H2094 C2106 0.930 . S
H2095 C2108 0.930 . S
H2096 C2109 0.930 . S
H2097 C2113 0.959 . S
H2098 C2113 0.959 . S
H2099 C2113 0.961 . S
H2100 C2114 0.960 . S
H2101 C2114 0.961 . S
H2102 C2114 0.959 . S
H2103 C2117 0.929 . S
H2104 C2118 0.931 . S
H2105 C2120 0.930 . S
C2106 H2094 0.930 . S
C2106 C2107 1.399 . S
C2106 C2111 1.399 . S
C2107 C2106 1.399 . S
C2107 C2108 1.376 . S
C2108 H2095 0.930 . S
C2108 C2107 1.376 . S
C2108 C2109 1.388 . S
C2109 H2096 0.930 . S
C2109 C2108 1.388 . S
C2109 C2110 1.390 . S
C2110 C2109 1.390 . S
C2110 C2111 1.394 . S
C2110 C2116 1.465 . S
C2111 C2106 1.399 . S
C2111 C2110 1.394 . S
C2111 C2112 1.516 . S
C2112 C2111 1.516 . S
C2112 C2113 1.502 . S
C2112 C2114 1.561 . S
C2112 C2115 1.526 . S
C2113 H2097 0.959 . S
C2113 H2098 0.959 . S
C2113 H2099 0.961 . S
C2113 C2112 1.502 . S
C2114 H2100 0.960 . S
C2114 H2101 0.961 . S
C2114 H2102 0.959 . S
C2114 C2112 1.561 . S
C2115 C2112 1.526 . S
C2115 C2116 1.396 . S
C2115 C2120 1.390 . S
C2116 C2110 1.465 . S
C2116 C2115 1.396 . S
C2116 C2117 1.399 . S
C2117 H2103 0.929 . S
C2117 C2116 1.399 . S
C2117 C2118 1.385 . S
C2118 H2104 0.931 . S
C2118 C2117 1.385 . S
C2118 C2119 1.389 . S
C2119 C2118 1.389 . S
C2119 C2120 1.387 . S
C2120 H2105 0.930 . S
C2120 C2115 1.390 . S
C2120 C2119 1.387 . S
H2121 C2133 0.930 . S
H2122 C2135 0.930 . S
H2123 C2136 0.930 . S
H2124 C2140 0.959 . S
H2125 C2140 0.959 . S
H2126 C2140 0.961 . S
H2127 C2141 0.960 . S
H2128 C2141 0.961 . S
H2129 C2141 0.959 . S
H2130 C2144 0.929 . S
H2131 C2145 0.931 . S
H2132 C2147 0.930 . S
C2133 H2121 0.930 . S
C2133 C2134 1.399 . S
C2133 C2138 1.399 . S
C2134 C2133 1.399 . S
C2134 C2135 1.376 . S
C2135 H2122 0.930 . S
C2135 C2134 1.376 . S
C2135 C2136 1.388 . S
C2136 H2123 0.930 . S
C2136 C2135 1.388 . S
C2136 C2137 1.390 . S
C2137 C2136 1.390 . S
C2137 C2138 1.394 . S
C2137 C2143 1.465 . S
C2138 C2133 1.399 . S
C2138 C2137 1.394 . S
C2138 C2139 1.516 . S
C2139 C2138 1.516 . S
C2139 C2140 1.502 . S
C2139 C2141 1.561 . S
C2139 C2142 1.526 . S
C2140 H2124 0.959 . S
C2140 H2125 0.959 . S
C2140 H2126 0.961 . S
C2140 C2139 1.502 . S
C2141 H2127 0.960 . S
C2141 H2128 0.961 . S
C2141 H2129 0.959 . S
C2141 C2139 1.561 . S
C2142 C2139 1.526 . S
C2142 C2143 1.396 . S
C2142 C2147 1.390 . S
C2143 C2137 1.465 . S
C2143 C2142 1.396 . S
C2143 C2144 1.399 . S
C2144 H2130 0.929 . S
C2144 C2143 1.399 . S
C2144 C2145 1.385 . S
C2145 H2131 0.931 . S
C2145 C2144 1.385 . S
C2145 C2146 1.389 . S
C2146 C2145 1.389 . S
C2146 C2147 1.387 . S
C2147 H2132 0.930 . S
C2147 C2142 1.390 . S
C2147 C2146 1.387 . S
H2148 C2160 0.930 . S
H2149 C2162 0.930 . S
H2150 C2163 0.930 . S
H2151 C2167 0.959 . S
H2152 C2167 0.959 . S
H2153 C2167 0.961 . S
H2154 C2168 0.960 . S
H2155 C2168 0.961 . S
H2156 C2168 0.959 . S
H2157 C2171 0.929 . S
H2158 C2172 0.931 . S
H2159 C2174 0.930 . S
C2160 H2148 0.930 . S
C2160 C2161 1.399 . S
C2160 C2165 1.399 . S
C2161 C2160 1.399 . S
C2161 C2162 1.376 . S
C2162 H2149 0.930 . S
C2162 C2161 1.376 . S
C2162 C2163 1.388 . S
C2163 H2150 0.930 . S
C2163 C2162 1.388 . S
C2163 C2164 1.390 . S
C2164 C2163 1.390 . S
C2164 C2165 1.394 . S
C2164 C2170 1.465 . S
C2165 C2160 1.399 . S
C2165 C2164 1.394 . S
C2165 C2166 1.516 . S
C2166 C2165 1.516 . S
C2166 C2167 1.502 . S
C2166 C2168 1.561 . S
C2166 C2169 1.526 . S
C2167 H2151 0.959 . S
C2167 H2152 0.959 . S
C2167 H2153 0.961 . S
C2167 C2166 1.502 . S
C2168 H2154 0.960 . S
C2168 H2155 0.961 . S
C2168 H2156 0.959 . S
C2168 C2166 1.561 . S
C2169 C2166 1.526 . S
C2169 C2170 1.396 . S
C2169 C2174 1.390 . S
C2170 C2164 1.465 . S
C2170 C2169 1.396 . S
C2170 C2171 1.399 . S
C2171 H2157 0.929 . S
C2171 C2170 1.399 . S
C2171 C2172 1.385 . S
C2172 H2158 0.931 . S
C2172 C2171 1.385 . S
C2172 C2173 1.389 . S
C2173 C2172 1.389 . S
C2173 C2174 1.387 . S
C2174 H2159 0.930 . S
C2174 C2169 1.390 . S
C2174 C2173 1.387 . S
H2175 C2187 0.930 . S
H2176 C2189 0.930 . S
H2177 C2190 0.930 . S
H2178 C2194 0.959 . S
H2179 C2194 0.959 . S
H2180 C2194 0.961 . S
H2181 C2195 0.960 . S
H2182 C2195 0.961 . S
H2183 C2195 0.959 . S
H2184 C2198 0.929 . S
H2185 C2199 0.931 . S
H2186 C2201 0.930 . S
C2187 H2175 0.930 . S
C2187 C2188 1.399 . S
C2187 C2192 1.399 . S
C2188 C2187 1.399 . S
C2188 C2189 1.376 . S
C2189 H2176 0.930 . S
C2189 C2188 1.376 . S
C2189 C2190 1.388 . S
C2190 H2177 0.930 . S
C2190 C2189 1.388 . S
C2190 C2191 1.390 . S
C2191 C2190 1.390 . S
C2191 C2192 1.394 . S
C2191 C2197 1.465 . S
C2192 C2187 1.399 . S
C2192 C2191 1.394 . S
C2192 C2193 1.516 . S
C2193 C2192 1.516 . S
C2193 C2194 1.502 . S
C2193 C2195 1.561 . S
C2193 C2196 1.526 . S
C2194 H2178 0.959 . S
C2194 H2179 0.959 . S
C2194 H2180 0.961 . S
C2194 C2193 1.502 . S
C2195 H2181 0.960 . S
C2195 H2182 0.961 . S
C2195 H2183 0.959 . S
C2195 C2193 1.561 . S
C2196 C2193 1.526 . S
C2196 C2197 1.396 . S
C2196 C2201 1.390 . S
C2197 C2191 1.465 . S
C2197 C2196 1.396 . S
C2197 C2198 1.399 . S
C2198 H2184 0.929 . S
C2198 C2197 1.399 . S
C2198 C2199 1.385 . S
C2199 H2185 0.931 . S
C2199 C2198 1.385 . S
C2199 C2200 1.389 . S
C2200 C2199 1.389 . S
C2200 C2201 1.387 . S
C2201 H2186 0.930 . S
C2201 C2196 1.390 . S
C2201 C2200 1.387 . S
H2202 C2214 0.930 . S
H2203 C2216 0.930 . S
H2204 C2217 0.930 . S
H2205 C2221 0.959 . S
H2206 C2221 0.959 . S
H2207 C2221 0.961 . S
H2208 C2222 0.960 . S
H2209 C2222 0.961 . S
H2210 C2222 0.959 . S
H2211 C2225 0.929 . S
H2212 C2226 0.931 . S
H2213 C2228 0.930 . S
C2214 H2202 0.930 . S
C2214 C2215 1.399 . S
C2214 C2219 1.399 . S
C2215 C2214 1.399 . S
C2215 C2216 1.376 . S
C2216 H2203 0.930 . S
C2216 C2215 1.376 . S
C2216 C2217 1.388 . S
C2217 H2204 0.930 . S
C2217 C2216 1.388 . S
C2217 C2218 1.390 . S
C2218 C2217 1.390 . S
C2218 C2219 1.394 . S
C2218 C2224 1.465 . S
C2219 C2214 1.399 . S
C2219 C2218 1.394 . S
C2219 C2220 1.516 . S
C2220 C2219 1.516 . S
C2220 C2221 1.502 . S
C2220 C2222 1.561 . S
C2220 C2223 1.526 . S
C2221 H2205 0.959 . S
C2221 H2206 0.959 . S
C2221 H2207 0.961 . S
C2221 C2220 1.502 . S
C2222 H2208 0.960 . S
C2222 H2209 0.961 . S
C2222 H2210 0.959 . S
C2222 C2220 1.561 . S
C2223 C2220 1.526 . S
C2223 C2224 1.396 . S
C2223 C2228 1.390 . S
C2224 C2218 1.465 . S
C2224 C2223 1.396 . S
C2224 C2225 1.399 . S
C2225 H2211 0.929 . S
C2225 C2224 1.399 . S
C2225 C2226 1.385 . S
C2226 H2212 0.931 . S
C2226 C2225 1.385 . S
C2226 C2227 1.389 . S
C2227 C2226 1.389 . S
C2227 C2228 1.387 . S
C2228 H2213 0.930 . S
C2228 C2223 1.390 . S
C2228 C2227 1.387 . S
H2229 C2241 0.930 . S
H2230 C2243 0.930 . S
H2231 C2244 0.930 . S
H2232 C2248 0.959 . S
H2233 C2248 0.959 . S
H2234 C2248 0.961 . S
H2235 C2249 0.960 . S
H2236 C2249 0.961 . S
H2237 C2249 0.959 . S
H2238 C2252 0.929 . S
H2239 C2253 0.931 . S
H2240 C2255 0.930 . S
C2241 H2229 0.930 . S
C2241 C2242 1.399 . S
C2241 C2246 1.399 . S
C2242 C2241 1.399 . S
C2242 C2243 1.376 . S
C2243 H2230 0.930 . S
C2243 C2242 1.376 . S
C2243 C2244 1.388 . S
C2244 H2231 0.930 . S
C2244 C2243 1.388 . S
C2244 C2245 1.390 . S
C2245 C2244 1.390 . S
C2245 C2246 1.394 . S
C2245 C2251 1.465 . S
C2246 C2241 1.399 . S
C2246 C2245 1.394 . S
C2246 C2247 1.516 . S
C2247 C2246 1.516 . S
C2247 C2248 1.502 . S
C2247 C2249 1.561 . S
C2247 C2250 1.526 . S
C2248 H2232 0.959 . S
C2248 H2233 0.959 . S
C2248 H2234 0.961 . S
C2248 C2247 1.502 . S
C2249 H2235 0.960 . S
C2249 H2236 0.961 . S
C2249 H2237 0.959 . S
C2249 C2247 1.561 . S
C2250 C2247 1.526 . S
C2250 C2251 1.396 . S
C2250 C2255 1.390 . S
C2251 C2245 1.465 . S
C2251 C2250 1.396 . S
C2251 C2252 1.399 . S
C2252 H2238 0.929 . S
C2252 C2251 1.399 . S
C2252 C2253 1.385 . S
C2253 H2239 0.931 . S
C2253 C2252 1.385 . S
C2253 C2254 1.389 . S
C2254 C2253 1.389 . S
C2254 C2255 1.387 . S
C2255 H2240 0.930 . S
C2255 C2250 1.390 . S
C2255 C2254 1.387 . S
H2256 C2268 0.930 . S
H2257 C2270 0.930 . S
H2258 C2271 0.930 . S
H2259 C2275 0.959 . S
H2260 C2275 0.959 . S
H2261 C2275 0.961 . S
H2262 C2276 0.960 . S
H2263 C2276 0.961 . S
H2264 C2276 0.959 . S
H2265 C2279 0.929 . S
H2266 C2280 0.931 . S
H2267 C2282 0.930 . S
C2268 H2256 0.930 . S
C2268 C2269 1.399 . S
C2268 C2273 1.399 . S
C2269 C2268 1.399 . S
C2269 C2270 1.376 . S
C2270 H2257 0.930 . S
C2270 C2269 1.376 . S
C2270 C2271 1.388 . S
C2271 H2258 0.930 . S
C2271 C2270 1.388 . S
C2271 C2272 1.390 . S
C2272 C2271 1.390 . S
C2272 C2273 1.394 . S
C2272 C2278 1.465 . S
C2273 C2268 1.399 . S
C2273 C2272 1.394 . S
C2273 C2274 1.516 . S
C2274 C2273 1.516 . S
C2274 C2275 1.502 . S
C2274 C2276 1.561 . S
C2274 C2277 1.526 . S
C2275 H2259 0.959 . S
C2275 H2260 0.959 . S
C2275 H2261 0.961 . S
C2275 C2274 1.502 . S
C2276 H2262 0.960 . S
C2276 H2263 0.961 . S
C2276 H2264 0.959 . S
C2276 C2274 1.561 . S
C2277 C2274 1.526 . S
C2277 C2278 1.396 . S
C2277 C2282 1.390 . S
C2278 C2272 1.465 . S
C2278 C2277 1.396 . S
C2278 C2279 1.399 . S
C2279 H2265 0.929 . S
C2279 C2278 1.399 . S
C2279 C2280 1.385 . S
C2280 H2266 0.931 . S
C2280 C2279 1.385 . S
C2280 C2281 1.389 . S
C2281 C2280 1.389 . S
C2281 C2282 1.387 . S
C2282 H2267 0.930 . S
C2282 C2277 1.390 . S
C2282 C2281 1.387 . S
H2283 C2295 0.930 . S
H2284 C2297 0.930 . S
H2285 C2298 0.930 . S
H2286 C2302 0.959 . S
H2287 C2302 0.959 . S
H2288 C2302 0.961 . S
H2289 C2303 0.960 . S
H2290 C2303 0.961 . S
H2291 C2303 0.959 . S
H2292 C2306 0.929 . S
H2293 C2307 0.931 . S
H2294 C2309 0.930 . S
C2295 H2283 0.930 . S
C2295 C2296 1.399 . S
C2295 C2300 1.399 . S
C2296 C2295 1.399 . S
C2296 C2297 1.376 . S
C2297 H2284 0.930 . S
C2297 C2296 1.376 . S
C2297 C2298 1.388 . S
C2298 H2285 0.930 . S
C2298 C2297 1.388 . S
C2298 C2299 1.390 . S
C2299 C2298 1.390 . S
C2299 C2300 1.394 . S
C2299 C2305 1.465 . S
C2300 C2295 1.399 . S
C2300 C2299 1.394 . S
C2300 C2301 1.516 . S
C2301 C2300 1.516 . S
C2301 C2302 1.502 . S
C2301 C2303 1.561 . S
C2301 C2304 1.526 . S
C2302 H2286 0.959 . S
C2302 H2287 0.959 . S
C2302 H2288 0.961 . S
C2302 C2301 1.502 . S
C2303 H2289 0.960 . S
C2303 H2290 0.961 . S
C2303 H2291 0.959 . S
C2303 C2301 1.561 . S
C2304 C2301 1.526 . S
C2304 C2305 1.396 . S
C2304 C2309 1.390 . S
C2305 C2299 1.465 . S
C2305 C2304 1.396 . S
C2305 C2306 1.399 . S
C2306 H2292 0.929 . S
C2306 C2305 1.399 . S
C2306 C2307 1.385 . S
C2307 H2293 0.931 . S
C2307 C2306 1.385 . S
C2307 C2308 1.389 . S
C2308 C2307 1.389 . S
C2308 C2309 1.387 . S
C2309 H2294 0.930 . S
C2309 C2304 1.390 . S
C2309 C2308 1.387 . S
H2310 C2322 0.930 . S
H2311 C2324 0.930 . S
H2312 C2325 0.930 . S
H2313 C2329 0.959 . S
H2314 C2329 0.959 . S
H2315 C2329 0.961 . S
H2316 C2330 0.960 . S
H2317 C2330 0.961 . S
H2318 C2330 0.959 . S
H2319 C2333 0.929 . S
H2320 C2334 0.931 . S
H2321 C2336 0.930 . S
C2322 H2310 0.930 . S
C2322 C2323 1.399 . S
C2322 C2327 1.399 . S
C2323 C2322 1.399 . S
C2323 C2324 1.376 . S
C2324 H2311 0.930 . S
C2324 C2323 1.376 . S
C2324 C2325 1.388 . S
C2325 H2312 0.930 . S
C2325 C2324 1.388 . S
C2325 C2326 1.390 . S
C2326 C2325 1.390 . S
C2326 C2327 1.394 . S
C2326 C2332 1.465 . S
C2327 C2322 1.399 . S
C2327 C2326 1.394 . S
C2327 C2328 1.516 . S
C2328 C2327 1.516 . S
C2328 C2329 1.502 . S
C2328 C2330 1.561 . S
C2328 C2331 1.526 . S
C2329 H2313 0.959 . S
C2329 H2314 0.959 . S
C2329 H2315 0.961 . S
C2329 C2328 1.502 . S
C2330 H2316 0.960 . S
C2330 H2317 0.961 . S
C2330 H2318 0.959 . S
C2330 C2328 1.561 . S
C2331 C2328 1.526 . S
C2331 C2332 1.396 . S
C2331 C2336 1.390 . S
C2332 C2326 1.465 . S
C2332 C2331 1.396 . S
C2332 C2333 1.399 . S
C2333 H2319 0.929 . S
C2333 C2332 1.399 . S
C2333 C2334 1.385 . S
C2334 H2320 0.931 . S
C2334 C2333 1.385 . S
C2334 C2335 1.389 . S
C2335 C2334 1.389 . S
C2335 C2336 1.387 . S
C2336 H2321 0.930 . S
C2336 C2331 1.390 . S
C2336 C2335 1.387 . S
H2337 C2349 0.930 . S
H2338 C2351 0.930 . S
H2339 C2352 0.930 . S
H2340 C2356 0.959 . S
H2341 C2356 0.959 . S
H2342 C2356 0.961 . S
H2343 C2357 0.960 . S
H2344 C2357 0.961 . S
H2345 C2357 0.959 . S
H2346 C2360 0.929 . S
H2347 C2361 0.931 . S
H2348 C2363 0.930 . S
C2349 H2337 0.930 . S
C2349 C2350 1.399 . S
C2349 C2354 1.399 . S
C2350 C2349 1.399 . S
C2350 C2351 1.376 . S
C2351 H2338 0.930 . S
C2351 C2350 1.376 . S
C2351 C2352 1.388 . S
C2352 H2339 0.930 . S
C2352 C2351 1.388 . S
C2352 C2353 1.390 . S
C2353 C2352 1.390 . S
C2353 C2354 1.394 . S
C2353 C2359 1.465 . S
C2354 C2349 1.399 . S
C2354 C2353 1.394 . S
C2354 C2355 1.516 . S
C2355 C2354 1.516 . S
C2355 C2356 1.502 . S
C2355 C2357 1.561 . S
C2355 C2358 1.526 . S
C2356 H2340 0.959 . S
C2356 H2341 0.959 . S
C2356 H2342 0.961 . S
C2356 C2355 1.502 . S
C2357 H2343 0.960 . S
C2357 H2344 0.961 . S
C2357 H2345 0.959 . S
C2357 C2355 1.561 . S
C2358 C2355 1.526 . S
C2358 C2359 1.396 . S
C2358 C2363 1.390 . S
C2359 C2353 1.465 . S
C2359 C2358 1.396 . S
C2359 C2360 1.399 . S
C2360 H2346 0.929 . S
C2360 C2359 1.399 . S
C2360 C2361 1.385 . S
C2361 H2347 0.931 . S
C2361 C2360 1.385 . S
C2361 C2362 1.389 . S
C2362 C2361 1.389 . S
C2362 C2363 1.387 . S
C2363 H2348 0.930 . S
C2363 C2358 1.390 . S
C2363 C2362 1.387 . S
H2364 C2376 0.930 . S
H2365 C2378 0.930 . S
H2366 C2379 0.930 . S
H2367 C2383 0.959 . S
H2368 C2383 0.959 . S
H2369 C2383 0.961 . S
H2370 C2384 0.960 . S
H2371 C2384 0.961 . S
H2372 C2384 0.959 . S
H2373 C2387 0.929 . S
H2374 C2388 0.931 . S
H2375 C2390 0.930 . S
C2376 H2364 0.930 . S
C2376 C2377 1.399 . S
C2376 C2381 1.399 . S
C2377 C2376 1.399 . S
C2377 C2378 1.376 . S
C2378 H2365 0.930 . S
C2378 C2377 1.376 . S
C2378 C2379 1.388 . S
C2379 H2366 0.930 . S
C2379 C2378 1.388 . S
C2379 C2380 1.390 . S
C2380 C2379 1.390 . S
C2380 C2381 1.394 . S
C2380 C2386 1.465 . S
C2381 C2376 1.399 . S
C2381 C2380 1.394 . S
C2381 C2382 1.516 . S
C2382 C2381 1.516 . S
C2382 C2383 1.502 . S
C2382 C2384 1.561 . S
C2382 C2385 1.526 . S
C2383 H2367 0.959 . S
C2383 H2368 0.959 . S
C2383 H2369 0.961 . S
C2383 C2382 1.502 . S
C2384 H2370 0.960 . S
C2384 H2371 0.961 . S
C2384 H2372 0.959 . S
C2384 C2382 1.561 . S
C2385 C2382 1.526 . S
C2385 C2386 1.396 . S
C2385 C2390 1.390 . S
C2386 C2380 1.465 . S
C2386 C2385 1.396 . S
C2386 C2387 1.399 . S
C2387 H2373 0.929 . S
C2387 C2386 1.399 . S
C2387 C2388 1.385 . S
C2388 H2374 0.931 . S
C2388 C2387 1.385 . S
C2388 C2389 1.389 . S
C2389 C2388 1.389 . S
C2389 C2390 1.387 . S
C2390 H2375 0.930 . S
C2390 C2385 1.390 . S
C2390 C2389 1.387 . S
H2391 C2403 0.930 . S
H2392 C2405 0.930 . S
H2393 C2406 0.930 . S
H2394 C2410 0.959 . S
H2395 C2410 0.959 . S
H2396 C2410 0.961 . S
H2397 C2411 0.960 . S
H2398 C2411 0.961 . S
H2399 C2411 0.959 . S
H2400 C2414 0.929 . S
H2401 C2415 0.931 . S
H2402 C2417 0.930 . S
C2403 H2391 0.930 . S
C2403 C2404 1.399 . S
C2403 C2408 1.399 . S
C2404 C2403 1.399 . S
C2404 C2405 1.376 . S
C2405 H2392 0.930 . S
C2405 C2404 1.376 . S
C2405 C2406 1.388 . S
C2406 H2393 0.930 . S
C2406 C2405 1.388 . S
C2406 C2407 1.390 . S
C2407 C2406 1.390 . S
C2407 C2408 1.394 . S
C2407 C2413 1.465 . S
C2408 C2403 1.399 . S
C2408 C2407 1.394 . S
C2408 C2409 1.516 . S
C2409 C2408 1.516 . S
C2409 C2410 1.502 . S
C2409 C2411 1.561 . S
C2409 C2412 1.526 . S
C2410 H2394 0.959 . S
C2410 H2395 0.959 . S
C2410 H2396 0.961 . S
C2410 C2409 1.502 . S
C2411 H2397 0.960 . S
C2411 H2398 0.961 . S
C2411 H2399 0.959 . S
C2411 C2409 1.561 . S
C2412 C2409 1.526 . S
C2412 C2413 1.396 . S
C2412 C2417 1.390 . S
C2413 C2407 1.465 . S
C2413 C2412 1.396 . S
C2413 C2414 1.399 . S
C2414 H2400 0.929 . S
C2414 C2413 1.399 . S
C2414 C2415 1.385 . S
C2415 H2401 0.931 . S
C2415 C2414 1.385 . S
C2415 C2416 1.389 . S
C2416 C2415 1.389 . S
C2416 C2417 1.387 . S
C2417 H2402 0.930 . S
C2417 C2412 1.390 . S
C2417 C2416 1.387 . S
H2418 C2430 0.930 . S
H2419 C2432 0.930 . S
H2420 C2433 0.930 . S
H2421 C2437 0.959 . S
H2422 C2437 0.959 . S
H2423 C2437 0.961 . S
H2424 C2438 0.960 . S
H2425 C2438 0.961 . S
H2426 C2438 0.959 . S
H2427 C2441 0.929 . S
H2428 C2442 0.931 . S
H2429 C2444 0.930 . S
C2430 H2418 0.930 . S
C2430 C2431 1.399 . S
C2430 C2435 1.399 . S
C2431 C2430 1.399 . S
C2431 C2432 1.376 . S
C2432 H2419 0.930 . S
C2432 C2431 1.376 . S
C2432 C2433 1.388 . S
C2433 H2420 0.930 . S
C2433 C2432 1.388 . S
C2433 C2434 1.390 . S
C2434 C2433 1.390 . S
C2434 C2435 1.394 . S
C2434 C2440 1.465 . S
C2435 C2430 1.399 . S
C2435 C2434 1.394 . S
C2435 C2436 1.516 . S
C2436 C2435 1.516 . S
C2436 C2437 1.502 . S
C2436 C2438 1.561 . S
C2436 C2439 1.526 . S
C2437 H2421 0.959 . S
C2437 H2422 0.959 . S
C2437 H2423 0.961 . S
C2437 C2436 1.502 . S
C2438 H2424 0.960 . S
C2438 H2425 0.961 . S
C2438 H2426 0.959 . S
C2438 C2436 1.561 . S
C2439 C2436 1.526 . S
C2439 C2440 1.396 . S
C2439 C2444 1.390 . S
C2440 C2434 1.465 . S
C2440 C2439 1.396 . S
C2440 C2441 1.399 . S
C2441 H2427 0.929 . S
C2441 C2440 1.399 . S
C2441 C2442 1.385 . S
C2442 H2428 0.931 . S
C2442 C2441 1.385 . S
C2442 C2443 1.389 . S
C2443 C2442 1.389 . S
C2443 C2444 1.387 . S
C2444 H2429 0.930 . S
C2444 C2439 1.390 . S
C2444 C2443 1.387 . S
H2445 C2457 0.930 . S
H2446 C2459 0.930 . S
H2447 C2460 0.930 . S
H2448 C2464 0.959 . S
H2449 C2464 0.959 . S
H2450 C2464 0.961 . S
H2451 C2465 0.960 . S
H2452 C2465 0.961 . S
H2453 C2465 0.959 . S
H2454 C2468 0.929 . S
H2455 C2469 0.931 . S
H2456 C2471 0.930 . S
C2457 H2445 0.930 . S
C2457 C2458 1.399 . S
C2457 C2462 1.399 . S
C2458 C2457 1.399 . S
C2458 C2459 1.376 . S
C2459 H2446 0.930 . S
C2459 C2458 1.376 . S
C2459 C2460 1.388 . S
C2460 H2447 0.930 . S
C2460 C2459 1.388 . S
C2460 C2461 1.390 . S
C2461 C2460 1.390 . S
C2461 C2462 1.394 . S
C2461 C2467 1.465 . S
C2462 C2457 1.399 . S
C2462 C2461 1.394 . S
C2462 C2463 1.516 . S
C2463 C2462 1.516 . S
C2463 C2464 1.502 . S
C2463 C2465 1.561 . S
C2463 C2466 1.526 . S
C2464 H2448 0.959 . S
C2464 H2449 0.959 . S
C2464 H2450 0.961 . S
C2464 C2463 1.502 . S
C2465 H2451 0.960 . S
C2465 H2452 0.961 . S
C2465 H2453 0.959 . S
C2465 C2463 1.561 . S
C2466 C2463 1.526 . S
C2466 C2467 1.396 . S
C2466 C2471 1.390 . S
C2467 C2461 1.465 . S
C2467 C2466 1.396 . S
C2467 C2468 1.399 . S
C2468 H2454 0.929 . S
C2468 C2467 1.399 . S
C2468 C2469 1.385 . S
C2469 H2455 0.931 . S
C2469 C2468 1.385 . S
C2469 C2470 1.389 . S
C2470 C2469 1.389 . S
C2470 C2471 1.387 . S
C2471 H2456 0.930 . S
C2471 C2466 1.390 . S
C2471 C2470 1.387 . S
C541 C15 1.184 . S
C553 C367 1.163 . S
C568 C37 1.170 . S
C580 C527 1.159 . S
C595 C469 1.179 . S
C607 C65 1.097 . S
C622 C81 1.095 . S
C634 C499 1.173 . S
C649 C95 1.130 . S
C661 C395 1.184 . S
C676 C117 1.092 . S
C688 C411 1.185 . S
C703 C139 1.128 . S
C715 C439 1.184 . S
C730 C169 1.062 . S
C742 C450 1.146 . S
C757 C197 1.167 . S
C769 C7 1.164 . S
C784 C205 1.154 . S
C796 C29 1.191 . S
C811 C59 1.178 . S
C823 C241 1.098 . S
C838 C73 1.176 . S
C850 C263 1.101 . S
C865 C279 1.173 . S
C877 C109 1.156 . S
C892 C301 1.161 . S
C904 C131 1.161 . S
C919 C329 1.128 . S
C931 C153 1.202 . S
C946 C345 1.141 . S
C958 C161 1.199 . S
C973 C373 1.106 . S
C985 C191 1.169 . S
C1000 C381 1.091 . S
C1012 C271 1.177 . S
C1027 C293 1.164 . S
C1039 C417 1.179 . S
C1054 C425 1.092 . S
C1066 C323 1.179 . S
C1081 C458 1.079 . S
C1093 C337 1.137 . S
C1108 C477 1.096 . S
C1120 C235 1.170 . S
C1135 C257 1.192 . S
C1147 C505 1.148 . S
C1162 C513 1.119 . S
C1174 C219 1.184 . S
C1189 C480 1.169 . S
C1201 C106 1.156 . S
C1216 C494 1.157 . S
C1228 C128 1.107 . S
C1243 C150 1.095 . S
C1255 C362 1.141 . S
C1270 C164 1.128 . S
C1282 C514 1.114 . S
C1297 C426 1.172 . S
C1309 C10 1.150 . S
C1324 C32 1.147 . S
C1336 C455 1.176 . S
C1351 C382 1.113 . S
C1363 C52 1.136 . S
C1378 C76 1.140 . S
C1390 C406 1.115 . S
C1405 C316 1.175 . S
C1417 C96 1.141 . S
C1432 C340 1.175 . S
C1444 C118 1.134 . S
C1459 C274 1.164 . S
C1471 C140 1.149 . S
C1486 C172 1.103 . S
C1498 C296 1.144 . S
C1513 C228 1.088 . S
C1525 C18 1.143 . S
C1540 C250 1.087 . S
C1552 C40 1.140 . S
C1567 C184 1.102 . S
C1579 C54 1.145 . S
C1594 C216 1.101 . S
C1606 C84 1.156 . S
C1621 C318 1.134 . S
C1633 C472 1.177 . S
C1648 C436 1.131 . S
C1660 C230 1.176 . S
C1675 C252 1.224 . S
C1687 C447 1.161 . S
C1702 C392 1.129 . S
C1714 C186 1.177 . S
C1729 C404 1.167 . S
C1741 C206 1.163 . S
C1756 C360 1.144 . S
C1768 C282 1.117 . S
C1783 C524 1.108 . S
C1795 C304 1.136 . S
C1810 C348 1.164 . S
C1822 C492 1.135 . S
C1837 C448 1.315 . S
C1849 C21 1.324 . S
C1864 C389 1.373 . S
C1876 C43 1.348 . S
C1891 C51 1.375 . S
C1903 C403 1.348 . S
C1918 C87 1.373 . S
C1930 C433 1.347 . S
C1945 C521 1.378 . S
C1957 C103 1.355 . S
C1972 C125 1.344 . S
C1984 C483 1.366 . S
C1999 C491 1.365 . S
C2011 C147 1.387 . S
C2026 C175 1.363 . S
C2038 C359 1.349 . S
C2053 C183 1.384 . S
C2065 C351 1.358 . S
C2080 C285 1.345 . S
C2092 C213 1.372 . S
C2107 C227 1.373 . S
C2119 C307 1.349 . S
C2134 C315 1.389 . S
C2146 C249 1.366 . S
C2161 C414 1.321 . S
C2173 C98 1.349 . S
C2188 C428 1.331 . S
C2200 C120 1.344 . S
C2215 C142 1.350 . S
C2227 C461 1.385 . S
C2242 C162 1.307 . S
C2254 C384 1.336 . S
C2269 C502 1.311 . S
C2281 C8 1.344 . S
C2296 C370 1.339 . S
C2308 C30 1.326 . S
C2323 C516 1.309 . S
C2335 C62 1.352 . S
C2350 C74 1.341 . S
C2362 C470 1.331 . S
C2377 C208 1.355 . S
C2389 C326 1.314 . S
C2404 C338 1.307 . S
C2416 C238 1.342 . S
C2431 C272 1.310 . S
C2443 C260 1.339 . S
C2458 C294 1.346 . S
C2470 C194 1.308 . S
