# Generated by pormake.
# Topology wiv, (6)-cn, num edge types: 1
# Building blocks:
#     Node 0, Type 0, BuildingBlock: UKALOJ_clean_sbu_0, # of connection points: 6
#     Node 1, Type 0, BuildingBlock: UKALOJ_clean_sbu_0, # of connection points: 6
#     Node 2, Type 0, BuildingBlock: UKALOJ_clean_sbu_0, # of connection points: 6
#     Node 3, Type 0, BuildingBlock: UKALOJ_clean_sbu_0, # of connection points: 6
#     Node 4, Type 0, BuildingBlock: UKALOJ_clean_sbu_0, # of connection points: 6
#     Node 5, Type 0, BuildingBlock: UKALOJ_clean_sbu_0, # of connection points: 6
#     Node 6, Type 0, BuildingBlock: UKALOJ_clean_sbu_0, # of connection points: 6
#     Node 7, Type 0, BuildingBlock: UKALOJ_clean_sbu_0, # of connection points: 6
#     Node 8, Type 0, BuildingBlock: UKALOJ_clean_sbu_0, # of connection points: 6
#     Node 9, Type 0, BuildingBlock: UKALOJ_clean_sbu_0, # of connection points: 6
#     Node 10, Type 0, BuildingBlock: UKALOJ_clean_sbu_0, # of connection points: 6
#     Node 11, Type 0, BuildingBlock: UKALOJ_clean_sbu_0, # of connection points: 6
#     Node 12, Type 0, BuildingBlock: UKALOJ_clean_sbu_0, # of connection points: 6
#     Node 13, Type 0, BuildingBlock: UKALOJ_clean_sbu_0, # of connection points: 6
#     Node 14, Type 0, BuildingBlock: UKALOJ_clean_sbu_0, # of connection points: 6
#     Node 15, Type 0, BuildingBlock: UKALOJ_clean_sbu_0, # of connection points: 6
#     Edge 16, Type (0, 0), None
#     Edge 17, Type (0, 0), None
#     Edge 18, Type (0, 0), None
#     Edge 19, Type (0, 0), None
#     Edge 20, Type (0, 0), None
#     Edge 21, Type (0, 0), None
#     Edge 22, Type (0, 0), None
#     Edge 23, Type (0, 0), None
#     Edge 24, Type (0, 0), None
#     Edge 25, Type (0, 0), None
#     Edge 26, Type (0, 0), None
#     Edge 27, Type (0, 0), None
#     Edge 28, Type (0, 0), None
#     Edge 29, Type (0, 0), None
#     Edge 30, Type (0, 0), None
#     Edge 31, Type (0, 0), None
#     Edge 32, Type (0, 0), None
#     Edge 33, Type (0, 0), None
#     Edge 34, Type (0, 0), None
#     Edge 35, Type (0, 0), None
#     Edge 36, Type (0, 0), None
#     Edge 37, Type (0, 0), None
#     Edge 38, Type (0, 0), None
#     Edge 39, Type (0, 0), None
#     Edge 40, Type (0, 0), None
#     Edge 41, Type (0, 0), None
#     Edge 42, Type (0, 0), None
#     Edge 43, Type (0, 0), None
#     Edge 44, Type (0, 0), None
#     Edge 45, Type (0, 0), None
#     Edge 46, Type (0, 0), None
#     Edge 47, Type (0, 0), None
#     Edge 48, Type (0, 0), None
#     Edge 49, Type (0, 0), None
#     Edge 50, Type (0, 0), None
#     Edge 51, Type (0, 0), None
#     Edge 52, Type (0, 0), None
#     Edge 53, Type (0, 0), None
#     Edge 54, Type (0, 0), None
#     Edge 55, Type (0, 0), None
#     Edge 56, Type (0, 0), None
#     Edge 57, Type (0, 0), None
#     Edge 58, Type (0, 0), None
#     Edge 59, Type (0, 0), None
#     Edge 60, Type (0, 0), None
#     Edge 61, Type (0, 0), None
#     Edge 62, Type (0, 0), None
#     Edge 63, Type (0, 0), None
# Relax obj value: 0.209
# Max RMSD: 0.159
# Mean RMSD: 0.159
data_MOF--net-wiv--node1-UKALOJ_clean_sbu_0--edge1-none
_symmetry_space_group_name_H-M    P1
_symmetry_Int_Tables_number       1
_symmetry_cell_setting            triclinic
loop_
_symmetry_equiv_pos_as_xyz
'x, y, z'
_cell_length_a     35.698409
_cell_length_b     35.717021
_cell_length_c     6.7247359
_cell_angle_alpha  89.955833
_cell_angle_beta   89.909467
_cell_angle_gamma 90.00572
loop_
_atom_site_label
_atom_site_type_symbol
_atom_site_fract_x
_atom_site_fract_y
_atom_site_fract_z
_atom_type_partial_charge
Zn0 Zn 0.35921 0.13668 0.04418 0.0
O1 O 0.36599 0.13764 0.73644 0.0
C2 C 0.29437 0.0956 0.90517 0.0
Zn3 Zn 0.37791 0.07673 0.03242 0.0
C4 C 0.37299 0.10735 0.64295 0.0
O5 O 0.38541 0.07836 0.73086 0.0
C6 C 0.36442 0.10523 0.43472 0.0
O7 O 0.43698 0.09143 0.10407 0.0
O8 O 0.41443 0.14813 0.10391 0.0
N9 N 0.38861 1.01885 0.05791 0.0
C10 C 0.41478 0.99795 0.15613 0.0
C11 C 0.36974 0.96165 0.08099 0.0
N12 N 0.36093 0.99588 0.01193 0.0
N13 N 0.40331 0.96177 0.17358 0.0
C14 C 0.33597 0.22402 0.00213 0.0
C15 C 0.36216 0.24094 0.2734 0.0
N16 N 0.35155 0.19317 0.08348 0.0
N17 N 0.36759 0.20419 0.25129 0.0
N18 N 0.34252 0.25426 0.11936 0.0
H19 H 0.32747 0.24508 0.70756 0.0
H20 H 0.28557 0.23261 0.84014 0.0
H21 H 0.3153 0.19609 0.74045 0.0
C22 C 0.31496 0.22421 0.81043 0.0
C23 C 0.44812 1.01427 0.25989 0.0
H24 H 0.46859 1.02412 0.14719 0.0
H25 H 0.462 0.99383 0.35914 0.0
H26 H 0.43926 0.03856 0.35109 0.0
O27 O 0.37057 0.07542 0.33959 0.0
O28 O 0.35239 0.13386 0.34698 0.0
C29 C 0.44144 0.12632 0.13814 0.0
O30 O 0.30367 0.12709 -0.02152 0.0
O31 O 0.31631 0.06736 0.93343 0.0
Zn32 Zn 0.14135 0.70708 0.84715 0.0
O33 O 0.14114 0.70152 0.15563 0.0
C34 C 0.09607 0.76996 -0.01076 0.0
Zn35 Zn 0.0823 0.68597 0.86862 0.0
C36 C 0.11204 0.69235 0.25365 0.0
O37 O 0.08347 0.67814 0.16989 0.0
C38 C 0.11101 0.70036 0.46231 0.0
O39 O 0.10062 0.62745 0.79779 0.0
O40 O 0.15691 0.65176 0.78812 0.0
N41 N 1.02481 0.67352 0.8391 0.0
C42 C 1.00456 0.64763 0.73577 0.0
C43 C 0.96731 0.69166 0.81564 0.0
N44 N 1.00126 0.70056 0.88795 0.0
N45 N 0.96819 0.65868 0.71777 0.0
C46 C 0.22739 0.70623 0.90097 0.0
C47 C 0.24529 0.74758 0.69066 0.0
N48 N 0.1964 0.7227 0.829 0.0
N49 N 0.20753 0.74839 0.69889 0.0
N50 N 0.25832 0.72119 0.81535 0.0
H51 H 0.2421 0.64971 -0.02291 0.0
H52 H 0.24124 0.68192 0.183 0.0
H53 H 0.19814 0.66497 0.08059 0.0
C54 C 0.22693 0.67382 0.04311 0.0
C55 C 1.02178 0.615 0.6296 0.0
H56 H 0.03054 0.59375 0.74059 0.0
H57 H 1.00222 0.60198 0.52241 0.0
H58 H 0.04706 0.62433 0.54741 0.0
O59 O 0.08163 0.69374 0.5613 0.0
O60 O 0.1401 0.71255 0.54592 0.0
C61 C 0.13573 0.62367 0.76265 0.0
O62 O 0.12735 0.76219 0.90909 0.0
O63 O 0.06907 0.74645 -0.03179 0.0
Zn64 Zn 0.67774 0.96587 0.01948 0.0
O65 O 0.61989 0.94589 0.08257 0.0
C66 C 0.69249 0.93768 0.43382 0.0
Zn67 Zn 0.70122 0.90831 0.04147 0.0
C68 C 0.61713 0.91095 0.12207 0.0
O69 O 0.64602 0.89056 0.10092 0.0
C70 C 0.76237 0.95704 0.90376 0.0
O71 O 0.69603 0.90817 0.7267 0.0
O72 O 0.67138 0.96508 0.71238 0.0
N73 N 0.71929 0.85414 0.05993 0.0
C74 C 0.70442 0.82244 -0.01282 0.0
C75 C 0.74634 0.80651 0.1983 0.0
N76 N 0.74531 0.84425 0.19062 0.0
N77 N 0.72077 0.79229 0.07276 0.0
C78 C 0.63782 0.04028 0.16765 0.0
C79 C 0.68082 0.0789 0.08883 0.0
N80 N 0.66311 1.02176 0.05185 0.0
N81 N 0.68942 0.04611 0.00305 0.0
N82 N 0.64882 0.07629 0.19528 0.0
H83 H 0.58458 1.01297 0.16828 0.0
H84 H 0.59348 0.04018 0.38952 0.0
H85 H 0.61663 0.99609 0.35296 0.0
C86 C 0.6063 1.02158 0.27678 0.0
C87 C 0.67217 0.82139 0.8445 0.0
H88 H 0.64892 0.80463 0.90869 0.0
H89 H 0.68126 0.80799 0.70362 0.0
H90 H 0.6617 0.84973 0.80938 0.0
O91 O 0.75597 0.925 -0.02095 0.0
O92 O 0.73754 0.98262 0.92764 0.0
C93 C 0.68634 0.93697 0.62717 0.0
O94 O 0.68406 0.96639 0.33312 0.0
O95 O 0.70653 0.90951 0.3488 0.0
Zn96 Zn 0.97133 0.38636 0.90574 0.0
O97 O 0.95496 0.44485 0.84222 0.0
C98 C 0.94316 0.37265 0.49539 0.0
Zn99 Zn 0.91272 0.36517 0.89315 0.0
C100 C 0.92012 0.44826 0.8052 0.0
O101 O 0.89906 0.42042 0.83568 0.0
C102 C 0.95741 0.3019 0.02633 0.0
O103 O 0.91174 0.37103 0.20677 0.0
O104 O 0.97015 0.39253 0.21335 0.0
N105 N 0.85657 0.3552 0.85582 0.0
C106 C 0.82656 0.33769 0.9355 0.0
C107 C 0.80818 0.36448 0.66845 0.0
N108 N 0.84465 0.3716 0.69065 0.0
N109 N 0.79593 0.34337 0.81976 0.0
C110 C 0.04705 0.42475 0.76482 0.0
C111 C 0.08451 0.38027 0.83384 0.0
N112 N 0.02782 0.39903 0.87522 0.0
N113 N 0.05146 0.37176 0.91784 0.0
N114 N 0.08277 0.41315 0.73478 0.0
H115 H 1.01991 0.47807 0.77238 0.0
H116 H 0.04872 0.47108 0.55505 0.0
H117 H 1.00448 0.44769 0.57554 0.0
C118 C 0.02926 0.45729 0.66038 0.0
C119 C 0.82761 0.31561 0.12388 0.0
H120 H 0.80651 0.32673 0.22991 0.0
H121 H 0.82027 0.28612 0.09034 0.0
H122 H 0.85587 0.31668 0.19213 0.0
O123 O 0.92515 0.30968 -0.04336 0.0
O124 O 0.98422 0.32538 -0.00319 0.0
C125 C 0.94163 0.37902 0.30223 0.0
O126 O 0.97243 0.38032 0.59246 0.0
O127 O 0.91518 0.35914 0.58417 0.0
Zn128 Zn 0.35319 0.40837 0.1203 0.0
O129 O 0.35906 0.40813 0.42873 0.0
C130 C 0.2923 0.4572 0.26242 0.0
Zn131 Zn 0.37678 0.46599 0.14226 0.0
C132 C 0.36911 0.43684 0.5269 0.0
O133 O 0.38429 0.46495 0.44324 0.0
C134 C 0.36107 0.43805 0.73558 0.0
O135 O 0.4344 0.44591 0.07483 0.0
O136 O 0.40828 0.39057 0.05762 0.0
N137 N 0.39147 0.52184 0.10802 0.0
C138 C 0.41673 0.5402 -0.00893 0.0
C139 C 0.37358 0.57883 0.06661 0.0
N140 N 0.36505 0.5462 0.15471 0.0
N141 N 0.40561 0.57609 -0.03937 0.0
C142 C 0.35014 0.32246 0.17453 0.0
C143 C 0.3078 0.30657 -0.03418 0.0
N144 N 0.33506 0.35418 0.10298 0.0
N145 N 0.30877 0.34431 -0.02622 0.0
N146 N 0.33367 0.29233 0.08961 0.0
H147 H 0.4058 0.30459 0.24959 0.0
H148 H 0.37391 0.30793 0.45663 0.0
H149 H 0.39329 0.34966 0.34971 0.0
C150 C 0.38271 0.32136 0.31518 0.0
C151 C 0.44821 0.52132 0.88265 0.0
H152 H 0.4696 0.51215 -0.00823 0.0
H153 H 0.46151 0.54 0.77163 0.0
H154 H 0.43762 0.49618 0.80437 0.0
O155 O 0.36934 0.46683 0.83494 0.0
O156 O 0.34726 0.40967 0.81909 0.0
C157 C 0.43714 0.41098 0.03574 0.0
O158 O 0.29855 0.4252 0.18634 0.0
O159 O 0.31721 0.48273 0.23861 0.0
Zn160 Zn 0.47148 0.66759 0.75489 0.0
O161 O 0.45512 0.60911 0.81948 0.0
C162 C 0.44328 0.68129 0.16556 0.0
Zn163 Zn 0.4128 0.68871 0.76817 0.0
C164 C 0.42028 0.60568 0.8571 0.0
O165 O 0.39918 0.63345 0.82618 0.0
C166 C 0.45747 0.75202 0.63375 0.0
O167 O 0.41181 0.68282 0.4546 0.0
O168 O 0.47024 0.66138 0.44722 0.0
N169 N 0.35661 0.69863 0.80649 0.0
C170 C 0.32656 0.71607 0.72729 0.0
C171 C 0.30823 0.68926 -0.00531 0.0
N172 N 0.34472 0.68222 -0.02809 0.0
N173 N 0.29593 0.71031 0.84349 0.0
C174 C 0.54726 0.62924 0.89437 0.0
C175 C 0.58482 0.67352 0.82241 0.0
N176 N 0.52801 0.6549 0.78403 0.0
N177 N 0.55172 0.68205 0.73954 0.0
N178 N 0.58306 0.64075 0.92249 0.0
H179 H 0.52012 0.57591 0.8897 0.0
H180 H 0.5489 0.58326 0.10629 0.0
H181 H 0.50466 0.60661 0.0853 0.0
C182 C 0.52945 0.59688 0.0006 0.0
C183 C 0.32756 0.73814 0.53887 0.0
H184 H 0.30648 0.72699 0.43323 0.0
H185 H 0.3202 0.76763 0.57249 0.0
H186 H 0.35583 0.73711 0.4701 0.0
O187 O 0.42522 0.74421 0.70414 0.0
O188 O 0.48431 0.72857 0.66301 0.0
C189 C 0.44172 0.67488 0.35874 0.0
O190 O 0.47259 0.67371 0.06811 0.0
O191 O 0.41529 0.69475 0.07716 0.0
Zn192 Zn 0.6953 0.63661 0.11743 0.0
O193 O 0.68852 0.63756 0.42511 0.0
C194 C 0.76014 0.59552 0.25705 0.0
Zn195 Zn 0.67658 0.57666 0.12957 0.0
C196 C 0.6815 0.60728 0.51884 0.0
O197 O 0.66905 0.57829 0.43118 0.0
C198 C 0.69009 0.60516 0.72709 0.0
O199 O 0.61752 0.5914 0.05747 0.0
O200 O 0.64009 0.64811 0.0576 0.0
N201 N 0.66586 0.51876 0.10427 0.0
C202 C 0.63968 0.49787 0.00615 0.0
C203 C 0.68475 0.46158 0.08093 0.0
N204 N 0.69356 0.49579 0.15002 0.0
N205 N 0.65117 0.4617 -0.01147 0.0
C206 C 0.71848 0.72394 0.15982 0.0
C207 C 0.69253 0.74093 0.88791 0.0
N208 N 0.70301 0.6931 0.07791 0.0
N209 N 0.68712 0.70417 0.90969 0.0
N210 N 0.71198 0.75422 0.04259 0.0
H211 H 0.7266 0.7448 0.45493 0.0
H212 H 0.76868 0.73263 0.32334 0.0
H213 H 0.73902 0.69589 0.42168 0.0
C214 C 0.73931 0.72407 0.3521 0.0
C215 C 0.6063 0.5142 0.90269 0.0
H216 H 0.5859 0.52408 0.01557 0.0
H217 H 0.59236 0.49376 0.80384 0.0
H218 H 0.61514 0.53848 0.81113 0.0
O219 O 0.68396 0.57534 0.82246 0.0
O220 O 0.70211 0.6338 0.81459 0.0
C221 C 0.61307 0.62631 0.0233 0.0
O222 O 0.75086 0.627 0.18329 0.0
O223 O 0.73819 0.56728 0.22902 0.0
Zn224 Zn 0.64142 0.34673 0.82006 0.0
O225 O 0.64118 0.35222 0.51144 0.0
C226 C 0.59607 0.28382 0.67961 0.0
Zn227 Zn 0.58243 0.36788 0.79899 0.0
C228 C 0.61212 0.36144 0.41376 0.0
O229 O 0.58356 0.37568 0.49786 0.0
C230 C 0.61112 0.35349 0.2051 0.0
O231 O 0.60077 0.42641 0.86893 0.0
O232 O 0.65704 0.40209 0.87852 0.0
N233 N 0.52502 0.38036 0.82877 0.0
C234 C 0.50473 0.40635 0.93151 0.0
C235 C 0.46748 0.36233 0.85187 0.0
N236 N 0.50146 0.35334 0.78002 0.0
N237 N 0.46833 0.39536 0.94923 0.0
C238 C 0.72739 0.34751 0.7642 0.0
C239 C 0.74533 0.30607 -0.02644 0.0
N240 N 0.69642 0.33104 0.83686 0.0
N241 N 0.70756 0.30529 -0.03366 0.0
N242 N 0.75832 0.33251 0.84887 0.0
H243 H 0.74209 0.40405 0.68808 0.0
H244 H 0.74119 0.37188 0.48199 0.0
H245 H 0.69812 0.38882 0.58538 0.0
C246 C 0.72691 0.37996 0.62224 0.0
C247 C 0.52191 0.43899 0.03741 0.0
H248 H 0.53071 0.46022 0.92625 0.0
H249 H 0.5023 0.45204 0.14457 0.0
H250 H 0.54714 0.42969 0.11958 0.0
O251 O 0.58177 0.36016 0.10646 0.0
O252 O 0.64022 0.3413 0.12114 0.0
C253 C 0.63586 0.4302 0.90374 0.0
O254 O 0.62735 0.29162 0.75914 0.0
O255 O 0.56912 0.30739 0.70029 0.0
Zn256 Zn 0.85304 0.64584 0.54669 0.0
O257 O 0.85894 0.64607 0.23817 0.0
C258 C 0.7921 0.59705 0.40538 0.0
Zn259 Zn 0.8766 0.58821 0.52426 0.0
C260 C 0.86897 0.61737 0.13976 0.0
O261 O 0.88414 0.58925 0.22312 0.0
C262 C 0.86088 0.61616 0.93123 0.0
O263 O 0.93426 0.60822 0.59132 0.0
O264 O 0.9082 0.66359 0.60912 0.0
N265 N 0.89121 0.53235 0.55771 0.0
C266 C 0.9165 0.51389 0.67351 0.0
C267 C 0.87336 0.4753 0.59759 0.0
N268 N 0.8648 0.50802 0.51077 0.0
N269 N 0.90542 0.47794 0.70291 0.0
C270 C 0.85021 0.7317 0.49201 0.0
C271 C 0.80756 0.74776 0.69922 0.0
N272 N 0.83496 0.70005 0.56354 0.0
N273 N 0.80847 0.71001 0.69175 0.0
N274 N 0.83367 0.7619 0.57603 0.0
H275 H 0.90611 0.74922 0.41856 0.0
H276 H 0.87449 0.74628 0.21071 0.0
H277 H 0.8934 0.70433 0.31705 0.0
C278 C 0.88298 0.73268 0.35205 0.0
C279 C 0.94798 0.53266 0.78192 0.0
H280 H 0.96942 0.54185 0.67273 0.0
H281 H 0.96122 0.51391 0.89256 0.0
H282 H 0.93741 0.55778 0.86062 0.0
O283 O 0.86912 0.58737 0.83171 0.0
O284 O 0.84706 0.64455 0.848 0.0
C285 C 0.93703 0.64314 0.63085 0.0
O286 O 0.79837 0.62905 0.48131 0.0
O287 O 0.817 0.57151 0.42868 0.0
Zn288 Zn 0.6417 0.18894 0.39118 0.0
O289 O 0.64309 0.18181 0.69892 0.0
C290 C 0.59705 0.25185 0.53128 0.0
Zn291 Zn 0.58304 0.16758 0.40588 0.0
C292 C 0.61314 0.17389 0.79377 0.0
O293 O 0.58447 0.1605 0.70716 0.0
C294 C 0.6109 0.18246 0.00202 0.0
O295 O 0.59945 0.10923 0.3382 0.0
O296 O 0.65525 0.13387 0.32692 0.0
N297 N 0.52652 0.15482 0.3771 0.0
C298 C 0.50727 0.12923 0.26653 0.0
C299 C 0.46968 0.17339 0.33967 0.0
N300 N 0.5028 0.18189 0.42235 0.0
N301 N 0.47145 0.14071 0.23902 0.0
C302 C 0.72792 0.21601 0.43388 0.0
C303 C 0.74623 0.19041 0.1633 0.0
N304 N 0.69785 0.19901 0.35244 0.0
N305 N 0.70972 0.18335 0.18504 0.0
N306 N 0.75854 0.21073 0.31713 0.0
H307 H 0.74815 0.22559 0.72891 0.0
H308 H 0.73425 0.26683 0.59504 0.0
H309 H 0.69876 0.23577 0.69421 0.0
C310 C 0.72697 0.23718 0.6251 0.0
C311 C 0.52509 0.09705 0.15913 0.0
H312 H 0.5347 0.07604 0.26932 0.0
H313 H 0.50557 0.08341 0.05404 0.0
H314 H 0.5497 0.107 0.07352 0.0
O315 O 0.5817 0.17448 0.09868 0.0
O316 O 0.63884 0.19628 0.08844 0.0
C317 C 0.6342 0.10599 0.29782 0.0
O318 O 0.62933 0.24414 0.46119 0.0
O319 O 0.5702 0.22845 0.50105 0.0
Zn320 Zn 0.17654 0.47742 0.53387 0.0
O321 O 0.11732 0.46265 0.60167 0.0
C322 C 0.18896 0.44865 0.94357 0.0
Zn323 Zn 0.19524 0.41759 0.54542 0.0
C324 C 0.11283 0.4277 0.63433 0.0
O325 O 0.1399 0.40595 0.59995 0.0
C326 C 0.26033 0.45875 0.41113 0.0
O327 O 0.18954 0.41697 0.2318 0.0
O328 O 0.17012 0.47611 0.22615 0.0
N329 N 0.20292 0.3611 0.58394 0.0
C330 C 0.21863 0.33036 0.50209 0.0
C331 C 0.19216 0.31311 0.77253 0.0
N332 N 0.18671 0.34988 0.75124 0.0
N333 N 0.21198 0.29999 0.61845 0.0
C334 C 0.13957 0.55609 0.65862 0.0
C335 C 0.18471 0.59243 0.58484 0.0
N336 N 0.16582 0.53528 0.5601 0.0
N337 N 0.19356 0.55828 0.51497 0.0
N338 N 0.15106 0.59223 0.67717 0.0
H339 H 0.08565 0.53018 0.64779 0.0
H340 H 0.0922 0.55998 0.86144 0.0
H341 H 0.11471 0.51514 0.85109 0.0
C342 C 0.10606 0.53968 0.76122 0.0
C343 C 0.23987 0.33042 0.31081 0.0
H344 H 0.22742 0.30976 0.20692 0.0
H345 H 0.26918 0.32187 0.34088 0.0
H346 H 0.23972 0.35865 0.24191 0.0
O347 O 0.25099 0.42727 0.48479 0.0
O348 O 0.23831 0.48694 0.43853 0.0
C349 C 0.18258 0.4472 0.1368 0.0
O350 O 0.18284 0.47841 0.847 0.0
O351 O 0.20095 0.42006 0.85439 0.0
Zn352 Zn 0.41305 0.84681 0.34308 0.0
O353 O 0.41328 0.85239 0.65157 0.0
C354 C 0.45837 0.78397 0.48501 0.0
Zn355 Zn 0.47204 0.86799 0.3638 0.0
C356 C 0.44235 0.86156 0.74918 0.0
O357 O 0.47093 0.87578 0.66497 0.0
C358 C 0.44334 0.85356 -0.04212 0.0
O359 O 0.45369 0.92649 0.29345 0.0
O360 O 0.39744 0.90214 0.28372 0.0
N361 N 0.52945 0.88047 0.33265 0.0
C362 C 0.54963 0.90641 0.22872 0.0
C363 C 0.5869 0.86231 0.30691 0.0
N364 N 0.55301 0.85339 0.38041 0.0
N365 N 0.58597 0.89534 0.20926 0.0
C366 C 0.32708 0.84755 0.39911 0.0
C367 C 0.30916 0.80618 0.18957 0.0
N368 N 0.35806 0.83114 0.32628 0.0
N369 N 0.34692 0.80544 0.19665 0.0
N370 N 0.29616 0.83253 0.31453 0.0
H371 H 0.31222 0.90401 0.4755 0.0
H372 H 0.31342 0.87178 0.68158 0.0
H373 H 0.35634 0.88894 0.57715 0.0
C374 C 0.32755 0.87996 0.541 0.0
C375 C 0.53237 0.93914 0.1237 0.0
H376 H 0.5235 0.9602 0.23542 0.0
H377 H 0.55193 0.95238 0.01686 0.0
H378 H 0.50715 0.92986 0.04132 0.0
O379 O 0.47267 0.86027 0.0565 0.0
O380 O 0.41427 0.84131 0.04191 0.0
C381 C 0.41861 0.93027 0.25848 0.0
O382 O 0.42708 0.79172 0.40534 0.0
O383 O 0.48535 0.8075 0.46331 0.0
Zn384 Zn 0.87814 0.97734 0.63211 0.0
O385 O 0.93738 0.96264 0.56401 0.0
C386 C 0.86575 0.94857 0.22279 0.0
Zn387 Zn 0.85952 0.9175 0.62134 0.0
C388 C 0.94189 0.92769 0.53178 0.0
O389 O 0.91486 0.90592 0.56692 0.0
C390 C 0.79441 0.9586 0.75543 0.0
O391 O 0.86522 0.91685 0.93494 0.0
O392 O 0.88459 0.97601 0.93989 0.0
N393 N 0.85191 0.86101 0.58284 0.0
C394 C 0.83598 0.83022 0.66336 0.0
C395 C 0.86293 0.81316 0.39406 0.0
N396 N 0.86842 0.8499 0.41626 0.0
N397 N 0.8428 0.79994 0.54684 0.0
C398 C 0.91501 0.05602 0.50661 0.0
C399 C 0.86986 0.09231 0.58045 0.0
N400 N 0.88881 0.0352 0.60553 0.0
N401 N 0.86106 0.05816 0.65069 0.0
N402 N 0.90348 0.09215 0.48784 0.0
H403 H 0.96896 0.03019 0.51708 0.0
H404 H 0.9623 0.05996 0.30322 0.0
H405 H 0.93984 1.01511 0.31423 0.0
C406 C 0.94849 0.03966 0.4038 0.0
C407 C 0.81437 0.83017 0.85346 0.0
H408 H 0.82656 0.80939 -0.04229 0.0
H409 H 0.78509 0.82173 0.8217 0.0
H410 H 0.81448 0.85835 0.92282 0.0
O411 O 0.80377 0.92713 0.68199 0.0
O412 O 0.81639 0.98682 0.72763 0.0
C413 C 0.87214 0.9471 0.02958 0.0
O414 O 0.87182 0.97835 0.319 0.0
O415 O 0.8538 0.91998 0.31232 0.0
Zn416 Zn 0.91311 0.20697 0.31695 0.0
O417 O 0.91331 0.20143 0.00848 0.0
C418 C 0.95836 0.26989 0.1747 0.0
Zn419 Zn 0.97215 0.18593 0.29561 0.0
C420 C 0.94241 0.19229 0.91055 0.0
O421 O 0.971 0.17811 -0.00555 0.0
C422 C 0.94345 0.20028 0.70182 0.0
O423 O 0.95386 0.12741 0.36677 0.0
O424 O 0.89755 0.15166 0.37631 0.0
N425 N 0.02961 0.1735 0.32488 0.0
C426 C 0.04989 0.14758 0.42798 0.0
C427 C 0.08711 0.19165 0.34781 0.0
N428 N 0.05314 0.20057 0.27582 0.0
N429 N 0.08626 0.15864 0.44564 0.0
C430 C 0.8271 0.20627 0.26211 0.0
C431 C 0.8092 0.2475 0.47271 0.0
N432 N 0.85809 0.22258 0.33496 0.0
N433 N 0.84697 0.24818 0.46528 0.0
N434 N 0.79618 0.22126 0.34737 0.0
H435 H 0.81186 0.15001 0.18385 0.0
H436 H 0.81369 0.1824 -0.02132 0.0
H437 H 0.8563 0.16479 0.08399 0.0
C438 C 0.82752 0.17397 0.11946 0.0
C439 C 0.03271 0.11491 0.53428 0.0
H440 H 1.02391 0.09371 0.42334 0.0
H441 H 0.05231 0.10185 0.64119 0.0
H442 H 1.00747 0.12421 0.6168 0.0
O443 O 0.97283 0.19368 0.60291 0.0
O444 O 0.91435 0.21243 0.61809 0.0
C445 C 0.91876 0.1236 0.402 0.0
O446 O 0.92708 0.26208 0.25476 0.0
O447 O 0.98538 0.24642 0.19581 0.0
Zn448 Zn 0.2014 0.14585 0.61593 0.0
O449 O 0.19554 0.14605 0.9244 0.0
C450 C 0.26238 0.09711 0.75711 0.0
Zn451 Zn 0.17791 0.08818 0.63871 0.0
C452 C 0.18553 0.11735 0.02303 0.0
O453 O 0.17039 0.08921 0.93988 0.0
C454 C 0.19358 0.11617 0.23158 0.0
O455 O 0.12024 0.10816 0.57177 0.0
O456 O 0.14626 0.16356 0.55385 0.0
N457 N 0.16333 0.0323 0.60558 0.0
C458 C 0.13805 1.01383 0.48979 0.0
C459 C 0.18119 0.97526 0.56612 0.0
N460 N 0.18974 1.00797 0.65276 0.0
N461 N 0.14914 0.97789 0.46064 0.0
C462 C 0.2043 0.23171 0.67134 0.0
C463 C 0.24687 0.24787 0.46374 0.0
N464 N 0.21943 0.20009 0.59894 0.0
N465 N 0.24587 0.21012 0.47045 0.0
N466 N 0.22086 0.26195 0.58764 0.0
H467 H 0.14858 0.24948 0.74665 0.0
H468 H 0.18031 0.24589 0.95373 0.0
H469 H 0.161 0.20429 0.84565 0.0
C470 C 0.17162 0.23264 0.81189 0.0
C471 C 0.10659 0.03261 0.3812 0.0
H472 H 0.08511 0.04172 0.49024 0.0
H473 H 0.09341 1.01389 0.27037 0.0
H474 H 0.11714 0.05778 0.30267 0.0
O475 O 0.18538 0.08736 0.33133 0.0
O476 O 0.20733 0.14459 0.3146 0.0
C477 C 0.11744 0.14309 0.5323 0.0
O478 O 0.25607 0.1291 0.68103 0.0
O479 O 0.23751 0.07153 0.73411 0.0
Zn480 Zn 0.08317 0.88637 0.2582 0.0
O481 O 0.0996 0.94483 0.32134 0.0
C482 C 0.11133 0.8726 0.66876 0.0
Zn483 Zn 0.14175 0.8651 0.27113 0.0
C484 C 0.13443 0.94821 0.35862 0.0
O485 O 0.15548 0.92035 0.32849 0.0
C486 C 0.09702 0.80189 0.13785 0.0
O487 O 0.14273 0.871 -0.04255 0.0
O488 O 0.08435 0.89256 0.95055 0.0
N489 N 0.19788 0.85508 0.30842 0.0
C490 C 0.22791 0.83771 0.22824 0.0
C491 C 0.24628 0.86423 0.49585 0.0
N492 N 0.2098 0.87131 0.47395 0.0
N493 N 0.25854 0.84333 0.34393 0.0
C494 C 1.00756 0.92478 0.39972 0.0
C495 C 0.97005 0.88029 0.33188 0.0
N496 N 1.02671 0.89908 0.28905 0.0
N497 N 1.00303 0.87179 0.24717 0.0
N498 N 0.97186 0.91316 0.4307 0.0
H499 H 0.03478 0.97807 0.39123 0.0
H500 H 1.006 0.97116 0.60882 0.0
H501 H 0.0502 0.9477 0.58845 0.0
C502 C 1.02542 0.95732 0.50358 0.0
C503 C 0.22688 0.81584 0.03934 0.0
H504 H 0.24795 0.8271 0.93352 0.0
H505 H 0.23425 0.78632 0.07217 0.0
H506 H 0.19861 0.81693 -0.02882 0.0
O507 O 0.12927 0.80962 0.20774 0.0
O508 O 0.07022 0.82539 0.1673 0.0
C509 C 0.11286 0.879 0.86185 0.0
O510 O 0.08208 0.8803 0.57153 0.0
O511 O 0.13928 0.85904 0.58018 0.0
loop_
_geom_bond_atom_site_label_1
_geom_bond_atom_site_label_2
_geom_bond_distance
_geom_bond_site_symmetry_2
_ccdc_geom_bond_type
Zn0 O1 2.055 1_554 S
Zn0 O8 2.046 . S
Zn0 N16 2.036 . S
Zn0 O28 2.053 . S
Zn0 O30 2.066 . S
O1 Zn0 2.055 1_556 S
O1 C4 1.259 . S
C2 O30 1.256 . S
C2 O31 1.244 . S
Zn3 O5 2.046 1_554 S
Zn3 O7 2.055 . S
Zn3 N9 2.036 1_545 S
Zn3 O27 2.066 . S
Zn3 O31 2.053 . S
C4 O1 1.259 . S
C4 O5 1.254 . S
O5 Zn3 2.046 1_556 S
O5 C4 1.254 . S
C6 O27 1.256 . S
C6 O28 1.244 . S
O7 Zn3 2.055 . S
O7 C29 1.259 . S
O8 Zn0 2.046 . S
O8 C29 1.254 . S
N9 Zn3 2.036 1_565 S
N9 C10 1.298 . S
N9 N12 1.398 . S
C10 N9 1.298 . S
C10 N13 1.367 . S
C10 C23 1.481 . S
C11 N12 1.299 . S
C11 N13 1.379 . S
N12 N9 1.398 . S
N12 C11 1.299 . S
N13 C10 1.367 . S
N13 C11 1.379 . S
C14 N16 1.298 1_556 S
C14 N18 1.367 1_556 S
C14 C22 1.481 . S
C15 N17 1.299 . S
C15 N18 1.379 . S
N16 Zn0 2.036 . S
N16 C14 1.298 1_554 S
N16 N17 1.398 . S
N17 C15 1.299 . S
N17 N16 1.398 . S
N18 C14 1.367 1_554 S
N18 C15 1.379 . S
H19 C22 0.980 . S
H20 C22 0.981 . S
H21 C22 0.981 . S
C22 C14 1.481 . S
C22 H19 0.980 . S
C22 H20 0.981 . S
C22 H21 0.981 . S
C23 C10 1.481 . S
C23 H24 0.980 1_565 S
C23 H25 0.981 . S
C23 H26 0.981 . S
H24 C23 0.980 1_545 S
H25 C23 0.981 . S
H26 C23 0.981 . S
O27 Zn3 2.066 . S
O27 C6 1.256 . S
O28 Zn0 2.053 . S
O28 C6 1.244 . S
C29 O7 1.259 . S
C29 O8 1.254 . S
O30 Zn0 2.066 . S
O30 C2 1.256 . S
O31 C2 1.244 . S
O31 Zn3 2.053 . S
Zn32 O33 2.055 1_556 S
Zn32 O40 2.046 . S
Zn32 N48 2.036 . S
Zn32 O60 2.053 . S
Zn32 O62 2.066 . S
O33 Zn32 2.055 1_554 S
O33 C36 1.259 . S
C34 O62 1.256 . S
C34 O63 1.244 . S
Zn35 O37 2.046 1_556 S
Zn35 O39 2.055 . S
Zn35 N41 2.036 1_455 S
Zn35 O59 2.066 . S
Zn35 O63 2.053 . S
C36 O33 1.259 . S
C36 O37 1.254 . S
O37 Zn35 2.046 1_554 S
O37 C36 1.254 . S
C38 O59 1.256 . S
C38 O60 1.244 . S
O39 Zn35 2.055 . S
O39 C61 1.259 . S
O40 Zn32 2.046 . S
O40 C61 1.254 . S
N41 Zn35 2.036 1_655 S
N41 C42 1.298 . S
N41 N44 1.398 . S
C42 N41 1.298 . S
C42 N45 1.367 . S
C42 C55 1.481 . S
C43 N44 1.299 . S
C43 N45 1.379 . S
N44 N41 1.398 . S
N44 C43 1.299 . S
N45 C42 1.367 . S
N45 C43 1.379 . S
C46 N48 1.298 1_554 S
C46 N50 1.367 1_554 S
C46 C54 1.481 . S
C47 N49 1.299 . S
C47 N50 1.379 . S
N48 Zn32 2.036 . S
N48 C46 1.298 1_556 S
N48 N49 1.398 . S
N49 C47 1.299 . S
N49 N48 1.398 . S
N50 C46 1.367 1_556 S
N50 C47 1.379 . S
H51 C54 0.980 . S
H52 C54 0.981 . S
H53 C54 0.981 . S
C54 C46 1.481 . S
C54 H51 0.980 . S
C54 H52 0.981 . S
C54 H53 0.981 . S
C55 C42 1.481 . S
C55 H56 0.980 1_655 S
C55 H57 0.981 . S
C55 H58 0.981 . S
H56 C55 0.980 1_455 S
H57 C55 0.981 . S
H58 C55 0.981 . S
O59 Zn35 2.066 . S
O59 C38 1.256 . S
O60 Zn32 2.053 . S
O60 C38 1.244 . S
C61 O39 1.259 . S
C61 O40 1.254 . S
O62 Zn32 2.066 . S
O62 C34 1.256 . S
O63 C34 1.244 . S
O63 Zn35 2.053 . S
Zn64 O65 2.055 . S
Zn64 O72 2.046 1_554 S
Zn64 N80 2.036 1_565 S
Zn64 O92 2.053 . S
Zn64 O94 2.066 . S
O65 Zn64 2.055 . S
O65 C68 1.259 . S
C66 O94 1.256 . S
C66 O95 1.244 . S
Zn67 O69 2.046 . S
Zn67 O71 2.055 1_554 S
Zn67 N73 2.036 . S
Zn67 O91 2.066 . S
Zn67 O95 2.053 . S
C68 O65 1.259 . S
C68 O69 1.254 . S
O69 Zn67 2.046 . S
O69 C68 1.254 . S
C70 O91 1.256 . S
C70 O92 1.244 . S
O71 Zn67 2.055 1_556 S
O71 C93 1.259 . S
O72 Zn64 2.046 1_556 S
O72 C93 1.254 . S
N73 Zn67 2.036 . S
N73 C74 1.298 1_554 S
N73 N76 1.398 . S
C74 N73 1.298 1_556 S
C74 N77 1.367 1_556 S
C74 C87 1.481 . S
C75 N76 1.299 . S
C75 N77 1.379 . S
N76 N73 1.398 . S
N76 C75 1.299 . S
N77 C74 1.367 1_554 S
N77 C75 1.379 . S
C78 N80 1.298 . S
C78 N82 1.367 . S
C78 C86 1.481 . S
C79 N81 1.299 . S
C79 N82 1.379 . S
N80 Zn64 2.036 1_545 S
N80 C78 1.298 . S
N80 N81 1.398 . S
N81 C79 1.299 . S
N81 N80 1.398 . S
N82 C78 1.367 . S
N82 C79 1.379 . S
H83 C86 0.980 1_565 S
H84 C86 0.981 . S
H85 C86 0.981 . S
C86 C78 1.481 . S
C86 H83 0.980 1_545 S
C86 H84 0.981 . S
C86 H85 0.981 . S
C87 C74 1.481 . S
C87 H88 0.980 . S
C87 H89 0.981 . S
C87 H90 0.981 . S
H88 C87 0.980 . S
H89 C87 0.981 . S
H90 C87 0.981 . S
O91 Zn67 2.066 . S
O91 C70 1.256 . S
O92 Zn64 2.053 . S
O92 C70 1.244 . S
C93 O71 1.259 . S
C93 O72 1.254 . S
O94 Zn64 2.066 . S
O94 C66 1.256 . S
O95 C66 1.244 . S
O95 Zn67 2.053 . S
Zn96 O97 2.055 . S
Zn96 O104 2.046 1_556 S
Zn96 N112 2.036 1_655 S
Zn96 O124 2.053 . S
Zn96 O126 2.066 . S
O97 Zn96 2.055 . S
O97 C100 1.259 . S
C98 O126 1.256 . S
C98 O127 1.244 . S
Zn99 O101 2.046 . S
Zn99 O103 2.055 1_556 S
Zn99 N105 2.036 . S
Zn99 O123 2.066 . S
Zn99 O127 2.053 . S
C100 O97 1.259 . S
C100 O101 1.254 . S
O101 Zn99 2.046 . S
O101 C100 1.254 . S
C102 O123 1.256 . S
C102 O124 1.244 . S
O103 Zn99 2.055 1_554 S
O103 C125 1.259 . S
O104 Zn96 2.046 1_554 S
O104 C125 1.254 . S
N105 Zn99 2.036 . S
N105 C106 1.298 1_556 S
N105 N108 1.398 . S
C106 N105 1.298 1_554 S
C106 N109 1.367 1_554 S
C106 C119 1.481 . S
C107 N108 1.299 . S
C107 N109 1.379 . S
N108 N105 1.398 . S
N108 C107 1.299 . S
N109 C106 1.367 1_556 S
N109 C107 1.379 . S
C110 N112 1.298 . S
C110 N114 1.367 . S
C110 C118 1.481 . S
C111 N113 1.299 . S
C111 N114 1.379 . S
N112 Zn96 2.036 1_455 S
N112 C110 1.298 . S
N112 N113 1.398 . S
N113 C111 1.299 . S
N113 N112 1.398 . S
N114 C110 1.367 . S
N114 C111 1.379 . S
H115 C118 0.980 1_655 S
H116 C118 0.981 . S
H117 C118 0.981 . S
C118 C110 1.481 . S
C118 H115 0.980 1_455 S
C118 H116 0.981 . S
C118 H117 0.981 . S
C119 C106 1.481 . S
C119 H120 0.980 . S
C119 H121 0.981 . S
C119 H122 0.981 . S
H120 C119 0.980 . S
H121 C119 0.981 . S
H122 C119 0.981 . S
O123 Zn99 2.066 . S
O123 C102 1.256 . S
O124 Zn96 2.053 . S
O124 C102 1.244 . S
C125 O103 1.259 . S
C125 O104 1.254 . S
O126 Zn96 2.066 . S
O126 C98 1.256 . S
O127 C98 1.244 . S
O127 Zn99 2.053 . S
Zn128 O129 2.055 . S
Zn128 O136 2.046 . S
Zn128 N144 2.036 . S
Zn128 O156 2.053 1_554 S
Zn128 O158 2.066 . S
O129 Zn128 2.055 . S
O129 C132 1.259 . S
C130 O158 1.256 . S
C130 O159 1.244 . S
Zn131 O133 2.046 . S
Zn131 O135 2.055 . S
Zn131 N137 2.036 . S
Zn131 O155 2.066 1_554 S
Zn131 O159 2.053 . S
C132 O129 1.259 . S
C132 O133 1.254 . S
O133 Zn131 2.046 . S
O133 C132 1.254 . S
C134 O155 1.256 . S
C134 O156 1.244 . S
O135 Zn131 2.055 . S
O135 C157 1.259 . S
O136 Zn128 2.046 . S
O136 C157 1.254 . S
N137 Zn131 2.036 . S
N137 C138 1.298 . S
N137 N140 1.398 . S
C138 N137 1.298 . S
C138 N141 1.367 . S
C138 C151 1.481 1_554 S
C139 N140 1.299 . S
C139 N141 1.379 . S
N140 N137 1.398 . S
N140 C139 1.299 . S
N141 C138 1.367 . S
N141 C139 1.379 . S
C142 N144 1.298 . S
C142 N146 1.367 . S
C142 C150 1.481 . S
C143 N145 1.299 . S
C143 N146 1.379 1_556 S
N144 Zn128 2.036 . S
N144 C142 1.298 . S
N144 N145 1.398 1_554 S
N145 C143 1.299 . S
N145 N144 1.398 1_556 S
N146 C142 1.367 . S
N146 C143 1.379 1_554 S
H147 C150 0.980 . S
H148 C150 0.981 . S
H149 C150 0.981 . S
C150 C142 1.481 . S
C150 H147 0.980 . S
C150 H148 0.981 . S
C150 H149 0.981 . S
C151 C138 1.481 1_556 S
C151 H152 0.980 . S
C151 H153 0.981 . S
C151 H154 0.981 . S
H152 C151 0.980 . S
H153 C151 0.981 . S
H154 C151 0.981 . S
O155 Zn131 2.066 1_556 S
O155 C134 1.256 . S
O156 Zn128 2.053 1_556 S
O156 C134 1.244 . S
C157 O135 1.259 . S
C157 O136 1.254 . S
O158 Zn128 2.066 . S
O158 C130 1.256 . S
O159 C130 1.244 . S
O159 Zn131 2.053 . S
Zn160 O161 2.055 . S
Zn160 O168 2.046 . S
Zn160 N176 2.036 . S
Zn160 O188 2.053 . S
Zn160 O190 2.066 1_556 S
O161 Zn160 2.055 . S
O161 C164 1.259 . S
C162 O190 1.256 . S
C162 O191 1.244 . S
Zn163 O165 2.046 . S
Zn163 O167 2.055 . S
Zn163 N169 2.036 . S
Zn163 O187 2.066 . S
Zn163 O191 2.053 1_556 S
C164 O161 1.259 . S
C164 O165 1.254 . S
O165 Zn163 2.046 . S
O165 C164 1.254 . S
C166 O187 1.256 . S
C166 O188 1.244 . S
O167 Zn163 2.055 . S
O167 C189 1.259 . S
O168 Zn160 2.046 . S
O168 C189 1.254 . S
N169 Zn163 2.036 . S
N169 C170 1.298 . S
N169 N172 1.398 1_556 S
C170 N169 1.298 . S
C170 N173 1.367 . S
C170 C183 1.481 . S
C171 N172 1.299 . S
C171 N173 1.379 1_554 S
N172 N169 1.398 1_554 S
N172 C171 1.299 . S
N173 C170 1.367 . S
N173 C171 1.379 1_556 S
C174 N176 1.298 . S
C174 N178 1.367 . S
C174 C182 1.481 1_556 S
C175 N177 1.299 . S
C175 N178 1.379 . S
N176 Zn160 2.036 . S
N176 C174 1.298 . S
N176 N177 1.398 . S
N177 C175 1.299 . S
N177 N176 1.398 . S
N178 C174 1.367 . S
N178 C175 1.379 . S
H179 C182 0.980 . S
H180 C182 0.981 . S
H181 C182 0.981 . S
C182 C174 1.481 1_554 S
C182 H179 0.980 . S
C182 H180 0.981 . S
C182 H181 0.981 . S
C183 C170 1.481 . S
C183 H184 0.980 . S
C183 H185 0.981 . S
C183 H186 0.981 . S
H184 C183 0.980 . S
H185 C183 0.981 . S
H186 C183 0.981 . S
O187 Zn163 2.066 . S
O187 C166 1.256 . S
O188 Zn160 2.053 . S
O188 C166 1.244 . S
C189 O167 1.259 . S
C189 O168 1.254 . S
O190 Zn160 2.066 1_554 S
O190 C162 1.256 . S
O191 C162 1.244 . S
O191 Zn163 2.053 1_554 S
Zn192 O193 2.055 . S
Zn192 O200 2.046 . S
Zn192 N208 2.036 . S
Zn192 O220 2.053 1_554 S
Zn192 O222 2.066 . S
O193 Zn192 2.055 . S
O193 C196 1.259 . S
C194 O222 1.256 . S
C194 O223 1.244 . S
Zn195 O197 2.046 . S
Zn195 O199 2.055 . S
Zn195 N201 2.036 . S
Zn195 O219 2.066 1_554 S
Zn195 O223 2.053 . S
C196 O193 1.259 . S
C196 O197 1.254 . S
O197 Zn195 2.046 . S
O197 C196 1.254 . S
C198 O219 1.256 . S
C198 O220 1.244 . S
O199 Zn195 2.055 . S
O199 C221 1.259 . S
O200 Zn192 2.046 . S
O200 C221 1.254 . S
N201 Zn195 2.036 . S
N201 C202 1.298 . S
N201 N204 1.398 . S
C202 N201 1.298 . S
C202 N205 1.367 . S
C202 C215 1.481 1_554 S
C203 N204 1.299 . S
C203 N205 1.379 . S
N204 N201 1.398 . S
N204 C203 1.299 . S
N205 C202 1.367 . S
N205 C203 1.379 . S
C206 N208 1.298 . S
C206 N210 1.367 . S
C206 C214 1.481 . S
C207 N209 1.299 . S
C207 N210 1.379 1_556 S
N208 Zn192 2.036 . S
N208 C206 1.298 . S
N208 N209 1.398 1_554 S
N209 C207 1.299 . S
N209 N208 1.398 1_556 S
N210 C206 1.367 . S
N210 C207 1.379 1_554 S
H211 C214 0.980 . S
H212 C214 0.981 . S
H213 C214 0.981 . S
C214 C206 1.481 . S
C214 H211 0.980 . S
C214 H212 0.981 . S
C214 H213 0.981 . S
C215 C202 1.481 1_556 S
C215 H216 0.980 . S
C215 H217 0.981 . S
C215 H218 0.981 . S
H216 C215 0.980 . S
H217 C215 0.981 . S
H218 C215 0.981 . S
O219 Zn195 2.066 1_556 S
O219 C198 1.256 . S
O220 Zn192 2.053 1_556 S
O220 C198 1.244 . S
C221 O199 1.259 . S
C221 O200 1.254 . S
O222 Zn192 2.066 . S
O222 C194 1.256 . S
O223 C194 1.244 . S
O223 Zn195 2.053 . S
Zn224 O225 2.055 . S
Zn224 O232 2.046 . S
Zn224 N240 2.036 . S
Zn224 O252 2.053 1_556 S
Zn224 O254 2.066 . S
O225 Zn224 2.055 . S
O225 C228 1.259 . S
C226 O254 1.256 . S
C226 O255 1.244 . S
Zn227 O229 2.046 . S
Zn227 O231 2.055 . S
Zn227 N233 2.036 . S
Zn227 O251 2.066 1_556 S
Zn227 O255 2.053 . S
C228 O225 1.259 . S
C228 O229 1.254 . S
O229 Zn227 2.046 . S
O229 C228 1.254 . S
C230 O251 1.256 . S
C230 O252 1.244 . S
O231 Zn227 2.055 . S
O231 C253 1.259 . S
O232 Zn224 2.046 . S
O232 C253 1.254 . S
N233 Zn227 2.036 . S
N233 C234 1.298 . S
N233 N236 1.398 . S
C234 N233 1.298 . S
C234 N237 1.367 . S
C234 C247 1.481 1_556 S
C235 N236 1.299 . S
C235 N237 1.379 . S
N236 N233 1.398 . S
N236 C235 1.299 . S
N237 C234 1.367 . S
N237 C235 1.379 . S
C238 N240 1.298 . S
C238 N242 1.367 . S
C238 C246 1.481 . S
C239 N241 1.299 . S
C239 N242 1.379 1_554 S
N240 Zn224 2.036 . S
N240 C238 1.298 . S
N240 N241 1.398 1_556 S
N241 C239 1.299 . S
N241 N240 1.398 1_554 S
N242 C238 1.367 . S
N242 C239 1.379 1_556 S
H243 C246 0.980 . S
H244 C246 0.981 . S
H245 C246 0.981 . S
C246 C238 1.481 . S
C246 H243 0.980 . S
C246 H244 0.981 . S
C246 H245 0.981 . S
C247 C234 1.481 1_554 S
C247 H248 0.980 . S
C247 H249 0.981 . S
C247 H250 0.981 . S
H248 C247 0.980 . S
H249 C247 0.981 . S
H250 C247 0.981 . S
O251 Zn227 2.066 1_554 S
O251 C230 1.256 . S
O252 Zn224 2.053 1_554 S
O252 C230 1.244 . S
C253 O231 1.259 . S
C253 O232 1.254 . S
O254 Zn224 2.066 . S
O254 C226 1.256 . S
O255 C226 1.244 . S
O255 Zn227 2.053 . S
Zn256 O257 2.055 . S
Zn256 O264 2.046 . S
Zn256 N272 2.036 . S
Zn256 O284 2.053 . S
Zn256 O286 2.066 . S
O257 Zn256 2.055 . S
O257 C260 1.259 . S
C258 O286 1.256 . S
C258 O287 1.244 . S
Zn259 O261 2.046 . S
Zn259 O263 2.055 . S
Zn259 N265 2.036 . S
Zn259 O283 2.066 . S
Zn259 O287 2.053 . S
C260 O257 1.259 . S
C260 O261 1.254 . S
O261 Zn259 2.046 . S
O261 C260 1.254 . S
C262 O283 1.256 1_554 S
C262 O284 1.244 1_554 S
O263 Zn259 2.055 . S
O263 C285 1.259 . S
O264 Zn256 2.046 . S
O264 C285 1.254 . S
N265 Zn259 2.036 . S
N265 C266 1.298 . S
N265 N268 1.398 . S
C266 N265 1.298 . S
C266 N269 1.367 . S
C266 C279 1.481 . S
C267 N268 1.299 . S
C267 N269 1.379 . S
N268 N265 1.398 . S
N268 C267 1.299 . S
N269 C266 1.367 . S
N269 C267 1.379 . S
C270 N272 1.298 . S
C270 N274 1.367 . S
C270 C278 1.481 . S
C271 N273 1.299 . S
C271 N274 1.379 . S
N272 Zn256 2.036 . S
N272 C270 1.298 . S
N272 N273 1.398 . S
N273 C271 1.299 . S
N273 N272 1.398 . S
N274 C270 1.367 . S
N274 C271 1.379 . S
H275 C278 0.980 . S
H276 C278 0.981 . S
H277 C278 0.981 . S
C278 C270 1.481 . S
C278 H275 0.980 . S
C278 H276 0.981 . S
C278 H277 0.981 . S
C279 C266 1.481 . S
C279 H280 0.980 . S
C279 H281 0.981 . S
C279 H282 0.981 1_556 S
H280 C279 0.980 . S
H281 C279 0.981 . S
H282 C279 0.981 1_554 S
O283 Zn259 2.066 . S
O283 C262 1.256 1_556 S
O284 Zn256 2.053 . S
O284 C262 1.244 1_556 S
C285 O263 1.259 . S
C285 O264 1.254 . S
O286 Zn256 2.066 . S
O286 C258 1.256 . S
O287 C258 1.244 . S
O287 Zn259 2.053 . S
Zn288 O289 2.055 . S
Zn288 O296 2.046 . S
Zn288 N304 2.036 . S
Zn288 O316 2.053 . S
Zn288 O318 2.066 . S
O289 Zn288 2.055 . S
O289 C292 1.259 . S
C290 O318 1.256 . S
C290 O319 1.244 . S
Zn291 O293 2.046 . S
Zn291 O295 2.055 . S
Zn291 N297 2.036 . S
Zn291 O315 2.066 . S
Zn291 O319 2.053 . S
C292 O289 1.259 . S
C292 O293 1.254 . S
O293 Zn291 2.046 . S
O293 C292 1.254 . S
C294 O315 1.256 1_556 S
C294 O316 1.244 1_556 S
O295 Zn291 2.055 . S
O295 C317 1.259 . S
O296 Zn288 2.046 . S
O296 C317 1.254 . S
N297 Zn291 2.036 . S
N297 C298 1.298 . S
N297 N300 1.398 . S
C298 N297 1.298 . S
C298 N301 1.367 . S
C298 C311 1.481 . S
C299 N300 1.299 . S
C299 N301 1.379 . S
N300 N297 1.398 . S
N300 C299 1.299 . S
N301 C298 1.367 . S
N301 C299 1.379 . S
C302 N304 1.298 . S
C302 N306 1.367 . S
C302 C310 1.481 . S
C303 N305 1.299 . S
C303 N306 1.379 . S
N304 Zn288 2.036 . S
N304 C302 1.298 . S
N304 N305 1.398 . S
N305 C303 1.299 . S
N305 N304 1.398 . S
N306 C302 1.367 . S
N306 C303 1.379 . S
H307 C310 0.980 . S
H308 C310 0.981 . S
H309 C310 0.981 . S
C310 C302 1.481 . S
C310 H307 0.980 . S
C310 H308 0.981 . S
C310 H309 0.981 . S
C311 C298 1.481 . S
C311 H312 0.980 . S
C311 H313 0.981 . S
C311 H314 0.981 1_554 S
H312 C311 0.980 . S
H313 C311 0.981 . S
H314 C311 0.981 1_556 S
O315 Zn291 2.066 . S
O315 C294 1.256 1_554 S
O316 Zn288 2.053 . S
O316 C294 1.244 1_554 S
C317 O295 1.259 . S
C317 O296 1.254 . S
O318 Zn288 2.066 . S
O318 C290 1.256 . S
O319 C290 1.244 . S
O319 Zn291 2.053 . S
Zn320 O321 2.055 . S
Zn320 O328 2.046 . S
Zn320 N336 2.036 . S
Zn320 O348 2.053 . S
Zn320 O350 2.066 . S
O321 Zn320 2.055 . S
O321 C324 1.259 . S
C322 O350 1.256 1_554 S
C322 O351 1.244 1_554 S
Zn323 O325 2.046 . S
Zn323 O327 2.055 . S
Zn323 N329 2.036 . S
Zn323 O347 2.066 . S
Zn323 O351 2.053 . S
C324 O321 1.259 . S
C324 O325 1.254 . S
O325 Zn323 2.046 . S
O325 C324 1.254 . S
C326 O347 1.256 . S
C326 O348 1.244 . S
O327 Zn323 2.055 . S
O327 C349 1.259 . S
O328 Zn320 2.046 . S
O328 C349 1.254 . S
N329 Zn323 2.036 . S
N329 C330 1.298 . S
N329 N332 1.398 . S
C330 N329 1.298 . S
C330 N333 1.367 . S
C330 C343 1.481 . S
C331 N332 1.299 . S
C331 N333 1.379 . S
N332 N329 1.398 . S
N332 C331 1.299 . S
N333 C330 1.367 . S
N333 C331 1.379 . S
C334 N336 1.298 . S
C334 N338 1.367 . S
C334 C342 1.481 . S
C335 N337 1.299 . S
C335 N338 1.379 . S
N336 Zn320 2.036 . S
N336 C334 1.298 . S
N336 N337 1.398 . S
N337 C335 1.299 . S
N337 N336 1.398 . S
N338 C334 1.367 . S
N338 C335 1.379 . S
H339 C342 0.980 . S
H340 C342 0.981 . S
H341 C342 0.981 1_554 S
C342 C334 1.481 . S
C342 H339 0.980 . S
C342 H340 0.981 . S
C342 H341 0.981 1_556 S
C343 C330 1.481 . S
C343 H344 0.980 . S
C343 H345 0.981 . S
C343 H346 0.981 . S
H344 C343 0.980 . S
H345 C343 0.981 . S
H346 C343 0.981 . S
O347 Zn323 2.066 . S
O347 C326 1.256 . S
O348 Zn320 2.053 . S
O348 C326 1.244 . S
C349 O327 1.259 . S
C349 O328 1.254 . S
O350 Zn320 2.066 . S
O350 C322 1.256 1_556 S
O351 C322 1.244 1_556 S
O351 Zn323 2.053 . S
Zn352 O353 2.055 . S
Zn352 O360 2.046 . S
Zn352 N368 2.036 . S
Zn352 O380 2.053 . S
Zn352 O382 2.066 . S
O353 Zn352 2.055 . S
O353 C356 1.259 . S
C354 O382 1.256 . S
C354 O383 1.244 . S
Zn355 O357 2.046 . S
Zn355 O359 2.055 . S
Zn355 N361 2.036 . S
Zn355 O379 2.066 . S
Zn355 O383 2.053 . S
C356 O353 1.259 . S
C356 O357 1.254 . S
O357 Zn355 2.046 . S
O357 C356 1.254 . S
C358 O379 1.256 1_556 S
C358 O380 1.244 1_556 S
O359 Zn355 2.055 . S
O359 C381 1.259 . S
O360 Zn352 2.046 . S
O360 C381 1.254 . S
N361 Zn355 2.036 . S
N361 C362 1.298 . S
N361 N364 1.398 . S
C362 N361 1.298 . S
C362 N365 1.367 . S
C362 C375 1.481 . S
C363 N364 1.299 . S
C363 N365 1.379 . S
N364 N361 1.398 . S
N364 C363 1.299 . S
N365 C362 1.367 . S
N365 C363 1.379 . S
C366 N368 1.298 . S
C366 N370 1.367 . S
C366 C374 1.481 . S
C367 N369 1.299 . S
C367 N370 1.379 . S
N368 Zn352 2.036 . S
N368 C366 1.298 . S
N368 N369 1.398 . S
N369 C367 1.299 . S
N369 N368 1.398 . S
N370 C366 1.367 . S
N370 C367 1.379 . S
H371 C374 0.980 . S
H372 C374 0.981 . S
H373 C374 0.981 . S
C374 C366 1.481 . S
C374 H371 0.980 . S
C374 H372 0.981 . S
C374 H373 0.981 . S
C375 C362 1.481 . S
C375 H376 0.980 . S
C375 H377 0.981 . S
C375 H378 0.981 1_554 S
H376 C375 0.980 . S
H377 C375 0.981 . S
H378 C375 0.981 1_556 S
O379 Zn355 2.066 . S
O379 C358 1.256 1_554 S
O380 Zn352 2.053 . S
O380 C358 1.244 1_554 S
C381 O359 1.259 . S
C381 O360 1.254 . S
O382 Zn352 2.066 . S
O382 C354 1.256 . S
O383 C354 1.244 . S
O383 Zn355 2.053 . S
Zn384 O385 2.055 . S
Zn384 O392 2.046 . S
Zn384 N400 2.036 1_565 S
Zn384 O412 2.053 . S
Zn384 O414 2.066 . S
O385 Zn384 2.055 . S
O385 C388 1.259 . S
C386 O414 1.256 . S
C386 O415 1.244 . S
Zn387 O389 2.046 . S
Zn387 O391 2.055 . S
Zn387 N393 2.036 . S
Zn387 O411 2.066 . S
Zn387 O415 2.053 . S
C388 O385 1.259 . S
C388 O389 1.254 . S
O389 Zn387 2.046 . S
O389 C388 1.254 . S
C390 O411 1.256 . S
C390 O412 1.244 . S
O391 Zn387 2.055 . S
O391 C413 1.259 1_556 S
O392 Zn384 2.046 . S
O392 C413 1.254 1_556 S
N393 Zn387 2.036 . S
N393 C394 1.298 . S
N393 N396 1.398 . S
C394 N393 1.298 . S
C394 N397 1.367 . S
C394 C407 1.481 . S
C395 N396 1.299 . S
C395 N397 1.379 . S
N396 N393 1.398 . S
N396 C395 1.299 . S
N397 C394 1.367 . S
N397 C395 1.379 . S
C398 N400 1.298 . S
C398 N402 1.367 . S
C398 C406 1.481 . S
C399 N401 1.299 . S
C399 N402 1.379 . S
N400 Zn384 2.036 1_545 S
N400 C398 1.298 . S
N400 N401 1.398 . S
N401 C399 1.299 . S
N401 N400 1.398 . S
N402 C398 1.367 . S
N402 C399 1.379 . S
H403 C406 0.980 1_565 S
H404 C406 0.981 . S
H405 C406 0.981 . S
C406 C398 1.481 . S
C406 H403 0.980 1_545 S
C406 H404 0.981 . S
C406 H405 0.981 . S
C407 C394 1.481 . S
C407 H408 0.980 1_556 S
C407 H409 0.981 1_556 S
C407 H410 0.981 . S
H408 C407 0.980 1_554 S
H409 C407 0.981 1_554 S
H410 C407 0.981 . S
O411 Zn387 2.066 . S
O411 C390 1.256 . S
O412 Zn384 2.053 . S
O412 C390 1.244 . S
C413 O391 1.259 1_554 S
C413 O392 1.254 1_554 S
O414 Zn384 2.066 . S
O414 C386 1.256 . S
O415 C386 1.244 . S
O415 Zn387 2.053 . S
Zn416 O417 2.055 . S
Zn416 O424 2.046 . S
Zn416 N432 2.036 . S
Zn416 O444 2.053 . S
Zn416 O446 2.066 . S
O417 Zn416 2.055 . S
O417 C420 1.259 1_554 S
C418 O446 1.256 . S
C418 O447 1.244 . S
Zn419 O421 2.046 . S
Zn419 O423 2.055 . S
Zn419 N425 2.036 1_655 S
Zn419 O443 2.066 . S
Zn419 O447 2.053 . S
C420 O417 1.259 1_556 S
C420 O421 1.254 1_556 S
O421 Zn419 2.046 . S
O421 C420 1.254 1_554 S
C422 O443 1.256 . S
C422 O444 1.244 . S
O423 Zn419 2.055 . S
O423 C445 1.259 . S
O424 Zn416 2.046 . S
O424 C445 1.254 . S
N425 Zn419 2.036 1_455 S
N425 C426 1.298 . S
N425 N428 1.398 . S
C426 N425 1.298 . S
C426 N429 1.367 . S
C426 C439 1.481 . S
C427 N428 1.299 . S
C427 N429 1.379 . S
N428 N425 1.398 . S
N428 C427 1.299 . S
N429 C426 1.367 . S
N429 C427 1.379 . S
C430 N432 1.298 . S
C430 N434 1.367 . S
C430 C438 1.481 . S
C431 N433 1.299 . S
C431 N434 1.379 . S
N432 Zn416 2.036 . S
N432 C430 1.298 . S
N432 N433 1.398 . S
N433 C431 1.299 . S
N433 N432 1.398 . S
N434 C430 1.367 . S
N434 C431 1.379 . S
H435 C438 0.980 1_556 S
H436 C438 0.981 1_556 S
H437 C438 0.981 . S
C438 C430 1.481 . S
C438 H435 0.980 1_554 S
C438 H436 0.981 1_554 S
C438 H437 0.981 . S
C439 C426 1.481 . S
C439 H440 0.980 1_455 S
C439 H441 0.981 . S
C439 H442 0.981 . S
H440 C439 0.980 1_655 S
H441 C439 0.981 . S
H442 C439 0.981 . S
O443 Zn419 2.066 . S
O443 C422 1.256 . S
O444 Zn416 2.053 . S
O444 C422 1.244 . S
C445 O423 1.259 . S
C445 O424 1.254 . S
O446 Zn416 2.066 . S
O446 C418 1.256 . S
O447 C418 1.244 . S
O447 Zn419 2.053 . S
Zn448 O449 2.055 . S
Zn448 O456 2.046 . S
Zn448 N464 2.036 . S
Zn448 O476 2.053 . S
Zn448 O478 2.066 . S
O449 Zn448 2.055 . S
O449 C452 1.259 1_556 S
C450 O478 1.256 . S
C450 O479 1.244 . S
Zn451 O453 2.046 . S
Zn451 O455 2.055 . S
Zn451 N457 2.036 1_545 S
Zn451 O475 2.066 . S
Zn451 O479 2.053 . S
C452 O449 1.259 1_554 S
C452 O453 1.254 1_554 S
O453 Zn451 2.046 . S
O453 C452 1.254 1_556 S
C454 O475 1.256 . S
C454 O476 1.244 . S
O455 Zn451 2.055 . S
O455 C477 1.259 . S
O456 Zn448 2.046 . S
O456 C477 1.254 . S
N457 Zn451 2.036 1_565 S
N457 C458 1.298 . S
N457 N460 1.398 . S
C458 N457 1.298 . S
C458 N461 1.367 . S
C458 C471 1.481 . S
C459 N460 1.299 . S
C459 N461 1.379 . S
N460 N457 1.398 . S
N460 C459 1.299 . S
N461 C458 1.367 . S
N461 C459 1.379 . S
C462 N464 1.298 . S
C462 N466 1.367 . S
C462 C470 1.481 . S
C463 N465 1.299 . S
C463 N466 1.379 . S
N464 Zn448 2.036 . S
N464 C462 1.298 . S
N464 N465 1.398 . S
N465 C463 1.299 . S
N465 N464 1.398 . S
N466 C462 1.367 . S
N466 C463 1.379 . S
H467 C470 0.980 1_554 S
H468 C470 0.981 1_554 S
H469 C470 0.981 . S
C470 C462 1.481 . S
C470 H467 0.980 1_556 S
C470 H468 0.981 1_556 S
C470 H469 0.981 . S
C471 C458 1.481 . S
C471 H472 0.980 1_565 S
C471 H473 0.981 . S
C471 H474 0.981 . S
H472 C471 0.980 1_545 S
H473 C471 0.981 . S
H474 C471 0.981 . S
O475 Zn451 2.066 . S
O475 C454 1.256 . S
O476 Zn448 2.053 . S
O476 C454 1.244 . S
C477 O455 1.259 . S
C477 O456 1.254 . S
O478 Zn448 2.066 . S
O478 C450 1.256 . S
O479 C450 1.244 . S
O479 Zn451 2.053 . S
Zn480 O481 2.055 . S
Zn480 O488 2.046 . S
Zn480 N496 2.036 1_455 S
Zn480 O508 2.053 . S
Zn480 O510 2.066 . S
O481 Zn480 2.055 . S
O481 C484 1.259 . S
C482 O510 1.256 . S
C482 O511 1.244 . S
Zn483 O485 2.046 . S
Zn483 O487 2.055 . S
Zn483 N489 2.036 . S
Zn483 O507 2.066 . S
Zn483 O511 2.053 . S
C484 O481 1.259 . S
C484 O485 1.254 . S
O485 Zn483 2.046 . S
O485 C484 1.254 . S
C486 O507 1.256 . S
C486 O508 1.244 . S
O487 Zn483 2.055 . S
O487 C509 1.259 1_554 S
O488 Zn480 2.046 . S
O488 C509 1.254 1_554 S
N489 Zn483 2.036 . S
N489 C490 1.298 . S
N489 N492 1.398 . S
C490 N489 1.298 . S
C490 N493 1.367 . S
C490 C503 1.481 . S
C491 N492 1.299 . S
C491 N493 1.379 . S
N492 N489 1.398 . S
N492 C491 1.299 . S
N493 C490 1.367 . S
N493 C491 1.379 . S
C494 N496 1.298 . S
C494 N498 1.367 . S
C494 C502 1.481 . S
C495 N497 1.299 . S
C495 N498 1.379 . S
N496 Zn480 2.036 1_655 S
N496 C494 1.298 . S
N496 N497 1.398 . S
N497 C495 1.299 . S
N497 N496 1.398 . S
N498 C494 1.367 . S
N498 C495 1.379 . S
H499 C502 0.980 1_455 S
H500 C502 0.981 . S
H501 C502 0.981 . S
C502 C494 1.481 . S
C502 H499 0.980 1_655 S
C502 H500 0.981 . S
C502 H501 0.981 . S
C503 C490 1.481 . S
C503 H504 0.980 1_554 S
C503 H505 0.981 1_554 S
C503 H506 0.981 . S
H504 C503 0.980 1_556 S
H505 C503 0.981 1_556 S
H506 C503 0.981 . S
O507 Zn483 2.066 . S
O507 C486 1.256 . S
O508 Zn480 2.053 . S
O508 C486 1.244 . S
C509 O487 1.259 1_556 S
C509 O488 1.254 1_556 S
O510 Zn480 2.066 . S
O510 C482 1.256 . S
O511 C482 1.244 . S
O511 Zn483 2.053 . S
C381 N13 2.101 . S
C285 N45 2.101 . S
N82 C317 2.101 . S
N114 C324 2.101 . S
N141 C164 2.102 1_554 S
C221 N178 2.102 1_554 S
N205 C253 2.102 1_554 S
C157 N237 2.102 1_554 S
C100 N269 2.102 . S
N301 C29 2.102 . S
C61 N338 2.102 . S
C68 N365 2.102 . S
N402 C445 2.102 . S
C477 N429 2.102 . S
C484 N461 2.102 . S
N498 C388 2.102 . S
N18 N146 0.956 . S
N173 N50 0.956 . S
N77 N210 0.956 . S
N109 N242 0.956 . S
N274 N397 0.955 . S
N434 N306 0.955 . S
N333 N466 0.955 . S
N370 N493 0.955 . S
C450 C2 2.940 1_556 S
C34 C486 2.940 1_556 S
C70 C390 2.940 1_554 S
C102 C418 2.940 1_556 S
C130 C326 2.940 . S
C166 C354 2.940 . S
C194 C258 2.940 . S
C290 C226 2.940 . S
C6 C4 1.143 . S
C38 C36 1.143 . S
C66 C93 1.143 . S
C125 C98 1.143 . S
C132 C134 1.143 . S
C162 C189 1.143 . S
C198 C196 1.143 . S
C228 C230 1.143 . S
C262 C260 1.143 . S
C292 C294 1.143 . S
C349 C322 1.143 . S
C358 C356 1.143 . S
C386 C413 1.143 . S
C420 C422 1.143 . S
C452 C454 1.143 . S
C482 C509 1.143 . S
