# Generated by pormake.
# Topology wjf, (4)-cn, num edge types: 1
# Building blocks:
#     Node 0, Type 0, BuildingBlock: KUFVIS_clean_sbu_0, # of connection points: 4
#     Node 1, Type 0, BuildingBlock: KUFVIS_clean_sbu_0, # of connection points: 4
#     Node 2, Type 0, BuildingBlock: KUFVIS_clean_sbu_0, # of connection points: 4
#     Node 3, Type 0, BuildingBlock: KUFVIS_clean_sbu_0, # of connection points: 4
#     Node 4, Type 0, BuildingBlock: KUFVIS_clean_sbu_0, # of connection points: 4
#     Node 5, Type 0, BuildingBlock: KUFVIS_clean_sbu_0, # of connection points: 4
#     Node 6, Type 0, BuildingBlock: KUFVIS_clean_sbu_0, # of connection points: 4
#     Node 7, Type 0, BuildingBlock: KUFVIS_clean_sbu_0, # of connection points: 4
#     Node 8, Type 0, BuildingBlock: KUFVIS_clean_sbu_0, # of connection points: 4
#     Node 9, Type 0, BuildingBlock: KUFVIS_clean_sbu_0, # of connection points: 4
#     Node 10, Type 0, BuildingBlock: KUFVIS_clean_sbu_0, # of connection points: 4
#     Node 11, Type 0, BuildingBlock: KUFVIS_clean_sbu_0, # of connection points: 4
#     Edge 12, Type (0, 0), BuildingBlock: ZUJKAS_clean_linker_0, # of connection points: 2
#     Edge 13, Type (0, 0), BuildingBlock: ZUJKAS_clean_linker_0, # of connection points: 2
#     Edge 14, Type (0, 0), BuildingBlock: ZUJKAS_clean_linker_0, # of connection points: 2
#     Edge 15, Type (0, 0), BuildingBlock: ZUJKAS_clean_linker_0, # of connection points: 2
#     Edge 16, Type (0, 0), BuildingBlock: ZUJKAS_clean_linker_0, # of connection points: 2
#     Edge 17, Type (0, 0), BuildingBlock: ZUJKAS_clean_linker_0, # of connection points: 2
#     Edge 18, Type (0, 0), BuildingBlock: ZUJKAS_clean_linker_0, # of connection points: 2
#     Edge 19, Type (0, 0), BuildingBlock: ZUJKAS_clean_linker_0, # of connection points: 2
#     Edge 20, Type (0, 0), BuildingBlock: ZUJKAS_clean_linker_0, # of connection points: 2
#     Edge 21, Type (0, 0), BuildingBlock: ZUJKAS_clean_linker_0, # of connection points: 2
#     Edge 22, Type (0, 0), BuildingBlock: ZUJKAS_clean_linker_0, # of connection points: 2
#     Edge 23, Type (0, 0), BuildingBlock: ZUJKAS_clean_linker_0, # of connection points: 2
#     Edge 24, Type (0, 0), BuildingBlock: ZUJKAS_clean_linker_0, # of connection points: 2
#     Edge 25, Type (0, 0), BuildingBlock: ZUJKAS_clean_linker_0, # of connection points: 2
#     Edge 26, Type (0, 0), BuildingBlock: ZUJKAS_clean_linker_0, # of connection points: 2
#     Edge 27, Type (0, 0), BuildingBlock: ZUJKAS_clean_linker_0, # of connection points: 2
#     Edge 28, Type (0, 0), BuildingBlock: ZUJKAS_clean_linker_0, # of connection points: 2
#     Edge 29, Type (0, 0), BuildingBlock: ZUJKAS_clean_linker_0, # of connection points: 2
#     Edge 30, Type (0, 0), BuildingBlock: ZUJKAS_clean_linker_0, # of connection points: 2
#     Edge 31, Type (0, 0), BuildingBlock: ZUJKAS_clean_linker_0, # of connection points: 2
#     Edge 32, Type (0, 0), BuildingBlock: ZUJKAS_clean_linker_0, # of connection points: 2
#     Edge 33, Type (0, 0), BuildingBlock: ZUJKAS_clean_linker_0, # of connection points: 2
#     Edge 34, Type (0, 0), BuildingBlock: ZUJKAS_clean_linker_0, # of connection points: 2
#     Edge 35, Type (0, 0), BuildingBlock: ZUJKAS_clean_linker_0, # of connection points: 2
# Relax obj value: 0.141
# Max RMSD: 0.203
# Mean RMSD: 0.178
data_MOF--net-wjf--node1-KUFVIS_clean_sbu_0--edge1-ZUJKAS_clean_linker_0
_symmetry_space_group_name_H-M    P1
_symmetry_Int_Tables_number       1
_symmetry_cell_setting            triclinic
loop_
_symmetry_equiv_pos_as_xyz
'x, y, z'
_cell_length_a     61.711014
_cell_length_b     64.872099
_cell_length_c     35.999437
_cell_angle_alpha  89.987987
_cell_angle_beta   89.987962
_cell_angle_gamma 118.39325
loop_
_atom_site_label
_atom_site_type_symbol
_atom_site_fract_x
_atom_site_fract_y
_atom_site_fract_z
_atom_type_partial_charge
Mn0 Mn 0.32424 0.38987 0.11714 0.0
Mn1 Mn 0.33408 0.44173 0.08161 0.0
C2 C 0.36369 0.42089 0.11648 0.0
C3 C 0.31245 0.36503 0.16839 0.0
C4 C 0.32724 0.40029 0.0342 0.0
O5 O 0.28967 0.38576 0.11086 0.0
O6 O 0.29879 0.42241 0.09429 0.0
C7 C 0.32385 0.4608 0.15008 0.0
N8 N 0.33933 0.46286 0.12167 0.0
C9 C 0.36969 0.50083 0.14301 0.0
C10 C 0.35404 0.49919 0.17243 0.0
C11 C 0.33108 0.47901 0.1761 0.0
C12 C 0.36167 0.48193 0.11837 0.0
H13 H 0.30612 0.44537 0.1528 0.0
C14 C 0.28338 0.40126 0.10259 0.0
O15 O 0.31084 0.3568 0.13499 0.0
O16 O 0.32038 0.38735 0.17171 0.0
N17 N 0.36723 0.46281 0.06746 0.0
C18 C 0.37969 0.46197 0.03674 0.0
C19 C 0.40285 0.48096 0.02861 0.0
C20 C 0.4126 0.50088 0.05149 0.0
C21 C 0.39915 0.50161 0.08242 0.0
C22 C 0.37627 0.48208 0.08929 0.0
H23 H 0.37201 0.44694 0.01855 0.0
O24 O 0.35993 0.39973 0.12209 0.0
O25 O 0.34411 0.42353 0.11378 0.0
O26 O 0.32623 0.38667 0.06066 0.0
O27 O 0.32936 0.42073 0.03915 0.0
C28 C 0.40735 0.52108 0.10636 0.0
C29 C 0.39279 0.52057 0.13692 0.0
H30 H 0.35946 0.51332 0.19233 0.0
H31 H 0.31892 0.47759 0.19877 0.0
H32 H 0.41303 0.48036 0.00453 0.0
H33 H 0.43035 0.5156 0.04485 0.0
H34 H 0.42486 0.53656 0.10158 0.0
H35 H 0.39941 0.53556 0.15531 0.0
Mn36 Mn 0.97042 0.33672 0.3729 0.0
Mn37 Mn 0.03216 0.3663 0.3642 0.0
C38 C 0.98794 0.34921 0.31543 0.0
C39 C 0.93408 0.30124 0.37375 0.0
C40 C 0.00187 0.38899 0.39086 0.0
O41 O 0.98199 0.33001 0.42179 0.0
O42 O 0.02304 0.35 0.41313 0.0
C43 C 0.0412 0.3254 0.36149 0.0
N44 N 0.04326 0.34533 0.34565 0.0
C45 C 0.06487 0.34109 0.29305 0.0
C46 C 0.06312 0.32061 0.30891 0.0
C47 C 0.05116 0.3127 0.34322 0.0
C48 C 0.05455 0.35299 0.31251 0.0
H49 H 0.03202 0.31924 0.38786 0.0
C50 C 0.00402 0.3368 0.43256 0.0
O51 O 0.93515 0.31992 0.38882 0.0
O52 O 0.95426 0.30308 0.35978 0.0
N53 N 0.04363 0.38261 0.31808 0.0
C54 C 0.04294 0.40218 0.30591 0.0
C55 C 0.05363 0.41205 0.27156 0.0
C56 C 0.06519 0.40189 0.25035 0.0
C57 C 0.06592 0.38192 0.26366 0.0
C58 C 0.05491 0.37283 0.29804 0.0
H59 H 0.03417 0.41011 0.32218 0.0
O60 O 0.96533 0.34446 0.32148 0.0
O61 O -0.00039 0.34616 0.3432 0.0
O62 O 0.9809 0.37056 0.38925 0.0
O63 O 0.0221 0.38923 0.38235 0.0
C64 C 0.07702 0.37058 0.24408 0.0
C65 C 0.07633 0.35009 0.25861 0.0
H66 H 0.07079 0.31076 0.2949 0.0
H67 H 0.04965 0.29685 0.35558 0.0
H68 H 0.05299 0.42747 0.26148 0.0
H69 H 0.0734 0.40955 0.22386 0.0
H70 H 0.08599 0.37738 0.21766 0.0
H71 H 0.08462 0.34135 0.24302 0.0
Mn72 Mn 0.62312 0.9527 0.76349 0.0
Mn73 Mn 0.57189 0.92291 0.71155 0.0
C74 C 0.59566 0.9673 0.75682 0.0
C75 C 0.64265 0.95864 0.82115 0.0
C76 C 0.62262 0.95342 0.67866 0.0
O77 O 0.6216 0.92083 0.75653 0.0
O78 O 0.58544 0.90193 0.72642 0.0
C79 C 0.53977 0.89082 0.76996 0.0
N80 N 0.54393 0.90714 0.74324 0.0
C81 C 0.50398 0.9042 0.75289 0.0
C82 C 0.49919 0.88725 0.78041 0.0
C83 C 0.51721 0.88061 0.78908 0.0
C84 C 0.52683 0.91381 0.73492 0.0
H85 H 0.55357 0.88564 0.77658 0.0
C86 C 0.60445 0.90249 0.74158 0.0
O87 O 0.65529 0.96512 0.7905 0.0
O88 O 0.61888 0.94803 0.818 0.0
N89 N 0.55627 0.94051 0.69455 0.0
C90 C 0.56415 0.95763 0.6682 0.0
C91 C 0.54822 0.96608 0.65604 0.0
C92 C 0.52434 0.95674 0.6709 0.0
C93 C 0.51671 0.93924 0.69813 0.0
C94 C 0.53323 0.93124 0.7087 0.0
H95 H 0.58234 0.9646 0.65627 0.0
O96 O 0.61808 0.98072 0.76768 0.0
O97 O 0.58959 0.94535 0.75135 0.0
O98 O 0.63427 0.96113 0.70921 0.0
O99 O 0.59964 0.93885 0.6767 0.0
C100 C 0.49341 0.92951 0.71532 0.0
C101 C 0.48711 0.9121 0.74286 0.0
H102 H 0.48181 0.87933 0.7952 0.0
H103 H 0.51368 0.86761 0.81037 0.0
H104 H 0.55427 0.97967 0.63511 0.0
H105 H 0.51207 0.96324 0.66137 0.0
H106 H 0.4803 0.93547 0.70784 0.0
H107 H 0.46926 0.90496 0.75622 0.0
Mn108 Mn 0.66089 0.60831 0.11877 0.0
Mn109 Mn 0.65474 0.55884 0.07889 0.0
C110 C 0.62214 0.57697 0.11157 0.0
C111 C 0.66862 0.63024 0.17286 0.0
C112 C 0.66419 0.6025 0.03554 0.0
O113 O 0.69585 0.61318 0.11704 0.0
O114 O 0.6891 0.57783 0.09673 0.0
C115 C 0.66099 0.53626 0.14643 0.0
N116 N 0.64727 0.53565 0.11643 0.0
C117 C 0.61591 0.49667 0.13158 0.0
C118 C 0.62974 0.4968 0.16258 0.0
C119 C 0.65233 0.51674 0.17013 0.0
C120 C 0.62535 0.51674 0.10925 0.0
H121 H 0.67841 0.55153 0.15216 0.0
C122 C 0.70339 0.59872 0.10789 0.0
O123 O 0.67282 0.64033 0.14049 0.0
O124 O 0.6606 0.60782 0.17345 0.0
N125 N 0.62264 0.53849 0.05977 0.0
C126 C 0.61158 0.54126 0.02882 0.0
C127 C 0.58881 0.52293 0.01735 0.0
C128 C 0.57793 0.50178 0.03733 0.0
C129 C 0.58985 0.49921 0.06876 0.0
C130 C 0.61245 0.51812 0.07895 0.0
H131 H 0.62008 0.55734 0.01301 0.0
O132 O 0.62492 0.5977 0.11843 0.0
O133 O 0.64216 0.57497 0.11107 0.0
O134 O 0.66286 0.61454 0.06272 0.0
O135 O 0.66199 0.58194 0.03873 0.0
C136 C 0.58031 0.47857 0.09026 0.0
C137 C 0.59318 0.4774 0.12188 0.0
H138 H 0.62319 0.48172 0.18078 0.0
H139 H 0.66308 0.517 0.19404 0.0
H140 H 0.57976 0.52501 0.99299 0.0
H141 H 0.56046 0.48762 0.02817 0.0
H142 H 0.56304 0.46351 0.08281 0.0
H143 H 0.5855 0.46154 0.13843 0.0
Mn144 Mn 0.04268 0.6673 0.39473 0.0
Mn145 Mn 0.9807 0.63648 0.39014 0.0
C146 C 0.02373 0.65588 0.33794 0.0
C147 C 0.07818 0.70353 0.39578 0.0
C148 C 0.01299 0.61443 0.40951 0.0
O149 O 0.03225 0.67171 0.44625 0.0
O150 O 0.99109 0.65172 0.43967 0.0
C151 C 0.97066 0.67676 0.39316 0.0
N152 N 0.96836 0.65726 0.37547 0.0
C153 C 0.94479 0.66204 0.32618 0.0
C154 C 0.94677 0.68208 0.34399 0.0
C155 C 0.95982 0.68951 0.37757 0.0
C156 C 0.95599 0.65006 0.34303 0.0
H157 H 0.98073 0.68257 0.41892 0.0
C158 C 0.01048 0.66426 0.45879 0.0
O159 O 0.07839 0.68479 0.40821 0.0
O160 O 0.05724 0.70127 0.38457 0.0
N161 N 0.96769 0.62084 0.34397 0.0
C162 C 0.9678 0.60135 0.33004 0.0
C163 C 0.95584 0.59187 0.29624 0.0
C164 C 0.94357 0.60227 0.27742 0.0
C165 C 0.9432 0.62196 0.29275 0.0
C166 C 0.9554 0.63061 0.32655 0.0
H167 H 0.97713 0.59324 0.34444 0.0
O168 O 0.04679 0.66166 0.3417 0.0
O169 O 0.01245 0.65761 0.36742 0.0
O170 O 0.03372 0.63315 0.40719 0.0
O171 O 0.99225 0.61394 0.40421 0.0
C172 C 0.93143 0.6335 0.27562 0.0
C173 C 0.93233 0.65359 0.29223 0.0
H174 H 0.93846 0.69198 0.33203 0.0
H175 H 0.96152 0.70502 0.3914 0.0
H176 H 0.95613 0.5766 0.28467 0.0
H177 H 0.93453 0.59501 0.25122 0.0
H178 H 0.92177 0.62718 0.24954 0.0
H179 H 0.92343 0.66245 0.27859 0.0
Mn180 Mn 0.38797 0.06201 0.77157 0.0
Mn181 Mn 0.43765 0.09367 0.71755 0.0
C182 C 0.41815 0.05069 0.7655 0.0
C183 C 0.36905 0.05579 0.82984 0.0
C184 C 0.38722 0.05963 0.68686 0.0
O185 O 0.38631 0.09233 0.76246 0.0
O186 O 0.42245 0.11325 0.73277 0.0
C187 C 0.46976 0.12752 0.7741 0.0
N188 N 0.46594 0.11094 0.74801 0.0
C189 C 0.50649 0.11527 0.75754 0.0
C190 C 0.51093 0.13249 0.7844 0.0
C191 C 0.49245 0.13857 0.7928 0.0
C192 C 0.48348 0.10478 0.74 0.0
H193 H 0.45559 0.13223 0.78057 0.0
C194 C 0.40263 0.11122 0.74745 0.0
O195 O 0.35612 0.04764 0.79974 0.0
O196 O 0.39266 0.06833 0.82577 0.0
N197 N 0.45442 0.07717 0.70029 0.0
C198 C 0.44707 0.06005 0.67398 0.0
C199 C 0.46355 0.05223 0.66189 0.0
C200 C 0.48746 0.06226 0.67666 0.0
C201 C 0.49461 0.07983 0.70372 0.0
C202 C 0.47752 0.08715 0.71428 0.0
H203 H 0.42885 0.05253 0.66207 0.0
O204 O 0.3964 0.03603 0.7775 0.0
O205 O 0.42188 0.0718 0.75854 0.0
O206 O 0.37648 0.05156 0.71796 0.0
O207 O 0.40949 0.07594 0.68405 0.0
C208 C 0.51803 0.09039 0.72059 0.0
C209 C 0.5239 0.10798 0.74768 0.0
H210 H 0.52841 0.14108 0.79884 0.0
H211 H 0.49571 0.15179 0.81358 0.0
H212 H 0.4579 0.03867 0.64099 0.0
H213 H 0.50024 0.05646 0.6668 0.0
H214 H 0.53157 0.08496 0.71318 0.0
H215 H 0.54186 0.11579 0.76075 0.0
Mn216 Mn 0.62676 0.6675 0.61211 0.0
Mn217 Mn 0.66064 0.63991 0.59955 0.0
C218 C 0.63732 0.65237 0.66269 0.0
C219 C 0.62555 0.70248 0.62139 0.0
C220 C 0.60583 0.61771 0.58249 0.0
O221 O 0.63965 0.67635 0.55934 0.0
O222 O 0.66616 0.66158 0.55724 0.0
C223 C 0.71049 0.68051 0.60686 0.0
N224 N 0.69328 0.65876 0.61798 0.0
C225 C 0.72096 0.65687 0.66326 0.0
C226 C 0.73908 0.67918 0.65208 0.0
C227 C 0.73378 0.69108 0.62385 0.0
C228 C 0.69809 0.64725 0.64535 0.0
H229 H 0.70645 0.68973 0.58527 0.0
C230 C 0.65651 0.67353 0.54341 0.0
O231 O 0.60676 0.68417 0.60766 0.0
O232 O 0.64515 0.70061 0.62832 0.0
N233 N 0.65728 0.61852 0.63849 0.0
C234 C 0.63749 0.59752 0.64696 0.0
C235 C 0.63971 0.58335 0.67453 0.0
C236 C 0.66226 0.59083 0.69294 0.0
C237 C 0.68231 0.61261 0.68404 0.0
C238 C 0.67911 0.62582 0.65592 0.0
H239 H 0.62017 0.5915 0.63262 0.0
O240 O 0.61937 0.65737 0.66488 0.0
O241 O 0.64911 0.65713 0.63128 0.0
O242 O 0.60238 0.63438 0.59485 0.0
O243 O 0.62705 0.61877 0.5809 0.0
C244 C 0.70532 0.62175 0.702 0.0
C245 C 0.72458 0.64393 0.69177 0.0
H246 H 0.75705 0.6874 0.66515 0.0
H247 H 0.74762 0.70835 0.61522 0.0
H248 H 0.62413 0.5666 0.68137 0.0
H249 H 0.66396 0.57966 0.71379 0.0
H250 H 0.70832 0.61197 0.72397 0.0
H251 H 0.74209 0.6509 0.70609 0.0
Mn252 Mn 0.93676 0.60126 0.88409 0.0
Mn253 Mn 0.8946 0.55309 0.92825 0.0
C254 C 0.94014 0.56729 0.88203 0.0
C255 C 0.94765 0.62452 0.83104 0.0
C256 C 0.93592 0.59469 0.96759 0.0
O257 O 0.90963 0.60931 0.89708 0.0
O258 O 0.88039 0.57424 0.91763 0.0
C259 C 0.85849 0.53217 0.86728 0.0
N260 N 0.87359 0.53034 0.8931 0.0
C261 C 0.85997 0.49005 0.87703 0.0
C262 C 0.84419 0.49144 0.85028 0.0
C263 C 0.84355 0.51264 0.84526 0.0
C264 C 0.87468 0.51019 0.89771 0.0
H265 H 0.85784 0.5484 0.86363 0.0
C266 C 0.88802 0.59577 0.90918 0.0
O267 O 0.95759 0.6332 0.863 0.0
O268 O 0.93113 0.60263 0.83026 0.0
N269 N 0.90545 0.5309 0.94097 0.0
C270 C 0.92187 0.53262 0.96768 0.0
C271 C 0.92414 0.51277 0.9772 0.0
C272 C 0.90934 0.49133 0.95945 0.0
C273 C 0.89292 0.49007 0.9315 0.0
C274 C 0.89123 0.51036 0.92357 0.0
H275 H 0.93285 0.54891 0.98211 0.0
O276 O 0.95876 0.58731 0.87359 0.0
O277 O 0.91972 0.56761 0.88983 0.0
O278 O 0.94724 0.60615 0.93865 0.0
O279 O 0.9158 0.57536 0.96646 0.0
C280 C 0.87791 0.46942 0.91159 0.0
C281 C 0.86166 0.46949 0.88405 0.0
H282 H 0.8325 0.47637 0.83345 0.0
H283 H 0.83145 0.51386 0.82465 0.0
H284 H 0.93695 0.51388 -0.00137 0.0
H285 H 0.91065 0.47592 0.96772 0.0
H286 H 0.8788 0.45343 0.91709 0.0
H287 H 0.85041 0.45358 0.86865 0.0
Mn288 Mn 0.33277 0.95015 0.24959 0.0
Mn289 Mn 0.35025 0.91677 0.30046 0.0
C290 C 0.37423 0.96131 0.25591 0.0
C291 C 0.32084 0.95833 0.19207 0.0
C292 C 0.33459 0.95051 0.33453 0.0
O293 O 0.30054 0.91975 0.25638 0.0
O294 O 0.31526 0.89846 0.28597 0.0
C295 C 0.3463 0.88359 0.24111 0.0
N296 N 0.35978 0.89922 0.26798 0.0
C297 C 0.39433 0.89245 0.25709 0.0
C298 C 0.38078 0.87616 0.22943 0.0
C299 C 0.3567 0.8718 0.22131 0.0
C300 C 0.38304 0.90375 0.27572 0.0
H301 H 0.32776 0.88017 0.23488 0.0
C302 C 0.29771 0.90071 0.27105 0.0
O303 O 0.31573 0.96555 0.22289 0.0
O304 O 0.33176 0.9456 0.19496 0.0
N305 N 0.3837 0.93166 0.317 0.0
C306 C 0.39444 0.94827 0.34384 0.0
C307 C 0.41842 0.9544 0.35571 0.0
C308 C 0.43101 0.94327 0.34007 0.0
C309 C 0.41964 0.92633 0.31238 0.0
C310 C 0.39556 0.92065 0.30215 0.0
H311 H 0.38469 0.95658 0.35639 0.0
O312 O 0.36711 0.97624 0.2455 0.0
O313 O 0.35688 0.93989 0.2611 0.0
O314 O 0.33121 0.95885 0.30417 0.0
O315 O 0.34117 0.93457 0.33594 0.0
C316 C 0.43125 0.91488 0.2945 0.0
C317 C 0.41866 0.89807 0.26667 0.0
H318 H 0.38873 0.867 0.21414 0.0
H319 H 0.34615 0.85932 0.19991 0.0
H320 H 0.42714 0.96757 0.37703 0.0
H321 H 0.44946 0.94796 0.3494 0.0
H322 H 0.44992 0.91903 0.3017 0.0
H323 H 0.42787 0.88958 0.25281 0.0
Mn324 Mn 0.37253 0.33854 0.60523 0.0
Mn325 Mn 0.34169 0.36965 0.59876 0.0
C326 C 0.36435 0.35358 0.65821 0.0
C327 C 0.37237 0.30273 0.61216 0.0
C328 C 0.39619 0.39029 0.58195 0.0
O329 O 0.35824 0.33068 0.55308 0.0
O330 O 0.33781 0.35157 0.5524 0.0
C331 C 0.29133 0.32938 0.59719 0.0
N332 N 0.30817 0.34994 0.61272 0.0
C333 C 0.27843 0.34892 0.65693 0.0
C334 C 0.26072 0.3278 0.64126 0.0
C335 C 0.26723 0.31795 0.61133 0.0
C336 C 0.30215 0.35949 0.64166 0.0
H337 H 0.29626 0.32174 0.5742 0.0
C338 C 0.34451 0.33769 0.53705 0.0
O339 O 0.39118 0.32076 0.59781 0.0
O340 O 0.35339 0.30529 0.6207 0.0
N341 N 0.34337 0.38802 0.64129 0.0
C342 C 0.36284 0.40803 0.65404 0.0
C343 C 0.35946 0.42002 0.68407 0.0
C344 C 0.33606 0.41146 0.70036 0.0
C345 C 0.3163 0.39088 0.6867 0.0
C346 C 0.32072 0.37982 0.65647 0.0
H347 H 0.38081 0.41479 0.64139 0.0
O348 O 0.38169 0.34771 0.65774 0.0
O349 O 0.35161 0.34987 0.62771 0.0
O350 O 0.39787 0.37169 0.58829 0.0
O351 O 0.37607 0.3913 0.58485 0.0
C352 C 0.29247 0.38078 0.70214 0.0
C353 C 0.27357 0.35976 0.68737 0.0
H354 H 0.24212 0.31892 0.65213 0.0
H355 H 0.25369 0.30161 0.59919 0.0
H356 H 0.37482 0.43586 0.69456 0.0
H357 H 0.33349 0.42078 0.72344 0.0
H358 H 0.28854 0.3889 0.72564 0.0
H359 H 0.25539 0.35201 0.69974 0.0
Mn360 Mn 0.04277 0.37828 0.85469 0.0
Mn361 Mn 0.0621 0.42831 0.90409 0.0
C362 C 0.02447 0.40161 0.84486 0.0
C363 C 0.04637 0.35828 0.80363 0.0
C364 C 0.0267 0.38072 0.93453 0.0
O365 O 0.07464 0.38232 0.87688 0.0
O366 O 0.08529 0.41525 0.90939 0.0
C367 C 0.10583 0.45657 0.85743 0.0
N368 N 0.08467 0.45363 0.87385 0.0
C369 C 0.09113 0.49115 0.85189 0.0
C370 C 0.11307 0.49466 0.83486 0.0
C371 C 0.12038 0.47724 0.83751 0.0
C372 C 0.07727 0.4701 0.871 0.0
H373 H 0.11154 0.44326 0.85959 0.0
C374 C 0.0888 0.39817 0.89926 0.0
O375 O 0.03557 0.34722 0.83385 0.0
O376 O 0.05574 0.38091 0.80368 0.0
N377 N 0.04238 0.44381 0.90344 0.0
C378 C 0.0209 0.4378 0.92185 0.0
C379 C 0.0114 0.45361 0.923 0.0
C380 C 0.02409 0.47549 0.90536 0.0
C381 C 0.04637 0.48146 0.88709 0.0
C382 C 0.05516 0.46514 0.88747 0.0
H383 H 0.01118 0.42113 0.93575 0.0
O384 O 0.01367 0.37982 0.83487 0.0
O385 O 0.04646 0.40972 0.85928 0.0
O386 O 0.02671 0.36882 0.90623 0.0
O387 O 0.03863 0.40307 0.93631 0.0
C388 C 0.06016 0.50291 0.86843 0.0
C389 C 0.08243 0.50768 0.8506 0.0
H390 H 0.12441 0.51063 0.81964 0.0
H391 H 0.13726 0.47979 0.82437 0.0
H392 H 0.99439 0.44899 0.93767 0.0
H393 H 0.01658 0.48756 0.90604 0.0
H394 H 0.05372 0.51579 0.86742 0.0
H395 H 0.09278 0.52416 0.83609 0.0
Mn396 Mn 0.67635 0.05505 0.23698 0.0
Mn397 Mn 0.65517 0.08548 0.28792 0.0
C398 C 0.63443 0.04143 0.24236 0.0
C399 C 0.69016 0.04874 0.17976 0.0
C400 C 0.67377 0.05393 0.32188 0.0
O401 O 0.70706 0.08651 0.24476 0.0
O402 O 0.69007 0.10592 0.2742 0.0
C403 C 0.6568 0.11792 0.22884 0.0
N404 N 0.64394 0.10161 0.25525 0.0
C405 C 0.60725 0.1046 0.2427 0.0
C406 C 0.62012 0.12153 0.21549 0.0
C407 C 0.64498 0.12815 0.20844 0.0
C408 C 0.61996 0.09491 0.26195 0.0
H409 H 0.67591 0.12305 0.22342 0.0
C410 C 0.7085 0.10496 0.25971 0.0
O411 O 0.69572 0.04195 0.21062 0.0
O412 O 0.67758 0.05996 0.1825 0.0
N413 N 0.62163 0.06835 0.30379 0.0
C414 C 0.61183 0.05163 0.33072 0.0
C415 C 0.58724 0.04342 0.34166 0.0
C416 C 0.57311 0.05268 0.32516 0.0
C417 C 0.58358 0.06985 0.29752 0.0
C418 C 0.60827 0.0776 0.28814 0.0
H419 H 0.62274 0.04476 0.34398 0.0
O420 O 0.64291 0.02753 0.23188 0.0
O421 O 0.65068 0.06316 0.24825 0.0
O422 O 0.6781 0.04635 0.29145 0.0
O423 O 0.66583 0.06889 0.32338 0.0
C424 C 0.5705 0.07961 0.27893 0.0
C425 C 0.58228 0.09684 0.25134 0.0
H426 H 0.61108 0.1295 0.19974 0.0
H427 H 0.65501 0.14114 0.18739 0.0
H428 H 0.57927 0.03014 0.36301 0.0
H429 H 0.55429 0.04658 0.33408 0.0
H430 H 0.55132 0.07382 0.28542 0.0
H431 H 0.57196 0.10404 0.23695 0.0
H432 H 0.31773 0.32573 0.17786 0.0
H433 H 0.31677 0.30655 0.23735 0.0
H434 H 0.2952 0.35267 0.29352 0.0
H435 H 0.29659 0.37202 0.2348 0.0
H436 H 0.3483 0.33515 0.29845 0.0
H437 H 0.25021 0.28659 0.33942 0.0
H438 H 0.26006 0.29331 0.29157 0.0
H439 H 0.2589 0.3152 0.32094 0.0
C440 C 0.31211 0.33126 0.20281 0.0
C441 C 0.30728 0.35036 0.20189 0.0
C442 C 0.31163 0.32036 0.23668 0.0
C443 C 0.30566 0.32805 0.26969 0.0
C444 C 0.29944 0.3462 0.26828 0.0
H445 H 0.31667 0.35039 0.4934 0.0
H446 H 0.30627 0.34141 0.42829 0.0
C447 C 0.30038 0.35733 0.23475 0.0
C448 C 0.30915 0.31985 0.30645 0.0
H449 H 0.27988 0.30052 0.38952 0.0
C450 C 0.33333 0.3269 0.31825 0.0
C451 C 0.28955 0.30912 0.332 0.0
C452 C 0.26317 0.3004 0.32029 0.0
C453 C 0.3387 0.32563 0.35583 0.0
C454 C 0.31921 0.31654 0.38201 0.0
C455 C 0.29482 0.3076 0.36951 0.0
C456 C 0.32396 0.31968 0.42256 0.0
C457 C 0.36531 0.3359 0.36757 0.0
C458 C 0.33698 0.31005 0.44139 0.0
C459 C 0.34329 0.3154 0.47888 0.0
C460 C 0.33646 0.33031 0.49821 0.0
C461 C 0.32246 0.339 0.47952 0.0
C462 C 0.31634 0.33378 0.4422 0.0
H463 H 0.37823 0.34553 0.34461 0.0
H464 H 0.36921 0.3481 0.3913 0.0
H465 H 0.36911 0.32159 0.37666 0.0
H466 H 0.34262 0.29874 0.42696 0.0
H467 H 0.35385 0.3082 0.49248 0.0
H468 H 0.0466 0.35531 0.47285 0.0
H469 H 0.05223 0.34569 0.53618 0.0
H470 H 0.97634 0.29168 0.53983 0.0
H471 H 0.97028 0.30179 0.47663 0.0
H472 H 0.98643 0.3191 0.5968 0.0
H473 H 0.06082 0.29542 0.58644 0.0
H474 H 0.07023 0.32303 0.56402 0.0
H475 H 0.0443 0.29703 0.54608 0.0
C476 C 0.03117 0.34112 0.48684 0.0
C477 C 0.00793 0.32945 0.46977 0.0
C478 C 0.03452 0.33542 0.52298 0.0
C479 C 0.01487 0.31759 0.54257 0.0
C480 C 0.99183 0.30535 0.52514 0.0
H481 H 0.01585 0.31222 0.78697 0.0
H482 H 0.0075 0.29475 0.72469 0.0
C483 C 0.98837 0.31125 0.48909 0.0
C484 C 0.01762 0.31422 0.58269 0.0
H485 H 0.05821 0.31287 0.64585 0.0
C486 C 0.00165 0.31696 0.60755 0.0
C487 C 0.0374 0.31128 0.59679 0.0
C488 C 0.05395 0.30626 0.57182 0.0
C489 C 0.00619 0.31894 0.64584 0.0
C490 C 0.0272 0.31806 0.65956 0.0
C491 C 0.04218 0.31363 0.63511 0.0
C492 C 0.03583 0.32566 0.69783 0.0
C493 C 0.98959 0.32382 0.67107 0.0
C494 C 0.0553 0.34831 0.70333 0.0
C495 C 0.05999 0.35835 0.7386 0.0
C496 C 0.04536 0.34579 0.76895 0.0
C497 C 0.02738 0.3223 0.76402 0.0
C498 C 0.02256 0.31231 0.72853 0.0
H499 H 0.97511 0.32572 0.65547 0.0
H500 H 0.98043 0.3092 0.69116 0.0
H501 H 0.0006 0.34011 0.6872 0.0
H502 H 0.0657 0.35887 0.67988 0.0
H503 H 0.0741 0.37641 0.74167 0.0
H504 H 0.69205 0.98223 0.83817 0.0
H505 H 0.71053 0.99595 0.89967 0.0
H506 H 0.63803 0.96388 0.94878 0.0
H507 H 0.61969 0.94961 0.88821 0.0
H508 H 0.70588 0.02608 0.94281 0.0
H509 H 0.67257 0.94435 0.02264 0.0
H510 H 0.67083 0.94442 0.97258 0.0
H511 H 0.64688 0.94498 0.00065 0.0
C512 C 0.68014 0.97766 0.86226 0.0
C513 C 0.65441 0.96477 0.85829 0.0
C514 C 0.69071 0.98555 0.89738 0.0
C515 C 0.67574 0.98062 0.92911 0.0
C516 C 0.6501 0.96732 0.9251 0.0
H517 H 0.679 0.06001 0.11231 0.0
H518 H 0.68188 0.04482 0.05193 0.0
C519 C 0.63958 0.95933 0.89023 0.0
C520 C 0.68631 0.99126 0.96579 0.0
H521 H 0.67983 0.9791 0.05865 0.0
C522 C 0.70066 0.01573 0.96808 0.0
C523 C 0.6802 0.97787 -0.00109 0.0
C524 C 0.66702 0.95143 -0.00153 0.0
C525 C 0.7072 0.02722 0.00256 0.0
C526 C 0.69854 0.01397 0.03565 0.0
C527 C 0.68607 0.9894 0.03338 0.0
C528 C 0.69963 0.02515 0.07221 0.0
C529 C 0.72286 0.05351 0.00303 0.0
C530 C 0.70833 0.01898 0.10419 0.0
C531 C 0.70636 0.02746 0.1392 0.0
C532 C 0.69553 0.04215 0.1428 0.0
C533 C 0.68759 0.04886 0.1106 0.0
C534 C 0.68943 0.04032 0.07583 0.0
H535 H 0.73573 0.05955 0.97902 0.0
H536 H 0.71079 0.06178 0.00061 0.0
H537 H 0.73374 0.05968 0.02905 0.0
H538 H 0.71608 0.00714 0.10219 0.0
H539 H 0.71253 0.02187 0.1635 0.0
H540 H 0.64934 0.61139 0.23942 0.0
H541 H 0.65516 0.63113 0.29867 0.0
H542 H 0.70143 0.6977 0.24633 0.0
H543 H 0.69502 0.67782 0.18582 0.0
H544 H 0.69996 0.65624 0.333 0.0
H545 H 0.65373 0.71096 0.31017 0.0
H546 H 0.64876 0.68702 0.27965 0.0
H547 H 0.6773 0.71381 0.27789 0.0
C548 C 0.66068 0.63026 0.24029 0.0
C549 C 0.67189 0.64306 0.20803 0.0
C550 C 0.66395 0.64153 0.27423 0.0
C551 C 0.6787 0.66586 0.27694 0.0
C552 C 0.68972 0.67892 0.24474 0.0
H553 H 0.70292 0.69565 0.51483 0.0
H554 H 0.71413 0.70288 0.44901 0.0
C555 C 0.68616 0.66757 0.21032 0.0
C556 C 0.68302 0.67666 0.31429 0.0
H557 H 0.66587 0.70849 0.37112 0.0
C558 C 0.69295 0.66804 0.34136 0.0
C559 C 0.67382 0.69201 0.32485 0.0
C560 C 0.66266 0.70149 0.2968 0.0
C561 C 0.69199 0.67259 0.37915 0.0
C562 C 0.6819 0.68725 0.39011 0.0
C563 C 0.67366 0.69735 0.36269 0.0
C564 C 0.67657 0.6894 0.42973 0.0
C565 C 0.69984 0.65991 0.40688 0.0
C566 C 0.65209 0.68163 0.44094 0.0
C567 C 0.64582 0.6784 0.47858 0.0
C568 C 0.66389 0.68246 0.50542 0.0
C569 C 0.68864 0.6921 0.49448 0.0
C570 C 0.69501 0.69606 0.45693 0.0
H571 H 0.70186 0.64539 0.39386 0.0
H572 H 0.71796 0.67239 0.41884 0.0
H573 H 0.68628 0.65246 0.42985 0.0
H574 H 0.63754 0.67651 0.42052 0.0
H575 H 0.6266 0.67094 0.4864 0.0
H576 H 0.92437 0.61342 0.76433 0.0
H577 H 0.94044 0.63241 0.70466 0.0
H578 H 0.00566 0.68506 0.75874 0.0
H579 H 0.98959 0.66611 0.81904 0.0
H580 H 0.9603 0.68279 0.67922 0.0
H581 H 0.0279 0.64858 0.68239 0.0
H582 H 0.00095 0.63639 0.71177 0.0
H583 H 0.02599 0.66488 0.72162 0.0
C584 C 0.94196 0.62926 0.7637 0.0
C585 C 0.95585 0.63816 0.79628 0.0
C586 C 0.95105 0.64013 0.7296 0.0
C587 C 0.97428 0.65997 0.72737 0.0
C588 C 0.98772 0.66967 0.76002 0.0
H589 H 0.04625 0.69122 0.50927 0.0
H590 H 0.04063 0.69691 0.57508 0.0
C591 C 0.9785 0.65888 0.79436 0.0
C592 C 0.985 0.66876 0.69032 0.0
H593 H 0.02246 0.66328 0.62593 0.0
C594 C 0.97428 0.67903 0.66768 0.0
C595 C 0.00335 0.66395 0.67556 0.0
C596 C 0.01528 0.65278 0.69886 0.0
C597 C 0.9806 0.68358 0.62998 0.0
C598 C 0.99751 0.67703 0.61446 0.0
C599 C 0.00942 0.66821 0.63778 0.0
C600 C 0.00089 0.67637 0.57376 0.0
C601 C 0.96864 0.69486 0.60704 0.0
C602 C 0.98044 0.66301 0.55112 0.0
C603 C 0.98355 0.65977 0.51358 0.0
C604 C 0.00726 0.66954 0.49787 0.0
C605 C 0.02773 0.68338 0.52042 0.0
C606 C 0.02456 0.68671 0.55803 0.0
H607 H 0.96435 0.70663 0.62435 0.0
H608 H 0.9806 0.70512 0.58358 0.0
H609 H 0.951 0.68102 0.59562 0.0
H610 H 0.96206 0.65425 0.56278 0.0
H611 H 0.96734 0.64895 0.49721 0.0
H612 H 0.32172 0.93965 0.1248 0.0
H613 H 0.32383 0.9568 0.06364 0.0
H614 H 0.31536 0.01283 0.11402 0.0
H615 H 0.3127 0.99542 0.17558 0.0
H616 H 0.29069 0.99753 0.04386 0.0
H617 H 0.38807 0.01596 0.03746 0.0
H618 H 0.36669 0.9856 0.04498 0.0
H619 H 0.37021 0.00693 0.07968 0.0
C620 C 0.31981 0.95537 0.12288 0.0
C621 C 0.31732 0.96633 0.15508 0.0
C622 C 0.32112 0.96521 0.08788 0.0
C623 C 0.32035 0.98639 0.08435 0.0
C624 C 0.31615 0.99655 0.11615 0.0
H625 H 0.3895 0.07693 0.89543 0.0
H626 H 0.37527 0.06215 0.95798 0.0
C627 C 0.3146 0.98656 0.15129 0.0
C628 C 0.3261 0.9988 0.04803 0.0
H629 H 0.37122 0.02226 0.98223 0.0
C630 C 0.30832 0.00308 0.03039 0.0
C631 C 0.3493 0.00643 0.03082 0.0
C632 C 0.36977 0.00374 0.04932 0.0
C633 C 0.31293 0.01422 0.99547 0.0
C634 C 0.33577 0.02093 0.97757 0.0
C635 C 0.35366 0.01706 0.99573 0.0
C636 C 0.34183 0.03184 0.93996 0.0
C637 C 0.29345 0.01899 0.97839 0.0
C638 C 0.32744 0.02018 0.90885 0.0
C639 C 0.33542 0.02883 0.87291 0.0
C640 C 0.35815 0.04907 0.86745 0.0
C641 C 0.37193 0.06126 0.89869 0.0
C642 C 0.36383 0.0528 0.9345 0.0
H643 H 0.28076 0.01954 -0.00019 0.0
H644 H 0.30182 0.03583 0.96293 0.0
H645 H 0.28231 0.00471 0.95864 0.0
H646 H 0.31069 0.00373 0.91213 0.0
H647 H 0.32451 0.01892 0.84938 0.0
H648 H 0.12644 0.4305 0.94138 0.0
H649 H 0.15506 0.42404 0.98018 0.0
H650 H 0.12412 0.35298 0.94025 0.0
H651 H 0.09553 0.35931 0.90087 0.0
H652 H 0.14068 0.39001 0.03697 0.0
H653 H 0.19862 0.37757 0.92998 0.0
H654 H 0.17921 0.39059 0.91925 0.0
H655 H 0.16588 0.35946 0.92547 0.0
C656 C 0.12595 0.4136 0.9403 0.0
C657 C 0.10865 0.39542 0.91799 0.0
C658 C 0.14226 0.40991 0.96264 0.0
C659 C 0.14168 0.38805 0.96309 0.0
C660 C 0.12506 0.37008 0.93996 0.0
H661 H 0.24664 0.35795 0.08306 0.0
H662 H 0.20703 0.3495 0.05532 0.0
C663 C 0.10876 0.37377 0.91742 0.0
C664 C 0.15786 0.38399 0.98905 0.0
H665 H 0.20781 0.3748 0.9925 0.0
C666 C 0.15524 0.38647 0.0273 0.0
C667 C 0.17658 0.37907 0.97636 0.0
C668 C 0.18047 0.37666 0.93554 0.0
C669 C 0.17145 0.385 0.05316 0.0
C670 C 0.19092 0.38125 0.04032 0.0
C671 C 0.19277 0.37758 0.00226 0.0
C672 C 0.21149 0.38424 0.06477 0.0
C673 C 0.16789 0.38792 0.0939 0.0
C674 C 0.22661 0.40627 0.08053 0.0
C675 C 0.24919 0.41115 0.09626 0.0
C676 C 0.25709 0.39409 0.09643 0.0
C677 C 0.24098 0.3714 0.08358 0.0
C678 C 0.21841 0.36658 0.06752 0.0
H679 H 0.14832 0.38268 0.10022 0.0
H680 H 0.17382 0.3774 0.11138 0.0
H681 H 0.1791 0.40665 0.10158 0.0
H682 H 0.22183 0.42027 0.07819 0.0
H683 H 0.2612 0.42878 0.106 0.0
H684 H 0.88714 0.29466 0.38282 0.0
H685 H 0.84888 0.26027 0.36404 0.0
H686 H 0.88992 0.22442 0.3338 0.0
H687 H 0.92817 0.25878 0.35179 0.0
H688 H 0.85981 0.22404 0.27802 0.0
H689 H 0.80786 0.19615 0.41048 0.0
H690 H 0.81855 0.22646 0.39957 0.0
H691 H 0.84048 0.21624 0.40881 0.0
C692 C 0.88792 0.27925 0.37297 0.0
C693 C 0.91064 0.27942 0.36871 0.0
C694 C 0.86605 0.25959 0.3623 0.0
C695 C 0.86655 0.23973 0.34771 0.0
C696 C 0.88912 0.23956 0.34495 0.0
H697 H 0.75431 0.10797 0.25364 0.0
H698 H 0.79371 0.14111 0.27217 0.0
C699 C 0.91095 0.2592 0.35536 0.0
C700 C 0.84392 0.21985 0.33262 0.0
H701 H 0.78538 0.17888 0.35515 0.0
C702 C 0.84358 0.21403 0.29494 0.0
C703 C 0.8228 0.20685 0.35475 0.0
C704 C 0.82244 0.21156 0.39573 0.0
C705 C 0.82249 0.19589 0.27858 0.0
C706 C 0.8013 0.18313 0.3006 0.0
C707 C 0.80168 0.1888 0.33833 0.0
C708 C 0.77828 0.16405 0.28511 0.0
C709 C 0.82279 0.19088 0.23772 0.0
C710 C 0.75672 0.16615 0.28567 0.0
C711 C 0.73428 0.14734 0.27516 0.0
C712 C 0.73289 0.12593 0.2641 0.0
C713 C 0.75475 0.12424 0.26178 0.0
C714 C 0.77728 0.14315 0.27239 0.0
H715 H 0.83854 0.20536 0.22313 0.0
H716 H 0.82442 0.17467 0.23428 0.0
H717 H 0.80539 0.188 0.2242 0.0
H718 H 0.75715 0.18217 0.29527 0.0
H719 H 0.71786 0.14934 0.27702 0.0
H720 H 0.64627 0.89804 0.7512 0.0
H721 H 0.65161 0.86398 0.73521 0.0
H722 H 0.57459 0.82493 0.70699 0.0
H723 H 0.56893 0.85846 0.72349 0.0
H724 H 0.5919 0.79834 0.745 0.0
H725 H 0.65257 0.84618 0.62598 0.0
H726 H 0.66263 0.85988 0.67057 0.0
H727 H 0.63465 0.85707 0.65069 0.0
C728 C 0.63038 0.88205 0.74228 0.0
C729 C 0.60725 0.88111 0.73815 0.0
C730 C 0.63351 0.86269 0.73281 0.0
C731 C 0.6136 0.84215 0.71907 0.0
C732 C 0.59024 0.84069 0.7172 0.0
H733 H 0.58543 0.70995 0.61956 0.0
H734 H 0.58292 0.74421 0.64316 0.0
C735 C 0.58708 0.85994 0.7266 0.0
C736 C 0.61703 0.82246 0.70486 0.0
H737 H 0.64478 0.80733 0.63583 0.0
C738 C 0.60352 0.8003 0.72123 0.0
C739 C 0.6321 0.82508 0.67365 0.0
C740 C 0.64618 0.84826 0.65391 0.0
C741 C 0.60474 0.78066 0.70732 0.0
C742 C 0.61956 0.78323 0.67587 0.0
C743 C 0.63336 0.80544 0.65983 0.0
C744 C 0.62124 0.76309 0.65952 0.0
C745 C 0.59037 0.75737 0.72663 0.0
C746 C 0.6438 0.76281 0.6596 0.0
C747 C 0.64532 0.74339 0.64599 0.0
C748 C 0.62431 0.72393 0.6318 0.0
C749 C 0.60191 0.72464 0.63038 0.0
C750 C 0.60041 0.7441 0.64413 0.0
H751 H 0.58471 0.75945 0.75509 0.0
H752 H 0.57346 0.74633 0.71044 0.0
H753 H 0.60137 0.74795 0.72848 0.0
H754 H 0.66012 0.77738 0.6711 0.0
H755 H 0.66287 0.74342 0.64738 0.0
H756 H 0.7284 0.57353 0.10729 0.0
H757 H 0.7684 0.58568 0.07824 0.0
H758 H 0.77824 0.65563 0.06443 0.0
H759 H 0.73832 0.64372 0.09385 0.0
H760 H 0.77612 0.63047 0.99711 0.0
H761 H 0.84323 0.6291 0.09808 0.0
H762 H 0.8129 0.60449 0.10204 0.0
H763 H 0.81752 0.63347 0.11185 0.0
C764 C 0.73952 0.59175 0.09952 0.0
C765 C 0.7301 0.6076 0.10255 0.0
C766 C 0.76242 0.59869 0.08299 0.0
C767 C 0.7762 0.62153 0.06915 0.0
C768 C 0.76788 0.63796 0.07513 0.0
H769 H 0.90259 0.64011 0.93401 0.0
H770 H 0.87731 0.65307 0.96932 0.0
C771 C 0.74511 0.63112 0.09215 0.0
C772 C 0.7965 0.62662 0.04282 0.0
H773 H 0.84964 0.62316 0.03372 0.0
C774 C 0.79257 0.62952 0.00518 0.0
C775 C 0.81788 0.62543 0.05345 0.0
C776 C 0.82332 0.62317 0.09362 0.0
C777 C 0.80857 0.62946 0.97759 0.0
C778 C 0.82893 0.62647 0.98803 0.0
C779 C 0.83391 0.62538 0.02583 0.0
C780 C 0.84325 0.62113 0.96043 0.0
C781 C 0.803 0.63144 0.93737 0.0
C782 C 0.83222 0.59921 0.94281 0.0
C783 C 0.84658 0.59167 0.92299 0.0
C784 C 0.87218 0.60603 0.92024 0.0
C785 C 0.88286 0.62878 0.93527 0.0
C786 C 0.86851 0.63616 0.95566 0.0
H787 H 0.79073 0.63949 0.93434 0.0
H788 H 0.82025 0.64203 0.92154 0.0
H789 H 0.79359 0.61366 0.9249 0.0
H790 H 0.81277 0.58728 0.94654 0.0
H791 H 0.83791 0.57404 0.91179 0.0
H792 H 0.12578 0.7111 0.39595 0.0
H793 H 0.16227 0.74638 0.37418 0.0
H794 H 0.11828 0.78116 0.35881 0.0
H795 H 0.08185 0.74612 0.38045 0.0
H796 H 0.163 0.76542 0.30009 0.0
H797 H 0.18166 0.83051 0.41262 0.0
H798 H 0.16433 0.79928 0.42037 0.0
H799 H 0.15023 0.81437 0.39721 0.0
C800 C 0.12403 0.72648 0.38888 0.0
C801 C 0.10096 0.72584 0.38983 0.0
C802 C 0.14483 0.74655 0.37626 0.0
C803 C 0.14292 0.76635 0.365 0.0
C804 C 0.12018 0.76616 0.36776 0.0
H805 H 0.25306 0.90051 0.27206 0.0
H806 H 0.21315 0.86753 0.2898 0.0
C807 C 0.09938 0.74609 0.38006 0.0
C808 C 0.16406 0.78636 0.34714 0.0
H809 H 0.20486 0.84441 0.3574 0.0
C810 C 0.17221 0.78269 0.31261 0.0
C811 C 0.17566 0.80892 0.36326 0.0
C812 C 0.16772 0.81362 0.40053 0.0
C813 C 0.19185 0.80101 0.29382 0.0
C814 C 0.20398 0.82345 0.31043 0.0
C815 C 0.19546 0.82723 0.34462 0.0
C816 C 0.22695 0.84258 0.29469 0.0
C817 C 0.19933 0.79617 0.25627 0.0
C818 C 0.24773 0.83934 0.29086 0.0
C819 C 0.27035 0.85798 0.28067 0.0
C820 C 0.27278 0.88039 0.27436 0.0
C821 C 0.25171 0.88341 0.27641 0.0
C822 C 0.22897 0.86465 0.2868 0.0
H823 H 0.18369 0.78126 0.24223 0.0
H824 H 0.20622 0.81179 0.23794 0.0
H825 H 0.21426 0.79142 0.25991 0.0
H826 H 0.24674 0.82262 0.29745 0.0
H827 H 0.28621 0.85505 0.27928 0.0
H828 H 0.43622 0.15644 0.73231 0.0
H829 H 0.42812 0.1882 0.71395 0.0
H830 H 0.35052 0.14415 0.73392 0.0
H831 H 0.35843 0.11182 0.75179 0.0
H832 H 0.36038 0.16439 0.66437 0.0
H833 H 0.41076 0.23218 0.77042 0.0
H834 H 0.42972 0.2212 0.74986 0.0
H835 H 0.40314 0.20187 0.77675 0.0
C836 C 0.41744 0.15355 0.73352 0.0
C837 C 0.39794 0.1315 0.74337 0.0
C838 C 0.41287 0.17184 0.72324 0.0
C839 C 0.38875 0.16865 0.72287 0.0
C840 C 0.3693 0.147 0.73419 0.0
H841 H 0.33471 0.26181 0.63782 0.0
H842 H 0.33739 0.22817 0.66332 0.0
C843 C 0.37387 0.1286 0.74461 0.0
C844 C 0.3839 0.18723 0.70725 0.0
H845 H 0.40167 0.24565 0.71325 0.0
C846 C 0.36909 0.18208 0.67538 0.0
C847 C 0.39538 0.21032 0.72153 0.0
C848 C 0.41044 0.21668 0.75674 0.0
C849 C 0.36621 0.19961 0.65661 0.0
C850 C 0.37832 0.22282 0.67027 0.0
C851 C 0.39265 0.22786 0.7026 0.0
C852 C 0.37624 0.24216 0.65169 0.0
C853 C 0.35092 0.19339 0.62165 0.0
C854 C 0.39718 0.2611 0.63641 0.0
C855 C 0.3957 0.28035 0.62165 0.0
C856 C 0.37331 0.28108 0.62238 0.0
C857 C 0.35222 0.26175 0.63672 0.0
C858 C 0.35368 0.24248 0.65125 0.0
H859 H 0.34704 0.17597 0.61065 0.0
H860 H 0.33307 0.19293 0.62775 0.0
H861 H 0.36038 0.2068 0.59978 0.0
H862 H 0.41477 0.26117 0.6366 0.0
H863 H 0.41229 0.29502 0.61102 0.0
H864 H 0.31891 0.33585 0.68978 0.0
H865 H 0.30895 0.34449 0.75184 0.0
H866 H 0.38622 0.39082 0.77159 0.0
H867 H 0.39569 0.38384 0.70847 0.0
H868 H 0.31997 0.33533 0.81527 0.0
H869 H 0.36049 0.43149 0.80917 0.0
H870 H 0.3594 0.41468 0.76882 0.0
H871 H 0.38419 0.42347 0.80174 0.0
C872 C 0.3335 0.34874 0.70686 0.0
C873 C 0.35783 0.36023 0.69381 0.0
C874 C 0.32792 0.35335 0.74253 0.0
C875 C 0.34675 0.36887 0.76622 0.0
C876 C 0.37121 0.37963 0.75347 0.0
H877 H 0.34153 0.36913 0.00714 0.0
H878 H 0.34401 0.35983 0.94185 0.0
C879 C 0.37665 0.3755 0.71752 0.0
C880 C 0.3411 0.37249 0.80507 0.0
H881 H 0.35319 0.41452 0.8707 0.0
C882 C 0.32694 0.35269 0.82718 0.0
C883 C 0.35006 0.39511 0.82082 0.0
C884 C 0.36415 0.41733 0.79868 0.0
C885 C 0.32192 0.35485 0.8646 0.0
C886 C 0.33193 0.37741 0.88067 0.0
C887 C 0.34567 0.39719 0.85846 0.0
C888 C 0.32849 0.38118 0.92039 0.0
C889 C 0.30572 0.33297 0.88633 0.0
C890 C 0.31924 0.39646 0.93004 0.0
C891 C 0.31832 0.40217 0.96712 0.0
C892 C 0.32643 0.39254 0.99542 0.0
C893 C 0.33494 0.37663 0.98593 0.0
C894 C 0.33622 0.37119 0.94864 0.0
H895 H 0.29356 0.31837 0.86769 0.0
H896 H 0.31749 0.32727 0.90185 0.0
H897 H 0.29405 0.33613 0.90658 0.0
H898 H 0.31317 0.40438 0.90874 0.0
H899 H 0.31149 0.41436 0.97359 0.0
H900 H 0.00549 0.32328 0.28017 0.0
H901 H 0.01053 0.32129 0.21286 0.0
H902 H 0.99193 0.37692 0.19667 0.0
H903 H 0.98669 0.37874 0.26385 0.0
H904 H 0.96243 0.33494 0.15633 0.0
H905 H 0.06279 0.36508 0.13761 0.0
H906 H 0.04686 0.34462 0.17441 0.0
H907 H 0.05094 0.3739 0.17687 0.0
C908 C 0.00345 0.33566 0.26222 0.0
C909 C 0.99639 0.35162 0.27691 0.0
C910 C 0.00617 0.33442 0.22388 0.0
C911 C 0.00172 0.34905 0.19992 0.0
C912 C 0.9955 0.36554 0.2148 0.0
H913 H 0.00452 0.39464 0.98647 0.0
H914 H 0.99318 0.3794 0.04932 0.0
C915 C 0.99266 0.36668 0.25301 0.0
C916 C 0.00131 0.34598 0.15925 0.0
H917 H 0.03848 0.35582 0.084 0.0
C918 C 0.97898 0.33919 0.14048 0.0
C919 C 0.02284 0.35121 0.13882 0.0
C920 C 0.04732 0.3592 0.15772 0.0
C921 C 0.97792 0.3387 0.10161 0.0
C922 C -0.00025 0.34527 0.08119 0.0
C923 C 0.02174 0.3506 0.09991 0.0
C924 C 0.00126 0.3507 0.04121 0.0
C925 C 0.95369 0.33201 0.08265 0.0
C926 C 0.00896 0.33921 0.01561 0.0
C927 C 0.01523 0.34779 0.97936 0.0
C928 C 0.01441 0.36827 0.96878 0.0
C929 C 0.0053 0.37884 0.99388 0.0
C930 C 0.99869 0.37007 0.02975 0.0
H931 H 0.93786 0.32074 0.10077 0.0
H932 H 0.95241 0.34813 0.07625 0.0
H933 H 0.95219 0.32265 0.05616 0.0
H934 H 0.01128 0.32437 0.0242 0.0
H935 H 0.02245 0.33947 0.96062 0.0
H936 H 0.61522 0.92925 0.61437 0.0
H937 H 0.6319 0.94489 0.5531 0.0
H938 H 0.67463 0.01369 0.60077 0.0
H939 H 0.65877 0.99777 0.66254 0.0
H940 H 0.62274 0.97488 0.51858 0.0
H941 H 0.72405 0.01361 0.52933 0.0
H942 H 0.70354 0.99407 0.56422 0.0
H943 H 0.71169 0.02468 0.56443 0.0
C944 C 0.62866 0.9476 0.61188 0.0
C945 C 0.63571 0.96233 0.64312 0.0
C946 C 0.63819 0.95653 0.57686 0.0
C947 C 0.65468 0.98046 0.5722 0.0
C948 C 0.66246 0.99506 0.60366 0.0
H949 H 0.67755 0.07243 0.39107 0.0
H950 H 0.67625 0.05392 0.45064 0.0
C951 C 0.65329 0.98599 0.63896 0.0
C952 C 0.66105 0.99042 0.5341 0.0
H953 H 0.70864 0.02646 0.47752 0.0
C954 C 0.64158 0.9858 0.5095 0.0
C955 C 0.68562 0.00477 0.52212 0.0
C956 C 0.70741 0.00938 0.54631 0.0
C957 C 0.64592 0.9956 0.47384 0.0
C958 C 0.67034 0.01054 0.46245 0.0
C959 C 0.68993 0.01492 0.48651 0.0
C960 C 0.67531 0.023 0.42657 0.0
C961 C 0.62435 0.99054 0.44877 0.0
C962 C 0.67576 0.01187 0.3934 0.0
C963 C 0.67654 0.02242 0.3591 0.0
C964 C 0.6766 0.04413 0.35763 0.0
C965 C 0.67731 0.05563 0.39114 0.0
C966 C 0.67672 0.04517 0.42525 0.0
H967 H 0.6064 0.97856 0.46188 0.0
H968 H 0.62437 0.00717 0.44141 0.0
H969 H 0.62612 0.98246 0.42255 0.0
H970 H 0.67448 0.99463 0.39403 0.0
H971 H 0.67591 0.01308 0.33385 0.0
H972 H 0.68314 0.67448 0.69265 0.0
H973 H 0.69559 0.66749 0.75418 0.0
H974 H 0.62188 0.61137 0.77248 0.0
H975 H 0.60986 0.61773 0.71055 0.0
H976 H 0.67651 0.67215 0.81948 0.0
H977 H 0.66184 0.58116 0.80905 0.0
H978 H 0.66786 0.60018 0.76953 0.0
H979 H 0.63733 0.58493 0.78888 0.0
C980 C 0.66999 0.66005 0.70935 0.0
C981 C 0.64586 0.646 0.69661 0.0
C982 C 0.67699 0.65625 0.74455 0.0
C983 C 0.6598 0.63859 0.76763 0.0
C984 C 0.63568 0.62455 0.75472 0.0
H985 H 0.64488 0.62853 0.00434 0.0
H986 H 0.64787 0.64036 0.9391 0.0
C987 C 0.62877 0.62826 0.71951 0.0
C988 C 0.66611 0.63619 0.80651 0.0
H989 H 0.66217 0.59552 0.86977 0.0
C990 C 0.67379 0.6555 0.83044 0.0
C991 C 0.663 0.61465 0.82064 0.0
C992 C 0.65726 0.59405 0.79569 0.0
C993 C 0.67731 0.65349 0.86853 0.0
C994 C 0.67227 0.63139 0.88311 0.0
C995 C 0.66569 0.61241 0.85879 0.0
C996 C 0.67285 0.62707 0.92345 0.0
C997 C 0.68642 0.67505 0.89258 0.0
C998 C 0.68565 0.61547 0.93632 0.0
C999 C 0.68331 0.60809 0.97314 0.0
C1000 C 0.66847 0.61254 -0.00204 0.0
C1001 C 0.65661 0.62514 0.98571 0.0
C1002 C 0.65849 0.63206 0.94854 0.0
H1003 H 0.69754 0.69122 0.87617 0.0
H1004 H 0.67039 0.67628 0.90406 0.0
H1005 H 0.69779 0.67446 0.91603 0.0
H1006 H 0.69684 0.61144 0.91754 0.0
H1007 H 0.69279 0.59855 0.98209 0.0
H1008 H 0.02308 0.62424 0.28898 0.0
H1009 H 0.00918 0.61898 0.2243 0.0
H1010 H 0.98909 0.67387 0.2373 0.0
H1011 H 0.00269 0.67883 0.30242 0.0
H1012 H 0.95377 0.63565 0.20085 0.0
H1013 H 0.04511 0.66227 0.13842 0.0
H1014 H 0.03708 0.63925 0.17181 0.0
H1015 H 0.04127 0.66742 0.18667 0.0
C1016 C 0.01545 0.63497 0.27797 0.0
C1017 C 0.01314 0.65138 0.30059 0.0
C1018 C 0.0078 0.63217 0.24106 0.0
C1019 C 0.99854 0.64633 0.22588 0.0
C1020 C 0.99629 0.66284 0.2485 0.0
H1021 H 0.97297 0.63867 0.98494 0.0
H1022 H 0.98818 0.65445 0.04699 0.0
C1023 C 0.00379 0.66551 0.28561 0.0
C1024 C 0.99074 0.64338 0.18658 0.0
H1025 H 0.01003 0.64017 0.09899 0.0
C1026 C 0.96612 0.63695 0.1785 0.0
C1027 C 0.00706 0.64566 0.15734 0.0
C1028 C 0.03416 0.65429 0.16393 0.0
C1029 C 0.957 0.63137 0.14219 0.0
C1030 C 0.97284 0.63174 0.11346 0.0
C1031 C 0.99782 0.63954 0.12116 0.0
C1032 C 0.96351 0.62257 0.07593 0.0
C1033 C 0.93042 0.62487 0.13508 0.0
C1034 C 0.94505 0.5993 0.07169 0.0
C1035 C 0.93631 0.59028 0.03649 0.0
C1036 C 0.94609 0.60426 0.00465 0.0
C1037 C 0.96504 0.62744 0.00887 0.0
C1038 C 0.9737 0.63651 0.04427 0.0
H1039 H 0.92353 0.63298 0.15597 0.0
H1040 H 0.92791 0.6304 0.10692 0.0
H1041 H 0.91894 0.60558 0.13728 0.0
H1042 H 0.93749 0.58801 0.09567 0.0
H1043 H 0.9219 0.57228 0.03433 0.0
H1044 H 0.32371 0.92877 0.40176 0.0
H1045 H 0.3244 0.94589 0.4623 0.0
H1046 H 0.34146 0.01165 0.40971 0.0
H1047 H 0.34001 0.9943 0.34868 0.0
H1048 H 0.36417 0.98052 0.49168 0.0
H1049 H 0.29142 0.00741 0.48534 0.0
H1050 H 0.29352 0.98774 0.45179 0.0
H1051 H 0.31292 0.0189 0.44762 0.0
C1052 C 0.32715 0.94676 0.40297 0.0
C1053 C 0.3319 0.96022 0.37042 0.0
C1054 C 0.3275 0.95652 0.43764 0.0
C1055 C 0.3328 0.98002 0.44066 0.0
C1056 C 0.33675 0.99333 0.40811 0.0
H1057 H 0.39862 0.078 0.61703 0.0
H1058 H 0.38169 0.05797 0.55832 0.0
C1059 C 0.33606 0.98344 0.37322 0.0
C1060 C 0.33686 0.99106 0.47797 0.0
H1061 H 0.32071 0.02369 0.53509 0.0
C1062 C 0.35437 0.98966 0.50127 0.0
C1063 C 0.32413 0.00305 0.49057 0.0
C1064 C 0.30427 0.00419 0.46767 0.0
C1065 C 0.35991 1.00032 0.53632 0.0
C1066 C 0.34772 0.0128 0.54842 0.0
C1067 C 0.32996 0.01403 0.52558 0.0
C1068 C 0.35466 0.02583 0.58386 0.0
C1069 C 0.37922 0.99871 0.56005 0.0
C1070 C 0.34456 0.01447 0.6176 0.0
C1071 C 0.35417 0.02589 0.6514 0.0
C1072 C 0.37419 0.04873 0.65181 0.0
C1073 C 0.38334 0.06036 0.61777 0.0
C1074 C 0.37362 0.04902 0.58415 0.0
H1075 H 0.38691 0.98815 0.54671 0.0
H1076 H 0.39451 0.01657 0.5656 0.0
H1077 H 0.37111 0.99067 0.58725 0.0
H1078 H 0.33 0.99647 0.61776 0.0
H1079 H 0.34677 0.01642 0.67707 0.0
H1080 H 0.38731 0.45722 0.16459 0.0
H1081 H 0.43188 0.48356 0.16754 0.0
H1082 H 0.44157 0.4528 0.06667 0.0
H1083 H 0.39745 0.42549 0.06554 0.0
H1084 H 0.47272 0.45445 0.11447 0.0
H1085 H 0.47701 0.54189 0.11612 0.0
H1086 H 0.45934 0.52317 0.15359 0.0
H1087 H 0.44915 0.51533 0.10644 0.0
C1088 C 0.39904 0.45661 0.1427 0.0
C1089 C 0.38912 0.43989 0.11429 0.0
C1090 C 0.42448 0.47168 0.14427 0.0
C1091 C 0.44021 0.47049 0.11702 0.0
C1092 C 0.42994 0.45411 0.08808 0.0
H1093 H 0.58711 0.57269 0.0631 0.0
H1094 H 0.54323 0.54436 0.0655 0.0
C1095 C 0.40475 0.43866 0.08719 0.0
C1096 C 0.46748 0.4849 0.11948 0.0
H1097 H 0.51447 0.54105 0.12371 0.0
C1098 C 0.48182 0.47341 0.11644 0.0
C1099 C 0.47948 0.50964 0.12245 0.0
C1100 C 0.4655 0.52332 0.1246 0.0
C1101 C 0.50761 0.48594 0.11462 0.0
C1102 C 0.51951 0.51063 0.11697 0.0
C1103 C 0.50529 0.52208 0.12165 0.0
C1104 C 0.54653 0.52526 0.1126 0.0
C1105 C 0.52177 0.47273 0.10795 0.0
C1106 C 0.56309 0.52356 0.13763 0.0
C1107 C 0.58828 0.53948 0.13569 0.0
C1108 C 0.59712 0.5573 0.10883 0.0
C1109 C 0.58067 0.55873 0.0835 0.0
C1110 C 0.55565 0.54266 0.08502 0.0
H1111 H 0.50956 0.45415 0.10026 0.0
H1112 H 0.53523 0.48125 0.08527 0.0
H1113 H 0.532 0.47303 0.13343 0.0
H1114 H 0.55645 0.51072 0.15977 0.0
H1115 H 0.60063 0.53864 0.1563 0.0
H1116 H 0.05203 0.60496 0.40974 0.0
H1117 H 0.05009 0.56636 0.41311 0.0
H1118 H 0.97136 0.53383 0.42759 0.0
H1119 H 0.97296 0.57203 0.42394 0.0
H1120 H 0.03042 0.52946 0.46796 0.0
H1121 H 0.9804 0.5024 0.33362 0.0
H1122 H 0.99597 0.53251 0.3489 0.0
H1123 H 0.9663 0.5125 0.3676 0.0
C1124 C 0.03433 0.58964 0.41408 0.0
C1125 C 0.01263 0.59165 0.41612 0.0
C1126 C 0.03327 0.56759 0.41597 0.0
C1127 C 0.01052 0.54722 0.41986 0.0
C1128 C 0.98904 0.54929 0.42381 0.0
H1129 H 0.96332 0.39784 0.40559 0.0
H1130 H 0.96531 0.43594 0.4166 0.0
C1131 C 0.99005 0.57121 0.42184 0.0
C1132 C 0.00898 0.52371 0.41819 0.0
H1133 H 0.9848 0.47328 0.36718 0.0
C1134 C 0.02051 0.51717 0.44592 0.0
C1135 C 0.996 0.50772 0.38939 0.0
C1136 C 0.98413 0.51413 0.35797 0.0
C1137 C 0.01908 0.49487 0.4459 0.0
C1138 C 0.00612 0.4789 0.41706 0.0
C1139 C 0.99457 0.48547 0.38942 0.0
C1140 C 0.00508 0.45562 0.41396 0.0
C1141 C 0.0311 0.48847 0.47707 0.0
C1142 C 0.02676 0.45402 0.40894 0.0
C1143 C 0.02571 0.43231 0.40265 0.0
C1144 C 0.0029 0.41167 0.40097 0.0
C1145 C 0.9812 0.41329 0.40679 0.0
C1146 C 0.9823 0.43507 0.41305 0.0
H1147 H 0.03402 0.49964 0.50194 0.0
H1148 H 0.01982 0.46982 0.48519 0.0
H1149 H 0.04937 0.4911 0.46769 0.0
H1150 H 0.04451 0.46968 0.40871 0.0
H1151 H 0.04283 0.43185 0.39816 0.0
H1152 H 0.5503 0.94808 0.78862 0.0
H1153 H 0.52147 0.96406 0.78937 0.0
H1154 H 0.57549 0.02623 0.73337 0.0
H1155 H 0.60312 0.00898 0.72921 0.0
H1156 H 0.52244 0.99955 0.82047 0.0
H1157 H 0.51934 0.01292 0.66918 0.0
H1158 H 0.5389 0.00208 0.68809 0.0
H1159 H 0.54888 0.03294 0.68781 0.0
C1160 C 0.55544 0.96466 0.77501 0.0
C1161 C 0.57808 0.9766 0.75661 0.0
C1162 C 0.53925 0.97406 0.77614 0.0
C1163 C 0.54589 0.9961 0.76028 0.0
C1164 C 0.56938 0.00878 0.74427 0.0
H1165 H 0.46182 0.07137 0.80222 0.0
H1166 H 0.49374 0.05892 0.80286 0.0
C1167 C 0.58521 0.99899 0.74208 0.0
C1168 C 0.52839 0.00585 0.76157 0.0
H1169 H 0.49864 0.02788 0.70792 0.0
C1170 C 0.5173 0.00578 0.79577 0.0
C1171 C 0.52175 0.01427 0.72947 0.0
C1172 C 0.53272 0.01536 0.69161 0.0
C1173 C 0.49955 0.01342 0.79862 0.0
C1174 C 0.49284 0.02153 0.76648 0.0
C1175 C 0.50402 0.02186 0.7325 0.0
C1176 C 0.4736 0.02898 0.76702 0.0
C1177 C 0.4876 0.01215 0.83572 0.0
C1178 C 0.45194 0.01645 0.74631 0.0
C1179 C 0.43392 0.02365 0.74572 0.0
C1180 C 0.43763 0.04384 0.76496 0.0
C1181 C 0.45903 0.05614 0.78627 0.0
C1182 C 0.47704 0.04887 0.78706 0.0
H1183 H 0.49103 0.00105 0.85586 0.0
H1184 H 0.49522 0.03006 0.84752 0.0
H1185 H 0.4674 0.00506 0.83251 0.0
H1186 H 0.44897 0.00105 0.7307 0.0
H1187 H 0.41724 0.01366 0.72979 0.0
H1188 H 0.55714 0.60378 0.59683 0.0
H1189 H 0.52224 0.56447 0.58936 0.0
H1190 H 0.57009 0.54081 0.53984 0.0
H1191 H 0.60519 0.57997 0.54726 0.0
H1192 H 0.51791 0.52576 0.50495 0.0
H1193 H 0.52201 0.50826 0.65557 0.0
H1194 H 0.52328 0.53569 0.64301 0.0
H1195 H 0.54822 0.53023 0.63056 0.0
C1196 C 0.56023 0.59038 0.5837 0.0
C1197 C 0.58406 0.59506 0.57287 0.0
C1198 C 0.54026 0.56791 0.57959 0.0
C1199 C 0.54371 0.54979 0.56434 0.0
C1200 C 0.56713 0.55461 0.55172 0.0
H1201 H 0.44442 0.39994 0.58969 0.0
H1202 H 0.48136 0.4379 0.58148 0.0
C1203 C 0.58715 0.57702 0.55605 0.0
C1204 C 0.52326 0.52548 0.56397 0.0
H1205 H 0.48921 0.4792 0.62107 0.0
C1206 C 0.51163 0.51551 0.53024 0.0
C1207 C 0.51544 0.51213 0.59697 0.0
C1208 C 0.5279 0.52194 0.63367 0.0
C1209 C 0.49182 0.49259 0.52888 0.0
C1210 C 0.48351 0.47948 0.56212 0.0
C1211 C 0.49562 0.4893 0.59564 0.0
C1212 C 0.46151 0.456 0.56322 0.0
C1213 C 0.47995 0.48255 0.49196 0.0
C1214 C 0.43818 0.45361 0.55543 0.0
C1215 C 0.41707 0.43204 0.56026 0.0
C1216 C 0.41884 0.41237 0.573 0.0
C1217 C 0.44236 0.41466 0.57965 0.0
C1218 C 0.46349 0.43634 0.57507 0.0
H1219 H 0.49215 0.49227 0.46835 0.0
H1220 H 0.47518 0.46379 0.48982 0.0
H1221 H 0.46268 0.48377 0.48939 0.0
H1222 H 0.4362 0.46864 0.54684 0.0
H1223 H 0.3993 0.43097 0.55483 0.0
H1224 H 0.91208 0.52904 0.8394 0.0
H1225 H 0.91992 0.4959 0.82628 0.0
H1226 H 0.98298 0.52599 0.89907 0.0
H1227 H 0.97488 0.55872 0.91267 0.0
H1228 H 0.96807 0.50174 0.79636 0.0
H1229 H 0.94421 0.457 0.93407 0.0
H1230 H 0.9252 0.46752 0.91192 0.0
H1231 H 0.95429 0.48798 0.93183 0.0
C1232 C 0.9271 0.52808 0.85342 0.0
C1233 C 0.94241 0.54586 0.87803 0.0
C1234 C 0.93175 0.50938 0.84558 0.0
C1235 C 0.95186 0.50842 0.86205 0.0
C1236 C 0.96712 0.52623 0.88659 0.0
H1237 H 0.04227 0.44486 0.81278 0.0
H1238 H 0.02123 0.46868 0.80878 0.0
C1239 C 0.96249 0.54485 0.89438 0.0
C1240 C 0.95793 0.48956 0.85255 0.0
H1241 H 0.96374 0.44473 0.89153 0.0
C1242 C 0.96704 0.48911 0.81699 0.0
C1243 C 0.95612 0.47289 0.8792 0.0
C1244 C 0.94444 0.4712 0.91652 0.0
C1245 C 0.9754 0.47297 0.808 0.0
C1246 C 0.97507 0.45726 0.83565 0.0
C1247 C 0.96467 0.45705 0.87045 0.0
C1248 C 0.98647 0.44173 0.83073 0.0
C1249 C 0.98416 0.47283 0.76895 0.0
C1250 C 0.97412 0.41857 0.84396 0.0
C1251 C 0.9866 0.40559 0.84811 0.0
C1252 C 0.01161 0.41543 0.83888 0.0
C1253 C 0.02332 0.43751 0.82192 0.0
C1254 C 0.01101 0.45082 0.81859 0.0
H1255 H 0.97421 0.47821 0.74869 0.0
H1256 H 0.00402 0.48568 0.76689 0.0
H1257 H 0.98154 0.45527 0.76094 0.0
H1258 H 0.95509 0.4109 0.85288 0.0
H1259 H 0.97691 0.38814 0.85989 0.0
H1260 H 0.59998 0.00343 0.27844 0.0
H1261 H 0.55522 0.9884 0.27791 0.0
H1262 H 0.56435 0.04468 0.20471 0.0
H1263 H 0.60909 0.05932 0.20458 0.0
H1264 H 0.53081 0.01118 0.30226 0.0
H1265 H 0.50953 0.98782 0.15388 0.0
H1266 H 0.53853 0.99365 0.17463 0.0
H1267 H 0.53307 0.01748 0.16116 0.0
C1268 C 0.5923 0.01247 0.26222 0.0
C1269 C 0.60776 0.03291 0.24261 0.0
C1270 C 0.56684 0.00389 0.26183 0.0
C1271 C 0.55645 0.01532 0.24105 0.0
C1272 C 0.57192 0.03537 0.22043 0.0
H1273 H 0.41073 0.00095 0.28544 0.0
H1274 H 0.45517 0.01505 0.28115 0.0
C1275 C 0.59742 0.04395 0.22088 0.0
C1276 C 0.52961 0.00707 0.24297 0.0
H1277 H 0.47751 0.9878 0.19065 0.0
C1278 C 0.51919 0.00628 0.27785 0.0
C1279 C 0.51438 1.00008 0.21117 0.0
C1280 C 0.52436 0.99956 0.17312 0.0
C1281 C 0.49409 0.99934 0.28193 0.0
C1282 C 0.47873 0.99251 0.25007 0.0
C1283 C 0.48916 0.99296 0.21513 0.0
C1284 C 0.4518 0.98438 0.25219 0.0
C1285 C 0.4848 0.99964 0.32058 0.0
C1286 C 0.43508 0.96307 0.23556 0.0
C1287 C 0.40976 0.95544 0.23697 0.0
C1288 C 0.40069 0.96849 0.25623 0.0
C1289 C 0.41734 0.99013 0.27176 0.0
C1290 C 0.44269 0.99812 0.26947 0.0
H1291 H 0.48809 0.01764 0.3269 0.0
H1292 H 0.46495 0.98754 0.32367 0.0
H1293 H 0.49493 0.995 0.34163 0.0
H1294 H 0.44159 0.95233 0.22141 0.0
H1295 H 0.39728 0.93942 0.2228 0.0
loop_
_geom_bond_atom_site_label_1
_geom_bond_atom_site_label_2
_geom_bond_distance
_geom_bond_site_symmetry_2
_ccdc_geom_bond_type
Mn0 O5 2.095 . S
Mn0 O15 2.162 . S
Mn0 O16 2.297 . S
Mn0 O24 2.385 . S
Mn0 O25 2.209 . S
Mn0 O26 2.094 . S
Mn1 O6 2.121 . S
Mn1 N8 2.257 . S
Mn1 N17 2.282 1_554 S
Mn1 O25 2.215 . S
Mn1 O27 2.117 1_554 S
C2 O24 1.234 . S
C2 O25 1.283 . S
C3 O15 1.281 . S
C3 O16 1.236 . S
C4 O26 1.240 1_556 S
C4 O27 1.264 . S
O5 Mn0 2.095 . S
O5 C14 1.250 . S
O6 Mn1 2.121 . S
O6 C14 1.258 . S
C7 N8 1.326 . S
C7 C11 1.460 . S
C7 H13 0.929 . S
N8 Mn1 2.257 . S
N8 C7 1.326 . S
N8 C12 1.362 1_554 S
C9 C10 1.258 1_556 S
C9 C12 1.431 . S
C9 C29 1.449 . S
C10 C9 1.258 1_554 S
C10 C11 1.477 . S
C10 H30 0.931 . S
C11 C7 1.460 . S
C11 C10 1.477 . S
C11 H31 0.930 . S
C12 N8 1.362 1_556 S
C12 C9 1.431 . S
C12 C22 1.476 . S
H13 C7 0.929 . S
C14 O5 1.250 . S
C14 O6 1.258 . S
O15 Mn0 2.162 . S
O15 C3 1.281 . S
O16 Mn0 2.297 . S
O16 C3 1.236 . S
N17 Mn1 2.282 1_556 S
N17 C18 1.328 . S
N17 C22 1.318 . S
C18 N17 1.328 . S
C18 C19 1.457 . S
C18 H23 0.929 . S
C19 C18 1.457 . S
C19 C20 1.291 . S
C19 H32 0.931 . S
C20 C19 1.291 . S
C20 C21 1.373 . S
C20 H33 0.929 . S
C21 C20 1.373 . S
C21 C22 1.396 . S
C21 C28 1.403 . S
C22 C12 1.476 . S
C22 N17 1.318 . S
C22 C21 1.396 . S
H23 C18 0.929 . S
O24 Mn0 2.385 . S
O24 C2 1.234 . S
O25 Mn0 2.209 . S
O25 Mn1 2.215 . S
O25 C2 1.283 . S
O26 Mn0 2.094 . S
O26 C4 1.240 1_554 S
O27 Mn1 2.117 1_556 S
O27 C4 1.264 . S
C28 C21 1.403 . S
C28 C29 1.399 . S
C28 H34 0.929 . S
C29 C9 1.449 . S
C29 C28 1.399 . S
C29 H35 0.930 . S
H30 C10 0.931 . S
H31 C11 0.930 . S
H32 C19 0.931 . S
H33 C20 0.929 . S
H34 C28 0.929 . S
H35 C29 0.930 . S
Mn36 O41 2.095 . S
Mn36 O51 2.162 . S
Mn36 O52 2.297 . S
Mn36 O60 2.385 . S
Mn36 O61 2.209 . S
Mn36 O62 2.094 . S
Mn37 O42 2.121 . S
Mn37 N44 2.257 . S
Mn37 N53 2.282 . S
Mn37 O61 2.215 1_455 S
Mn37 O63 2.117 1_455 S
C38 O60 1.234 . S
C38 O61 1.283 . S
C39 O51 1.281 . S
C39 O52 1.236 . S
C40 O62 1.240 . S
C40 O63 1.264 . S
O41 Mn36 2.095 . S
O41 C50 1.250 . S
O42 Mn37 2.121 . S
O42 C50 1.258 1_455 S
C43 N44 1.326 . S
C43 C47 1.460 . S
C43 H49 0.929 . S
N44 Mn37 2.257 . S
N44 C43 1.326 . S
N44 C48 1.362 . S
C45 C46 1.258 . S
C45 C48 1.431 . S
C45 C65 1.449 . S
C46 C45 1.258 . S
C46 C47 1.477 . S
C46 H66 0.931 . S
C47 C43 1.460 . S
C47 C46 1.477 . S
C47 H67 0.930 . S
C48 N44 1.362 . S
C48 C45 1.431 . S
C48 C58 1.476 . S
H49 C43 0.929 . S
C50 O41 1.250 . S
C50 O42 1.258 1_655 S
O51 Mn36 2.162 . S
O51 C39 1.281 . S
O52 Mn36 2.297 . S
O52 C39 1.236 . S
N53 Mn37 2.282 . S
N53 C54 1.328 . S
N53 C58 1.318 . S
C54 N53 1.328 . S
C54 C55 1.457 . S
C54 H59 0.929 . S
C55 C54 1.457 . S
C55 C56 1.291 . S
C55 H68 0.931 . S
C56 C55 1.291 . S
C56 C57 1.373 . S
C56 H69 0.929 . S
C57 C56 1.373 . S
C57 C58 1.396 . S
C57 C64 1.403 . S
C58 C48 1.476 . S
C58 N53 1.318 . S
C58 C57 1.396 . S
H59 C54 0.929 . S
O60 Mn36 2.385 . S
O60 C38 1.234 . S
O61 Mn36 2.209 . S
O61 Mn37 2.215 1_655 S
O61 C38 1.283 . S
O62 Mn36 2.094 . S
O62 C40 1.240 . S
O63 Mn37 2.117 1_655 S
O63 C40 1.264 . S
C64 C57 1.403 . S
C64 C65 1.399 . S
C64 H70 0.929 . S
C65 C45 1.449 . S
C65 C64 1.399 . S
C65 H71 0.930 . S
H66 C46 0.931 . S
H67 C47 0.930 . S
H68 C55 0.931 . S
H69 C56 0.929 . S
H70 C64 0.929 . S
H71 C65 0.930 . S
Mn72 O77 2.095 . S
Mn72 O87 2.162 . S
Mn72 O88 2.297 . S
Mn72 O96 2.385 . S
Mn72 O97 2.209 . S
Mn72 O98 2.094 . S
Mn73 O78 2.121 . S
Mn73 N80 2.257 . S
Mn73 N89 2.282 . S
Mn73 O97 2.215 . S
Mn73 O99 2.117 . S
C74 O96 1.234 . S
C74 O97 1.283 . S
C75 O87 1.281 . S
C75 O88 1.236 . S
C76 O98 1.240 . S
C76 O99 1.264 . S
O77 Mn72 2.095 . S
O77 C86 1.250 . S
O78 Mn73 2.121 . S
O78 C86 1.258 . S
C79 N80 1.326 . S
C79 C83 1.460 . S
C79 H85 0.929 . S
N80 Mn73 2.257 . S
N80 C79 1.326 . S
N80 C84 1.362 . S
C81 C82 1.258 . S
C81 C84 1.431 . S
C81 C101 1.449 . S
C82 C81 1.258 . S
C82 C83 1.477 . S
C82 H102 0.931 . S
C83 C79 1.460 . S
C83 C82 1.477 . S
C83 H103 0.930 . S
C84 N80 1.362 . S
C84 C81 1.431 . S
C84 C94 1.476 . S
H85 C79 0.929 . S
C86 O77 1.250 . S
C86 O78 1.258 . S
O87 Mn72 2.162 . S
O87 C75 1.281 . S
O88 Mn72 2.297 . S
O88 C75 1.236 . S
N89 Mn73 2.282 . S
N89 C90 1.328 . S
N89 C94 1.318 . S
C90 N89 1.328 . S
C90 C91 1.457 . S
C90 H95 0.929 . S
C91 C90 1.457 . S
C91 C92 1.291 . S
C91 H104 0.931 1_565 S
C92 C91 1.291 . S
C92 C93 1.373 . S
C92 H105 0.929 . S
C93 C92 1.373 . S
C93 C94 1.396 . S
C93 C100 1.403 . S
C94 C84 1.476 . S
C94 N89 1.318 . S
C94 C93 1.396 . S
H95 C90 0.929 . S
O96 Mn72 2.385 . S
O96 C74 1.234 . S
O97 Mn72 2.209 . S
O97 Mn73 2.215 . S
O97 C74 1.283 . S
O98 Mn72 2.094 . S
O98 C76 1.240 . S
O99 Mn73 2.117 . S
O99 C76 1.264 . S
C100 C93 1.403 . S
C100 C101 1.399 . S
C100 H106 0.929 . S
C101 C81 1.449 . S
C101 C100 1.399 . S
C101 H107 0.930 . S
H102 C82 0.931 . S
H103 C83 0.930 . S
H104 C91 0.931 1_545 S
H105 C92 0.929 . S
H106 C100 0.929 . S
H107 C101 0.930 . S
Mn108 O113 2.095 . S
Mn108 O123 2.162 . S
Mn108 O124 2.297 . S
Mn108 O132 2.385 . S
Mn108 O133 2.209 . S
Mn108 O134 2.094 . S
Mn109 O114 2.121 . S
Mn109 N116 2.257 . S
Mn109 N125 2.282 1_554 S
Mn109 O133 2.215 . S
Mn109 O135 2.117 1_554 S
C110 O132 1.234 . S
C110 O133 1.283 . S
C111 O123 1.281 . S
C111 O124 1.236 . S
C112 O134 1.240 1_556 S
C112 O135 1.264 . S
O113 Mn108 2.095 . S
O113 C122 1.250 . S
O114 Mn109 2.121 . S
O114 C122 1.258 . S
C115 N116 1.326 . S
C115 C119 1.460 . S
C115 H121 0.929 . S
N116 Mn109 2.257 . S
N116 C115 1.326 . S
N116 C120 1.362 1_554 S
C117 C118 1.258 1_556 S
C117 C120 1.431 . S
C117 C137 1.449 . S
C118 C117 1.258 1_554 S
C118 C119 1.477 . S
C118 H138 0.931 . S
C119 C115 1.460 . S
C119 C118 1.477 . S
C119 H139 0.930 . S
C120 N116 1.362 1_556 S
C120 C117 1.431 . S
C120 C130 1.476 . S
H121 C115 0.929 . S
C122 O113 1.250 . S
C122 O114 1.258 . S
O123 Mn108 2.162 . S
O123 C111 1.281 . S
O124 Mn108 2.297 . S
O124 C111 1.236 . S
N125 Mn109 2.282 1_556 S
N125 C126 1.328 . S
N125 C130 1.318 . S
C126 N125 1.328 . S
C126 C127 1.457 . S
C126 H131 0.929 . S
C127 C126 1.457 . S
C127 C128 1.291 . S
C127 H140 0.931 . S
C128 C127 1.291 . S
C128 C129 1.373 . S
C128 H141 0.929 . S
C129 C128 1.373 . S
C129 C130 1.396 . S
C129 C136 1.403 . S
C130 C120 1.476 . S
C130 N125 1.318 . S
C130 C129 1.396 . S
H131 C126 0.929 . S
O132 Mn108 2.385 . S
O132 C110 1.234 . S
O133 Mn108 2.209 . S
O133 Mn109 2.215 . S
O133 C110 1.283 . S
O134 Mn108 2.094 . S
O134 C112 1.240 1_554 S
O135 Mn109 2.117 1_556 S
O135 C112 1.264 . S
C136 C129 1.403 . S
C136 C137 1.399 . S
C136 H142 0.929 . S
C137 C117 1.449 . S
C137 C136 1.399 . S
C137 H143 0.930 . S
H138 C118 0.931 . S
H139 C119 0.930 . S
H140 C127 0.931 . S
H141 C128 0.929 . S
H142 C136 0.929 . S
H143 C137 0.930 . S
Mn144 O149 2.095 . S
Mn144 O159 2.162 . S
Mn144 O160 2.297 . S
Mn144 O168 2.385 . S
Mn144 O169 2.209 . S
Mn144 O170 2.094 . S
Mn145 O150 2.121 . S
Mn145 N152 2.257 . S
Mn145 N161 2.282 . S
Mn145 O169 2.215 1_655 S
Mn145 O171 2.117 1_655 S
C146 O168 1.234 . S
C146 O169 1.283 . S
C147 O159 1.281 . S
C147 O160 1.236 . S
C148 O170 1.240 . S
C148 O171 1.264 . S
O149 Mn144 2.095 . S
O149 C158 1.250 . S
O150 Mn145 2.121 . S
O150 C158 1.258 1_655 S
C151 N152 1.326 . S
C151 C155 1.460 . S
C151 H157 0.929 . S
N152 Mn145 2.257 . S
N152 C151 1.326 . S
N152 C156 1.362 . S
C153 C154 1.258 . S
C153 C156 1.431 . S
C153 C173 1.449 . S
C154 C153 1.258 . S
C154 C155 1.477 . S
C154 H174 0.931 . S
C155 C151 1.460 . S
C155 C154 1.477 . S
C155 H175 0.930 . S
C156 N152 1.362 . S
C156 C153 1.431 . S
C156 C166 1.476 . S
H157 C151 0.929 . S
C158 O149 1.250 . S
C158 O150 1.258 1_455 S
O159 Mn144 2.162 . S
O159 C147 1.281 . S
O160 Mn144 2.297 . S
O160 C147 1.236 . S
N161 Mn145 2.282 . S
N161 C162 1.328 . S
N161 C166 1.318 . S
C162 N161 1.328 . S
C162 C163 1.457 . S
C162 H167 0.929 . S
C163 C162 1.457 . S
C163 C164 1.291 . S
C163 H176 0.931 . S
C164 C163 1.291 . S
C164 C165 1.373 . S
C164 H177 0.929 . S
C165 C164 1.373 . S
C165 C166 1.396 . S
C165 C172 1.403 . S
C166 C156 1.476 . S
C166 N161 1.318 . S
C166 C165 1.396 . S
H167 C162 0.929 . S
O168 Mn144 2.385 . S
O168 C146 1.234 . S
O169 Mn144 2.209 . S
O169 Mn145 2.215 1_455 S
O169 C146 1.283 . S
O170 Mn144 2.094 . S
O170 C148 1.240 . S
O171 Mn145 2.117 1_455 S
O171 C148 1.264 . S
C172 C165 1.403 . S
C172 C173 1.399 . S
C172 H178 0.929 . S
C173 C153 1.449 . S
C173 C172 1.399 . S
C173 H179 0.930 . S
H174 C154 0.931 . S
H175 C155 0.930 . S
H176 C163 0.931 . S
H177 C164 0.929 . S
H178 C172 0.929 . S
H179 C173 0.930 . S
Mn180 O185 2.095 . S
Mn180 O195 2.162 . S
Mn180 O196 2.297 . S
Mn180 O204 2.385 . S
Mn180 O205 2.209 . S
Mn180 O206 2.094 . S
Mn181 O186 2.121 . S
Mn181 N188 2.257 . S
Mn181 N197 2.282 . S
Mn181 O205 2.215 . S
Mn181 O207 2.117 . S
C182 O204 1.234 . S
C182 O205 1.283 . S
C183 O195 1.281 . S
C183 O196 1.236 . S
C184 O206 1.240 . S
C184 O207 1.264 . S
O185 Mn180 2.095 . S
O185 C194 1.250 . S
O186 Mn181 2.121 . S
O186 C194 1.258 . S
C187 N188 1.326 . S
C187 C191 1.460 . S
C187 H193 0.929 . S
N188 Mn181 2.257 . S
N188 C187 1.326 . S
N188 C192 1.362 . S
C189 C190 1.258 . S
C189 C192 1.431 . S
C189 C209 1.449 . S
C190 C189 1.258 . S
C190 C191 1.477 . S
C190 H210 0.931 . S
C191 C187 1.460 . S
C191 C190 1.477 . S
C191 H211 0.930 . S
C192 N188 1.362 . S
C192 C189 1.431 . S
C192 C202 1.476 . S
H193 C187 0.929 . S
C194 O185 1.250 . S
C194 O186 1.258 . S
O195 Mn180 2.162 . S
O195 C183 1.281 . S
O196 Mn180 2.297 . S
O196 C183 1.236 . S
N197 Mn181 2.282 . S
N197 C198 1.328 . S
N197 C202 1.318 . S
C198 N197 1.328 . S
C198 C199 1.457 . S
C198 H203 0.929 . S
C199 C198 1.457 . S
C199 C200 1.291 . S
C199 H212 0.931 1_545 S
C200 C199 1.291 . S
C200 C201 1.373 . S
C200 H213 0.929 . S
C201 C200 1.373 . S
C201 C202 1.396 . S
C201 C208 1.403 . S
C202 C192 1.476 . S
C202 N197 1.318 . S
C202 C201 1.396 . S
H203 C198 0.929 . S
O204 Mn180 2.385 . S
O204 C182 1.234 . S
O205 Mn180 2.209 . S
O205 Mn181 2.215 . S
O205 C182 1.283 . S
O206 Mn180 2.094 . S
O206 C184 1.240 . S
O207 Mn181 2.117 . S
O207 C184 1.264 . S
C208 C201 1.403 . S
C208 C209 1.399 . S
C208 H214 0.929 . S
C209 C189 1.449 . S
C209 C208 1.399 . S
C209 H215 0.930 . S
H210 C190 0.931 . S
H211 C191 0.930 . S
H212 C199 0.931 1_565 S
H213 C200 0.929 . S
H214 C208 0.929 . S
H215 C209 0.930 . S
Mn216 O221 2.095 . S
Mn216 O231 2.162 . S
Mn216 O232 2.297 . S
Mn216 O240 2.385 . S
Mn216 O241 2.209 . S
Mn216 O242 2.094 . S
Mn217 O222 2.121 . S
Mn217 N224 2.257 . S
Mn217 N233 2.282 . S
Mn217 O241 2.215 . S
Mn217 O243 2.117 . S
C218 O240 1.234 . S
C218 O241 1.283 . S
C219 O231 1.281 . S
C219 O232 1.236 . S
C220 O242 1.240 . S
C220 O243 1.264 . S
O221 Mn216 2.095 . S
O221 C230 1.250 . S
O222 Mn217 2.121 . S
O222 C230 1.258 . S
C223 N224 1.326 . S
C223 C227 1.460 . S
C223 H229 0.929 . S
N224 Mn217 2.257 . S
N224 C223 1.326 . S
N224 C228 1.362 . S
C225 C226 1.258 . S
C225 C228 1.431 . S
C225 C245 1.449 . S
C226 C225 1.258 . S
C226 C227 1.477 . S
C226 H246 0.931 . S
C227 C223 1.460 . S
C227 C226 1.477 . S
C227 H247 0.930 . S
C228 N224 1.362 . S
C228 C225 1.431 . S
C228 C238 1.476 . S
H229 C223 0.929 . S
C230 O221 1.250 . S
C230 O222 1.258 . S
O231 Mn216 2.162 . S
O231 C219 1.281 . S
O232 Mn216 2.297 . S
O232 C219 1.236 . S
N233 Mn217 2.282 . S
N233 C234 1.328 . S
N233 C238 1.318 . S
C234 N233 1.328 . S
C234 C235 1.457 . S
C234 H239 0.929 . S
C235 C234 1.457 . S
C235 C236 1.291 . S
C235 H248 0.931 . S
C236 C235 1.291 . S
C236 C237 1.373 . S
C236 H249 0.929 . S
C237 C236 1.373 . S
C237 C238 1.396 . S
C237 C244 1.403 . S
C238 C228 1.476 . S
C238 N233 1.318 . S
C238 C237 1.396 . S
H239 C234 0.929 . S
O240 Mn216 2.385 . S
O240 C218 1.234 . S
O241 Mn216 2.209 . S
O241 Mn217 2.215 . S
O241 C218 1.283 . S
O242 Mn216 2.094 . S
O242 C220 1.240 . S
O243 Mn217 2.117 . S
O243 C220 1.264 . S
C244 C237 1.403 . S
C244 C245 1.399 . S
C244 H250 0.929 . S
C245 C225 1.449 . S
C245 C244 1.399 . S
C245 H251 0.930 . S
H246 C226 0.931 . S
H247 C227 0.930 . S
H248 C235 0.931 . S
H249 C236 0.929 . S
H250 C244 0.929 . S
H251 C245 0.930 . S
Mn252 O257 2.095 . S
Mn252 O267 2.162 . S
Mn252 O268 2.297 . S
Mn252 O276 2.385 . S
Mn252 O277 2.209 . S
Mn252 O278 2.094 . S
Mn253 O258 2.121 . S
Mn253 N260 2.257 . S
Mn253 N269 2.282 1_556 S
Mn253 O277 2.215 . S
Mn253 O279 2.117 1_556 S
C254 O276 1.234 . S
C254 O277 1.283 . S
C255 O267 1.281 . S
C255 O268 1.236 . S
C256 O278 1.240 1_554 S
C256 O279 1.264 . S
O257 Mn252 2.095 . S
O257 C266 1.250 . S
O258 Mn253 2.121 . S
O258 C266 1.258 . S
C259 N260 1.326 . S
C259 C263 1.460 . S
C259 H265 0.929 . S
N260 Mn253 2.257 . S
N260 C259 1.326 . S
N260 C264 1.362 1_556 S
C261 C262 1.258 1_554 S
C261 C264 1.431 . S
C261 C281 1.449 . S
C262 C261 1.258 1_556 S
C262 C263 1.477 . S
C262 H282 0.931 . S
C263 C259 1.460 . S
C263 C262 1.477 . S
C263 H283 0.930 . S
C264 N260 1.362 1_554 S
C264 C261 1.431 . S
C264 C274 1.476 . S
H265 C259 0.929 . S
C266 O257 1.250 . S
C266 O258 1.258 . S
O267 Mn252 2.162 . S
O267 C255 1.281 . S
O268 Mn252 2.297 . S
O268 C255 1.236 . S
N269 Mn253 2.282 1_554 S
N269 C270 1.328 . S
N269 C274 1.318 . S
C270 N269 1.328 . S
C270 C271 1.457 . S
C270 H275 0.929 . S
C271 C270 1.457 . S
C271 C272 1.291 . S
C271 H284 0.931 1_655 S
C272 C271 1.291 . S
C272 C273 1.373 . S
C272 H285 0.929 . S
C273 C272 1.373 . S
C273 C274 1.396 . S
C273 C280 1.403 . S
C274 C264 1.476 . S
C274 N269 1.318 . S
C274 C273 1.396 . S
H275 C270 0.929 . S
O276 Mn252 2.385 . S
O276 C254 1.234 . S
O277 Mn252 2.209 . S
O277 Mn253 2.215 . S
O277 C254 1.283 . S
O278 Mn252 2.094 . S
O278 C256 1.240 1_556 S
O279 Mn253 2.117 1_554 S
O279 C256 1.264 . S
C280 C273 1.403 . S
C280 C281 1.399 . S
C280 H286 0.929 . S
C281 C261 1.449 . S
C281 C280 1.399 . S
C281 H287 0.930 . S
H282 C262 0.931 . S
H283 C263 0.930 . S
H284 C271 0.931 1_455 S
H285 C272 0.929 . S
H286 C280 0.929 . S
H287 C281 0.930 . S
Mn288 O293 2.095 . S
Mn288 O303 2.162 . S
Mn288 O304 2.297 . S
Mn288 O312 2.385 . S
Mn288 O313 2.209 . S
Mn288 O314 2.094 . S
Mn289 O294 2.121 . S
Mn289 N296 2.257 . S
Mn289 N305 2.282 . S
Mn289 O313 2.215 . S
Mn289 O315 2.117 . S
C290 O312 1.234 . S
C290 O313 1.283 . S
C291 O303 1.281 . S
C291 O304 1.236 . S
C292 O314 1.240 . S
C292 O315 1.264 . S
O293 Mn288 2.095 . S
O293 C302 1.250 . S
O294 Mn289 2.121 . S
O294 C302 1.258 . S
C295 N296 1.326 . S
C295 C299 1.460 . S
C295 H301 0.929 . S
N296 Mn289 2.257 . S
N296 C295 1.326 . S
N296 C300 1.362 . S
C297 C298 1.258 . S
C297 C300 1.431 . S
C297 C317 1.449 . S
C298 C297 1.258 . S
C298 C299 1.477 . S
C298 H318 0.931 . S
C299 C295 1.460 . S
C299 C298 1.477 . S
C299 H319 0.930 . S
C300 N296 1.362 . S
C300 C297 1.431 . S
C300 C310 1.476 . S
H301 C295 0.929 . S
C302 O293 1.250 . S
C302 O294 1.258 . S
O303 Mn288 2.162 . S
O303 C291 1.281 . S
O304 Mn288 2.297 . S
O304 C291 1.236 . S
N305 Mn289 2.282 . S
N305 C306 1.328 . S
N305 C310 1.318 . S
C306 N305 1.328 . S
C306 C307 1.457 . S
C306 H311 0.929 . S
C307 C306 1.457 . S
C307 C308 1.291 . S
C307 H320 0.931 1_565 S
C308 C307 1.291 . S
C308 C309 1.373 . S
C308 H321 0.929 . S
C309 C308 1.373 . S
C309 C310 1.396 . S
C309 C316 1.403 . S
C310 C300 1.476 . S
C310 N305 1.318 . S
C310 C309 1.396 . S
H311 C306 0.929 . S
O312 Mn288 2.385 . S
O312 C290 1.234 . S
O313 Mn288 2.209 . S
O313 Mn289 2.215 . S
O313 C290 1.283 . S
O314 Mn288 2.094 . S
O314 C292 1.240 . S
O315 Mn289 2.117 . S
O315 C292 1.264 . S
C316 C309 1.403 . S
C316 C317 1.399 . S
C316 H322 0.929 . S
C317 C297 1.449 . S
C317 C316 1.399 . S
C317 H323 0.930 . S
H318 C298 0.931 . S
H319 C299 0.930 . S
H320 C307 0.931 1_545 S
H321 C308 0.929 . S
H322 C316 0.929 . S
H323 C317 0.930 . S
Mn324 O329 2.095 . S
Mn324 O339 2.162 . S
Mn324 O340 2.297 . S
Mn324 O348 2.385 . S
Mn324 O349 2.209 . S
Mn324 O350 2.094 . S
Mn325 O330 2.121 . S
Mn325 N332 2.257 . S
Mn325 N341 2.282 . S
Mn325 O349 2.215 . S
Mn325 O351 2.117 . S
C326 O348 1.234 . S
C326 O349 1.283 . S
C327 O339 1.281 . S
C327 O340 1.236 . S
C328 O350 1.240 . S
C328 O351 1.264 . S
O329 Mn324 2.095 . S
O329 C338 1.250 . S
O330 Mn325 2.121 . S
O330 C338 1.258 . S
C331 N332 1.326 . S
C331 C335 1.460 . S
C331 H337 0.929 . S
N332 Mn325 2.257 . S
N332 C331 1.326 . S
N332 C336 1.362 . S
C333 C334 1.258 . S
C333 C336 1.431 . S
C333 C353 1.449 . S
C334 C333 1.258 . S
C334 C335 1.477 . S
C334 H354 0.931 . S
C335 C331 1.460 . S
C335 C334 1.477 . S
C335 H355 0.930 . S
C336 N332 1.362 . S
C336 C333 1.431 . S
C336 C346 1.476 . S
H337 C331 0.929 . S
C338 O329 1.250 . S
C338 O330 1.258 . S
O339 Mn324 2.162 . S
O339 C327 1.281 . S
O340 Mn324 2.297 . S
O340 C327 1.236 . S
N341 Mn325 2.282 . S
N341 C342 1.328 . S
N341 C346 1.318 . S
C342 N341 1.328 . S
C342 C343 1.457 . S
C342 H347 0.929 . S
C343 C342 1.457 . S
C343 C344 1.291 . S
C343 H356 0.931 . S
C344 C343 1.291 . S
C344 C345 1.373 . S
C344 H357 0.929 . S
C345 C344 1.373 . S
C345 C346 1.396 . S
C345 C352 1.403 . S
C346 C336 1.476 . S
C346 N341 1.318 . S
C346 C345 1.396 . S
H347 C342 0.929 . S
O348 Mn324 2.385 . S
O348 C326 1.234 . S
O349 Mn324 2.209 . S
O349 Mn325 2.215 . S
O349 C326 1.283 . S
O350 Mn324 2.094 . S
O350 C328 1.240 . S
O351 Mn325 2.117 . S
O351 C328 1.264 . S
C352 C345 1.403 . S
C352 C353 1.399 . S
C352 H358 0.929 . S
C353 C333 1.449 . S
C353 C352 1.399 . S
C353 H359 0.930 . S
H354 C334 0.931 . S
H355 C335 0.930 . S
H356 C343 0.931 . S
H357 C344 0.929 . S
H358 C352 0.929 . S
H359 C353 0.930 . S
Mn360 O365 2.095 . S
Mn360 O375 2.162 . S
Mn360 O376 2.297 . S
Mn360 O384 2.385 . S
Mn360 O385 2.209 . S
Mn360 O386 2.094 . S
Mn361 O366 2.121 . S
Mn361 N368 2.257 . S
Mn361 N377 2.282 1_556 S
Mn361 O385 2.215 . S
Mn361 O387 2.117 1_556 S
C362 O384 1.234 . S
C362 O385 1.283 . S
C363 O375 1.281 . S
C363 O376 1.236 . S
C364 O386 1.240 1_554 S
C364 O387 1.264 . S
O365 Mn360 2.095 . S
O365 C374 1.250 . S
O366 Mn361 2.121 . S
O366 C374 1.258 . S
C367 N368 1.326 . S
C367 C371 1.460 . S
C367 H373 0.929 . S
N368 Mn361 2.257 . S
N368 C367 1.326 . S
N368 C372 1.362 1_556 S
C369 C370 1.258 1_554 S
C369 C372 1.431 . S
C369 C389 1.449 . S
C370 C369 1.258 1_556 S
C370 C371 1.477 . S
C370 H390 0.931 . S
C371 C367 1.460 . S
C371 C370 1.477 . S
C371 H391 0.930 . S
C372 N368 1.362 1_554 S
C372 C369 1.431 . S
C372 C382 1.476 . S
H373 C367 0.929 . S
C374 O365 1.250 . S
C374 O366 1.258 . S
O375 Mn360 2.162 . S
O375 C363 1.281 . S
O376 Mn360 2.297 . S
O376 C363 1.236 . S
N377 Mn361 2.282 1_554 S
N377 C378 1.328 . S
N377 C382 1.318 . S
C378 N377 1.328 . S
C378 C379 1.457 . S
C378 H383 0.929 . S
C379 C378 1.457 . S
C379 C380 1.291 . S
C379 H392 0.931 1_455 S
C380 C379 1.291 . S
C380 C381 1.373 . S
C380 H393 0.929 . S
C381 C380 1.373 . S
C381 C382 1.396 . S
C381 C388 1.403 . S
C382 C372 1.476 . S
C382 N377 1.318 . S
C382 C381 1.396 . S
H383 C378 0.929 . S
O384 Mn360 2.385 . S
O384 C362 1.234 . S
O385 Mn360 2.209 . S
O385 Mn361 2.215 . S
O385 C362 1.283 . S
O386 Mn360 2.094 . S
O386 C364 1.240 1_556 S
O387 Mn361 2.117 1_554 S
O387 C364 1.264 . S
C388 C381 1.403 . S
C388 C389 1.399 . S
C388 H394 0.929 . S
C389 C369 1.449 . S
C389 C388 1.399 . S
C389 H395 0.930 . S
H390 C370 0.931 . S
H391 C371 0.930 . S
H392 C379 0.931 1_655 S
H393 C380 0.929 . S
H394 C388 0.929 . S
H395 C389 0.930 . S
Mn396 O401 2.095 . S
Mn396 O411 2.162 . S
Mn396 O412 2.297 . S
Mn396 O420 2.385 . S
Mn396 O421 2.209 . S
Mn396 O422 2.094 . S
Mn397 O402 2.121 . S
Mn397 N404 2.257 . S
Mn397 N413 2.282 . S
Mn397 O421 2.215 . S
Mn397 O423 2.117 . S
C398 O420 1.234 . S
C398 O421 1.283 . S
C399 O411 1.281 . S
C399 O412 1.236 . S
C400 O422 1.240 . S
C400 O423 1.264 . S
O401 Mn396 2.095 . S
O401 C410 1.250 . S
O402 Mn397 2.121 . S
O402 C410 1.258 . S
C403 N404 1.326 . S
C403 C407 1.460 . S
C403 H409 0.929 . S
N404 Mn397 2.257 . S
N404 C403 1.326 . S
N404 C408 1.362 . S
C405 C406 1.258 . S
C405 C408 1.431 . S
C405 C425 1.449 . S
C406 C405 1.258 . S
C406 C407 1.477 . S
C406 H426 0.931 . S
C407 C403 1.460 . S
C407 C406 1.477 . S
C407 H427 0.930 . S
C408 N404 1.362 . S
C408 C405 1.431 . S
C408 C418 1.476 . S
H409 C403 0.929 . S
C410 O401 1.250 . S
C410 O402 1.258 . S
O411 Mn396 2.162 . S
O411 C399 1.281 . S
O412 Mn396 2.297 . S
O412 C399 1.236 . S
N413 Mn397 2.282 . S
N413 C414 1.328 . S
N413 C418 1.318 . S
C414 N413 1.328 . S
C414 C415 1.457 . S
C414 H419 0.929 . S
C415 C414 1.457 . S
C415 C416 1.291 . S
C415 H428 0.931 1_545 S
C416 C415 1.291 . S
C416 C417 1.373 . S
C416 H429 0.929 . S
C417 C416 1.373 . S
C417 C418 1.396 . S
C417 C424 1.403 . S
C418 C408 1.476 . S
C418 N413 1.318 . S
C418 C417 1.396 . S
H419 C414 0.929 . S
O420 Mn396 2.385 . S
O420 C398 1.234 . S
O421 Mn396 2.209 . S
O421 Mn397 2.215 . S
O421 C398 1.283 . S
O422 Mn396 2.094 . S
O422 C400 1.240 . S
O423 Mn397 2.117 . S
O423 C400 1.264 . S
C424 C417 1.403 . S
C424 C425 1.399 . S
C424 H430 0.929 . S
C425 C405 1.449 . S
C425 C424 1.399 . S
C425 H431 0.930 . S
H426 C406 0.931 . S
H427 C407 0.930 . S
H428 C415 0.931 1_565 S
H429 C416 0.929 . S
H430 C424 0.929 . S
H431 C425 0.930 . S
H432 C440 0.929 . S
H433 C442 0.930 . S
H434 C444 0.930 . S
H435 C447 0.929 . S
H436 C450 0.930 . S
H437 C452 0.960 . S
H438 C452 0.960 . S
H439 C452 0.960 . S
C440 H432 0.929 . S
C440 C441 1.377 . S
C440 C442 1.384 . S
C441 C440 1.377 . S
C441 C447 1.390 . S
C442 H433 0.930 . S
C442 C440 1.384 . S
C442 C443 1.372 . S
C443 C442 1.372 . S
C443 C444 1.400 . S
C443 C448 1.490 . S
C444 H434 0.930 . S
C444 C443 1.400 . S
C444 C447 1.386 . S
H445 C461 0.930 . S
H446 C462 0.931 . S
C447 H435 0.929 . S
C447 C441 1.390 . S
C447 C444 1.386 . S
C448 C443 1.490 . S
C448 C450 1.395 . S
C448 C451 1.403 . S
H449 C455 0.930 . S
C450 H436 0.930 . S
C450 C448 1.395 . S
C450 C453 1.403 . S
C451 C448 1.403 . S
C451 C452 1.524 . S
C451 C455 1.400 . S
C452 H437 0.960 . S
C452 H438 0.960 . S
C452 H439 0.960 . S
C452 C451 1.524 . S
C453 C450 1.403 . S
C453 C454 1.392 . S
C453 C457 1.495 . S
C454 C453 1.392 . S
C454 C455 1.385 . S
C454 C456 1.478 . S
C455 H449 0.930 . S
C455 C451 1.400 . S
C455 C454 1.385 . S
C456 C454 1.478 . S
C456 C458 1.381 . S
C456 C462 1.383 . S
C457 C453 1.495 . S
C457 H463 0.959 . S
C457 H464 0.961 . S
C457 H465 0.960 . S
C458 C456 1.381 . S
C458 C459 1.394 . S
C458 H466 0.930 . S
C459 C458 1.394 . S
C459 C460 1.383 . S
C459 H467 0.929 . S
C460 C459 1.383 . S
C460 C461 1.377 . S
C461 H445 0.930 . S
C461 C460 1.377 . S
C461 C462 1.379 . S
C462 H446 0.931 . S
C462 C456 1.383 . S
C462 C461 1.379 . S
H463 C457 0.959 . S
H464 C457 0.961 . S
H465 C457 0.960 . S
H466 C458 0.930 . S
H467 C459 0.929 . S
H468 C476 0.929 . S
H469 C478 0.930 . S
H470 C480 0.930 . S
H471 C483 0.929 . S
H472 C486 0.930 . S
H473 C488 0.960 . S
H474 C488 0.960 . S
H475 C488 0.960 . S
C476 H468 0.929 . S
C476 C477 1.377 . S
C476 C478 1.384 . S
C477 C476 1.377 . S
C477 C483 1.390 . S
C478 H469 0.930 . S
C478 C476 1.384 . S
C478 C479 1.372 . S
C479 C478 1.372 . S
C479 C480 1.400 . S
C479 C484 1.490 . S
C480 H470 0.930 . S
C480 C479 1.400 . S
C480 C483 1.386 . S
H481 C497 0.930 . S
H482 C498 0.931 . S
C483 H471 0.929 . S
C483 C477 1.390 . S
C483 C480 1.386 . S
C484 C479 1.490 . S
C484 C486 1.395 . S
C484 C487 1.403 1_655 S
H485 C491 0.930 . S
C486 H472 0.930 . S
C486 C484 1.395 . S
C486 C489 1.403 . S
C487 C484 1.403 1_455 S
C487 C488 1.524 . S
C487 C491 1.400 . S
C488 H473 0.960 . S
C488 H474 0.960 . S
C488 H475 0.960 . S
C488 C487 1.524 . S
C489 C486 1.403 . S
C489 C490 1.392 . S
C489 C493 1.495 . S
C490 C489 1.392 . S
C490 C491 1.385 1_655 S
C490 C492 1.478 . S
C491 H485 0.930 . S
C491 C487 1.400 . S
C491 C490 1.385 1_455 S
C492 C490 1.478 . S
C492 C494 1.381 1_655 S
C492 C498 1.383 . S
C493 C489 1.495 . S
C493 H499 0.959 . S
C493 H500 0.961 . S
C493 H501 0.960 . S
C494 C492 1.381 1_455 S
C494 C495 1.394 . S
C494 H502 0.930 . S
C495 C494 1.394 . S
C495 C496 1.383 . S
C495 H503 0.929 . S
C496 C495 1.383 . S
C496 C497 1.377 1_455 S
C497 H481 0.930 . S
C497 C496 1.377 1_655 S
C497 C498 1.379 . S
C498 H482 0.931 . S
C498 C492 1.383 . S
C498 C497 1.379 . S
H499 C493 0.959 . S
H500 C493 0.961 . S
H501 C493 0.960 . S
H502 C494 0.930 . S
H503 C495 0.929 . S
H504 C512 0.929 . S
H505 C514 0.930 1_545 S
H506 C516 0.930 . S
H507 C519 0.929 . S
H508 C522 0.930 . S
H509 C524 0.957 1_554 S
H510 C524 0.960 . S
H511 C524 0.960 . S
C512 H504 0.929 . S
C512 C513 1.377 . S
C512 C514 1.384 . S
C513 C512 1.377 . S
C513 C519 1.390 . S
C514 H505 0.930 1_565 S
C514 C512 1.384 . S
C514 C515 1.372 . S
C515 C514 1.372 . S
C515 C516 1.400 . S
C515 C520 1.490 . S
C516 H506 0.930 . S
C516 C515 1.400 . S
C516 C519 1.386 . S
H517 C533 0.930 . S
H518 C534 0.931 . S
C519 H507 0.929 . S
C519 C513 1.390 . S
C519 C516 1.386 . S
C520 C515 1.490 . S
C520 C522 1.395 1_565 S
C520 C523 1.403 . S
H521 C527 0.930 . S
C522 H508 0.930 . S
C522 C520 1.395 1_545 S
C522 C525 1.403 1_556 S
C523 C520 1.403 . S
C523 C524 1.524 . S
C523 C527 1.400 1_556 S
C524 H509 0.957 1_556 S
C524 H510 0.960 . S
C524 H511 0.960 . S
C524 C523 1.524 . S
C525 C522 1.403 1_554 S
C525 C526 1.392 . S
C525 C529 1.495 . S
C526 C525 1.392 . S
C526 C527 1.385 1_545 S
C526 C528 1.478 . S
C527 H521 0.930 . S
C527 C523 1.400 1_554 S
C527 C526 1.385 1_565 S
C528 C526 1.478 . S
C528 C530 1.381 . S
C528 C534 1.383 . S
C529 C525 1.495 . S
C529 H535 0.962 . S
C529 H536 0.961 . S
C529 H537 0.960 . S
C530 C528 1.381 . S
C530 C531 1.394 . S
C530 H538 0.930 . S
C531 C530 1.394 . S
C531 C532 1.383 . S
C531 H539 0.929 . S
C532 C531 1.383 . S
C532 C533 1.377 . S
C533 H517 0.930 . S
C533 C532 1.377 . S
C533 C534 1.379 . S
C534 H518 0.931 . S
C534 C528 1.383 . S
C534 C533 1.379 . S
H535 C529 0.962 . S
H536 C529 0.961 . S
H537 C529 0.960 . S
H538 C530 0.930 . S
H539 C531 0.929 . S
H540 C548 0.929 . S
H541 C550 0.930 . S
H542 C552 0.930 . S
H543 C555 0.929 . S
H544 C558 0.930 . S
H545 C560 0.960 . S
H546 C560 0.960 . S
H547 C560 0.960 . S
C548 H540 0.929 . S
C548 C549 1.377 . S
C548 C550 1.384 . S
C549 C548 1.377 . S
C549 C555 1.390 . S
C550 H541 0.930 . S
C550 C548 1.384 . S
C550 C551 1.372 . S
C551 C550 1.372 . S
C551 C552 1.400 . S
C551 C556 1.490 . S
C552 H542 0.930 . S
C552 C551 1.400 . S
C552 C555 1.386 . S
H553 C569 0.930 . S
H554 C570 0.931 . S
C555 H543 0.929 . S
C555 C549 1.390 . S
C555 C552 1.386 . S
C556 C551 1.490 . S
C556 C558 1.395 . S
C556 C559 1.403 . S
H557 C563 0.930 . S
C558 H544 0.930 . S
C558 C556 1.395 . S
C558 C561 1.403 . S
C559 C556 1.403 . S
C559 C560 1.524 . S
C559 C563 1.400 . S
C560 H545 0.960 . S
C560 H546 0.960 . S
C560 H547 0.960 . S
C560 C559 1.524 . S
C561 C558 1.403 . S
C561 C562 1.392 . S
C561 C565 1.495 . S
C562 C561 1.392 . S
C562 C563 1.385 . S
C562 C564 1.478 . S
C563 H557 0.930 . S
C563 C559 1.400 . S
C563 C562 1.385 . S
C564 C562 1.478 . S
C564 C566 1.381 . S
C564 C570 1.383 . S
C565 C561 1.495 . S
C565 H571 0.959 . S
C565 H572 0.961 . S
C565 H573 0.960 . S
C566 C564 1.381 . S
C566 C567 1.394 . S
C566 H574 0.930 . S
C567 C566 1.394 . S
C567 C568 1.383 . S
C567 H575 0.929 . S
C568 C567 1.383 . S
C568 C569 1.377 . S
C569 H553 0.930 . S
C569 C568 1.377 . S
C569 C570 1.379 . S
C570 H554 0.931 . S
C570 C564 1.383 . S
C570 C569 1.379 . S
H571 C565 0.959 . S
H572 C565 0.961 . S
H573 C565 0.960 . S
H574 C566 0.930 . S
H575 C567 0.929 . S
H576 C584 0.929 . S
H577 C586 0.930 . S
H578 C588 0.930 . S
H579 C591 0.929 . S
H580 C594 0.932 1_655 S
H581 C596 0.960 . S
H582 C596 0.960 1_655 S
H583 C596 0.960 . S
C584 H576 0.929 . S
C584 C585 1.377 . S
C584 C586 1.384 . S
C585 C584 1.377 . S
C585 C591 1.390 1_655 S
C586 H577 0.930 . S
C586 C584 1.384 . S
C586 C587 1.372 . S
C587 C586 1.372 . S
C587 C588 1.400 1_655 S
C587 C592 1.490 1_655 S
C588 H578 0.930 . S
C588 C587 1.400 1_455 S
C588 C591 1.386 . S
H589 C605 0.930 . S
H590 C606 0.931 . S
C591 H579 0.929 . S
C591 C585 1.390 1_455 S
C591 C588 1.386 . S
C592 C587 1.490 1_455 S
C592 C594 1.394 . S
C592 C595 1.401 . S
H593 C599 0.930 . S
C594 H580 0.932 1_455 S
C594 C592 1.394 . S
C594 C597 1.403 . S
C595 C592 1.401 . S
C595 C596 1.524 . S
C595 C599 1.400 . S
C596 H581 0.960 . S
C596 H582 0.960 1_455 S
C596 H583 0.960 . S
C596 C595 1.524 . S
C597 C594 1.403 . S
C597 C598 1.392 . S
C597 C601 1.495 . S
C598 C597 1.392 . S
C598 C599 1.385 . S
C598 C600 1.478 . S
C599 H593 0.930 . S
C599 C595 1.400 . S
C599 C598 1.385 . S
C600 C598 1.478 . S
C600 C602 1.381 1_455 S
C600 C606 1.383 . S
C601 C597 1.495 . S
C601 H607 0.959 . S
C601 H608 0.961 . S
C601 H609 0.960 1_455 S
C602 C600 1.381 1_655 S
C602 C603 1.394 . S
C602 H610 0.930 . S
C603 C602 1.394 . S
C603 C604 1.383 1_655 S
C603 H611 0.929 . S
C604 C603 1.383 1_455 S
C604 C605 1.377 . S
C605 H589 0.930 . S
C605 C604 1.377 . S
C605 C606 1.379 . S
C606 H590 0.931 . S
C606 C600 1.383 . S
C606 C605 1.379 . S
H607 C601 0.959 . S
H608 C601 0.961 . S
H609 C601 0.960 1_655 S
H610 C602 0.930 . S
H611 C603 0.929 . S
H612 C620 0.929 . S
H613 C622 0.930 . S
H614 C624 0.930 . S
H615 C627 0.929 . S
H616 C630 0.930 . S
H617 C632 0.960 . S
H618 C632 0.960 . S
H619 C632 0.960 . S
C620 H612 0.929 . S
C620 C621 1.377 . S
C620 C622 1.384 . S
C621 C620 1.377 . S
C621 C627 1.390 1_565 S
C622 H613 0.930 . S
C622 C620 1.384 . S
C622 C623 1.372 . S
C623 C622 1.372 . S
C623 C624 1.400 1_565 S
C623 C628 1.490 . S
C624 H614 0.930 . S
C624 C623 1.400 1_545 S
C624 C627 1.386 . S
H625 C641 0.930 . S
H626 C642 0.931 . S
C627 H615 0.929 . S
C627 C621 1.390 1_545 S
C627 C624 1.386 . S
C628 C623 1.490 . S
C628 C630 1.395 . S
C628 C631 1.403 1_565 S
H629 C635 0.930 . S
C630 H616 0.930 . S
C630 C628 1.395 . S
C630 C633 1.403 1_554 S
C631 C628 1.403 1_545 S
C631 C632 1.524 . S
C631 C635 1.400 1_554 S
C632 H617 0.960 . S
C632 H618 0.960 . S
C632 H619 0.960 . S
C632 C631 1.524 . S
C633 C630 1.403 1_556 S
C633 C634 1.386 1_565 S
C633 C637 1.495 . S
C634 C633 1.386 1_545 S
C634 C635 1.389 . S
C634 C636 1.481 . S
C635 H629 0.930 . S
C635 C631 1.400 1_556 S
C635 C634 1.389 . S
C636 C634 1.481 . S
C636 C638 1.381 1_545 S
C636 C642 1.383 . S
C637 C633 1.495 . S
C637 H643 0.959 . S
C637 H644 0.961 . S
C637 H645 0.960 . S
C638 C636 1.381 1_565 S
C638 C639 1.394 . S
C638 H646 0.930 . S
C639 C638 1.394 . S
C639 C640 1.383 1_565 S
C639 H647 0.929 . S
C640 C639 1.383 1_545 S
C640 C641 1.377 . S
C641 H625 0.930 . S
C641 C640 1.377 . S
C641 C642 1.379 . S
C642 H626 0.931 . S
C642 C636 1.383 . S
C642 C641 1.379 . S
H643 C637 0.959 . S
H644 C637 0.961 . S
H645 C637 0.960 . S
H646 C638 0.930 . S
H647 C639 0.929 . S
H648 C656 0.929 . S
H649 C658 0.930 . S
H650 C660 0.930 . S
H651 C663 0.929 . S
H652 C666 0.930 . S
H653 C668 0.960 . S
H654 C668 0.960 . S
H655 C668 0.960 . S
C656 H648 0.929 . S
C656 C657 1.377 . S
C656 C658 1.384 . S
C657 C656 1.377 . S
C657 C663 1.390 . S
C658 H649 0.930 . S
C658 C656 1.384 . S
C658 C659 1.372 . S
C659 C658 1.372 . S
C659 C660 1.400 . S
C659 C664 1.490 . S
C660 H650 0.930 . S
C660 C659 1.400 . S
C660 C663 1.386 . S
H661 C677 0.930 . S
H662 C678 0.931 . S
C663 H651 0.929 . S
C663 C657 1.390 . S
C663 C660 1.386 . S
C664 C659 1.490 . S
C664 C666 1.395 1_556 S
C664 C667 1.403 . S
H665 C671 0.930 . S
C666 H652 0.930 . S
C666 C664 1.395 1_554 S
C666 C669 1.403 . S
C667 C664 1.403 . S
C667 C668 1.524 . S
C667 C671 1.400 . S
C668 H653 0.960 . S
C668 H654 0.960 . S
C668 H655 0.960 . S
C668 C667 1.524 . S
C669 C666 1.403 . S
C669 C670 1.392 . S
C669 C673 1.495 . S
C670 C669 1.392 . S
C670 C671 1.385 1_554 S
C670 C672 1.478 . S
C671 H665 0.930 . S
C671 C667 1.400 . S
C671 C670 1.385 1_556 S
C672 C670 1.478 . S
C672 C674 1.381 . S
C672 C678 1.383 . S
C673 C669 1.495 . S
C673 H679 0.959 . S
C673 H680 0.961 . S
C673 H681 0.960 . S
C674 C672 1.381 . S
C674 C675 1.394 . S
C674 H682 0.930 . S
C675 C674 1.394 . S
C675 C676 1.383 . S
C675 H683 0.929 . S
C676 C675 1.383 . S
C676 C677 1.377 . S
C677 H661 0.930 . S
C677 C676 1.377 . S
C677 C678 1.379 . S
C678 H662 0.931 . S
C678 C672 1.383 . S
C678 C677 1.379 . S
H679 C673 0.959 . S
H680 C673 0.961 . S
H681 C673 0.960 . S
H682 C674 0.930 . S
H683 C675 0.929 . S
H684 C692 0.929 . S
H685 C694 0.930 . S
H686 C696 0.930 . S
H687 C699 0.929 . S
H688 C702 0.930 . S
H689 C704 0.960 . S
H690 C704 0.960 . S
H691 C704 0.960 . S
C692 H684 0.929 . S
C692 C693 1.377 . S
C692 C694 1.384 . S
C693 C692 1.377 . S
C693 C699 1.390 . S
C694 H685 0.930 . S
C694 C692 1.384 . S
C694 C695 1.372 . S
C695 C694 1.372 . S
C695 C696 1.400 . S
C695 C700 1.490 . S
C696 H686 0.930 . S
C696 C695 1.400 . S
C696 C699 1.386 . S
H697 C713 0.930 . S
H698 C714 0.931 . S
C699 H687 0.929 . S
C699 C693 1.390 . S
C699 C696 1.386 . S
C700 C695 1.490 . S
C700 C702 1.395 . S
C700 C703 1.403 . S
H701 C707 0.930 . S
C702 H688 0.930 . S
C702 C700 1.395 . S
C702 C705 1.403 . S
C703 C700 1.403 . S
C703 C704 1.524 . S
C703 C707 1.400 . S
C704 H689 0.960 . S
C704 H690 0.960 . S
C704 H691 0.960 . S
C704 C703 1.524 . S
C705 C702 1.403 . S
C705 C706 1.392 . S
C705 C709 1.495 . S
C706 C705 1.392 . S
C706 C707 1.385 . S
C706 C708 1.478 . S
C707 H701 0.930 . S
C707 C703 1.400 . S
C707 C706 1.385 . S
C708 C706 1.478 . S
C708 C710 1.381 . S
C708 C714 1.383 . S
C709 C705 1.495 . S
C709 H715 0.959 . S
C709 H716 0.961 . S
C709 H717 0.960 . S
C710 C708 1.381 . S
C710 C711 1.394 . S
C710 H718 0.930 . S
C711 C710 1.394 . S
C711 C712 1.383 . S
C711 H719 0.929 . S
C712 C711 1.383 . S
C712 C713 1.377 . S
C713 H697 0.930 . S
C713 C712 1.377 . S
C713 C714 1.379 . S
C714 H698 0.931 . S
C714 C708 1.383 . S
C714 C713 1.379 . S
H715 C709 0.959 . S
H716 C709 0.961 . S
H717 C709 0.960 . S
H718 C710 0.930 . S
H719 C711 0.929 . S
H720 C728 0.929 . S
H721 C730 0.930 . S
H722 C732 0.930 . S
H723 C735 0.929 . S
H724 C738 0.930 . S
H725 C740 0.960 . S
H726 C740 0.960 . S
H727 C740 0.960 . S
C728 H720 0.929 . S
C728 C729 1.377 . S
C728 C730 1.384 . S
C729 C728 1.377 . S
C729 C735 1.390 . S
C730 H721 0.930 . S
C730 C728 1.384 . S
C730 C731 1.372 . S
C731 C730 1.372 . S
C731 C732 1.400 . S
C731 C736 1.490 . S
C732 H722 0.930 . S
C732 C731 1.400 . S
C732 C735 1.386 . S
H733 C749 0.930 . S
H734 C750 0.931 . S
C735 H723 0.929 . S
C735 C729 1.390 . S
C735 C732 1.386 . S
C736 C731 1.490 . S
C736 C738 1.395 . S
C736 C739 1.403 . S
H737 C743 0.930 . S
C738 H724 0.930 . S
C738 C736 1.395 . S
C738 C741 1.403 . S
C739 C736 1.403 . S
C739 C740 1.524 . S
C739 C743 1.400 . S
C740 H725 0.960 . S
C740 H726 0.960 . S
C740 H727 0.960 . S
C740 C739 1.524 . S
C741 C738 1.403 . S
C741 C742 1.392 . S
C741 C745 1.495 . S
C742 C741 1.392 . S
C742 C743 1.385 . S
C742 C744 1.478 . S
C743 H737 0.930 . S
C743 C739 1.400 . S
C743 C742 1.385 . S
C744 C742 1.478 . S
C744 C746 1.381 . S
C744 C750 1.383 . S
C745 C741 1.495 . S
C745 H751 0.959 . S
C745 H752 0.961 . S
C745 H753 0.960 . S
C746 C744 1.381 . S
C746 C747 1.394 . S
C746 H754 0.930 . S
C747 C746 1.394 . S
C747 C748 1.383 . S
C747 H755 0.929 . S
C748 C747 1.383 . S
C748 C749 1.377 . S
C749 H733 0.930 . S
C749 C748 1.377 . S
C749 C750 1.379 . S
C750 H734 0.931 . S
C750 C744 1.383 . S
C750 C749 1.379 . S
H751 C745 0.959 . S
H752 C745 0.961 . S
H753 C745 0.960 . S
H754 C746 0.930 . S
H755 C747 0.929 . S
H756 C764 0.929 1_556 S
H757 C766 0.945 . S
H758 C768 0.930 . S
H759 C771 0.929 . S
H760 C774 0.930 . S
H761 C776 0.960 . S
H762 C776 0.960 . S
H763 C776 0.960 . S
C764 H756 0.929 1_554 S
C764 C765 1.377 . S
C764 C766 1.379 1_554 S
C765 C764 1.377 . S
C765 C771 1.390 . S
C766 H757 0.945 . S
C766 C764 1.379 1_556 S
C766 C767 1.362 1_556 S
C767 C766 1.362 1_554 S
C767 C768 1.400 . S
C767 C772 1.490 . S
C768 H758 0.930 . S
C768 C767 1.400 . S
C768 C771 1.386 . S
H769 C785 0.930 1_554 S
H770 C786 0.906 1_554 S
C771 H759 0.929 . S
C771 C765 1.390 . S
C771 C768 1.386 . S
C772 C767 1.490 . S
C772 C774 1.395 1_554 S
C772 C775 1.403 . S
H773 C779 0.930 . S
C774 H760 0.930 . S
C774 C772 1.395 1_556 S
C774 C777 1.403 . S
C775 C772 1.403 . S
C775 C776 1.524 . S
C775 C779 1.400 1_554 S
C776 H761 0.960 . S
C776 H762 0.960 . S
C776 H763 0.960 . S
C776 C775 1.524 . S
C777 C774 1.403 . S
C777 C778 1.392 . S
C777 C781 1.495 . S
C778 C777 1.392 . S
C778 C779 1.385 . S
C778 C780 1.478 . S
C779 H773 0.930 . S
C779 C775 1.400 1_556 S
C779 C778 1.385 . S
C780 C778 1.478 . S
C780 C782 1.381 . S
C780 C786 1.400 . S
C781 C777 1.495 . S
C781 H787 0.959 . S
C781 H788 0.961 . S
C781 H789 0.960 . S
C782 C780 1.381 . S
C782 C783 1.394 . S
C782 H790 0.930 . S
C783 C782 1.394 . S
C783 C784 1.383 . S
C783 H791 0.929 . S
C784 C783 1.383 . S
C784 C785 1.377 . S
C785 H769 0.930 1_556 S
C785 C784 1.377 . S
C785 C786 1.387 . S
C786 H770 0.906 1_556 S
C786 C780 1.400 . S
C786 C785 1.387 . S
H787 C781 0.959 . S
H788 C781 0.961 . S
H789 C781 0.960 . S
H790 C782 0.930 . S
H791 C783 0.929 . S
H792 C800 0.929 . S
H793 C802 0.930 . S
H794 C804 0.930 . S
H795 C807 0.929 . S
H796 C810 0.930 . S
H797 C812 0.960 . S
H798 C812 0.960 . S
H799 C812 0.960 . S
C800 H792 0.929 . S
C800 C801 1.377 . S
C800 C802 1.384 . S
C801 C800 1.377 . S
C801 C807 1.390 . S
C802 H793 0.930 . S
C802 C800 1.384 . S
C802 C803 1.372 . S
C803 C802 1.372 . S
C803 C804 1.400 . S
C803 C808 1.490 . S
C804 H794 0.930 . S
C804 C803 1.400 . S
C804 C807 1.386 . S
H805 C821 0.930 . S
H806 C822 0.931 . S
C807 H795 0.929 . S
C807 C801 1.390 . S
C807 C804 1.386 . S
C808 C803 1.490 . S
C808 C810 1.395 . S
C808 C811 1.403 . S
H809 C815 0.930 . S
C810 H796 0.930 . S
C810 C808 1.395 . S
C810 C813 1.403 . S
C811 C808 1.403 . S
C811 C812 1.524 . S
C811 C815 1.400 . S
C812 H797 0.960 . S
C812 H798 0.960 . S
C812 H799 0.960 . S
C812 C811 1.524 . S
C813 C810 1.403 . S
C813 C814 1.392 . S
C813 C817 1.495 . S
C814 C813 1.392 . S
C814 C815 1.385 . S
C814 C816 1.478 . S
C815 H809 0.930 . S
C815 C811 1.400 . S
C815 C814 1.385 . S
C816 C814 1.478 . S
C816 C818 1.381 . S
C816 C822 1.383 . S
C817 C813 1.495 . S
C817 H823 0.959 . S
C817 H824 0.961 . S
C817 H825 0.960 . S
C818 C816 1.381 . S
C818 C819 1.394 . S
C818 H826 0.930 . S
C819 C818 1.394 . S
C819 C820 1.383 . S
C819 H827 0.929 . S
C820 C819 1.383 . S
C820 C821 1.377 . S
C821 H805 0.930 . S
C821 C820 1.377 . S
C821 C822 1.379 . S
C822 H806 0.931 . S
C822 C816 1.383 . S
C822 C821 1.379 . S
H823 C817 0.959 . S
H824 C817 0.961 . S
H825 C817 0.960 . S
H826 C818 0.930 . S
H827 C819 0.929 . S
H828 C836 0.929 . S
H829 C838 0.930 . S
H830 C840 0.930 . S
H831 C843 0.929 . S
H832 C846 0.930 . S
H833 C848 0.960 . S
H834 C848 0.960 . S
H835 C848 0.960 . S
C836 H828 0.929 . S
C836 C837 1.377 . S
C836 C838 1.384 . S
C837 C836 1.377 . S
C837 C843 1.390 . S
C838 H829 0.930 . S
C838 C836 1.384 . S
C838 C839 1.372 . S
C839 C838 1.372 . S
C839 C840 1.400 . S
C839 C844 1.490 . S
C840 H830 0.930 . S
C840 C839 1.400 . S
C840 C843 1.386 . S
H841 C857 0.930 . S
H842 C858 0.931 . S
C843 H831 0.929 . S
C843 C837 1.390 . S
C843 C840 1.386 . S
C844 C839 1.490 . S
C844 C846 1.395 . S
C844 C847 1.403 . S
H845 C851 0.930 . S
C846 H832 0.930 . S
C846 C844 1.395 . S
C846 C849 1.403 . S
C847 C844 1.403 . S
C847 C848 1.524 . S
C847 C851 1.400 . S
C848 H833 0.960 . S
C848 H834 0.960 . S
C848 H835 0.960 . S
C848 C847 1.524 . S
C849 C846 1.403 . S
C849 C850 1.392 . S
C849 C853 1.495 . S
C850 C849 1.392 . S
C850 C851 1.385 . S
C850 C852 1.478 . S
C851 H845 0.930 . S
C851 C847 1.400 . S
C851 C850 1.385 . S
C852 C850 1.478 . S
C852 C854 1.381 . S
C852 C858 1.383 . S
C853 C849 1.495 . S
C853 H859 0.959 . S
C853 H860 0.961 . S
C853 H861 0.960 . S
C854 C852 1.381 . S
C854 C855 1.394 . S
C854 H862 0.930 . S
C855 C854 1.394 . S
C855 C856 1.383 . S
C855 H863 0.929 . S
C856 C855 1.383 . S
C856 C857 1.377 . S
C857 H841 0.930 . S
C857 C856 1.377 . S
C857 C858 1.379 . S
C858 H842 0.931 . S
C858 C852 1.383 . S
C858 C857 1.379 . S
H859 C853 0.959 . S
H860 C853 0.961 . S
H861 C853 0.960 . S
H862 C854 0.930 . S
H863 C855 0.929 . S
H864 C872 0.929 . S
H865 C874 0.930 . S
H866 C876 0.930 . S
H867 C879 0.929 . S
H868 C882 0.930 . S
H869 C884 0.960 . S
H870 C884 0.960 . S
H871 C884 0.960 . S
C872 H864 0.929 . S
C872 C873 1.377 . S
C872 C874 1.384 . S
C873 C872 1.377 . S
C873 C879 1.390 . S
C874 H865 0.930 . S
C874 C872 1.384 . S
C874 C875 1.372 . S
C875 C874 1.372 . S
C875 C876 1.400 . S
C875 C880 1.490 . S
C876 H866 0.930 . S
C876 C875 1.400 . S
C876 C879 1.386 . S
H877 C893 0.930 . S
H878 C894 0.931 . S
C879 H867 0.929 . S
C879 C873 1.390 . S
C879 C876 1.386 . S
C880 C875 1.490 . S
C880 C882 1.395 . S
C880 C883 1.403 . S
H881 C887 0.930 . S
C882 H868 0.930 . S
C882 C880 1.395 . S
C882 C885 1.403 . S
C883 C880 1.403 . S
C883 C884 1.524 . S
C883 C887 1.400 . S
C884 H869 0.960 . S
C884 H870 0.960 . S
C884 H871 0.960 . S
C884 C883 1.524 . S
C885 C882 1.403 . S
C885 C886 1.392 . S
C885 C889 1.495 . S
C886 C885 1.392 . S
C886 C887 1.385 . S
C886 C888 1.478 . S
C887 H881 0.930 . S
C887 C883 1.400 . S
C887 C886 1.385 . S
C888 C886 1.478 . S
C888 C890 1.381 . S
C888 C894 1.383 . S
C889 C885 1.495 . S
C889 H895 0.959 . S
C889 H896 0.961 . S
C889 H897 0.960 . S
C890 C888 1.381 . S
C890 C891 1.394 . S
C890 H898 0.930 . S
C891 C890 1.394 . S
C891 C892 1.383 . S
C891 H899 0.929 . S
C892 C891 1.383 . S
C892 C893 1.377 . S
C893 H877 0.930 . S
C893 C892 1.377 . S
C893 C894 1.379 . S
C894 H878 0.931 . S
C894 C888 1.383 . S
C894 C893 1.379 . S
H895 C889 0.959 . S
H896 C889 0.961 . S
H897 C889 0.960 . S
H898 C890 0.930 . S
H899 C891 0.929 . S
H900 C908 0.929 . S
H901 C910 0.930 . S
H902 C912 0.930 . S
H903 C915 0.929 . S
H904 C918 0.930 . S
H905 C920 0.960 . S
H906 C920 0.960 . S
H907 C920 0.960 . S
C908 H900 0.929 . S
C908 C909 1.377 . S
C908 C910 1.384 . S
C909 C908 1.377 . S
C909 C915 1.390 . S
C910 H901 0.930 . S
C910 C908 1.384 . S
C910 C911 1.372 . S
C911 C910 1.372 . S
C911 C912 1.400 . S
C911 C916 1.490 . S
C912 H902 0.930 . S
C912 C911 1.400 . S
C912 C915 1.386 . S
H913 C929 0.930 . S
H914 C930 0.931 . S
C915 H903 0.929 . S
C915 C909 1.390 . S
C915 C912 1.386 . S
C916 C911 1.490 . S
C916 C918 1.395 . S
C916 C919 1.403 1_655 S
H917 C923 0.930 . S
C918 H904 0.930 . S
C918 C916 1.395 . S
C918 C921 1.403 . S
C919 C916 1.403 1_455 S
C919 C920 1.524 . S
C919 C923 1.400 . S
C920 H905 0.960 . S
C920 H906 0.960 . S
C920 H907 0.960 . S
C920 C919 1.524 . S
C921 C918 1.403 . S
C921 C922 1.392 . S
C921 C925 1.495 . S
C922 C921 1.392 . S
C922 C923 1.385 1_655 S
C922 C924 1.478 . S
C923 H917 0.930 . S
C923 C919 1.400 . S
C923 C922 1.385 1_455 S
C924 C922 1.478 . S
C924 C926 1.381 1_655 S
C924 C930 1.383 . S
C925 C921 1.495 . S
C925 H931 0.959 . S
C925 H932 0.961 . S
C925 H933 0.960 . S
C926 C924 1.381 1_455 S
C926 C927 1.394 . S
C926 H934 0.930 . S
C927 C926 1.394 . S
C927 C928 1.402 . S
C927 H935 0.929 . S
C928 C927 1.402 . S
C928 C929 1.355 1_455 S
C929 H913 0.930 . S
C929 C928 1.355 1_655 S
C929 C930 1.379 . S
C930 H914 0.931 . S
C930 C924 1.383 . S
C930 C929 1.379 . S
H931 C925 0.959 . S
H932 C925 0.961 . S
H933 C925 0.960 . S
H934 C926 0.930 . S
H935 C927 0.929 . S
H936 C944 0.929 . S
H937 C946 0.930 . S
H938 C948 0.930 . S
H939 C951 0.929 . S
H940 C954 0.930 . S
H941 C956 0.960 . S
H942 C956 0.960 . S
H943 C956 0.960 . S
C944 H936 0.929 . S
C944 C945 1.377 . S
C944 C946 1.384 . S
C945 C944 1.377 . S
C945 C951 1.390 1_565 S
C946 H937 0.930 . S
C946 C944 1.384 . S
C946 C947 1.372 . S
C947 C946 1.372 . S
C947 C948 1.400 1_565 S
C947 C952 1.490 . S
C948 H938 0.930 . S
C948 C947 1.400 1_545 S
C948 C951 1.386 . S
H949 C965 0.930 . S
H950 C966 0.931 . S
C951 H939 0.929 . S
C951 C945 1.390 1_545 S
C951 C948 1.386 . S
C952 C947 1.490 . S
C952 C954 1.395 . S
C952 C955 1.403 1_565 S
H953 C959 0.930 . S
C954 H940 0.930 . S
C954 C952 1.395 . S
C954 C957 1.403 . S
C955 C952 1.403 1_545 S
C955 C956 1.524 . S
C955 C959 1.400 . S
C956 H941 0.960 . S
C956 H942 0.960 . S
C956 H943 0.960 . S
C956 C955 1.524 . S
C957 C954 1.403 . S
C957 C958 1.392 . S
C957 C961 1.495 . S
C958 C957 1.392 . S
C958 C959 1.385 1_565 S
C958 C960 1.477 1_565 S
C959 H953 0.930 . S
C959 C955 1.400 . S
C959 C958 1.385 1_545 S
C960 C958 1.477 1_545 S
C960 C962 1.374 1_545 S
C960 C966 1.392 . S
C961 C957 1.495 . S
C961 H967 0.959 . S
C961 H968 0.961 . S
C961 H969 0.960 . S
C962 C960 1.374 1_565 S
C962 C963 1.394 . S
C962 H970 0.930 . S
C963 C962 1.394 . S
C963 C964 1.383 1_565 S
C963 H971 0.929 . S
C964 C963 1.383 1_545 S
C964 C965 1.377 . S
C965 H949 0.930 . S
C965 C964 1.377 . S
C965 C966 1.379 . S
C966 H950 0.931 . S
C966 C960 1.392 . S
C966 C965 1.379 . S
H967 C961 0.959 . S
H968 C961 0.961 . S
H969 C961 0.960 . S
H970 C962 0.930 . S
H971 C963 0.929 . S
H972 C980 0.929 . S
H973 C982 0.930 . S
H974 C984 0.930 . S
H975 C987 0.929 . S
H976 C990 0.930 . S
H977 C992 0.960 . S
H978 C992 0.960 . S
H979 C992 0.960 . S
C980 H972 0.929 . S
C980 C981 1.377 . S
C980 C982 1.384 . S
C981 C980 1.377 . S
C981 C987 1.390 . S
C982 H973 0.930 . S
C982 C980 1.384 . S
C982 C983 1.372 . S
C983 C982 1.372 . S
C983 C984 1.400 . S
C983 C988 1.490 . S
C984 H974 0.930 . S
C984 C983 1.400 . S
C984 C987 1.386 . S
H985 C1001 0.930 . S
H986 C1002 0.931 . S
C987 H975 0.929 . S
C987 C981 1.390 . S
C987 C984 1.386 . S
C988 C983 1.490 . S
C988 C990 1.395 . S
C988 C991 1.403 . S
H989 C995 0.930 . S
C990 H976 0.930 . S
C990 C988 1.395 . S
C990 C993 1.403 . S
C991 C988 1.403 . S
C991 C992 1.524 . S
C991 C995 1.400 . S
C992 H977 0.960 . S
C992 H978 0.960 . S
C992 H979 0.960 . S
C992 C991 1.524 . S
C993 C990 1.403 . S
C993 C994 1.392 . S
C993 C997 1.495 . S
C994 C993 1.392 . S
C994 C995 1.385 . S
C994 C996 1.478 . S
C995 H989 0.930 . S
C995 C991 1.400 . S
C995 C994 1.385 . S
C996 C994 1.478 . S
C996 C998 1.381 . S
C996 C1002 1.383 . S
C997 C993 1.495 . S
C997 H1003 0.959 . S
C997 H1004 0.961 . S
C997 H1005 0.960 . S
C998 C996 1.381 . S
C998 C999 1.394 . S
C998 H1006 0.930 . S
C999 C998 1.394 . S
C999 C1000 1.383 . S
C999 H1007 0.929 . S
C1000 C999 1.383 . S
C1000 C1001 1.377 . S
C1001 H985 0.930 . S
C1001 C1000 1.377 . S
C1001 C1002 1.379 . S
C1002 H986 0.931 . S
C1002 C996 1.383 . S
C1002 C1001 1.379 . S
H1003 C997 0.959 . S
H1004 C997 0.961 . S
H1005 C997 0.960 . S
H1006 C998 0.930 . S
H1007 C999 0.929 . S
H1008 C1016 0.929 . S
H1009 C1018 0.930 . S
H1010 C1020 0.930 . S
H1011 C1023 0.919 1_655 S
H1012 C1026 0.939 1_655 S
H1013 C1028 0.960 . S
H1014 C1028 0.960 . S
H1015 C1028 0.960 . S
C1016 H1008 0.929 . S
C1016 C1017 1.377 . S
C1016 C1018 1.384 . S
C1017 C1016 1.377 . S
C1017 C1023 1.400 . S
C1018 H1009 0.930 . S
C1018 C1016 1.384 . S
C1018 C1019 1.372 . S
C1019 C1018 1.372 . S
C1019 C1020 1.400 1_455 S
C1019 C1024 1.490 . S
C1020 H1010 0.930 . S
C1020 C1019 1.400 1_655 S
C1020 C1023 1.385 1_655 S
H1021 C1037 0.930 . S
H1022 C1038 0.931 . S
C1023 H1011 0.919 1_455 S
C1023 C1017 1.400 . S
C1023 C1020 1.385 1_455 S
C1024 C1019 1.490 . S
C1024 C1026 1.391 . S
C1024 C1027 1.403 . S
H1025 C1031 0.930 . S
C1026 H1012 0.939 1_455 S
C1026 C1024 1.391 . S
C1026 C1029 1.401 1_455 S
C1027 C1024 1.403 . S
C1027 C1028 1.524 . S
C1027 C1031 1.400 . S
C1028 H1013 0.960 . S
C1028 H1014 0.960 . S
C1028 H1015 0.960 . S
C1028 C1027 1.524 . S
C1029 C1026 1.401 1_655 S
C1029 C1030 1.392 1_655 S
C1029 C1033 1.495 . S
C1030 C1029 1.392 1_455 S
C1030 C1031 1.385 . S
C1030 C1032 1.480 . S
C1031 H1025 0.930 . S
C1031 C1027 1.400 . S
C1031 C1030 1.385 . S
C1032 C1030 1.480 . S
C1032 C1034 1.398 . S
C1032 C1038 1.364 1_455 S
C1033 C1029 1.495 . S
C1033 H1039 0.959 . S
C1033 H1040 0.961 . S
C1033 H1041 0.974 . S
C1034 C1032 1.398 . S
C1034 C1035 1.394 . S
C1034 H1042 0.930 . S
C1035 C1034 1.394 . S
C1035 C1036 1.383 1_455 S
C1035 H1043 0.929 . S
C1036 C1035 1.383 1_655 S
C1036 C1037 1.377 . S
C1037 H1021 0.930 . S
C1037 C1036 1.377 . S
C1037 C1038 1.379 . S
C1038 H1022 0.931 . S
C1038 C1032 1.364 1_655 S
C1038 C1037 1.379 . S
H1039 C1033 0.959 . S
H1040 C1033 0.961 . S
H1041 C1033 0.974 . S
H1042 C1034 0.930 . S
H1043 C1035 0.929 . S
H1044 C1052 0.929 1_545 S
H1045 C1054 0.956 . S
H1046 C1056 0.930 . S
H1047 C1059 0.929 . S
H1048 C1062 0.930 . S
H1049 C1064 0.960 . S
H1050 C1064 0.960 . S
H1051 C1064 0.960 . S
C1052 H1044 0.929 1_565 S
C1052 C1053 1.377 . S
C1052 C1054 1.381 1_565 S
C1053 C1052 1.377 . S
C1053 C1059 1.390 . S
C1054 H1045 0.956 . S
C1054 C1052 1.381 1_545 S
C1054 C1055 1.350 1_545 S
C1055 C1054 1.350 1_565 S
C1055 C1056 1.400 . S
C1055 C1060 1.490 . S
C1056 H1046 0.930 . S
C1056 C1055 1.400 . S
C1056 C1059 1.386 . S
H1057 C1073 0.930 . S
H1058 C1074 0.931 . S
C1059 H1047 0.929 . S
C1059 C1053 1.390 . S
C1059 C1056 1.386 . S
C1060 C1055 1.490 . S
C1060 C1062 1.395 . S
C1060 C1063 1.403 1_565 S
H1061 C1067 0.930 . S
C1062 H1048 0.930 . S
C1062 C1060 1.395 . S
C1062 C1065 1.403 . S
C1063 C1060 1.403 1_545 S
C1063 C1064 1.524 . S
C1063 C1067 1.400 . S
C1064 H1049 0.960 . S
C1064 H1050 0.960 . S
C1064 H1051 0.960 . S
C1064 C1063 1.524 . S
C1065 C1062 1.403 . S
C1065 C1066 1.394 . S
C1065 C1069 1.495 . S
C1066 C1065 1.394 . S
C1066 C1067 1.384 1_565 S
C1066 C1068 1.477 1_565 S
C1067 H1061 0.930 . S
C1067 C1063 1.400 . S
C1067 C1066 1.384 1_545 S
C1068 C1066 1.477 1_545 S
C1068 C1070 1.381 . S
C1068 C1074 1.383 1_545 S
C1069 C1065 1.495 . S
C1069 H1075 0.959 . S
C1069 H1076 0.961 . S
C1069 H1077 0.960 . S
C1070 C1068 1.381 . S
C1070 C1071 1.394 . S
C1070 H1078 0.930 . S
C1071 C1070 1.394 . S
C1071 C1072 1.383 . S
C1071 H1079 0.929 . S
C1072 C1071 1.383 . S
C1072 C1073 1.377 1_545 S
C1073 H1057 0.930 . S
C1073 C1072 1.377 1_565 S
C1073 C1074 1.379 . S
C1074 H1058 0.931 . S
C1074 C1068 1.383 1_565 S
C1074 C1073 1.379 . S
H1075 C1069 0.959 . S
H1076 C1069 0.961 . S
H1077 C1069 0.960 . S
H1078 C1070 0.930 . S
H1079 C1071 0.929 . S
H1080 C1088 0.929 . S
H1081 C1090 0.930 . S
H1082 C1092 0.930 . S
H1083 C1095 0.929 . S
H1084 C1098 0.930 . S
H1085 C1100 0.960 . S
H1086 C1100 0.960 . S
H1087 C1100 0.960 . S
C1088 H1080 0.929 . S
C1088 C1089 1.377 . S
C1088 C1090 1.384 . S
C1089 C1088 1.377 . S
C1089 C1095 1.390 . S
C1090 H1081 0.930 . S
C1090 C1088 1.384 . S
C1090 C1091 1.372 . S
C1091 C1090 1.372 . S
C1091 C1092 1.400 . S
C1091 C1096 1.490 . S
C1092 H1082 0.930 . S
C1092 C1091 1.400 . S
C1092 C1095 1.386 . S
H1093 C1109 0.930 . S
H1094 C1110 0.931 . S
C1095 H1083 0.929 . S
C1095 C1089 1.390 . S
C1095 C1092 1.386 . S
C1096 C1091 1.490 . S
C1096 C1098 1.395 . S
C1096 C1099 1.403 . S
H1097 C1103 0.930 . S
C1098 H1084 0.930 . S
C1098 C1096 1.395 . S
C1098 C1101 1.403 . S
C1099 C1096 1.403 . S
C1099 C1100 1.524 . S
C1099 C1103 1.400 . S
C1100 H1085 0.960 . S
C1100 H1086 0.960 . S
C1100 H1087 0.960 . S
C1100 C1099 1.524 . S
C1101 C1098 1.403 . S
C1101 C1102 1.392 . S
C1101 C1105 1.495 . S
C1102 C1101 1.392 . S
C1102 C1103 1.385 . S
C1102 C1104 1.478 . S
C1103 H1097 0.930 . S
C1103 C1099 1.400 . S
C1103 C1102 1.385 . S
C1104 C1102 1.478 . S
C1104 C1106 1.381 . S
C1104 C1110 1.383 . S
C1105 C1101 1.495 . S
C1105 H1111 0.959 . S
C1105 H1112 0.961 . S
C1105 H1113 0.960 . S
C1106 C1104 1.381 . S
C1106 C1107 1.394 . S
C1106 H1114 0.930 . S
C1107 C1106 1.394 . S
C1107 C1108 1.383 . S
C1107 H1115 0.929 . S
C1108 C1107 1.383 . S
C1108 C1109 1.377 . S
C1109 H1093 0.930 . S
C1109 C1108 1.377 . S
C1109 C1110 1.379 . S
C1110 H1094 0.931 . S
C1110 C1104 1.383 . S
C1110 C1109 1.379 . S
H1111 C1105 0.959 . S
H1112 C1105 0.961 . S
H1113 C1105 0.960 . S
H1114 C1106 0.930 . S
H1115 C1107 0.929 . S
H1116 C1124 0.929 . S
H1117 C1126 0.930 . S
H1118 C1128 0.930 1_655 S
H1119 C1131 0.962 . S
H1120 C1134 0.930 . S
H1121 C1136 0.960 . S
H1122 C1136 0.960 . S
H1123 C1136 0.960 . S
C1124 H1116 0.929 . S
C1124 C1125 1.377 . S
C1124 C1126 1.384 . S
C1125 C1124 1.377 . S
C1125 C1131 1.390 . S
C1126 H1117 0.930 . S
C1126 C1124 1.384 . S
C1126 C1127 1.372 . S
C1127 C1126 1.372 . S
C1127 C1128 1.400 . S
C1127 C1132 1.490 . S
C1128 H1118 0.930 1_455 S
C1128 C1127 1.400 . S
C1128 C1131 1.386 . S
H1129 C1145 0.930 . S
H1130 C1146 0.931 . S
C1131 H1119 0.962 . S
C1131 C1125 1.390 . S
C1131 C1128 1.386 . S
C1132 C1127 1.490 . S
C1132 C1134 1.395 . S
C1132 C1135 1.403 1_455 S
H1133 C1139 0.930 . S
C1134 H1120 0.930 . S
C1134 C1132 1.395 . S
C1134 C1137 1.403 . S
C1135 C1132 1.403 1_655 S
C1135 C1136 1.524 . S
C1135 C1139 1.400 . S
C1136 H1121 0.960 . S
C1136 H1122 0.960 . S
C1136 H1123 0.960 . S
C1136 C1135 1.524 . S
C1137 C1134 1.403 . S
C1137 C1138 1.392 1_455 S
C1137 C1141 1.495 . S
C1138 C1137 1.392 1_655 S
C1138 C1139 1.385 . S
C1138 C1140 1.478 . S
C1139 H1133 0.930 . S
C1139 C1135 1.400 . S
C1139 C1138 1.385 . S
C1140 C1138 1.478 . S
C1140 C1142 1.397 . S
C1140 C1146 1.383 . S
C1141 C1137 1.495 . S
C1141 H1147 0.959 . S
C1141 H1148 0.961 . S
C1141 H1149 0.960 . S
C1142 C1140 1.397 . S
C1142 C1143 1.391 . S
C1142 H1150 0.918 1_655 S
C1143 C1142 1.391 . S
C1143 C1144 1.383 . S
C1143 H1151 0.929 . S
C1144 C1143 1.383 . S
C1144 C1145 1.377 . S
C1145 H1129 0.930 . S
C1145 C1144 1.377 . S
C1145 C1146 1.379 . S
C1146 H1130 0.931 . S
C1146 C1140 1.383 . S
C1146 C1145 1.379 . S
H1147 C1141 0.959 . S
H1148 C1141 0.961 . S
H1149 C1141 0.960 . S
H1150 C1142 0.918 1_455 S
H1151 C1143 0.929 . S
H1152 C1160 0.929 . S
H1153 C1162 0.930 . S
H1154 C1164 0.930 . S
H1155 C1167 0.929 1_545 S
H1156 C1170 0.930 . S
H1157 C1172 0.960 . S
H1158 C1172 0.960 1_565 S
H1159 C1172 0.960 . S
C1160 H1152 0.929 . S
C1160 C1161 1.377 . S
C1160 C1162 1.384 . S
C1161 C1160 1.377 . S
C1161 C1167 1.390 . S
C1162 H1153 0.930 . S
C1162 C1160 1.384 . S
C1162 C1163 1.372 . S
C1163 C1162 1.372 . S
C1163 C1164 1.400 1_565 S
C1163 C1168 1.490 . S
C1164 H1154 0.930 . S
C1164 C1163 1.400 1_545 S
C1164 C1167 1.386 1_545 S
H1165 C1181 0.930 . S
H1166 C1182 0.931 . S
C1167 H1155 0.929 1_565 S
C1167 C1161 1.390 . S
C1167 C1164 1.386 1_565 S
C1168 C1163 1.490 . S
C1168 C1170 1.395 . S
C1168 C1171 1.403 1_565 S
H1169 C1175 0.930 . S
C1170 H1156 0.930 . S
C1170 C1168 1.395 . S
C1170 C1173 1.403 . S
C1171 C1168 1.403 1_545 S
C1171 C1172 1.524 . S
C1171 C1175 1.400 . S
C1172 H1157 0.960 . S
C1172 H1158 0.960 1_545 S
C1172 H1159 0.960 . S
C1172 C1171 1.524 . S
C1173 C1170 1.403 . S
C1173 C1174 1.392 1_565 S
C1173 C1177 1.495 . S
C1174 C1173 1.392 1_545 S
C1174 C1175 1.385 . S
C1174 C1176 1.478 . S
C1175 H1169 0.930 . S
C1175 C1171 1.400 . S
C1175 C1174 1.385 . S
C1176 C1174 1.478 . S
C1176 C1178 1.381 1_545 S
C1176 C1182 1.383 . S
C1177 C1173 1.495 . S
C1177 H1183 0.959 . S
C1177 H1184 0.961 . S
C1177 H1185 0.960 . S
C1178 C1176 1.381 1_565 S
C1178 C1179 1.394 1_565 S
C1178 H1186 0.930 . S
C1179 C1178 1.394 1_545 S
C1179 C1180 1.383 . S
C1179 H1187 0.929 1_545 S
C1180 C1179 1.383 . S
C1180 C1181 1.377 . S
C1181 H1165 0.930 . S
C1181 C1180 1.377 . S
C1181 C1182 1.379 . S
C1182 H1166 0.931 . S
C1182 C1176 1.383 . S
C1182 C1181 1.379 . S
H1183 C1177 0.959 . S
H1184 C1177 0.961 . S
H1185 C1177 0.960 . S
H1186 C1178 0.930 . S
H1187 C1179 0.929 1_565 S
H1188 C1196 0.929 . S
H1189 C1198 0.930 . S
H1190 C1200 0.930 . S
H1191 C1203 0.929 . S
H1192 C1206 0.930 . S
H1193 C1208 0.960 . S
H1194 C1208 0.960 . S
H1195 C1208 0.960 . S
C1196 H1188 0.929 . S
C1196 C1197 1.377 . S
C1196 C1198 1.384 . S
C1197 C1196 1.377 . S
C1197 C1203 1.390 . S
C1198 H1189 0.930 . S
C1198 C1196 1.384 . S
C1198 C1199 1.372 . S
C1199 C1198 1.372 . S
C1199 C1200 1.400 . S
C1199 C1204 1.490 . S
C1200 H1190 0.930 . S
C1200 C1199 1.400 . S
C1200 C1203 1.386 . S
H1201 C1217 0.930 . S
H1202 C1218 0.931 . S
C1203 H1191 0.929 . S
C1203 C1197 1.390 . S
C1203 C1200 1.386 . S
C1204 C1199 1.490 . S
C1204 C1206 1.395 . S
C1204 C1207 1.403 . S
H1205 C1211 0.930 . S
C1206 H1192 0.930 . S
C1206 C1204 1.395 . S
C1206 C1209 1.403 . S
C1207 C1204 1.403 . S
C1207 C1208 1.524 . S
C1207 C1211 1.400 . S
C1208 H1193 0.960 . S
C1208 H1194 0.960 . S
C1208 H1195 0.960 . S
C1208 C1207 1.524 . S
C1209 C1206 1.403 . S
C1209 C1210 1.392 . S
C1209 C1213 1.495 . S
C1210 C1209 1.392 . S
C1210 C1211 1.385 . S
C1210 C1212 1.478 . S
C1211 H1205 0.930 . S
C1211 C1207 1.400 . S
C1211 C1210 1.385 . S
C1212 C1210 1.478 . S
C1212 C1214 1.381 . S
C1212 C1218 1.383 . S
C1213 C1209 1.495 . S
C1213 H1219 0.959 . S
C1213 H1220 0.961 . S
C1213 H1221 0.960 . S
C1214 C1212 1.381 . S
C1214 C1215 1.394 . S
C1214 H1222 0.930 . S
C1215 C1214 1.394 . S
C1215 C1216 1.383 . S
C1215 H1223 0.929 . S
C1216 C1215 1.383 . S
C1216 C1217 1.377 . S
C1217 H1201 0.930 . S
C1217 C1216 1.377 . S
C1217 C1218 1.379 . S
C1218 H1202 0.931 . S
C1218 C1212 1.383 . S
C1218 C1217 1.379 . S
H1219 C1213 0.959 . S
H1220 C1213 0.961 . S
H1221 C1213 0.960 . S
H1222 C1214 0.930 . S
H1223 C1215 0.929 . S
H1224 C1232 0.929 . S
H1225 C1234 0.930 . S
H1226 C1236 0.932 1_455 S
H1227 C1239 0.929 . S
H1228 C1242 0.930 . S
H1229 C1244 0.960 . S
H1230 C1244 0.960 . S
H1231 C1244 0.955 1_554 S
C1232 H1224 0.929 . S
C1232 C1233 1.377 . S
C1232 C1234 1.384 . S
C1233 C1232 1.377 . S
C1233 C1239 1.390 . S
C1234 H1225 0.930 . S
C1234 C1232 1.384 . S
C1234 C1235 1.372 . S
C1235 C1234 1.372 . S
C1235 C1236 1.400 . S
C1235 C1240 1.490 . S
C1236 H1226 0.932 1_655 S
C1236 C1235 1.400 . S
C1236 C1239 1.386 . S
H1237 C1253 0.930 . S
H1238 C1254 0.931 . S
C1239 H1227 0.929 . S
C1239 C1233 1.390 . S
C1239 C1236 1.386 . S
C1240 C1235 1.490 . S
C1240 C1242 1.395 1_655 S
C1240 C1243 1.403 . S
H1241 C1247 0.930 . S
C1242 H1228 0.930 . S
C1242 C1240 1.395 1_455 S
C1242 C1245 1.403 . S
C1243 C1240 1.403 . S
C1243 C1244 1.524 . S
C1243 C1247 1.400 . S
C1244 H1229 0.960 . S
C1244 H1230 0.960 . S
C1244 H1231 0.955 1_556 S
C1244 C1243 1.524 . S
C1245 C1242 1.403 . S
C1245 C1246 1.392 . S
C1245 C1249 1.495 . S
C1246 C1245 1.392 . S
C1246 C1247 1.385 1_455 S
C1246 C1248 1.478 . S
C1247 H1241 0.930 . S
C1247 C1243 1.400 . S
C1247 C1246 1.385 1_655 S
C1248 C1246 1.478 . S
C1248 C1250 1.381 . S
C1248 C1254 1.383 . S
C1249 C1245 1.495 . S
C1249 H1255 0.959 . S
C1249 H1256 0.961 . S
C1249 H1257 0.960 . S
C1250 C1248 1.381 . S
C1250 C1251 1.394 . S
C1250 H1258 0.930 1_455 S
C1251 C1250 1.394 . S
C1251 C1252 1.383 . S
C1251 H1259 0.929 . S
C1252 C1251 1.383 . S
C1252 C1253 1.377 . S
C1253 H1237 0.930 . S
C1253 C1252 1.377 . S
C1253 C1254 1.379 . S
C1254 H1238 0.931 . S
C1254 C1248 1.383 . S
C1254 C1253 1.379 . S
H1255 C1249 0.959 . S
H1256 C1249 0.961 . S
H1257 C1249 0.960 . S
H1258 C1250 0.930 1_655 S
H1259 C1251 0.929 . S
H1260 C1268 0.929 1_565 S
H1261 C1270 0.930 . S
H1262 C1272 0.930 . S
H1263 C1275 0.929 . S
H1264 C1278 0.930 . S
H1265 C1280 0.960 . S
H1266 C1280 0.960 . S
H1267 C1280 0.960 . S
C1268 H1260 0.929 1_545 S
C1268 C1269 1.377 . S
C1268 C1270 1.384 1_545 S
C1269 C1268 1.377 . S
C1269 C1275 1.390 . S
C1270 H1261 0.930 . S
C1270 C1268 1.384 1_565 S
C1270 C1271 1.372 1_565 S
C1271 C1270 1.372 1_545 S
C1271 C1272 1.400 . S
C1271 C1276 1.490 . S
C1272 H1262 0.930 . S
C1272 C1271 1.400 . S
C1272 C1275 1.386 . S
H1273 C1289 0.930 1_545 S
H1274 C1290 0.945 . S
C1275 H1263 0.929 . S
C1275 C1269 1.390 . S
C1275 C1272 1.386 . S
C1276 C1271 1.490 . S
C1276 C1278 1.395 1_545 S
C1276 C1279 1.403 . S
H1277 C1283 0.930 . S
C1278 H1264 0.930 . S
C1278 C1276 1.395 1_565 S
C1278 C1281 1.403 . S
C1279 C1276 1.403 . S
C1279 C1280 1.524 . S
C1279 C1283 1.400 . S
C1280 H1265 0.960 . S
C1280 H1266 0.960 . S
C1280 H1267 0.960 . S
C1280 C1279 1.524 . S
C1281 C1278 1.403 . S
C1281 C1282 1.392 . S
C1281 C1285 1.495 . S
C1282 C1281 1.392 . S
C1282 C1283 1.385 1_565 S
C1282 C1284 1.478 . S
C1283 H1277 0.930 . S
C1283 C1279 1.400 . S
C1283 C1282 1.385 1_545 S
C1284 C1282 1.478 . S
C1284 C1286 1.381 . S
C1284 C1290 1.364 1_565 S
C1285 C1281 1.495 . S
C1285 H1291 0.959 . S
C1285 H1292 0.961 . S
C1285 H1293 0.960 . S
C1286 C1284 1.381 . S
C1286 C1287 1.394 . S
C1286 H1294 0.930 . S
C1287 C1286 1.394 . S
C1287 C1288 1.383 . S
C1287 H1295 0.929 . S
C1288 C1287 1.383 . S
C1288 C1289 1.377 . S
C1289 H1273 0.930 1_565 S
C1289 C1288 1.377 . S
C1289 C1290 1.385 1_565 S
C1290 H1274 0.945 . S
C1290 C1284 1.364 1_545 S
C1290 C1289 1.385 1_545 S
H1291 C1285 0.959 . S
H1292 C1285 0.961 . S
H1293 C1285 0.960 . S
H1294 C1286 0.930 . S
H1295 C1287 0.929 . S
C441 C3 1.545 . S
C460 C338 1.484 . S
C477 C50 1.480 . S
C496 C363 1.542 . S
C513 C75 1.331 . S
C532 C399 1.321 . S
C549 C111 1.544 . S
C568 C230 1.461 . S
C585 C255 1.542 . S
C604 C158 1.507 . S
C621 C291 1.327 . S
C640 C183 1.339 . S
C657 C374 1.405 . S
C676 C14 1.430 . S
C693 C39 1.468 . S
C712 C410 1.410 . S
C729 C86 1.386 . S
C748 C219 1.461 . S
C765 C122 1.396 . S
C784 C266 1.414 . S
C801 C147 1.470 . S
C820 C302 1.404 . S
C837 C194 1.376 . S
C856 C327 1.472 . S
C873 C326 0.581 . S
C892 C4 0.620 . S
C909 C38 0.583 . S
C928 C364 0.636 . S
C945 C76 0.467 . S
C964 C400 0.508 . S
C981 C218 0.566 . S
C1000 C112 0.564 . S
C1017 C146 0.550 . S
C1036 C256 0.472 . S
C1053 C292 0.470 . S
C1072 C184 0.546 . S
C1089 C2 1.554 . S
C1108 C110 1.565 . S
C1125 C148 1.308 . S
C1144 C40 1.290 . S
C1161 C74 1.434 . S
C1180 C182 1.423 . S
C1197 C220 1.312 . S
C1216 C328 1.308 . S
C1233 C254 1.555 . S
C1252 C362 1.561 . S
C1269 C398 1.430 . S
C1288 C290 1.438 . S
