# Generated by pormake.
# Topology wnz, (7)-cn, num edge types: 1
# Building blocks:
#     Node 0, Type 0, BuildingBlock: OLANEW_clean_sbu_0, # of connection points: 7
#     Node 1, Type 0, BuildingBlock: OLANEW_clean_sbu_0, # of connection points: 7
#     Node 2, Type 0, BuildingBlock: OLANEW_clean_sbu_0, # of connection points: 7
#     Node 3, Type 0, BuildingBlock: OLANEW_clean_sbu_0, # of connection points: 7
#     Node 4, Type 0, BuildingBlock: OLANEW_clean_sbu_0, # of connection points: 7
#     Node 5, Type 0, BuildingBlock: OLANEW_clean_sbu_0, # of connection points: 7
#     Node 6, Type 0, BuildingBlock: OLANEW_clean_sbu_0, # of connection points: 7
#     Node 7, Type 0, BuildingBlock: OLANEW_clean_sbu_0, # of connection points: 7
#     Node 8, Type 0, BuildingBlock: OLANEW_clean_sbu_0, # of connection points: 7
#     Node 9, Type 0, BuildingBlock: OLANEW_clean_sbu_0, # of connection points: 7
#     Node 10, Type 0, BuildingBlock: OLANEW_clean_sbu_0, # of connection points: 7
#     Node 11, Type 0, BuildingBlock: OLANEW_clean_sbu_0, # of connection points: 7
#     Node 12, Type 0, BuildingBlock: OLANEW_clean_sbu_0, # of connection points: 7
#     Node 13, Type 0, BuildingBlock: OLANEW_clean_sbu_0, # of connection points: 7
#     Node 14, Type 0, BuildingBlock: OLANEW_clean_sbu_0, # of connection points: 7
#     Node 15, Type 0, BuildingBlock: OLANEW_clean_sbu_0, # of connection points: 7
#     Node 16, Type 0, BuildingBlock: OLANEW_clean_sbu_0, # of connection points: 7
#     Node 17, Type 0, BuildingBlock: OLANEW_clean_sbu_0, # of connection points: 7
#     Node 18, Type 0, BuildingBlock: OLANEW_clean_sbu_0, # of connection points: 7
#     Node 19, Type 0, BuildingBlock: OLANEW_clean_sbu_0, # of connection points: 7
#     Node 20, Type 0, BuildingBlock: OLANEW_clean_sbu_0, # of connection points: 7
#     Node 21, Type 0, BuildingBlock: OLANEW_clean_sbu_0, # of connection points: 7
#     Node 22, Type 0, BuildingBlock: OLANEW_clean_sbu_0, # of connection points: 7
#     Node 23, Type 0, BuildingBlock: OLANEW_clean_sbu_0, # of connection points: 7
#     Node 24, Type 0, BuildingBlock: OLANEW_clean_sbu_0, # of connection points: 7
#     Node 25, Type 0, BuildingBlock: OLANEW_clean_sbu_0, # of connection points: 7
#     Node 26, Type 0, BuildingBlock: OLANEW_clean_sbu_0, # of connection points: 7
#     Node 27, Type 0, BuildingBlock: OLANEW_clean_sbu_0, # of connection points: 7
#     Node 28, Type 0, BuildingBlock: OLANEW_clean_sbu_0, # of connection points: 7
#     Node 29, Type 0, BuildingBlock: OLANEW_clean_sbu_0, # of connection points: 7
#     Node 30, Type 0, BuildingBlock: OLANEW_clean_sbu_0, # of connection points: 7
#     Node 31, Type 0, BuildingBlock: OLANEW_clean_sbu_0, # of connection points: 7
#     Node 32, Type 0, BuildingBlock: OLANEW_clean_sbu_0, # of connection points: 7
#     Node 33, Type 0, BuildingBlock: OLANEW_clean_sbu_0, # of connection points: 7
#     Node 34, Type 0, BuildingBlock: OLANEW_clean_sbu_0, # of connection points: 7
#     Node 35, Type 0, BuildingBlock: OLANEW_clean_sbu_0, # of connection points: 7
#     Edge 36, Type (0, 0), None
#     Edge 37, Type (0, 0), None
#     Edge 38, Type (0, 0), None
#     Edge 39, Type (0, 0), None
#     Edge 40, Type (0, 0), None
#     Edge 41, Type (0, 0), None
#     Edge 42, Type (0, 0), None
#     Edge 43, Type (0, 0), None
#     Edge 44, Type (0, 0), None
#     Edge 45, Type (0, 0), None
#     Edge 46, Type (0, 0), None
#     Edge 47, Type (0, 0), None
#     Edge 48, Type (0, 0), None
#     Edge 49, Type (0, 0), None
#     Edge 50, Type (0, 0), None
#     Edge 51, Type (0, 0), None
#     Edge 52, Type (0, 0), None
#     Edge 53, Type (0, 0), None
#     Edge 54, Type (0, 0), None
#     Edge 55, Type (0, 0), None
#     Edge 56, Type (0, 0), None
#     Edge 57, Type (0, 0), None
#     Edge 58, Type (0, 0), None
#     Edge 59, Type (0, 0), None
#     Edge 60, Type (0, 0), None
#     Edge 61, Type (0, 0), None
#     Edge 62, Type (0, 0), None
#     Edge 63, Type (0, 0), None
#     Edge 64, Type (0, 0), None
#     Edge 65, Type (0, 0), None
#     Edge 66, Type (0, 0), None
#     Edge 67, Type (0, 0), None
#     Edge 68, Type (0, 0), None
#     Edge 69, Type (0, 0), None
#     Edge 70, Type (0, 0), None
#     Edge 71, Type (0, 0), None
#     Edge 72, Type (0, 0), None
#     Edge 73, Type (0, 0), None
#     Edge 74, Type (0, 0), None
#     Edge 75, Type (0, 0), None
#     Edge 76, Type (0, 0), None
#     Edge 77, Type (0, 0), None
#     Edge 78, Type (0, 0), None
#     Edge 79, Type (0, 0), None
#     Edge 80, Type (0, 0), None
#     Edge 81, Type (0, 0), None
#     Edge 82, Type (0, 0), None
#     Edge 83, Type (0, 0), None
#     Edge 84, Type (0, 0), None
#     Edge 85, Type (0, 0), None
#     Edge 86, Type (0, 0), None
#     Edge 87, Type (0, 0), None
#     Edge 88, Type (0, 0), None
#     Edge 89, Type (0, 0), None
#     Edge 90, Type (0, 0), None
#     Edge 91, Type (0, 0), None
#     Edge 92, Type (0, 0), None
#     Edge 93, Type (0, 0), None
#     Edge 94, Type (0, 0), None
#     Edge 95, Type (0, 0), None
#     Edge 96, Type (0, 0), None
#     Edge 97, Type (0, 0), None
#     Edge 98, Type (0, 0), None
#     Edge 99, Type (0, 0), None
#     Edge 100, Type (0, 0), None
#     Edge 101, Type (0, 0), None
#     Edge 102, Type (0, 0), None
#     Edge 103, Type (0, 0), None
#     Edge 104, Type (0, 0), None
#     Edge 105, Type (0, 0), None
#     Edge 106, Type (0, 0), None
#     Edge 107, Type (0, 0), None
#     Edge 108, Type (0, 0), None
#     Edge 109, Type (0, 0), None
#     Edge 110, Type (0, 0), None
#     Edge 111, Type (0, 0), None
#     Edge 112, Type (0, 0), None
#     Edge 113, Type (0, 0), None
#     Edge 114, Type (0, 0), None
#     Edge 115, Type (0, 0), None
#     Edge 116, Type (0, 0), None
#     Edge 117, Type (0, 0), None
#     Edge 118, Type (0, 0), None
#     Edge 119, Type (0, 0), None
#     Edge 120, Type (0, 0), None
#     Edge 121, Type (0, 0), None
#     Edge 122, Type (0, 0), None
#     Edge 123, Type (0, 0), None
#     Edge 124, Type (0, 0), None
#     Edge 125, Type (0, 0), None
#     Edge 126, Type (0, 0), None
#     Edge 127, Type (0, 0), None
#     Edge 128, Type (0, 0), None
#     Edge 129, Type (0, 0), None
#     Edge 130, Type (0, 0), None
#     Edge 131, Type (0, 0), None
#     Edge 132, Type (0, 0), None
#     Edge 133, Type (0, 0), None
#     Edge 134, Type (0, 0), None
#     Edge 135, Type (0, 0), None
#     Edge 136, Type (0, 0), None
#     Edge 137, Type (0, 0), None
#     Edge 138, Type (0, 0), None
#     Edge 139, Type (0, 0), None
#     Edge 140, Type (0, 0), None
#     Edge 141, Type (0, 0), None
#     Edge 142, Type (0, 0), None
#     Edge 143, Type (0, 0), None
#     Edge 144, Type (0, 0), None
#     Edge 145, Type (0, 0), None
#     Edge 146, Type (0, 0), None
#     Edge 147, Type (0, 0), None
#     Edge 148, Type (0, 0), None
#     Edge 149, Type (0, 0), None
#     Edge 150, Type (0, 0), None
#     Edge 151, Type (0, 0), None
#     Edge 152, Type (0, 0), None
#     Edge 153, Type (0, 0), None
#     Edge 154, Type (0, 0), None
#     Edge 155, Type (0, 0), None
#     Edge 156, Type (0, 0), None
#     Edge 157, Type (0, 0), None
#     Edge 158, Type (0, 0), None
#     Edge 159, Type (0, 0), None
#     Edge 160, Type (0, 0), None
#     Edge 161, Type (0, 0), None
# Relax obj value: 0.204
# Max RMSD: 0.273
# Mean RMSD: 0.273
data_MOF--net-wnz--node1-OLANEW_clean_sbu_0--edge1-none
_symmetry_space_group_name_H-M    P1
_symmetry_Int_Tables_number       1
_symmetry_cell_setting            triclinic
loop_
_symmetry_equiv_pos_as_xyz
'x, y, z'
_cell_length_a     27.515214
_cell_length_b     27.515401
_cell_length_c     98.334403
_cell_angle_alpha  90.002523
_cell_angle_beta   89.997456
_cell_angle_gamma 120.00144
loop_
_atom_site_label
_atom_site_type_symbol
_atom_site_fract_x
_atom_site_fract_y
_atom_site_fract_z
_atom_type_partial_charge
Cd0 Cd 0.38532 0.88628 0.14492 0.0
C1 C 0.47464 0.8434 0.13385 0.0
C2 C 0.61243 0.17537 0.1569 0.0
O3 O 0.64685 0.18138 0.16687 0.0
Cd4 Cd 0.37178 0.8551 0.12192 0.0
C5 C 0.57537 0.19984 0.15753 0.0
C6 C 0.49675 0.23523 0.15417 0.0
C7 C 0.50502 0.20389 0.14418 0.0
N8 N 0.54273 0.18792 0.1466 0.0
C9 C 0.5696 0.23135 0.16793 0.0
C10 C 0.52973 0.2491 0.16613 0.0
Co11 Co 0.54788 0.14228 0.13392 0.0
C12 C 0.47483 0.18188 0.13118 0.0
O13 O 0.4322 0.1881 0.12762 0.0
C14 C 0.45317 0.10882 0.11387 0.0
C15 C 0.41631 0.054 0.11794 0.0
C16 C 0.39408 0.01016 0.10857 0.0
C17 C 0.39875 0.02302 0.09476 0.0
C18 C 0.42645 0.07927 0.09033 0.0
C19 C 0.45715 0.12251 0.09989 0.0
C20 C 0.37636 0.95295 0.11343 0.0
C21 C 0.62324 0.10128 0.1454 0.0
C22 C 0.60765 0.06221 0.15609 0.0
C23 C 0.64755 0.09301 0.13377 0.0
C24 C 0.64615 0.04203 0.13178 0.0
C25 C 0.62278 0.99987 0.14165 0.0
C26 C 0.60478 0.01008 0.15413 0.0
N27 N 0.60665 0.14363 0.14558 0.0
N28 N 0.48898 0.14797 0.12407 0.0
N29 N 0.49333 0.07275 0.1431 0.0
C30 C 0.46503 0.06989 0.15568 0.0
C31 C 0.48131 0.05582 0.16784 0.0
C32 C 0.42278 0.08424 0.15605 0.0
C33 C 0.46195 0.06343 0.18043 0.0
H34 H 0.50922 0.03932 0.16752 0.0
C35 C 0.42127 0.08001 0.18063 0.0
C36 C 0.39961 0.08806 0.16846 0.0
C37 C 0.48409 0.05408 0.19335 0.0
H38 H 0.40754 0.09219 0.14669 0.0
H39 H 0.40549 0.08544 0.19026 0.0
C40 C 0.35241 0.09965 0.16876 0.0
O41 O 0.46585 0.06232 0.20542 0.0
O42 O 0.51898 0.03895 0.19316 0.0
O43 O 0.33851 0.11433 0.15843 0.0
O44 O 0.3236 0.09269 0.18041 0.0
H45 H 0.47956 0.05628 0.21395 0.0
H46 H 0.29094 0.09725 0.18072 0.0
N47 N 0.55191 0.09645 0.12112 0.0
C48 C 0.58477 0.12199 0.11043 0.0
C49 C 0.59003 0.08837 0.10052 0.0
C50 C 0.56012 0.02939 0.10246 0.0
C51 C 0.5267 1.00526 0.1142 0.0
C52 C 0.52345 0.0413 0.12371 0.0
N53 N 0.60432 0.20503 0.12313 0.0
C54 C 0.61554 0.18407 0.11165 0.0
O55 O 0.65549 0.21646 0.10311 0.0
C56 C 0.49272 0.02748 0.13687 0.0
O57 O 0.31242 0.89619 0.15663 0.0
O58 O 0.38473 0.91402 0.16888 0.0
C59 C 0.64131 0.2604 0.12859 0.0
C60 C 0.62063 0.29698 0.1322 0.0
C61 C 0.64698 0.33519 0.14307 0.0
C62 C 0.68221 0.32269 0.15094 0.0
C63 C 0.72197 0.31646 0.14326 0.0
C64 C 0.69737 0.27687 0.13258 0.0
O65 O 0.45444 0.84969 0.14498 0.0
O66 O 0.45575 0.84984 0.12263 0.0
O67 O 0.38079 0.94591 0.12609 0.0
O68 O 0.36918 0.9147 0.10516 0.0
O69 O 0.4762 0.978 0.14342 0.0
C70 C 0.29413 0.7438 0.13317 0.0
O71 O 0.29539 0.76452 0.12162 0.0
O72 O 0.32343 0.77662 0.14285 0.0
C73 C 0.33832 0.91345 0.16784 0.0
H74 H 0.46546 0.24767 0.1529 0.0
H75 H 0.59467 0.2418 0.17709 0.0
H76 H 0.52414 0.27326 0.17403 0.0
H77 H 0.40945 0.04452 0.12859 0.0
H78 H 0.37983 0.98922 0.08739 0.0
H79 H 0.48235 0.16569 0.09661 0.0
H80 H 0.59637 0.07186 0.1658 0.0
H81 H 0.66508 0.12471 0.12595 0.0
H82 H 0.62051 0.96012 0.13967 0.0
H83 H 0.61681 0.10678 0.09175 0.0
H84 H 0.56353 1.00246 0.09496 0.0
H85 H 0.50448 0.96034 0.11575 0.0
H86 H 0.5853 0.29502 0.12686 0.0
H87 H 0.69177 0.33744 0.1613 0.0
H88 H 0.72012 0.25887 0.12776 0.0
Cd89 Cd 0.22761 0.55012 0.14493 0.0
C90 C 0.27051 0.68232 0.13385 0.0
C91 C 0.93853 0.48817 0.15689 0.0
O92 O 0.93253 0.51657 0.16686 0.0
Cd93 Cd 0.25881 0.56776 0.12193 0.0
C94 C 0.91405 0.42663 0.15753 0.0
C95 C 0.87865 0.31262 0.15415 0.0
C96 C 0.90999 0.35223 0.14417 0.0
N97 N 0.92597 0.40592 0.14659 0.0
C98 C 0.88254 0.38935 0.16792 0.0
C99 C 0.86478 0.33173 0.16612 0.0
Co100 Co 0.97162 0.45671 0.13391 0.0
C101 C 0.932 0.34405 0.13117 0.0
O102 O 0.92578 0.2952 0.1276 0.0
C103 C 1.00508 0.39546 0.11386 0.0
C104 C 0.0599 0.41341 0.11793 0.0
C105 C 0.10375 0.43502 0.10857 0.0
C106 C 0.0909 0.42684 0.09475 0.0
C107 C 0.03465 0.3983 0.09032 0.0
C108 C 0.99141 0.38576 0.09988 0.0
C109 C 0.16096 0.4745 0.11343 0.0
C110 C 0.01263 0.57307 0.1454 0.0
C111 C 0.05171 0.59655 0.15609 0.0
C112 C 0.02091 0.60565 0.13377 0.0
C113 C 0.0719 0.65523 0.13178 0.0
C114 C 0.11405 0.67401 0.14165 0.0
C115 C 0.10384 0.6458 0.15413 0.0
N116 N 0.97028 0.51412 0.14558 0.0
N117 N 0.96592 0.39212 0.12406 0.0
N118 N 0.04115 0.47168 0.1431 0.0
C119 C 0.044 0.44624 0.15568 0.0
C120 C 0.05808 0.47659 0.16784 0.0
C121 C 0.02964 0.38963 0.15604 0.0
C122 C 0.05047 0.44962 0.18043 0.0
H123 H 0.07458 0.521 0.16751 0.0
C124 C 0.03388 0.39235 0.18062 0.0
C125 C 0.02582 0.36264 0.16845 0.0
C126 C 0.05982 0.48111 0.19334 0.0
H127 H 0.02168 0.36643 0.14668 0.0
H128 H 0.02846 0.37115 0.19026 0.0
C129 C 0.01424 0.30385 0.16875 0.0
O130 O 0.05158 0.45463 0.20541 0.0
O131 O 0.07496 0.53113 0.19316 0.0
O132 O 0.99954 0.27527 0.15842 0.0
O133 O 0.02122 0.28201 0.18039 0.0
H134 H 0.05763 0.47438 0.21394 0.0
H135 H 0.01666 0.2448 0.18071 0.0
N136 N 0.01746 0.50656 0.12112 0.0
C137 C 0.99193 0.5139 0.11043 0.0
C138 C 0.02555 0.55278 0.10052 0.0
C139 C 0.08453 0.58184 0.10246 0.0
C140 C 0.10866 0.57255 0.1142 0.0
C141 C 0.07261 0.53326 0.12371 0.0
N142 N 0.90888 0.45041 0.12312 0.0
C143 C 0.92985 0.4826 0.11164 0.0
O144 O 0.89746 0.49017 0.10311 0.0
C145 C 0.08642 0.51634 0.13686 0.0
O146 O 0.2177 0.46731 0.15663 0.0
O147 O 0.19987 0.5218 0.16888 0.0
C148 C 0.85352 0.43204 0.12859 0.0
C149 C 0.81692 0.37478 0.13219 0.0
C150 C 0.77872 0.36295 0.14306 0.0
C151 C 0.79123 0.41065 0.15094 0.0
C152 C 0.79749 0.45667 0.14326 0.0
C153 C 0.83708 0.47165 0.13258 0.0
O154 O 0.2642 0.65583 0.14499 0.0
O155 O 0.26408 0.657 0.12263 0.0
O156 O 0.16798 0.48597 0.12609 0.0
O157 O 0.19921 0.50557 0.10516 0.0
O158 O 0.1359 0.54929 0.14341 0.0
C159 C 0.3701 0.60141 0.13318 0.0
O160 O 0.34938 0.58193 0.12162 0.0
O161 O 0.33728 0.5979 0.14285 0.0
C162 C 0.20044 0.47595 0.16784 0.0
H163 H 0.8662 0.26889 0.15289 0.0
H164 H 0.8721 0.40397 0.17708 0.0
H165 H 0.84062 0.30199 0.17402 0.0
H166 H 0.06937 0.41602 0.12858 0.0
H167 H 0.1247 0.44172 0.08738 0.0
H168 H 0.94823 0.36779 0.0966 0.0
H169 H 0.04205 0.57562 0.16579 0.0
H170 H 0.98921 0.59149 0.12594 0.0
H171 H 0.1538 0.71149 0.13967 0.0
H172 H 1.00716 0.56116 0.09175 0.0
H173 H 0.11147 0.61218 0.09496 0.0
H174 H 0.15358 0.59524 0.11575 0.0
H175 H 0.81885 0.3414 0.12685 0.0
H176 H 0.77648 0.40544 0.1613 0.0
H177 H 0.85509 0.51241 0.12777 0.0
Cd178 Cd 0.56377 0.72859 0.14492 0.0
C179 C 0.43157 0.63926 0.13385 0.0
C180 C 0.62574 0.50147 0.15689 0.0
O181 O 0.59733 0.46705 0.16686 0.0
Cd182 Cd 0.54613 0.74212 0.12192 0.0
C183 C 0.68727 0.53853 0.15753 0.0
C184 C 0.80128 0.61715 0.15416 0.0
C185 C 0.76168 0.60889 0.14418 0.0
N186 N 0.70799 0.57117 0.1466 0.0
C187 C 0.72455 0.5443 0.16793 0.0
C188 C 0.78216 0.58417 0.16613 0.0
Co189 Co 0.65721 0.56603 0.13391 0.0
C190 C 0.76987 0.63908 0.13117 0.0
O191 O 0.81872 0.68171 0.12761 0.0
C192 C 0.71847 0.66075 0.11387 0.0
C193 C 0.70051 0.69761 0.11793 0.0
C194 C 0.67891 0.71984 0.10857 0.0
C195 C 0.6871 0.71518 0.09476 0.0
C196 C 0.71565 0.68748 0.09033 0.0
C197 C 0.72818 0.65677 0.09988 0.0
C198 C 0.63942 0.73756 0.11343 0.0
C199 C 0.54084 0.49066 0.14539 0.0
C200 C 0.51736 0.50626 0.15608 0.0
C201 C 0.50826 0.46637 0.13377 0.0
C202 C 0.45868 0.46777 0.13178 0.0
C203 C 0.4399 0.49114 0.14165 0.0
C204 C 0.46811 0.50913 0.15413 0.0
N205 N 0.59979 0.50726 0.14558 0.0
N206 N 0.72181 0.62493 0.12407 0.0
N207 N 0.64222 0.62058 0.1431 0.0
C208 C 0.66765 0.64886 0.15568 0.0
C209 C 0.63729 0.63259 0.16784 0.0
C210 C 0.72426 0.69111 0.15604 0.0
C211 C 0.66425 0.65194 0.18043 0.0
H212 H 0.59288 0.60468 0.16751 0.0
C213 C 0.72153 0.69261 0.18063 0.0
C214 C 0.75124 0.71427 0.16846 0.0
C215 C 0.63275 0.62979 0.19334 0.0
H216 H 0.74747 0.70636 0.14669 0.0
H217 H 0.74272 0.70838 0.19026 0.0
C218 C 0.81004 0.76147 0.16876 0.0
O219 O 0.65922 0.64802 0.20541 0.0
O220 O 0.58273 0.5949 0.19315 0.0
O221 O 0.83863 0.77537 0.15843 0.0
O222 O 0.83188 0.79027 0.18041 0.0
H223 H 0.63947 0.63431 0.21395 0.0
H224 H 0.8691 0.82293 0.18073 0.0
N225 N 0.60736 0.562 0.12112 0.0
C226 C 0.60004 0.52914 0.11042 0.0
C227 C 0.56117 0.52389 0.10052 0.0
C228 C 0.5321 0.5538 0.10245 0.0
C229 C 0.54138 0.58721 0.1142 0.0
C230 C 0.58066 0.59046 0.12371 0.0
N231 N 0.66352 0.50959 0.12312 0.0
C232 C 0.63135 0.49837 0.11164 0.0
O233 O 0.62379 0.45842 0.10311 0.0
C234 C 0.59757 0.62119 0.13686 0.0
O235 O 0.64658 0.80148 0.15663 0.0
O236 O 0.59208 0.72916 0.16888 0.0
C237 C 0.6819 0.4726 0.12858 0.0
C238 C 0.73917 0.49329 0.1322 0.0
C239 C 0.751 0.46692 0.14306 0.0
C240 C 0.70329 0.4317 0.15094 0.0
C241 C 0.65732 0.39197 0.14325 0.0
C242 C 0.64231 0.41654 0.13257 0.0
O243 O 0.45806 0.65946 0.14499 0.0
O244 O 0.4569 0.65814 0.12263 0.0
O245 O 0.62794 0.73312 0.12609 0.0
O246 O 0.60833 0.74472 0.10516 0.0
O247 O 0.56461 0.63771 0.14341 0.0
C248 C 0.51248 0.81976 0.13317 0.0
O249 O 0.53194 0.8185 0.12161 0.0
O250 O 0.516 0.79048 0.14285 0.0
C251 C 0.63793 0.77557 0.16784 0.0
H252 H 0.84502 0.64845 0.1529 0.0
H253 H 0.70991 0.51923 0.17708 0.0
H254 H 0.8119 0.58975 0.17403 0.0
H255 H 0.69789 0.70446 0.12859 0.0
H256 H 0.67222 0.7341 0.08739 0.0
H257 H 0.74616 0.63157 0.09661 0.0
H258 H 0.53828 0.51753 0.16579 0.0
H259 H 0.52243 0.44883 0.12594 0.0
H260 H 0.40242 0.49341 0.13967 0.0
H261 H 0.55279 0.49711 0.09174 0.0
H262 H 0.50176 0.55039 0.09496 0.0
H263 H 0.51868 0.60943 0.11575 0.0
H264 H 0.77255 0.52862 0.12686 0.0
H265 H 0.70849 0.42214 0.1613 0.0
H266 H 0.60156 0.39378 0.12775 0.0
Cd267 Cd 0.89018 0.38142 0.35475 0.0
C268 C 0.84729 0.47074 0.36582 0.0
C269 C 0.17927 0.60854 0.34277 0.0
O270 O 0.18528 0.64295 0.3328 0.0
Cd271 Cd 0.85899 0.36788 0.37775 0.0
C272 C 0.20374 0.57147 0.34214 0.0
C273 C 0.23913 0.49286 0.34551 0.0
C274 C 0.20779 0.50113 0.35549 0.0
N275 N 0.19182 0.53884 0.35307 0.0
C276 C 0.23525 0.5657 0.33174 0.0
C277 C 0.253 0.52583 0.33354 0.0
Co278 Co 0.14618 0.54399 0.36575 0.0
C279 C 0.18579 0.47094 0.3685 0.0
O280 O 0.19201 0.42832 0.37206 0.0
C281 C 0.11272 0.44928 0.3858 0.0
C282 C 0.0579 0.41242 0.38174 0.0
C283 C 0.01405 0.39019 0.3911 0.0
C284 C 0.02691 0.39486 0.40492 0.0
C285 C 0.08316 0.42256 0.40935 0.0
C286 C 0.1264 0.45326 0.39978 0.0
C287 C 0.95684 0.37246 0.38625 0.0
C288 C 0.10518 0.61935 0.35427 0.0
C289 C 0.0661 0.60375 0.34358 0.0
C290 C 0.0969 0.64365 0.3659 0.0
C291 C 0.04592 0.64225 0.36789 0.0
C292 C 1.00376 0.61888 0.35802 0.0
C293 C 0.01397 0.60088 0.34554 0.0
N294 N 0.14752 0.60275 0.35409 0.0
N295 N 0.15187 0.4851 0.3756 0.0
N296 N 0.07664 0.48943 0.35657 0.0
C297 C 0.07379 0.46114 0.34399 0.0
C298 C 0.05971 0.47741 0.33183 0.0
C299 C 0.08814 0.41889 0.34363 0.0
C300 C 0.06732 0.45805 0.31924 0.0
H301 H 0.04322 0.50532 0.33215 0.0
C302 C 0.08391 0.41736 0.31904 0.0
C303 C 0.09196 0.39571 0.33121 0.0
C304 C 0.05797 0.48018 0.30632 0.0
H305 H 0.0961 0.40365 0.35298 0.0
H306 H 0.08933 0.40159 0.30941 0.0
C307 C 0.10355 0.34851 0.33092 0.0
O308 O 0.06621 0.46194 0.29425 0.0
O309 O 0.04284 0.51508 0.30651 0.0
O310 O 0.11823 0.33462 0.34125 0.0
O311 O 0.09658 0.3197 0.31927 0.0
H312 H 0.06016 0.47564 0.28572 0.0
H313 H 0.10114 0.28704 0.31895 0.0
N314 N 0.10035 0.54802 0.37855 0.0
C315 C 0.12588 0.58088 0.38924 0.0
C316 C 0.09227 0.58614 0.39915 0.0
C317 C 0.03328 0.55622 0.39721 0.0
C318 C 1.00915 0.52281 0.38547 0.0
C319 C 0.04519 0.51956 0.37596 0.0
N320 N 0.20893 0.60043 0.37654 0.0
C321 C 0.18796 0.61165 0.38802 0.0
O322 O 0.22036 0.65161 0.39656 0.0
C323 C 0.03137 0.48883 0.3628 0.0
O324 O 0.90009 0.30852 0.34304 0.0
O325 O 0.91792 0.38083 0.33079 0.0
C326 C 0.26429 0.63742 0.37108 0.0
C327 C 0.30088 0.61675 0.36747 0.0
C328 C 0.33909 0.6431 0.3566 0.0
C329 C 0.32658 0.67832 0.34873 0.0
C330 C 0.32033 0.71807 0.35641 0.0
C331 C 0.28075 0.69348 0.36709 0.0
O332 O 0.85359 0.45054 0.35469 0.0
O333 O 0.85373 0.45185 0.37704 0.0
O334 O 0.94981 0.3769 0.37359 0.0
O335 O 0.9186 0.36529 0.39451 0.0
O336 O 0.9819 0.4723 0.35625 0.0
C337 C 0.7477 0.29024 0.3665 0.0
O338 O 0.76842 0.29149 0.37805 0.0
O339 O 0.78051 0.31953 0.35682 0.0
C340 C 0.91735 0.33442 0.33183 0.0
H341 H 0.25157 0.46157 0.34677 0.0
H342 H 0.24569 0.59077 0.32258 0.0
H343 H 0.27716 0.52025 0.32564 0.0
H344 H 0.04842 0.40556 0.37109 0.0
H345 H 0.99312 0.37594 0.41229 0.0
H346 H 0.16958 0.47846 0.40306 0.0
H347 H 0.07575 0.59247 0.33387 0.0
H348 H 0.1286 0.66119 0.37372 0.0
H349 H 0.96401 0.61661 0.36 0.0
H350 H 0.11067 0.61292 0.40792 0.0
H351 H 1.00635 0.55964 0.40471 0.0
H352 H 0.96424 0.50059 0.38392 0.0
H353 H 0.29893 0.58143 0.37281 0.0
H354 H 0.34133 0.68786 0.33837 0.0
H355 H 0.26274 0.71622 0.3719 0.0
Cd356 Cd 0.73249 0.55987 0.35474 0.0
C357 C 0.64315 0.42767 0.36582 0.0
C358 C 0.50537 0.62185 0.34277 0.0
O359 O 0.47095 0.59344 0.3328 0.0
Cd360 Cd 0.74601 0.54223 0.37774 0.0
C361 C 0.54244 0.68338 0.34213 0.0
C362 C 0.62107 0.79739 0.3455 0.0
C363 C 0.6128 0.75779 0.35548 0.0
N364 N 0.57508 0.7041 0.35306 0.0
C365 C 0.54821 0.72065 0.33174 0.0
C366 C 0.58809 0.77827 0.33353 0.0
Co367 Co 0.56994 0.65333 0.36575 0.0
C368 C 0.643 0.76599 0.36849 0.0
O369 O 0.68563 0.81483 0.37205 0.0
C370 C 0.66466 0.71459 0.3858 0.0
C371 C 0.70151 0.69663 0.38173 0.0
C372 C 0.72374 0.67502 0.3911 0.0
C373 C 0.71908 0.68321 0.40491 0.0
C374 C 0.69138 0.71177 0.40934 0.0
C375 C 0.66068 0.7243 0.39978 0.0
C376 C 0.74146 0.63552 0.38624 0.0
C377 C 0.49457 0.53696 0.35427 0.0
C378 C 0.51016 0.51347 0.34358 0.0
C379 C 0.47027 0.50438 0.3659 0.0
C380 C 0.47167 0.4548 0.36789 0.0
C381 C 0.49504 0.43601 0.35802 0.0
C382 C 0.51303 0.46422 0.34554 0.0
N383 N 0.51116 0.5959 0.35409 0.0
N384 N 0.62884 0.71792 0.3756 0.0
N385 N 0.62448 0.63833 0.35657 0.0
C386 C 0.65277 0.66376 0.34399 0.0
C387 C 0.63649 0.63339 0.33183 0.0
C388 C 0.69502 0.72037 0.34362 0.0
C389 C 0.65584 0.66035 0.31924 0.0
H390 H 0.60858 0.58898 0.33215 0.0
C391 C 0.69651 0.71762 0.31903 0.0
C392 C 0.71818 0.74734 0.33121 0.0
C393 C 0.63369 0.62885 0.30632 0.0
H394 H 0.71027 0.74357 0.35297 0.0
H395 H 0.71228 0.73881 0.3094 0.0
C396 C 0.76538 0.80614 0.3309 0.0
O397 O 0.65192 0.65531 0.29425 0.0
O398 O 0.5988 0.57882 0.30651 0.0
O399 O 0.77928 0.83473 0.34123 0.0
O400 O 0.79416 0.82798 0.31925 0.0
H401 H 0.63821 0.63555 0.28572 0.0
H402 H 0.82681 0.8652 0.31893 0.0
N403 N 0.56591 0.60348 0.37855 0.0
C404 C 0.53305 0.59616 0.38924 0.0
C405 C 0.5278 0.5573 0.39915 0.0
C406 C 0.55771 0.52823 0.39722 0.0
C407 C 0.59111 0.5375 0.38547 0.0
C408 C 0.59436 0.57678 0.37596 0.0
N409 N 0.5135 0.65965 0.37654 0.0
C410 C 0.50229 0.62748 0.38802 0.0
O411 O 0.46234 0.61993 0.39656 0.0
C412 C 0.62509 0.59368 0.3628 0.0
O413 O 0.80538 0.64268 0.34304 0.0
O414 O 0.73306 0.58818 0.33079 0.0
C415 C 0.47652 0.67803 0.37108 0.0
C416 C 0.49721 0.73529 0.36746 0.0
C417 C 0.47085 0.74714 0.35659 0.0
C418 C 0.43561 0.69941 0.34873 0.0
C419 C 0.39587 0.65345 0.35642 0.0
C420 C 0.42045 0.63844 0.3671 0.0
O421 O 0.66336 0.45417 0.35468 0.0
O422 O 0.66203 0.453 0.37704 0.0
O423 O 0.73702 0.62405 0.37358 0.0
O424 O 0.74861 0.60444 0.39451 0.0
O425 O 0.64161 0.56071 0.35626 0.0
C426 C 0.82366 0.50858 0.3665 0.0
O427 O 0.82239 0.52804 0.37806 0.0
O428 O 0.79438 0.5121 0.35682 0.0
C429 C 0.77947 0.63403 0.33182 0.0
H430 H 0.65237 0.84112 0.34676 0.0
H431 H 0.52313 0.70602 0.32258 0.0
H432 H 0.59367 0.80801 0.32563 0.0
H433 H 0.70837 0.694 0.37108 0.0
H434 H 0.73799 0.66834 0.41228 0.0
H435 H 0.63548 0.74228 0.40306 0.0
H436 H 0.52143 0.53439 0.33388 0.0
H437 H 0.45274 0.51855 0.37373 0.0
H438 H 0.49731 0.39854 0.36 0.0
H439 H 0.50102 0.54893 0.40793 0.0
H440 H 0.55429 0.49789 0.40471 0.0
H441 H 0.61333 0.5148 0.38392 0.0
H442 H 0.53255 0.76867 0.3728 0.0
H443 H 0.42604 0.70458 0.33837 0.0
H444 H 0.39768 0.59771 0.37192 0.0
Cd445 Cd 0.55402 0.22372 0.35474 0.0
C446 C 0.68622 0.26661 0.36582 0.0
C447 C 0.49207 0.93464 0.34278 0.0
O448 O 0.52047 0.92863 0.3328 0.0
Cd449 Cd 0.57165 0.25491 0.37774 0.0
C450 C 0.43053 0.91016 0.34214 0.0
C451 C 0.31652 0.87477 0.34551 0.0
C452 C 0.35612 0.90611 0.35549 0.0
N453 N 0.40981 0.92208 0.35307 0.0
C454 C 0.39325 0.87865 0.33174 0.0
C455 C 0.33563 0.8609 0.33354 0.0
Co456 Co 0.46059 0.96773 0.36575 0.0
C457 C 0.34793 0.92811 0.3685 0.0
O458 O 0.29909 0.92189 0.37206 0.0
C459 C 0.39933 1.00118 0.3858 0.0
C460 C 0.41729 0.056 0.38173 0.0
C461 C 0.4389 0.09985 0.3911 0.0
C462 C 0.43072 0.087 0.40491 0.0
C463 C 0.40218 0.03075 0.40934 0.0
C464 C 0.38964 0.98751 0.39979 0.0
C465 C 0.47839 0.15706 0.38624 0.0
C466 C 0.57696 0.00873 0.35427 0.0
C467 C 0.60044 0.04781 0.34358 0.0
C468 C 0.60954 0.01702 0.3659 0.0
C469 C 0.65912 0.068 0.36789 0.0
C470 C 0.6779 0.11016 0.35802 0.0
C471 C 0.64969 0.09994 0.34554 0.0
N472 N 0.51802 0.96638 0.35409 0.0
N473 N 0.396 0.96203 0.3756 0.0
N474 N 0.47557 0.03726 0.35657 0.0
C475 C 0.45014 0.04011 0.34399 0.0
C476 C 0.48049 0.05419 0.33183 0.0
C477 C 0.39353 0.02575 0.34363 0.0
C478 C 0.45353 0.04658 0.31924 0.0
H479 H 0.5249 0.07069 0.33215 0.0
C480 C 0.39626 0.02999 0.31904 0.0
C481 C 0.36654 0.02193 0.33121 0.0
C482 C 0.48502 0.05593 0.30632 0.0
H483 H 0.37033 0.01779 0.35298 0.0
H484 H 0.37506 0.02456 0.30941 0.0
C485 C 0.30775 0.01034 0.33092 0.0
O486 O 0.45855 0.04769 0.29425 0.0
O487 O 0.53504 0.07106 0.30651 0.0
O488 O 0.27916 0.99565 0.34124 0.0
O489 O 0.28591 0.01731 0.31927 0.0
H490 H 0.47829 0.05374 0.28572 0.0
H491 H 0.2487 0.01275 0.31895 0.0
N492 N 0.51045 0.01356 0.37855 0.0
C493 C 0.51778 0.98803 0.38924 0.0
C494 C 0.55664 0.02165 0.39915 0.0
C495 C 0.58571 0.08063 0.39721 0.0
C496 C 0.57643 0.10476 0.38547 0.0
C497 C 0.53714 0.06872 0.37596 0.0
N498 N 0.45429 0.90498 0.37655 0.0
C499 C 0.48647 0.92595 0.38803 0.0
O500 O 0.49403 0.89356 0.39656 0.0
C501 C 0.52023 0.08253 0.36281 0.0
O502 O 0.47121 0.21381 0.34304 0.0
O503 O 0.5257 0.19598 0.33079 0.0
C504 C 0.43592 0.84962 0.37108 0.0
C505 C 0.37865 0.81303 0.36747 0.0
C506 C 0.36682 0.77483 0.3566 0.0
C507 C 0.41452 0.78732 0.34873 0.0
C508 C 0.46051 0.79358 0.35642 0.0
C509 C 0.47552 0.83316 0.36709 0.0
O510 O 0.65973 0.26031 0.35468 0.0
O511 O 0.66089 0.26018 0.37704 0.0
O512 O 0.48986 0.16409 0.37358 0.0
O513 O 0.50946 0.19531 0.39451 0.0
O514 O 0.55319 0.13201 0.35625 0.0
C515 C 0.6053 0.3662 0.36649 0.0
O516 O 0.58583 0.34548 0.37805 0.0
O517 O 0.6018 0.33339 0.35681 0.0
C518 C 0.47985 0.19654 0.33182 0.0
H519 H 0.27279 0.86232 0.34677 0.0
H520 H 0.40788 0.86821 0.32259 0.0
H521 H 0.3059 0.83674 0.32564 0.0
H522 H 0.41991 0.06548 0.37108 0.0
H523 H 0.4456 0.1208 0.41228 0.0
H524 H 0.37166 0.94433 0.40306 0.0
H525 H 0.57952 0.03816 0.33388 0.0
H526 H 0.59538 0.98531 0.37373 0.0
H527 H 0.71538 0.14991 0.36 0.0
H528 H 0.56503 1.00326 0.40792 0.0
H529 H 0.61605 0.10757 0.40471 0.0
H530 H 0.59912 0.14968 0.38392 0.0
H531 H 0.34527 0.81497 0.37281 0.0
H532 H 0.40932 0.77256 0.33837 0.0
H533 H 0.51627 0.85116 0.37191 0.0
Cd534 Cd 0.73255 0.22377 0.85474 0.0
C535 C 0.64323 0.26666 0.86582 0.0
C536 C 0.50543 0.93468 0.84277 0.0
O537 O 0.47101 0.92867 0.8328 0.0
Cd538 Cd 0.74609 0.25496 0.87774 0.0
C539 C 0.54249 0.91021 0.84213 0.0
C540 C 0.62111 0.87483 0.8455 0.0
C541 C 0.61285 0.90617 0.85549 0.0
N542 N 0.57513 0.92214 0.85306 0.0
C543 C 0.54826 0.8787 0.83174 0.0
C544 C 0.58813 0.86096 0.83353 0.0
Co545 Co 0.56999 0.96777 0.86575 0.0
C546 C 0.64304 0.92817 0.86849 0.0
O547 O 0.68567 0.92195 0.87205 0.0
C548 C 0.6647 1.00123 0.8858 0.0
C549 C 0.70156 0.05606 0.88173 0.0
C550 C 0.72379 0.0999 0.8911 0.0
C551 C 0.71912 0.08704 0.90491 0.0
C552 C 0.69142 0.03079 0.90934 0.0
C553 C 0.66072 0.98755 0.89978 0.0
C554 C 0.74151 0.15711 0.88624 0.0
C555 C 0.49462 0.00877 0.85427 0.0
C556 C 0.51022 0.04785 0.84358 0.0
C557 C 0.47032 0.01705 0.8659 0.0
C558 C 0.47172 0.06803 0.86789 0.0
C559 C 0.49509 0.11019 0.85802 0.0
C560 C 0.51309 0.09998 0.84554 0.0
N561 N 0.51122 0.96643 0.85409 0.0
N562 N 0.62888 0.96208 0.8756 0.0
N563 N 0.62454 0.03731 0.85657 0.0
C564 C 0.65283 0.04017 0.84399 0.0
C565 C 0.63655 0.05424 0.83182 0.0
C566 C 0.69508 0.02581 0.84362 0.0
C567 C 0.65591 0.04663 0.81924 0.0
H568 H 0.60864 0.07074 0.83215 0.0
C569 C 0.69659 0.03004 0.81904 0.0
C570 C 0.71825 0.022 0.83121 0.0
C571 C 0.63377 0.05598 0.80632 0.0
H572 H 0.71033 0.01786 0.85298 0.0
H573 H 0.71237 0.02462 0.8094 0.0
C574 C 0.76545 0.0104 0.83091 0.0
O575 O 0.65201 0.04774 0.79425 0.0
O576 O 0.59888 0.07111 0.80651 0.0
O577 O 0.77935 0.99572 0.84124 0.0
O578 O 0.79425 0.01736 0.81926 0.0
H579 H 0.6383 0.05378 0.78572 0.0
H580 H 0.82691 0.0128 0.81894 0.0
N581 N 0.56596 0.0136 0.87855 0.0
C582 C 0.5331 0.98807 0.88924 0.0
C583 C 0.52784 0.02168 0.89915 0.0
C584 C 0.55776 0.08066 0.89721 0.0
C585 C 0.59117 0.1048 0.88547 0.0
C586 C 0.59442 0.06876 0.87596 0.0
N587 N 0.51355 0.90502 0.87654 0.0
C588 C 0.50233 0.92599 0.88802 0.0
O589 O 0.46238 0.89359 0.89656 0.0
C590 C 0.62514 0.08258 0.8628 0.0
O591 O 0.80545 0.21387 0.84304 0.0
O592 O 0.73313 0.19604 0.83079 0.0
C593 C 0.47656 0.84966 0.87108 0.0
C594 C 0.49724 0.81308 0.86747 0.0
C595 C 0.47089 0.77487 0.8566 0.0
C596 C 0.43566 0.78736 0.84873 0.0
C597 C 0.3959 0.7936 0.85641 0.0
C598 C 0.4205 0.83319 0.86709 0.0
O599 O 0.66343 0.26036 0.85468 0.0
O600 O 0.66212 0.26022 0.87704 0.0
O601 O 0.73708 0.16414 0.87358 0.0
O602 O 0.74869 0.19535 0.89451 0.0
O603 O 0.64167 0.13205 0.85625 0.0
C604 C 0.82373 0.36626 0.86649 0.0
O605 O 0.82248 0.34554 0.87805 0.0
O606 O 0.79444 0.33344 0.85681 0.0
C607 C 0.77954 0.1966 0.83182 0.0
H608 H 0.65241 0.86239 0.84676 0.0
H609 H 0.52319 0.86826 0.82258 0.0
H610 H 0.59372 0.8368 0.82564 0.0
H611 H 0.70842 0.06554 0.87108 0.0
H612 H 0.73804 0.12083 0.91228 0.0
H613 H 0.63552 0.94437 0.90306 0.0
H614 H 0.52149 0.0382 0.83387 0.0
H615 H 0.45278 0.98535 0.87372 0.0
H616 H 0.49735 0.14993 0.86 0.0
H617 H 0.50106 1.00328 0.90792 0.0
H618 H 0.55434 0.10759 0.90471 0.0
H619 H 0.61339 0.14971 0.88392 0.0
H620 H 0.53257 0.81504 0.87281 0.0
H621 H 0.42611 0.77261 0.83837 0.0
H622 H 0.39775 0.85118 0.87191 0.0
Cd623 Cd 0.89025 0.55993 0.85474 0.0
C624 C 0.84736 0.42773 0.86582 0.0
C625 C 0.17933 0.62188 0.84278 0.0
O626 O 0.18534 0.59347 0.83281 0.0
Cd627 Cd 0.85907 0.5423 0.87774 0.0
C628 C 0.20381 0.68341 0.84214 0.0
C629 C 0.23922 0.79742 0.84551 0.0
C630 C 0.20788 0.75782 0.8555 0.0
N631 N 0.19189 0.70413 0.85307 0.0
C632 C 0.23533 0.72069 0.83175 0.0
C633 C 0.25309 0.77831 0.83355 0.0
Co634 Co 0.14625 0.65335 0.86575 0.0
C635 C 0.18587 0.76601 0.8685 0.0
O636 O 0.1921 0.81485 0.87206 0.0
C637 C 0.11279 0.7146 0.88581 0.0
C638 C 0.05797 0.69665 0.88174 0.0
C639 C 0.01413 0.67504 0.8911 0.0
C640 C 0.02697 0.68322 0.90491 0.0
C641 C 0.08322 0.71176 0.90935 0.0
C642 C 0.12646 0.7243 0.89979 0.0
C643 C 0.95692 0.63556 0.88624 0.0
C644 C 0.10524 0.53698 0.85427 0.0
C645 C 0.06616 0.5135 0.84358 0.0
C646 C 0.09695 0.5044 0.8659 0.0
C647 C 0.04596 0.45482 0.86789 0.0
C648 C 1.00381 0.43604 0.85802 0.0
C649 C 0.01403 0.46425 0.84554 0.0
N650 N 0.14759 0.59592 0.85409 0.0
N651 N 0.15195 0.71794 0.87561 0.0
N652 N 0.07672 0.63837 0.85657 0.0
C653 C 0.07387 0.66381 0.84399 0.0
C654 C 0.05978 0.63345 0.83183 0.0
C655 C 0.08823 0.72042 0.84363 0.0
C656 C 0.06739 0.66041 0.81924 0.0
H657 H 0.04328 0.58904 0.83216 0.0
C658 C 0.08398 0.71768 0.81904 0.0
C659 C 0.09205 0.7474 0.83122 0.0
C660 C 0.05802 0.62892 0.80633 0.0
H661 H 0.0962 0.74362 0.85298 0.0
H662 H 0.0894 0.73888 0.80941 0.0
C663 C 0.10364 0.80619 0.83092 0.0
O664 O 0.06626 0.65539 0.79426 0.0
O665 O 0.04289 0.57889 0.80651 0.0
O666 O 0.11834 0.83478 0.84124 0.0
O667 O 0.09666 0.82803 0.81927 0.0
H668 H 0.06021 0.63564 0.78572 0.0
H669 H 0.10122 0.86524 0.81895 0.0
N670 N 0.10041 0.60349 0.87855 0.0
C671 C 0.12594 0.59615 0.88924 0.0
C672 C 0.09231 0.55729 0.89915 0.0
C673 C 0.03333 0.52822 0.89721 0.0
C674 C 1.00921 0.53751 0.88547 0.0
C675 C 0.04526 0.5768 0.87596 0.0
N676 N 0.20899 0.65964 0.87655 0.0
C677 C 0.18802 0.62746 0.88803 0.0
O678 O 0.2204 0.61989 0.89656 0.0
C679 C 0.03144 0.59371 0.86281 0.0
O680 O 0.90017 0.64275 0.84304 0.0
O681 O 0.918 0.58826 0.83079 0.0
C682 C 0.26435 0.67801 0.87108 0.0
C683 C 0.30095 0.73527 0.86748 0.0
C684 C 0.33915 0.7471 0.85661 0.0
C685 C 0.32664 0.6994 0.84873 0.0
C686 C 0.32038 0.65339 0.85641 0.0
C687 C 0.28079 0.6384 0.86709 0.0
O688 O 0.85367 0.45422 0.85468 0.0
O689 O 0.85379 0.45306 0.87703 0.0
O690 O 0.94989 0.62409 0.87358 0.0
O691 O 0.91866 0.60449 0.89451 0.0
O692 O 0.98197 0.56076 0.85625 0.0
C693 C 0.74777 0.50865 0.86649 0.0
O694 O 0.7685 0.52813 0.87805 0.0
O695 O 0.78059 0.51216 0.85681 0.0
C696 C 0.91743 0.63411 0.83182 0.0
H697 H 0.25167 0.84116 0.84678 0.0
H698 H 0.24577 0.70606 0.82259 0.0
H699 H 0.27725 0.80805 0.82565 0.0
H700 H 0.04851 0.69404 0.87109 0.0
H701 H 0.99317 0.66834 0.91228 0.0
H702 H 0.16964 0.74227 0.90307 0.0
H703 H 0.07581 0.53443 0.83388 0.0
H704 H 0.12865 0.51856 0.87373 0.0
H705 H 0.96406 0.39856 0.86 0.0
H706 H 0.11071 0.5489 0.90793 0.0
H707 H 1.0064 0.49788 0.90471 0.0
H708 H 0.96429 0.51482 0.88392 0.0
H709 H 0.29901 0.76865 0.87282 0.0
H710 H 0.34139 0.70461 0.83837 0.0
H711 H 0.26278 0.59765 0.8719 0.0
Cd712 Cd 0.5541 0.38147 0.85474 0.0
C713 C 0.6863 0.4708 0.86582 0.0
C714 C 0.49213 0.60859 0.84278 0.0
O715 O 0.52054 0.64301 0.83281 0.0
Cd716 Cd 0.57174 0.36794 0.87774 0.0
C717 C 0.4306 0.57152 0.84214 0.0
C718 C 0.31659 0.4929 0.84551 0.0
C719 C 0.35619 0.50117 0.85549 0.0
N720 N 0.40988 0.53888 0.85307 0.0
C721 C 0.39332 0.56575 0.83175 0.0
C722 C 0.3357 0.52588 0.83354 0.0
Co723 Co 0.46066 0.54403 0.86576 0.0
C724 C 0.348 0.47097 0.8685 0.0
O725 O 0.29915 0.42835 0.87206 0.0
C726 C 0.3994 0.44931 0.8858 0.0
C727 C 0.41736 0.41245 0.88174 0.0
C728 C 0.43896 0.39021 0.8911 0.0
C729 C 0.43078 0.39488 0.90491 0.0
C730 C 0.40222 0.42258 0.90935 0.0
C731 C 0.38969 0.45328 0.89979 0.0
C732 C 0.47846 0.3725 0.88624 0.0
C733 C 0.57703 0.61939 0.85427 0.0
C734 C 0.60051 0.6038 0.84359 0.0
C735 C 0.6096 0.64369 0.8659 0.0
C736 C 0.65919 0.64229 0.86789 0.0
C737 C 0.67797 0.61892 0.85802 0.0
C738 C 0.64976 0.60093 0.84554 0.0
N739 N 0.51808 0.6028 0.85409 0.0
N740 N 0.39606 0.48513 0.8756 0.0
N741 N 0.47564 0.48948 0.85657 0.0
C742 C 0.45021 0.46119 0.84399 0.0
C743 C 0.48058 0.47747 0.83183 0.0
C744 C 0.39361 0.41894 0.84363 0.0
C745 C 0.45361 0.45812 0.81924 0.0
H746 H 0.52499 0.50538 0.83216 0.0
C747 C 0.39634 0.41745 0.81904 0.0
C748 C 0.36663 0.39578 0.83121 0.0
C749 C 0.48512 0.48027 0.80633 0.0
H750 H 0.3704 0.4037 0.85298 0.0
H751 H 0.37515 0.40168 0.80941 0.0
C752 C 0.30783 0.34859 0.83091 0.0
O753 O 0.45865 0.46204 0.79426 0.0
O754 O 0.53514 0.51516 0.80652 0.0
O755 O 0.27924 0.33469 0.84124 0.0
O756 O 0.28599 0.31979 0.81926 0.0
H757 H 0.4784 0.47575 0.78573 0.0
H758 H 0.24877 0.28714 0.81894 0.0
N759 N 0.51051 0.54805 0.87855 0.0
C760 C 0.51783 0.58092 0.88925 0.0
C761 C 0.5567 0.58617 0.89915 0.0
C762 C 0.58577 0.55626 0.89722 0.0
C763 C 0.57649 0.52285 0.88547 0.0
C764 C 0.53721 0.5196 0.87596 0.0
N765 N 0.45434 0.60047 0.87655 0.0
C766 C 0.48652 0.61168 0.88803 0.0
O767 O 0.49408 0.65163 0.89656 0.0
C768 C 0.5203 0.48887 0.86281 0.0
O769 O 0.47129 0.30858 0.84304 0.0
O770 O 0.52579 0.3809 0.83079 0.0
C771 C 0.43596 0.63745 0.87109 0.0
C772 C 0.3787 0.61677 0.86747 0.0
C773 C 0.36687 0.64313 0.8566 0.0
C774 C 0.41458 0.67835 0.84873 0.0
C775 C 0.46055 0.71809 0.85642 0.0
C776 C 0.47556 0.69352 0.8671 0.0
O777 O 0.65981 0.4506 0.85468 0.0
O778 O 0.66097 0.45192 0.87704 0.0
O779 O 0.48993 0.37693 0.87358 0.0
O780 O 0.50954 0.36534 0.89451 0.0
O781 O 0.55326 0.47235 0.85626 0.0
C782 C 0.60539 0.29029 0.8665 0.0
O783 O 0.58593 0.29155 0.87806 0.0
O784 O 0.60187 0.31958 0.85682 0.0
C785 C 0.47994 0.33449 0.83182 0.0
H786 H 0.27285 0.46161 0.84677 0.0
H787 H 0.40795 0.59082 0.82259 0.0
H788 H 0.30596 0.5203 0.82564 0.0
H789 H 0.41998 0.40559 0.87108 0.0
H790 H 0.44565 0.37596 0.91228 0.0
H791 H 0.37171 0.47848 0.90307 0.0
H792 H 0.57958 0.59253 0.83388 0.0
H793 H 0.59544 0.66123 0.87373 0.0
H794 H 0.71545 0.61665 0.86 0.0
H795 H 0.56508 0.61295 0.90793 0.0
H796 H 0.61611 0.55967 0.90471 0.0
H797 H 0.59919 0.50063 0.88392 0.0
H798 H 0.34532 0.58144 0.87281 0.0
H799 H 0.40938 0.68791 0.83837 0.0
H800 H 0.51631 0.71628 0.87192 0.0
Cd801 Cd 0.22767 0.72865 0.64493 0.0
C802 C 0.27056 0.63934 0.63385 0.0
C803 C 0.93858 0.50153 0.6569 0.0
O804 O 0.93257 0.46712 0.66687 0.0
Cd805 Cd 0.25885 0.7422 0.62193 0.0
C806 C 0.91411 0.53859 0.65754 0.0
C807 C 0.87872 0.61721 0.65417 0.0
C808 C 0.91006 0.60894 0.64418 0.0
N809 N 0.92603 0.57123 0.6466 0.0
C810 C 0.8826 0.54437 0.66793 0.0
C811 C 0.86485 0.58423 0.66613 0.0
Co812 Co 0.97167 0.56608 0.63392 0.0
C813 C 0.93206 0.63913 0.63118 0.0
O814 O 0.92584 0.68176 0.62762 0.0
C815 C 1.00513 0.6608 0.61387 0.0
C816 C 0.05995 0.69766 0.61794 0.0
C817 C 0.10379 0.71989 0.60857 0.0
C818 C 0.09093 0.71522 0.59476 0.0
C819 C 0.03468 0.68752 0.59033 0.0
C820 C 0.99144 0.65682 0.59989 0.0
C821 C 0.161 0.73761 0.61343 0.0
C822 C 0.01267 0.49072 0.6454 0.0
C823 C 0.05175 0.50632 0.65609 0.0
C824 C 0.02095 0.46642 0.63377 0.0
C825 C 0.07193 0.46782 0.63178 0.0
C826 C 0.11409 0.49119 0.64165 0.0
C827 C 0.10388 0.50919 0.65413 0.0
N828 N 0.97032 0.50732 0.64558 0.0
N829 N 0.96598 0.62498 0.62407 0.0
N830 N 0.0412 0.62064 0.6431 0.0
C831 C 0.04406 0.64893 0.65568 0.0
C832 C 0.05814 0.63266 0.66785 0.0
C833 C 0.02971 0.69118 0.65605 0.0
C834 C 0.05053 0.65202 0.68043 0.0
H835 H 0.07463 0.60474 0.66752 0.0
C836 C 0.03394 0.6927 0.68063 0.0
C837 C 0.02589 0.71435 0.66846 0.0
C838 C 0.05988 0.62988 0.69335 0.0
H839 H 0.02175 0.70642 0.64669 0.0
H840 H 0.02852 0.70848 0.69027 0.0
C841 C 0.0143 0.76156 0.66876 0.0
O842 O 0.05165 0.64812 0.70542 0.0
O843 O 0.07501 0.59499 0.69316 0.0
O844 O 0.99961 0.77545 0.65843 0.0
O845 O 0.02126 0.79036 0.68041 0.0
H846 H 0.05769 0.63442 0.71395 0.0
H847 H 0.01671 0.82302 0.68072 0.0
N848 N 0.0175 0.56206 0.62112 0.0
C849 C 0.99196 0.52919 0.61043 0.0
C850 C 0.02558 0.52394 0.60052 0.0
C851 C 0.08456 0.55385 0.60246 0.0
C852 C 0.1087 0.58727 0.61421 0.0
C853 C 0.07265 0.59052 0.62371 0.0
N854 N 0.90892 0.50964 0.62313 0.0
C855 C 0.92989 0.49843 0.61165 0.0
O856 O 0.89749 0.45847 0.60311 0.0
C857 C 0.08648 0.62125 0.63687 0.0
O858 O 0.21776 0.80156 0.65663 0.0
O859 O 0.19993 0.72924 0.66888 0.0
C860 C 0.85356 0.47265 0.62859 0.0
C861 C 0.81697 0.49332 0.6322 0.0
C862 C 0.77876 0.46697 0.64307 0.0
C863 C 0.79127 0.43176 0.65094 0.0
C864 C 0.79751 0.392 0.64326 0.0
C865 C 0.8371 0.4166 0.63259 0.0
O866 O 0.26426 0.65953 0.64499 0.0
O867 O 0.26412 0.65823 0.62263 0.0
O868 O 0.16804 0.73318 0.62609 0.0
O869 O 0.19925 0.74479 0.60516 0.0
O870 O 0.13595 0.63777 0.64342 0.0
C871 C 0.37015 0.81984 0.63318 0.0
O872 O 0.34943 0.81859 0.62162 0.0
O873 O 0.33733 0.79054 0.64286 0.0
C874 C 0.2005 0.77565 0.66784 0.0
H875 H 0.86628 0.6485 0.65291 0.0
H876 H 0.87216 0.51929 0.67709 0.0
H877 H 0.84069 0.58981 0.67403 0.0
H878 H 0.06943 0.70451 0.62859 0.0
H879 H 0.12473 0.73414 0.58739 0.0
H880 H 0.94826 0.63162 0.59661 0.0
H881 H 0.0421 0.5176 0.6658 0.0
H882 H 0.98924 0.44888 0.62595 0.0
H883 H 0.15383 0.49346 0.63967 0.0
H884 H 1.00718 0.49716 0.59175 0.0
H885 H 0.11149 0.55044 0.59496 0.0
H886 H 0.15361 0.60949 0.61576 0.0
H887 H 0.81892 0.52865 0.62686 0.0
H888 H 0.77652 0.42222 0.6613 0.0
H889 H 0.8551 0.39385 0.62777 0.0
Cd890 Cd 0.38537 0.5502 0.64493 0.0
C891 C 0.4747 0.6824 0.63385 0.0
C892 C 0.61248 0.48822 0.6569 0.0
O893 O 0.6469 0.51663 0.66687 0.0
Cd894 Cd 0.37184 0.56785 0.62193 0.0
C895 C 0.57541 0.42669 0.65754 0.0
C896 C 0.49678 0.31268 0.65417 0.0
C897 C 0.50504 0.35228 0.64419 0.0
N898 N 0.54276 0.40597 0.64661 0.0
C899 C 0.56963 0.38942 0.66793 0.0
C900 C 0.52976 0.3318 0.66614 0.0
Co901 Co 0.54791 0.45675 0.63392 0.0
C902 C 0.47485 0.34409 0.63118 0.0
O903 O 0.43222 0.29524 0.62762 0.0
C904 C 0.45319 0.39548 0.61387 0.0
C905 C 0.41633 0.41345 0.61794 0.0
C906 C 0.3941 0.43506 0.60858 0.0
C907 C 0.39877 0.42687 0.59476 0.0
C908 C 0.42647 0.39831 0.59033 0.0
C909 C 0.45717 0.38577 0.59989 0.0
C910 C 0.37639 0.47456 0.61343 0.0
C911 C 0.62328 0.57312 0.6454 0.0
C912 C 0.60769 0.5966 0.65609 0.0
C913 C 0.64758 0.60569 0.63377 0.0
C914 C 0.64618 0.65527 0.63178 0.0
C915 C 0.62281 0.67406 0.64165 0.0
C916 C 0.60482 0.64586 0.65413 0.0
N917 N 0.60669 0.51417 0.64558 0.0
N918 N 0.48901 0.39215 0.62407 0.0
N919 N 0.49337 0.47174 0.6431 0.0
C920 C 0.46508 0.44632 0.65568 0.0
C921 C 0.48136 0.47668 0.66785 0.0
C922 C 0.42283 0.38971 0.65605 0.0
C923 C 0.46201 0.44972 0.68043 0.0
H924 H 0.50927 0.52109 0.66752 0.0
C925 C 0.42134 0.39245 0.68064 0.0
C926 C 0.39967 0.36273 0.66846 0.0
C927 C 0.48416 0.48123 0.69335 0.0
H928 H 0.40758 0.36651 0.6467 0.0
H929 H 0.40558 0.37126 0.69027 0.0
C930 C 0.35248 0.30393 0.66877 0.0
O931 O 0.46593 0.45477 0.70542 0.0
O932 O 0.51905 0.53125 0.69316 0.0
O933 O 0.33857 0.27535 0.65844 0.0
O934 O 0.32369 0.28209 0.68042 0.0
H935 H 0.47964 0.47452 0.71395 0.0
H936 H 0.29104 0.24487 0.68074 0.0
N937 N 0.55194 0.50659 0.62112 0.0
C938 C 0.5848 0.51391 0.61043 0.0
C939 C 0.59005 0.55277 0.60052 0.0
C940 C 0.56014 0.58185 0.60246 0.0
C941 C 0.52674 0.57258 0.6142 0.0
C942 C 0.52349 0.53329 0.62371 0.0
N943 N 0.60435 0.45043 0.62313 0.0
C944 C 0.61556 0.4826 0.61165 0.0
O945 O 0.65551 0.49015 0.60311 0.0
C946 C 0.49276 0.5164 0.63687 0.0
O947 O 0.31247 0.4674 0.65663 0.0
O948 O 0.38479 0.52189 0.66888 0.0
C949 C 0.64133 0.43204 0.62859 0.0
C950 C 0.62064 0.37479 0.63221 0.0
C951 C 0.64699 0.36294 0.64308 0.0
C952 C 0.68224 0.41067 0.65094 0.0
C953 C 0.72198 0.45663 0.64325 0.0
C954 C 0.6974 0.47163 0.63257 0.0
O955 O 0.45449 0.65591 0.64499 0.0
O956 O 0.45582 0.65707 0.62264 0.0
O957 O 0.38082 0.48603 0.62609 0.0
O958 O 0.36924 0.50564 0.60516 0.0
O959 O 0.47625 0.54936 0.64342 0.0
C960 C 0.29419 0.6015 0.63317 0.0
O961 O 0.29546 0.58204 0.62161 0.0
O962 O 0.32347 0.59797 0.64286 0.0
C963 C 0.33838 0.47604 0.66785 0.0
H964 H 0.46548 0.26895 0.65291 0.0
H965 H 0.59471 0.40405 0.67709 0.0
H966 H 0.52418 0.30206 0.67404 0.0
H967 H 0.40948 0.41607 0.62859 0.0
H968 H 0.37986 0.44174 0.58739 0.0
H969 H 0.48237 0.36779 0.59661 0.0
H970 H 0.59642 0.57568 0.66579 0.0
H971 H 0.66511 0.59152 0.62594 0.0
H972 H 0.62055 0.71154 0.63967 0.0
H973 H 0.61683 0.56115 0.59174 0.0
H974 H 0.56356 0.61218 0.59496 0.0
H975 H 0.50452 0.59528 0.61575 0.0
H976 H 0.5853 0.34141 0.62687 0.0
H977 H 0.69181 0.40549 0.6613 0.0
H978 H 0.72016 0.51237 0.62775 0.0
Cd979 Cd 0.56383 0.88635 0.64493 0.0
C980 C 0.43163 0.84346 0.63385 0.0
C981 C 0.62577 0.17544 0.6569 0.0
O982 O 0.59736 0.18144 0.66687 0.0
Cd983 Cd 0.5462 0.85517 0.62193 0.0
C984 C 0.68731 0.19991 0.65753 0.0
C985 C 0.80132 0.23531 0.65417 0.0
C986 C 0.76172 0.20397 0.64418 0.0
N987 N 0.70803 0.18799 0.6466 0.0
C988 C 0.72458 0.23142 0.66793 0.0
C989 C 0.7822 0.24918 0.66613 0.0
Co990 Co 0.65725 0.14235 0.63392 0.0
C991 C 0.76991 0.18197 0.63118 0.0
O992 O 0.81876 0.18819 0.62762 0.0
C993 C 0.71852 0.1089 0.61387 0.0
C994 C 0.70056 0.05408 0.61794 0.0
C995 C 0.67895 0.01023 0.60858 0.0
C996 C 0.68713 0.02308 0.59476 0.0
C997 C 0.71567 0.07933 0.59033 0.0
C998 C 0.72821 0.12257 0.59989 0.0
C999 C 0.63947 0.95302 0.61343 0.0
C1000 C 0.54088 0.10134 0.6454 0.0
C1001 C 0.5174 0.06226 0.65609 0.0
C1002 C 0.5083 0.09305 0.63377 0.0
C1003 C 0.45873 0.04206 0.63178 0.0
C1004 C 0.43995 0.99991 0.64165 0.0
C1005 C 0.46815 0.01013 0.65413 0.0
N1006 N 0.59982 0.14369 0.64558 0.0
N1007 N 0.72185 0.14805 0.62407 0.0
N1008 N 0.64227 0.07282 0.6431 0.0
C1009 C 0.6677 0.06997 0.65568 0.0
C1010 C 0.63734 0.05588 0.66785 0.0
C1011 C 0.72431 0.08433 0.65605 0.0
C1012 C 0.6643 0.06349 0.68043 0.0
H1013 H 0.59293 0.03938 0.66752 0.0
C1014 C 0.72157 0.08008 0.68063 0.0
C1015 C 0.75129 0.08814 0.66846 0.0
C1016 C 0.6328 0.05412 0.69335 0.0
H1017 H 0.74751 0.09229 0.64669 0.0
H1018 H 0.74277 0.08551 0.69027 0.0
C1019 C 0.81009 0.09974 0.66876 0.0
O1020 O 0.65927 0.06236 0.70542 0.0
O1021 O 0.58277 0.03899 0.69316 0.0
O1022 O 0.83868 0.11444 0.65844 0.0
O1023 O 0.83192 0.09277 0.68041 0.0
H1024 H 0.63951 0.05631 0.71395 0.0
H1025 H 0.86914 0.09733 0.68073 0.0
N1026 N 0.6074 0.09651 0.62112 0.0
C1027 C 0.60007 0.12204 0.61043 0.0
C1028 C 0.56121 0.08842 0.60052 0.0
C1029 C 0.53215 0.02944 0.60246 0.0
C1030 C 0.54142 1.00531 0.6142 0.0
C1031 C 0.58071 0.04136 0.62371 0.0
N1032 N 0.66356 0.20509 0.62312 0.0
C1033 C 0.63138 0.18412 0.61165 0.0
O1034 O 0.62382 0.21651 0.60311 0.0
C1035 C 0.59761 0.02755 0.63687 0.0
O1036 O 0.64664 0.89627 0.65663 0.0
O1037 O 0.59215 0.91409 0.66888 0.0
C1038 C 0.68193 0.26046 0.62859 0.0
C1039 C 0.73919 0.29705 0.6322 0.0
C1040 C 0.75103 0.33525 0.64307 0.0
C1041 C 0.70332 0.32276 0.65094 0.0
C1042 C 0.65734 0.3165 0.64326 0.0
C1043 C 0.64233 0.27691 0.63258 0.0
O1044 O 0.45812 0.84977 0.64499 0.0
O1045 O 0.45696 0.8499 0.62264 0.0
O1046 O 0.62799 0.94599 0.62609 0.0
O1047 O 0.60839 0.91477 0.60516 0.0
O1048 O 0.56466 0.97807 0.64342 0.0
C1049 C 0.51255 0.74388 0.63318 0.0
O1050 O 0.53202 0.7646 0.62162 0.0
O1051 O 0.51606 0.77669 0.64286 0.0
C1052 C 0.638 0.91353 0.66785 0.0
H1053 H 0.84505 0.24775 0.65291 0.0
H1054 H 0.70995 0.24186 0.67709 0.0
H1055 H 0.81194 0.27333 0.67403 0.0
H1056 H 0.69795 0.0446 0.62859 0.0
H1057 H 0.67225 0.98928 0.58739 0.0
H1058 H 0.74619 0.16575 0.59661 0.0
H1059 H 0.53832 0.07192 0.66579 0.0
H1060 H 0.52247 0.12475 0.62594 0.0
H1061 H 0.40247 0.96016 0.63967 0.0
H1062 H 0.55283 0.10682 0.59175 0.0
H1063 H 0.50181 1.00251 0.59496 0.0
H1064 H 0.51873 0.9604 0.61575 0.0
H1065 H 0.77258 0.2951 0.62686 0.0
H1066 H 0.70853 0.33751 0.6613 0.0
H1067 H 0.60158 0.25892 0.62776 0.0
Cd1068 Cd 0.052 0.21965 0.47826 0.0
C1069 C 0.14133 0.17678 0.46719 0.0
C1070 C 0.27911 0.50874 0.49023 0.0
O1071 O 0.31353 0.51475 0.5002 0.0
Cd1072 Cd 0.03847 0.18847 0.45526 0.0
C1073 C 0.24205 0.53321 0.49087 0.0
C1074 C 0.16343 0.56859 0.4875 0.0
C1075 C 0.17169 0.53726 0.47752 0.0
N1076 N 0.20941 0.52128 0.47994 0.0
C1077 C 0.23628 0.56472 0.50127 0.0
C1078 C 0.19641 0.58246 0.49947 0.0
Co1079 Co 0.21456 0.47565 0.46725 0.0
C1080 C 0.1415 0.51525 0.46451 0.0
O1081 O 0.09887 0.52147 0.46095 0.0
C1082 C 0.11984 0.44218 0.44721 0.0
C1083 C 0.08298 0.38736 0.45127 0.0
C1084 C 0.06074 0.34352 0.44191 0.0
C1085 C 0.0654 0.35638 0.42809 0.0
C1086 C 0.0931 0.41263 0.42366 0.0
C1087 C 0.12381 0.45587 0.43322 0.0
C1088 C 0.04303 0.28631 0.44676 0.0
C1089 C 0.28993 0.43466 0.47873 0.0
C1090 C 0.27433 0.39558 0.48942 0.0
C1091 C 0.31423 0.42638 0.4671 0.0
C1092 C 0.31283 0.3754 0.46512 0.0
C1093 C 0.28946 0.33324 0.47499 0.0
C1094 C 0.27147 0.34345 0.48747 0.0
N1095 N 0.27333 0.477 0.47892 0.0
N1096 N 0.15566 0.48134 0.45741 0.0
N1097 N 0.16001 0.40611 0.47644 0.0
C1098 C 0.13172 0.40325 0.48902 0.0
C1099 C 0.148 0.38917 0.50118 0.0
C1100 C 0.08947 0.41761 0.48938 0.0
C1101 C 0.12865 0.39679 0.51377 0.0
H1102 H 0.17591 0.37267 0.50085 0.0
C1103 C 0.08797 0.41338 0.51397 0.0
C1104 C 0.06631 0.42143 0.5018 0.0
C1105 C 0.15079 0.38743 0.52668 0.0
H1106 H 0.07422 0.42557 0.48003 0.0
H1107 H 0.0722 0.41881 0.5236 0.0
C1108 C 0.01911 0.43303 0.5021 0.0
O1109 O 0.13256 0.39567 0.53875 0.0
O1110 O 0.18568 0.3723 0.52649 0.0
O1111 O 1.00521 0.44771 0.49177 0.0
O1112 O 0.99032 0.42608 0.51375 0.0
H1113 H 0.14627 0.38963 0.54728 0.0
H1114 H 0.95766 0.43065 0.51407 0.0
N1115 N 0.21858 0.42982 0.45446 0.0
C1116 C 0.25145 0.45536 0.44376 0.0
C1117 C 0.2567 0.42175 0.43386 0.0
C1118 C 0.22679 0.36277 0.43579 0.0
C1119 C 0.19338 0.33863 0.44754 0.0
C1120 C 0.19013 0.37467 0.45704 0.0
N1121 N 0.27099 0.5384 0.45646 0.0
C1122 C 0.28221 0.51744 0.44498 0.0
O1123 O 0.32216 0.54984 0.43645 0.0
C1124 C 0.1594 0.36085 0.4702 0.0
O1125 O 0.9791 0.22956 0.48997 0.0
O1126 O 0.05142 0.24739 0.50222 0.0
C1127 C 0.30798 0.59377 0.46193 0.0
C1128 C 0.28731 0.63035 0.46554 0.0
C1129 C 0.31366 0.66855 0.47641 0.0
C1130 C 0.34889 0.65605 0.48428 0.0
C1131 C 0.38864 0.64982 0.47659 0.0
C1132 C 0.36404 0.61024 0.46592 0.0
O1133 O 0.12112 0.18306 0.47832 0.0
O1134 O 0.12245 0.18322 0.45597 0.0
O1135 O 0.04746 0.27928 0.45942 0.0
O1136 O 0.03587 0.24807 0.43849 0.0
O1137 O 0.14288 0.31137 0.47675 0.0
C1138 C 0.96082 0.07717 0.46651 0.0
O1139 O 0.96209 0.09789 0.45495 0.0
O1140 O 0.99011 0.10999 0.47619 0.0
C1141 C 1.00501 0.24683 0.50118 0.0
H1142 H 0.13213 0.58103 0.48624 0.0
H1143 H 0.26135 0.57516 0.51042 0.0
H1144 H 0.19082 0.60662 0.50737 0.0
H1145 H 0.07612 0.37789 0.46192 0.0
H1146 H 0.04648 0.32258 0.42072 0.0
H1147 H 0.14901 0.49905 0.42995 0.0
H1148 H 0.26306 0.40523 0.49913 0.0
H1149 H 0.33176 0.45808 0.45928 0.0
H1150 H 0.2872 0.2935 0.473 0.0
H1151 H 0.28348 0.44015 0.42508 0.0
H1152 H 0.2302 0.33584 0.4283 0.0
H1153 H 0.17116 0.29371 0.44909 0.0
H1154 H 0.25197 0.62839 0.4602 0.0
H1155 H 0.35844 0.6708 0.49463 0.0
H1156 H 0.38679 0.59224 0.46109 0.0
Cd1157 Cd 0.89429 0.88349 0.47826 0.0
C1158 C 0.93719 0.01569 0.46719 0.0
C1159 C 0.60522 0.82155 0.49023 0.0
O1160 O 0.59921 0.84996 0.5002 0.0
Cd1161 Cd 0.92548 0.90113 0.45526 0.0
C1162 C 0.58074 0.76002 0.49086 0.0
C1163 C 0.54533 0.64601 0.4875 0.0
C1164 C 0.57667 0.68561 0.47751 0.0
N1165 N 0.59266 0.7393 0.47993 0.0
C1166 C 0.54922 0.72274 0.50126 0.0
C1167 C 0.53147 0.66512 0.49946 0.0
Co1168 Co 0.6383 0.79008 0.46725 0.0
C1169 C 0.59868 0.67742 0.46451 0.0
O1170 O 0.59245 0.62857 0.46094 0.0
C1171 C 0.67175 0.72882 0.4472 0.0
C1172 C 0.72657 0.74678 0.45127 0.0
C1173 C 0.77042 0.76838 0.4419 0.0
C1174 C 0.75756 0.76019 0.42809 0.0
C1175 C 0.70131 0.73164 0.42366 0.0
C1176 C 0.65807 0.71911 0.43322 0.0
C1177 C 0.82763 0.80786 0.44676 0.0
C1178 C 0.67931 0.90645 0.47873 0.0
C1179 C 0.7184 0.92993 0.48942 0.0
C1180 C 0.6876 0.93903 0.4671 0.0
C1181 C 0.73858 0.98861 0.46512 0.0
C1182 C 0.78074 1.00739 0.47498 0.0
C1183 C 0.77052 0.97918 0.48746 0.0
N1184 N 0.63696 0.84751 0.47891 0.0
N1185 N 0.6326 0.72549 0.4574 0.0
N1186 N 0.70783 0.80506 0.47643 0.0
C1187 C 0.71068 0.77962 0.48901 0.0
C1188 C 0.72476 0.80997 0.50118 0.0
C1189 C 0.69632 0.72301 0.48938 0.0
C1190 C 0.71716 0.783 0.51376 0.0
H1191 H 0.74126 0.85438 0.50085 0.0
C1192 C 0.70057 0.72574 0.51396 0.0
C1193 C 0.69251 0.69603 0.50179 0.0
C1194 C 0.72651 0.8145 0.52668 0.0
H1195 H 0.68836 0.69981 0.48002 0.0
H1196 H 0.69515 0.70454 0.5236 0.0
C1197 C 0.68092 0.63723 0.50209 0.0
O1198 O 0.71828 0.78802 0.53875 0.0
O1199 O 0.74165 0.86452 0.52649 0.0
O1200 O 0.66622 0.60865 0.49176 0.0
O1201 O 0.6879 0.6154 0.51373 0.0
H1202 H 0.72432 0.80777 0.54728 0.0
H1203 H 0.68335 0.57818 0.51405 0.0
N1204 N 0.68413 0.83993 0.45445 0.0
C1205 C 0.65861 0.84727 0.44376 0.0
C1206 C 0.69223 0.88614 0.43386 0.0
C1207 C 0.75121 0.9152 0.43579 0.0
C1208 C 0.77534 0.90592 0.44754 0.0
C1209 C 0.73929 0.86663 0.45704 0.0
N1210 N 0.57556 0.78378 0.45646 0.0
C1211 C 0.59653 0.81596 0.44498 0.0
O1212 O 0.56414 0.82353 0.43645 0.0
C1213 C 0.7531 0.84971 0.4702 0.0
O1214 O 0.88438 0.80068 0.48996 0.0
O1215 O 0.86656 0.85517 0.50221 0.0
C1216 C 0.52019 0.76541 0.46192 0.0
C1217 C 0.48359 0.70815 0.46553 0.0
C1218 C 0.44539 0.69632 0.4764 0.0
C1219 C 0.4579 0.74401 0.48428 0.0
C1220 C 0.46417 0.79003 0.4766 0.0
C1221 C 0.50375 0.80502 0.46592 0.0
O1222 O 0.93088 0.9892 0.47832 0.0
O1223 O 0.93076 0.99037 0.45597 0.0
O1224 O 0.83466 0.81934 0.45942 0.0
O1225 O 0.86588 0.83893 0.43849 0.0
O1226 O 0.80258 0.88267 0.47675 0.0
C1227 C 0.03678 0.93478 0.46651 0.0
O1228 O 0.01606 0.9153 0.45495 0.0
O1229 O 1.00396 0.93127 0.47619 0.0
C1230 C 0.86712 0.80932 0.50118 0.0
H1231 H 0.53288 0.60227 0.48623 0.0
H1232 H 0.53878 0.73737 0.51042 0.0
H1233 H 0.50731 0.63538 0.50736 0.0
H1234 H 0.73605 0.74939 0.46192 0.0
H1235 H 0.79136 0.77506 0.42072 0.0
H1236 H 0.61489 0.70113 0.42994 0.0
H1237 H 0.70874 0.909 0.49913 0.0
H1238 H 0.65589 0.92487 0.45928 0.0
H1239 H 0.82049 0.04487 0.473 0.0
H1240 H 0.67383 0.89452 0.42508 0.0
H1241 H 0.77814 0.94554 0.4283 0.0
H1242 H 0.82026 0.92861 0.44909 0.0
H1243 H 0.48553 0.67477 0.46019 0.0
H1244 H 0.44315 0.7388 0.49463 0.0
H1245 H 0.52177 0.84578 0.46111 0.0
Cd1246 Cd 0.23045 0.06195 0.47826 0.0
C1247 C 0.09825 0.97263 0.46719 0.0
C1248 C 0.29241 0.83483 0.49023 0.0
O1249 O 0.264 0.80041 0.5002 0.0
Cd1250 Cd 0.21282 0.07549 0.45526 0.0
C1251 C 0.35394 0.87189 0.49087 0.0
C1252 C 0.46795 0.95051 0.48751 0.0
C1253 C 0.42835 0.94225 0.47752 0.0
N1254 N 0.37466 0.90453 0.47994 0.0
C1255 C 0.39122 0.87766 0.50127 0.0
C1256 C 0.44884 0.91753 0.49947 0.0
Co1257 Co 0.32389 0.89939 0.46726 0.0
C1258 C 0.43655 0.97244 0.46451 0.0
O1259 O 0.4854 0.01507 0.46095 0.0
C1260 C 0.38515 0.99411 0.44721 0.0
C1261 C 0.36719 0.03097 0.45127 0.0
C1262 C 0.34558 0.0532 0.44191 0.0
C1263 C 0.35377 0.04852 0.4281 0.0
C1264 C 0.38232 0.02082 0.42367 0.0
C1265 C 0.39485 0.99012 0.43322 0.0
C1266 C 0.30609 0.07092 0.44677 0.0
C1267 C 0.20752 0.82403 0.47873 0.0
C1268 C 0.18403 0.83963 0.48942 0.0
C1269 C 0.17494 0.79973 0.4671 0.0
C1270 C 0.12536 0.80114 0.46512 0.0
C1271 C 0.10658 0.82452 0.47498 0.0
C1272 C 0.13479 0.84251 0.48747 0.0
N1273 N 0.26646 0.84062 0.47892 0.0
N1274 N 0.38849 0.95829 0.45741 0.0
N1275 N 0.3089 0.95394 0.47644 0.0
C1276 C 0.33433 0.98223 0.48902 0.0
C1277 C 0.30398 0.96595 0.50118 0.0
C1278 C 0.39094 0.02448 0.48938 0.0
C1279 C 0.33094 0.9853 0.51377 0.0
H1280 H 0.25956 0.93804 0.50085 0.0
C1281 C 0.38821 0.02598 0.51397 0.0
C1282 C 0.41792 0.04764 0.5018 0.0
C1283 C 0.29944 0.96316 0.52668 0.0
H1284 H 0.41414 0.03972 0.48003 0.0
H1285 H 0.40941 0.04175 0.5236 0.0
C1286 C 0.47672 0.09484 0.5021 0.0
O1287 O 0.32591 0.9814 0.53875 0.0
O1288 O 0.24941 0.92827 0.52649 0.0
O1289 O 0.50531 0.10874 0.49177 0.0
O1290 O 0.49856 0.12364 0.51375 0.0
H1291 H 0.30616 0.96769 0.54729 0.0
H1292 H 0.53578 0.15629 0.51407 0.0
N1293 N 0.27404 0.89537 0.45446 0.0
C1294 C 0.26671 0.86251 0.44376 0.0
C1295 C 0.22785 0.85726 0.43386 0.0
C1296 C 0.19879 0.88717 0.43579 0.0
C1297 C 0.20806 0.92058 0.44754 0.0
C1298 C 0.24734 0.92383 0.45705 0.0
N1299 N 0.3302 0.84295 0.45646 0.0
C1300 C 0.29802 0.83174 0.44498 0.0
O1301 O 0.29047 0.79179 0.43645 0.0
C1302 C 0.26425 0.95455 0.4702 0.0
O1303 O 0.31326 0.13485 0.48997 0.0
O1304 O 0.25877 0.06253 0.50222 0.0
C1305 C 0.34858 0.80597 0.46192 0.0
C1306 C 0.40584 0.82665 0.46554 0.0
C1307 C 0.41767 0.80028 0.4764 0.0
C1308 C 0.36997 0.76506 0.48428 0.0
C1309 C 0.324 0.72533 0.47659 0.0
C1310 C 0.30898 0.7499 0.46591 0.0
O1311 O 0.12474 0.99283 0.47832 0.0
O1312 O 0.12358 0.99152 0.45597 0.0
O1313 O 0.29462 0.06648 0.45943 0.0
O1314 O 0.27502 0.07809 0.4385 0.0
O1315 O 0.23129 0.97107 0.47675 0.0
C1316 C 0.17917 0.15314 0.46651 0.0
O1317 O 0.19864 0.15189 0.45495 0.0
O1318 O 0.18268 0.12385 0.47619 0.0
C1319 C 0.30462 0.10894 0.50118 0.0
H1320 H 0.51169 0.98181 0.48624 0.0
H1321 H 0.37658 0.85258 0.51042 0.0
H1322 H 0.47857 0.92311 0.50737 0.0
H1323 H 0.36457 0.03783 0.46192 0.0
H1324 H 0.33889 0.06744 0.42073 0.0
H1325 H 0.41283 0.96492 0.42995 0.0
H1326 H 0.20496 0.8509 0.49913 0.0
H1327 H 0.18911 0.78219 0.45928 0.0
H1328 H 0.06911 0.82679 0.473 0.0
H1329 H 0.21947 0.83048 0.42508 0.0
H1330 H 0.16845 0.88376 0.4283 0.0
H1331 H 0.18536 0.9428 0.44909 0.0
H1332 H 0.43922 0.86198 0.4602 0.0
H1333 H 0.37516 0.7555 0.49463 0.0
H1334 H 0.26824 0.72715 0.46109 0.0
Cd1335 Cd 0.55691 0.71481 0.68808 0.0
C1336 C 0.51403 0.80414 0.69915 0.0
C1337 C 0.84599 0.94193 0.67611 0.0
O1338 O 0.852 0.97634 0.66614 0.0
Cd1339 Cd 0.52573 0.70128 0.71108 0.0
C1340 C 0.87046 0.90487 0.67547 0.0
C1341 C 0.90585 0.82626 0.67884 0.0
C1342 C 0.87452 0.83452 0.68882 0.0
N1343 N 0.85854 0.87223 0.6864 0.0
C1344 C 0.90197 0.8991 0.66507 0.0
C1345 C 0.91972 0.85923 0.66687 0.0
Co1346 Co 0.8129 0.87738 0.69909 0.0
C1347 C 0.85251 0.80433 0.70183 0.0
O1348 O 0.85873 0.76171 0.70539 0.0
C1349 C 0.77944 0.78266 0.71914 0.0
C1350 C 0.72462 0.7458 0.71507 0.0
C1351 C 0.68078 0.72357 0.72443 0.0
C1352 C 0.69363 0.72823 0.73825 0.0
C1353 C 0.74988 0.75593 0.74268 0.0
C1354 C 0.79313 0.78664 0.73312 0.0
C1355 C 0.62357 0.70585 0.71958 0.0
C1356 C 0.7719 0.95274 0.68761 0.0
C1357 C 0.73282 0.93714 0.67692 0.0
C1358 C 0.76363 0.97704 0.69923 0.0
C1359 C 0.71265 0.97565 0.70122 0.0
C1360 C 0.67049 0.95227 0.69135 0.0
C1361 C 0.6807 0.93427 0.67887 0.0
N1362 N 0.81425 0.93614 0.68742 0.0
N1363 N 0.8186 0.81848 0.70894 0.0
N1364 N 0.74337 0.82283 0.6899 0.0
C1365 C 0.74051 0.79454 0.67732 0.0
C1366 C 0.72643 0.81081 0.66516 0.0
C1367 C 0.75487 0.75229 0.67696 0.0
C1368 C 0.73404 0.79145 0.65257 0.0
H1369 H 0.70993 0.83872 0.66549 0.0
C1370 C 0.75063 0.75077 0.65237 0.0
C1371 C 0.75869 0.72912 0.66455 0.0
C1372 C 0.72468 0.81359 0.63966 0.0
H1373 H 0.76283 0.73705 0.68631 0.0
H1374 H 0.75605 0.735 0.64274 0.0
C1375 C 0.77028 0.68192 0.66425 0.0
O1376 O 0.73292 0.79535 0.62759 0.0
O1377 O 0.70955 0.84848 0.63985 0.0
O1378 O 0.78497 0.66802 0.67457 0.0
O1379 O 0.76332 0.65311 0.6526 0.0
H1380 H 0.72687 0.80906 0.61906 0.0
H1381 H 0.76788 0.62046 0.65228 0.0
N1382 N 0.76708 0.8814 0.71188 0.0
C1383 C 0.79261 0.91427 0.72258 0.0
C1384 C 0.759 0.91953 0.73248 0.0
C1385 C 0.70001 0.88961 0.73055 0.0
C1386 C 0.67588 0.8562 0.7188 0.0
C1387 C 0.71192 0.85295 0.7093 0.0
N1388 N 0.87565 0.93382 0.70988 0.0
C1389 C 0.85469 0.94504 0.72136 0.0
O1390 O 0.88709 0.985 0.72989 0.0
C1391 C 0.6981 0.82222 0.69614 0.0
O1392 O 0.56682 0.64191 0.67637 0.0
O1393 O 0.58465 0.71423 0.66412 0.0
C1394 C 0.93102 0.97081 0.70441 0.0
C1395 C 0.96761 0.95014 0.7008 0.0
C1396 C 1.00581 0.97649 0.68993 0.0
C1397 C 0.9933 0.0117 0.68206 0.0
C1398 C 0.98706 0.05146 0.68974 0.0
C1399 C 0.94747 0.02686 0.70042 0.0
O1400 O 0.52032 0.78393 0.68802 0.0
O1401 O 0.52047 0.78525 0.71037 0.0
O1402 O 0.61654 0.71028 0.70692 0.0
O1403 O 0.58532 0.69868 0.72785 0.0
O1404 O 0.64862 0.8057 0.68959 0.0
C1405 C 0.41442 0.62363 0.69983 0.0
O1406 O 0.43515 0.62489 0.71139 0.0
O1407 O 0.44724 0.65292 0.69015 0.0
C1408 C 0.58409 0.66782 0.66516 0.0
H1409 H 0.9183 0.79496 0.6801 0.0
H1410 H 0.91241 0.92417 0.65592 0.0
H1411 H 0.94388 0.85365 0.65897 0.0
H1412 H 0.71515 0.73895 0.70442 0.0
H1413 H 0.65984 0.70931 0.74562 0.0
H1414 H 0.8363 0.81184 0.7364 0.0
H1415 H 0.74247 0.92587 0.66721 0.0
H1416 H 0.79533 0.99458 0.70706 0.0
H1417 H 0.63074 0.95001 0.69334 0.0
H1418 H 0.7774 0.94631 0.74126 0.0
H1419 H 0.67308 0.89303 0.73804 0.0
H1420 H 0.63096 0.83398 0.71725 0.0
H1421 H 0.96566 0.91482 0.70614 0.0
H1422 H 1.00805 0.02125 0.6717 0.0
H1423 H 0.92947 0.04961 0.70524 0.0
Cd1424 Cd 0.39921 0.89326 0.68808 0.0
C1425 C 0.30988 0.76106 0.69915 0.0
C1426 C 0.1721 0.95525 0.67611 0.0
O1427 O 0.13768 0.92684 0.66614 0.0
Cd1428 Cd 0.41274 0.87563 0.71108 0.0
C1429 C 0.20917 0.01678 0.67547 0.0
C1430 C 0.2878 0.13079 0.67883 0.0
C1431 C 0.27953 0.09119 0.68882 0.0
N1432 N 0.24181 0.0375 0.6864 0.0
C1433 C 0.21495 0.05406 0.66507 0.0
C1434 C 0.25482 0.11167 0.66687 0.0
Co1435 Co 0.23666 0.98672 0.69908 0.0
C1436 C 0.30973 0.09938 0.70182 0.0
O1437 O 0.35236 0.14823 0.70538 0.0
C1438 C 0.33138 0.04798 0.71913 0.0
C1439 C 0.36824 0.03001 0.71506 0.0
C1440 C 0.39047 0.0084 0.72443 0.0
C1441 C 0.38579 0.01659 0.73824 0.0
C1442 C 0.3581 0.04514 0.74267 0.0
C1443 C 0.3274 0.05768 0.73311 0.0
C1444 C 0.40818 0.96891 0.71957 0.0
C1445 C 0.16129 0.87035 0.6876 0.0
C1446 C 0.17688 0.84687 0.67692 0.0
C1447 C 0.13699 0.83778 0.69923 0.0
C1448 C 0.13839 0.7882 0.70122 0.0
C1449 C 0.16176 0.76941 0.69135 0.0
C1450 C 0.17976 0.79761 0.67887 0.0
N1451 N 0.17789 0.9293 0.68742 0.0
N1452 N 0.29557 0.05132 0.70893 0.0
N1453 N 0.29121 0.97173 0.6899 0.0
C1454 C 0.3195 0.99716 0.67732 0.0
C1455 C 0.30322 0.9668 0.66516 0.0
C1456 C 0.36175 0.05377 0.67695 0.0
C1457 C 0.32257 0.99376 0.65257 0.0
H1458 H 0.27531 0.92239 0.66548 0.0
C1459 C 0.36325 0.05103 0.65237 0.0
C1460 C 0.38492 0.08075 0.66454 0.0
C1461 C 0.30043 0.96227 0.63965 0.0
H1462 H 0.377 0.07697 0.68631 0.0
H1463 H 0.37902 0.07223 0.64273 0.0
C1464 C 0.43212 0.13955 0.66424 0.0
O1465 O 0.31866 0.98874 0.62758 0.0
O1466 O 0.26553 0.91224 0.63984 0.0
O1467 O 0.44602 0.16813 0.67457 0.0
O1468 O 0.4609 0.16139 0.65259 0.0
H1469 H 0.30495 0.96898 0.61905 0.0
H1470 H 0.49356 0.19861 0.65227 0.0
N1471 N 0.23264 0.93687 0.71188 0.0
C1472 C 0.19977 0.92955 0.72257 0.0
C1473 C 0.19452 0.89069 0.73248 0.0
C1474 C 0.22443 0.86161 0.73055 0.0
C1475 C 0.25784 0.87088 0.7188 0.0
C1476 C 0.26109 0.91017 0.70929 0.0
N1477 N 0.18023 0.99304 0.70988 0.0
C1478 C 0.16901 0.96087 0.72135 0.0
O1479 O 0.12907 0.95332 0.72989 0.0
C1480 C 0.29181 0.92707 0.69614 0.0
O1481 O 0.47211 0.97607 0.67637 0.0
O1482 O 0.39979 0.92157 0.66412 0.0
C1483 C 0.14324 0.01142 0.70441 0.0
C1484 C 0.16393 0.06868 0.70079 0.0
C1485 C 0.13758 0.08053 0.68993 0.0
C1486 C 0.10233 0.0328 0.68206 0.0
C1487 C 0.0626 0.98684 0.68976 0.0
C1488 C 0.08717 0.97183 0.70043 0.0
O1489 O 0.33008 0.78755 0.68802 0.0
O1490 O 0.32877 0.78639 0.71037 0.0
O1491 O 0.40375 0.95743 0.70691 0.0
O1492 O 0.41534 0.93783 0.72784 0.0
O1493 O 0.30833 0.89411 0.68959 0.0
C1494 C 0.49039 0.84198 0.69983 0.0
O1495 O 0.48913 0.86144 0.71139 0.0
O1496 O 0.4611 0.8455 0.69015 0.0
C1497 C 0.44619 0.96743 0.66516 0.0
H1498 H 0.3191 0.17452 0.68009 0.0
H1499 H 0.18987 0.03943 0.65592 0.0
H1500 H 0.26041 0.14141 0.65897 0.0
H1501 H 0.3751 0.02739 0.70441 0.0
H1502 H 0.40471 1.00171 0.74561 0.0
H1503 H 0.3022 0.07566 0.73639 0.0
H1504 H 0.18816 0.86779 0.66721 0.0
H1505 H 0.11946 0.85195 0.70706 0.0
H1506 H 0.16403 0.73193 0.69334 0.0
H1507 H 0.16774 0.88231 0.74126 0.0
H1508 H 0.22102 0.83128 0.73804 0.0
H1509 H 0.28005 0.84818 0.71725 0.0
H1510 H 0.19928 0.10206 0.70613 0.0
H1511 H 0.09276 0.03797 0.6717 0.0
H1512 H 0.06441 0.9311 0.70525 0.0
Cd1513 Cd 0.22075 0.55711 0.68808 0.0
C1514 C 0.35295 0.6 0.69915 0.0
C1515 C 0.15881 0.26803 0.67611 0.0
O1516 O 0.18722 0.26203 0.66614 0.0
Cd1517 Cd 0.23838 0.5883 0.71108 0.0
C1518 C 0.09727 0.24355 0.67547 0.0
C1519 C 0.98326 0.20816 0.67883 0.0
C1520 C 0.02286 0.2395 0.68882 0.0
N1521 N 0.07655 0.25548 0.6864 0.0
C1522 C 0.06 0.21205 0.66507 0.0
C1523 C 1.00238 0.19429 0.66687 0.0
Co1524 Co 0.12733 0.30112 0.69908 0.0
C1525 C 0.01466 0.2615 0.70183 0.0
O1526 O 0.96582 0.25528 0.70539 0.0
C1527 C 0.06606 0.33457 0.71913 0.0
C1528 C 0.08402 0.38939 0.71507 0.0
C1529 C 0.10562 0.43323 0.72443 0.0
C1530 C 0.09744 0.42038 0.73824 0.0
C1531 C 0.0689 0.36413 0.74267 0.0
C1532 C 0.05636 0.32089 0.73311 0.0
C1533 C 0.14511 0.49044 0.71957 0.0
C1534 C 0.2437 0.34213 0.68761 0.0
C1535 C 0.26718 0.38121 0.67692 0.0
C1536 C 0.27628 0.35042 0.69923 0.0
C1537 C 0.32585 0.40141 0.70122 0.0
C1538 C 0.34463 0.44356 0.69136 0.0
C1539 C 0.31643 0.43334 0.67887 0.0
N1540 N 0.18476 0.29978 0.68742 0.0
N1541 N 0.06273 0.29542 0.70893 0.0
N1542 N 0.14231 0.37065 0.6899 0.0
C1543 C 0.11688 0.3735 0.67732 0.0
C1544 C 0.14723 0.38758 0.66516 0.0
C1545 C 0.06027 0.35914 0.67696 0.0
C1546 C 0.12027 0.37998 0.65257 0.0
H1547 H 0.19165 0.40409 0.66549 0.0
C1548 C 0.063 0.36338 0.65237 0.0
C1549 C 0.03329 0.35532 0.66454 0.0
C1550 C 0.15177 0.38934 0.63965 0.0
H1551 H 0.03707 0.35118 0.68631 0.0
H1552 H 0.04181 0.35796 0.64274 0.0
C1553 C 0.97449 0.34373 0.66424 0.0
O1554 O 0.1253 0.38111 0.62759 0.0
O1555 O 0.2018 0.40447 0.63984 0.0
O1556 O 0.9459 0.32903 0.67457 0.0
O1557 O 0.95265 0.35069 0.65259 0.0
H1558 H 0.14506 0.38715 0.61905 0.0
H1559 H 0.91544 0.34614 0.65228 0.0
N1560 N 0.17717 0.34695 0.71188 0.0
C1561 C 0.1845 0.32142 0.72258 0.0
C1562 C 0.22337 0.35504 0.73248 0.0
C1563 C 0.25243 0.41402 0.73055 0.0
C1564 C 0.24316 0.43815 0.7188 0.0
C1565 C 0.20387 0.40211 0.70929 0.0
N1566 N 0.12102 0.23837 0.70988 0.0
C1567 C 0.1532 0.25934 0.72136 0.0
O1568 O 0.16076 0.22695 0.72989 0.0
C1569 C 0.18696 0.41592 0.69614 0.0
O1570 O 0.13794 0.5472 0.67637 0.0
O1571 O 0.19243 0.52937 0.66412 0.0
C1572 C 0.10264 0.18301 0.70442 0.0
C1573 C 0.04538 0.14642 0.70081 0.0
C1574 C 0.03355 0.10821 0.68994 0.0
C1575 C 0.08125 0.12071 0.68206 0.0
C1576 C 0.12723 0.12696 0.68975 0.0
C1577 C 0.14225 0.16655 0.70042 0.0
O1578 O 0.32646 0.5937 0.68802 0.0
O1579 O 0.32762 0.59357 0.71037 0.0
O1580 O 0.15659 0.49748 0.70691 0.0
O1581 O 0.17618 0.52869 0.72784 0.0
O1582 O 0.21992 0.4654 0.68959 0.0
C1583 C 0.27203 0.69959 0.69983 0.0
O1584 O 0.25256 0.67887 0.71139 0.0
O1585 O 0.26852 0.66678 0.69015 0.0
C1586 C 0.14658 0.52993 0.66516 0.0
H1587 H 0.93953 0.19571 0.6801 0.0
H1588 H 0.07464 0.2016 0.65592 0.0
H1589 H 0.97265 0.17013 0.65897 0.0
H1590 H 0.08664 0.39886 0.70441 0.0
H1591 H 0.11232 0.45418 0.74561 0.0
H1592 H 0.03838 0.27771 0.73639 0.0
H1593 H 0.24625 0.37155 0.66721 0.0
H1594 H 0.26211 0.31872 0.70706 0.0
H1595 H 0.38211 0.48332 0.69334 0.0
H1596 H 0.23175 0.33665 0.74126 0.0
H1597 H 0.28277 0.44096 0.73804 0.0
H1598 H 0.26585 0.48307 0.71725 0.0
H1599 H 0.012 0.14836 0.70614 0.0
H1600 H 0.07604 0.10595 0.6717 0.0
H1601 H 0.183 0.18455 0.70524 0.0
Cd1602 Cd 0.39916 0.55705 0.18808 0.0
C1603 C 0.30983 0.59993 0.19915 0.0
C1604 C 0.17204 0.26796 0.1761 0.0
O1605 O 0.13762 0.26195 0.16613 0.0
Cd1606 Cd 0.41269 0.58823 0.21107 0.0
C1607 C 0.2091 0.24349 0.17547 0.0
C1608 C 0.28772 0.2081 0.17883 0.0
C1609 C 0.27946 0.23944 0.18882 0.0
N1610 N 0.24174 0.25542 0.1864 0.0
C1611 C 0.21488 0.21198 0.16507 0.0
C1612 C 0.25475 0.19423 0.16687 0.0
Co1613 Co 0.23659 0.30105 0.19908 0.0
C1614 C 0.30965 0.26145 0.20182 0.0
O1615 O 0.35227 0.25523 0.20539 0.0
C1616 C 0.33131 0.33451 0.21913 0.0
C1617 C 0.36817 0.38933 0.21506 0.0
C1618 C 0.3904 0.43318 0.22443 0.0
C1619 C 0.38573 0.42032 0.23824 0.0
C1620 C 0.35803 0.36407 0.24267 0.0
C1621 C 0.32733 0.32083 0.23311 0.0
C1622 C 0.40812 0.49039 0.21957 0.0
C1623 C 0.16123 0.34205 0.1876 0.0
C1624 C 0.17682 0.38113 0.17691 0.0
C1625 C 0.13693 0.35032 0.19923 0.0
C1626 C 0.13832 0.4013 0.20122 0.0
C1627 C 0.1617 0.44346 0.19135 0.0
C1628 C 0.17969 0.43325 0.17887 0.0
N1629 N 0.17783 0.2997 0.18742 0.0
N1630 N 0.29549 0.29536 0.20893 0.0
N1631 N 0.29115 0.37059 0.1899 0.0
C1632 C 0.31944 0.37344 0.17732 0.0
C1633 C 0.30316 0.38752 0.16516 0.0
C1634 C 0.36169 0.35909 0.17695 0.0
C1635 C 0.32252 0.37991 0.15257 0.0
H1636 H 0.27525 0.40402 0.16549 0.0
C1637 C 0.3632 0.36332 0.15237 0.0
C1638 C 0.38486 0.35527 0.16454 0.0
C1639 C 0.30038 0.38927 0.13965 0.0
H1640 H 0.37693 0.35113 0.18631 0.0
H1641 H 0.37897 0.3579 0.14274 0.0
C1642 C 0.43206 0.34368 0.16424 0.0
O1643 O 0.31861 0.38103 0.12758 0.0
O1644 O 0.26549 0.4044 0.13984 0.0
O1645 O 0.44595 0.32899 0.17457 0.0
O1646 O 0.46086 0.35064 0.15259 0.0
H1647 H 0.30491 0.38707 0.11905 0.0
H1648 H 0.49351 0.34608 0.15227 0.0
N1649 N 0.23257 0.34688 0.21188 0.0
C1650 C 0.1997 0.32134 0.22257 0.0
C1651 C 0.19445 0.35495 0.23248 0.0
C1652 C 0.22436 0.41394 0.23054 0.0
C1653 C 0.25777 0.43807 0.2188 0.0
C1654 C 0.26102 0.40203 0.20929 0.0
N1655 N 0.18015 0.2383 0.20988 0.0
C1656 C 0.16894 0.25926 0.22135 0.0
O1657 O 0.12898 0.22687 0.22989 0.0
C1658 C 0.29175 0.41585 0.19614 0.0
O1659 O 0.47205 0.54714 0.17637 0.0
O1660 O 0.39974 0.52931 0.16412 0.0
C1661 C 0.14317 0.18293 0.20441 0.0
C1662 C 0.16384 0.14635 0.2008 0.0
C1663 C 0.13749 0.10815 0.18993 0.0
C1664 C 0.10226 0.12064 0.18206 0.0
C1665 C 0.06251 0.12688 0.18975 0.0
C1666 C 0.08711 0.16646 0.20042 0.0
O1667 O 0.33003 0.59364 0.18801 0.0
O1668 O 0.32871 0.59348 0.21037 0.0
O1669 O 0.40369 0.49742 0.20691 0.0
O1670 O 0.41528 0.52863 0.22784 0.0
O1671 O 0.30827 0.46533 0.18959 0.0
C1672 C 0.49034 0.69953 0.19983 0.0
O1673 O 0.48908 0.67881 0.21138 0.0
O1674 O 0.46104 0.66671 0.19015 0.0
C1675 C 0.44615 0.52987 0.16516 0.0
H1676 H 0.31902 0.19566 0.1801 0.0
H1677 H 0.1898 0.20154 0.15592 0.0
H1678 H 0.26033 0.17008 0.15897 0.0
H1679 H 0.37503 0.39881 0.20441 0.0
H1680 H 0.40465 0.45412 0.24561 0.0
H1681 H 0.30213 0.27765 0.23639 0.0
H1682 H 0.1881 0.37147 0.16721 0.0
H1683 H 0.11939 0.31862 0.20706 0.0
H1684 H 0.16396 0.48321 0.19333 0.0
H1685 H 0.16766 0.33655 0.24125 0.0
H1686 H 0.22094 0.44087 0.23804 0.0
H1687 H 0.27999 0.48299 0.21725 0.0
H1688 H 0.19917 0.14831 0.20614 0.0
H1689 H 0.09271 0.1059 0.1717 0.0
H1690 H 0.06436 0.18446 0.20524 0.0
Cd1691 Cd 0.55686 0.89321 0.18808 0.0
C1692 C 0.51396 0.76101 0.19915 0.0
C1693 C 0.84594 0.95516 0.17611 0.0
O1694 O 0.85194 0.92675 0.16614 0.0
Cd1695 Cd 0.52567 0.87557 0.21108 0.0
C1696 C 0.87042 0.01669 0.17547 0.0
C1697 C 0.90582 0.1307 0.17884 0.0
C1698 C 0.87448 0.09109 0.18883 0.0
N1699 N 0.8585 0.0374 0.18641 0.0
C1700 C 0.90193 0.05397 0.16508 0.0
C1701 C 0.91969 0.11159 0.16688 0.0
Co1702 Co 0.81285 0.98662 0.19909 0.0
C1703 C 0.85247 0.09928 0.20183 0.0
O1704 O 0.8587 0.14813 0.2054 0.0
C1705 C 0.77939 0.04788 0.21914 0.0
C1706 C 0.72458 0.02992 0.21507 0.0
C1707 C 0.68073 0.00832 0.22443 0.0
C1708 C 0.69358 0.0165 0.23825 0.0
C1709 C 0.74983 0.04505 0.24268 0.0
C1710 C 0.79307 0.05758 0.23312 0.0
C1711 C 0.62352 0.96883 0.21958 0.0
C1712 C 0.77184 0.87026 0.1876 0.0
C1713 C 0.73276 0.84678 0.17692 0.0
C1714 C 0.76356 0.83768 0.19923 0.0
C1715 C 0.71257 0.78809 0.20122 0.0
C1716 C 0.67041 0.76932 0.19135 0.0
C1717 C 0.68063 0.79753 0.17887 0.0
N1718 N 0.81419 0.9292 0.18742 0.0
N1719 N 0.81855 0.05121 0.20894 0.0
N1720 N 0.74332 0.97165 0.1899 0.0
C1721 C 0.74047 0.99709 0.17733 0.0
C1722 C 0.72639 0.96674 0.16516 0.0
C1723 C 0.75483 0.0537 0.17696 0.0
C1724 C 0.734 0.99371 0.15258 0.0
H1725 H 0.70989 0.92233 0.16549 0.0
C1726 C 0.75059 0.05098 0.15238 0.0
C1727 C 0.75865 0.08068 0.16455 0.0
C1728 C 0.72465 0.96221 0.13966 0.0
H1729 H 0.76279 0.07689 0.18632 0.0
H1730 H 0.75601 0.07218 0.14274 0.0
C1731 C 0.77023 0.13948 0.16426 0.0
O1732 O 0.73288 0.98869 0.12759 0.0
O1733 O 0.70951 0.91219 0.13985 0.0
O1734 O 0.78493 0.16806 0.17458 0.0
O1735 O 0.76325 0.16131 0.15261 0.0
H1736 H 0.72684 0.96895 0.11906 0.0
H1737 H 0.76781 0.19853 0.15229 0.0
N1738 N 0.76701 0.93677 0.21188 0.0
C1739 C 0.79254 0.92943 0.22258 0.0
C1740 C 0.75892 0.89056 0.23248 0.0
C1741 C 0.69994 0.8615 0.23055 0.0
C1742 C 0.67581 0.87078 0.2188 0.0
C1743 C 0.71186 0.91007 0.20929 0.0
N1744 N 0.87559 0.99292 0.20988 0.0
C1745 C 0.85462 0.96073 0.22136 0.0
O1746 O 0.88701 0.95316 0.22989 0.0
C1747 C 0.69805 0.92699 0.19614 0.0
O1748 O 0.56677 0.97602 0.17638 0.0
O1749 O 0.5846 0.92153 0.16412 0.0
C1750 C 0.93096 0.01129 0.20442 0.0
C1751 C 0.96756 0.06855 0.20081 0.0
C1752 C 1.00575 0.08038 0.18994 0.0
C1753 C 0.99324 0.03268 0.18206 0.0
C1754 C 0.98698 0.98667 0.18974 0.0
C1755 C 0.9474 0.97168 0.20042 0.0
O1756 O 0.52027 0.7875 0.18802 0.0
O1757 O 0.5204 0.78633 0.21037 0.0
O1758 O 0.61649 0.95736 0.20692 0.0
O1759 O 0.58527 0.93776 0.22785 0.0
O1760 O 0.64857 0.89404 0.18959 0.0
C1761 C 0.41437 0.84192 0.19983 0.0
O1762 O 0.43509 0.86139 0.21138 0.0
O1763 O 0.44719 0.84543 0.19015 0.0
C1764 C 0.58404 0.96738 0.16516 0.0
H1765 H 0.91827 0.17444 0.18011 0.0
H1766 H 0.91237 0.03935 0.15592 0.0
H1767 H 0.94385 0.14133 0.15898 0.0
H1768 H 0.7151 0.02731 0.20442 0.0
H1769 H 0.65978 1.00163 0.24562 0.0
H1770 H 0.83625 0.07556 0.2364 0.0
H1771 H 0.74242 0.86771 0.16721 0.0
H1772 H 0.79526 0.85184 0.20706 0.0
H1773 H 0.63066 0.73184 0.19333 0.0
H1774 H 0.77732 0.88217 0.24126 0.0
H1775 H 0.673 0.83115 0.23804 0.0
H1776 H 0.6309 0.84809 0.21725 0.0
H1777 H 0.96562 0.10193 0.20615 0.0
H1778 H 1.008 0.0379 0.17171 0.0
H1779 H 0.92938 0.93092 0.20523 0.0
Cd1780 Cd 0.2207 0.71474 0.18808 0.0
C1781 C 0.3529 0.80406 0.19915 0.0
C1782 C 0.15873 0.94186 0.17611 0.0
O1783 O 0.18714 0.97628 0.16614 0.0
Cd1784 Cd 0.23833 0.7012 0.21108 0.0
C1785 C 0.0972 0.9048 0.17547 0.0
C1786 C 0.98319 0.82618 0.17884 0.0
C1787 C 0.02279 0.83444 0.18882 0.0
N1788 N 0.07648 0.87216 0.1864 0.0
C1789 C 0.05992 0.89903 0.16507 0.0
C1790 C 1.0023 0.85916 0.16687 0.0
Co1791 Co 0.12726 0.8773 0.19908 0.0
C1792 C 0.0146 0.80425 0.20183 0.0
O1793 O 0.96575 0.76162 0.20539 0.0
C1794 C 0.066 0.78259 0.21913 0.0
C1795 C 0.08396 0.74573 0.21507 0.0
C1796 C 0.10557 0.7235 0.22443 0.0
C1797 C 0.09739 0.72817 0.23824 0.0
C1798 C 0.06884 0.75587 0.24267 0.0
C1799 C 0.0563 0.78657 0.23311 0.0
C1800 C 0.14506 0.70578 0.21957 0.0
C1801 C 0.24363 0.95267 0.1876 0.0
C1802 C 0.26711 0.93707 0.17692 0.0
C1803 C 0.27621 0.97697 0.19923 0.0
C1804 C 0.32579 0.97557 0.20122 0.0
C1805 C 0.34457 0.95219 0.19135 0.0
C1806 C 0.31636 0.9342 0.17887 0.0
N1807 N 0.18468 0.93607 0.18742 0.0
N1808 N 0.06267 0.81841 0.20893 0.0
N1809 N 0.14224 0.82276 0.1899 0.0
C1810 C 0.11681 0.79446 0.17732 0.0
C1811 C 0.14716 0.81074 0.16516 0.0
C1812 C 0.0602 0.75221 0.17696 0.0
C1813 C 0.12019 0.79139 0.15257 0.0
H1814 H 0.19157 0.83865 0.16548 0.0
C1815 C 0.06292 0.7507 0.15237 0.0
C1816 C 0.03321 0.72904 0.16454 0.0
C1817 C 0.15169 0.81353 0.13965 0.0
H1818 H 0.037 0.73697 0.18631 0.0
H1819 H 0.04172 0.73493 0.14274 0.0
C1820 C 0.97442 0.68184 0.16425 0.0
O1821 O 0.12521 0.79529 0.12758 0.0
O1822 O 0.20171 0.84842 0.13984 0.0
O1823 O 0.94584 0.66794 0.17457 0.0
O1824 O 0.95257 0.65304 0.1526 0.0
H1825 H 0.14496 0.809 0.11905 0.0
H1826 H 0.91536 0.62038 0.15228 0.0
N1827 N 0.17711 0.88133 0.21188 0.0
C1828 C 0.18444 0.91419 0.22257 0.0
C1829 C 0.22331 0.91945 0.23248 0.0
C1830 C 0.25237 0.88953 0.23054 0.0
C1831 C 0.2431 0.85612 0.2188 0.0
C1832 C 0.20381 0.85287 0.20929 0.0
N1833 N 0.12095 0.93374 0.20988 0.0
C1834 C 0.15313 0.94496 0.22136 0.0
O1835 O 0.16069 0.98491 0.22989 0.0
C1836 C 0.1869 0.82215 0.19614 0.0
O1837 O 0.13789 0.64185 0.17637 0.0
O1838 O 0.19239 0.71416 0.16412 0.0
C1839 C 0.10257 0.97073 0.20441 0.0
C1840 C 0.04531 0.95005 0.2008 0.0
C1841 C 0.03348 0.97641 0.18993 0.0
C1842 C 0.08118 0.01163 0.18206 0.0
C1843 C 0.12715 0.05137 0.18975 0.0
C1844 C 0.14216 0.02679 0.20043 0.0
O1845 O 0.32641 0.78387 0.18802 0.0
O1846 O 0.32757 0.78518 0.21037 0.0
O1847 O 0.15654 0.71022 0.20691 0.0
O1848 O 0.17613 0.69861 0.22784 0.0
O1849 O 0.21986 0.80562 0.18959 0.0
C1850 C 0.27198 0.62356 0.19983 0.0
O1851 O 0.25252 0.62481 0.21139 0.0
O1852 O 0.26847 0.65285 0.19015 0.0
C1853 C 0.14653 0.66776 0.16516 0.0
H1854 H 0.93945 0.79488 0.1801 0.0
H1855 H 0.07455 0.9241 0.15592 0.0
H1856 H 0.97256 0.85357 0.15897 0.0
H1857 H 0.08658 0.73887 0.20441 0.0
H1858 H 0.11226 0.70925 0.24561 0.0
H1859 H 0.03832 0.81177 0.23639 0.0
H1860 H 0.24618 0.9258 0.16721 0.0
H1861 H 0.26204 0.99451 0.20706 0.0
H1862 H 0.38205 0.94992 0.19333 0.0
H1863 H 0.23169 0.94623 0.24126 0.0
H1864 H 0.28272 0.89294 0.23804 0.0
H1865 H 0.26579 0.8339 0.21725 0.0
H1866 H 0.01193 0.91471 0.20614 0.0
H1867 H 0.07599 0.02119 0.1717 0.0
H1868 H 0.18291 0.04955 0.20524 0.0
Cd1869 Cd 0.89433 0.06195 0.97826 0.0
C1870 C 0.93721 0.97262 0.96718 0.0
C1871 C 0.60524 0.83483 0.99023 0.0
O1872 O 0.59923 0.80041 0.0002 0.0
Cd1873 Cd 0.92551 0.07548 0.95526 0.0
C1874 C 0.58077 0.87189 0.99086 0.0
C1875 C 0.54538 0.9505 0.9875 0.0
C1876 C 0.57672 0.94224 0.97751 0.0
N1877 N 0.59269 0.90453 0.97993 0.0
C1878 C 0.54926 0.87766 0.00126 0.0
C1879 C 0.53152 0.91753 0.99946 0.0
Co1880 Co 0.63833 0.89938 0.96725 0.0
C1881 C 0.59872 0.97243 0.96451 0.0
O1882 O 0.5925 0.01506 0.96095 0.0
C1883 C 0.67179 0.9941 0.9472 0.0
C1884 C 0.72661 0.03096 0.95127 0.0
C1885 C 0.77046 0.0532 0.94191 0.0
C1886 C 0.7576 0.04855 0.92809 0.0
C1887 C 0.70135 0.02085 0.92366 0.0
C1888 C 0.65811 0.99014 0.93322 0.0
C1889 C 0.82767 0.07092 0.94676 0.0
C1890 C 0.67933 0.82402 0.97873 0.0
C1891 C 0.71841 0.83961 0.98942 0.0
C1892 C 0.68761 0.79972 0.9671 0.0
C1893 C 0.7386 0.80112 0.96511 0.0
C1894 C 0.78075 0.82449 0.97498 0.0
C1895 C 0.77053 0.84248 0.98746 0.0
N1896 N 0.63698 0.84061 0.97891 0.0
N1897 N 0.63264 0.95828 0.9574 0.0
N1898 N 0.70787 0.95393 0.97643 0.0
C1899 C 0.71072 0.98222 0.98901 0.0
C1900 C 0.72481 0.96594 0.00117 0.0
C1901 C 0.69636 0.02446 0.98938 0.0
C1902 C 0.7172 0.98529 0.01376 0.0
H1903 H 0.74132 0.93804 0.00084 0.0
C1904 C 0.7006 0.02597 0.01396 0.0
C1905 C 0.69254 0.04762 0.00179 0.0
C1906 C 0.72656 0.96315 0.02668 0.0
H1907 H 0.6884 0.03971 0.98003 0.0
H1908 H 0.69518 0.04173 0.0236 0.0
C1909 C 0.68094 0.09482 0.00209 0.0
O1910 O 0.71833 0.98139 0.03875 0.0
O1911 O 0.7417 0.92827 0.02649 0.0
O1912 O 0.66625 0.10872 0.99177 0.0
O1913 O 0.68789 0.12361 0.01375 0.0
H1914 H 0.72437 0.96768 0.04728 0.0
H1915 H 0.68333 0.15626 0.01407 0.0
N1916 N 0.68416 0.89536 0.95445 0.0
C1917 C 0.65862 0.86249 0.94376 0.0
C1918 C 0.69224 0.85724 0.93385 0.0
C1919 C 0.75122 0.88716 0.93579 0.0
C1920 C 0.77536 0.92057 0.94753 0.0
C1921 C 0.73931 0.92382 0.95704 0.0
N1922 N 0.57558 0.84294 0.95646 0.0
C1923 C 0.59654 0.83173 0.94498 0.0
O1924 O 0.56415 0.79177 0.93644 0.0
C1925 C 0.75314 0.95454 0.9702 0.0
O1926 O 0.88441 0.13484 0.98996 0.0
O1927 O 0.86658 0.06252 0.00221 0.0
C1928 C 0.52022 0.80595 0.96192 0.0
C1929 C 0.48363 0.82662 0.96553 0.0
C1930 C 0.44543 0.80027 0.9764 0.0
C1931 C 0.45793 0.76506 0.98427 0.0
C1932 C 0.46418 0.7253 0.97659 0.0
C1933 C 0.50376 0.7499 0.96591 0.0
O1934 O 0.93092 0.99283 0.97832 0.0
O1935 O 0.93076 0.9915 0.95597 0.0
O1936 O 0.8347 0.06648 0.95942 0.0
O1937 O 0.86591 0.07808 0.93849 0.0
O1938 O 0.80261 0.97106 0.97675 0.0
C1939 C 0.03681 0.15313 0.96651 0.0
O1940 O 0.01609 0.15187 0.95495 0.0
O1941 O 1.00399 0.12384 0.97619 0.0
C1942 C 0.86715 0.10893 0.00118 0.0
H1943 H 0.53294 0.98179 0.98624 0.0
H1944 H 0.53882 0.85259 0.01042 0.0
H1945 H 0.50736 0.92311 0.00736 0.0
H1946 H 0.73609 0.03782 0.96192 0.0
H1947 H 0.7914 0.06747 0.92072 0.0
H1948 H 0.61493 0.96493 0.92994 0.0
H1949 H 0.70875 0.85089 0.99912 0.0
H1950 H 0.65591 0.78219 0.95927 0.0
H1951 H 0.8205 0.82676 0.973 0.0
H1952 H 0.67384 0.83046 0.92508 0.0
H1953 H 0.77815 0.88374 0.92829 0.0
H1954 H 0.82027 0.94279 0.94908 0.0
H1955 H 0.48558 0.86195 0.96019 0.0
H1956 H 0.44319 0.75552 0.99463 0.0
H1957 H 0.52176 0.72715 0.9611 0.0
Cd1958 Cd 0.05203 0.8835 0.97826 0.0
C1959 C 0.14136 0.0157 0.96719 0.0
C1960 C 0.27915 0.82154 0.99023 0.0
O1961 O 0.31358 0.84996 0.0002 0.0
Cd1962 Cd 0.0385 0.90114 0.95526 0.0
C1963 C 0.24209 0.76001 0.99087 0.0
C1964 C 0.16346 0.646 0.98751 0.0
C1965 C 0.17172 0.6856 0.97752 0.0
N1966 N 0.20944 0.73929 0.97994 0.0
C1967 C 0.23632 0.72274 0.00127 0.0
C1968 C 0.19645 0.66513 0.99948 0.0
Co1969 Co 0.21458 0.79005 0.96726 0.0
C1970 C 0.14152 0.67739 0.96452 0.0
O1971 O 0.09889 0.62854 0.96096 0.0
C1972 C 0.11985 0.72878 0.94721 0.0
C1973 C 0.08299 0.74674 0.95128 0.0
C1974 C 0.06077 0.76835 0.94191 0.0
C1975 C 0.06544 0.76017 0.9281 0.0
C1976 C 0.09314 0.73162 0.92367 0.0
C1977 C 0.12384 0.71908 0.93323 0.0
C1978 C 0.04305 0.80785 0.94677 0.0
C1979 C 0.28995 0.90643 0.97873 0.0
C1980 C 0.27436 0.92992 0.98942 0.0
C1981 C 0.31424 0.939 0.9671 0.0
C1982 C 0.31283 0.98858 0.96511 0.0
C1983 C 0.28946 1.00736 0.97498 0.0
C1984 C 0.27148 0.97916 0.98746 0.0
N1985 N 0.27336 0.84749 0.97891 0.0
N1986 N 0.15567 0.72545 0.95741 0.0
N1987 N 0.16004 0.80505 0.97644 0.0
C1988 C 0.13175 0.77963 0.98902 0.0
C1989 C 0.14803 0.81 0.00118 0.0
C1990 C 0.08951 0.72302 0.98939 0.0
C1991 C 0.12869 0.78306 0.01377 0.0
H1992 H 0.17593 0.85442 0.00085 0.0
C1993 C 0.08802 0.72578 0.01397 0.0
C1994 C 0.06636 0.69605 0.0018 0.0
C1995 C 0.15083 0.81457 0.02668 0.0
H1996 H 0.07426 0.69981 0.98004 0.0
H1997 H 0.07226 0.7046 0.02361 0.0
C1998 C 0.01917 0.63725 0.00211 0.0
O1999 O 0.13261 0.78812 0.03876 0.0
O2000 O 0.18572 0.8646 0.02649 0.0
O2001 O 1.00526 0.60866 0.99178 0.0
O2002 O 0.99039 0.61541 0.01376 0.0
H2003 H 0.14631 0.80788 0.04729 0.0
H2004 H 0.95774 0.57819 0.01408 0.0
N2005 N 0.2186 0.83989 0.95445 0.0
C2006 C 0.25146 0.84721 0.94376 0.0
C2007 C 0.2567 0.88607 0.93385 0.0
C2008 C 0.22679 0.91513 0.93579 0.0
C2009 C 0.19339 0.90587 0.94753 0.0
C2010 C 0.19014 0.86659 0.95704 0.0
N2011 N 0.27101 0.78373 0.95646 0.0
C2012 C 0.28222 0.8159 0.94498 0.0
O2013 O 0.32216 0.82344 0.93644 0.0
C2014 C 0.15942 0.8497 0.9702 0.0
O2015 O 0.97913 0.80069 0.98997 0.0
O2016 O 0.05145 0.85519 0.00222 0.0
C2017 C 0.30799 0.76535 0.96192 0.0
C2018 C 0.2873 0.70809 0.96554 0.0
C2019 C 0.31366 0.69624 0.97641 0.0
C2020 C 0.34891 0.74397 0.98428 0.0
C2021 C 0.38864 0.78993 0.97658 0.0
C2022 C 0.36407 0.80494 0.96591 0.0
O2023 O 0.12115 0.98921 0.97832 0.0
O2024 O 0.12248 0.99037 0.95597 0.0
O2025 O 0.04748 0.81932 0.95943 0.0
O2026 O 0.0359 0.83893 0.9385 0.0
O2027 O 0.14291 0.88267 0.97675 0.0
C2028 C 0.96085 0.93478 0.96651 0.0
O2029 O 0.96211 0.91532 0.95495 0.0
O2030 O 0.99013 0.93126 0.97619 0.0
C2031 C 1.00504 0.80934 0.00118 0.0
H2032 H 0.13216 0.60227 0.98625 0.0
H2033 H 0.2614 0.73738 0.01042 0.0
H2034 H 0.19087 0.6354 0.00738 0.0
H2035 H 0.07614 0.74936 0.96193 0.0
H2036 H 0.04653 0.77505 0.92073 0.0
H2037 H 0.14904 0.7011 0.92995 0.0
H2038 H 0.26309 0.90899 0.99913 0.0
H2039 H 0.33177 0.92483 0.95927 0.0
H2040 H 0.28718 0.04484 0.973 0.0
H2041 H 0.28348 0.89444 0.92508 0.0
H2042 H 0.2302 0.94547 0.92829 0.0
H2043 H 0.17117 0.92857 0.94908 0.0
H2044 H 0.25196 0.67471 0.96021 0.0
H2045 H 0.35848 0.7388 0.99463 0.0
H2046 H 0.38683 0.84567 0.96108 0.0
Cd2047 Cd 0.23048 0.21965 0.97826 0.0
C2048 C 0.09828 0.17676 0.96718 0.0
C2049 C 0.2924 0.50873 0.99023 0.0
O2050 O 0.26398 0.51473 0.0002 0.0
Cd2051 Cd 0.21285 0.18847 0.95526 0.0
C2052 C 0.35394 0.53321 0.99087 0.0
C2053 C 0.46795 0.56861 0.98751 0.0
C2054 C 0.42836 0.53727 0.97752 0.0
N2055 N 0.37467 0.52129 0.97994 0.0
C2056 C 0.3912 0.56471 0.00126 0.0
C2057 C 0.44883 0.58247 0.99947 0.0
Co2058 Co 0.3239 0.47565 0.96725 0.0
C2059 C 0.43656 0.51527 0.96452 0.0
O2060 O 0.48541 0.52149 0.96096 0.0
C2061 C 0.38518 0.4422 0.94721 0.0
C2062 C 0.36722 0.38738 0.95127 0.0
C2063 C 0.34562 0.34354 0.94191 0.0
C2064 C 0.35381 0.35639 0.9281 0.0
C2065 C 0.38236 0.41264 0.92367 0.0
C2066 C 0.39489 0.45588 0.93323 0.0
C2067 C 0.30613 0.28632 0.94677 0.0
C2068 C 0.20752 0.43463 0.97873 0.0
C2069 C 0.18404 0.39555 0.98942 0.0
C2070 C 0.17495 0.42634 0.9671 0.0
C2071 C 0.12537 0.37535 0.96511 0.0
C2072 C 0.10659 0.33319 0.97498 0.0
C2073 C 0.13479 0.34341 0.98746 0.0
N2074 N 0.26646 0.47698 0.97891 0.0
N2075 N 0.3885 0.48135 0.95741 0.0
N2076 N 0.30891 0.40611 0.97644 0.0
C2077 C 0.33434 0.40326 0.98902 0.0
C2078 C 0.30397 0.38917 0.00118 0.0
C2079 C 0.39095 0.41763 0.98939 0.0
C2080 C 0.33092 0.39677 0.01377 0.0
H2081 H 0.25956 0.37266 0.00085 0.0
C2082 C 0.38819 0.41337 0.01397 0.0
C2083 C 0.41792 0.42144 0.0018 0.0
C2084 C 0.29941 0.3874 0.02668 0.0
H2085 H 0.41416 0.42559 0.98003 0.0
H2086 H 0.40938 0.41879 0.02361 0.0
C2087 C 0.47672 0.43304 0.0021 0.0
O2088 O 0.32587 0.39563 0.03875 0.0
O2089 O 0.24939 0.37226 0.02649 0.0
O2090 O 0.50531 0.44774 0.99178 0.0
O2091 O 0.49855 0.42608 0.01375 0.0
H2092 H 0.30611 0.38957 0.04728 0.0
H2093 H 0.53577 0.43064 0.01407 0.0
N2094 N 0.27406 0.42981 0.95445 0.0
C2095 C 0.26673 0.45534 0.94376 0.0
C2096 C 0.22788 0.42172 0.93385 0.0
C2097 C 0.19881 0.36274 0.93579 0.0
C2098 C 0.20808 0.33861 0.94753 0.0
C2099 C 0.24737 0.37466 0.95704 0.0
N2100 N 0.33021 0.53839 0.95646 0.0
C2101 C 0.29804 0.51742 0.94498 0.0
O2102 O 0.29048 0.54981 0.93644 0.0
C2103 C 0.26426 0.36084 0.9702 0.0
O2104 O 0.31329 0.22957 0.98997 0.0
O2105 O 0.25879 0.24739 0.00222 0.0
C2106 C 0.34859 0.59376 0.96192 0.0
C2107 C 0.40585 0.63035 0.96553 0.0
C2108 C 0.41769 0.66855 0.9764 0.0
C2109 C 0.36999 0.65606 0.98428 0.0
C2110 C 0.324 0.6498 0.97659 0.0
C2111 C 0.30899 0.61022 0.96591 0.0
O2112 O 0.12477 0.18306 0.97832 0.0
O2113 O 0.12362 0.1832 0.95597 0.0
O2114 O 0.29465 0.27929 0.95943 0.0
O2115 O 0.27506 0.24808 0.9385 0.0
O2116 O 0.23131 0.31136 0.97675 0.0
C2117 C 0.1792 0.07718 0.96651 0.0
O2118 O 0.19868 0.0979 0.95495 0.0
O2119 O 0.18271 0.10999 0.97619 0.0
C2120 C 0.30464 0.24683 0.00118 0.0
H2121 H 0.51169 0.58105 0.98625 0.0
H2122 H 0.37656 0.57515 0.01042 0.0
H2123 H 0.47856 0.60663 0.00737 0.0
H2124 H 0.3646 0.3779 0.96193 0.0
H2125 H 0.33894 0.32259 0.92073 0.0
H2126 H 0.41286 0.49906 0.92995 0.0
H2127 H 0.20496 0.40521 0.99912 0.0
H2128 H 0.18911 0.45804 0.95927 0.0
H2129 H 0.06912 0.29344 0.97299 0.0
H2130 H 0.2195 0.44012 0.92507 0.0
H2131 H 0.16848 0.33581 0.92829 0.0
H2132 H 0.18539 0.2937 0.94908 0.0
H2133 H 0.43923 0.6284 0.96019 0.0
H2134 H 0.37519 0.67082 0.99463 0.0
H2135 H 0.26824 0.59222 0.9611 0.0
Cd2136 Cd 0.71871 0.55301 0.81159 0.0
C2137 C 0.80804 0.51013 0.80052 0.0
C2138 C 0.94583 0.8421 0.82357 0.0
O2139 O 0.98025 0.84811 0.83353 0.0
Cd2140 Cd 0.70518 0.52183 0.78859 0.0
C2141 C 0.90877 0.86657 0.8242 0.0
C2142 C 0.83015 0.90195 0.82084 0.0
C2143 C 0.83841 0.87061 0.81085 0.0
N2144 N 0.87613 0.85464 0.81327 0.0
C2145 C 0.903 0.89807 0.8346 0.0
C2146 C 0.86313 0.91582 0.8328 0.0
Co2147 Co 0.88127 0.80901 0.80059 0.0
C2148 C 0.80822 0.84861 0.79785 0.0
O2149 O 0.76559 0.85483 0.79429 0.0
C2150 C 0.78655 0.77555 0.78054 0.0
C2151 C 0.7497 0.72072 0.78461 0.0
C2152 C 0.72746 0.67688 0.77524 0.0
C2153 C 0.73212 0.68974 0.76143 0.0
C2154 C 0.75982 0.74599 0.757 0.0
C2155 C 0.79053 0.78923 0.76656 0.0
C2156 C 0.70974 0.61967 0.7801 0.0
C2157 C 0.95664 0.76801 0.81207 0.0
C2158 C 0.94104 0.72893 0.82275 0.0
C2159 C 0.98094 0.75973 0.80044 0.0
C2160 C 0.97954 0.70875 0.79845 0.0
C2161 C 0.95617 0.6666 0.80832 0.0
C2162 C 0.93817 0.67681 0.8208 0.0
N2163 N 0.94004 0.81036 0.81225 0.0
N2164 N 0.82237 0.8147 0.79074 0.0
N2165 N 0.82672 0.73947 0.80977 0.0
C2166 C 0.79843 0.73661 0.82235 0.0
C2167 C 0.81471 0.72253 0.83451 0.0
C2168 C 0.75618 0.75097 0.82272 0.0
C2169 C 0.79535 0.73014 0.8471 0.0
H2170 H 0.84262 0.70603 0.83418 0.0
C2171 C 0.75467 0.74673 0.8473 0.0
C2172 C 0.73302 0.75479 0.83513 0.0
C2173 C 0.8175 0.72079 0.86002 0.0
H2174 H 0.74094 0.75892 0.81336 0.0
H2175 H 0.7389 0.75216 0.85694 0.0
C2176 C 0.68581 0.76638 0.83543 0.0
O2177 O 0.79926 0.72903 0.87209 0.0
O2178 O 0.85239 0.70566 0.85983 0.0
O2179 O 0.67192 0.78107 0.8251 0.0
O2180 O 0.65702 0.75943 0.84708 0.0
H2181 H 0.81297 0.72298 0.88062 0.0
H2182 H 0.62436 0.76399 0.8474 0.0
N2183 N 0.8853 0.76318 0.78779 0.0
C2184 C 0.91816 0.78872 0.7771 0.0
C2185 C 0.92342 0.75511 0.76719 0.0
C2186 C 0.8935 0.69612 0.76912 0.0
C2187 C 0.86009 0.67199 0.78087 0.0
C2188 C 0.85684 0.70803 0.79038 0.0
N2189 N 0.93771 0.87176 0.78979 0.0
C2190 C 0.94893 0.8508 0.77832 0.0
O2191 O 0.98888 0.88319 0.76978 0.0
C2192 C 0.82611 0.6942 0.80353 0.0
O2193 O 0.64581 0.56292 0.8233 0.0
O2194 O 0.71813 0.58075 0.83555 0.0
C2195 C 0.9747 0.92713 0.79526 0.0
C2196 C 0.95402 0.96371 0.79887 0.0
C2197 C 0.98037 1.00191 0.80974 0.0
C2198 C 0.0156 0.98942 0.81761 0.0
C2199 C 0.05535 0.98318 0.80992 0.0
C2200 C 0.03076 0.9436 0.79925 0.0
O2201 O 0.78783 0.51642 0.81165 0.0
O2202 O 0.78915 0.51658 0.7893 0.0
O2203 O 0.71418 0.61264 0.79276 0.0
O2204 O 0.70258 0.58143 0.77183 0.0
O2205 O 0.80959 0.64473 0.81008 0.0
C2206 C 0.62753 0.41053 0.79984 0.0
O2207 O 0.62879 0.43125 0.78828 0.0
O2208 O 0.65682 0.44334 0.80952 0.0
C2209 C 0.67172 0.58019 0.83451 0.0
H2210 H 0.79885 0.91439 0.81958 0.0
H2211 H 0.92807 0.90852 0.84375 0.0
H2212 H 0.85754 0.93998 0.8407 0.0
H2213 H 0.74284 0.71125 0.79526 0.0
H2214 H 0.7132 0.65595 0.75406 0.0
H2215 H 0.81573 0.83241 0.76328 0.0
H2216 H 0.92977 0.73858 0.83246 0.0
H2217 H 0.99847 0.79144 0.79261 0.0
H2218 H 0.9539 0.62685 0.80633 0.0
H2219 H 0.9502 0.77351 0.75841 0.0
H2220 H 0.89692 0.66919 0.76163 0.0
H2221 H 0.83787 0.62707 0.78242 0.0
H2222 H 0.91869 0.96175 0.79353 0.0
H2223 H 0.02515 1.00416 0.82797 0.0
H2224 H 0.05351 0.9256 0.79443 0.0
Cd2225 Cd 0.56101 0.21685 0.81159 0.0
C2226 C 0.6039 0.34905 0.80052 0.0
C2227 C 0.27193 0.15491 0.82356 0.0
O2228 O 0.26592 0.18332 0.83353 0.0
Cd2229 Cd 0.59219 0.23448 0.78859 0.0
C2230 C 0.24745 0.09338 0.8242 0.0
C2231 C 0.21204 0.97937 0.82083 0.0
C2232 C 0.24338 0.01897 0.81084 0.0
N2233 N 0.25937 0.07266 0.81327 0.0
C2234 C 0.21593 0.0561 0.83459 0.0
C2235 C 0.19818 0.99848 0.8328 0.0
Co2236 Co 0.30501 0.12344 0.80058 0.0
C2237 C 0.26539 0.01078 0.79784 0.0
O2238 O 0.25916 0.96193 0.79428 0.0
C2239 C 0.33846 0.06218 0.78053 0.0
C2240 C 0.39328 0.08013 0.7846 0.0
C2241 C 0.43713 0.10174 0.77524 0.0
C2242 C 0.42428 0.09355 0.76142 0.0
C2243 C 0.36803 0.06501 0.75699 0.0
C2244 C 0.32478 0.05248 0.76655 0.0
C2245 C 0.49434 0.14122 0.78009 0.0
C2246 C 0.34603 0.23981 0.81207 0.0
C2247 C 0.38511 0.26329 0.82275 0.0
C2248 C 0.35431 0.27239 0.80044 0.0
C2249 C 0.4053 0.32197 0.79845 0.0
C2250 C 0.44746 0.34074 0.80832 0.0
C2251 C 0.43724 0.31254 0.8208 0.0
N2252 N 0.30367 0.18087 0.81225 0.0
N2253 N 0.29931 0.05885 0.79073 0.0
N2254 N 0.37454 0.13842 0.80977 0.0
C2255 C 0.37739 0.11298 0.82235 0.0
C2256 C 0.39147 0.14333 0.83451 0.0
C2257 C 0.36303 0.05637 0.82271 0.0
C2258 C 0.38387 0.11637 0.8471 0.0
H2259 H 0.40798 0.18774 0.83418 0.0
C2260 C 0.36728 0.0591 0.8473 0.0
C2261 C 0.35922 0.02939 0.83512 0.0
C2262 C 0.39323 0.14786 0.86001 0.0
H2263 H 0.35507 0.03317 0.81336 0.0
H2264 H 0.36185 0.0379 0.85693 0.0
C2265 C 0.34762 0.97059 0.83542 0.0
O2266 O 0.385 0.12139 0.87208 0.0
O2267 O 0.40836 0.19789 0.85983 0.0
O2268 O 0.33292 0.942 0.82509 0.0
O2269 O 0.3546 0.94875 0.84707 0.0
H2270 H 0.39104 0.14114 0.88062 0.0
H2271 H 0.35005 0.91154 0.84739 0.0
N2272 N 0.35085 0.17329 0.78779 0.0
C2273 C 0.32532 0.18063 0.77709 0.0
C2274 C 0.35894 0.2195 0.76719 0.0
C2275 C 0.41792 0.24856 0.76913 0.0
C2276 C 0.44205 0.23928 0.78087 0.0
C2277 C 0.406 0.19998 0.79038 0.0
N2278 N 0.24227 0.11714 0.78979 0.0
C2279 C 0.26324 0.14932 0.77831 0.0
O2280 O 0.23085 0.15689 0.76978 0.0
C2281 C 0.41982 0.18307 0.80353 0.0
O2282 O 0.55109 0.13404 0.8233 0.0
O2283 O 0.53327 0.18853 0.83555 0.0
C2284 C 0.18691 0.09877 0.79526 0.0
C2285 C 0.15031 0.04151 0.79886 0.0
C2286 C 0.11211 0.02968 0.80973 0.0
C2287 C 0.12462 0.07738 0.81761 0.0
C2288 C 0.13088 0.12339 0.80993 0.0
C2289 C 0.17047 0.13838 0.79925 0.0
O2290 O 0.5976 0.32256 0.81165 0.0
O2291 O 0.59747 0.32372 0.7893 0.0
O2292 O 0.50137 0.15269 0.79276 0.0
O2293 O 0.53259 0.17229 0.77183 0.0
O2294 O 0.46929 0.21602 0.81008 0.0
C2295 C 0.70349 0.26814 0.79984 0.0
O2296 O 0.68277 0.24866 0.78829 0.0
O2297 O 0.67067 0.26463 0.80952 0.0
C2298 C 0.53382 0.14267 0.83451 0.0
H2299 H 0.19959 0.93563 0.81957 0.0
H2300 H 0.20549 0.07073 0.84375 0.0
H2301 H 0.17401 0.96874 0.84069 0.0
H2302 H 0.40276 0.08275 0.79525 0.0
H2303 H 0.45808 0.10843 0.75405 0.0
H2304 H 0.28161 0.0345 0.76327 0.0
H2305 H 0.37545 0.24236 0.83246 0.0
H2306 H 0.32261 0.25823 0.79261 0.0
H2307 H 0.48721 0.37822 0.80633 0.0
H2308 H 0.34055 0.22788 0.75841 0.0
H2309 H 0.44486 0.2789 0.76163 0.0
H2310 H 0.48697 0.26197 0.78242 0.0
H2311 H 0.15225 0.00813 0.79352 0.0
H2312 H 0.10986 0.07216 0.82797 0.0
H2313 H 0.18848 0.17914 0.79444 0.0
Cd2314 Cd 0.89716 0.39531 0.81159 0.0
C2315 C 0.76496 0.30599 0.80052 0.0
C2316 C 0.95913 0.16819 0.82356 0.0
O2317 O 0.93072 0.13378 0.83353 0.0
Cd2318 Cd 0.87953 0.40885 0.78859 0.0
C2319 C 0.02067 0.20526 0.8242 0.0
C2320 C 0.13467 0.28388 0.82083 0.0
C2321 C 0.09507 0.27562 0.81085 0.0
N2322 N 0.04138 0.2379 0.81327 0.0
C2323 C 0.05794 0.21103 0.8346 0.0
C2324 C 0.11556 0.2509 0.8328 0.0
Co2325 Co 0.9906 0.23275 0.80059 0.0
C2326 C 0.10326 0.30581 0.79784 0.0
O2327 O 0.15211 0.34844 0.79428 0.0
C2328 C 0.05186 0.32747 0.78054 0.0
C2329 C 0.0339 0.36433 0.7846 0.0
C2330 C 0.01229 0.38656 0.77524 0.0
C2331 C 0.02048 0.38189 0.76143 0.0
C2332 C 0.04903 0.3542 0.75699 0.0
C2333 C 0.06157 0.32349 0.76655 0.0
C2334 C 0.9728 0.40428 0.7801 0.0
C2335 C 0.87424 0.15739 0.81207 0.0
C2336 C 0.85075 0.17298 0.82275 0.0
C2337 C 0.84166 0.13309 0.80044 0.0
C2338 C 0.79208 0.13449 0.79845 0.0
C2339 C 0.77329 0.15786 0.80832 0.0
C2340 C 0.8015 0.17586 0.8208 0.0
N2341 N 0.93318 0.17398 0.81225 0.0
N2342 N 0.0552 0.29165 0.79074 0.0
N2343 N 0.97562 0.2873 0.80977 0.0
C2344 C 1.00105 0.31559 0.82235 0.0
C2345 C 0.9707 0.29932 0.83451 0.0
C2346 C 0.05766 0.35785 0.82271 0.0
C2347 C 0.99767 0.31867 0.8471 0.0
H2348 H 0.92629 0.2714 0.83418 0.0
C2349 C 0.05494 0.35935 0.8473 0.0
C2350 C 0.08465 0.38101 0.83513 0.0
C2351 C 0.96617 0.29653 0.86001 0.0
H2352 H 0.08086 0.37309 0.81336 0.0
H2353 H 0.07614 0.37512 0.85693 0.0
C2354 C 0.14344 0.42821 0.83542 0.0
O2355 O 0.99265 0.31476 0.87208 0.0
O2356 O 0.91615 0.26163 0.85983 0.0
O2357 O 0.17202 0.44211 0.8251 0.0
O2358 O 0.16529 0.45701 0.84707 0.0
H2359 H 0.9729 0.30105 0.88062 0.0
H2360 H 0.20251 0.48967 0.84739 0.0
N2361 N 0.94075 0.22873 0.78779 0.0
C2362 C 0.93343 0.19587 0.77709 0.0
C2363 C 0.89456 0.19061 0.76719 0.0
C2364 C 0.86549 0.22053 0.76912 0.0
C2365 C 0.87476 0.25394 0.78087 0.0
C2366 C 0.91405 0.25719 0.79038 0.0
N2367 N 0.99692 0.17632 0.78979 0.0
C2368 C 0.96474 0.1651 0.77831 0.0
O2369 O 0.95718 0.12515 0.76978 0.0
C2370 C 0.93096 0.28791 0.80353 0.0
O2371 O 0.97997 0.46821 0.8233 0.0
O2372 O 0.92547 0.39589 0.83555 0.0
C2373 C 0.01529 0.13933 0.79525 0.0
C2374 C 0.07256 0.16001 0.79887 0.0
C2375 C 0.08439 0.13365 0.80974 0.0
C2376 C 0.03668 0.09843 0.81761 0.0
C2377 C 0.99071 0.05869 0.80992 0.0
C2378 C 0.9757 0.08327 0.79924 0.0
O2379 O 0.79145 0.32619 0.81166 0.0
O2380 O 0.79029 0.32488 0.7893 0.0
O2381 O 0.96133 0.39984 0.79276 0.0
O2382 O 0.94172 0.41145 0.77183 0.0
O2383 O 0.898 0.30443 0.81008 0.0
C2384 C 0.84588 0.4865 0.79984 0.0
O2385 O 0.86534 0.48524 0.78828 0.0
O2386 O 0.84939 0.45721 0.80952 0.0
C2387 C 0.97133 0.4423 0.83451 0.0
H2388 H 0.17841 0.31518 0.81957 0.0
H2389 H 0.04331 0.18596 0.84375 0.0
H2390 H 0.1453 0.25649 0.8407 0.0
H2391 H 0.03128 0.37119 0.79525 0.0
H2392 H 1.0056 0.40081 0.75406 0.0
H2393 H 0.07955 0.29829 0.76327 0.0
H2394 H 0.87168 0.18426 0.83246 0.0
H2395 H 0.85582 0.11555 0.79261 0.0
H2396 H 0.73582 0.16013 0.80633 0.0
H2397 H 0.88618 0.16384 0.75841 0.0
H2398 H 0.83515 0.21712 0.76163 0.0
H2399 H 0.85207 0.27616 0.78242 0.0
H2400 H 0.10594 0.19535 0.79353 0.0
H2401 H 0.04187 0.08887 0.82797 0.0
H2402 H 0.93495 0.06051 0.79442 0.0
Cd2403 Cd 0.22355 0.04811 0.02141 0.0
C2404 C 0.18067 0.13743 0.03248 0.0
C2405 C 0.51263 0.27523 0.00944 0.0
O2406 O 0.51864 0.30965 0.99947 0.0
Cd2407 Cd 0.19237 0.03458 0.04441 0.0
C2408 C 0.5371 0.23817 0.0088 0.0
C2409 C 0.57249 0.15955 0.01217 0.0
C2410 C 0.54116 0.16782 0.02216 0.0
N2411 N 0.52518 0.20553 0.01973 0.0
C2412 C 0.56861 0.2324 0.99841 0.0
C2413 C 0.58636 0.19253 0.0002 0.0
Co2414 Co 0.47954 0.21067 0.03242 0.0
C2415 C 0.51915 0.13762 0.03516 0.0
O2416 O 0.52537 0.095 0.03872 0.0
C2417 C 0.44608 0.11595 0.05247 0.0
C2418 C 0.39126 0.07909 0.0484 0.0
C2419 C 0.34742 0.05685 0.05776 0.0
C2420 C 0.36027 0.06151 0.07158 0.0
C2421 C 0.41652 0.0892 0.07601 0.0
C2422 C 0.45976 0.11992 0.06645 0.0
C2423 C 0.29021 0.03913 0.05291 0.0
C2424 C 0.43854 0.28604 0.02094 0.0
C2425 C 0.39947 0.27044 0.01025 0.0
C2426 C 0.43026 0.31033 0.03257 0.0
C2427 C 0.37928 0.30893 0.03456 0.0
C2428 C 0.33713 0.28556 0.02469 0.0
C2429 C 0.34734 0.26757 0.01221 0.0
N2430 N 0.48089 0.26944 0.02076 0.0
N2431 N 0.48524 0.15177 0.04227 0.0
N2432 N 0.41001 0.15612 0.02324 0.0
C2433 C 0.40715 0.12784 0.01065 0.0
C2434 C 0.39306 0.14411 0.99849 0.0
C2435 C 0.42152 0.08559 0.01029 0.0
C2436 C 0.40067 0.12476 0.9859 0.0
H2437 H 0.37655 0.17201 0.99882 0.0
C2438 C 0.41727 0.08409 0.9857 0.0
C2439 C 0.42533 0.06244 0.99787 0.0
C2440 C 0.3913 0.1469 0.97299 0.0
H2441 H 0.42948 0.07035 0.01964 0.0
H2442 H 0.4227 0.06833 0.97607 0.0
C2443 C 0.43694 0.01524 0.99757 0.0
O2444 O 0.39954 0.12867 0.96092 0.0
O2445 O 0.37617 0.18179 0.97318 0.0
O2446 O 0.45163 1.00135 0.0079 0.0
O2447 O 0.42999 0.98645 0.98592 0.0
H2448 H 0.39349 0.14238 0.95239 0.0
H2449 H 0.43455 0.9538 0.9856 0.0
N2450 N 0.43372 0.21469 0.04522 0.0
C2451 C 0.45925 0.24756 0.05591 0.0
C2452 C 0.42564 0.25281 0.06582 0.0
C2453 C 0.36666 0.22289 0.06388 0.0
C2454 C 0.34252 0.18948 0.05214 0.0
C2455 C 0.37856 0.18624 0.04263 0.0
N2456 N 0.54229 0.26711 0.04321 0.0
C2457 C 0.52133 0.27833 0.05469 0.0
O2458 O 0.55373 0.31828 0.06323 0.0
C2459 C 0.36474 0.15551 0.02947 0.0
O2460 O 0.23347 0.97521 0.0097 0.0
O2461 O 0.25129 0.04753 0.99745 0.0
C2462 C 0.59766 0.3041 0.03775 0.0
C2463 C 0.63425 0.28343 0.03414 0.0
C2464 C 0.67245 0.30978 0.02327 0.0
C2465 C 0.65994 0.34499 0.0154 0.0
C2466 C 0.6537 0.38475 0.02308 0.0
C2467 C 0.61412 0.36016 0.03375 0.0
O2468 O 0.18696 0.11723 0.02135 0.0
O2469 O 0.18711 0.11855 0.0437 0.0
O2470 O 0.28318 0.04357 0.04025 0.0
O2471 O 0.25197 0.03198 0.06118 0.0
O2472 O 0.31526 0.13899 0.02292 0.0
C2473 C 0.08107 0.95692 0.03316 0.0
O2474 O 0.10179 0.95819 0.04472 0.0
O2475 O 0.11388 0.98621 0.02348 0.0
C2476 C 0.25074 1.00112 0.99849 0.0
H2477 H 0.58494 0.12826 0.01343 0.0
H2478 H 0.57905 0.25747 0.98925 0.0
H2479 H 0.61052 0.18695 0.9923 0.0
H2480 H 0.38179 0.07224 0.03775 0.0
H2481 H 0.32647 0.04258 0.07895 0.0
H2482 H 0.50294 0.14512 0.06973 0.0
H2483 H 0.40912 0.25917 0.00055 0.0
H2484 H 0.46196 0.32787 0.0404 0.0
H2485 H 0.29738 0.28329 0.02667 0.0
H2486 H 0.44404 0.27959 0.07459 0.0
H2487 H 0.33973 0.2263 0.07138 0.0
H2488 H 0.2976 0.16726 0.05059 0.0
H2489 H 0.6323 0.24811 0.03947 0.0
H2490 H 0.67468 0.35454 0.00504 0.0
H2491 H 0.59611 0.3829 0.03857 0.0
Cd2492 Cd 0.06585 0.22655 0.0214 0.0
C2493 C 0.97652 0.09435 0.03248 0.0
C2494 C 0.83872 0.28851 0.00944 0.0
O2495 O 0.8043 0.26009 0.99947 0.0
Cd2496 Cd 0.07938 0.20892 0.0444 0.0
C2497 C 0.87579 0.35004 0.0088 0.0
C2498 C 0.95442 0.46405 0.01216 0.0
C2499 C 0.94615 0.42446 0.02214 0.0
N2500 N 0.90843 0.37077 0.01973 0.0
C2501 C 0.88155 0.38731 0.9984 0.0
C2502 C 0.92143 0.44493 0.00019 0.0
Co2503 Co 0.90329 0.32 0.03241 0.0
C2504 C 0.97636 0.43266 0.03515 0.0
O2505 O 0.01899 0.48151 0.03871 0.0
C2506 C 0.99802 0.38127 0.05246 0.0
C2507 C 0.03488 0.36331 0.04839 0.0
C2508 C 0.05711 0.3417 0.05776 0.0
C2509 C 0.05243 0.34989 0.07157 0.0
C2510 C 0.02473 0.37844 0.076 0.0
C2511 C 0.99403 0.39097 0.06644 0.0
C2512 C 0.07482 0.3022 0.0529 0.0
C2513 C 0.82792 0.20362 0.02094 0.0
C2514 C 0.84352 0.18014 0.01025 0.0
C2515 C 0.80363 0.17105 0.03257 0.0
C2516 C 0.80504 0.12147 0.03456 0.0
C2517 C 0.82841 0.10269 0.02469 0.0
C2518 C 0.8464 0.13089 0.0122 0.0
N2519 N 0.84452 0.26257 0.02075 0.0
N2520 N 0.9622 0.3846 0.04226 0.0
N2521 N 0.95784 0.305 0.02323 0.0
C2522 C 0.98612 0.33042 0.01065 0.0
C2523 C 0.96984 0.30005 0.99849 0.0
C2524 C 0.02837 0.38703 0.01028 0.0
C2525 C 0.98919 0.32701 0.9859 0.0
H2526 H 0.94194 0.25564 0.99882 0.0
C2527 C 0.02986 0.38428 0.98569 0.0
C2528 C 0.05152 0.41401 0.99786 0.0
C2529 C 0.96705 0.29549 0.97298 0.0
H2530 H 0.04362 0.41024 0.01963 0.0
H2531 H 0.04562 0.40547 0.97606 0.0
C2532 C 0.09872 0.47281 0.99756 0.0
O2533 O 0.98528 0.32195 0.96091 0.0
O2534 O 0.93216 0.24547 0.97318 0.0
O2535 O 0.11262 0.5014 0.00789 0.0
O2536 O 0.12749 0.49465 0.98591 0.0
H2537 H 0.97157 0.30219 0.95238 0.0
H2538 H 0.16014 0.53187 0.98559 0.0
N2539 N 0.89928 0.27016 0.04521 0.0
C2540 C 0.86642 0.26284 0.05591 0.0
C2541 C 0.86117 0.22399 0.06581 0.0
C2542 C 0.89108 0.19492 0.06388 0.0
C2543 C 0.92449 0.20418 0.05213 0.0
C2544 C 0.92773 0.24346 0.04262 0.0
N2545 N 0.84686 0.32632 0.04321 0.0
C2546 C 0.83565 0.29415 0.05469 0.0
O2547 O 0.79571 0.28661 0.06322 0.0
C2548 C 0.95845 0.26035 0.02947 0.0
O2549 O 0.13874 0.30936 0.0097 0.0
O2550 O 0.06643 0.25486 0.99745 0.0
C2551 C 0.80988 0.34471 0.03774 0.0
C2552 C 0.83057 0.40196 0.03413 0.0
C2553 C 0.80422 0.41382 0.02326 0.0
C2554 C 0.76897 0.36608 0.01539 0.0
C2555 C 0.72923 0.32013 0.02309 0.0
C2556 C 0.75381 0.30512 0.03376 0.0
O2557 O 0.99672 0.12084 0.02135 0.0
O2558 O 0.9954 0.11969 0.0437 0.0
O2559 O 0.07039 0.29073 0.04024 0.0
O2560 O 0.08198 0.27113 0.06117 0.0
O2561 O 0.97497 0.22739 0.02292 0.0
C2562 C 0.15703 0.17527 0.03316 0.0
O2563 O 0.15577 0.19474 0.04472 0.0
O2564 O 0.12774 0.17879 0.02348 0.0
C2565 C 0.11283 0.30072 0.99849 0.0
H2566 H 0.98571 0.50779 0.01342 0.0
H2567 H 0.85647 0.37267 0.98924 0.0
H2568 H 0.92701 0.47466 0.99229 0.0
H2569 H 0.04174 0.36069 0.03774 0.0
H2570 H 0.07134 0.33501 0.07894 0.0
H2571 H 0.96883 0.40895 0.06972 0.0
H2572 H 0.85479 0.20106 0.00054 0.0
H2573 H 0.7861 0.18522 0.04039 0.0
H2574 H 0.83069 0.06522 0.02667 0.0
H2575 H 0.8344 0.21562 0.07459 0.0
H2576 H 0.88768 0.16458 0.07138 0.0
H2577 H 0.94671 0.18148 0.05058 0.0
H2578 H 0.86591 0.43534 0.03946 0.0
H2579 H 0.75939 0.37126 0.00504 0.0
H2580 H 0.73105 0.26438 0.03858 0.0
Cd2581 Cd 0.88739 0.8904 0.02141 0.0
C2582 C 0.01959 0.93329 0.03248 0.0
C2583 C 0.82547 0.60133 0.00944 0.0
O2584 O 0.85389 0.59532 0.99947 0.0
Cd2585 Cd 0.90502 0.92158 0.04441 0.0
C2586 C 0.76393 0.57685 0.0088 0.0
C2587 C 0.64992 0.54145 0.01216 0.0
C2588 C 0.68952 0.57279 0.02215 0.0
N2589 N 0.74321 0.58877 0.01973 0.0
C2590 C 0.72667 0.54534 0.9984 0.0
C2591 C 0.66904 0.52759 0.0002 0.0
Co2592 Co 0.79398 0.63441 0.03242 0.0
C2593 C 0.68131 0.59479 0.03516 0.0
O2594 O 0.63246 0.58856 0.03871 0.0
C2595 C 0.7327 0.66786 0.05246 0.0
C2596 C 0.75066 0.72268 0.0484 0.0
C2597 C 0.77226 0.76652 0.05776 0.0
C2598 C 0.76407 0.75366 0.07157 0.0
C2599 C 0.73552 0.69741 0.07601 0.0
C2600 C 0.72299 0.65417 0.06645 0.0
C2601 C 0.81175 0.82373 0.05291 0.0
C2602 C 0.91035 0.67543 0.02094 0.0
C2603 C 0.93384 0.71451 0.01025 0.0
C2604 C 0.94293 0.68371 0.03257 0.0
C2605 C 0.9925 0.7347 0.03456 0.0
C2606 C 1.01129 0.77686 0.02469 0.0
C2607 C 0.98308 0.76664 0.01221 0.0
N2608 N 0.85141 0.63307 0.02076 0.0
N2609 N 0.72937 0.62871 0.04226 0.0
N2610 N 0.80896 0.70394 0.02323 0.0
C2611 C 0.78353 0.70679 0.01065 0.0
C2612 C 0.8139 0.72088 0.99849 0.0
C2613 C 0.72692 0.69243 0.01029 0.0
C2614 C 0.78694 0.71328 0.9859 0.0
H2615 H 0.85831 0.73739 0.99882 0.0
C2616 C 0.72967 0.69668 0.9857 0.0
C2617 C 0.69995 0.68862 0.99787 0.0
C2618 C 0.81845 0.72265 0.97299 0.0
H2619 H 0.70372 0.68447 0.01964 0.0
H2620 H 0.70848 0.69126 0.97607 0.0
C2621 C 0.64115 0.67702 0.99757 0.0
O2622 O 0.79199 0.71442 0.96092 0.0
O2623 O 0.86848 0.73778 0.97318 0.0
O2624 O 0.61256 0.66232 0.0079 0.0
O2625 O 0.61932 0.68398 0.98592 0.0
H2626 H 0.81175 0.72047 0.95239 0.0
H2627 H 0.5821 0.67942 0.9856 0.0
N2628 N 0.84382 0.68024 0.04522 0.0
C2629 C 0.85114 0.65471 0.05591 0.0
C2630 C 0.89 0.68833 0.06582 0.0
C2631 C 0.91907 0.74731 0.06388 0.0
C2632 C 0.90979 0.77144 0.05214 0.0
C2633 C 0.87051 0.7354 0.04263 0.0
N2634 N 0.78767 0.57166 0.04321 0.0
C2635 C 0.81984 0.59263 0.05469 0.0
O2636 O 0.8274 0.56024 0.06323 0.0
C2637 C 0.85361 0.74921 0.02947 0.0
O2638 O 0.80459 0.88049 0.0097 0.0
O2639 O 0.85908 0.86266 0.99745 0.0
C2640 C 0.76929 0.5163 0.03775 0.0
C2641 C 0.71202 0.47971 0.03414 0.0
C2642 C 0.70019 0.44151 0.02327 0.0
C2643 C 0.74789 0.454 0.01539 0.0
C2644 C 0.79387 0.46025 0.02308 0.0
C2645 C 0.80889 0.49984 0.03376 0.0
O2646 O 0.9931 0.92699 0.02135 0.0
O2647 O 0.99426 0.92685 0.0437 0.0
O2648 O 0.82322 0.83077 0.04025 0.0
O2649 O 0.84282 0.86198 0.06117 0.0
O2650 O 0.88657 0.79869 0.02292 0.0
C2651 C 0.93868 0.03287 0.03316 0.0
O2652 O 0.91921 0.01216 0.04472 0.0
O2653 O 0.93516 1.00006 0.02348 0.0
C2654 C 0.81323 0.86322 0.99849 0.0
H2655 H 0.60618 0.52901 0.01342 0.0
H2656 H 0.7413 0.5349 0.98925 0.0
H2657 H 0.63931 0.50343 0.9923 0.0
H2658 H 0.75328 0.73215 0.03775 0.0
H2659 H 0.77894 0.78746 0.07894 0.0
H2660 H 0.70501 0.611 0.06972 0.0
H2661 H 0.91291 0.70485 0.00055 0.0
H2662 H 0.92876 0.65201 0.0404 0.0
H2663 H 0.04876 0.81661 0.02667 0.0
H2664 H 0.89838 0.66993 0.07459 0.0
H2665 H 0.9494 0.77424 0.07138 0.0
H2666 H 0.93249 0.81636 0.05059 0.0
H2667 H 0.67864 0.48166 0.03948 0.0
H2668 H 0.74268 0.43924 0.00504 0.0
H2669 H 0.84964 0.51784 0.03857 0.0
Cd2670 Cd 0.06584 0.89043 0.52141 0.0
C2671 C 0.97652 0.93331 0.53249 0.0
C2672 C 0.83873 0.60134 0.50944 0.0
O2673 O 0.80432 0.59533 0.49947 0.0
Cd2674 Cd 0.07937 0.92161 0.54441 0.0
C2675 C 0.8758 0.57687 0.5088 0.0
C2676 C 0.95442 0.54149 0.51217 0.0
C2677 C 0.94615 0.57283 0.52216 0.0
N2678 N 0.90844 0.5888 0.51973 0.0
C2679 C 0.88157 0.54537 0.49841 0.0
C2680 C 0.92144 0.52762 0.5002 0.0
Co2681 Co 0.90329 0.63443 0.53242 0.0
C2682 C 0.97634 0.59483 0.53516 0.0
O2683 O 0.01897 0.58862 0.53872 0.0
C2684 C 0.99801 0.6679 0.55247 0.0
C2685 C 0.03486 0.72272 0.5484 0.0
C2686 C 0.0571 0.76656 0.55776 0.0
C2687 C 0.05244 0.75371 0.57158 0.0
C2688 C 0.02475 0.69746 0.57601 0.0
C2689 C 0.99404 0.65421 0.56645 0.0
C2690 C 0.07481 0.82377 0.55291 0.0
C2691 C 0.82792 0.67543 0.52094 0.0
C2692 C 0.84351 0.7145 0.51025 0.0
C2693 C 0.80362 0.6837 0.53257 0.0
C2694 C 0.80501 0.73468 0.53455 0.0
C2695 C 0.82838 0.77684 0.52469 0.0
C2696 C 0.84638 0.76663 0.5122 0.0
N2697 N 0.84452 0.63308 0.52076 0.0
N2698 N 0.96219 0.62874 0.54227 0.0
N2699 N 0.95784 0.70397 0.52324 0.0
C2700 C 0.98613 0.70683 0.51066 0.0
C2701 C 0.96985 0.7209 0.49849 0.0
C2702 C 0.02838 0.69247 0.51029 0.0
C2703 C 0.9892 0.71329 0.48591 0.0
H2704 H 0.94194 0.7374 0.49882 0.0
C2705 C 0.02988 0.6967 0.48571 0.0
C2706 C 0.05154 0.68865 0.49788 0.0
C2707 C 0.96706 0.72264 0.47299 0.0
H2708 H 0.04362 0.68452 0.51965 0.0
H2709 H 0.04565 0.69127 0.47607 0.0
C2710 C 0.09874 0.67705 0.49758 0.0
O2711 O 0.9853 0.7144 0.46092 0.0
O2712 O 0.93217 0.73777 0.47318 0.0
O2713 O 0.11264 0.66238 0.50791 0.0
O2714 O 0.12754 0.684 0.48593 0.0
H2715 H 0.97159 0.72043 0.45239 0.0
H2716 H 0.16019 0.67944 0.48561 0.0
N2717 N 0.89926 0.68026 0.54522 0.0
C2718 C 0.86639 0.65472 0.55591 0.0
C2719 C 0.86114 0.68834 0.56582 0.0
C2720 C 0.89105 0.74732 0.56388 0.0
C2721 C 0.92446 0.77145 0.55213 0.0
C2722 C 0.92771 0.73541 0.54263 0.0
N2723 N 0.84685 0.57168 0.54321 0.0
C2724 C 0.83563 0.59264 0.55469 0.0
O2725 O 0.79568 0.56025 0.56323 0.0
C2726 C 0.95844 0.74924 0.52947 0.0
O2727 O 0.13874 0.88052 0.50971 0.0
O2728 O 0.06642 0.86269 0.49746 0.0
C2729 C 0.80986 0.51632 0.53775 0.0
C2730 C 0.83054 0.47974 0.53413 0.0
C2731 C 0.80419 0.44153 0.52327 0.0
C2732 C 0.76896 0.45403 0.5154 0.0
C2733 C 0.7292 0.46026 0.52308 0.0
C2734 C 0.7538 0.49985 0.53376 0.0
O2735 O 0.99672 0.92702 0.52135 0.0
O2736 O 0.9954 0.92686 0.5437 0.0
O2737 O 0.07038 0.83081 0.54025 0.0
O2738 O 0.08197 0.86201 0.56118 0.0
O2739 O 0.97496 0.79871 0.52292 0.0
C2740 C 0.15702 0.03291 0.53316 0.0
O2741 O 0.15576 0.01219 0.54472 0.0
O2742 O 0.12774 1.0001 0.52348 0.0
C2743 C 0.11283 0.86325 0.49849 0.0
H2744 H 0.98571 0.52905 0.51343 0.0
H2745 H 0.8565 0.53492 0.48925 0.0
H2746 H 0.92703 0.50346 0.49231 0.0
H2747 H 0.04172 0.7322 0.53775 0.0
H2748 H 0.07136 0.7875 0.57895 0.0
H2749 H 0.96884 0.61104 0.56973 0.0
H2750 H 0.85479 0.70485 0.50054 0.0
H2751 H 0.78608 0.652 0.54039 0.0
H2752 H 0.83065 0.81658 0.52667 0.0
H2753 H 0.83436 0.66993 0.57459 0.0
H2754 H 0.88763 0.77425 0.57138 0.0
H2755 H 0.94668 0.81637 0.55058 0.0
H2756 H 0.86587 0.48169 0.53947 0.0
H2757 H 0.75941 0.43928 0.50504 0.0
H2758 H 0.73105 0.51784 0.53858 0.0
Cd2759 Cd 0.22355 0.22659 0.52141 0.0
C2760 C 0.18065 0.09439 0.53249 0.0
C2761 C 0.51263 0.28852 0.50944 0.0
O2762 O 0.51863 0.26011 0.49947 0.0
Cd2763 Cd 0.19236 0.20896 0.54441 0.0
C2764 C 0.53711 0.35006 0.50881 0.0
C2765 C 0.57252 0.46407 0.51217 0.0
C2766 C 0.54117 0.42447 0.52216 0.0
N2767 N 0.52519 0.37078 0.51974 0.0
C2768 C 0.56862 0.38733 0.49841 0.0
C2769 C 0.58638 0.44495 0.50021 0.0
Co2770 Co 0.47954 0.32 0.53242 0.0
C2771 C 0.51917 0.43266 0.53516 0.0
O2772 O 0.5254 0.48151 0.53872 0.0
C2773 C 0.44609 0.38126 0.55247 0.0
C2774 C 0.39127 0.36331 0.5484 0.0
C2775 C 0.34743 0.34171 0.55777 0.0
C2776 C 0.36028 0.3499 0.57158 0.0
C2777 C 0.41653 0.37844 0.57601 0.0
C2778 C 0.45978 0.39097 0.56645 0.0
C2779 C 0.29022 0.30222 0.55291 0.0
C2780 C 0.43853 0.20363 0.52094 0.0
C2781 C 0.39945 0.18015 0.51025 0.0
C2782 C 0.43025 0.17105 0.53257 0.0
C2783 C 0.37926 0.12147 0.53456 0.0
C2784 C 0.3371 0.10269 0.52469 0.0
C2785 C 0.34732 0.1309 0.51221 0.0
N2786 N 0.48088 0.26257 0.52076 0.0
N2787 N 0.48525 0.38459 0.54227 0.0
N2788 N 0.41002 0.30502 0.52324 0.0
C2789 C 0.40717 0.33046 0.51066 0.0
C2790 C 0.39308 0.30011 0.49849 0.0
C2791 C 0.42153 0.38707 0.51029 0.0
C2792 C 0.40069 0.32707 0.48591 0.0
H2793 H 0.37658 0.25569 0.49882 0.0
C2794 C 0.41727 0.38434 0.48571 0.0
C2795 C 0.42534 0.41405 0.49788 0.0
C2796 C 0.39132 0.29557 0.47299 0.0
H2797 H 0.42949 0.41027 0.51965 0.0
H2798 H 0.4227 0.40554 0.47607 0.0
C2799 C 0.43693 0.47284 0.49758 0.0
O2800 O 0.39956 0.32205 0.46092 0.0
O2801 O 0.37619 0.24555 0.47318 0.0
O2802 O 0.45163 0.50143 0.50791 0.0
O2803 O 0.42995 0.49468 0.48594 0.0
H2804 H 0.39351 0.3023 0.45239 0.0
H2805 H 0.4345 0.53189 0.48562 0.0
N2806 N 0.43371 0.27015 0.54522 0.0
C2807 C 0.45924 0.26281 0.55591 0.0
C2808 C 0.42561 0.22395 0.56582 0.0
C2809 C 0.36663 0.19489 0.56388 0.0
C2810 C 0.3425 0.20417 0.55213 0.0
C2811 C 0.37855 0.24346 0.54263 0.0
N2812 N 0.54229 0.3263 0.54321 0.0
C2813 C 0.52132 0.29412 0.55469 0.0
O2814 O 0.5537 0.28655 0.56323 0.0
C2815 C 0.36474 0.26037 0.52947 0.0
O2816 O 0.23346 0.3094 0.50971 0.0
O2817 O 0.25129 0.25491 0.49746 0.0
C2818 C 0.59765 0.34467 0.53775 0.0
C2819 C 0.63425 0.40193 0.53414 0.0
C2820 C 0.67245 0.41376 0.52328 0.0
C2821 C 0.65994 0.36607 0.5154 0.0
C2822 C 0.65368 0.32005 0.52307 0.0
C2823 C 0.61409 0.30506 0.53375 0.0
O2824 O 0.18696 0.12088 0.52135 0.0
O2825 O 0.18709 0.11972 0.5437 0.0
O2826 O 0.28319 0.29075 0.54025 0.0
O2827 O 0.25197 0.27115 0.56118 0.0
O2828 O 0.31526 0.22741 0.52292 0.0
C2829 C 0.08107 0.1753 0.53316 0.0
O2830 O 0.10179 0.19478 0.54472 0.0
O2831 O 0.11389 0.17881 0.52348 0.0
C2832 C 0.25073 0.30076 0.49849 0.0
H2833 H 0.58496 0.5078 0.51344 0.0
H2834 H 0.57906 0.3727 0.48925 0.0
H2835 H 0.61054 0.47469 0.49231 0.0
H2836 H 0.3818 0.36069 0.53775 0.0
H2837 H 0.32649 0.33502 0.57895 0.0
H2838 H 0.50295 0.40895 0.56973 0.0
H2839 H 0.4091 0.20108 0.50055 0.0
H2840 H 0.46195 0.18521 0.54039 0.0
H2841 H 0.29735 0.06522 0.52667 0.0
H2842 H 0.44401 0.21556 0.57459 0.0
H2843 H 0.3397 0.16454 0.57137 0.0
H2844 H 0.29759 0.18148 0.55058 0.0
H2845 H 0.63231 0.43531 0.53949 0.0
H2846 H 0.6747 0.37128 0.50504 0.0
H2847 H 0.59608 0.26431 0.53857 0.0
Cd2848 Cd 0.88739 0.04813 0.52141 0.0
C2849 C 0.01959 0.13745 0.53248 0.0
C2850 C 0.82543 0.27525 0.50944 0.0
O2851 O 0.85385 0.30967 0.49947 0.0
Cd2852 Cd 0.90503 0.03459 0.54441 0.0
C2853 C 0.7639 0.23819 0.5088 0.0
C2854 C 0.64989 0.15957 0.51217 0.0
C2855 C 0.68949 0.16783 0.52216 0.0
N2856 N 0.74318 0.20555 0.51974 0.0
C2857 C 0.72663 0.23242 0.49841 0.0
C2858 C 0.66901 0.19255 0.5002 0.0
Co2859 Co 0.79396 0.21069 0.53242 0.0
C2860 C 0.68129 0.13764 0.53516 0.0
O2861 O 0.63245 0.09501 0.53872 0.0
C2862 C 0.73269 0.11597 0.55247 0.0
C2863 C 0.75065 0.07911 0.5484 0.0
C2864 C 0.77226 0.05688 0.55776 0.0
C2865 C 0.76408 0.06156 0.57158 0.0
C2866 C 0.73553 0.08926 0.57601 0.0
C2867 C 0.72299 0.11996 0.56645 0.0
C2868 C 0.81175 0.03916 0.55291 0.0
C2869 C 0.91033 0.28605 0.52094 0.0
C2870 C 0.93381 0.27046 0.51025 0.0
C2871 C 0.9429 0.31035 0.53257 0.0
C2872 C 0.99248 0.30894 0.53456 0.0
C2873 C 1.01126 0.28556 0.52469 0.0
C2874 C 0.98306 0.26757 0.51221 0.0
N2875 N 0.85138 0.26946 0.52076 0.0
N2876 N 0.72936 0.15179 0.54227 0.0
N2877 N 0.80894 0.15614 0.52324 0.0
C2878 C 0.78351 0.12785 0.51066 0.0
C2879 C 0.81387 0.14413 0.49849 0.0
C2880 C 0.7269 0.0856 0.51029 0.0
C2881 C 0.78691 0.12478 0.4859 0.0
H2882 H 0.85828 0.17204 0.49882 0.0
C2883 C 0.72964 0.0841 0.4857 0.0
C2884 C 0.69992 0.06244 0.49788 0.0
C2885 C 0.81841 0.14692 0.47299 0.0
H2886 H 0.7037 0.07036 0.51964 0.0
H2887 H 0.70844 0.06833 0.47607 0.0
C2888 C 0.64112 0.01524 0.49758 0.0
O2889 O 0.79194 0.12869 0.46092 0.0
O2890 O 0.86843 0.18181 0.47318 0.0
O2891 O 0.61254 1.00134 0.5079 0.0
O2892 O 0.61928 0.98645 0.48593 0.0
H2893 H 0.81169 0.14239 0.45239 0.0
H2894 H 0.58206 0.95379 0.48561 0.0
N2895 N 0.8438 0.21471 0.54522 0.0
C2896 C 0.85113 0.24758 0.55591 0.0
C2897 C 0.88999 0.25282 0.56582 0.0
C2898 C 0.91906 0.22291 0.56388 0.0
C2899 C 0.90979 0.1895 0.55214 0.0
C2900 C 0.8705 0.18626 0.54263 0.0
N2901 N 0.78764 0.26713 0.54321 0.0
C2902 C 0.81982 0.27834 0.55469 0.0
O2903 O 0.82738 0.31829 0.56323 0.0
C2904 C 0.8536 0.15553 0.52947 0.0
O2905 O 0.80458 0.97523 0.50971 0.0
O2906 O 0.85908 0.04755 0.49746 0.0
C2907 C 0.76926 0.30411 0.53775 0.0
C2908 C 0.712 0.28343 0.53414 0.0
C2909 C 0.70017 0.3098 0.52327 0.0
C2910 C 0.74788 0.34502 0.5154 0.0
C2911 C 0.79385 0.38475 0.52309 0.0
C2912 C 0.80886 0.36018 0.53376 0.0
O2913 O 0.9931 0.11725 0.52135 0.0
O2914 O 0.99426 0.11857 0.5437 0.0
O2915 O 0.82322 0.0436 0.54025 0.0
O2916 O 0.84283 0.032 0.56118 0.0
O2917 O 0.88656 0.13901 0.52292 0.0
C2918 C 0.93867 0.95694 0.53316 0.0
O2919 O 0.91921 0.9582 0.54472 0.0
O2920 O 0.93516 0.98623 0.52348 0.0
C2921 C 0.81322 1.00114 0.49849 0.0
H2922 H 0.60616 0.12828 0.51343 0.0
H2923 H 0.74126 0.2575 0.48925 0.0
H2924 H 0.63927 0.18697 0.49231 0.0
H2925 H 0.75327 0.07225 0.53775 0.0
H2926 H 0.77896 0.04264 0.57895 0.0
H2927 H 0.70502 0.14516 0.56973 0.0
H2928 H 0.91288 0.25918 0.50054 0.0
H2929 H 0.92874 0.32789 0.5404 0.0
H2930 H 0.04874 0.28329 0.52667 0.0
H2931 H 0.89837 0.2796 0.57459 0.0
H2932 H 0.9494 0.22632 0.57138 0.0
H2933 H 0.93248 0.16728 0.55059 0.0
H2934 H 0.67862 0.2481 0.53947 0.0
H2935 H 0.74269 0.35458 0.50504 0.0
H2936 H 0.84961 0.38294 0.53858 0.0
Cd2937 Cd 0.56094 0.39526 0.31159 0.0
C2938 C 0.60383 0.30593 0.30052 0.0
C2939 C 0.27186 0.16814 0.32356 0.0
O2940 O 0.26585 0.13373 0.33354 0.0
Cd2941 Cd 0.59213 0.40879 0.28859 0.0
C2942 C 0.24739 0.2052 0.3242 0.0
C2943 C 0.212 0.28382 0.32083 0.0
C2944 C 0.24333 0.27555 0.31085 0.0
N2945 N 0.25931 0.23784 0.31327 0.0
C2946 C 0.21588 0.21098 0.3346 0.0
C2947 C 0.19813 0.25084 0.3328 0.0
Co2948 Co 0.30495 0.23269 0.30059 0.0
C2949 C 0.26534 0.30574 0.29784 0.0
O2950 O 0.25912 0.34836 0.29428 0.0
C2951 C 0.33841 0.3274 0.28054 0.0
C2952 C 0.39323 0.36426 0.2846 0.0
C2953 C 0.43707 0.3865 0.27524 0.0
C2954 C 0.42422 0.38184 0.26142 0.0
C2955 C 0.36797 0.35414 0.25699 0.0
C2956 C 0.32472 0.32343 0.26655 0.0
C2957 C 0.49428 0.40422 0.28009 0.0
C2958 C 0.34595 0.15733 0.31207 0.0
C2959 C 0.38503 0.17293 0.32275 0.0
C2960 C 0.35422 0.13303 0.30044 0.0
C2961 C 0.40521 0.13443 0.29845 0.0
C2962 C 0.44736 0.1578 0.30832 0.0
C2963 C 0.43715 0.1758 0.3208 0.0
N2964 N 0.3036 0.17393 0.31225 0.0
N2965 N 0.29925 0.29159 0.29074 0.0
N2966 N 0.37448 0.28725 0.30977 0.0
C2967 C 0.37734 0.31554 0.32235 0.0
C2968 C 0.39142 0.29927 0.33451 0.0
C2969 C 0.36298 0.35779 0.32271 0.0
C2970 C 0.38381 0.31863 0.3471 0.0
H2971 H 0.40792 0.27136 0.33418 0.0
C2972 C 0.36722 0.35931 0.3473 0.0
C2973 C 0.35917 0.38096 0.33512 0.0
C2974 C 0.39317 0.29649 0.36001 0.0
H2975 H 0.35502 0.37303 0.31336 0.0
H2976 H 0.3618 0.37508 0.35693 0.0
C2977 C 0.34757 0.42816 0.33542 0.0
O2978 O 0.38493 0.31473 0.37208 0.0
O2979 O 0.4083 0.2616 0.35982 0.0
O2980 O 0.33288 0.44205 0.3251 0.0
O2981 O 0.35454 0.45697 0.34707 0.0
H2982 H 0.39097 0.30102 0.38062 0.0
H2983 H 0.34998 0.48962 0.34739 0.0
N2984 N 0.35077 0.22866 0.28779 0.0
C2985 C 0.32524 0.1958 0.2771 0.0
C2986 C 0.35885 0.19054 0.26719 0.0
C2987 C 0.41784 0.22046 0.26912 0.0
C2988 C 0.44197 0.25387 0.28087 0.0
C2989 C 0.40593 0.25712 0.29038 0.0
N2990 N 0.2422 0.17625 0.28979 0.0
C2991 C 0.26316 0.16503 0.27832 0.0
O2992 O 0.23077 0.12507 0.26978 0.0
C2993 C 0.41975 0.28785 0.30353 0.0
O2994 O 0.55103 0.46816 0.3233 0.0
O2995 O 0.53321 0.39585 0.33555 0.0
C2996 C 0.18683 0.13926 0.29526 0.0
C2997 C 0.15024 0.15993 0.29887 0.0
C2998 C 0.11204 0.13358 0.30974 0.0
C2999 C 0.12455 0.09836 0.31761 0.0
C3000 C 0.13079 0.05861 0.30993 0.0
C3001 C 0.17038 0.0832 0.29925 0.0
O3002 O 0.59753 0.32614 0.31165 0.0
O3003 O 0.59739 0.32482 0.2893 0.0
O3004 O 0.50131 0.39979 0.29275 0.0
O3005 O 0.53253 0.41139 0.27183 0.0
O3006 O 0.46923 0.30438 0.31008 0.0
C3007 C 0.70343 0.48644 0.29984 0.0
O3008 O 0.6827 0.48518 0.28828 0.0
O3009 O 0.67061 0.45715 0.30952 0.0
C3010 C 0.53377 0.44225 0.33451 0.0
H3011 H 0.19955 0.31511 0.31957 0.0
H3012 H 0.20544 0.18591 0.34375 0.0
H3013 H 0.17397 0.25643 0.3407 0.0
H3014 H 0.4027 0.37112 0.29525 0.0
H3015 H 0.45801 0.40076 0.25405 0.0
H3016 H 0.28155 0.29823 0.26327 0.0
H3017 H 0.37538 0.18421 0.33246 0.0
H3018 H 0.32252 0.11549 0.29261 0.0
H3019 H 0.48711 0.16007 0.30634 0.0
H3020 H 0.34045 0.16376 0.25841 0.0
H3021 H 0.44477 0.21704 0.26163 0.0
H3022 H 0.48689 0.27609 0.28242 0.0
H3023 H 0.15219 0.19525 0.29353 0.0
H3024 H 0.1098 0.08882 0.32797 0.0
H3025 H 0.18838 0.06046 0.29443 0.0
Cd3026 Cd 0.71864 0.2168 0.31159 0.0
C3027 C 0.80797 0.349 0.30052 0.0
C3028 C 0.94575 0.15483 0.32357 0.0
O3029 O 0.98017 0.18324 0.33354 0.0
Cd3030 Cd 0.7051 0.23444 0.28859 0.0
C3031 C 0.90868 0.09329 0.32421 0.0
C3032 C 0.83005 0.97929 0.32084 0.0
C3033 C 0.83832 0.01889 0.31086 0.0
N3034 N 0.87604 0.07257 0.31328 0.0
C3035 C 0.90291 0.05602 0.3346 0.0
C3036 C 0.86304 0.9984 0.33281 0.0
Co3037 Co 0.88119 0.12335 0.30059 0.0
C3038 C 0.80813 0.01069 0.29785 0.0
O3039 O 0.7655 0.96184 0.29429 0.0
C3040 C 0.78647 0.06209 0.28054 0.0
C3041 C 0.74962 0.08006 0.28461 0.0
C3042 C 0.72739 0.10166 0.27524 0.0
C3043 C 0.73206 0.09347 0.26143 0.0
C3044 C 0.75976 0.06491 0.257 0.0
C3045 C 0.79045 0.05238 0.26656 0.0
C3046 C 0.70967 0.14116 0.2801 0.0
C3047 C 0.95656 0.23972 0.31207 0.0
C3048 C 0.94097 0.26321 0.32276 0.0
C3049 C 0.98086 0.27229 0.30044 0.0
C3050 C 0.97946 0.32188 0.29845 0.0
C3051 C 0.95609 0.34066 0.30832 0.0
C3052 C 0.93809 0.31246 0.3208 0.0
N3053 N 0.93996 0.18077 0.31225 0.0
N3054 N 0.82229 0.05875 0.29074 0.0
N3055 N 0.82664 0.13834 0.30977 0.0
C3056 C 0.79835 0.11291 0.32235 0.0
C3057 C 0.81463 0.14327 0.33452 0.0
C3058 C 0.7561 0.0563 0.32272 0.0
C3059 C 0.79528 0.1163 0.3471 0.0
H3060 H 0.84254 0.18768 0.33419 0.0
C3061 C 0.7546 0.05903 0.3473 0.0
C3062 C 0.73293 0.02932 0.33513 0.0
C3063 C 0.81742 0.1478 0.36002 0.0
H3064 H 0.74085 0.03311 0.31336 0.0
H3065 H 0.73883 0.03784 0.35694 0.0
C3066 C 0.68573 0.97053 0.33543 0.0
O3067 O 0.79919 0.12133 0.37209 0.0
O3068 O 0.85232 0.19782 0.35983 0.0
O3069 O 0.67183 0.94194 0.3251 0.0
O3070 O 0.65694 0.94868 0.34708 0.0
H3071 H 0.81289 0.14108 0.38062 0.0
H3072 H 0.62429 0.91146 0.3474 0.0
N3073 N 0.88522 0.1732 0.28779 0.0
C3074 C 0.91808 0.18052 0.2771 0.0
C3075 C 0.92333 0.21938 0.26719 0.0
C3076 C 0.89342 0.24845 0.26913 0.0
C3077 C 0.86001 0.23919 0.28087 0.0
C3078 C 0.85676 0.1999 0.29038 0.0
N3079 N 0.93762 0.11703 0.2898 0.0
C3080 C 0.94884 0.1492 0.27832 0.0
O3081 O 0.98879 0.15675 0.26978 0.0
C3082 C 0.82604 0.183 0.30354 0.0
O3083 O 0.64574 0.134 0.3233 0.0
O3084 O 0.71806 0.18849 0.33555 0.0
C3085 C 0.97461 0.09865 0.29526 0.0
C3086 C 0.95392 0.04139 0.29888 0.0
C3087 C 0.98027 0.02954 0.30975 0.0
C3088 C 0.01552 0.07727 0.31761 0.0
C3089 C 0.05526 0.12323 0.30992 0.0
C3090 C 0.03068 0.13824 0.29924 0.0
O3091 O 0.78777 0.32251 0.31165 0.0
O3092 O 0.78908 0.32367 0.2893 0.0
O3093 O 0.71411 0.15264 0.29276 0.0
O3094 O 0.70251 0.17223 0.27183 0.0
O3095 O 0.80952 0.21596 0.31009 0.0
C3096 C 0.62746 0.26809 0.29984 0.0
O3097 O 0.62872 0.24863 0.28828 0.0
O3098 O 0.65675 0.26457 0.30952 0.0
C3099 C 0.67165 0.14264 0.33451 0.0
H3100 H 0.79875 0.93555 0.31958 0.0
H3101 H 0.92799 0.07065 0.34376 0.0
H3102 H 0.85745 0.96867 0.34071 0.0
H3103 H 0.74276 0.08268 0.29526 0.0
H3104 H 0.71315 0.10835 0.25406 0.0
H3105 H 0.81565 0.0344 0.26328 0.0
H3106 H 0.92969 0.24228 0.33246 0.0
H3107 H 0.99839 0.25813 0.29261 0.0
H3108 H 0.95382 0.37814 0.30634 0.0
H3109 H 0.95011 0.22776 0.25842 0.0
H3110 H 0.89683 0.27879 0.26163 0.0
H3111 H 0.8378 0.26188 0.28242 0.0
H3112 H 0.91858 0.00801 0.29354 0.0
H3113 H 0.02509 0.07209 0.32797 0.0
H3114 H 0.05344 0.17897 0.29442 0.0
Cd3115 Cd 0.8971 0.55296 0.31159 0.0
C3116 C 0.7649 0.51007 0.30052 0.0
C3117 C 0.95905 0.84204 0.32356 0.0
O3118 O 0.93064 0.84804 0.33353 0.0
Cd3119 Cd 0.87947 0.52177 0.28859 0.0
C3120 C 0.02059 0.86652 0.3242 0.0
C3121 C 0.1346 0.90191 0.32083 0.0
C3122 C 0.095 0.87057 0.31085 0.0
N3123 N 0.04131 0.85459 0.31327 0.0
C3124 C 0.05786 0.89802 0.3346 0.0
C3125 C 0.11548 0.91578 0.3328 0.0
Co3126 Co 0.99053 0.80895 0.30059 0.0
C3127 C 0.10319 0.84857 0.29784 0.0
O3128 O 0.15204 0.85479 0.29428 0.0
C3129 C 0.05179 0.7755 0.28054 0.0
C3130 C 0.03383 0.72068 0.2846 0.0
C3131 C 0.01223 0.67683 0.27524 0.0
C3132 C 0.02042 0.68969 0.26142 0.0
C3133 C 0.04897 0.74594 0.25699 0.0
C3134 C 0.0615 0.78918 0.26655 0.0
C3135 C 0.97274 0.61962 0.28009 0.0
C3136 C 0.87416 0.76794 0.31207 0.0
C3137 C 0.85068 0.72886 0.32275 0.0
C3138 C 0.84158 0.75966 0.30044 0.0
C3139 C 0.792 0.70867 0.29845 0.0
C3140 C 0.77322 0.66651 0.30832 0.0
C3141 C 0.80143 0.67673 0.3208 0.0
N3142 N 0.9331 0.81029 0.31225 0.0
N3143 N 0.05512 0.81465 0.29074 0.0
N3144 N 0.97555 0.73942 0.30977 0.0
C3145 C 1.00098 0.73657 0.32235 0.0
C3146 C 0.97063 0.72249 0.33451 0.0
C3147 C 0.05759 0.75093 0.32271 0.0
C3148 C 0.99759 0.7301 0.3471 0.0
H3149 H 0.92622 0.70599 0.33418 0.0
C3150 C 0.05486 0.74669 0.3473 0.0
C3151 C 0.08457 0.75475 0.33512 0.0
C3152 C 0.9661 0.72074 0.36001 0.0
H3153 H 0.08079 0.75888 0.31336 0.0
H3154 H 0.07606 0.75212 0.35693 0.0
C3155 C 0.14337 0.76634 0.33542 0.0
O3156 O 0.99257 0.72898 0.37208 0.0
O3157 O 0.91607 0.70561 0.35983 0.0
O3158 O 0.17195 0.78103 0.3251 0.0
O3159 O 0.16521 0.75937 0.34707 0.0
H3160 H 0.97282 0.72294 0.38062 0.0
H3161 H 0.20242 0.76393 0.34739 0.0
N3162 N 0.94068 0.76312 0.28779 0.0
C3163 C 0.93335 0.78865 0.27709 0.0
C3164 C 0.89448 0.75503 0.26719 0.0
C3165 C 0.86542 0.69605 0.26912 0.0
C3166 C 0.87469 0.67192 0.28087 0.0
C3167 C 0.91398 0.70797 0.29038 0.0
N3168 N 0.99683 0.8717 0.28979 0.0
C3169 C 0.96466 0.85073 0.27831 0.0
O3170 O 0.95709 0.88312 0.26978 0.0
C3171 C 0.93089 0.69415 0.30353 0.0
O3172 O 0.97991 0.56287 0.3233 0.0
O3173 O 0.92542 0.5807 0.33555 0.0
C3174 C 0.01521 0.92706 0.29526 0.0
C3175 C 0.07247 0.96365 0.29886 0.0
C3176 C 0.08431 1.00185 0.30973 0.0
C3177 C 0.03661 0.98936 0.31761 0.0
C3178 C 0.99062 0.9831 0.30992 0.0
C3179 C 0.97561 0.94352 0.29925 0.0
O3180 O 0.79139 0.51637 0.31165 0.0
O3181 O 0.79023 0.5165 0.2893 0.0
O3182 O 0.96126 0.61259 0.29276 0.0
O3183 O 0.94167 0.58138 0.27183 0.0
O3184 O 0.89794 0.64467 0.31008 0.0
C3185 C 0.84582 0.41048 0.29984 0.0
O3186 O 0.86529 0.4312 0.28828 0.0
O3187 O 0.84933 0.44329 0.30952 0.0
C3188 C 0.97127 0.58014 0.33451 0.0
H3189 H 0.17833 0.91435 0.31957 0.0
H3190 H 0.04323 0.90846 0.34375 0.0
H3191 H 0.14522 0.93993 0.3407 0.0
H3192 H 0.03121 0.7112 0.29525 0.0
H3193 H 1.00554 0.65589 0.25406 0.0
H3194 H 0.07948 0.83236 0.26328 0.0
H3195 H 0.8716 0.73852 0.33246 0.0
H3196 H 0.85574 0.79136 0.29261 0.0
H3197 H 0.73575 0.62676 0.30633 0.0
H3198 H 0.8861 0.77343 0.25841 0.0
H3199 H 0.83508 0.66911 0.26163 0.0
H3200 H 0.852 0.627 0.28242 0.0
H3201 H 0.10585 0.96171 0.29353 0.0
H3202 H 0.04181 1.00412 0.32797 0.0
H3203 H 0.93486 0.92552 0.29443 0.0
loop_
_geom_bond_atom_site_label_1
_geom_bond_atom_site_label_2
_geom_bond_distance
_geom_bond_site_symmetry_2
_ccdc_geom_bond_type
Cd0 O57 2.350 . S
Cd0 O58 2.277 . S
Cd0 O65 2.173 . S
Cd0 O67 2.263 . S
Cd0 O69 2.366 . S
Cd0 O72 2.329 . S
C1 O65 1.277 . S
C1 O66 1.230 . S
C2 O3 1.246 . S
C2 C5 1.481 . S
C2 N27 1.329 . S
O3 C2 1.246 . S
Cd4 O66 2.250 . S
Cd4 O68 2.308 . S
Cd4 O71 2.352 . S
C5 C2 1.481 . S
C5 N8 1.327 . S
C5 C9 1.407 . S
C6 C7 1.346 . S
C6 C10 1.390 . S
C6 H74 0.930 . S
C7 C6 1.346 . S
C7 N8 1.342 . S
C7 C12 1.516 . S
N8 C5 1.327 . S
N8 C7 1.342 . S
N8 Co11 1.864 . S
C9 C5 1.407 . S
C9 C10 1.364 . S
C9 H75 0.930 . S
C10 C6 1.390 . S
C10 C9 1.364 . S
C10 H76 0.931 . S
Co11 N8 1.864 . S
Co11 N27 1.955 . S
Co11 N28 1.958 . S
Co11 N29 1.953 . S
Co11 N47 1.869 . S
Co11 N53 1.974 . S
C12 C7 1.516 . S
C12 O13 1.238 . S
C12 N28 1.324 . S
O13 C12 1.238 . S
C14 C15 1.394 . S
C14 C19 1.395 . S
C14 N28 1.427 . S
C15 C14 1.394 . S
C15 C16 1.380 1_545 S
C15 H77 0.929 . S
C16 C15 1.380 1_565 S
C16 C17 1.384 1_565 S
C16 C20 1.495 . S
C17 C16 1.384 1_545 S
C17 C18 1.382 . S
C17 H78 0.930 1_545 S
C18 C17 1.382 . S
C18 C19 1.398 . S
C19 C14 1.395 . S
C19 C18 1.398 . S
C19 H79 0.930 . S
C20 C16 1.495 . S
C20 O67 1.258 . S
C20 O68 1.274 . S
C21 C22 1.385 . S
C21 C23 1.381 . S
C21 N27 1.432 . S
C22 C21 1.385 . S
C22 C26 1.388 . S
C22 H80 0.929 . S
C23 C21 1.381 . S
C23 C24 1.371 . S
C23 H81 0.932 . S
C24 C23 1.371 . S
C24 C25 1.400 . S
C25 C24 1.400 . S
C25 C26 1.351 . S
C25 H82 0.930 . S
C26 C22 1.388 . S
C26 C25 1.351 . S
N27 C2 1.329 . S
N27 Co11 1.955 . S
N27 C21 1.432 . S
N28 Co11 1.958 . S
N28 C12 1.324 . S
N28 C14 1.427 . S
N29 Co11 1.953 . S
N29 C30 1.436 . S
N29 C56 1.316 1_545 S
C30 N29 1.436 . S
C30 C31 1.421 . S
C30 C32 1.360 . S
C31 C30 1.421 . S
C31 C33 1.379 . S
C31 H34 0.929 . S
C32 C30 1.360 . S
C32 C36 1.393 . S
C32 H38 0.931 . S
C33 C31 1.379 . S
C33 C35 1.417 . S
C33 C37 1.505 . S
H34 C31 0.929 . S
C35 C33 1.417 . S
C35 C36 1.352 . S
C35 H39 0.929 . S
C36 C32 1.393 . S
C36 C35 1.352 . S
C36 C40 1.482 . S
C37 C33 1.505 . S
C37 O41 1.259 . S
C37 O42 1.229 1_545 S
H38 C32 0.931 . S
H39 C35 0.929 . S
C40 C36 1.482 . S
C40 O43 1.207 . S
C40 O44 1.289 . S
O41 C37 1.259 . S
O41 H45 0.822 . S
O42 C37 1.229 1_565 S
O43 C40 1.207 . S
O44 C40 1.289 . S
O44 H46 0.819 . S
H45 O41 0.822 . S
H46 O44 0.819 . S
N47 Co11 1.869 . S
N47 C48 1.330 . S
N47 C52 1.325 . S
C48 N47 1.330 . S
C48 C49 1.359 . S
C48 C54 1.504 . S
C49 C48 1.359 . S
C49 C50 1.366 1_545 S
C49 H83 0.929 . S
C50 C49 1.366 1_565 S
C50 C51 1.415 . S
C50 H84 0.932 . S
C51 C50 1.415 . S
C51 C52 1.366 1_565 S
C51 H85 0.931 . S
C52 N47 1.325 . S
C52 C51 1.366 1_545 S
C52 C56 1.516 1_545 S
N53 Co11 1.974 . S
N53 C54 1.309 . S
N53 C59 1.423 . S
C54 C48 1.504 . S
C54 N53 1.309 . S
C54 O55 1.258 . S
O55 C54 1.258 . S
C56 N29 1.316 1_565 S
C56 C52 1.516 1_565 S
C56 O69 1.263 . S
O57 Cd0 2.350 . S
O57 C73 1.270 . S
O58 Cd0 2.277 . S
O58 C73 1.248 . S
C59 N53 1.423 . S
C59 C60 1.370 . S
C59 C64 1.403 . S
C60 C59 1.370 . S
C60 C61 1.389 . S
C60 H86 0.931 . S
C61 C60 1.389 . S
C61 C62 1.389 . S
C62 C61 1.389 . S
C62 C63 1.379 . S
C62 H87 0.929 . S
C63 C62 1.379 . S
C63 C64 1.405 . S
C64 C59 1.403 . S
C64 C63 1.405 . S
C64 H88 0.932 . S
O65 Cd0 2.173 . S
O65 C1 1.277 . S
O66 C1 1.230 . S
O66 Cd4 2.250 . S
O67 Cd0 2.263 . S
O67 C20 1.258 . S
O68 Cd4 2.308 . S
O68 C20 1.274 . S
O69 Cd0 2.366 . S
O69 C56 1.263 . S
C70 O71 1.235 . S
C70 O72 1.270 . S
O71 Cd4 2.352 . S
O71 C70 1.235 . S
O72 Cd0 2.329 . S
O72 C70 1.270 . S
C73 O57 1.270 . S
C73 O58 1.248 . S
H74 C6 0.930 . S
H75 C9 0.930 . S
H76 C10 0.931 . S
H77 C15 0.929 . S
H78 C17 0.930 1_565 S
H79 C19 0.930 . S
H80 C22 0.929 . S
H81 C23 0.932 . S
H82 C25 0.930 . S
H83 C49 0.929 . S
H84 C50 0.932 . S
H85 C51 0.931 . S
H86 C60 0.931 . S
H87 C62 0.929 . S
H88 C64 0.932 . S
Cd89 O146 2.350 . S
Cd89 O147 2.277 . S
Cd89 O154 2.173 . S
Cd89 O156 2.263 . S
Cd89 O158 2.366 . S
Cd89 O161 2.329 . S
C90 O154 1.277 . S
C90 O155 1.230 . S
C91 O92 1.246 . S
C91 C94 1.481 . S
C91 N116 1.329 . S
O92 C91 1.246 . S
Cd93 O155 2.250 . S
Cd93 O157 2.308 . S
Cd93 O160 2.352 . S
C94 C91 1.481 . S
C94 N97 1.327 . S
C94 C98 1.407 . S
C95 C96 1.346 . S
C95 C99 1.390 . S
C95 H163 0.930 . S
C96 C95 1.346 . S
C96 N97 1.342 . S
C96 C101 1.516 . S
N97 C94 1.327 . S
N97 C96 1.342 . S
N97 Co100 1.864 . S
C98 C94 1.407 . S
C98 C99 1.364 . S
C98 H164 0.930 . S
C99 C95 1.390 . S
C99 C98 1.364 . S
C99 H165 0.931 . S
Co100 N97 1.864 . S
Co100 N116 1.955 . S
Co100 N117 1.958 . S
Co100 N118 1.953 1_655 S
Co100 N136 1.869 1_655 S
Co100 N142 1.974 . S
C101 C96 1.516 . S
C101 O102 1.238 . S
C101 N117 1.324 . S
O102 C101 1.238 . S
C103 C104 1.394 . S
C103 C108 1.395 1_455 S
C103 N117 1.427 1_455 S
C104 C103 1.394 . S
C104 C105 1.380 . S
C104 H166 0.929 . S
C105 C104 1.380 . S
C105 C106 1.384 . S
C105 C109 1.495 . S
C106 C105 1.384 . S
C106 C107 1.382 . S
C106 H167 0.930 . S
C107 C106 1.382 . S
C107 C108 1.398 1_455 S
C108 C103 1.395 1_655 S
C108 C107 1.398 1_655 S
C108 H168 0.930 . S
C109 C105 1.495 . S
C109 O156 1.258 . S
C109 O157 1.274 . S
C110 C111 1.385 . S
C110 C112 1.374 1_455 S
C110 N116 1.432 1_455 S
C111 C110 1.385 . S
C111 C115 1.388 . S
C111 H169 0.929 . S
C112 C110 1.374 1_655 S
C112 C113 1.370 1_655 S
C112 H170 0.940 . S
C113 C112 1.370 1_455 S
C113 C114 1.400 . S
C114 C113 1.400 . S
C114 C115 1.351 . S
C114 H171 0.930 . S
C115 C111 1.388 . S
C115 C114 1.351 . S
N116 C91 1.329 . S
N116 Co100 1.955 . S
N116 C110 1.432 1_655 S
N117 Co100 1.958 . S
N117 C101 1.324 . S
N117 C103 1.427 1_655 S
N118 Co100 1.953 1_455 S
N118 C119 1.436 . S
N118 C145 1.316 . S
C119 N118 1.436 . S
C119 C120 1.421 . S
C119 C121 1.360 . S
C120 C119 1.421 . S
C120 C122 1.379 . S
C120 H123 0.929 . S
C121 C119 1.360 . S
C121 C125 1.393 . S
C121 H127 0.931 . S
C122 C120 1.379 . S
C122 C124 1.417 . S
C122 C126 1.505 . S
H123 C120 0.929 . S
C124 C122 1.417 . S
C124 C125 1.352 . S
C124 H128 0.929 . S
C125 C121 1.393 . S
C125 C124 1.352 . S
C125 C129 1.482 . S
C126 C122 1.505 . S
C126 O130 1.259 . S
C126 O131 1.229 . S
H127 C121 0.931 . S
H128 C124 0.929 . S
C129 C125 1.482 . S
C129 O132 1.207 . S
C129 O133 1.291 1_455 S
O130 C126 1.259 . S
O130 H134 0.822 . S
O131 C126 1.229 . S
O132 C129 1.207 . S
O133 C129 1.291 1_655 S
O133 H135 0.816 . S
H134 O130 0.822 . S
H135 O133 0.816 . S
N136 Co100 1.869 1_455 S
N136 C137 1.330 . S
N136 C141 1.325 . S
C137 N136 1.330 . S
C137 C138 1.359 . S
C137 C143 1.504 1_455 S
C138 C137 1.359 . S
C138 C139 1.366 . S
C138 H172 0.929 . S
C139 C138 1.366 . S
C139 C140 1.415 . S
C139 H173 0.932 . S
C140 C139 1.415 . S
C140 C141 1.366 . S
C140 H174 0.931 . S
C141 N136 1.325 . S
C141 C140 1.366 . S
C141 C145 1.516 . S
N142 Co100 1.974 . S
N142 C143 1.309 . S
N142 C148 1.423 . S
C143 C137 1.504 1_655 S
C143 N142 1.309 . S
C143 O144 1.258 . S
O144 C143 1.258 . S
C145 N118 1.316 . S
C145 C141 1.516 . S
C145 O158 1.263 . S
O146 Cd89 2.350 . S
O146 C162 1.270 . S
O147 Cd89 2.277 . S
O147 C162 1.248 . S
C148 N142 1.423 . S
C148 C149 1.370 . S
C148 C153 1.403 . S
C149 C148 1.370 . S
C149 C150 1.389 . S
C149 H175 0.931 . S
C150 C149 1.389 . S
C150 C151 1.389 . S
C151 C150 1.389 . S
C151 C152 1.379 . S
C151 H176 0.929 . S
C152 C151 1.379 . S
C152 C153 1.405 . S
C153 C148 1.403 . S
C153 C152 1.405 . S
C153 H177 0.932 . S
O154 Cd89 2.173 . S
O154 C90 1.277 . S
O155 C90 1.230 . S
O155 Cd93 2.250 . S
O156 Cd89 2.263 . S
O156 C109 1.258 . S
O157 Cd93 2.308 . S
O157 C109 1.274 . S
O158 Cd89 2.366 . S
O158 C145 1.263 . S
C159 O160 1.235 . S
C159 O161 1.270 . S
O160 Cd93 2.352 . S
O160 C159 1.235 . S
O161 Cd89 2.329 . S
O161 C159 1.270 . S
C162 O146 1.270 . S
C162 O147 1.248 . S
H163 C95 0.930 . S
H164 C98 0.930 . S
H165 C99 0.931 . S
H166 C104 0.929 . S
H167 C106 0.930 . S
H168 C108 0.930 . S
H169 C111 0.929 . S
H170 C112 0.940 . S
H171 C114 0.930 . S
H172 C138 0.929 . S
H173 C139 0.932 . S
H174 C140 0.931 . S
H175 C149 0.931 . S
H176 C151 0.929 . S
H177 C153 0.932 . S
Cd178 O235 2.350 . S
Cd178 O236 2.277 . S
Cd178 O243 2.173 . S
Cd178 O245 2.263 . S
Cd178 O247 2.366 . S
Cd178 O250 2.329 . S
C179 O243 1.277 . S
C179 O244 1.230 . S
C180 O181 1.246 . S
C180 C183 1.481 . S
C180 N205 1.329 . S
O181 C180 1.246 . S
Cd182 O244 2.250 . S
Cd182 O246 2.308 . S
Cd182 O249 2.352 . S
C183 C180 1.481 . S
C183 N186 1.327 . S
C183 C187 1.407 . S
C184 C185 1.346 . S
C184 C188 1.390 . S
C184 H252 0.930 . S
C185 C184 1.346 . S
C185 N186 1.342 . S
C185 C190 1.516 . S
N186 C183 1.327 . S
N186 C185 1.342 . S
N186 Co189 1.864 . S
C187 C183 1.407 . S
C187 C188 1.364 . S
C187 H253 0.930 . S
C188 C184 1.390 . S
C188 C187 1.364 . S
C188 H254 0.931 . S
Co189 N186 1.864 . S
Co189 N205 1.955 . S
Co189 N206 1.958 . S
Co189 N207 1.953 . S
Co189 N225 1.869 . S
Co189 N231 1.974 . S
C190 C185 1.516 . S
C190 O191 1.238 . S
C190 N206 1.324 . S
O191 C190 1.238 . S
C192 C193 1.394 . S
C192 C197 1.395 . S
C192 N206 1.427 . S
C193 C192 1.394 . S
C193 C194 1.380 . S
C193 H255 0.929 . S
C194 C193 1.380 . S
C194 C195 1.384 . S
C194 C198 1.495 . S
C195 C194 1.384 . S
C195 C196 1.382 . S
C195 H256 0.930 . S
C196 C195 1.382 . S
C196 C197 1.398 . S
C197 C192 1.395 . S
C197 C196 1.398 . S
C197 H257 0.930 . S
C198 C194 1.495 . S
C198 O245 1.258 . S
C198 O246 1.274 . S
C199 C200 1.385 . S
C199 C201 1.381 . S
C199 N205 1.432 . S
C200 C199 1.385 . S
C200 C204 1.388 . S
C200 H258 0.929 . S
C201 C199 1.381 . S
C201 C202 1.371 . S
C201 H259 0.932 . S
C202 C201 1.371 . S
C202 C203 1.400 . S
C203 C202 1.400 . S
C203 C204 1.351 . S
C203 H260 0.930 . S
C204 C200 1.388 . S
C204 C203 1.351 . S
N205 C180 1.329 . S
N205 Co189 1.955 . S
N205 C199 1.432 . S
N206 Co189 1.958 . S
N206 C190 1.324 . S
N206 C192 1.427 . S
N207 Co189 1.953 . S
N207 C208 1.436 . S
N207 C234 1.316 . S
C208 N207 1.436 . S
C208 C209 1.421 . S
C208 C210 1.360 . S
C209 C208 1.421 . S
C209 C211 1.379 . S
C209 H212 0.929 . S
C210 C208 1.360 . S
C210 C214 1.393 . S
C210 H216 0.931 . S
C211 C209 1.379 . S
C211 C213 1.417 . S
C211 C215 1.505 . S
H212 C209 0.929 . S
C213 C211 1.417 . S
C213 C214 1.352 . S
C213 H217 0.929 . S
C214 C210 1.393 . S
C214 C213 1.352 . S
C214 C218 1.482 . S
C215 C211 1.505 . S
C215 O219 1.259 . S
C215 O220 1.229 . S
H216 C210 0.931 . S
H217 C213 0.929 . S
C218 C214 1.482 . S
C218 O221 1.207 . S
C218 O222 1.289 . S
O219 C215 1.259 . S
O219 H223 0.822 . S
O220 C215 1.229 . S
O221 C218 1.207 . S
O222 C218 1.289 . S
O222 H224 0.819 . S
H223 O219 0.822 . S
H224 O222 0.819 . S
N225 Co189 1.869 . S
N225 C226 1.330 . S
N225 C230 1.325 . S
C226 N225 1.330 . S
C226 C227 1.359 . S
C226 C232 1.504 . S
C227 C226 1.359 . S
C227 C228 1.366 . S
C227 H261 0.929 . S
C228 C227 1.366 . S
C228 C229 1.415 . S
C228 H262 0.932 . S
C229 C228 1.415 . S
C229 C230 1.366 . S
C229 H263 0.931 . S
C230 N225 1.325 . S
C230 C229 1.366 . S
C230 C234 1.516 . S
N231 Co189 1.974 . S
N231 C232 1.309 . S
N231 C237 1.423 . S
C232 C226 1.504 . S
C232 N231 1.309 . S
C232 O233 1.258 . S
O233 C232 1.258 . S
C234 N207 1.316 . S
C234 C230 1.516 . S
C234 O247 1.263 . S
O235 Cd178 2.350 . S
O235 C251 1.270 . S
O236 Cd178 2.277 . S
O236 C251 1.248 . S
C237 N231 1.423 . S
C237 C238 1.370 . S
C237 C242 1.403 . S
C238 C237 1.370 . S
C238 C239 1.389 . S
C238 H264 0.931 . S
C239 C238 1.389 . S
C239 C240 1.389 . S
C240 C239 1.389 . S
C240 C241 1.379 . S
C240 H265 0.929 . S
C241 C240 1.379 . S
C241 C242 1.405 . S
C242 C237 1.403 . S
C242 C241 1.405 . S
C242 H266 0.932 . S
O243 Cd178 2.173 . S
O243 C179 1.277 . S
O244 C179 1.230 . S
O244 Cd182 2.250 . S
O245 Cd178 2.263 . S
O245 C198 1.258 . S
O246 Cd182 2.308 . S
O246 C198 1.274 . S
O247 Cd178 2.366 . S
O247 C234 1.263 . S
C248 O249 1.235 . S
C248 O250 1.270 . S
O249 Cd182 2.352 . S
O249 C248 1.235 . S
O250 Cd178 2.329 . S
O250 C248 1.270 . S
C251 O235 1.270 . S
C251 O236 1.248 . S
H252 C184 0.930 . S
H253 C187 0.930 . S
H254 C188 0.931 . S
H255 C193 0.929 . S
H256 C195 0.930 . S
H257 C197 0.930 . S
H258 C200 0.929 . S
H259 C201 0.932 . S
H260 C203 0.930 . S
H261 C227 0.929 . S
H262 C228 0.932 . S
H263 C229 0.931 . S
H264 C238 0.931 . S
H265 C240 0.929 . S
H266 C242 0.932 . S
Cd267 O324 2.350 . S
Cd267 O325 2.277 . S
Cd267 O332 2.173 . S
Cd267 O334 2.263 . S
Cd267 O336 2.366 . S
Cd267 O339 2.329 . S
C268 O332 1.277 . S
C268 O333 1.230 . S
C269 O270 1.246 . S
C269 C272 1.481 . S
C269 N294 1.329 . S
O270 C269 1.246 . S
Cd271 O333 2.250 . S
Cd271 O335 2.308 . S
Cd271 O338 2.352 . S
C272 C269 1.481 . S
C272 N275 1.327 . S
C272 C276 1.407 . S
C273 C274 1.346 . S
C273 C277 1.390 . S
C273 H341 0.930 . S
C274 C273 1.346 . S
C274 N275 1.342 . S
C274 C279 1.516 . S
N275 C272 1.327 . S
N275 C274 1.342 . S
N275 Co278 1.864 . S
C276 C272 1.407 . S
C276 C277 1.364 . S
C276 H342 0.930 . S
C277 C273 1.390 . S
C277 C276 1.364 . S
C277 H343 0.931 . S
Co278 N275 1.864 . S
Co278 N294 1.955 . S
Co278 N295 1.958 . S
Co278 N296 1.953 . S
Co278 N314 1.869 . S
Co278 N320 1.974 . S
C279 C274 1.516 . S
C279 O280 1.238 . S
C279 N295 1.324 . S
O280 C279 1.238 . S
C281 C282 1.394 . S
C281 C286 1.395 . S
C281 N295 1.427 . S
C282 C281 1.394 . S
C282 C283 1.380 1_455 S
C282 H344 0.929 . S
C283 C282 1.380 1_655 S
C283 C284 1.384 1_655 S
C283 C287 1.495 . S
C284 C283 1.384 1_455 S
C284 C285 1.382 . S
C284 H345 0.930 1_455 S
C285 C284 1.382 . S
C285 C286 1.398 . S
C286 C281 1.395 . S
C286 C285 1.398 . S
C286 H346 0.930 . S
C287 C283 1.495 . S
C287 O334 1.258 . S
C287 O335 1.274 . S
C288 C289 1.385 . S
C288 C290 1.381 . S
C288 N294 1.432 . S
C289 C288 1.385 . S
C289 C293 1.388 . S
C289 H347 0.929 . S
C290 C288 1.381 . S
C290 C291 1.371 . S
C290 H348 0.932 . S
C291 C290 1.371 . S
C291 C292 1.400 . S
C292 C291 1.400 . S
C292 C293 1.351 . S
C292 H349 0.930 . S
C293 C289 1.388 . S
C293 C292 1.351 . S
N294 C269 1.329 . S
N294 Co278 1.955 . S
N294 C288 1.432 . S
N295 Co278 1.958 . S
N295 C279 1.324 . S
N295 C281 1.427 . S
N296 Co278 1.953 . S
N296 C297 1.436 . S
N296 C323 1.316 1_455 S
C297 N296 1.436 . S
C297 C298 1.421 . S
C297 C299 1.360 . S
C298 C297 1.421 . S
C298 C300 1.379 . S
C298 H301 0.929 . S
C299 C297 1.360 . S
C299 C303 1.393 . S
C299 H305 0.931 . S
C300 C298 1.379 . S
C300 C302 1.417 . S
C300 C304 1.505 . S
H301 C298 0.929 . S
C302 C300 1.417 . S
C302 C303 1.352 . S
C302 H306 0.929 . S
C303 C299 1.393 . S
C303 C302 1.352 . S
C303 C307 1.482 . S
C304 C300 1.505 . S
C304 O308 1.259 . S
C304 O309 1.229 1_455 S
H305 C299 0.931 . S
H306 C302 0.929 . S
C307 C303 1.482 . S
C307 O310 1.207 . S
C307 O311 1.289 . S
O308 C304 1.259 . S
O308 H312 0.822 . S
O309 C304 1.229 1_655 S
O310 C307 1.207 . S
O311 C307 1.289 . S
O311 H313 0.819 . S
H312 O308 0.822 . S
H313 O311 0.819 . S
N314 Co278 1.869 . S
N314 C315 1.330 . S
N314 C319 1.325 . S
C315 N314 1.330 . S
C315 C316 1.359 . S
C315 C321 1.504 . S
C316 C315 1.359 . S
C316 C317 1.366 1_455 S
C316 H350 0.929 . S
C317 C316 1.366 1_655 S
C317 C318 1.415 . S
C317 H351 0.932 . S
C318 C317 1.415 . S
C318 C319 1.366 1_655 S
C318 H352 0.931 . S
C319 N314 1.325 . S
C319 C318 1.366 1_455 S
C319 C323 1.516 1_455 S
N320 Co278 1.974 . S
N320 C321 1.309 . S
N320 C326 1.423 . S
C321 C315 1.504 . S
C321 N320 1.309 . S
C321 O322 1.258 . S
O322 C321 1.258 . S
C323 N296 1.316 1_655 S
C323 C319 1.516 1_655 S
C323 O336 1.263 . S
O324 Cd267 2.350 . S
O324 C340 1.270 . S
O325 Cd267 2.277 . S
O325 C340 1.248 . S
C326 N320 1.423 . S
C326 C327 1.370 . S
C326 C331 1.403 . S
C327 C326 1.370 . S
C327 C328 1.389 . S
C327 H353 0.931 . S
C328 C327 1.389 . S
C328 C329 1.389 . S
C329 C328 1.389 . S
C329 C330 1.379 . S
C329 H354 0.929 . S
C330 C329 1.379 . S
C330 C331 1.405 . S
C331 C326 1.403 . S
C331 C330 1.405 . S
C331 H355 0.932 . S
O332 Cd267 2.173 . S
O332 C268 1.277 . S
O333 C268 1.230 . S
O333 Cd271 2.250 . S
O334 Cd267 2.263 . S
O334 C287 1.258 . S
O335 Cd271 2.308 . S
O335 C287 1.274 . S
O336 Cd267 2.366 . S
O336 C323 1.263 . S
C337 O338 1.235 . S
C337 O339 1.270 . S
O338 Cd271 2.352 . S
O338 C337 1.235 . S
O339 Cd267 2.329 . S
O339 C337 1.270 . S
C340 O324 1.270 . S
C340 O325 1.248 . S
H341 C273 0.930 . S
H342 C276 0.930 . S
H343 C277 0.931 . S
H344 C282 0.929 . S
H345 C284 0.930 1_655 S
H346 C286 0.930 . S
H347 C289 0.929 . S
H348 C290 0.932 . S
H349 C292 0.930 . S
H350 C316 0.929 . S
H351 C317 0.932 . S
H352 C318 0.931 . S
H353 C327 0.931 . S
H354 C329 0.929 . S
H355 C331 0.932 . S
Cd356 O413 2.350 . S
Cd356 O414 2.277 . S
Cd356 O421 2.173 . S
Cd356 O423 2.263 . S
Cd356 O425 2.366 . S
Cd356 O428 2.329 . S
C357 O421 1.277 . S
C357 O422 1.230 . S
C358 O359 1.246 . S
C358 C361 1.481 . S
C358 N383 1.329 . S
O359 C358 1.246 . S
Cd360 O422 2.250 . S
Cd360 O424 2.308 . S
Cd360 O427 2.352 . S
C361 C358 1.481 . S
C361 N364 1.327 . S
C361 C365 1.407 . S
C362 C363 1.346 . S
C362 C366 1.390 . S
C362 H430 0.930 . S
C363 C362 1.346 . S
C363 N364 1.342 . S
C363 C368 1.516 . S
N364 C361 1.327 . S
N364 C363 1.342 . S
N364 Co367 1.864 . S
C365 C361 1.407 . S
C365 C366 1.364 . S
C365 H431 0.930 . S
C366 C362 1.390 . S
C366 C365 1.364 . S
C366 H432 0.931 . S
Co367 N364 1.864 . S
Co367 N383 1.955 . S
Co367 N384 1.958 . S
Co367 N385 1.953 . S
Co367 N403 1.869 . S
Co367 N409 1.974 . S
C368 C363 1.516 . S
C368 O369 1.238 . S
C368 N384 1.324 . S
O369 C368 1.238 . S
C370 C371 1.394 . S
C370 C375 1.395 . S
C370 N384 1.427 . S
C371 C370 1.394 . S
C371 C372 1.380 . S
C371 H433 0.929 . S
C372 C371 1.380 . S
C372 C373 1.384 . S
C372 C376 1.495 . S
C373 C372 1.384 . S
C373 C374 1.382 . S
C373 H434 0.930 . S
C374 C373 1.382 . S
C374 C375 1.398 . S
C375 C370 1.395 . S
C375 C374 1.398 . S
C375 H435 0.930 . S
C376 C372 1.495 . S
C376 O423 1.258 . S
C376 O424 1.274 . S
C377 C378 1.385 . S
C377 C379 1.381 . S
C377 N383 1.432 . S
C378 C377 1.385 . S
C378 C382 1.388 . S
C378 H436 0.929 . S
C379 C377 1.381 . S
C379 C380 1.371 . S
C379 H437 0.932 . S
C380 C379 1.371 . S
C380 C381 1.400 . S
C381 C380 1.400 . S
C381 C382 1.351 . S
C381 H438 0.930 . S
C382 C378 1.388 . S
C382 C381 1.351 . S
N383 C358 1.329 . S
N383 Co367 1.955 . S
N383 C377 1.432 . S
N384 Co367 1.958 . S
N384 C368 1.324 . S
N384 C370 1.427 . S
N385 Co367 1.953 . S
N385 C386 1.436 . S
N385 C412 1.316 . S
C386 N385 1.436 . S
C386 C387 1.421 . S
C386 C388 1.360 . S
C387 C386 1.421 . S
C387 C389 1.379 . S
C387 H390 0.929 . S
C388 C386 1.360 . S
C388 C392 1.393 . S
C388 H394 0.931 . S
C389 C387 1.379 . S
C389 C391 1.417 . S
C389 C393 1.505 . S
H390 C387 0.929 . S
C391 C389 1.417 . S
C391 C392 1.352 . S
C391 H395 0.929 . S
C392 C388 1.393 . S
C392 C391 1.352 . S
C392 C396 1.482 . S
C393 C389 1.505 . S
C393 O397 1.259 . S
C393 O398 1.229 . S
H394 C388 0.931 . S
H395 C391 0.929 . S
C396 C392 1.482 . S
C396 O399 1.207 . S
C396 O400 1.289 . S
O397 C393 1.259 . S
O397 H401 0.822 . S
O398 C393 1.229 . S
O399 C396 1.207 . S
O400 C396 1.289 . S
O400 H402 0.819 . S
H401 O397 0.822 . S
H402 O400 0.819 . S
N403 Co367 1.869 . S
N403 C404 1.330 . S
N403 C408 1.325 . S
C404 N403 1.330 . S
C404 C405 1.359 . S
C404 C410 1.504 . S
C405 C404 1.359 . S
C405 C406 1.366 . S
C405 H439 0.929 . S
C406 C405 1.366 . S
C406 C407 1.415 . S
C406 H440 0.932 . S
C407 C406 1.415 . S
C407 C408 1.366 . S
C407 H441 0.931 . S
C408 N403 1.325 . S
C408 C407 1.366 . S
C408 C412 1.516 . S
N409 Co367 1.974 . S
N409 C410 1.309 . S
N409 C415 1.423 . S
C410 C404 1.504 . S
C410 N409 1.309 . S
C410 O411 1.258 . S
O411 C410 1.258 . S
C412 N385 1.316 . S
C412 C408 1.516 . S
C412 O425 1.263 . S
O413 Cd356 2.350 . S
O413 C429 1.270 . S
O414 Cd356 2.277 . S
O414 C429 1.248 . S
C415 N409 1.423 . S
C415 C416 1.370 . S
C415 C420 1.403 . S
C416 C415 1.370 . S
C416 C417 1.389 . S
C416 H442 0.931 . S
C417 C416 1.389 . S
C417 C418 1.389 . S
C418 C417 1.389 . S
C418 C419 1.379 . S
C418 H443 0.929 . S
C419 C418 1.379 . S
C419 C420 1.405 . S
C420 C415 1.403 . S
C420 C419 1.405 . S
C420 H444 0.932 . S
O421 Cd356 2.173 . S
O421 C357 1.277 . S
O422 C357 1.230 . S
O422 Cd360 2.250 . S
O423 Cd356 2.263 . S
O423 C376 1.258 . S
O424 Cd360 2.308 . S
O424 C376 1.274 . S
O425 Cd356 2.366 . S
O425 C412 1.263 . S
C426 O427 1.235 . S
C426 O428 1.270 . S
O427 Cd360 2.352 . S
O427 C426 1.235 . S
O428 Cd356 2.329 . S
O428 C426 1.270 . S
C429 O413 1.270 . S
C429 O414 1.248 . S
H430 C362 0.930 . S
H431 C365 0.930 . S
H432 C366 0.931 . S
H433 C371 0.929 . S
H434 C373 0.930 . S
H435 C375 0.930 . S
H436 C378 0.929 . S
H437 C379 0.932 . S
H438 C381 0.930 . S
H439 C405 0.929 . S
H440 C406 0.932 . S
H441 C407 0.931 . S
H442 C416 0.931 . S
H443 C418 0.929 . S
H444 C420 0.932 . S
Cd445 O502 2.350 . S
Cd445 O503 2.277 . S
Cd445 O510 2.173 . S
Cd445 O512 2.263 . S
Cd445 O514 2.366 . S
Cd445 O517 2.329 . S
C446 O510 1.277 . S
C446 O511 1.230 . S
C447 O448 1.246 . S
C447 C450 1.481 . S
C447 N472 1.329 . S
O448 C447 1.246 . S
Cd449 O511 2.250 . S
Cd449 O513 2.308 . S
Cd449 O516 2.352 . S
C450 C447 1.481 . S
C450 N453 1.327 . S
C450 C454 1.407 . S
C451 C452 1.346 . S
C451 C455 1.390 . S
C451 H519 0.930 . S
C452 C451 1.346 . S
C452 N453 1.342 . S
C452 C457 1.516 . S
N453 C450 1.327 . S
N453 C452 1.342 . S
N453 Co456 1.864 . S
C454 C450 1.407 . S
C454 C455 1.364 . S
C454 H520 0.930 . S
C455 C451 1.390 . S
C455 C454 1.364 . S
C455 H521 0.931 . S
Co456 N453 1.864 . S
Co456 N472 1.955 . S
Co456 N473 1.958 . S
Co456 N474 1.953 1_565 S
Co456 N492 1.869 1_565 S
Co456 N498 1.974 . S
C457 C452 1.516 . S
C457 O458 1.238 . S
C457 N473 1.324 . S
O458 C457 1.238 . S
C459 C460 1.394 . S
C459 C464 1.395 1_545 S
C459 N473 1.427 1_545 S
C460 C459 1.394 . S
C460 C461 1.380 . S
C460 H522 0.929 . S
C461 C460 1.380 . S
C461 C462 1.384 . S
C461 C465 1.495 . S
C462 C461 1.384 . S
C462 C463 1.382 . S
C462 H523 0.930 . S
C463 C462 1.382 . S
C463 C464 1.398 1_545 S
C464 C459 1.395 1_565 S
C464 C463 1.398 1_565 S
C464 H524 0.930 . S
C465 C461 1.495 . S
C465 O512 1.258 . S
C465 O513 1.274 . S
C466 C467 1.385 . S
C466 C468 1.374 1_545 S
C466 N472 1.432 1_545 S
C467 C466 1.385 . S
C467 C471 1.388 . S
C467 H525 0.929 . S
C468 C466 1.374 1_565 S
C468 C469 1.370 1_565 S
C468 H526 0.940 . S
C469 C468 1.370 1_545 S
C469 C470 1.400 . S
C470 C469 1.400 . S
C470 C471 1.351 . S
C470 H527 0.930 . S
C471 C467 1.388 . S
C471 C470 1.351 . S
N472 C447 1.329 . S
N472 Co456 1.955 . S
N472 C466 1.432 1_565 S
N473 Co456 1.958 . S
N473 C457 1.324 . S
N473 C459 1.427 1_565 S
N474 Co456 1.953 1_545 S
N474 C475 1.436 . S
N474 C501 1.316 . S
C475 N474 1.436 . S
C475 C476 1.421 . S
C475 C477 1.360 . S
C476 C475 1.421 . S
C476 C478 1.379 . S
C476 H479 0.929 . S
C477 C475 1.360 . S
C477 C481 1.393 . S
C477 H483 0.931 . S
C478 C476 1.379 . S
C478 C480 1.417 . S
C478 C482 1.505 . S
H479 C476 0.929 . S
C480 C478 1.417 . S
C480 C481 1.352 . S
C480 H484 0.929 . S
C481 C477 1.393 . S
C481 C480 1.352 . S
C481 C485 1.482 . S
C482 C478 1.505 . S
C482 O486 1.259 . S
C482 O487 1.229 . S
H483 C477 0.931 . S
H484 C480 0.929 . S
C485 C481 1.482 . S
C485 O488 1.207 . S
C485 O489 1.291 1_545 S
O486 C482 1.259 . S
O486 H490 0.822 . S
O487 C482 1.229 . S
O488 C485 1.207 . S
O489 C485 1.291 1_565 S
O489 H491 0.816 . S
H490 O486 0.822 . S
H491 O489 0.816 . S
N492 Co456 1.869 1_545 S
N492 C493 1.330 . S
N492 C497 1.325 . S
C493 N492 1.330 . S
C493 C494 1.359 . S
C493 C499 1.504 1_545 S
C494 C493 1.359 . S
C494 C495 1.366 . S
C494 H528 0.929 . S
C495 C494 1.366 . S
C495 C496 1.415 . S
C495 H529 0.932 . S
C496 C495 1.415 . S
C496 C497 1.366 . S
C496 H530 0.931 . S
C497 N492 1.325 . S
C497 C496 1.366 . S
C497 C501 1.516 . S
N498 Co456 1.974 . S
N498 C499 1.309 . S
N498 C504 1.423 . S
C499 C493 1.504 1_565 S
C499 N498 1.309 . S
C499 O500 1.258 . S
O500 C499 1.258 . S
C501 N474 1.316 . S
C501 C497 1.516 . S
C501 O514 1.263 . S
O502 Cd445 2.350 . S
O502 C518 1.270 . S
O503 Cd445 2.277 . S
O503 C518 1.248 . S
C504 N498 1.423 . S
C504 C505 1.370 . S
C504 C509 1.403 . S
C505 C504 1.370 . S
C505 C506 1.389 . S
C505 H531 0.931 . S
C506 C505 1.389 . S
C506 C507 1.389 . S
C507 C506 1.389 . S
C507 C508 1.379 . S
C507 H532 0.929 . S
C508 C507 1.379 . S
C508 C509 1.405 . S
C509 C504 1.403 . S
C509 C508 1.405 . S
C509 H533 0.932 . S
O510 Cd445 2.173 . S
O510 C446 1.277 . S
O511 C446 1.230 . S
O511 Cd449 2.250 . S
O512 Cd445 2.263 . S
O512 C465 1.258 . S
O513 Cd449 2.308 . S
O513 C465 1.274 . S
O514 Cd445 2.366 . S
O514 C501 1.263 . S
C515 O516 1.235 . S
C515 O517 1.270 . S
O516 Cd449 2.352 . S
O516 C515 1.235 . S
O517 Cd445 2.329 . S
O517 C515 1.270 . S
C518 O502 1.270 . S
C518 O503 1.248 . S
H519 C451 0.930 . S
H520 C454 0.930 . S
H521 C455 0.931 . S
H522 C460 0.929 . S
H523 C462 0.930 . S
H524 C464 0.930 . S
H525 C467 0.929 . S
H526 C468 0.940 . S
H527 C470 0.930 . S
H528 C494 0.929 . S
H529 C495 0.932 . S
H530 C496 0.931 . S
H531 C505 0.931 . S
H532 C507 0.929 . S
H533 C509 0.932 . S
Cd534 O591 2.350 . S
Cd534 O592 2.277 . S
Cd534 O599 2.173 . S
Cd534 O601 2.263 . S
Cd534 O603 2.366 . S
Cd534 O606 2.329 . S
C535 O599 1.277 . S
C535 O600 1.230 . S
C536 O537 1.246 . S
C536 C539 1.481 . S
C536 N561 1.329 . S
O537 C536 1.246 . S
Cd538 O600 2.250 . S
Cd538 O602 2.308 . S
Cd538 O605 2.352 . S
C539 C536 1.481 . S
C539 N542 1.327 . S
C539 C543 1.407 . S
C540 C541 1.346 . S
C540 C544 1.390 . S
C540 H608 0.930 . S
C541 C540 1.346 . S
C541 N542 1.342 . S
C541 C546 1.516 . S
N542 C539 1.327 . S
N542 C541 1.342 . S
N542 Co545 1.864 . S
C543 C539 1.407 . S
C543 C544 1.364 . S
C543 H609 0.930 . S
C544 C540 1.390 . S
C544 C543 1.364 . S
C544 H610 0.931 . S
Co545 N542 1.864 . S
Co545 N561 1.955 . S
Co545 N562 1.958 . S
Co545 N563 1.953 1_565 S
Co545 N581 1.869 1_565 S
Co545 N587 1.974 . S
C546 C541 1.516 . S
C546 O547 1.238 . S
C546 N562 1.324 . S
O547 C546 1.238 . S
C548 C549 1.394 . S
C548 C553 1.395 1_545 S
C548 N562 1.427 1_545 S
C549 C548 1.394 . S
C549 C550 1.380 . S
C549 H611 0.929 . S
C550 C549 1.380 . S
C550 C551 1.384 . S
C550 C554 1.495 . S
C551 C550 1.384 . S
C551 C552 1.382 . S
C551 H612 0.930 . S
C552 C551 1.382 . S
C552 C553 1.398 1_545 S
C553 C548 1.395 1_565 S
C553 C552 1.398 1_565 S
C553 H613 0.929 . S
C554 C550 1.495 . S
C554 O601 1.258 . S
C554 O602 1.274 . S
C555 C556 1.385 . S
C555 C557 1.385 1_545 S
C555 N561 1.432 1_545 S
C556 C555 1.385 . S
C556 C560 1.388 . S
C556 H614 0.929 . S
C557 C555 1.385 1_565 S
C557 C558 1.358 1_565 S
C557 H615 0.940 . S
C558 C557 1.358 1_545 S
C558 C559 1.400 . S
C559 C558 1.400 . S
C559 C560 1.351 . S
C559 H616 0.930 . S
C560 C556 1.388 . S
C560 C559 1.351 . S
N561 C536 1.329 . S
N561 Co545 1.955 . S
N561 C555 1.432 1_565 S
N562 Co545 1.958 . S
N562 C546 1.324 . S
N562 C548 1.427 1_565 S
N563 Co545 1.953 1_545 S
N563 C564 1.436 . S
N563 C590 1.316 . S
C564 N563 1.436 . S
C564 C565 1.421 . S
C564 C566 1.360 . S
C565 C564 1.421 . S
C565 C567 1.379 . S
C565 H568 0.929 . S
C566 C564 1.360 . S
C566 C570 1.393 . S
C566 H572 0.931 . S
C567 C565 1.379 . S
C567 C569 1.417 . S
C567 C571 1.505 . S
H568 C565 0.929 . S
C569 C567 1.417 . S
C569 C570 1.352 . S
C569 H573 0.929 . S
C570 C566 1.393 . S
C570 C569 1.352 . S
C570 C574 1.482 . S
C571 C567 1.505 . S
C571 O575 1.259 . S
C571 O576 1.229 . S
H572 C566 0.931 . S
H573 C569 0.929 . S
C574 C570 1.482 . S
C574 O577 1.207 . S
C574 O578 1.281 1_545 S
O575 C571 1.259 . S
O575 H579 0.822 . S
O576 C571 1.229 . S
O577 C574 1.207 . S
O578 C574 1.281 1_565 S
O578 H580 0.833 . S
H579 O575 0.822 . S
H580 O578 0.833 . S
N581 Co545 1.869 1_545 S
N581 C582 1.330 . S
N581 C586 1.325 . S
C582 N581 1.330 . S
C582 C583 1.359 . S
C582 C588 1.504 1_545 S
C583 C582 1.359 . S
C583 C584 1.366 . S
C583 H617 0.929 . S
C584 C583 1.366 . S
C584 C585 1.415 . S
C584 H618 0.932 . S
C585 C584 1.415 . S
C585 C586 1.366 . S
C585 H619 0.931 . S
C586 N581 1.325 . S
C586 C585 1.366 . S
C586 C590 1.516 . S
N587 Co545 1.974 . S
N587 C588 1.309 . S
N587 C593 1.423 . S
C588 C582 1.504 1_565 S
C588 N587 1.309 . S
C588 O589 1.258 . S
O589 C588 1.258 . S
C590 N563 1.316 . S
C590 C586 1.516 . S
C590 O603 1.263 . S
O591 Cd534 2.350 . S
O591 C607 1.270 . S
O592 Cd534 2.277 . S
O592 C607 1.248 . S
C593 N587 1.423 . S
C593 C594 1.370 . S
C593 C598 1.403 . S
C594 C593 1.370 . S
C594 C595 1.389 . S
C594 H620 0.931 . S
C595 C594 1.389 . S
C595 C596 1.389 . S
C596 C595 1.389 . S
C596 C597 1.379 . S
C596 H621 0.929 . S
C597 C596 1.379 . S
C597 C598 1.405 . S
C598 C593 1.403 . S
C598 C597 1.405 . S
C598 H622 0.932 . S
O599 Cd534 2.173 . S
O599 C535 1.277 . S
O600 C535 1.230 . S
O600 Cd538 2.250 . S
O601 Cd534 2.263 . S
O601 C554 1.258 . S
O602 Cd538 2.308 . S
O602 C554 1.274 . S
O603 Cd534 2.366 . S
O603 C590 1.263 . S
C604 O605 1.235 . S
C604 O606 1.270 . S
O605 Cd538 2.352 . S
O605 C604 1.235 . S
O606 Cd534 2.329 . S
O606 C604 1.270 . S
C607 O591 1.270 . S
C607 O592 1.248 . S
H608 C540 0.930 . S
H609 C543 0.930 . S
H610 C544 0.931 . S
H611 C549 0.929 . S
H612 C551 0.930 . S
H613 C553 0.929 . S
H614 C556 0.929 . S
H615 C557 0.940 . S
H616 C559 0.930 . S
H617 C583 0.929 . S
H618 C584 0.932 . S
H619 C585 0.931 . S
H620 C594 0.931 . S
H621 C596 0.929 . S
H622 C598 0.932 . S
Cd623 O680 2.350 . S
Cd623 O681 2.277 . S
Cd623 O688 2.173 . S
Cd623 O690 2.263 . S
Cd623 O692 2.366 . S
Cd623 O695 2.329 . S
C624 O688 1.277 . S
C624 O689 1.230 . S
C625 O626 1.246 . S
C625 C628 1.481 . S
C625 N650 1.329 . S
O626 C625 1.246 . S
Cd627 O689 2.250 . S
Cd627 O691 2.308 . S
Cd627 O694 2.352 . S
C628 C625 1.481 . S
C628 N631 1.327 . S
C628 C632 1.407 . S
C629 C630 1.346 . S
C629 C633 1.390 . S
C629 H697 0.930 . S
C630 C629 1.346 . S
C630 N631 1.342 . S
C630 C635 1.516 . S
N631 C628 1.327 . S
N631 C630 1.342 . S
N631 Co634 1.864 . S
C632 C628 1.407 . S
C632 C633 1.364 . S
C632 H698 0.930 . S
C633 C629 1.390 . S
C633 C632 1.364 . S
C633 H699 0.931 . S
Co634 N631 1.864 . S
Co634 N650 1.955 . S
Co634 N651 1.958 . S
Co634 N652 1.953 . S
Co634 N670 1.869 . S
Co634 N676 1.974 . S
C635 C630 1.516 . S
C635 O636 1.238 . S
C635 N651 1.324 . S
O636 C635 1.238 . S
C637 C638 1.394 . S
C637 C642 1.395 . S
C637 N651 1.427 . S
C638 C637 1.394 . S
C638 C639 1.380 1_455 S
C638 H700 0.929 . S
C639 C638 1.380 1_655 S
C639 C640 1.384 1_655 S
C639 C643 1.495 . S
C640 C639 1.384 1_455 S
C640 C641 1.382 . S
C640 H701 0.930 1_455 S
C641 C640 1.382 . S
C641 C642 1.398 . S
C642 C637 1.395 . S
C642 C641 1.398 . S
C642 H702 0.930 . S
C643 C639 1.495 . S
C643 O690 1.258 . S
C643 O691 1.274 . S
C644 C645 1.385 . S
C644 C646 1.381 . S
C644 N650 1.432 . S
C645 C644 1.385 . S
C645 C649 1.388 . S
C645 H703 0.929 . S
C646 C644 1.381 . S
C646 C647 1.371 . S
C646 H704 0.932 . S
C647 C646 1.371 . S
C647 C648 1.400 . S
C648 C647 1.400 . S
C648 C649 1.351 . S
C648 H705 0.930 . S
C649 C645 1.388 . S
C649 C648 1.351 . S
N650 C625 1.329 . S
N650 Co634 1.955 . S
N650 C644 1.432 . S
N651 Co634 1.958 . S
N651 C635 1.324 . S
N651 C637 1.427 . S
N652 Co634 1.953 . S
N652 C653 1.436 . S
N652 C679 1.316 1_455 S
C653 N652 1.436 . S
C653 C654 1.421 . S
C653 C655 1.360 . S
C654 C653 1.421 . S
C654 C656 1.379 . S
C654 H657 0.929 . S
C655 C653 1.360 . S
C655 C659 1.393 . S
C655 H661 0.931 . S
C656 C654 1.379 . S
C656 C658 1.417 . S
C656 C660 1.505 . S
H657 C654 0.929 . S
C658 C656 1.417 . S
C658 C659 1.352 . S
C658 H662 0.929 . S
C659 C655 1.393 . S
C659 C658 1.352 . S
C659 C663 1.482 . S
C660 C656 1.505 . S
C660 O664 1.259 . S
C660 O665 1.229 1_455 S
H661 C655 0.931 . S
H662 C658 0.929 . S
C663 C659 1.482 . S
C663 O666 1.207 . S
C663 O667 1.289 . S
O664 C660 1.259 . S
O664 H668 0.822 . S
O665 C660 1.229 1_655 S
O666 C663 1.207 . S
O667 C663 1.289 . S
O667 H669 0.819 . S
H668 O664 0.822 . S
H669 O667 0.819 . S
N670 Co634 1.869 . S
N670 C671 1.330 . S
N670 C675 1.325 . S
C671 N670 1.330 . S
C671 C672 1.359 . S
C671 C677 1.504 . S
C672 C671 1.359 . S
C672 C673 1.366 1_455 S
C672 H706 0.929 . S
C673 C672 1.366 1_655 S
C673 C674 1.415 . S
C673 H707 0.932 . S
C674 C673 1.415 . S
C674 C675 1.366 1_655 S
C674 H708 0.931 . S
C675 N670 1.325 . S
C675 C674 1.366 1_455 S
C675 C679 1.516 1_455 S
N676 Co634 1.974 . S
N676 C677 1.309 . S
N676 C682 1.423 . S
C677 C671 1.504 . S
C677 N676 1.309 . S
C677 O678 1.258 . S
O678 C677 1.258 . S
C679 N652 1.316 1_655 S
C679 C675 1.516 1_655 S
C679 O692 1.263 . S
O680 Cd623 2.350 . S
O680 C696 1.270 . S
O681 Cd623 2.277 . S
O681 C696 1.248 . S
C682 N676 1.423 . S
C682 C683 1.370 . S
C682 C687 1.403 . S
C683 C682 1.370 . S
C683 C684 1.389 . S
C683 H709 0.931 . S
C684 C683 1.389 . S
C684 C685 1.389 . S
C685 C684 1.389 . S
C685 C686 1.379 . S
C685 H710 0.929 . S
C686 C685 1.379 . S
C686 C687 1.405 . S
C687 C682 1.403 . S
C687 C686 1.405 . S
C687 H711 0.932 . S
O688 Cd623 2.173 . S
O688 C624 1.277 . S
O689 C624 1.230 . S
O689 Cd627 2.250 . S
O690 Cd623 2.263 . S
O690 C643 1.258 . S
O691 Cd627 2.308 . S
O691 C643 1.274 . S
O692 Cd623 2.366 . S
O692 C679 1.263 . S
C693 O694 1.235 . S
C693 O695 1.270 . S
O694 Cd627 2.352 . S
O694 C693 1.235 . S
O695 Cd623 2.329 . S
O695 C693 1.270 . S
C696 O680 1.270 . S
C696 O681 1.248 . S
H697 C629 0.930 . S
H698 C632 0.930 . S
H699 C633 0.931 . S
H700 C638 0.929 . S
H701 C640 0.930 1_655 S
H702 C642 0.930 . S
H703 C645 0.929 . S
H704 C646 0.932 . S
H705 C648 0.930 . S
H706 C672 0.929 . S
H707 C673 0.932 . S
H708 C674 0.931 . S
H709 C683 0.931 . S
H710 C685 0.929 . S
H711 C687 0.932 . S
Cd712 O769 2.350 . S
Cd712 O770 2.277 . S
Cd712 O777 2.173 . S
Cd712 O779 2.263 . S
Cd712 O781 2.366 . S
Cd712 O784 2.329 . S
C713 O777 1.277 . S
C713 O778 1.230 . S
C714 O715 1.246 . S
C714 C717 1.481 . S
C714 N739 1.329 . S
O715 C714 1.246 . S
Cd716 O778 2.250 . S
Cd716 O780 2.308 . S
Cd716 O783 2.352 . S
C717 C714 1.481 . S
C717 N720 1.327 . S
C717 C721 1.407 . S
C718 C719 1.346 . S
C718 C722 1.390 . S
C718 H786 0.930 . S
C719 C718 1.346 . S
C719 N720 1.342 . S
C719 C724 1.516 . S
N720 C717 1.327 . S
N720 C719 1.342 . S
N720 Co723 1.864 . S
C721 C717 1.407 . S
C721 C722 1.364 . S
C721 H787 0.930 . S
C722 C718 1.390 . S
C722 C721 1.364 . S
C722 H788 0.931 . S
Co723 N720 1.864 . S
Co723 N739 1.955 . S
Co723 N740 1.958 . S
Co723 N741 1.953 . S
Co723 N759 1.869 . S
Co723 N765 1.974 . S
C724 C719 1.516 . S
C724 O725 1.238 . S
C724 N740 1.324 . S
O725 C724 1.238 . S
C726 C727 1.394 . S
C726 C731 1.395 . S
C726 N740 1.427 . S
C727 C726 1.394 . S
C727 C728 1.380 . S
C727 H789 0.929 . S
C728 C727 1.380 . S
C728 C729 1.384 . S
C728 C732 1.495 . S
C729 C728 1.384 . S
C729 C730 1.382 . S
C729 H790 0.930 . S
C730 C729 1.382 . S
C730 C731 1.398 . S
C731 C726 1.395 . S
C731 C730 1.398 . S
C731 H791 0.930 . S
C732 C728 1.495 . S
C732 O779 1.258 . S
C732 O780 1.274 . S
C733 C734 1.385 . S
C733 C735 1.381 . S
C733 N739 1.432 . S
C734 C733 1.385 . S
C734 C738 1.388 . S
C734 H792 0.929 . S
C735 C733 1.381 . S
C735 C736 1.371 . S
C735 H793 0.932 . S
C736 C735 1.371 . S
C736 C737 1.400 . S
C737 C736 1.400 . S
C737 C738 1.351 . S
C737 H794 0.930 . S
C738 C734 1.388 . S
C738 C737 1.351 . S
N739 C714 1.329 . S
N739 Co723 1.955 . S
N739 C733 1.432 . S
N740 Co723 1.958 . S
N740 C724 1.324 . S
N740 C726 1.427 . S
N741 Co723 1.953 . S
N741 C742 1.436 . S
N741 C768 1.316 . S
C742 N741 1.436 . S
C742 C743 1.421 . S
C742 C744 1.360 . S
C743 C742 1.421 . S
C743 C745 1.379 . S
C743 H746 0.929 . S
C744 C742 1.360 . S
C744 C748 1.393 . S
C744 H750 0.931 . S
C745 C743 1.379 . S
C745 C747 1.417 . S
C745 C749 1.505 . S
H746 C743 0.929 . S
C747 C745 1.417 . S
C747 C748 1.352 . S
C747 H751 0.929 . S
C748 C744 1.393 . S
C748 C747 1.352 . S
C748 C752 1.482 . S
C749 C745 1.505 . S
C749 O753 1.259 . S
C749 O754 1.229 . S
H750 C744 0.931 . S
H751 C747 0.929 . S
C752 C748 1.482 . S
C752 O755 1.207 . S
C752 O756 1.289 . S
O753 C749 1.259 . S
O753 H757 0.822 . S
O754 C749 1.229 . S
O755 C752 1.207 . S
O756 C752 1.289 . S
O756 H758 0.819 . S
H757 O753 0.822 . S
H758 O756 0.819 . S
N759 Co723 1.869 . S
N759 C760 1.330 . S
N759 C764 1.325 . S
C760 N759 1.330 . S
C760 C761 1.359 . S
C760 C766 1.504 . S
C761 C760 1.359 . S
C761 C762 1.366 . S
C761 H795 0.929 . S
C762 C761 1.366 . S
C762 C763 1.415 . S
C762 H796 0.932 . S
C763 C762 1.415 . S
C763 C764 1.366 . S
C763 H797 0.931 . S
C764 N759 1.325 . S
C764 C763 1.366 . S
C764 C768 1.516 . S
N765 Co723 1.974 . S
N765 C766 1.309 . S
N765 C771 1.423 . S
C766 C760 1.504 . S
C766 N765 1.309 . S
C766 O767 1.258 . S
O767 C766 1.258 . S
C768 N741 1.316 . S
C768 C764 1.516 . S
C768 O781 1.263 . S
O769 Cd712 2.350 . S
O769 C785 1.270 . S
O770 Cd712 2.277 . S
O770 C785 1.248 . S
C771 N765 1.423 . S
C771 C772 1.370 . S
C771 C776 1.403 . S
C772 C771 1.370 . S
C772 C773 1.389 . S
C772 H798 0.931 . S
C773 C772 1.389 . S
C773 C774 1.389 . S
C774 C773 1.389 . S
C774 C775 1.379 . S
C774 H799 0.929 . S
C775 C774 1.379 . S
C775 C776 1.405 . S
C776 C771 1.403 . S
C776 C775 1.405 . S
C776 H800 0.932 . S
O777 Cd712 2.173 . S
O777 C713 1.277 . S
O778 C713 1.230 . S
O778 Cd716 2.250 . S
O779 Cd712 2.263 . S
O779 C732 1.258 . S
O780 Cd716 2.308 . S
O780 C732 1.274 . S
O781 Cd712 2.366 . S
O781 C768 1.263 . S
C782 O783 1.235 . S
C782 O784 1.270 . S
O783 Cd716 2.352 . S
O783 C782 1.235 . S
O784 Cd712 2.329 . S
O784 C782 1.270 . S
C785 O769 1.270 . S
C785 O770 1.248 . S
H786 C718 0.930 . S
H787 C721 0.930 . S
H788 C722 0.931 . S
H789 C727 0.929 . S
H790 C729 0.930 . S
H791 C731 0.930 . S
H792 C734 0.929 . S
H793 C735 0.932 . S
H794 C737 0.930 . S
H795 C761 0.929 . S
H796 C762 0.932 . S
H797 C763 0.931 . S
H798 C772 0.931 . S
H799 C774 0.929 . S
H800 C776 0.932 . S
Cd801 O858 2.350 . S
Cd801 O859 2.277 . S
Cd801 O866 2.173 . S
Cd801 O868 2.263 . S
Cd801 O870 2.366 . S
Cd801 O873 2.329 . S
C802 O866 1.277 . S
C802 O867 1.230 . S
C803 O804 1.246 . S
C803 C806 1.481 . S
C803 N828 1.329 . S
O804 C803 1.246 . S
Cd805 O867 2.250 . S
Cd805 O869 2.308 . S
Cd805 O872 2.352 . S
C806 C803 1.481 . S
C806 N809 1.327 . S
C806 C810 1.407 . S
C807 C808 1.346 . S
C807 C811 1.390 . S
C807 H875 0.930 . S
C808 C807 1.346 . S
C808 N809 1.342 . S
C808 C813 1.516 . S
N809 C806 1.327 . S
N809 C808 1.342 . S
N809 Co812 1.864 . S
C810 C806 1.407 . S
C810 C811 1.364 . S
C810 H876 0.930 . S
C811 C807 1.390 . S
C811 C810 1.364 . S
C811 H877 0.931 . S
Co812 N809 1.864 . S
Co812 N828 1.955 . S
Co812 N829 1.958 . S
Co812 N830 1.953 1_655 S
Co812 N848 1.869 1_655 S
Co812 N854 1.974 . S
C813 C808 1.516 . S
C813 O814 1.238 . S
C813 N829 1.324 . S
O814 C813 1.238 . S
C815 C816 1.394 . S
C815 C820 1.395 1_455 S
C815 N829 1.427 1_455 S
C816 C815 1.394 . S
C816 C817 1.380 . S
C816 H878 0.929 . S
C817 C816 1.380 . S
C817 C818 1.384 . S
C817 C821 1.495 . S
C818 C817 1.384 . S
C818 C819 1.382 . S
C818 H879 0.930 . S
C819 C818 1.382 . S
C819 C820 1.398 1_455 S
C820 C815 1.395 1_655 S
C820 C819 1.398 1_655 S
C820 H880 0.929 . S
C821 C817 1.495 . S
C821 O868 1.258 . S
C821 O869 1.274 . S
C822 C823 1.385 . S
C822 C824 1.385 1_455 S
C822 N828 1.432 1_455 S
C823 C822 1.385 . S
C823 C827 1.388 . S
C823 H881 0.929 . S
C824 C822 1.385 1_655 S
C824 C825 1.358 1_655 S
C824 H882 0.940 . S
C825 C824 1.358 1_455 S
C825 C826 1.400 . S
C826 C825 1.400 . S
C826 C827 1.351 . S
C826 H883 0.930 . S
C827 C823 1.388 . S
C827 C826 1.351 . S
N828 C803 1.329 . S
N828 Co812 1.955 . S
N828 C822 1.432 1_655 S
N829 Co812 1.958 . S
N829 C813 1.324 . S
N829 C815 1.427 1_655 S
N830 Co812 1.953 1_455 S
N830 C831 1.436 . S
N830 C857 1.316 . S
C831 N830 1.436 . S
C831 C832 1.421 . S
C831 C833 1.360 . S
C832 C831 1.421 . S
C832 C834 1.379 . S
C832 H835 0.929 . S
C833 C831 1.360 . S
C833 C837 1.393 . S
C833 H839 0.931 . S
C834 C832 1.379 . S
C834 C836 1.417 . S
C834 C838 1.505 . S
H835 C832 0.929 . S
C836 C834 1.417 . S
C836 C837 1.352 . S
C836 H840 0.929 . S
C837 C833 1.393 . S
C837 C836 1.352 . S
C837 C841 1.482 . S
C838 C834 1.505 . S
C838 O842 1.259 . S
C838 O843 1.229 . S
H839 C833 0.931 . S
H840 C836 0.929 . S
C841 C837 1.482 . S
C841 O844 1.207 . S
C841 O845 1.281 1_455 S
O842 C838 1.259 . S
O842 H846 0.822 . S
O843 C838 1.229 . S
O844 C841 1.207 . S
O845 C841 1.281 1_655 S
O845 H847 0.833 . S
H846 O842 0.822 . S
H847 O845 0.833 . S
N848 Co812 1.869 1_455 S
N848 C849 1.330 . S
N848 C853 1.325 . S
C849 N848 1.330 . S
C849 C850 1.359 . S
C849 C855 1.504 1_455 S
C850 C849 1.359 . S
C850 C851 1.366 . S
C850 H884 0.929 . S
C851 C850 1.366 . S
C851 C852 1.415 . S
C851 H885 0.932 . S
C852 C851 1.415 . S
C852 C853 1.366 . S
C852 H886 0.931 . S
C853 N848 1.325 . S
C853 C852 1.366 . S
C853 C857 1.516 . S
N854 Co812 1.974 . S
N854 C855 1.309 . S
N854 C860 1.423 . S
C855 C849 1.504 1_655 S
C855 N854 1.309 . S
C855 O856 1.258 . S
O856 C855 1.258 . S
C857 N830 1.316 . S
C857 C853 1.516 . S
C857 O870 1.263 . S
O858 Cd801 2.350 . S
O858 C874 1.270 . S
O859 Cd801 2.277 . S
O859 C874 1.248 . S
C860 N854 1.423 . S
C860 C861 1.370 . S
C860 C865 1.403 . S
C861 C860 1.370 . S
C861 C862 1.389 . S
C861 H887 0.931 . S
C862 C861 1.389 . S
C862 C863 1.389 . S
C863 C862 1.389 . S
C863 C864 1.379 . S
C863 H888 0.929 . S
C864 C863 1.379 . S
C864 C865 1.405 . S
C865 C860 1.403 . S
C865 C864 1.405 . S
C865 H889 0.932 . S
O866 Cd801 2.173 . S
O866 C802 1.277 . S
O867 C802 1.230 . S
O867 Cd805 2.250 . S
O868 Cd801 2.263 . S
O868 C821 1.258 . S
O869 Cd805 2.308 . S
O869 C821 1.274 . S
O870 Cd801 2.366 . S
O870 C857 1.263 . S
C871 O872 1.235 . S
C871 O873 1.270 . S
O872 Cd805 2.352 . S
O872 C871 1.235 . S
O873 Cd801 2.329 . S
O873 C871 1.270 . S
C874 O858 1.270 . S
C874 O859 1.248 . S
H875 C807 0.930 . S
H876 C810 0.930 . S
H877 C811 0.931 . S
H878 C816 0.929 . S
H879 C818 0.930 . S
H880 C820 0.929 . S
H881 C823 0.929 . S
H882 C824 0.940 . S
H883 C826 0.930 . S
H884 C850 0.929 . S
H885 C851 0.932 . S
H886 C852 0.931 . S
H887 C861 0.931 . S
H888 C863 0.929 . S
H889 C865 0.932 . S
Cd890 O947 2.350 . S
Cd890 O948 2.277 . S
Cd890 O955 2.173 . S
Cd890 O957 2.263 . S
Cd890 O959 2.366 . S
Cd890 O962 2.329 . S
C891 O955 1.277 . S
C891 O956 1.230 . S
C892 O893 1.246 . S
C892 C895 1.481 . S
C892 N917 1.329 . S
O893 C892 1.246 . S
Cd894 O956 2.250 . S
Cd894 O958 2.308 . S
Cd894 O961 2.352 . S
C895 C892 1.481 . S
C895 N898 1.327 . S
C895 C899 1.407 . S
C896 C897 1.346 . S
C896 C900 1.390 . S
C896 H964 0.930 . S
C897 C896 1.346 . S
C897 N898 1.342 . S
C897 C902 1.516 . S
N898 C895 1.327 . S
N898 C897 1.342 . S
N898 Co901 1.864 . S
C899 C895 1.407 . S
C899 C900 1.364 . S
C899 H965 0.930 . S
C900 C896 1.390 . S
C900 C899 1.364 . S
C900 H966 0.931 . S
Co901 N898 1.864 . S
Co901 N917 1.955 . S
Co901 N918 1.958 . S
Co901 N919 1.953 . S
Co901 N937 1.869 . S
Co901 N943 1.974 . S
C902 C897 1.516 . S
C902 O903 1.238 . S
C902 N918 1.324 . S
O903 C902 1.238 . S
C904 C905 1.394 . S
C904 C909 1.395 . S
C904 N918 1.427 . S
C905 C904 1.394 . S
C905 C906 1.380 . S
C905 H967 0.929 . S
C906 C905 1.380 . S
C906 C907 1.384 . S
C906 C910 1.495 . S
C907 C906 1.384 . S
C907 C908 1.382 . S
C907 H968 0.930 . S
C908 C907 1.382 . S
C908 C909 1.398 . S
C909 C904 1.395 . S
C909 C908 1.398 . S
C909 H969 0.930 . S
C910 C906 1.495 . S
C910 O957 1.258 . S
C910 O958 1.274 . S
C911 C912 1.385 . S
C911 C913 1.381 . S
C911 N917 1.432 . S
C912 C911 1.385 . S
C912 C916 1.388 . S
C912 H970 0.929 . S
C913 C911 1.381 . S
C913 C914 1.371 . S
C913 H971 0.932 . S
C914 C913 1.371 . S
C914 C915 1.400 . S
C915 C914 1.400 . S
C915 C916 1.351 . S
C915 H972 0.930 . S
C916 C912 1.388 . S
C916 C915 1.351 . S
N917 C892 1.329 . S
N917 Co901 1.955 . S
N917 C911 1.432 . S
N918 Co901 1.958 . S
N918 C902 1.324 . S
N918 C904 1.427 . S
N919 Co901 1.953 . S
N919 C920 1.436 . S
N919 C946 1.316 . S
C920 N919 1.436 . S
C920 C921 1.421 . S
C920 C922 1.360 . S
C921 C920 1.421 . S
C921 C923 1.379 . S
C921 H924 0.929 . S
C922 C920 1.360 . S
C922 C926 1.393 . S
C922 H928 0.931 . S
C923 C921 1.379 . S
C923 C925 1.417 . S
C923 C927 1.505 . S
H924 C921 0.929 . S
C925 C923 1.417 . S
C925 C926 1.352 . S
C925 H929 0.929 . S
C926 C922 1.393 . S
C926 C925 1.352 . S
C926 C930 1.482 . S
C927 C923 1.505 . S
C927 O931 1.259 . S
C927 O932 1.229 . S
H928 C922 0.931 . S
H929 C925 0.929 . S
C930 C926 1.482 . S
C930 O933 1.207 . S
C930 O934 1.289 . S
O931 C927 1.259 . S
O931 H935 0.822 . S
O932 C927 1.229 . S
O933 C930 1.207 . S
O934 C930 1.289 . S
O934 H936 0.819 . S
H935 O931 0.822 . S
H936 O934 0.819 . S
N937 Co901 1.869 . S
N937 C938 1.330 . S
N937 C942 1.325 . S
C938 N937 1.330 . S
C938 C939 1.359 . S
C938 C944 1.504 . S
C939 C938 1.359 . S
C939 C940 1.366 . S
C939 H973 0.929 . S
C940 C939 1.366 . S
C940 C941 1.415 . S
C940 H974 0.932 . S
C941 C940 1.415 . S
C941 C942 1.366 . S
C941 H975 0.931 . S
C942 N937 1.325 . S
C942 C941 1.366 . S
C942 C946 1.516 . S
N943 Co901 1.974 . S
N943 C944 1.309 . S
N943 C949 1.423 . S
C944 C938 1.504 . S
C944 N943 1.309 . S
C944 O945 1.258 . S
O945 C944 1.258 . S
C946 N919 1.316 . S
C946 C942 1.516 . S
C946 O959 1.263 . S
O947 Cd890 2.350 . S
O947 C963 1.270 . S
O948 Cd890 2.277 . S
O948 C963 1.248 . S
C949 N943 1.423 . S
C949 C950 1.370 . S
C949 C954 1.403 . S
C950 C949 1.370 . S
C950 C951 1.389 . S
C950 H976 0.931 . S
C951 C950 1.389 . S
C951 C952 1.389 . S
C952 C951 1.389 . S
C952 C953 1.379 . S
C952 H977 0.929 . S
C953 C952 1.379 . S
C953 C954 1.405 . S
C954 C949 1.403 . S
C954 C953 1.405 . S
C954 H978 0.932 . S
O955 Cd890 2.173 . S
O955 C891 1.277 . S
O956 C891 1.230 . S
O956 Cd894 2.250 . S
O957 Cd890 2.263 . S
O957 C910 1.258 . S
O958 Cd894 2.308 . S
O958 C910 1.274 . S
O959 Cd890 2.366 . S
O959 C946 1.263 . S
C960 O961 1.235 . S
C960 O962 1.270 . S
O961 Cd894 2.352 . S
O961 C960 1.235 . S
O962 Cd890 2.329 . S
O962 C960 1.270 . S
C963 O947 1.270 . S
C963 O948 1.248 . S
H964 C896 0.930 . S
H965 C899 0.930 . S
H966 C900 0.931 . S
H967 C905 0.929 . S
H968 C907 0.930 . S
H969 C909 0.930 . S
H970 C912 0.929 . S
H971 C913 0.932 . S
H972 C915 0.930 . S
H973 C939 0.929 . S
H974 C940 0.932 . S
H975 C941 0.931 . S
H976 C950 0.931 . S
H977 C952 0.929 . S
H978 C954 0.932 . S
Cd979 O1036 2.350 . S
Cd979 O1037 2.277 . S
Cd979 O1044 2.173 . S
Cd979 O1046 2.263 . S
Cd979 O1048 2.366 . S
Cd979 O1051 2.329 . S
C980 O1044 1.277 . S
C980 O1045 1.230 . S
C981 O982 1.246 . S
C981 C984 1.481 . S
C981 N1006 1.329 . S
O982 C981 1.246 . S
Cd983 O1045 2.250 . S
Cd983 O1047 2.308 . S
Cd983 O1050 2.352 . S
C984 C981 1.481 . S
C984 N987 1.327 . S
C984 C988 1.407 . S
C985 C986 1.346 . S
C985 C989 1.390 . S
C985 H1053 0.930 . S
C986 C985 1.346 . S
C986 N987 1.342 . S
C986 C991 1.516 . S
N987 C984 1.327 . S
N987 C986 1.342 . S
N987 Co990 1.864 . S
C988 C984 1.407 . S
C988 C989 1.364 . S
C988 H1054 0.930 . S
C989 C985 1.390 . S
C989 C988 1.364 . S
C989 H1055 0.931 . S
Co990 N987 1.864 . S
Co990 N1006 1.955 . S
Co990 N1007 1.958 . S
Co990 N1008 1.953 . S
Co990 N1026 1.869 . S
Co990 N1032 1.974 . S
C991 C986 1.516 . S
C991 O992 1.238 . S
C991 N1007 1.324 . S
O992 C991 1.238 . S
C993 C994 1.394 . S
C993 C998 1.395 . S
C993 N1007 1.427 . S
C994 C993 1.394 . S
C994 C995 1.380 1_545 S
C994 H1056 0.929 . S
C995 C994 1.380 1_565 S
C995 C996 1.384 1_565 S
C995 C999 1.495 . S
C996 C995 1.384 1_545 S
C996 C997 1.382 . S
C996 H1057 0.930 1_545 S
C997 C996 1.382 . S
C997 C998 1.398 . S
C998 C993 1.395 . S
C998 C997 1.398 . S
C998 H1058 0.930 . S
C999 C995 1.495 . S
C999 O1046 1.258 . S
C999 O1047 1.274 . S
C1000 C1001 1.385 . S
C1000 C1002 1.381 . S
C1000 N1006 1.432 . S
C1001 C1000 1.385 . S
C1001 C1005 1.388 . S
C1001 H1059 0.929 . S
C1002 C1000 1.381 . S
C1002 C1003 1.371 . S
C1002 H1060 0.932 . S
C1003 C1002 1.371 . S
C1003 C1004 1.400 . S
C1004 C1003 1.400 . S
C1004 C1005 1.351 . S
C1004 H1061 0.930 . S
C1005 C1001 1.388 . S
C1005 C1004 1.351 . S
N1006 C981 1.329 . S
N1006 Co990 1.955 . S
N1006 C1000 1.432 . S
N1007 Co990 1.958 . S
N1007 C991 1.324 . S
N1007 C993 1.427 . S
N1008 Co990 1.953 . S
N1008 C1009 1.436 . S
N1008 C1035 1.316 1_545 S
C1009 N1008 1.436 . S
C1009 C1010 1.421 . S
C1009 C1011 1.360 . S
C1010 C1009 1.421 . S
C1010 C1012 1.379 . S
C1010 H1013 0.929 . S
C1011 C1009 1.360 . S
C1011 C1015 1.393 . S
C1011 H1017 0.931 . S
C1012 C1010 1.379 . S
C1012 C1014 1.417 . S
C1012 C1016 1.505 . S
H1013 C1010 0.929 . S
C1014 C1012 1.417 . S
C1014 C1015 1.352 . S
C1014 H1018 0.929 . S
C1015 C1011 1.393 . S
C1015 C1014 1.352 . S
C1015 C1019 1.482 . S
C1016 C1012 1.505 . S
C1016 O1020 1.259 . S
C1016 O1021 1.229 1_545 S
H1017 C1011 0.931 . S
H1018 C1014 0.929 . S
C1019 C1015 1.482 . S
C1019 O1022 1.207 . S
C1019 O1023 1.289 . S
O1020 C1016 1.259 . S
O1020 H1024 0.822 . S
O1021 C1016 1.229 1_565 S
O1022 C1019 1.207 . S
O1023 C1019 1.289 . S
O1023 H1025 0.819 . S
H1024 O1020 0.822 . S
H1025 O1023 0.819 . S
N1026 Co990 1.869 . S
N1026 C1027 1.330 . S
N1026 C1031 1.325 . S
C1027 N1026 1.330 . S
C1027 C1028 1.359 . S
C1027 C1033 1.504 . S
C1028 C1027 1.359 . S
C1028 C1029 1.366 1_545 S
C1028 H1062 0.929 . S
C1029 C1028 1.366 1_565 S
C1029 C1030 1.415 . S
C1029 H1063 0.932 . S
C1030 C1029 1.415 . S
C1030 C1031 1.366 1_565 S
C1030 H1064 0.931 . S
C1031 N1026 1.325 . S
C1031 C1030 1.366 1_545 S
C1031 C1035 1.516 1_545 S
N1032 Co990 1.974 . S
N1032 C1033 1.309 . S
N1032 C1038 1.423 . S
C1033 C1027 1.504 . S
C1033 N1032 1.309 . S
C1033 O1034 1.258 . S
O1034 C1033 1.258 . S
C1035 N1008 1.316 1_565 S
C1035 C1031 1.516 1_565 S
C1035 O1048 1.263 . S
O1036 Cd979 2.350 . S
O1036 C1052 1.270 . S
O1037 Cd979 2.277 . S
O1037 C1052 1.248 . S
C1038 N1032 1.423 . S
C1038 C1039 1.370 . S
C1038 C1043 1.403 . S
C1039 C1038 1.370 . S
C1039 C1040 1.389 . S
C1039 H1065 0.931 . S
C1040 C1039 1.389 . S
C1040 C1041 1.389 . S
C1041 C1040 1.389 . S
C1041 C1042 1.379 . S
C1041 H1066 0.929 . S
C1042 C1041 1.379 . S
C1042 C1043 1.405 . S
C1043 C1038 1.403 . S
C1043 C1042 1.405 . S
C1043 H1067 0.932 . S
O1044 Cd979 2.173 . S
O1044 C980 1.277 . S
O1045 C980 1.230 . S
O1045 Cd983 2.250 . S
O1046 Cd979 2.263 . S
O1046 C999 1.258 . S
O1047 Cd983 2.308 . S
O1047 C999 1.274 . S
O1048 Cd979 2.366 . S
O1048 C1035 1.263 . S
C1049 O1050 1.235 . S
C1049 O1051 1.270 . S
O1050 Cd983 2.352 . S
O1050 C1049 1.235 . S
O1051 Cd979 2.329 . S
O1051 C1049 1.270 . S
C1052 O1036 1.270 . S
C1052 O1037 1.248 . S
H1053 C985 0.930 . S
H1054 C988 0.930 . S
H1055 C989 0.931 . S
H1056 C994 0.929 . S
H1057 C996 0.930 1_565 S
H1058 C998 0.930 . S
H1059 C1001 0.929 . S
H1060 C1002 0.932 . S
H1061 C1004 0.930 . S
H1062 C1028 0.929 . S
H1063 C1029 0.932 . S
H1064 C1030 0.931 . S
H1065 C1039 0.931 . S
H1066 C1041 0.929 . S
H1067 C1043 0.932 . S
Cd1068 O1125 2.350 1_455 S
Cd1068 O1126 2.277 . S
Cd1068 O1133 2.173 . S
Cd1068 O1135 2.263 . S
Cd1068 O1137 2.366 . S
Cd1068 O1140 2.329 1_455 S
C1069 O1133 1.277 . S
C1069 O1134 1.230 . S
C1070 O1071 1.246 . S
C1070 C1073 1.481 . S
C1070 N1095 1.329 . S
O1071 C1070 1.246 . S
Cd1072 O1134 2.250 1_655 S
Cd1072 O1136 2.308 . S
Cd1072 O1139 2.352 . S
C1073 C1070 1.481 . S
C1073 N1076 1.327 . S
C1073 C1077 1.407 . S
C1074 C1075 1.346 . S
C1074 C1078 1.390 . S
C1074 H1142 0.930 . S
C1075 C1074 1.346 . S
C1075 N1076 1.342 . S
C1075 C1080 1.516 . S
N1076 C1073 1.327 . S
N1076 C1075 1.342 . S
N1076 Co1079 1.864 . S
C1077 C1073 1.407 . S
C1077 C1078 1.364 . S
C1077 H1143 0.930 . S
C1078 C1074 1.390 . S
C1078 C1077 1.364 . S
C1078 H1144 0.931 . S
Co1079 N1076 1.864 . S
Co1079 N1095 1.955 . S
Co1079 N1096 1.958 . S
Co1079 N1097 1.953 . S
Co1079 N1115 1.869 . S
Co1079 N1121 1.974 . S
C1080 C1075 1.516 . S
C1080 O1081 1.238 . S
C1080 N1096 1.324 . S
O1081 C1080 1.238 . S
C1082 C1083 1.394 . S
C1082 C1087 1.395 . S
C1082 N1096 1.427 . S
C1083 C1082 1.394 . S
C1083 C1084 1.380 . S
C1083 H1145 0.929 . S
C1084 C1083 1.380 . S
C1084 C1085 1.384 . S
C1084 C1088 1.495 . S
C1085 C1084 1.384 . S
C1085 C1086 1.382 . S
C1085 H1146 0.930 . S
C1086 C1085 1.382 . S
C1086 C1087 1.398 . S
C1087 C1082 1.395 . S
C1087 C1086 1.398 . S
C1087 H1147 0.930 . S
C1088 C1084 1.495 . S
C1088 O1135 1.258 . S
C1088 O1136 1.274 1_455 S
C1089 C1090 1.385 . S
C1089 C1091 1.381 . S
C1089 N1095 1.432 . S
C1090 C1089 1.385 . S
C1090 C1094 1.388 . S
C1090 H1148 0.929 . S
C1091 C1089 1.381 . S
C1091 C1092 1.371 . S
C1091 H1149 0.932 . S
C1092 C1091 1.371 . S
C1092 C1093 1.400 . S
C1093 C1092 1.400 . S
C1093 C1094 1.351 . S
C1093 H1150 0.930 . S
C1094 C1090 1.388 . S
C1094 C1093 1.351 . S
N1095 C1070 1.329 . S
N1095 Co1079 1.955 . S
N1095 C1089 1.432 . S
N1096 Co1079 1.958 . S
N1096 C1080 1.324 . S
N1096 C1082 1.427 . S
N1097 Co1079 1.953 . S
N1097 C1098 1.436 . S
N1097 C1124 1.316 . S
C1098 N1097 1.436 . S
C1098 C1099 1.421 . S
C1098 C1100 1.360 . S
C1099 C1098 1.421 . S
C1099 C1101 1.379 . S
C1099 H1102 0.929 . S
C1100 C1098 1.360 . S
C1100 C1104 1.393 . S
C1100 H1106 0.931 . S
C1101 C1099 1.379 . S
C1101 C1103 1.417 . S
C1101 C1105 1.505 . S
H1102 C1099 0.929 . S
C1103 C1101 1.417 . S
C1103 C1104 1.352 . S
C1103 H1107 0.929 . S
C1104 C1100 1.393 . S
C1104 C1103 1.352 . S
C1104 C1108 1.482 . S
C1105 C1101 1.505 . S
C1105 O1109 1.259 . S
C1105 O1110 1.229 . S
H1106 C1100 0.931 . S
H1107 C1103 0.929 . S
C1108 C1104 1.482 . S
C1108 O1111 1.207 1_455 S
C1108 O1112 1.289 1_455 S
O1109 C1105 1.259 . S
O1109 H1113 0.822 . S
O1110 C1105 1.229 . S
O1111 C1108 1.207 1_655 S
O1112 C1108 1.289 1_655 S
O1112 H1114 0.819 . S
H1113 O1109 0.822 . S
H1114 O1112 0.819 . S
N1115 Co1079 1.869 . S
N1115 C1116 1.330 . S
N1115 C1120 1.325 . S
C1116 N1115 1.330 . S
C1116 C1117 1.359 . S
C1116 C1122 1.504 . S
C1117 C1116 1.359 . S
C1117 C1118 1.366 . S
C1117 H1151 0.929 . S
C1118 C1117 1.366 . S
C1118 C1119 1.415 . S
C1118 H1152 0.932 . S
C1119 C1118 1.415 . S
C1119 C1120 1.366 . S
C1119 H1153 0.931 . S
C1120 N1115 1.325 . S
C1120 C1119 1.366 . S
C1120 C1124 1.516 . S
N1121 Co1079 1.974 . S
N1121 C1122 1.309 . S
N1121 C1127 1.423 . S
C1122 C1116 1.504 . S
C1122 N1121 1.309 . S
C1122 O1123 1.258 . S
O1123 C1122 1.258 . S
C1124 N1097 1.316 . S
C1124 C1120 1.516 . S
C1124 O1137 1.263 . S
O1125 Cd1068 2.350 1_655 S
O1125 C1141 1.270 . S
O1126 Cd1068 2.277 . S
O1126 C1141 1.248 1_455 S
C1127 N1121 1.423 . S
C1127 C1128 1.370 . S
C1127 C1132 1.403 . S
C1128 C1127 1.370 . S
C1128 C1129 1.389 . S
C1128 H1154 0.931 . S
C1129 C1128 1.389 . S
C1129 C1130 1.389 . S
C1130 C1129 1.389 . S
C1130 C1131 1.379 . S
C1130 H1155 0.929 . S
C1131 C1130 1.379 . S
C1131 C1132 1.405 . S
C1132 C1127 1.403 . S
C1132 C1131 1.405 . S
C1132 H1156 0.932 . S
O1133 Cd1068 2.173 . S
O1133 C1069 1.277 . S
O1134 C1069 1.230 . S
O1134 Cd1072 2.250 1_455 S
O1135 Cd1068 2.263 . S
O1135 C1088 1.258 . S
O1136 Cd1072 2.308 . S
O1136 C1088 1.274 1_655 S
O1137 Cd1068 2.366 . S
O1137 C1124 1.263 . S
C1138 O1139 1.235 . S
C1138 O1140 1.270 . S
O1139 Cd1072 2.352 . S
O1139 C1138 1.235 . S
O1140 Cd1068 2.329 1_655 S
O1140 C1138 1.270 . S
C1141 O1125 1.270 . S
C1141 O1126 1.248 1_655 S
H1142 C1074 0.930 . S
H1143 C1077 0.930 . S
H1144 C1078 0.931 . S
H1145 C1083 0.929 . S
H1146 C1085 0.930 . S
H1147 C1087 0.930 . S
H1148 C1090 0.929 . S
H1149 C1091 0.932 . S
H1150 C1093 0.930 . S
H1151 C1117 0.929 . S
H1152 C1118 0.932 . S
H1153 C1119 0.931 . S
H1154 C1128 0.931 . S
H1155 C1130 0.929 . S
H1156 C1132 0.932 . S
Cd1157 O1214 2.350 . S
Cd1157 O1215 2.277 . S
Cd1157 O1222 2.173 . S
Cd1157 O1224 2.263 . S
Cd1157 O1226 2.366 . S
Cd1157 O1229 2.329 . S
C1158 O1222 1.277 . S
C1158 O1223 1.230 . S
C1159 O1160 1.246 . S
C1159 C1162 1.481 . S
C1159 N1184 1.329 . S
O1160 C1159 1.246 . S
Cd1161 O1223 2.250 . S
Cd1161 O1225 2.308 . S
Cd1161 O1228 2.352 1_655 S
C1162 C1159 1.481 . S
C1162 N1165 1.327 . S
C1162 C1166 1.407 . S
C1163 C1164 1.346 . S
C1163 C1167 1.390 . S
C1163 H1231 0.930 . S
C1164 C1163 1.346 . S
C1164 N1165 1.342 . S
C1164 C1169 1.516 . S
N1165 C1162 1.327 . S
N1165 C1164 1.342 . S
N1165 Co1168 1.864 . S
C1166 C1162 1.407 . S
C1166 C1167 1.364 . S
C1166 H1232 0.930 . S
C1167 C1163 1.390 . S
C1167 C1166 1.364 . S
C1167 H1233 0.931 . S
Co1168 N1165 1.864 . S
Co1168 N1184 1.955 . S
Co1168 N1185 1.958 . S
Co1168 N1186 1.953 . S
Co1168 N1204 1.869 . S
Co1168 N1210 1.974 . S
C1169 C1164 1.516 . S
C1169 O1170 1.238 . S
C1169 N1185 1.324 . S
O1170 C1169 1.238 . S
C1171 C1172 1.394 . S
C1171 C1176 1.395 . S
C1171 N1185 1.427 . S
C1172 C1171 1.394 . S
C1172 C1173 1.380 . S
C1172 H1234 0.929 . S
C1173 C1172 1.380 . S
C1173 C1174 1.384 . S
C1173 C1177 1.495 . S
C1174 C1173 1.384 . S
C1174 C1175 1.382 . S
C1174 H1235 0.930 . S
C1175 C1174 1.382 . S
C1175 C1176 1.398 . S
C1176 C1171 1.395 . S
C1176 C1175 1.398 . S
C1176 H1236 0.930 . S
C1177 C1173 1.495 . S
C1177 O1224 1.258 . S
C1177 O1225 1.274 . S
C1178 C1179 1.385 . S
C1178 C1180 1.381 . S
C1178 N1184 1.432 . S
C1179 C1178 1.385 . S
C1179 C1183 1.388 . S
C1179 H1237 0.929 . S
C1180 C1178 1.381 . S
C1180 C1181 1.371 . S
C1180 H1238 0.932 . S
C1181 C1180 1.371 . S
C1181 C1182 1.400 1_565 S
C1182 C1181 1.400 1_545 S
C1182 C1183 1.351 1_545 S
C1182 H1239 0.930 . S
C1183 C1179 1.388 . S
C1183 C1182 1.351 1_565 S
N1184 C1159 1.329 . S
N1184 Co1168 1.955 . S
N1184 C1178 1.432 . S
N1185 Co1168 1.958 . S
N1185 C1169 1.324 . S
N1185 C1171 1.427 . S
N1186 Co1168 1.953 . S
N1186 C1187 1.436 . S
N1186 C1213 1.316 . S
C1187 N1186 1.436 . S
C1187 C1188 1.421 . S
C1187 C1189 1.360 . S
C1188 C1187 1.421 . S
C1188 C1190 1.379 . S
C1188 H1191 0.929 . S
C1189 C1187 1.360 . S
C1189 C1193 1.393 . S
C1189 H1195 0.931 . S
C1190 C1188 1.379 . S
C1190 C1192 1.417 . S
C1190 C1194 1.505 . S
H1191 C1188 0.929 . S
C1192 C1190 1.417 . S
C1192 C1193 1.352 . S
C1192 H1196 0.929 . S
C1193 C1189 1.393 . S
C1193 C1192 1.352 . S
C1193 C1197 1.482 . S
C1194 C1190 1.505 . S
C1194 O1198 1.259 . S
C1194 O1199 1.229 . S
H1195 C1189 0.931 . S
H1196 C1192 0.929 . S
C1197 C1193 1.482 . S
C1197 O1200 1.207 . S
C1197 O1201 1.289 . S
O1198 C1194 1.259 . S
O1198 H1202 0.822 . S
O1199 C1194 1.229 . S
O1200 C1197 1.207 . S
O1201 C1197 1.289 . S
O1201 H1203 0.819 . S
H1202 O1198 0.822 . S
H1203 O1201 0.819 . S
N1204 Co1168 1.869 . S
N1204 C1205 1.330 . S
N1204 C1209 1.325 . S
C1205 N1204 1.330 . S
C1205 C1206 1.359 . S
C1205 C1211 1.504 . S
C1206 C1205 1.359 . S
C1206 C1207 1.366 . S
C1206 H1240 0.929 . S
C1207 C1206 1.366 . S
C1207 C1208 1.415 . S
C1207 H1241 0.932 . S
C1208 C1207 1.415 . S
C1208 C1209 1.366 . S
C1208 H1242 0.931 . S
C1209 N1204 1.325 . S
C1209 C1208 1.366 . S
C1209 C1213 1.516 . S
N1210 Co1168 1.974 . S
N1210 C1211 1.309 . S
N1210 C1216 1.423 . S
C1211 C1205 1.504 . S
C1211 N1210 1.309 . S
C1211 O1212 1.258 . S
O1212 C1211 1.258 . S
C1213 N1186 1.316 . S
C1213 C1209 1.516 . S
C1213 O1226 1.263 . S
O1214 Cd1157 2.350 . S
O1214 C1230 1.270 . S
O1215 Cd1157 2.277 . S
O1215 C1230 1.248 . S
C1216 N1210 1.423 . S
C1216 C1217 1.370 . S
C1216 C1221 1.403 . S
C1217 C1216 1.370 . S
C1217 C1218 1.389 . S
C1217 H1243 0.931 . S
C1218 C1217 1.389 . S
C1218 C1219 1.389 . S
C1219 C1218 1.389 . S
C1219 C1220 1.379 . S
C1219 H1244 0.929 . S
C1220 C1219 1.379 . S
C1220 C1221 1.405 . S
C1221 C1216 1.403 . S
C1221 C1220 1.405 . S
C1221 H1245 0.932 . S
O1222 Cd1157 2.173 . S
O1222 C1158 1.277 . S
O1223 C1158 1.230 . S
O1223 Cd1161 2.250 . S
O1224 Cd1157 2.263 . S
O1224 C1177 1.258 . S
O1225 Cd1161 2.308 . S
O1225 C1177 1.274 . S
O1226 Cd1157 2.366 . S
O1226 C1213 1.263 . S
C1227 O1228 1.235 . S
C1227 O1229 1.270 1_455 S
O1228 Cd1161 2.352 1_455 S
O1228 C1227 1.235 . S
O1229 Cd1157 2.329 . S
O1229 C1227 1.270 1_655 S
C1230 O1214 1.270 . S
C1230 O1215 1.248 . S
H1231 C1163 0.930 . S
H1232 C1166 0.930 . S
H1233 C1167 0.931 . S
H1234 C1172 0.929 . S
H1235 C1174 0.930 . S
H1236 C1176 0.930 . S
H1237 C1179 0.929 . S
H1238 C1180 0.932 . S
H1239 C1182 0.930 . S
H1240 C1206 0.929 . S
H1241 C1207 0.932 . S
H1242 C1208 0.931 . S
H1243 C1217 0.931 . S
H1244 C1219 0.929 . S
H1245 C1221 0.932 . S
Cd1246 O1303 2.350 . S
Cd1246 O1304 2.277 . S
Cd1246 O1311 2.173 . S
Cd1246 O1313 2.263 . S
Cd1246 O1315 2.366 1_545 S
Cd1246 O1318 2.329 . S
C1247 O1311 1.277 . S
C1247 O1312 1.230 . S
C1248 O1249 1.246 . S
C1248 C1251 1.481 . S
C1248 N1273 1.329 . S
O1249 C1248 1.246 . S
Cd1250 O1312 2.250 . S
Cd1250 O1314 2.308 . S
Cd1250 O1317 2.352 . S
C1251 C1248 1.481 . S
C1251 N1254 1.327 . S
C1251 C1255 1.407 . S
C1252 C1253 1.346 . S
C1252 C1256 1.390 . S
C1252 H1320 0.930 . S
C1253 C1252 1.346 . S
C1253 N1254 1.342 . S
C1253 C1258 1.516 . S
N1254 C1251 1.327 . S
N1254 C1253 1.342 . S
N1254 Co1257 1.864 . S
C1255 C1251 1.407 . S
C1255 C1256 1.364 . S
C1255 H1321 0.930 . S
C1256 C1252 1.390 . S
C1256 C1255 1.364 . S
C1256 H1322 0.931 . S
Co1257 N1254 1.864 . S
Co1257 N1273 1.955 . S
Co1257 N1274 1.958 . S
Co1257 N1275 1.953 . S
Co1257 N1293 1.869 . S
Co1257 N1299 1.974 . S
C1258 C1253 1.516 . S
C1258 O1259 1.238 1_565 S
C1258 N1274 1.324 . S
O1259 C1258 1.238 1_545 S
C1260 C1261 1.394 1_565 S
C1260 C1265 1.395 . S
C1260 N1274 1.427 . S
C1261 C1260 1.394 1_545 S
C1261 C1262 1.380 . S
C1261 H1323 0.929 . S
C1262 C1261 1.380 . S
C1262 C1263 1.384 . S
C1262 C1266 1.495 . S
C1263 C1262 1.384 . S
C1263 C1264 1.382 1_545 S
C1263 H1324 0.930 . S
C1264 C1263 1.382 1_565 S
C1264 C1265 1.398 . S
C1265 C1260 1.395 . S
C1265 C1264 1.398 . S
C1265 H1325 0.930 . S
C1266 C1262 1.495 . S
C1266 O1313 1.258 . S
C1266 O1314 1.274 . S
C1267 C1268 1.385 . S
C1267 C1269 1.381 . S
C1267 N1273 1.432 . S
C1268 C1267 1.385 . S
C1268 C1272 1.388 . S
C1268 H1326 0.929 . S
C1269 C1267 1.381 . S
C1269 C1270 1.371 . S
C1269 H1327 0.932 . S
C1270 C1269 1.371 . S
C1270 C1271 1.400 . S
C1271 C1270 1.400 . S
C1271 C1272 1.351 . S
C1271 H1328 0.930 . S
C1272 C1268 1.388 . S
C1272 C1271 1.351 . S
N1273 C1248 1.329 . S
N1273 Co1257 1.955 . S
N1273 C1267 1.432 . S
N1274 Co1257 1.958 . S
N1274 C1258 1.324 . S
N1274 C1260 1.427 . S
N1275 Co1257 1.953 . S
N1275 C1276 1.436 . S
N1275 C1302 1.316 . S
C1276 N1275 1.436 . S
C1276 C1277 1.421 . S
C1276 C1278 1.360 1_565 S
C1277 C1276 1.421 . S
C1277 C1279 1.379 1_565 S
C1277 H1280 0.929 . S
C1278 C1276 1.360 1_545 S
C1278 C1282 1.393 . S
C1278 H1284 0.931 . S
C1279 C1277 1.379 1_545 S
C1279 C1281 1.417 . S
C1279 C1283 1.505 1_545 S
H1280 C1277 0.929 . S
C1281 C1279 1.417 . S
C1281 C1282 1.352 . S
C1281 H1285 0.929 . S
C1282 C1278 1.393 . S
C1282 C1281 1.352 . S
C1282 C1286 1.482 . S
C1283 C1279 1.505 1_565 S
C1283 O1287 1.259 1_565 S
C1283 O1288 1.229 . S
H1284 C1278 0.931 . S
H1285 C1281 0.929 . S
C1286 C1282 1.482 . S
C1286 O1289 1.207 . S
C1286 O1290 1.289 . S
O1287 C1283 1.259 1_545 S
O1287 H1291 0.822 1_545 S
O1288 C1283 1.229 . S
O1289 C1286 1.207 . S
O1290 C1286 1.289 . S
O1290 H1292 0.819 . S
H1291 O1287 0.822 1_565 S
H1292 O1290 0.819 . S
N1293 Co1257 1.869 . S
N1293 C1294 1.330 . S
N1293 C1298 1.325 . S
C1294 N1293 1.330 . S
C1294 C1295 1.359 . S
C1294 C1300 1.504 . S
C1295 C1294 1.359 . S
C1295 C1296 1.366 . S
C1295 H1329 0.929 . S
C1296 C1295 1.366 . S
C1296 C1297 1.415 . S
C1296 H1330 0.932 . S
C1297 C1296 1.415 . S
C1297 C1298 1.366 . S
C1297 H1331 0.931 . S
C1298 N1293 1.325 . S
C1298 C1297 1.366 . S
C1298 C1302 1.516 . S
N1299 Co1257 1.974 . S
N1299 C1300 1.309 . S
N1299 C1305 1.423 . S
C1300 C1294 1.504 . S
C1300 N1299 1.309 . S
C1300 O1301 1.258 . S
O1301 C1300 1.258 . S
C1302 N1275 1.316 . S
C1302 C1298 1.516 . S
C1302 O1315 1.263 . S
O1303 Cd1246 2.350 . S
O1303 C1319 1.270 . S
O1304 Cd1246 2.277 . S
O1304 C1319 1.248 . S
C1305 N1299 1.423 . S
C1305 C1306 1.370 . S
C1305 C1310 1.403 . S
C1306 C1305 1.370 . S
C1306 C1307 1.389 . S
C1306 H1332 0.931 . S
C1307 C1306 1.389 . S
C1307 C1308 1.389 . S
C1308 C1307 1.389 . S
C1308 C1309 1.379 . S
C1308 H1333 0.929 . S
C1309 C1308 1.379 . S
C1309 C1310 1.405 . S
C1310 C1305 1.403 . S
C1310 C1309 1.405 . S
C1310 H1334 0.932 . S
O1311 Cd1246 2.173 . S
O1311 C1247 1.277 . S
O1312 C1247 1.230 . S
O1312 Cd1250 2.250 . S
O1313 Cd1246 2.263 . S
O1313 C1266 1.258 . S
O1314 Cd1250 2.308 . S
O1314 C1266 1.274 . S
O1315 Cd1246 2.366 1_565 S
O1315 C1302 1.263 . S
C1316 O1317 1.235 . S
C1316 O1318 1.270 . S
O1317 Cd1250 2.352 . S
O1317 C1316 1.235 . S
O1318 Cd1246 2.329 . S
O1318 C1316 1.270 . S
C1319 O1303 1.270 . S
C1319 O1304 1.248 . S
H1320 C1252 0.930 . S
H1321 C1255 0.930 . S
H1322 C1256 0.931 . S
H1323 C1261 0.929 . S
H1324 C1263 0.930 . S
H1325 C1265 0.930 . S
H1326 C1268 0.929 . S
H1327 C1269 0.932 . S
H1328 C1271 0.930 . S
H1329 C1295 0.929 . S
H1330 C1296 0.932 . S
H1331 C1297 0.931 . S
H1332 C1306 0.931 . S
H1333 C1308 0.929 . S
H1334 C1310 0.932 . S
Cd1335 O1392 2.350 . S
Cd1335 O1393 2.277 . S
Cd1335 O1400 2.173 . S
Cd1335 O1402 2.263 . S
Cd1335 O1404 2.366 . S
Cd1335 O1407 2.329 . S
C1336 O1400 1.277 . S
C1336 O1401 1.230 . S
C1337 O1338 1.246 . S
C1337 C1340 1.481 . S
C1337 N1362 1.329 . S
O1338 C1337 1.246 . S
Cd1339 O1401 2.250 . S
Cd1339 O1403 2.308 . S
Cd1339 O1406 2.352 . S
C1340 C1337 1.481 . S
C1340 N1343 1.327 . S
C1340 C1344 1.407 . S
C1341 C1342 1.346 . S
C1341 C1345 1.390 . S
C1341 H1409 0.930 . S
C1342 C1341 1.346 . S
C1342 N1343 1.342 . S
C1342 C1347 1.516 . S
N1343 C1340 1.327 . S
N1343 C1342 1.342 . S
N1343 Co1346 1.864 . S
C1344 C1340 1.407 . S
C1344 C1345 1.364 . S
C1344 H1410 0.930 . S
C1345 C1341 1.390 . S
C1345 C1344 1.364 . S
C1345 H1411 0.931 . S
Co1346 N1343 1.864 . S
Co1346 N1362 1.955 . S
Co1346 N1363 1.958 . S
Co1346 N1364 1.953 . S
Co1346 N1382 1.869 . S
Co1346 N1388 1.974 . S
C1347 C1342 1.516 . S
C1347 O1348 1.238 . S
C1347 N1363 1.324 . S
O1348 C1347 1.238 . S
C1349 C1350 1.394 . S
C1349 C1354 1.395 . S
C1349 N1363 1.427 . S
C1350 C1349 1.394 . S
C1350 C1351 1.380 . S
C1350 H1412 0.929 . S
C1351 C1350 1.380 . S
C1351 C1352 1.384 . S
C1351 C1355 1.495 . S
C1352 C1351 1.384 . S
C1352 C1353 1.382 . S
C1352 H1413 0.930 . S
C1353 C1352 1.382 . S
C1353 C1354 1.398 . S
C1354 C1349 1.395 . S
C1354 C1353 1.398 . S
C1354 H1414 0.930 . S
C1355 C1351 1.495 . S
C1355 O1402 1.258 . S
C1355 O1403 1.274 . S
C1356 C1357 1.385 . S
C1356 C1358 1.381 . S
C1356 N1362 1.432 . S
C1357 C1356 1.385 . S
C1357 C1361 1.388 . S
C1357 H1415 0.929 . S
C1358 C1356 1.381 . S
C1358 C1359 1.371 1_565 S
C1358 H1416 0.932 . S
C1359 C1358 1.371 1_545 S
C1359 C1360 1.400 1_545 S
C1360 C1359 1.400 1_565 S
C1360 C1361 1.351 . S
C1360 H1417 0.930 1_565 S
C1361 C1357 1.388 . S
C1361 C1360 1.351 . S
N1362 C1337 1.329 . S
N1362 Co1346 1.955 . S
N1362 C1356 1.432 . S
N1363 Co1346 1.958 . S
N1363 C1347 1.324 . S
N1363 C1349 1.427 . S
N1364 Co1346 1.953 . S
N1364 C1365 1.436 . S
N1364 C1391 1.316 . S
C1365 N1364 1.436 . S
C1365 C1366 1.421 . S
C1365 C1367 1.360 . S
C1366 C1365 1.421 . S
C1366 C1368 1.379 . S
C1366 H1369 0.929 . S
C1367 C1365 1.360 . S
C1367 C1371 1.393 . S
C1367 H1373 0.931 . S
C1368 C1366 1.379 . S
C1368 C1370 1.417 . S
C1368 C1372 1.505 . S
H1369 C1366 0.929 . S
C1370 C1368 1.417 . S
C1370 C1371 1.352 . S
C1370 H1374 0.929 . S
C1371 C1367 1.393 . S
C1371 C1370 1.352 . S
C1371 C1375 1.482 . S
C1372 C1368 1.505 . S
C1372 O1376 1.259 . S
C1372 O1377 1.229 . S
H1373 C1367 0.931 . S
H1374 C1370 0.929 . S
C1375 C1371 1.482 . S
C1375 O1378 1.207 . S
C1375 O1379 1.289 . S
O1376 C1372 1.259 . S
O1376 H1380 0.822 . S
O1377 C1372 1.229 . S
O1378 C1375 1.207 . S
O1379 C1375 1.289 . S
O1379 H1381 0.819 . S
H1380 O1376 0.822 . S
H1381 O1379 0.819 . S
N1382 Co1346 1.869 . S
N1382 C1383 1.330 . S
N1382 C1387 1.325 . S
C1383 N1382 1.330 . S
C1383 C1384 1.359 . S
C1383 C1389 1.504 . S
C1384 C1383 1.359 . S
C1384 C1385 1.366 . S
C1384 H1418 0.929 . S
C1385 C1384 1.366 . S
C1385 C1386 1.415 . S
C1385 H1419 0.932 . S
C1386 C1385 1.415 . S
C1386 C1387 1.366 . S
C1386 H1420 0.931 . S
C1387 N1382 1.325 . S
C1387 C1386 1.366 . S
C1387 C1391 1.516 . S
N1388 Co1346 1.974 . S
N1388 C1389 1.309 . S
N1388 C1394 1.423 . S
C1389 C1383 1.504 . S
C1389 N1388 1.309 . S
C1389 O1390 1.258 . S
O1390 C1389 1.258 . S
C1391 N1364 1.316 . S
C1391 C1387 1.516 . S
C1391 O1404 1.263 . S
O1392 Cd1335 2.350 . S
O1392 C1408 1.270 . S
O1393 Cd1335 2.277 . S
O1393 C1408 1.248 . S
C1394 N1388 1.423 . S
C1394 C1395 1.370 . S
C1394 C1399 1.403 1_565 S
C1395 C1394 1.370 . S
C1395 C1396 1.389 . S
C1395 H1421 0.931 . S
C1396 C1395 1.389 . S
C1396 C1397 1.389 1_565 S
C1397 C1396 1.389 1_545 S
C1397 C1398 1.379 . S
C1397 H1422 0.929 1_655 S
C1398 C1397 1.379 . S
C1398 C1399 1.405 . S
C1399 C1394 1.403 1_545 S
C1399 C1398 1.405 . S
C1399 H1423 0.932 . S
O1400 Cd1335 2.173 . S
O1400 C1336 1.277 . S
O1401 C1336 1.230 . S
O1401 Cd1339 2.250 . S
O1402 Cd1335 2.263 . S
O1402 C1355 1.258 . S
O1403 Cd1339 2.308 . S
O1403 C1355 1.274 . S
O1404 Cd1335 2.366 . S
O1404 C1391 1.263 . S
C1405 O1406 1.235 . S
C1405 O1407 1.270 . S
O1406 Cd1339 2.352 . S
O1406 C1405 1.235 . S
O1407 Cd1335 2.329 . S
O1407 C1405 1.270 . S
C1408 O1392 1.270 . S
C1408 O1393 1.248 . S
H1409 C1341 0.930 . S
H1410 C1344 0.930 . S
H1411 C1345 0.931 . S
H1412 C1350 0.929 . S
H1413 C1352 0.930 . S
H1414 C1354 0.930 . S
H1415 C1357 0.929 . S
H1416 C1358 0.932 . S
H1417 C1360 0.930 1_545 S
H1418 C1384 0.929 . S
H1419 C1385 0.932 . S
H1420 C1386 0.931 . S
H1421 C1395 0.931 . S
H1422 C1397 0.929 1_455 S
H1423 C1399 0.932 . S
Cd1424 O1481 2.350 . S
Cd1424 O1482 2.277 . S
Cd1424 O1489 2.173 . S
Cd1424 O1491 2.263 . S
Cd1424 O1493 2.366 . S
Cd1424 O1496 2.329 . S
C1425 O1489 1.277 . S
C1425 O1490 1.230 . S
C1426 O1427 1.246 . S
C1426 C1429 1.481 1_565 S
C1426 N1451 1.329 . S
O1427 C1426 1.246 . S
Cd1428 O1490 2.250 . S
Cd1428 O1492 2.308 . S
Cd1428 O1495 2.352 . S
C1429 C1426 1.481 1_545 S
C1429 N1432 1.327 . S
C1429 C1433 1.407 . S
C1430 C1431 1.346 . S
C1430 C1434 1.390 . S
C1430 H1498 0.930 . S
C1431 C1430 1.346 . S
C1431 N1432 1.342 . S
C1431 C1436 1.516 . S
N1432 C1429 1.327 . S
N1432 C1431 1.342 . S
N1432 Co1435 1.864 1_545 S
C1433 C1429 1.407 . S
C1433 C1434 1.364 . S
C1433 H1499 0.930 . S
C1434 C1430 1.390 . S
C1434 C1433 1.364 . S
C1434 H1500 0.931 . S
Co1435 N1432 1.864 1_565 S
Co1435 N1451 1.955 . S
Co1435 N1452 1.958 1_565 S
Co1435 N1453 1.953 . S
Co1435 N1471 1.869 . S
Co1435 N1477 1.974 . S
C1436 C1431 1.516 . S
C1436 O1437 1.238 . S
C1436 N1452 1.324 . S
O1437 C1436 1.238 . S
C1438 C1439 1.394 1_545 S
C1438 C1443 1.395 . S
C1438 N1452 1.427 . S
C1439 C1438 1.394 1_565 S
C1439 C1440 1.380 . S
C1439 H1501 0.929 . S
C1440 C1439 1.380 . S
C1440 C1441 1.384 . S
C1440 C1444 1.495 . S
C1441 C1440 1.384 . S
C1441 C1442 1.382 1_565 S
C1441 H1502 0.930 . S
C1442 C1441 1.382 1_545 S
C1442 C1443 1.398 . S
C1443 C1438 1.395 . S
C1443 C1442 1.398 . S
C1443 H1503 0.930 . S
C1444 C1440 1.495 . S
C1444 O1491 1.258 . S
C1444 O1492 1.274 . S
C1445 C1446 1.385 . S
C1445 C1447 1.381 . S
C1445 N1451 1.432 . S
C1446 C1445 1.385 . S
C1446 C1450 1.388 . S
C1446 H1504 0.929 . S
C1447 C1445 1.381 . S
C1447 C1448 1.371 . S
C1447 H1505 0.932 . S
C1448 C1447 1.371 . S
C1448 C1449 1.400 . S
C1449 C1448 1.400 . S
C1449 C1450 1.351 . S
C1449 H1506 0.930 . S
C1450 C1446 1.388 . S
C1450 C1449 1.351 . S
N1451 C1426 1.329 . S
N1451 Co1435 1.955 . S
N1451 C1445 1.432 . S
N1452 Co1435 1.958 1_545 S
N1452 C1436 1.324 . S
N1452 C1438 1.427 . S
N1453 Co1435 1.953 . S
N1453 C1454 1.436 . S
N1453 C1480 1.316 . S
C1454 N1453 1.436 . S
C1454 C1455 1.421 . S
C1454 C1456 1.360 1_565 S
C1455 C1454 1.421 . S
C1455 C1457 1.379 . S
C1455 H1458 0.929 . S
C1456 C1454 1.360 1_545 S
C1456 C1460 1.393 . S
C1456 H1462 0.931 . S
C1457 C1455 1.379 . S
C1457 C1459 1.417 1_565 S
C1457 C1461 1.505 . S
H1458 C1455 0.929 . S
C1459 C1457 1.417 1_545 S
C1459 C1460 1.352 . S
C1459 H1463 0.929 . S
C1460 C1456 1.393 . S
C1460 C1459 1.352 . S
C1460 C1464 1.482 . S
C1461 C1457 1.505 . S
C1461 O1465 1.270 . S
C1461 O1466 1.229 . S
H1462 C1456 0.931 . S
H1463 C1459 0.929 . S
C1464 C1460 1.482 . S
C1464 O1467 1.207 . S
C1464 O1468 1.289 . S
O1465 C1461 1.270 . S
O1465 H1469 0.830 . S
O1466 C1461 1.229 . S
O1467 C1464 1.207 . S
O1468 C1464 1.289 . S
O1468 H1470 0.819 . S
H1469 O1465 0.830 . S
H1470 O1468 0.819 . S
N1471 Co1435 1.869 . S
N1471 C1472 1.330 . S
N1471 C1476 1.325 . S
C1472 N1471 1.330 . S
C1472 C1473 1.359 . S
C1472 C1478 1.504 . S
C1473 C1472 1.359 . S
C1473 C1474 1.366 . S
C1473 H1507 0.929 . S
C1474 C1473 1.366 . S
C1474 C1475 1.415 . S
C1474 H1508 0.932 . S
C1475 C1474 1.415 . S
C1475 C1476 1.366 . S
C1475 H1509 0.931 . S
C1476 N1471 1.325 . S
C1476 C1475 1.366 . S
C1476 C1480 1.516 . S
N1477 Co1435 1.974 . S
N1477 C1478 1.309 . S
N1477 C1483 1.423 . S
C1478 C1472 1.504 . S
C1478 N1477 1.309 . S
C1478 O1479 1.258 . S
O1479 C1478 1.258 . S
C1480 N1453 1.316 . S
C1480 C1476 1.516 . S
C1480 O1493 1.263 . S
O1481 Cd1424 2.350 . S
O1481 C1497 1.270 . S
O1482 Cd1424 2.277 . S
O1482 C1497 1.248 . S
C1483 N1477 1.423 . S
C1483 C1484 1.370 1_565 S
C1483 C1488 1.403 . S
C1484 C1483 1.370 1_545 S
C1484 C1485 1.389 . S
C1484 H1510 0.931 . S
C1485 C1484 1.389 . S
C1485 C1486 1.389 . S
C1486 C1485 1.389 . S
C1486 C1487 1.379 1_545 S
C1486 H1511 0.929 . S
C1487 C1486 1.379 1_565 S
C1487 C1488 1.405 . S
C1488 C1483 1.403 . S
C1488 C1487 1.405 . S
C1488 H1512 0.932 . S
O1489 Cd1424 2.173 . S
O1489 C1425 1.277 . S
O1490 C1425 1.230 . S
O1490 Cd1428 2.250 . S
O1491 Cd1424 2.263 . S
O1491 C1444 1.258 . S
O1492 Cd1428 2.308 . S
O1492 C1444 1.274 . S
O1493 Cd1424 2.366 . S
O1493 C1480 1.263 . S
C1494 O1495 1.235 . S
C1494 O1496 1.270 . S
O1495 Cd1428 2.352 . S
O1495 C1494 1.235 . S
O1496 Cd1424 2.329 . S
O1496 C1494 1.270 . S
C1497 O1481 1.270 . S
C1497 O1482 1.248 . S
H1498 C1430 0.930 . S
H1499 C1433 0.930 . S
H1500 C1434 0.931 . S
H1501 C1439 0.929 . S
H1502 C1441 0.930 . S
H1503 C1443 0.930 . S
H1504 C1446 0.929 . S
H1505 C1447 0.932 . S
H1506 C1449 0.930 . S
H1507 C1473 0.929 . S
H1508 C1474 0.932 . S
H1509 C1475 0.931 . S
H1510 C1484 0.931 . S
H1511 C1486 0.929 . S
H1512 C1488 0.932 . S
Cd1513 O1570 2.350 . S
Cd1513 O1571 2.277 . S
Cd1513 O1578 2.173 . S
Cd1513 O1580 2.263 . S
Cd1513 O1582 2.366 . S
Cd1513 O1585 2.329 . S
C1514 O1578 1.277 . S
C1514 O1579 1.230 . S
C1515 O1516 1.246 . S
C1515 C1518 1.481 . S
C1515 N1540 1.329 . S
O1516 C1515 1.246 . S
Cd1517 O1579 2.250 . S
Cd1517 O1581 2.308 . S
Cd1517 O1584 2.352 . S
C1518 C1515 1.481 . S
C1518 N1521 1.327 . S
C1518 C1522 1.407 . S
C1519 C1520 1.346 1_655 S
C1519 C1523 1.390 . S
C1519 H1587 0.930 . S
C1520 C1519 1.346 1_455 S
C1520 N1521 1.342 . S
C1520 C1525 1.516 . S
N1521 C1518 1.327 . S
N1521 C1520 1.342 . S
N1521 Co1524 1.864 . S
C1522 C1518 1.407 . S
C1522 C1523 1.364 1_455 S
C1522 H1588 0.930 . S
C1523 C1519 1.390 . S
C1523 C1522 1.364 1_655 S
C1523 H1589 0.931 . S
Co1524 N1521 1.864 . S
Co1524 N1540 1.955 . S
Co1524 N1541 1.958 . S
Co1524 N1542 1.953 . S
Co1524 N1560 1.869 . S
Co1524 N1566 1.974 . S
C1525 C1520 1.516 . S
C1525 O1526 1.238 1_455 S
C1525 N1541 1.324 . S
O1526 C1525 1.238 1_655 S
C1527 C1528 1.394 . S
C1527 C1532 1.395 . S
C1527 N1541 1.427 . S
C1528 C1527 1.394 . S
C1528 C1529 1.380 . S
C1528 H1590 0.929 . S
C1529 C1528 1.380 . S
C1529 C1530 1.384 . S
C1529 C1533 1.495 . S
C1530 C1529 1.384 . S
C1530 C1531 1.382 . S
C1530 H1591 0.930 . S
C1531 C1530 1.382 . S
C1531 C1532 1.398 . S
C1532 C1527 1.395 . S
C1532 C1531 1.398 . S
C1532 H1592 0.930 . S
C1533 C1529 1.495 . S
C1533 O1580 1.258 . S
C1533 O1581 1.274 . S
C1534 C1535 1.385 . S
C1534 C1536 1.381 . S
C1534 N1540 1.432 . S
C1535 C1534 1.385 . S
C1535 C1539 1.388 . S
C1535 H1593 0.929 . S
C1536 C1534 1.381 . S
C1536 C1537 1.371 . S
C1536 H1594 0.932 . S
C1537 C1536 1.371 . S
C1537 C1538 1.400 . S
C1538 C1537 1.400 . S
C1538 C1539 1.351 . S
C1538 H1595 0.930 . S
C1539 C1535 1.388 . S
C1539 C1538 1.351 . S
N1540 C1515 1.329 . S
N1540 Co1524 1.955 . S
N1540 C1534 1.432 . S
N1541 Co1524 1.958 . S
N1541 C1525 1.324 . S
N1541 C1527 1.427 . S
N1542 Co1524 1.953 . S
N1542 C1543 1.436 . S
N1542 C1569 1.316 . S
C1543 N1542 1.436 . S
C1543 C1544 1.421 . S
C1543 C1545 1.360 . S
C1544 C1543 1.421 . S
C1544 C1546 1.379 . S
C1544 H1547 0.929 . S
C1545 C1543 1.360 . S
C1545 C1549 1.393 . S
C1545 H1551 0.931 . S
C1546 C1544 1.379 . S
C1546 C1548 1.417 . S
C1546 C1550 1.505 . S
H1547 C1544 0.929 . S
C1548 C1546 1.417 . S
C1548 C1549 1.352 . S
C1548 H1552 0.929 . S
C1549 C1545 1.393 . S
C1549 C1548 1.352 . S
C1549 C1553 1.482 1_455 S
C1550 C1546 1.505 . S
C1550 O1554 1.259 . S
C1550 O1555 1.229 . S
H1551 C1545 0.931 . S
H1552 C1548 0.929 . S
C1553 C1549 1.482 1_655 S
C1553 O1556 1.207 . S
C1553 O1557 1.289 . S
O1554 C1550 1.259 . S
O1554 H1558 0.822 . S
O1555 C1550 1.229 . S
O1556 C1553 1.207 . S
O1557 C1553 1.289 . S
O1557 H1559 0.819 . S
H1558 O1554 0.822 . S
H1559 O1557 0.819 . S
N1560 Co1524 1.869 . S
N1560 C1561 1.330 . S
N1560 C1565 1.325 . S
C1561 N1560 1.330 . S
C1561 C1562 1.359 . S
C1561 C1567 1.504 . S
C1562 C1561 1.359 . S
C1562 C1563 1.366 . S
C1562 H1596 0.929 . S
C1563 C1562 1.366 . S
C1563 C1564 1.415 . S
C1563 H1597 0.932 . S
C1564 C1563 1.415 . S
C1564 C1565 1.366 . S
C1564 H1598 0.931 . S
C1565 N1560 1.325 . S
C1565 C1564 1.366 . S
C1565 C1569 1.516 . S
N1566 Co1524 1.974 . S
N1566 C1567 1.309 . S
N1566 C1572 1.423 . S
C1567 C1561 1.504 . S
C1567 N1566 1.309 . S
C1567 O1568 1.258 . S
O1568 C1567 1.258 . S
C1569 N1542 1.316 . S
C1569 C1565 1.516 . S
C1569 O1582 1.263 . S
O1570 Cd1513 2.350 . S
O1570 C1586 1.270 . S
O1571 Cd1513 2.277 . S
O1571 C1586 1.248 . S
C1572 N1566 1.423 . S
C1572 C1573 1.370 . S
C1572 C1577 1.403 . S
C1573 C1572 1.370 . S
C1573 C1574 1.389 . S
C1573 H1599 0.931 . S
C1574 C1573 1.389 . S
C1574 C1575 1.389 . S
C1575 C1574 1.389 . S
C1575 C1576 1.379 . S
C1575 H1600 0.929 . S
C1576 C1575 1.379 . S
C1576 C1577 1.405 . S
C1577 C1572 1.403 . S
C1577 C1576 1.405 . S
C1577 H1601 0.932 . S
O1578 Cd1513 2.173 . S
O1578 C1514 1.277 . S
O1579 C1514 1.230 . S
O1579 Cd1517 2.250 . S
O1580 Cd1513 2.263 . S
O1580 C1533 1.258 . S
O1581 Cd1517 2.308 . S
O1581 C1533 1.274 . S
O1582 Cd1513 2.366 . S
O1582 C1569 1.263 . S
C1583 O1584 1.235 . S
C1583 O1585 1.270 . S
O1584 Cd1517 2.352 . S
O1584 C1583 1.235 . S
O1585 Cd1513 2.329 . S
O1585 C1583 1.270 . S
C1586 O1570 1.270 . S
C1586 O1571 1.248 . S
H1587 C1519 0.930 . S
H1588 C1522 0.930 . S
H1589 C1523 0.931 . S
H1590 C1528 0.929 . S
H1591 C1530 0.930 . S
H1592 C1532 0.930 . S
H1593 C1535 0.929 . S
H1594 C1536 0.932 . S
H1595 C1538 0.930 . S
H1596 C1562 0.929 . S
H1597 C1563 0.932 . S
H1598 C1564 0.931 . S
H1599 C1573 0.931 . S
H1600 C1575 0.929 . S
H1601 C1577 0.932 . S
Cd1602 O1659 2.350 . S
Cd1602 O1660 2.277 . S
Cd1602 O1667 2.173 . S
Cd1602 O1669 2.263 . S
Cd1602 O1671 2.366 . S
Cd1602 O1674 2.329 . S
C1603 O1667 1.277 . S
C1603 O1668 1.230 . S
C1604 O1605 1.246 . S
C1604 C1607 1.481 . S
C1604 N1629 1.329 . S
O1605 C1604 1.246 . S
Cd1606 O1668 2.250 . S
Cd1606 O1670 2.308 . S
Cd1606 O1673 2.352 . S
C1607 C1604 1.481 . S
C1607 N1610 1.327 . S
C1607 C1611 1.407 . S
C1608 C1609 1.346 . S
C1608 C1612 1.390 . S
C1608 H1676 0.930 . S
C1609 C1608 1.346 . S
C1609 N1610 1.342 . S
C1609 C1614 1.516 . S
N1610 C1607 1.327 . S
N1610 C1609 1.342 . S
N1610 Co1613 1.864 . S
C1611 C1607 1.407 . S
C1611 C1612 1.364 . S
C1611 H1677 0.930 . S
C1612 C1608 1.390 . S
C1612 C1611 1.364 . S
C1612 H1678 0.931 . S
Co1613 N1610 1.864 . S
Co1613 N1629 1.955 . S
Co1613 N1630 1.958 . S
Co1613 N1631 1.953 . S
Co1613 N1649 1.869 . S
Co1613 N1655 1.974 . S
C1614 C1609 1.516 . S
C1614 O1615 1.238 . S
C1614 N1630 1.324 . S
O1615 C1614 1.238 . S
C1616 C1617 1.394 . S
C1616 C1621 1.395 . S
C1616 N1630 1.427 . S
C1617 C1616 1.394 . S
C1617 C1618 1.380 . S
C1617 H1679 0.929 . S
C1618 C1617 1.380 . S
C1618 C1619 1.384 . S
C1618 C1622 1.495 . S
C1619 C1618 1.384 . S
C1619 C1620 1.382 . S
C1619 H1680 0.930 . S
C1620 C1619 1.382 . S
C1620 C1621 1.398 . S
C1621 C1616 1.395 . S
C1621 C1620 1.398 . S
C1621 H1681 0.930 . S
C1622 C1618 1.495 . S
C1622 O1669 1.258 . S
C1622 O1670 1.274 . S
C1623 C1624 1.385 . S
C1623 C1625 1.381 . S
C1623 N1629 1.432 . S
C1624 C1623 1.385 . S
C1624 C1628 1.388 . S
C1624 H1682 0.929 . S
C1625 C1623 1.381 . S
C1625 C1626 1.371 . S
C1625 H1683 0.932 . S
C1626 C1625 1.371 . S
C1626 C1627 1.400 . S
C1627 C1626 1.400 . S
C1627 C1628 1.351 . S
C1627 H1684 0.930 . S
C1628 C1624 1.388 . S
C1628 C1627 1.351 . S
N1629 C1604 1.329 . S
N1629 Co1613 1.955 . S
N1629 C1623 1.432 . S
N1630 Co1613 1.958 . S
N1630 C1614 1.324 . S
N1630 C1616 1.427 . S
N1631 Co1613 1.953 . S
N1631 C1632 1.436 . S
N1631 C1658 1.316 . S
C1632 N1631 1.436 . S
C1632 C1633 1.421 . S
C1632 C1634 1.360 . S
C1633 C1632 1.421 . S
C1633 C1635 1.379 . S
C1633 H1636 0.929 . S
C1634 C1632 1.360 . S
C1634 C1638 1.393 . S
C1634 H1640 0.931 . S
C1635 C1633 1.379 . S
C1635 C1637 1.417 . S
C1635 C1639 1.505 . S
H1636 C1633 0.929 . S
C1637 C1635 1.417 . S
C1637 C1638 1.352 . S
C1637 H1641 0.929 . S
C1638 C1634 1.393 . S
C1638 C1637 1.352 . S
C1638 C1642 1.482 . S
C1639 C1635 1.505 . S
C1639 O1643 1.259 . S
C1639 O1644 1.229 . S
H1640 C1634 0.931 . S
H1641 C1637 0.929 . S
C1642 C1638 1.482 . S
C1642 O1645 1.207 . S
C1642 O1646 1.289 . S
O1643 C1639 1.259 . S
O1643 H1647 0.822 . S
O1644 C1639 1.229 . S
O1645 C1642 1.207 . S
O1646 C1642 1.289 . S
O1646 H1648 0.819 . S
H1647 O1643 0.822 . S
H1648 O1646 0.819 . S
N1649 Co1613 1.869 . S
N1649 C1650 1.330 . S
N1649 C1654 1.325 . S
C1650 N1649 1.330 . S
C1650 C1651 1.359 . S
C1650 C1656 1.504 . S
C1651 C1650 1.359 . S
C1651 C1652 1.366 . S
C1651 H1685 0.929 . S
C1652 C1651 1.366 . S
C1652 C1653 1.415 . S
C1652 H1686 0.932 . S
C1653 C1652 1.415 . S
C1653 C1654 1.366 . S
C1653 H1687 0.931 . S
C1654 N1649 1.325 . S
C1654 C1653 1.366 . S
C1654 C1658 1.516 . S
N1655 Co1613 1.974 . S
N1655 C1656 1.309 . S
N1655 C1661 1.423 . S
C1656 C1650 1.504 . S
C1656 N1655 1.309 . S
C1656 O1657 1.258 . S
O1657 C1656 1.258 . S
C1658 N1631 1.316 . S
C1658 C1654 1.516 . S
C1658 O1671 1.263 . S
O1659 Cd1602 2.350 . S
O1659 C1675 1.270 . S
O1660 Cd1602 2.277 . S
O1660 C1675 1.248 . S
C1661 N1655 1.423 . S
C1661 C1662 1.370 . S
C1661 C1666 1.403 . S
C1662 C1661 1.370 . S
C1662 C1663 1.389 . S
C1662 H1688 0.931 . S
C1663 C1662 1.389 . S
C1663 C1664 1.389 . S
C1664 C1663 1.389 . S
C1664 C1665 1.379 . S
C1664 H1689 0.929 . S
C1665 C1664 1.379 . S
C1665 C1666 1.405 . S
C1666 C1661 1.403 . S
C1666 C1665 1.405 . S
C1666 H1690 0.932 . S
O1667 Cd1602 2.173 . S
O1667 C1603 1.277 . S
O1668 C1603 1.230 . S
O1668 Cd1606 2.250 . S
O1669 Cd1602 2.263 . S
O1669 C1622 1.258 . S
O1670 Cd1606 2.308 . S
O1670 C1622 1.274 . S
O1671 Cd1602 2.366 . S
O1671 C1658 1.263 . S
C1672 O1673 1.235 . S
C1672 O1674 1.270 . S
O1673 Cd1606 2.352 . S
O1673 C1672 1.235 . S
O1674 Cd1602 2.329 . S
O1674 C1672 1.270 . S
C1675 O1659 1.270 . S
C1675 O1660 1.248 . S
H1676 C1608 0.930 . S
H1677 C1611 0.930 . S
H1678 C1612 0.931 . S
H1679 C1617 0.929 . S
H1680 C1619 0.930 . S
H1681 C1621 0.930 . S
H1682 C1624 0.929 . S
H1683 C1625 0.932 . S
H1684 C1627 0.930 . S
H1685 C1651 0.929 . S
H1686 C1652 0.932 . S
H1687 C1653 0.931 . S
H1688 C1662 0.931 . S
H1689 C1664 0.929 . S
H1690 C1666 0.932 . S
Cd1691 O1748 2.350 . S
Cd1691 O1749 2.277 . S
Cd1691 O1756 2.173 . S
Cd1691 O1758 2.263 . S
Cd1691 O1760 2.366 . S
Cd1691 O1763 2.329 . S
C1692 O1756 1.277 . S
C1692 O1757 1.230 . S
C1693 O1694 1.246 . S
C1693 C1696 1.481 1_565 S
C1693 N1718 1.329 . S
O1694 C1693 1.246 . S
Cd1695 O1757 2.250 . S
Cd1695 O1759 2.308 . S
Cd1695 O1762 2.352 . S
C1696 C1693 1.481 1_545 S
C1696 N1699 1.327 . S
C1696 C1700 1.407 . S
C1697 C1698 1.346 . S
C1697 C1701 1.390 . S
C1697 H1765 0.930 . S
C1698 C1697 1.346 . S
C1698 N1699 1.342 . S
C1698 C1703 1.516 . S
N1699 C1696 1.327 . S
N1699 C1698 1.342 . S
N1699 Co1702 1.864 1_545 S
C1700 C1696 1.407 . S
C1700 C1701 1.364 . S
C1700 H1766 0.930 . S
C1701 C1697 1.390 . S
C1701 C1700 1.364 . S
C1701 H1767 0.931 . S
Co1702 N1699 1.864 1_565 S
Co1702 N1718 1.955 . S
Co1702 N1719 1.958 1_565 S
Co1702 N1720 1.953 . S
Co1702 N1738 1.869 . S
Co1702 N1744 1.974 . S
C1703 C1698 1.516 . S
C1703 O1704 1.238 . S
C1703 N1719 1.324 . S
O1704 C1703 1.238 . S
C1705 C1706 1.394 1_545 S
C1705 C1710 1.395 . S
C1705 N1719 1.427 . S
C1706 C1705 1.394 1_565 S
C1706 C1707 1.380 . S
C1706 H1768 0.929 . S
C1707 C1706 1.380 . S
C1707 C1708 1.384 . S
C1707 C1711 1.495 . S
C1708 C1707 1.384 . S
C1708 C1709 1.382 1_565 S
C1708 H1769 0.930 . S
C1709 C1708 1.382 1_545 S
C1709 C1710 1.398 . S
C1710 C1705 1.395 . S
C1710 C1709 1.398 . S
C1710 H1770 0.930 . S
C1711 C1707 1.495 . S
C1711 O1758 1.258 . S
C1711 O1759 1.274 . S
C1712 C1713 1.385 . S
C1712 C1714 1.381 . S
C1712 N1718 1.432 . S
C1713 C1712 1.385 . S
C1713 C1717 1.388 . S
C1713 H1771 0.929 . S
C1714 C1712 1.381 . S
C1714 C1715 1.371 . S
C1714 H1772 0.932 . S
C1715 C1714 1.371 . S
C1715 C1716 1.400 . S
C1716 C1715 1.400 . S
C1716 C1717 1.351 . S
C1716 H1773 0.930 . S
C1717 C1713 1.388 . S
C1717 C1716 1.351 . S
N1718 C1693 1.329 . S
N1718 Co1702 1.955 . S
N1718 C1712 1.432 . S
N1719 Co1702 1.958 1_545 S
N1719 C1703 1.324 . S
N1719 C1705 1.427 . S
N1720 Co1702 1.953 . S
N1720 C1721 1.436 . S
N1720 C1747 1.316 . S
C1721 N1720 1.436 . S
C1721 C1722 1.421 . S
C1721 C1723 1.360 1_565 S
C1722 C1721 1.421 . S
C1722 C1724 1.379 . S
C1722 H1725 0.929 . S
C1723 C1721 1.360 1_545 S
C1723 C1727 1.393 . S
C1723 H1729 0.931 . S
C1724 C1722 1.379 . S
C1724 C1726 1.417 1_565 S
C1724 C1728 1.505 . S
H1725 C1722 0.929 . S
C1726 C1724 1.417 1_545 S
C1726 C1727 1.352 . S
C1726 H1730 0.929 . S
C1727 C1723 1.393 . S
C1727 C1726 1.352 . S
C1727 C1731 1.482 . S
C1728 C1724 1.505 . S
C1728 O1732 1.270 . S
C1728 O1733 1.229 . S
H1729 C1723 0.931 . S
H1730 C1726 0.929 . S
C1731 C1727 1.482 . S
C1731 O1734 1.207 . S
C1731 O1735 1.289 . S
O1732 C1728 1.270 . S
O1732 H1736 0.831 . S
O1733 C1728 1.229 . S
O1734 C1731 1.207 . S
O1735 C1731 1.289 . S
O1735 H1737 0.819 . S
H1736 O1732 0.831 . S
H1737 O1735 0.819 . S
N1738 Co1702 1.869 . S
N1738 C1739 1.330 . S
N1738 C1743 1.325 . S
C1739 N1738 1.330 . S
C1739 C1740 1.359 . S
C1739 C1745 1.504 . S
C1740 C1739 1.359 . S
C1740 C1741 1.366 . S
C1740 H1774 0.929 . S
C1741 C1740 1.366 . S
C1741 C1742 1.415 . S
C1741 H1775 0.932 . S
C1742 C1741 1.415 . S
C1742 C1743 1.366 . S
C1742 H1776 0.931 . S
C1743 N1738 1.325 . S
C1743 C1742 1.366 . S
C1743 C1747 1.516 . S
N1744 Co1702 1.974 . S
N1744 C1745 1.309 . S
N1744 C1750 1.423 . S
C1745 C1739 1.504 . S
C1745 N1744 1.309 . S
C1745 O1746 1.258 . S
O1746 C1745 1.258 . S
C1747 N1720 1.316 . S
C1747 C1743 1.516 . S
C1747 O1760 1.263 . S
O1748 Cd1691 2.350 . S
O1748 C1764 1.270 . S
O1749 Cd1691 2.277 . S
O1749 C1764 1.248 . S
C1750 N1744 1.423 . S
C1750 C1751 1.370 1_565 S
C1750 C1755 1.403 . S
C1751 C1750 1.370 1_545 S
C1751 C1752 1.389 . S
C1751 H1777 0.931 . S
C1752 C1751 1.389 . S
C1752 C1753 1.389 . S
C1753 C1752 1.389 . S
C1753 C1754 1.379 1_545 S
C1753 H1778 0.929 1_655 S
C1754 C1753 1.379 1_565 S
C1754 C1755 1.405 . S
C1755 C1750 1.403 . S
C1755 C1754 1.405 . S
C1755 H1779 0.932 . S
O1756 Cd1691 2.173 . S
O1756 C1692 1.277 . S
O1757 C1692 1.230 . S
O1757 Cd1695 2.250 . S
O1758 Cd1691 2.263 . S
O1758 C1711 1.258 . S
O1759 Cd1695 2.308 . S
O1759 C1711 1.274 . S
O1760 Cd1691 2.366 . S
O1760 C1747 1.263 . S
C1761 O1762 1.235 . S
C1761 O1763 1.270 . S
O1762 Cd1695 2.352 . S
O1762 C1761 1.235 . S
O1763 Cd1691 2.329 . S
O1763 C1761 1.270 . S
C1764 O1748 1.270 . S
C1764 O1749 1.248 . S
H1765 C1697 0.930 . S
H1766 C1700 0.930 . S
H1767 C1701 0.931 . S
H1768 C1706 0.929 . S
H1769 C1708 0.930 . S
H1770 C1710 0.930 . S
H1771 C1713 0.929 . S
H1772 C1714 0.932 . S
H1773 C1716 0.930 . S
H1774 C1740 0.929 . S
H1775 C1741 0.932 . S
H1776 C1742 0.931 . S
H1777 C1751 0.931 . S
H1778 C1753 0.929 1_455 S
H1779 C1755 0.932 . S
Cd1780 O1837 2.350 . S
Cd1780 O1838 2.277 . S
Cd1780 O1845 2.173 . S
Cd1780 O1847 2.263 . S
Cd1780 O1849 2.366 . S
Cd1780 O1852 2.329 . S
C1781 O1845 1.277 . S
C1781 O1846 1.230 . S
C1782 O1783 1.246 . S
C1782 C1785 1.481 . S
C1782 N1807 1.329 . S
O1783 C1782 1.246 . S
Cd1784 O1846 2.250 . S
Cd1784 O1848 2.308 . S
Cd1784 O1851 2.352 . S
C1785 C1782 1.481 . S
C1785 N1788 1.327 . S
C1785 C1789 1.407 . S
C1786 C1787 1.346 1_655 S
C1786 C1790 1.390 . S
C1786 H1854 0.930 . S
C1787 C1786 1.346 1_455 S
C1787 N1788 1.342 . S
C1787 C1792 1.516 . S
N1788 C1785 1.327 . S
N1788 C1787 1.342 . S
N1788 Co1791 1.864 . S
C1789 C1785 1.407 . S
C1789 C1790 1.364 1_455 S
C1789 H1855 0.930 . S
C1790 C1786 1.390 . S
C1790 C1789 1.364 1_655 S
C1790 H1856 0.931 . S
Co1791 N1788 1.864 . S
Co1791 N1807 1.955 . S
Co1791 N1808 1.958 . S
Co1791 N1809 1.953 . S
Co1791 N1827 1.869 . S
Co1791 N1833 1.974 . S
C1792 C1787 1.516 . S
C1792 O1793 1.238 1_455 S
C1792 N1808 1.324 . S
O1793 C1792 1.238 1_655 S
C1794 C1795 1.394 . S
C1794 C1799 1.395 . S
C1794 N1808 1.427 . S
C1795 C1794 1.394 . S
C1795 C1796 1.380 . S
C1795 H1857 0.929 . S
C1796 C1795 1.380 . S
C1796 C1797 1.384 . S
C1796 C1800 1.495 . S
C1797 C1796 1.384 . S
C1797 C1798 1.382 . S
C1797 H1858 0.930 . S
C1798 C1797 1.382 . S
C1798 C1799 1.398 . S
C1799 C1794 1.395 . S
C1799 C1798 1.398 . S
C1799 H1859 0.930 . S
C1800 C1796 1.495 . S
C1800 O1847 1.258 . S
C1800 O1848 1.274 . S
C1801 C1802 1.385 . S
C1801 C1803 1.381 . S
C1801 N1807 1.432 . S
C1802 C1801 1.385 . S
C1802 C1806 1.388 . S
C1802 H1860 0.929 . S
C1803 C1801 1.381 . S
C1803 C1804 1.371 1_565 S
C1803 H1861 0.932 . S
C1804 C1803 1.371 1_545 S
C1804 C1805 1.400 1_545 S
C1805 C1804 1.400 1_565 S
C1805 C1806 1.351 . S
C1805 H1862 0.930 1_565 S
C1806 C1802 1.388 . S
C1806 C1805 1.351 . S
N1807 C1782 1.329 . S
N1807 Co1791 1.955 . S
N1807 C1801 1.432 . S
N1808 Co1791 1.958 . S
N1808 C1792 1.324 . S
N1808 C1794 1.427 . S
N1809 Co1791 1.953 . S
N1809 C1810 1.436 . S
N1809 C1836 1.316 . S
C1810 N1809 1.436 . S
C1810 C1811 1.421 . S
C1810 C1812 1.360 . S
C1811 C1810 1.421 . S
C1811 C1813 1.379 . S
C1811 H1814 0.929 . S
C1812 C1810 1.360 . S
C1812 C1816 1.393 . S
C1812 H1818 0.931 . S
C1813 C1811 1.379 . S
C1813 C1815 1.417 . S
C1813 C1817 1.505 . S
H1814 C1811 0.929 . S
C1815 C1813 1.417 . S
C1815 C1816 1.352 . S
C1815 H1819 0.929 . S
C1816 C1812 1.393 . S
C1816 C1815 1.352 . S
C1816 C1820 1.482 1_455 S
C1817 C1813 1.505 . S
C1817 O1821 1.259 . S
C1817 O1822 1.229 . S
H1818 C1812 0.931 . S
H1819 C1815 0.929 . S
C1820 C1816 1.482 1_655 S
C1820 O1823 1.207 . S
C1820 O1824 1.289 . S
O1821 C1817 1.259 . S
O1821 H1825 0.822 . S
O1822 C1817 1.229 . S
O1823 C1820 1.207 . S
O1824 C1820 1.289 . S
O1824 H1826 0.819 . S
H1825 O1821 0.822 . S
H1826 O1824 0.819 . S
N1827 Co1791 1.869 . S
N1827 C1828 1.330 . S
N1827 C1832 1.325 . S
C1828 N1827 1.330 . S
C1828 C1829 1.359 . S
C1828 C1834 1.504 . S
C1829 C1828 1.359 . S
C1829 C1830 1.366 . S
C1829 H1863 0.929 . S
C1830 C1829 1.366 . S
C1830 C1831 1.415 . S
C1830 H1864 0.932 . S
C1831 C1830 1.415 . S
C1831 C1832 1.366 . S
C1831 H1865 0.931 . S
C1832 N1827 1.325 . S
C1832 C1831 1.366 . S
C1832 C1836 1.516 . S
N1833 Co1791 1.974 . S
N1833 C1834 1.309 . S
N1833 C1839 1.423 . S
C1834 C1828 1.504 . S
C1834 N1833 1.309 . S
C1834 O1835 1.258 . S
O1835 C1834 1.258 . S
C1836 N1809 1.316 . S
C1836 C1832 1.516 . S
C1836 O1849 1.263 . S
O1837 Cd1780 2.350 . S
O1837 C1853 1.270 . S
O1838 Cd1780 2.277 . S
O1838 C1853 1.248 . S
C1839 N1833 1.423 . S
C1839 C1840 1.370 . S
C1839 C1844 1.403 1_565 S
C1840 C1839 1.370 . S
C1840 C1841 1.389 . S
C1840 H1866 0.931 . S
C1841 C1840 1.389 . S
C1841 C1842 1.369 1_565 S
C1842 C1841 1.369 1_545 S
C1842 C1843 1.379 . S
C1842 H1867 0.949 . S
C1843 C1842 1.379 . S
C1843 C1844 1.405 . S
C1844 C1839 1.403 1_545 S
C1844 C1843 1.405 . S
C1844 H1868 0.932 . S
O1845 Cd1780 2.173 . S
O1845 C1781 1.277 . S
O1846 C1781 1.230 . S
O1846 Cd1784 2.250 . S
O1847 Cd1780 2.263 . S
O1847 C1800 1.258 . S
O1848 Cd1784 2.308 . S
O1848 C1800 1.274 . S
O1849 Cd1780 2.366 . S
O1849 C1836 1.263 . S
C1850 O1851 1.235 . S
C1850 O1852 1.270 . S
O1851 Cd1784 2.352 . S
O1851 C1850 1.235 . S
O1852 Cd1780 2.329 . S
O1852 C1850 1.270 . S
C1853 O1837 1.270 . S
C1853 O1838 1.248 . S
H1854 C1786 0.930 . S
H1855 C1789 0.930 . S
H1856 C1790 0.931 . S
H1857 C1795 0.929 . S
H1858 C1797 0.930 . S
H1859 C1799 0.930 . S
H1860 C1802 0.929 . S
H1861 C1803 0.932 . S
H1862 C1805 0.930 1_545 S
H1863 C1829 0.929 . S
H1864 C1830 0.932 . S
H1865 C1831 0.931 . S
H1866 C1840 0.931 . S
H1867 C1842 0.949 . S
H1868 C1844 0.932 . S
Cd1869 O1926 2.350 . S
Cd1869 O1927 2.277 . S
Cd1869 O1934 2.173 . S
Cd1869 O1936 2.263 . S
Cd1869 O1938 2.366 1_545 S
Cd1869 O1941 2.329 . S
C1870 O1934 1.277 . S
C1870 O1935 1.230 . S
C1871 O1872 1.216 1_556 S
C1871 C1874 1.481 . S
C1871 N1896 1.329 . S
O1872 C1871 1.216 1_554 S
Cd1873 O1935 2.250 . S
Cd1873 O1937 2.308 . S
Cd1873 O1940 2.352 1_655 S
C1874 C1871 1.481 . S
C1874 N1877 1.327 . S
C1874 C1878 1.407 . S
C1875 C1876 1.346 . S
C1875 C1879 1.390 . S
C1875 H1943 0.930 . S
C1876 C1875 1.346 . S
C1876 N1877 1.342 . S
C1876 C1881 1.516 . S
N1877 C1874 1.327 . S
N1877 C1876 1.342 . S
N1877 Co1880 1.864 . S
C1878 C1874 1.407 . S
C1878 C1879 1.364 . S
C1878 H1944 0.930 1_556 S
C1879 C1875 1.390 . S
C1879 C1878 1.364 . S
C1879 H1945 0.931 . S
Co1880 N1877 1.864 . S
Co1880 N1896 1.955 . S
Co1880 N1897 1.958 . S
Co1880 N1898 1.953 . S
Co1880 N1916 1.869 . S
Co1880 N1922 1.974 . S
C1881 C1876 1.516 . S
C1881 O1882 1.238 1_565 S
C1881 N1897 1.324 . S
O1882 C1881 1.238 1_545 S
C1883 C1884 1.394 1_565 S
C1883 C1888 1.395 . S
C1883 N1897 1.427 . S
C1884 C1883 1.394 1_545 S
C1884 C1885 1.380 . S
C1884 H1946 0.929 . S
C1885 C1884 1.380 . S
C1885 C1886 1.384 . S
C1885 C1889 1.495 . S
C1886 C1885 1.384 . S
C1886 C1887 1.382 1_545 S
C1886 H1947 0.930 . S
C1887 C1886 1.382 1_565 S
C1887 C1888 1.398 . S
C1888 C1883 1.395 . S
C1888 C1887 1.398 . S
C1888 H1948 0.930 . S
C1889 C1885 1.495 . S
C1889 O1936 1.258 . S
C1889 O1937 1.274 . S
C1890 C1891 1.385 . S
C1890 C1892 1.381 . S
C1890 N1896 1.432 . S
C1891 C1890 1.385 . S
C1891 C1895 1.388 . S
C1891 H1949 0.899 1_556 S
C1892 C1890 1.381 . S
C1892 C1893 1.371 . S
C1892 H1950 0.932 . S
C1893 C1892 1.371 . S
C1893 C1894 1.400 . S
C1894 C1893 1.400 . S
C1894 C1895 1.351 . S
C1894 H1951 0.930 . S
C1895 C1891 1.388 . S
C1895 C1894 1.351 . S
N1896 C1871 1.329 . S
N1896 Co1880 1.955 . S
N1896 C1890 1.432 . S
N1897 Co1880 1.958 . S
N1897 C1881 1.324 . S
N1897 C1883 1.427 . S
N1898 Co1880 1.953 . S
N1898 C1899 1.436 . S
N1898 C1925 1.316 . S
C1899 N1898 1.436 . S
C1899 C1900 1.447 . S
C1899 C1901 1.360 1_565 S
C1900 C1899 1.447 . S
C1900 C1902 1.357 1_566 S
C1900 H1903 0.920 1_556 S
C1901 C1899 1.360 1_545 S
C1901 C1905 1.393 . S
C1901 H1907 0.931 . S
C1902 C1900 1.357 1_544 S
C1902 C1904 1.417 . S
C1902 C1906 1.505 1_545 S
H1903 C1900 0.920 1_554 S
C1904 C1902 1.417 . S
C1904 C1905 1.352 1_554 S
C1904 H1908 0.929 . S
C1905 C1901 1.393 . S
C1905 C1904 1.352 1_556 S
C1905 C1909 1.482 . S
C1906 C1902 1.505 1_565 S
C1906 O1910 1.259 1_565 S
C1906 O1911 1.229 . S
H1907 C1901 0.931 . S
H1908 C1904 0.929 . S
C1909 C1905 1.482 . S
C1909 O1912 1.207 . S
C1909 O1913 1.289 1_556 S
O1910 C1906 1.259 1_545 S
O1910 H1914 0.822 1_545 S
O1911 C1906 1.229 . S
O1912 C1909 1.207 . S
O1913 C1909 1.289 1_554 S
O1913 H1915 0.819 . S
H1914 O1910 0.822 1_565 S
H1915 O1913 0.819 . S
N1916 Co1880 1.869 . S
N1916 C1917 1.330 . S
N1916 C1921 1.325 . S
C1917 N1916 1.330 . S
C1917 C1918 1.359 . S
C1917 C1923 1.504 . S
C1918 C1917 1.359 . S
C1918 C1919 1.366 . S
C1918 H1952 0.929 . S
C1919 C1918 1.366 . S
C1919 C1920 1.415 . S
C1919 H1953 0.932 . S
C1920 C1919 1.415 . S
C1920 C1921 1.366 . S
C1920 H1954 0.931 . S
C1921 N1916 1.325 . S
C1921 C1920 1.366 . S
C1921 C1925 1.516 . S
N1922 Co1880 1.974 . S
N1922 C1923 1.309 . S
N1922 C1928 1.423 . S
C1923 C1917 1.504 . S
C1923 N1922 1.309 . S
C1923 O1924 1.258 . S
O1924 C1923 1.258 . S
C1925 N1898 1.316 . S
C1925 C1921 1.516 . S
C1925 O1938 1.263 . S
O1926 Cd1869 2.350 . S
O1926 C1942 1.270 . S
O1927 Cd1869 2.277 . S
O1927 C1942 1.248 . S
C1928 N1922 1.423 . S
C1928 C1929 1.370 . S
C1928 C1933 1.403 . S
C1929 C1928 1.370 . S
C1929 C1930 1.389 . S
C1929 H1955 0.931 . S
C1930 C1929 1.389 . S
C1930 C1931 1.389 . S
C1931 C1930 1.389 . S
C1931 C1932 1.379 . S
C1931 H1956 0.929 . S
C1932 C1931 1.379 . S
C1932 C1933 1.405 . S
C1933 C1928 1.403 . S
C1933 C1932 1.405 . S
C1933 H1957 0.932 . S
O1934 Cd1869 2.173 . S
O1934 C1870 1.277 . S
O1935 C1870 1.230 . S
O1935 Cd1873 2.250 . S
O1936 Cd1869 2.263 . S
O1936 C1889 1.258 . S
O1937 Cd1873 2.308 . S
O1937 C1889 1.274 . S
O1938 Cd1869 2.366 1_565 S
O1938 C1925 1.263 . S
C1939 O1940 1.235 . S
C1939 O1941 1.270 1_455 S
O1940 Cd1873 2.352 1_455 S
O1940 C1939 1.235 . S
O1941 Cd1869 2.329 . S
O1941 C1939 1.270 1_655 S
C1942 O1926 1.270 . S
C1942 O1927 1.248 . S
H1943 C1875 0.930 . S
H1944 C1878 0.930 1_554 S
H1945 C1879 0.931 . S
H1946 C1884 0.929 . S
H1947 C1886 0.930 . S
H1948 C1888 0.930 . S
H1949 C1891 0.899 1_554 S
H1950 C1892 0.932 . S
H1951 C1894 0.930 . S
H1952 C1918 0.929 . S
H1953 C1919 0.932 . S
H1954 C1920 0.931 . S
H1955 C1929 0.931 . S
H1956 C1931 0.929 . S
H1957 C1933 0.932 . S
Cd1958 O2015 2.350 1_455 S
Cd1958 O2016 2.277 . S
Cd1958 O2023 2.173 . S
Cd1958 O2025 2.263 . S
Cd1958 O2027 2.366 . S
Cd1958 O2030 2.329 1_455 S
C1959 O2023 1.277 . S
C1959 O2024 1.230 . S
C1960 O1961 1.216 1_556 S
C1960 C1963 1.481 . S
C1960 N1985 1.329 . S
O1961 C1960 1.216 1_554 S
Cd1962 O2024 2.250 1_655 S
Cd1962 O2026 2.308 . S
Cd1962 O2029 2.352 . S
C1963 C1960 1.481 . S
C1963 N1966 1.327 . S
C1963 C1967 1.407 . S
C1964 C1965 1.346 . S
C1964 C1968 1.390 . S
C1964 H2032 0.930 . S
C1965 C1964 1.346 . S
C1965 N1966 1.342 . S
C1965 C1970 1.516 . S
N1966 C1963 1.327 . S
N1966 C1965 1.342 . S
N1966 Co1969 1.864 . S
C1967 C1963 1.407 . S
C1967 C1968 1.364 . S
C1967 H2033 0.930 1_556 S
C1968 C1964 1.390 . S
C1968 C1967 1.364 . S
C1968 H2034 0.931 . S
Co1969 N1966 1.864 . S
Co1969 N1985 1.955 . S
Co1969 N1986 1.958 . S
Co1969 N1987 1.953 . S
Co1969 N2005 1.869 . S
Co1969 N2011 1.974 . S
C1970 C1965 1.516 . S
C1970 O1971 1.238 . S
C1970 N1986 1.324 . S
O1971 C1970 1.238 . S
C1972 C1973 1.394 . S
C1972 C1977 1.395 . S
C1972 N1986 1.427 . S
C1973 C1972 1.394 . S
C1973 C1974 1.380 . S
C1973 H2035 0.929 . S
C1974 C1973 1.380 . S
C1974 C1975 1.384 . S
C1974 C1978 1.495 . S
C1975 C1974 1.384 . S
C1975 C1976 1.382 . S
C1975 H2036 0.930 . S
C1976 C1975 1.382 . S
C1976 C1977 1.398 . S
C1977 C1972 1.395 . S
C1977 C1976 1.398 . S
C1977 H2037 0.930 . S
C1978 C1974 1.495 . S
C1978 O2025 1.258 . S
C1978 O2026 1.274 1_455 S
C1979 C1980 1.385 . S
C1979 C1981 1.381 . S
C1979 N1985 1.432 . S
C1980 C1979 1.385 . S
C1980 C1984 1.388 . S
C1980 H2038 0.899 1_556 S
C1981 C1979 1.381 . S
C1981 C1982 1.371 . S
C1981 H2039 0.932 . S
C1982 C1981 1.371 . S
C1982 C1983 1.400 1_565 S
C1983 C1982 1.400 1_545 S
C1983 C1984 1.351 1_545 S
C1983 H2040 0.930 . S
C1984 C1980 1.388 . S
C1984 C1983 1.351 1_565 S
N1985 C1960 1.329 . S
N1985 Co1969 1.955 . S
N1985 C1979 1.432 . S
N1986 Co1969 1.958 . S
N1986 C1970 1.324 . S
N1986 C1972 1.427 . S
N1987 Co1969 1.953 . S
N1987 C1988 1.436 . S
N1987 C2014 1.316 . S
C1988 N1987 1.436 . S
C1988 C1989 1.447 . S
C1988 C1990 1.360 . S
C1989 C1988 1.447 . S
C1989 C1991 1.357 1_556 S
C1989 H1992 0.920 1_556 S
C1990 C1988 1.360 . S
C1990 C1994 1.393 . S
C1990 H1996 0.931 . S
C1991 C1989 1.357 1_554 S
C1991 C1993 1.417 . S
C1991 C1995 1.505 . S
H1992 C1989 0.920 1_554 S
C1993 C1991 1.417 . S
C1993 C1994 1.352 1_554 S
C1993 H1997 0.929 . S
C1994 C1990 1.393 . S
C1994 C1993 1.352 1_556 S
C1994 C1998 1.482 . S
C1995 C1991 1.505 . S
C1995 O1999 1.259 . S
C1995 O2000 1.229 . S
H1996 C1990 0.931 . S
H1997 C1993 0.929 . S
C1998 C1994 1.482 . S
C1998 O2001 1.207 1_455 S
C1998 O2002 1.289 1_456 S
O1999 C1995 1.259 . S
O1999 H2003 0.822 . S
O2000 C1995 1.229 . S
O2001 C1998 1.207 1_655 S
O2002 C1998 1.289 1_654 S
O2002 H2004 0.819 . S
H2003 O1999 0.822 . S
H2004 O2002 0.819 . S
N2005 Co1969 1.869 . S
N2005 C2006 1.330 . S
N2005 C2010 1.325 . S
C2006 N2005 1.330 . S
C2006 C2007 1.359 . S
C2006 C2012 1.504 . S
C2007 C2006 1.359 . S
C2007 C2008 1.366 . S
C2007 H2041 0.929 . S
C2008 C2007 1.366 . S
C2008 C2009 1.415 . S
C2008 H2042 0.932 . S
C2009 C2008 1.415 . S
C2009 C2010 1.366 . S
C2009 H2043 0.931 . S
C2010 N2005 1.325 . S
C2010 C2009 1.366 . S
C2010 C2014 1.516 . S
N2011 Co1969 1.974 . S
N2011 C2012 1.309 . S
N2011 C2017 1.423 . S
C2012 C2006 1.504 . S
C2012 N2011 1.309 . S
C2012 O2013 1.258 . S
O2013 C2012 1.258 . S
C2014 N1987 1.316 . S
C2014 C2010 1.516 . S
C2014 O2027 1.263 . S
O2015 Cd1958 2.350 1_655 S
O2015 C2031 1.270 . S
O2016 Cd1958 2.277 . S
O2016 C2031 1.248 1_455 S
C2017 N2011 1.423 . S
C2017 C2018 1.370 . S
C2017 C2022 1.403 . S
C2018 C2017 1.370 . S
C2018 C2019 1.389 . S
C2018 H2044 0.931 . S
C2019 C2018 1.389 . S
C2019 C2020 1.389 . S
C2020 C2019 1.389 . S
C2020 C2021 1.379 . S
C2020 H2045 0.929 . S
C2021 C2020 1.379 . S
C2021 C2022 1.405 . S
C2022 C2017 1.403 . S
C2022 C2021 1.405 . S
C2022 H2046 0.932 . S
O2023 Cd1958 2.173 . S
O2023 C1959 1.277 . S
O2024 C1959 1.230 . S
O2024 Cd1962 2.250 1_455 S
O2025 Cd1958 2.263 . S
O2025 C1978 1.258 . S
O2026 Cd1962 2.308 . S
O2026 C1978 1.274 1_655 S
O2027 Cd1958 2.366 . S
O2027 C2014 1.263 . S
C2028 O2029 1.235 . S
C2028 O2030 1.270 . S
O2029 Cd1962 2.352 . S
O2029 C2028 1.235 . S
O2030 Cd1958 2.329 1_655 S
O2030 C2028 1.270 . S
C2031 O2015 1.270 . S
C2031 O2016 1.248 1_655 S
H2032 C1964 0.930 . S
H2033 C1967 0.930 1_554 S
H2034 C1968 0.931 . S
H2035 C1973 0.929 . S
H2036 C1975 0.930 . S
H2037 C1977 0.930 . S
H2038 C1980 0.899 1_554 S
H2039 C1981 0.932 . S
H2040 C1983 0.930 . S
H2041 C2007 0.929 . S
H2042 C2008 0.932 . S
H2043 C2009 0.931 . S
H2044 C2018 0.931 . S
H2045 C2020 0.929 . S
H2046 C2022 0.932 . S
Cd2047 O2104 2.350 . S
Cd2047 O2105 2.277 . S
Cd2047 O2112 2.173 . S
Cd2047 O2114 2.263 . S
Cd2047 O2116 2.366 . S
Cd2047 O2119 2.329 . S
C2048 O2112 1.277 . S
C2048 O2113 1.230 . S
C2049 O2050 1.215 1_556 S
C2049 C2052 1.481 . S
C2049 N2074 1.329 . S
O2050 C2049 1.215 1_554 S
Cd2051 O2113 2.250 . S
Cd2051 O2115 2.308 . S
Cd2051 O2118 2.352 . S
C2052 C2049 1.481 . S
C2052 N2055 1.327 . S
C2052 C2056 1.407 . S
C2053 C2054 1.346 . S
C2053 C2057 1.390 . S
C2053 H2121 0.930 . S
C2054 C2053 1.346 . S
C2054 N2055 1.342 . S
C2054 C2059 1.516 . S
N2055 C2052 1.327 . S
N2055 C2054 1.342 . S
N2055 Co2058 1.864 . S
C2056 C2052 1.407 . S
C2056 C2057 1.364 . S
C2056 H2122 0.930 1_556 S
C2057 C2053 1.390 . S
C2057 C2056 1.364 . S
C2057 H2123 0.931 . S
Co2058 N2055 1.864 . S
Co2058 N2074 1.955 . S
Co2058 N2075 1.958 . S
Co2058 N2076 1.953 . S
Co2058 N2094 1.869 . S
Co2058 N2100 1.974 . S
C2059 C2054 1.516 . S
C2059 O2060 1.238 . S
C2059 N2075 1.324 . S
O2060 C2059 1.238 . S
C2061 C2062 1.394 . S
C2061 C2066 1.395 . S
C2061 N2075 1.427 . S
C2062 C2061 1.394 . S
C2062 C2063 1.380 . S
C2062 H2124 0.929 . S
C2063 C2062 1.380 . S
C2063 C2064 1.384 . S
C2063 C2067 1.495 . S
C2064 C2063 1.384 . S
C2064 C2065 1.382 . S
C2064 H2125 0.930 . S
C2065 C2064 1.382 . S
C2065 C2066 1.398 . S
C2066 C2061 1.395 . S
C2066 C2065 1.398 . S
C2066 H2126 0.930 . S
C2067 C2063 1.495 . S
C2067 O2114 1.258 . S
C2067 O2115 1.274 . S
C2068 C2069 1.385 . S
C2068 C2070 1.381 . S
C2068 N2074 1.432 . S
C2069 C2068 1.385 . S
C2069 C2073 1.388 . S
C2069 H2127 0.899 1_556 S
C2070 C2068 1.381 . S
C2070 C2071 1.371 . S
C2070 H2128 0.932 . S
C2071 C2070 1.371 . S
C2071 C2072 1.400 . S
C2072 C2071 1.400 . S
C2072 C2073 1.351 . S
C2072 H2129 0.930 . S
C2073 C2069 1.388 . S
C2073 C2072 1.351 . S
N2074 C2049 1.329 . S
N2074 Co2058 1.955 . S
N2074 C2068 1.432 . S
N2075 Co2058 1.958 . S
N2075 C2059 1.324 . S
N2075 C2061 1.427 . S
N2076 Co2058 1.953 . S
N2076 C2077 1.436 . S
N2076 C2103 1.316 . S
C2077 N2076 1.436 . S
C2077 C2078 1.446 . S
C2077 C2079 1.360 . S
C2078 C2077 1.446 . S
C2078 C2080 1.358 1_556 S
C2078 H2081 0.920 1_556 S
C2079 C2077 1.360 . S
C2079 C2083 1.393 . S
C2079 H2085 0.931 . S
C2080 C2078 1.358 1_554 S
C2080 C2082 1.417 . S
C2080 C2084 1.505 . S
H2081 C2078 0.920 1_554 S
C2082 C2080 1.417 . S
C2082 C2083 1.352 1_554 S
C2082 H2086 0.929 . S
C2083 C2079 1.393 . S
C2083 C2082 1.352 1_556 S
C2083 C2087 1.482 . S
C2084 C2080 1.505 . S
C2084 O2088 1.259 . S
C2084 O2089 1.229 . S
H2085 C2079 0.931 . S
H2086 C2082 0.929 . S
C2087 C2083 1.482 . S
C2087 O2090 1.207 . S
C2087 O2091 1.289 1_556 S
O2088 C2084 1.259 . S
O2088 H2092 0.822 . S
O2089 C2084 1.229 . S
O2090 C2087 1.207 . S
O2091 C2087 1.289 1_554 S
O2091 H2093 0.819 . S
H2092 O2088 0.822 . S
H2093 O2091 0.819 . S
N2094 Co2058 1.869 . S
N2094 C2095 1.330 . S
N2094 C2099 1.325 . S
C2095 N2094 1.330 . S
C2095 C2096 1.359 . S
C2095 C2101 1.504 . S
C2096 C2095 1.359 . S
C2096 C2097 1.366 . S
C2096 H2130 0.929 . S
C2097 C2096 1.366 . S
C2097 C2098 1.415 . S
C2097 H2131 0.932 . S
C2098 C2097 1.415 . S
C2098 C2099 1.366 . S
C2098 H2132 0.931 . S
C2099 N2094 1.325 . S
C2099 C2098 1.366 . S
C2099 C2103 1.516 . S
N2100 Co2058 1.974 . S
N2100 C2101 1.309 . S
N2100 C2106 1.423 . S
C2101 C2095 1.504 . S
C2101 N2100 1.309 . S
C2101 O2102 1.258 . S
O2102 C2101 1.258 . S
C2103 N2076 1.316 . S
C2103 C2099 1.516 . S
C2103 O2116 1.263 . S
O2104 Cd2047 2.350 . S
O2104 C2120 1.270 . S
O2105 Cd2047 2.277 . S
O2105 C2120 1.248 . S
C2106 N2100 1.423 . S
C2106 C2107 1.370 . S
C2106 C2111 1.403 . S
C2107 C2106 1.370 . S
C2107 C2108 1.389 . S
C2107 H2133 0.931 . S
C2108 C2107 1.389 . S
C2108 C2109 1.389 . S
C2109 C2108 1.389 . S
C2109 C2110 1.379 . S
C2109 H2134 0.929 . S
C2110 C2109 1.379 . S
C2110 C2111 1.405 . S
C2111 C2106 1.403 . S
C2111 C2110 1.405 . S
C2111 H2135 0.932 . S
O2112 Cd2047 2.173 . S
O2112 C2048 1.277 . S
O2113 C2048 1.230 . S
O2113 Cd2051 2.250 . S
O2114 Cd2047 2.263 . S
O2114 C2067 1.258 . S
O2115 Cd2051 2.308 . S
O2115 C2067 1.274 . S
O2116 Cd2047 2.366 . S
O2116 C2103 1.263 . S
C2117 O2118 1.235 . S
C2117 O2119 1.270 . S
O2118 Cd2051 2.352 . S
O2118 C2117 1.235 . S
O2119 Cd2047 2.329 . S
O2119 C2117 1.270 . S
C2120 O2104 1.270 . S
C2120 O2105 1.248 . S
H2121 C2053 0.930 . S
H2122 C2056 0.930 1_554 S
H2123 C2057 0.931 . S
H2124 C2062 0.929 . S
H2125 C2064 0.930 . S
H2126 C2066 0.930 . S
H2127 C2069 0.899 1_554 S
H2128 C2070 0.932 . S
H2129 C2072 0.930 . S
H2130 C2096 0.929 . S
H2131 C2097 0.932 . S
H2132 C2098 0.931 . S
H2133 C2107 0.931 . S
H2134 C2109 0.929 . S
H2135 C2111 0.932 . S
Cd2136 O2193 2.350 . S
Cd2136 O2194 2.277 . S
Cd2136 O2201 2.173 . S
Cd2136 O2203 2.263 . S
Cd2136 O2205 2.366 . S
Cd2136 O2208 2.329 . S
C2137 O2201 1.277 . S
C2137 O2202 1.230 . S
C2138 O2139 1.246 . S
C2138 C2141 1.481 . S
C2138 N2163 1.329 . S
O2139 C2138 1.246 . S
Cd2140 O2202 2.250 . S
Cd2140 O2204 2.308 . S
Cd2140 O2207 2.352 . S
C2141 C2138 1.481 . S
C2141 N2144 1.327 . S
C2141 C2145 1.407 . S
C2142 C2143 1.346 . S
C2142 C2146 1.390 . S
C2142 H2210 0.930 . S
C2143 C2142 1.346 . S
C2143 N2144 1.342 . S
C2143 C2148 1.516 . S
N2144 C2141 1.327 . S
N2144 C2143 1.342 . S
N2144 Co2147 1.864 . S
C2145 C2141 1.407 . S
C2145 C2146 1.364 . S
C2145 H2211 0.930 . S
C2146 C2142 1.390 . S
C2146 C2145 1.364 . S
C2146 H2212 0.931 . S
Co2147 N2144 1.864 . S
Co2147 N2163 1.955 . S
Co2147 N2164 1.958 . S
Co2147 N2165 1.953 . S
Co2147 N2183 1.869 . S
Co2147 N2189 1.974 . S
C2148 C2143 1.516 . S
C2148 O2149 1.238 . S
C2148 N2164 1.324 . S
O2149 C2148 1.238 . S
C2150 C2151 1.394 . S
C2150 C2155 1.395 . S
C2150 N2164 1.427 . S
C2151 C2150 1.394 . S
C2151 C2152 1.380 . S
C2151 H2213 0.929 . S
C2152 C2151 1.380 . S
C2152 C2153 1.384 . S
C2152 C2156 1.495 . S
C2153 C2152 1.384 . S
C2153 C2154 1.382 . S
C2153 H2214 0.930 . S
C2154 C2153 1.382 . S
C2154 C2155 1.398 . S
C2155 C2150 1.395 . S
C2155 C2154 1.398 . S
C2155 H2215 0.930 . S
C2156 C2152 1.495 . S
C2156 O2203 1.258 . S
C2156 O2204 1.274 . S
C2157 C2158 1.385 . S
C2157 C2159 1.381 . S
C2157 N2163 1.432 . S
C2158 C2157 1.385 . S
C2158 C2162 1.388 . S
C2158 H2216 0.929 . S
C2159 C2157 1.381 . S
C2159 C2160 1.371 1_655 S
C2159 H2217 0.932 . S
C2160 C2159 1.371 1_455 S
C2160 C2161 1.400 1_455 S
C2161 C2160 1.400 1_655 S
C2161 C2162 1.351 . S
C2161 H2218 0.930 1_655 S
C2162 C2158 1.388 . S
C2162 C2161 1.351 . S
N2163 C2138 1.329 . S
N2163 Co2147 1.955 . S
N2163 C2157 1.432 . S
N2164 Co2147 1.958 . S
N2164 C2148 1.324 . S
N2164 C2150 1.427 . S
N2165 Co2147 1.953 . S
N2165 C2166 1.436 . S
N2165 C2192 1.316 . S
C2166 N2165 1.436 . S
C2166 C2167 1.421 . S
C2166 C2168 1.360 . S
C2167 C2166 1.421 . S
C2167 C2169 1.379 . S
C2167 H2170 0.929 . S
C2168 C2166 1.360 . S
C2168 C2172 1.393 . S
C2168 H2174 0.931 . S
C2169 C2167 1.379 . S
C2169 C2171 1.417 . S
C2169 C2173 1.505 . S
H2170 C2167 0.929 . S
C2171 C2169 1.417 . S
C2171 C2172 1.352 . S
C2171 H2175 0.929 . S
C2172 C2168 1.393 . S
C2172 C2171 1.352 . S
C2172 C2176 1.482 . S
C2173 C2169 1.505 . S
C2173 O2177 1.259 . S
C2173 O2178 1.229 . S
H2174 C2168 0.931 . S
H2175 C2171 0.929 . S
C2176 C2172 1.482 . S
C2176 O2179 1.207 . S
C2176 O2180 1.289 . S
O2177 C2173 1.259 . S
O2177 H2181 0.822 . S
O2178 C2173 1.229 . S
O2179 C2176 1.207 . S
O2180 C2176 1.289 . S
O2180 H2182 0.819 . S
H2181 O2177 0.822 . S
H2182 O2180 0.819 . S
N2183 Co2147 1.869 . S
N2183 C2184 1.330 . S
N2183 C2188 1.325 . S
C2184 N2183 1.330 . S
C2184 C2185 1.359 . S
C2184 C2190 1.504 . S
C2185 C2184 1.359 . S
C2185 C2186 1.366 . S
C2185 H2219 0.929 . S
C2186 C2185 1.366 . S
C2186 C2187 1.415 . S
C2186 H2220 0.932 . S
C2187 C2186 1.415 . S
C2187 C2188 1.366 . S
C2187 H2221 0.931 . S
C2188 N2183 1.325 . S
C2188 C2187 1.366 . S
C2188 C2192 1.516 . S
N2189 Co2147 1.974 . S
N2189 C2190 1.309 . S
N2189 C2195 1.423 . S
C2190 C2184 1.504 . S
C2190 N2189 1.309 . S
C2190 O2191 1.258 . S
O2191 C2190 1.258 . S
C2192 N2165 1.316 . S
C2192 C2188 1.516 . S
C2192 O2205 1.263 . S
O2193 Cd2136 2.350 . S
O2193 C2209 1.270 . S
O2194 Cd2136 2.277 . S
O2194 C2209 1.248 . S
C2195 N2189 1.423 . S
C2195 C2196 1.370 . S
C2195 C2200 1.403 1_655 S
C2196 C2195 1.370 . S
C2196 C2197 1.389 . S
C2196 H2222 0.931 . S
C2197 C2196 1.389 . S
C2197 C2198 1.389 1_655 S
C2198 C2197 1.389 1_455 S
C2198 C2199 1.379 . S
C2198 H2223 0.929 1_565 S
C2199 C2198 1.379 . S
C2199 C2200 1.405 . S
C2200 C2195 1.403 1_455 S
C2200 C2199 1.405 . S
C2200 H2224 0.932 . S
O2201 Cd2136 2.173 . S
O2201 C2137 1.277 . S
O2202 C2137 1.230 . S
O2202 Cd2140 2.250 . S
O2203 Cd2136 2.263 . S
O2203 C2156 1.258 . S
O2204 Cd2140 2.308 . S
O2204 C2156 1.274 . S
O2205 Cd2136 2.366 . S
O2205 C2192 1.263 . S
C2206 O2207 1.235 . S
C2206 O2208 1.270 . S
O2207 Cd2140 2.352 . S
O2207 C2206 1.235 . S
O2208 Cd2136 2.329 . S
O2208 C2206 1.270 . S
C2209 O2193 1.270 . S
C2209 O2194 1.248 . S
H2210 C2142 0.930 . S
H2211 C2145 0.930 . S
H2212 C2146 0.931 . S
H2213 C2151 0.929 . S
H2214 C2153 0.930 . S
H2215 C2155 0.930 . S
H2216 C2158 0.929 . S
H2217 C2159 0.932 . S
H2218 C2161 0.930 1_455 S
H2219 C2185 0.929 . S
H2220 C2186 0.932 . S
H2221 C2187 0.931 . S
H2222 C2196 0.931 . S
H2223 C2198 0.929 1_545 S
H2224 C2200 0.932 . S
Cd2225 O2282 2.350 . S
Cd2225 O2283 2.277 . S
Cd2225 O2290 2.173 . S
Cd2225 O2292 2.263 . S
Cd2225 O2294 2.366 . S
Cd2225 O2297 2.329 . S
C2226 O2290 1.277 . S
C2226 O2291 1.230 . S
C2227 O2228 1.246 . S
C2227 C2230 1.481 . S
C2227 N2252 1.329 . S
O2228 C2227 1.246 . S
Cd2229 O2291 2.250 . S
Cd2229 O2293 2.308 . S
Cd2229 O2296 2.352 . S
C2230 C2227 1.481 . S
C2230 N2233 1.327 . S
C2230 C2234 1.407 . S
C2231 C2232 1.346 1_565 S
C2231 C2235 1.390 . S
C2231 H2299 0.930 . S
C2232 C2231 1.346 1_545 S
C2232 N2233 1.342 . S
C2232 C2237 1.516 . S
N2233 C2230 1.327 . S
N2233 C2232 1.342 . S
N2233 Co2236 1.864 . S
C2234 C2230 1.407 . S
C2234 C2235 1.364 1_545 S
C2234 H2300 0.930 . S
C2235 C2231 1.390 . S
C2235 C2234 1.364 1_565 S
C2235 H2301 0.931 . S
Co2236 N2233 1.864 . S
Co2236 N2252 1.955 . S
Co2236 N2253 1.958 . S
Co2236 N2254 1.953 . S
Co2236 N2272 1.869 . S
Co2236 N2278 1.974 . S
C2237 C2232 1.516 . S
C2237 O2238 1.238 1_545 S
C2237 N2253 1.324 . S
O2238 C2237 1.238 1_565 S
C2239 C2240 1.394 . S
C2239 C2244 1.395 . S
C2239 N2253 1.427 . S
C2240 C2239 1.394 . S
C2240 C2241 1.380 . S
C2240 H2302 0.929 . S
C2241 C2240 1.380 . S
C2241 C2242 1.384 . S
C2241 C2245 1.495 . S
C2242 C2241 1.384 . S
C2242 C2243 1.382 . S
C2242 H2303 0.930 . S
C2243 C2242 1.382 . S
C2243 C2244 1.398 . S
C2244 C2239 1.395 . S
C2244 C2243 1.398 . S
C2244 H2304 0.930 . S
C2245 C2241 1.495 . S
C2245 O2292 1.258 . S
C2245 O2293 1.274 . S
C2246 C2247 1.385 . S
C2246 C2248 1.381 . S
C2246 N2252 1.432 . S
C2247 C2246 1.385 . S
C2247 C2251 1.388 . S
C2247 H2305 0.929 . S
C2248 C2246 1.381 . S
C2248 C2249 1.371 . S
C2248 H2306 0.932 . S
C2249 C2248 1.371 . S
C2249 C2250 1.400 . S
C2250 C2249 1.400 . S
C2250 C2251 1.351 . S
C2250 H2307 0.930 . S
C2251 C2247 1.388 . S
C2251 C2250 1.351 . S
N2252 C2227 1.329 . S
N2252 Co2236 1.955 . S
N2252 C2246 1.432 . S
N2253 Co2236 1.958 . S
N2253 C2237 1.324 . S
N2253 C2239 1.427 . S
N2254 Co2236 1.953 . S
N2254 C2255 1.436 . S
N2254 C2281 1.316 . S
C2255 N2254 1.436 . S
C2255 C2256 1.421 . S
C2255 C2257 1.360 . S
C2256 C2255 1.421 . S
C2256 C2258 1.379 . S
C2256 H2259 0.929 . S
C2257 C2255 1.360 . S
C2257 C2261 1.393 . S
C2257 H2263 0.931 . S
C2258 C2256 1.379 . S
C2258 C2260 1.417 . S
C2258 C2262 1.505 . S
H2259 C2256 0.929 . S
C2260 C2258 1.417 . S
C2260 C2261 1.352 . S
C2260 H2264 0.929 . S
C2261 C2257 1.393 . S
C2261 C2260 1.352 . S
C2261 C2265 1.482 1_545 S
C2262 C2258 1.505 . S
C2262 O2266 1.259 . S
C2262 O2267 1.229 . S
H2263 C2257 0.931 . S
H2264 C2260 0.929 . S
C2265 C2261 1.482 1_565 S
C2265 O2268 1.207 . S
C2265 O2269 1.289 . S
O2266 C2262 1.259 . S
O2266 H2270 0.822 . S
O2267 C2262 1.229 . S
O2268 C2265 1.207 . S
O2269 C2265 1.289 . S
O2269 H2271 0.819 . S
H2270 O2266 0.822 . S
H2271 O2269 0.819 . S
N2272 Co2236 1.869 . S
N2272 C2273 1.330 . S
N2272 C2277 1.325 . S
C2273 N2272 1.330 . S
C2273 C2274 1.359 . S
C2273 C2279 1.504 . S
C2274 C2273 1.359 . S
C2274 C2275 1.366 . S
C2274 H2308 0.929 . S
C2275 C2274 1.366 . S
C2275 C2276 1.415 . S
C2275 H2309 0.932 . S
C2276 C2275 1.415 . S
C2276 C2277 1.366 . S
C2276 H2310 0.931 . S
C2277 N2272 1.325 . S
C2277 C2276 1.366 . S
C2277 C2281 1.516 . S
N2278 Co2236 1.974 . S
N2278 C2279 1.309 . S
N2278 C2284 1.423 . S
C2279 C2273 1.504 . S
C2279 N2278 1.309 . S
C2279 O2280 1.258 . S
O2280 C2279 1.258 . S
C2281 N2254 1.316 . S
C2281 C2277 1.516 . S
C2281 O2294 1.263 . S
O2282 Cd2225 2.350 . S
O2282 C2298 1.270 . S
O2283 Cd2225 2.277 . S
O2283 C2298 1.248 . S
C2284 N2278 1.423 . S
C2284 C2285 1.370 . S
C2284 C2289 1.403 . S
C2285 C2284 1.370 . S
C2285 C2286 1.389 . S
C2285 H2311 0.931 . S
C2286 C2285 1.389 . S
C2286 C2287 1.389 . S
C2287 C2286 1.389 . S
C2287 C2288 1.379 . S
C2287 H2312 0.929 . S
C2288 C2287 1.379 . S
C2288 C2289 1.405 . S
C2289 C2284 1.403 . S
C2289 C2288 1.405 . S
C2289 H2313 0.932 . S
O2290 Cd2225 2.173 . S
O2290 C2226 1.277 . S
O2291 C2226 1.230 . S
O2291 Cd2229 2.250 . S
O2292 Cd2225 2.263 . S
O2292 C2245 1.258 . S
O2293 Cd2229 2.308 . S
O2293 C2245 1.274 . S
O2294 Cd2225 2.366 . S
O2294 C2281 1.263 . S
C2295 O2296 1.235 . S
C2295 O2297 1.270 . S
O2296 Cd2229 2.352 . S
O2296 C2295 1.235 . S
O2297 Cd2225 2.329 . S
O2297 C2295 1.270 . S
C2298 O2282 1.270 . S
C2298 O2283 1.248 . S
H2299 C2231 0.930 . S
H2300 C2234 0.930 . S
H2301 C2235 0.931 . S
H2302 C2240 0.929 . S
H2303 C2242 0.930 . S
H2304 C2244 0.930 . S
H2305 C2247 0.929 . S
H2306 C2248 0.932 . S
H2307 C2250 0.930 . S
H2308 C2274 0.929 . S
H2309 C2275 0.932 . S
H2310 C2276 0.931 . S
H2311 C2285 0.931 . S
H2312 C2287 0.929 . S
H2313 C2289 0.932 . S
Cd2314 O2371 2.350 . S
Cd2314 O2372 2.277 . S
Cd2314 O2379 2.173 . S
Cd2314 O2381 2.263 . S
Cd2314 O2383 2.366 . S
Cd2314 O2386 2.329 . S
C2315 O2379 1.277 . S
C2315 O2380 1.230 . S
C2316 O2317 1.246 . S
C2316 C2319 1.481 1_655 S
C2316 N2341 1.329 . S
O2317 C2316 1.246 . S
Cd2318 O2380 2.250 . S
Cd2318 O2382 2.308 . S
Cd2318 O2385 2.352 . S
C2319 C2316 1.481 1_455 S
C2319 N2322 1.327 . S
C2319 C2323 1.407 . S
C2320 C2321 1.346 . S
C2320 C2324 1.390 . S
C2320 H2388 0.930 . S
C2321 C2320 1.346 . S
C2321 N2322 1.342 . S
C2321 C2326 1.516 . S
N2322 C2319 1.327 . S
N2322 C2321 1.342 . S
N2322 Co2325 1.864 1_455 S
C2323 C2319 1.407 . S
C2323 C2324 1.364 . S
C2323 H2389 0.930 . S
C2324 C2320 1.390 . S
C2324 C2323 1.364 . S
C2324 H2390 0.931 . S
Co2325 N2322 1.864 1_655 S
Co2325 N2341 1.955 . S
Co2325 N2342 1.958 1_655 S
Co2325 N2343 1.953 . S
Co2325 N2361 1.869 . S
Co2325 N2367 1.974 . S
C2326 C2321 1.516 . S
C2326 O2327 1.238 . S
C2326 N2342 1.324 . S
O2327 C2326 1.238 . S
C2328 C2329 1.394 1_455 S
C2328 C2333 1.395 . S
C2328 N2342 1.427 . S
C2329 C2328 1.394 1_655 S
C2329 C2330 1.380 . S
C2329 H2391 0.929 . S
C2330 C2329 1.380 . S
C2330 C2331 1.384 . S
C2330 C2334 1.495 . S
C2331 C2330 1.384 . S
C2331 C2332 1.382 1_655 S
C2331 H2392 0.930 . S
C2332 C2331 1.382 1_455 S
C2332 C2333 1.398 . S
C2333 C2328 1.395 . S
C2333 C2332 1.398 . S
C2333 H2393 0.930 . S
C2334 C2330 1.495 . S
C2334 O2381 1.258 . S
C2334 O2382 1.274 . S
C2335 C2336 1.385 . S
C2335 C2337 1.381 . S
C2335 N2341 1.432 . S
C2336 C2335 1.385 . S
C2336 C2340 1.388 . S
C2336 H2394 0.929 . S
C2337 C2335 1.381 . S
C2337 C2338 1.371 . S
C2337 H2395 0.932 . S
C2338 C2337 1.371 . S
C2338 C2339 1.400 . S
C2339 C2338 1.400 . S
C2339 C2340 1.351 . S
C2339 H2396 0.930 . S
C2340 C2336 1.388 . S
C2340 C2339 1.351 . S
N2341 C2316 1.329 . S
N2341 Co2325 1.955 . S
N2341 C2335 1.432 . S
N2342 Co2325 1.958 1_455 S
N2342 C2326 1.324 . S
N2342 C2328 1.427 . S
N2343 Co2325 1.953 . S
N2343 C2344 1.436 . S
N2343 C2370 1.316 . S
C2344 N2343 1.436 . S
C2344 C2345 1.421 . S
C2344 C2346 1.360 1_655 S
C2345 C2344 1.421 . S
C2345 C2347 1.379 . S
C2345 H2348 0.929 . S
C2346 C2344 1.360 1_455 S
C2346 C2350 1.393 . S
C2346 H2352 0.931 . S
C2347 C2345 1.379 . S
C2347 C2349 1.417 1_655 S
C2347 C2351 1.505 . S
H2348 C2345 0.929 . S
C2349 C2347 1.417 1_455 S
C2349 C2350 1.352 . S
C2349 H2353 0.929 . S
C2350 C2346 1.393 . S
C2350 C2349 1.352 . S
C2350 C2354 1.482 . S
C2351 C2347 1.505 . S
C2351 O2355 1.270 . S
C2351 O2356 1.229 . S
H2352 C2346 0.931 . S
H2353 C2349 0.929 . S
C2354 C2350 1.482 . S
C2354 O2357 1.207 . S
C2354 O2358 1.289 . S
O2355 C2351 1.270 . S
O2355 H2359 0.830 . S
O2356 C2351 1.229 . S
O2357 C2354 1.207 . S
O2358 C2354 1.289 . S
O2358 H2360 0.819 . S
H2359 O2355 0.830 . S
H2360 O2358 0.819 . S
N2361 Co2325 1.869 . S
N2361 C2362 1.330 . S
N2361 C2366 1.325 . S
C2362 N2361 1.330 . S
C2362 C2363 1.359 . S
C2362 C2368 1.504 . S
C2363 C2362 1.359 . S
C2363 C2364 1.366 . S
C2363 H2397 0.929 . S
C2364 C2363 1.366 . S
C2364 C2365 1.415 . S
C2364 H2398 0.932 . S
C2365 C2364 1.415 . S
C2365 C2366 1.366 . S
C2365 H2399 0.931 . S
C2366 N2361 1.325 . S
C2366 C2365 1.366 . S
C2366 C2370 1.516 . S
N2367 Co2325 1.974 . S
N2367 C2368 1.309 . S
N2367 C2373 1.423 . S
C2368 C2362 1.504 . S
C2368 N2367 1.309 . S
C2368 O2369 1.258 . S
O2369 C2368 1.258 . S
C2370 N2343 1.316 . S
C2370 C2366 1.516 . S
C2370 O2383 1.263 . S
O2371 Cd2314 2.350 . S
O2371 C2387 1.270 . S
O2372 Cd2314 2.277 . S
O2372 C2387 1.248 . S
C2373 N2367 1.423 . S
C2373 C2374 1.370 1_655 S
C2373 C2378 1.403 . S
C2374 C2373 1.370 1_455 S
C2374 C2375 1.389 . S
C2374 H2400 0.931 . S
C2375 C2374 1.389 . S
C2375 C2376 1.389 . S
C2376 C2375 1.389 . S
C2376 C2377 1.379 1_455 S
C2376 H2401 0.929 . S
C2377 C2376 1.379 1_655 S
C2377 C2378 1.405 . S
C2378 C2373 1.403 . S
C2378 C2377 1.405 . S
C2378 H2402 0.932 . S
O2379 Cd2314 2.173 . S
O2379 C2315 1.277 . S
O2380 C2315 1.230 . S
O2380 Cd2318 2.250 . S
O2381 Cd2314 2.263 . S
O2381 C2334 1.258 . S
O2382 Cd2318 2.308 . S
O2382 C2334 1.274 . S
O2383 Cd2314 2.366 . S
O2383 C2370 1.263 . S
C2384 O2385 1.235 . S
C2384 O2386 1.270 . S
O2385 Cd2318 2.352 . S
O2385 C2384 1.235 . S
O2386 Cd2314 2.329 . S
O2386 C2384 1.270 . S
C2387 O2371 1.270 . S
C2387 O2372 1.248 . S
H2388 C2320 0.930 . S
H2389 C2323 0.930 . S
H2390 C2324 0.931 . S
H2391 C2329 0.929 . S
H2392 C2331 0.930 . S
H2393 C2333 0.930 . S
H2394 C2336 0.929 . S
H2395 C2337 0.932 . S
H2396 C2339 0.930 . S
H2397 C2363 0.929 . S
H2398 C2364 0.932 . S
H2399 C2365 0.931 . S
H2400 C2374 0.931 . S
H2401 C2376 0.929 . S
H2402 C2378 0.932 . S
Cd2403 O2460 2.350 1_545 S
Cd2403 O2461 2.277 . S
Cd2403 O2468 2.173 . S
Cd2403 O2470 2.263 . S
Cd2403 O2472 2.366 . S
Cd2403 O2475 2.329 1_545 S
C2404 O2468 1.277 . S
C2404 O2469 1.230 . S
C2405 O2406 1.215 1_554 S
C2405 C2408 1.481 . S
C2405 N2430 1.329 . S
O2406 C2405 1.215 1_556 S
Cd2407 O2469 2.250 1_565 S
Cd2407 O2471 2.308 . S
Cd2407 O2474 2.352 . S
C2408 C2405 1.481 . S
C2408 N2411 1.327 . S
C2408 C2412 1.407 . S
C2409 C2410 1.346 . S
C2409 C2413 1.390 . S
C2409 H2477 0.930 . S
C2410 C2409 1.346 . S
C2410 N2411 1.342 . S
C2410 C2415 1.516 . S
N2411 C2408 1.327 . S
N2411 C2410 1.342 . S
N2411 Co2414 1.864 . S
C2412 C2408 1.407 . S
C2412 C2413 1.364 . S
C2412 H2478 0.930 1_554 S
C2413 C2409 1.390 . S
C2413 C2412 1.364 . S
C2413 H2479 0.931 . S
Co2414 N2411 1.864 . S
Co2414 N2430 1.955 . S
Co2414 N2431 1.958 . S
Co2414 N2432 1.953 . S
Co2414 N2450 1.869 . S
Co2414 N2456 1.974 . S
C2415 C2410 1.516 . S
C2415 O2416 1.238 . S
C2415 N2431 1.324 . S
O2416 C2415 1.238 . S
C2417 C2418 1.394 . S
C2417 C2422 1.395 . S
C2417 N2431 1.427 . S
C2418 C2417 1.394 . S
C2418 C2419 1.380 . S
C2418 H2480 0.929 . S
C2419 C2418 1.380 . S
C2419 C2420 1.384 . S
C2419 C2423 1.495 . S
C2420 C2419 1.384 . S
C2420 C2421 1.382 . S
C2420 H2481 0.930 . S
C2421 C2420 1.382 . S
C2421 C2422 1.398 . S
C2422 C2417 1.395 . S
C2422 C2421 1.398 . S
C2422 H2482 0.930 . S
C2423 C2419 1.495 . S
C2423 O2470 1.258 . S
C2423 O2471 1.274 1_545 S
C2424 C2425 1.385 . S
C2424 C2426 1.381 . S
C2424 N2430 1.432 . S
C2425 C2424 1.385 . S
C2425 C2429 1.388 . S
C2425 H2483 0.899 1_554 S
C2426 C2424 1.381 . S
C2426 C2427 1.371 . S
C2426 H2484 0.932 . S
C2427 C2426 1.371 . S
C2427 C2428 1.400 . S
C2428 C2427 1.400 . S
C2428 C2429 1.351 . S
C2428 H2485 0.930 . S
C2429 C2425 1.388 . S
C2429 C2428 1.351 . S
N2430 C2405 1.329 . S
N2430 Co2414 1.955 . S
N2430 C2424 1.432 . S
N2431 Co2414 1.958 . S
N2431 C2415 1.324 . S
N2431 C2417 1.427 . S
N2432 Co2414 1.953 . S
N2432 C2433 1.436 . S
N2432 C2459 1.316 . S
C2433 N2432 1.436 . S
C2433 C2434 1.445 . S
C2433 C2435 1.360 . S
C2434 C2433 1.445 . S
C2434 C2436 1.358 1_554 S
C2434 H2437 0.920 1_554 S
C2435 C2433 1.360 . S
C2435 C2439 1.393 . S
C2435 H2441 0.931 . S
C2436 C2434 1.358 1_556 S
C2436 C2438 1.417 . S
C2436 C2440 1.505 . S
H2437 C2434 0.920 1_556 S
C2438 C2436 1.417 . S
C2438 C2439 1.352 1_556 S
C2438 H2442 0.929 . S
C2439 C2435 1.393 . S
C2439 C2438 1.352 1_554 S
C2439 C2443 1.482 . S
C2440 C2436 1.505 . S
C2440 O2444 1.259 . S
C2440 O2445 1.229 . S
H2441 C2435 0.931 . S
H2442 C2438 0.929 . S
C2443 C2439 1.482 . S
C2443 O2446 1.207 1_545 S
C2443 O2447 1.289 1_544 S
O2444 C2440 1.259 . S
O2444 H2448 0.822 . S
O2445 C2440 1.229 . S
O2446 C2443 1.207 1_565 S
O2447 C2443 1.289 1_566 S
O2447 H2449 0.819 . S
H2448 O2444 0.822 . S
H2449 O2447 0.819 . S
N2450 Co2414 1.869 . S
N2450 C2451 1.330 . S
N2450 C2455 1.325 . S
C2451 N2450 1.330 . S
C2451 C2452 1.359 . S
C2451 C2457 1.504 . S
C2452 C2451 1.359 . S
C2452 C2453 1.366 . S
C2452 H2486 0.929 . S
C2453 C2452 1.366 . S
C2453 C2454 1.415 . S
C2453 H2487 0.932 . S
C2454 C2453 1.415 . S
C2454 C2455 1.366 . S
C2454 H2488 0.931 . S
C2455 N2450 1.325 . S
C2455 C2454 1.366 . S
C2455 C2459 1.516 . S
N2456 Co2414 1.974 . S
N2456 C2457 1.309 . S
N2456 C2462 1.423 . S
C2457 C2451 1.504 . S
C2457 N2456 1.309 . S
C2457 O2458 1.258 . S
O2458 C2457 1.258 . S
C2459 N2432 1.316 . S
C2459 C2455 1.516 . S
C2459 O2472 1.263 . S
O2460 Cd2403 2.350 1_565 S
O2460 C2476 1.270 . S
O2461 Cd2403 2.277 . S
O2461 C2476 1.248 1_545 S
C2462 N2456 1.423 . S
C2462 C2463 1.370 . S
C2462 C2467 1.403 . S
C2463 C2462 1.370 . S
C2463 C2464 1.389 . S
C2463 H2489 0.931 . S
C2464 C2463 1.389 . S
C2464 C2465 1.389 . S
C2465 C2464 1.389 . S
C2465 C2466 1.379 . S
C2465 H2490 0.929 . S
C2466 C2465 1.379 . S
C2466 C2467 1.405 . S
C2467 C2462 1.403 . S
C2467 C2466 1.405 . S
C2467 H2491 0.932 . S
O2468 Cd2403 2.173 . S
O2468 C2404 1.277 . S
O2469 C2404 1.230 . S
O2469 Cd2407 2.250 1_545 S
O2470 Cd2403 2.263 . S
O2470 C2423 1.258 . S
O2471 Cd2407 2.308 . S
O2471 C2423 1.274 1_565 S
O2472 Cd2403 2.366 . S
O2472 C2459 1.263 . S
C2473 O2474 1.235 . S
C2473 O2475 1.270 . S
O2474 Cd2407 2.352 . S
O2474 C2473 1.235 . S
O2475 Cd2403 2.329 1_565 S
O2475 C2473 1.270 . S
C2476 O2460 1.270 . S
C2476 O2461 1.248 1_565 S
H2477 C2409 0.930 . S
H2478 C2412 0.930 1_556 S
H2479 C2413 0.931 . S
H2480 C2418 0.929 . S
H2481 C2420 0.930 . S
H2482 C2422 0.930 . S
H2483 C2425 0.899 1_556 S
H2484 C2426 0.932 . S
H2485 C2428 0.930 . S
H2486 C2452 0.929 . S
H2487 C2453 0.932 . S
H2488 C2454 0.931 . S
H2489 C2463 0.931 . S
H2490 C2465 0.929 . S
H2491 C2467 0.932 . S
Cd2492 O2549 2.350 . S
Cd2492 O2550 2.277 . S
Cd2492 O2557 2.173 . S
Cd2492 O2559 2.263 . S
Cd2492 O2561 2.366 1_455 S
Cd2492 O2564 2.329 . S
C2493 O2557 1.277 . S
C2493 O2558 1.230 . S
C2494 O2495 1.214 1_554 S
C2494 C2497 1.481 . S
C2494 N2519 1.329 . S
O2495 C2494 1.214 1_556 S
Cd2496 O2558 2.250 . S
Cd2496 O2560 2.308 . S
Cd2496 O2563 2.352 . S
C2497 C2494 1.481 . S
C2497 N2500 1.327 . S
C2497 C2501 1.407 . S
C2498 C2499 1.346 . S
C2498 C2502 1.390 . S
C2498 H2566 0.930 . S
C2499 C2498 1.346 . S
C2499 N2500 1.342 . S
C2499 C2504 1.516 . S
N2500 C2497 1.327 . S
N2500 C2499 1.342 . S
N2500 Co2503 1.864 . S
C2501 C2497 1.407 . S
C2501 C2502 1.364 . S
C2501 H2567 0.930 1_554 S
C2502 C2498 1.390 . S
C2502 C2501 1.364 . S
C2502 H2568 0.931 . S
Co2503 N2500 1.864 . S
Co2503 N2519 1.955 . S
Co2503 N2520 1.958 . S
Co2503 N2521 1.953 . S
Co2503 N2539 1.869 . S
Co2503 N2545 1.974 . S
C2504 C2499 1.516 . S
C2504 O2505 1.238 1_655 S
C2504 N2520 1.324 . S
O2505 C2504 1.238 1_455 S
C2506 C2507 1.394 1_655 S
C2506 C2511 1.395 . S
C2506 N2520 1.427 . S
C2507 C2506 1.394 1_455 S
C2507 C2508 1.380 . S
C2507 H2569 0.929 . S
C2508 C2507 1.380 . S
C2508 C2509 1.384 . S
C2508 C2512 1.495 . S
C2509 C2508 1.384 . S
C2509 C2510 1.382 1_455 S
C2509 H2570 0.930 . S
C2510 C2509 1.382 1_655 S
C2510 C2511 1.398 . S
C2511 C2506 1.395 . S
C2511 C2510 1.398 . S
C2511 H2571 0.930 . S
C2512 C2508 1.495 . S
C2512 O2559 1.258 . S
C2512 O2560 1.274 . S
C2513 C2514 1.385 . S
C2513 C2515 1.381 . S
C2513 N2519 1.432 . S
C2514 C2513 1.385 . S
C2514 C2518 1.388 . S
C2514 H2572 0.898 1_554 S
C2515 C2513 1.381 . S
C2515 C2516 1.371 . S
C2515 H2573 0.932 . S
C2516 C2515 1.371 . S
C2516 C2517 1.400 . S
C2517 C2516 1.400 . S
C2517 C2518 1.351 . S
C2517 H2574 0.930 . S
C2518 C2514 1.388 . S
C2518 C2517 1.351 . S
N2519 C2494 1.329 . S
N2519 Co2503 1.955 . S
N2519 C2513 1.432 . S
N2520 Co2503 1.958 . S
N2520 C2504 1.324 . S
N2520 C2506 1.427 . S
N2521 Co2503 1.953 . S
N2521 C2522 1.436 . S
N2521 C2548 1.316 . S
C2522 N2521 1.436 . S
C2522 C2523 1.445 . S
C2522 C2524 1.360 1_655 S
C2523 C2522 1.445 . S
C2523 C2525 1.358 1_654 S
C2523 H2526 0.920 1_554 S
C2524 C2522 1.360 1_455 S
C2524 C2528 1.393 . S
C2524 H2530 0.931 . S
C2525 C2523 1.358 1_456 S
C2525 C2527 1.417 . S
C2525 C2529 1.505 1_455 S
H2526 C2523 0.920 1_556 S
C2527 C2525 1.417 . S
C2527 C2528 1.352 1_556 S
C2527 H2531 0.929 . S
C2528 C2524 1.393 . S
C2528 C2527 1.352 1_554 S
C2528 C2532 1.482 . S
C2529 C2525 1.505 1_655 S
C2529 O2533 1.259 1_655 S
C2529 O2534 1.229 . S
H2530 C2524 0.931 . S
H2531 C2527 0.929 . S
C2532 C2528 1.482 . S
C2532 O2535 1.207 . S
C2532 O2536 1.289 1_554 S
O2533 C2529 1.259 1_455 S
O2533 H2537 0.822 1_455 S
O2534 C2529 1.229 . S
O2535 C2532 1.207 . S
O2536 C2532 1.289 1_556 S
O2536 H2538 0.819 . S
H2537 O2533 0.822 1_655 S
H2538 O2536 0.819 . S
N2539 Co2503 1.869 . S
N2539 C2540 1.330 . S
N2539 C2544 1.325 . S
C2540 N2539 1.330 . S
C2540 C2541 1.359 . S
C2540 C2546 1.504 . S
C2541 C2540 1.359 . S
C2541 C2542 1.366 . S
C2541 H2575 0.929 . S
C2542 C2541 1.366 . S
C2542 C2543 1.415 . S
C2542 H2576 0.932 . S
C2543 C2542 1.415 . S
C2543 C2544 1.366 . S
C2543 H2577 0.931 . S
C2544 N2539 1.325 . S
C2544 C2543 1.366 . S
C2544 C2548 1.516 . S
N2545 Co2503 1.974 . S
N2545 C2546 1.309 . S
N2545 C2551 1.423 . S
C2546 C2540 1.504 . S
C2546 N2545 1.309 . S
C2546 O2547 1.258 . S
O2547 C2546 1.258 . S
C2548 N2521 1.316 . S
C2548 C2544 1.516 . S
C2548 O2561 1.263 . S
O2549 Cd2492 2.350 . S
O2549 C2565 1.270 . S
O2550 Cd2492 2.277 . S
O2550 C2565 1.248 . S
C2551 N2545 1.423 . S
C2551 C2552 1.370 . S
C2551 C2556 1.403 . S
C2552 C2551 1.370 . S
C2552 C2553 1.389 . S
C2552 H2578 0.931 . S
C2553 C2552 1.389 . S
C2553 C2554 1.389 . S
C2554 C2553 1.389 . S
C2554 C2555 1.379 . S
C2554 H2579 0.929 . S
C2555 C2554 1.379 . S
C2555 C2556 1.405 . S
C2556 C2551 1.403 . S
C2556 C2555 1.405 . S
C2556 H2580 0.932 . S
O2557 Cd2492 2.173 . S
O2557 C2493 1.277 . S
O2558 C2493 1.230 . S
O2558 Cd2496 2.250 . S
O2559 Cd2492 2.263 . S
O2559 C2512 1.258 . S
O2560 Cd2496 2.308 . S
O2560 C2512 1.274 . S
O2561 Cd2492 2.366 1_655 S
O2561 C2548 1.263 . S
C2562 O2563 1.235 . S
C2562 O2564 1.270 . S
O2563 Cd2496 2.352 . S
O2563 C2562 1.235 . S
O2564 Cd2492 2.329 . S
O2564 C2562 1.270 . S
C2565 O2549 1.270 . S
C2565 O2550 1.248 . S
H2566 C2498 0.930 . S
H2567 C2501 0.930 1_556 S
H2568 C2502 0.931 . S
H2569 C2507 0.929 . S
H2570 C2509 0.930 . S
H2571 C2511 0.930 . S
H2572 C2514 0.898 1_556 S
H2573 C2515 0.932 . S
H2574 C2517 0.930 . S
H2575 C2541 0.929 . S
H2576 C2542 0.932 . S
H2577 C2543 0.931 . S
H2578 C2552 0.931 . S
H2579 C2554 0.929 . S
H2580 C2556 0.932 . S
Cd2581 O2638 2.350 . S
Cd2581 O2639 2.277 . S
Cd2581 O2646 2.173 . S
Cd2581 O2648 2.263 . S
Cd2581 O2650 2.366 . S
Cd2581 O2653 2.329 . S
C2582 O2646 1.277 . S
C2582 O2647 1.230 . S
C2583 O2584 1.215 1_554 S
C2583 C2586 1.481 . S
C2583 N2608 1.329 . S
O2584 C2583 1.215 1_556 S
Cd2585 O2647 2.250 . S
Cd2585 O2649 2.308 . S
Cd2585 O2652 2.352 1_565 S
C2586 C2583 1.481 . S
C2586 N2589 1.327 . S
C2586 C2590 1.407 . S
C2587 C2588 1.346 . S
C2587 C2591 1.390 . S
C2587 H2655 0.930 . S
C2588 C2587 1.346 . S
C2588 N2589 1.342 . S
C2588 C2593 1.516 . S
N2589 C2586 1.327 . S
N2589 C2588 1.342 . S
N2589 Co2592 1.864 . S
C2590 C2586 1.407 . S
C2590 C2591 1.364 . S
C2590 H2656 0.930 1_554 S
C2591 C2587 1.390 . S
C2591 C2590 1.364 . S
C2591 H2657 0.931 . S
Co2592 N2589 1.864 . S
Co2592 N2608 1.955 . S
Co2592 N2609 1.958 . S
Co2592 N2610 1.953 . S
Co2592 N2628 1.869 . S
Co2592 N2634 1.974 . S
C2593 C2588 1.516 . S
C2593 O2594 1.238 . S
C2593 N2609 1.324 . S
O2594 C2593 1.238 . S
C2595 C2596 1.394 . S
C2595 C2600 1.395 . S
C2595 N2609 1.427 . S
C2596 C2595 1.394 . S
C2596 C2597 1.380 . S
C2596 H2658 0.929 . S
C2597 C2596 1.380 . S
C2597 C2598 1.384 . S
C2597 C2601 1.495 . S
C2598 C2597 1.384 . S
C2598 C2599 1.382 . S
C2598 H2659 0.930 . S
C2599 C2598 1.382 . S
C2599 C2600 1.398 . S
C2600 C2595 1.395 . S
C2600 C2599 1.398 . S
C2600 H2660 0.930 . S
C2601 C2597 1.495 . S
C2601 O2648 1.258 . S
C2601 O2649 1.274 . S
C2602 C2603 1.385 . S
C2602 C2604 1.381 . S
C2602 N2608 1.432 . S
C2603 C2602 1.385 . S
C2603 C2607 1.388 . S
C2603 H2661 0.899 1_554 S
C2604 C2602 1.381 . S
C2604 C2605 1.371 . S
C2604 H2662 0.932 . S
C2605 C2604 1.371 . S
C2605 C2606 1.400 1_655 S
C2606 C2605 1.400 1_455 S
C2606 C2607 1.351 1_455 S
C2606 H2663 0.930 . S
C2607 C2603 1.388 . S
C2607 C2606 1.351 1_655 S
N2608 C2583 1.329 . S
N2608 Co2592 1.955 . S
N2608 C2602 1.432 . S
N2609 Co2592 1.958 . S
N2609 C2593 1.324 . S
N2609 C2595 1.427 . S
N2610 Co2592 1.953 . S
N2610 C2611 1.436 . S
N2610 C2637 1.316 . S
C2611 N2610 1.436 . S
C2611 C2612 1.446 . S
C2611 C2613 1.360 . S
C2612 C2611 1.446 . S
C2612 C2614 1.357 1_554 S
C2612 H2615 0.920 1_554 S
C2613 C2611 1.360 . S
C2613 C2617 1.393 . S
C2613 H2619 0.931 . S
C2614 C2612 1.357 1_556 S
C2614 C2616 1.417 . S
C2614 C2618 1.505 . S
H2615 C2612 0.920 1_556 S
C2616 C2614 1.417 . S
C2616 C2617 1.352 1_556 S
C2616 H2620 0.929 . S
C2617 C2613 1.393 . S
C2617 C2616 1.352 1_554 S
C2617 C2621 1.482 . S
C2618 C2614 1.505 . S
C2618 O2622 1.259 . S
C2618 O2623 1.229 . S
H2619 C2613 0.931 . S
H2620 C2616 0.929 . S
C2621 C2617 1.482 . S
C2621 O2624 1.207 . S
C2621 O2625 1.289 1_554 S
O2622 C2618 1.259 . S
O2622 H2626 0.822 . S
O2623 C2618 1.229 . S
O2624 C2621 1.207 . S
O2625 C2621 1.289 1_556 S
O2625 H2627 0.819 . S
H2626 O2622 0.822 . S
H2627 O2625 0.819 . S
N2628 Co2592 1.869 . S
N2628 C2629 1.330 . S
N2628 C2633 1.325 . S
C2629 N2628 1.330 . S
C2629 C2630 1.359 . S
C2629 C2635 1.504 . S
C2630 C2629 1.359 . S
C2630 C2631 1.366 . S
C2630 H2664 0.929 . S
C2631 C2630 1.366 . S
C2631 C2632 1.415 . S
C2631 H2665 0.932 . S
C2632 C2631 1.415 . S
C2632 C2633 1.366 . S
C2632 H2666 0.931 . S
C2633 N2628 1.325 . S
C2633 C2632 1.366 . S
C2633 C2637 1.516 . S
N2634 Co2592 1.974 . S
N2634 C2635 1.309 . S
N2634 C2640 1.423 . S
C2635 C2629 1.504 . S
C2635 N2634 1.309 . S
C2635 O2636 1.258 . S
O2636 C2635 1.258 . S
C2637 N2610 1.316 . S
C2637 C2633 1.516 . S
C2637 O2650 1.263 . S
O2638 Cd2581 2.350 . S
O2638 C2654 1.270 . S
O2639 Cd2581 2.277 . S
O2639 C2654 1.248 . S
C2640 N2634 1.423 . S
C2640 C2641 1.370 . S
C2640 C2645 1.403 . S
C2641 C2640 1.370 . S
C2641 C2642 1.389 . S
C2641 H2667 0.931 . S
C2642 C2641 1.389 . S
C2642 C2643 1.389 . S
C2643 C2642 1.389 . S
C2643 C2644 1.379 . S
C2643 H2668 0.929 . S
C2644 C2643 1.379 . S
C2644 C2645 1.405 . S
C2645 C2640 1.403 . S
C2645 C2644 1.405 . S
C2645 H2669 0.932 . S
O2646 Cd2581 2.173 . S
O2646 C2582 1.277 . S
O2647 C2582 1.230 . S
O2647 Cd2585 2.250 . S
O2648 Cd2581 2.263 . S
O2648 C2601 1.258 . S
O2649 Cd2585 2.308 . S
O2649 C2601 1.274 . S
O2650 Cd2581 2.366 . S
O2650 C2637 1.263 . S
C2651 O2652 1.235 . S
C2651 O2653 1.270 1_545 S
O2652 Cd2585 2.352 1_545 S
O2652 C2651 1.235 . S
O2653 Cd2581 2.329 . S
O2653 C2651 1.270 1_565 S
C2654 O2638 1.270 . S
C2654 O2639 1.248 . S
H2655 C2587 0.930 . S
H2656 C2590 0.930 1_556 S
H2657 C2591 0.931 . S
H2658 C2596 0.929 . S
H2659 C2598 0.930 . S
H2660 C2600 0.930 . S
H2661 C2603 0.899 1_556 S
H2662 C2604 0.932 . S
H2663 C2606 0.930 . S
H2664 C2630 0.929 . S
H2665 C2631 0.932 . S
H2666 C2632 0.931 . S
H2667 C2641 0.931 . S
H2668 C2643 0.929 . S
H2669 C2645 0.932 . S
Cd2670 O2727 2.350 . S
Cd2670 O2728 2.277 . S
Cd2670 O2735 2.173 . S
Cd2670 O2737 2.263 . S
Cd2670 O2739 2.366 1_455 S
Cd2670 O2742 2.329 . S
C2671 O2735 1.277 . S
C2671 O2736 1.230 . S
C2672 O2673 1.246 . S
C2672 C2675 1.481 . S
C2672 N2697 1.329 . S
O2673 C2672 1.246 . S
Cd2674 O2736 2.250 . S
Cd2674 O2738 2.308 . S
Cd2674 O2741 2.352 1_565 S
C2675 C2672 1.481 . S
C2675 N2678 1.327 . S
C2675 C2679 1.407 . S
C2676 C2677 1.346 . S
C2676 C2680 1.390 . S
C2676 H2744 0.930 . S
C2677 C2676 1.346 . S
C2677 N2678 1.342 . S
C2677 C2682 1.516 . S
N2678 C2675 1.327 . S
N2678 C2677 1.342 . S
N2678 Co2681 1.864 . S
C2679 C2675 1.407 . S
C2679 C2680 1.364 . S
C2679 H2745 0.930 . S
C2680 C2676 1.390 . S
C2680 C2679 1.364 . S
C2680 H2746 0.931 . S
Co2681 N2678 1.864 . S
Co2681 N2697 1.955 . S
Co2681 N2698 1.958 . S
Co2681 N2699 1.953 . S
Co2681 N2717 1.869 . S
Co2681 N2723 1.974 . S
C2682 C2677 1.516 . S
C2682 O2683 1.238 1_655 S
C2682 N2698 1.324 . S
O2683 C2682 1.238 1_455 S
C2684 C2685 1.394 1_655 S
C2684 C2689 1.395 . S
C2684 N2698 1.427 . S
C2685 C2684 1.394 1_455 S
C2685 C2686 1.380 . S
C2685 H2747 0.929 . S
C2686 C2685 1.380 . S
C2686 C2687 1.384 . S
C2686 C2690 1.495 . S
C2687 C2686 1.384 . S
C2687 C2688 1.382 1_455 S
C2687 H2748 0.930 . S
C2688 C2687 1.382 1_655 S
C2688 C2689 1.398 . S
C2689 C2684 1.395 . S
C2689 C2688 1.398 . S
C2689 H2749 0.930 . S
C2690 C2686 1.495 . S
C2690 O2737 1.258 . S
C2690 O2738 1.274 . S
C2691 C2692 1.385 . S
C2691 C2693 1.381 . S
C2691 N2697 1.432 . S
C2692 C2691 1.385 . S
C2692 C2696 1.388 . S
C2692 H2750 0.929 . S
C2693 C2691 1.381 . S
C2693 C2694 1.371 . S
C2693 H2751 0.932 . S
C2694 C2693 1.371 . S
C2694 C2695 1.400 . S
C2695 C2694 1.400 . S
C2695 C2696 1.351 . S
C2695 H2752 0.930 . S
C2696 C2692 1.388 . S
C2696 C2695 1.351 . S
N2697 C2672 1.329 . S
N2697 Co2681 1.955 . S
N2697 C2691 1.432 . S
N2698 Co2681 1.958 . S
N2698 C2682 1.324 . S
N2698 C2684 1.427 . S
N2699 Co2681 1.953 . S
N2699 C2700 1.436 . S
N2699 C2726 1.316 . S
C2700 N2699 1.436 . S
C2700 C2701 1.421 . S
C2700 C2702 1.360 1_655 S
C2701 C2700 1.421 . S
C2701 C2703 1.379 1_655 S
C2701 H2704 0.929 . S
C2702 C2700 1.360 1_455 S
C2702 C2706 1.393 . S
C2702 H2708 0.931 . S
C2703 C2701 1.379 1_455 S
C2703 C2705 1.417 . S
C2703 C2707 1.505 1_455 S
H2704 C2701 0.929 . S
C2705 C2703 1.417 . S
C2705 C2706 1.352 . S
C2705 H2709 0.929 . S
C2706 C2702 1.393 . S
C2706 C2705 1.352 . S
C2706 C2710 1.482 . S
C2707 C2703 1.505 1_655 S
C2707 O2711 1.259 1_655 S
C2707 O2712 1.229 . S
H2708 C2702 0.931 . S
H2709 C2705 0.929 . S
C2710 C2706 1.482 . S
C2710 O2713 1.207 . S
C2710 O2714 1.289 . S
O2711 C2707 1.259 1_455 S
O2711 H2715 0.822 1_455 S
O2712 C2707 1.229 . S
O2713 C2710 1.207 . S
O2714 C2710 1.289 . S
O2714 H2716 0.819 . S
H2715 O2711 0.822 1_655 S
H2716 O2714 0.819 . S
N2717 Co2681 1.869 . S
N2717 C2718 1.330 . S
N2717 C2722 1.325 . S
C2718 N2717 1.330 . S
C2718 C2719 1.359 . S
C2718 C2724 1.504 . S
C2719 C2718 1.359 . S
C2719 C2720 1.366 . S
C2719 H2753 0.929 . S
C2720 C2719 1.366 . S
C2720 C2721 1.415 . S
C2720 H2754 0.932 . S
C2721 C2720 1.415 . S
C2721 C2722 1.366 . S
C2721 H2755 0.931 . S
C2722 N2717 1.325 . S
C2722 C2721 1.366 . S
C2722 C2726 1.516 . S
N2723 Co2681 1.974 . S
N2723 C2724 1.309 . S
N2723 C2729 1.423 . S
C2724 C2718 1.504 . S
C2724 N2723 1.309 . S
C2724 O2725 1.258 . S
O2725 C2724 1.258 . S
C2726 N2699 1.316 . S
C2726 C2722 1.516 . S
C2726 O2739 1.263 . S
O2727 Cd2670 2.350 . S
O2727 C2743 1.270 . S
O2728 Cd2670 2.277 . S
O2728 C2743 1.248 . S
C2729 N2723 1.423 . S
C2729 C2730 1.370 . S
C2729 C2734 1.403 . S
C2730 C2729 1.370 . S
C2730 C2731 1.389 . S
C2730 H2756 0.931 . S
C2731 C2730 1.389 . S
C2731 C2732 1.389 . S
C2732 C2731 1.389 . S
C2732 C2733 1.379 . S
C2732 H2757 0.929 . S
C2733 C2732 1.379 . S
C2733 C2734 1.405 . S
C2734 C2729 1.403 . S
C2734 C2733 1.405 . S
C2734 H2758 0.932 . S
O2735 Cd2670 2.173 . S
O2735 C2671 1.277 . S
O2736 C2671 1.230 . S
O2736 Cd2674 2.250 . S
O2737 Cd2670 2.263 . S
O2737 C2690 1.258 . S
O2738 Cd2674 2.308 . S
O2738 C2690 1.274 . S
O2739 Cd2670 2.366 1_655 S
O2739 C2726 1.263 . S
C2740 O2741 1.235 . S
C2740 O2742 1.270 1_545 S
O2741 Cd2674 2.352 1_545 S
O2741 C2740 1.235 . S
O2742 Cd2670 2.329 . S
O2742 C2740 1.270 1_565 S
C2743 O2727 1.270 . S
C2743 O2728 1.248 . S
H2744 C2676 0.930 . S
H2745 C2679 0.930 . S
H2746 C2680 0.931 . S
H2747 C2685 0.929 . S
H2748 C2687 0.930 . S
H2749 C2689 0.930 . S
H2750 C2692 0.929 . S
H2751 C2693 0.932 . S
H2752 C2695 0.930 . S
H2753 C2719 0.929 . S
H2754 C2720 0.932 . S
H2755 C2721 0.931 . S
H2756 C2730 0.931 . S
H2757 C2732 0.929 . S
H2758 C2734 0.932 . S
Cd2759 O2816 2.350 . S
Cd2759 O2817 2.277 . S
Cd2759 O2824 2.173 . S
Cd2759 O2826 2.263 . S
Cd2759 O2828 2.366 . S
Cd2759 O2831 2.329 . S
C2760 O2824 1.277 . S
C2760 O2825 1.230 . S
C2761 O2762 1.246 . S
C2761 C2764 1.481 . S
C2761 N2786 1.329 . S
O2762 C2761 1.246 . S
Cd2763 O2825 2.250 . S
Cd2763 O2827 2.308 . S
Cd2763 O2830 2.352 . S
C2764 C2761 1.481 . S
C2764 N2767 1.327 . S
C2764 C2768 1.407 . S
C2765 C2766 1.346 . S
C2765 C2769 1.390 . S
C2765 H2833 0.930 . S
C2766 C2765 1.346 . S
C2766 N2767 1.342 . S
C2766 C2771 1.516 . S
N2767 C2764 1.327 . S
N2767 C2766 1.342 . S
N2767 Co2770 1.864 . S
C2768 C2764 1.407 . S
C2768 C2769 1.364 . S
C2768 H2834 0.930 . S
C2769 C2765 1.390 . S
C2769 C2768 1.364 . S
C2769 H2835 0.931 . S
Co2770 N2767 1.864 . S
Co2770 N2786 1.955 . S
Co2770 N2787 1.958 . S
Co2770 N2788 1.953 . S
Co2770 N2806 1.869 . S
Co2770 N2812 1.974 . S
C2771 C2766 1.516 . S
C2771 O2772 1.238 . S
C2771 N2787 1.324 . S
O2772 C2771 1.238 . S
C2773 C2774 1.394 . S
C2773 C2778 1.395 . S
C2773 N2787 1.427 . S
C2774 C2773 1.394 . S
C2774 C2775 1.380 . S
C2774 H2836 0.929 . S
C2775 C2774 1.380 . S
C2775 C2776 1.384 . S
C2775 C2779 1.495 . S
C2776 C2775 1.384 . S
C2776 C2777 1.382 . S
C2776 H2837 0.930 . S
C2777 C2776 1.382 . S
C2777 C2778 1.398 . S
C2778 C2773 1.395 . S
C2778 C2777 1.398 . S
C2778 H2838 0.930 . S
C2779 C2775 1.495 . S
C2779 O2826 1.258 . S
C2779 O2827 1.274 . S
C2780 C2781 1.385 . S
C2780 C2782 1.381 . S
C2780 N2786 1.432 . S
C2781 C2780 1.385 . S
C2781 C2785 1.388 . S
C2781 H2839 0.929 . S
C2782 C2780 1.381 . S
C2782 C2783 1.371 . S
C2782 H2840 0.932 . S
C2783 C2782 1.371 . S
C2783 C2784 1.400 . S
C2784 C2783 1.400 . S
C2784 C2785 1.351 . S
C2784 H2841 0.930 . S
C2785 C2781 1.388 . S
C2785 C2784 1.351 . S
N2786 C2761 1.329 . S
N2786 Co2770 1.955 . S
N2786 C2780 1.432 . S
N2787 Co2770 1.958 . S
N2787 C2771 1.324 . S
N2787 C2773 1.427 . S
N2788 Co2770 1.953 . S
N2788 C2789 1.436 . S
N2788 C2815 1.316 . S
C2789 N2788 1.436 . S
C2789 C2790 1.421 . S
C2789 C2791 1.360 . S
C2790 C2789 1.421 . S
C2790 C2792 1.379 . S
C2790 H2793 0.929 . S
C2791 C2789 1.360 . S
C2791 C2795 1.393 . S
C2791 H2797 0.931 . S
C2792 C2790 1.379 . S
C2792 C2794 1.417 . S
C2792 C2796 1.505 . S
H2793 C2790 0.929 . S
C2794 C2792 1.417 . S
C2794 C2795 1.352 . S
C2794 H2798 0.929 . S
C2795 C2791 1.393 . S
C2795 C2794 1.352 . S
C2795 C2799 1.482 . S
C2796 C2792 1.505 . S
C2796 O2800 1.259 . S
C2796 O2801 1.229 . S
H2797 C2791 0.931 . S
H2798 C2794 0.929 . S
C2799 C2795 1.482 . S
C2799 O2802 1.207 . S
C2799 O2803 1.289 . S
O2800 C2796 1.259 . S
O2800 H2804 0.822 . S
O2801 C2796 1.229 . S
O2802 C2799 1.207 . S
O2803 C2799 1.289 . S
O2803 H2805 0.819 . S
H2804 O2800 0.822 . S
H2805 O2803 0.819 . S
N2806 Co2770 1.869 . S
N2806 C2807 1.330 . S
N2806 C2811 1.325 . S
C2807 N2806 1.330 . S
C2807 C2808 1.359 . S
C2807 C2813 1.504 . S
C2808 C2807 1.359 . S
C2808 C2809 1.366 . S
C2808 H2842 0.929 . S
C2809 C2808 1.366 . S
C2809 C2810 1.415 . S
C2809 H2843 0.932 . S
C2810 C2809 1.415 . S
C2810 C2811 1.366 . S
C2810 H2844 0.931 . S
C2811 N2806 1.325 . S
C2811 C2810 1.366 . S
C2811 C2815 1.516 . S
N2812 Co2770 1.974 . S
N2812 C2813 1.309 . S
N2812 C2818 1.423 . S
C2813 C2807 1.504 . S
C2813 N2812 1.309 . S
C2813 O2814 1.258 . S
O2814 C2813 1.258 . S
C2815 N2788 1.316 . S
C2815 C2811 1.516 . S
C2815 O2828 1.263 . S
O2816 Cd2759 2.350 . S
O2816 C2832 1.270 . S
O2817 Cd2759 2.277 . S
O2817 C2832 1.248 . S
C2818 N2812 1.423 . S
C2818 C2819 1.370 . S
C2818 C2823 1.403 . S
C2819 C2818 1.370 . S
C2819 C2820 1.389 . S
C2819 H2845 0.931 . S
C2820 C2819 1.389 . S
C2820 C2821 1.389 . S
C2821 C2820 1.389 . S
C2821 C2822 1.379 . S
C2821 H2846 0.929 . S
C2822 C2821 1.379 . S
C2822 C2823 1.405 . S
C2823 C2818 1.403 . S
C2823 C2822 1.405 . S
C2823 H2847 0.932 . S
O2824 Cd2759 2.173 . S
O2824 C2760 1.277 . S
O2825 C2760 1.230 . S
O2825 Cd2763 2.250 . S
O2826 Cd2759 2.263 . S
O2826 C2779 1.258 . S
O2827 Cd2763 2.308 . S
O2827 C2779 1.274 . S
O2828 Cd2759 2.366 . S
O2828 C2815 1.263 . S
C2829 O2830 1.235 . S
C2829 O2831 1.270 . S
O2830 Cd2763 2.352 . S
O2830 C2829 1.235 . S
O2831 Cd2759 2.329 . S
O2831 C2829 1.270 . S
C2832 O2816 1.270 . S
C2832 O2817 1.248 . S
H2833 C2765 0.930 . S
H2834 C2768 0.930 . S
H2835 C2769 0.931 . S
H2836 C2774 0.929 . S
H2837 C2776 0.930 . S
H2838 C2778 0.930 . S
H2839 C2781 0.929 . S
H2840 C2782 0.932 . S
H2841 C2784 0.930 . S
H2842 C2808 0.929 . S
H2843 C2809 0.932 . S
H2844 C2810 0.931 . S
H2845 C2819 0.931 . S
H2846 C2821 0.929 . S
H2847 C2823 0.932 . S
Cd2848 O2905 2.350 1_545 S
Cd2848 O2906 2.277 . S
Cd2848 O2913 2.173 . S
Cd2848 O2915 2.263 . S
Cd2848 O2917 2.366 . S
Cd2848 O2920 2.329 1_545 S
C2849 O2913 1.277 . S
C2849 O2914 1.230 . S
C2850 O2851 1.246 . S
C2850 C2853 1.481 . S
C2850 N2875 1.329 . S
O2851 C2850 1.246 . S
Cd2852 O2914 2.250 1_565 S
Cd2852 O2916 2.308 . S
Cd2852 O2919 2.352 . S
C2853 C2850 1.481 . S
C2853 N2856 1.327 . S
C2853 C2857 1.407 . S
C2854 C2855 1.346 . S
C2854 C2858 1.390 . S
C2854 H2922 0.930 . S
C2855 C2854 1.346 . S
C2855 N2856 1.342 . S
C2855 C2860 1.516 . S
N2856 C2853 1.327 . S
N2856 C2855 1.342 . S
N2856 Co2859 1.864 . S
C2857 C2853 1.407 . S
C2857 C2858 1.364 . S
C2857 H2923 0.930 . S
C2858 C2854 1.390 . S
C2858 C2857 1.364 . S
C2858 H2924 0.931 . S
Co2859 N2856 1.864 . S
Co2859 N2875 1.955 . S
Co2859 N2876 1.958 . S
Co2859 N2877 1.953 . S
Co2859 N2895 1.869 . S
Co2859 N2901 1.974 . S
C2860 C2855 1.516 . S
C2860 O2861 1.238 . S
C2860 N2876 1.324 . S
O2861 C2860 1.238 . S
C2862 C2863 1.394 . S
C2862 C2867 1.395 . S
C2862 N2876 1.427 . S
C2863 C2862 1.394 . S
C2863 C2864 1.380 . S
C2863 H2925 0.929 . S
C2864 C2863 1.380 . S
C2864 C2865 1.384 . S
C2864 C2868 1.495 . S
C2865 C2864 1.384 . S
C2865 C2866 1.382 . S
C2865 H2926 0.930 . S
C2866 C2865 1.382 . S
C2866 C2867 1.398 . S
C2867 C2862 1.395 . S
C2867 C2866 1.398 . S
C2867 H2927 0.930 . S
C2868 C2864 1.495 . S
C2868 O2915 1.258 . S
C2868 O2916 1.274 1_545 S
C2869 C2870 1.385 . S
C2869 C2871 1.381 . S
C2869 N2875 1.432 . S
C2870 C2869 1.385 . S
C2870 C2874 1.388 . S
C2870 H2928 0.929 . S
C2871 C2869 1.381 . S
C2871 C2872 1.371 . S
C2871 H2929 0.932 . S
C2872 C2871 1.371 . S
C2872 C2873 1.400 1_655 S
C2873 C2872 1.400 1_455 S
C2873 C2874 1.351 1_455 S
C2873 H2930 0.930 . S
C2874 C2870 1.388 . S
C2874 C2873 1.351 1_655 S
N2875 C2850 1.329 . S
N2875 Co2859 1.955 . S
N2875 C2869 1.432 . S
N2876 Co2859 1.958 . S
N2876 C2860 1.324 . S
N2876 C2862 1.427 . S
N2877 Co2859 1.953 . S
N2877 C2878 1.436 . S
N2877 C2904 1.316 . S
C2878 N2877 1.436 . S
C2878 C2879 1.421 . S
C2878 C2880 1.360 . S
C2879 C2878 1.421 . S
C2879 C2881 1.379 . S
C2879 H2882 0.929 . S
C2880 C2878 1.360 . S
C2880 C2884 1.393 . S
C2880 H2886 0.931 . S
C2881 C2879 1.379 . S
C2881 C2883 1.417 . S
C2881 C2885 1.505 . S
H2882 C2879 0.929 . S
C2883 C2881 1.417 . S
C2883 C2884 1.352 . S
C2883 H2887 0.929 . S
C2884 C2880 1.393 . S
C2884 C2883 1.352 . S
C2884 C2888 1.482 . S
C2885 C2881 1.505 . S
C2885 O2889 1.259 . S
C2885 O2890 1.229 . S
H2886 C2880 0.931 . S
H2887 C2883 0.929 . S
C2888 C2884 1.482 . S
C2888 O2891 1.207 1_545 S
C2888 O2892 1.289 1_545 S
O2889 C2885 1.259 . S
O2889 H2893 0.822 . S
O2890 C2885 1.229 . S
O2891 C2888 1.207 1_565 S
O2892 C2888 1.289 1_565 S
O2892 H2894 0.819 . S
H2893 O2889 0.822 . S
H2894 O2892 0.819 . S
N2895 Co2859 1.869 . S
N2895 C2896 1.330 . S
N2895 C2900 1.325 . S
C2896 N2895 1.330 . S
C2896 C2897 1.359 . S
C2896 C2902 1.504 . S
C2897 C2896 1.359 . S
C2897 C2898 1.366 . S
C2897 H2931 0.929 . S
C2898 C2897 1.366 . S
C2898 C2899 1.415 . S
C2898 H2932 0.932 . S
C2899 C2898 1.415 . S
C2899 C2900 1.366 . S
C2899 H2933 0.931 . S
C2900 N2895 1.325 . S
C2900 C2899 1.366 . S
C2900 C2904 1.516 . S
N2901 Co2859 1.974 . S
N2901 C2902 1.309 . S
N2901 C2907 1.423 . S
C2902 C2896 1.504 . S
C2902 N2901 1.309 . S
C2902 O2903 1.258 . S
O2903 C2902 1.258 . S
C2904 N2877 1.316 . S
C2904 C2900 1.516 . S
C2904 O2917 1.263 . S
O2905 Cd2848 2.350 1_565 S
O2905 C2921 1.270 . S
O2906 Cd2848 2.277 . S
O2906 C2921 1.248 1_545 S
C2907 N2901 1.423 . S
C2907 C2908 1.370 . S
C2907 C2912 1.403 . S
C2908 C2907 1.370 . S
C2908 C2909 1.389 . S
C2908 H2934 0.931 . S
C2909 C2908 1.389 . S
C2909 C2910 1.389 . S
C2910 C2909 1.389 . S
C2910 C2911 1.379 . S
C2910 H2935 0.929 . S
C2911 C2910 1.379 . S
C2911 C2912 1.405 . S
C2912 C2907 1.403 . S
C2912 C2911 1.405 . S
C2912 H2936 0.932 . S
O2913 Cd2848 2.173 . S
O2913 C2849 1.277 . S
O2914 C2849 1.230 . S
O2914 Cd2852 2.250 1_545 S
O2915 Cd2848 2.263 . S
O2915 C2868 1.258 . S
O2916 Cd2852 2.308 . S
O2916 C2868 1.274 1_565 S
O2917 Cd2848 2.366 . S
O2917 C2904 1.263 . S
C2918 O2919 1.235 . S
C2918 O2920 1.270 . S
O2919 Cd2852 2.352 . S
O2919 C2918 1.235 . S
O2920 Cd2848 2.329 1_565 S
O2920 C2918 1.270 . S
C2921 O2905 1.270 . S
C2921 O2906 1.248 1_565 S
H2922 C2854 0.930 . S
H2923 C2857 0.930 . S
H2924 C2858 0.931 . S
H2925 C2863 0.929 . S
H2926 C2865 0.930 . S
H2927 C2867 0.930 . S
H2928 C2870 0.929 . S
H2929 C2871 0.932 . S
H2930 C2873 0.930 . S
H2931 C2897 0.929 . S
H2932 C2898 0.932 . S
H2933 C2899 0.931 . S
H2934 C2908 0.931 . S
H2935 C2910 0.929 . S
H2936 C2912 0.932 . S
Cd2937 O2994 2.350 . S
Cd2937 O2995 2.277 . S
Cd2937 O3002 2.173 . S
Cd2937 O3004 2.263 . S
Cd2937 O3006 2.366 . S
Cd2937 O3009 2.329 . S
C2938 O3002 1.277 . S
C2938 O3003 1.230 . S
C2939 O2940 1.246 . S
C2939 C2942 1.481 . S
C2939 N2964 1.329 . S
O2940 C2939 1.246 . S
Cd2941 O3003 2.250 . S
Cd2941 O3005 2.308 . S
Cd2941 O3008 2.352 . S
C2942 C2939 1.481 . S
C2942 N2945 1.327 . S
C2942 C2946 1.407 . S
C2943 C2944 1.346 . S
C2943 C2947 1.390 . S
C2943 H3011 0.930 . S
C2944 C2943 1.346 . S
C2944 N2945 1.342 . S
C2944 C2949 1.516 . S
N2945 C2942 1.327 . S
N2945 C2944 1.342 . S
N2945 Co2948 1.864 . S
C2946 C2942 1.407 . S
C2946 C2947 1.364 . S
C2946 H3012 0.930 . S
C2947 C2943 1.390 . S
C2947 C2946 1.364 . S
C2947 H3013 0.931 . S
Co2948 N2945 1.864 . S
Co2948 N2964 1.955 . S
Co2948 N2965 1.958 . S
Co2948 N2966 1.953 . S
Co2948 N2984 1.869 . S
Co2948 N2990 1.974 . S
C2949 C2944 1.516 . S
C2949 O2950 1.238 . S
C2949 N2965 1.324 . S
O2950 C2949 1.238 . S
C2951 C2952 1.394 . S
C2951 C2956 1.395 . S
C2951 N2965 1.427 . S
C2952 C2951 1.394 . S
C2952 C2953 1.380 . S
C2952 H3014 0.929 . S
C2953 C2952 1.380 . S
C2953 C2954 1.384 . S
C2953 C2957 1.495 . S
C2954 C2953 1.384 . S
C2954 C2955 1.382 . S
C2954 H3015 0.930 . S
C2955 C2954 1.382 . S
C2955 C2956 1.398 . S
C2956 C2951 1.395 . S
C2956 C2955 1.398 . S
C2956 H3016 0.930 . S
C2957 C2953 1.495 . S
C2957 O3004 1.258 . S
C2957 O3005 1.274 . S
C2958 C2959 1.385 . S
C2958 C2960 1.381 . S
C2958 N2964 1.432 . S
C2959 C2958 1.385 . S
C2959 C2963 1.388 . S
C2959 H3017 0.929 . S
C2960 C2958 1.381 . S
C2960 C2961 1.371 . S
C2960 H3018 0.932 . S
C2961 C2960 1.371 . S
C2961 C2962 1.400 . S
C2962 C2961 1.400 . S
C2962 C2963 1.351 . S
C2962 H3019 0.930 . S
C2963 C2959 1.388 . S
C2963 C2962 1.351 . S
N2964 C2939 1.329 . S
N2964 Co2948 1.955 . S
N2964 C2958 1.432 . S
N2965 Co2948 1.958 . S
N2965 C2949 1.324 . S
N2965 C2951 1.427 . S
N2966 Co2948 1.953 . S
N2966 C2967 1.436 . S
N2966 C2993 1.316 . S
C2967 N2966 1.436 . S
C2967 C2968 1.421 . S
C2967 C2969 1.360 . S
C2968 C2967 1.421 . S
C2968 C2970 1.379 . S
C2968 H2971 0.929 . S
C2969 C2967 1.360 . S
C2969 C2973 1.393 . S
C2969 H2975 0.931 . S
C2970 C2968 1.379 . S
C2970 C2972 1.417 . S
C2970 C2974 1.505 . S
H2971 C2968 0.929 . S
C2972 C2970 1.417 . S
C2972 C2973 1.352 . S
C2972 H2976 0.929 . S
C2973 C2969 1.393 . S
C2973 C2972 1.352 . S
C2973 C2977 1.482 . S
C2974 C2970 1.505 . S
C2974 O2978 1.259 . S
C2974 O2979 1.229 . S
H2975 C2969 0.931 . S
H2976 C2972 0.929 . S
C2977 C2973 1.482 . S
C2977 O2980 1.207 . S
C2977 O2981 1.289 . S
O2978 C2974 1.259 . S
O2978 H2982 0.822 . S
O2979 C2974 1.229 . S
O2980 C2977 1.207 . S
O2981 C2977 1.289 . S
O2981 H2983 0.819 . S
H2982 O2978 0.822 . S
H2983 O2981 0.819 . S
N2984 Co2948 1.869 . S
N2984 C2985 1.330 . S
N2984 C2989 1.325 . S
C2985 N2984 1.330 . S
C2985 C2986 1.359 . S
C2985 C2991 1.504 . S
C2986 C2985 1.359 . S
C2986 C2987 1.366 . S
C2986 H3020 0.929 . S
C2987 C2986 1.366 . S
C2987 C2988 1.415 . S
C2987 H3021 0.932 . S
C2988 C2987 1.415 . S
C2988 C2989 1.366 . S
C2988 H3022 0.931 . S
C2989 N2984 1.325 . S
C2989 C2988 1.366 . S
C2989 C2993 1.516 . S
N2990 Co2948 1.974 . S
N2990 C2991 1.309 . S
N2990 C2996 1.423 . S
C2991 C2985 1.504 . S
C2991 N2990 1.309 . S
C2991 O2992 1.258 . S
O2992 C2991 1.258 . S
C2993 N2966 1.316 . S
C2993 C2989 1.516 . S
C2993 O3006 1.263 . S
O2994 Cd2937 2.350 . S
O2994 C3010 1.270 . S
O2995 Cd2937 2.277 . S
O2995 C3010 1.248 . S
C2996 N2990 1.423 . S
C2996 C2997 1.370 . S
C2996 C3001 1.403 . S
C2997 C2996 1.370 . S
C2997 C2998 1.389 . S
C2997 H3023 0.931 . S
C2998 C2997 1.389 . S
C2998 C2999 1.389 . S
C2999 C2998 1.389 . S
C2999 C3000 1.379 . S
C2999 H3024 0.929 . S
C3000 C2999 1.379 . S
C3000 C3001 1.405 . S
C3001 C2996 1.403 . S
C3001 C3000 1.405 . S
C3001 H3025 0.932 . S
O3002 Cd2937 2.173 . S
O3002 C2938 1.277 . S
O3003 C2938 1.230 . S
O3003 Cd2941 2.250 . S
O3004 Cd2937 2.263 . S
O3004 C2957 1.258 . S
O3005 Cd2941 2.308 . S
O3005 C2957 1.274 . S
O3006 Cd2937 2.366 . S
O3006 C2993 1.263 . S
C3007 O3008 1.235 . S
C3007 O3009 1.270 . S
O3008 Cd2941 2.352 . S
O3008 C3007 1.235 . S
O3009 Cd2937 2.329 . S
O3009 C3007 1.270 . S
C3010 O2994 1.270 . S
C3010 O2995 1.248 . S
H3011 C2943 0.930 . S
H3012 C2946 0.930 . S
H3013 C2947 0.931 . S
H3014 C2952 0.929 . S
H3015 C2954 0.930 . S
H3016 C2956 0.930 . S
H3017 C2959 0.929 . S
H3018 C2960 0.932 . S
H3019 C2962 0.930 . S
H3020 C2986 0.929 . S
H3021 C2987 0.932 . S
H3022 C2988 0.931 . S
H3023 C2997 0.931 . S
H3024 C2999 0.929 . S
H3025 C3001 0.932 . S
Cd3026 O3083 2.350 . S
Cd3026 O3084 2.277 . S
Cd3026 O3091 2.173 . S
Cd3026 O3093 2.263 . S
Cd3026 O3095 2.366 . S
Cd3026 O3098 2.329 . S
C3027 O3091 1.277 . S
C3027 O3092 1.230 . S
C3028 O3029 1.246 . S
C3028 C3031 1.481 . S
C3028 N3053 1.329 . S
O3029 C3028 1.246 . S
Cd3030 O3092 2.250 . S
Cd3030 O3094 2.308 . S
Cd3030 O3097 2.352 . S
C3031 C3028 1.481 . S
C3031 N3034 1.327 . S
C3031 C3035 1.407 . S
C3032 C3033 1.346 1_565 S
C3032 C3036 1.390 . S
C3032 H3100 0.930 . S
C3033 C3032 1.346 1_545 S
C3033 N3034 1.342 . S
C3033 C3038 1.516 . S
N3034 C3031 1.327 . S
N3034 C3033 1.342 . S
N3034 Co3037 1.864 . S
C3035 C3031 1.407 . S
C3035 C3036 1.364 1_545 S
C3035 H3101 0.930 . S
C3036 C3032 1.390 . S
C3036 C3035 1.364 1_565 S
C3036 H3102 0.931 . S
Co3037 N3034 1.864 . S
Co3037 N3053 1.955 . S
Co3037 N3054 1.958 . S
Co3037 N3055 1.953 . S
Co3037 N3073 1.869 . S
Co3037 N3079 1.974 . S
C3038 C3033 1.516 . S
C3038 O3039 1.238 1_545 S
C3038 N3054 1.324 . S
O3039 C3038 1.238 1_565 S
C3040 C3041 1.394 . S
C3040 C3045 1.395 . S
C3040 N3054 1.427 . S
C3041 C3040 1.394 . S
C3041 C3042 1.380 . S
C3041 H3103 0.929 . S
C3042 C3041 1.380 . S
C3042 C3043 1.384 . S
C3042 C3046 1.495 . S
C3043 C3042 1.384 . S
C3043 C3044 1.382 . S
C3043 H3104 0.930 . S
C3044 C3043 1.382 . S
C3044 C3045 1.398 . S
C3045 C3040 1.395 . S
C3045 C3044 1.398 . S
C3045 H3105 0.930 . S
C3046 C3042 1.495 . S
C3046 O3093 1.258 . S
C3046 O3094 1.274 . S
C3047 C3048 1.385 . S
C3047 C3049 1.381 . S
C3047 N3053 1.432 . S
C3048 C3047 1.385 . S
C3048 C3052 1.388 . S
C3048 H3106 0.929 . S
C3049 C3047 1.381 . S
C3049 C3050 1.371 1_655 S
C3049 H3107 0.932 . S
C3050 C3049 1.371 1_455 S
C3050 C3051 1.400 1_455 S
C3051 C3050 1.400 1_655 S
C3051 C3052 1.351 . S
C3051 H3108 0.930 1_655 S
C3052 C3048 1.388 . S
C3052 C3051 1.351 . S
N3053 C3028 1.329 . S
N3053 Co3037 1.955 . S
N3053 C3047 1.432 . S
N3054 Co3037 1.958 . S
N3054 C3038 1.324 . S
N3054 C3040 1.427 . S
N3055 Co3037 1.953 . S
N3055 C3056 1.436 . S
N3055 C3082 1.316 . S
C3056 N3055 1.436 . S
C3056 C3057 1.421 . S
C3056 C3058 1.360 . S
C3057 C3056 1.421 . S
C3057 C3059 1.379 . S
C3057 H3060 0.929 . S
C3058 C3056 1.360 . S
C3058 C3062 1.393 . S
C3058 H3064 0.931 . S
C3059 C3057 1.379 . S
C3059 C3061 1.417 . S
C3059 C3063 1.505 . S
H3060 C3057 0.929 . S
C3061 C3059 1.417 . S
C3061 C3062 1.352 . S
C3061 H3065 0.929 . S
C3062 C3058 1.393 . S
C3062 C3061 1.352 . S
C3062 C3066 1.482 1_545 S
C3063 C3059 1.505 . S
C3063 O3067 1.259 . S
C3063 O3068 1.229 . S
H3064 C3058 0.931 . S
H3065 C3061 0.929 . S
C3066 C3062 1.482 1_565 S
C3066 O3069 1.207 . S
C3066 O3070 1.289 . S
O3067 C3063 1.259 . S
O3067 H3071 0.822 . S
O3068 C3063 1.229 . S
O3069 C3066 1.207 . S
O3070 C3066 1.289 . S
O3070 H3072 0.819 . S
H3071 O3067 0.822 . S
H3072 O3070 0.819 . S
N3073 Co3037 1.869 . S
N3073 C3074 1.330 . S
N3073 C3078 1.325 . S
C3074 N3073 1.330 . S
C3074 C3075 1.359 . S
C3074 C3080 1.504 . S
C3075 C3074 1.359 . S
C3075 C3076 1.366 . S
C3075 H3109 0.929 . S
C3076 C3075 1.366 . S
C3076 C3077 1.415 . S
C3076 H3110 0.932 . S
C3077 C3076 1.415 . S
C3077 C3078 1.366 . S
C3077 H3111 0.931 . S
C3078 N3073 1.325 . S
C3078 C3077 1.366 . S
C3078 C3082 1.516 . S
N3079 Co3037 1.974 . S
N3079 C3080 1.309 . S
N3079 C3085 1.423 . S
C3080 C3074 1.504 . S
C3080 N3079 1.309 . S
C3080 O3081 1.258 . S
O3081 C3080 1.258 . S
C3082 N3055 1.316 . S
C3082 C3078 1.516 . S
C3082 O3095 1.263 . S
O3083 Cd3026 2.350 . S
O3083 C3099 1.270 . S
O3084 Cd3026 2.277 . S
O3084 C3099 1.248 . S
C3085 N3079 1.423 . S
C3085 C3086 1.370 . S
C3085 C3090 1.403 1_655 S
C3086 C3085 1.370 . S
C3086 C3087 1.389 . S
C3086 H3112 0.931 . S
C3087 C3086 1.389 . S
C3087 C3088 1.369 1_655 S
C3088 C3087 1.369 1_455 S
C3088 C3089 1.379 . S
C3088 H3113 0.949 . S
C3089 C3088 1.379 . S
C3089 C3090 1.405 . S
C3090 C3085 1.403 1_455 S
C3090 C3089 1.405 . S
C3090 H3114 0.932 . S
O3091 Cd3026 2.173 . S
O3091 C3027 1.277 . S
O3092 C3027 1.230 . S
O3092 Cd3030 2.250 . S
O3093 Cd3026 2.263 . S
O3093 C3046 1.258 . S
O3094 Cd3030 2.308 . S
O3094 C3046 1.274 . S
O3095 Cd3026 2.366 . S
O3095 C3082 1.263 . S
C3096 O3097 1.235 . S
C3096 O3098 1.270 . S
O3097 Cd3030 2.352 . S
O3097 C3096 1.235 . S
O3098 Cd3026 2.329 . S
O3098 C3096 1.270 . S
C3099 O3083 1.270 . S
C3099 O3084 1.248 . S
H3100 C3032 0.930 . S
H3101 C3035 0.930 . S
H3102 C3036 0.931 . S
H3103 C3041 0.929 . S
H3104 C3043 0.930 . S
H3105 C3045 0.930 . S
H3106 C3048 0.929 . S
H3107 C3049 0.932 . S
H3108 C3051 0.930 1_455 S
H3109 C3075 0.929 . S
H3110 C3076 0.932 . S
H3111 C3077 0.931 . S
H3112 C3086 0.931 . S
H3113 C3088 0.949 . S
H3114 C3090 0.932 . S
Cd3115 O3172 2.350 . S
Cd3115 O3173 2.277 . S
Cd3115 O3180 2.173 . S
Cd3115 O3182 2.263 . S
Cd3115 O3184 2.366 . S
Cd3115 O3187 2.329 . S
C3116 O3180 1.277 . S
C3116 O3181 1.230 . S
C3117 O3118 1.246 . S
C3117 C3120 1.481 1_655 S
C3117 N3142 1.329 . S
O3118 C3117 1.246 . S
Cd3119 O3181 2.250 . S
Cd3119 O3183 2.308 . S
Cd3119 O3186 2.352 . S
C3120 C3117 1.481 1_455 S
C3120 N3123 1.327 . S
C3120 C3124 1.407 . S
C3121 C3122 1.346 . S
C3121 C3125 1.390 . S
C3121 H3189 0.930 . S
C3122 C3121 1.346 . S
C3122 N3123 1.342 . S
C3122 C3127 1.516 . S
N3123 C3120 1.327 . S
N3123 C3122 1.342 . S
N3123 Co3126 1.864 1_455 S
C3124 C3120 1.407 . S
C3124 C3125 1.364 . S
C3124 H3190 0.930 . S
C3125 C3121 1.390 . S
C3125 C3124 1.364 . S
C3125 H3191 0.931 . S
Co3126 N3123 1.864 1_655 S
Co3126 N3142 1.955 . S
Co3126 N3143 1.958 1_655 S
Co3126 N3144 1.953 . S
Co3126 N3162 1.869 . S
Co3126 N3168 1.974 . S
C3127 C3122 1.516 . S
C3127 O3128 1.238 . S
C3127 N3143 1.324 . S
O3128 C3127 1.238 . S
C3129 C3130 1.394 1_455 S
C3129 C3134 1.395 . S
C3129 N3143 1.427 . S
C3130 C3129 1.394 1_655 S
C3130 C3131 1.380 . S
C3130 H3192 0.929 . S
C3131 C3130 1.380 . S
C3131 C3132 1.384 . S
C3131 C3135 1.495 . S
C3132 C3131 1.384 . S
C3132 C3133 1.382 1_655 S
C3132 H3193 0.930 . S
C3133 C3132 1.382 1_455 S
C3133 C3134 1.398 . S
C3134 C3129 1.395 . S
C3134 C3133 1.398 . S
C3134 H3194 0.930 . S
C3135 C3131 1.495 . S
C3135 O3182 1.258 . S
C3135 O3183 1.274 . S
C3136 C3137 1.385 . S
C3136 C3138 1.381 . S
C3136 N3142 1.432 . S
C3137 C3136 1.385 . S
C3137 C3141 1.388 . S
C3137 H3195 0.929 . S
C3138 C3136 1.381 . S
C3138 C3139 1.371 . S
C3138 H3196 0.932 . S
C3139 C3138 1.371 . S
C3139 C3140 1.400 . S
C3140 C3139 1.400 . S
C3140 C3141 1.351 . S
C3140 H3197 0.930 . S
C3141 C3137 1.388 . S
C3141 C3140 1.351 . S
N3142 C3117 1.329 . S
N3142 Co3126 1.955 . S
N3142 C3136 1.432 . S
N3143 Co3126 1.958 1_455 S
N3143 C3127 1.324 . S
N3143 C3129 1.427 . S
N3144 Co3126 1.953 . S
N3144 C3145 1.436 . S
N3144 C3171 1.316 . S
C3145 N3144 1.436 . S
C3145 C3146 1.421 . S
C3145 C3147 1.360 1_655 S
C3146 C3145 1.421 . S
C3146 C3148 1.379 . S
C3146 H3149 0.929 . S
C3147 C3145 1.360 1_455 S
C3147 C3151 1.393 . S
C3147 H3153 0.931 . S
C3148 C3146 1.379 . S
C3148 C3150 1.417 1_655 S
C3148 C3152 1.505 . S
H3149 C3146 0.929 . S
C3150 C3148 1.417 1_455 S
C3150 C3151 1.352 . S
C3150 H3154 0.929 . S
C3151 C3147 1.393 . S
C3151 C3150 1.352 . S
C3151 C3155 1.482 . S
C3152 C3148 1.505 . S
C3152 O3156 1.270 . S
C3152 O3157 1.229 . S
H3153 C3147 0.931 . S
H3154 C3150 0.929 . S
C3155 C3151 1.482 . S
C3155 O3158 1.207 . S
C3155 O3159 1.289 . S
O3156 C3152 1.270 . S
O3156 H3160 0.831 . S
O3157 C3152 1.229 . S
O3158 C3155 1.207 . S
O3159 C3155 1.289 . S
O3159 H3161 0.819 . S
H3160 O3156 0.831 . S
H3161 O3159 0.819 . S
N3162 Co3126 1.869 . S
N3162 C3163 1.330 . S
N3162 C3167 1.325 . S
C3163 N3162 1.330 . S
C3163 C3164 1.359 . S
C3163 C3169 1.504 . S
C3164 C3163 1.359 . S
C3164 C3165 1.366 . S
C3164 H3198 0.929 . S
C3165 C3164 1.366 . S
C3165 C3166 1.415 . S
C3165 H3199 0.932 . S
C3166 C3165 1.415 . S
C3166 C3167 1.366 . S
C3166 H3200 0.931 . S
C3167 N3162 1.325 . S
C3167 C3166 1.366 . S
C3167 C3171 1.516 . S
N3168 Co3126 1.974 . S
N3168 C3169 1.309 . S
N3168 C3174 1.423 . S
C3169 C3163 1.504 . S
C3169 N3168 1.309 . S
C3169 O3170 1.258 . S
O3170 C3169 1.258 . S
C3171 N3144 1.316 . S
C3171 C3167 1.516 . S
C3171 O3184 1.263 . S
O3172 Cd3115 2.350 . S
O3172 C3188 1.270 . S
O3173 Cd3115 2.277 . S
O3173 C3188 1.248 . S
C3174 N3168 1.423 . S
C3174 C3175 1.370 1_655 S
C3174 C3179 1.403 . S
C3175 C3174 1.370 1_455 S
C3175 C3176 1.389 . S
C3175 H3201 0.931 . S
C3176 C3175 1.389 . S
C3176 C3177 1.389 . S
C3177 C3176 1.389 . S
C3177 C3178 1.379 1_455 S
C3177 H3202 0.929 1_565 S
C3178 C3177 1.379 1_655 S
C3178 C3179 1.405 . S
C3179 C3174 1.403 . S
C3179 C3178 1.405 . S
C3179 H3203 0.932 . S
O3180 Cd3115 2.173 . S
O3180 C3116 1.277 . S
O3181 C3116 1.230 . S
O3181 Cd3119 2.250 . S
O3182 Cd3115 2.263 . S
O3182 C3135 1.258 . S
O3183 Cd3119 2.308 . S
O3183 C3135 1.274 . S
O3184 Cd3115 2.366 . S
O3184 C3171 1.263 . S
C3185 O3186 1.235 . S
C3185 O3187 1.270 . S
O3186 Cd3119 2.352 . S
O3186 C3185 1.235 . S
O3187 Cd3115 2.329 . S
O3187 C3185 1.270 . S
C3188 O3172 1.270 . S
C3188 O3173 1.248 . S
H3189 C3121 0.930 . S
H3190 C3124 0.930 . S
H3191 C3125 0.931 . S
H3192 C3130 0.929 . S
H3193 C3132 0.930 . S
H3194 C3134 0.930 . S
H3195 C3137 0.929 . S
H3196 C3138 0.932 . S
H3197 C3140 0.930 . S
H3198 C3164 0.929 . S
H3199 C3165 0.932 . S
H3200 C3166 0.931 . S
H3201 C3175 0.931 . S
H3202 C3177 0.929 1_545 S
H3203 C3179 0.932 . S
C1 C248 3.216 . S
C90 C70 3.215 . S
C159 C179 3.215 . S
C426 C268 3.216 . S
C357 C515 3.215 . S
C446 C337 3.215 . S
C535 C782 3.215 . S
C604 C624 3.215 . S
C693 C713 3.215 . S
C960 C802 3.215 . S
C1049 C891 3.215 . S
C980 C871 3.215 . S
C1069 C1316 3.215 . S
C1158 C1138 3.215 1_565 S
C1227 C1247 3.214 1_565 S
C1336 C1494 3.215 . S
C1425 C1583 3.215 . S
C1514 C1405 3.216 . S
C1603 C1850 3.215 . S
C1692 C1672 3.215 . S
C1761 C1781 3.215 . S
C1870 C2028 3.215 1_545 S
C2117 C1959 3.215 1_545 S
C1939 C2048 3.214 . S
C2137 C2384 3.215 . S
C2226 C2206 3.216 . S
C2295 C2315 3.215 . S
C2562 C2404 3.215 . S
C2493 C2651 3.214 1_455 S
C2582 C2473 3.215 1_655 S
C2671 C2918 3.215 1_455 S
C2760 C2740 3.214 . S
C2849 C2829 3.215 1_655 S
C3096 C2938 3.215 . S
C3027 C3185 3.215 . S
C3116 C3007 3.215 . S
C2421 C18 2.205 . S
C107 C2510 2.204 1_455 S
C196 C2599 2.205 . S
C1086 C285 2.205 . S
C1175 C374 2.205 . S
C1264 C463 2.204 1_565 S
C1887 C552 2.205 1_565 S
C641 C1976 2.204 . S
C730 C2065 2.206 . S
C819 C2688 2.205 1_455 S
C2777 C908 2.206 . S
C2866 C997 2.204 . S
C2154 C1353 2.206 . S
C1442 C2243 2.204 . S
C2332 C1531 2.204 . S
C2955 C1620 2.206 . S
C3044 C1709 2.204 . S
C1798 C3133 2.204 . S
C73 C1806 2.781 . S
C1628 C162 2.780 . S
C251 C1717 2.780 . S
C3052 C340 2.781 . S
C3141 C429 2.780 . S
C518 C2963 2.781 . S
C2340 C607 2.780 . S
C2162 C696 2.780 . S
C2251 C785 2.781 . S
C874 C1450 2.780 . S
C1539 C963 2.781 . S
C1052 C1361 2.780 . S
C1141 C2874 2.780 . S
C2696 C1230 2.781 . S
C2785 C1319 2.780 . S
C1408 C916 2.779 . S
C1005 C1497 2.780 1_545 S
C827 C1586 2.781 . S
C1675 C204 2.780 . S
C1764 C26 2.781 1_565 S
C1853 C115 2.780 . S
C1942 C2518 2.780 1_556 S
C2031 C2607 2.781 1_556 S
C2120 C2429 2.780 1_556 S
C738 C2209 2.779 . S
C2298 C560 2.781 . S
C649 C2387 2.780 1_455 S
C1984 C2476 2.780 1_556 S
C2565 C2073 2.780 1_554 S
C1895 C2654 2.781 1_556 S
C2743 C1272 2.780 . S
C1094 C2832 2.780 . S
C2921 C1183 2.781 . S
C3010 C382 2.780 . S
C3099 C471 2.780 . S
C293 C3188 2.781 1_455 S
C61 C241 2.509 . S
C150 C63 2.508 . S
C152 C239 2.508 . S
C328 C419 2.509 . S
C417 C508 2.508 . S
C506 C330 2.508 . S
C595 C775 2.508 . S
C684 C597 2.508 . S
C773 C686 2.509 . S
C953 C862 2.508 . S
C1042 C951 2.509 . S
C864 C1040 2.508 . S
C1129 C1309 2.509 . S
C1131 C1218 2.509 . S
C1307 C1220 2.508 . S
C1396 C1487 2.508 1_655 S
C1485 C1576 2.509 . S
C1398 C1574 2.509 1_655 S
C1843 C1663 2.508 . S
C1752 C1665 2.509 1_655 S
C1754 C1841 2.509 1_655 S
C1930 C2021 2.508 . S
C2110 C2019 2.509 . S
C2108 C1932 2.508 . S
C2197 C2377 2.508 1_565 S
C2286 C2199 2.509 1_545 S
C2288 C2375 2.509 . S
C2555 C2464 2.509 . S
C2644 C2553 2.508 . S
C2642 C2466 2.509 . S
C2731 C2911 2.508 . S
C2820 C2733 2.508 . S
C2822 C2909 2.509 . S
C2998 C3089 2.508 . S
C3087 C3178 2.509 1_545 S
C3176 C3000 2.509 1_565 S
