# Generated by pormake.
# Topology vby, (6)-cn, num edge types: 1
# Building blocks:
#     Node 0, Type 0, BuildingBlock: PAMTUU_clean_sbu_0, # of connection points: 6
#     Node 1, Type 0, BuildingBlock: PAMTUU_clean_sbu_0, # of connection points: 6
#     Node 2, Type 0, BuildingBlock: PAMTUU_clean_sbu_0, # of connection points: 6
#     Node 3, Type 0, BuildingBlock: PAMTUU_clean_sbu_0, # of connection points: 6
#     Node 4, Type 0, BuildingBlock: PAMTUU_clean_sbu_0, # of connection points: 6
#     Node 5, Type 0, BuildingBlock: PAMTUU_clean_sbu_0, # of connection points: 6
#     Node 6, Type 0, BuildingBlock: PAMTUU_clean_sbu_0, # of connection points: 6
#     Node 7, Type 0, BuildingBlock: PAMTUU_clean_sbu_0, # of connection points: 6
#     Edge 8, Type (0, 0), BuildingBlock: OJICUG_clean_linker_0, # of connection points: 2
#     Edge 9, Type (0, 0), BuildingBlock: OJICUG_clean_linker_0, # of connection points: 2
#     Edge 10, Type (0, 0), BuildingBlock: OJICUG_clean_linker_0, # of connection points: 2
#     Edge 11, Type (0, 0), BuildingBlock: OJICUG_clean_linker_0, # of connection points: 2
#     Edge 12, Type (0, 0), BuildingBlock: OJICUG_clean_linker_0, # of connection points: 2
#     Edge 13, Type (0, 0), BuildingBlock: OJICUG_clean_linker_0, # of connection points: 2
#     Edge 14, Type (0, 0), BuildingBlock: OJICUG_clean_linker_0, # of connection points: 2
#     Edge 15, Type (0, 0), BuildingBlock: OJICUG_clean_linker_0, # of connection points: 2
#     Edge 16, Type (0, 0), BuildingBlock: OJICUG_clean_linker_0, # of connection points: 2
#     Edge 17, Type (0, 0), BuildingBlock: OJICUG_clean_linker_0, # of connection points: 2
#     Edge 18, Type (0, 0), BuildingBlock: OJICUG_clean_linker_0, # of connection points: 2
#     Edge 19, Type (0, 0), BuildingBlock: OJICUG_clean_linker_0, # of connection points: 2
#     Edge 20, Type (0, 0), BuildingBlock: OJICUG_clean_linker_0, # of connection points: 2
#     Edge 21, Type (0, 0), BuildingBlock: OJICUG_clean_linker_0, # of connection points: 2
#     Edge 22, Type (0, 0), BuildingBlock: OJICUG_clean_linker_0, # of connection points: 2
#     Edge 23, Type (0, 0), BuildingBlock: OJICUG_clean_linker_0, # of connection points: 2
#     Edge 24, Type (0, 0), BuildingBlock: OJICUG_clean_linker_0, # of connection points: 2
#     Edge 25, Type (0, 0), BuildingBlock: OJICUG_clean_linker_0, # of connection points: 2
#     Edge 26, Type (0, 0), BuildingBlock: OJICUG_clean_linker_0, # of connection points: 2
#     Edge 27, Type (0, 0), BuildingBlock: OJICUG_clean_linker_0, # of connection points: 2
#     Edge 28, Type (0, 0), BuildingBlock: OJICUG_clean_linker_0, # of connection points: 2
#     Edge 29, Type (0, 0), BuildingBlock: OJICUG_clean_linker_0, # of connection points: 2
#     Edge 30, Type (0, 0), BuildingBlock: OJICUG_clean_linker_0, # of connection points: 2
#     Edge 31, Type (0, 0), BuildingBlock: OJICUG_clean_linker_0, # of connection points: 2
# Relax obj value: 0.145
# Max RMSD: 0.188
# Mean RMSD: 0.188
data_MOF--net-vby--node1-PAMTUU_clean_sbu_0--edge1-OJICUG_clean_linker_0
_symmetry_space_group_name_H-M    P1
_symmetry_Int_Tables_number       1
_symmetry_cell_setting            triclinic
loop_
_symmetry_equiv_pos_as_xyz
'x, y, z'
_cell_length_a     11.167156
_cell_length_b     88.792517
_cell_length_c     21.859109
_cell_angle_alpha  90.064361
_cell_angle_beta   83.707998
_cell_angle_gamma 90.015174
loop_
_atom_site_label
_atom_site_type_symbol
_atom_site_fract_x
_atom_site_fract_y
_atom_site_fract_z
_atom_type_partial_charge
Tb0 Tb 0.08788 0.37149 0.01191 0.0
Tb1 Tb 0.09502 0.40914 0.01682 0.0
C2 C 0.08415 0.39154 0.8939 0.0
C3 C 0.14567 0.32869 0.00554 0.0
C4 C 0.23213 0.29876 0.00592 0.0
C5 C 0.16149 0.30363 0.96027 0.0
C6 C 0.11847 0.31841 0.96024 0.0
C7 C 0.22164 0.3241 0.04926 0.0
C8 C 0.26456 0.30929 0.04936 0.0
C9 C 0.0779 0.343 0.01253 0.0
O10 O 0.2721 0.37724 0.02595 0.0
O11 O 0.27821 0.40164 -0.00983 0.0
O12 O 0.13388 0.40006 0.10419 0.0
O13 O 1.01818 0.37899 0.10324 0.0
O14 O 0.16359 0.42961 0.97987 0.0
O15 O 0.05423 0.42885 0.06819 0.0
O16 O 0.90302 0.4036 0.02891 0.0
O17 O 0.90557 0.37833 0.00171 0.0
O18 O 0.13201 0.3797 0.91824 0.0
O19 O 0.04597 0.40332 0.92683 0.0
C20 C 0.33183 0.3895 0.00796 0.0
O21 O 0.09047 0.35126 0.06067 0.0
O22 O 0.06802 0.35115 0.96378 0.0
C23 C 0.07048 0.38939 0.1333 0.0
C24 C 0.07391 0.4529 0.01766 0.0
C25 C 1.04494 0.48452 0.01376 0.0
C26 C 0.98986 0.47612 0.06362 0.0
C27 C 1.00451 0.46049 0.06564 0.0
C28 C 0.12329 0.46119 0.9662 0.0
C29 C 0.10858 0.47682 0.96417 0.0
C30 C 0.1154 0.43733 0.02715 0.0
C31 C 0.84828 0.39101 0.01564 0.0
H32 H 0.13671 0.29589 0.92544 0.0
H33 H 0.05922 0.32161 0.92638 0.0
H34 H 0.24346 0.3317 0.08521 0.0
H35 H 0.31814 0.30592 0.08541 0.0
H36 H 0.93851 0.48168 0.10209 0.0
H37 H 0.96668 0.45449 0.10635 0.0
H38 H 0.17922 0.45575 0.92899 0.0
H39 H 0.15302 0.48294 0.92528 0.0
Tb40 Tb 0.9968 0.62532 0.01644 0.0
Tb41 Tb 1.00393 0.66296 0.02139 0.0
C42 C 1.02131 0.64507 0.89997 0.0
C43 C 1.01787 0.58156 0.01556 0.0
C44 C 0.04682 0.54993 0.01945 0.0
C45 C 0.10189 0.55834 0.96959 0.0
C46 C 0.08726 0.57396 0.96758 0.0
C47 C 0.9685 0.57327 0.06701 0.0
C48 C 0.98319 0.55764 0.06904 0.0
C49 C 0.97641 0.59713 0.00607 0.0
O50 O 0.18879 0.63086 0.00432 0.0
O51 O 0.18621 0.65613 0.03166 0.0
O52 O 0.95994 0.65474 0.11505 0.0
O53 O 0.0459 0.63112 0.10643 0.0
O54 O 1.0021 0.6832 0.97259 0.0
O55 O 1.02302 0.6833 0.06963 0.0
O56 O 0.81974 0.65722 0.00727 0.0
O57 O 0.81362 0.63283 0.0431 0.0
O58 O 0.95792 0.6344 0.92907 0.0
O59 O 0.07359 0.65548 0.93004 0.0
C60 C 0.24352 0.64345 0.01766 0.0
O61 O 0.92818 0.60484 0.05335 0.0
O62 O 1.03762 0.60561 0.96506 0.0
C63 C 1.0078 0.64291 0.13937 0.0
C64 C 0.9459 0.70576 0.02757 0.0
C65 C 0.85941 0.73568 0.02714 0.0
C66 C 0.92813 0.73075 0.07347 0.0
C67 C 0.97118 0.71596 0.07352 0.0
C68 C 0.87182 0.71043 0.9831 0.0
C69 C 0.82888 0.72523 0.98298 0.0
C70 C 1.01385 0.69145 0.02083 0.0
C71 C 0.75999 0.64495 0.02529 0.0
H72 H 0.15324 0.55278 0.93112 0.0
H73 H 0.12509 0.57997 0.92686 0.0
H74 H 0.91258 0.57871 0.10423 0.0
H75 H 0.93875 0.55152 0.10794 0.0
H76 H 0.95141 0.73843 0.10883 0.0
H77 H 1.02898 0.71271 0.10797 0.0
H78 H 0.85154 0.70289 0.94663 0.0
H79 H 0.77684 0.72866 0.94639 0.0
Tb80 Tb 0.09454 0.62531 0.51908 0.0
Tb81 Tb 0.08757 0.66297 0.51434 0.0
C82 C 0.06975 0.64511 0.63559 0.0
C83 C 0.07254 0.58156 0.52045 0.0
C84 C 1.04476 0.54993 0.51469 0.0
C85 C 1.00032 0.55797 0.56784 0.0
C86 C 1.01445 0.57359 0.57074 0.0
C87 C 0.11097 0.57365 0.46608 0.0
C88 C 0.09687 0.55801 0.46318 0.0
C89 C 0.11442 0.59713 0.52963 0.0
O90 O 0.90257 0.63083 0.53097 0.0
O91 O 0.9051 0.65614 0.50445 0.0
O92 O 0.13232 0.65474 0.42068 0.0
O93 O 0.046 0.63114 0.42904 0.0
O94 O 0.09413 0.68322 0.56282 0.0
O95 O 0.06418 0.68328 0.46682 0.0
O96 O 0.27189 0.65721 0.52802 0.0
O97 O 0.27784 0.63276 0.49249 0.0
O98 O 0.13344 0.63446 0.60642 0.0
O99 O 1.01751 0.6555 0.60559 0.0
C100 C 0.84785 0.64344 0.518 0.0
O101 O 0.16245 0.60479 0.48221 0.0
O102 O 0.05362 0.60565 0.57069 0.0
C103 C 0.08445 0.64291 0.39621 0.0
C104 C 0.14462 0.70579 0.50697 0.0
C105 C 0.23231 0.73565 0.50699 0.0
C106 C 0.15117 0.73122 0.46549 0.0
C107 C 0.10761 0.71646 0.46566 0.0
C108 C 0.23067 0.70996 0.54624 0.0
C109 C 0.27409 0.72474 0.54619 0.0
C110 C 0.07761 0.69145 0.51519 0.0
C111 C 0.33153 0.64492 0.5101 0.0
H112 H 0.96074 0.55211 0.60856 0.0
H113 H 0.98606 0.57929 0.61373 0.0
H114 H 0.15747 0.5794 0.42673 0.0
H115 H 0.13023 0.55219 0.42117 0.0
H116 H 0.11633 0.73935 0.43503 0.0
H117 H 1.0401 0.71359 0.43556 0.0
H118 H 0.26079 0.70199 0.5788 0.0
H119 H 0.33819 0.72773 0.57795 0.0
Tb120 Tb 1.00451 0.37148 0.51891 0.0
Tb121 Tb 0.99753 0.40914 0.5142 0.0
C122 C 1.00763 0.39153 0.63705 0.0
C123 C 0.94746 0.32866 0.52629 0.0
C124 C 0.85967 0.2988 0.52629 0.0
C125 C 0.94108 0.30322 0.56766 0.0
C126 C 0.98469 0.31797 0.56748 0.0
C127 C 0.86115 0.32451 0.48713 0.0
C128 C 0.81769 0.30972 0.48719 0.0
C129 C 1.01447 0.343 0.51804 0.0
O130 O 0.82018 0.37724 0.50524 0.0
O131 O 0.81423 0.40169 0.54078 0.0
O132 O 0.9586 0.39999 0.42686 0.0
O133 O 0.07454 0.37895 0.42765 0.0
O134 O 0.92965 0.42966 0.55109 0.0
O135 O 1.03842 0.4288 0.4626 0.0
O136 O 0.18951 0.40362 0.50229 0.0
O137 O 0.18698 0.37831 0.52878 0.0
O138 O 0.95976 0.3797 0.61258 0.0
O139 O 0.04608 0.4033 0.60423 0.0
C140 C 0.76055 0.38953 0.52317 0.0
O141 O 0.99786 0.35123 0.47042 0.0
O142 O 1.028 0.35116 0.56639 0.0
C143 C 1.02228 0.38935 0.39767 0.0
C144 C 1.01954 0.45289 0.51285 0.0
C145 C 0.04732 0.48451 0.51861 0.0
C146 C 0.09176 0.47648 0.46546 0.0
C147 C 0.07763 0.46086 0.46256 0.0
C148 C 0.9811 0.4608 0.56722 0.0
C149 C 0.9952 0.47643 0.57012 0.0
C150 C 0.97765 0.43732 0.50367 0.0
C151 C 0.24422 0.39101 0.51525 0.0
H152 H 0.97607 0.29508 0.59803 0.0
H153 H 0.05239 0.32083 0.59749 0.0
H154 H 0.83086 0.33248 0.45466 0.0
H155 H 0.75337 0.30675 0.45552 0.0
H156 H 0.13134 0.48234 0.42474 0.0
H157 H 0.10602 0.45515 0.41958 0.0
H158 H 0.9346 0.45505 0.60657 0.0
H159 H 0.96184 0.48225 0.61213 0.0
Tb160 Tb 0.58721 0.87149 0.01265 0.0
Tb161 Tb 0.59437 0.90914 0.01744 0.0
C162 C 0.58336 0.89151 0.89459 0.0
C163 C 0.64531 0.8287 0.0065 0.0
C164 C 0.73188 0.79877 0.00675 0.0
C165 C 0.66305 0.80372 0.96049 0.0
C166 C 0.61995 0.8185 0.96052 0.0
C167 C 0.71949 0.82402 0.0509 0.0
C168 C 0.76247 0.80922 0.05094 0.0
C169 C 0.57733 0.843 0.01335 0.0
O170 O 0.7714 0.87724 0.02671 0.0
O171 O 0.77754 0.90163 -0.0092 0.0
O172 O 0.63318 0.90007 0.10485 0.0
O173 O 0.51747 0.879 0.10395 0.0
O174 O 0.663 0.9296 0.98043 0.0
O175 O 0.55356 0.92886 0.06873 0.0
O176 O 0.40236 0.9036 0.02954 0.0
O177 O 0.4049 0.87832 0.00241 0.0
O178 O 0.63124 0.87968 0.91895 0.0
O179 O 0.54525 0.9033 0.92749 0.0
C180 C 0.83116 0.8895 0.00865 0.0
O181 O 0.58951 0.85127 0.0615 0.0
O182 O 0.56768 0.85114 0.96456 0.0
C183 C 0.56974 0.88941 0.13398 0.0
C184 C 0.57339 0.9529 0.01813 0.0
C185 C 0.54467 0.98453 0.01406 0.0
C186 C 0.48984 0.97615 0.06405 0.0
C187 C 0.50437 0.96052 0.06616 0.0
C188 C 0.6225 0.96116 0.96655 0.0
C189 C 0.60792 0.97679 0.96442 0.0
C190 C 0.61479 0.93733 0.02768 0.0
C191 C 0.34762 0.891 0.0163 0.0
H192 H 0.63971 0.79605 0.9251 0.0
H193 H 0.56207 0.82176 0.92612 0.0
H194 H 0.73982 0.83154 0.08739 0.0
H195 H 0.81459 0.80578 0.08748 0.0
H196 H 0.43878 0.98173 0.10256 0.0
H197 H 0.46675 0.95454 0.10698 0.0
H198 H 0.67814 0.9557 0.92929 0.0
H199 H 0.65216 0.98289 0.92542 0.0
Tb200 Tb 0.49735 0.12533 0.01582 0.0
Tb201 Tb 0.50453 0.16298 0.02058 0.0
C202 C 0.52201 0.14505 0.89927 0.0
C203 C 0.51834 0.08157 0.01517 0.0
C204 C 0.54708 0.04994 0.01925 0.0
C205 C 0.60191 0.05832 0.96926 0.0
C206 C 0.58738 0.07394 0.96715 0.0
C207 C 0.46923 0.0733 0.06676 0.0
C208 C 0.48382 0.05767 0.06888 0.0
C209 C 0.47693 0.09714 0.00562 0.0
O210 O 0.68937 0.13086 0.00374 0.0
O211 O 0.68686 0.15615 0.03074 0.0
O212 O 0.46036 0.15479 0.11428 0.0
O213 O 0.54642 0.13118 0.10577 0.0
O214 O 0.50151 0.1832 0.97176 0.0
O215 O 0.52477 0.18333 0.06855 0.0
O216 O 0.3203 0.15723 0.00657 0.0
O217 O 0.31417 0.13284 0.04245 0.0
O218 O 0.45856 0.13439 0.9284 0.0
O219 O 0.5743 0.15546 0.92929 0.0
C220 C 0.74412 0.14346 0.01691 0.0
O221 O 0.42875 0.10487 0.05287 0.0
O222 O 0.53812 0.1056 0.96455 0.0
C223 C 0.50824 0.14297 0.13866 0.0
C224 C 0.44667 0.20578 0.0269 0.0
C225 C 0.36014 0.2357 0.02667 0.0
C226 C 0.43088 0.23083 0.07227 0.0
C227 C 0.47394 0.21605 0.07222 0.0
C228 C 0.37062 0.21038 0.98323 0.0
C229 C 0.32767 0.22518 0.98321 0.0
C230 C 0.51446 0.19147 0.01982 0.0
C231 C 0.26056 0.14496 0.02462 0.0
H232 H 0.65298 0.05274 0.93075 0.0
H233 H 0.625 0.07993 0.92633 0.0
H234 H 0.41358 0.07877 0.10401 0.0
H235 H 0.43958 0.05157 0.10789 0.0
H236 H 0.45571 0.23856 0.10711 0.0
H237 H 0.53326 0.21285 0.10604 0.0
H238 H 0.34876 0.20279 0.94727 0.0
H239 H 0.27403 0.22856 0.94719 0.0
Tb240 Tb 0.59503 0.12533 0.51818 0.0
Tb241 Tb 0.58794 0.16299 0.51376 0.0
C242 C 0.57011 0.14507 0.6349 0.0
C243 C 0.57392 0.08157 0.5184 0.0
C244 C 0.5449 0.04994 0.51413 0.0
C245 C 0.48964 0.05834 0.56403 0.0
C246 C 0.50431 0.07397 0.56623 0.0
C247 C 0.62348 0.07328 0.4669 0.0
C248 C 0.60876 0.05765 0.46468 0.0
C249 C 0.61539 0.09714 0.5281 0.0
O250 O 0.40301 0.13083 0.53014 0.0
O251 O 0.40543 0.15616 0.50397 0.0
O252 O 0.63266 0.15482 0.42002 0.0
O253 O 0.54622 0.13122 0.42828 0.0
O254 O 0.59464 0.18323 0.56237 0.0
O255 O 0.56423 0.18333 0.46643 0.0
O256 O 0.77225 0.15723 0.52747 0.0
O257 O 0.77826 0.13281 0.49167 0.0
O258 O 0.63364 0.13441 0.60569 0.0
O259 O 0.51794 0.15548 0.60496 0.0
C260 C 0.34824 0.14345 0.51737 0.0
O261 O 0.66353 0.10487 0.48091 0.0
O262 O 0.55429 0.1056 0.56927 0.0
C263 C 0.58474 0.143 0.3955 0.0
C264 C 0.64477 0.20582 0.50662 0.0
C265 C 0.73241 0.23569 0.50667 0.0
C266 C 0.65104 0.23127 0.46528 0.0
C267 C 0.6075 0.21651 0.46543 0.0
C268 C 0.73102 0.20998 0.5458 0.0
C269 C 0.77441 0.22476 0.54577 0.0
C270 C 0.57786 0.19147 0.51482 0.0
C271 C 0.83191 0.14496 0.50945 0.0
H272 H 0.43812 0.05278 0.60239 0.0
H273 H 0.46632 0.07997 0.60698 0.0
H274 H 0.67957 0.07873 0.42981 0.0
H275 H 0.65334 0.05154 0.42576 0.0
H276 H 0.61603 0.2394 0.43491 0.0
H277 H 0.53984 0.21364 0.4354 0.0
H278 H 0.76132 0.20201 0.57827 0.0
H279 H 0.83869 0.22774 0.57745 0.0
Tb280 Tb 0.50357 0.87148 0.51951 0.0
Tb281 Tb 0.49649 0.90914 0.51506 0.0
C282 C 0.50676 0.89148 0.63775 0.0
C283 C 0.44674 0.82866 0.52665 0.0
C284 C 0.35922 0.79878 0.52658 0.0
C285 C 0.44032 0.80321 0.56809 0.0
C286 C 0.4838 0.81798 0.56794 0.0
C287 C 0.36075 0.82448 0.48735 0.0
C288 C 0.31742 0.80969 0.48737 0.0
C289 C 0.51365 0.843 0.51847 0.0
O290 O 0.31927 0.87724 0.50578 0.0
O291 O 0.31325 0.90166 0.54157 0.0
O292 O 0.4579 0.90006 0.42755 0.0
O293 O 0.57359 0.87899 0.42831 0.0
O294 O 0.42796 0.92961 0.5523 0.0
O295 O 0.53725 0.92887 0.46395 0.0
O296 O 0.6885 0.90365 0.50311 0.0
O297 O 0.68607 0.87832 0.52932 0.0
O298 O 0.45884 0.87966 0.61324 0.0
O299 O 0.54528 0.90326 0.60497 0.0
C300 C 0.2596 0.88952 0.5238 0.0
O301 O 0.49696 0.85125 0.47091 0.0
O302 O 0.52719 0.85115 0.56687 0.0
C303 C 0.52144 0.8894 0.39835 0.0
C304 C 0.5176 0.9529 0.51481 0.0
C305 C 0.54661 0.98453 0.51908 0.0
C306 C 0.60187 0.97613 0.46918 0.0
C307 C 0.5872 0.9605 0.46698 0.0
C308 C 0.46804 0.96119 0.56631 0.0
C309 C 0.48276 0.97682 0.56853 0.0
C310 C 0.47613 0.93734 0.50512 0.0
C311 C 0.74327 0.89103 0.51589 0.0
H312 H 0.47517 0.79509 0.59854 0.0
H313 H 0.55127 0.82085 0.59807 0.0
H314 H 0.33061 0.83244 0.45479 0.0
H315 H 0.25335 0.8067 0.4556 0.0
H316 H 0.65338 0.98169 0.43082 0.0
H317 H 0.62519 0.9545 0.42623 0.0
H318 H 0.41195 0.95574 0.60341 0.0
H319 H 0.43818 0.98293 0.60745 0.0
C320 C 0.52905 0.37659 0.0154 0.0
C321 C 0.46411 0.38993 0.00936 0.0
H322 H 0.70057 0.3665 0.02217 0.0
C323 C 0.52634 0.40376 0.00651 0.0
H324 H 0.484 0.36576 0.0179 0.0
C325 C 0.65081 0.40422 0.00974 0.0
C326 C 0.7158 0.39085 0.01503 0.0
H327 H 0.47879 0.41428 0.0024 0.0
H328 H 0.69624 0.41502 0.00718 0.0
C329 C 0.65342 0.37703 0.01782 0.0
C330 C 0.43838 0.65743 0.0155 0.0
C331 C 0.37601 0.64362 0.01826 0.0
H332 H 0.6078 0.6687 0.01542 0.0
C333 C 0.44101 0.63024 0.02351 0.0
H334 H 0.39121 0.66796 0.01118 0.0
C335 C 0.56549 0.6307 0.02671 0.0
C336 C 0.62771 0.64453 0.02389 0.0
H337 H 0.39558 0.61944 0.02604 0.0
H338 H 0.61305 0.62018 0.03079 0.0
C339 C 0.56276 0.65787 0.01789 0.0
C340 C 0.65046 0.63022 0.51185 0.0
C341 C 0.71541 0.64359 0.51729 0.0
H342 H 0.47848 0.62015 0.50436 0.0
C343 C 0.65304 0.6574 0.52014 0.0
H344 H 0.69588 0.61941 0.50924 0.0
C345 C 0.5287 0.65784 0.51765 0.0
C346 C 0.46379 0.6445 0.51149 0.0
H347 H 0.70017 0.66794 0.5246 0.0
H348 H 0.48366 0.66867 0.5202 0.0
C349 C 0.52601 0.63067 0.50857 0.0
C350 C 0.56606 0.40378 0.52472 0.0
C351 C 0.62828 0.38995 0.52178 0.0
H352 H 0.39618 0.41503 0.52405 0.0
C353 C 0.56337 0.37661 0.51559 0.0
H354 H 0.61358 0.4143 0.52894 0.0
C355 C 0.43904 0.37705 0.51309 0.0
C356 C 0.37667 0.39085 0.51595 0.0
H357 H 0.60842 0.36578 0.51303 0.0
H358 H 0.39192 0.36651 0.50861 0.0
C359 C 0.44161 0.40423 0.52142 0.0
C360 C 1.02836 0.87659 0.01613 0.0
C361 C 0.96344 0.88993 0.01005 0.0
H362 H 0.19988 0.8665 0.02292 0.0
C363 C 1.02568 0.90376 0.00714 0.0
H364 H 0.9833 0.86576 0.01867 0.0
C365 C 0.15016 0.90422 0.01035 0.0
C366 C 0.21513 0.89084 0.01569 0.0
H367 H 0.97815 0.91427 0.00299 0.0
H368 H 0.19561 0.91502 0.00775 0.0
C369 C 0.15274 0.87703 0.01853 0.0
C370 C 0.06337 0.15787 0.01709 0.0
C371 C 0.12828 0.14454 0.02322 0.0
H372 H 0.89187 0.16796 0.01025 0.0
C373 C 0.06603 0.13071 0.02615 0.0
H374 H 0.10843 0.1687 0.01453 0.0
C375 C 0.94156 0.13025 0.02292 0.0
C376 C 0.8766 0.14362 0.01754 0.0
H377 H 0.11356 0.1202 0.03033 0.0
H378 H 0.89611 0.11945 0.02554 0.0
C379 C 0.939 0.15743 0.01467 0.0
C380 C 0.15084 0.13024 0.51105 0.0
C381 C 0.21578 0.14361 0.51671 0.0
H382 H 0.97889 0.12019 0.50336 0.0
C383 C 0.15339 0.15742 0.51978 0.0
H384 H 0.19629 0.11944 0.50826 0.0
C385 C 1.02906 0.15786 0.51728 0.0
C386 C 0.96417 0.14453 0.51088 0.0
H387 H 0.20051 0.16795 0.52442 0.0
H388 H 0.98401 0.16869 0.52 0.0
C389 C 1.0264 0.1307 0.50775 0.0
C390 C 0.93811 0.87705 0.5135 0.0
C391 C 0.87573 0.89086 0.51656 0.0
H392 H 0.10749 0.86578 0.51329 0.0
C393 C 0.94067 0.90424 0.5222 0.0
H394 H 0.89099 0.86652 0.50888 0.0
C395 C 0.06512 0.90378 0.52549 0.0
C396 C 0.12734 0.88994 0.52237 0.0
H397 H 0.89523 0.91504 0.52497 0.0
H398 H 0.11263 0.91428 0.52986 0.0
C399 C 0.06244 0.87661 0.516 0.0
C400 C 0.06193 0.5248 0.07124 0.0
C401 C 0.0486 0.53317 0.01787 0.0
H402 H 0.07244 0.50297 0.11163 0.0
C403 C 1.03238 0.5254 0.96324 0.0
H404 H 0.07582 0.53042 0.1139 0.0
C405 C 1.02981 0.50965 0.96197 0.0
C406 C 1.04315 0.50129 0.01534 0.0
H407 H 1.01931 0.53148 0.92158 0.0
H408 H 1.01593 0.50403 0.91931 0.0
C409 C 0.05936 0.50906 0.06997 0.0
C410 C 0.14722 0.50934 0.49031 0.0
C411 C 0.04791 0.50128 0.51865 0.0
H412 H 0.2245 0.53093 0.46729 0.0
C413 C 0.94667 0.50937 0.54493 0.0
H414 H 0.22709 0.50349 0.47018 0.0
C415 C 0.94485 0.52511 0.54299 0.0
C416 C 1.04417 0.53316 0.51464 0.0
H417 H 0.86758 0.50352 0.56601 0.0
H418 H 0.86499 0.53096 0.56311 0.0
C419 C 0.14541 0.52508 0.48836 0.0
C420 C 0.5294 1.00964 0.96213 0.0
C421 C 0.54303 1.00129 0.01551 0.0
H422 H 0.51878 0.03145 0.92161 0.0
C423 C 0.55966 1.00909 0.07004 0.0
H424 H 0.51519 1.004 0.91955 0.0
C425 C 0.56235 0.02483 0.07119 0.0
C426 C 0.54872 0.03318 0.0178 0.0
H427 H 0.57297 1.00302 0.11171 0.0
H428 H 0.57656 0.03047 0.11376 0.0
C429 C 0.53209 0.02538 0.96327 0.0
C430 C 0.55899 0.0254 0.5701 0.0
C431 C 0.54307 0.03318 0.51551 0.0
H432 H 0.57518 1.00403 0.61381 0.0
C433 C 0.52999 0.02482 0.46202 0.0
H434 H 0.57186 0.03148 0.61185 0.0
C435 C 0.53252 1.00908 0.46311 0.0
C436 C 0.54845 1.00129 0.51769 0.0
H437 H 0.51633 0.03044 0.4194 0.0
H438 H 0.51965 1.003 0.42136 0.0
C439 C 0.56152 1.00965 0.57119 0.0
C440 C 0.38013 0.27844 0.02583 0.0
C441 C 0.26583 0.28261 0.01039 0.0
H442 H 0.49983 0.26046 0.04233 0.0
C443 C 0.18215 0.27121 0.00103 0.0
H444 H 0.44718 0.28692 0.03266 0.0
C445 C 0.2121 0.25602 0.00683 0.0
C446 C 0.32642 0.25186 0.02226 0.0
H447 H 0.09241 0.27401 -0.00968 0.0
H448 H 0.14506 0.24755 -0.0 0.0
C449 C 0.41009 0.26326 0.03163 0.0
C450 C 0.87899 0.77843 0.0276 0.0
C451 C 0.76553 0.78261 0.01106 0.0
H452 H 0.9979 0.76042 0.04492 0.0
C453 C 0.68256 0.77122 0.00049 0.0
H454 H 0.94551 0.78689 0.03539 0.0
C455 C 0.71236 0.75603 0.0062 0.0
C456 C 0.8258 0.75184 0.02276 0.0
H457 H 0.59343 0.77404 -0.01111 0.0
H458 H 0.64584 0.74756 -0.00158 0.0
C459 C 0.90878 0.76324 0.03332 0.0
C460 C 0.2718 0.75849 0.56983 0.0
C461 C 0.26716 0.75176 0.51183 0.0
H462 H 0.30167 0.77861 0.62009 0.0
C463 C 0.29144 0.76068 0.45884 0.0
H464 H 0.25121 0.75202 0.61164 0.0
C465 C 0.31978 0.77595 0.46373 0.0
C466 C 0.32441 0.78267 0.52173 0.0
H467 H 0.28989 0.75582 0.41346 0.0
H468 H 0.34036 0.78241 0.42191 0.0
C469 C 0.30013 0.77375 0.57472 0.0
C470 C 0.80071 0.27377 0.57442 0.0
C471 C 0.82473 0.2827 0.52144 0.0
H472 H 0.75193 0.25203 0.61133 0.0
C473 C 0.81974 0.27598 0.46344 0.0
H474 H 0.80254 0.27861 0.6198 0.0
C475 C 0.79132 0.26072 0.45855 0.0
C476 C 0.76731 0.25179 0.51152 0.0
H477 H 0.84011 0.28246 0.42163 0.0
H478 H 0.7895 0.25587 0.41317 0.0
C479 C 0.7723 0.2585 0.56952 0.0
C480 C 0.05116 0.37557 0.23324 0.0
C481 C 0.05763 0.38924 0.20086 0.0
H482 H 1.03795 0.3649 0.32177 0.0
C483 C 0.05288 0.40288 0.2335 0.0
H484 H 0.05528 0.36492 0.20884 0.0
C485 C 1.03997 0.40287 0.29766 0.0
C486 C 1.03532 0.38922 0.3301 0.0
H487 H 0.0573 0.41356 0.2094 0.0
H488 H 1.03541 0.41354 0.32191 0.0
C489 C 1.04198 0.37555 0.29753 0.0
C490 C 1.03478 0.65665 0.23701 0.0
C491 C 1.02421 0.643 0.20547 0.0
H492 H 0.06518 0.66733 0.32196 0.0
C493 C 1.03597 0.62936 0.2368 0.0
H494 H 1.0274 0.66733 0.2138 0.0
C495 C 0.05653 0.62937 0.29864 0.0
C496 C 0.06828 0.643 0.33009 0.0
H497 H 1.02848 0.61867 0.21363 0.0
H498 H 0.06396 0.61867 0.32172 0.0
C499 C 0.0578 0.65665 0.29865 0.0
C500 C 1.03901 0.63158 0.79978 0.0
C501 C 1.03421 0.64522 0.83241 0.0
H502 H 0.05658 0.62092 0.71137 0.0
C503 C 1.0407 0.65889 0.80003 0.0
H504 H 1.03457 0.6209 0.82387 0.0
C505 C 0.04995 0.6589 0.73573 0.0
C506 C 0.05665 0.64524 0.70316 0.0
H507 H 1.03655 0.66954 0.82441 0.0
H508 H 0.05399 0.66956 0.71149 0.0
C509 C 0.05199 0.63159 0.73561 0.0
C510 C 1.03553 0.40507 0.73462 0.0
C511 C 1.02379 0.39144 0.70317 0.0
H512 H 0.06354 0.41577 0.81963 0.0
C513 C 1.03426 0.37779 0.73461 0.0
H514 H 1.02811 0.41577 0.71154 0.0
C515 C 0.05725 0.37779 0.79625 0.0
C516 C 0.0678 0.39144 0.8278 0.0
H517 H 1.02688 0.36711 0.7113 0.0
H518 H 0.06461 0.36711 0.81947 0.0
C519 C 0.05607 0.40508 0.79647 0.0
C520 C 0.55216 0.90292 0.23415 0.0
C521 C 0.55684 0.88927 0.20154 0.0
H522 H 0.53471 0.91359 0.32254 0.0
C523 C 0.55025 0.8756 0.23395 0.0
H524 H 0.55668 0.91359 0.21003 0.0
C525 C 0.54102 0.8756 0.29824 0.0
C526 C 0.53445 0.88927 0.33079 0.0
H527 H 0.55431 0.86495 0.20958 0.0
H528 H 0.53691 0.86495 0.3225 0.0
C529 C 0.53921 0.90291 0.29832 0.0
C530 C 0.53513 0.15673 0.23628 0.0
C531 C 0.5246 0.14307 0.20475 0.0
H532 H 0.56548 0.16742 0.32123 0.0
C533 C 0.53637 0.12945 0.2361 0.0
H534 H 0.52774 0.1674 0.21305 0.0
C535 C 0.55693 0.12945 0.29794 0.0
C536 C 0.56864 0.14309 0.32938 0.0
H537 H 0.52892 0.11875 0.21295 0.0
H538 H 0.56438 0.11876 0.32103 0.0
C539 C 0.55814 0.15674 0.29793 0.0
C540 C 0.53951 0.13155 0.79909 0.0
C541 C 0.53486 0.14519 0.83171 0.0
H542 H 0.55687 0.12088 0.7107 0.0
C543 C 0.54144 0.15886 0.79931 0.0
H544 H 0.535 0.12087 0.82321 0.0
C545 C 0.55061 0.15886 0.73501 0.0
C546 C 0.55714 0.1452 0.70246 0.0
H547 H 0.53741 0.16951 0.82368 0.0
H548 H 0.55472 0.16952 0.71076 0.0
C549 C 0.5524 0.13155 0.73493 0.0
C550 C 0.53458 0.90503 0.73532 0.0
C551 C 0.52288 0.89139 0.70388 0.0
H552 H 0.56263 0.91574 0.8203 0.0
C553 C 0.53338 0.87774 0.73533 0.0
H554 H 0.52713 0.91572 0.71223 0.0
C555 C 0.55641 0.87775 0.79697 0.0
C556 C 0.56696 0.89141 0.8285 0.0
H557 H 0.52603 0.86706 0.71203 0.0
H558 H 0.56382 0.86708 0.8202 0.0
C559 C 0.55516 0.90504 0.79715 0.0
loop_
_geom_bond_atom_site_label_1
_geom_bond_atom_site_label_2
_geom_bond_distance
_geom_bond_site_symmetry_2
_ccdc_geom_bond_type
Tb0 C9 2.764 . S
Tb0 O10 2.325 . S
Tb0 O13 2.303 . S
Tb0 O17 2.322 1_455 S
Tb0 O18 2.349 1_554 S
Tb0 O21 2.415 . S
Tb0 O22 2.399 1_554 S
Tb1 O11 2.322 . S
Tb1 O12 2.349 . S
Tb1 O14 2.415 1_554 S
Tb1 O15 2.399 . S
Tb1 O16 2.325 1_455 S
Tb1 O19 2.303 1_554 S
Tb1 C30 2.764 1_455 S
C2 O18 1.261 . S
C2 O19 1.257 . S
C3 C6 1.358 1_554 S
C3 C7 1.332 . S
C3 C9 1.504 . S
C4 C5 1.373 1_554 S
C4 C8 1.308 . S
C5 C4 1.373 1_556 S
C5 C6 1.429 . S
C5 H32 0.932 . S
C6 C3 1.358 1_556 S
C6 C5 1.429 . S
C6 H33 0.930 . S
C7 C3 1.332 . S
C7 C8 1.394 . S
C7 H34 0.932 . S
C8 C4 1.308 . S
C8 C7 1.394 . S
C8 H35 0.929 . S
C9 Tb0 2.764 . S
C9 C3 1.504 . S
C9 O21 1.239 . S
C9 O22 1.263 1_554 S
O10 Tb0 2.325 . S
O10 C20 1.236 . S
O11 Tb1 2.322 . S
O11 C20 1.257 . S
O12 Tb1 2.349 . S
O12 C23 1.261 . S
O13 Tb0 2.303 . S
O13 C23 1.257 . S
O14 Tb1 2.415 1_556 S
O14 C30 1.239 1_456 S
O15 Tb1 2.399 . S
O15 C30 1.263 1_455 S
O16 Tb1 2.325 1_655 S
O16 C31 1.236 . S
O17 Tb0 2.322 1_655 S
O17 C31 1.257 . S
O18 Tb0 2.349 1_556 S
O18 C2 1.261 . S
O19 Tb1 2.303 1_556 S
O19 C2 1.257 . S
C20 O10 1.236 . S
C20 O11 1.257 . S
O21 Tb0 2.415 . S
O21 C9 1.239 . S
O22 Tb0 2.399 1_556 S
O22 C9 1.263 1_556 S
C23 O12 1.261 . S
C23 O13 1.257 . S
C24 C27 1.358 . S
C24 C28 1.332 1_554 S
C24 C30 1.504 . S
C25 C26 1.373 . S
C25 C29 1.308 1_554 S
C26 C25 1.373 . S
C26 C27 1.429 . S
C26 H36 0.932 . S
C27 C24 1.358 . S
C27 C26 1.429 . S
C27 H37 0.930 . S
C28 C24 1.332 1_556 S
C28 C29 1.394 . S
C28 H38 0.932 . S
C29 C25 1.308 1_556 S
C29 C28 1.394 . S
C29 H39 0.929 . S
C30 Tb1 2.764 1_655 S
C30 O14 1.239 1_654 S
C30 O15 1.263 1_655 S
C30 C24 1.504 . S
C31 O16 1.236 . S
C31 O17 1.257 . S
H32 C5 0.932 . S
H33 C6 0.930 . S
H34 C7 0.932 . S
H35 C8 0.929 . S
H36 C26 0.932 . S
H37 C27 0.930 . S
H38 C28 0.932 . S
H39 C29 0.929 . S
Tb40 C49 2.764 1_655 S
Tb40 O50 2.325 1_655 S
Tb40 O53 2.303 . S
Tb40 O57 2.322 . S
Tb40 O58 2.349 1_554 S
Tb40 O61 2.415 . S
Tb40 O62 2.399 1_554 S
Tb41 O51 2.322 1_655 S
Tb41 O52 2.349 . S
Tb41 O54 2.415 1_554 S
Tb41 O55 2.399 . S
Tb41 O56 2.325 . S
Tb41 O59 2.303 1_554 S
Tb41 C70 2.764 . S
C42 O58 1.261 . S
C42 O59 1.257 . S
C43 C46 1.358 1_554 S
C43 C47 1.332 . S
C43 C49 1.504 . S
C44 C45 1.373 . S
C44 C48 1.308 . S
C45 C44 1.373 . S
C45 C46 1.429 1_554 S
C45 H72 0.932 1_554 S
C46 C43 1.358 1_556 S
C46 C45 1.429 1_556 S
C46 H73 0.930 . S
C47 C43 1.332 . S
C47 C48 1.394 . S
C47 H74 0.932 . S
C48 C44 1.308 . S
C48 C47 1.394 . S
C48 H75 0.929 . S
C49 Tb40 2.764 1_455 S
C49 C43 1.504 . S
C49 O61 1.239 1_455 S
C49 O62 1.263 1_454 S
O50 Tb40 2.325 1_455 S
O50 C60 1.236 . S
O51 Tb41 2.322 1_455 S
O51 C60 1.257 . S
O52 Tb41 2.349 . S
O52 C63 1.261 . S
O53 Tb40 2.303 . S
O53 C63 1.257 . S
O54 Tb41 2.415 1_556 S
O54 C70 1.239 1_556 S
O55 Tb41 2.399 . S
O55 C70 1.263 . S
O56 Tb41 2.325 . S
O56 C71 1.236 . S
O57 Tb40 2.322 . S
O57 C71 1.257 . S
O58 Tb40 2.349 1_556 S
O58 C42 1.261 . S
O59 Tb41 2.303 1_556 S
O59 C42 1.257 . S
C60 O50 1.236 . S
C60 O51 1.257 . S
O61 Tb40 2.415 . S
O61 C49 1.239 1_655 S
O62 Tb40 2.399 1_556 S
O62 C49 1.263 1_656 S
C63 O52 1.261 . S
C63 O53 1.257 . S
C64 C67 1.358 . S
C64 C68 1.332 1_554 S
C64 C70 1.504 . S
C65 C66 1.373 . S
C65 C69 1.308 1_554 S
C66 C65 1.373 . S
C66 C67 1.429 . S
C66 H76 0.932 . S
C67 C64 1.358 . S
C67 C66 1.429 . S
C67 H77 0.930 . S
C68 C64 1.332 1_556 S
C68 C69 1.394 . S
C68 H78 0.932 . S
C69 C65 1.308 1_556 S
C69 C68 1.394 . S
C69 H79 0.929 . S
C70 Tb41 2.764 . S
C70 O54 1.239 1_554 S
C70 O55 1.263 . S
C70 C64 1.504 . S
C71 O56 1.236 . S
C71 O57 1.257 . S
H72 C45 0.932 1_556 S
H73 C46 0.930 . S
H74 C47 0.932 . S
H75 C48 0.929 . S
H76 C66 0.932 . S
H77 C67 0.930 . S
H78 C68 0.932 . S
H79 C69 0.929 . S
Tb80 C89 2.764 1_455 S
Tb80 O90 2.325 1_455 S
Tb80 O93 2.303 . S
Tb80 O97 2.322 . S
Tb80 O98 2.349 . S
Tb80 O101 2.415 . S
Tb80 O102 2.399 . S
Tb81 O91 2.322 1_455 S
Tb81 O92 2.349 . S
Tb81 O94 2.415 . S
Tb81 O95 2.399 . S
Tb81 O96 2.325 . S
Tb81 O99 2.303 . S
Tb81 C110 2.764 . S
C82 O98 1.261 . S
C82 O99 1.257 . S
C83 C86 1.358 . S
C83 C87 1.332 . S
C83 C89 1.504 . S
C84 C85 1.373 . S
C84 C88 1.308 . S
C85 C84 1.373 . S
C85 C86 1.429 . S
C85 H112 0.932 . S
C86 C83 1.358 . S
C86 C85 1.429 . S
C86 H113 0.930 . S
C87 C83 1.332 . S
C87 C88 1.394 . S
C87 H114 0.932 . S
C88 C84 1.308 . S
C88 C87 1.394 . S
C88 H115 0.929 . S
C89 Tb80 2.764 1_655 S
C89 C83 1.504 . S
C89 O101 1.239 1_655 S
C89 O102 1.263 1_655 S
O90 Tb80 2.325 1_655 S
O90 C100 1.236 . S
O91 Tb81 2.322 1_655 S
O91 C100 1.257 . S
O92 Tb81 2.349 . S
O92 C103 1.261 . S
O93 Tb80 2.303 . S
O93 C103 1.257 . S
O94 Tb81 2.415 . S
O94 C110 1.239 . S
O95 Tb81 2.399 . S
O95 C110 1.263 . S
O96 Tb81 2.325 . S
O96 C111 1.236 . S
O97 Tb80 2.322 . S
O97 C111 1.257 . S
O98 Tb80 2.349 . S
O98 C82 1.261 . S
O99 Tb81 2.303 . S
O99 C82 1.257 . S
C100 O90 1.236 . S
C100 O91 1.257 . S
O101 Tb80 2.415 . S
O101 C89 1.239 1_455 S
O102 Tb80 2.399 . S
O102 C89 1.263 1_455 S
C103 O92 1.261 . S
C103 O93 1.257 . S
C104 C107 1.358 . S
C104 C108 1.332 . S
C104 C110 1.504 . S
C105 C106 1.373 . S
C105 C109 1.308 . S
C106 C105 1.373 . S
C106 C107 1.429 . S
C106 H116 0.932 . S
C107 C104 1.358 . S
C107 C106 1.429 . S
C107 H117 0.930 . S
C108 C104 1.332 . S
C108 C109 1.394 . S
C108 H118 0.932 . S
C109 C105 1.308 . S
C109 C108 1.394 . S
C109 H119 0.929 . S
C110 Tb81 2.764 . S
C110 O94 1.239 . S
C110 O95 1.263 . S
C110 C104 1.504 . S
C111 O96 1.236 . S
C111 O97 1.257 . S
H112 C85 0.932 . S
H113 C86 0.930 . S
H114 C87 0.932 . S
H115 C88 0.929 . S
H116 C106 0.932 . S
H117 C107 0.930 . S
H118 C108 0.932 . S
H119 C109 0.929 . S
Tb120 C129 2.764 . S
Tb120 O130 2.325 . S
Tb120 O133 2.303 . S
Tb120 O137 2.322 1_655 S
Tb120 O138 2.349 . S
Tb120 O141 2.415 . S
Tb120 O142 2.399 . S
Tb121 O131 2.322 . S
Tb121 O132 2.349 . S
Tb121 O134 2.415 . S
Tb121 O135 2.399 . S
Tb121 O136 2.325 1_655 S
Tb121 O139 2.303 . S
Tb121 C150 2.764 1_655 S
C122 O138 1.261 . S
C122 O139 1.257 . S
C123 C126 1.358 . S
C123 C127 1.332 . S
C123 C129 1.504 . S
C124 C125 1.373 . S
C124 C128 1.308 . S
C125 C124 1.373 . S
C125 C126 1.429 . S
C125 H152 0.932 . S
C126 C123 1.358 . S
C126 C125 1.429 . S
C126 H153 0.930 . S
C127 C123 1.332 . S
C127 C128 1.394 . S
C127 H154 0.932 . S
C128 C124 1.308 . S
C128 C127 1.394 . S
C128 H155 0.929 . S
C129 Tb120 2.764 . S
C129 C123 1.504 . S
C129 O141 1.239 . S
C129 O142 1.263 . S
O130 Tb120 2.325 . S
O130 C140 1.236 . S
O131 Tb121 2.322 . S
O131 C140 1.257 . S
O132 Tb121 2.349 . S
O132 C143 1.261 . S
O133 Tb120 2.303 . S
O133 C143 1.257 . S
O134 Tb121 2.415 . S
O134 C150 1.239 1_655 S
O135 Tb121 2.399 . S
O135 C150 1.263 1_655 S
O136 Tb121 2.325 1_455 S
O136 C151 1.236 . S
O137 Tb120 2.322 1_455 S
O137 C151 1.257 . S
O138 Tb120 2.349 . S
O138 C122 1.261 . S
O139 Tb121 2.303 . S
O139 C122 1.257 . S
C140 O130 1.236 . S
C140 O131 1.257 . S
O141 Tb120 2.415 . S
O141 C129 1.239 . S
O142 Tb120 2.399 . S
O142 C129 1.263 . S
C143 O132 1.261 . S
C143 O133 1.257 . S
C144 C147 1.358 . S
C144 C148 1.332 . S
C144 C150 1.504 . S
C145 C146 1.373 . S
C145 C149 1.308 . S
C146 C145 1.373 . S
C146 C147 1.429 . S
C146 H156 0.932 . S
C147 C144 1.358 . S
C147 C146 1.429 . S
C147 H157 0.930 . S
C148 C144 1.332 . S
C148 C149 1.394 . S
C148 H158 0.932 . S
C149 C145 1.308 . S
C149 C148 1.394 . S
C149 H159 0.929 . S
C150 Tb121 2.764 1_455 S
C150 O134 1.239 1_455 S
C150 O135 1.263 1_455 S
C150 C144 1.504 . S
C151 O136 1.236 . S
C151 O137 1.257 . S
H152 C125 0.932 . S
H153 C126 0.930 . S
H154 C127 0.932 . S
H155 C128 0.929 . S
H156 C146 0.932 . S
H157 C147 0.930 . S
H158 C148 0.932 . S
H159 C149 0.929 . S
Tb160 C169 2.764 . S
Tb160 O170 2.325 . S
Tb160 O173 2.303 . S
Tb160 O177 2.322 . S
Tb160 O178 2.349 1_554 S
Tb160 O181 2.415 . S
Tb160 O182 2.399 1_554 S
Tb161 O171 2.322 . S
Tb161 O172 2.349 . S
Tb161 O174 2.415 1_554 S
Tb161 O175 2.399 . S
Tb161 O176 2.325 . S
Tb161 O179 2.303 1_554 S
Tb161 C190 2.764 . S
C162 O178 1.261 . S
C162 O179 1.257 . S
C163 C166 1.358 1_554 S
C163 C167 1.332 . S
C163 C169 1.504 . S
C164 C165 1.373 1_554 S
C164 C168 1.308 . S
C165 C164 1.373 1_556 S
C165 C166 1.429 . S
C165 H192 0.932 . S
C166 C163 1.358 1_556 S
C166 C165 1.429 . S
C166 H193 0.930 . S
C167 C163 1.332 . S
C167 C168 1.394 . S
C167 H194 0.932 . S
C168 C164 1.308 . S
C168 C167 1.394 . S
C168 H195 0.929 . S
C169 Tb160 2.764 . S
C169 C163 1.504 . S
C169 O181 1.239 . S
C169 O182 1.263 1_554 S
O170 Tb160 2.325 . S
O170 C180 1.236 . S
O171 Tb161 2.322 . S
O171 C180 1.257 . S
O172 Tb161 2.349 . S
O172 C183 1.261 . S
O173 Tb160 2.303 . S
O173 C183 1.257 . S
O174 Tb161 2.415 1_556 S
O174 C190 1.239 1_556 S
O175 Tb161 2.399 . S
O175 C190 1.263 . S
O176 Tb161 2.325 . S
O176 C191 1.236 . S
O177 Tb160 2.322 . S
O177 C191 1.257 . S
O178 Tb160 2.349 1_556 S
O178 C162 1.261 . S
O179 Tb161 2.303 1_556 S
O179 C162 1.257 . S
C180 O170 1.236 . S
C180 O171 1.257 . S
O181 Tb160 2.415 . S
O181 C169 1.239 . S
O182 Tb160 2.399 1_556 S
O182 C169 1.263 1_556 S
C183 O172 1.261 . S
C183 O173 1.257 . S
C184 C187 1.358 . S
C184 C188 1.332 1_554 S
C184 C190 1.504 . S
C185 C186 1.373 . S
C185 C189 1.308 1_554 S
C186 C185 1.373 . S
C186 C187 1.429 . S
C186 H196 0.932 . S
C187 C184 1.358 . S
C187 C186 1.429 . S
C187 H197 0.930 . S
C188 C184 1.332 1_556 S
C188 C189 1.394 . S
C188 H198 0.932 . S
C189 C185 1.308 1_556 S
C189 C188 1.394 . S
C189 H199 0.929 . S
C190 Tb161 2.764 . S
C190 O174 1.239 1_554 S
C190 O175 1.263 . S
C190 C184 1.504 . S
C191 O176 1.236 . S
C191 O177 1.257 . S
H192 C165 0.932 . S
H193 C166 0.930 . S
H194 C167 0.932 . S
H195 C168 0.929 . S
H196 C186 0.932 . S
H197 C187 0.930 . S
H198 C188 0.932 . S
H199 C189 0.929 . S
Tb200 C209 2.764 . S
Tb200 O210 2.325 . S
Tb200 O213 2.303 . S
Tb200 O217 2.322 . S
Tb200 O218 2.349 1_554 S
Tb200 O221 2.415 . S
Tb200 O222 2.399 1_554 S
Tb201 O211 2.322 . S
Tb201 O212 2.349 . S
Tb201 O214 2.415 1_554 S
Tb201 O215 2.399 . S
Tb201 O216 2.325 . S
Tb201 O219 2.303 1_554 S
Tb201 C230 2.764 . S
C202 O218 1.261 . S
C202 O219 1.257 . S
C203 C206 1.358 1_554 S
C203 C207 1.332 . S
C203 C209 1.504 . S
C204 C205 1.373 . S
C204 C208 1.308 . S
C205 C204 1.373 . S
C205 C206 1.429 1_554 S
C205 H232 0.932 1_554 S
C206 C203 1.358 1_556 S
C206 C205 1.429 1_556 S
C206 H233 0.930 . S
C207 C203 1.332 . S
C207 C208 1.394 . S
C207 H234 0.932 . S
C208 C204 1.308 . S
C208 C207 1.394 . S
C208 H235 0.929 . S
C209 Tb200 2.764 . S
C209 C203 1.504 . S
C209 O221 1.239 . S
C209 O222 1.263 1_554 S
O210 Tb200 2.325 . S
O210 C220 1.236 . S
O211 Tb201 2.322 . S
O211 C220 1.257 . S
O212 Tb201 2.349 . S
O212 C223 1.261 . S
O213 Tb200 2.303 . S
O213 C223 1.257 . S
O214 Tb201 2.415 1_556 S
O214 C230 1.239 1_556 S
O215 Tb201 2.399 . S
O215 C230 1.263 . S
O216 Tb201 2.325 . S
O216 C231 1.236 . S
O217 Tb200 2.322 . S
O217 C231 1.257 . S
O218 Tb200 2.349 1_556 S
O218 C202 1.261 . S
O219 Tb201 2.303 1_556 S
O219 C202 1.257 . S
C220 O210 1.236 . S
C220 O211 1.257 . S
O221 Tb200 2.415 . S
O221 C209 1.239 . S
O222 Tb200 2.399 1_556 S
O222 C209 1.263 1_556 S
C223 O212 1.261 . S
C223 O213 1.257 . S
C224 C227 1.358 . S
C224 C228 1.332 1_554 S
C224 C230 1.504 . S
C225 C226 1.373 . S
C225 C229 1.308 1_554 S
C226 C225 1.373 . S
C226 C227 1.429 . S
C226 H236 0.932 . S
C227 C224 1.358 . S
C227 C226 1.429 . S
C227 H237 0.930 . S
C228 C224 1.332 1_556 S
C228 C229 1.394 . S
C228 H238 0.932 . S
C229 C225 1.308 1_556 S
C229 C228 1.394 . S
C229 H239 0.929 . S
C230 Tb201 2.764 . S
C230 O214 1.239 1_554 S
C230 O215 1.263 . S
C230 C224 1.504 . S
C231 O216 1.236 . S
C231 O217 1.257 . S
H232 C205 0.932 1_556 S
H233 C206 0.930 . S
H234 C207 0.932 . S
H235 C208 0.929 . S
H236 C226 0.932 . S
H237 C227 0.930 . S
H238 C228 0.932 . S
H239 C229 0.929 . S
Tb240 C249 2.764 . S
Tb240 O250 2.325 . S
Tb240 O253 2.303 . S
Tb240 O257 2.322 . S
Tb240 O258 2.349 . S
Tb240 O261 2.415 . S
Tb240 O262 2.399 . S
Tb241 O251 2.322 . S
Tb241 O252 2.349 . S
Tb241 O254 2.415 . S
Tb241 O255 2.399 . S
Tb241 O256 2.325 . S
Tb241 O259 2.303 . S
Tb241 C270 2.764 . S
C242 O258 1.261 . S
C242 O259 1.257 . S
C243 C246 1.358 . S
C243 C247 1.332 . S
C243 C249 1.504 . S
C244 C245 1.373 . S
C244 C248 1.308 . S
C245 C244 1.373 . S
C245 C246 1.429 . S
C245 H272 0.932 . S
C246 C243 1.358 . S
C246 C245 1.429 . S
C246 H273 0.930 . S
C247 C243 1.332 . S
C247 C248 1.394 . S
C247 H274 0.932 . S
C248 C244 1.308 . S
C248 C247 1.394 . S
C248 H275 0.929 . S
C249 Tb240 2.764 . S
C249 C243 1.504 . S
C249 O261 1.239 . S
C249 O262 1.263 . S
O250 Tb240 2.325 . S
O250 C260 1.236 . S
O251 Tb241 2.322 . S
O251 C260 1.257 . S
O252 Tb241 2.349 . S
O252 C263 1.261 . S
O253 Tb240 2.303 . S
O253 C263 1.257 . S
O254 Tb241 2.415 . S
O254 C270 1.239 . S
O255 Tb241 2.399 . S
O255 C270 1.263 . S
O256 Tb241 2.325 . S
O256 C271 1.236 . S
O257 Tb240 2.322 . S
O257 C271 1.257 . S
O258 Tb240 2.349 . S
O258 C242 1.261 . S
O259 Tb241 2.303 . S
O259 C242 1.257 . S
C260 O250 1.236 . S
C260 O251 1.257 . S
O261 Tb240 2.415 . S
O261 C249 1.239 . S
O262 Tb240 2.399 . S
O262 C249 1.263 . S
C263 O252 1.261 . S
C263 O253 1.257 . S
C264 C267 1.358 . S
C264 C268 1.332 . S
C264 C270 1.504 . S
C265 C266 1.373 . S
C265 C269 1.308 . S
C266 C265 1.373 . S
C266 C267 1.429 . S
C266 H276 0.932 . S
C267 C264 1.358 . S
C267 C266 1.429 . S
C267 H277 0.930 . S
C268 C264 1.332 . S
C268 C269 1.394 . S
C268 H278 0.932 . S
C269 C265 1.308 . S
C269 C268 1.394 . S
C269 H279 0.929 . S
C270 Tb241 2.764 . S
C270 O254 1.239 . S
C270 O255 1.263 . S
C270 C264 1.504 . S
C271 O256 1.236 . S
C271 O257 1.257 . S
H272 C245 0.932 . S
H273 C246 0.930 . S
H274 C247 0.932 . S
H275 C248 0.929 . S
H276 C266 0.932 . S
H277 C267 0.930 . S
H278 C268 0.932 . S
H279 C269 0.929 . S
Tb280 C289 2.764 . S
Tb280 O290 2.325 . S
Tb280 O293 2.303 . S
Tb280 O297 2.322 . S
Tb280 O298 2.349 . S
Tb280 O301 2.415 . S
Tb280 O302 2.399 . S
Tb281 O291 2.322 . S
Tb281 O292 2.349 . S
Tb281 O294 2.415 . S
Tb281 O295 2.399 . S
Tb281 O296 2.325 . S
Tb281 O299 2.303 . S
Tb281 C310 2.764 . S
C282 O298 1.261 . S
C282 O299 1.257 . S
C283 C286 1.358 . S
C283 C287 1.332 . S
C283 C289 1.504 . S
C284 C285 1.373 . S
C284 C288 1.308 . S
C285 C284 1.373 . S
C285 C286 1.429 . S
C285 H312 0.932 . S
C286 C283 1.358 . S
C286 C285 1.429 . S
C286 H313 0.930 . S
C287 C283 1.332 . S
C287 C288 1.394 . S
C287 H314 0.932 . S
C288 C284 1.308 . S
C288 C287 1.394 . S
C288 H315 0.929 . S
C289 Tb280 2.764 . S
C289 C283 1.504 . S
C289 O301 1.239 . S
C289 O302 1.263 . S
O290 Tb280 2.325 . S
O290 C300 1.236 . S
O291 Tb281 2.322 . S
O291 C300 1.257 . S
O292 Tb281 2.349 . S
O292 C303 1.261 . S
O293 Tb280 2.303 . S
O293 C303 1.257 . S
O294 Tb281 2.415 . S
O294 C310 1.239 . S
O295 Tb281 2.399 . S
O295 C310 1.263 . S
O296 Tb281 2.325 . S
O296 C311 1.236 . S
O297 Tb280 2.322 . S
O297 C311 1.257 . S
O298 Tb280 2.349 . S
O298 C282 1.261 . S
O299 Tb281 2.303 . S
O299 C282 1.257 . S
C300 O290 1.236 . S
C300 O291 1.257 . S
O301 Tb280 2.415 . S
O301 C289 1.239 . S
O302 Tb280 2.399 . S
O302 C289 1.263 . S
C303 O292 1.261 . S
C303 O293 1.257 . S
C304 C307 1.358 . S
C304 C308 1.332 . S
C304 C310 1.504 . S
C305 C306 1.373 . S
C305 C309 1.308 . S
C306 C305 1.373 . S
C306 C307 1.429 . S
C306 H316 0.932 . S
C307 C304 1.358 . S
C307 C306 1.429 . S
C307 H317 0.930 . S
C308 C304 1.332 . S
C308 C309 1.394 . S
C308 H318 0.932 . S
C309 C305 1.308 . S
C309 C308 1.394 . S
C309 H319 0.929 . S
C310 Tb281 2.764 . S
C310 O294 1.239 . S
C310 O295 1.263 . S
C310 C304 1.504 . S
C311 O296 1.236 . S
C311 O297 1.257 . S
H312 C285 0.932 . S
H313 C286 0.930 . S
H314 C287 0.932 . S
H315 C288 0.929 . S
H316 C306 0.932 . S
H317 C307 0.930 . S
H318 C308 0.932 . S
H319 C309 0.929 . S
C320 C321 1.387 . S
C320 H324 0.950 . S
C320 C329 1.390 . S
C321 C320 1.387 . S
C321 C323 1.387 1_554 S
H322 C329 0.950 . S
C323 C321 1.387 1_556 S
C323 C325 1.390 . S
C323 H327 0.950 . S
H324 C320 0.950 . S
C325 C323 1.390 . S
C325 C326 1.387 1_556 S
C325 H328 0.950 . S
C326 C325 1.387 1_554 S
C326 C329 1.387 . S
H327 C323 0.950 . S
H328 C325 0.950 . S
C329 C320 1.390 . S
C329 H322 0.950 . S
C329 C326 1.387 . S
C330 C331 1.387 1_556 S
C330 H334 0.950 . S
C330 C339 1.390 . S
C331 C330 1.387 1_554 S
C331 C333 1.387 . S
H332 C339 0.950 . S
C333 C331 1.387 . S
C333 C335 1.390 . S
C333 H337 0.950 . S
H334 C330 0.950 . S
C335 C333 1.390 . S
C335 C336 1.387 . S
C335 H338 0.950 . S
C336 C335 1.387 . S
C336 C339 1.387 1_554 S
H337 C333 0.950 . S
H338 C335 0.950 . S
C339 C330 1.390 . S
C339 H332 0.950 . S
C339 C336 1.387 1_556 S
C340 C341 1.387 . S
C340 H344 0.950 . S
C340 C349 1.390 . S
C341 C340 1.387 . S
C341 C343 1.387 . S
H342 C349 0.950 . S
C343 C341 1.387 . S
C343 C345 1.390 . S
C343 H347 0.950 . S
H344 C340 0.950 . S
C345 C343 1.390 . S
C345 C346 1.387 . S
C345 H348 0.950 . S
C346 C345 1.387 . S
C346 C349 1.387 . S
H347 C343 0.950 . S
H348 C345 0.950 . S
C349 C340 1.390 . S
C349 H342 0.950 . S
C349 C346 1.387 . S
C350 C351 1.387 . S
C350 H354 0.950 . S
C350 C359 1.390 . S
C351 C350 1.387 . S
C351 C353 1.387 . S
H352 C359 0.950 . S
C353 C351 1.387 . S
C353 C355 1.390 . S
C353 H357 0.950 . S
H354 C350 0.950 . S
C355 C353 1.390 . S
C355 C356 1.387 . S
C355 H358 0.950 . S
C356 C355 1.387 . S
C356 C359 1.387 . S
H357 C353 0.950 . S
H358 C355 0.950 . S
C359 C350 1.390 . S
C359 H352 0.950 . S
C359 C356 1.387 . S
C360 C361 1.387 1_455 S
C360 H364 0.950 1_455 S
C360 C369 1.390 . S
C361 C360 1.387 1_655 S
C361 C363 1.387 1_654 S
H362 C369 0.950 . S
C363 C361 1.387 1_456 S
C363 C365 1.390 . S
C363 H367 0.950 1_455 S
H364 C360 0.950 1_655 S
C365 C363 1.390 . S
C365 C366 1.387 1_556 S
C365 H368 0.950 . S
C366 C365 1.387 1_554 S
C366 C369 1.387 . S
H367 C363 0.950 1_655 S
H368 C365 0.950 . S
C369 C360 1.390 . S
C369 H362 0.950 . S
C369 C366 1.387 . S
C370 C371 1.387 1_656 S
C370 H374 0.950 1_655 S
C370 C379 1.390 . S
C371 C370 1.387 1_454 S
C371 C373 1.387 1_455 S
H372 C379 0.950 . S
C373 C371 1.387 1_655 S
C373 C375 1.390 . S
C373 H377 0.950 1_655 S
H374 C370 0.950 1_455 S
C375 C373 1.390 . S
C375 C376 1.387 . S
C375 H378 0.950 . S
C376 C375 1.387 . S
C376 C379 1.387 1_554 S
H377 C373 0.950 1_455 S
H378 C375 0.950 . S
C379 C370 1.390 . S
C379 H372 0.950 . S
C379 C376 1.387 1_556 S
C380 C381 1.387 . S
C380 H384 0.950 . S
C380 C389 1.390 . S
C381 C380 1.387 . S
C381 C383 1.387 . S
H382 C389 0.950 1_655 S
C383 C381 1.387 . S
C383 C385 1.381 1_455 S
C383 H387 0.950 . S
H384 C380 0.950 . S
C385 C383 1.381 1_655 S
C385 C386 1.393 . S
C385 H388 0.954 . S
C386 C385 1.393 . S
C386 C389 1.387 1_655 S
H387 C383 0.950 . S
H388 C385 0.954 . S
C389 C380 1.390 . S
C389 H382 0.950 1_455 S
C389 C386 1.387 1_455 S
C390 C391 1.387 . S
C390 H394 0.950 . S
C390 C399 1.394 . S
C391 C390 1.387 . S
C391 C393 1.387 . S
H392 C399 0.948 1_455 S
C393 C391 1.387 . S
C393 C395 1.390 . S
C393 H397 0.950 . S
H394 C390 0.950 . S
C395 C393 1.390 . S
C395 C396 1.387 1_655 S
C395 H398 0.950 1_655 S
C396 C395 1.387 1_455 S
C396 C399 1.386 1_455 S
H397 C393 0.950 . S
H398 C395 0.950 1_455 S
C399 C390 1.394 . S
C399 H392 0.948 1_655 S
C399 C396 1.386 1_655 S
C400 C401 1.387 . S
C400 H404 0.950 . S
C400 C409 1.390 1_455 S
C401 C400 1.387 . S
C401 C403 1.387 1_554 S
H402 C409 0.950 . S
C403 C401 1.387 1_556 S
C403 C405 1.390 1_455 S
C403 H407 0.950 . S
H404 C400 0.950 . S
C405 C403 1.390 1_655 S
C405 C406 1.387 1_556 S
C405 H408 0.950 . S
C406 C405 1.387 1_554 S
C406 C409 1.387 . S
H407 C403 0.950 . S
H408 C405 0.950 . S
C409 C400 1.390 1_655 S
C409 H402 0.950 . S
C409 C406 1.387 . S
C410 C411 1.387 . S
C410 H414 0.950 . S
C410 C419 1.390 . S
C411 C410 1.387 . S
C411 C413 1.387 1_455 S
H412 C419 0.950 . S
C413 C411 1.387 1_655 S
C413 C415 1.390 . S
C413 H417 0.950 . S
H414 C410 0.950 . S
C415 C413 1.390 . S
C415 C416 1.387 . S
C415 H418 0.950 . S
C416 C415 1.387 . S
C416 C419 1.387 1_655 S
H417 C413 0.950 . S
H418 C415 0.950 . S
C419 C410 1.390 . S
C419 H412 0.950 . S
C419 C416 1.387 1_455 S
C420 C421 1.441 1_556 S
C420 H424 0.958 . S
C420 C429 1.334 1_565 S
C421 C420 1.441 1_554 S
C421 C423 1.387 . S
H422 C429 0.950 . S
C423 C421 1.387 . S
C423 C425 1.334 1_565 S
C423 H427 0.950 . S
H424 C420 0.958 . S
C425 C423 1.334 1_545 S
C425 C426 1.441 . S
C425 H428 0.958 . S
C426 C425 1.441 . S
C426 C429 1.387 1_554 S
H427 C423 0.950 . S
H428 C425 0.958 . S
C429 C420 1.334 1_545 S
C429 H422 0.950 . S
C429 C426 1.387 1_556 S
C430 C431 1.387 . S
C430 H434 0.950 . S
C430 C439 1.390 1_545 S
C431 C430 1.387 . S
C431 C433 1.387 . S
H432 C439 0.950 . S
C433 C431 1.387 . S
C433 C435 1.390 1_545 S
C433 H437 0.950 . S
H434 C430 0.950 . S
C435 C433 1.390 1_565 S
C435 C436 1.387 . S
C435 H438 0.950 . S
C436 C435 1.387 . S
C436 C439 1.387 . S
H437 C433 0.950 . S
H438 C435 0.950 . S
C439 C430 1.390 1_565 S
C439 H432 0.950 . S
C439 C436 1.387 . S
C440 C441 1.387 . S
C440 H444 0.950 . S
C440 C449 1.390 . S
C441 C440 1.387 . S
C441 C443 1.387 . S
H442 C449 0.950 . S
C443 C441 1.387 . S
C443 C445 1.390 1_554 S
C443 H447 0.950 1_554 S
H444 C440 0.950 . S
C445 C443 1.390 1_556 S
C445 C446 1.387 1_556 S
C445 H448 0.950 . S
C446 C445 1.387 1_554 S
C446 C449 1.387 . S
H447 C443 0.950 1_556 S
H448 C445 0.950 . S
C449 C440 1.390 . S
C449 H442 0.950 . S
C449 C446 1.387 . S
C450 C451 1.387 . S
C450 H454 0.950 . S
C450 C459 1.390 . S
C451 C450 1.387 . S
C451 C453 1.383 1_554 S
H452 C459 0.950 . S
C453 C451 1.383 1_556 S
C453 C455 1.392 . S
C453 H457 0.953 . S
H454 C450 0.950 . S
C455 C453 1.392 . S
C455 C456 1.387 1_556 S
C455 H458 0.950 . S
C456 C455 1.387 1_554 S
C456 C459 1.387 . S
H457 C453 0.953 . S
H458 C455 0.950 . S
C459 C450 1.390 . S
C459 H452 0.950 . S
C459 C456 1.387 . S
C460 C461 1.387 . S
C460 H464 0.950 . S
C460 C469 1.390 . S
C461 C460 1.387 . S
C461 C463 1.387 . S
H462 C469 0.950 . S
C463 C461 1.387 . S
C463 C465 1.390 . S
C463 H467 0.950 . S
H464 C460 0.950 . S
C465 C463 1.390 . S
C465 C466 1.387 . S
C465 H468 0.950 . S
C466 C465 1.387 . S
C466 C469 1.387 . S
H467 C463 0.950 . S
H468 C465 0.950 . S
C469 C460 1.390 . S
C469 H462 0.950 . S
C469 C466 1.387 . S
C470 C471 1.387 . S
C470 H474 0.950 . S
C470 C479 1.390 . S
C471 C470 1.387 . S
C471 C473 1.387 . S
H472 C479 0.950 . S
C473 C471 1.387 . S
C473 C475 1.390 . S
C473 H477 0.950 . S
H474 C470 0.950 . S
C475 C473 1.390 . S
C475 C476 1.387 . S
C475 H478 0.950 . S
C476 C475 1.387 . S
C476 C479 1.387 . S
H477 C473 0.950 . S
H478 C475 0.950 . S
C479 C470 1.390 . S
C479 H472 0.950 . S
C479 C476 1.387 . S
C480 C481 1.387 . S
C480 H484 0.950 . S
C480 C489 1.390 1_455 S
C481 C480 1.387 . S
C481 C483 1.387 . S
H482 C489 0.950 . S
C483 C481 1.387 . S
C483 C485 1.390 1_455 S
C483 H487 0.950 . S
H484 C480 0.950 . S
C485 C483 1.390 1_655 S
C485 C486 1.387 . S
C485 H488 0.950 . S
C486 C485 1.387 . S
C486 C489 1.387 . S
H487 C483 0.950 . S
H488 C485 0.950 . S
C489 C480 1.390 1_655 S
C489 H482 0.950 . S
C489 C486 1.387 . S
C490 C491 1.387 . S
C490 H494 0.950 . S
C490 C499 1.390 1_655 S
C491 C490 1.387 . S
C491 C493 1.387 . S
H492 C499 0.950 . S
C493 C491 1.387 . S
C493 C495 1.390 1_655 S
C493 H497 0.950 . S
H494 C490 0.950 . S
C495 C493 1.390 1_455 S
C495 C496 1.387 . S
C495 H498 0.950 . S
C496 C495 1.387 . S
C496 C499 1.387 . S
H497 C493 0.950 . S
H498 C495 0.950 . S
C499 C490 1.390 1_455 S
C499 H492 0.950 . S
C499 C496 1.387 . S
C500 C501 1.387 . S
C500 H504 0.950 . S
C500 C509 1.390 1_655 S
C501 C500 1.387 . S
C501 C503 1.387 . S
H502 C509 0.950 . S
C503 C501 1.387 . S
C503 C505 1.390 1_655 S
C503 H507 0.950 . S
H504 C500 0.950 . S
C505 C503 1.390 1_455 S
C505 C506 1.387 . S
C505 H508 0.950 . S
C506 C505 1.387 . S
C506 C509 1.387 . S
H507 C503 0.950 . S
H508 C505 0.950 . S
C509 C500 1.390 1_455 S
C509 H502 0.950 . S
C509 C506 1.387 . S
C510 C511 1.387 . S
C510 H514 0.950 . S
C510 C519 1.390 1_655 S
C511 C510 1.387 . S
C511 C513 1.387 . S
H512 C519 0.950 . S
C513 C511 1.387 . S
C513 C515 1.390 1_655 S
C513 H517 0.950 . S
H514 C510 0.950 . S
C515 C513 1.390 1_455 S
C515 C516 1.387 . S
C515 H518 0.950 . S
C516 C515 1.387 . S
C516 C519 1.387 . S
H517 C513 0.950 . S
H518 C515 0.950 . S
C519 C510 1.390 1_455 S
C519 H512 0.950 . S
C519 C516 1.387 . S
C520 C521 1.387 . S
C520 H524 0.950 . S
C520 C529 1.390 . S
C521 C520 1.387 . S
C521 C523 1.387 . S
H522 C529 0.950 . S
C523 C521 1.387 . S
C523 C525 1.390 . S
C523 H527 0.950 . S
H524 C520 0.950 . S
C525 C523 1.390 . S
C525 C526 1.387 . S
C525 H528 0.950 . S
C526 C525 1.387 . S
C526 C529 1.387 . S
H527 C523 0.950 . S
H528 C525 0.950 . S
C529 C520 1.390 . S
C529 H522 0.950 . S
C529 C526 1.387 . S
C530 C531 1.387 . S
C530 H534 0.950 . S
C530 C539 1.390 . S
C531 C530 1.387 . S
C531 C533 1.387 . S
H532 C539 0.950 . S
C533 C531 1.387 . S
C533 C535 1.390 . S
C533 H537 0.950 . S
H534 C530 0.950 . S
C535 C533 1.390 . S
C535 C536 1.387 . S
C535 H538 0.950 . S
C536 C535 1.387 . S
C536 C539 1.387 . S
H537 C533 0.950 . S
H538 C535 0.950 . S
C539 C530 1.390 . S
C539 H532 0.950 . S
C539 C536 1.387 . S
C540 C541 1.387 . S
C540 H544 0.950 . S
C540 C549 1.390 . S
C541 C540 1.387 . S
C541 C543 1.387 . S
H542 C549 0.950 . S
C543 C541 1.387 . S
C543 C545 1.390 . S
C543 H547 0.950 . S
H544 C540 0.950 . S
C545 C543 1.390 . S
C545 C546 1.387 . S
C545 H548 0.950 . S
C546 C545 1.387 . S
C546 C549 1.387 . S
H547 C543 0.950 . S
H548 C545 0.950 . S
C549 C540 1.390 . S
C549 H542 0.950 . S
C549 C546 1.387 . S
C550 C551 1.387 . S
C550 H554 0.950 . S
C550 C559 1.390 . S
C551 C550 1.387 . S
C551 C553 1.387 . S
H552 C559 0.950 . S
C553 C551 1.387 . S
C553 C555 1.390 . S
C553 H557 0.950 . S
H554 C550 0.950 . S
C555 C553 1.390 . S
C555 C556 1.387 . S
C555 H558 0.950 . S
C556 C555 1.387 . S
C556 C559 1.387 . S
H557 C553 0.950 . S
H558 C555 0.950 . S
C559 C550 1.390 . S
C559 H552 0.950 . S
C559 C556 1.387 . S
C321 C20 2.097 . S
C326 C31 2.097 . S
C331 C60 2.098 . S
C336 C71 2.098 . S
C341 C100 2.097 . S
C346 C111 2.097 . S
C351 C140 2.097 . S
C356 C151 2.097 . S
C361 C180 2.097 . S
C366 C191 2.097 . S
C371 C231 2.098 . S
C376 C220 2.098 . S
C381 C260 2.097 . S
C386 C271 2.097 . S
C391 C311 2.097 . S
C396 C300 2.097 . S
C401 C44 2.657 . S
C406 C25 2.657 . S
C411 C145 2.658 . S
C416 C84 2.658 . S
C421 C185 2.655 . S
C426 C204 2.655 . S
C431 C244 2.655 . S
C436 C305 2.655 . S
C441 C4 1.886 . S
C446 C225 1.886 . S
C451 C164 1.887 . S
C456 C65 1.887 . S
C461 C105 1.885 . S
C466 C284 1.885 . S
C471 C124 1.884 . S
C476 C265 1.884 . S
C481 C23 1.440 . S
C486 C143 1.440 . S
C491 C63 1.651 . S
C496 C103 1.651 . S
C501 C42 1.440 . S
C506 C82 1.440 . S
C511 C122 1.651 . S
C516 C2 1.651 . S
C521 C183 1.442 . S
C526 C303 1.442 . S
C531 C223 1.651 . S
C536 C263 1.651 . S
C541 C202 1.441 . S
C546 C242 1.441 . S
C551 C282 1.651 . S
C556 C162 1.651 . S
