# Generated by pormake.
# Topology wiq, (6)-cn, num edge types: 1
# Building blocks:
#     Node 0, Type 0, BuildingBlock: MIDCAF_clean_sbu_0, # of connection points: 6
#     Node 1, Type 0, BuildingBlock: MIDCAF_clean_sbu_0, # of connection points: 6
#     Node 2, Type 0, BuildingBlock: MIDCAF_clean_sbu_0, # of connection points: 6
#     Node 3, Type 0, BuildingBlock: MIDCAF_clean_sbu_0, # of connection points: 6
#     Node 4, Type 0, BuildingBlock: MIDCAF_clean_sbu_0, # of connection points: 6
#     Node 5, Type 0, BuildingBlock: MIDCAF_clean_sbu_0, # of connection points: 6
#     Node 6, Type 0, BuildingBlock: MIDCAF_clean_sbu_0, # of connection points: 6
#     Node 7, Type 0, BuildingBlock: MIDCAF_clean_sbu_0, # of connection points: 6
#     Node 8, Type 0, BuildingBlock: MIDCAF_clean_sbu_0, # of connection points: 6
#     Node 9, Type 0, BuildingBlock: MIDCAF_clean_sbu_0, # of connection points: 6
#     Node 10, Type 0, BuildingBlock: MIDCAF_clean_sbu_0, # of connection points: 6
#     Node 11, Type 0, BuildingBlock: MIDCAF_clean_sbu_0, # of connection points: 6
#     Node 12, Type 0, BuildingBlock: MIDCAF_clean_sbu_0, # of connection points: 6
#     Node 13, Type 0, BuildingBlock: MIDCAF_clean_sbu_0, # of connection points: 6
#     Node 14, Type 0, BuildingBlock: MIDCAF_clean_sbu_0, # of connection points: 6
#     Node 15, Type 0, BuildingBlock: MIDCAF_clean_sbu_0, # of connection points: 6
#     Node 16, Type 0, BuildingBlock: MIDCAF_clean_sbu_0, # of connection points: 6
#     Node 17, Type 0, BuildingBlock: MIDCAF_clean_sbu_0, # of connection points: 6
#     Node 18, Type 0, BuildingBlock: MIDCAF_clean_sbu_0, # of connection points: 6
#     Node 19, Type 0, BuildingBlock: MIDCAF_clean_sbu_0, # of connection points: 6
#     Node 20, Type 0, BuildingBlock: MIDCAF_clean_sbu_0, # of connection points: 6
#     Node 21, Type 0, BuildingBlock: MIDCAF_clean_sbu_0, # of connection points: 6
#     Node 22, Type 0, BuildingBlock: MIDCAF_clean_sbu_0, # of connection points: 6
#     Node 23, Type 0, BuildingBlock: MIDCAF_clean_sbu_0, # of connection points: 6
#     Node 24, Type 0, BuildingBlock: MIDCAF_clean_sbu_0, # of connection points: 6
#     Node 25, Type 0, BuildingBlock: MIDCAF_clean_sbu_0, # of connection points: 6
#     Node 26, Type 0, BuildingBlock: MIDCAF_clean_sbu_0, # of connection points: 6
#     Node 27, Type 0, BuildingBlock: MIDCAF_clean_sbu_0, # of connection points: 6
#     Node 28, Type 0, BuildingBlock: MIDCAF_clean_sbu_0, # of connection points: 6
#     Node 29, Type 0, BuildingBlock: MIDCAF_clean_sbu_0, # of connection points: 6
#     Node 30, Type 0, BuildingBlock: MIDCAF_clean_sbu_0, # of connection points: 6
#     Node 31, Type 0, BuildingBlock: MIDCAF_clean_sbu_0, # of connection points: 6
#     Edge 32, Type (0, 0), BuildingBlock: AJUNOK_clean_linker_0, # of connection points: 2
#     Edge 33, Type (0, 0), BuildingBlock: AJUNOK_clean_linker_0, # of connection points: 2
#     Edge 34, Type (0, 0), BuildingBlock: AJUNOK_clean_linker_0, # of connection points: 2
#     Edge 35, Type (0, 0), BuildingBlock: AJUNOK_clean_linker_0, # of connection points: 2
#     Edge 36, Type (0, 0), BuildingBlock: AJUNOK_clean_linker_0, # of connection points: 2
#     Edge 37, Type (0, 0), BuildingBlock: AJUNOK_clean_linker_0, # of connection points: 2
#     Edge 38, Type (0, 0), BuildingBlock: AJUNOK_clean_linker_0, # of connection points: 2
#     Edge 39, Type (0, 0), BuildingBlock: AJUNOK_clean_linker_0, # of connection points: 2
#     Edge 40, Type (0, 0), BuildingBlock: AJUNOK_clean_linker_0, # of connection points: 2
#     Edge 41, Type (0, 0), BuildingBlock: AJUNOK_clean_linker_0, # of connection points: 2
#     Edge 42, Type (0, 0), BuildingBlock: AJUNOK_clean_linker_0, # of connection points: 2
#     Edge 43, Type (0, 0), BuildingBlock: AJUNOK_clean_linker_0, # of connection points: 2
#     Edge 44, Type (0, 0), BuildingBlock: AJUNOK_clean_linker_0, # of connection points: 2
#     Edge 45, Type (0, 0), BuildingBlock: AJUNOK_clean_linker_0, # of connection points: 2
#     Edge 46, Type (0, 0), BuildingBlock: AJUNOK_clean_linker_0, # of connection points: 2
#     Edge 47, Type (0, 0), BuildingBlock: AJUNOK_clean_linker_0, # of connection points: 2
#     Edge 48, Type (0, 0), BuildingBlock: AJUNOK_clean_linker_0, # of connection points: 2
#     Edge 49, Type (0, 0), BuildingBlock: AJUNOK_clean_linker_0, # of connection points: 2
#     Edge 50, Type (0, 0), BuildingBlock: AJUNOK_clean_linker_0, # of connection points: 2
#     Edge 51, Type (0, 0), BuildingBlock: AJUNOK_clean_linker_0, # of connection points: 2
#     Edge 52, Type (0, 0), BuildingBlock: AJUNOK_clean_linker_0, # of connection points: 2
#     Edge 53, Type (0, 0), BuildingBlock: AJUNOK_clean_linker_0, # of connection points: 2
#     Edge 54, Type (0, 0), BuildingBlock: AJUNOK_clean_linker_0, # of connection points: 2
#     Edge 55, Type (0, 0), BuildingBlock: AJUNOK_clean_linker_0, # of connection points: 2
#     Edge 56, Type (0, 0), BuildingBlock: AJUNOK_clean_linker_0, # of connection points: 2
#     Edge 57, Type (0, 0), BuildingBlock: AJUNOK_clean_linker_0, # of connection points: 2
#     Edge 58, Type (0, 0), BuildingBlock: AJUNOK_clean_linker_0, # of connection points: 2
#     Edge 59, Type (0, 0), BuildingBlock: AJUNOK_clean_linker_0, # of connection points: 2
#     Edge 60, Type (0, 0), BuildingBlock: AJUNOK_clean_linker_0, # of connection points: 2
#     Edge 61, Type (0, 0), BuildingBlock: AJUNOK_clean_linker_0, # of connection points: 2
#     Edge 62, Type (0, 0), BuildingBlock: AJUNOK_clean_linker_0, # of connection points: 2
#     Edge 63, Type (0, 0), BuildingBlock: AJUNOK_clean_linker_0, # of connection points: 2
#     Edge 64, Type (0, 0), BuildingBlock: AJUNOK_clean_linker_0, # of connection points: 2
#     Edge 65, Type (0, 0), BuildingBlock: AJUNOK_clean_linker_0, # of connection points: 2
#     Edge 66, Type (0, 0), BuildingBlock: AJUNOK_clean_linker_0, # of connection points: 2
#     Edge 67, Type (0, 0), BuildingBlock: AJUNOK_clean_linker_0, # of connection points: 2
#     Edge 68, Type (0, 0), BuildingBlock: AJUNOK_clean_linker_0, # of connection points: 2
#     Edge 69, Type (0, 0), BuildingBlock: AJUNOK_clean_linker_0, # of connection points: 2
#     Edge 70, Type (0, 0), BuildingBlock: AJUNOK_clean_linker_0, # of connection points: 2
#     Edge 71, Type (0, 0), BuildingBlock: AJUNOK_clean_linker_0, # of connection points: 2
#     Edge 72, Type (0, 0), BuildingBlock: AJUNOK_clean_linker_0, # of connection points: 2
#     Edge 73, Type (0, 0), BuildingBlock: AJUNOK_clean_linker_0, # of connection points: 2
#     Edge 74, Type (0, 0), BuildingBlock: AJUNOK_clean_linker_0, # of connection points: 2
#     Edge 75, Type (0, 0), BuildingBlock: AJUNOK_clean_linker_0, # of connection points: 2
#     Edge 76, Type (0, 0), BuildingBlock: AJUNOK_clean_linker_0, # of connection points: 2
#     Edge 77, Type (0, 0), BuildingBlock: AJUNOK_clean_linker_0, # of connection points: 2
#     Edge 78, Type (0, 0), BuildingBlock: AJUNOK_clean_linker_0, # of connection points: 2
#     Edge 79, Type (0, 0), BuildingBlock: AJUNOK_clean_linker_0, # of connection points: 2
#     Edge 80, Type (0, 0), BuildingBlock: AJUNOK_clean_linker_0, # of connection points: 2
#     Edge 81, Type (0, 0), BuildingBlock: AJUNOK_clean_linker_0, # of connection points: 2
#     Edge 82, Type (0, 0), BuildingBlock: AJUNOK_clean_linker_0, # of connection points: 2
#     Edge 83, Type (0, 0), BuildingBlock: AJUNOK_clean_linker_0, # of connection points: 2
#     Edge 84, Type (0, 0), BuildingBlock: AJUNOK_clean_linker_0, # of connection points: 2
#     Edge 85, Type (0, 0), BuildingBlock: AJUNOK_clean_linker_0, # of connection points: 2
#     Edge 86, Type (0, 0), BuildingBlock: AJUNOK_clean_linker_0, # of connection points: 2
#     Edge 87, Type (0, 0), BuildingBlock: AJUNOK_clean_linker_0, # of connection points: 2
#     Edge 88, Type (0, 0), BuildingBlock: AJUNOK_clean_linker_0, # of connection points: 2
#     Edge 89, Type (0, 0), BuildingBlock: AJUNOK_clean_linker_0, # of connection points: 2
#     Edge 90, Type (0, 0), BuildingBlock: AJUNOK_clean_linker_0, # of connection points: 2
#     Edge 91, Type (0, 0), BuildingBlock: AJUNOK_clean_linker_0, # of connection points: 2
#     Edge 92, Type (0, 0), BuildingBlock: AJUNOK_clean_linker_0, # of connection points: 2
#     Edge 93, Type (0, 0), BuildingBlock: AJUNOK_clean_linker_0, # of connection points: 2
#     Edge 94, Type (0, 0), BuildingBlock: AJUNOK_clean_linker_0, # of connection points: 2
#     Edge 95, Type (0, 0), BuildingBlock: AJUNOK_clean_linker_0, # of connection points: 2
#     Edge 96, Type (0, 0), BuildingBlock: AJUNOK_clean_linker_0, # of connection points: 2
#     Edge 97, Type (0, 0), BuildingBlock: AJUNOK_clean_linker_0, # of connection points: 2
#     Edge 98, Type (0, 0), BuildingBlock: AJUNOK_clean_linker_0, # of connection points: 2
#     Edge 99, Type (0, 0), BuildingBlock: AJUNOK_clean_linker_0, # of connection points: 2
#     Edge 100, Type (0, 0), BuildingBlock: AJUNOK_clean_linker_0, # of connection points: 2
#     Edge 101, Type (0, 0), BuildingBlock: AJUNOK_clean_linker_0, # of connection points: 2
#     Edge 102, Type (0, 0), BuildingBlock: AJUNOK_clean_linker_0, # of connection points: 2
#     Edge 103, Type (0, 0), BuildingBlock: AJUNOK_clean_linker_0, # of connection points: 2
#     Edge 104, Type (0, 0), BuildingBlock: AJUNOK_clean_linker_0, # of connection points: 2
#     Edge 105, Type (0, 0), BuildingBlock: AJUNOK_clean_linker_0, # of connection points: 2
#     Edge 106, Type (0, 0), BuildingBlock: AJUNOK_clean_linker_0, # of connection points: 2
#     Edge 107, Type (0, 0), BuildingBlock: AJUNOK_clean_linker_0, # of connection points: 2
#     Edge 108, Type (0, 0), BuildingBlock: AJUNOK_clean_linker_0, # of connection points: 2
#     Edge 109, Type (0, 0), BuildingBlock: AJUNOK_clean_linker_0, # of connection points: 2
#     Edge 110, Type (0, 0), BuildingBlock: AJUNOK_clean_linker_0, # of connection points: 2
#     Edge 111, Type (0, 0), BuildingBlock: AJUNOK_clean_linker_0, # of connection points: 2
#     Edge 112, Type (0, 0), BuildingBlock: AJUNOK_clean_linker_0, # of connection points: 2
#     Edge 113, Type (0, 0), BuildingBlock: AJUNOK_clean_linker_0, # of connection points: 2
#     Edge 114, Type (0, 0), BuildingBlock: AJUNOK_clean_linker_0, # of connection points: 2
#     Edge 115, Type (0, 0), BuildingBlock: AJUNOK_clean_linker_0, # of connection points: 2
#     Edge 116, Type (0, 0), BuildingBlock: AJUNOK_clean_linker_0, # of connection points: 2
#     Edge 117, Type (0, 0), BuildingBlock: AJUNOK_clean_linker_0, # of connection points: 2
#     Edge 118, Type (0, 0), BuildingBlock: AJUNOK_clean_linker_0, # of connection points: 2
#     Edge 119, Type (0, 0), BuildingBlock: AJUNOK_clean_linker_0, # of connection points: 2
#     Edge 120, Type (0, 0), BuildingBlock: AJUNOK_clean_linker_0, # of connection points: 2
#     Edge 121, Type (0, 0), BuildingBlock: AJUNOK_clean_linker_0, # of connection points: 2
#     Edge 122, Type (0, 0), BuildingBlock: AJUNOK_clean_linker_0, # of connection points: 2
#     Edge 123, Type (0, 0), BuildingBlock: AJUNOK_clean_linker_0, # of connection points: 2
#     Edge 124, Type (0, 0), BuildingBlock: AJUNOK_clean_linker_0, # of connection points: 2
#     Edge 125, Type (0, 0), BuildingBlock: AJUNOK_clean_linker_0, # of connection points: 2
#     Edge 126, Type (0, 0), BuildingBlock: AJUNOK_clean_linker_0, # of connection points: 2
#     Edge 127, Type (0, 0), BuildingBlock: AJUNOK_clean_linker_0, # of connection points: 2
# Relax obj value: 0.522
# Max RMSD: 0.295
# Mean RMSD: 0.295
data_MOF--net-wiq--node1-MIDCAF_clean_sbu_0--edge1-AJUNOK_clean_linker_0
_symmetry_space_group_name_H-M    P1
_symmetry_Int_Tables_number       1
_symmetry_cell_setting            triclinic
loop_
_symmetry_equiv_pos_as_xyz
'x, y, z'
_cell_length_a     36.079493
_cell_length_b     36.347393
_cell_length_c     36.495047
_cell_angle_alpha  90.382041
_cell_angle_beta   90.089489
_cell_angle_gamma 90.2615
loop_
_atom_site_label
_atom_site_type_symbol
_atom_site_fract_x
_atom_site_fract_y
_atom_site_fract_z
_atom_type_partial_charge
Zn0 Zn 0.14469 0.12299 0.21338 0.0
Zn1 Zn 0.0768 0.16832 0.30706 0.0
Zn2 Zn 0.11128 0.14349 0.26354 0.0
C3 C 0.05255 0.10041 0.30731 0.0
C4 C 0.06588 0.2106 0.24865 0.0
O5 O 0.1622 0.17461 0.26831 0.0
O6 O 0.17427 0.16852 0.20942 0.0
C7 C 0.14305 0.06406 0.25505 0.0
O8 O 0.0867 0.09796 0.29724 0.0
O9 O 0.03649 0.13095 0.30384 0.0
O10 O 0.07125 0.21695 0.28222 0.0
O11 O 0.07239 0.1783 0.23581 0.0
O12 O 0.16739 0.08027 0.23633 0.0
O13 O 0.11529 0.08258 0.26728 0.0
O14 O 0.08318 0.15538 0.20958 0.0
O15 O 0.10785 0.11364 0.17346 0.0
C16 C 0.08403 0.1384 0.17851 0.0
O17 O 0.14265 0.18298 0.30209 0.0
O18 O 0.11042 0.16841 0.35067 0.0
C19 C 0.18 0.18479 0.23951 0.0
C20 C 0.13722 0.18603 0.337 0.0
Zn21 Zn 0.09183 0.89951 0.4849 0.0
Zn22 Zn 0.03338 0.81054 0.55835 0.0
Zn23 Zn 0.06938 0.85084 0.52326 0.0
C24 C 0.10373 0.81285 0.59058 0.0
C25 C 0.03573 0.77486 0.49458 0.0
O26 O 0.04289 0.9041 0.53276 0.0
O27 O 0.0811 0.94574 0.5107 0.0
C28 C 0.15372 0.86167 0.50817 0.0
O29 O 0.11239 0.82666 0.55932 0.0
O30 O 0.07006 0.80795 0.59854 0.0
O31 O 0.03038 0.76641 0.52755 0.0
O32 O 0.04676 0.80744 0.48649 0.0
O33 O 0.14293 0.88219 0.48261 0.0
O34 O 0.13012 0.84892 0.53133 0.0
O35 O 0.05531 0.8367 0.46527 0.0
O36 O 0.06139 0.89138 0.4404 0.0
C37 C 0.05141 0.85821 0.4376 0.0
O38 O 0.02872 0.87906 0.56193 0.0
O39 O 0.98667 0.83601 0.57078 0.0
C40 C 0.05091 0.93796 0.52623 0.0
C41 C -0.00252 0.86866 0.57586 0.0
Zn42 Zn 0.41689 0.7918 0.77879 0.0
Zn43 Zn 0.33413 0.82825 0.68627 0.0
Zn44 Zn 0.3782 0.81429 0.73689 0.0
C45 C 0.38913 0.79319 0.65067 0.0
C46 C 0.36082 0.89554 0.71564 0.0
O47 O 0.34993 0.77261 0.77482 0.0
O48 O 0.38552 0.7834 0.82254 0.0
C49 C 0.44276 0.76014 0.72202 0.0
O50 O 0.40326 0.80107 0.68221 0.0
O51 O 0.35515 0.79887 0.64517 0.0
O52 O 0.34524 0.88172 0.68772 0.0
O53 O 0.37256 0.87443 0.74132 0.0
O54 O 0.43505 0.74707 0.75298 0.0
O55 O 0.42663 0.78961 0.7114 0.0
O56 O 0.39771 0.86091 0.77326 0.0
O57 O 0.45158 0.83443 0.7805 0.0
C58 C 0.4314 0.86226 0.78522 0.0
O59 O 0.32804 0.7813 0.74277 0.0
O60 O 0.28761 0.80851 0.7063 0.0
C61 C 0.35704 0.76816 0.80925 0.0
C62 C 0.29539 0.78343 0.72871 0.0
Zn63 Zn 0.37468 0.07849 0.98446 0.0
Zn64 Zn 0.44014 0.15851 0.05589 0.0
Zn65 Zn 0.40674 0.12075 0.01834 0.0
C66 C 0.36855 0.18032 0.06701 0.0
C67 C 0.46614 0.17182 0.98682 0.0
O68 O 0.44041 0.07025 0.01873 0.0
O69 O 0.41509 0.04732 0.96833 0.0
C70 C 0.32486 0.0889 0.0283 0.0
O71 O 0.36382 0.14739 0.05445 0.0
O72 O 0.40034 0.19485 0.06528 0.0
O73 O 0.47975 0.17024 0.01867 0.0
O74 O 0.4335 0.15886 0.98118 0.0
O75 O 0.34053 0.05866 0.02164 0.0
O76 O 0.34525 0.11811 0.02937 0.0
O77 O 0.40681 0.14099 0.96134 0.0
O78 O 0.35474 0.11286 0.94662 0.0
C79 C 0.37957 0.13618 0.93905 0.0
O80 O 0.4513 0.08931 0.05139 0.0
O81 O 0.45465 0.12747 0.0981 0.0
C82 C 0.441 0.04746 0.99142 0.0
C83 C 0.46343 0.09702 0.08405 0.0
Zn84 Zn 0.0879 0.8011 0.16373 0.0
Zn85 Zn 0.1385 0.85253 0.26706 0.0
Zn86 Zn 0.1131 0.82681 0.21765 0.0
C87 C 0.07227 0.84221 0.29172 0.0
C88 C 0.14705 0.90713 0.22767 0.0
O89 O 0.1525 0.78431 0.1903 0.0
O90 O 0.12986 0.78438 0.13446 0.0
C91 C 0.0484 0.77074 0.22092 0.0
O92 O 0.0777 0.81759 0.26681 0.0
O93 O 0.09322 0.87003 0.29278 0.0
O94 O 0.17096 0.89059 0.24653 0.0
O95 O 0.11973 0.8884 0.21405 0.0
O96 O 0.05626 0.76256 0.18817 0.0
O97 O 0.06498 0.79762 0.23685 0.0
O98 O 0.09519 0.87571 0.18485 0.0
O99 O 0.06274 0.84405 0.14417 0.0
C100 C 0.07254 0.87468 0.15744 0.0
O101 O 0.16561 0.79789 0.22693 0.0
O102 O 0.16225 0.80834 0.28645 0.0
C103 C 0.15406 0.77309 0.1565 0.0
C104 C 0.17647 0.79118 0.25993 0.0
Zn105 Zn 0.4022 0.85248 0.36145 0.0
Zn106 Zn 0.38319 0.88851 0.53207 0.0
Zn107 Zn 0.39218 0.86766 0.4685 0.0
C108 C 0.42717 0.82228 0.52829 0.0
C109 C 0.31309 0.86949 0.51025 0.0
O110 O 0.42529 0.91078 0.44289 0.0
O111 O 0.39577 0.89912 0.39287 0.0
C112 C 0.43709 0.80314 0.42393 0.0
O113 O 0.41967 0.82199 0.49402 0.0
O114 O 0.4157 0.84829 0.54839 0.0
O115 O 0.32918 0.88087 0.53892 0.0
O116 O 0.3319 0.86503 0.48051 0.0
O117 O 0.43042 0.81233 0.39072 0.0
O118 O 0.42446 0.82055 0.45217 0.0
O119 O 0.33871 0.85667 0.44342 0.0
O120 O 0.36217 0.87713 0.39338 0.0
C121 C 0.33961 0.85511 0.4085 0.0
O122 O 0.42139 0.91982 0.48029 0.0
O123 O 0.40668 0.93721 0.53658 0.0
C124 C 0.4249 0.91181 0.40794 0.0
C125 C 0.42508 0.94212 0.50767 0.0
Zn126 Zn 0.3885 0.16653 0.65974 0.0
Zn127 Zn 0.30318 0.11367 0.74151 0.0
Zn128 Zn 0.35388 0.13874 0.70424 0.0
C129 C 0.35036 0.15111 0.78983 0.0
C130 C 0.3414 0.05276 0.71829 0.0
O131 O 0.32369 0.18126 0.66809 0.0
O132 O 0.35639 0.17852 0.61765 0.0
C133 C 0.41034 0.19825 0.72442 0.0
O134 O 0.37141 0.15084 0.76142 0.0
O135 O 0.31753 0.13934 0.7872 0.0
O136 O 0.31626 0.06141 0.74064 0.0
O137 O 0.35646 0.07762 0.698 0.0
O138 O 0.40524 0.20822 0.69174 0.0
O139 O 0.39623 0.16784 0.73545 0.0
O140 O 0.38043 0.09331 0.67089 0.0
O141 O 0.42471 0.1288 0.6489 0.0
C142 C 0.41091 0.0972 0.65281 0.0
O143 O 0.30066 0.16689 0.69728 0.0
O144 O 0.25654 0.13239 0.72138 0.0
C145 C 0.32866 0.19104 0.63439 0.0
C146 C 0.26643 0.16172 0.70584 0.0
Zn147 Zn 0.08301 0.10994 0.89808 0.0
Zn148 Zn 0.10524 0.08311 0.01545 0.0
Zn149 Zn 0.08702 0.10795 0.96247 0.0
C150 C 0.07999 0.1484 0.03693 0.0
C151 C 0.16911 0.08407 0.98605 0.0
O152 O 0.0429 0.07092 0.93352 0.0
O153 O 0.05039 0.07468 0.87402 0.0
C154 C 0.04639 0.17227 0.93913 0.0
O155 O 0.06332 0.14283 0.00629 0.0
O156 O 0.1085 0.12983 0.04397 0.0
O157 O 0.15249 0.05997 0.00452 0.0
O158 O 0.1497 0.10756 0.96802 0.0
O159 O 0.05702 0.1599 0.90825 0.0
O160 O 0.05489 0.15507 0.96832 0.0
O161 O 0.13786 0.13113 0.93215 0.0
O162 O 0.13214 0.11006 0.87625 0.0
C163 C 0.14939 0.13025 0.89855 0.0
O164 O 0.06021 0.05338 0.96685 0.0
O165 O 0.06421 0.04934 0.02688 0.0
C166 C 0.03165 0.06312 0.90057 0.0
C167 C 0.05136 0.03724 0.997 0.0
Zn168 Zn 0.90826 0.8047 0.7054 0.0
Zn169 Zn 0.84252 0.84585 0.80329 0.0
Zn170 Zn 0.87347 0.82679 0.75041 0.0
C171 C 0.90642 0.83155 0.83331 0.0
C172 C 0.84033 0.90443 0.76027 0.0
O173 O 0.8415 0.7885 0.71233 0.0
O174 O 0.87201 0.8068 0.66391 0.0
C175 C 0.92027 0.76022 0.76147 0.0
O176 O 0.90542 0.81514 0.80196 0.0
O177 O 0.8822 0.85536 0.84062 0.0
O178 O 0.81819 0.88828 0.78152 0.0
O179 O 0.86772 0.88665 0.74652 0.0
O180 O 0.91425 0.755 0.72784 0.0
O181 O 0.9142 0.79211 0.77545 0.0
O182 O 0.89424 0.87218 0.71522 0.0
O183 O 0.94727 0.84394 0.71111 0.0
C184 C 0.92825 0.87223 0.7046 0.0
O185 O 0.82342 0.79495 0.7476 0.0
O186 O 0.81408 0.79941 0.8071 0.0
C187 C 0.84555 0.78835 0.67717 0.0
C188 C 0.80711 0.78386 0.77686 0.0
Zn189 Zn 0.86748 0.07587 0.52361 0.0
Zn190 Zn 0.94019 0.15649 0.44832 0.0
Zn191 Zn 0.90533 0.11672 0.48176 0.0
C192 C 0.87293 0.17808 0.43096 0.0
C193 C 0.96741 0.16763 0.51408 0.0
O194 O 0.93357 0.06504 0.47855 0.0
O195 O 0.90484 0.03658 0.52397 0.0
C196 C 0.81884 0.09875 0.47273 0.0
O197 O 0.86894 0.14445 0.44121 0.0
O198 O 0.90189 0.19534 0.44043 0.0
O199 O 0.98215 0.16554 0.48287 0.0
O200 O 0.93439 0.15505 0.51829 0.0
O201 O 0.82256 0.07174 0.49387 0.0
O202 O 0.84647 0.12002 0.46584 0.0
O203 O 0.90957 0.13656 0.53927 0.0
O204 O 0.8653 0.10711 0.5688 0.0
C205 C 0.89062 0.13115 0.56856 0.0
O206 O 0.94591 0.0835 0.44705 0.0
O207 O 0.95216 0.12604 0.40496 0.0
C208 C 0.93117 0.03832 0.50134 0.0
C209 C 0.95758 0.09346 0.41515 0.0
Zn210 Zn 0.64911 0.13222 0.28428 0.0
Zn211 Zn 0.57777 0.15569 0.13154 0.0
Zn212 Zn 0.61478 0.13755 0.22882 0.0
C213 C 0.5982 0.09044 0.1628 0.0
C214 C 0.53746 0.17016 0.20892 0.0
O215 O 0.66474 0.1732 0.23038 0.0
O216 O 0.69863 0.15246 0.27616 0.0
C217 C 0.63252 0.06067 0.26198 0.0
O218 O 0.60128 0.08671 0.19754 0.0
O219 O 0.61541 0.11754 0.14926 0.0
O220 O 0.54161 0.16922 0.17408 0.0
O221 O 0.56225 0.16024 0.23194 0.0
O222 O 0.64419 0.07875 0.28929 0.0
O223 O 0.62159 0.07756 0.23304 0.0
O224 O 0.575 0.15689 0.27063 0.0
O225 O 0.61623 0.16398 0.31449 0.0
C226 C 0.58354 0.16826 0.30298 0.0
O227 O 0.64469 0.18008 0.19701 0.0
O228 O 0.63344 0.1545 0.14431 0.0
C229 C 0.69416 0.17486 0.25037 0.0
C230 C 0.64487 0.18253 0.16195 0.0
Zn231 Zn 0.59173 0.90673 0.00687 0.0
Zn232 Zn 0.55687 0.81869 0.92263 0.0
Zn233 Zn 0.5772 0.85963 0.9651 0.0
C234 C 0.62627 0.82292 0.90293 0.0
C235 C 0.55011 0.78173 0.98542 0.0
O236 O 0.55143 0.91313 0.95203 0.0
O237 O 0.58783 0.95318 0.97978 0.0
C238 C 0.65702 0.86959 0.99555 0.0
O239 O 0.62603 0.83345 0.93678 0.0
O240 O 0.59644 0.82511 0.88504 0.0
O241 O 0.55945 0.77335 0.95316 0.0
O242 O 0.54975 0.81569 0.99522 0.0
O243 O 0.64117 0.88897 0.01952 0.0
O244 O 0.63857 0.8585 0.96726 0.0
O245 O 0.55568 0.84412 0.02012 0.0
O246 O 0.55379 0.89901 0.04549 0.0
C247 C 0.54659 0.86509 0.04721 0.0
O248 O 0.53887 0.88683 0.92369 0.0
O249 O 0.50688 0.83717 0.90953 0.0
C250 C 0.55948 0.94673 0.96053 0.0
C251 C 0.51081 0.87156 0.90746 0.0
Zn252 Zn 0.8774 0.15279 0.85434 0.0
Zn253 Zn 0.83376 0.11846 0.74232 0.0
Zn254 Zn 0.85842 0.14237 0.79308 0.0
C255 C 0.89625 0.13965 0.71612 0.0
C256 C 0.82996 0.06112 0.77913 0.0
O257 O 0.8187 0.18268 0.82125 0.0
O258 O 0.84576 0.19022 0.87482 0.0
C259 C 0.93195 0.17849 0.80234 0.0
O260 O 0.88967 0.16087 0.7437 0.0
O261 O 0.88037 0.10872 0.71475 0.0
O262 O 0.80574 0.07599 0.75939 0.0
O263 O 0.85572 0.08125 0.79338 0.0
O264 O 0.92763 0.16978 0.8356 0.0
O265 O 0.90603 0.17291 0.77915 0.0
O266 O 0.88156 0.09228 0.824 0.0
O267 O 0.87657 0.10714 0.88207 0.0
C268 C 0.88722 0.08446 0.85819 0.0
O269 O 0.80377 0.16826 0.78654 0.0
O270 O 0.80358 0.15987 0.72667 0.0
C271 C 0.82034 0.19882 0.85293 0.0
C272 C 0.78998 0.1751 0.75463 0.0
Zn273 Zn 0.58069 0.13875 0.57246 0.0
Zn274 Zn 0.59067 0.07762 0.45774 0.0
Zn275 Zn 0.58423 0.11638 0.51144 0.0
C276 C 0.54701 0.13449 0.43395 0.0
C277 C 0.66131 0.10422 0.47328 0.0
O278 O 0.54492 0.08295 0.54801 0.0
O279 O 0.53763 0.11859 0.59658 0.0
C280 C 0.56014 0.19377 0.52086 0.0
O281 O 0.55832 0.14713 0.4651 0.0
O282 O 0.55382 0.10149 0.4256 0.0
O283 O 0.64321 0.08868 0.44794 0.0
O284 O 0.64437 0.11456 0.50257 0.0
O285 O 0.57519 0.19053 0.5521 0.0
O286 O 0.55684 0.1657 0.49975 0.0
O287 O 0.63729 0.13852 0.53795 0.0
O288 O 0.62795 0.11919 0.59327 0.0
C289 C 0.64774 0.13767 0.57182 0.0
O290 O 0.55608 0.06263 0.5176 0.0
O291 O 0.57661 0.02782 0.47219 0.0
C292 C 0.52892 0.08995 0.579 0.0
C293 C 0.55641 0.0317 0.50006 0.0
Zn294 Zn 0.57297 0.79115 0.31519 0.0
Zn295 Zn 0.63044 0.8537 0.22448 0.0
Zn296 Zn 0.59916 0.82261 0.26883 0.0
C297 C 0.56478 0.84254 0.19353 0.0
C298 C 0.62789 0.90318 0.27472 0.0
O299 O 0.6387 0.78334 0.29772 0.0
O300 O 0.61314 0.78611 0.35201 0.0
C301 C 0.55302 0.7558 0.25083 0.0
O302 O 0.56833 0.81631 0.21671 0.0
O303 O 0.58635 0.86987 0.19563 0.0
O304 O 0.65476 0.89079 0.25643 0.0
O305 O 0.59981 0.88218 0.28094 0.0
O306 O 0.56196 0.74715 0.28312 0.0
O307 O 0.55899 0.78876 0.23993 0.0
O308 O 0.5733 0.86433 0.30622 0.0
O309 O 0.53279 0.82488 0.32854 0.0
C310 C 0.5439 0.85759 0.3251 0.0
O311 O 0.65347 0.79722 0.264 0.0
O312 O 0.65933 0.81128 0.20561 0.0
C313 C 0.63921 0.77478 0.33204 0.0
C314 C 0.66927 0.7924 0.23271 0.0
Zn315 Zn 0.90356 0.85479 0.10909 0.0
Zn316 Zn 0.87985 0.87893 0.98553 0.0
Zn317 Zn 0.89898 0.86025 0.04267 0.0
C318 C 0.91062 0.81462 0.9716 0.0
C319 C 0.81561 0.87857 0.01256 0.0
O320 O 0.93631 0.90187 0.07223 0.0
O321 O 0.92306 0.90037 0.13081 0.0
C322 C 0.94842 0.79986 0.06928 0.0
O323 O 0.92624 0.82461 0.00171 0.0
O324 O 0.88001 0.82882 0.96336 0.0
O325 O 0.83011 0.8988 0.98855 0.0
O326 O 0.83661 0.86082 0.03504 0.0
O327 O 0.94141 0.81381 0.10046 0.0
O328 O 0.93314 0.81304 0.04062 0.0
O329 O 0.8456 0.83964 0.06763 0.0
O330 O 0.85572 0.83848 0.12712 0.0
C331 C 0.83492 0.83102 0.10033 0.0
O332 O 0.92558 0.91358 0.03498 0.0
O333 O 0.9217 0.91282 0.97478 0.0
C334 C 0.94289 0.91294 0.10541 0.0
C335 C 0.93534 0.92652 0.00367 0.0
Zn336 Zn 0.67097 0.61878 0.72217 0.0
Zn337 Zn 0.58647 0.66863 0.80843 0.0
Zn338 Zn 0.6238 0.63737 0.76793 0.0
C339 C 0.5618 0.59908 0.81532 0.0
C340 C 0.5708 0.69798 0.74353 0.0
O341 O 0.67763 0.66307 0.77922 0.0
O342 O 0.71785 0.6332 0.74458 0.0
C343 C 0.63533 0.5555 0.75045 0.0
O344 O 0.59444 0.59385 0.80174 0.0
O345 O 0.54819 0.63093 0.81506 0.0
O346 O 0.57411 0.71072 0.7756 0.0
O347 O 0.58397 0.66621 0.7358 0.0
O348 O 0.65535 0.56731 0.72478 0.0
O349 O 0.62179 0.57762 0.77457 0.0
O350 O 0.60619 0.64808 0.70926 0.0
O351 O 0.6577 0.6453 0.67698 0.0
C352 C 0.62361 0.65238 0.67869 0.0
O353 O 0.6529 0.68089 0.80434 0.0
O354 O 0.61659 0.6804 0.8525 0.0
C355 C 0.71106 0.65758 0.76826 0.0
C356 C 0.64573 0.69193 0.8374 0.0
Zn357 Zn 0.59898 0.40696 0.97943 0.0
Zn358 Zn 0.52396 0.32355 0.04688 0.0
Zn359 Zn 0.57286 0.35952 0.01812 0.0
C360 C 0.59633 0.30592 0.07831 0.0
C361 C 0.52066 0.29443 0.9812 0.0
O362 O 0.55177 0.41597 0.02851 0.0
O363 O 0.59248 0.45424 0.00438 0.0
C364 C 0.65757 0.36176 0.00298 0.0
O365 O 0.61005 0.32732 0.05374 0.0
O366 O 0.56157 0.30177 0.08053 0.0
O367 O 0.50291 0.29051 0.01055 0.0
O368 O 0.54692 0.3185 0.97933 0.0
O369 O 0.6479 0.38401 0.97841 0.0
O370 O 0.63352 0.35072 0.02672 0.0
O371 O 0.56031 0.34811 0.95937 0.0
O372 O 0.56933 0.40209 0.93398 0.0
C373 C 0.55782 0.36942 0.93141 0.0
O374 O 0.5349 0.3929 0.05742 0.0
O375 O 0.48802 0.35577 0.06946 0.0
C376 C 0.56264 0.44904 0.02148 0.0
C377 C 0.50333 0.38668 0.07327 0.0
Zn378 Zn 0.91647 0.30603 0.29545 0.0
Zn379 Zn 0.83296 0.33933 0.2042 0.0
Zn380 Zn 0.87834 0.32607 0.25228 0.0
C381 C 0.88391 0.29909 0.16761 0.0
C382 C 0.86408 0.40611 0.22889 0.0
O383 O 0.85209 0.28541 0.29124 0.0
O384 O 0.9025 0.25333 0.30129 0.0
C385 C 0.95963 0.30803 0.23745 0.0
O386 O 0.9001 0.30655 0.1983 0.0
O387 O 0.85035 0.30758 0.1634 0.0
O388 O 0.84662 0.39196 0.20227 0.0
O389 O 0.87606 0.38568 0.25489 0.0
O390 O 0.96404 0.3182 0.27029 0.0
O391 O 0.92654 0.30403 0.22509 0.0
O392 O 0.89995 0.37337 0.28664 0.0
O393 O 0.89975 0.33947 0.33575 0.0
C394 C 0.90433 0.37068 0.32163 0.0
O395 O 0.82661 0.29639 0.26195 0.0
O396 O 0.78588 0.32366 0.22633 0.0
C397 C 0.868 0.25701 0.30529 0.0
C398 C 0.79338 0.29931 0.24961 0.0
Zn399 Zn 0.85874 0.57595 0.48929 0.0
Zn400 Zn 0.92898 0.65357 0.56288 0.0
Zn401 Zn 0.89455 0.61714 0.5267 0.0
C402 C 0.86177 0.68039 0.57495 0.0
C403 C 0.9591 0.66258 0.49622 0.0
O404 O 0.92423 0.56477 0.52957 0.0
O405 O 0.89941 0.54108 0.47942 0.0
C406 C 0.80871 0.59491 0.5359 0.0
O407 O 0.85569 0.64678 0.56499 0.0
O408 O 0.89315 0.69447 0.56873 0.0
O409 O 0.97176 0.6593 0.52827 0.0
O410 O 0.92524 0.65352 0.48998 0.0
O411 O 0.81743 0.56381 0.52305 0.0
O412 O 0.83398 0.61994 0.53895 0.0
O413 O 0.89757 0.63836 0.46998 0.0
O414 O 0.84765 0.6107 0.44824 0.0
C415 C 0.87334 0.63404 0.44443 0.0
O416 O 0.9365 0.58435 0.56096 0.0
O417 O 0.93792 0.62318 0.60716 0.0
C418 C 0.92487 0.54111 0.50309 0.0
C419 C 0.94684 0.5923 0.59409 0.0
Zn420 Zn 0.6418 0.34576 0.75255 0.0
Zn421 Zn 0.57084 0.29805 0.65505 0.0
Zn422 Zn 0.60564 0.32326 0.70728 0.0
C423 C 0.56561 0.37387 0.64757 0.0
C424 C 0.53588 0.27325 0.71868 0.0
O425 O 0.6578 0.29164 0.70919 0.0
O426 O 0.66782 0.30141 0.76807 0.0
C427 C 0.64179 0.40204 0.71569 0.0
O428 O 0.58757 0.37291 0.67545 0.0
O429 O 0.55302 0.34427 0.63424 0.0
O430 O 0.53573 0.26765 0.6845 0.0
O431 O 0.55926 0.29563 0.73315 0.0
O432 O 0.6696 0.38407 0.72626 0.0
O433 O 0.61257 0.38402 0.70574 0.0
O434 O 0.5761 0.31578 0.76049 0.0
O435 O 0.60298 0.36394 0.78605 0.0
C436 C 0.57775 0.33991 0.78646 0.0
O437 O 0.64213 0.28252 0.67492 0.0
O438 O 0.60786 0.27215 0.62593 0.0
C439 C 0.67492 0.2837 0.7392 0.0
C440 C 0.63782 0.26753 0.64287 0.0
Zn441 Zn 0.90539 0.35472 0.89478 0.0
Zn442 Zn 0.88579 0.38916 0.01874 0.0
Zn443 Zn 0.89786 0.35925 0.96073 0.0
C444 C 0.92794 0.32843 0.03476 0.0
C445 C 0.81728 0.36232 -0.00262 0.0
O446 O 0.93996 0.39805 0.93298 0.0
O447 O 0.92973 0.39762 0.87358 0.0
C448 C 0.94554 0.29666 0.93543 0.0
O449 O 0.91887 0.32047 0.00156 0.0
O450 O 0.92214 0.36042 0.0469 0.0
O451 O 0.83322 0.37478 0.02566 0.0
O452 O 0.83622 0.35803 0.9676 0.0
O453 O 0.93993 0.31112 0.90436 0.0
O454 O 0.92984 0.31024 0.96387 0.0
O455 O 0.84472 0.34103 0.93171 0.0
O456 O 0.85799 0.34284 0.87303 0.0
C457 C 0.83541 0.33471 0.89794 0.0
O458 O 0.92513 0.41441 0.9672 0.0
O459 O 0.89982 0.4411 0.01551 0.0
C460 C 0.94908 0.40856 0.90026 0.0
C461 C 0.92248 0.44215 0.98931 0.0
Zn462 Zn 0.88489 0.67293 0.16178 0.0
Zn463 Zn 0.80247 0.62176 0.25045 0.0
Zn464 Zn 0.85348 0.64577 0.21159 0.0
C465 C 0.85234 0.66009 0.29641 0.0
C466 C 0.84247 0.56146 0.22795 0.0
O467 O 0.82025 0.68644 0.17742 0.0
O468 O 0.84914 0.68886 0.12468 0.0
C469 C 0.9145 0.70214 0.22651 0.0
O470 O 0.8731 0.65875 0.2678 0.0
O471 O 0.81907 0.64942 0.29432 0.0
O472 O 0.8176 0.5702 0.25057 0.0
O473 O 0.85652 0.58574 0.20646 0.0
O474 O 0.90929 0.71101 0.19349 0.0
O475 O 0.8976 0.67425 0.23988 0.0
O476 O 0.87904 0.59946 0.17796 0.0
O477 O 0.91594 0.63366 0.14404 0.0
C478 C 0.90479 0.60231 0.15355 0.0
O479 O 0.79858 0.67248 0.2071 0.0
O480 O 0.75423 0.63805 0.23116 0.0
C481 C 0.82174 0.6978 0.14395 0.0
C482 C 0.76417 0.66708 0.21512 0.0
Zn483 Zn 0.60946 0.5747 0.56241 0.0
Zn484 Zn 0.57485 0.61516 0.40231 0.0
Zn485 Zn 0.58322 0.62322 0.46483 0.0
C486 C 0.64042 0.64256 0.39586 0.0
C487 C 0.53528 0.67908 0.43849 0.0
O488 O 0.55612 0.57046 0.48577 0.0
O489 O 0.56766 0.54368 0.54108 0.0
C490 C 0.65459 0.60863 0.49548 0.0
O491 O 0.63368 0.63995 0.4306 0.0
O492 O 0.61814 0.62773 0.37365 0.0
O493 O 0.53871 0.65872 0.41023 0.0
O494 O 0.55365 0.67198 0.4675 0.0
O495 O 0.62863 0.59743 0.51572 0.0
O496 O 0.64431 0.62166 0.4648 0.0
O497 O 0.56806 0.66479 0.50558 0.0
O498 O 0.59088 0.61616 0.53012 0.0
C499 C 0.57708 0.6477 0.53457 0.0
O500 O 0.53795 0.5835 0.44582 0.0
O501 O 0.5512 0.5681 0.38922 0.0
C502 C 0.55025 0.54532 0.51044 0.0
C503 C 0.52911 0.5664 0.41584 0.0
Zn504 Zn 0.39471 0.3132 0.17791 0.0
Zn505 Zn 0.33733 0.33737 0.28647 0.0
Zn506 Zn 0.36971 0.32792 0.23028 0.0
C507 C 0.39417 0.29818 0.31116 0.0
C508 C 0.35966 0.4066 0.26301 0.0
O509 O 0.33402 0.29308 0.19124 0.0
O510 O 0.35391 0.32002 0.14155 0.0
C511 C 0.41746 0.26187 0.22337 0.0
O512 O 0.40335 0.30611 0.27794 0.0
O513 O 0.36199 0.30561 0.32214 0.0
O514 O 0.34716 0.39016 0.29069 0.0
O515 O 0.36913 0.38831 0.23422 0.0
O516 O 0.40385 0.26171 0.19159 0.0
O517 O 0.41403 0.29074 0.24347 0.0
O518 O 0.39261 0.37886 0.20174 0.0
O519 O 0.43801 0.34615 0.17898 0.0
C520 C 0.42448 0.37733 0.18564 0.0
O521 O 0.31438 0.30216 0.22572 0.0
O522 O 0.28678 0.32291 0.27559 0.0
C523 C 0.33344 0.29573 0.15588 0.0
C524 C 0.28578 0.30384 0.2467 0.0
Zn525 Zn 0.37312 0.57835 0.01293 0.0
Zn526 Zn 0.42921 0.64951 0.93243 0.0
Zn527 Zn 0.40027 0.61662 0.9727 0.0
C528 C 0.36221 0.67242 0.92169 0.0
C529 C 0.46354 0.66579 0.99524 0.0
O530 O 0.43482 0.56683 0.97426 0.0
O531 O 0.41738 0.55221 0.03004 0.0
C532 C 0.32078 0.58214 0.96865 0.0
O533 O 0.35909 0.63873 0.93212 0.0
O534 O 0.39177 0.68945 0.92937 0.0
O535 O 0.47416 0.65695 0.96349 0.0
O536 O 0.42992 0.65875 0.00444 0.0
O537 O 0.33796 0.55387 0.979 0.0
O538 O 0.33946 0.61197 0.96414 0.0
O539 O 0.4027 0.64481 0.02667 0.0
O540 O 0.3528 0.61653 0.0467 0.0
C541 C 0.37648 0.64194 0.0503 0.0
O542 O 0.44231 0.58277 0.94006 0.0
O543 O 0.43421 0.61478 0.89008 0.0
C544 C 0.44026 0.54896 0.00423 0.0
C545 C 0.44805 0.587 0.90536 0.0
Zn546 Zn 0.064 0.6629 0.70268 0.0
Zn547 Zn 0.15238 0.63012 0.78824 0.0
Zn548 Zn 0.10387 0.64219 0.74466 0.0
C549 C 0.10621 0.67101 0.82882 0.0
C550 C 0.1179 0.56354 0.76887 0.0
O551 O 0.12939 0.68476 0.70683 0.0
O552 O 0.0782 0.71516 0.69538 0.0
C553 C 0.0248 0.66129 0.76477 0.0
O554 O 0.08656 0.66138 0.80077 0.0
O555 O 0.14058 0.66497 0.82859 0.0
O556 O 0.13565 0.57891 0.7946 0.0
O557 O 0.10593 0.5827 0.7419 0.0
O558 O 0.01833 0.65227 0.73191 0.0
O559 O 0.05854 0.66433 0.77543 0.0
O560 O 0.07784 0.59558 0.71162 0.0
O561 O 0.07711 0.62843 0.66185 0.0
C562 C 0.07102 0.59794 0.67695 0.0
O563 O 0.15593 0.67001 0.73126 0.0
O564 O 0.19901 0.6402 0.7619 0.0
C565 C 0.113 0.71316 0.69339 0.0
C566 C 0.19019 0.66511 0.73972 0.0
Zn567 Zn 0.03913 0.31441 0.44615 0.0
Zn568 Zn 0.09622 0.40587 0.52395 0.0
Zn569 Zn 0.07316 0.35758 0.48187 0.0
C570 C 0.06101 0.361 0.57053 0.0
C571 C 0.15812 0.3698 0.49446 0.0
O572 O 0.0311 0.38701 0.44534 0.0
O573 O 0.01875 0.34274 0.40562 0.0
C574 C 0.01965 0.29467 0.51235 0.0
O575 O 0.06312 0.34199 0.54067 0.0
O576 O 0.07084 0.39428 0.57048 0.0
O577 O 0.14826 0.39076 0.52032 0.0
O578 O 0.13366 0.35628 0.47232 0.0
O579 O 0.0034 0.29384 0.48177 0.0
O580 O 0.04845 0.31515 0.5168 0.0
O581 O 0.11646 0.32955 0.44618 0.0
O582 O 0.08051 0.28225 0.43215 0.0
C583 C 0.11194 0.29746 0.43123 0.0
O584 O 0.04419 0.41122 0.47376 0.0
O585 O 0.07949 0.45202 0.50262 0.0
C586 C 0.01555 0.37584 0.41527 0.0
C587 C 0.05075 0.44466 0.48428 0.0
Zn588 Zn 0.30914 0.62687 0.25219 0.0
Zn589 Zn 0.41082 0.66989 0.32058 0.0
Zn590 Zn 0.3656 0.64701 0.28328 0.0
C591 C 0.40076 0.60615 0.3525 0.0
C592 C 0.44335 0.66424 0.25383 0.0
O593 O 0.31526 0.68019 0.2941 0.0
O594 O 0.26656 0.64613 0.27964 0.0
C595 C 0.34375 0.5635 0.27368 0.0
O596 O 0.38845 0.60153 0.31947 0.0
O597 O 0.4052 0.63853 0.36418 0.0
O598 O 0.45293 0.65926 0.28671 0.0
O599 O 0.40873 0.6652 0.24593 0.0
O600 O 0.31833 0.57434 0.25274 0.0
O601 O 0.36379 0.58692 0.29153 0.0
O602 O 0.37722 0.65824 0.22511 0.0
O603 O 0.31985 0.65232 0.20524 0.0
C604 C 0.35311 0.66139 0.19931 0.0
O605 O 0.34439 0.69366 0.31808 0.0
O606 O 0.3974 0.72164 0.32977 0.0
C607 C 0.27986 0.67608 0.29132 0.0
C608 C 0.36255 0.72124 0.33155 0.0
Zn609 Zn 0.10332 0.5863 0.98542 0.0
Zn610 Zn 0.08545 0.61308 0.10534 0.0
Zn611 Zn 0.08878 0.6111 0.0394 0.0
C612 C 0.15321 0.63415 0.10209 0.0
C613 C 0.04863 0.67559 0.06639 0.0
O614 O 0.05552 0.55953 0.0301 0.0
O615 O 0.05907 0.55883 0.96997 0.0
C616 C 0.16684 0.57917 0.01549 0.0
O617 O 0.14182 0.63064 0.06853 0.0
O618 O 0.13448 0.61915 0.12697 0.0
O619 O 0.05634 0.66135 0.09716 0.0
O620 O 0.05987 0.66043 0.03679 0.0
O621 O 0.14718 0.55732 0.99679 0.0
O622 O 0.15054 0.60477 0.03393 0.0
O623 O 0.06998 0.65192 -0.00094 0.0
O624 O 0.11266 0.63356 0.96043 0.0
C625 C 0.08835 0.65673 0.96938 0.0
O626 O 0.04482 0.57472 0.06673 0.0
O627 O 0.05532 0.57338 0.12599 0.0
C628 C 0.04436 0.54679 -0.00123 0.0
C629 C 0.03505 0.56443 0.09925 0.0
Zn630 Zn 0.10894 0.30766 0.84754 0.0
Zn631 Zn 0.1432 0.35301 0.73779 0.0
Zn632 Zn 0.11655 0.3238 0.78609 0.0
C633 C 0.0737 0.33517 0.7144 0.0
C634 C 0.14204 0.40828 0.77716 0.0
O635 O 0.15568 0.27998 0.80985 0.0
O636 O 0.15665 0.29285 0.86858 0.0
C637 C 0.05973 0.26813 0.79668 0.0
O638 O 0.07834 0.31151 0.73999 0.0
O639 O 0.09566 0.36214 0.71226 0.0
O640 O 0.16758 0.39737 0.75627 0.0
O641 O 0.11955 0.38475 0.79141 0.0
O642 O 0.07513 0.26692 0.8279 0.0
O643 O 0.06865 0.29318 0.77393 0.0
O644 O 0.0975 0.37241 0.82151 0.0
O645 O 0.08498 0.34667 0.87445 0.0
C646 C 0.08432 0.37468 0.85443 0.0
O647 O 0.16841 0.29452 0.77327 0.0
O648 O 0.17339 0.31411 0.71652 0.0
C649 C 0.16695 0.27232 0.84267 0.0
C650 C 0.18267 0.29173 0.74097 0.0
Zn651 Zn 0.41395 0.35185 0.58073 0.0
Zn652 Zn 0.38462 0.39877 0.45858 0.0
Zn653 Zn 0.39987 0.36489 0.51785 0.0
C654 C 0.42831 0.33934 0.43792 0.0
C655 C 0.3176 0.37082 0.48786 0.0
O656 O 0.43876 0.40378 0.55103 0.0
O657 O 0.42239 0.39782 0.60851 0.0
C658 C 0.45993 0.31145 0.52997 0.0
O659 O 0.4231 0.33126 0.47182 0.0
O660 O 0.4159 0.36913 0.42543 0.0
O661 O 0.33075 0.38689 0.46013 0.0
O662 O 0.33903 0.3621 0.51475 0.0
O663 O 0.45937 0.32409 0.5624 0.0
O664 O 0.43491 0.32051 0.50697 0.0
O665 O 0.34923 0.33928 0.54613 0.0
O666 O 0.37364 0.32261 0.59881 0.0
C667 C 0.34649 0.32242 0.57718 0.0
O668 O 0.42407 0.42056 0.51727 0.0
O669 O 0.40407 0.44868 0.46753 0.0
C670 C 0.44352 0.41241 0.58529 0.0
C671 C 0.42348 0.44889 0.49628 0.0
C672 C 0.1109 0.00323 0.24748 0.0
C673 C 0.14372 0.02338 0.25363 0.0
C674 C 0.11209 0.96599 0.23667 0.0
C675 C 0.14604 0.94772 0.23139 0.0
H676 H 0.0842 0.01657 0.24979 0.0
H677 H 0.08629 0.95117 0.23355 0.0
S678 S 0.23975 -0.01207 0.24539 0.0
N679 N 0.21109 0.02188 0.25504 0.0
N680 N 0.21318 0.95254 0.23412 0.0
C681 C 0.17893 0.96756 0.23794 0.0
C682 C 0.17778 0.00511 0.2493 0.0
C683 C 0.25299 0.85861 0.47798 0.0
C684 C 0.27269 0.86182 0.51104 0.0
C685 C 0.21445 0.85536 0.47777 0.0
C686 C 0.19392 0.85507 0.51055 0.0
H687 H 0.26705 0.86033 0.45189 0.0
H688 H 0.20041 0.8549 0.45148 0.0
S689 S 0.23233 0.85629 0.60465 0.0
N690 N 0.26901 0.85957 0.5778 0.0
N691 N 0.19612 0.85388 0.57698 0.0
C692 C 0.21322 0.85522 0.54387 0.0
C693 C 0.25271 0.85867 0.54421 0.0
C694 C 0.35853 -0.00505 0.68485 0.0
C695 C 0.35384 0.01409 0.71791 0.0
C696 C 0.36298 0.95661 0.68469 0.0
C697 C 0.36351 0.93622 0.71758 0.0
H698 H 0.35646 0.00927 0.65898 0.0
H699 H 0.36455 0.94264 0.65842 0.0
S700 S 0.3592 0.97494 0.81157 0.0
N701 N 0.35483 0.01093 0.78453 0.0
N702 N 0.36369 0.939 0.78406 0.0
C703 C 0.36217 0.9556 0.75085 0.0
C704 C 0.35712 -0.00548 0.75102 0.0
C705 C 0.26493 0.05681 0.01637 0.0
C706 C 0.28414 0.09038 0.02102 0.0
C707 C 0.22898 0.05537 0.00219 0.0
C708 C 0.20972 0.08742 0.99249 0.0
H709 H 0.27807 0.03093 0.02297 0.0
H710 H 0.21575 0.02864 -0.00039 0.0
S711 S 0.24575 0.18286 0.00153 0.0
N712 N 0.28054 0.15695 0.01531 0.0
N713 N 0.21172 0.1542 0.99061 0.0
C714 C 0.228 0.1214 -0.00241 0.0
C715 C 0.26528 0.12291 0.01161 0.0
C716 C 0.86999 0.96622 0.76491 0.0
C717 C 0.83796 0.9447 0.75943 0.0
C718 C 0.8673 0.00376 0.7738 0.0
C719 C 0.83252 0.02079 0.77734 0.0
H720 H 0.89717 0.95371 0.76376 0.0
H721 H 0.89254 0.01969 0.77694 0.0
S722 S 0.74054 0.97639 0.76483 0.0
N723 N 0.77065 0.94312 0.7574 0.0
N724 N 0.76558 0.01339 0.77422 0.0
C725 C 0.80042 -0.00048 0.77153 0.0
C726 C 0.80316 0.9616 0.76239 0.0
C727 C 0.76174 0.1277 0.49421 0.0
C728 C 0.78079 0.11014 0.46552 0.0
C729 C 0.723 0.12706 0.49587 0.0
C730 C 0.70197 0.10896 0.46872 0.0
H731 H 0.77699 0.13944 0.51713 0.0
H732 H 0.70976 0.13921 0.51953 0.0
S733 S 0.73961 0.06316 0.3851 0.0
N734 N 0.77668 0.07713 0.40793 0.0
N735 N 0.70371 0.07672 0.40965 0.0
C736 C 0.72097 0.0939 0.43819 0.0
C737 C 0.76048 0.09426 0.43694 0.0
C738 C 0.60002 0.00015 0.25331 0.0
C739 C 0.63105 0.02031 0.26546 0.0
C740 C 0.59724 0.96217 0.25991 0.0
C741 C 0.62564 0.94331 0.27835 0.0
H742 H 0.57775 0.01379 0.2389 0.0
H743 H 0.57374 0.94714 0.24875 0.0
S744 S 0.7122 0.9836 0.31588 0.0
N745 N 0.69017 0.01876 0.29766 0.0
N746 N 0.68526 0.9474 0.30881 0.0
C747 C 0.65638 0.96328 0.29103 0.0
C748 C 0.65902 0.0018 0.28486 0.0
C749 C 0.7593 0.86792 0.97441 0.0
C750 C 0.77541 0.8712 0.00959 0.0
C751 C 0.72088 0.86405 0.96973 0.0
C752 C 0.69726 0.86367 0.00016 0.0
H753 H 0.7765 0.86932 0.95013 0.0
H754 H 0.70955 0.86364 0.94222 0.0
S755 S 0.72576 0.86733 0.0981 0.0
N756 N 0.76494 0.87133 0.07515 0.0
N757 N 0.69291 0.86288 0.06682 0.0
C758 C 0.71327 0.86439 0.03553 0.0
C759 C 0.75233 0.86848 0.04018 0.0
C760 C 0.60343 0.49851 0.73065 0.0
C761 C 0.63125 0.51553 0.75187 0.0
C762 C 0.60716 0.46196 0.71839 0.0
C763 C 0.63934 0.44157 0.72615 0.0
H764 H 0.5797 0.51425 0.72164 0.0
H765 H 0.58506 0.44996 0.70208 0.0
S766 S 0.71976 0.47442 0.7818 0.0
N767 N 0.69105 0.50959 0.78118 0.0
N768 N 0.69904 0.44153 0.75794 0.0
C769 C 0.66693 0.45838 0.74825 0.0
C770 C 0.66257 0.49512 0.76124 0.0
C771 C 0.75523 0.3539 0.96731 0.0
C772 C 0.77675 0.35428 -0.0007 0.0
C773 C 0.71647 0.35245 0.96909 0.0
C774 C 0.69741 0.35153 0.00291 0.0
H775 H 0.76813 0.35703 0.94077 0.0
H776 H 0.70117 0.35441 0.9436 0.0
S777 S 0.7409 0.34443 0.09444 0.0
N778 N 0.77624 0.34756 0.06585 0.0
N779 N 0.70317 0.34576 0.06879 0.0
C780 C 0.7185 0.34837 0.03493 0.0
C781 C 0.7582 0.34972 0.03322 0.0
C782 C 0.86655 0.46587 0.19638 0.0
C783 C 0.86764 0.44647 0.22976 0.0
C784 C 0.86108 0.50394 0.19572 0.0
C785 C 0.85605 0.52352 0.22844 0.0
H786 H 0.86802 0.45124 0.17045 0.0
H787 H 0.8583 0.51757 0.16955 0.0
S788 S 0.86379 0.4872 0.32297 0.0
N789 N 0.86866 0.45072 0.29623 0.0
N790 N 0.85827 0.52237 0.29509 0.0
C791 C 0.86049 0.50513 0.26199 0.0
C792 C 0.86643 0.46648 0.26265 0.0
C793 C 0.70508 0.58128 0.5336 0.0
C794 C 0.69368 0.6082 0.50843 0.0
C795 C 0.7421 0.57911 0.54538 0.0
C796 C 0.76892 0.6046 0.53357 0.0
H797 H 0.68559 0.56066 0.54303 0.0
H798 H 0.75021 0.55626 0.5625 0.0
S799 S 0.75243 0.68298 0.47101 0.0
N800 N 0.71161 0.66252 0.47425 0.0
N801 N 0.78085 0.6592 0.49722 0.0
C802 C 0.75732 0.63315 0.51036 0.0
C803 C 0.71983 0.63471 0.49752 0.0
C804 C 0.38788 0.46986 0.26234 0.0
C805 C 0.35656 0.44675 0.26342 0.0
C806 C 0.38435 0.50801 0.26846 0.0
C807 C 0.34945 0.52363 0.27572 0.0
H808 H 0.41507 0.45837 0.2573 0.0
H809 H 0.40865 0.52546 0.26618 0.0
S810 S 0.2596 0.47424 0.28223 0.0
N811 N 0.29013 0.44185 0.2729 0.0
N812 N 0.28352 0.51301 0.28431 0.0
C813 C 0.3183 0.50049 0.27731 0.0
C814 C 0.32185 0.46215 0.27111 0.0
C815 C 0.26343 0.61427 0.99138 0.0
C816 C 0.28027 0.58273 0.97609 0.0
C817 C 0.22752 0.6127 0.00663 0.0
C818 C 0.20724 0.57948 0.00732 0.0
H819 H 0.2785 0.6401 0.99264 0.0
H820 H 0.21527 0.63781 0.01709 0.0
S821 S 0.23903 0.48907 0.9713 0.0
N822 N 0.27359 0.51752 0.96252 0.0
N823 N 0.20724 0.51423 0.99189 0.0
C824 C 0.22404 0.54782 0.99238 0.0
C825 C 0.26008 0.54956 0.97647 0.0
C826 C 0.11643 0.5053 0.80396 0.0
C827 C 0.11557 0.52317 0.76969 0.0
C828 C 0.12381 0.46763 0.80654 0.0
C829 C 0.1313 0.44703 0.77495 0.0
H830 H 0.11301 0.52092 0.82911 0.0
H831 H 0.12539 0.45502 0.83331 0.0
S832 S 0.1259 0.47904 0.67864 0.0
N833 N 0.11788 0.51625 0.70353 0.0
N834 N 0.13214 0.44543 0.70821 0.0
C835 C 0.1277 0.46386 0.74045 0.0
C836 C 0.11961 0.50201 0.73783 0.0
C837 C 0.21978 0.36275 0.5238 0.0
C838 C 0.19819 0.362 0.49149 0.0
C839 C 0.25854 0.36324 0.52257 0.0
C840 C 0.27721 0.36346 0.48894 0.0
H841 H 0.20657 0.36458 0.55039 0.0
H842 H 0.27379 0.36567 0.54807 0.0
S843 S 0.23383 0.35506 0.39668 0.0
N844 N 0.19836 0.35657 0.4252 0.0
N845 N 0.27141 0.35762 0.42253 0.0
C846 C 0.25604 0.35971 0.45646 0.0
C847 C 0.21646 0.35884 0.45782 0.0
C848 C 0.24505 0.25792 0.27559 0.0
C849 C 0.25611 0.27638 0.24358 0.0
C850 C 0.22036 0.22836 0.27407 0.0
C851 C 0.20558 0.21641 0.24052 0.0
H852 H 0.25665 0.26545 0.30202 0.0
H853 H 0.21351 0.21436 0.29928 0.0
S854 S 0.22233 0.25865 0.1494 0.0
N855 N 0.24834 0.28295 0.178 0.0
N856 N 0.20151 0.22721 0.17464 0.0
C857 C 0.21541 0.23554 0.20835 0.0
C858 C 0.24077 0.26563 0.21001 0.0
C859 C 0.95504 0.97651 0.51548 0.0
C860 C 0.96219 0.01322 0.50638 0.0
C861 C 0.9839 0.95289 0.52455 0.0
C862 C 0.02093 0.96534 0.5256 0.0
H863 H 0.92693 0.96585 0.51512 0.0
H864 H 0.977 0.92431 0.52892 0.0
S865 S 0.05319 0.06094 0.50916 0.0
N866 N 0.00799 0.06228 0.50226 0.0
N867 N 0.0626 0.01789 0.51984 0.0
C868 C 0.02815 0.00263 0.51824 0.0
C869 C -0.00129 0.02656 0.5084 0.0
C870 C 0.23125 0.76009 0.73574 0.0
C871 C 0.26923 0.7529 0.73264 0.0
C872 C 0.20556 0.73127 0.73603 0.0
C873 C 0.21705 0.69446 0.73255 0.0
H874 H 0.22141 0.7881 0.73836 0.0
H875 H 0.17668 0.73788 0.74051 0.0
S876 S 0.31279 0.66182 0.7175 0.0
N877 N 0.31688 0.70694 0.72173 0.0
N878 N 0.26828 0.65255 0.72281 0.0
C879 C 0.25481 0.68703 0.72811 0.0
C880 C 0.28102 0.71635 0.72795 0.0
C881 C 0.46442 -0.01387 0.9739 0.0
C882 C 0.47211 0.02263 0.98431 0.0
C883 C 0.49267 0.9625 0.96261 0.0
C884 C 0.52977 0.97457 0.96117 0.0
H885 H 0.43627 0.97562 0.97487 0.0
H886 H 0.48544 0.93408 0.95695 0.0
S887 S 0.56292 0.06998 0.97842 0.0
N888 N 0.518 0.07155 0.98698 0.0
N889 N 0.57182 0.0269 0.96683 0.0
C890 C 0.53741 0.01179 0.96936 0.0
C891 C 0.50845 0.03586 0.9808 0.0
C892 C 0.19789 0.7392 0.29796 0.0
C893 C 0.20414 0.76308 0.26832 0.0
C894 C 0.22353 0.71191 0.30694 0.0
C895 C 0.25674 0.70875 0.28743 0.0
H896 H 0.17242 0.74089 0.31358 0.0
H897 H 0.21702 0.69271 0.32861 0.0
S898 S 0.28652 0.76508 0.20821 0.0
N899 N 0.24587 0.7822 0.21994 0.0
N900 N 0.29472 0.73143 0.23728 0.0
C901 C 0.26381 0.73318 0.25847 0.0
C902 C 0.23733 0.76033 0.24881 0.0
C903 C 0.46788 0.98371 0.47467 0.0
C904 C 0.45639 0.96806 0.50778 0.0
C905 C 0.50121 0.00308 0.47254 0.0
C906 C 0.52423 0.00742 0.5034 0.0
H907 H 0.45124 0.98061 0.45011 0.0
H908 H 0.50876 0.01533 0.44657 0.0
S909 S 0.50807 0.96987 0.59589 0.0
N910 N 0.47127 0.95703 0.57196 0.0
N911 N 0.5343 -0.00618 0.56754 0.0
C912 C 0.51324 -0.00789 0.53669 0.0
C913 C 0.47913 0.97237 0.539 0.0
C914 C 0.22799 0.24281 0.75683 0.0
C915 C 0.20601 0.26019 0.73051 0.0
C916 C 0.24667 0.21029 0.74832 0.0
C917 C 0.24453 0.19456 0.71306 0.0
H918 H 0.23004 0.25388 0.78439 0.0
H919 H 0.26304 0.19731 0.7695 0.0
S920 S 0.19578 0.23205 0.63271 0.0
N921 N 0.18612 0.26099 0.66644 0.0
N922 N 0.22249 0.20012 0.65074 0.0
C923 C 0.22455 0.2125 0.68588 0.0
C924 C 0.20514 0.24548 0.6945 0.0
C925 C 0.97138 0.97894 0.03045 0.0
C926 C 0.96466 0.95487 0.00096 0.0
C927 C 0.0001 0.00484 0.02907 0.0
C928 C 0.02302 0.00787 -0.002 0.0
H929 H 0.95419 0.97797 0.05473 0.0
H930 H 0.00383 0.02319 0.05232 0.0
S931 S 0.01808 0.95019 0.91405 0.0
N932 N 0.98393 0.93496 0.94 0.0
N933 N 0.03811 0.98368 0.93771 0.0
C934 C 0.01689 0.98378 0.96843 0.0
C935 C 0.98756 0.95739 0.96977 0.0
C936 C 0.74903 0.70554 0.74029 0.0
C937 C 0.73782 0.68737 0.77226 0.0
C938 C 0.77079 0.73717 0.74214 0.0
C939 C 0.78263 0.75139 0.77601 0.0
H940 H 0.73982 0.69592 0.71359 0.0
H941 H 0.77787 0.75075 0.7168 0.0
S942 S 0.76183 0.71219 0.86772 0.0
N943 N 0.74014 0.68463 0.83851 0.0
N944 N 0.78226 0.74396 0.84257 0.0
C945 C 0.77186 0.73303 0.80836 0.0
C946 C 0.74915 0.70096 0.80633 0.0
C947 C 0.75686 0.20239 0.25638 0.0
C948 C 0.71906 0.20677 0.24862 0.0
C949 C 0.78046 0.23287 0.25886 0.0
C950 C 0.76692 0.26884 0.25439 0.0
H951 H 0.76833 0.17518 0.26016 0.0
H952 H 0.80972 0.2279 0.26263 0.0
S953 S 0.66918 0.29513 0.2383 0.0
N954 N 0.66842 0.24974 0.23974 0.0
N955 N 0.71293 0.30719 0.2443 0.0
C956 C 0.72891 0.2736 0.24787 0.0
C957 C 0.70494 0.24253 0.24499 0.0
C958 C 0.73413 0.20793 0.77772 0.0
C959 C 0.75973 0.20161 0.74955 0.0
C960 C 0.70611 0.23401 0.77356 0.0
C961 C 0.70262 0.25435 0.74103 0.0
H962 H 0.73603 0.19301 0.80325 0.0
H963 H 0.68719 0.23852 0.79617 0.0
S964 S 0.76335 0.24887 0.65957 0.0
N965 N 0.78013 0.21802 0.68806 0.0
N966 N 0.72748 0.26729 0.68074 0.0
C967 C 0.72772 0.24804 0.71253 0.0
C968 C 0.75627 0.22152 0.71667 0.0
C969 C 0.71394 0.70782 0.19191 0.0
C970 C 0.7407 0.69947 0.21832 0.0
C971 C 0.69167 0.73907 0.19616 0.0
C972 C 0.69546 0.76224 0.2271 0.0
H973 H 0.7101 0.69011 0.1682 0.0
H974 H 0.67058 0.74448 0.17575 0.0
S975 S 0.76324 0.75263 0.30254 0.0
N976 N 0.77125 0.71717 0.2752 0.0
N977 N 0.72911 0.77569 0.28327 0.0
C978 C 0.72292 0.75458 0.25298 0.0
C979 C 0.74561 0.72309 0.24857 0.0
C980 C 0.52245 0.48803 0.9838 0.0
C981 C 0.5345 0.47776 0.01895 0.0
C982 C 0.49222 0.51145 0.97916 0.0
C983 C 0.47309 0.52546 0.00956 0.0
H984 H 0.53568 0.47672 0.95959 0.0
H985 H 0.48311 0.51757 0.95161 0.0
S986 S 0.49677 0.50982 0.10753 0.0
N987 N 0.5273 0.48509 0.08449 0.0
N988 N 0.47034 0.5295 0.07636 0.0
C989 C 0.48582 0.51629 0.04502 0.0
C990 C 0.51658 0.49228 0.04959 0.0
C991 C 0.00905 0.48253 0.5224 0.0
C992 C 0.0199 0.47076 0.48715 0.0
C993 C 0.97812 0.50505 0.52751 0.0
C994 C 0.95692 0.51655 0.49753 0.0
H995 H 0.02415 0.47353 0.54639 0.0
H996 H 0.97043 0.51294 0.55511 0.0
S997 S 0.9765 0.49668 0.3993 0.0
N998 N 0.00914 0.47443 0.4218 0.0
N999 N 0.95061 0.51665 0.43091 0.0
C1000 C 0.96802 0.50556 0.46197 0.0
C1001 C -0.00037 0.48265 0.45688 0.0
C1002 C 0.00357 0.49771 0.02528 0.0
C1003 C 0.01321 0.5201 0.99556 0.0
C1004 C 0.97335 0.47345 0.02303 0.0
C1005 C 0.9521 0.47013 0.99077 0.0
H1006 H 0.01947 0.49884 0.05044 0.0
H1007 H 0.96705 0.45648 0.04654 0.0
S1008 S 0.96512 0.52254 0.90527 0.0
N1009 N -0.00164 0.53762 0.93275 0.0
N1010 N 0.94206 0.4913 0.92882 0.0
C1011 C 0.96137 0.492 0.96079 0.0
C1012 C -0.0081 0.51706 0.96308 0.0
C1013 C 0.51124 0.50069 0.4749 0.0
C1014 C 0.51733 0.5215 0.50679 0.0
C1015 C 0.47943 0.47878 0.47118 0.0
C1016 C 0.45321 0.47635 0.4996 0.0
H1017 H 0.53149 0.50073 0.45305 0.0
H1018 H 0.47605 0.46246 0.44642 0.0
S1019 S 0.45617 0.5257 0.58844 0.0
N1020 N 0.49423 0.53901 0.56707 0.0
N1021 N 0.43495 0.49672 0.56026 0.0
C1022 C 0.45895 0.49688 0.53162 0.0
C1023 C 0.49103 0.51962 0.53524 0.0
C1024 C 0.15543 0.21275 0.39747 0.0
C1025 C 0.15179 0.21752 0.35933 0.0
C1026 C 0.15001 0.24216 0.42216 0.0
C1027 C 0.1405 0.27749 0.40977 0.0
H1028 H 0.15777 0.18525 0.40851 0.0
H1029 H 0.14791 0.23592 0.45109 0.0
S1030 S 0.1365 0.30656 0.31276 0.0
N1031 N 0.14531 0.26205 0.31043 0.0
N1032 N 0.13497 0.31702 0.35686 0.0
C1033 C 0.14266 0.28379 0.37183 0.0
C1034 C 0.14828 0.25384 0.34657 0.0
C1035 C -0.00228 0.89975 0.63639 0.0
C1036 C 0.97811 0.89051 0.60429 0.0
C1037 C 0.97947 0.90153 0.67039 0.0
C1038 C 0.94111 0.89446 0.67313 0.0
H1039 H 0.02775 0.90017 0.6362 0.0
H1040 H -0.00375 0.90294 0.69502 0.0
S1041 S 0.8762 0.88207 0.59523 0.0
N1042 N 0.91761 0.88357 0.57602 0.0
N1043 N 0.88318 0.88824 0.6396 0.0
C1044 C 0.92059 0.89268 0.64037 0.0
C1045 C 0.93922 0.89006 0.6059 0.0
C1046 C 0.32744 0.75064 0.86798 0.0
C1047 C 0.33862 0.74011 0.83249 0.0
C1048 C 0.32789 0.72555 0.8972 0.0
C1049 C 0.33968 0.68899 0.8921 0.0
H1050 H 0.32276 0.77944 0.87416 0.0
H1051 H 0.32391 0.73615 0.92473 0.0
S1052 S 0.36649 0.64628 0.80373 0.0
N1053 N 0.35752 0.6895 0.7933 0.0
N1054 N 0.35751 0.64233 0.84789 0.0
C1055 C 0.34582 0.67694 0.85592 0.0
C1056 C 0.34569 0.70258 0.82617 0.0
C1057 C 0.56368 0.08138 0.10388 0.0
C1058 C 0.5641 0.07794 0.14243 0.0
C1059 C 0.53035 0.08188 0.08384 0.0
C1060 C 0.49583 0.07843 0.10121 0.0
H1061 H 0.58917 0.08728 0.08935 0.0
H1062 H 0.53158 0.08949 0.05531 0.0
S1063 S 0.48163 0.05855 0.19987 0.0
N1064 N 0.52698 0.06381 0.19611 0.0
N1065 N 0.46447 0.06431 0.15827 0.0
C1066 C 0.49605 0.07029 0.13897 0.0
C1067 C 0.5301 0.06995 0.15958 0.0
C1068 C 0.17775 0.69759 0.09082 0.0
C1069 C 0.17606 0.66678 0.11388 0.0
C1070 C 0.17778 0.73354 0.10551 0.0
C1071 C 0.17537 0.74008 0.14374 0.0
H1072 H 0.17384 0.69429 0.06154 0.0
H1073 H 0.17441 0.75616 0.08661 0.0
S1074 S 0.18592 0.66892 0.21521 0.0
N1075 N 0.18531 0.64545 0.17631 0.0
N1076 N 0.18205 0.71258 0.20372 0.0
C1077 C 0.18112 0.70976 0.16666 0.0
C1078 C 0.18246 0.67319 0.15167 0.0
C1079 C 0.45928 0.91005 0.34856 0.0
C1080 C 0.4604 0.90954 0.38719 0.0
C1081 C 0.48957 0.8983 0.32747 0.0
C1082 C 0.52226 0.88605 0.34421 0.0
H1083 H 0.43373 0.9167 0.33447 0.0
H1084 H 0.48598 0.89526 0.29812 0.0
S1085 S 0.54235 0.88563 0.44377 0.0
N1086 N 0.4994 0.90085 0.44098 0.0
N1087 N 0.55598 0.87851 0.40113 0.0
C1088 C 0.52528 0.88922 0.38247 0.0
C1089 C 0.49447 0.90115 0.40407 0.0
C1090 C 0.31543 0.26349 0.56371 0.0
C1091 C 0.31708 0.2952 0.58588 0.0
C1092 C 0.31238 0.22836 0.57954 0.0
C1093 C 0.31061 0.22393 0.61796 0.0
H1094 H 0.32283 0.26518 0.53499 0.0
H1095 H 0.31668 0.20457 0.56203 0.0
S1096 S 0.29982 0.29935 0.68588 0.0
N1097 N 0.30527 0.32057 0.64635 0.0
N1098 N 0.30068 0.25491 0.67626 0.0
C1099 C 0.30453 0.25567 0.63926 0.0
C1100 C 0.30715 0.29134 0.62301 0.0
C1101 C 0.94541 0.05016 0.84404 0.0
C1102 C 0.9176 0.05908 0.86949 0.0
C1103 C 0.98233 0.04534 0.85536 0.0
C1104 C -0.00698 0.05021 0.89242 0.0
H1105 H 0.93984 0.05167 0.81493 0.0
H1106 H 0.0032 0.04238 0.83425 0.0
S1107 S 0.92832 0.06064 0.9707 0.0
N1108 N 0.90129 0.06068 0.93417 0.0
N1109 N 0.97088 0.0557 0.95503 0.0
C1110 C 0.96449 0.05282 0.91847 0.0
C1111 C 0.92667 0.05603 0.90703 0.0
C1112 C 0.83698 0.69382 0.63692 0.0
C1113 C 0.83695 0.70189 0.59921 0.0
C1114 C 0.83334 0.72198 0.66349 0.0
C1115 C 0.8296 0.75908 0.65309 0.0
H1116 H 0.84495 0.66665 0.64599 0.0
H1117 H 0.83852 0.71525 0.69192 0.0
S1118 S 0.81863 0.7929 0.55815 0.0
N1119 N 0.82568 0.74827 0.5532 0.0
N1120 N 0.81861 0.80092 0.60276 0.0
C1121 C 0.82392 0.76637 0.61571 0.0
C1122 C 0.82765 0.73782 0.58883 0.0
C1123 C 0.02044 0.07265 0.3982 0.0
C1124 C 0.98201 0.07099 0.39139 0.0
C1125 C 0.04611 0.07404 0.36909 0.0
C1126 C 0.03402 0.07419 0.33235 0.0
H1127 H 0.03035 0.07862 0.42564 0.0
H1128 H 0.07462 0.08112 0.37547 0.0
S1129 S 0.9376 0.05939 0.30054 0.0
N1130 N 0.93424 0.06095 0.34567 0.0
N1131 N 0.98221 0.06367 0.29125 0.0
C1132 C -0.00345 0.06577 0.32565 0.0
C1133 C 0.97054 0.0643 0.35516 0.0
C1134 C 0.64414 0.25712 0.08895 0.0
C1135 C 0.61878 0.28272 0.10327 0.0
C1136 C 0.65448 0.2258 0.10922 0.0
C1137 C 0.64026 0.21926 0.14462 0.0
H1138 H 0.65336 0.25947 0.06083 0.0
H1139 H 0.67212 0.20548 0.09628 0.0
S1140 S 0.57449 0.27923 0.19496 0.0
N1141 N 0.58168 0.30066 0.15586 0.0
N1142 N 0.60042 0.24197 0.19327 0.0
C1143 C 0.61682 0.24596 0.16002 0.0
C1144 C 0.60641 0.27769 0.13954 0.0
C1145 C 0.42724 0.88373 0.84907 0.0
C1146 C 0.44408 0.88774 0.81456 0.0
C1147 C 0.4486 0.88457 0.88141 0.0
C1148 C 0.48718 0.89075 0.88037 0.0
H1149 H 0.39891 0.87384 0.85078 0.0
H1150 H 0.43572 0.87575 0.9067 0.0
S1151 S 0.54202 0.91361 0.79794 0.0
N1152 N 0.49973 0.90595 0.78212 0.0
N1153 N 0.53944 0.90895 0.84287 0.0
C1154 C 0.50274 0.90151 0.84686 0.0
C1155 C 0.48117 0.8999 0.8139 0.0
C1156 C 0.79965 0.27818 0.91268 0.0
C1157 C 0.8066 0.30683 0.88791 0.0
C1158 C 0.79593 0.24172 0.90004 0.0
C1159 C 0.79967 0.23289 0.86243 0.0
H1160 H 0.80312 0.28276 0.94186 0.0
H1161 H 0.79624 0.21996 0.9202 0.0
S1162 S 0.80102 0.30015 0.78663 0.0
N1163 N 0.80218 0.32567 0.82422 0.0
N1164 N 0.79921 0.2571 0.80065 0.0
C1165 C 0.79818 0.26206 0.83751 0.0
C1166 C 0.80033 0.29926 0.85039 0.0
C1167 C 0.49848 0.06022 0.63168 0.0
C1168 C 0.49804 0.06781 0.59389 0.0
C1169 C 0.46545 0.05885 0.65193 0.0
C1170 C 0.43138 0.06696 0.63519 0.0
H1171 H 0.52455 0.06033 0.64648 0.0
H1172 H 0.46753 0.0589 0.68157 0.0
S1173 S 0.4146 0.07394 0.53541 0.0
N1174 N 0.46019 0.07185 0.53914 0.0
N1175 N 0.39819 0.07034 0.57751 0.0
C1176 C 0.43017 0.06608 0.59665 0.0
C1177 C 0.46374 0.06703 0.57584 0.0
C1178 C 0.66534 0.74029 0.38476 0.0
C1179 C 0.66093 0.74328 0.34646 0.0
C1180 C 0.66654 0.70575 0.40186 0.0
C1181 C 0.66366 0.67309 0.38109 0.0
H1182 H 0.66258 0.76451 0.402 0.0
H1183 H 0.66382 0.70502 0.43139 0.0
S1184 S 0.6651 0.66596 0.27976 0.0
N1185 N 0.66226 0.71049 0.28828 0.0
N1186 N 0.6683 0.64612 0.32018 0.0
C1187 C 0.66774 0.67602 0.34278 0.0
C1188 C 0.66506 0.71105 0.32538 0.0
C1189 C 0.04531 0.90925 0.10641 0.0
C1190 C 0.05131 0.90679 0.14449 0.0
C1191 C 0.01043 0.91883 0.09229 0.0
C1192 C 0.9806 0.92659 0.11592 0.0
H1193 H 0.06557 0.89789 0.08764 0.0
H1194 H 0.00564 0.91435 0.0633 0.0
S1195 S 0.98675 0.93815 0.21683 0.0
N1196 N 0.02786 0.92249 0.20472 0.0
N1197 N 0.9633 0.94317 0.17829 0.0
C1198 C -0.01092 0.93252 0.1533 0.0
C1199 C 0.02431 0.92183 0.16768 0.0
C1200 C 0.66205 0.75817 0.83287 0.0
C1201 C 0.66265 0.72569 0.85359 0.0
C1202 C 0.65733 0.79266 0.85004 0.0
C1203 C 0.65347 0.79579 0.88844 0.0
H1204 H 0.65966 0.75659 0.8033 0.0
H1205 H 0.65135 0.81613 0.83289 0.0
S1206 S 0.66712 0.72039 0.95485 0.0
N1207 N 0.66899 0.69987 0.91437 0.0
N1208 N 0.6613 0.76461 0.94657 0.0
C1209 C 0.66156 0.76446 0.90935 0.0
C1210 C 0.66564 0.72931 0.89189 0.0
C1211 C 0.50305 0.41141 0.13618 0.0
C1212 C 0.48669 0.41125 0.1012 0.0
C1213 C 0.4809 0.41025 0.16792 0.0
C1214 C 0.4419 0.40799 0.16536 0.0
H1215 H 0.53246 0.40619 0.13897 0.0
H1216 H 0.49436 0.40389 0.19366 0.0
S1217 S 0.38682 0.42267 0.08124 0.0
N1218 N 0.43016 0.42118 0.06677 0.0
N1219 N 0.38872 0.41855 0.12627 0.0
C1220 C 0.42596 0.41681 0.13145 0.0
C1221 C 0.44841 0.41807 0.09917 0.0
C1222 C 0.85597 0.17563 0.36558 0.0
C1223 C 0.85199 0.19324 0.39979 0.0
C1224 C 0.85561 0.196 0.33298 0.0
C1225 C 0.84999 0.23428 0.33359 0.0
H1226 H 0.86471 0.14716 0.36425 0.0
H1227 H 0.86389 0.1825 0.30775 0.0
S1228 S 0.82911 0.29128 0.41536 0.0
N1229 N 0.83603 0.24962 0.4318 0.0
N1230 N 0.83333 0.28749 0.37043 0.0
C1231 C 0.84003 0.25087 0.36699 0.0
C1232 C 0.84153 0.23039 0.40024 0.0
C1233 C 0.0122 0.57097 0.5976 0.0
C1234 C 0.97688 0.57254 0.61382 0.0
C1235 C 0.04463 0.57192 0.61925 0.0
C1236 C 0.04294 0.57436 0.65788 0.0
H1237 H 0.01496 0.57426 0.56823 0.0
H1238 H 0.07094 0.57597 0.60553 0.0
S1239 S 0.95724 0.56854 0.7134 0.0
N1240 N 0.94229 0.56873 0.67059 0.0
N1241 N 0.00295 0.56957 0.71106 0.0
C1242 C 0.00798 0.56938 0.67417 0.0
C1243 C 0.97498 0.56897 0.65217 0.0
C1244 C 0.66921 0.17199 0.62773 0.0
C1245 C 0.66706 0.17016 0.58896 0.0
C1246 C 0.66639 0.20573 0.64666 0.0
C1247 C 0.66264 0.23885 0.62748 0.0
H1248 H 0.66754 0.14701 0.64369 0.0
H1249 H 0.66199 0.20524 0.67602 0.0
S1250 S 0.67348 0.25051 0.52719 0.0
N1251 N 0.67333 0.20548 0.53294 0.0
N1252 N 0.66958 0.26874 0.56861 0.0
C1253 C 0.66882 0.23787 0.58938 0.0
C1254 C 0.6709 0.20353 0.57002 0.0
C1255 C -0.00277 0.42673 0.85462 0.0
C1256 C 0.9873 0.42202 0.89181 0.0
C1257 C 0.03302 0.41806 0.84213 0.0
C1258 C 0.05992 0.40513 0.86665 0.0
H1259 H 0.97604 0.43173 0.83422 0.0
H1260 H 0.0376 0.41606 0.81285 0.0
S1261 S 0.0532 0.40579 0.968 0.0
N1262 N 0.01106 0.4162 0.95389 0.0
N1263 N 0.07845 0.40143 0.93052 0.0
C1264 C 0.05285 0.40932 0.9044 0.0
C1265 C 0.01632 0.41739 0.91708 0.0
C1266 C 0.79619 0.79511 0.1433 0.0
C1267 C 0.8058 0.80271 0.1066 0.0
C1268 C 0.7935 0.75866 0.15553 0.0
C1269 C 0.79939 0.72928 0.13103 0.0
H1270 H 0.79757 0.8168 0.16379 0.0
H1271 H 0.79322 0.75397 0.1848 0.0
S1272 S 0.80375 0.73566 0.02984 0.0
N1273 N 0.80535 0.77881 0.04424 0.0
N1274 N 0.79955 0.71033 0.06705 0.0
C1275 C 0.79842 0.737 0.09329 0.0
C1276 C 0.80154 0.77405 0.08094 0.0
C1277 C 0.48057 0.54569 0.37095 0.0
C1278 C 0.48949 0.55754 0.40696 0.0
C1279 C 0.44693 0.55566 0.35417 0.0
C1280 C 0.42096 0.57727 0.37308 0.0
H1281 H 0.50161 0.53319 0.35385 0.0
H1282 H 0.44393 0.55109 0.32495 0.0
S1283 S 0.42397 0.60124 0.472 0.0
N1284 N 0.46442 0.58176 0.46398 0.0
N1285 N 0.40116 0.59964 0.43274 0.0
C1286 C 0.42615 0.58197 0.41114 0.0
C1287 C 0.46051 0.57228 0.4281 0.0
C1288 C 0.33376 0.2383 0.07048 0.0
C1289 C 0.3392 0.20282 0.08459 0.0
C1290 C 0.32525 0.26816 0.09354 0.0
C1291 C 0.32249 0.26385 0.13183 0.0
H1292 H 0.34086 0.24397 0.04222 0.0
H1293 H 0.3256 0.29545 0.08177 0.0
S1294 S 0.31918 0.17411 0.17976 0.0
N1295 N 0.33018 0.16322 0.13709 0.0
N1296 N 0.31461 0.21932 0.18079 0.0
C1297 C 0.32104 0.22749 0.14511 0.0
C1298 C 0.32944 0.19695 0.12137 0.0
C1299 C 0.51464 0.57033 0.89863 0.0
C1300 C 0.47816 0.56795 0.88497 0.0
C1301 C 0.54524 0.57195 0.87462 0.0
C1302 C 0.54028 0.57156 0.83627 0.0
H1303 H 0.51927 0.57634 0.9274 0.0
H1304 H 0.57199 0.57954 0.88599 0.0
S1305 S 0.45163 0.55496 0.78763 0.0
N1306 N 0.43987 0.55681 0.83133 0.0
N1307 N 0.49715 0.55997 0.78659 0.0
C1308 C 0.5048 0.56257 0.82298 0.0
C1309 C 0.47371 0.56102 0.84726 0.0
C1310 C 0.12696 0.7784 0.68035 0.0
C1311 C 0.1324 0.74119 0.67131 0.0
C1312 C 0.12664 0.80546 0.65309 0.0
C1313 C 0.13049 0.79587 0.61585 0.0
H1314 H 0.1182 0.78596 0.70777 0.0
H1315 H 0.11705 0.83272 0.66053 0.0
S1316 S 0.15545 0.70399 0.57956 0.0
N1317 N 0.1503 0.69757 0.62405 0.0
N1318 N 0.14858 0.74833 0.57264 0.0
C1319 C 0.14255 0.76008 0.60753 0.0
C1320 C 0.14336 0.73254 0.63538 0.0
C1321 C 0.92218 0.39834 0.38129 0.0
C1322 C 0.92836 0.39617 0.34315 0.0
C1323 C 0.95197 0.39905 0.40628 0.0
C1324 C -0.01119 0.3978 0.39386 0.0
H1325 H 0.89456 0.39364 0.39194 0.0
H1326 H 0.94605 0.3951 0.43509 0.0
S1327 S 0.01952 0.40389 0.29731 0.0
N1328 N 0.97382 0.40257 0.29465 0.0
N1329 N 0.02962 0.40307 0.34147 0.0
C1330 C -0.00495 0.40243 0.35616 0.0
C1331 C 0.96475 0.4022 0.33077 0.0
C1332 C 0.34014 0.78606 0.40866 0.0
C1333 C 0.33362 0.81914 0.3899 0.0
C1334 C 0.34574 0.75299 0.38936 0.0
C1335 C 0.34427 0.75179 0.35086 0.0
H1336 H 0.34432 0.78622 0.43806 0.0
H1337 H 0.35412 0.72884 0.40447 0.0
S1338 S 0.3227 0.82932 0.2894 0.0
N1339 N 0.32165 0.84756 0.33097 0.0
N1340 N 0.33235 0.78533 0.29499 0.0
C1341 C 0.33454 0.78378 0.33209 0.0
C1342 C 0.32898 0.81747 0.3516 0.0
C1343 C 0.95165 0.55354 0.15887 0.0
C1344 C 0.92482 0.57091 0.13723 0.0
C1345 C 0.98661 0.54478 0.14418 0.0
C1346 C -0.0041 0.55382 0.10765 0.0
H1347 H 0.94788 0.55198 0.18827 0.0
H1348 H 0.00797 0.5358 0.16296 0.0
S1349 S 0.93002 0.58795 0.03751 0.0
N1350 N 0.90559 0.58649 0.07568 0.0
N1351 N 0.97154 0.57268 0.04847 0.0
C1352 C 0.96675 0.56461 0.08444 0.0
C1353 C 0.93094 0.57227 0.09923 0.0
C1354 C 0.18638 0.22695 0.89032 0.0
C1355 C 0.17896 0.23439 0.853 0.0
C1356 C 0.18153 0.19155 0.90496 0.0
C1357 C 0.17094 0.16168 0.88261 0.0
H1358 H 0.1916 0.24938 0.90937 0.0
H1359 H 0.18226 0.18862 0.93439 0.0
S1360 S 0.15908 0.16405 0.7813 0.0
N1361 N 0.16582 0.20736 0.79333 0.0
N1362 N 0.16298 0.14037 0.81948 0.0
C1363 C 0.17041 0.16758 0.84424 0.0
C1364 C 0.1728 0.20401 0.82972 0.0
C1365 C 0.51806 0.42109 0.65477 0.0
C1366 C 0.54801 0.40785 0.63407 0.0
C1367 C 0.4845 0.43046 0.63759 0.0
C1368 C 0.47995 0.42643 0.59927 0.0
H1369 H 0.5182 0.41811 0.6843 0.0
H1370 H 0.46058 0.43516 0.65489 0.0
S1371 S 0.55623 0.41141 0.533 0.0
N1372 N 0.57558 0.40522 0.57356 0.0
N1373 N 0.51256 0.42212 0.54114 0.0
C1374 C 0.51234 0.42206 0.57834 0.0
C1375 C 0.54654 0.41294 0.59592 0.0
C1376 C 0.05444 0.27543 0.23448 0.0
C1377 C 0.0471 0.23825 0.22677 0.0
C1378 C 0.02671 0.3016 0.23014 0.0
C1379 C -0.00895 0.29061 0.219 0.0
H1380 H 0.07978 0.28344 0.24845 0.0
H1381 H 0.03139 0.32896 0.24126 0.0
S1382 S 0.96347 0.19903 0.18247 0.0
N1383 N 0.00644 0.19379 0.19698 0.0
N1384 N 0.95359 0.24273 0.18982 0.0
C1385 C 0.98627 0.25526 0.20376 0.0
C1386 C 0.01474 0.22876 0.20769 0.0
C1387 C 0.98686 0.74942 0.45634 0.0
C1388 C 0.02433 0.74807 0.46676 0.0
C1389 C 0.96487 0.71757 0.4581 0.0
C1390 C 0.98054 0.68441 0.47005 0.0
H1391 H 0.97309 0.77575 0.45408 0.0
H1392 H 0.93502 0.72053 0.45675 0.0
S1393 S 0.08023 0.66471 0.48159 0.0
N1394 N 0.07829 0.70957 0.47487 0.0
N1395 N 0.03708 0.64955 0.47838 0.0
C1396 C 0.01924 0.6814 0.47056 0.0
C1397 C 0.04143 0.71365 0.46852 0.0
C1398 C 0.48164 0.71077 0.69811 0.0
C1399 C 0.47696 0.74843 0.70486 0.0
C1400 C 0.51601 0.69449 0.70425 0.0
C1401 C 0.54551 0.71573 0.71819 0.0
H1402 H 0.45773 0.69317 0.69348 0.0
H1403 H 0.51755 0.66472 0.70392 0.0
S1404 S 0.54954 0.81682 0.72843 0.0
N1405 N 0.50637 0.80772 0.71617 0.0
N1406 N 0.57094 0.77674 0.72894 0.0
C1407 C 0.54288 0.75408 0.71809 0.0
C1408 C 0.50823 0.7707 0.71097 0.0
C1409 C 0.46234 0.22518 0.94615 0.0
C1410 C 0.48377 0.19632 0.96018 0.0
C1411 C 0.47813 0.26022 0.94225 0.0
C1412 C 0.51515 0.26641 0.95279 0.0
H1413 H 0.43244 0.22261 0.94459 0.0
H1414 H 0.45971 0.28337 0.93857 0.0
S1415 S 0.58555 0.19569 0.97171 0.0
N1416 N 0.54583 0.17291 0.97025 0.0
N1417 N 0.57545 0.23884 0.96197 0.0
C1418 C 0.53839 0.23584 0.95588 0.0
C1419 C 0.52242 0.20039 0.96059 0.0
C1420 C 0.97958 0.69734 0.24293 0.0
C1421 C 0.94688 0.71811 0.24458 0.0
C1422 C 0.01395 0.71479 0.23888 0.0
C1423 C 0.01636 0.75328 0.23807 0.0
H1424 H 0.97817 0.66773 0.23938 0.0
H1425 H 0.03815 0.6982 0.23309 0.0
S1426 S 0.93968 0.81945 0.2502 0.0
N1427 N 0.91943 0.77859 0.25091 0.0
N1428 N 0.98451 0.81154 0.24581 0.0
C1429 C 0.9846 0.77414 0.2454 0.0
C1430 C 0.94953 0.75641 0.24824 0.0
C1431 C 0.47977 0.70943 0.41233 0.0
C1432 C 0.50963 0.71042 0.43718 0.0
C1433 C 0.45601 0.73943 0.40878 0.0
C1434 C 0.46121 0.77135 0.42994 0.0
H1435 H 0.47474 0.68534 0.39535 0.0
H1436 H 0.43342 0.73768 0.38933 0.0
S1437 S 0.53647 0.78884 0.49715 0.0
N1438 N 0.54374 0.74641 0.48252 0.0
N1439 N 0.49907 0.8031 0.47543 0.0
C1440 C 0.49077 0.77278 0.455 0.0
C1441 C 0.515 0.74217 0.45874 0.0
C1442 C 0.47317 0.19919 0.74894 0.0
C1443 C 0.43917 0.21746 0.74523 0.0
C1444 C 0.50652 0.21874 0.74581 0.0
C1445 C 0.50626 0.25691 0.74038 0.0
H1446 H 0.47412 0.16939 0.74809 0.0
H1447 H 0.53212 0.20349 0.74303 0.0
S1448 S 0.42466 0.31796 0.74066 0.0
N1449 N 0.40723 0.27602 0.74425 0.0
N1450 N 0.47017 0.31302 0.74006 0.0
C1451 C 0.47278 0.27593 0.74364 0.0
C1452 C 0.43891 0.25601 0.74595 0.0
C1453 C -0.0045 0.25762 0.90859 0.0
C1454 C 0.9715 0.26521 0.93809 0.0
C1455 C 0.02024 0.22815 0.90968 0.0
C1456 C 0.02222 0.20504 0.94036 0.0
H1457 H -0.00475 0.27453 0.88426 0.0
H1458 H 0.03778 0.22334 0.88608 0.0
S1459 S 0.96461 0.21185 0.02429 0.0
N1460 N 0.95072 0.24626 -0.00154 0.0
N1461 N -0.00242 0.19119 0.00075 0.0
C1462 C -0.00133 0.21234 0.97019 0.0
C1463 C 0.97323 0.2423 0.96898 0.0
C1464 C 0.95841 0.66829 0.77625 0.0
C1465 C -0.00519 0.67852 0.78554 0.0
C1466 C 0.93095 0.69499 0.77396 0.0
C1467 C 0.93941 0.73187 0.78201 0.0
H1468 H 0.95269 0.64126 0.76482 0.0
H1469 H 0.90478 0.68772 0.76113 0.0
S1470 S 0.02591 0.76879 0.82255 0.0
N1471 N 0.0346 0.7251 0.81374 0.0
N1472 N 0.98232 0.77503 0.8105 0.0
C1473 C 0.97286 0.74042 0.79956 0.0
C1474 C 0.00101 0.71341 0.80136 0.0
C1475 C 0.97451 0.25935 0.54803 0.0
C1476 C 0.01158 0.26524 0.53807 0.0
C1477 C 0.96051 0.2235 0.55024 0.0
C1478 C 0.98323 0.19368 0.54057 0.0
H1479 H 0.95519 0.2821 0.54828 0.0
H1480 H 0.93071 0.21997 0.55189 0.0
S1481 S 0.08468 0.19488 0.52811 0.0
N1482 N 0.07282 0.23864 0.5308 0.0
N1483 N 0.04604 0.17121 0.53436 0.0
C1484 C 0.02165 0.19906 0.54002 0.0
C1485 C 0.03605 0.23537 0.53831 0.0
C1486 C 0.47531 0.23972 0.25171 0.0
C1487 C 0.44206 0.23182 0.23318 0.0
C1488 C 0.50603 0.21692 0.24685 0.0
C1489 C 0.50376 0.18633 0.22322 0.0
H1490 H 0.47896 0.26553 0.26631 0.0
H1491 H 0.53244 0.22543 0.25836 0.0
S1492 S 0.42001 0.14871 0.17802 0.0
N1493 N 0.40611 0.18684 0.19846 0.0
N1494 N 0.46455 0.14521 0.18767 0.0
C1495 C 0.46947 0.1756 0.209 0.0
C1496 C 0.43816 0.19804 0.21473 0.0
C1497 C 0.49618 0.75749 0.01915 0.0
C1498 C 0.5332 0.75318 0.00807 0.0
C1499 C 0.47323 0.72655 0.02323 0.0
C1500 C 0.48719 0.69121 0.01604 0.0
H1501 H 0.48361 0.78451 0.01935 0.0
H1502 H 0.44363 0.73077 0.02586 0.0
S1503 S 0.58519 0.66606 0.00102 0.0
N1504 N 0.58505 0.71151 0.00105 0.0
N1505 N 0.54198 0.65333 0.00915 0.0
C1506 C 0.52565 0.68675 0.01311 0.0
C1507 C 0.5488 0.71802 0.00859 0.0
C1508 C 0.96446 0.23212 0.77567 0.0
C1509 C 0.9661 0.19708 0.79157 0.0
C1510 C -0.00381 0.25442 0.77417 0.0
C1511 C 0.02998 0.24194 0.78852 0.0
H1512 H 0.9381 0.2434 0.76713 0.0
H1513 H -0.00642 0.28243 0.76456 0.0
S1514 S 0.05012 0.14865 0.82309 0.0
N1515 N 0.00502 0.14835 0.81518 0.0
N1516 N 0.06488 0.19017 0.81199 0.0
C1517 C 0.03262 0.20551 0.80057 0.0
C1518 C 0.00047 0.18302 0.80225 0.0
C1519 C 0.47931 0.25361 0.49949 0.0
C1520 C 0.48875 0.28557 0.51922 0.0
C1521 C 0.50463 0.22478 0.4963 0.0
C1522 C 0.53983 0.22751 0.51276 0.0
H1523 H 0.45141 0.24967 0.48908 0.0
H1524 H 0.49536 0.19917 0.48391 0.0
S1525 S 0.58121 0.31065 0.55551 0.0
N1526 N 0.53776 0.32199 0.54725 0.0
N1527 N 0.58562 0.26772 0.54115 0.0
C1528 C 0.55096 0.26123 0.52806 0.0
C1529 C 0.52522 0.29039 0.53142 0.0
C1530 C 0.50796 0.66675 0.23405 0.0
C1531 C 0.47149 0.67908 0.22894 0.0
C1532 C 0.5373 0.69191 0.23469 0.0
C1533 C 0.53065 0.72956 0.22946 0.0
H1534 H 0.51296 0.63919 0.24404 0.0
H1535 H 0.56401 0.68276 0.24468 0.0
S1536 S 0.44302 0.77164 0.19833 0.0
N1537 N 0.43235 0.72812 0.20602 0.0
N1538 N 0.48787 0.77557 0.20673 0.0
C1539 C 0.49615 0.74027 0.21546 0.0
C1540 C 0.4662 0.71461 0.21501 0.0
C1541 C -0.00056 0.76244 0.09591 0.0
C1542 C 0.97474 0.76884 0.06672 0.0
C1543 C 0.02388 0.73269 0.09516 0.0
C1544 C 0.02477 0.70836 0.06512 0.0
H1545 H -0.00015 0.78043 0.1197 0.0
H1546 H 0.0421 0.72863 0.1184 0.0
S1547 S 0.96485 0.71161 0.98256 0.0
N1548 N 0.95197 0.74737 0.00749 0.0
N1549 N -0.00161 0.69185 0.0059 0.0
C1550 C 0.00057 0.71452 0.03561 0.0
C1551 C 0.97542 0.74466 0.03647 0.0
C1552 C 0.03814 0.13728 0.08726 0.0
C1553 C 0.06074 0.16312 0.06918 0.0
C1554 C 0.04179 0.1318 0.12514 0.0
C1555 C 0.06594 0.1539 0.146 0.0
H1556 H 0.02326 0.11659 0.07146 0.0
H1557 H 0.02906 0.10772 0.13723 0.0
S1558 S 0.1196 0.23418 0.11335 0.0
N1559 N 0.10028 0.21676 0.07595 0.0
N1560 N 0.10469 0.20864 0.14764 0.0
C1561 C 0.08209 0.18476 0.12937 0.0
C1562 C 0.07959 0.18927 0.09066 0.0
C1563 C 0.02454 0.86889 0.37624 0.0
C1564 C 0.04117 0.8443 0.40087 0.0
C1565 C 0.02884 0.86441 0.33841 0.0
C1566 C 0.04962 0.83507 0.32422 0.0
H1567 H 0.01198 0.89404 0.38628 0.0
H1568 H 0.02014 0.88651 0.3206 0.0
S1569 S 0.09027 0.75822 0.37645 0.0
N1570 N 0.07297 0.78595 0.40805 0.0
N1571 N 0.07991 0.77702 0.33667 0.0
C1572 C 0.06067 0.80705 0.34808 0.0
C1573 C 0.05684 0.81186 0.38673 0.0
C1574 C 0.39562 0.76251 0.58975 0.0
C1575 C 0.41238 0.78132 0.61941 0.0
C1576 C 0.41072 0.76488 0.55439 0.0
C1577 C 0.43997 0.7896 0.54797 0.0
H1578 H 0.36874 0.74954 0.593 0.0
H1579 H 0.39394 0.75514 0.53161 0.0
S1580 S 0.504 0.82764 0.61758 0.0
N1581 N 0.46847 0.81177 0.64129 0.0
N1582 N 0.49538 0.81672 0.57439 0.0
C1583 C 0.46294 0.798 0.57804 0.0
C1584 C 0.44821 0.79561 0.61421 0.0
C1585 C 0.33712 0.17113 0.85328 0.0
C1586 C 0.36376 0.16108 0.82691 0.0
C1587 C 0.34413 0.16715 0.89065 0.0
C1588 C 0.37831 0.15386 0.90299 0.0
H1589 H 0.30933 0.17865 0.84494 0.0
H1590 H 0.32157 0.17137 0.9098 0.0
S1591 S 0.46036 0.13263 0.84592 0.0
N1592 N 0.42784 0.14367 0.81605 0.0
N1593 N 0.44136 0.13717 0.88687 0.0
C1594 C 0.40696 0.14887 0.87743 0.0
C1595 C 0.39963 0.15239 0.83908 0.0
C1596 C 0.95369 0.82973 0.92361 0.0
C1597 C 0.93234 0.80185 0.94011 0.0
C1598 C 0.94936 0.83735 0.88621 0.0
C1599 C 0.92641 0.81513 0.86418 0.0
H1600 H 0.96729 0.85035 0.94059 0.0
H1601 H 0.96036 0.86295 0.87562 0.0
S1602 S 0.8782 0.72973 0.89186 0.0
N1603 N 0.89647 0.74615 0.93018 0.0
N1604 N 0.89148 0.75807 0.85917 0.0
C1605 C 0.91266 0.78218 0.8788 0.0
C1606 C 0.91557 0.77555 0.91711 0.0
C1607 C 0.87841 0.17029 0.62314 0.0
C1608 C 0.90255 0.14725 0.60365 0.0
C1609 C 0.88196 0.17453 0.66122 0.0
C1610 C 0.90853 0.1543 0.68082 0.0
H1611 H 0.85465 0.1822 0.60953 0.0
H1612 H 0.86026 0.18905 0.67578 0.0
S1613 S 0.98259 0.09646 0.64111 0.0
N1614 N 0.95812 0.10994 0.60536 0.0
N1615 N 0.9631 0.11579 0.67735 0.0
C1616 C 0.9356 0.13514 0.66099 0.0
C1617 C 0.93281 0.13189 0.62214 0.0
C1618 C 0.51762 0.14205 0.37322 0.0
C1619 C 0.5357 0.15873 0.40345 0.0
C1620 C 0.52743 0.1513 0.3372 0.0
C1621 C 0.55539 0.17745 0.33089 0.0
H1622 H 0.50079 0.11764 0.37725 0.0
H1623 H 0.51803 0.1335 0.31509 0.0
S1624 S 0.59636 0.24096 0.39978 0.0
N1625 N 0.57166 0.2116 0.42412 0.0
N1626 N 0.58993 0.22907 0.35644 0.0
C1627 C 0.56595 0.20043 0.36033 0.0
C1628 C 0.55605 0.191 0.39695 0.0
C1629 C 0.52358 0.86819 0.14653 0.0
C1630 C 0.54356 0.83792 0.15951 0.0
C1631 C 0.51934 0.87391 0.1089 0.0
C1632 C 0.53579 0.84998 0.08321 0.0
H1633 H 0.51504 0.88974 0.16532 0.0
H1634 H 0.50709 0.89952 0.10002 0.0
S1635 S 0.58352 0.76232 0.10422 0.0
N1636 N 0.57299 0.77989 0.1447 0.0
N1637 N 0.56703 0.79146 0.07382 0.0
C1638 C 0.55103 0.81687 0.09607 0.0
C1639 C 0.55442 0.81064 0.13448 0.0
C1640 C 0.55778 0.64548 0.59909 0.0
C1641 C 0.57765 0.66377 0.57146 0.0
C1642 C 0.57052 0.64549 0.63545 0.0
C1643 C 0.60401 0.66303 0.64487 0.0
H1644 H 0.53462 0.62776 0.59184 0.0
H1645 H 0.55635 0.62834 0.65521 0.0
S1646 S 0.66265 0.71978 0.58374 0.0
N1647 N 0.62907 0.70419 0.55693 0.0
N1648 N 0.65365 0.70367 0.62502 0.0
C1649 C 0.62178 0.68469 0.61832 0.0
C1650 C 0.60834 0.68528 0.58158 0.0
C1651 C 0.56379 0.31198 0.84604 0.0
C1652 C 0.55471 0.33819 0.8194 0.0
C1653 C 0.56012 0.32032 0.88349 0.0
C1654 C 0.54728 0.35506 0.89493 0.0
H1655 H 0.57845 0.2872 0.83821 0.0
H1656 H 0.57165 0.30139 0.90321 0.0
S1657 S 0.51018 0.42837 0.83529 0.0
N1658 N 0.52511 0.39644 0.80655 0.0
N1659 N 0.51774 0.4121 0.87679 0.0
C1660 C 0.53275 0.37885 0.86842 0.0
C1661 C 0.53647 0.37032 0.83052 0.0
C1662 C 0.95388 0.30922 0.0935 0.0
C1663 C 0.93178 0.30002 0.06294 0.0
C1664 C 0.94048 0.30399 0.12912 0.0
C1665 C 0.90531 0.28824 0.13482 0.0
H1666 H 0.97814 0.32654 0.08999 0.0
H1667 H 0.95531 0.31698 0.15157 0.0
S1668 S 0.84488 0.24552 0.06417 0.0
N1669 N 0.87909 0.26444 0.04082 0.0
N1670 N 0.85454 0.25324 0.1078 0.0
C1671 C 0.88731 0.27157 0.10481 0.0
C1672 C 0.90081 0.27726 0.06863 0.0
C1673 C 0.84554 0.67336 0.39704 0.0
C1674 C 0.87628 0.65357 0.40942 0.0
C1675 C 0.84107 0.68104 0.35982 0.0
C1676 C 0.86663 0.66809 0.33361 0.0
H1677 H 0.82325 0.68012 0.41574 0.0
H1678 H 0.81527 0.69341 0.3511 0.0
S1679 S 0.9554 0.62137 0.35344 0.0
N1680 N 0.93583 0.6268 0.39403 0.0
N1681 N 0.92683 0.64008 0.32349 0.0
C1682 C 0.89979 0.65246 0.34624 0.0
C1683 C 0.90464 0.6452 0.38443 0.0
C1684 C 0.41856 0.28084 0.40576 0.0
C1685 C 0.4411 0.31203 0.41085 0.0
C1686 C 0.40889 0.26936 0.3702 0.0
C1687 C 0.42178 0.28889 0.33944 0.0
H1688 H 0.40294 0.26981 0.42856 0.0
H1689 H 0.38629 0.24984 0.36713 0.0
S1690 S 0.49565 0.35968 0.33957 0.0
N1691 N 0.48669 0.35255 0.38335 0.0
N1692 N 0.46876 0.33078 0.3165 0.0
C1693 C 0.45177 0.31304 0.34454 0.0
C1694 C 0.46142 0.32483 0.38065 0.0
C1695 C 0.39907 0.66027 0.14801 0.0
C1696 C 0.36393 0.67039 0.16133 0.0
C1697 C 0.40532 0.65646 0.11018 0.0
C1698 C 0.37655 0.66255 0.08496 0.0
H1699 H 0.42054 0.65149 0.16674 0.0
H1700 H 0.4312 0.64451 0.10104 0.0
S1701 S 0.28308 0.69877 0.10536 0.0
N1702 N 0.30285 0.69404 0.14588 0.0
N1703 N 0.31449 0.68578 0.07511 0.0
C1704 C 0.34321 0.67744 0.09769 0.0
C1705 C 0.33691 0.68165 0.13593 0.0
C1706 C 0.10409 0.70427 0.92572 0.0
C1707 C 0.07634 0.68139 0.94015 0.0
C1708 C 0.11075 0.70496 0.88793 0.0
C1709 C 0.08927 0.68343 0.86365 0.0
H1710 H 0.12473 0.71632 0.94384 0.0
H1711 H 0.1355 0.7188 0.87825 0.0
S1712 S 0.00502 0.6301 0.88763 0.0
N1713 N 0.02077 0.64592 0.92724 0.0
N1714 N 0.03345 0.64635 0.85616 0.0
C1715 C 0.05697 0.66667 0.87728 0.0
C1716 C 0.05004 0.6665 0.91578 0.0
C1717 C 0.0304 0.36664 0.63114 0.0
C1718 C 0.04953 0.34455 0.60572 0.0
C1719 C 0.03073 0.35837 0.66855 0.0
C1720 C 0.05088 0.3282 0.68172 0.0
H1721 H 0.0184 0.3925 0.62261 0.0
H1722 H 0.02021 0.37879 0.68761 0.0
S1723 S 0.09667 0.25662 0.62557 0.0
N1724 N 0.08236 0.28727 0.59554 0.0
N1725 N 0.08262 0.27162 0.66602 0.0
C1726 C 0.06431 0.30259 0.65608 0.0
C1727 C 0.06417 0.31105 0.61788 0.0
loop_
_geom_bond_atom_site_label_1
_geom_bond_atom_site_label_2
_geom_bond_distance
_geom_bond_site_symmetry_2
_ccdc_geom_bond_type
Zn0 O6 1.920 . S
Zn0 O12 1.898 . S
Zn0 O15 1.905 . S
Zn1 O9 1.905 . S
Zn1 O10 1.898 . S
Zn1 O18 1.920 . S
Zn2 O5 2.080 . S
Zn2 O8 2.114 . S
Zn2 O11 2.120 . S
Zn2 O13 2.120 . S
Zn2 O14 2.114 . S
Zn2 O17 2.080 . S
C3 O8 1.166 . S
C3 O9 1.182 . S
C4 O10 1.167 . S
C4 O11 1.299 . S
O5 Zn2 2.080 . S
O5 C19 1.305 . S
O6 Zn0 1.920 . S
O6 C19 1.234 . S
C7 O12 1.167 . S
C7 O13 1.299 . S
O8 Zn2 2.114 . S
O8 C3 1.166 . S
O9 Zn1 1.905 . S
O9 C3 1.182 . S
O10 Zn1 1.898 . S
O10 C4 1.167 . S
O11 Zn2 2.120 . S
O11 C4 1.299 . S
O12 Zn0 1.898 . S
O12 C7 1.167 . S
O13 Zn2 2.120 . S
O13 C7 1.299 . S
O14 Zn2 2.114 . S
O14 C16 1.166 . S
O15 Zn0 1.905 . S
O15 C16 1.182 . S
C16 O14 1.166 . S
C16 O15 1.182 . S
O17 Zn2 2.080 . S
O17 C20 1.305 . S
O18 Zn1 1.920 . S
O18 C20 1.234 . S
C19 O5 1.305 . S
C19 O6 1.234 . S
C20 O17 1.305 . S
C20 O18 1.234 . S
Zn21 O27 1.920 . S
Zn21 O33 1.898 . S
Zn21 O36 1.905 . S
Zn22 O30 1.905 . S
Zn22 O31 1.898 . S
Zn22 O39 1.920 . S
Zn23 O26 2.080 . S
Zn23 O29 2.114 . S
Zn23 O32 2.120 . S
Zn23 O34 2.120 . S
Zn23 O35 2.114 . S
Zn23 O38 2.080 . S
C24 O29 1.166 . S
C24 O30 1.182 . S
C25 O31 1.167 . S
C25 O32 1.299 . S
O26 Zn23 2.080 . S
O26 C40 1.305 . S
O27 Zn21 1.920 . S
O27 C40 1.234 . S
C28 O33 1.167 . S
C28 O34 1.299 . S
O29 Zn23 2.114 . S
O29 C24 1.166 . S
O30 Zn22 1.905 . S
O30 C24 1.182 . S
O31 Zn22 1.898 . S
O31 C25 1.167 . S
O32 Zn23 2.120 . S
O32 C25 1.299 . S
O33 Zn21 1.898 . S
O33 C28 1.167 . S
O34 Zn23 2.120 . S
O34 C28 1.299 . S
O35 Zn23 2.114 . S
O35 C37 1.166 . S
O36 Zn21 1.905 . S
O36 C37 1.182 . S
C37 O35 1.166 . S
C37 O36 1.182 . S
O38 Zn23 2.080 . S
O38 C41 1.305 . S
O39 Zn22 1.920 . S
O39 C41 1.234 . S
C40 O26 1.305 . S
C40 O27 1.234 . S
C41 O38 1.305 . S
C41 O39 1.234 . S
Zn42 O48 1.920 . S
Zn42 O54 1.898 . S
Zn42 O57 1.905 . S
Zn43 O51 1.905 . S
Zn43 O52 1.898 . S
Zn43 O60 1.920 . S
Zn44 O47 2.080 . S
Zn44 O50 2.114 . S
Zn44 O53 2.120 . S
Zn44 O55 2.120 . S
Zn44 O56 2.114 . S
Zn44 O59 2.080 . S
C45 O50 1.166 . S
C45 O51 1.182 . S
C46 O52 1.167 . S
C46 O53 1.299 . S
O47 Zn44 2.080 . S
O47 C61 1.305 . S
O48 Zn42 1.920 . S
O48 C61 1.234 . S
C49 O54 1.167 . S
C49 O55 1.299 . S
O50 Zn44 2.114 . S
O50 C45 1.166 . S
O51 Zn43 1.905 . S
O51 C45 1.182 . S
O52 Zn43 1.898 . S
O52 C46 1.167 . S
O53 Zn44 2.120 . S
O53 C46 1.299 . S
O54 Zn42 1.898 . S
O54 C49 1.167 . S
O55 Zn44 2.120 . S
O55 C49 1.299 . S
O56 Zn44 2.114 . S
O56 C58 1.166 . S
O57 Zn42 1.905 . S
O57 C58 1.182 . S
C58 O56 1.166 . S
C58 O57 1.182 . S
O59 Zn44 2.080 . S
O59 C62 1.305 . S
O60 Zn43 1.920 . S
O60 C62 1.234 . S
C61 O47 1.305 . S
C61 O48 1.234 . S
C62 O59 1.305 . S
C62 O60 1.234 . S
Zn63 O69 1.920 . S
Zn63 O75 1.898 . S
Zn63 O78 1.905 . S
Zn64 O72 1.905 . S
Zn64 O73 1.898 . S
Zn64 O81 1.920 . S
Zn65 O68 2.080 1_554 S
Zn65 O71 2.114 . S
Zn65 O74 2.120 . S
Zn65 O76 2.120 . S
Zn65 O77 2.114 1_554 S
Zn65 O80 2.080 . S
C66 O71 1.166 . S
C66 O72 1.182 . S
C67 O73 1.167 . S
C67 O74 1.299 . S
O68 Zn65 2.080 1_556 S
O68 C82 1.305 . S
O69 Zn63 1.920 . S
O69 C82 1.234 . S
C70 O75 1.167 1_554 S
C70 O76 1.299 . S
O71 Zn65 2.114 . S
O71 C66 1.166 . S
O72 Zn64 1.905 . S
O72 C66 1.182 . S
O73 Zn64 1.898 . S
O73 C67 1.167 . S
O74 Zn65 2.120 . S
O74 C67 1.299 . S
O75 Zn63 1.898 . S
O75 C70 1.167 1_556 S
O76 Zn65 2.120 . S
O76 C70 1.299 . S
O77 Zn65 2.114 1_556 S
O77 C79 1.166 . S
O78 Zn63 1.905 . S
O78 C79 1.182 . S
C79 O77 1.166 . S
C79 O78 1.182 . S
O80 Zn65 2.080 . S
O80 C83 1.305 . S
O81 Zn64 1.920 . S
O81 C83 1.234 . S
C82 O68 1.305 . S
C82 O69 1.234 . S
C83 O80 1.305 . S
C83 O81 1.234 . S
Zn84 O90 1.920 . S
Zn84 O96 1.898 . S
Zn84 O99 1.905 . S
Zn85 O93 1.905 . S
Zn85 O94 1.898 . S
Zn85 O102 1.920 . S
Zn86 O89 2.080 . S
Zn86 O92 2.114 . S
Zn86 O95 2.120 . S
Zn86 O97 2.120 . S
Zn86 O98 2.114 . S
Zn86 O101 2.080 . S
C87 O92 1.166 . S
C87 O93 1.182 . S
C88 O94 1.167 . S
C88 O95 1.299 . S
O89 Zn86 2.080 . S
O89 C103 1.305 . S
O90 Zn84 1.920 . S
O90 C103 1.234 . S
C91 O96 1.167 . S
C91 O97 1.299 . S
O92 Zn86 2.114 . S
O92 C87 1.166 . S
O93 Zn85 1.905 . S
O93 C87 1.182 . S
O94 Zn85 1.898 . S
O94 C88 1.167 . S
O95 Zn86 2.120 . S
O95 C88 1.299 . S
O96 Zn84 1.898 . S
O96 C91 1.167 . S
O97 Zn86 2.120 . S
O97 C91 1.299 . S
O98 Zn86 2.114 . S
O98 C100 1.166 . S
O99 Zn84 1.905 . S
O99 C100 1.182 . S
C100 O98 1.166 . S
C100 O99 1.182 . S
O101 Zn86 2.080 . S
O101 C104 1.305 . S
O102 Zn85 1.920 . S
O102 C104 1.234 . S
C103 O89 1.305 . S
C103 O90 1.234 . S
C104 O101 1.305 . S
C104 O102 1.234 . S
Zn105 O111 1.920 . S
Zn105 O117 1.898 . S
Zn105 O120 1.905 . S
Zn106 O114 1.905 . S
Zn106 O115 1.898 . S
Zn106 O123 1.920 . S
Zn107 O110 2.080 . S
Zn107 O113 2.114 . S
Zn107 O116 2.120 . S
Zn107 O118 2.120 . S
Zn107 O119 2.114 . S
Zn107 O122 2.080 . S
C108 O113 1.166 . S
C108 O114 1.182 . S
C109 O115 1.167 . S
C109 O116 1.299 . S
O110 Zn107 2.080 . S
O110 C124 1.305 . S
O111 Zn105 1.920 . S
O111 C124 1.234 . S
C112 O117 1.167 . S
C112 O118 1.299 . S
O113 Zn107 2.114 . S
O113 C108 1.166 . S
O114 Zn106 1.905 . S
O114 C108 1.182 . S
O115 Zn106 1.898 . S
O115 C109 1.167 . S
O116 Zn107 2.120 . S
O116 C109 1.299 . S
O117 Zn105 1.898 . S
O117 C112 1.167 . S
O118 Zn107 2.120 . S
O118 C112 1.299 . S
O119 Zn107 2.114 . S
O119 C121 1.166 . S
O120 Zn105 1.905 . S
O120 C121 1.182 . S
C121 O119 1.166 . S
C121 O120 1.182 . S
O122 Zn107 2.080 . S
O122 C125 1.305 . S
O123 Zn106 1.920 . S
O123 C125 1.234 . S
C124 O110 1.305 . S
C124 O111 1.234 . S
C125 O122 1.305 . S
C125 O123 1.234 . S
Zn126 O132 1.920 . S
Zn126 O138 1.898 . S
Zn126 O141 1.905 . S
Zn127 O135 1.905 . S
Zn127 O136 1.898 . S
Zn127 O144 1.920 . S
Zn128 O131 2.080 . S
Zn128 O134 2.114 . S
Zn128 O137 2.120 . S
Zn128 O139 2.120 . S
Zn128 O140 2.114 . S
Zn128 O143 2.080 . S
C129 O134 1.166 . S
C129 O135 1.182 . S
C130 O136 1.167 . S
C130 O137 1.299 . S
O131 Zn128 2.080 . S
O131 C145 1.305 . S
O132 Zn126 1.920 . S
O132 C145 1.234 . S
C133 O138 1.167 . S
C133 O139 1.299 . S
O134 Zn128 2.114 . S
O134 C129 1.166 . S
O135 Zn127 1.905 . S
O135 C129 1.182 . S
O136 Zn127 1.898 . S
O136 C130 1.167 . S
O137 Zn128 2.120 . S
O137 C130 1.299 . S
O138 Zn126 1.898 . S
O138 C133 1.167 . S
O139 Zn128 2.120 . S
O139 C133 1.299 . S
O140 Zn128 2.114 . S
O140 C142 1.166 . S
O141 Zn126 1.905 . S
O141 C142 1.182 . S
C142 O140 1.166 . S
C142 O141 1.182 . S
O143 Zn128 2.080 . S
O143 C146 1.305 . S
O144 Zn127 1.920 . S
O144 C146 1.234 . S
C145 O131 1.305 . S
C145 O132 1.234 . S
C146 O143 1.305 . S
C146 O144 1.234 . S
Zn147 O153 1.920 . S
Zn147 O159 1.898 . S
Zn147 O162 1.905 . S
Zn148 O156 1.905 . S
Zn148 O157 1.898 . S
Zn148 O165 1.920 . S
Zn149 O152 2.080 . S
Zn149 O155 2.114 1_556 S
Zn149 O158 2.120 . S
Zn149 O160 2.120 . S
Zn149 O161 2.114 . S
Zn149 O164 2.080 1_556 S
C150 O155 1.166 . S
C150 O156 1.182 . S
C151 O157 1.167 1_556 S
C151 O158 1.299 . S
O152 Zn149 2.080 . S
O152 C166 1.305 . S
O153 Zn147 1.920 . S
O153 C166 1.234 . S
C154 O159 1.167 . S
C154 O160 1.299 . S
O155 Zn149 2.114 1_554 S
O155 C150 1.166 . S
O156 Zn148 1.905 . S
O156 C150 1.182 . S
O157 Zn148 1.898 . S
O157 C151 1.167 1_554 S
O158 Zn149 2.120 . S
O158 C151 1.299 . S
O159 Zn147 1.898 . S
O159 C154 1.167 . S
O160 Zn149 2.120 . S
O160 C154 1.299 . S
O161 Zn149 2.114 . S
O161 C163 1.166 . S
O162 Zn147 1.905 . S
O162 C163 1.182 . S
C163 O161 1.166 . S
C163 O162 1.182 . S
O164 Zn149 2.080 1_554 S
O164 C167 1.305 . S
O165 Zn148 1.920 . S
O165 C167 1.234 . S
C166 O152 1.305 . S
C166 O153 1.234 . S
C167 O164 1.305 . S
C167 O165 1.234 . S
Zn168 O174 1.920 . S
Zn168 O180 1.898 . S
Zn168 O183 1.905 . S
Zn169 O177 1.905 . S
Zn169 O178 1.898 . S
Zn169 O186 1.920 . S
Zn170 O173 2.080 . S
Zn170 O176 2.114 . S
Zn170 O179 2.120 . S
Zn170 O181 2.120 . S
Zn170 O182 2.114 . S
Zn170 O185 2.080 . S
C171 O176 1.166 . S
C171 O177 1.182 . S
C172 O178 1.167 . S
C172 O179 1.299 . S
O173 Zn170 2.080 . S
O173 C187 1.305 . S
O174 Zn168 1.920 . S
O174 C187 1.234 . S
C175 O180 1.167 . S
C175 O181 1.299 . S
O176 Zn170 2.114 . S
O176 C171 1.166 . S
O177 Zn169 1.905 . S
O177 C171 1.182 . S
O178 Zn169 1.898 . S
O178 C172 1.167 . S
O179 Zn170 2.120 . S
O179 C172 1.299 . S
O180 Zn168 1.898 . S
O180 C175 1.167 . S
O181 Zn170 2.120 . S
O181 C175 1.299 . S
O182 Zn170 2.114 . S
O182 C184 1.166 . S
O183 Zn168 1.905 . S
O183 C184 1.182 . S
C184 O182 1.166 . S
C184 O183 1.182 . S
O185 Zn170 2.080 . S
O185 C188 1.305 . S
O186 Zn169 1.920 . S
O186 C188 1.234 . S
C187 O173 1.305 . S
C187 O174 1.234 . S
C188 O185 1.305 . S
C188 O186 1.234 . S
Zn189 O195 1.920 . S
Zn189 O201 1.898 . S
Zn189 O204 1.905 . S
Zn190 O198 1.905 . S
Zn190 O199 1.898 . S
Zn190 O207 1.920 . S
Zn191 O194 2.080 . S
Zn191 O197 2.114 . S
Zn191 O200 2.120 . S
Zn191 O202 2.120 . S
Zn191 O203 2.114 . S
Zn191 O206 2.080 . S
C192 O197 1.166 . S
C192 O198 1.182 . S
C193 O199 1.167 . S
C193 O200 1.299 . S
O194 Zn191 2.080 . S
O194 C208 1.305 . S
O195 Zn189 1.920 . S
O195 C208 1.234 . S
C196 O201 1.167 . S
C196 O202 1.299 . S
O197 Zn191 2.114 . S
O197 C192 1.166 . S
O198 Zn190 1.905 . S
O198 C192 1.182 . S
O199 Zn190 1.898 . S
O199 C193 1.167 . S
O200 Zn191 2.120 . S
O200 C193 1.299 . S
O201 Zn189 1.898 . S
O201 C196 1.167 . S
O202 Zn191 2.120 . S
O202 C196 1.299 . S
O203 Zn191 2.114 . S
O203 C205 1.166 . S
O204 Zn189 1.905 . S
O204 C205 1.182 . S
C205 O203 1.166 . S
C205 O204 1.182 . S
O206 Zn191 2.080 . S
O206 C209 1.305 . S
O207 Zn190 1.920 . S
O207 C209 1.234 . S
C208 O194 1.305 . S
C208 O195 1.234 . S
C209 O206 1.305 . S
C209 O207 1.234 . S
Zn210 O216 1.920 . S
Zn210 O222 1.898 . S
Zn210 O225 1.905 . S
Zn211 O219 1.905 . S
Zn211 O220 1.898 . S
Zn211 O228 1.920 . S
Zn212 O215 2.080 . S
Zn212 O218 2.114 . S
Zn212 O221 2.120 . S
Zn212 O223 2.120 . S
Zn212 O224 2.114 . S
Zn212 O227 2.080 . S
C213 O218 1.166 . S
C213 O219 1.182 . S
C214 O220 1.167 . S
C214 O221 1.299 . S
O215 Zn212 2.080 . S
O215 C229 1.305 . S
O216 Zn210 1.920 . S
O216 C229 1.234 . S
C217 O222 1.167 . S
C217 O223 1.299 . S
O218 Zn212 2.114 . S
O218 C213 1.166 . S
O219 Zn211 1.905 . S
O219 C213 1.182 . S
O220 Zn211 1.898 . S
O220 C214 1.167 . S
O221 Zn212 2.120 . S
O221 C214 1.299 . S
O222 Zn210 1.898 . S
O222 C217 1.167 . S
O223 Zn212 2.120 . S
O223 C217 1.299 . S
O224 Zn212 2.114 . S
O224 C226 1.166 . S
O225 Zn210 1.905 . S
O225 C226 1.182 . S
C226 O224 1.166 . S
C226 O225 1.182 . S
O227 Zn212 2.080 . S
O227 C230 1.305 . S
O228 Zn211 1.920 . S
O228 C230 1.234 . S
C229 O215 1.305 . S
C229 O216 1.234 . S
C230 O227 1.305 . S
C230 O228 1.234 . S
Zn231 O237 1.920 . S
Zn231 O243 1.898 . S
Zn231 O246 1.905 . S
Zn232 O240 1.905 . S
Zn232 O241 1.898 . S
Zn232 O249 1.920 . S
Zn233 O236 2.080 1_556 S
Zn233 O239 2.114 . S
Zn233 O242 2.120 . S
Zn233 O244 2.120 . S
Zn233 O245 2.114 1_556 S
Zn233 O248 2.080 . S
C234 O239 1.166 . S
C234 O240 1.182 . S
C235 O241 1.167 . S
C235 O242 1.299 . S
O236 Zn233 2.080 1_554 S
O236 C250 1.305 . S
O237 Zn231 1.920 . S
O237 C250 1.234 . S
C238 O243 1.167 1_556 S
C238 O244 1.299 . S
O239 Zn233 2.114 . S
O239 C234 1.166 . S
O240 Zn232 1.905 . S
O240 C234 1.182 . S
O241 Zn232 1.898 . S
O241 C235 1.167 . S
O242 Zn233 2.120 . S
O242 C235 1.299 . S
O243 Zn231 1.898 . S
O243 C238 1.167 1_554 S
O244 Zn233 2.120 . S
O244 C238 1.299 . S
O245 Zn233 2.114 1_554 S
O245 C247 1.166 . S
O246 Zn231 1.905 . S
O246 C247 1.182 . S
C247 O245 1.166 . S
C247 O246 1.182 . S
O248 Zn233 2.080 . S
O248 C251 1.305 . S
O249 Zn232 1.920 . S
O249 C251 1.234 . S
C250 O236 1.305 . S
C250 O237 1.234 . S
C251 O248 1.305 . S
C251 O249 1.234 . S
Zn252 O258 1.920 . S
Zn252 O264 1.898 . S
Zn252 O267 1.905 . S
Zn253 O261 1.905 . S
Zn253 O262 1.898 . S
Zn253 O270 1.920 . S
Zn254 O257 2.080 . S
Zn254 O260 2.114 . S
Zn254 O263 2.120 . S
Zn254 O265 2.120 . S
Zn254 O266 2.114 . S
Zn254 O269 2.080 . S
C255 O260 1.166 . S
C255 O261 1.182 . S
C256 O262 1.167 . S
C256 O263 1.299 . S
O257 Zn254 2.080 . S
O257 C271 1.305 . S
O258 Zn252 1.920 . S
O258 C271 1.234 . S
C259 O264 1.167 . S
C259 O265 1.299 . S
O260 Zn254 2.114 . S
O260 C255 1.166 . S
O261 Zn253 1.905 . S
O261 C255 1.182 . S
O262 Zn253 1.898 . S
O262 C256 1.167 . S
O263 Zn254 2.120 . S
O263 C256 1.299 . S
O264 Zn252 1.898 . S
O264 C259 1.167 . S
O265 Zn254 2.120 . S
O265 C259 1.299 . S
O266 Zn254 2.114 . S
O266 C268 1.166 . S
O267 Zn252 1.905 . S
O267 C268 1.182 . S
C268 O266 1.166 . S
C268 O267 1.182 . S
O269 Zn254 2.080 . S
O269 C272 1.305 . S
O270 Zn253 1.920 . S
O270 C272 1.234 . S
C271 O257 1.305 . S
C271 O258 1.234 . S
C272 O269 1.305 . S
C272 O270 1.234 . S
Zn273 O279 1.920 . S
Zn273 O285 1.898 . S
Zn273 O288 1.905 . S
Zn274 O282 1.905 . S
Zn274 O283 1.898 . S
Zn274 O291 1.920 . S
Zn275 O278 2.080 . S
Zn275 O281 2.114 . S
Zn275 O284 2.120 . S
Zn275 O286 2.120 . S
Zn275 O287 2.114 . S
Zn275 O290 2.080 . S
C276 O281 1.166 . S
C276 O282 1.182 . S
C277 O283 1.167 . S
C277 O284 1.299 . S
O278 Zn275 2.080 . S
O278 C292 1.305 . S
O279 Zn273 1.920 . S
O279 C292 1.234 . S
C280 O285 1.167 . S
C280 O286 1.299 . S
O281 Zn275 2.114 . S
O281 C276 1.166 . S
O282 Zn274 1.905 . S
O282 C276 1.182 . S
O283 Zn274 1.898 . S
O283 C277 1.167 . S
O284 Zn275 2.120 . S
O284 C277 1.299 . S
O285 Zn273 1.898 . S
O285 C280 1.167 . S
O286 Zn275 2.120 . S
O286 C280 1.299 . S
O287 Zn275 2.114 . S
O287 C289 1.166 . S
O288 Zn273 1.905 . S
O288 C289 1.182 . S
C289 O287 1.166 . S
C289 O288 1.182 . S
O290 Zn275 2.080 . S
O290 C293 1.305 . S
O291 Zn274 1.920 . S
O291 C293 1.234 . S
C292 O278 1.305 . S
C292 O279 1.234 . S
C293 O290 1.305 . S
C293 O291 1.234 . S
Zn294 O300 1.920 . S
Zn294 O306 1.898 . S
Zn294 O309 1.905 . S
Zn295 O303 1.905 . S
Zn295 O304 1.898 . S
Zn295 O312 1.920 . S
Zn296 O299 2.080 . S
Zn296 O302 2.114 . S
Zn296 O305 2.120 . S
Zn296 O307 2.120 . S
Zn296 O308 2.114 . S
Zn296 O311 2.080 . S
C297 O302 1.166 . S
C297 O303 1.182 . S
C298 O304 1.167 . S
C298 O305 1.299 . S
O299 Zn296 2.080 . S
O299 C313 1.305 . S
O300 Zn294 1.920 . S
O300 C313 1.234 . S
C301 O306 1.167 . S
C301 O307 1.299 . S
O302 Zn296 2.114 . S
O302 C297 1.166 . S
O303 Zn295 1.905 . S
O303 C297 1.182 . S
O304 Zn295 1.898 . S
O304 C298 1.167 . S
O305 Zn296 2.120 . S
O305 C298 1.299 . S
O306 Zn294 1.898 . S
O306 C301 1.167 . S
O307 Zn296 2.120 . S
O307 C301 1.299 . S
O308 Zn296 2.114 . S
O308 C310 1.166 . S
O309 Zn294 1.905 . S
O309 C310 1.182 . S
C310 O308 1.166 . S
C310 O309 1.182 . S
O311 Zn296 2.080 . S
O311 C314 1.305 . S
O312 Zn295 1.920 . S
O312 C314 1.234 . S
C313 O299 1.305 . S
C313 O300 1.234 . S
C314 O311 1.305 . S
C314 O312 1.234 . S
Zn315 O321 1.920 . S
Zn315 O327 1.898 . S
Zn315 O330 1.905 . S
Zn316 O324 1.905 . S
Zn316 O325 1.898 . S
Zn316 O333 1.920 . S
Zn317 O320 2.080 . S
Zn317 O323 2.114 1_554 S
Zn317 O326 2.120 . S
Zn317 O328 2.120 . S
Zn317 O329 2.114 . S
Zn317 O332 2.080 1_554 S
C318 O323 1.166 . S
C318 O324 1.182 . S
C319 O325 1.167 1_554 S
C319 O326 1.299 . S
O320 Zn317 2.080 . S
O320 C334 1.305 . S
O321 Zn315 1.920 . S
O321 C334 1.234 . S
C322 O327 1.167 . S
C322 O328 1.299 . S
O323 Zn317 2.114 1_556 S
O323 C318 1.166 . S
O324 Zn316 1.905 . S
O324 C318 1.182 . S
O325 Zn316 1.898 . S
O325 C319 1.167 1_556 S
O326 Zn317 2.120 . S
O326 C319 1.299 . S
O327 Zn315 1.898 . S
O327 C322 1.167 . S
O328 Zn317 2.120 . S
O328 C322 1.299 . S
O329 Zn317 2.114 . S
O329 C331 1.166 . S
O330 Zn315 1.905 . S
O330 C331 1.182 . S
C331 O329 1.166 . S
C331 O330 1.182 . S
O332 Zn317 2.080 1_556 S
O332 C335 1.305 . S
O333 Zn316 1.920 . S
O333 C335 1.234 . S
C334 O320 1.305 . S
C334 O321 1.234 . S
C335 O332 1.305 . S
C335 O333 1.234 . S
Zn336 O342 1.920 . S
Zn336 O348 1.898 . S
Zn336 O351 1.905 . S
Zn337 O345 1.905 . S
Zn337 O346 1.898 . S
Zn337 O354 1.920 . S
Zn338 O341 2.080 . S
Zn338 O344 2.114 . S
Zn338 O347 2.120 . S
Zn338 O349 2.120 . S
Zn338 O350 2.114 . S
Zn338 O353 2.080 . S
C339 O344 1.166 . S
C339 O345 1.182 . S
C340 O346 1.167 . S
C340 O347 1.299 . S
O341 Zn338 2.080 . S
O341 C355 1.305 . S
O342 Zn336 1.920 . S
O342 C355 1.234 . S
C343 O348 1.167 . S
C343 O349 1.299 . S
O344 Zn338 2.114 . S
O344 C339 1.166 . S
O345 Zn337 1.905 . S
O345 C339 1.182 . S
O346 Zn337 1.898 . S
O346 C340 1.167 . S
O347 Zn338 2.120 . S
O347 C340 1.299 . S
O348 Zn336 1.898 . S
O348 C343 1.167 . S
O349 Zn338 2.120 . S
O349 C343 1.299 . S
O350 Zn338 2.114 . S
O350 C352 1.166 . S
O351 Zn336 1.905 . S
O351 C352 1.182 . S
C352 O350 1.166 . S
C352 O351 1.182 . S
O353 Zn338 2.080 . S
O353 C356 1.305 . S
O354 Zn337 1.920 . S
O354 C356 1.234 . S
C355 O341 1.305 . S
C355 O342 1.234 . S
C356 O353 1.305 . S
C356 O354 1.234 . S
Zn357 O363 1.920 . S
Zn357 O369 1.898 . S
Zn357 O372 1.905 . S
Zn358 O366 1.905 . S
Zn358 O367 1.898 . S
Zn358 O375 1.920 . S
Zn359 O362 2.080 1_554 S
Zn359 O365 2.114 . S
Zn359 O368 2.120 . S
Zn359 O370 2.120 . S
Zn359 O371 2.114 1_554 S
Zn359 O374 2.080 . S
C360 O365 1.166 . S
C360 O366 1.182 . S
C361 O367 1.167 . S
C361 O368 1.299 . S
O362 Zn359 2.080 1_556 S
O362 C376 1.305 . S
O363 Zn357 1.920 . S
O363 C376 1.234 . S
C364 O369 1.167 1_554 S
C364 O370 1.299 . S
O365 Zn359 2.114 . S
O365 C360 1.166 . S
O366 Zn358 1.905 . S
O366 C360 1.182 . S
O367 Zn358 1.898 . S
O367 C361 1.167 . S
O368 Zn359 2.120 . S
O368 C361 1.299 . S
O369 Zn357 1.898 . S
O369 C364 1.167 1_556 S
O370 Zn359 2.120 . S
O370 C364 1.299 . S
O371 Zn359 2.114 1_556 S
O371 C373 1.166 . S
O372 Zn357 1.905 . S
O372 C373 1.182 . S
C373 O371 1.166 . S
C373 O372 1.182 . S
O374 Zn359 2.080 . S
O374 C377 1.305 . S
O375 Zn358 1.920 . S
O375 C377 1.234 . S
C376 O362 1.305 . S
C376 O363 1.234 . S
C377 O374 1.305 . S
C377 O375 1.234 . S
Zn378 O384 1.920 . S
Zn378 O390 1.898 . S
Zn378 O393 1.905 . S
Zn379 O387 1.905 . S
Zn379 O388 1.898 . S
Zn379 O396 1.920 . S
Zn380 O383 2.080 . S
Zn380 O386 2.114 . S
Zn380 O389 2.120 . S
Zn380 O391 2.120 . S
Zn380 O392 2.114 . S
Zn380 O395 2.080 . S
C381 O386 1.166 . S
C381 O387 1.182 . S
C382 O388 1.167 . S
C382 O389 1.299 . S
O383 Zn380 2.080 . S
O383 C397 1.305 . S
O384 Zn378 1.920 . S
O384 C397 1.234 . S
C385 O390 1.167 . S
C385 O391 1.299 . S
O386 Zn380 2.114 . S
O386 C381 1.166 . S
O387 Zn379 1.905 . S
O387 C381 1.182 . S
O388 Zn379 1.898 . S
O388 C382 1.167 . S
O389 Zn380 2.120 . S
O389 C382 1.299 . S
O390 Zn378 1.898 . S
O390 C385 1.167 . S
O391 Zn380 2.120 . S
O391 C385 1.299 . S
O392 Zn380 2.114 . S
O392 C394 1.166 . S
O393 Zn378 1.905 . S
O393 C394 1.182 . S
C394 O392 1.166 . S
C394 O393 1.182 . S
O395 Zn380 2.080 . S
O395 C398 1.305 . S
O396 Zn379 1.920 . S
O396 C398 1.234 . S
C397 O383 1.305 . S
C397 O384 1.234 . S
C398 O395 1.305 . S
C398 O396 1.234 . S
Zn399 O405 1.920 . S
Zn399 O411 1.898 . S
Zn399 O414 1.905 . S
Zn400 O408 1.905 . S
Zn400 O409 1.898 . S
Zn400 O417 1.920 . S
Zn401 O404 2.080 . S
Zn401 O407 2.114 . S
Zn401 O410 2.120 . S
Zn401 O412 2.120 . S
Zn401 O413 2.114 . S
Zn401 O416 2.080 . S
C402 O407 1.166 . S
C402 O408 1.182 . S
C403 O409 1.167 . S
C403 O410 1.299 . S
O404 Zn401 2.080 . S
O404 C418 1.305 . S
O405 Zn399 1.920 . S
O405 C418 1.234 . S
C406 O411 1.167 . S
C406 O412 1.299 . S
O407 Zn401 2.114 . S
O407 C402 1.166 . S
O408 Zn400 1.905 . S
O408 C402 1.182 . S
O409 Zn400 1.898 . S
O409 C403 1.167 . S
O410 Zn401 2.120 . S
O410 C403 1.299 . S
O411 Zn399 1.898 . S
O411 C406 1.167 . S
O412 Zn401 2.120 . S
O412 C406 1.299 . S
O413 Zn401 2.114 . S
O413 C415 1.166 . S
O414 Zn399 1.905 . S
O414 C415 1.182 . S
C415 O413 1.166 . S
C415 O414 1.182 . S
O416 Zn401 2.080 . S
O416 C419 1.305 . S
O417 Zn400 1.920 . S
O417 C419 1.234 . S
C418 O404 1.305 . S
C418 O405 1.234 . S
C419 O416 1.305 . S
C419 O417 1.234 . S
Zn420 O426 1.920 . S
Zn420 O432 1.898 . S
Zn420 O435 1.905 . S
Zn421 O429 1.905 . S
Zn421 O430 1.898 . S
Zn421 O438 1.920 . S
Zn422 O425 2.080 . S
Zn422 O428 2.114 . S
Zn422 O431 2.120 . S
Zn422 O433 2.120 . S
Zn422 O434 2.114 . S
Zn422 O437 2.080 . S
C423 O428 1.166 . S
C423 O429 1.182 . S
C424 O430 1.167 . S
C424 O431 1.299 . S
O425 Zn422 2.080 . S
O425 C439 1.305 . S
O426 Zn420 1.920 . S
O426 C439 1.234 . S
C427 O432 1.167 . S
C427 O433 1.299 . S
O428 Zn422 2.114 . S
O428 C423 1.166 . S
O429 Zn421 1.905 . S
O429 C423 1.182 . S
O430 Zn421 1.898 . S
O430 C424 1.167 . S
O431 Zn422 2.120 . S
O431 C424 1.299 . S
O432 Zn420 1.898 . S
O432 C427 1.167 . S
O433 Zn422 2.120 . S
O433 C427 1.299 . S
O434 Zn422 2.114 . S
O434 C436 1.166 . S
O435 Zn420 1.905 . S
O435 C436 1.182 . S
C436 O434 1.166 . S
C436 O435 1.182 . S
O437 Zn422 2.080 . S
O437 C440 1.305 . S
O438 Zn421 1.920 . S
O438 C440 1.234 . S
C439 O425 1.305 . S
C439 O426 1.234 . S
C440 O437 1.305 . S
C440 O438 1.234 . S
Zn441 O447 1.920 . S
Zn441 O453 1.898 . S
Zn441 O456 1.905 . S
Zn442 O450 1.905 . S
Zn442 O451 1.898 . S
Zn442 O459 1.920 . S
Zn443 O446 2.080 . S
Zn443 O449 2.114 1_556 S
Zn443 O452 2.120 . S
Zn443 O454 2.120 . S
Zn443 O455 2.114 . S
Zn443 O458 2.080 1_556 S
C444 O449 1.166 . S
C444 O450 1.182 . S
C445 O451 1.167 1_556 S
C445 O452 1.299 . S
O446 Zn443 2.080 . S
O446 C460 1.305 . S
O447 Zn441 1.920 . S
O447 C460 1.234 . S
C448 O453 1.167 . S
C448 O454 1.299 . S
O449 Zn443 2.114 1_554 S
O449 C444 1.166 . S
O450 Zn442 1.905 . S
O450 C444 1.182 . S
O451 Zn442 1.898 . S
O451 C445 1.167 1_554 S
O452 Zn443 2.120 . S
O452 C445 1.299 . S
O453 Zn441 1.898 . S
O453 C448 1.167 . S
O454 Zn443 2.120 . S
O454 C448 1.299 . S
O455 Zn443 2.114 . S
O455 C457 1.166 . S
O456 Zn441 1.905 . S
O456 C457 1.182 . S
C457 O455 1.166 . S
C457 O456 1.182 . S
O458 Zn443 2.080 1_554 S
O458 C461 1.305 . S
O459 Zn442 1.920 . S
O459 C461 1.234 . S
C460 O446 1.305 . S
C460 O447 1.234 . S
C461 O458 1.305 . S
C461 O459 1.234 . S
Zn462 O468 1.920 . S
Zn462 O474 1.898 . S
Zn462 O477 1.905 . S
Zn463 O471 1.905 . S
Zn463 O472 1.898 . S
Zn463 O480 1.920 . S
Zn464 O467 2.080 . S
Zn464 O470 2.114 . S
Zn464 O473 2.120 . S
Zn464 O475 2.120 . S
Zn464 O476 2.114 . S
Zn464 O479 2.080 . S
C465 O470 1.166 . S
C465 O471 1.182 . S
C466 O472 1.167 . S
C466 O473 1.299 . S
O467 Zn464 2.080 . S
O467 C481 1.305 . S
O468 Zn462 1.920 . S
O468 C481 1.234 . S
C469 O474 1.167 . S
C469 O475 1.299 . S
O470 Zn464 2.114 . S
O470 C465 1.166 . S
O471 Zn463 1.905 . S
O471 C465 1.182 . S
O472 Zn463 1.898 . S
O472 C466 1.167 . S
O473 Zn464 2.120 . S
O473 C466 1.299 . S
O474 Zn462 1.898 . S
O474 C469 1.167 . S
O475 Zn464 2.120 . S
O475 C469 1.299 . S
O476 Zn464 2.114 . S
O476 C478 1.166 . S
O477 Zn462 1.905 . S
O477 C478 1.182 . S
C478 O476 1.166 . S
C478 O477 1.182 . S
O479 Zn464 2.080 . S
O479 C482 1.305 . S
O480 Zn463 1.920 . S
O480 C482 1.234 . S
C481 O467 1.305 . S
C481 O468 1.234 . S
C482 O479 1.305 . S
C482 O480 1.234 . S
Zn483 O489 1.920 . S
Zn483 O495 1.898 . S
Zn483 O498 1.905 . S
Zn484 O492 1.905 . S
Zn484 O493 1.898 . S
Zn484 O501 1.920 . S
Zn485 O488 2.080 . S
Zn485 O491 2.114 . S
Zn485 O494 2.120 . S
Zn485 O496 2.120 . S
Zn485 O497 2.114 . S
Zn485 O500 2.080 . S
C486 O491 1.166 . S
C486 O492 1.182 . S
C487 O493 1.167 . S
C487 O494 1.299 . S
O488 Zn485 2.080 . S
O488 C502 1.305 . S
O489 Zn483 1.920 . S
O489 C502 1.234 . S
C490 O495 1.167 . S
C490 O496 1.299 . S
O491 Zn485 2.114 . S
O491 C486 1.166 . S
O492 Zn484 1.905 . S
O492 C486 1.182 . S
O493 Zn484 1.898 . S
O493 C487 1.167 . S
O494 Zn485 2.120 . S
O494 C487 1.299 . S
O495 Zn483 1.898 . S
O495 C490 1.167 . S
O496 Zn485 2.120 . S
O496 C490 1.299 . S
O497 Zn485 2.114 . S
O497 C499 1.166 . S
O498 Zn483 1.905 . S
O498 C499 1.182 . S
C499 O497 1.166 . S
C499 O498 1.182 . S
O500 Zn485 2.080 . S
O500 C503 1.305 . S
O501 Zn484 1.920 . S
O501 C503 1.234 . S
C502 O488 1.305 . S
C502 O489 1.234 . S
C503 O500 1.305 . S
C503 O501 1.234 . S
Zn504 O510 1.920 . S
Zn504 O516 1.898 . S
Zn504 O519 1.905 . S
Zn505 O513 1.905 . S
Zn505 O514 1.898 . S
Zn505 O522 1.920 . S
Zn506 O509 2.080 . S
Zn506 O512 2.114 . S
Zn506 O515 2.120 . S
Zn506 O517 2.120 . S
Zn506 O518 2.114 . S
Zn506 O521 2.080 . S
C507 O512 1.166 . S
C507 O513 1.182 . S
C508 O514 1.167 . S
C508 O515 1.299 . S
O509 Zn506 2.080 . S
O509 C523 1.305 . S
O510 Zn504 1.920 . S
O510 C523 1.234 . S
C511 O516 1.167 . S
C511 O517 1.299 . S
O512 Zn506 2.114 . S
O512 C507 1.166 . S
O513 Zn505 1.905 . S
O513 C507 1.182 . S
O514 Zn505 1.898 . S
O514 C508 1.167 . S
O515 Zn506 2.120 . S
O515 C508 1.299 . S
O516 Zn504 1.898 . S
O516 C511 1.167 . S
O517 Zn506 2.120 . S
O517 C511 1.299 . S
O518 Zn506 2.114 . S
O518 C520 1.166 . S
O519 Zn504 1.905 . S
O519 C520 1.182 . S
C520 O518 1.166 . S
C520 O519 1.182 . S
O521 Zn506 2.080 . S
O521 C524 1.305 . S
O522 Zn505 1.920 . S
O522 C524 1.234 . S
C523 O509 1.305 . S
C523 O510 1.234 . S
C524 O521 1.305 . S
C524 O522 1.234 . S
Zn525 O531 1.920 . S
Zn525 O537 1.898 . S
Zn525 O540 1.905 . S
Zn526 O534 1.905 . S
Zn526 O535 1.898 . S
Zn526 O543 1.920 . S
Zn527 O530 2.080 1_556 S
Zn527 O533 2.114 . S
Zn527 O536 2.120 . S
Zn527 O538 2.120 . S
Zn527 O539 2.114 1_556 S
Zn527 O542 2.080 . S
C528 O533 1.166 . S
C528 O534 1.182 . S
C529 O535 1.167 . S
C529 O536 1.299 . S
O530 Zn527 2.080 1_554 S
O530 C544 1.305 . S
O531 Zn525 1.920 . S
O531 C544 1.234 . S
C532 O537 1.167 1_556 S
C532 O538 1.299 . S
O533 Zn527 2.114 . S
O533 C528 1.166 . S
O534 Zn526 1.905 . S
O534 C528 1.182 . S
O535 Zn526 1.898 . S
O535 C529 1.167 . S
O536 Zn527 2.120 . S
O536 C529 1.299 . S
O537 Zn525 1.898 . S
O537 C532 1.167 1_554 S
O538 Zn527 2.120 . S
O538 C532 1.299 . S
O539 Zn527 2.114 1_554 S
O539 C541 1.166 . S
O540 Zn525 1.905 . S
O540 C541 1.182 . S
C541 O539 1.166 . S
C541 O540 1.182 . S
O542 Zn527 2.080 . S
O542 C545 1.305 . S
O543 Zn526 1.920 . S
O543 C545 1.234 . S
C544 O530 1.305 . S
C544 O531 1.234 . S
C545 O542 1.305 . S
C545 O543 1.234 . S
Zn546 O552 1.920 . S
Zn546 O558 1.898 . S
Zn546 O561 1.905 . S
Zn547 O555 1.905 . S
Zn547 O556 1.898 . S
Zn547 O564 1.920 . S
Zn548 O551 2.080 . S
Zn548 O554 2.114 . S
Zn548 O557 2.120 . S
Zn548 O559 2.120 . S
Zn548 O560 2.114 . S
Zn548 O563 2.080 . S
C549 O554 1.166 . S
C549 O555 1.182 . S
C550 O556 1.167 . S
C550 O557 1.299 . S
O551 Zn548 2.080 . S
O551 C565 1.305 . S
O552 Zn546 1.920 . S
O552 C565 1.234 . S
C553 O558 1.167 . S
C553 O559 1.299 . S
O554 Zn548 2.114 . S
O554 C549 1.166 . S
O555 Zn547 1.905 . S
O555 C549 1.182 . S
O556 Zn547 1.898 . S
O556 C550 1.167 . S
O557 Zn548 2.120 . S
O557 C550 1.299 . S
O558 Zn546 1.898 . S
O558 C553 1.167 . S
O559 Zn548 2.120 . S
O559 C553 1.299 . S
O560 Zn548 2.114 . S
O560 C562 1.166 . S
O561 Zn546 1.905 . S
O561 C562 1.182 . S
C562 O560 1.166 . S
C562 O561 1.182 . S
O563 Zn548 2.080 . S
O563 C566 1.305 . S
O564 Zn547 1.920 . S
O564 C566 1.234 . S
C565 O551 1.305 . S
C565 O552 1.234 . S
C566 O563 1.305 . S
C566 O564 1.234 . S
Zn567 O573 1.920 . S
Zn567 O579 1.898 . S
Zn567 O582 1.905 . S
Zn568 O576 1.905 . S
Zn568 O577 1.898 . S
Zn568 O585 1.920 . S
Zn569 O572 2.080 . S
Zn569 O575 2.114 . S
Zn569 O578 2.120 . S
Zn569 O580 2.120 . S
Zn569 O581 2.114 . S
Zn569 O584 2.080 . S
C570 O575 1.166 . S
C570 O576 1.182 . S
C571 O577 1.167 . S
C571 O578 1.299 . S
O572 Zn569 2.080 . S
O572 C586 1.305 . S
O573 Zn567 1.920 . S
O573 C586 1.234 . S
C574 O579 1.167 . S
C574 O580 1.299 . S
O575 Zn569 2.114 . S
O575 C570 1.166 . S
O576 Zn568 1.905 . S
O576 C570 1.182 . S
O577 Zn568 1.898 . S
O577 C571 1.167 . S
O578 Zn569 2.120 . S
O578 C571 1.299 . S
O579 Zn567 1.898 . S
O579 C574 1.167 . S
O580 Zn569 2.120 . S
O580 C574 1.299 . S
O581 Zn569 2.114 . S
O581 C583 1.166 . S
O582 Zn567 1.905 . S
O582 C583 1.182 . S
C583 O581 1.166 . S
C583 O582 1.182 . S
O584 Zn569 2.080 . S
O584 C587 1.305 . S
O585 Zn568 1.920 . S
O585 C587 1.234 . S
C586 O572 1.305 . S
C586 O573 1.234 . S
C587 O584 1.305 . S
C587 O585 1.234 . S
Zn588 O594 1.920 . S
Zn588 O600 1.898 . S
Zn588 O603 1.905 . S
Zn589 O597 1.905 . S
Zn589 O598 1.898 . S
Zn589 O606 1.920 . S
Zn590 O593 2.080 . S
Zn590 O596 2.114 . S
Zn590 O599 2.120 . S
Zn590 O601 2.120 . S
Zn590 O602 2.114 . S
Zn590 O605 2.080 . S
C591 O596 1.166 . S
C591 O597 1.182 . S
C592 O598 1.167 . S
C592 O599 1.299 . S
O593 Zn590 2.080 . S
O593 C607 1.305 . S
O594 Zn588 1.920 . S
O594 C607 1.234 . S
C595 O600 1.167 . S
C595 O601 1.299 . S
O596 Zn590 2.114 . S
O596 C591 1.166 . S
O597 Zn589 1.905 . S
O597 C591 1.182 . S
O598 Zn589 1.898 . S
O598 C592 1.167 . S
O599 Zn590 2.120 . S
O599 C592 1.299 . S
O600 Zn588 1.898 . S
O600 C595 1.167 . S
O601 Zn590 2.120 . S
O601 C595 1.299 . S
O602 Zn590 2.114 . S
O602 C604 1.166 . S
O603 Zn588 1.905 . S
O603 C604 1.182 . S
C604 O602 1.166 . S
C604 O603 1.182 . S
O605 Zn590 2.080 . S
O605 C608 1.305 . S
O606 Zn589 1.920 . S
O606 C608 1.234 . S
C607 O593 1.305 . S
C607 O594 1.234 . S
C608 O605 1.305 . S
C608 O606 1.234 . S
Zn609 O615 1.920 . S
Zn609 O621 1.898 . S
Zn609 O624 1.905 . S
Zn610 O618 1.905 . S
Zn610 O619 1.898 . S
Zn610 O627 1.920 . S
Zn611 O614 2.080 1_554 S
Zn611 O617 2.114 . S
Zn611 O620 2.120 . S
Zn611 O622 2.120 . S
Zn611 O623 2.114 1_554 S
Zn611 O626 2.080 . S
C612 O617 1.166 . S
C612 O618 1.182 . S
C613 O619 1.167 . S
C613 O620 1.299 . S
O614 Zn611 2.080 1_556 S
O614 C628 1.305 . S
O615 Zn609 1.920 . S
O615 C628 1.234 . S
C616 O621 1.167 1_554 S
C616 O622 1.299 . S
O617 Zn611 2.114 . S
O617 C612 1.166 . S
O618 Zn610 1.905 . S
O618 C612 1.182 . S
O619 Zn610 1.898 . S
O619 C613 1.167 . S
O620 Zn611 2.120 . S
O620 C613 1.299 . S
O621 Zn609 1.898 . S
O621 C616 1.167 1_556 S
O622 Zn611 2.120 . S
O622 C616 1.299 . S
O623 Zn611 2.114 1_556 S
O623 C625 1.166 . S
O624 Zn609 1.905 . S
O624 C625 1.182 . S
C625 O623 1.166 . S
C625 O624 1.182 . S
O626 Zn611 2.080 . S
O626 C629 1.305 . S
O627 Zn610 1.920 . S
O627 C629 1.234 . S
C628 O614 1.305 . S
C628 O615 1.234 . S
C629 O626 1.305 . S
C629 O627 1.234 . S
Zn630 O636 1.920 . S
Zn630 O642 1.898 . S
Zn630 O645 1.905 . S
Zn631 O639 1.905 . S
Zn631 O640 1.898 . S
Zn631 O648 1.920 . S
Zn632 O635 2.080 . S
Zn632 O638 2.114 . S
Zn632 O641 2.120 . S
Zn632 O643 2.120 . S
Zn632 O644 2.114 . S
Zn632 O647 2.080 . S
C633 O638 1.166 . S
C633 O639 1.182 . S
C634 O640 1.167 . S
C634 O641 1.299 . S
O635 Zn632 2.080 . S
O635 C649 1.305 . S
O636 Zn630 1.920 . S
O636 C649 1.234 . S
C637 O642 1.167 . S
C637 O643 1.299 . S
O638 Zn632 2.114 . S
O638 C633 1.166 . S
O639 Zn631 1.905 . S
O639 C633 1.182 . S
O640 Zn631 1.898 . S
O640 C634 1.167 . S
O641 Zn632 2.120 . S
O641 C634 1.299 . S
O642 Zn630 1.898 . S
O642 C637 1.167 . S
O643 Zn632 2.120 . S
O643 C637 1.299 . S
O644 Zn632 2.114 . S
O644 C646 1.166 . S
O645 Zn630 1.905 . S
O645 C646 1.182 . S
C646 O644 1.166 . S
C646 O645 1.182 . S
O647 Zn632 2.080 . S
O647 C650 1.305 . S
O648 Zn631 1.920 . S
O648 C650 1.234 . S
C649 O635 1.305 . S
C649 O636 1.234 . S
C650 O647 1.305 . S
C650 O648 1.234 . S
Zn651 O657 1.920 . S
Zn651 O663 1.898 . S
Zn651 O666 1.905 . S
Zn652 O660 1.905 . S
Zn652 O661 1.898 . S
Zn652 O669 1.920 . S
Zn653 O656 2.080 . S
Zn653 O659 2.114 . S
Zn653 O662 2.120 . S
Zn653 O664 2.120 . S
Zn653 O665 2.114 . S
Zn653 O668 2.080 . S
C654 O659 1.166 . S
C654 O660 1.182 . S
C655 O661 1.167 . S
C655 O662 1.299 . S
O656 Zn653 2.080 . S
O656 C670 1.305 . S
O657 Zn651 1.920 . S
O657 C670 1.234 . S
C658 O663 1.167 . S
C658 O664 1.299 . S
O659 Zn653 2.114 . S
O659 C654 1.166 . S
O660 Zn652 1.905 . S
O660 C654 1.182 . S
O661 Zn652 1.898 . S
O661 C655 1.167 . S
O662 Zn653 2.120 . S
O662 C655 1.299 . S
O663 Zn651 1.898 . S
O663 C658 1.167 . S
O664 Zn653 2.120 . S
O664 C658 1.299 . S
O665 Zn653 2.114 . S
O665 C667 1.166 . S
O666 Zn651 1.905 . S
O666 C667 1.182 . S
C667 O665 1.166 . S
C667 O666 1.182 . S
O668 Zn653 2.080 . S
O668 C671 1.305 . S
O669 Zn652 1.920 . S
O669 C671 1.234 . S
C670 O656 1.305 . S
C670 O657 1.234 . S
C671 O668 1.305 . S
C671 O669 1.234 . S
C672 C673 1.369 . S
C672 C674 1.419 1_545 S
C672 H676 0.930 . S
C673 C672 1.369 . S
C673 C682 1.429 . S
C674 C672 1.419 1_565 S
C674 C675 1.363 . S
C674 H677 0.929 . S
C675 C674 1.363 . S
C675 C681 1.428 . S
H676 C672 0.930 . S
H677 C674 0.929 . S
S678 N679 1.613 1_565 S
S678 N680 1.610 . S
N679 S678 1.613 1_545 S
N679 C682 1.350 . S
N680 S678 1.610 . S
N680 C681 1.351 . S
C681 C675 1.428 . S
C681 N680 1.351 . S
C681 C682 1.434 1_565 S
C682 C673 1.429 . S
C682 N679 1.350 . S
C682 C681 1.434 1_545 S
C683 C684 1.369 . S
C683 C685 1.419 . S
C683 H687 0.930 . S
C684 C683 1.369 . S
C684 C693 1.429 . S
C685 C683 1.419 . S
C685 C686 1.363 . S
C685 H688 0.929 . S
C686 C685 1.363 . S
C686 C692 1.428 . S
H687 C683 0.930 . S
H688 C685 0.929 . S
S689 N690 1.613 . S
S689 N691 1.610 . S
N690 S689 1.613 . S
N690 C693 1.350 . S
N691 S689 1.610 . S
N691 C692 1.351 . S
C692 C686 1.428 . S
C692 N691 1.351 . S
C692 C693 1.434 . S
C693 C684 1.429 . S
C693 N690 1.350 . S
C693 C692 1.434 . S
C694 C695 1.369 . S
C694 C696 1.419 1_545 S
C694 H698 0.930 . S
C695 C694 1.369 . S
C695 C704 1.429 . S
C696 C694 1.419 1_565 S
C696 C697 1.363 . S
C696 H699 0.929 . S
C697 C696 1.363 . S
C697 C703 1.428 . S
H698 C694 0.930 . S
H699 C696 0.929 . S
S700 N701 1.613 . S
S700 N702 1.610 1_545 S
N701 S700 1.613 . S
N701 C704 1.350 . S
N702 S700 1.610 1_565 S
N702 C703 1.351 . S
C703 C697 1.428 . S
C703 N702 1.351 . S
C703 C704 1.434 1_565 S
C704 C695 1.429 . S
C704 N701 1.350 . S
C704 C703 1.434 1_545 S
C705 C706 1.369 . S
C705 C707 1.419 1_554 S
C705 H709 0.930 . S
C706 C705 1.369 . S
C706 C715 1.429 . S
C707 C705 1.419 1_556 S
C707 C708 1.363 . S
C707 H710 0.929 . S
C708 C707 1.363 . S
C708 C714 1.428 . S
H709 C705 0.930 . S
H710 C707 0.929 . S
S711 N712 1.613 . S
S711 N713 1.622 . S
N712 S711 1.613 . S
N712 C715 1.350 . S
N713 S711 1.622 . S
N713 C714 1.350 1_554 S
C714 C708 1.428 . S
C714 N713 1.350 1_556 S
C714 C715 1.434 1_556 S
C715 C706 1.429 . S
C715 N712 1.350 . S
C715 C714 1.434 1_554 S
C716 C717 1.369 . S
C716 C718 1.419 1_565 S
C716 H720 0.930 . S
C717 C716 1.369 . S
C717 C726 1.429 . S
C718 C716 1.419 1_545 S
C718 C719 1.363 . S
C718 H721 0.929 . S
C719 C718 1.363 . S
C719 C725 1.428 . S
H720 C716 0.930 . S
H721 C718 0.929 . S
S722 N723 1.613 1_545 S
S722 N724 1.610 . S
N723 S722 1.613 1_565 S
N723 C726 1.350 . S
N724 S722 1.610 . S
N724 C725 1.351 . S
C725 C719 1.428 . S
C725 N724 1.351 . S
C725 C726 1.434 1_545 S
C726 C717 1.429 . S
C726 N723 1.350 . S
C726 C725 1.434 1_565 S
C727 C728 1.369 . S
C727 C729 1.419 . S
C727 H731 0.930 . S
C728 C727 1.369 . S
C728 C737 1.429 . S
C729 C727 1.419 . S
C729 C730 1.363 . S
C729 H732 0.929 . S
C730 C729 1.363 . S
C730 C736 1.428 . S
H731 C727 0.930 . S
H732 C729 0.929 . S
S733 N734 1.613 . S
S733 N735 1.610 . S
N734 S733 1.613 . S
N734 C737 1.350 . S
N735 S733 1.610 . S
N735 C736 1.351 . S
C736 C730 1.428 . S
C736 N735 1.351 . S
C736 C737 1.434 . S
C737 C728 1.429 . S
C737 N734 1.350 . S
C737 C736 1.434 . S
C738 C739 1.369 . S
C738 C740 1.419 1_545 S
C738 H742 0.930 . S
C739 C738 1.369 . S
C739 C748 1.429 . S
C740 C738 1.419 1_565 S
C740 C741 1.363 . S
C740 H743 0.929 . S
C741 C740 1.363 . S
C741 C747 1.428 . S
H742 C738 0.930 . S
H743 C740 0.929 . S
S744 N745 1.613 . S
S744 N746 1.610 1_545 S
N745 S744 1.613 . S
N745 C748 1.350 . S
N746 S744 1.610 1_565 S
N746 C747 1.351 . S
C747 C741 1.428 . S
C747 N746 1.351 . S
C747 C748 1.434 1_565 S
C748 C739 1.429 . S
C748 N745 1.350 . S
C748 C747 1.434 1_545 S
C749 C750 1.369 1_556 S
C749 C751 1.419 . S
C749 H753 0.930 . S
C750 C749 1.369 1_554 S
C750 C759 1.429 . S
C751 C749 1.419 . S
C751 C752 1.363 . S
C751 H754 0.929 . S
C752 C751 1.363 . S
C752 C758 1.428 1_556 S
H753 C749 0.930 . S
H754 C751 0.929 . S
S755 N756 1.613 . S
S755 N757 1.610 . S
N756 S755 1.613 . S
N756 C759 1.350 . S
N757 S755 1.610 . S
N757 C758 1.351 . S
C758 C752 1.428 1_554 S
C758 N757 1.351 . S
C758 C759 1.434 . S
C759 C750 1.429 . S
C759 N756 1.350 . S
C759 C758 1.434 . S
C760 C761 1.369 . S
C760 C762 1.419 . S
C760 H764 0.930 . S
C761 C760 1.369 . S
C761 C770 1.429 . S
C762 C760 1.419 . S
C762 C763 1.363 . S
C762 H765 0.929 . S
C763 C762 1.363 . S
C763 C769 1.428 . S
H764 C760 0.930 . S
H765 C762 0.929 . S
S766 N767 1.613 . S
S766 N768 1.610 . S
N767 S766 1.613 . S
N767 C770 1.350 . S
N768 S766 1.610 . S
N768 C769 1.351 . S
C769 C763 1.428 . S
C769 N768 1.351 . S
C769 C770 1.434 . S
C770 C761 1.429 . S
C770 N767 1.350 . S
C770 C769 1.434 . S
C771 C772 1.369 . S
C771 C773 1.419 . S
C771 H775 0.930 . S
C772 C771 1.369 . S
C772 C781 1.429 1_556 S
C773 C771 1.419 . S
C773 C774 1.363 1_556 S
C773 H776 0.929 . S
C774 C773 1.363 1_554 S
C774 C780 1.428 . S
H775 C771 0.930 . S
H776 C773 0.929 . S
S777 N778 1.613 . S
S777 N779 1.610 . S
N778 S777 1.613 . S
N778 C781 1.350 . S
N779 S777 1.610 . S
N779 C780 1.351 . S
C780 C774 1.428 . S
C780 N779 1.351 . S
C780 C781 1.434 . S
C781 C772 1.429 1_554 S
C781 N778 1.350 . S
C781 C780 1.434 . S
C782 C783 1.369 . S
C782 C784 1.419 . S
C782 H786 0.930 . S
C783 C782 1.369 . S
C783 C792 1.429 . S
C784 C782 1.419 . S
C784 C785 1.363 . S
C784 H787 0.929 . S
C785 C784 1.363 . S
C785 C791 1.428 . S
H786 C782 0.930 . S
H787 C784 0.929 . S
S788 N789 1.613 . S
S788 N790 1.610 . S
N789 S788 1.613 . S
N789 C792 1.350 . S
N790 S788 1.610 . S
N790 C791 1.351 . S
C791 C785 1.428 . S
C791 N790 1.351 . S
C791 C792 1.434 . S
C792 C783 1.429 . S
C792 N789 1.350 . S
C792 C791 1.434 . S
C793 C794 1.369 . S
C793 C795 1.419 . S
C793 H797 0.930 . S
C794 C793 1.369 . S
C794 C803 1.429 . S
C795 C793 1.419 . S
C795 C796 1.363 . S
C795 H798 0.929 . S
C796 C795 1.363 . S
C796 C802 1.428 . S
H797 C793 0.930 . S
H798 C795 0.929 . S
S799 N800 1.613 . S
S799 N801 1.610 . S
N800 S799 1.613 . S
N800 C803 1.350 . S
N801 S799 1.610 . S
N801 C802 1.351 . S
C802 C796 1.428 . S
C802 N801 1.351 . S
C802 C803 1.434 . S
C803 C794 1.429 . S
C803 N800 1.350 . S
C803 C802 1.434 . S
C804 C805 1.369 . S
C804 C806 1.419 . S
C804 H808 0.930 . S
C805 C804 1.369 . S
C805 C814 1.429 . S
C806 C804 1.419 . S
C806 C807 1.363 . S
C806 H809 0.929 . S
C807 C806 1.363 . S
C807 C813 1.428 . S
H808 C804 0.930 . S
H809 C806 0.929 . S
S810 N811 1.613 . S
S810 N812 1.610 . S
N811 S810 1.613 . S
N811 C814 1.350 . S
N812 S810 1.610 . S
N812 C813 1.351 . S
C813 C807 1.428 . S
C813 N812 1.351 . S
C813 C814 1.434 . S
C814 C805 1.429 . S
C814 N811 1.350 . S
C814 C813 1.434 . S
C815 C816 1.369 . S
C815 C817 1.419 . S
C815 H819 0.930 . S
C816 C815 1.369 . S
C816 C825 1.429 1_556 S
C817 C815 1.419 . S
C817 C818 1.363 1_556 S
C817 H820 0.929 . S
C818 C817 1.363 1_554 S
C818 C824 1.428 . S
H819 C815 0.930 . S
H820 C817 0.929 . S
S821 N822 1.613 . S
S821 N823 1.610 . S
N822 S821 1.613 . S
N822 C825 1.350 . S
N823 S821 1.610 . S
N823 C824 1.351 . S
C824 C818 1.428 . S
C824 N823 1.351 . S
C824 C825 1.434 . S
C825 C816 1.429 1_554 S
C825 N822 1.350 . S
C825 C824 1.434 . S
C826 C827 1.369 . S
C826 C828 1.419 . S
C826 H830 0.930 . S
C827 C826 1.369 . S
C827 C836 1.429 . S
C828 C826 1.419 . S
C828 C829 1.363 . S
C828 H831 0.929 . S
C829 C828 1.363 . S
C829 C835 1.428 . S
H830 C826 0.930 . S
H831 C828 0.929 . S
S832 N833 1.613 . S
S832 N834 1.610 . S
N833 S832 1.613 . S
N833 C836 1.350 . S
N834 S832 1.610 . S
N834 C835 1.351 . S
C835 C829 1.428 . S
C835 N834 1.351 . S
C835 C836 1.434 . S
C836 C827 1.429 . S
C836 N833 1.350 . S
C836 C835 1.434 . S
C837 C838 1.369 . S
C837 C839 1.419 . S
C837 H841 0.930 . S
C838 C837 1.369 . S
C838 C847 1.429 . S
C839 C837 1.419 . S
C839 C840 1.363 . S
C839 H842 0.929 . S
C840 C839 1.363 . S
C840 C846 1.428 . S
H841 C837 0.930 . S
H842 C839 0.929 . S
S843 N844 1.613 . S
S843 N845 1.610 . S
N844 S843 1.613 . S
N844 C847 1.350 . S
N845 S843 1.610 . S
N845 C846 1.351 . S
C846 C840 1.428 . S
C846 N845 1.351 . S
C846 C847 1.434 . S
C847 C838 1.429 . S
C847 N844 1.350 . S
C847 C846 1.434 . S
C848 C849 1.369 . S
C848 C850 1.419 . S
C848 H852 0.930 . S
C849 C848 1.369 . S
C849 C858 1.429 . S
C850 C848 1.419 . S
C850 C851 1.363 . S
C850 H853 0.929 . S
C851 C850 1.363 . S
C851 C857 1.428 . S
H852 C848 0.930 . S
H853 C850 0.929 . S
S854 N855 1.613 . S
S854 N856 1.610 . S
N855 S854 1.613 . S
N855 C858 1.350 . S
N856 S854 1.610 . S
N856 C857 1.351 . S
C857 C851 1.428 . S
C857 N856 1.351 . S
C857 C858 1.434 . S
C858 C849 1.429 . S
C858 N855 1.350 . S
C858 C857 1.434 . S
C859 C860 1.369 1_565 S
C859 C861 1.397 1_655 S
C859 H863 0.930 . S
C860 C859 1.369 1_545 S
C860 C869 1.431 . S
C861 C859 1.397 1_455 S
C861 C862 1.386 . S
C861 H864 0.929 . S
C862 C861 1.386 . S
C862 C868 1.428 1_565 S
H863 C859 0.930 . S
H864 C861 0.929 . S
S865 N866 1.613 . S
S865 N867 1.610 . S
N866 S865 1.613 . S
N866 C869 1.350 1_455 S
N867 S865 1.610 . S
N867 C868 1.351 . S
C868 C862 1.428 1_545 S
C868 N867 1.351 . S
C868 C869 1.431 1_455 S
C869 C860 1.431 . S
C869 N866 1.350 1_655 S
C869 C868 1.431 1_655 S
C870 C871 1.369 . S
C870 C872 1.419 . S
C870 H874 0.930 . S
C871 C870 1.369 . S
C871 C880 1.429 . S
C872 C870 1.419 . S
C872 C873 1.363 . S
C872 H875 0.929 . S
C873 C872 1.363 . S
C873 C879 1.428 . S
H874 C870 0.930 . S
H875 C872 0.929 . S
S876 N877 1.613 . S
S876 N878 1.610 . S
N877 S876 1.613 . S
N877 C880 1.350 . S
N878 S876 1.610 . S
N878 C879 1.351 . S
C879 C873 1.428 . S
C879 N878 1.351 . S
C879 C880 1.434 . S
C880 C871 1.429 . S
C880 N877 1.350 . S
C880 C879 1.434 . S
C881 C882 1.363 1_564 S
C881 C883 1.419 . S
C881 H885 0.930 . S
C882 C881 1.363 1_546 S
C882 C891 1.436 . S
C883 C881 1.419 . S
C883 C884 1.365 . S
C883 H886 0.929 . S
C884 C883 1.365 . S
C884 C890 1.426 1_564 S
H885 C881 0.930 . S
H886 C883 0.929 . S
S887 N888 1.613 . S
S887 N889 1.610 . S
N888 S887 1.613 . S
N888 C891 1.350 . S
N889 S887 1.610 . S
N889 C890 1.351 . S
C890 C884 1.426 1_546 S
C890 N889 1.351 . S
C890 C891 1.434 . S
C891 C882 1.436 . S
C891 N888 1.350 . S
C891 C890 1.434 . S
C892 C893 1.369 . S
C892 C894 1.419 . S
C892 H896 0.930 . S
C893 C892 1.369 . S
C893 C902 1.429 . S
C894 C892 1.419 . S
C894 C895 1.363 . S
C894 H897 0.929 . S
C895 C894 1.363 . S
C895 C901 1.428 . S
H896 C892 0.930 . S
H897 C894 0.929 . S
S898 N899 1.613 . S
S898 N900 1.610 . S
N899 S898 1.613 . S
N899 C902 1.350 . S
N900 S898 1.610 . S
N900 C901 1.351 . S
C901 C895 1.428 . S
C901 N900 1.351 . S
C901 C902 1.434 . S
C902 C893 1.429 . S
C902 N899 1.350 . S
C902 C901 1.434 . S
C903 C904 1.369 . S
C903 C905 1.419 1_565 S
C903 H907 0.930 . S
C904 C903 1.369 . S
C904 C913 1.429 . S
C905 C903 1.419 1_545 S
C905 C906 1.363 . S
C905 H908 0.929 . S
C906 C905 1.363 . S
C906 C912 1.428 . S
H907 C903 0.930 . S
H908 C905 0.929 . S
S909 N910 1.613 . S
S909 N911 1.610 1_565 S
N910 S909 1.613 . S
N910 C913 1.350 . S
N911 S909 1.610 1_545 S
N911 C912 1.351 . S
C912 C906 1.428 . S
C912 N911 1.351 . S
C912 C913 1.434 1_545 S
C913 C904 1.429 . S
C913 N910 1.350 . S
C913 C912 1.434 1_565 S
C914 C915 1.369 . S
C914 C916 1.419 . S
C914 H918 0.930 . S
C915 C914 1.369 . S
C915 C924 1.429 . S
C916 C914 1.419 . S
C916 C917 1.363 . S
C916 H919 0.929 . S
C917 C916 1.363 . S
C917 C923 1.428 . S
H918 C914 0.930 . S
H919 C916 0.929 . S
S920 N921 1.613 . S
S920 N922 1.610 . S
N921 S920 1.613 . S
N921 C924 1.350 . S
N922 S920 1.610 . S
N922 C923 1.351 . S
C923 C917 1.428 . S
C923 N922 1.351 . S
C923 C924 1.434 . S
C924 C915 1.429 . S
C924 N921 1.350 . S
C924 C923 1.434 . S
C925 C926 1.344 1_554 S
C925 C927 1.419 1_665 S
C925 H929 0.930 . S
C926 C925 1.344 1_556 S
C926 C935 1.455 . S
C927 C925 1.419 1_445 S
C927 C928 1.364 . S
C927 H930 0.929 . S
C928 C927 1.364 . S
C928 C934 1.427 1_554 S
H929 C925 0.930 . S
H930 C927 0.929 . S
S931 N932 1.613 1_545 S
S931 N933 1.610 1_655 S
N932 S931 1.613 1_565 S
N932 C935 1.350 . S
N933 S931 1.610 1_455 S
N933 C934 1.351 . S
C934 C928 1.427 1_556 S
C934 N933 1.351 . S
C934 C935 1.434 1_445 S
C935 C926 1.455 . S
C935 N932 1.350 . S
C935 C934 1.434 1_665 S
C936 C937 1.369 . S
C936 C938 1.419 . S
C936 H940 0.930 . S
C937 C936 1.369 . S
C937 C946 1.429 . S
C938 C936 1.419 . S
C938 C939 1.363 . S
C938 H941 0.929 . S
C939 C938 1.363 . S
C939 C945 1.428 . S
H940 C936 0.930 . S
H941 C938 0.929 . S
S942 N943 1.613 . S
S942 N944 1.610 . S
N943 S942 1.613 . S
N943 C946 1.350 . S
N944 S942 1.610 . S
N944 C945 1.351 . S
C945 C939 1.428 . S
C945 N944 1.351 . S
C945 C946 1.434 . S
C946 C937 1.429 . S
C946 N943 1.350 . S
C946 C945 1.434 . S
C947 C948 1.369 . S
C947 C949 1.419 . S
C947 H951 0.930 . S
C948 C947 1.369 . S
C948 C957 1.429 . S
C949 C947 1.419 . S
C949 C950 1.363 . S
C949 H952 0.929 . S
C950 C949 1.363 . S
C950 C956 1.428 . S
H951 C947 0.930 . S
H952 C949 0.929 . S
S953 N954 1.613 . S
S953 N955 1.610 . S
N954 S953 1.613 . S
N954 C957 1.350 . S
N955 S953 1.610 . S
N955 C956 1.351 . S
C956 C950 1.428 . S
C956 N955 1.351 . S
C956 C957 1.434 . S
C957 C948 1.429 . S
C957 N954 1.350 . S
C957 C956 1.434 . S
C958 C959 1.369 . S
C958 C960 1.419 . S
C958 H962 0.930 . S
C959 C958 1.369 . S
C959 C968 1.429 . S
C960 C958 1.419 . S
C960 C961 1.363 . S
C960 H963 0.929 . S
C961 C960 1.363 . S
C961 C967 1.428 . S
H962 C958 0.930 . S
H963 C960 0.929 . S
S964 N965 1.613 . S
S964 N966 1.610 . S
N965 S964 1.613 . S
N965 C968 1.350 . S
N966 S964 1.610 . S
N966 C967 1.351 . S
C967 C961 1.428 . S
C967 N966 1.351 . S
C967 C968 1.434 . S
C968 C959 1.429 . S
C968 N965 1.350 . S
C968 C967 1.434 . S
C969 C970 1.369 . S
C969 C971 1.419 . S
C969 H973 0.930 . S
C970 C969 1.369 . S
C970 C979 1.429 . S
C971 C969 1.419 . S
C971 C972 1.363 . S
C971 H974 0.929 . S
C972 C971 1.363 . S
C972 C978 1.428 . S
H973 C969 0.930 . S
H974 C971 0.929 . S
S975 N976 1.613 . S
S975 N977 1.610 . S
N976 S975 1.613 . S
N976 C979 1.350 . S
N977 S975 1.610 . S
N977 C978 1.351 . S
C978 C972 1.428 . S
C978 N977 1.351 . S
C978 C979 1.434 . S
C979 C970 1.429 . S
C979 N976 1.350 . S
C979 C978 1.434 . S
C980 C981 1.368 . S
C980 C982 1.419 . S
C980 H984 0.930 . S
C981 C980 1.368 . S
C981 C990 1.430 1_556 S
C982 C980 1.419 . S
C982 C983 1.346 1_556 S
C982 H985 0.929 . S
C983 C982 1.346 1_554 S
C983 C989 1.446 . S
H984 C980 0.930 . S
H985 C982 0.929 . S
S986 N987 1.613 . S
S986 N988 1.610 . S
N987 S986 1.613 . S
N987 C990 1.350 . S
N988 S986 1.610 . S
N988 C989 1.351 . S
C989 C983 1.446 . S
C989 N988 1.351 . S
C989 C990 1.434 . S
C990 C981 1.430 1_554 S
C990 N987 1.350 . S
C990 C989 1.434 . S
C991 C992 1.369 . S
C991 C993 1.419 1_455 S
C991 H995 0.930 . S
C992 C991 1.369 . S
C992 C1001 1.429 . S
C993 C991 1.419 1_655 S
C993 C994 1.363 . S
C993 H996 0.929 . S
C994 C993 1.363 . S
C994 C1000 1.428 . S
H995 C991 0.930 . S
H996 C993 0.929 . S
S997 N998 1.613 . S
S997 N999 1.610 1_455 S
N998 S997 1.613 . S
N998 C1001 1.350 . S
N999 S997 1.610 1_655 S
N999 C1000 1.351 . S
C1000 C994 1.428 . S
C1000 N999 1.351 . S
C1000 C1001 1.434 1_655 S
C1001 C992 1.429 . S
C1001 N998 1.350 . S
C1001 C1000 1.434 1_455 S
C1002 C1003 1.343 1_554 S
C1002 C1004 1.419 1_455 S
C1002 H1006 0.930 . S
C1003 C1002 1.343 1_556 S
C1003 C1012 1.455 . S
C1004 C1002 1.419 1_655 S
C1004 C1005 1.365 . S
C1004 H1007 0.929 . S
C1005 C1004 1.365 . S
C1005 C1011 1.427 1_554 S
H1006 C1002 0.930 . S
H1007 C1004 0.929 . S
S1008 N1009 1.613 1_655 S
S1008 N1010 1.610 . S
N1009 S1008 1.613 1_455 S
N1009 C1012 1.350 . S
N1010 S1008 1.610 . S
N1010 C1011 1.351 . S
C1011 C1005 1.427 1_556 S
C1011 N1010 1.351 . S
C1011 C1012 1.434 1_655 S
C1012 C1003 1.455 . S
C1012 N1009 1.350 . S
C1012 C1011 1.434 1_455 S
C1013 C1014 1.369 . S
C1013 C1015 1.419 . S
C1013 H1017 0.930 . S
C1014 C1013 1.369 . S
C1014 C1023 1.429 . S
C1015 C1013 1.419 . S
C1015 C1016 1.363 . S
C1015 H1018 0.929 . S
C1016 C1015 1.363 . S
C1016 C1022 1.428 . S
H1017 C1013 0.930 . S
H1018 C1015 0.929 . S
S1019 N1020 1.613 . S
S1019 N1021 1.610 . S
N1020 S1019 1.613 . S
N1020 C1023 1.350 . S
N1021 S1019 1.610 . S
N1021 C1022 1.351 . S
C1022 C1016 1.428 . S
C1022 N1021 1.351 . S
C1022 C1023 1.434 . S
C1023 C1014 1.429 . S
C1023 N1020 1.350 . S
C1023 C1022 1.434 . S
C1024 C1025 1.369 . S
C1024 C1026 1.419 . S
C1024 H1028 0.930 . S
C1025 C1024 1.369 . S
C1025 C1034 1.429 . S
C1026 C1024 1.419 . S
C1026 C1027 1.363 . S
C1026 H1029 0.929 . S
C1027 C1026 1.363 . S
C1027 C1033 1.428 . S
H1028 C1024 0.930 . S
H1029 C1026 0.929 . S
S1030 N1031 1.613 . S
S1030 N1032 1.610 . S
N1031 S1030 1.613 . S
N1031 C1034 1.350 . S
N1032 S1030 1.610 . S
N1032 C1033 1.351 . S
C1033 C1027 1.428 . S
C1033 N1032 1.351 . S
C1033 C1034 1.434 . S
C1034 C1025 1.429 . S
C1034 N1031 1.350 . S
C1034 C1033 1.434 . S
C1035 C1036 1.369 . S
C1035 C1037 1.419 1_455 S
C1035 H1039 0.930 . S
C1036 C1035 1.369 . S
C1036 C1045 1.429 1_455 S
C1037 C1035 1.419 1_655 S
C1037 C1038 1.363 . S
C1037 H1040 0.929 . S
C1038 C1037 1.363 . S
C1038 C1044 1.428 . S
H1039 C1035 0.930 . S
H1040 C1037 0.929 . S
S1041 N1042 1.613 . S
S1041 N1043 1.610 . S
N1042 S1041 1.613 . S
N1042 C1045 1.350 . S
N1043 S1041 1.610 . S
N1043 C1044 1.351 . S
C1044 C1038 1.428 . S
C1044 N1043 1.351 . S
C1044 C1045 1.434 . S
C1045 C1036 1.429 1_655 S
C1045 N1042 1.350 . S
C1045 C1044 1.434 . S
C1046 C1047 1.369 . S
C1046 C1048 1.419 . S
C1046 H1050 0.930 . S
C1047 C1046 1.369 . S
C1047 C1056 1.429 . S
C1048 C1046 1.419 . S
C1048 C1049 1.363 . S
C1048 H1051 0.929 . S
C1049 C1048 1.363 . S
C1049 C1055 1.428 . S
H1050 C1046 0.930 . S
H1051 C1048 0.929 . S
S1052 N1053 1.613 . S
S1052 N1054 1.610 . S
N1053 S1052 1.613 . S
N1053 C1056 1.350 . S
N1054 S1052 1.610 . S
N1054 C1055 1.351 . S
C1055 C1049 1.428 . S
C1055 N1054 1.351 . S
C1055 C1056 1.434 . S
C1056 C1047 1.429 . S
C1056 N1053 1.350 . S
C1056 C1055 1.434 . S
C1057 C1058 1.369 . S
C1057 C1059 1.419 . S
C1057 H1061 0.930 . S
C1058 C1057 1.369 . S
C1058 C1067 1.429 . S
C1059 C1057 1.419 . S
C1059 C1060 1.363 . S
C1059 H1062 0.929 . S
C1060 C1059 1.363 . S
C1060 C1066 1.428 . S
H1061 C1057 0.930 . S
H1062 C1059 0.929 . S
S1063 N1064 1.613 . S
S1063 N1065 1.610 . S
N1064 S1063 1.613 . S
N1064 C1067 1.350 . S
N1065 S1063 1.610 . S
N1065 C1066 1.351 . S
C1066 C1060 1.428 . S
C1066 N1065 1.351 . S
C1066 C1067 1.434 . S
C1067 C1058 1.429 . S
C1067 N1064 1.350 . S
C1067 C1066 1.434 . S
C1068 C1069 1.369 . S
C1068 C1070 1.419 . S
C1068 H1072 0.930 . S
C1069 C1068 1.369 . S
C1069 C1078 1.429 . S
C1070 C1068 1.419 . S
C1070 C1071 1.363 . S
C1070 H1073 0.929 . S
C1071 C1070 1.363 . S
C1071 C1077 1.428 . S
H1072 C1068 0.930 . S
H1073 C1070 0.929 . S
S1074 N1075 1.613 . S
S1074 N1076 1.610 . S
N1075 S1074 1.613 . S
N1075 C1078 1.350 . S
N1076 S1074 1.610 . S
N1076 C1077 1.351 . S
C1077 C1071 1.428 . S
C1077 N1076 1.351 . S
C1077 C1078 1.434 . S
C1078 C1069 1.429 . S
C1078 N1075 1.350 . S
C1078 C1077 1.434 . S
C1079 C1080 1.369 . S
C1079 C1081 1.419 . S
C1079 H1083 0.930 . S
C1080 C1079 1.369 . S
C1080 C1089 1.429 . S
C1081 C1079 1.419 . S
C1081 C1082 1.363 . S
C1081 H1084 0.929 . S
C1082 C1081 1.363 . S
C1082 C1088 1.428 . S
H1083 C1079 0.930 . S
H1084 C1081 0.929 . S
S1085 N1086 1.613 . S
S1085 N1087 1.610 . S
N1086 S1085 1.613 . S
N1086 C1089 1.350 . S
N1087 S1085 1.610 . S
N1087 C1088 1.351 . S
C1088 C1082 1.428 . S
C1088 N1087 1.351 . S
C1088 C1089 1.434 . S
C1089 C1080 1.429 . S
C1089 N1086 1.350 . S
C1089 C1088 1.434 . S
C1090 C1091 1.369 . S
C1090 C1092 1.419 . S
C1090 H1094 0.930 . S
C1091 C1090 1.369 . S
C1091 C1100 1.429 . S
C1092 C1090 1.419 . S
C1092 C1093 1.363 . S
C1092 H1095 0.929 . S
C1093 C1092 1.363 . S
C1093 C1099 1.428 . S
H1094 C1090 0.930 . S
H1095 C1092 0.929 . S
S1096 N1097 1.613 . S
S1096 N1098 1.610 . S
N1097 S1096 1.613 . S
N1097 C1100 1.350 . S
N1098 S1096 1.610 . S
N1098 C1099 1.351 . S
C1099 C1093 1.428 . S
C1099 N1098 1.351 . S
C1099 C1100 1.434 . S
C1100 C1091 1.429 . S
C1100 N1097 1.350 . S
C1100 C1099 1.434 . S
C1101 C1102 1.348 1_455 S
C1101 C1103 1.435 . S
C1101 H1105 0.936 . S
C1102 C1101 1.348 1_655 S
C1102 C1111 1.429 . S
C1103 C1101 1.435 . S
C1103 C1104 1.363 . S
C1103 H1106 0.929 . S
C1104 C1103 1.363 . S
C1104 C1110 1.428 1_455 S
H1105 C1101 0.936 . S
H1106 C1103 0.929 . S
S1107 N1108 1.613 . S
S1107 N1109 1.610 . S
N1108 S1107 1.613 . S
N1108 C1111 1.350 . S
N1109 S1107 1.610 . S
N1109 C1110 1.351 . S
C1110 C1104 1.428 1_655 S
C1110 N1109 1.351 . S
C1110 C1111 1.434 . S
C1111 C1102 1.429 . S
C1111 N1108 1.350 . S
C1111 C1110 1.434 . S
C1112 C1113 1.369 . S
C1112 C1114 1.419 . S
C1112 H1116 0.930 . S
C1113 C1112 1.369 . S
C1113 C1122 1.429 . S
C1114 C1112 1.419 . S
C1114 C1115 1.363 . S
C1114 H1117 0.929 . S
C1115 C1114 1.363 . S
C1115 C1121 1.428 . S
H1116 C1112 0.930 . S
H1117 C1114 0.929 . S
S1118 N1119 1.613 . S
S1118 N1120 1.610 . S
N1119 S1118 1.613 . S
N1119 C1122 1.350 . S
N1120 S1118 1.610 . S
N1120 C1121 1.351 . S
C1121 C1115 1.428 . S
C1121 N1120 1.351 . S
C1121 C1122 1.434 . S
C1122 C1113 1.429 . S
C1122 N1119 1.350 . S
C1122 C1121 1.434 . S
C1123 C1124 1.369 1_455 S
C1123 C1125 1.419 . S
C1123 H1127 0.930 . S
C1124 C1123 1.369 1_655 S
C1124 C1133 1.429 . S
C1125 C1123 1.419 . S
C1125 C1126 1.363 . S
C1125 H1128 0.929 . S
C1126 C1125 1.363 . S
C1126 C1132 1.428 . S
H1127 C1123 0.930 . S
H1128 C1125 0.929 . S
S1129 N1130 1.613 . S
S1129 N1131 1.635 . S
N1130 S1129 1.613 . S
N1130 C1133 1.350 . S
N1131 S1129 1.635 . S
N1131 C1132 1.347 1_655 S
C1132 C1126 1.428 . S
C1132 N1131 1.347 1_455 S
C1132 C1133 1.434 1_455 S
C1133 C1124 1.429 . S
C1133 N1130 1.350 . S
C1133 C1132 1.434 1_655 S
C1134 C1135 1.369 . S
C1134 C1136 1.419 . S
C1134 H1138 0.930 . S
C1135 C1134 1.369 . S
C1135 C1144 1.429 . S
C1136 C1134 1.419 . S
C1136 C1137 1.363 . S
C1136 H1139 0.929 . S
C1137 C1136 1.363 . S
C1137 C1143 1.428 . S
H1138 C1134 0.930 . S
H1139 C1136 0.929 . S
S1140 N1141 1.613 . S
S1140 N1142 1.610 . S
N1141 S1140 1.613 . S
N1141 C1144 1.350 . S
N1142 S1140 1.610 . S
N1142 C1143 1.351 . S
C1143 C1137 1.428 . S
C1143 N1142 1.351 . S
C1143 C1144 1.434 . S
C1144 C1135 1.429 . S
C1144 N1141 1.350 . S
C1144 C1143 1.434 . S
C1145 C1146 1.369 . S
C1145 C1147 1.419 . S
C1145 H1149 0.930 . S
C1146 C1145 1.369 . S
C1146 C1155 1.429 . S
C1147 C1145 1.419 . S
C1147 C1148 1.363 . S
C1147 H1150 0.929 . S
C1148 C1147 1.363 . S
C1148 C1154 1.428 . S
H1149 C1145 0.930 . S
H1150 C1147 0.929 . S
S1151 N1152 1.613 . S
S1151 N1153 1.610 . S
N1152 S1151 1.613 . S
N1152 C1155 1.350 . S
N1153 S1151 1.610 . S
N1153 C1154 1.351 . S
C1154 C1148 1.428 . S
C1154 N1153 1.351 . S
C1154 C1155 1.434 . S
C1155 C1146 1.429 . S
C1155 N1152 1.350 . S
C1155 C1154 1.434 . S
C1156 C1157 1.369 . S
C1156 C1158 1.419 . S
C1156 H1160 0.930 . S
C1157 C1156 1.369 . S
C1157 C1166 1.429 . S
C1158 C1156 1.419 . S
C1158 C1159 1.363 . S
C1158 H1161 0.929 . S
C1159 C1158 1.363 . S
C1159 C1165 1.428 . S
H1160 C1156 0.930 . S
H1161 C1158 0.929 . S
S1162 N1163 1.613 . S
S1162 N1164 1.610 . S
N1163 S1162 1.613 . S
N1163 C1166 1.350 . S
N1164 S1162 1.610 . S
N1164 C1165 1.351 . S
C1165 C1159 1.428 . S
C1165 N1164 1.351 . S
C1165 C1166 1.434 . S
C1166 C1157 1.429 . S
C1166 N1163 1.350 . S
C1166 C1165 1.434 . S
C1167 C1168 1.369 . S
C1167 C1169 1.419 . S
C1167 H1171 0.930 . S
C1168 C1167 1.369 . S
C1168 C1177 1.429 . S
C1169 C1167 1.419 . S
C1169 C1170 1.363 . S
C1169 H1172 0.929 . S
C1170 C1169 1.363 . S
C1170 C1176 1.428 . S
H1171 C1167 0.930 . S
H1172 C1169 0.929 . S
S1173 N1174 1.613 . S
S1173 N1175 1.610 . S
N1174 S1173 1.613 . S
N1174 C1177 1.350 . S
N1175 S1173 1.610 . S
N1175 C1176 1.351 . S
C1176 C1170 1.428 . S
C1176 N1175 1.351 . S
C1176 C1177 1.434 . S
C1177 C1168 1.429 . S
C1177 N1174 1.350 . S
C1177 C1176 1.434 . S
C1178 C1179 1.369 . S
C1178 C1180 1.419 . S
C1178 H1182 0.930 . S
C1179 C1178 1.369 . S
C1179 C1188 1.429 . S
C1180 C1178 1.419 . S
C1180 C1181 1.363 . S
C1180 H1183 0.929 . S
C1181 C1180 1.363 . S
C1181 C1187 1.428 . S
H1182 C1178 0.930 . S
H1183 C1180 0.929 . S
S1184 N1185 1.613 . S
S1184 N1186 1.610 . S
N1185 S1184 1.613 . S
N1185 C1188 1.350 . S
N1186 S1184 1.610 . S
N1186 C1187 1.351 . S
C1187 C1181 1.428 . S
C1187 N1186 1.351 . S
C1187 C1188 1.434 . S
C1188 C1179 1.429 . S
C1188 N1185 1.350 . S
C1188 C1187 1.434 . S
C1189 C1190 1.369 . S
C1189 C1191 1.419 . S
C1189 H1193 0.930 . S
C1190 C1189 1.369 . S
C1190 C1199 1.429 . S
C1191 C1189 1.419 . S
C1191 C1192 1.363 1_455 S
C1191 H1194 0.929 . S
C1192 C1191 1.363 1_655 S
C1192 C1198 1.428 . S
H1193 C1189 0.930 . S
H1194 C1191 0.929 . S
S1195 N1196 1.613 . S
S1195 N1197 1.610 . S
N1196 S1195 1.613 . S
N1196 C1199 1.350 1_655 S
N1197 S1195 1.610 . S
N1197 C1198 1.351 . S
C1198 C1192 1.428 . S
C1198 N1197 1.351 . S
C1198 C1199 1.434 1_655 S
C1199 C1190 1.429 . S
C1199 N1196 1.350 1_455 S
C1199 C1198 1.434 1_455 S
C1200 C1201 1.369 . S
C1200 C1202 1.419 . S
C1200 H1204 0.930 . S
C1201 C1200 1.369 . S
C1201 C1210 1.429 . S
C1202 C1200 1.419 . S
C1202 C1203 1.363 . S
C1202 H1205 0.929 . S
C1203 C1202 1.363 . S
C1203 C1209 1.428 . S
H1204 C1200 0.930 . S
H1205 C1202 0.929 . S
S1206 N1207 1.613 . S
S1206 N1208 1.610 . S
N1207 S1206 1.613 . S
N1207 C1210 1.350 . S
N1208 S1206 1.610 . S
N1208 C1209 1.351 . S
C1209 C1203 1.428 . S
C1209 N1208 1.351 . S
C1209 C1210 1.434 . S
C1210 C1201 1.429 . S
C1210 N1207 1.350 . S
C1210 C1209 1.434 . S
C1211 C1212 1.369 . S
C1211 C1213 1.419 . S
C1211 H1215 0.930 . S
C1212 C1211 1.369 . S
C1212 C1221 1.429 . S
C1213 C1211 1.419 . S
C1213 C1214 1.363 . S
C1213 H1216 0.929 . S
C1214 C1213 1.363 . S
C1214 C1220 1.428 . S
H1215 C1211 0.930 . S
H1216 C1213 0.929 . S
S1217 N1218 1.613 . S
S1217 N1219 1.610 . S
N1218 S1217 1.613 . S
N1218 C1221 1.350 . S
N1219 S1217 1.610 . S
N1219 C1220 1.351 . S
C1220 C1214 1.428 . S
C1220 N1219 1.351 . S
C1220 C1221 1.434 . S
C1221 C1212 1.429 . S
C1221 N1218 1.350 . S
C1221 C1220 1.434 . S
C1222 C1223 1.369 . S
C1222 C1224 1.419 . S
C1222 H1226 0.930 . S
C1223 C1222 1.369 . S
C1223 C1232 1.429 . S
C1224 C1222 1.419 . S
C1224 C1225 1.363 . S
C1224 H1227 0.929 . S
C1225 C1224 1.363 . S
C1225 C1231 1.428 . S
H1226 C1222 0.930 . S
H1227 C1224 0.929 . S
S1228 N1229 1.613 . S
S1228 N1230 1.610 . S
N1229 S1228 1.613 . S
N1229 C1232 1.350 . S
N1230 S1228 1.610 . S
N1230 C1231 1.351 . S
C1231 C1225 1.428 . S
C1231 N1230 1.351 . S
C1231 C1232 1.434 . S
C1232 C1223 1.429 . S
C1232 N1229 1.350 . S
C1232 C1231 1.434 . S
C1233 C1234 1.369 1_455 S
C1233 C1235 1.419 . S
C1233 H1237 0.930 . S
C1234 C1233 1.369 1_655 S
C1234 C1243 1.429 . S
C1235 C1233 1.419 . S
C1235 C1236 1.363 . S
C1235 H1238 0.929 . S
C1236 C1235 1.363 . S
C1236 C1242 1.428 1_455 S
H1237 C1233 0.930 . S
H1238 C1235 0.929 . S
S1239 N1240 1.613 . S
S1239 N1241 1.610 . S
N1240 S1239 1.613 . S
N1240 C1243 1.350 . S
N1241 S1239 1.610 . S
N1241 C1242 1.351 . S
C1242 C1236 1.428 1_655 S
C1242 N1241 1.351 . S
C1242 C1243 1.434 . S
C1243 C1234 1.429 . S
C1243 N1240 1.350 . S
C1243 C1242 1.434 . S
C1244 C1245 1.369 . S
C1244 C1246 1.419 . S
C1244 H1248 0.930 . S
C1245 C1244 1.369 . S
C1245 C1254 1.429 . S
C1246 C1244 1.419 . S
C1246 C1247 1.363 . S
C1246 H1249 0.929 . S
C1247 C1246 1.363 . S
C1247 C1253 1.428 . S
H1248 C1244 0.930 . S
H1249 C1246 0.929 . S
S1250 N1251 1.613 . S
S1250 N1252 1.610 . S
N1251 S1250 1.613 . S
N1251 C1254 1.350 . S
N1252 S1250 1.610 . S
N1252 C1253 1.351 . S
C1253 C1247 1.428 . S
C1253 N1252 1.351 . S
C1253 C1254 1.434 . S
C1254 C1245 1.429 . S
C1254 N1251 1.350 . S
C1254 C1253 1.434 . S
C1255 C1256 1.369 . S
C1255 C1257 1.419 1_655 S
C1255 H1259 0.930 . S
C1256 C1255 1.369 . S
C1256 C1265 1.429 1_655 S
C1257 C1255 1.419 1_455 S
C1257 C1258 1.363 . S
C1257 H1260 0.929 . S
C1258 C1257 1.363 . S
C1258 C1264 1.428 . S
H1259 C1255 0.930 . S
H1260 C1257 0.929 . S
S1261 N1262 1.613 . S
S1261 N1263 1.610 . S
N1262 S1261 1.613 . S
N1262 C1265 1.350 . S
N1263 S1261 1.610 . S
N1263 C1264 1.351 . S
C1264 C1258 1.428 . S
C1264 N1263 1.351 . S
C1264 C1265 1.434 . S
C1265 C1256 1.429 1_455 S
C1265 N1262 1.350 . S
C1265 C1264 1.434 . S
C1266 C1267 1.369 . S
C1266 C1268 1.419 . S
C1266 H1270 0.930 . S
C1267 C1266 1.369 . S
C1267 C1276 1.429 . S
C1268 C1266 1.419 . S
C1268 C1269 1.363 . S
C1268 H1271 0.929 . S
C1269 C1268 1.363 . S
C1269 C1275 1.428 . S
H1270 C1266 0.930 . S
H1271 C1268 0.929 . S
S1272 N1273 1.613 . S
S1272 N1274 1.610 . S
N1273 S1272 1.613 . S
N1273 C1276 1.350 . S
N1274 S1272 1.610 . S
N1274 C1275 1.351 . S
C1275 C1269 1.428 . S
C1275 N1274 1.351 . S
C1275 C1276 1.434 . S
C1276 C1267 1.429 . S
C1276 N1273 1.350 . S
C1276 C1275 1.434 . S
C1277 C1278 1.369 . S
C1277 C1279 1.419 . S
C1277 H1281 0.930 . S
C1278 C1277 1.369 . S
C1278 C1287 1.429 . S
C1279 C1277 1.419 . S
C1279 C1280 1.363 . S
C1279 H1282 0.929 . S
C1280 C1279 1.363 . S
C1280 C1286 1.428 . S
H1281 C1277 0.930 . S
H1282 C1279 0.929 . S
S1283 N1284 1.613 . S
S1283 N1285 1.610 . S
N1284 S1283 1.613 . S
N1284 C1287 1.350 . S
N1285 S1283 1.610 . S
N1285 C1286 1.351 . S
C1286 C1280 1.428 . S
C1286 N1285 1.351 . S
C1286 C1287 1.434 . S
C1287 C1278 1.429 . S
C1287 N1284 1.350 . S
C1287 C1286 1.434 . S
C1288 C1289 1.369 . S
C1288 C1290 1.419 . S
C1288 H1292 0.930 . S
C1289 C1288 1.369 . S
C1289 C1298 1.429 . S
C1290 C1288 1.419 . S
C1290 C1291 1.363 . S
C1290 H1293 0.929 . S
C1291 C1290 1.363 . S
C1291 C1297 1.428 . S
H1292 C1288 0.930 . S
H1293 C1290 0.929 . S
S1294 N1295 1.613 . S
S1294 N1296 1.610 . S
N1295 S1294 1.613 . S
N1295 C1298 1.350 . S
N1296 S1294 1.610 . S
N1296 C1297 1.351 . S
C1297 C1291 1.428 . S
C1297 N1296 1.351 . S
C1297 C1298 1.434 . S
C1298 C1289 1.429 . S
C1298 N1295 1.350 . S
C1298 C1297 1.434 . S
C1299 C1300 1.369 . S
C1299 C1301 1.419 . S
C1299 H1303 0.930 . S
C1300 C1299 1.369 . S
C1300 C1309 1.429 . S
C1301 C1299 1.419 . S
C1301 C1302 1.363 . S
C1301 H1304 0.929 . S
C1302 C1301 1.363 . S
C1302 C1308 1.428 . S
H1303 C1299 0.930 . S
H1304 C1301 0.929 . S
S1305 N1306 1.613 . S
S1305 N1307 1.610 . S
N1306 S1305 1.613 . S
N1306 C1309 1.350 . S
N1307 S1305 1.610 . S
N1307 C1308 1.351 . S
C1308 C1302 1.428 . S
C1308 N1307 1.351 . S
C1308 C1309 1.434 . S
C1309 C1300 1.429 . S
C1309 N1306 1.350 . S
C1309 C1308 1.434 . S
C1310 C1311 1.369 . S
C1310 C1312 1.419 . S
C1310 H1314 0.930 . S
C1311 C1310 1.369 . S
C1311 C1320 1.429 . S
C1312 C1310 1.419 . S
C1312 C1313 1.363 . S
C1312 H1315 0.929 . S
C1313 C1312 1.363 . S
C1313 C1319 1.428 . S
H1314 C1310 0.930 . S
H1315 C1312 0.929 . S
S1316 N1317 1.613 . S
S1316 N1318 1.610 . S
N1317 S1316 1.613 . S
N1317 C1320 1.350 . S
N1318 S1316 1.610 . S
N1318 C1319 1.351 . S
C1319 C1313 1.428 . S
C1319 N1318 1.351 . S
C1319 C1320 1.434 . S
C1320 C1311 1.429 . S
C1320 N1317 1.350 . S
C1320 C1319 1.434 . S
C1321 C1322 1.369 . S
C1321 C1323 1.419 . S
C1321 H1325 0.930 . S
C1322 C1321 1.369 . S
C1322 C1331 1.429 1_655 S
C1323 C1321 1.419 . S
C1323 C1324 1.363 1_655 S
C1323 H1326 0.929 . S
C1324 C1323 1.363 1_455 S
C1324 C1330 1.428 . S
H1325 C1321 0.930 . S
H1326 C1323 0.929 . S
S1327 N1328 1.613 . S
S1327 N1329 1.610 . S
N1328 S1327 1.613 . S
N1328 C1331 1.350 . S
N1329 S1327 1.610 . S
N1329 C1330 1.351 . S
C1330 C1324 1.428 . S
C1330 N1329 1.351 . S
C1330 C1331 1.434 . S
C1331 C1322 1.429 1_455 S
C1331 N1328 1.350 . S
C1331 C1330 1.434 . S
C1332 C1333 1.369 . S
C1332 C1334 1.419 . S
C1332 H1336 0.930 . S
C1333 C1332 1.369 . S
C1333 C1342 1.429 . S
C1334 C1332 1.419 . S
C1334 C1335 1.363 . S
C1334 H1337 0.929 . S
C1335 C1334 1.363 . S
C1335 C1341 1.428 . S
H1336 C1332 0.930 . S
H1337 C1334 0.929 . S
S1338 N1339 1.613 . S
S1338 N1340 1.610 . S
N1339 S1338 1.613 . S
N1339 C1342 1.350 . S
N1340 S1338 1.610 . S
N1340 C1341 1.351 . S
C1341 C1335 1.428 . S
C1341 N1340 1.351 . S
C1341 C1342 1.434 . S
C1342 C1333 1.429 . S
C1342 N1339 1.350 . S
C1342 C1341 1.434 . S
C1343 C1344 1.369 1_455 S
C1343 C1345 1.419 . S
C1343 H1347 0.930 . S
C1344 C1343 1.369 1_655 S
C1344 C1353 1.429 . S
C1345 C1343 1.419 . S
C1345 C1346 1.363 . S
C1345 H1348 0.929 . S
C1346 C1345 1.363 . S
C1346 C1352 1.428 1_455 S
H1347 C1343 0.930 . S
H1348 C1345 0.929 . S
S1349 N1350 1.613 . S
S1349 N1351 1.610 . S
N1350 S1349 1.613 . S
N1350 C1353 1.350 . S
N1351 S1349 1.610 . S
N1351 C1352 1.351 . S
C1352 C1346 1.428 1_655 S
C1352 N1351 1.351 . S
C1352 C1353 1.434 . S
C1353 C1344 1.429 . S
C1353 N1350 1.350 . S
C1353 C1352 1.434 . S
C1354 C1355 1.369 . S
C1354 C1356 1.419 . S
C1354 H1358 0.930 . S
C1355 C1354 1.369 . S
C1355 C1364 1.429 . S
C1356 C1354 1.419 . S
C1356 C1357 1.363 . S
C1356 H1359 0.929 . S
C1357 C1356 1.363 . S
C1357 C1363 1.428 . S
H1358 C1354 0.930 . S
H1359 C1356 0.929 . S
S1360 N1361 1.613 . S
S1360 N1362 1.610 . S
N1361 S1360 1.613 . S
N1361 C1364 1.350 . S
N1362 S1360 1.610 . S
N1362 C1363 1.351 . S
C1363 C1357 1.428 . S
C1363 N1362 1.351 . S
C1363 C1364 1.434 . S
C1364 C1355 1.429 . S
C1364 N1361 1.350 . S
C1364 C1363 1.434 . S
C1365 C1366 1.369 . S
C1365 C1367 1.419 . S
C1365 H1369 0.930 . S
C1366 C1365 1.369 . S
C1366 C1375 1.429 . S
C1367 C1365 1.419 . S
C1367 C1368 1.363 . S
C1367 H1370 0.929 . S
C1368 C1367 1.363 . S
C1368 C1374 1.428 . S
H1369 C1365 0.930 . S
H1370 C1367 0.929 . S
S1371 N1372 1.613 . S
S1371 N1373 1.610 . S
N1372 S1371 1.613 . S
N1372 C1375 1.350 . S
N1373 S1371 1.610 . S
N1373 C1374 1.351 . S
C1374 C1368 1.428 . S
C1374 N1373 1.351 . S
C1374 C1375 1.434 . S
C1375 C1366 1.429 . S
C1375 N1372 1.350 . S
C1375 C1374 1.434 . S
C1376 C1377 1.369 . S
C1376 C1378 1.419 1_455 S
C1376 H1380 0.930 . S
C1377 C1376 1.369 . S
C1377 C1386 1.429 . S
C1378 C1376 1.419 1_655 S
C1378 C1379 1.363 . S
C1378 H1381 0.929 . S
C1379 C1378 1.363 . S
C1379 C1385 1.428 . S
H1380 C1376 0.930 . S
H1381 C1378 0.929 . S
S1382 N1383 1.613 1_655 S
S1382 N1384 1.610 . S
N1383 S1382 1.613 1_455 S
N1383 C1386 1.350 . S
N1384 S1382 1.610 . S
N1384 C1385 1.351 . S
C1385 C1379 1.428 . S
C1385 N1384 1.351 . S
C1385 C1386 1.434 1_655 S
C1386 C1377 1.429 . S
C1386 N1383 1.350 . S
C1386 C1385 1.434 1_455 S
C1387 C1388 1.369 1_655 S
C1387 C1389 1.419 . S
C1387 H1391 0.930 . S
C1388 C1387 1.369 1_455 S
C1388 C1397 1.429 . S
C1389 C1387 1.419 . S
C1389 C1390 1.363 . S
C1389 H1392 0.929 . S
C1390 C1389 1.363 . S
C1390 C1396 1.428 1_655 S
H1391 C1387 0.930 . S
H1392 C1389 0.929 . S
S1393 N1394 1.613 . S
S1393 N1395 1.610 . S
N1394 S1393 1.613 . S
N1394 C1397 1.350 . S
N1395 S1393 1.610 . S
N1395 C1396 1.351 . S
C1396 C1390 1.428 1_455 S
C1396 N1395 1.351 . S
C1396 C1397 1.434 . S
C1397 C1388 1.429 . S
C1397 N1394 1.350 . S
C1397 C1396 1.434 . S
C1398 C1399 1.369 . S
C1398 C1400 1.419 . S
C1398 H1402 0.930 . S
C1399 C1398 1.369 . S
C1399 C1408 1.429 . S
C1400 C1398 1.419 . S
C1400 C1401 1.363 . S
C1400 H1403 0.929 . S
C1401 C1400 1.363 . S
C1401 C1407 1.428 . S
H1402 C1398 0.930 . S
H1403 C1400 0.929 . S
S1404 N1405 1.613 . S
S1404 N1406 1.610 . S
N1405 S1404 1.613 . S
N1405 C1408 1.350 . S
N1406 S1404 1.610 . S
N1406 C1407 1.351 . S
C1407 C1401 1.428 . S
C1407 N1406 1.351 . S
C1407 C1408 1.434 . S
C1408 C1399 1.429 . S
C1408 N1405 1.350 . S
C1408 C1407 1.434 . S
C1409 C1410 1.369 1_554 S
C1409 C1411 1.419 . S
C1409 H1413 0.930 . S
C1410 C1409 1.369 1_556 S
C1410 C1419 1.429 . S
C1411 C1409 1.419 . S
C1411 C1412 1.363 1_554 S
C1411 H1414 0.929 . S
C1412 C1411 1.363 1_556 S
C1412 C1418 1.428 . S
H1413 C1409 0.930 . S
H1414 C1411 0.929 . S
S1415 N1416 1.613 . S
S1415 N1417 1.610 . S
N1416 S1415 1.613 . S
N1416 C1419 1.350 . S
N1417 S1415 1.610 . S
N1417 C1418 1.351 . S
C1418 C1412 1.428 . S
C1418 N1417 1.351 . S
C1418 C1419 1.434 . S
C1419 C1410 1.429 . S
C1419 N1416 1.350 . S
C1419 C1418 1.434 . S
C1420 C1421 1.369 . S
C1420 C1422 1.419 1_655 S
C1420 H1424 0.930 . S
C1421 C1420 1.369 . S
C1421 C1430 1.429 . S
C1422 C1420 1.419 1_455 S
C1422 C1423 1.363 . S
C1422 H1425 0.929 . S
C1423 C1422 1.363 . S
C1423 C1429 1.428 . S
H1424 C1420 0.930 . S
H1425 C1422 0.929 . S
S1426 N1427 1.613 . S
S1426 N1428 1.610 1_655 S
N1427 S1426 1.613 . S
N1427 C1430 1.350 . S
N1428 S1426 1.610 1_455 S
N1428 C1429 1.351 . S
C1429 C1423 1.428 . S
C1429 N1428 1.351 . S
C1429 C1430 1.434 1_455 S
C1430 C1421 1.429 . S
C1430 N1427 1.350 . S
C1430 C1429 1.434 1_655 S
C1431 C1432 1.369 . S
C1431 C1433 1.419 . S
C1431 H1435 0.930 . S
C1432 C1431 1.369 . S
C1432 C1441 1.429 . S
C1433 C1431 1.419 . S
C1433 C1434 1.363 . S
C1433 H1436 0.929 . S
C1434 C1433 1.363 . S
C1434 C1440 1.428 . S
H1435 C1431 0.930 . S
H1436 C1433 0.929 . S
S1437 N1438 1.613 . S
S1437 N1439 1.610 . S
N1438 S1437 1.613 . S
N1438 C1441 1.350 . S
N1439 S1437 1.610 . S
N1439 C1440 1.351 . S
C1440 C1434 1.428 . S
C1440 N1439 1.351 . S
C1440 C1441 1.434 . S
C1441 C1432 1.429 . S
C1441 N1438 1.350 . S
C1441 C1440 1.434 . S
C1442 C1443 1.369 . S
C1442 C1444 1.419 . S
C1442 H1446 0.930 . S
C1443 C1442 1.369 . S
C1443 C1452 1.429 . S
C1444 C1442 1.419 . S
C1444 C1445 1.363 . S
C1444 H1447 0.929 . S
C1445 C1444 1.363 . S
C1445 C1451 1.428 . S
H1446 C1442 0.930 . S
H1447 C1444 0.929 . S
S1448 N1449 1.613 . S
S1448 N1450 1.610 . S
N1449 S1448 1.613 . S
N1449 C1452 1.350 . S
N1450 S1448 1.610 . S
N1450 C1451 1.351 . S
C1451 C1445 1.428 . S
C1451 N1450 1.351 . S
C1451 C1452 1.434 . S
C1452 C1443 1.429 . S
C1452 N1449 1.350 . S
C1452 C1451 1.434 . S
C1453 C1454 1.369 1_455 S
C1453 C1455 1.419 . S
C1453 H1457 0.930 . S
C1454 C1453 1.369 1_655 S
C1454 C1463 1.429 . S
C1455 C1453 1.419 . S
C1455 C1456 1.363 . S
C1455 H1458 0.929 . S
C1456 C1455 1.363 . S
C1456 C1462 1.428 1_455 S
H1457 C1453 0.930 . S
H1458 C1455 0.929 . S
S1459 N1460 1.613 . S
S1459 N1461 1.610 . S
N1460 S1459 1.613 . S
N1460 C1463 1.350 1_556 S
N1461 S1459 1.610 . S
N1461 C1462 1.351 1_556 S
C1462 C1456 1.428 1_655 S
C1462 N1461 1.351 1_554 S
C1462 C1463 1.434 . S
C1463 C1454 1.429 . S
C1463 N1460 1.350 1_554 S
C1463 C1462 1.434 . S
C1464 C1465 1.369 . S
C1464 C1466 1.419 1_455 S
C1464 H1468 0.930 . S
C1465 C1464 1.369 . S
C1465 C1474 1.429 . S
C1466 C1464 1.419 1_655 S
C1466 C1467 1.363 . S
C1466 H1469 0.929 . S
C1467 C1466 1.363 . S
C1467 C1473 1.428 . S
H1468 C1464 0.930 . S
H1469 C1466 0.929 . S
S1470 N1471 1.613 . S
S1470 N1472 1.610 1_455 S
N1471 S1470 1.613 . S
N1471 C1474 1.350 . S
N1472 S1470 1.610 1_655 S
N1472 C1473 1.351 . S
C1473 C1467 1.428 . S
C1473 N1472 1.351 . S
C1473 C1474 1.434 1_655 S
C1474 C1465 1.429 . S
C1474 N1471 1.350 . S
C1474 C1473 1.434 1_455 S
C1475 C1476 1.369 1_655 S
C1475 C1477 1.419 . S
C1475 H1479 0.930 . S
C1476 C1475 1.369 1_455 S
C1476 C1485 1.429 . S
C1477 C1475 1.419 . S
C1477 C1478 1.363 . S
C1477 H1480 0.929 . S
C1478 C1477 1.363 . S
C1478 C1484 1.428 1_655 S
H1479 C1475 0.930 . S
H1480 C1477 0.929 . S
S1481 N1482 1.613 . S
S1481 N1483 1.610 . S
N1482 S1481 1.613 . S
N1482 C1485 1.350 . S
N1483 S1481 1.610 . S
N1483 C1484 1.351 . S
C1484 C1478 1.428 1_455 S
C1484 N1483 1.351 . S
C1484 C1485 1.434 . S
C1485 C1476 1.429 . S
C1485 N1482 1.350 . S
C1485 C1484 1.434 . S
C1486 C1487 1.369 . S
C1486 C1488 1.419 . S
C1486 H1490 0.930 . S
C1487 C1486 1.369 . S
C1487 C1496 1.429 . S
C1488 C1486 1.419 . S
C1488 C1489 1.363 . S
C1488 H1491 0.929 . S
C1489 C1488 1.363 . S
C1489 C1495 1.428 . S
H1490 C1486 0.930 . S
H1491 C1488 0.929 . S
S1492 N1493 1.613 . S
S1492 N1494 1.610 . S
N1493 S1492 1.613 . S
N1493 C1496 1.350 . S
N1494 S1492 1.610 . S
N1494 C1495 1.351 . S
C1495 C1489 1.428 . S
C1495 N1494 1.351 . S
C1495 C1496 1.434 . S
C1496 C1487 1.429 . S
C1496 N1493 1.350 . S
C1496 C1495 1.434 . S
C1497 C1498 1.369 . S
C1497 C1499 1.419 . S
C1497 H1501 0.930 . S
C1498 C1497 1.369 . S
C1498 C1507 1.429 1_554 S
C1499 C1497 1.419 . S
C1499 C1500 1.363 . S
C1499 H1502 0.929 . S
C1500 C1499 1.363 . S
C1500 C1506 1.428 1_554 S
H1501 C1497 0.930 . S
H1502 C1499 0.929 . S
S1503 N1504 1.613 . S
S1503 N1505 1.610 . S
N1504 S1503 1.613 . S
N1504 C1507 1.350 . S
N1505 S1503 1.610 . S
N1505 C1506 1.351 . S
C1506 C1500 1.428 1_556 S
C1506 N1505 1.351 . S
C1506 C1507 1.434 . S
C1507 C1498 1.429 1_556 S
C1507 N1504 1.350 . S
C1507 C1506 1.434 . S
C1508 C1509 1.369 . S
C1508 C1510 1.419 1_655 S
C1508 H1512 0.930 . S
C1509 C1508 1.369 . S
C1509 C1518 1.429 . S
C1510 C1508 1.419 1_455 S
C1510 C1511 1.363 . S
C1510 H1513 0.929 . S
C1511 C1510 1.363 . S
C1511 C1517 1.428 . S
H1512 C1508 0.930 . S
H1513 C1510 0.929 . S
S1514 N1515 1.613 1_455 S
S1514 N1516 1.610 . S
N1515 S1514 1.613 1_655 S
N1515 C1518 1.350 . S
N1516 S1514 1.610 . S
N1516 C1517 1.351 . S
C1517 C1511 1.428 . S
C1517 N1516 1.351 . S
C1517 C1518 1.434 1_455 S
C1518 C1509 1.429 . S
C1518 N1515 1.350 . S
C1518 C1517 1.434 1_655 S
C1519 C1520 1.369 . S
C1519 C1521 1.419 . S
C1519 H1523 0.930 . S
C1520 C1519 1.369 . S
C1520 C1529 1.429 . S
C1521 C1519 1.419 . S
C1521 C1522 1.363 . S
C1521 H1524 0.929 . S
C1522 C1521 1.363 . S
C1522 C1528 1.428 . S
H1523 C1519 0.930 . S
H1524 C1521 0.929 . S
S1525 N1526 1.613 . S
S1525 N1527 1.610 . S
N1526 S1525 1.613 . S
N1526 C1529 1.350 . S
N1527 S1525 1.610 . S
N1527 C1528 1.351 . S
C1528 C1522 1.428 . S
C1528 N1527 1.351 . S
C1528 C1529 1.434 . S
C1529 C1520 1.429 . S
C1529 N1526 1.350 . S
C1529 C1528 1.434 . S
C1530 C1531 1.369 . S
C1530 C1532 1.419 . S
C1530 H1534 0.930 . S
C1531 C1530 1.369 . S
C1531 C1540 1.429 . S
C1532 C1530 1.419 . S
C1532 C1533 1.363 . S
C1532 H1535 0.929 . S
C1533 C1532 1.363 . S
C1533 C1539 1.428 . S
H1534 C1530 0.930 . S
H1535 C1532 0.929 . S
S1536 N1537 1.613 . S
S1536 N1538 1.610 . S
N1537 S1536 1.613 . S
N1537 C1540 1.350 . S
N1538 S1536 1.610 . S
N1538 C1539 1.351 . S
C1539 C1533 1.428 . S
C1539 N1538 1.351 . S
C1539 C1540 1.434 . S
C1540 C1531 1.429 . S
C1540 N1537 1.350 . S
C1540 C1539 1.434 . S
C1541 C1542 1.369 1_454 S
C1541 C1543 1.419 . S
C1541 H1545 0.930 . S
C1542 C1541 1.369 1_656 S
C1542 C1551 1.429 . S
C1543 C1541 1.419 . S
C1543 C1544 1.363 1_554 S
C1543 H1546 0.929 . S
C1544 C1543 1.363 1_556 S
C1544 C1550 1.428 1_455 S
H1545 C1541 0.930 . S
H1546 C1543 0.929 . S
S1547 N1548 1.613 . S
S1547 N1549 1.610 . S
N1548 S1547 1.613 . S
N1548 C1551 1.350 . S
N1549 S1547 1.610 . S
N1549 C1550 1.351 . S
C1550 C1544 1.428 1_655 S
C1550 N1549 1.351 . S
C1550 C1551 1.434 . S
C1551 C1542 1.429 . S
C1551 N1548 1.350 . S
C1551 C1550 1.434 . S
C1552 C1553 1.369 . S
C1552 C1554 1.419 . S
C1552 H1556 0.930 . S
C1553 C1552 1.369 . S
C1553 C1562 1.429 . S
C1554 C1552 1.419 . S
C1554 C1555 1.363 . S
C1554 H1557 0.929 . S
C1555 C1554 1.363 . S
C1555 C1561 1.428 . S
H1556 C1552 0.930 . S
H1557 C1554 0.929 . S
S1558 N1559 1.613 . S
S1558 N1560 1.610 . S
N1559 S1558 1.613 . S
N1559 C1562 1.350 . S
N1560 S1558 1.610 . S
N1560 C1561 1.351 . S
C1561 C1555 1.428 . S
C1561 N1560 1.351 . S
C1561 C1562 1.434 . S
C1562 C1553 1.429 . S
C1562 N1559 1.350 . S
C1562 C1561 1.434 . S
C1563 C1564 1.369 . S
C1563 C1565 1.419 . S
C1563 H1567 0.930 . S
C1564 C1563 1.369 . S
C1564 C1573 1.429 . S
C1565 C1563 1.419 . S
C1565 C1566 1.363 . S
C1565 H1568 0.929 . S
C1566 C1565 1.363 . S
C1566 C1572 1.428 . S
H1567 C1563 0.930 . S
H1568 C1565 0.929 . S
S1569 N1570 1.613 . S
S1569 N1571 1.610 . S
N1570 S1569 1.613 . S
N1570 C1573 1.350 . S
N1571 S1569 1.610 . S
N1571 C1572 1.351 . S
C1572 C1566 1.428 . S
C1572 N1571 1.351 . S
C1572 C1573 1.434 . S
C1573 C1564 1.429 . S
C1573 N1570 1.350 . S
C1573 C1572 1.434 . S
C1574 C1575 1.369 . S
C1574 C1576 1.419 . S
C1574 H1578 0.930 . S
C1575 C1574 1.369 . S
C1575 C1584 1.429 . S
C1576 C1574 1.419 . S
C1576 C1577 1.363 . S
C1576 H1579 0.929 . S
C1577 C1576 1.363 . S
C1577 C1583 1.428 . S
H1578 C1574 0.930 . S
H1579 C1576 0.929 . S
S1580 N1581 1.613 . S
S1580 N1582 1.610 . S
N1581 S1580 1.613 . S
N1581 C1584 1.350 . S
N1582 S1580 1.610 . S
N1582 C1583 1.351 . S
C1583 C1577 1.428 . S
C1583 N1582 1.351 . S
C1583 C1584 1.434 . S
C1584 C1575 1.429 . S
C1584 N1581 1.350 . S
C1584 C1583 1.434 . S
C1585 C1586 1.369 . S
C1585 C1587 1.419 . S
C1585 H1589 0.930 . S
C1586 C1585 1.369 . S
C1586 C1595 1.429 . S
C1587 C1585 1.419 . S
C1587 C1588 1.363 . S
C1587 H1590 0.929 . S
C1588 C1587 1.363 . S
C1588 C1594 1.428 . S
H1589 C1585 0.930 . S
H1590 C1587 0.929 . S
S1591 N1592 1.613 . S
S1591 N1593 1.610 . S
N1592 S1591 1.613 . S
N1592 C1595 1.350 . S
N1593 S1591 1.610 . S
N1593 C1594 1.351 . S
C1594 C1588 1.428 . S
C1594 N1593 1.351 . S
C1594 C1595 1.434 . S
C1595 C1586 1.429 . S
C1595 N1592 1.350 . S
C1595 C1594 1.434 . S
C1596 C1597 1.369 . S
C1596 C1598 1.419 . S
C1596 H1600 0.930 . S
C1597 C1596 1.369 . S
C1597 C1606 1.429 . S
C1598 C1596 1.419 . S
C1598 C1599 1.363 . S
C1598 H1601 0.929 . S
C1599 C1598 1.363 . S
C1599 C1605 1.428 . S
H1600 C1596 0.930 . S
H1601 C1598 0.929 . S
S1602 N1603 1.613 . S
S1602 N1604 1.610 . S
N1603 S1602 1.613 . S
N1603 C1606 1.350 . S
N1604 S1602 1.610 . S
N1604 C1605 1.351 . S
C1605 C1599 1.428 . S
C1605 N1604 1.351 . S
C1605 C1606 1.434 . S
C1606 C1597 1.429 . S
C1606 N1603 1.350 . S
C1606 C1605 1.434 . S
C1607 C1608 1.369 . S
C1607 C1609 1.419 . S
C1607 H1611 0.930 . S
C1608 C1607 1.369 . S
C1608 C1617 1.429 . S
C1609 C1607 1.419 . S
C1609 C1610 1.363 . S
C1609 H1612 0.929 . S
C1610 C1609 1.363 . S
C1610 C1616 1.428 . S
H1611 C1607 0.930 . S
H1612 C1609 0.929 . S
S1613 N1614 1.613 . S
S1613 N1615 1.610 . S
N1614 S1613 1.613 . S
N1614 C1617 1.350 . S
N1615 S1613 1.610 . S
N1615 C1616 1.351 . S
C1616 C1610 1.428 . S
C1616 N1615 1.351 . S
C1616 C1617 1.434 . S
C1617 C1608 1.429 . S
C1617 N1614 1.350 . S
C1617 C1616 1.434 . S
C1618 C1619 1.369 . S
C1618 C1620 1.419 . S
C1618 H1622 0.930 . S
C1619 C1618 1.369 . S
C1619 C1628 1.429 . S
C1620 C1618 1.419 . S
C1620 C1621 1.363 . S
C1620 H1623 0.929 . S
C1621 C1620 1.363 . S
C1621 C1627 1.428 . S
H1622 C1618 0.930 . S
H1623 C1620 0.929 . S
S1624 N1625 1.613 . S
S1624 N1626 1.610 . S
N1625 S1624 1.613 . S
N1625 C1628 1.350 . S
N1626 S1624 1.610 . S
N1626 C1627 1.351 . S
C1627 C1621 1.428 . S
C1627 N1626 1.351 . S
C1627 C1628 1.434 . S
C1628 C1619 1.429 . S
C1628 N1625 1.350 . S
C1628 C1627 1.434 . S
C1629 C1630 1.369 . S
C1629 C1631 1.419 . S
C1629 H1633 0.930 . S
C1630 C1629 1.369 . S
C1630 C1639 1.429 . S
C1631 C1629 1.419 . S
C1631 C1632 1.363 . S
C1631 H1634 0.929 . S
C1632 C1631 1.363 . S
C1632 C1638 1.428 . S
H1633 C1629 0.930 . S
H1634 C1631 0.929 . S
S1635 N1636 1.613 . S
S1635 N1637 1.610 . S
N1636 S1635 1.613 . S
N1636 C1639 1.350 . S
N1637 S1635 1.610 . S
N1637 C1638 1.351 . S
C1638 C1632 1.428 . S
C1638 N1637 1.351 . S
C1638 C1639 1.434 . S
C1639 C1630 1.429 . S
C1639 N1636 1.350 . S
C1639 C1638 1.434 . S
C1640 C1641 1.369 . S
C1640 C1642 1.419 . S
C1640 H1644 0.930 . S
C1641 C1640 1.369 . S
C1641 C1650 1.429 . S
C1642 C1640 1.419 . S
C1642 C1643 1.363 . S
C1642 H1645 0.929 . S
C1643 C1642 1.363 . S
C1643 C1649 1.428 . S
H1644 C1640 0.930 . S
H1645 C1642 0.929 . S
S1646 N1647 1.613 . S
S1646 N1648 1.610 . S
N1647 S1646 1.613 . S
N1647 C1650 1.350 . S
N1648 S1646 1.610 . S
N1648 C1649 1.351 . S
C1649 C1643 1.428 . S
C1649 N1648 1.351 . S
C1649 C1650 1.434 . S
C1650 C1641 1.429 . S
C1650 N1647 1.350 . S
C1650 C1649 1.434 . S
C1651 C1652 1.369 . S
C1651 C1653 1.419 . S
C1651 H1655 0.930 . S
C1652 C1651 1.369 . S
C1652 C1661 1.429 . S
C1653 C1651 1.419 . S
C1653 C1654 1.363 . S
C1653 H1656 0.929 . S
C1654 C1653 1.363 . S
C1654 C1660 1.428 . S
H1655 C1651 0.930 . S
H1656 C1653 0.929 . S
S1657 N1658 1.613 . S
S1657 N1659 1.610 . S
N1658 S1657 1.613 . S
N1658 C1661 1.350 . S
N1659 S1657 1.610 . S
N1659 C1660 1.351 . S
C1660 C1654 1.428 . S
C1660 N1659 1.351 . S
C1660 C1661 1.434 . S
C1661 C1652 1.429 . S
C1661 N1658 1.350 . S
C1661 C1660 1.434 . S
C1662 C1663 1.369 . S
C1662 C1664 1.419 . S
C1662 H1666 0.930 . S
C1663 C1662 1.369 . S
C1663 C1672 1.429 . S
C1664 C1662 1.419 . S
C1664 C1665 1.363 . S
C1664 H1667 0.929 . S
C1665 C1664 1.363 . S
C1665 C1671 1.428 . S
H1666 C1662 0.930 . S
H1667 C1664 0.929 . S
S1668 N1669 1.613 . S
S1668 N1670 1.610 . S
N1669 S1668 1.613 . S
N1669 C1672 1.350 . S
N1670 S1668 1.610 . S
N1670 C1671 1.351 . S
C1671 C1665 1.428 . S
C1671 N1670 1.351 . S
C1671 C1672 1.434 . S
C1672 C1663 1.429 . S
C1672 N1669 1.350 . S
C1672 C1671 1.434 . S
C1673 C1674 1.369 . S
C1673 C1675 1.419 . S
C1673 H1677 0.930 . S
C1674 C1673 1.369 . S
C1674 C1683 1.429 . S
C1675 C1673 1.419 . S
C1675 C1676 1.363 . S
C1675 H1678 0.929 . S
C1676 C1675 1.363 . S
C1676 C1682 1.428 . S
H1677 C1673 0.930 . S
H1678 C1675 0.929 . S
S1679 N1680 1.613 . S
S1679 N1681 1.610 . S
N1680 S1679 1.613 . S
N1680 C1683 1.350 . S
N1681 S1679 1.610 . S
N1681 C1682 1.351 . S
C1682 C1676 1.428 . S
C1682 N1681 1.351 . S
C1682 C1683 1.434 . S
C1683 C1674 1.429 . S
C1683 N1680 1.350 . S
C1683 C1682 1.434 . S
C1684 C1685 1.369 . S
C1684 C1686 1.419 . S
C1684 H1688 0.930 . S
C1685 C1684 1.369 . S
C1685 C1694 1.429 . S
C1686 C1684 1.419 . S
C1686 C1687 1.363 . S
C1686 H1689 0.929 . S
C1687 C1686 1.363 . S
C1687 C1693 1.428 . S
H1688 C1684 0.930 . S
H1689 C1686 0.929 . S
S1690 N1691 1.613 . S
S1690 N1692 1.610 . S
N1691 S1690 1.613 . S
N1691 C1694 1.350 . S
N1692 S1690 1.610 . S
N1692 C1693 1.351 . S
C1693 C1687 1.428 . S
C1693 N1692 1.351 . S
C1693 C1694 1.434 . S
C1694 C1685 1.429 . S
C1694 N1691 1.350 . S
C1694 C1693 1.434 . S
C1695 C1696 1.369 . S
C1695 C1697 1.419 . S
C1695 H1699 0.930 . S
C1696 C1695 1.369 . S
C1696 C1705 1.429 . S
C1697 C1695 1.419 . S
C1697 C1698 1.363 . S
C1697 H1700 0.929 . S
C1698 C1697 1.363 . S
C1698 C1704 1.428 . S
H1699 C1695 0.930 . S
H1700 C1697 0.929 . S
S1701 N1702 1.613 . S
S1701 N1703 1.610 . S
N1702 S1701 1.613 . S
N1702 C1705 1.350 . S
N1703 S1701 1.610 . S
N1703 C1704 1.351 . S
C1704 C1698 1.428 . S
C1704 N1703 1.351 . S
C1704 C1705 1.434 . S
C1705 C1696 1.429 . S
C1705 N1702 1.350 . S
C1705 C1704 1.434 . S
C1706 C1707 1.369 . S
C1706 C1708 1.419 . S
C1706 H1710 0.930 . S
C1707 C1706 1.369 . S
C1707 C1716 1.429 . S
C1708 C1706 1.419 . S
C1708 C1709 1.363 . S
C1708 H1711 0.929 . S
C1709 C1708 1.363 . S
C1709 C1715 1.428 . S
H1710 C1706 0.930 . S
H1711 C1708 0.929 . S
S1712 N1713 1.613 . S
S1712 N1714 1.610 . S
N1713 S1712 1.613 . S
N1713 C1716 1.350 . S
N1714 S1712 1.610 . S
N1714 C1715 1.351 . S
C1715 C1709 1.428 . S
C1715 N1714 1.351 . S
C1715 C1716 1.434 . S
C1716 C1707 1.429 . S
C1716 N1713 1.350 . S
C1716 C1715 1.434 . S
C1717 C1718 1.369 . S
C1717 C1719 1.419 . S
C1717 H1721 0.930 . S
C1718 C1717 1.369 . S
C1718 C1727 1.429 . S
C1719 C1717 1.419 . S
C1719 C1720 1.363 . S
C1719 H1722 0.929 . S
C1720 C1719 1.363 . S
C1720 C1726 1.428 . S
H1721 C1717 0.930 . S
H1722 C1719 0.929 . S
S1723 N1724 1.613 . S
S1723 N1725 1.610 . S
N1724 S1723 1.613 . S
N1724 C1727 1.350 . S
N1725 S1723 1.610 . S
N1725 C1726 1.351 . S
C1726 C1720 1.428 . S
C1726 N1725 1.351 . S
C1726 C1727 1.434 . S
C1727 C1718 1.429 . S
C1727 N1724 1.350 . S
C1727 C1726 1.434 . S
C673 C7 1.614 . S
C675 C88 1.605 . S
C684 C109 1.603 . S
C686 C28 1.616 . S
C695 C130 1.603 . S
C697 C46 1.615 . S
C706 C70 1.616 . S
C708 C151 1.608 . S
C717 C172 1.614 . S
C719 C256 1.606 . S
C728 C196 1.604 . S
C730 C277 1.613 . S
C739 C217 1.603 . S
C741 C298 1.615 . S
C750 C319 1.617 . S
C752 C238 1.606 . S
C761 C343 1.603 . S
C763 C427 1.615 . S
C772 C445 1.603 . S
C774 C364 1.616 . S
C783 C382 1.618 . S
C785 C466 1.605 . S
C794 C490 1.618 . S
C796 C406 1.605 . S
C805 C508 1.616 . S
C807 C595 1.605 . S
C816 C532 1.609 . S
C818 C616 1.609 . S
C827 C550 1.617 . S
C829 C634 1.604 . S
C838 C571 1.618 . S
C840 C655 1.605 . S
C849 C524 1.489 . S
C851 C19 1.494 . S
C860 C208 1.495 . S
C862 C40 1.490 . S
C871 C62 1.492 . S
C873 C566 1.491 . S
C882 C82 1.496 . S
C884 C250 1.494 . S
C893 C104 1.494 . S
C895 C607 1.490 . S
C904 C125 1.489 . S
C906 C293 1.494 . S
C915 C650 1.491 . S
C917 C146 1.493 . S
C926 C335 1.495 . S
C928 C167 1.495 . S
C937 C355 1.495 . S
C939 C188 1.490 . S
C948 C229 1.495 . S
C950 C398 1.490 . S
C959 C272 1.494 . S
C961 C439 1.491 . S
C970 C482 1.491 . S
C972 C314 1.492 . S
C981 C376 1.494 . S
C983 C544 1.495 . S
C992 C587 1.494 . S
C994 C418 1.491 . S
C1003 C628 1.495 . S
C1005 C461 1.494 . S
C1014 C502 1.494 . S
C1016 C671 1.490 . S
C1025 C20 1.090 . S
C1027 C583 1.055 . S
C1036 C41 1.102 . S
C1038 C184 1.065 . S
C1047 C61 1.091 . S
C1049 C528 1.055 . S
C1058 C213 1.059 . S
C1060 C83 1.092 . S
C1069 C612 1.047 . S
C1071 C103 1.085 . S
C1080 C124 1.086 . S
C1082 C310 1.052 . S
C1091 C667 1.046 . S
C1093 C145 1.084 . S
C1102 C268 1.057 . S
C1104 C166 1.093 . S
C1113 C402 1.060 . S
C1115 C187 1.095 . S
C1124 C209 1.102 . S
C1126 C3 1.065 . S
C1135 C360 1.046 . S
C1137 C230 1.084 . S
C1146 C58 1.062 . S
C1148 C251 1.096 . S
C1157 C457 1.047 . S
C1159 C271 1.084 . S
C1168 C292 1.080 . S
C1170 C142 1.048 . S
C1179 C313 1.089 . S
C1181 C486 1.055 . S
C1190 C100 1.046 . S
C1192 C334 1.084 . S
C1201 C356 1.092 . S
C1203 C234 1.058 . S
C1212 C377 1.102 . S
C1214 C520 1.065 . S
C1223 C192 1.054 . S
C1225 C397 1.089 . S
C1234 C419 1.083 . S
C1236 C562 1.051 . S
C1245 C289 1.063 . S
C1247 C440 1.095 . S
C1256 C460 1.085 . S
C1258 C646 1.051 . S
C1267 C331 1.060 . S
C1269 C481 1.093 . S
C1278 C503 1.093 . S
C1280 C591 1.057 . S
C1289 C66 1.069 . S
C1291 C523 1.100 . S
C1300 C545 1.099 . S
C1302 C339 1.062 . S
C1311 C565 1.086 . S
C1313 C24 1.052 . S
C1322 C394 1.048 . S
C1324 C586 1.086 . S
C1333 C121 1.069 . S
C1335 C608 1.100 . S
C1344 C478 1.064 . S
C1346 C629 1.096 . S
C1355 C649 1.099 . S
C1357 C163 1.064 . S
C1366 C423 1.055 . S
C1368 C670 1.090 . S
C1377 C4 0.914 . S
C1379 C385 0.914 . S
C1388 C25 0.916 . S
C1390 C403 0.914 . S
C1399 C49 0.906 . S
C1401 C340 0.911 . S
C1410 C67 0.915 1_556 S
C1412 C361 0.908 1_556 S
C1421 C469 0.906 . S
C1423 C91 0.900 . S
C1432 C487 0.905 . S
C1434 C112 0.910 . S
C1443 C133 0.895 . S
C1445 C424 0.894 . S
C1454 C448 0.902 1_554 S
C1456 C154 0.908 1_554 S
C1465 C553 0.899 . S
C1467 C175 0.894 . S
C1476 C574 0.896 . S
C1478 C193 0.905 . S
C1487 C511 0.917 . S
C1489 C214 0.911 . S
C1498 C235 0.892 1_554 S
C1500 C529 0.893 1_554 S
C1509 C259 0.891 . S
C1511 C637 0.893 . S
C1520 C658 0.898 . S
C1522 C280 0.894 . S
C1531 C592 0.902 . S
C1533 C301 0.896 . S
C1542 C322 0.908 1_556 S
C1544 C613 0.913 1_556 S
C1553 C150 1.032 . S
C1555 C16 1.022 . S
C1564 C37 1.030 . S
C1566 C87 1.020 . S
C1575 C45 1.031 . S
C1577 C108 1.022 . S
C1586 C129 1.023 . S
C1588 C79 1.015 . S
C1597 C318 1.029 . S
C1599 C171 1.018 . S
C1608 C205 1.012 . S
C1610 C255 1.022 . S
C1619 C276 1.031 . S
C1621 C226 1.020 . S
C1630 C297 1.014 . S
C1632 C247 1.024 . S
C1641 C499 1.033 . S
C1643 C352 1.025 . S
C1652 C436 1.022 . S
C1654 C373 1.015 . S
C1663 C444 1.033 . S
C1665 C381 1.024 . S
C1674 C415 1.015 . S
C1676 C465 1.025 . S
C1685 C654 1.012 . S
C1687 C507 1.020 . S
C1696 C604 1.028 . S
C1698 C541 1.031 . S
C1707 C625 1.012 . S
C1709 C549 1.017 . S
C1718 C570 1.033 . S
C1720 C633 1.024 . S
