# Generated by pormake.
# Topology uns, (4)-cn, num edge types: 1
# Building blocks:
#     Node 0, Type 0, BuildingBlock: CEKHIL_clean_sbu_0, # of connection points: 4
#     Node 1, Type 0, BuildingBlock: CEKHIL_clean_sbu_0, # of connection points: 4
#     Node 2, Type 0, BuildingBlock: CEKHIL_clean_sbu_0, # of connection points: 4
#     Node 3, Type 0, BuildingBlock: CEKHIL_clean_sbu_0, # of connection points: 4
#     Node 4, Type 0, BuildingBlock: CEKHIL_clean_sbu_0, # of connection points: 4
#     Node 5, Type 0, BuildingBlock: CEKHIL_clean_sbu_0, # of connection points: 4
#     Node 6, Type 0, BuildingBlock: CEKHIL_clean_sbu_0, # of connection points: 4
#     Node 7, Type 0, BuildingBlock: CEKHIL_clean_sbu_0, # of connection points: 4
#     Node 8, Type 0, BuildingBlock: CEKHIL_clean_sbu_0, # of connection points: 4
#     Node 9, Type 0, BuildingBlock: CEKHIL_clean_sbu_0, # of connection points: 4
#     Node 10, Type 0, BuildingBlock: CEKHIL_clean_sbu_0, # of connection points: 4
#     Node 11, Type 0, BuildingBlock: CEKHIL_clean_sbu_0, # of connection points: 4
#     Node 12, Type 0, BuildingBlock: CEKHIL_clean_sbu_0, # of connection points: 4
#     Node 13, Type 0, BuildingBlock: CEKHIL_clean_sbu_0, # of connection points: 4
#     Node 14, Type 0, BuildingBlock: CEKHIL_clean_sbu_0, # of connection points: 4
#     Node 15, Type 0, BuildingBlock: CEKHIL_clean_sbu_0, # of connection points: 4
#     Node 16, Type 0, BuildingBlock: CEKHIL_clean_sbu_0, # of connection points: 4
#     Node 17, Type 0, BuildingBlock: CEKHIL_clean_sbu_0, # of connection points: 4
#     Node 18, Type 0, BuildingBlock: CEKHIL_clean_sbu_0, # of connection points: 4
#     Node 19, Type 0, BuildingBlock: CEKHIL_clean_sbu_0, # of connection points: 4
#     Node 20, Type 0, BuildingBlock: CEKHIL_clean_sbu_0, # of connection points: 4
#     Node 21, Type 0, BuildingBlock: CEKHIL_clean_sbu_0, # of connection points: 4
#     Node 22, Type 0, BuildingBlock: CEKHIL_clean_sbu_0, # of connection points: 4
#     Node 23, Type 0, BuildingBlock: CEKHIL_clean_sbu_0, # of connection points: 4
#     Node 24, Type 0, BuildingBlock: CEKHIL_clean_sbu_0, # of connection points: 4
#     Node 25, Type 0, BuildingBlock: CEKHIL_clean_sbu_0, # of connection points: 4
#     Node 26, Type 0, BuildingBlock: CEKHIL_clean_sbu_0, # of connection points: 4
#     Node 27, Type 0, BuildingBlock: CEKHIL_clean_sbu_0, # of connection points: 4
#     Node 28, Type 0, BuildingBlock: CEKHIL_clean_sbu_0, # of connection points: 4
#     Node 29, Type 0, BuildingBlock: CEKHIL_clean_sbu_0, # of connection points: 4
#     Node 30, Type 0, BuildingBlock: CEKHIL_clean_sbu_0, # of connection points: 4
#     Node 31, Type 0, BuildingBlock: CEKHIL_clean_sbu_0, # of connection points: 4
#     Node 32, Type 0, BuildingBlock: CEKHIL_clean_sbu_0, # of connection points: 4
#     Node 33, Type 0, BuildingBlock: CEKHIL_clean_sbu_0, # of connection points: 4
#     Node 34, Type 0, BuildingBlock: CEKHIL_clean_sbu_0, # of connection points: 4
#     Node 35, Type 0, BuildingBlock: CEKHIL_clean_sbu_0, # of connection points: 4
#     Edge 36, Type (0, 0), BuildingBlock: UVAHIK_clean_linker_0, # of connection points: 2
#     Edge 37, Type (0, 0), BuildingBlock: UVAHIK_clean_linker_0, # of connection points: 2
#     Edge 38, Type (0, 0), BuildingBlock: UVAHIK_clean_linker_0, # of connection points: 2
#     Edge 39, Type (0, 0), BuildingBlock: UVAHIK_clean_linker_0, # of connection points: 2
#     Edge 40, Type (0, 0), BuildingBlock: UVAHIK_clean_linker_0, # of connection points: 2
#     Edge 41, Type (0, 0), BuildingBlock: UVAHIK_clean_linker_0, # of connection points: 2
#     Edge 42, Type (0, 0), BuildingBlock: UVAHIK_clean_linker_0, # of connection points: 2
#     Edge 43, Type (0, 0), BuildingBlock: UVAHIK_clean_linker_0, # of connection points: 2
#     Edge 44, Type (0, 0), BuildingBlock: UVAHIK_clean_linker_0, # of connection points: 2
#     Edge 45, Type (0, 0), BuildingBlock: UVAHIK_clean_linker_0, # of connection points: 2
#     Edge 46, Type (0, 0), BuildingBlock: UVAHIK_clean_linker_0, # of connection points: 2
#     Edge 47, Type (0, 0), BuildingBlock: UVAHIK_clean_linker_0, # of connection points: 2
#     Edge 48, Type (0, 0), BuildingBlock: UVAHIK_clean_linker_0, # of connection points: 2
#     Edge 49, Type (0, 0), BuildingBlock: UVAHIK_clean_linker_0, # of connection points: 2
#     Edge 50, Type (0, 0), BuildingBlock: UVAHIK_clean_linker_0, # of connection points: 2
#     Edge 51, Type (0, 0), BuildingBlock: UVAHIK_clean_linker_0, # of connection points: 2
#     Edge 52, Type (0, 0), BuildingBlock: UVAHIK_clean_linker_0, # of connection points: 2
#     Edge 53, Type (0, 0), BuildingBlock: UVAHIK_clean_linker_0, # of connection points: 2
#     Edge 54, Type (0, 0), BuildingBlock: UVAHIK_clean_linker_0, # of connection points: 2
#     Edge 55, Type (0, 0), BuildingBlock: UVAHIK_clean_linker_0, # of connection points: 2
#     Edge 56, Type (0, 0), BuildingBlock: UVAHIK_clean_linker_0, # of connection points: 2
#     Edge 57, Type (0, 0), BuildingBlock: UVAHIK_clean_linker_0, # of connection points: 2
#     Edge 58, Type (0, 0), BuildingBlock: UVAHIK_clean_linker_0, # of connection points: 2
#     Edge 59, Type (0, 0), BuildingBlock: UVAHIK_clean_linker_0, # of connection points: 2
#     Edge 60, Type (0, 0), BuildingBlock: UVAHIK_clean_linker_0, # of connection points: 2
#     Edge 61, Type (0, 0), BuildingBlock: UVAHIK_clean_linker_0, # of connection points: 2
#     Edge 62, Type (0, 0), BuildingBlock: UVAHIK_clean_linker_0, # of connection points: 2
#     Edge 63, Type (0, 0), BuildingBlock: UVAHIK_clean_linker_0, # of connection points: 2
#     Edge 64, Type (0, 0), BuildingBlock: UVAHIK_clean_linker_0, # of connection points: 2
#     Edge 65, Type (0, 0), BuildingBlock: UVAHIK_clean_linker_0, # of connection points: 2
#     Edge 66, Type (0, 0), BuildingBlock: UVAHIK_clean_linker_0, # of connection points: 2
#     Edge 67, Type (0, 0), BuildingBlock: UVAHIK_clean_linker_0, # of connection points: 2
#     Edge 68, Type (0, 0), BuildingBlock: UVAHIK_clean_linker_0, # of connection points: 2
#     Edge 69, Type (0, 0), BuildingBlock: UVAHIK_clean_linker_0, # of connection points: 2
#     Edge 70, Type (0, 0), BuildingBlock: UVAHIK_clean_linker_0, # of connection points: 2
#     Edge 71, Type (0, 0), BuildingBlock: UVAHIK_clean_linker_0, # of connection points: 2
#     Edge 72, Type (0, 0), BuildingBlock: UVAHIK_clean_linker_0, # of connection points: 2
#     Edge 73, Type (0, 0), BuildingBlock: UVAHIK_clean_linker_0, # of connection points: 2
#     Edge 74, Type (0, 0), BuildingBlock: UVAHIK_clean_linker_0, # of connection points: 2
#     Edge 75, Type (0, 0), BuildingBlock: UVAHIK_clean_linker_0, # of connection points: 2
#     Edge 76, Type (0, 0), BuildingBlock: UVAHIK_clean_linker_0, # of connection points: 2
#     Edge 77, Type (0, 0), BuildingBlock: UVAHIK_clean_linker_0, # of connection points: 2
#     Edge 78, Type (0, 0), BuildingBlock: UVAHIK_clean_linker_0, # of connection points: 2
#     Edge 79, Type (0, 0), BuildingBlock: UVAHIK_clean_linker_0, # of connection points: 2
#     Edge 80, Type (0, 0), BuildingBlock: UVAHIK_clean_linker_0, # of connection points: 2
#     Edge 81, Type (0, 0), BuildingBlock: UVAHIK_clean_linker_0, # of connection points: 2
#     Edge 82, Type (0, 0), BuildingBlock: UVAHIK_clean_linker_0, # of connection points: 2
#     Edge 83, Type (0, 0), BuildingBlock: UVAHIK_clean_linker_0, # of connection points: 2
#     Edge 84, Type (0, 0), BuildingBlock: UVAHIK_clean_linker_0, # of connection points: 2
#     Edge 85, Type (0, 0), BuildingBlock: UVAHIK_clean_linker_0, # of connection points: 2
#     Edge 86, Type (0, 0), BuildingBlock: UVAHIK_clean_linker_0, # of connection points: 2
#     Edge 87, Type (0, 0), BuildingBlock: UVAHIK_clean_linker_0, # of connection points: 2
#     Edge 88, Type (0, 0), BuildingBlock: UVAHIK_clean_linker_0, # of connection points: 2
#     Edge 89, Type (0, 0), BuildingBlock: UVAHIK_clean_linker_0, # of connection points: 2
#     Edge 90, Type (0, 0), BuildingBlock: UVAHIK_clean_linker_0, # of connection points: 2
#     Edge 91, Type (0, 0), BuildingBlock: UVAHIK_clean_linker_0, # of connection points: 2
#     Edge 92, Type (0, 0), BuildingBlock: UVAHIK_clean_linker_0, # of connection points: 2
#     Edge 93, Type (0, 0), BuildingBlock: UVAHIK_clean_linker_0, # of connection points: 2
#     Edge 94, Type (0, 0), BuildingBlock: UVAHIK_clean_linker_0, # of connection points: 2
#     Edge 95, Type (0, 0), BuildingBlock: UVAHIK_clean_linker_0, # of connection points: 2
#     Edge 96, Type (0, 0), BuildingBlock: UVAHIK_clean_linker_0, # of connection points: 2
#     Edge 97, Type (0, 0), BuildingBlock: UVAHIK_clean_linker_0, # of connection points: 2
#     Edge 98, Type (0, 0), BuildingBlock: UVAHIK_clean_linker_0, # of connection points: 2
#     Edge 99, Type (0, 0), BuildingBlock: UVAHIK_clean_linker_0, # of connection points: 2
#     Edge 100, Type (0, 0), BuildingBlock: UVAHIK_clean_linker_0, # of connection points: 2
#     Edge 101, Type (0, 0), BuildingBlock: UVAHIK_clean_linker_0, # of connection points: 2
#     Edge 102, Type (0, 0), BuildingBlock: UVAHIK_clean_linker_0, # of connection points: 2
#     Edge 103, Type (0, 0), BuildingBlock: UVAHIK_clean_linker_0, # of connection points: 2
#     Edge 104, Type (0, 0), BuildingBlock: UVAHIK_clean_linker_0, # of connection points: 2
#     Edge 105, Type (0, 0), BuildingBlock: UVAHIK_clean_linker_0, # of connection points: 2
#     Edge 106, Type (0, 0), BuildingBlock: UVAHIK_clean_linker_0, # of connection points: 2
#     Edge 107, Type (0, 0), BuildingBlock: UVAHIK_clean_linker_0, # of connection points: 2
# Relax obj value: 0.114
# Max RMSD: 0.260
# Mean RMSD: 0.246
data_MOF--net-uns--node1-CEKHIL_clean_sbu_0--edge1-UVAHIK_clean_linker_0
_symmetry_space_group_name_H-M    P1
_symmetry_Int_Tables_number       1
_symmetry_cell_setting            triclinic
loop_
_symmetry_equiv_pos_as_xyz
'x, y, z'
_cell_length_a     70.783286
_cell_length_b     69.905546
_cell_length_c     71.678285
_cell_angle_alpha  91.047901
_cell_angle_beta   90.00961
_cell_angle_gamma 120.44149
loop_
_atom_site_label
_atom_site_type_symbol
_atom_site_fract_x
_atom_site_fract_y
_atom_site_fract_z
_atom_type_partial_charge
Co0 Co 0.2896 0.20005 0.04908 0.0
O1 O 0.30041 0.18379 0.06208 0.0
O2 O 0.28539 0.20147 0.07573 0.0
C3 C 0.27204 0.17508 0.02601 0.0
O4 O 0.27602 0.2179 0.03963 0.0
Co5 Co 0.30752 0.21647 0.00959 0.0
O6 O 0.28431 0.22443 0.00921 0.0
C7 C 0.33635 0.23653 0.04185 0.0
C8 C 0.29543 0.19026 0.07742 0.0
C9 C 0.27406 0.225 0.02366 0.0
O10 O 0.31928 0.22716 0.05207 0.0
O11 O 0.33579 0.23351 0.02417 0.0
O12 O 0.26265 0.17291 0.04208 0.0
O13 O 0.29235 0.19063 0.02526 0.0
Co14 Co 0.82212 0.0875 0.0624 0.0
O15 O 0.85039 0.09649 0.0523 0.0
O16 O 0.8213 0.0899 0.03551 0.0
C17 C 0.83288 0.11239 0.08601 0.0
O18 O 0.79052 0.0785 0.06871 0.0
Co19 Co 0.81205 0.06756 0.10203 0.0
O20 O 0.7871 0.07274 0.09967 0.0
C21 C 0.81056 0.03977 0.07033 0.0
C22 C 0.84192 0.09569 0.03607 0.0
C23 C 0.77993 0.0752 0.08411 0.0
O24 O 0.81386 0.05555 0.05945 0.0
O25 O 0.81047 0.04152 0.08814 0.0
O26 O 0.83113 0.11793 0.06918 0.0
O27 O 0.8313 0.09318 0.08742 0.0
Co28 Co 0.91336 0.73436 0.05615 0.0
O29 O 0.90501 0.75516 0.0483 0.0
O30 O 0.91121 0.73372 0.02911 0.0
C31 C 0.88849 0.71808 0.07861 0.0
O32 O 0.92169 0.71057 0.05963 0.0
Co33 Co 0.93222 0.73882 0.0961 0.0
O34 O 0.9243 0.70771 0.09066 0.0
C35 C 0.96094 0.76824 0.06705 0.0
C36 C 0.90584 0.74889 0.03133 0.0
C37 C 0.92282 0.70035 0.07401 0.0
O38 O 0.94509 0.75824 0.05521 0.0
O39 O 0.95915 0.7636 0.08439 0.0
O40 O 0.88319 0.71225 0.06123 0.0
O41 O 0.90755 0.73554 0.0816 0.0
Co42 Co 0.16811 0.25273 0.44064 0.0
O43 O 0.13965 0.23076 0.44925 0.0
O44 O 0.16648 0.25578 0.46743 0.0
C45 C 0.15747 0.26493 0.41629 0.0
O46 O 0.19934 0.27814 0.43636 0.0
Co47 Co 0.18371 0.24604 0.40184 0.0
O48 O 0.2055 0.27802 0.40553 0.0
C49 C 0.18645 0.22174 0.43374 0.0
C50 C 0.14649 0.23917 0.46586 0.0
C51 C 0.21073 0.28721 0.4217 0.0
O52 O 0.17916 0.23164 0.44421 0.0
O53 O 0.18863 0.22434 0.41607 0.0
O54 O 0.15705 0.27179 0.43317 0.0
O55 O 0.1611 0.24855 0.41504 0.0
Co56 Co 0.72725 0.90147 0.44167 0.0
O57 O 0.7446 0.89061 0.45267 0.0
O58 O 0.72217 0.8984 0.46831 0.0
C59 C 0.71351 0.87751 0.41741 0.0
O60 O 0.70642 0.91241 0.43445 0.0
Co61 Co 0.74022 0.92246 0.40247 0.0
O62 O 0.71116 0.92014 0.40385 0.0
C63 C 0.76619 0.94808 0.43517 0.0
C64 C 0.73614 0.8915 0.46848 0.0
C65 C 0.70075 0.91746 0.41901 0.0
O66 O 0.75211 0.93275 0.44564 0.0
O67 O 0.76534 0.94661 0.41733 0.0
O68 O 0.70498 0.87171 0.43385 0.0
O69 O 0.73184 0.89618 0.41685 0.0
Co70 Co 0.08412 0.78923 0.44516 0.0
O71 O 0.11056 0.79938 0.43132 0.0
O72 O 0.07713 0.77982 0.41918 0.0
C73 C 0.09447 0.82104 0.46095 0.0
O74 O 0.05319 0.77668 0.45548 0.0
Co75 Co 0.0862 0.78645 0.48819 0.0
O76 O 0.05733 0.78466 0.48633 0.0
C77 C 0.09052 0.75455 0.46448 0.0
C78 C 0.09823 0.78933 0.41687 0.0
C79 C 0.04572 0.77847 0.47143 0.0
O80 O 0.08441 0.76139 0.45052 0.0
O81 O 0.09375 0.76316 0.48091 0.0
O82 O 0.08663 0.81822 0.44406 0.0
O83 O 0.09788 0.80565 0.46682 0.0
Co84 Co 0.73256 0.81415 0.93065 0.0
O85 O 0.71376 0.82305 0.91943 0.0
O86 O 0.7493 0.83866 0.91396 0.0
C87 C 0.71048 0.77751 0.92539 0.0
O88 O 0.75659 0.80836 0.93992 0.0
Co89 Co 0.71524 0.78546 0.96617 0.0
O90 O 0.7416 0.78294 0.96247 0.0
C91 C 0.73245 0.83348 0.96931 0.0
C92 C 0.73077 0.83779 0.91065 0.0
C93 C 0.75749 0.79519 0.95183 0.0
O94 O 0.73846 0.8354 0.95218 0.0
O95 O 0.72146 0.81473 0.97723 0.0
O96 O 0.7233 0.79003 0.91238 0.0
O97 O 0.70964 0.78786 0.9402 0.0
Co98 Co 0.16985 0.93292 0.93696 0.0
O99 O 0.14137 0.9219 0.94728 0.0
O100 O 0.16338 0.90898 0.95389 0.0
C101 C 0.18166 0.9691 0.94164 0.0
O102 O 0.20078 0.9412 0.92917 0.0
Co103 Co 0.18108 0.96092 0.90114 0.0
O104 O 0.21036 0.96424 0.90482 0.0
C105 C 0.15296 0.91251 0.89814 0.0
C106 C 0.14475 0.90812 0.9565 0.0
C107 C 0.21464 0.95375 0.9169 0.0
O108 O 0.15683 0.91109 0.91542 0.0
O109 O 0.15945 0.93104 0.89019 0.0
O110 O 0.1825 0.95732 0.95505 0.0
O111 O 0.17137 0.95818 0.92668 0.0
Co112 Co 0.07155 0.24224 0.93503 0.0
O113 O 0.08627 0.22776 0.94459 0.0
O114 O 0.09757 0.26335 0.94919 0.0
C115 C 0.03743 0.21638 0.94342 0.0
O116 O 0.05962 0.26226 0.92761 0.0
Co117 Co 0.03787 0.21854 0.90253 0.0
O118 O 0.03136 0.24256 0.90764 0.0
C119 C 0.08496 0.24365 0.89417 0.0
C120 C 0.1005 0.24668 0.95211 0.0
C121 C 0.04346 0.25996 0.91753 0.0
O122 O 0.08921 0.24987 0.91142 0.0
O123 O 0.06566 0.22972 0.8881 0.0
O124 O 0.05076 0.23123 0.95545 0.0
O125 O 0.04601 0.21592 0.92764 0.0
Co126 Co 0.82452 0.74935 0.56596 0.0
O127 O 0.85303 0.76628 0.5553 0.0
O128 O 0.83031 0.73057 0.54939 0.0
C129 C 0.81355 0.77389 0.56103 0.0
O130 O 0.79345 0.727 0.57408 0.0
Co131 Co 0.8144 0.76852 0.60158 0.0
O132 O 0.78472 0.74216 0.59822 0.0
C133 C 0.84047 0.74683 0.60511 0.0
C134 C 0.84922 0.74829 0.54651 0.0
C135 C 0.77992 0.72649 0.58637 0.0
O136 O 0.83715 0.74136 0.58767 0.0
O137 O 0.83439 0.75937 0.613 0.0
O138 O 0.81211 0.76035 0.54774 0.0
O139 O 0.82388 0.77408 0.57594 0.0
Co140 Co 0.24162 0.06616 0.55857 0.0
O141 O 0.23005 0.08384 0.54995 0.0
O142 O 0.26489 0.09304 0.54748 0.0
C143 C 0.21507 0.03399 0.54592 0.0
O144 O 0.25876 0.05106 0.56597 0.0
Co145 Co 0.21351 0.02914 0.58663 0.0
O146 O 0.23552 0.02022 0.58142 0.0
C147 C 0.23846 0.07566 0.59981 0.0
C148 C 0.24962 0.09782 0.54441 0.0
C149 C 0.25402 0.03274 0.57388 0.0
O150 O 0.24754 0.0813 0.58376 0.0
O151 O 0.22314 0.05593 0.60337 0.0
O152 O 0.23154 0.04778 0.53597 0.0
O153 O 0.21405 0.04108 0.56245 0.0
Co154 Co 0.91554 0.17683 0.5719 0.0
O155 O 0.88669 0.17036 0.57834 0.0
O156 O 0.90337 0.15399 0.5907 0.0
C157 C 0.93105 0.21389 0.57391 0.0
O158 O 0.94588 0.18032 0.56853 0.0
Co159 Co 0.93606 0.20234 0.53541 0.0
O160 O 0.96337 0.20762 0.54786 0.0
C161 C 0.90307 0.1546 0.53324 0.0
C162 C 0.88624 0.15633 0.59012 0.0
C163 C 0.96339 0.19468 0.56015 0.0
O164 O 0.90308 0.15388 0.55116 0.0
O165 O 0.91403 0.17261 0.52425 0.0
O166 O 0.92829 0.2025 0.58879 0.0
O167 O 0.92244 0.2024 0.55874 0.0
Co168 Co 0.96275 0.54252 0.38197 0.0
O169 O 0.97913 0.53441 0.39791 0.0
O170 O 0.96351 0.55344 0.40731 0.0
C171 C 0.94291 0.50951 0.36735 0.0
O172 O 0.94406 0.55304 0.36875 0.0
Co173 Co 0.9711 0.54245 0.33935 0.0
O174 O 0.94419 0.54458 0.33824 0.0
C175 C 0.005 0.57608 0.36371 0.0
C176 C 0.97567 0.54494 0.41128 0.0
C177 C 0.93674 0.55074 0.35186 0.0
O178 O 0.99056 0.57066 0.37644 0.0
O179 O 0.00138 0.56573 0.34803 0.0
O180 O 0.9369 0.51307 0.38358 0.0
O181 O 0.96182 0.52494 0.36175 0.0
Co182 Co 0.48324 0.4262 0.38988 0.0
O183 O 0.51304 0.44245 0.38204 0.0
O184 O 0.48426 0.42958 0.363 0.0
C185 C 0.48665 0.4486 0.41401 0.0
O186 O 0.45013 0.40985 0.39376 0.0
Co187 Co 0.47289 0.40422 0.42861 0.0
O188 O 0.44572 0.40538 0.42481 0.0
C189 C 0.48157 0.38225 0.39726 0.0
C190 C 0.50547 0.44067 0.36525 0.0
C191 C 0.43853 0.40579 0.40861 0.0
O192 O 0.48295 0.39744 0.38655 0.0
O193 O 0.4786 0.38231 0.41488 0.0
O194 O 0.48439 0.45361 0.39712 0.0
O195 O 0.48961 0.43185 0.41546 0.0
Co196 Co 0.57195 0.0602 0.39106 0.0
O197 O 0.56363 0.08039 0.38149 0.0
O198 O 0.56733 0.05588 0.36426 0.0
C199 C 0.54916 0.04813 0.41543 0.0
O200 O 0.57978 0.03638 0.39659 0.0
Co201 Co 0.5944 0.07006 0.43014 0.0
O202 O 0.58658 0.03862 0.42749 0.0
C203 C 0.62053 0.09446 0.3979 0.0
C204 C 0.56265 0.07164 0.36514 0.0
C205 C 0.58307 0.02865 0.4117 0.0
O206 O 0.60369 0.08286 0.38732 0.0
O207 O 0.62017 0.09271 0.41566 0.0
O208 O 0.54212 0.03997 0.39877 0.0
O209 O 0.56876 0.06527 0.41634 0.0
Co210 Co 0.84185 0.59117 0.7695 0.0
O211 O 0.81276 0.56881 0.77651 0.0
O212 O 0.83792 0.59365 0.79599 0.0
C213 C 0.83312 0.60361 0.74414 0.0
O214 O 0.87325 0.61698 0.76708 0.0
Co215 Co 0.86133 0.58621 0.73214 0.0
O216 O 0.88206 0.61833 0.73675 0.0
C217 C 0.86109 0.56075 0.76444 0.0
C218 C 0.81815 0.57697 0.79336 0.0
C219 C 0.8857 0.6269 0.75314 0.0
O220 O 0.85281 0.57018 0.77429 0.0
O221 O 0.86495 0.56408 0.74698 0.0
O222 O 0.83122 0.61015 0.76076 0.0
O223 O 0.83712 0.58746 0.74356 0.0
Co224 Co 0.3886 0.23546 0.77547 0.0
O225 O 0.40288 0.2206 0.78494 0.0
O226 O 0.38724 0.23504 0.80253 0.0
C227 C 0.36909 0.21031 0.75299 0.0
O228 O 0.37122 0.25081 0.76996 0.0
Co229 Co 0.39811 0.25288 0.73502 0.0
O230 O 0.36999 0.25223 0.73865 0.0
C231 C 0.42999 0.27867 0.76482 0.0
C232 C 0.39754 0.22403 0.80143 0.0
C233 C 0.36309 0.25346 0.7548 0.0
O234 O 0.41687 0.26473 0.77672 0.0
O235 O 0.42614 0.27641 0.74721 0.0
O236 O 0.36236 0.20709 0.77012 0.0
O237 O 0.38852 0.22713 0.75047 0.0
Co238 Co 0.74762 0.13079 0.77775 0.0
O239 O 0.77204 0.14565 0.7613 0.0
O240 O 0.73759 0.12339 0.75209 0.0
C241 C 0.75655 0.15964 0.79723 0.0
O242 O 0.71818 0.11359 0.79077 0.0
Co243 Co 0.75587 0.12342 0.81858 0.0
O244 O 0.7245 0.11416 0.82158 0.0
C245 C 0.76159 0.09787 0.78883 0.0
C246 C 0.75815 0.13562 0.74771 0.0
C247 C 0.71149 0.10979 0.80775 0.0
O248 O 0.75217 0.10476 0.77777 0.0
O249 O 0.76622 0.10451 0.80586 0.0
O250 O 0.74635 0.15773 0.78158 0.0
O251 O 0.763 0.14551 0.79953 0.0
Co252 Co 0.41016 0.15707 0.25923 0.0
O253 O 0.39092 0.16722 0.25119 0.0
O254 O 0.42408 0.17898 0.23998 0.0
C255 C 0.38495 0.12073 0.25739 0.0
O256 O 0.43406 0.14934 0.26394 0.0
Co257 Co 0.40063 0.13138 0.2962 0.0
O258 O 0.42063 0.12228 0.28516 0.0
C259 C 0.42081 0.18016 0.29753 0.0
C260 C 0.40583 0.17927 0.23929 0.0
C261 C 0.43463 0.13379 0.27289 0.0
O262 O 0.42239 0.18056 0.27964 0.0
O263 O 0.41139 0.16212 0.30668 0.0
O264 O 0.39524 0.13134 0.24264 0.0
O265 O 0.38863 0.13278 0.27237 0.0
Co266 Co 0.83452 0.25935 0.27294 0.0
O267 O 0.80459 0.245 0.2804 0.0
O268 O 0.82702 0.23221 0.28579 0.0
C269 C 0.84346 0.2934 0.28341 0.0
O270 O 0.86669 0.2704 0.2673 0.0
Co271 Co 0.84915 0.29503 0.24239 0.0
O272 O 0.87807 0.29763 0.24625 0.0
C273 C 0.82416 0.24783 0.23145 0.0
C274 C 0.80766 0.2299 0.28757 0.0
C275 C 0.88147 0.28515 0.25677 0.0
O276 O 0.82548 0.2428 0.24836 0.0
O277 O 0.83099 0.26774 0.2264 0.0
O278 O 0.84325 0.27897 0.29467 0.0
O279 O 0.83606 0.28613 0.26672 0.0
Co280 Co 0.73622 0.57538 0.26057 0.0
O281 O 0.75005 0.55931 0.26855 0.0
O282 O 0.76362 0.59531 0.27351 0.0
C283 C 0.70218 0.55133 0.27044 0.0
O284 O 0.72593 0.59717 0.2547 0.0
Co285 Co 0.69976 0.55366 0.22973 0.0
O286 O 0.69757 0.5805 0.23422 0.0
C287 C 0.74611 0.5755 0.21894 0.0
C288 C 0.76562 0.57794 0.27553 0.0
C289 C 0.71073 0.59694 0.24459 0.0
O290 O 0.752 0.58176 0.23599 0.0
O291 O 0.72613 0.56278 0.21382 0.0
O292 O 0.71696 0.56555 0.28202 0.0
O293 O 0.70921 0.55018 0.25407 0.0
Co294 Co 0.4902 0.08772 0.89943 0.0
O295 O 0.51937 0.1034 0.8897 0.0
O296 O 0.49564 0.06776 0.88429 0.0
C297 C 0.48057 0.11295 0.89278 0.0
O298 O 0.45843 0.06643 0.90651 0.0
Co299 Co 0.47894 0.10806 0.93357 0.0
O300 O 0.44878 0.08309 0.92866 0.0
C301 C 0.50344 0.0851 0.9396 0.0
C302 C 0.51505 0.08483 0.88163 0.0
C303 C 0.44419 0.06694 0.9174 0.0
O304 O 0.501 0.07952 0.9222 0.0
O305 O 0.49737 0.09804 0.9467 0.0
O306 O 0.47972 0.09912 0.87998 0.0
O307 O 0.48992 0.11306 0.90831 0.0
Co308 Co 0.90954 0.40161 0.89643 0.0
O309 O 0.89563 0.41732 0.88817 0.0
O310 O 0.93044 0.42792 0.88311 0.0
C311 C 0.88293 0.3679 0.88636 0.0
O312 O 0.9289 0.38868 0.90288 0.0
Co313 Co 0.88644 0.36696 0.92732 0.0
O314 O 0.90966 0.35988 0.92181 0.0
C315 C 0.9112 0.41441 0.93765 0.0
C316 C 0.91418 0.43142 0.8809 0.0
C317 C 0.92667 0.37209 0.91226 0.0
O318 O 0.91768 0.41887 0.92071 0.0
O319 O 0.8973 0.39482 0.94293 0.0
O320 O 0.89789 0.38141 0.87507 0.0
O321 O 0.88316 0.37601 0.90278 0.0
Co322 Co 0.58087 0.50352 0.90027 0.0
O323 O 0.55177 0.49396 0.90883 0.0
O324 O 0.57196 0.47984 0.918 0.0
C325 C 0.59359 0.54003 0.90432 0.0
O326 O 0.61193 0.51006 0.89463 0.0
Co327 Co 0.59782 0.5319 0.86472 0.0
O328 O 0.62664 0.53877 0.87504 0.0
C329 C 0.56807 0.48343 0.86088 0.0
C330 C 0.55386 0.48033 0.91945 0.0
C331 C 0.62844 0.5257 0.88609 0.0
O332 O 0.56872 0.48166 0.87868 0.0
O333 O 0.57748 0.50212 0.85268 0.0
O334 O 0.59281 0.52809 0.91826 0.0
O335 O 0.58475 0.52922 0.8889 0.0
Co336 Co 0.63377 0.873 0.71701 0.0
O337 O 0.64653 0.86068 0.73279 0.0
O338 O 0.63281 0.88122 0.7429 0.0
C339 C 0.61353 0.84254 0.69927 0.0
O340 O 0.61861 0.88774 0.70427 0.0
Co341 Co 0.64608 0.87816 0.67526 0.0
O342 O 0.62096 0.88314 0.67337 0.0
C343 C 0.67871 0.90752 0.7027 0.0
C344 C 0.64309 0.87064 0.74665 0.0
C345 C 0.61312 0.88846 0.68723 0.0
O346 O 0.66346 0.90012 0.71485 0.0
O347 O 0.67581 0.90028 0.68582 0.0
O348 O 0.60631 0.84491 0.71533 0.0
O349 O 0.63354 0.85735 0.69554 0.0
Co350 Co 0.1547 0.75407 0.73345 0.0
O351 O 0.18407 0.76383 0.7257 0.0
O352 O 0.15705 0.75895 0.70685 0.0
C353 C 0.16247 0.77652 0.75853 0.0
O354 O 0.12257 0.74481 0.73691 0.0
Co355 Co 0.13875 0.73046 0.77134 0.0
O356 O 0.11543 0.73789 0.76746 0.0
C357 C 0.14175 0.7056 0.73916 0.0
C358 C 0.17748 0.76453 0.70896 0.0
C359 C 0.11047 0.74147 0.75132 0.0
O360 O 0.1467 0.7224 0.72898 0.0
O361 O 0.13905 0.7057 0.75682 0.0
O362 O 0.16294 0.78383 0.7419 0.0
O363 O 0.16057 0.75712 0.75916 0.0
Co364 Co 0.24209 0.4053 0.72855 0.0
O365 O 0.2348 0.42688 0.72045 0.0
O366 O 0.23841 0.40342 0.70166 0.0
C367 C 0.21832 0.39131 0.75218 0.0
O368 O 0.24898 0.38052 0.73216 0.0
Co369 Co 0.26283 0.41033 0.76784 0.0
O370 O 0.25364 0.37877 0.76302 0.0
C371 C 0.29083 0.43709 0.73718 0.0
C372 C 0.23414 0.41938 0.70363 0.0
C373 C 0.2509 0.37073 0.74649 0.0
O374 O 0.27415 0.42759 0.7261 0.0
O375 O 0.28978 0.43322 0.75466 0.0
O376 O 0.21186 0.38495 0.73506 0.0
O377 O 0.23807 0.40802 0.75419 0.0
Co378 Co 0.50682 0.92782 0.10353 0.0
O379 O 0.47749 0.90842 0.11185 0.0
O380 O 0.50535 0.93061 0.13044 0.0
C381 C 0.49869 0.94251 0.07942 0.0
O382 O 0.53914 0.9507 0.09934 0.0
Co383 Co 0.52014 0.91864 0.06454 0.0
O384 O 0.54513 0.94915 0.06864 0.0
C385 C 0.51928 0.89217 0.09614 0.0
C386 C 0.48459 0.91592 0.12862 0.0
C387 C 0.55115 0.95847 0.08472 0.0
O388 O 0.51405 0.90372 0.10679 0.0
O389 O 0.52161 0.89473 0.07849 0.0
O390 O 0.49928 0.94975 0.09634 0.0
O391 O 0.49986 0.92464 0.07797 0.0
Co392 Co 0.06814 0.5774 0.1077 0.0
O393 O 0.08789 0.56844 0.11662 0.0
O394 O 0.0661 0.57483 0.13463 0.0
C395 C 0.05311 0.55259 0.08405 0.0
O396 O 0.04524 0.58632 0.10277 0.0
Co397 Co 0.07545 0.5973 0.06813 0.0
O398 O 0.04483 0.59038 0.07168 0.0
C399 C 0.10413 0.62482 0.09905 0.0
C400 C 0.08095 0.56914 0.13321 0.0
C401 C 0.03641 0.58835 0.08776 0.0
O402 O 0.09203 0.60932 0.11031 0.0
O403 O 0.10116 0.62292 0.08133 0.0
O404 O 0.04643 0.54695 0.10102 0.0
O405 O 0.07053 0.57191 0.08239 0.0
Co406 Co 0.42042 0.45967 0.11248 0.0
O407 O 0.44663 0.46948 0.09845 0.0
O408 O 0.41314 0.45166 0.08622 0.0
C409 C 0.4318 0.49077 0.12963 0.0
O410 O 0.38976 0.44772 0.12336 0.0
Co411 Co 0.42363 0.45458 0.15523 0.0
O412 O 0.39498 0.45334 0.1545 0.0
C413 C 0.4265 0.42354 0.12929 0.0
C414 C 0.43417 0.4604 0.08388 0.0
C415 C 0.38298 0.4486 0.1399 0.0
O416 O 0.41947 0.43092 0.11638 0.0
O417 O 0.4308 0.43168 0.14592 0.0
O418 O 0.42427 0.48933 0.11278 0.0
O419 O 0.43458 0.47464 0.13444 0.0
Co420 Co 0.07154 0.48838 0.59058 0.0
O421 O 0.05143 0.49722 0.58215 0.0
O422 O 0.08614 0.51301 0.57365 0.0
C423 C 0.04899 0.4518 0.58563 0.0
O424 O 0.09668 0.4828 0.59643 0.0
Co425 Co 0.05975 0.45876 0.62551 0.0
O426 O 0.08293 0.45356 0.61549 0.0
C427 C 0.07603 0.50664 0.63037 0.0
C428 C 0.06727 0.51196 0.57227 0.0
C429 C 0.09792 0.46729 0.60483 0.0
O430 O 0.07974 0.50925 0.61276 0.0
O431 O 0.0668 0.48763 0.63803 0.0
O432 O 0.06015 0.46438 0.57196 0.0
O433 O 0.05013 0.462 0.60117 0.0
Co434 Co 0.5054 0.5913 0.60939 0.0
O435 O 0.476 0.57862 0.61795 0.0
O436 O 0.4972 0.56431 0.62287 0.0
C437 C 0.5165 0.62621 0.6191 0.0
O438 O 0.53697 0.60078 0.60275 0.0
Co439 Co 0.5201 0.6262 0.57816 0.0
O440 O 0.54888 0.62847 0.58213 0.0
C441 C 0.49134 0.57897 0.56872 0.0
C442 C 0.47842 0.56319 0.62526 0.0
C443 C 0.55198 0.61556 0.59239 0.0
O444 O 0.49437 0.57398 0.58519 0.0
O445 O 0.49834 0.59893 0.56374 0.0
O446 O 0.51621 0.61193 0.63058 0.0
O447 O 0.50791 0.61833 0.60284 0.0
Co448 Co 0.40915 0.91256 0.60809 0.0
O449 O 0.42593 0.89881 0.61387 0.0
O450 O 0.43595 0.93359 0.62132 0.0
C451 C 0.37646 0.88499 0.61756 0.0
O452 O 0.3953 0.93183 0.60462 0.0
Co453 Co 0.37248 0.89037 0.57761 0.0
O454 O 0.36349 0.9106 0.58895 0.0
C455 C 0.41862 0.91667 0.56626 0.0
C456 C 0.44024 0.91755 0.62162 0.0
C457 C 0.37659 0.92802 0.59839 0.0
O458 O 0.4244 0.9223 0.58342 0.0
O459 O 0.39888 0.90282 0.56114 0.0
O460 O 0.39049 0.89925 0.62958 0.0
O461 O 0.38368 0.8862 0.60081 0.0
Co462 Co 0.15587 0.41254 0.23502 0.0
O463 O 0.18555 0.42942 0.22683 0.0
O464 O 0.16357 0.39366 0.22053 0.0
C465 C 0.14556 0.43689 0.22689 0.0
O466 O 0.12391 0.39029 0.24094 0.0
Co467 Co 0.14217 0.43237 0.26788 0.0
O468 O 0.11286 0.40616 0.26271 0.0
C469 C 0.16698 0.41024 0.27601 0.0
C470 C 0.18277 0.41142 0.2188 0.0
C471 C 0.10916 0.39016 0.25159 0.0
O472 O 0.1658 0.40485 0.25863 0.0
O473 O 0.16008 0.42279 0.28241 0.0
O474 O 0.1459 0.42317 0.21463 0.0
O475 O 0.15411 0.43743 0.24299 0.0
Co476 Co 0.57136 0.73329 0.22604 0.0
O477 O 0.55633 0.7484 0.21912 0.0
O478 O 0.5906 0.75915 0.21152 0.0
C479 C 0.54416 0.69919 0.21765 0.0
O480 O 0.59169 0.72103 0.23071 0.0
Co481 Co 0.55173 0.69943 0.25813 0.0
O482 O 0.57602 0.69416 0.25204 0.0
C483 C 0.5759 0.74728 0.26707 0.0
C484 C 0.574 0.7623 0.21054 0.0
C485 C 0.59147 0.70586 0.24084 0.0
O486 O 0.58158 0.75131 0.24991 0.0
O487 O 0.5624 0.72783 0.27288 0.0
O488 O 0.55771 0.71234 0.20532 0.0
O489 O 0.54609 0.70778 0.23415 0.0
Co490 Co 0.25339 0.84703 0.2398 0.0
O491 O 0.22394 0.83522 0.24827 0.0
O492 O 0.24593 0.82297 0.25688 0.0
C493 C 0.26384 0.88291 0.24474 0.0
O494 O 0.28521 0.85616 0.23394 0.0
Co495 Co 0.26799 0.87655 0.20471 0.0
O496 O 0.29748 0.88451 0.21404 0.0
C497 C 0.24033 0.82799 0.20011 0.0
C498 C 0.22701 0.82178 0.25828 0.0
C499 C 0.30081 0.87231 0.22499 0.0
O500 O 0.24232 0.82583 0.21768 0.0
O501 O 0.24807 0.84688 0.19243 0.0
O502 O 0.26393 0.87101 0.25838 0.0
O503 O 0.25534 0.87223 0.22923 0.0
C504 C 0.30134 0.19709 0.11216 0.0
C505 C 0.30423 0.18803 0.09549 0.0
C506 C 0.31252 0.19761 0.12852 0.0
C507 C 0.34527 0.17432 0.14889 0.0
H508 H 0.36779 0.22562 0.18234 0.0
C509 C 0.40834 0.1896 0.20586 0.0
C510 C 0.40023 0.18921 0.22381 0.0
C511 C 0.39838 0.19277 0.19029 0.0
C512 C 0.36163 0.21127 0.17304 0.0
H513 H 0.32081 0.17206 0.08304 0.0
H514 H 0.34055 0.17357 0.11097 0.0
H515 H 0.34511 0.2227 0.15541 0.0
H516 H 0.37682 0.19389 0.23976 0.0
H517 H 0.35998 0.20026 0.21258 0.0
H518 H 0.36233 0.16327 0.16623 0.0
C519 C 0.32931 0.17976 0.11182 0.0
C520 C 0.34842 0.20942 0.15773 0.0
C521 C 0.31799 0.17899 0.09565 0.0
C522 C 0.3834 0.19414 0.22606 0.0
C523 C 0.37376 0.19778 0.21054 0.0
C524 C 0.35878 0.17641 0.1639 0.0
C525 C 0.32697 0.18927 0.12847 0.0
C526 C 0.34012 0.19093 0.14538 0.0
C527 C 0.3805 0.1961 0.19248 0.0
C528 C 0.36715 0.1949 0.17608 0.0
H529 H 0.29092 0.20429 0.11247 0.0
H530 H 0.30998 0.20474 0.14113 0.0
H531 H 0.33876 0.15953 0.1401 0.0
H532 H 0.42114 0.18564 0.20371 0.0
H533 H 0.40393 0.19154 0.17648 0.0
C534 C 0.83244 0.14522 0.09934 0.0
C535 C 0.83171 0.12504 0.1022 0.0
C536 C 0.82858 0.1561 0.114 0.0
C537 C 0.82772 0.16044 0.16511 0.0
H538 H 0.79315 0.18787 0.15437 0.0
C539 C 0.81097 0.20838 0.22193 0.0
C540 C 0.8169 0.23009 0.21693 0.0
C541 C 0.8083 0.19267 0.20831 0.0
C542 C 0.80281 0.18028 0.15756 0.0
H543 H 0.82719 0.10082 0.12283 0.0
H544 H 0.82025 0.11982 0.14857 0.0
H545 H 0.79849 0.16622 0.13006 0.0
H546 H 0.8228 0.25166 0.19354 0.0
H547 H 0.81816 0.22422 0.16981 0.0
H548 H 0.83234 0.17481 0.19252 0.0
C549 C 0.82388 0.12723 0.13494 0.0
C550 C 0.80596 0.16796 0.14365 0.0
C551 C 0.82786 0.11635 0.12022 0.0
C552 C 0.81837 0.23516 0.19791 0.0
C553 C 0.81563 0.2194 0.18428 0.0
C554 C 0.8245 0.17268 0.17905 0.0
C555 C 0.82381 0.14701 0.13188 0.0
C556 C 0.81886 0.15833 0.14716 0.0
C557 C 0.81137 0.19827 0.18941 0.0
C558 C 0.81237 0.18308 0.1753 0.0
H559 H 0.83555 0.15244 0.08564 0.0
H560 H 0.82922 0.17161 0.11129 0.0
H561 H 0.83789 0.15339 0.1682 0.0
H562 H 0.80941 0.20377 0.23644 0.0
H563 H 0.80461 0.17636 0.21262 0.0
C564 C 0.78532 0.59679 0.20863 0.0
C565 C 0.76282 0.58561 0.20422 0.0
C566 C 0.80086 0.60897 0.19508 0.0
C567 C 0.80668 0.62005 0.14378 0.0
H568 H 0.85671 0.67608 0.16001 0.0
C569 C 0.87427 0.71022 0.11122 0.0
C570 C 0.87614 0.70257 0.09351 0.0
C571 C 0.86214 0.69508 0.12507 0.0
C572 C 0.84269 0.66064 0.15516 0.0
H573 H 0.73907 0.57801 0.18198 0.0
H574 H 0.76578 0.59973 0.15881 0.0
H575 H 0.83208 0.65071 0.18305 0.0
H576 H 0.8683 0.67342 0.07662 0.0
H577 H 0.84851 0.64716 0.10091 0.0
H578 H 0.81605 0.63059 0.11594 0.0
C579 C 0.77171 0.59867 0.17245 0.0
C580 C 0.82875 0.6458 0.16846 0.0
C581 C 0.75627 0.58621 0.18585 0.0
C582 C 0.86655 0.67969 0.09006 0.0
C583 C 0.85509 0.66463 0.10402 0.0
C584 C 0.82026 0.63506 0.13051 0.0
C585 C 0.79423 0.61054 0.17692 0.0
C586 C 0.81036 0.62542 0.16294 0.0
C587 C 0.85226 0.67202 0.12163 0.0
C588 C 0.8384 0.65568 0.13597 0.0
H589 H 0.7909 0.59654 0.22265 0.0
H590 H 0.81805 0.61746 0.19897 0.0
H591 H 0.79302 0.60435 0.13891 0.0
H592 H 0.88167 0.72785 0.11417 0.0
H593 H 0.86014 0.70152 0.1383 0.0
C594 C 0.16364 0.27381 0.38221 0.0
C595 C 0.15901 0.27856 0.4002 0.0
C596 C 0.1677 0.28849 0.36766 0.0
C597 C 0.18545 0.34728 0.35983 0.0
H598 H 0.15818 0.32678 0.31105 0.0
C599 C 0.17351 0.40275 0.30877 0.0
C600 C 0.17401 0.39912 0.28947 0.0
C601 C 0.17607 0.38933 0.32151 0.0
C602 C 0.1663 0.33279 0.32447 0.0
H603 H 0.15409 0.30189 0.41686 0.0
H604 H 0.16086 0.32716 0.39158 0.0
H605 H 0.15303 0.29978 0.33456 0.0
H606 H 0.17933 0.37954 0.26849 0.0
H607 H 0.18398 0.35629 0.29077 0.0
H608 H 0.19833 0.38026 0.34993 0.0
C609 C 0.16185 0.31242 0.38875 0.0
C610 C 0.16328 0.3173 0.33795 0.0
C611 C 0.15775 0.29779 0.40319 0.0
C612 C 0.17865 0.38272 0.28325 0.0
C613 C 0.18117 0.36926 0.29601 0.0
C614 C 0.1885 0.36275 0.34636 0.0
C615 C 0.16726 0.30817 0.37091 0.0
C616 C 0.17237 0.3244 0.35592 0.0
C617 C 0.17923 0.37197 0.31525 0.0
C618 C 0.17853 0.35569 0.32868 0.0
H619 H 0.16474 0.25912 0.3795 0.0
H620 H 0.1718 0.28478 0.35403 0.0
H621 H 0.19306 0.35325 0.37344 0.0
H622 H 0.17006 0.41525 0.31409 0.0
H623 H 0.17435 0.39179 0.33623 0.0
C624 C 0.58179 0.76186 0.30002 0.0
C625 C 0.58724 0.76553 0.28105 0.0
C626 C 0.59476 0.77776 0.31355 0.0
C627 C 0.65164 0.82097 0.32104 0.0
H628 H 0.62938 0.83187 0.36697 0.0
C629 C 0.70783 0.87469 0.38273 0.0
C630 C 0.70054 0.86598 0.40052 0.0
C631 C 0.69421 0.86495 0.36708 0.0
C632 C 0.63582 0.8289 0.35423 0.0
H633 H 0.60968 0.78956 0.26135 0.0
H634 H 0.63226 0.81729 0.28505 0.0
H635 H 0.60407 0.81139 0.34128 0.0
H636 H 0.67372 0.8398 0.41582 0.0
H637 H 0.65026 0.82265 0.38859 0.0
H638 H 0.68329 0.83789 0.3342 0.0
C639 C 0.61813 0.80194 0.28941 0.0
C640 C 0.62135 0.81726 0.33953 0.0
C641 C 0.60511 0.78608 0.27584 0.0
C642 C 0.67976 0.84698 0.4023 0.0
C643 C 0.66621 0.83729 0.38673 0.0
C644 C 0.66612 0.83261 0.33576 0.0
C645 C 0.61346 0.79766 0.30842 0.0
C646 C 0.62904 0.81272 0.32295 0.0
C647 C 0.67312 0.84637 0.369 0.0
C648 C 0.65826 0.83619 0.35267 0.0
H649 H 0.56807 0.74631 0.30453 0.0
H650 H 0.59081 0.77391 0.32811 0.0
H651 H 0.65801 0.81749 0.30851 0.0
H652 H 0.72377 0.88935 0.38095 0.0
H653 H 0.69997 0.8723 0.35358 0.0
C654 C 0.09595 0.78011 0.38248 0.0
C655 C 0.10813 0.78756 0.39921 0.0
C656 C 0.10579 0.77843 0.36602 0.0
C657 C 0.15265 0.77405 0.3486 0.0
H658 H 0.14889 0.8042 0.3052 0.0
C659 C 0.21663 0.80495 0.2898 0.0
C660 C 0.21037 0.80794 0.27202 0.0
C661 C 0.20135 0.79691 0.30425 0.0
C662 C 0.14977 0.79518 0.31696 0.0
H663 H 0.13996 0.79857 0.41191 0.0
H664 H 0.1569 0.79551 0.38341 0.0
H665 H 0.12688 0.80055 0.33237 0.0
H666 H 0.18301 0.8029 0.25483 0.0
H667 H 0.15616 0.78779 0.27964 0.0
H668 H 0.17573 0.76886 0.33332 0.0
C669 C 0.13982 0.79095 0.38293 0.0
C670 C 0.13715 0.79319 0.33259 0.0
C671 C 0.13014 0.79293 0.39923 0.0
C672 C 0.18828 0.80093 0.26849 0.0
C673 C 0.17295 0.79252 0.28279 0.0
C674 C 0.16512 0.77582 0.33288 0.0
C675 C 0.12783 0.78378 0.36613 0.0
C676 C 0.13886 0.7831 0.34873 0.0
C677 C 0.17948 0.79141 0.30108 0.0
C678 C 0.16424 0.78688 0.31698 0.0
H679 H 0.07893 0.77576 0.38208 0.0
H680 H 0.09616 0.77284 0.35324 0.0
H681 H 0.15409 0.76594 0.3608 0.0
H682 H 0.23363 0.81043 0.29291 0.0
H683 H 0.2071 0.79644 0.31814 0.0
C684 C 0.64705 0.87931 0.78126 0.0
C685 C 0.65288 0.87178 0.76517 0.0
C686 C 0.65732 0.88089 0.79844 0.0
C687 C 0.7075 0.88605 0.81894 0.0
H688 H 0.67122 0.8541 0.86074 0.0
C689 C 0.73853 0.85528 0.87934 0.0
C690 C 0.72808 0.85139 0.89662 0.0
C691 C 0.73173 0.86328 0.86453 0.0
C692 C 0.68175 0.86364 0.84944 0.0
H693 H 0.67433 0.86046 0.75443 0.0
H694 H 0.6922 0.86347 0.78412 0.0
H695 H 0.65422 0.85787 0.83265 0.0
H696 H 0.70395 0.85471 0.91267 0.0
H697 H 0.69297 0.86982 0.88732 0.0
H698 H 0.73504 0.8917 0.83557 0.0
C699 C 0.67974 0.86809 0.78355 0.0
C700 C 0.6719 0.86569 0.8333 0.0
C701 C 0.66928 0.86614 0.76656 0.0
C702 C 0.71212 0.85739 0.89937 0.0
C703 C 0.70566 0.86581 0.88476 0.0
C704 C 0.7174 0.88426 0.83519 0.0
C705 C 0.6739 0.87546 0.79967 0.0
C706 C 0.68461 0.87638 0.81771 0.0
C707 C 0.7146 0.86787 0.86688 0.0
C708 C 0.70461 0.87251 0.8505 0.0
H709 H 0.63456 0.88388 0.78057 0.0
H710 H 0.6525 0.88657 0.81072 0.0
H711 H 0.7177 0.8946 0.80716 0.0
H712 H 0.75073 0.85056 0.87685 0.0
H713 H 0.73896 0.86448 0.85098 0.0
C714 C 0.14008 0.87208 0.89351 0.0
C715 C 0.14321 0.89206 0.88631 0.0
C716 C 0.13558 0.85422 0.88155 0.0
C717 C 0.1219 0.83347 0.83235 0.0
H718 H 0.16408 0.8145 0.84059 0.0
C719 C 0.1562 0.8056 0.7726 0.0
C720 C 0.15873 0.78713 0.77496 0.0
C721 C 0.1503 0.81439 0.78757 0.0
C722 C 0.1519 0.81925 0.83825 0.0
H723 H 0.14178 0.90808 0.86112 0.0
H724 H 0.13415 0.87716 0.84035 0.0
H725 H 0.15841 0.83594 0.86478 0.0
H726 H 0.15759 0.76366 0.79494 0.0
H727 H 0.14755 0.77934 0.82134 0.0
H728 H 0.11618 0.81761 0.80544 0.0
C729 C 0.13518 0.87521 0.85521 0.0
C730 C 0.14857 0.83148 0.85214 0.0
C731 C 0.13972 0.89305 0.86714 0.0
C732 C 0.15582 0.77796 0.79274 0.0
C733 C 0.15002 0.78687 0.80781 0.0
C734 C 0.12527 0.82129 0.81846 0.0
C735 C 0.13399 0.85597 0.86219 0.0
C736 C 0.13408 0.83935 0.84909 0.0
C737 C 0.14691 0.80499 0.80528 0.0
C738 C 0.14085 0.81474 0.82104 0.0
H739 H 0.14239 0.87061 0.90824 0.0
H740 H 0.13434 0.83944 0.88736 0.0
H741 H 0.11036 0.83898 0.82972 0.0
H742 H 0.15833 0.81306 0.75907 0.0
H743 H 0.14852 0.82868 0.78529 0.0
C744 C 0.09792 0.25033 0.86114 0.0
C745 C 0.10245 0.2555 0.88027 0.0
C746 C 0.11234 0.26443 0.84777 0.0
C747 C 0.16786 0.31163 0.83926 0.0
H748 H 0.13752 0.32615 0.8021 0.0
C749 C 0.21361 0.38236 0.78629 0.0
C750 C 0.20543 0.37743 0.76788 0.0
C751 C 0.20189 0.36795 0.80072 0.0
C752 C 0.14628 0.32213 0.81222 0.0
H753 H 0.12676 0.27857 0.90027 0.0
H754 H 0.15193 0.30312 0.87683 0.0
H755 H 0.11656 0.29865 0.82534 0.0
H756 H 0.17849 0.35371 0.75021 0.0
H757 H 0.15833 0.32868 0.77512 0.0
H758 H 0.19763 0.33507 0.82593 0.0
C759 C 0.13713 0.2882 0.87224 0.0
C760 C 0.13424 0.30632 0.82553 0.0
C761 C 0.12265 0.27411 0.88567 0.0
C762 C 0.18521 0.35809 0.76425 0.0
C763 C 0.17357 0.34374 0.77858 0.0
C764 C 0.17996 0.32741 0.82581 0.0
C765 C 0.13166 0.28396 0.85319 0.0
C766 C 0.14485 0.30072 0.83909 0.0
C767 C 0.18176 0.34841 0.79699 0.0
C768 C 0.16926 0.33268 0.81202 0.0
H769 H 0.08268 0.23603 0.85642 0.0
H770 H 0.10795 0.26048 0.83314 0.0
H771 H 0.17646 0.30764 0.84957 0.0
H772 H 0.22919 0.39714 0.78949 0.0
H773 H 0.20854 0.37215 0.81478 0.0
C774 C 0.85145 0.71827 0.61 0.0
C775 C 0.84899 0.73577 0.61714 0.0
C776 C 0.85505 0.70487 0.62203 0.0
C777 C 0.86836 0.69976 0.67137 0.0
H778 H 0.82804 0.6369 0.66241 0.0
C779 C 0.83643 0.6376 0.73034 0.0
C780 C 0.83585 0.61733 0.7278 0.0
C781 C 0.84124 0.6519 0.71551 0.0
C782 C 0.83966 0.65436 0.66495 0.0
H783 H 0.85027 0.754 0.64242 0.0
H784 H 0.85632 0.73066 0.66327 0.0
H785 H 0.83271 0.66339 0.63857 0.0
H786 H 0.83928 0.59588 0.70757 0.0
H787 H 0.84728 0.62089 0.68136 0.0
H788 H 0.87451 0.69075 0.69811 0.0
C789 C 0.85554 0.72724 0.6484 0.0
C790 C 0.84242 0.66956 0.65127 0.0
C791 C 0.85193 0.7406 0.63641 0.0
C792 C 0.83956 0.61137 0.70992 0.0
C793 C 0.84418 0.62567 0.69496 0.0
C794 C 0.8655 0.68459 0.68506 0.0
C795 C 0.85638 0.70875 0.64143 0.0
C796 C 0.85634 0.6925 0.65455 0.0
C797 C 0.8454 0.64623 0.69772 0.0
C798 C 0.85064 0.66181 0.6822 0.0
H799 H 0.84945 0.71414 0.59522 0.0
H800 H 0.85602 0.691 0.61619 0.0
H801 H 0.87953 0.71726 0.67418 0.0
H802 H 0.83365 0.64271 0.74393 0.0
H803 H 0.84163 0.66744 0.71796 0.0
C804 C 0.36075 0.20272 0.71882 0.0
C805 C 0.35423 0.19737 0.7374 0.0
C806 C 0.34621 0.19083 0.70417 0.0
C807 C 0.29746 0.13696 0.69316 0.0
H808 H 0.29265 0.16669 0.64982 0.0
C809 C 0.23851 0.08696 0.63324 0.0
C810 C 0.2476 0.09226 0.61532 0.0
C811 C 0.24907 0.10134 0.6484 0.0
C812 C 0.29388 0.15816 0.66181 0.0
H813 H 0.32746 0.17548 0.75528 0.0
H814 H 0.30218 0.15474 0.72974 0.0
H815 H 0.3167 0.18864 0.67582 0.0
H816 H 0.2742 0.11758 0.59913 0.0
H817 H 0.29274 0.14233 0.62559 0.0
H818 H 0.27521 0.1065 0.67909 0.0
C819 C 0.31852 0.168 0.72647 0.0
C820 C 0.30767 0.17071 0.67665 0.0
C821 C 0.33299 0.17991 0.74108 0.0
C822 C 0.26676 0.11288 0.61274 0.0
C823 C 0.27736 0.12718 0.62792 0.0
C824 C 0.28378 0.12442 0.67833 0.0
C825 C 0.32497 0.17331 0.70787 0.0
C826 C 0.30974 0.1602 0.6924 0.0
C827 C 0.26898 0.12127 0.646 0.0
C828 C 0.28198 0.13485 0.66239 0.0
H829 H 0.37701 0.21614 0.71558 0.0
H830 H 0.35171 0.19511 0.68995 0.0
H831 H 0.29895 0.12838 0.70501 0.0
H832 H 0.22363 0.07136 0.6357 0.0
H833 H 0.24195 0.09655 0.66212 0.0
C834 C 0.87026 0.13774 0.62053 0.0
C835 C 0.8679 0.14573 0.60336 0.0
C836 C 0.85452 0.13231 0.63447 0.0
C837 C 0.81348 0.11594 0.65956 0.0
H838 H 0.80213 0.16434 0.66707 0.0
C839 C 0.75557 0.11721 0.71679 0.0
C840 C 0.76612 0.13604 0.72864 0.0
C841 C 0.76536 0.11628 0.70008 0.0
C842 C 0.80501 0.15063 0.66505 0.0
H843 H 0.84628 0.15225 0.58666 0.0
H844 H 0.819 0.14275 0.61082 0.0
H845 H 0.82377 0.16463 0.6405 0.0
H846 H 0.79459 0.16892 0.73207 0.0
H847 H 0.81122 0.16767 0.70257 0.0
H848 H 0.79489 0.10221 0.68444 0.0
C849 C 0.83311 0.14108 0.6137 0.0
C850 C 0.81728 0.15071 0.6498 0.0
C851 C 0.84873 0.14645 0.59985 0.0
C852 C 0.78606 0.15427 0.72312 0.0
C853 C 0.79557 0.15355 0.70627 0.0
C854 C 0.80086 0.1157 0.67472 0.0
C855 C 0.83626 0.13483 0.63139 0.0
C856 C 0.82189 0.13352 0.647 0.0
C857 C 0.78557 0.13438 0.69479 0.0
C858 C 0.79683 0.13325 0.67774 0.0
H859 H 0.88488 0.13705 0.62362 0.0
H860 H 0.85735 0.12754 0.64802 0.0
H861 H 0.81677 0.10249 0.6577 0.0
H862 H 0.74034 0.10279 0.72089 0.0
H863 H 0.75731 0.10136 0.6914 0.0
C864 C 0.00555 0.54636 0.43053 0.0
C865 C 0.98668 0.54817 0.42957 0.0
C866 C 0.01608 0.54862 0.44754 0.0
C867 C 0.00515 0.53923 0.49675 0.0
H868 H 0.06853 0.5704 0.50146 0.0
C869 C 0.04529 0.52865 0.56204 0.0
C870 C 0.06289 0.52512 0.55892 0.0
C871 C 0.03809 0.53718 0.54806 0.0
C872 C 0.05082 0.56151 0.50038 0.0
H873 H 0.9643 0.55429 0.44564 0.0
H874 H 0.98251 0.55763 0.4758 0.0
H875 H 0.05148 0.57471 0.47346 0.0
H876 H 0.08755 0.52886 0.53912 0.0
H877 H 0.0746 0.54309 0.51438 0.0
H878 H 0.00427 0.52498 0.52303 0.0
C879 C 0.98915 0.55462 0.46321 0.0
C880 C 0.04107 0.5641 0.48438 0.0
C881 C 0.97877 0.55274 0.44601 0.0
C882 C 0.07403 0.53156 0.54193 0.0
C883 C 0.06658 0.53976 0.52777 0.0
C884 C 0.01488 0.53645 0.51265 0.0
C885 C 0.00788 0.55248 0.46411 0.0
C886 C 0.01813 0.55259 0.48222 0.0
C887 C 0.04803 0.54198 0.53045 0.0
C888 C 0.03787 0.54718 0.51453 0.0
H889 H 0.01221 0.54308 0.41807 0.0
H890 H 0.03028 0.5466 0.44778 0.0
H891 H 0.98745 0.52993 0.49538 0.0
H892 H 0.03654 0.52405 0.57511 0.0
H893 H 0.0242 0.53927 0.55088 0.0
C894 C 0.47711 0.47566 0.42741 0.0
C895 C 0.48301 0.45954 0.43024 0.0
C896 C 0.47341 0.48607 0.44254 0.0
C897 C 0.46217 0.48218 0.49304 0.0
H898 H 0.48983 0.54615 0.49026 0.0
C899 C 0.48111 0.54102 0.55681 0.0
C900 C 0.48167 0.56119 0.55421 0.0
C901 C 0.47618 0.52606 0.54187 0.0
C902 C 0.48156 0.52826 0.49115 0.0
H903 H 0.48919 0.44125 0.4511 0.0
H904 H 0.48314 0.45988 0.47773 0.0
H905 H 0.49184 0.52513 0.46386 0.0
H906 H 0.47519 0.58038 0.53446 0.0
H907 H 0.46607 0.55405 0.50854 0.0
H908 H 0.4523 0.48551 0.52061 0.0
C909 C 0.48113 0.46423 0.46374 0.0
C910 C 0.4828 0.5162 0.47601 0.0
C911 C 0.4848 0.45374 0.44854 0.0
C912 C 0.4753 0.56518 0.53682 0.0
C913 C 0.47017 0.55013 0.52195 0.0
C914 C 0.46088 0.49429 0.50825 0.0
C915 C 0.47563 0.48068 0.46087 0.0
C916 C 0.4733 0.49307 0.47683 0.0
C917 C 0.47153 0.53091 0.52409 0.0
C918 C 0.47075 0.5175 0.50751 0.0
H919 H 0.47532 0.48029 0.41346 0.0
H920 H 0.46885 0.49841 0.43987 0.0
H921 H 0.45447 0.46433 0.49396 0.0
H922 H 0.48585 0.53738 0.57005 0.0
H923 H 0.47744 0.51145 0.54399 0.0
C924 C 0.54634 0.04268 0.45005 0.0
C925 C 0.53712 0.03591 0.43207 0.0
C926 C 0.53558 0.02974 0.46547 0.0
C927 C 0.49414 0.97232 0.47739 0.0
H928 H 0.48875 -0.00126 0.52362 0.0
C929 C 0.42964 0.92268 0.53266 0.0
C930 C 0.43522 0.92811 0.55163 0.0
C931 C 0.44439 0.93517 0.5188 0.0
C932 C 0.49044 0.99113 0.51091 0.0
H933 H 0.50913 0.01073 0.41622 0.0
H934 H 0.49031 0.98845 0.44304 0.0
H935 H 0.50995 0.02261 0.49809 0.0
H936 H 0.46121 0.95037 0.57084 0.0
H937 H 0.48695 0.97205 0.54658 0.0
H938 H 0.47431 0.94085 0.49005 0.0
C939 C 0.50602 0.00345 0.44523 0.0
C940 C 0.50255 0.00481 0.49629 0.0
C941 C 0.51672 0.01635 0.42988 0.0
C942 C 0.45628 0.94575 0.55638 0.0
C943 C 0.47102 0.95829 0.54249 0.0
C944 C 0.48205 0.95867 0.49198 0.0
C945 C 0.51545 0.00981 0.46315 0.0
C946 C 0.50416 0.99552 0.47925 0.0
C947 C 0.46507 0.95339 0.52356 0.0
C948 C 0.47973 0.9679 0.50879 0.0
H949 H 0.56207 0.05768 0.45215 0.0
H950 H 0.54326 0.03503 0.47912 0.0
H951 H 0.49549 0.96469 0.46456 0.0
H952 H 0.4136 0.9092 0.52846 0.0
H953 H 0.43923 0.93107 0.50434 0.0
C954 C 0.51448 0.05683 0.94558 0.0
C955 C 0.51118 0.07395 0.95233 0.0
C956 C 0.51782 0.04358 0.95794 0.0
C957 C 0.53018 0.03879 0.00739 0.0
H958 H 0.4912 0.97568 0.99835 0.0
C959 C 0.50173 0.97666 0.06634 0.0
C960 C 0.5009 0.95634 0.06331 0.0
C961 C 0.50576 0.99095 0.05164 0.0
C962 C 0.50246 0.99321 0.00092 0.0
H963 H 0.51048 0.09155 0.97735 0.0
H964 H 0.51623 0.06844 0.99882 0.0
H965 H 0.49513 0.00193 0.97455 0.0
H966 H 0.50315 0.93479 0.04241 0.0
H967 H 0.51008 0.95987 0.0165 0.0
H968 H 0.53697 0.0301 0.034 0.0
C969 C 0.51626 0.06526 0.98398 0.0
C970 C 0.50476 0.00827 0.98728 0.0
C971 C 0.51284 0.07847 0.97164 0.0
C972 C 0.50365 0.95033 0.04514 0.0
C973 C 0.50763 0.96467 0.03034 0.0
C974 C 0.52786 0.02376 0.02101 0.0
C975 C 0.51809 0.04724 0.9773 0.0
C976 C 0.51822 0.03126 0.99057 0.0
C977 C 0.50903 0.98527 0.03353 0.0
C978 C 0.51352 0.00086 0.01813 0.0
H979 H 0.51347 0.05296 0.93078 0.0
H980 H 0.51954 0.03003 0.95237 0.0
H981 H 0.54096 0.05637 0.0102 0.0
H982 H 0.49959 0.98175 0.08017 0.0
H983 H 0.50624 0.00646 0.05447 0.0
C984 C 0.91767 0.42784 0.97102 0.0
C985 C 0.92213 0.43235 0.95197 0.0
C986 C 0.93058 0.4437 0.98463 0.0
C987 C 0.98658 0.48983 0.99091 0.0
H988 H 0.96516 0.49818 0.03834 0.0
C989 C 0.04438 0.54791 0.0498 0.0
C990 C 0.03907 0.5398 0.06798 0.0
C991 C 0.02984 0.5367 0.03497 0.0
C992 C 0.97139 0.4959 0.0252 0.0
H993 H 0.9426 0.4578 0.93234 0.0
H994 H 0.96497 0.48541 0.95614 0.0
H995 H 0.9391 0.47594 0.0136 0.0
H996 H 0.01474 0.51327 0.08482 0.0
H997 H 0.9897 0.49352 0.05897 0.0
H998 H 0.01882 0.50925 0.00264 0.0
C999 C 0.95176 0.46944 0.96049 0.0
C1000 C 0.95647 0.48324 0.01103 0.0
C1001 C 0.93883 0.45362 0.94687 0.0
C1002 C 0.01927 0.52 0.07097 0.0
C1003 C 0.00479 0.5088 0.05619 0.0
C1004 C 0.0015 0.50244 0.00509 0.0
C1005 C 0.9482 0.4644 0.9795 0.0
C1006 C 0.9639 0.47977 0.99384 0.0
C1007 C 0.00976 0.51716 0.03806 0.0
C1008 C 0.99405 0.50528 0.0225 0.0
H1009 H 0.90489 0.41169 0.97547 0.0
H1010 H 0.92749 0.43928 0.99918 0.0
H1011 H 0.99281 0.48719 0.97791 0.0
H1012 H 0.0595 0.56318 0.04709 0.0
H1013 H 0.03409 0.5436 0.02116 0.0
C1014 C 0.54393 0.46289 0.95082 0.0
C1015 C 0.53769 0.46871 0.93426 0.0
C1016 C 0.53047 0.45709 0.96649 0.0
C1017 C 0.47535 0.44173 0.98394 0.0
H1018 H 0.50795 0.47974 0.02611 0.0
C1019 C 0.43315 0.45489 0.04889 0.0
C1020 C 0.44386 0.45842 0.06619 0.0
C1021 C 0.44322 0.45355 0.03241 0.0
C1022 C 0.49853 0.46862 0.01468 0.0
H1023 H 0.51164 0.47105 0.92053 0.0
H1024 H 0.48804 0.46057 0.94776 0.0
H1025 H 0.52732 0.47939 0.99836 0.0
H1026 H 0.47278 0.46195 0.07996 0.0
H1027 H 0.48973 0.45876 0.05172 0.0
H1028 H 0.44649 0.43087 0.00039 0.0
C1029 C 0.50336 0.46065 0.94873 0.0
C1030 C 0.50972 0.46846 0.99872 0.0
C1031 C 0.51692 0.46673 0.93315 0.0
C1032 C 0.46433 0.45977 0.06679 0.0
C1033 C 0.47413 0.45803 0.05051 0.0
C1034 C 0.46411 0.44164 9e-05 0.0
C1035 C 0.51041 0.45672 0.96578 0.0
C1036 C 0.49829 0.45509 0.98315 0.0
C1037 C 0.46399 0.45536 0.03303 0.0
C1038 C 0.47558 0.45515 0.01568 0.0
H1039 H 0.55985 0.46432 0.95209 0.0
H1040 H 0.53619 0.45388 0.97943 0.0
H1041 H 0.46613 0.43131 0.9721 0.0
H1042 H 0.41729 0.45366 0.04806 0.0
H1043 H 0.43495 0.45162 0.01921 0.0
C1044 C 0.18592 0.0054 0.93217 0.0
C1045 C 0.19225 0.99338 0.9435 0.0
C1046 C 0.19503 0.02828 0.93518 0.0
C1047 C 0.24199 0.07733 0.95716 0.0
H1048 H 0.20103 0.09696 0.96939 0.0
C1049 C 0.2724 0.1611 0.99378 0.0
C1050 C 0.26107 0.1592 0.01037 0.0
C1051 C 0.26329 0.14427 0.9801 0.0
C1052 C 0.21268 0.0918 0.9658 0.0
H1053 H 0.21365 0.99577 0.9662 0.0
H1054 H 0.22973 0.03554 0.97122 0.0
H1055 H 0.18752 0.06016 0.95512 0.0
H1056 H 0.23068 0.13916 0.02505 0.0
H1057 H 0.21492 0.10964 0.00136 0.0
H1058 H 0.26696 0.10819 0.96885 0.0
C1059 C 0.21773 0.02742 0.9601 0.0
C1060 C 0.20498 0.07085 0.9575 0.0
C1061 C 0.20839 0.00463 0.95733 0.0
C1062 C 0.23985 0.14098 0.01245 0.0
C1063 C 0.23074 0.12416 0.99879 0.0
C1064 C 0.24969 0.09826 0.96534 0.0
C1065 C 0.21094 0.03942 0.94925 0.0
C1066 C 0.21948 0.06312 0.95384 0.0
C1067 C 0.24269 0.12525 0.98277 0.0
C1068 C 0.23501 0.10537 0.97044 0.0
H1069 H 0.17347 0.99704 0.92142 0.0
H1070 H 0.18954 0.03721 0.92667 0.0
H1071 H 0.2535 0.07177 0.95432 0.0
H1072 H 0.2887 0.17512 0.99169 0.0
H1073 H 0.27275 0.14571 0.96778 0.0
C1074 C 0.00471 0.20724 0.96265 0.0
C1075 C 0.01379 0.20237 0.94715 0.0
C1076 C 0.98249 0.19399 0.96656 0.0
C1077 C 0.93739 0.1375 0.96173 0.0
H1078 H 0.90372 0.16324 0.98084 0.0
C1079 C 0.85197 0.11211 0.00423 0.0
C1080 C 0.85577 0.10196 0.01935 0.0
C1081 C 0.86749 0.12137 0.99002 0.0
C1082 C 0.91265 0.15569 0.97516 0.0
H1083 H 0.00671 0.18004 0.92339 0.0
H1084 H 0.9677 0.1564 0.93055 0.0
H1085 H 0.93879 0.18687 0.96584 0.0
H1086 H 0.87767 0.09193 0.03084 0.0
H1087 H 0.9044 0.10765 0.00607 0.0
H1088 H 0.91178 0.10653 0.97196 0.0
C1089 C 0.97786 0.17062 0.93955 0.0
C1090 C 0.93283 0.16927 0.96675 0.0
C1091 C 0.00013 0.18412 0.93547 0.0
C1092 C 0.87443 0.0998 0.01939 0.0
C1093 C 0.88965 0.10864 0.0051 0.0
C1094 C 0.91729 0.12395 0.97029 0.0
C1095 C 0.96886 0.17542 0.95517 0.0
C1096 C 0.94576 0.16045 0.96058 0.0
C1097 C 0.88673 0.12015 0.99058 0.0
C1098 C 0.90511 0.13308 0.97771 0.0
H1099 H 0.0148 0.22126 0.97186 0.0
H1100 H 0.9761 0.1979 0.97886 0.0
H1101 H 0.94703 0.13026 0.95713 0.0
H1102 H 0.83771 0.11401 0.00394 0.0
H1103 H 0.86483 0.13011 0.97895 0.0
C1104 C 0.9073 0.78102 0.01584 0.0
C1105 C 0.90001 0.75827 0.01564 0.0
C1106 C 0.8985 0.78961 0.00335 0.0
C1107 C 0.85795 0.77458 0.96379 0.0
H1108 H 0.84424 0.81402 0.99159 0.0
C1109 C 0.79405 0.80081 0.94093 0.0
C1110 C 0.77815 0.79507 0.95486 0.0
C1111 C 0.81318 0.79999 0.94453 0.0
C1112 C 0.8482 0.8033 0.98349 0.0
H1113 H 0.87891 0.72676 0.00165 0.0
H1114 H 0.86247 0.7414 0.98044 0.0
H1115 H 0.87081 0.80557 0.00414 0.0
H1116 H 0.77017 0.7845 0.98355 0.0
H1117 H 0.80318 0.78345 0.98971 0.0
H1118 H 0.83368 0.77121 0.94384 0.0
C1119 C 0.87551 0.75289 0.98975 0.0
C1120 C 0.86363 0.79853 0.9906 0.0
C1121 C 0.88483 0.74442 0.00195 0.0
C1122 C 0.78191 0.78886 0.9724 0.0
C1123 C 0.80095 0.78841 0.97603 0.0
C1124 C 0.84234 0.77934 0.95668 0.0
C1125 C 0.88157 0.77547 0.99084 0.0
C1126 C 0.86822 0.7835 0.98122 0.0
C1127 C 0.81681 0.79397 0.96222 0.0
C1128 C 0.83675 0.79307 0.96688 0.0
H1129 H 0.91922 0.79206 0.02616 0.0
H1130 H 0.90417 0.80719 0.00421 0.0
H1131 H 0.86131 0.76323 0.95601 0.0
H1132 H 0.79156 0.8056 0.92728 0.0
H1133 H 0.82521 0.8043 0.93364 0.0
C1134 C 0.98451 0.175 0.55971 0.0
C1135 C 0.98408 0.1947 0.56245 0.0
C1136 C 0.00426 0.17589 0.55546 0.0
C1137 C 0.06461 0.21263 0.55159 0.0
H1138 H 0.05574 0.18538 0.50238 0.0
C1139 C 0.13295 0.24486 0.49654 0.0
C1140 C 0.13162 0.23061 0.48192 0.0
C1141 C 0.11675 0.2373 0.51023 0.0
C1142 C 0.05874 0.19266 0.51629 0.0
H1143 H 0.00393 0.23048 0.56491 0.0
H1144 H 0.03841 0.23202 0.55809 0.0
H1145 H 0.02438 0.17692 0.52143 0.0
H1146 H 0.11357 0.19692 0.47091 0.0
H1147 H 0.08615 0.18331 0.49529 0.0
H1148 H 0.09903 0.22866 0.54635 0.0
C1149 C 0.02365 0.21593 0.55904 0.0
C1150 C 0.04061 0.18777 0.52725 0.0
C1151 C 0.00391 0.21507 0.56292 0.0
C1152 C 0.11475 0.20833 0.48191 0.0
C1153 C 0.09892 0.20061 0.49583 0.0
C1154 C 0.08286 0.21726 0.54073 0.0
C1155 C 0.02384 0.19646 0.55424 0.0
C1156 C 0.04328 0.19819 0.54476 0.0
C1157 C 0.09915 0.21517 0.50981 0.0
C1158 C 0.08016 0.20788 0.52266 0.0
H1159 H 0.96938 0.15913 0.55907 0.0
H1160 H 0.00399 0.16062 0.55191 0.0
H1161 H 0.06713 0.22086 0.56508 0.0
H1162 H 0.14578 0.26215 0.4968 0.0
H1163 H 0.1175 0.24916 0.52055 0.0
C1164 C 0.81555 0.81029 0.55873 0.0
C1165 C 0.80292 0.78714 0.55939 0.0
C1166 C 0.80567 0.82269 0.55449 0.0
C1167 C 0.75493 0.815 0.53153 0.0
H1168 H 0.78265 0.87809 0.54258 0.0
C1169 C 0.72575 0.87008 0.49795 0.0
C1170 C 0.74198 0.88424 0.48555 0.0
C1171 C 0.73091 0.85979 0.51204 0.0
C1172 C 0.77455 0.8604 0.53966 0.0
H1173 H 0.77018 0.75865 0.55757 0.0
H1174 H 0.75254 0.78021 0.55152 0.0
H1175 H 0.79516 0.85599 0.55875 0.0
H1176 H 0.77642 0.90014 0.47881 0.0
H1177 H 0.78561 0.88291 0.50388 0.0
H1178 H 0.73432 0.81961 0.5125 0.0
C1179 C 0.77018 0.78896 0.55326 0.0
C1180 C 0.78187 0.84773 0.5487 0.0
C1181 C 0.78018 0.77656 0.55692 0.0
C1182 C 0.76366 0.88926 0.48824 0.0
C1183 C 0.76893 0.87952 0.50261 0.0
C1184 C 0.74729 0.82755 0.5229 0.0
C1185 C 0.78285 0.81216 0.55129 0.0
C1186 C 0.77273 0.82498 0.54423 0.0
C1187 C 0.75247 0.86412 0.5142 0.0
C1188 C 0.7575 0.85046 0.52642 0.0
H1189 H 0.83319 0.81868 0.56049 0.0
H1190 H 0.81618 0.84038 0.55284 0.0
H1191 H 0.74761 0.79772 0.52732 0.0
H1192 H 0.70888 0.86585 0.49599 0.0
H1193 H 0.71796 0.84782 0.52077 0.0
C1194 C 0.18012 -0.00235 0.549 0.0
C1195 C 0.19879 0.01175 0.53868 0.0
C1196 C 0.16465 0.97671 0.54179 0.0
C1197 C 0.14663 0.94416 0.49728 0.0
H1198 H 0.12355 0.89314 0.52922 0.0
C1199 C 0.11268 0.84563 0.48874 0.0
C1200 C 0.10022 0.84106 0.4723 0.0
C1201 C 0.12021 0.86573 0.49843 0.0
C1202 C 0.12985 0.90723 0.52011 0.0
H1203 H 0.2161 0.01503 0.51289 0.0
H1204 H 0.18954 0.97851 0.50054 0.0
H1205 H 0.14631 0.9303 0.5427 0.0
H1206 H 0.0845 0.85311 0.45379 0.0
H1207 H 0.09717 0.88802 0.47098 0.0
H1208 H 0.13145 0.92121 0.47453 0.0
C1209 C 0.18645 0.9837 0.51396 0.0
C1210 C 0.14269 0.92854 0.52788 0.0
C1211 C 0.20179 0.00457 0.52112 0.0
C1212 C 0.09435 0.85637 0.4663 0.0
C1213 C 0.10169 0.87639 0.47611 0.0
C1214 C 0.13398 0.9229 0.48951 0.0
C1215 C 0.16764 0.96955 0.52415 0.0
C1216 C 0.15172 0.94719 0.51645 0.0
C1217 C 0.11523 0.88158 0.49199 0.0
C1218 C 0.12589 0.90413 0.50075 0.0
H1219 H 0.17739 0.00283 0.56258 0.0
H1220 H 0.15027 0.96624 0.54992 0.0
H1221 H 0.15296 0.95823 0.48815 0.0
H1222 H 0.1174 0.83409 0.49371 0.0
H1223 H 0.13082 0.86924 0.51046 0.0
C1224 C 0.75045 0.87485 0.97202 0.0
C1225 C 0.73939 0.85406 0.98052 0.0
C1226 C 0.75793 0.89435 0.98261 0.0
C1227 C 0.77343 0.91729 0.03043 0.0
H1228 H 0.76748 0.96515 0.01043 0.0
C1229 C 0.79528 -0.00142 0.07174 0.0
C1230 C 0.80522 0.01825 0.06154 0.0
C1231 C 0.78782 0.97803 0.0627 0.0
C1232 C 0.76949 0.95204 0.01612 0.0
H1233 H 0.72739 0.83753 0.0069 0.0
H1234 H 0.74035 0.87169 0.02535 0.0
H1235 H 0.75237 0.93014 0.99308 0.0
H1236 H 0.81646 0.03187 0.03406 0.0
H1237 H 0.80377 0.99624 0.01847 0.0
H1238 H 0.79064 0.93936 0.05349 0.0
C1239 C 0.74338 0.87282 0.01049 0.0
C1240 C 0.7608 0.93197 0.00619 0.0
C1241 C 0.73582 0.85325 -0.00013 0.0
C1242 C 0.80856 0.01703 0.04232 0.0
C1243 C 0.80119 0.99658 0.03334 0.0
C1244 C 0.78215 0.93744 0.0404 0.0
C1245 C 0.75456 0.89357 0.00196 0.0
C1246 C 0.76287 0.91445 0.01311 0.0
C1247 C 0.79022 0.97682 0.04331 0.0
C1248 C 0.7805 0.95511 0.03322 0.0
H1249 H 0.75355 0.87616 0.95716 0.0
H1250 H 0.76674 0.9101 0.97565 0.0
H1251 H 0.77545 0.90414 0.03604 0.0
H1252 H 0.79246 -0.00106 0.08656 0.0
H1253 H 0.7794 0.96306 0.07074 0.0
C1254 C 0.13302 0.88222 0.98365 0.0
C1255 C 0.12807 0.8929 0.96967 0.0
C1256 C 0.11731 0.86964 0.99704 0.0
C1257 C 0.06666 0.86372 0.01772 0.0
H1258 H 0.05426 0.80545 0.03257 0.0
C1259 C 0.98324 0.79706 0.04391 0.0
C1260 C 0.98239 0.7853 0.05987 0.0
C1261 C 0.0033 0.81189 0.03602 0.0
C1262 C 0.05783 0.82188 0.02878 0.0
H1263 H 0.10253 0.89781 0.95814 0.0
H1264 H 0.0753 0.87573 0.98096 0.0
H1265 H 0.08545 0.82766 0.01226 0.0
H1266 H 0.00186 0.77993 0.08018 0.0
H1267 H 0.03718 0.8057 0.06596 0.0
H1268 H 0.03847 0.85753 0.03342 0.0
C1269 C 0.0914 0.87754 0.98209 0.0
C1270 C 0.07566 0.83458 0.01718 0.0
C1271 C 0.10699 0.89008 0.96889 0.0
C1272 C 0.00207 0.78893 0.06796 0.0
C1273 C 0.02221 0.8035 0.05979 0.0
C1274 C 0.04882 0.851 0.02911 0.0
C1275 C 0.09647 0.8676 0.99659 0.0
C1276 C 0.07979 0.85533 0.01103 0.0
C1277 C 0.02294 0.81502 0.04371 0.0
C1278 C 0.04387 0.82973 0.0343 0.0
H1279 H 0.14917 0.88414 0.98457 0.0
H1280 H 0.12166 0.86209 0.00802 0.0
H1281 H 0.06977 0.87991 0.01366 0.0
H1282 H 0.96834 0.79461 0.03739 0.0
H1283 H 0.00342 0.82043 0.02352 0.0
C1284 C 0.11989 0.22933 0.96685 0.0
C1285 C 0.11885 0.24853 0.96352 0.0
C1286 C 0.13701 0.23044 0.97733 0.0
C1287 C 0.16886 0.23442 0.00707 0.0
H1288 H 0.22819 0.27989 0.99543 0.0
C1289 C 0.24315 0.23017 0.03508 0.0
C1290 C 0.25869 0.23343 0.0214 0.0
C1291 C 0.22722 0.23605 0.03173 0.0
C1292 C 0.21171 0.2671 0.9989 0.0
H1293 H 0.13496 0.28401 0.96878 0.0
H1294 H 0.16519 0.286 0.98722 0.0
H1295 H 0.19738 0.28185 0.98244 0.0
H1296 H 0.2703 0.24657 0.99385 0.0
H1297 H 0.24264 0.25636 0.98798 0.0
H1298 H 0.18306 0.2189 0.02257 0.0
C1299 C 0.15265 0.27007 0.98159 0.0
C1300 C 0.19404 0.26837 0.9916 0.0
C1301 C 0.13534 0.26894 0.97108 0.0
C1302 C 0.25855 0.24364 0.0047 0.0
C1303 C 0.24274 0.24951 0.00138 0.0
C1304 C 0.1865 0.2331 0.0143 0.0
C1305 C 0.15365 0.25078 0.98483 0.0
C1306 C 0.17239 0.25162 0.99508 0.0
C1307 C 0.22658 0.2454 0.01466 0.0
C1308 C 0.20815 0.24902 0.00979 0.0
H1309 H 0.10751 0.21331 0.96123 0.0
H1310 H 0.13746 0.21533 0.97915 0.0
H1311 H 0.15238 0.22146 0.01034 0.0
H1312 H 0.24281 0.22242 0.04812 0.0
H1313 H 0.21516 0.23287 0.04235 0.0
C1314 C 0.86284 0.72932 0.52452 0.0
C1315 C 0.86605 0.74851 0.53406 0.0
C1316 C 0.87938 0.73014 0.51312 0.0
C1317 C 0.93111 0.7706 0.48946 0.0
H1318 H 0.94725 0.72556 0.49444 0.0
C1319 C 0.01866 0.78765 0.48424 0.0
C1320 C 0.02296 0.77375 0.4729 0.0
C1321 C 0.99722 0.78278 0.48712 0.0
C1322 C 0.94265 0.73802 0.49261 0.0
H1323 H 0.88909 0.78358 0.53905 0.0
H1324 H 0.91766 0.7849 0.51973 0.0
H1325 H 0.91326 0.71992 0.50841 0.0
H1326 H 0.00832 0.74395 0.45548 0.0
H1327 H 0.97029 0.73485 0.46116 0.0
H1328 H 0.96125 0.78933 0.4748 0.0
C1329 C 0.90236 0.76928 0.52058 0.0
C1330 C 0.92319 0.73481 0.50058 0.0
C1331 C 0.88597 0.76847 0.53186 0.0
C1332 C 0.00537 0.75497 0.4642 0.0
C1333 C 0.98372 0.74974 0.4675 0.0
C1334 C 0.95062 0.7739 0.48173 0.0
C1335 C 0.89935 0.75019 0.51101 0.0
C1336 C 0.91763 0.75147 0.4997 0.0
C1337 C 0.97952 0.76361 0.47905 0.0
C1338 C 0.95691 0.75797 0.48375 0.0
H1339 H 0.84766 0.7137 0.52593 0.0
H1340 H 0.87652 0.71513 0.50592 0.0
H1341 H 0.92705 0.78351 0.48805 0.0
H1342 H 0.03195 0.80227 0.49105 0.0
H1343 H 0.99441 0.79364 0.4962 0.0
C1344 C 0.18819 0.20191 0.46169 0.0
C1345 C 0.19375 0.20778 0.443 0.0
C1346 C 0.19648 0.19051 0.47121 0.0
C1347 C 0.24192 0.17946 0.47209 0.0
H1348 H 0.20369 0.13389 0.50627 0.0
C1349 C 0.26197 0.12141 0.51618 0.0
C1350 C 0.2531 0.11733 0.53418 0.0
C1351 C 0.25832 0.13487 0.50415 0.0
C1352 C 0.21464 0.14671 0.49689 0.0
H1353 H 0.21221 0.20591 0.41957 0.0
H1354 H 0.22661 0.18566 0.43633 0.0
H1355 H 0.18864 0.15036 0.48592 0.0
H1356 H 0.23567 0.12567 0.5545 0.0
H1357 H 0.22994 0.14959 0.53385 0.0
H1358 H 0.26795 0.17552 0.48328 0.0
C1359 C 0.21593 0.19014 0.44356 0.0
C1360 C 0.206 0.15611 0.48521 0.0
C1361 C 0.20751 0.20153 0.43393 0.0
C1362 C 0.24262 0.12859 0.54064 0.0
C1363 C 0.23917 0.14209 0.52878 0.0
C1364 C 0.25061 0.16988 0.48381 0.0
C1365 C 0.21055 0.18461 0.46234 0.0
C1366 C 0.21959 0.17298 0.473 0.0
C1367 C 0.24584 0.14432 0.51011 0.0
C1368 C 0.23709 0.15383 0.49666 0.0
H1369 H 0.17766 0.20643 0.46915 0.0
H1370 H 0.19224 0.18678 0.48574 0.0
H1371 H 0.25281 0.19248 0.46284 0.0
H1372 H 0.26986 0.11262 0.51087 0.0
H1373 H 0.26368 0.13639 0.48982 0.0
C1374 C 0.79607 0.9881 0.43409 0.0
C1375 C 0.78334 0.96881 0.44437 0.0
C1376 C 0.81058 0.00817 0.4432 0.0
C1377 C 0.81835 0.03596 0.48886 0.0
H1378 H 0.87594 0.07841 0.47053 0.0
C1379 C 0.87822 0.11334 0.53197 0.0
C1380 C 0.89002 0.13348 0.52256 0.0
C1381 C 0.86604 0.09337 0.52202 0.0
C1382 C 0.85979 0.0668 0.47569 0.0
H1383 H 0.77693 0.95523 0.4722 0.0
H1384 H 0.80232 0.99006 0.48796 0.0
H1385 H 0.85373 0.04302 0.45378 0.0
H1386 H 0.89832 0.14829 0.49522 0.0
H1387 H 0.87677 0.11336 0.47788 0.0
H1388 H 0.82422 0.05964 0.51066 0.0
C1389 C 0.80071 0.98981 0.47292 0.0
C1390 C 0.84711 0.04655 0.46613 0.0
C1391 C 0.78621 0.96982 0.46385 0.0
C1392 C 0.88941 0.13311 0.50293 0.0
C1393 C 0.87719 0.11308 0.49297 0.0
C1394 C 0.83098 0.05615 0.49838 0.0
C1395 C 0.81266 0.00931 0.46276 0.0
C1396 C 0.82631 0.03087 0.4727 0.0
C1397 C 0.86531 0.09301 0.50242 0.0
C1398 C 0.85188 0.07175 0.49198 0.0
H1399 H 0.79428 0.9879 0.41907 0.0
H1400 H 0.81952 0.02295 0.43501 0.0
H1401 H 0.80218 0.02444 0.49404 0.0
H1402 H 0.87838 0.11291 0.54706 0.0
H1403 H 0.85732 0.07814 0.5297 0.0
C1404 C 0.93496 0.48647 0.33814 0.0
C1405 C 0.92955 0.48873 0.35659 0.0
C1406 C 0.92335 0.46607 0.32858 0.0
C1407 C 0.89629 0.40811 0.33824 0.0
H1408 H 0.86991 0.39695 0.28886 0.0
C1409 C 0.84841 0.31984 0.30893 0.0
C1410 C 0.85057 0.3161 0.28999 0.0
C1411 C 0.85622 0.34128 0.31589 0.0
C1412 C 0.87745 0.39986 0.30255 0.0
H1413 H 0.90724 0.47185 0.37925 0.0
H1414 H 0.88735 0.43612 0.36268 0.0
H1415 H 0.88694 0.43436 0.30292 0.0
H1416 H 0.86199 0.33155 0.26326 0.0
H1417 H 0.87676 0.36949 0.2756 0.0
H1418 H 0.88793 0.37427 0.33786 0.0
C1419 C 0.90047 0.45013 0.35563 0.0
C1420 C 0.88706 0.42121 0.31059 0.0
C1421 C 0.91184 0.47055 0.36507 0.0
C1422 C 0.86016 0.33412 0.27794 0.0
C1423 C 0.86849 0.35577 0.28502 0.0
C1424 C 0.8871 0.387 0.33014 0.0
C1425 C 0.90641 0.44763 0.33746 0.0
C1426 C 0.89629 0.42536 0.32859 0.0
C1427 C 0.86696 0.3596 0.30418 0.0
C1428 C 0.87727 0.38247 0.3123 0.0
H1429 H 0.94845 0.50029 0.33124 0.0
H1430 H 0.92824 0.46445 0.31459 0.0
H1431 H 0.90374 0.41106 0.35199 0.0
H1432 H 0.8407 0.30614 0.31845 0.0
H1433 H 0.85404 0.34345 0.33058 0.0
C1434 C 0.54079 0.47122 0.3541 0.0
C1435 C 0.52074 0.45195 0.3499 0.0
C1436 C 0.55624 0.48178 0.34027 0.0
C1437 C 0.57803 0.47147 0.29906 0.0
H1438 H 0.61033 0.53577 0.29737 0.0
C1439 C 0.66295 0.52273 0.2632 0.0
C1440 C 0.67869 0.53936 0.27515 0.0
C1441 C 0.6407 0.51171 0.26785 0.0
C1442 C 0.60139 0.5178 0.29754 0.0
H1443 H 0.50088 0.42864 0.32795 0.0
H1444 H 0.52863 0.44695 0.30353 0.0
H1445 H 0.57523 0.51677 0.31329 0.0
H1446 H 0.68353 0.55766 0.30118 0.0
H1447 H 0.64497 0.53863 0.30922 0.0
H1448 H 0.60496 0.47264 0.2843 0.0
C1449 C 0.53204 0.45394 0.31758 0.0
C1450 C 0.58128 0.50695 0.30656 0.0
C1451 C 0.51623 0.44355 0.33146 0.0
C1452 C 0.67182 0.5449 0.2917 0.0
C1453 C 0.64968 0.53414 0.29621 0.0
C1454 C 0.59825 0.48237 0.29002 0.0
C1455 C 0.55218 0.47316 0.32194 0.0
C1456 C 0.56993 0.48377 0.30815 0.0
C1457 C 0.63387 0.51745 0.28437 0.0
C1458 C 0.61056 0.50569 0.28998 0.0
H1459 H 0.54465 0.47811 0.36818 0.0
H1460 H 0.57174 0.49637 0.34409 0.0
H1461 H 0.56962 0.45358 0.30019 0.0
H1462 H 0.66783 0.51815 0.25033 0.0
H1463 H 0.62885 0.49888 0.25851 0.0
C1464 C 0.54564 0.06484 0.33316 0.0
C1465 C 0.55574 0.07906 0.34866 0.0
C1466 C 0.53652 0.07107 0.31881 0.0
C1467 C 0.50315 0.08233 0.30265 0.0
H1468 H 0.53017 0.14151 0.28261 0.0
C1469 C 0.44933 0.10904 0.26562 0.0
C1470 C 0.45325 0.13019 0.27081 0.0
C1471 C 0.46524 0.10323 0.26886 0.0
C1472 C 0.52231 0.12493 0.28811 0.0
H1473 H 0.56552 0.11146 0.36075 0.0
H1474 H 0.55002 0.12247 0.33564 0.0
H1475 H 0.55228 0.13045 0.30059 0.0
H1476 H 0.47698 0.16222 0.28258 0.0
H1477 H 0.50448 0.152 0.28901 0.0
H1478 H 0.47293 0.07711 0.29164 0.0
C1479 C 0.54899 0.10648 0.33457 0.0
C1480 C 0.53505 0.11857 0.2983 0.0
C1481 C 0.55771 0.1001 0.34902 0.0
C1482 C 0.47381 0.14594 0.27815 0.0
C1483 C 0.48956 0.13998 0.28183 0.0
C1484 C 0.49035 0.08876 0.29275 0.0
C1485 C 0.53778 0.09183 0.31956 0.0
C1486 C 0.52546 0.09738 0.30606 0.0
C1487 C 0.48511 0.1182 0.278 0.0
C1488 C 0.49959 0.11037 0.28574 0.0
H1489 H 0.54388 0.04851 0.33255 0.0
H1490 H 0.52798 0.05948 0.30738 0.0
H1491 H 0.49524 0.06599 0.30867 0.0
H1492 H 0.43347 0.0966 0.26003 0.0
H1493 H 0.4614 0.08655 0.26514 0.0
C1494 C 0.65156 0.50816 0.88389 0.0
C1495 C 0.64998 0.52722 0.88676 0.0
C1496 C 0.67168 0.51019 0.8791 0.0
C1497 C 0.73146 0.54855 0.87562 0.0
H1498 H 0.72468 0.52238 0.82618 0.0
C1499 C 0.8025 0.58205 0.82308 0.0
C1500 C 0.80199 0.56812 0.80852 0.0
C1501 C 0.78546 0.57427 0.836 0.0
C1502 C 0.7271 0.52938 0.84016 0.0
H1503 H 0.66827 0.56312 0.88865 0.0
H1504 H 0.70348 0.56664 0.88095 0.0
H1505 H 0.69251 0.51299 0.84451 0.0
H1506 H 0.78435 0.53474 0.79681 0.0
H1507 H 0.75542 0.52071 0.81989 0.0
H1508 H 0.76607 0.56503 0.87133 0.0
C1509 C 0.68926 0.55018 0.88217 0.0
C1510 C 0.70851 0.52398 0.85067 0.0
C1511 C 0.66912 0.54818 0.88654 0.0
C1512 C 0.78494 0.54592 0.80777 0.0
C1513 C 0.76824 0.53796 0.82094 0.0
C1514 C 0.75016 0.55364 0.86525 0.0
C1515 C 0.69054 0.53127 0.87754 0.0
C1516 C 0.71045 0.53394 0.86828 0.0
C1517 C 0.7678 0.55221 0.83489 0.0
C1518 C 0.74823 0.54463 0.84711 0.0
H1519 H 0.63699 0.49183 0.88378 0.0
H1520 H 0.67227 0.49535 0.87562 0.0
H1521 H 0.73339 0.55642 0.8892 0.0
H1522 H 0.81544 0.59929 0.82391 0.0
H1523 H 0.78572 0.58593 0.84629 0.0
C1524 C 0.40732 0.22485 0.83536 0.0
C1525 C 0.4018 0.2142 0.81772 0.0
C1526 C 0.41289 0.21559 0.85011 0.0
C1527 C 0.40608 0.16311 0.86622 0.0
H1528 H 0.46732 0.19473 0.88125 0.0
C1529 C 0.4543 0.11985 0.87544 0.0
C1530 C 0.46938 0.12569 0.8902 0.0
C1531 C 0.44355 0.13162 0.87262 0.0
C1532 C 0.45003 0.18587 0.87767 0.0
H1533 H 0.39676 0.1853 0.80179 0.0
H1534 H 0.4057 0.16896 0.82745 0.0
H1535 H 0.45177 0.21455 0.86549 0.0
H1536 H 0.48499 0.14835 0.91371 0.0
H1537 H 0.46647 0.16958 0.90837 0.0
H1538 H 0.40461 0.13412 0.87712 0.0
C1539 C 0.40603 0.18446 0.82994 0.0
C1540 C 0.44114 0.19722 0.8687 0.0
C1541 C 0.40108 0.1939 0.81523 0.0
C1542 C 0.47344 0.14354 0.90221 0.0
C1543 C 0.46287 0.15564 0.89918 0.0
C1544 C 0.41489 0.15182 0.87518 0.0
C1545 C 0.41223 0.19528 0.84744 0.0
C1546 C 0.41943 0.18561 0.86202 0.0
C1547 C 0.44777 0.14969 0.88437 0.0
C1548 C 0.43725 0.16281 0.88003 0.0
H1549 H 0.40806 0.24059 0.83753 0.0
H1550 H 0.4178 0.22427 0.86348 0.0
H1551 H 0.38924 0.15386 0.86128 0.0
H1552 H 0.45074 0.10612 0.866 0.0
H1553 H 0.43231 0.1269 0.86088 0.0
C1554 C 0.86727 0.33793 0.86207 0.0
C1555 C 0.86631 0.34524 0.88022 0.0
C1556 C 0.85121 0.31704 0.85557 0.0
C1557 C 0.80956 0.26169 0.87017 0.0
H1558 H 0.79071 0.25683 0.81862 0.0
C1559 C 0.75461 0.19277 0.80805 0.0
C1560 C 0.76233 0.17805 0.81067 0.0
C1561 C 0.76228 0.21176 0.81942 0.0
C1562 C 0.79535 0.2578 0.83315 0.0
H1563 H 0.84801 0.33628 0.90598 0.0
H1564 H 0.81966 0.29941 0.8945 0.0
H1565 H 0.81378 0.29322 0.8329 0.0
H1566 H 0.78302 0.17083 0.82793 0.0
H1567 H 0.79691 0.20422 0.84737 0.0
H1568 H 0.79122 0.22616 0.87031 0.0
C1569 C 0.83295 0.30998 0.88536 0.0
C1570 C 0.80886 0.27871 0.84126 0.0
C1571 C 0.84912 0.33104 0.89191 0.0
C1572 C 0.77686 0.18196 0.82552 0.0
C1573 C 0.78468 0.20103 0.83679 0.0
C1574 C 0.79593 0.24069 0.86205 0.0
C1575 C 0.83373 0.30292 0.86702 0.0
C1576 C 0.81672 0.28086 0.85963 0.0
C1577 C 0.77797 0.2165 0.83352 0.0
C1578 C 0.78923 0.23851 0.84326 0.0
H1579 H 0.8804 0.34841 0.85276 0.0
H1580 H 0.85258 0.31188 0.84153 0.0
H1581 H 0.81534 0.26286 0.88437 0.0
H1582 H 0.74316 0.19 0.79685 0.0
H1583 H 0.75644 0.2231 0.81677 0.0
C1584 C 0.42827 0.20206 0.32755 0.0
C1585 C 0.43048 0.20158 0.30807 0.0
C1586 C 0.43706 0.22225 0.33742 0.0
C1587 C 0.45396 0.28081 0.33064 0.0
H1588 H 0.48041 0.28954 0.37979 0.0
C1589 C 0.48816 0.36409 0.36965 0.0
C1590 C 0.48173 0.36304 0.38835 0.0
C1591 C 0.4854 0.34518 0.36024 0.0
C1592 C 0.47298 0.2873 0.36611 0.0
H1593 H 0.44421 0.22213 0.28378 0.0
H1594 H 0.45966 0.25726 0.30101 0.0
H1595 H 0.46867 0.25483 0.36239 0.0
H1596 H 0.46856 0.34154 0.41213 0.0
H1597 H 0.46346 0.30841 0.39558 0.0
H1598 H 0.45787 0.31299 0.33439 0.0
C1599 C 0.45082 0.24199 0.30862 0.0
C1600 C 0.46623 0.26742 0.35616 0.0
C1601 C 0.44201 0.22182 0.29874 0.0
C1602 C 0.47367 0.34292 0.39773 0.0
C1603 C 0.4708 0.32394 0.38826 0.0
C1604 C 0.46071 0.30063 0.34055 0.0
C1605 C 0.44828 0.24246 0.32804 0.0
C1606 C 0.45649 0.2639 0.33836 0.0
C1607 C 0.47603 0.32473 0.36925 0.0
C1608 C 0.47017 0.30407 0.35845 0.0
H1609 H 0.41952 0.18682 0.33522 0.0
H1610 H 0.43456 0.22201 0.35234 0.0
H1611 H 0.44616 0.27851 0.31713 0.0
H1612 H 0.49475 0.37939 0.36206 0.0
H1613 H 0.49008 0.34646 0.34573 0.0
C1614 C 0.64112 0.11726 0.37074 0.0
C1615 C 0.6414 0.10986 0.38877 0.0
C1616 C 0.66062 0.13054 0.3614 0.0
C1617 C 0.71701 0.14348 0.35746 0.0
H1618 H 0.72423 0.19482 0.33135 0.0
C1619 C 0.79425 0.20364 0.31425 0.0
C1620 C 0.78991 0.21195 0.29813 0.0
C1621 C 0.77712 0.19016 0.32623 0.0
C1622 C 0.72238 0.18039 0.33839 0.0
H1623 H 0.66241 0.11068 0.4112 0.0
H1624 H 0.69672 0.13386 0.39461 0.0
H1625 H 0.69279 0.17452 0.35141 0.0
H1626 H 0.76438 0.21122 0.28093 0.0
H1627 H 0.7346 0.18719 0.30129 0.0
H1628 H 0.74643 0.14913 0.34397 0.0
C1629 C 0.68128 0.12934 0.38785 0.0
C1630 C 0.70444 0.16887 0.34996 0.0
C1631 C 0.66169 0.11626 0.39736 0.0
C1632 C 0.76817 0.20526 0.29342 0.0
C1633 C 0.75115 0.19167 0.30518 0.0
C1634 C 0.735 0.15499 0.34573 0.0
C1635 C 0.68087 0.13655 0.36977 0.0
C1636 C 0.70131 0.15005 0.3593 0.0
C1637 C 0.75549 0.18475 0.32211 0.0
C1638 C 0.73755 0.17325 0.33572 0.0
H1639 H 0.62577 0.11265 0.36375 0.0
H1640 H 0.65983 0.13571 0.34741 0.0
H1641 H 0.71489 0.12894 0.36449 0.0
H1642 H 0.81094 0.2087 0.31818 0.0
H1643 H 0.78095 0.185 0.33916 0.0
C1644 C 0.91621 0.57125 0.35722 0.0
C1645 C 0.91887 0.55515 0.34744 0.0
C1646 C 0.90069 0.57674 0.35109 0.0
C1647 C 0.87028 0.57339 0.30783 0.0
H1648 H 0.83136 0.58253 0.33995 0.0
C1649 C 0.78891 0.5615 0.28198 0.0
C1650 C 0.7847 0.57891 0.28495 0.0
C1651 C 0.80671 0.56187 0.29066 0.0
C1652 C 0.84239 0.58034 0.33088 0.0
H1653 H 0.90623 0.53101 0.32456 0.0
H1654 H 0.87914 0.54003 0.31433 0.0
H1655 H 0.85963 0.57647 0.35384 0.0
H1656 H 0.79566 0.61023 0.29965 0.0
H1657 H 0.82685 0.61059 0.31532 0.0
H1658 H 0.85252 0.57621 0.28493 0.0
C1659 C 0.88948 0.54914 0.32621 0.0
C1660 C 0.85855 0.57688 0.3388 0.0
C1661 C 0.90496 0.54385 0.33216 0.0
C1662 C 0.7986 0.59665 0.29704 0.0
C1663 C 0.81631 0.59681 0.30606 0.0
C1664 C 0.85411 0.5766 0.29999 0.0
C1665 C 0.88756 0.5661 0.33518 0.0
C1666 C 0.87223 0.57267 0.32731 0.0
C1667 C 0.8206 0.57949 0.30276 0.0
C1668 C 0.83964 0.57952 0.3114 0.0
H1669 H 0.92669 0.58019 0.36907 0.0
H1670 H 0.89953 0.58981 0.35838 0.0
H1671 H 0.88095 0.57089 0.29855 0.0
H1672 H 0.77853 0.5476 0.27276 0.0
H1673 H 0.80957 0.54824 0.28799 0.0
C1674 C 0.55128 0.10312 0.86589 0.0
C1675 C 0.53181 0.08353 0.87022 0.0
C1676 C 0.56771 0.1023 0.85581 0.0
C1677 C 0.59589 0.09713 0.82681 0.0
H1678 H 0.61425 0.05656 0.84351 0.0
C1679 C 0.67358 0.10049 0.79783 0.0
C1680 C 0.68792 0.10096 0.81166 0.0
C1681 C 0.65198 0.09439 0.80222 0.0
C1682 C 0.60926 0.06792 0.83863 0.0
H1683 H 0.51414 0.04769 0.8671 0.0
H1684 H 0.54312 0.04623 0.84948 0.0
H1685 H 0.581 0.054 0.85611 0.0
H1686 H 0.69036 0.09427 0.84076 0.0
H1687 H 0.65297 0.08383 0.84837 0.0
H1688 H 0.62465 0.11177 0.81002 0.0
C1689 C 0.54558 0.06222 0.85396 0.0
C1690 C 0.59009 0.06631 0.84571 0.0
C1691 C 0.52898 0.06306 0.86397 0.0
C1692 C 0.67985 0.09422 0.82975 0.0
C1693 C 0.65829 0.08803 0.8341 0.0
C1694 C 0.61499 0.0987 0.8197 0.0
C1695 C 0.56518 0.08187 0.84985 0.0
C1696 C 0.58355 0.08132 0.84028 0.0
C1697 C 0.64422 0.08846 0.8205 0.0
C1698 C 0.62224 0.08452 0.82591 0.0
H1699 H 0.55399 0.11918 0.87047 0.0
H1700 H 0.58272 0.11772 0.85316 0.0
H1701 H 0.59111 0.10875 0.82216 0.0
H1702 H 0.67921 0.10553 0.78374 0.0
H1703 H 0.64147 0.09468 0.79139 0.0
C1704 C 0.92767 0.45628 0.85323 0.0
C1705 C 0.91548 0.44952 0.86973 0.0
C1706 C 0.92437 0.46945 0.84058 0.0
C1707 C 0.87984 0.47889 0.82729 0.0
H1708 H 0.92316 0.52965 0.80009 0.0
C1709 C 0.85894 0.5384 0.79198 0.0
C1710 C 0.86727 0.54616 0.77416 0.0
C1711 C 0.86574 0.52596 0.8019 0.0
C1712 C 0.9109 0.51528 0.8074 0.0
H1713 H 0.89205 0.45282 0.88688 0.0
H1714 H 0.88679 0.47611 0.86525 0.0
H1715 H 0.93507 0.51066 0.82151 0.0
H1716 H 0.88922 0.54677 0.75274 0.0
H1717 H 0.90117 0.5249 0.77026 0.0
H1718 H 0.85569 0.4835 0.81356 0.0
C1719 C 0.89831 0.47077 0.86168 0.0
C1720 C 0.91772 0.50448 0.81966 0.0
C1721 C 0.90144 0.45758 0.87413 0.0
C1722 C 0.88239 0.54092 0.76639 0.0
C1723 C 0.88938 0.52858 0.77645 0.0
C1724 C 0.87307 0.4896 0.81513 0.0
C1725 C 0.90892 0.47599 0.8444 0.0
C1726 C 0.90223 0.48655 0.8301 0.0
C1727 C 0.88113 0.52102 0.79433 0.0
C1728 C 0.88851 0.50824 0.8054 0.0
H1729 H 0.93851 0.45014 0.84952 0.0
H1730 H 0.93285 0.47334 0.82739 0.0
H1731 H 0.86747 0.4647 0.83473 0.0
H1732 H 0.84728 0.54211 0.7984 0.0
H1733 H 0.85928 0.52059 0.81574 0.0
C1734 C 0.55577 0.46368 0.82972 0.0
C1735 C 0.55645 0.46279 0.8493 0.0
C1736 C 0.54527 0.44418 0.81884 0.0
C1737 C 0.52522 0.38395 0.8203 0.0
H1738 H 0.48623 0.37964 0.78034 0.0
C1739 C 0.45526 0.30101 0.79115 0.0
C1740 C 0.44954 0.29907 0.77213 0.0
C1741 C 0.47177 0.32113 0.79873 0.0
C1742 C 0.49738 0.38068 0.79119 0.0
H1743 H 0.54649 0.44054 0.87271 0.0
H1744 H 0.52799 0.40666 0.85376 0.0
H1745 H 0.50806 0.41478 0.79723 0.0
H1746 H 0.45762 0.31652 0.74596 0.0
H1747 H 0.48657 0.3517 0.75925 0.0
H1748 H 0.51409 0.34967 0.81456 0.0
C1749 C 0.53589 0.42245 0.84681 0.0
C1750 C 0.50986 0.40082 0.80091 0.0
C1751 C 0.54635 0.44192 0.85769 0.0
C1752 C 0.46153 0.31744 0.76068 0.0
C1753 C 0.47802 0.33764 0.7683 0.0
C1754 C 0.51274 0.36381 0.81059 0.0
C1755 C 0.53524 0.42334 0.82726 0.0
C1756 C 0.52357 0.40256 0.81583 0.0
C1757 C 0.48296 0.33983 0.7875 0.0
C1758 C 0.49834 0.36183 0.79618 0.0
H1759 H 0.56345 0.47945 0.82275 0.0
H1760 H 0.5452 0.44542 0.8038 0.0
H1761 H 0.53597 0.38488 0.83148 0.0
H1762 H 0.44649 0.28718 0.80038 0.0
H1763 H 0.47502 0.32229 0.8136 0.0
C1764 C 0.52358 0.66445 0.61287 0.0
C1765 C 0.52541 0.64963 0.62468 0.0
C1766 C 0.53106 0.68633 0.61885 0.0
C1767 C 0.54387 0.72024 0.66211 0.0
H1768 H 0.5779 0.77029 0.6302 0.0
C1769 C 0.61028 0.81801 0.67222 0.0
C1770 C 0.60039 0.82308 0.68697 0.0
C1771 C 0.59852 0.79801 0.66217 0.0
C1772 C 0.5684 0.75647 0.63926 0.0
H1773 H 0.53709 0.64618 0.65168 0.0
H1774 H 0.5504 0.68424 0.66193 0.0
H1775 H 0.56308 0.73253 0.61772 0.0
H1776 H 0.57005 0.81222 0.7018 0.0
H1777 H 0.54934 0.77757 0.68398 0.0
H1778 H 0.55 0.74388 0.68391 0.0
C1779 C 0.54276 0.67894 0.64826 0.0
C1780 C 0.55975 0.73487 0.63206 0.0
C1781 C 0.53527 0.65716 0.64233 0.0
C1782 C 0.57817 0.80855 0.69068 0.0
C1783 C 0.56634 0.78867 0.68052 0.0
C1784 C 0.55254 0.74174 0.6693 0.0
C1785 C 0.54046 0.69368 0.63672 0.0
C1786 C 0.54784 0.71655 0.64357 0.0
C1787 C 0.57659 0.78282 0.66658 0.0
C1788 C 0.56526 0.76013 0.65808 0.0
H1789 H 0.51604 0.65905 0.59918 0.0
H1790 H 0.52904 0.69732 0.60967 0.0
H1791 H 0.53441 0.70645 0.67123 0.0
H1792 H 0.62739 0.82898 0.66902 0.0
H1793 H 0.60698 0.79397 0.65164 0.0
C1794 C 0.18999 0.78203 0.67775 0.0
C1795 C 0.19297 0.7719 0.69333 0.0
C1796 C 0.20635 0.79152 0.66425 0.0
C1797 C 0.25248 0.82589 0.65088 0.0
H1798 H 0.28599 0.79923 0.63341 0.0
C1799 C 0.34476 0.87538 0.63829 0.0
C1800 C 0.35311 0.87078 0.62215 0.0
C1801 C 0.32263 0.86237 0.6426 0.0
C1802 C 0.2766 0.80679 0.63789 0.0
H1803 H 0.2145 0.76238 0.70645 0.0
H1804 H 0.24273 0.7785 0.6828 0.0
H1805 H 0.25049 0.77614 0.64819 0.0
H1806 H 0.34491 0.8491 0.59777 0.0
H1807 H 0.30608 0.82573 0.60573 0.0
H1808 H 0.27918 0.85676 0.64159 0.0
C1809 C 0.22794 0.77929 0.68101 0.0
C1810 C 0.25638 0.79363 0.6464 0.0
C1811 C 0.21187 0.77023 0.69463 0.0
C1812 C 0.33888 0.85293 0.61035 0.0
C1813 C 0.31673 0.83961 0.61486 0.0
C1814 C 0.27282 0.83909 0.6426 0.0
C1815 C 0.22563 0.79053 0.66595 0.0
C1816 C 0.24448 0.8032 0.6535 0.0
C1817 C 0.30843 0.84429 0.63101 0.0
C1818 C 0.28537 0.82978 0.63659 0.0
H1819 H 0.17556 0.78354 0.67646 0.0
H1820 H 0.20421 0.80011 0.65274 0.0
H1821 H 0.24373 0.83373 0.65634 0.0
H1822 H 0.35531 0.88914 0.64756 0.0
H1823 H 0.31671 0.86614 0.65528 0.0
C1824 C 0.21533 0.41421 0.6728 0.0
C1825 C 0.22779 0.42816 0.68775 0.0
C1826 C 0.20661 0.42184 0.65924 0.0
C1827 C 0.19239 0.46602 0.65371 0.0
H1828 H 0.17416 0.4392 0.6043 0.0
C1829 C 0.11724 0.44592 0.60452 0.0
C1830 C 0.11839 0.46658 0.60451 0.0
C1831 C 0.13554 0.44445 0.60947 0.0
C1832 C 0.1794 0.44702 0.61799 0.0
H1833 H 0.24251 0.46145 0.69951 0.0
H1834 H 0.22863 0.47525 0.67535 0.0
H1835 H 0.1978 0.43103 0.6233 0.0
H1836 H 0.13984 0.50203 0.60836 0.0
H1837 H 0.17188 0.49944 0.61746 0.0
H1838 H 0.17389 0.48186 0.6484 0.0
C1839 C 0.22448 0.45808 0.67445 0.0
C1840 C 0.19276 0.44218 0.62899 0.0
C1841 C 0.23264 0.45026 0.68825 0.0
C1842 C 0.13861 0.48594 0.60809 0.0
C1843 C 0.15686 0.48443 0.61342 0.0
C1844 C 0.17945 0.47116 0.64259 0.0
C1845 C 0.21062 0.44378 0.66011 0.0
C1846 C 0.19894 0.45111 0.64726 0.0
C1847 C 0.15522 0.46359 0.61487 0.0
C1848 C 0.17232 0.46127 0.62483 0.0
H1849 H 0.21129 0.39704 0.67217 0.0
H1850 H 0.19587 0.41015 0.64864 0.0
H1851 H 0.19624 0.47293 0.66776 0.0
H1852 H 0.10178 0.43076 0.60187 0.0
H1853 H 0.13373 0.42817 0.61057 0.0
C1854 C 0.34092 0.89684 0.22046 0.0
C1855 C 0.32339 0.87609 0.2256 0.0
C1856 C 0.36152 0.89964 0.21688 0.0
C1857 C 0.38481 0.86634 0.19982 0.0
H1858 H 0.43783 0.92412 0.20049 0.0
C1859 C 0.47622 0.91712 0.16269 0.0
C1860 C 0.46927 0.90842 0.14452 0.0
C1861 C 0.46101 0.91087 0.17719 0.0
C1862 C 0.4234 0.9077 0.20045 0.0
H1863 H 0.31425 0.84251 0.23268 0.0
H1864 H 0.35054 0.84748 0.22668 0.0
H1865 H 0.4072 0.91789 0.22 0.0
H1866 H 0.44104 0.88583 0.12748 0.0
H1867 H 0.41476 0.87547 0.15234 0.0
H1868 H 0.40098 0.85615 0.18027 0.0
C1869 C 0.34817 0.86149 0.22504 0.0
C1870 C 0.40566 0.9042 0.2115 0.0
C1871 C 0.32742 0.85867 0.22866 0.0
C1872 C 0.447 0.89288 0.1413 0.0
C1873 C 0.43189 0.88672 0.15568 0.0
C1874 C 0.40263 0.86976 0.18896 0.0
C1875 C 0.36525 0.88179 0.21839 0.0
C1876 C 0.38574 0.88381 0.21061 0.0
C1877 C 0.43857 0.8958 0.1738 0.0
C1878 C 0.42175 0.89081 0.18841 0.0
H1879 H 0.33844 0.9107 0.21818 0.0
H1880 H 0.37403 0.91547 0.21164 0.0
H1881 H 0.36983 0.8504 0.1987 0.0
H1882 H 0.49329 0.92906 0.16562 0.0
H1883 H 0.4668 0.91805 0.191 0.0
C1884 C 0.14058 0.46957 0.23333 0.0
C1885 C 0.13638 0.45103 0.2222 0.0
C1886 C 0.13383 0.48419 0.2273 0.0
C1887 C 0.12423 0.50305 0.18327 0.0
H1888 H 0.09596 0.52924 0.21156 0.0
C1889 C 0.07529 0.54972 0.16351 0.0
C1890 C 0.0893 0.56277 0.1493 0.0
C1891 C 0.08228 0.53942 0.17616 0.0
C1892 C 0.10391 0.52206 0.20356 0.0
H1893 H 0.12033 0.43221 0.1969 0.0
H1894 H 0.10851 0.45742 0.18656 0.0
H1895 H 0.10418 0.50281 0.22655 0.0
H1896 H 0.12215 0.57749 0.13835 0.0
H1897 H 0.13459 0.56035 0.16072 0.0
H1898 H 0.12364 0.52148 0.16022 0.0
C1899 C 0.11741 0.46103 0.19968 0.0
C1900 C 0.10869 0.50708 0.21214 0.0
C1901 C 0.12418 0.44659 0.20562 0.0
C1902 C 0.11095 0.56719 0.14903 0.0
C1903 C 0.11802 0.5573 0.16178 0.0
C1904 C 0.11962 0.51797 0.17481 0.0
C1905 C 0.12279 0.48036 0.2101 0.0
C1906 C 0.11859 0.49719 0.20192 0.0
C1907 C 0.10342 0.54233 0.17481 0.0
C1908 C 0.10931 0.5276 0.18476 0.0
H1909 H 0.14984 0.47328 0.24625 0.0
H1910 H 0.13816 0.49898 0.23559 0.0
H1911 H 0.13213 0.49593 0.17512 0.0
H1912 H 0.05849 0.54608 0.16394 0.0
H1913 H 0.07066 0.52798 0.18605 0.0
C1914 C 0.52065 0.67071 0.19393 0.0
C1915 C 0.52724 0.6763 0.21266 0.0
C1916 C 0.50507 0.64903 0.18876 0.0
C1917 C 0.48702 0.59309 0.1998 0.0
H1918 H 0.43867 0.57931 0.16609 0.0
C1919 C 0.44093 0.50859 0.1614 0.0
C1920 C 0.43685 0.50955 0.14237 0.0
C1921 C 0.44704 0.52694 0.17323 0.0
C1922 C 0.45213 0.58287 0.17544 0.0
H1923 H 0.52272 0.66384 0.24074 0.0
H1924 H 0.49585 0.62533 0.23147 0.0
H1925 H 0.45883 0.61594 0.18118 0.0
H1926 H 0.43526 0.53007 0.12086 0.0
H1927 H 0.44678 0.56236 0.1412 0.0
H1928 H 0.48162 0.56083 0.19308 0.0
C1929 C 0.50253 0.63796 0.22095 0.0
C1930 C 0.4635 0.60375 0.18418 0.0
C1931 C 0.51783 0.65988 0.22622 0.0
C1932 C 0.43831 0.52889 0.13548 0.0
C1933 C 0.44471 0.54734 0.14723 0.0
C1934 C 0.47588 0.57232 0.19084 0.0
C1935 C 0.49609 0.63243 0.20216 0.0
C1936 C 0.48143 0.60921 0.19598 0.0
C1937 C 0.44949 0.54672 0.16621 0.0
C1938 C 0.45875 0.56722 0.17807 0.0
H1939 H 0.52758 0.6831 0.18323 0.0
H1940 H 0.50058 0.64507 0.17415 0.0
H1941 H 0.50094 0.59706 0.20872 0.0
H1942 H 0.43965 0.49375 0.16712 0.0
H1943 H 0.45018 0.52573 0.18782 0.0
C1944 C 0.14313 0.68532 0.71062 0.0
C1945 C 0.13788 0.68495 0.72959 0.0
C1946 C 0.13745 0.66571 0.70084 0.0
C1947 C 0.12078 0.60687 0.70549 0.0
H1948 H 0.09385 0.60115 0.65699 0.0
C1949 C 0.07936 0.52486 0.66171 0.0
C1950 C 0.08317 0.52668 0.64238 0.0
C1951 C 0.08628 0.54384 0.67298 0.0
C1952 C 0.10157 0.60257 0.6704 0.0
H1953 H 0.12347 0.66367 0.75335 0.0
H1954 H 0.11343 0.62925 0.73611 0.0
H1955 H 0.10623 0.63485 0.6757 0.0
H1956 H 0.09752 0.54999 0.61983 0.0
H1957 H 0.10973 0.58293 0.63948 0.0
H1958 H 0.11611 0.5745 0.70008 0.0
C1959 C 0.12201 0.64483 0.7289 0.0
C1960 C 0.10866 0.62188 0.68113 0.0
C1961 C 0.12772 0.66454 0.73875 0.0
C1962 C 0.09415 0.5479 0.63463 0.0
C1963 C 0.10108 0.56683 0.64589 0.0
C1964 C 0.11371 0.5875 0.6947 0.0
C1965 C 0.12636 0.64521 0.70974 0.0
C1966 C 0.11851 0.62434 0.69871 0.0
C1967 C 0.09715 0.56502 0.66518 0.0
C1968 C 0.10418 0.58523 0.67697 0.0
H1969 H 0.15124 0.70075 0.70315 0.0
H1970 H 0.14147 0.66656 0.68618 0.0
H1971 H 0.12842 0.60838 0.71895 0.0
H1972 H 0.07095 0.50879 0.66818 0.0
H1973 H 0.08281 0.54189 0.68777 0.0
C1974 C 0.33193 0.45578 0.73709 0.0
C1975 C 0.31234 0.45228 0.72886 0.0
C1976 C 0.35194 0.46821 0.72795 0.0
C1977 C 0.3787 0.51023 0.69203 0.0
H1978 H 0.41502 0.48421 0.68264 0.0
C1979 C 0.43911 0.54121 0.63293 0.0
C1980 C 0.46064 0.54624 0.63658 0.0
C1981 C 0.42245 0.52885 0.6454 0.0
C1982 C 0.4052 0.4918 0.68538 0.0
H1983 H 0.29848 0.45968 0.70498 0.0
H1984 H 0.33326 0.48157 0.68931 0.0
H1985 H 0.38353 0.46578 0.70354 0.0
H1986 H 0.48146 0.54111 0.65548 0.0
H1987 H 0.45202 0.51935 0.67765 0.0
H1988 H 0.39991 0.536 0.67381 0.0
C1989 C 0.3332 0.47467 0.70274 0.0
C1990 C 0.38725 0.48131 0.69734 0.0
C1991 C 0.31326 0.46205 0.71168 0.0
C1992 C 0.46495 0.53736 0.65235 0.0
C1993 C 0.44815 0.52502 0.66503 0.0
C1994 C 0.39656 0.52068 0.6802 0.0
C1995 C 0.3527 0.47766 0.71064 0.0
C1996 C 0.37349 0.49015 0.70033 0.0
C1997 C 0.42693 0.52141 0.66197 0.0
C1998 C 0.4096 0.51125 0.67626 0.0
H1999 H 0.3317 0.4483 0.75025 0.0
H2000 H 0.36677 0.47036 0.73436 0.0
H2001 H 0.36862 0.51762 0.69437 0.0
H2002 H 0.43528 0.54759 0.62073 0.0
H2003 H 0.40613 0.52575 0.64236 0.0
C2004 C 0.58801 0.89193 0.66493 0.0
C2005 C 0.59699 0.8955 0.68304 0.0
C2006 C 0.57313 0.89859 0.66033 0.0
C2007 C 0.53363 0.91297 0.67983 0.0
H2008 H 0.53585 0.93309 0.62934 0.0
C2009 C 0.47169 0.93533 0.6447 0.0
C2010 C 0.46049 0.92008 0.63 0.0
C2011 C 0.49013 0.93634 0.65308 0.0
C2012 C 0.53521 0.92777 0.64355 0.0
H2013 H 0.59692 0.90866 0.71065 0.0
H2014 H 0.57088 0.92068 0.70246 0.0
H2015 H 0.56533 0.92795 0.6409 0.0
H2016 H 0.46004 0.8944 0.61224 0.0
H2017 H 0.49252 0.89678 0.62633 0.0
H2018 H 0.50316 0.91264 0.68215 0.0
C2019 C 0.57543 0.91255 0.69188 0.0
C2020 C 0.55195 0.92461 0.65015 0.0
C2021 C 0.59038 0.90571 0.69656 0.0
C2022 C 0.46829 0.90627 0.62357 0.0
C2023 C 0.48688 0.90764 0.63159 0.0
C2024 C 0.51695 0.91645 0.67325 0.0
C2025 C 0.56682 0.90925 0.67361 0.0
C2026 C 0.55095 0.91629 0.66809 0.0
C2027 C 0.49787 0.92253 0.64648 0.0
C2028 C 0.51729 0.92316 0.65485 0.0
H2029 H 0.59233 0.88377 0.65417 0.0
H2030 H 0.56636 0.89508 0.6463 0.0
H2031 H 0.5323 0.9065 0.69368 0.0
H2032 H 0.46591 0.94606 0.64998 0.0
H2033 H 0.49843 0.94795 0.66456 0.0
C2034 C 0.19802 0.39395 0.19683 0.0
C2035 C 0.20107 0.41169 0.20853 0.0
C2036 C 0.21585 0.39504 0.18721 0.0
C2037 C 0.27523 0.42122 0.19122 0.0
H2038 H 0.27755 0.41595 0.1374 0.0
C2039 C 0.35733 0.4573 0.15612 0.0
C2040 C 0.3605 0.44427 0.1428 0.0
C2041 C 0.33634 0.45146 0.16188 0.0
C2042 C 0.27702 0.41714 0.15245 0.0
H2043 H 0.22512 0.44447 0.21921 0.0
H2044 H 0.25586 0.44611 0.20286 0.0
H2045 H 0.24294 0.40771 0.15231 0.0
H2046 H 0.34418 0.41564 0.12414 0.0
H2047 H 0.30698 0.40506 0.13452 0.0
H2048 H 0.30904 0.43085 0.19163 0.0
C2049 C 0.23983 0.4314 0.20104 0.0
C2050 C 0.25725 0.4124 0.16096 0.0
C2051 C 0.22215 0.43045 0.21038 0.0
C2052 C 0.34211 0.42597 0.13442 0.0
C2053 C 0.32089 0.41992 0.14038 0.0
C2054 C 0.29478 0.42581 0.18281 0.0
C2055 C 0.23696 0.41371 0.18946 0.0
C2056 C 0.25643 0.41507 0.18039 0.0
C2057 C 0.31792 0.43219 0.1547 0.0
C2058 C 0.29616 0.42458 0.1633 0.0
H2059 H 0.18193 0.37934 0.19506 0.0
H2060 H 0.21326 0.38117 0.17836 0.0
H2061 H 0.27496 0.42305 0.20624 0.0
H2062 H 0.37123 0.4717 0.16259 0.0
H2063 H 0.3346 0.46169 0.17248 0.0
C2064 C 0.53813 0.8699 0.09674 0.0
C2065 C 0.5241 0.87622 0.10514 0.0
C2066 C 0.54462 0.8569 0.10639 0.0
C2067 C 0.52909 0.81844 0.14536 0.0
H2068 H 0.59116 0.8392 0.15046 0.0
C2069 C 0.55918 0.78675 0.20364 0.0
C2070 C 0.57389 0.77955 0.19913 0.0
C2071 C 0.55519 0.79938 0.19121 0.0
C2072 C 0.57378 0.83306 0.14897 0.0
H2073 H 0.50523 0.87317 0.12991 0.0
H2074 H 0.51626 0.85033 0.14653 0.0
H2075 H 0.57884 0.85798 0.12929 0.0
H2076 H 0.59709 0.78106 0.17866 0.0
H2077 H 0.58991 0.8032 0.15659 0.0
H2078 H 0.52386 0.79373 0.16503 0.0
C2079 C 0.52232 0.85545 0.13256 0.0
C2080 C 0.56672 0.84375 0.13684 0.0
C2081 C 0.51608 0.86862 0.12305 0.0
C2082 C 0.58573 0.78652 0.18247 0.0
C2083 C 0.58156 0.79909 0.16985 0.0
C2084 C 0.53608 0.80777 0.15736 0.0
C2085 C 0.53689 0.84971 0.12446 0.0
C2086 C 0.54433 0.83684 0.1353 0.0
C2087 C 0.5656 0.80489 0.17383 0.0
C2088 C 0.55852 0.81532 0.15972 0.0
H2089 H 0.5447 0.87562 0.08299 0.0
H2090 H 0.55577 0.85258 0.0998 0.0
H2091 H 0.51171 0.8125 0.14417 0.0
H2092 H 0.55004 0.78184 0.21651 0.0
H2093 H 0.54332 0.80418 0.19494 0.0
C2094 C 0.22682 0.80914 0.16878 0.0
C2095 C 0.22875 0.80766 0.18817 0.0
C2096 C 0.21588 0.78997 0.15755 0.0
C2097 C 0.19654 0.72986 0.15678 0.0
H2098 H 0.15527 0.72651 0.11943 0.0
C2099 C 0.12748 0.64733 0.12622 0.0
C2100 C 0.12182 0.64601 0.10724 0.0
C2101 C 0.14307 0.66748 0.13444 0.0
C2102 C 0.16701 0.72731 0.12956 0.0
H2103 H 0.2207 0.78473 0.21089 0.0
H2104 H 0.20142 0.75139 0.19134 0.0
H2105 H 0.17754 0.76103 0.13708 0.0
H2106 H 0.12867 0.66481 0.08188 0.0
H2107 H 0.15601 0.70013 0.09632 0.0
H2108 H 0.18563 0.69596 0.14956 0.0
C2109 C 0.20866 0.76739 0.18478 0.0
C2110 C 0.17976 0.74708 0.1397 0.0
C2111 C 0.21958 0.78654 0.19602 0.0
C2112 C 0.1326 0.66525 0.09654 0.0
C2113 C 0.14817 0.6855 0.10482 0.0
C2114 C 0.18379 0.71009 0.14667 0.0
C2115 C 0.20664 0.76888 0.16543 0.0
C2116 C 0.19438 0.74846 0.15365 0.0
C2117 C 0.15338 0.68685 0.12391 0.0
C2118 C 0.1686 0.70848 0.13319 0.0
H2119 H 0.23376 0.82512 0.16222 0.0
H2120 H 0.21479 0.79168 0.14266 0.0
H2121 H 0.20798 0.73053 0.16718 0.0
H2122 H 0.11961 0.63284 0.13489 0.0
H2123 H 0.14652 0.66801 0.14922 0.0
C2124 C 0.37237 0.27204 0.04353 0.0
C2125 C 0.35718 0.25181 0.0514 0.0
C2126 C 0.3896 0.28831 0.05446 0.0
C2127 C 0.39719 0.3051 0.1034 0.0
H2128 H 0.44981 0.35567 0.08467 0.0
C2129 C 0.42869 0.38992 0.13762 0.0
C2130 C 0.4296 0.40477 0.12423 0.0
C2131 C 0.42894 0.37075 0.13202 0.0
C2132 C 0.43534 0.34155 0.09025 0.0
H2133 H 0.34946 0.23142 0.07585 0.0
H2134 H 0.37986 0.2595 0.09469 0.0
H2135 H 0.43305 0.32037 0.06731 0.0
H2136 H 0.43375 0.41248 0.09478 0.0
H2137 H 0.43377 0.37921 0.08506 0.0
H2138 H 0.3984 0.32652 0.1255 0.0
C2139 C 0.37814 0.26321 0.0804 0.0
C2140 C 0.42572 0.32138 0.08028 0.0
C2141 C 0.36076 0.24716 0.06962 0.0
C2142 C 0.43253 0.40108 0.1054 0.0
C2143 C 0.43295 0.38215 0.09985 0.0
C2144 C 0.40677 0.32522 0.11331 0.0
C2145 C 0.392 0.28441 0.0733 0.0
C2146 C 0.40582 0.30333 0.08619 0.0
C2147 C 0.43035 0.36634 0.11298 0.0
C2148 C 0.42515 0.34401 0.10622 0.0
H2149 H 0.36995 0.27592 0.02949 0.0
H2150 H 0.39987 0.30451 0.04855 0.0
H2151 H 0.38181 0.29164 0.10838 0.0
H2152 H 0.42667 0.39251 0.15226 0.0
H2153 H 0.42704 0.35891 0.14246 0.0
C2154 C 0.58566 0.98742 0.0701 0.0
C2155 C 0.57358 0.97803 0.08637 0.0
C2156 C 0.60776 0.00368 0.07117 0.0
C2157 C 0.65511 0.02223 0.10256 0.0
H2158 H 0.68479 0.06564 0.06412 0.0
C2159 C 0.7485 0.07371 0.1011 0.0
C2160 C 0.75774 0.07238 0.08409 0.0
C2161 C 0.72643 0.06737 0.10206 0.0
C2162 C 0.67669 0.05362 0.07495 0.0
H2163 H 0.57497 0.97969 0.1166 0.0
H2164 H 0.61365 0.00859 0.11851 0.0
H2165 H 0.64479 0.0458 0.06564 0.0
H2166 H 0.75143 0.06502 0.05447 0.0
H2167 H 0.71261 0.05385 0.05617 0.0
H2168 H 0.68695 0.02984 0.11173 0.0
C2169 C 0.60604 0.00286 0.10488 0.0
C2170 C 0.6538 0.04221 0.07583 0.0
C2171 C 0.58383 0.98641 0.1038 0.0
C2172 C 0.74478 0.06617 0.06777 0.0
C2173 C 0.72258 0.05982 0.06875 0.0
C2174 C 0.67795 0.03379 0.10181 0.0
C2175 C 0.61843 0.01122 0.08854 0.0
C2176 C 0.64269 0.02594 0.08936 0.0
C2177 C 0.71306 0.05962 0.08604 0.0
C2178 C 0.68896 0.04925 0.08776 0.0
H2179 H 0.5783 0.98161 0.05639 0.0
H2180 H 0.61669 0.00944 0.05827 0.0
H2181 H 0.64723 0.00957 0.11295 0.0
H2182 H 0.75812 0.07885 0.11389 0.0
H2183 H 0.71964 0.06781 0.1155 0.0
C2184 C 0.91489 0.66341 0.08458 0.0
C2185 C 0.9247 0.68044 0.07159 0.0
C2186 C 0.9204 0.64689 0.08516 0.0
C2187 C 0.9531 0.62528 0.06114 0.0
H2188 H 0.9624 0.61315 0.11184 0.0
C2189 C 0.00091 0.58101 0.07445 0.0
C2190 C 0.01665 0.59022 0.08885 0.0
C2191 C 0.98437 0.58624 0.07317 0.0
C2192 C 0.96 0.6164 0.09759 0.0
H2193 H 0.94687 0.69298 0.04831 0.0
H2194 H 0.95726 0.66471 0.04968 0.0
H2195 H 0.94341 0.63326 0.10641 0.0
H2196 H 0.02691 0.61107 0.11378 0.0
H2197 H 0.99864 0.62105 0.11124 0.0
H2198 H 0.97129 0.61008 0.0524 0.0
C2199 C 0.94487 0.6636 0.05916 0.0
C2200 C 0.94872 0.62765 0.09441 0.0
C2201 C 0.93897 0.67988 0.05835 0.0
C2202 C 0.01483 0.60365 0.10263 0.0
C2203 C 0.99855 0.6093 0.10114 0.0
C2204 C 0.96467 0.61434 0.06433 0.0
C2205 C 0.93627 0.64737 0.07305 0.0
C2206 C 0.94554 0.6327 0.07616 0.0
C2207 C 0.98355 0.60125 0.08602 0.0
C2208 C 0.96872 0.61019 0.08263 0.0
H2209 H 0.90363 0.66341 0.09482 0.0
H2210 H 0.91291 0.63429 0.09565 0.0
H2211 H 0.95064 0.62848 0.04688 0.0
H2212 H 0.00187 0.57037 0.06377 0.0
H2213 H 0.97275 0.57915 0.06168 0.0
C2214 C 0.23968 0.32302 0.40909 0.0
C2215 C 0.23225 0.30761 0.42349 0.0
C2216 C 0.26175 0.33943 0.40815 0.0
C2217 C 0.31574 0.36377 0.43334 0.0
H2218 H 0.33789 0.37084 0.38293 0.0
C2219 C 0.40821 0.41027 0.42077 0.0
C2220 C 0.41581 0.40098 0.40734 0.0
C2221 C 0.38601 0.40347 0.42166 0.0
C2222 C 0.33205 0.36896 0.39712 0.0
H2223 H 0.24157 0.29794 0.4488 0.0
H2224 H 0.28024 0.32596 0.44688 0.0
H2225 H 0.2987 0.35078 0.38798 0.0
H2226 H 0.40658 0.37802 0.38386 0.0
H2227 H 0.3675 0.36521 0.38586 0.0
H2228 H 0.34905 0.38034 0.44257 0.0
C2229 C 0.2691 0.32593 0.43652 0.0
C2230 C 0.30945 0.35777 0.40003 0.0
C2231 C 0.2469 0.30981 0.43767 0.0
C2232 C 0.40104 0.3855 0.39424 0.0
C2233 C 0.37867 0.37826 0.3954 0.0
C2234 C 0.33832 0.37463 0.43045 0.0
C2235 C 0.27696 0.3404 0.42133 0.0
C2236 C 0.30097 0.35467 0.41821 0.0
C2237 C 0.37079 0.38676 0.40945 0.0
C2238 C 0.3468 0.37707 0.4123 0.0
H2239 H 0.22858 0.32171 0.39806 0.0
H2240 H 0.26701 0.35071 0.39659 0.0
H2241 H 0.30989 0.36207 0.44751 0.0
H2242 H 0.41944 0.42248 0.43088 0.0
H2243 H 0.38075 0.41093 0.43228 0.0
C2244 C 0.58252 0.99687 0.42735 0.0
C2245 C 0.58529 0.00873 0.41095 0.0
C2246 C 0.58906 0.98116 0.42818 0.0
C2247 C 0.60788 0.94864 0.40069 0.0
H2248 H 0.64607 0.96072 0.44356 0.0
C2249 C 0.67577 0.92667 0.40173 0.0
C2250 C 0.68209 0.92151 0.41866 0.0
C2251 C 0.65967 0.93254 0.4013 0.0
C2252 C 0.63509 0.95667 0.43172 0.0
H2253 H 0.5954 0.01208 0.3821 0.0
H2254 H 0.60703 0.9846 0.38356 0.0
H2255 H 0.62484 0.97906 0.44131 0.0
H2256 H 0.67544 0.9173 0.44829 0.0
H2257 H 0.64696 0.92726 0.4475 0.0
H2258 H 0.61852 0.92653 0.39094 0.0
C2259 C 0.59971 0.98746 0.39576 0.0
C2260 C 0.62293 0.96727 0.4304 0.0
C2261 C 0.59305 0.0032 0.39491 0.0
C2262 C 0.67112 0.92136 0.43505 0.0
C2263 C 0.65488 0.92718 0.43459 0.0
C2264 C 0.61996 0.93789 0.40207 0.0
C2265 C 0.59859 0.97695 0.41264 0.0
C2266 C 0.6095 0.9637 0.41471 0.0
C2267 C 0.64928 0.93328 0.41775 0.0
C2268 C 0.63411 0.94217 0.41742 0.0
H2269 H 0.57623 0.0005 0.43987 0.0
H2270 H 0.58752 0.97297 0.44125 0.0
H2271 H 0.5975 0.94539 0.38854 0.0
H2272 H 0.68371 0.92684 0.38877 0.0
H2273 H 0.65608 0.93741 0.38812 0.0
C2274 C 0.11202 0.74015 0.44912 0.0
C2275 C 0.09446 0.73628 0.46061 0.0
C2276 C 0.1124 0.72244 0.44021 0.0
C2277 C 0.08148 0.66057 0.43437 0.0
H2278 H 0.08952 0.67438 0.38176 0.0
C2279 C 0.04016 0.59081 0.38048 0.0
C2280 C 0.02686 0.59454 0.36835 0.0
C2281 C 0.05744 0.60856 0.39017 0.0
C2282 C 0.08744 0.67025 0.3964 0.0
H2283 H 0.06428 0.71129 0.47287 0.0
H2284 H 0.06451 0.68022 0.45708 0.0
H2285 H 0.10321 0.70431 0.40492 0.0
H2286 H 0.02154 0.61934 0.35589 0.0
H2287 H 0.05162 0.65046 0.37278 0.0
H2288 H 0.06388 0.62648 0.42574 0.0
C2289 C 0.07838 0.69674 0.45524 0.0
C2290 C 0.09552 0.68743 0.40975 0.0
C2291 C 0.07816 0.71449 0.46432 0.0
C2292 C 0.03199 0.61626 0.36488 0.0
C2293 C 0.04923 0.63403 0.3746 0.0
C2294 C 0.07327 0.64338 0.421 0.0
C2295 C 0.09492 0.70062 0.44233 0.0
C2296 C 0.09168 0.68277 0.42886 0.0
C2297 C 0.06144 0.63025 0.38804 0.0
C2298 C 0.07522 0.64806 0.40185 0.0
H2299 H 0.12462 0.75695 0.44597 0.0
H2300 H 0.12556 0.72597 0.43063 0.0
H2301 H 0.07861 0.65644 0.44898 0.0
H2302 H 0.03611 0.57404 0.38355 0.0
H2303 H 0.06669 0.60513 0.40025 0.0
C2304 C 0.61034 0.57476 0.92371 0.0
C2305 C 0.60477 0.56439 0.90598 0.0
C2306 C 0.62116 0.59782 0.92551 0.0
C2307 C 0.6578 0.6484 0.90135 0.0
H2308 H 0.63669 0.67645 0.93602 0.0
C2309 C 0.69624 0.74322 0.90566 0.0
C2310 C 0.69807 0.75317 0.92326 0.0
C2311 C 0.6845 0.72018 0.90341 0.0
C2312 C 0.64301 0.6689 0.92649 0.0
H2313 H 0.60616 0.56991 0.87622 0.0
H2314 H 0.62554 0.61045 0.87939 0.0
H2315 H 0.61675 0.63614 0.93222 0.0
H2316 H 0.68934 0.74694 0.95239 0.0
H2317 H 0.66939 0.7066 0.94866 0.0
H2318 H 0.68442 0.68093 0.89597 0.0
C2319 C 0.62139 0.60063 0.89186 0.0
C2320 C 0.6315 0.64583 0.92424 0.0
C2321 C 0.61024 0.57749 0.89005 0.0
C2322 C 0.68805 0.73968 0.93864 0.0
C2323 C 0.67652 0.71658 0.93645 0.0
C2324 C 0.66949 0.67144 0.90376 0.0
C2325 C 0.62688 0.61096 0.90961 0.0
C2326 C 0.63879 0.6354 0.91165 0.0
C2327 C 0.67456 0.70655 0.91878 0.0
C2328 C 0.66222 0.68199 0.91634 0.0
H2329 H 0.6063 0.56505 0.93623 0.0
H2330 H 0.6254 0.60541 0.93935 0.0
H2331 H 0.6639 0.64069 0.89174 0.0
H2332 H 0.70369 0.75324 0.89352 0.0
H2333 H 0.683 0.7131 0.88955 0.0
C2334 C 0.24689 0.95823 0.89942 0.0
C2335 C 0.23678 0.9567 0.9166 0.0
C2336 C 0.26887 0.96412 0.89872 0.0
C2337 C 0.31737 0.97528 0.92815 0.0
H2338 H 0.34915 0.01678 0.88897 0.0
C2339 C 0.40822 0.04378 0.93283 0.0
C2340 C 0.4213 0.04828 0.91691 0.0
C2341 C 0.38598 0.02777 0.93213 0.0
C2342 C 0.3405 0.00489 0.89978 0.0
H2343 H 0.24128 0.95915 0.94658 0.0
H2344 H 0.28009 0.97052 0.94547 0.0
H2345 H 0.30945 -0.00225 0.88915 0.0
H2346 H 0.42154 0.03897 0.88795 0.0
H2347 H 0.3823 0.0112 0.88659 0.0
H2348 H 0.34887 0.98379 0.93934 0.0
C2349 C 0.27096 0.96656 0.93247 0.0
C2350 C 0.31765 0.99387 0.8999 0.0
C2351 C 0.24874 0.96013 0.93316 0.0
C2352 C 0.41185 0.03582 0.90043 0.0
C2353 C 0.38943 0.02002 0.89964 0.0
C2354 C 0.34031 0.98659 0.92816 0.0
C2355 C 0.28148 0.96924 0.91519 0.0
C2356 C 0.30573 0.97915 0.91424 0.0
C2357 C 0.37624 0.01613 0.91541 0.0
C2358 C 0.35208 0.00177 0.91413 0.0
H2359 H 0.23788 0.95534 0.88644 0.0
H2360 H 0.27612 0.96527 0.88518 0.0
H2361 H 0.30881 0.96379 0.93922 0.0
H2362 H 0.41508 0.053 0.94578 0.0
H2363 H 0.37619 0.02529 0.94444 0.0
C2364 C 0.04802 0.29635 0.92943 0.0
C2365 C 0.03857 0.27823 0.91674 0.0
C2366 C 0.04231 0.31285 0.92876 0.0
C2367 C 0.01466 0.33453 0.89849 0.0
H2368 H 0.99607 0.34804 0.94525 0.0
C2369 C 0.96327 0.37808 0.9015 0.0
C2370 C 0.94471 0.36711 0.91287 0.0
C2371 C 0.97998 0.37288 0.90239 0.0
C2372 C 0.00132 0.34456 0.93208 0.0
H2373 H 0.01632 0.26377 0.89297 0.0
H2374 H 0.00633 0.29203 0.89202 0.0
H2375 H 0.01638 0.32846 0.94545 0.0
H2376 H 0.92953 0.3424 0.93437 0.0
H2377 H 0.95818 0.33335 0.93568 0.0
H2378 H 0.99827 0.34928 0.88505 0.0
C2379 C 0.01831 0.29379 0.90236 0.0
C2380 C 0.01319 0.33356 0.93221 0.0
C2381 C 0.02386 0.27736 0.90309 0.0
C2382 C 0.94347 0.35118 0.92531 0.0
C2383 C 0.96011 0.34614 0.92626 0.0
C2384 C 0.00273 0.34549 0.89835 0.0
C2385 C 0.02724 0.31163 0.91527 0.0
C2386 C 0.01916 0.32756 0.91537 0.0
C2387 C 0.97853 0.35682 0.9148 0.0
C2388 C 0.99512 0.34975 0.91511 0.0
H2389 H 0.05946 0.29758 0.94008 0.0
H2390 H 0.04951 0.32644 0.93888 0.0
H2391 H 0.01942 0.33054 0.88528 0.0
H2392 H 0.9648 0.39049 0.89182 0.0
H2393 H 0.99401 0.38141 0.89337 0.0
C2394 C 0.74478 0.69824 0.57088 0.0
C2395 C 0.75761 0.7071 0.5871 0.0
C2396 C 0.72244 0.68239 0.57217 0.0
C2397 C 0.6776 0.66404 0.60652 0.0
H2398 H 0.64339 0.62192 0.56702 0.0
C2399 C 0.58321 0.61461 0.60814 0.0
C2400 C 0.57403 0.61815 0.59214 0.0
C2401 C 0.60519 0.62004 0.60826 0.0
C2402 C 0.65279 0.63349 0.57823 0.0
H2403 H 0.75793 0.70522 0.6172 0.0
H2404 H 0.71946 0.67678 0.61946 0.0
H2405 H 0.68339 0.64135 0.56592 0.0
H2406 H 0.58003 0.62855 0.56336 0.0
H2407 H 0.61807 0.63765 0.56352 0.0
H2408 H 0.647 0.65636 0.61866 0.0
C2409 C 0.72613 0.68264 0.60577 0.0
C2410 C 0.6757 0.64476 0.57755 0.0
C2411 C 0.74824 0.6988 0.6045 0.0
C2412 C 0.58674 0.62586 0.57596 0.0
C2413 C 0.60848 0.63088 0.57599 0.0
C2414 C 0.65476 0.65256 0.60731 0.0
C2415 C 0.71269 0.67485 0.58971 0.0
C2416 C 0.68842 0.66064 0.59144 0.0
C2417 C 0.61812 0.62862 0.59227 0.0
C2418 C 0.64211 0.63761 0.59294 0.0
H2419 H 0.75167 0.70454 0.55732 0.0
H2420 H 0.71267 0.677 0.55947 0.0
H2421 H 0.68667 0.6764 0.61732 0.0
H2422 H 0.57377 0.60869 0.62079 0.0
H2423 H 0.61224 0.61809 0.62099 0.0
C2424 C 0.26477 0.00518 0.58269 0.0
C2425 C 0.27089 0.02623 0.57579 0.0
C2426 C 0.28049 -0.0005 0.58682 0.0
C2427 C 0.3169 -0.00196 0.6069 0.0
H2428 H 0.35964 0.00135 0.57131 0.0
C2429 C 0.34781 0.93729 0.60523 0.0
C2430 C 0.36983 0.94461 0.60132 0.0
C2431 C 0.34004 0.95203 0.60504 0.0
C2432 C 0.34815 0.00081 0.58158 0.0
H2433 H 0.29848 0.05745 0.56697 0.0
H2434 H 0.32618 0.04722 0.57405 0.0
H2435 H 0.3376 0.01838 0.56412 0.0
H2436 H 0.40122 0.97313 0.59462 0.0
H2437 H 0.3874 -0.00088 0.59389 0.0
H2438 H 0.32658 0.97961 0.62396 0.0
C2439 C 0.30906 0.03531 0.57638 0.0
C2440 C 0.33552 0.0105 0.57743 0.0
C2441 C 0.2932 0.04112 0.57229 0.0
C2442 C 0.38421 0.96719 0.59789 0.0
C2443 C 0.37629 0.98196 0.59731 0.0
C2444 C 0.32944 0.98839 0.61101 0.0
C2445 C 0.30283 0.01463 0.58415 0.0
C2446 C 0.31914 0.00837 0.58974 0.0
C2447 C 0.35402 0.97439 0.60062 0.0
C2448 C 0.34457 0.98889 0.59808 0.0
H2449 H 0.24777 0.9931 0.58532 0.0
H2450 H 0.27512 0.9832 0.5923 0.0
H2451 H 0.30473 0.99658 0.61684 0.0
H2452 H 0.3364 0.91993 0.60787 0.0
H2453 H 0.32276 0.94563 0.60743 0.0
C2454 C 0.02873 0.4143 0.59968 0.0
C2455 C 0.03722 0.42742 0.58385 0.0
C2456 C 0.01801 0.39121 0.59801 0.0
C2457 C 0.98753 0.34511 0.56506 0.0
H2458 H 0.00242 0.31215 0.59908 0.0
C2459 C 0.94963 0.25022 0.55771 0.0
C2460 C 0.94393 0.2383 0.57432 0.0
C2461 C 0.96189 0.27339 0.55827 0.0
C2462 C 0.99788 0.32108 0.58961 0.0
H2463 H 0.04103 0.4268 0.55385 0.0
H2464 H 0.02198 0.38636 0.55093 0.0
H2465 H 0.02187 0.35255 0.6014 0.0
H2466 H 0.94636 0.24114 0.60451 0.0
H2467 H 0.96715 0.28146 0.60554 0.0
H2468 H 0.96316 0.31371 0.55356 0.0
C2469 C 0.02368 0.39397 0.5646 0.0
C2470 C 0.00907 0.34419 0.59092 0.0
C2471 C 0.03463 0.41707 0.5663 0.0
C2472 C 0.95063 0.2499 0.59147 0.0
C2473 C 0.96269 0.27303 0.59205 0.0
C2474 C 0.97617 0.32197 0.56386 0.0
C2475 C 0.01537 0.38085 0.58046 0.0
C2476 C 0.0039 0.3564 0.57873 0.0
C2477 C 0.9685 0.28506 0.57546 0.0
C2478 C 0.98113 0.30967 0.5762 0.0
H2479 H 0.03049 0.42184 0.61339 0.0
H2480 H 0.01155 0.38144 0.61043 0.0
H2481 H 0.98312 0.35417 0.5556 0.0
H2482 H 0.94476 0.24166 0.54428 0.0
H2483 H 0.96634 0.28214 0.54523 0.0
C2484 C 0.9205 0.64967 0.77095 0.0
C2485 C 0.90658 0.64773 0.75623 0.0
C2486 C 0.94242 0.66674 0.77119 0.0
C2487 C 0.98449 0.70315 0.73737 0.0
H2488 H 0.02117 0.72094 0.78173 0.0
C2489 C 0.0748 0.72717 0.7346 0.0
C2490 C 0.08904 0.73985 0.74923 0.0
C2491 C 0.05291 0.72183 0.73482 0.0
C2492 C 0.01132 0.71669 0.76913 0.0
H2493 H 0.90367 0.66308 0.7313 0.0
H2494 H 0.94146 0.69377 0.73233 0.0
H2495 H 0.98181 0.70242 0.78486 0.0
H2496 H 0.09247 0.75868 0.7746 0.0
H2497 H 0.0547 0.75064 0.77441 0.0
H2498 H 0.014 0.71806 0.72164 0.0
C2499 C 0.93599 0.6816 0.7432 0.0
C2500 C 0.98856 0.70561 0.77096 0.0
C2501 C 0.91426 0.6642 0.74271 0.0
C2502 C 0.08162 0.74862 0.76327 0.0
C2503 C 0.05991 0.74379 0.76324 0.0
C2504 C 0.00725 0.71469 0.73554 0.0
C2505 C 0.95069 0.68248 0.7569 0.0
C2506 C 0.97478 0.69789 0.75511 0.0
C2507 C 0.04498 0.72952 0.74947 0.0
C2508 C 0.02099 0.72084 0.75137 0.0
H2509 H 0.91497 0.637 0.78142 0.0
H2510 H 0.95311 0.66656 0.78189 0.0
H2511 H 0.97461 0.69742 0.72474 0.0
H2512 H 0.08017 0.72009 0.72372 0.0
H2513 H 0.04201 0.71058 0.72407 0.0
C2514 C 0.26626 0.35024 0.72966 0.0
C2515 C 0.25313 0.35103 0.74394 0.0
C2516 C 0.27306 0.33464 0.73006 0.0
C2517 C 0.28182 0.30123 0.76487 0.0
H2518 H 0.30059 0.28207 0.72125 0.0
C2519 C 0.34594 0.27373 0.76933 0.0
C2520 C 0.34557 0.25893 0.7557 0.0
C2521 C 0.33099 0.28121 0.76834 0.0
C2522 C 0.29511 0.28684 0.73364 0.0
H2523 H 0.23498 0.33498 0.76875 0.0
H2524 H 0.24568 0.30689 0.76889 0.0
H2525 H 0.27925 0.30003 0.71733 0.0
H2526 H 0.32845 0.23892 0.73123 0.0
H2527 H 0.30168 0.25094 0.73004 0.0
H2528 H 0.29712 0.28746 0.7812 0.0
C2529 C 0.25167 0.31888 0.75785 0.0
C2530 C 0.28312 0.29752 0.73136 0.0
C2531 C 0.24529 0.33478 0.75767 0.0
C2532 C 0.32924 0.25064 0.74176 0.0
C2533 C 0.31403 0.25769 0.741 0.0
C2534 C 0.29348 0.29021 0.76716 0.0
C2535 C 0.26649 0.31926 0.74458 0.0
C2536 C 0.27675 0.30534 0.74693 0.0
C2537 C 0.31511 0.27363 0.75391 0.0
C2538 C 0.30074 0.28332 0.75158 0.0
H2539 H 0.27271 0.36277 0.71904 0.0
H2540 H 0.28461 0.33566 0.71967 0.0
H2541 H 0.27754 0.30724 0.77726 0.0
H2542 H 0.35848 0.28043 0.78015 0.0
H2543 H 0.33257 0.29367 0.77843 0.0
C2544 C 0.70847 0.92326 0.72633 0.0
C2545 C 0.70034 0.92533 0.70909 0.0
C2546 C 0.72599 0.94168 0.73506 0.0
C2547 C 0.76535 0.0026 0.73064 0.0
H2548 H 0.74436 0.00433 0.78025 0.0
C2549 C 0.7665 0.07795 0.76186 0.0
C2550 C 0.76649 0.08106 0.78129 0.0
C2551 C 0.76815 0.06036 0.75436 0.0
C2552 C 0.75103 0.00414 0.7667 0.0
H2553 H 0.70502 0.94748 0.68663 0.0
H2554 H 0.73513 0.98011 0.7022 0.0
H2555 H 0.72948 0.96932 0.76357 0.0
H2556 H 0.77016 0.06934 0.80808 0.0
H2557 H 0.77294 0.0383 0.79489 0.0
H2558 H 0.78586 0.03789 0.73351 0.0
C2559 C 0.72846 0.9642 0.70883 0.0
C2560 C 0.74244 0.98393 0.75704 0.0
C2561 C 0.71115 0.94558 0.6999 0.0
C2562 C 0.76985 0.06718 0.79306 0.0
C2563 C 0.77143 0.04944 0.78551 0.0
C2564 C 0.77397 0.02289 0.74036 0.0
C2565 C 0.73529 0.96266 0.72695 0.0
C2566 C 0.74869 0.98305 0.73854 0.0
C2567 C 0.76981 0.0454 0.76609 0.0
C2568 C 0.76603 0.02398 0.75811 0.0
H2569 H 0.70043 0.90764 0.73355 0.0
H2570 H 0.73121 0.93979 0.74876 0.0
H2571 H 0.77083 0.00242 0.71657 0.0
H2572 H 0.76436 0.0886 0.75236 0.0
H2573 H 0.7666 0.05768 0.73937 0.0
C2574 C 0.27804 0.92015 0.23073 0.0
C2575 C 0.27447 0.90723 0.24654 0.0
C2576 C 0.28913 0.94326 0.2324 0.0
C2577 C 0.3043 0.98953 0.26542 0.0
H2578 H 0.35203 0.0226 0.23131 0.0
C2579 C 0.36405 0.08436 0.27351 0.0
C2580 C 0.37102 0.09639 0.25698 0.0
C2581 C 0.35168 0.06116 0.27276 0.0
C2582 C 0.33855 0.01367 0.24079 0.0
H2583 H 0.2791 0.90821 0.27653 0.0
H2584 H 0.29831 0.94863 0.27944 0.0
H2585 H 0.33088 0.9823 0.22872 0.0
H2586 H 0.36996 0.09379 0.22676 0.0
H2587 H 0.34795 0.05359 0.22542 0.0
H2588 H 0.31173 0.02093 0.27732 0.0
C2589 C 0.29256 0.94088 0.26579 0.0
C2590 C 0.32649 0.99058 0.23931 0.0
C2591 C 0.28169 0.91778 0.2641 0.0
C2592 C 0.36501 0.08493 0.23974 0.0
C2593 C 0.35251 0.06185 0.23898 0.0
C2594 C 0.31625 0.0127 0.2668 0.0
C2595 C 0.29661 0.95382 0.24993 0.0
C2596 C 0.30922 0.97831 0.25156 0.0
C2597 C 0.34594 0.04965 0.25546 0.0
C2598 C 0.33345 0.02503 0.25443 0.0
H2599 H 0.27261 0.91245 0.21703 0.0
H2600 H 0.29188 0.9529 0.21997 0.0
H2601 H 0.29096 0.98041 0.27498 0.0
H2602 H 0.36851 0.09283 0.28699 0.0
H2603 H 0.34704 0.05225 0.28572 0.0
C2604 C 0.91266 0.2892 0.23811 0.0
C2605 C 0.90323 0.2873 0.25568 0.0
C2606 C 0.93421 0.29389 0.23657 0.0
C2607 C 0.9824 0.30026 0.26361 0.0
H2608 H 0.01463 0.34333 0.22555 0.0
C2609 C 0.07424 0.36511 0.26756 0.0
C2610 C 0.08663 0.37093 0.25115 0.0
C2611 C 0.05196 0.34932 0.26706 0.0
C2612 C 0.00584 0.33094 0.23598 0.0
H2613 H 0.9084 0.28781 0.28546 0.0
H2614 H 0.94666 0.29718 0.28294 0.0
H2615 H 0.9752 0.32657 0.22702 0.0
H2616 H 0.08577 0.36397 0.22151 0.0
H2617 H 0.04638 0.3365 0.22051 0.0
H2618 H 0.01361 0.30599 0.27321 0.0
C2619 C 0.93725 0.29443 0.27025 0.0
C2620 C 0.98313 0.32125 0.23686 0.0
C2621 C 0.91538 0.28918 0.27176 0.0
C2622 C 0.07658 0.35974 0.23435 0.0
C2623 C 0.05408 0.34414 0.23378 0.0
C2624 C 0.00524 0.31021 0.26286 0.0
C2625 C 0.94711 0.29743 0.25261 0.0
C2626 C 0.97109 0.30603 0.25085 0.0
C2627 C 0.04147 0.33922 0.25008 0.0
C2628 C 0.0172 0.32593 0.24922 0.0
H2629 H 0.90343 0.28743 0.22548 0.0
H2630 H 0.94091 0.29532 0.22275 0.0
H2631 H 0.97369 0.28835 0.27437 0.0
H2632 H 0.08165 0.37337 0.28075 0.0
H2633 H 0.04268 0.34604 0.27981 0.0
C2634 C 0.70363 0.62474 0.26052 0.0
C2635 C 0.7083 0.61659 0.24424 0.0
C2636 C 0.69682 0.64035 0.25935 0.0
C2637 C 0.67014 0.65833 0.22494 0.0
H2638 H 0.67584 0.69895 0.26501 0.0
C2639 C 0.62283 0.70582 0.22423 0.0
C2640 C 0.61018 0.70201 0.24033 0.0
C2641 C 0.63939 0.7004 0.22378 0.0
C2642 C 0.67426 0.68779 0.25364 0.0
H2643 H 0.71135 0.61936 0.21424 0.0
H2644 H 0.70077 0.64742 0.21222 0.0
H2645 H 0.69755 0.68075 0.26602 0.0
H2646 H 0.6058 0.69082 0.26889 0.0
H2647 H 0.63466 0.6817 0.26814 0.0
H2648 H 0.64661 0.66515 0.21275 0.0
C2649 C 0.70136 0.64126 0.22583 0.0
C2650 C 0.68658 0.67724 0.25427 0.0
C2651 C 0.70766 0.62537 0.22697 0.0
C2652 C 0.61508 0.69371 0.25619 0.0
C2653 C 0.63179 0.6887 0.25585 0.0
C2654 C 0.65807 0.66908 0.22421 0.0
C2655 C 0.69492 0.64827 0.24189 0.0
C2656 C 0.68423 0.66189 0.24017 0.0
C2657 C 0.64386 0.69159 0.23956 0.0
C2658 C 0.65954 0.68343 0.2388 0.0
H2659 H 0.70381 0.61798 0.27395 0.0
H2660 H 0.69183 0.64514 0.27203 0.0
H2661 H 0.66748 0.64635 0.21397 0.0
H2662 H 0.61943 0.71225 0.21183 0.0
H2663 H 0.6485 0.7028 0.21105 0.0
loop_
_geom_bond_atom_site_label_1
_geom_bond_atom_site_label_2
_geom_bond_distance
_geom_bond_site_symmetry_2
_ccdc_geom_bond_type
Co0 O1 2.216 . S
Co0 O2 2.091 . S
Co0 O4 2.004 . S
Co0 O10 2.021 . S
Co0 O12 2.137 . S
Co0 O13 2.244 . S
O1 Co0 2.216 . S
O1 C8 1.247 . S
O2 Co0 2.091 . S
O2 C8 1.261 . S
C3 O12 1.247 . S
C3 O13 1.272 . S
O4 Co0 2.004 . S
O4 C9 1.259 . S
Co5 O6 2.061 . S
Co5 O11 2.052 . S
Co5 O13 2.135 . S
O6 Co5 2.061 . S
O6 C9 1.235 . S
C7 O10 1.238 . S
C7 O11 1.241 . S
C8 O1 1.247 . S
C8 O2 1.261 . S
C9 O4 1.259 . S
C9 O6 1.235 . S
O10 Co0 2.021 . S
O10 C7 1.238 . S
O11 Co5 2.052 . S
O11 C7 1.241 . S
O12 Co0 2.137 . S
O12 C3 1.247 . S
O13 Co0 2.244 . S
O13 C3 1.272 . S
O13 Co5 2.135 . S
Co14 O15 2.216 . S
Co14 O16 2.091 . S
Co14 O18 2.004 . S
Co14 O24 2.021 . S
Co14 O26 2.137 . S
Co14 O27 2.244 . S
O15 Co14 2.216 . S
O15 C22 1.247 . S
O16 Co14 2.091 . S
O16 C22 1.261 . S
C17 O26 1.247 . S
C17 O27 1.272 . S
O18 Co14 2.004 . S
O18 C23 1.259 . S
Co19 O20 2.061 . S
Co19 O25 2.052 . S
Co19 O27 2.135 . S
O20 Co19 2.061 . S
O20 C23 1.235 . S
C21 O24 1.238 . S
C21 O25 1.241 . S
C22 O15 1.247 . S
C22 O16 1.261 . S
C23 O18 1.259 . S
C23 O20 1.235 . S
O24 Co14 2.021 . S
O24 C21 1.238 . S
O25 Co19 2.052 . S
O25 C21 1.241 . S
O26 Co14 2.137 . S
O26 C17 1.247 . S
O27 Co14 2.244 . S
O27 C17 1.272 . S
O27 Co19 2.135 . S
Co28 O29 2.216 . S
Co28 O30 2.091 . S
Co28 O32 2.004 . S
Co28 O38 2.021 . S
Co28 O40 2.137 . S
Co28 O41 2.244 . S
O29 Co28 2.216 . S
O29 C36 1.247 . S
O30 Co28 2.091 . S
O30 C36 1.261 . S
C31 O40 1.247 . S
C31 O41 1.272 . S
O32 Co28 2.004 . S
O32 C37 1.259 . S
Co33 O34 2.061 . S
Co33 O39 2.052 . S
Co33 O41 2.135 . S
O34 Co33 2.061 . S
O34 C37 1.235 . S
C35 O38 1.238 . S
C35 O39 1.241 . S
C36 O29 1.247 . S
C36 O30 1.261 . S
C37 O32 1.259 . S
C37 O34 1.235 . S
O38 Co28 2.021 . S
O38 C35 1.238 . S
O39 Co33 2.052 . S
O39 C35 1.241 . S
O40 Co28 2.137 . S
O40 C31 1.247 . S
O41 Co28 2.244 . S
O41 C31 1.272 . S
O41 Co33 2.135 . S
Co42 O43 2.216 . S
Co42 O44 2.091 . S
Co42 O46 2.004 . S
Co42 O52 2.021 . S
Co42 O54 2.137 . S
Co42 O55 2.244 . S
O43 Co42 2.216 . S
O43 C50 1.247 . S
O44 Co42 2.091 . S
O44 C50 1.261 . S
C45 O54 1.247 . S
C45 O55 1.272 . S
O46 Co42 2.004 . S
O46 C51 1.259 . S
Co47 O48 2.061 . S
Co47 O53 2.052 . S
Co47 O55 2.135 . S
O48 Co47 2.061 . S
O48 C51 1.235 . S
C49 O52 1.238 . S
C49 O53 1.241 . S
C50 O43 1.247 . S
C50 O44 1.261 . S
C51 O46 1.259 . S
C51 O48 1.235 . S
O52 Co42 2.021 . S
O52 C49 1.238 . S
O53 Co47 2.052 . S
O53 C49 1.241 . S
O54 Co42 2.137 . S
O54 C45 1.247 . S
O55 Co42 2.244 . S
O55 C45 1.272 . S
O55 Co47 2.135 . S
Co56 O57 2.216 . S
Co56 O58 2.091 . S
Co56 O60 2.004 . S
Co56 O66 2.021 . S
Co56 O68 2.137 . S
Co56 O69 2.244 . S
O57 Co56 2.216 . S
O57 C64 1.247 . S
O58 Co56 2.091 . S
O58 C64 1.261 . S
C59 O68 1.247 . S
C59 O69 1.272 . S
O60 Co56 2.004 . S
O60 C65 1.259 . S
Co61 O62 2.061 . S
Co61 O67 2.052 . S
Co61 O69 2.135 . S
O62 Co61 2.061 . S
O62 C65 1.235 . S
C63 O66 1.238 . S
C63 O67 1.241 . S
C64 O57 1.247 . S
C64 O58 1.261 . S
C65 O60 1.259 . S
C65 O62 1.235 . S
O66 Co56 2.021 . S
O66 C63 1.238 . S
O67 Co61 2.052 . S
O67 C63 1.241 . S
O68 Co56 2.137 . S
O68 C59 1.247 . S
O69 Co56 2.244 . S
O69 C59 1.272 . S
O69 Co61 2.135 . S
Co70 O71 2.216 . S
Co70 O72 2.091 . S
Co70 O74 2.004 . S
Co70 O80 2.021 . S
Co70 O82 2.137 . S
Co70 O83 2.244 . S
O71 Co70 2.216 . S
O71 C78 1.247 . S
O72 Co70 2.091 . S
O72 C78 1.261 . S
C73 O82 1.247 . S
C73 O83 1.272 . S
O74 Co70 2.004 . S
O74 C79 1.259 . S
Co75 O76 2.061 . S
Co75 O81 2.052 . S
Co75 O83 2.135 . S
O76 Co75 2.061 . S
O76 C79 1.235 . S
C77 O80 1.238 . S
C77 O81 1.241 . S
C78 O71 1.247 . S
C78 O72 1.261 . S
C79 O74 1.259 . S
C79 O76 1.235 . S
O80 Co70 2.021 . S
O80 C77 1.238 . S
O81 Co75 2.052 . S
O81 C77 1.241 . S
O82 Co70 2.137 . S
O82 C73 1.247 . S
O83 Co70 2.244 . S
O83 C73 1.272 . S
O83 Co75 2.135 . S
Co84 O85 2.216 . S
Co84 O86 2.091 . S
Co84 O88 2.004 . S
Co84 O94 2.021 . S
Co84 O96 2.137 . S
Co84 O97 2.244 . S
O85 Co84 2.216 . S
O85 C92 1.247 . S
O86 Co84 2.091 . S
O86 C92 1.261 . S
C87 O96 1.247 . S
C87 O97 1.272 . S
O88 Co84 2.004 . S
O88 C93 1.259 . S
Co89 O90 2.061 . S
Co89 O95 2.052 . S
Co89 O97 2.135 . S
O90 Co89 2.061 . S
O90 C93 1.235 . S
C91 O94 1.238 . S
C91 O95 1.241 . S
C92 O85 1.247 . S
C92 O86 1.261 . S
C93 O88 1.259 . S
C93 O90 1.235 . S
O94 Co84 2.021 . S
O94 C91 1.238 . S
O95 Co89 2.052 . S
O95 C91 1.241 . S
O96 Co84 2.137 . S
O96 C87 1.247 . S
O97 Co84 2.244 . S
O97 C87 1.272 . S
O97 Co89 2.135 . S
Co98 O99 2.216 . S
Co98 O100 2.091 . S
Co98 O102 2.004 . S
Co98 O108 2.021 . S
Co98 O110 2.137 . S
Co98 O111 2.244 . S
O99 Co98 2.216 . S
O99 C106 1.247 . S
O100 Co98 2.091 . S
O100 C106 1.261 . S
C101 O110 1.247 . S
C101 O111 1.272 . S
O102 Co98 2.004 . S
O102 C107 1.259 . S
Co103 O104 2.061 . S
Co103 O109 2.052 . S
Co103 O111 2.135 . S
O104 Co103 2.061 . S
O104 C107 1.235 . S
C105 O108 1.238 . S
C105 O109 1.241 . S
C106 O99 1.247 . S
C106 O100 1.261 . S
C107 O102 1.259 . S
C107 O104 1.235 . S
O108 Co98 2.021 . S
O108 C105 1.238 . S
O109 Co103 2.052 . S
O109 C105 1.241 . S
O110 Co98 2.137 . S
O110 C101 1.247 . S
O111 Co98 2.244 . S
O111 C101 1.272 . S
O111 Co103 2.135 . S
Co112 O113 2.216 . S
Co112 O114 2.091 . S
Co112 O116 2.004 . S
Co112 O122 2.021 . S
Co112 O124 2.137 . S
Co112 O125 2.244 . S
O113 Co112 2.216 . S
O113 C120 1.247 . S
O114 Co112 2.091 . S
O114 C120 1.261 . S
C115 O124 1.247 . S
C115 O125 1.272 . S
O116 Co112 2.004 . S
O116 C121 1.259 . S
Co117 O118 2.061 . S
Co117 O123 2.052 . S
Co117 O125 2.135 . S
O118 Co117 2.061 . S
O118 C121 1.235 . S
C119 O122 1.238 . S
C119 O123 1.241 . S
C120 O113 1.247 . S
C120 O114 1.261 . S
C121 O116 1.259 . S
C121 O118 1.235 . S
O122 Co112 2.021 . S
O122 C119 1.238 . S
O123 Co117 2.052 . S
O123 C119 1.241 . S
O124 Co112 2.137 . S
O124 C115 1.247 . S
O125 Co112 2.244 . S
O125 C115 1.272 . S
O125 Co117 2.135 . S
Co126 O127 2.216 . S
Co126 O128 2.091 . S
Co126 O130 2.004 . S
Co126 O136 2.021 . S
Co126 O138 2.137 . S
Co126 O139 2.244 . S
O127 Co126 2.216 . S
O127 C134 1.247 . S
O128 Co126 2.091 . S
O128 C134 1.261 . S
C129 O138 1.247 . S
C129 O139 1.272 . S
O130 Co126 2.004 . S
O130 C135 1.259 . S
Co131 O132 2.061 . S
Co131 O137 2.052 . S
Co131 O139 2.135 . S
O132 Co131 2.061 . S
O132 C135 1.235 . S
C133 O136 1.238 . S
C133 O137 1.241 . S
C134 O127 1.247 . S
C134 O128 1.261 . S
C135 O130 1.259 . S
C135 O132 1.235 . S
O136 Co126 2.021 . S
O136 C133 1.238 . S
O137 Co131 2.052 . S
O137 C133 1.241 . S
O138 Co126 2.137 . S
O138 C129 1.247 . S
O139 Co126 2.244 . S
O139 C129 1.272 . S
O139 Co131 2.135 . S
Co140 O141 2.216 . S
Co140 O142 2.091 . S
Co140 O144 2.004 . S
Co140 O150 2.021 . S
Co140 O152 2.137 . S
Co140 O153 2.244 . S
O141 Co140 2.216 . S
O141 C148 1.247 . S
O142 Co140 2.091 . S
O142 C148 1.261 . S
C143 O152 1.247 . S
C143 O153 1.272 . S
O144 Co140 2.004 . S
O144 C149 1.259 . S
Co145 O146 2.061 . S
Co145 O151 2.052 . S
Co145 O153 2.135 . S
O146 Co145 2.061 . S
O146 C149 1.235 . S
C147 O150 1.238 . S
C147 O151 1.241 . S
C148 O141 1.247 . S
C148 O142 1.261 . S
C149 O144 1.259 . S
C149 O146 1.235 . S
O150 Co140 2.021 . S
O150 C147 1.238 . S
O151 Co145 2.052 . S
O151 C147 1.241 . S
O152 Co140 2.137 . S
O152 C143 1.247 . S
O153 Co140 2.244 . S
O153 C143 1.272 . S
O153 Co145 2.135 . S
Co154 O155 2.216 . S
Co154 O156 2.091 . S
Co154 O158 2.004 . S
Co154 O164 2.021 . S
Co154 O166 2.137 . S
Co154 O167 2.244 . S
O155 Co154 2.216 . S
O155 C162 1.247 . S
O156 Co154 2.091 . S
O156 C162 1.261 . S
C157 O166 1.247 . S
C157 O167 1.272 . S
O158 Co154 2.004 . S
O158 C163 1.259 . S
Co159 O160 2.061 . S
Co159 O165 2.052 . S
Co159 O167 2.135 . S
O160 Co159 2.061 . S
O160 C163 1.235 . S
C161 O164 1.238 . S
C161 O165 1.241 . S
C162 O155 1.247 . S
C162 O156 1.261 . S
C163 O158 1.259 . S
C163 O160 1.235 . S
O164 Co154 2.021 . S
O164 C161 1.238 . S
O165 Co159 2.052 . S
O165 C161 1.241 . S
O166 Co154 2.137 . S
O166 C157 1.247 . S
O167 Co154 2.244 . S
O167 C157 1.272 . S
O167 Co159 2.135 . S
Co168 O169 2.216 . S
Co168 O170 2.091 . S
Co168 O172 2.004 . S
Co168 O178 2.021 . S
Co168 O180 2.137 . S
Co168 O181 2.244 . S
O169 Co168 2.216 . S
O169 C176 1.247 . S
O170 Co168 2.091 . S
O170 C176 1.261 . S
C171 O180 1.247 . S
C171 O181 1.272 . S
O172 Co168 2.004 . S
O172 C177 1.259 . S
Co173 O174 2.061 . S
Co173 O179 2.052 . S
Co173 O181 2.135 . S
O174 Co173 2.061 . S
O174 C177 1.235 . S
C175 O178 1.238 . S
C175 O179 1.241 . S
C176 O169 1.247 . S
C176 O170 1.261 . S
C177 O172 1.259 . S
C177 O174 1.235 . S
O178 Co168 2.021 . S
O178 C175 1.238 . S
O179 Co173 2.052 . S
O179 C175 1.241 . S
O180 Co168 2.137 . S
O180 C171 1.247 . S
O181 Co168 2.244 . S
O181 C171 1.272 . S
O181 Co173 2.135 . S
Co182 O183 2.216 . S
Co182 O184 2.091 . S
Co182 O186 2.004 . S
Co182 O192 2.021 . S
Co182 O194 2.137 . S
Co182 O195 2.244 . S
O183 Co182 2.216 . S
O183 C190 1.247 . S
O184 Co182 2.091 . S
O184 C190 1.261 . S
C185 O194 1.247 . S
C185 O195 1.272 . S
O186 Co182 2.004 . S
O186 C191 1.259 . S
Co187 O188 2.061 . S
Co187 O193 2.052 . S
Co187 O195 2.135 . S
O188 Co187 2.061 . S
O188 C191 1.235 . S
C189 O192 1.238 . S
C189 O193 1.241 . S
C190 O183 1.247 . S
C190 O184 1.261 . S
C191 O186 1.259 . S
C191 O188 1.235 . S
O192 Co182 2.021 . S
O192 C189 1.238 . S
O193 Co187 2.052 . S
O193 C189 1.241 . S
O194 Co182 2.137 . S
O194 C185 1.247 . S
O195 Co182 2.244 . S
O195 C185 1.272 . S
O195 Co187 2.135 . S
Co196 O197 2.216 . S
Co196 O198 2.091 . S
Co196 O200 2.004 . S
Co196 O206 2.021 . S
Co196 O208 2.137 . S
Co196 O209 2.244 . S
O197 Co196 2.216 . S
O197 C204 1.247 . S
O198 Co196 2.091 . S
O198 C204 1.261 . S
C199 O208 1.247 . S
C199 O209 1.272 . S
O200 Co196 2.004 . S
O200 C205 1.259 . S
Co201 O202 2.061 . S
Co201 O207 2.052 . S
Co201 O209 2.135 . S
O202 Co201 2.061 . S
O202 C205 1.235 . S
C203 O206 1.238 . S
C203 O207 1.241 . S
C204 O197 1.247 . S
C204 O198 1.261 . S
C205 O200 1.259 . S
C205 O202 1.235 . S
O206 Co196 2.021 . S
O206 C203 1.238 . S
O207 Co201 2.052 . S
O207 C203 1.241 . S
O208 Co196 2.137 . S
O208 C199 1.247 . S
O209 Co196 2.244 . S
O209 C199 1.272 . S
O209 Co201 2.135 . S
Co210 O211 2.216 . S
Co210 O212 2.091 . S
Co210 O214 2.004 . S
Co210 O220 2.021 . S
Co210 O222 2.137 . S
Co210 O223 2.244 . S
O211 Co210 2.216 . S
O211 C218 1.247 . S
O212 Co210 2.091 . S
O212 C218 1.261 . S
C213 O222 1.247 . S
C213 O223 1.272 . S
O214 Co210 2.004 . S
O214 C219 1.259 . S
Co215 O216 2.061 . S
Co215 O221 2.052 . S
Co215 O223 2.135 . S
O216 Co215 2.061 . S
O216 C219 1.235 . S
C217 O220 1.238 . S
C217 O221 1.241 . S
C218 O211 1.247 . S
C218 O212 1.261 . S
C219 O214 1.259 . S
C219 O216 1.235 . S
O220 Co210 2.021 . S
O220 C217 1.238 . S
O221 Co215 2.052 . S
O221 C217 1.241 . S
O222 Co210 2.137 . S
O222 C213 1.247 . S
O223 Co210 2.244 . S
O223 C213 1.272 . S
O223 Co215 2.135 . S
Co224 O225 2.216 . S
Co224 O226 2.091 . S
Co224 O228 2.004 . S
Co224 O234 2.021 . S
Co224 O236 2.137 . S
Co224 O237 2.244 . S
O225 Co224 2.216 . S
O225 C232 1.247 . S
O226 Co224 2.091 . S
O226 C232 1.261 . S
C227 O236 1.247 . S
C227 O237 1.272 . S
O228 Co224 2.004 . S
O228 C233 1.259 . S
Co229 O230 2.061 . S
Co229 O235 2.052 . S
Co229 O237 2.135 . S
O230 Co229 2.061 . S
O230 C233 1.235 . S
C231 O234 1.238 . S
C231 O235 1.241 . S
C232 O225 1.247 . S
C232 O226 1.261 . S
C233 O228 1.259 . S
C233 O230 1.235 . S
O234 Co224 2.021 . S
O234 C231 1.238 . S
O235 Co229 2.052 . S
O235 C231 1.241 . S
O236 Co224 2.137 . S
O236 C227 1.247 . S
O237 Co224 2.244 . S
O237 C227 1.272 . S
O237 Co229 2.135 . S
Co238 O239 2.216 . S
Co238 O240 2.091 . S
Co238 O242 2.004 . S
Co238 O248 2.021 . S
Co238 O250 2.137 . S
Co238 O251 2.244 . S
O239 Co238 2.216 . S
O239 C246 1.247 . S
O240 Co238 2.091 . S
O240 C246 1.261 . S
C241 O250 1.247 . S
C241 O251 1.272 . S
O242 Co238 2.004 . S
O242 C247 1.259 . S
Co243 O244 2.061 . S
Co243 O249 2.052 . S
Co243 O251 2.135 . S
O244 Co243 2.061 . S
O244 C247 1.235 . S
C245 O248 1.238 . S
C245 O249 1.241 . S
C246 O239 1.247 . S
C246 O240 1.261 . S
C247 O242 1.259 . S
C247 O244 1.235 . S
O248 Co238 2.021 . S
O248 C245 1.238 . S
O249 Co243 2.052 . S
O249 C245 1.241 . S
O250 Co238 2.137 . S
O250 C241 1.247 . S
O251 Co238 2.244 . S
O251 C241 1.272 . S
O251 Co243 2.135 . S
Co252 O253 2.216 . S
Co252 O254 2.091 . S
Co252 O256 2.004 . S
Co252 O262 2.021 . S
Co252 O264 2.137 . S
Co252 O265 2.244 . S
O253 Co252 2.216 . S
O253 C260 1.247 . S
O254 Co252 2.091 . S
O254 C260 1.261 . S
C255 O264 1.247 . S
C255 O265 1.272 . S
O256 Co252 2.004 . S
O256 C261 1.259 . S
Co257 O258 2.061 . S
Co257 O263 2.052 . S
Co257 O265 2.135 . S
O258 Co257 2.061 . S
O258 C261 1.235 . S
C259 O262 1.238 . S
C259 O263 1.241 . S
C260 O253 1.247 . S
C260 O254 1.261 . S
C261 O256 1.259 . S
C261 O258 1.235 . S
O262 Co252 2.021 . S
O262 C259 1.238 . S
O263 Co257 2.052 . S
O263 C259 1.241 . S
O264 Co252 2.137 . S
O264 C255 1.247 . S
O265 Co252 2.244 . S
O265 C255 1.272 . S
O265 Co257 2.135 . S
Co266 O267 2.216 . S
Co266 O268 2.091 . S
Co266 O270 2.004 . S
Co266 O276 2.021 . S
Co266 O278 2.137 . S
Co266 O279 2.244 . S
O267 Co266 2.216 . S
O267 C274 1.247 . S
O268 Co266 2.091 . S
O268 C274 1.261 . S
C269 O278 1.247 . S
C269 O279 1.272 . S
O270 Co266 2.004 . S
O270 C275 1.259 . S
Co271 O272 2.061 . S
Co271 O277 2.052 . S
Co271 O279 2.135 . S
O272 Co271 2.061 . S
O272 C275 1.235 . S
C273 O276 1.238 . S
C273 O277 1.241 . S
C274 O267 1.247 . S
C274 O268 1.261 . S
C275 O270 1.259 . S
C275 O272 1.235 . S
O276 Co266 2.021 . S
O276 C273 1.238 . S
O277 Co271 2.052 . S
O277 C273 1.241 . S
O278 Co266 2.137 . S
O278 C269 1.247 . S
O279 Co266 2.244 . S
O279 C269 1.272 . S
O279 Co271 2.135 . S
Co280 O281 2.216 . S
Co280 O282 2.091 . S
Co280 O284 2.004 . S
Co280 O290 2.021 . S
Co280 O292 2.137 . S
Co280 O293 2.244 . S
O281 Co280 2.216 . S
O281 C288 1.247 . S
O282 Co280 2.091 . S
O282 C288 1.261 . S
C283 O292 1.247 . S
C283 O293 1.272 . S
O284 Co280 2.004 . S
O284 C289 1.259 . S
Co285 O286 2.061 . S
Co285 O291 2.052 . S
Co285 O293 2.135 . S
O286 Co285 2.061 . S
O286 C289 1.235 . S
C287 O290 1.238 . S
C287 O291 1.241 . S
C288 O281 1.247 . S
C288 O282 1.261 . S
C289 O284 1.259 . S
C289 O286 1.235 . S
O290 Co280 2.021 . S
O290 C287 1.238 . S
O291 Co285 2.052 . S
O291 C287 1.241 . S
O292 Co280 2.137 . S
O292 C283 1.247 . S
O293 Co280 2.244 . S
O293 C283 1.272 . S
O293 Co285 2.135 . S
Co294 O295 2.216 . S
Co294 O296 2.091 . S
Co294 O298 2.004 . S
Co294 O304 2.021 . S
Co294 O306 2.137 . S
Co294 O307 2.244 . S
O295 Co294 2.216 . S
O295 C302 1.247 . S
O296 Co294 2.091 . S
O296 C302 1.261 . S
C297 O306 1.247 . S
C297 O307 1.272 . S
O298 Co294 2.004 . S
O298 C303 1.259 . S
Co299 O300 2.061 . S
Co299 O305 2.052 . S
Co299 O307 2.135 . S
O300 Co299 2.061 . S
O300 C303 1.235 . S
C301 O304 1.238 . S
C301 O305 1.241 . S
C302 O295 1.247 . S
C302 O296 1.261 . S
C303 O298 1.259 . S
C303 O300 1.235 . S
O304 Co294 2.021 . S
O304 C301 1.238 . S
O305 Co299 2.052 . S
O305 C301 1.241 . S
O306 Co294 2.137 . S
O306 C297 1.247 . S
O307 Co294 2.244 . S
O307 C297 1.272 . S
O307 Co299 2.135 . S
Co308 O309 2.216 . S
Co308 O310 2.091 . S
Co308 O312 2.004 . S
Co308 O318 2.021 . S
Co308 O320 2.137 . S
Co308 O321 2.244 . S
O309 Co308 2.216 . S
O309 C316 1.247 . S
O310 Co308 2.091 . S
O310 C316 1.261 . S
C311 O320 1.247 . S
C311 O321 1.272 . S
O312 Co308 2.004 . S
O312 C317 1.259 . S
Co313 O314 2.061 . S
Co313 O319 2.052 . S
Co313 O321 2.135 . S
O314 Co313 2.061 . S
O314 C317 1.235 . S
C315 O318 1.238 . S
C315 O319 1.241 . S
C316 O309 1.247 . S
C316 O310 1.261 . S
C317 O312 1.259 . S
C317 O314 1.235 . S
O318 Co308 2.021 . S
O318 C315 1.238 . S
O319 Co313 2.052 . S
O319 C315 1.241 . S
O320 Co308 2.137 . S
O320 C311 1.247 . S
O321 Co308 2.244 . S
O321 C311 1.272 . S
O321 Co313 2.135 . S
Co322 O323 2.216 . S
Co322 O324 2.091 . S
Co322 O326 2.004 . S
Co322 O332 2.021 . S
Co322 O334 2.137 . S
Co322 O335 2.244 . S
O323 Co322 2.216 . S
O323 C330 1.247 . S
O324 Co322 2.091 . S
O324 C330 1.261 . S
C325 O334 1.247 . S
C325 O335 1.272 . S
O326 Co322 2.004 . S
O326 C331 1.259 . S
Co327 O328 2.061 . S
Co327 O333 2.052 . S
Co327 O335 2.135 . S
O328 Co327 2.061 . S
O328 C331 1.235 . S
C329 O332 1.238 . S
C329 O333 1.241 . S
C330 O323 1.247 . S
C330 O324 1.261 . S
C331 O326 1.259 . S
C331 O328 1.235 . S
O332 Co322 2.021 . S
O332 C329 1.238 . S
O333 Co327 2.052 . S
O333 C329 1.241 . S
O334 Co322 2.137 . S
O334 C325 1.247 . S
O335 Co322 2.244 . S
O335 C325 1.272 . S
O335 Co327 2.135 . S
Co336 O337 2.216 . S
Co336 O338 2.091 . S
Co336 O340 2.004 . S
Co336 O346 2.021 . S
Co336 O348 2.137 . S
Co336 O349 2.244 . S
O337 Co336 2.216 . S
O337 C344 1.247 . S
O338 Co336 2.091 . S
O338 C344 1.261 . S
C339 O348 1.247 . S
C339 O349 1.272 . S
O340 Co336 2.004 . S
O340 C345 1.259 . S
Co341 O342 2.061 . S
Co341 O347 2.052 . S
Co341 O349 2.135 . S
O342 Co341 2.061 . S
O342 C345 1.235 . S
C343 O346 1.238 . S
C343 O347 1.241 . S
C344 O337 1.247 . S
C344 O338 1.261 . S
C345 O340 1.259 . S
C345 O342 1.235 . S
O346 Co336 2.021 . S
O346 C343 1.238 . S
O347 Co341 2.052 . S
O347 C343 1.241 . S
O348 Co336 2.137 . S
O348 C339 1.247 . S
O349 Co336 2.244 . S
O349 C339 1.272 . S
O349 Co341 2.135 . S
Co350 O351 2.216 . S
Co350 O352 2.091 . S
Co350 O354 2.004 . S
Co350 O360 2.021 . S
Co350 O362 2.137 . S
Co350 O363 2.244 . S
O351 Co350 2.216 . S
O351 C358 1.247 . S
O352 Co350 2.091 . S
O352 C358 1.261 . S
C353 O362 1.247 . S
C353 O363 1.272 . S
O354 Co350 2.004 . S
O354 C359 1.259 . S
Co355 O356 2.061 . S
Co355 O361 2.052 . S
Co355 O363 2.135 . S
O356 Co355 2.061 . S
O356 C359 1.235 . S
C357 O360 1.238 . S
C357 O361 1.241 . S
C358 O351 1.247 . S
C358 O352 1.261 . S
C359 O354 1.259 . S
C359 O356 1.235 . S
O360 Co350 2.021 . S
O360 C357 1.238 . S
O361 Co355 2.052 . S
O361 C357 1.241 . S
O362 Co350 2.137 . S
O362 C353 1.247 . S
O363 Co350 2.244 . S
O363 C353 1.272 . S
O363 Co355 2.135 . S
Co364 O365 2.216 . S
Co364 O366 2.091 . S
Co364 O368 2.004 . S
Co364 O374 2.021 . S
Co364 O376 2.137 . S
Co364 O377 2.244 . S
O365 Co364 2.216 . S
O365 C372 1.247 . S
O366 Co364 2.091 . S
O366 C372 1.261 . S
C367 O376 1.247 . S
C367 O377 1.272 . S
O368 Co364 2.004 . S
O368 C373 1.259 . S
Co369 O370 2.061 . S
Co369 O375 2.052 . S
Co369 O377 2.135 . S
O370 Co369 2.061 . S
O370 C373 1.235 . S
C371 O374 1.238 . S
C371 O375 1.241 . S
C372 O365 1.247 . S
C372 O366 1.261 . S
C373 O368 1.259 . S
C373 O370 1.235 . S
O374 Co364 2.021 . S
O374 C371 1.238 . S
O375 Co369 2.052 . S
O375 C371 1.241 . S
O376 Co364 2.137 . S
O376 C367 1.247 . S
O377 Co364 2.244 . S
O377 C367 1.272 . S
O377 Co369 2.135 . S
Co378 O379 2.216 . S
Co378 O380 2.091 . S
Co378 O382 2.004 . S
Co378 O388 2.021 . S
Co378 O390 2.137 . S
Co378 O391 2.244 . S
O379 Co378 2.216 . S
O379 C386 1.247 . S
O380 Co378 2.091 . S
O380 C386 1.261 . S
C381 O390 1.247 . S
C381 O391 1.272 . S
O382 Co378 2.004 . S
O382 C387 1.259 . S
Co383 O384 2.061 . S
Co383 O389 2.052 . S
Co383 O391 2.135 . S
O384 Co383 2.061 . S
O384 C387 1.235 . S
C385 O388 1.238 . S
C385 O389 1.241 . S
C386 O379 1.247 . S
C386 O380 1.261 . S
C387 O382 1.259 . S
C387 O384 1.235 . S
O388 Co378 2.021 . S
O388 C385 1.238 . S
O389 Co383 2.052 . S
O389 C385 1.241 . S
O390 Co378 2.137 . S
O390 C381 1.247 . S
O391 Co378 2.244 . S
O391 C381 1.272 . S
O391 Co383 2.135 . S
Co392 O393 2.216 . S
Co392 O394 2.091 . S
Co392 O396 2.004 . S
Co392 O402 2.021 . S
Co392 O404 2.137 . S
Co392 O405 2.244 . S
O393 Co392 2.216 . S
O393 C400 1.247 . S
O394 Co392 2.091 . S
O394 C400 1.261 . S
C395 O404 1.247 . S
C395 O405 1.272 . S
O396 Co392 2.004 . S
O396 C401 1.259 . S
Co397 O398 2.061 . S
Co397 O403 2.052 . S
Co397 O405 2.135 . S
O398 Co397 2.061 . S
O398 C401 1.235 . S
C399 O402 1.238 . S
C399 O403 1.241 . S
C400 O393 1.247 . S
C400 O394 1.261 . S
C401 O396 1.259 . S
C401 O398 1.235 . S
O402 Co392 2.021 . S
O402 C399 1.238 . S
O403 Co397 2.052 . S
O403 C399 1.241 . S
O404 Co392 2.137 . S
O404 C395 1.247 . S
O405 Co392 2.244 . S
O405 C395 1.272 . S
O405 Co397 2.135 . S
Co406 O407 2.216 . S
Co406 O408 2.091 . S
Co406 O410 2.004 . S
Co406 O416 2.021 . S
Co406 O418 2.137 . S
Co406 O419 2.244 . S
O407 Co406 2.216 . S
O407 C414 1.247 . S
O408 Co406 2.091 . S
O408 C414 1.261 . S
C409 O418 1.247 . S
C409 O419 1.272 . S
O410 Co406 2.004 . S
O410 C415 1.259 . S
Co411 O412 2.061 . S
Co411 O417 2.052 . S
Co411 O419 2.135 . S
O412 Co411 2.061 . S
O412 C415 1.235 . S
C413 O416 1.238 . S
C413 O417 1.241 . S
C414 O407 1.247 . S
C414 O408 1.261 . S
C415 O410 1.259 . S
C415 O412 1.235 . S
O416 Co406 2.021 . S
O416 C413 1.238 . S
O417 Co411 2.052 . S
O417 C413 1.241 . S
O418 Co406 2.137 . S
O418 C409 1.247 . S
O419 Co406 2.244 . S
O419 C409 1.272 . S
O419 Co411 2.135 . S
Co420 O421 2.216 . S
Co420 O422 2.091 . S
Co420 O424 2.004 . S
Co420 O430 2.021 . S
Co420 O432 2.137 . S
Co420 O433 2.244 . S
O421 Co420 2.216 . S
O421 C428 1.247 . S
O422 Co420 2.091 . S
O422 C428 1.261 . S
C423 O432 1.247 . S
C423 O433 1.272 . S
O424 Co420 2.004 . S
O424 C429 1.259 . S
Co425 O426 2.061 . S
Co425 O431 2.052 . S
Co425 O433 2.135 . S
O426 Co425 2.061 . S
O426 C429 1.235 . S
C427 O430 1.238 . S
C427 O431 1.241 . S
C428 O421 1.247 . S
C428 O422 1.261 . S
C429 O424 1.259 . S
C429 O426 1.235 . S
O430 Co420 2.021 . S
O430 C427 1.238 . S
O431 Co425 2.052 . S
O431 C427 1.241 . S
O432 Co420 2.137 . S
O432 C423 1.247 . S
O433 Co420 2.244 . S
O433 C423 1.272 . S
O433 Co425 2.135 . S
Co434 O435 2.216 . S
Co434 O436 2.091 . S
Co434 O438 2.004 . S
Co434 O444 2.021 . S
Co434 O446 2.137 . S
Co434 O447 2.244 . S
O435 Co434 2.216 . S
O435 C442 1.247 . S
O436 Co434 2.091 . S
O436 C442 1.261 . S
C437 O446 1.247 . S
C437 O447 1.272 . S
O438 Co434 2.004 . S
O438 C443 1.259 . S
Co439 O440 2.061 . S
Co439 O445 2.052 . S
Co439 O447 2.135 . S
O440 Co439 2.061 . S
O440 C443 1.235 . S
C441 O444 1.238 . S
C441 O445 1.241 . S
C442 O435 1.247 . S
C442 O436 1.261 . S
C443 O438 1.259 . S
C443 O440 1.235 . S
O444 Co434 2.021 . S
O444 C441 1.238 . S
O445 Co439 2.052 . S
O445 C441 1.241 . S
O446 Co434 2.137 . S
O446 C437 1.247 . S
O447 Co434 2.244 . S
O447 C437 1.272 . S
O447 Co439 2.135 . S
Co448 O449 2.216 . S
Co448 O450 2.091 . S
Co448 O452 2.004 . S
Co448 O458 2.021 . S
Co448 O460 2.137 . S
Co448 O461 2.244 . S
O449 Co448 2.216 . S
O449 C456 1.247 . S
O450 Co448 2.091 . S
O450 C456 1.261 . S
C451 O460 1.247 . S
C451 O461 1.272 . S
O452 Co448 2.004 . S
O452 C457 1.259 . S
Co453 O454 2.061 . S
Co453 O459 2.052 . S
Co453 O461 2.135 . S
O454 Co453 2.061 . S
O454 C457 1.235 . S
C455 O458 1.238 . S
C455 O459 1.241 . S
C456 O449 1.247 . S
C456 O450 1.261 . S
C457 O452 1.259 . S
C457 O454 1.235 . S
O458 Co448 2.021 . S
O458 C455 1.238 . S
O459 Co453 2.052 . S
O459 C455 1.241 . S
O460 Co448 2.137 . S
O460 C451 1.247 . S
O461 Co448 2.244 . S
O461 C451 1.272 . S
O461 Co453 2.135 . S
Co462 O463 2.216 . S
Co462 O464 2.091 . S
Co462 O466 2.004 . S
Co462 O472 2.021 . S
Co462 O474 2.137 . S
Co462 O475 2.244 . S
O463 Co462 2.216 . S
O463 C470 1.247 . S
O464 Co462 2.091 . S
O464 C470 1.261 . S
C465 O474 1.247 . S
C465 O475 1.272 . S
O466 Co462 2.004 . S
O466 C471 1.259 . S
Co467 O468 2.061 . S
Co467 O473 2.052 . S
Co467 O475 2.135 . S
O468 Co467 2.061 . S
O468 C471 1.235 . S
C469 O472 1.238 . S
C469 O473 1.241 . S
C470 O463 1.247 . S
C470 O464 1.261 . S
C471 O466 1.259 . S
C471 O468 1.235 . S
O472 Co462 2.021 . S
O472 C469 1.238 . S
O473 Co467 2.052 . S
O473 C469 1.241 . S
O474 Co462 2.137 . S
O474 C465 1.247 . S
O475 Co462 2.244 . S
O475 C465 1.272 . S
O475 Co467 2.135 . S
Co476 O477 2.216 . S
Co476 O478 2.091 . S
Co476 O480 2.004 . S
Co476 O486 2.021 . S
Co476 O488 2.137 . S
Co476 O489 2.244 . S
O477 Co476 2.216 . S
O477 C484 1.247 . S
O478 Co476 2.091 . S
O478 C484 1.261 . S
C479 O488 1.247 . S
C479 O489 1.272 . S
O480 Co476 2.004 . S
O480 C485 1.259 . S
Co481 O482 2.061 . S
Co481 O487 2.052 . S
Co481 O489 2.135 . S
O482 Co481 2.061 . S
O482 C485 1.235 . S
C483 O486 1.238 . S
C483 O487 1.241 . S
C484 O477 1.247 . S
C484 O478 1.261 . S
C485 O480 1.259 . S
C485 O482 1.235 . S
O486 Co476 2.021 . S
O486 C483 1.238 . S
O487 Co481 2.052 . S
O487 C483 1.241 . S
O488 Co476 2.137 . S
O488 C479 1.247 . S
O489 Co476 2.244 . S
O489 C479 1.272 . S
O489 Co481 2.135 . S
Co490 O491 2.216 . S
Co490 O492 2.091 . S
Co490 O494 2.004 . S
Co490 O500 2.021 . S
Co490 O502 2.137 . S
Co490 O503 2.244 . S
O491 Co490 2.216 . S
O491 C498 1.247 . S
O492 Co490 2.091 . S
O492 C498 1.261 . S
C493 O502 1.247 . S
C493 O503 1.272 . S
O494 Co490 2.004 . S
O494 C499 1.259 . S
Co495 O496 2.061 . S
Co495 O501 2.052 . S
Co495 O503 2.135 . S
O496 Co495 2.061 . S
O496 C499 1.235 . S
C497 O500 1.238 . S
C497 O501 1.241 . S
C498 O491 1.247 . S
C498 O492 1.261 . S
C499 O494 1.259 . S
C499 O496 1.235 . S
O500 Co490 2.021 . S
O500 C497 1.238 . S
O501 Co495 2.052 . S
O501 C497 1.241 . S
O502 Co490 2.137 . S
O502 C493 1.247 . S
O503 Co490 2.244 . S
O503 C493 1.272 . S
O503 Co495 2.135 . S
C504 C505 1.349 . S
C504 C506 1.327 . S
C504 H529 0.950 . S
C505 C504 1.349 . S
C505 C521 1.349 . S
C506 C504 1.327 . S
C506 C525 1.429 . S
C506 H530 0.950 . S
C507 C524 1.574 . S
C507 C526 1.368 . S
C507 H531 0.949 . S
H508 C512 0.949 . S
C509 C510 1.349 . S
C509 C511 1.327 . S
C509 H532 0.950 . S
C510 C509 1.349 . S
C510 C522 1.349 . S
C511 C509 1.327 . S
C511 C527 1.429 . S
C511 H533 0.950 . S
C512 H508 0.949 . S
C512 C520 1.574 . S
C512 C528 1.368 . S
H513 C521 0.950 . S
H514 C519 0.950 . S
H515 C520 0.949 . S
H516 C522 0.950 . S
H517 C523 0.950 . S
H518 C524 0.949 . S
C519 H514 0.950 . S
C519 C521 1.327 . S
C519 C525 1.429 . S
C520 C512 1.574 . S
C520 H515 0.949 . S
C520 C526 1.368 . S
C521 C505 1.349 . S
C521 H513 0.950 . S
C521 C519 1.327 . S
C522 C510 1.349 . S
C522 H516 0.950 . S
C522 C523 1.327 . S
C523 H517 0.950 . S
C523 C522 1.327 . S
C523 C527 1.429 . S
C524 C507 1.574 . S
C524 H518 0.949 . S
C524 C528 1.368 . S
C525 C506 1.429 . S
C525 C519 1.429 . S
C525 C526 1.523 . S
C526 C507 1.368 . S
C526 C520 1.368 . S
C526 C525 1.523 . S
C527 C511 1.429 . S
C527 C523 1.429 . S
C527 C528 1.523 . S
C528 C512 1.368 . S
C528 C524 1.368 . S
C528 C527 1.523 . S
H529 C504 0.950 . S
H530 C506 0.950 . S
H531 C507 0.949 . S
H532 C509 0.950 . S
H533 C511 0.950 . S
C534 C535 1.349 . S
C534 C536 1.327 . S
C534 H559 0.950 . S
C535 C534 1.349 . S
C535 C551 1.349 . S
C536 C534 1.327 . S
C536 C555 1.429 . S
C536 H560 0.950 . S
C537 C554 1.574 . S
C537 C556 1.368 . S
C537 H561 0.949 . S
H538 C542 0.949 . S
C539 C540 1.349 . S
C539 C541 1.327 . S
C539 H562 0.950 . S
C540 C539 1.349 . S
C540 C552 1.349 . S
C541 C539 1.327 . S
C541 C557 1.429 . S
C541 H563 0.950 . S
C542 H538 0.949 . S
C542 C550 1.574 . S
C542 C558 1.368 . S
H543 C551 0.950 . S
H544 C549 0.950 . S
H545 C550 0.949 . S
H546 C552 0.950 . S
H547 C553 0.950 . S
H548 C554 0.949 . S
C549 H544 0.950 . S
C549 C551 1.327 . S
C549 C555 1.429 . S
C550 C542 1.574 . S
C550 H545 0.949 . S
C550 C556 1.368 . S
C551 C535 1.349 . S
C551 H543 0.950 . S
C551 C549 1.327 . S
C552 C540 1.349 . S
C552 H546 0.950 . S
C552 C553 1.327 . S
C553 H547 0.950 . S
C553 C552 1.327 . S
C553 C557 1.429 . S
C554 C537 1.574 . S
C554 H548 0.949 . S
C554 C558 1.368 . S
C555 C536 1.429 . S
C555 C549 1.429 . S
C555 C556 1.523 . S
C556 C537 1.368 . S
C556 C550 1.368 . S
C556 C555 1.523 . S
C557 C541 1.429 . S
C557 C553 1.429 . S
C557 C558 1.523 . S
C558 C542 1.368 . S
C558 C554 1.368 . S
C558 C557 1.523 . S
H559 C534 0.950 . S
H560 C536 0.950 . S
H561 C537 0.949 . S
H562 C539 0.950 . S
H563 C541 0.950 . S
C564 C565 1.349 . S
C564 C566 1.327 . S
C564 H589 0.950 . S
C565 C564 1.349 . S
C565 C581 1.349 . S
C566 C564 1.327 . S
C566 C585 1.429 . S
C566 H590 0.950 . S
C567 C584 1.574 . S
C567 C586 1.368 . S
C567 H591 0.949 . S
H568 C572 0.949 . S
C569 C570 1.349 . S
C569 C571 1.327 . S
C569 H592 0.950 . S
C570 C569 1.349 . S
C570 C582 1.349 . S
C571 C569 1.327 . S
C571 C587 1.429 . S
C571 H593 0.950 . S
C572 H568 0.949 . S
C572 C580 1.574 . S
C572 C588 1.368 . S
H573 C581 0.950 . S
H574 C579 0.950 . S
H575 C580 0.949 . S
H576 C582 0.950 . S
H577 C583 0.950 . S
H578 C584 0.949 . S
C579 H574 0.950 . S
C579 C581 1.327 . S
C579 C585 1.429 . S
C580 C572 1.574 . S
C580 H575 0.949 . S
C580 C586 1.368 . S
C581 C565 1.349 . S
C581 H573 0.950 . S
C581 C579 1.327 . S
C582 C570 1.349 . S
C582 H576 0.950 . S
C582 C583 1.327 . S
C583 H577 0.950 . S
C583 C582 1.327 . S
C583 C587 1.429 . S
C584 C567 1.574 . S
C584 H578 0.949 . S
C584 C588 1.368 . S
C585 C566 1.429 . S
C585 C579 1.429 . S
C585 C586 1.523 . S
C586 C567 1.368 . S
C586 C580 1.368 . S
C586 C585 1.523 . S
C587 C571 1.429 . S
C587 C583 1.429 . S
C587 C588 1.523 . S
C588 C572 1.368 . S
C588 C584 1.368 . S
C588 C587 1.523 . S
H589 C564 0.950 . S
H590 C566 0.950 . S
H591 C567 0.949 . S
H592 C569 0.950 . S
H593 C571 0.950 . S
C594 C595 1.349 . S
C594 C596 1.327 . S
C594 H619 0.950 . S
C595 C594 1.349 . S
C595 C611 1.349 . S
C596 C594 1.327 . S
C596 C615 1.429 . S
C596 H620 0.950 . S
C597 C614 1.574 . S
C597 C616 1.368 . S
C597 H621 0.949 . S
H598 C602 0.949 . S
C599 C600 1.349 . S
C599 C601 1.327 . S
C599 H622 0.950 . S
C600 C599 1.349 . S
C600 C612 1.349 . S
C601 C599 1.327 . S
C601 C617 1.429 . S
C601 H623 0.950 . S
C602 H598 0.949 . S
C602 C610 1.574 . S
C602 C618 1.368 . S
H603 C611 0.950 . S
H604 C609 0.950 . S
H605 C610 0.949 . S
H606 C612 0.950 . S
H607 C613 0.950 . S
H608 C614 0.949 . S
C609 H604 0.950 . S
C609 C611 1.327 . S
C609 C615 1.429 . S
C610 C602 1.574 . S
C610 H605 0.949 . S
C610 C616 1.368 . S
C611 C595 1.349 . S
C611 H603 0.950 . S
C611 C609 1.327 . S
C612 C600 1.349 . S
C612 H606 0.950 . S
C612 C613 1.327 . S
C613 H607 0.950 . S
C613 C612 1.327 . S
C613 C617 1.429 . S
C614 C597 1.574 . S
C614 H608 0.949 . S
C614 C618 1.368 . S
C615 C596 1.429 . S
C615 C609 1.429 . S
C615 C616 1.523 . S
C616 C597 1.368 . S
C616 C610 1.368 . S
C616 C615 1.523 . S
C617 C601 1.429 . S
C617 C613 1.429 . S
C617 C618 1.523 . S
C618 C602 1.368 . S
C618 C614 1.368 . S
C618 C617 1.523 . S
H619 C594 0.950 . S
H620 C596 0.950 . S
H621 C597 0.949 . S
H622 C599 0.950 . S
H623 C601 0.950 . S
C624 C625 1.349 . S
C624 C626 1.327 . S
C624 H649 0.950 . S
C625 C624 1.349 . S
C625 C641 1.349 . S
C626 C624 1.327 . S
C626 C645 1.429 . S
C626 H650 0.950 . S
C627 C644 1.574 . S
C627 C646 1.368 . S
C627 H651 0.949 . S
H628 C632 0.949 . S
C629 C630 1.349 . S
C629 C631 1.327 . S
C629 H652 0.950 . S
C630 C629 1.349 . S
C630 C642 1.349 . S
C631 C629 1.327 . S
C631 C647 1.429 . S
C631 H653 0.950 . S
C632 H628 0.949 . S
C632 C640 1.574 . S
C632 C648 1.368 . S
H633 C641 0.950 . S
H634 C639 0.950 . S
H635 C640 0.949 . S
H636 C642 0.950 . S
H637 C643 0.950 . S
H638 C644 0.949 . S
C639 H634 0.950 . S
C639 C641 1.327 . S
C639 C645 1.429 . S
C640 C632 1.574 . S
C640 H635 0.949 . S
C640 C646 1.368 . S
C641 C625 1.349 . S
C641 H633 0.950 . S
C641 C639 1.327 . S
C642 C630 1.349 . S
C642 H636 0.950 . S
C642 C643 1.327 . S
C643 H637 0.950 . S
C643 C642 1.327 . S
C643 C647 1.429 . S
C644 C627 1.574 . S
C644 H638 0.949 . S
C644 C648 1.368 . S
C645 C626 1.429 . S
C645 C639 1.429 . S
C645 C646 1.523 . S
C646 C627 1.368 . S
C646 C640 1.368 . S
C646 C645 1.523 . S
C647 C631 1.429 . S
C647 C643 1.429 . S
C647 C648 1.523 . S
C648 C632 1.368 . S
C648 C644 1.368 . S
C648 C647 1.523 . S
H649 C624 0.950 . S
H650 C626 0.950 . S
H651 C627 0.949 . S
H652 C629 0.950 . S
H653 C631 0.950 . S
C654 C655 1.349 . S
C654 C656 1.327 . S
C654 H679 0.950 . S
C655 C654 1.349 . S
C655 C671 1.349 . S
C656 C654 1.327 . S
C656 C675 1.429 . S
C656 H680 0.950 . S
C657 C674 1.574 . S
C657 C676 1.368 . S
C657 H681 0.949 . S
H658 C662 0.949 . S
C659 C660 1.349 . S
C659 C661 1.327 . S
C659 H682 0.950 . S
C660 C659 1.349 . S
C660 C672 1.349 . S
C661 C659 1.327 . S
C661 C677 1.429 . S
C661 H683 0.950 . S
C662 H658 0.949 . S
C662 C670 1.574 . S
C662 C678 1.368 . S
H663 C671 0.950 . S
H664 C669 0.950 . S
H665 C670 0.949 . S
H666 C672 0.950 . S
H667 C673 0.950 . S
H668 C674 0.949 . S
C669 H664 0.950 . S
C669 C671 1.327 . S
C669 C675 1.429 . S
C670 C662 1.574 . S
C670 H665 0.949 . S
C670 C676 1.368 . S
C671 C655 1.349 . S
C671 H663 0.950 . S
C671 C669 1.327 . S
C672 C660 1.349 . S
C672 H666 0.950 . S
C672 C673 1.327 . S
C673 H667 0.950 . S
C673 C672 1.327 . S
C673 C677 1.429 . S
C674 C657 1.574 . S
C674 H668 0.949 . S
C674 C678 1.368 . S
C675 C656 1.429 . S
C675 C669 1.429 . S
C675 C676 1.523 . S
C676 C657 1.368 . S
C676 C670 1.368 . S
C676 C675 1.523 . S
C677 C661 1.429 . S
C677 C673 1.429 . S
C677 C678 1.523 . S
C678 C662 1.368 . S
C678 C674 1.368 . S
C678 C677 1.523 . S
H679 C654 0.950 . S
H680 C656 0.950 . S
H681 C657 0.949 . S
H682 C659 0.950 . S
H683 C661 0.950 . S
C684 C685 1.349 . S
C684 C686 1.327 . S
C684 H709 0.950 . S
C685 C684 1.349 . S
C685 C701 1.349 . S
C686 C684 1.327 . S
C686 C705 1.429 . S
C686 H710 0.950 . S
C687 C704 1.574 . S
C687 C706 1.368 . S
C687 H711 0.949 . S
H688 C692 0.949 . S
C689 C690 1.349 . S
C689 C691 1.327 . S
C689 H712 0.950 . S
C690 C689 1.349 . S
C690 C702 1.349 . S
C691 C689 1.327 . S
C691 C707 1.429 . S
C691 H713 0.950 . S
C692 H688 0.949 . S
C692 C700 1.574 . S
C692 C708 1.368 . S
H693 C701 0.950 . S
H694 C699 0.950 . S
H695 C700 0.949 . S
H696 C702 0.950 . S
H697 C703 0.950 . S
H698 C704 0.949 . S
C699 H694 0.950 . S
C699 C701 1.327 . S
C699 C705 1.429 . S
C700 C692 1.574 . S
C700 H695 0.949 . S
C700 C706 1.368 . S
C701 C685 1.349 . S
C701 H693 0.950 . S
C701 C699 1.327 . S
C702 C690 1.349 . S
C702 H696 0.950 . S
C702 C703 1.327 . S
C703 H697 0.950 . S
C703 C702 1.327 . S
C703 C707 1.429 . S
C704 C687 1.574 . S
C704 H698 0.949 . S
C704 C708 1.368 . S
C705 C686 1.429 . S
C705 C699 1.429 . S
C705 C706 1.523 . S
C706 C687 1.368 . S
C706 C700 1.368 . S
C706 C705 1.523 . S
C707 C691 1.429 . S
C707 C703 1.429 . S
C707 C708 1.523 . S
C708 C692 1.368 . S
C708 C704 1.368 . S
C708 C707 1.523 . S
H709 C684 0.950 . S
H710 C686 0.950 . S
H711 C687 0.949 . S
H712 C689 0.950 . S
H713 C691 0.950 . S
C714 C715 1.349 . S
C714 C716 1.327 . S
C714 H739 0.950 . S
C715 C714 1.349 . S
C715 C731 1.349 . S
C716 C714 1.327 . S
C716 C735 1.429 . S
C716 H740 0.950 . S
C717 C734 1.574 . S
C717 C736 1.368 . S
C717 H741 0.949 . S
H718 C722 0.949 . S
C719 C720 1.349 . S
C719 C721 1.327 . S
C719 H742 0.950 . S
C720 C719 1.349 . S
C720 C732 1.349 . S
C721 C719 1.327 . S
C721 C737 1.429 . S
C721 H743 0.950 . S
C722 H718 0.949 . S
C722 C730 1.574 . S
C722 C738 1.368 . S
H723 C731 0.950 . S
H724 C729 0.950 . S
H725 C730 0.949 . S
H726 C732 0.950 . S
H727 C733 0.950 . S
H728 C734 0.949 . S
C729 H724 0.950 . S
C729 C731 1.327 . S
C729 C735 1.429 . S
C730 C722 1.574 . S
C730 H725 0.949 . S
C730 C736 1.368 . S
C731 C715 1.349 . S
C731 H723 0.950 . S
C731 C729 1.327 . S
C732 C720 1.349 . S
C732 H726 0.950 . S
C732 C733 1.327 . S
C733 H727 0.950 . S
C733 C732 1.327 . S
C733 C737 1.429 . S
C734 C717 1.574 . S
C734 H728 0.949 . S
C734 C738 1.368 . S
C735 C716 1.429 . S
C735 C729 1.429 . S
C735 C736 1.523 . S
C736 C717 1.368 . S
C736 C730 1.368 . S
C736 C735 1.523 . S
C737 C721 1.429 . S
C737 C733 1.429 . S
C737 C738 1.523 . S
C738 C722 1.368 . S
C738 C734 1.368 . S
C738 C737 1.523 . S
H739 C714 0.950 . S
H740 C716 0.950 . S
H741 C717 0.949 . S
H742 C719 0.950 . S
H743 C721 0.950 . S
C744 C745 1.349 . S
C744 C746 1.327 . S
C744 H769 0.950 . S
C745 C744 1.349 . S
C745 C761 1.349 . S
C746 C744 1.327 . S
C746 C765 1.429 . S
C746 H770 0.950 . S
C747 C764 1.574 . S
C747 C766 1.368 . S
C747 H771 0.949 . S
H748 C752 0.949 . S
C749 C750 1.349 . S
C749 C751 1.327 . S
C749 H772 0.950 . S
C750 C749 1.349 . S
C750 C762 1.349 . S
C751 C749 1.327 . S
C751 C767 1.429 . S
C751 H773 0.950 . S
C752 H748 0.949 . S
C752 C760 1.574 . S
C752 C768 1.368 . S
H753 C761 0.950 . S
H754 C759 0.950 . S
H755 C760 0.949 . S
H756 C762 0.950 . S
H757 C763 0.950 . S
H758 C764 0.949 . S
C759 H754 0.950 . S
C759 C761 1.327 . S
C759 C765 1.429 . S
C760 C752 1.574 . S
C760 H755 0.949 . S
C760 C766 1.368 . S
C761 C745 1.349 . S
C761 H753 0.950 . S
C761 C759 1.327 . S
C762 C750 1.349 . S
C762 H756 0.950 . S
C762 C763 1.327 . S
C763 H757 0.950 . S
C763 C762 1.327 . S
C763 C767 1.429 . S
C764 C747 1.574 . S
C764 H758 0.949 . S
C764 C768 1.368 . S
C765 C746 1.429 . S
C765 C759 1.429 . S
C765 C766 1.523 . S
C766 C747 1.368 . S
C766 C760 1.368 . S
C766 C765 1.523 . S
C767 C751 1.429 . S
C767 C763 1.429 . S
C767 C768 1.523 . S
C768 C752 1.368 . S
C768 C764 1.368 . S
C768 C767 1.523 . S
H769 C744 0.950 . S
H770 C746 0.950 . S
H771 C747 0.949 . S
H772 C749 0.950 . S
H773 C751 0.950 . S
C774 C775 1.349 . S
C774 C776 1.327 . S
C774 H799 0.950 . S
C775 C774 1.349 . S
C775 C791 1.349 . S
C776 C774 1.327 . S
C776 C795 1.429 . S
C776 H800 0.950 . S
C777 C794 1.574 . S
C777 C796 1.368 . S
C777 H801 0.949 . S
H778 C782 0.949 . S
C779 C780 1.349 . S
C779 C781 1.327 . S
C779 H802 0.950 . S
C780 C779 1.349 . S
C780 C792 1.349 . S
C781 C779 1.327 . S
C781 C797 1.429 . S
C781 H803 0.950 . S
C782 H778 0.949 . S
C782 C790 1.574 . S
C782 C798 1.368 . S
H783 C791 0.950 . S
H784 C789 0.950 . S
H785 C790 0.949 . S
H786 C792 0.950 . S
H787 C793 0.950 . S
H788 C794 0.949 . S
C789 H784 0.950 . S
C789 C791 1.327 . S
C789 C795 1.429 . S
C790 C782 1.574 . S
C790 H785 0.949 . S
C790 C796 1.368 . S
C791 C775 1.349 . S
C791 H783 0.950 . S
C791 C789 1.327 . S
C792 C780 1.349 . S
C792 H786 0.950 . S
C792 C793 1.327 . S
C793 H787 0.950 . S
C793 C792 1.327 . S
C793 C797 1.429 . S
C794 C777 1.574 . S
C794 H788 0.949 . S
C794 C798 1.368 . S
C795 C776 1.429 . S
C795 C789 1.429 . S
C795 C796 1.523 . S
C796 C777 1.368 . S
C796 C790 1.368 . S
C796 C795 1.523 . S
C797 C781 1.429 . S
C797 C793 1.429 . S
C797 C798 1.523 . S
C798 C782 1.368 . S
C798 C794 1.368 . S
C798 C797 1.523 . S
H799 C774 0.950 . S
H800 C776 0.950 . S
H801 C777 0.949 . S
H802 C779 0.950 . S
H803 C781 0.950 . S
C804 C805 1.349 . S
C804 C806 1.327 . S
C804 H829 0.950 . S
C805 C804 1.349 . S
C805 C821 1.349 . S
C806 C804 1.327 . S
C806 C825 1.429 . S
C806 H830 0.950 . S
C807 C824 1.574 . S
C807 C826 1.368 . S
C807 H831 0.949 . S
H808 C812 0.949 . S
C809 C810 1.349 . S
C809 C811 1.327 . S
C809 H832 0.950 . S
C810 C809 1.349 . S
C810 C822 1.349 . S
C811 C809 1.327 . S
C811 C827 1.429 . S
C811 H833 0.950 . S
C812 H808 0.949 . S
C812 C820 1.574 . S
C812 C828 1.368 . S
H813 C821 0.950 . S
H814 C819 0.950 . S
H815 C820 0.949 . S
H816 C822 0.950 . S
H817 C823 0.950 . S
H818 C824 0.949 . S
C819 H814 0.950 . S
C819 C821 1.327 . S
C819 C825 1.429 . S
C820 C812 1.574 . S
C820 H815 0.949 . S
C820 C826 1.368 . S
C821 C805 1.349 . S
C821 H813 0.950 . S
C821 C819 1.327 . S
C822 C810 1.349 . S
C822 H816 0.950 . S
C822 C823 1.327 . S
C823 H817 0.950 . S
C823 C822 1.327 . S
C823 C827 1.429 . S
C824 C807 1.574 . S
C824 H818 0.949 . S
C824 C828 1.368 . S
C825 C806 1.429 . S
C825 C819 1.429 . S
C825 C826 1.523 . S
C826 C807 1.368 . S
C826 C820 1.368 . S
C826 C825 1.523 . S
C827 C811 1.429 . S
C827 C823 1.429 . S
C827 C828 1.523 . S
C828 C812 1.368 . S
C828 C824 1.368 . S
C828 C827 1.523 . S
H829 C804 0.950 . S
H830 C806 0.950 . S
H831 C807 0.949 . S
H832 C809 0.950 . S
H833 C811 0.950 . S
C834 C835 1.349 . S
C834 C836 1.327 . S
C834 H859 0.950 . S
C835 C834 1.349 . S
C835 C851 1.349 . S
C836 C834 1.327 . S
C836 C855 1.429 . S
C836 H860 0.950 . S
C837 C854 1.574 . S
C837 C856 1.368 . S
C837 H861 0.949 . S
H838 C842 0.949 . S
C839 C840 1.349 . S
C839 C841 1.327 . S
C839 H862 0.950 . S
C840 C839 1.349 . S
C840 C852 1.349 . S
C841 C839 1.327 . S
C841 C857 1.429 . S
C841 H863 0.950 . S
C842 H838 0.949 . S
C842 C850 1.574 . S
C842 C858 1.368 . S
H843 C851 0.950 . S
H844 C849 0.950 . S
H845 C850 0.949 . S
H846 C852 0.950 . S
H847 C853 0.950 . S
H848 C854 0.949 . S
C849 H844 0.950 . S
C849 C851 1.327 . S
C849 C855 1.429 . S
C850 C842 1.574 . S
C850 H845 0.949 . S
C850 C856 1.368 . S
C851 C835 1.349 . S
C851 H843 0.950 . S
C851 C849 1.327 . S
C852 C840 1.349 . S
C852 H846 0.950 . S
C852 C853 1.327 . S
C853 H847 0.950 . S
C853 C852 1.327 . S
C853 C857 1.429 . S
C854 C837 1.574 . S
C854 H848 0.949 . S
C854 C858 1.368 . S
C855 C836 1.429 . S
C855 C849 1.429 . S
C855 C856 1.523 . S
C856 C837 1.368 . S
C856 C850 1.368 . S
C856 C855 1.523 . S
C857 C841 1.429 . S
C857 C853 1.429 . S
C857 C858 1.523 . S
C858 C842 1.368 . S
C858 C854 1.368 . S
C858 C857 1.523 . S
H859 C834 0.950 . S
H860 C836 0.950 . S
H861 C837 0.949 . S
H862 C839 0.950 . S
H863 C841 0.950 . S
C864 C865 1.349 . S
C864 C866 1.327 . S
C864 H889 0.950 . S
C865 C864 1.349 . S
C865 C881 1.349 . S
C866 C864 1.327 . S
C866 C885 1.429 . S
C866 H890 0.950 . S
C867 C884 1.574 1_655 S
C867 C886 1.368 . S
C867 H891 0.949 . S
H868 C872 0.949 . S
C869 C870 1.349 . S
C869 C871 1.327 . S
C869 H892 0.950 . S
C870 C869 1.349 . S
C870 C882 1.349 . S
C871 C869 1.327 . S
C871 C887 1.429 . S
C871 H893 0.950 . S
C872 H868 0.949 . S
C872 C880 1.574 1_455 S
C872 C888 1.368 . S
H873 C881 0.950 . S
H874 C879 0.950 . S
H875 C880 0.949 . S
H876 C882 0.950 . S
H877 C883 0.950 . S
H878 C884 0.949 . S
C879 H874 0.950 . S
C879 C881 1.327 . S
C879 C885 1.429 . S
C880 C872 1.574 1_655 S
C880 H875 0.949 . S
C880 C886 1.368 . S
C881 C865 1.349 . S
C881 H873 0.950 . S
C881 C879 1.327 . S
C882 C870 1.349 . S
C882 H876 0.950 . S
C882 C883 1.327 . S
C883 H877 0.950 . S
C883 C882 1.327 . S
C883 C887 1.429 . S
C884 C867 1.574 1_455 S
C884 H878 0.949 . S
C884 C888 1.368 . S
C885 C866 1.429 . S
C885 C879 1.429 . S
C885 C886 1.523 . S
C886 C867 1.368 . S
C886 C880 1.368 . S
C886 C885 1.523 . S
C887 C871 1.429 . S
C887 C883 1.429 . S
C887 C888 1.523 . S
C888 C872 1.368 . S
C888 C884 1.368 . S
C888 C887 1.523 . S
H889 C864 0.950 . S
H890 C866 0.950 . S
H891 C867 0.949 . S
H892 C869 0.950 . S
H893 C871 0.950 . S
C894 C895 1.349 . S
C894 C896 1.327 . S
C894 H919 0.950 . S
C895 C894 1.349 . S
C895 C911 1.349 . S
C896 C894 1.327 . S
C896 C915 1.429 . S
C896 H920 0.950 . S
C897 C914 1.574 . S
C897 C916 1.368 . S
C897 H921 0.949 . S
H898 C902 0.949 . S
C899 C900 1.349 . S
C899 C901 1.327 . S
C899 H922 0.950 . S
C900 C899 1.349 . S
C900 C912 1.349 . S
C901 C899 1.327 . S
C901 C917 1.429 . S
C901 H923 0.950 . S
C902 H898 0.949 . S
C902 C910 1.574 . S
C902 C918 1.368 . S
H903 C911 0.950 . S
H904 C909 0.950 . S
H905 C910 0.949 . S
H906 C912 0.950 . S
H907 C913 0.950 . S
H908 C914 0.949 . S
C909 H904 0.950 . S
C909 C911 1.327 . S
C909 C915 1.429 . S
C910 C902 1.574 . S
C910 H905 0.949 . S
C910 C916 1.368 . S
C911 C895 1.349 . S
C911 H903 0.950 . S
C911 C909 1.327 . S
C912 C900 1.349 . S
C912 H906 0.950 . S
C912 C913 1.327 . S
C913 H907 0.950 . S
C913 C912 1.327 . S
C913 C917 1.429 . S
C914 C897 1.574 . S
C914 H908 0.949 . S
C914 C918 1.368 . S
C915 C896 1.429 . S
C915 C909 1.429 . S
C915 C916 1.523 . S
C916 C897 1.368 . S
C916 C910 1.368 . S
C916 C915 1.523 . S
C917 C901 1.429 . S
C917 C913 1.429 . S
C917 C918 1.523 . S
C918 C902 1.368 . S
C918 C914 1.368 . S
C918 C917 1.523 . S
H919 C894 0.950 . S
H920 C896 0.950 . S
H921 C897 0.949 . S
H922 C899 0.950 . S
H923 C901 0.950 . S
C924 C925 1.349 . S
C924 C926 1.327 . S
C924 H949 0.950 . S
C925 C924 1.349 . S
C925 C941 1.349 . S
C926 C924 1.327 . S
C926 C945 1.429 . S
C926 H950 0.950 . S
C927 C944 1.574 . S
C927 C946 1.368 1_565 S
C927 H951 0.949 . S
H928 C932 0.949 . S
C929 C930 1.349 . S
C929 C931 1.327 . S
C929 H952 0.950 . S
C930 C929 1.349 . S
C930 C942 1.349 . S
C931 C929 1.327 . S
C931 C947 1.429 . S
C931 H953 0.950 . S
C932 H928 0.949 . S
C932 C940 1.574 . S
C932 C948 1.368 1_545 S
H933 C941 0.950 . S
H934 C939 0.950 . S
H935 C940 0.949 . S
H936 C942 0.950 . S
H937 C943 0.950 . S
H938 C944 0.949 . S
C939 H934 0.950 . S
C939 C941 1.327 . S
C939 C945 1.429 . S
C940 C932 1.574 . S
C940 H935 0.949 . S
C940 C946 1.368 . S
C941 C925 1.349 . S
C941 H933 0.950 . S
C941 C939 1.327 . S
C942 C930 1.349 . S
C942 H936 0.950 . S
C942 C943 1.327 . S
C943 H937 0.950 . S
C943 C942 1.327 . S
C943 C947 1.429 . S
C944 C927 1.574 . S
C944 H938 0.949 . S
C944 C948 1.368 . S
C945 C926 1.429 . S
C945 C939 1.429 . S
C945 C946 1.523 . S
C946 C927 1.368 1_545 S
C946 C940 1.368 . S
C946 C945 1.523 . S
C947 C931 1.429 . S
C947 C943 1.429 . S
C947 C948 1.523 . S
C948 C932 1.368 1_565 S
C948 C944 1.368 . S
C948 C947 1.523 . S
H949 C924 0.950 . S
H950 C926 0.950 . S
H951 C927 0.949 . S
H952 C929 0.950 . S
H953 C931 0.950 . S
C954 C955 1.349 . S
C954 C956 1.327 . S
C954 H979 0.950 . S
C955 C954 1.349 . S
C955 C971 1.349 . S
C956 C954 1.327 . S
C956 C975 1.429 . S
C956 H980 0.950 . S
C957 C974 1.574 1_545 S
C957 C976 1.368 1_554 S
C957 H981 0.949 . S
H958 C962 0.949 1_565 S
C959 C960 1.349 . S
C959 C961 1.327 . S
C959 H982 0.950 . S
C960 C959 1.349 . S
C960 C972 1.349 . S
C961 C959 1.327 . S
C961 C977 1.429 . S
C961 H983 0.950 . S
C962 H958 0.949 1_545 S
C962 C970 1.574 1_554 S
C962 C978 1.368 1_545 S
H963 C971 0.950 . S
H964 C969 0.950 . S
H965 C970 0.949 . S
H966 C972 0.950 . S
H967 C973 0.950 . S
H968 C974 0.949 . S
C969 H964 0.950 . S
C969 C971 1.327 . S
C969 C975 1.429 . S
C970 C962 1.574 1_556 S
C970 H965 0.949 . S
C970 C976 1.368 . S
C971 C955 1.349 . S
C971 H963 0.950 . S
C971 C969 1.327 . S
C972 C960 1.349 . S
C972 H966 0.950 . S
C972 C973 1.327 . S
C973 H967 0.950 . S
C973 C972 1.327 . S
C973 C977 1.429 . S
C974 C957 1.574 1_565 S
C974 H968 0.949 . S
C974 C978 1.368 . S
C975 C956 1.429 . S
C975 C969 1.429 . S
C975 C976 1.523 . S
C976 C957 1.368 1_556 S
C976 C970 1.368 . S
C976 C975 1.523 . S
C977 C961 1.429 . S
C977 C973 1.429 . S
C977 C978 1.523 . S
C978 C962 1.368 1_565 S
C978 C974 1.368 . S
C978 C977 1.523 . S
H979 C954 0.950 . S
H980 C956 0.950 . S
H981 C957 0.949 . S
H982 C959 0.950 . S
H983 C961 0.950 . S
C984 C985 1.349 . S
C984 C986 1.327 . S
C984 H1009 0.950 . S
C985 C984 1.349 . S
C985 C1001 1.349 . S
C986 C984 1.327 . S
C986 C1005 1.429 . S
C986 H1010 0.950 . S
C987 C1004 1.574 1_656 S
C987 C1006 1.368 . S
C987 H1011 0.949 . S
H988 C992 0.949 . S
C989 C990 1.349 . S
C989 C991 1.327 . S
C989 H1012 0.950 . S
C990 C989 1.349 . S
C990 C1002 1.349 . S
C991 C989 1.327 . S
C991 C1007 1.429 . S
C991 H1013 0.950 . S
C992 H988 0.949 . S
C992 C1000 1.574 1_455 S
C992 C1008 1.368 . S
H993 C1001 0.950 . S
H994 C999 0.950 . S
H995 C1000 0.949 . S
H996 C1002 0.950 . S
H997 C1003 0.950 . S
H998 C1004 0.949 . S
C999 H994 0.950 . S
C999 C1001 1.327 . S
C999 C1005 1.429 . S
C1000 C992 1.574 1_655 S
C1000 H995 0.949 . S
C1000 C1006 1.368 1_554 S
C1001 C985 1.349 . S
C1001 H993 0.950 . S
C1001 C999 1.327 . S
C1002 C990 1.349 . S
C1002 H996 0.950 . S
C1002 C1003 1.327 . S
C1003 H997 0.950 . S
C1003 C1002 1.327 . S
C1003 C1007 1.429 . S
C1004 C987 1.574 1_454 S
C1004 H998 0.949 . S
C1004 C1008 1.368 . S
C1005 C986 1.429 . S
C1005 C999 1.429 . S
C1005 C1006 1.523 . S
C1006 C987 1.368 . S
C1006 C1000 1.368 1_556 S
C1006 C1005 1.523 . S
C1007 C991 1.429 . S
C1007 C1003 1.429 . S
C1007 C1008 1.523 . S
C1008 C992 1.368 . S
C1008 C1004 1.368 . S
C1008 C1007 1.523 . S
H1009 C984 0.950 . S
H1010 C986 0.950 . S
H1011 C987 0.949 . S
H1012 C989 0.950 . S
H1013 C991 0.950 . S
C1014 C1015 1.349 . S
C1014 C1016 1.327 . S
C1014 H1039 0.950 . S
C1015 C1014 1.349 . S
C1015 C1031 1.349 . S
C1016 C1014 1.327 . S
C1016 C1035 1.429 . S
C1016 H1040 0.950 . S
C1017 C1034 1.574 1_556 S
C1017 C1036 1.368 . S
C1017 H1041 0.949 . S
H1018 C1022 0.949 . S
C1019 C1020 1.349 . S
C1019 C1021 1.327 . S
C1019 H1042 0.950 . S
C1020 C1019 1.349 . S
C1020 C1032 1.349 . S
C1021 C1019 1.327 . S
C1021 C1037 1.429 . S
C1021 H1043 0.950 . S
C1022 H1018 0.949 . S
C1022 C1030 1.574 . S
C1022 C1038 1.368 . S
H1023 C1031 0.950 . S
H1024 C1029 0.950 . S
H1025 C1030 0.949 . S
H1026 C1032 0.950 . S
H1027 C1033 0.950 . S
H1028 C1034 0.949 . S
C1029 H1024 0.950 . S
C1029 C1031 1.327 . S
C1029 C1035 1.429 . S
C1030 C1022 1.574 . S
C1030 H1025 0.949 . S
C1030 C1036 1.368 1_554 S
C1031 C1015 1.349 . S
C1031 H1023 0.950 . S
C1031 C1029 1.327 . S
C1032 C1020 1.349 . S
C1032 H1026 0.950 . S
C1032 C1033 1.327 . S
C1033 H1027 0.950 . S
C1033 C1032 1.327 . S
C1033 C1037 1.429 . S
C1034 C1017 1.574 1_554 S
C1034 H1028 0.949 . S
C1034 C1038 1.368 . S
C1035 C1016 1.429 . S
C1035 C1029 1.429 . S
C1035 C1036 1.523 . S
C1036 C1017 1.368 . S
C1036 C1030 1.368 1_556 S
C1036 C1035 1.523 . S
C1037 C1021 1.429 . S
C1037 C1033 1.429 . S
C1037 C1038 1.523 . S
C1038 C1022 1.368 . S
C1038 C1034 1.368 . S
C1038 C1037 1.523 . S
H1039 C1014 0.950 . S
H1040 C1016 0.950 . S
H1041 C1017 0.949 . S
H1042 C1019 0.950 . S
H1043 C1021 0.950 . S
C1044 C1045 1.349 . S
C1044 C1046 1.342 . S
C1044 H1069 0.950 . S
C1045 C1044 1.349 . S
C1045 C1061 1.349 . S
C1046 C1044 1.342 . S
C1046 C1065 1.416 1_565 S
C1046 H1070 0.950 . S
C1047 C1064 1.574 . S
C1047 C1066 1.368 . S
C1047 H1071 0.949 . S
H1048 C1052 0.949 . S
C1049 C1050 1.349 . S
C1049 C1051 1.327 1_554 S
C1049 H1072 0.950 . S
C1050 C1049 1.349 . S
C1050 C1062 1.349 . S
C1051 C1049 1.327 1_556 S
C1051 C1067 1.429 1_556 S
C1051 H1073 0.950 . S
C1052 H1048 0.949 . S
C1052 C1060 1.574 1_554 S
C1052 C1068 1.368 1_554 S
H1053 C1061 0.950 . S
H1054 C1059 0.950 . S
H1055 C1060 0.949 1_554 S
H1056 C1062 0.950 . S
H1057 C1063 0.950 . S
H1058 C1064 0.949 . S
C1059 H1054 0.950 . S
C1059 C1061 1.327 1_545 S
C1059 C1065 1.429 . S
C1060 C1052 1.574 1_556 S
C1060 H1055 0.949 1_556 S
C1060 C1066 1.368 . S
C1061 C1045 1.349 . S
C1061 H1053 0.950 . S
C1061 C1059 1.327 1_565 S
C1062 C1050 1.349 . S
C1062 H1056 0.950 . S
C1062 C1063 1.327 . S
C1063 H1057 0.950 . S
C1063 C1062 1.327 . S
C1063 C1067 1.429 . S
C1064 C1047 1.574 . S
C1064 H1058 0.949 . S
C1064 C1068 1.368 . S
C1065 C1046 1.416 1_545 S
C1065 C1059 1.429 . S
C1065 C1066 1.523 . S
C1066 C1047 1.368 . S
C1066 C1060 1.368 . S
C1066 C1065 1.523 . S
C1067 C1051 1.429 1_554 S
C1067 C1063 1.429 . S
C1067 C1068 1.523 1_554 S
C1068 C1052 1.368 1_556 S
C1068 C1064 1.368 . S
C1068 C1067 1.523 1_556 S
H1069 C1044 0.950 . S
H1070 C1046 0.950 . S
H1071 C1047 0.949 . S
H1072 C1049 0.950 . S
H1073 C1051 0.950 . S
C1074 C1075 1.349 . S
C1074 C1076 1.327 . S
C1074 H1099 0.950 . S
C1075 C1074 1.349 . S
C1075 C1091 1.364 . S
C1076 C1074 1.327 . S
C1076 C1095 1.429 1_455 S
C1076 H1100 0.950 . S
C1077 C1094 1.574 . S
C1077 C1096 1.368 . S
C1077 H1101 0.949 . S
H1078 C1082 0.949 . S
C1079 C1080 1.349 . S
C1079 C1081 1.327 1_554 S
C1079 H1102 0.931 1_554 S
C1080 C1079 1.349 . S
C1080 C1092 1.349 . S
C1081 C1079 1.327 1_556 S
C1081 C1097 1.429 1_556 S
C1081 H1103 0.950 . S
C1082 H1078 0.949 . S
C1082 C1090 1.574 1_554 S
C1082 C1098 1.368 1_554 S
H1083 C1091 0.948 . S
H1084 C1089 0.950 . S
H1085 C1090 0.961 . S
H1086 C1092 0.950 . S
H1087 C1093 0.950 . S
H1088 C1094 0.949 . S
C1089 H1084 0.950 . S
C1089 C1091 1.314 1_655 S
C1089 C1095 1.429 . S
C1090 C1082 1.574 1_556 S
C1090 H1085 0.961 . S
C1090 C1096 1.368 . S
C1091 C1075 1.364 . S
C1091 H1083 0.948 . S
C1091 C1089 1.314 1_455 S
C1092 C1080 1.349 . S
C1092 H1086 0.950 . S
C1092 C1093 1.327 . S
C1093 H1087 0.950 . S
C1093 C1092 1.327 . S
C1093 C1097 1.429 . S
C1094 C1077 1.574 . S
C1094 H1088 0.949 . S
C1094 C1098 1.368 . S
C1095 C1076 1.429 1_655 S
C1095 C1089 1.429 . S
C1095 C1096 1.523 . S
C1096 C1077 1.368 . S
C1096 C1090 1.368 . S
C1096 C1095 1.523 . S
C1097 C1081 1.429 1_554 S
C1097 C1093 1.429 . S
C1097 C1098 1.523 1_554 S
C1098 C1082 1.368 1_556 S
C1098 C1094 1.368 . S
C1098 C1097 1.523 1_556 S
H1099 C1074 0.950 . S
H1100 C1076 0.950 . S
H1101 C1077 0.949 . S
H1102 C1079 0.931 1_556 S
H1103 C1081 0.950 . S
C1104 C1105 1.349 . S
C1104 C1106 1.327 . S
C1104 H1129 0.950 . S
C1105 C1104 1.349 . S
C1105 C1121 1.349 . S
C1106 C1104 1.327 . S
C1106 C1125 1.429 . S
C1106 H1130 0.950 . S
C1107 C1124 1.574 . S
C1107 C1126 1.375 . S
C1107 H1131 0.949 . S
H1108 C1112 0.949 . S
C1109 C1110 1.349 . S
C1109 C1111 1.327 . S
C1109 H1132 0.950 . S
C1110 C1109 1.349 . S
C1110 C1122 1.349 . S
C1111 C1109 1.327 . S
C1111 C1127 1.429 . S
C1111 H1133 0.950 . S
C1112 H1108 0.949 . S
C1112 C1120 1.574 . S
C1112 C1128 1.368 . S
H1113 C1121 0.950 . S
H1114 C1119 0.950 . S
H1115 C1120 0.949 1_554 S
H1116 C1122 0.950 . S
H1117 C1123 0.950 . S
H1118 C1124 0.949 . S
C1119 H1114 0.950 . S
C1119 C1121 1.327 . S
C1119 C1125 1.429 . S
C1120 C1112 1.574 . S
C1120 H1115 0.949 1_556 S
C1120 C1126 1.370 . S
C1121 C1105 1.349 . S
C1121 H1113 0.950 . S
C1121 C1119 1.327 . S
C1122 C1110 1.349 . S
C1122 H1116 0.950 . S
C1122 C1123 1.327 . S
C1123 H1117 0.950 . S
C1123 C1122 1.327 . S
C1123 C1127 1.429 . S
C1124 C1107 1.574 . S
C1124 H1118 0.949 . S
C1124 C1128 1.368 . S
C1125 C1106 1.429 . S
C1125 C1119 1.429 . S
C1125 C1126 1.512 1_554 S
C1126 C1107 1.375 . S
C1126 C1120 1.370 . S
C1126 C1125 1.512 1_556 S
C1127 C1111 1.429 . S
C1127 C1123 1.429 . S
C1127 C1128 1.523 . S
C1128 C1112 1.368 . S
C1128 C1124 1.368 . S
C1128 C1127 1.523 . S
H1129 C1104 0.950 . S
H1130 C1106 0.950 . S
H1131 C1107 0.949 . S
H1132 C1109 0.950 . S
H1133 C1111 0.950 . S
C1134 C1135 1.349 . S
C1134 C1136 1.348 . S
C1134 H1159 0.950 . S
C1135 C1134 1.349 . S
C1135 C1151 1.306 1_655 S
C1136 C1134 1.348 . S
C1136 C1155 1.409 1_655 S
C1136 H1160 0.949 . S
C1137 C1154 1.574 . S
C1137 C1156 1.368 . S
C1137 H1161 0.949 . S
H1138 C1142 0.949 . S
C1139 C1140 1.349 . S
C1139 C1141 1.327 . S
C1139 H1162 0.950 . S
C1140 C1139 1.349 . S
C1140 C1152 1.349 . S
C1141 C1139 1.327 . S
C1141 C1157 1.429 . S
C1141 H1163 0.950 . S
C1142 H1138 0.949 . S
C1142 C1150 1.574 . S
C1142 C1158 1.368 . S
H1143 C1151 0.947 . S
H1144 C1149 0.950 . S
H1145 C1150 0.949 . S
H1146 C1152 0.950 . S
H1147 C1153 0.950 . S
H1148 C1154 0.949 . S
C1149 H1144 0.950 . S
C1149 C1151 1.376 . S
C1149 C1155 1.429 . S
C1150 C1142 1.574 . S
C1150 H1145 0.949 . S
C1150 C1156 1.368 . S
C1151 C1135 1.306 1_455 S
C1151 H1143 0.947 . S
C1151 C1149 1.376 . S
C1152 C1140 1.349 . S
C1152 H1146 0.950 . S
C1152 C1153 1.327 . S
C1153 H1147 0.950 . S
C1153 C1152 1.327 . S
C1153 C1157 1.429 . S
C1154 C1137 1.574 . S
C1154 H1148 0.949 . S
C1154 C1158 1.368 . S
C1155 C1136 1.409 1_455 S
C1155 C1149 1.429 . S
C1155 C1156 1.523 . S
C1156 C1137 1.368 . S
C1156 C1150 1.368 . S
C1156 C1155 1.523 . S
C1157 C1141 1.429 . S
C1157 C1153 1.429 . S
C1157 C1158 1.523 . S
C1158 C1142 1.368 . S
C1158 C1154 1.368 . S
C1158 C1157 1.523 . S
H1159 C1134 0.950 . S
H1160 C1136 0.949 . S
H1161 C1137 0.949 . S
H1162 C1139 0.950 . S
H1163 C1141 0.950 . S
C1164 C1165 1.349 . S
C1164 C1166 1.327 . S
C1164 H1189 0.950 . S
C1165 C1164 1.349 . S
C1165 C1181 1.349 . S
C1166 C1164 1.327 . S
C1166 C1185 1.429 . S
C1166 H1190 0.950 . S
C1167 C1184 1.574 . S
C1167 C1186 1.368 . S
C1167 H1191 0.949 . S
H1168 C1172 0.949 . S
C1169 C1170 1.349 . S
C1169 C1171 1.327 . S
C1169 H1192 0.950 . S
C1170 C1169 1.349 . S
C1170 C1182 1.349 . S
C1171 C1169 1.327 . S
C1171 C1187 1.429 . S
C1171 H1193 0.950 . S
C1172 H1168 0.949 . S
C1172 C1180 1.574 . S
C1172 C1188 1.368 . S
H1173 C1181 0.950 . S
H1174 C1179 0.950 . S
H1175 C1180 0.949 . S
H1176 C1182 0.950 . S
H1177 C1183 0.950 . S
H1178 C1184 0.949 . S
C1179 H1174 0.950 . S
C1179 C1181 1.327 . S
C1179 C1185 1.429 . S
C1180 C1172 1.574 . S
C1180 H1175 0.949 . S
C1180 C1186 1.368 . S
C1181 C1165 1.349 . S
C1181 H1173 0.950 . S
C1181 C1179 1.327 . S
C1182 C1170 1.349 . S
C1182 H1176 0.950 . S
C1182 C1183 1.327 . S
C1183 H1177 0.950 . S
C1183 C1182 1.327 . S
C1183 C1187 1.429 . S
C1184 C1167 1.574 . S
C1184 H1178 0.949 . S
C1184 C1188 1.368 . S
C1185 C1166 1.429 . S
C1185 C1179 1.429 . S
C1185 C1186 1.523 . S
C1186 C1167 1.368 . S
C1186 C1180 1.368 . S
C1186 C1185 1.523 . S
C1187 C1171 1.429 . S
C1187 C1183 1.429 . S
C1187 C1188 1.523 . S
C1188 C1172 1.368 . S
C1188 C1184 1.368 . S
C1188 C1187 1.523 . S
H1189 C1164 0.950 . S
H1190 C1166 0.950 . S
H1191 C1167 0.949 . S
H1192 C1169 0.950 . S
H1193 C1171 0.950 . S
C1194 C1195 1.349 . S
C1194 C1196 1.327 1_545 S
C1194 H1219 0.950 . S
C1195 C1194 1.349 . S
C1195 C1211 1.349 . S
C1196 C1194 1.327 1_565 S
C1196 C1215 1.429 . S
C1196 H1220 0.950 . S
C1197 C1214 1.574 . S
C1197 C1216 1.368 . S
C1197 H1221 0.949 . S
H1198 C1202 0.949 . S
C1199 C1200 1.349 . S
C1199 C1201 1.327 . S
C1199 H1222 0.950 . S
C1200 C1199 1.349 . S
C1200 C1212 1.349 . S
C1201 C1199 1.327 . S
C1201 C1217 1.429 . S
C1201 H1223 0.950 . S
C1202 H1198 0.949 . S
C1202 C1210 1.574 . S
C1202 C1218 1.368 . S
H1203 C1211 0.950 . S
H1204 C1209 0.950 . S
H1205 C1210 0.949 . S
H1206 C1212 0.950 . S
H1207 C1213 0.950 . S
H1208 C1214 0.949 . S
C1209 H1204 0.950 . S
C1209 C1211 1.327 1_565 S
C1209 C1215 1.429 . S
C1210 C1202 1.574 . S
C1210 H1205 0.949 . S
C1210 C1216 1.368 . S
C1211 C1195 1.349 . S
C1211 H1203 0.950 . S
C1211 C1209 1.327 1_545 S
C1212 C1200 1.349 . S
C1212 H1206 0.950 . S
C1212 C1213 1.327 . S
C1213 H1207 0.950 . S
C1213 C1212 1.327 . S
C1213 C1217 1.429 . S
C1214 C1197 1.574 . S
C1214 H1208 0.949 . S
C1214 C1218 1.368 . S
C1215 C1196 1.429 . S
C1215 C1209 1.429 . S
C1215 C1216 1.523 . S
C1216 C1197 1.368 . S
C1216 C1210 1.368 . S
C1216 C1215 1.523 . S
C1217 C1201 1.429 . S
C1217 C1213 1.429 . S
C1217 C1218 1.523 . S
C1218 C1202 1.368 . S
C1218 C1214 1.368 . S
C1218 C1217 1.523 . S
H1219 C1194 0.950 . S
H1220 C1196 0.950 . S
H1221 C1197 0.949 . S
H1222 C1199 0.950 . S
H1223 C1201 0.950 . S
C1224 C1225 1.349 . S
C1224 C1226 1.327 . S
C1224 H1249 0.950 . S
C1225 C1224 1.349 . S
C1225 C1241 1.349 . S
C1226 C1224 1.327 . S
C1226 C1245 1.429 . S
C1226 H1250 0.950 . S
C1227 C1244 1.574 . S
C1227 C1246 1.368 1_554 S
C1227 H1251 0.949 . S
H1228 C1232 0.949 . S
C1229 C1230 1.349 . S
C1229 C1231 1.327 1_545 S
C1229 H1252 0.950 . S
C1230 C1229 1.349 . S
C1230 C1242 1.349 . S
C1231 C1229 1.327 1_565 S
C1231 C1247 1.429 . S
C1231 H1253 0.950 . S
C1232 H1228 0.949 . S
C1232 C1240 1.574 . S
C1232 C1248 1.368 1_556 S
H1233 C1241 0.950 . S
H1234 C1239 0.950 . S
H1235 C1240 0.949 . S
H1236 C1242 0.950 . S
H1237 C1243 0.950 . S
H1238 C1244 0.949 . S
C1239 H1234 0.950 . S
C1239 C1241 1.327 . S
C1239 C1245 1.429 . S
C1240 C1232 1.574 . S
C1240 H1235 0.949 . S
C1240 C1246 1.368 . S
C1241 C1225 1.349 . S
C1241 H1233 0.950 . S
C1241 C1239 1.327 . S
C1242 C1230 1.349 . S
C1242 H1236 0.950 . S
C1242 C1243 1.327 . S
C1243 H1237 0.950 . S
C1243 C1242 1.327 . S
C1243 C1247 1.429 1_545 S
C1244 C1227 1.574 . S
C1244 H1238 0.949 . S
C1244 C1248 1.368 . S
C1245 C1226 1.429 . S
C1245 C1239 1.429 . S
C1245 C1246 1.523 . S
C1246 C1227 1.368 1_556 S
C1246 C1240 1.368 . S
C1246 C1245 1.523 . S
C1247 C1231 1.429 . S
C1247 C1243 1.429 1_565 S
C1247 C1248 1.523 . S
C1248 C1232 1.368 1_554 S
C1248 C1244 1.368 . S
C1248 C1247 1.523 . S
H1249 C1224 0.950 . S
H1250 C1226 0.950 . S
H1251 C1227 0.949 . S
H1252 C1229 0.950 . S
H1253 C1231 0.950 . S
C1254 C1255 1.349 . S
C1254 C1256 1.327 . S
C1254 H1279 0.950 . S
C1255 C1254 1.349 . S
C1255 C1271 1.349 . S
C1256 C1254 1.327 . S
C1256 C1275 1.429 . S
C1256 H1280 0.950 1_556 S
C1257 C1274 1.574 . S
C1257 C1276 1.368 . S
C1257 H1281 0.949 . S
H1258 C1262 0.949 . S
C1259 C1260 1.349 . S
C1259 C1261 1.327 . S
C1259 H1282 0.950 . S
C1260 C1259 1.349 . S
C1260 C1272 1.349 . S
C1261 C1259 1.327 . S
C1261 C1277 1.429 1_655 S
C1261 H1283 0.950 . S
C1262 H1258 0.949 . S
C1262 C1270 1.574 . S
C1262 C1278 1.368 . S
H1263 C1271 0.950 . S
H1264 C1269 0.950 . S
H1265 C1270 0.949 . S
H1266 C1272 0.950 . S
H1267 C1273 0.950 . S
H1268 C1274 0.949 . S
C1269 H1264 0.950 . S
C1269 C1271 1.327 . S
C1269 C1275 1.429 . S
C1270 C1262 1.574 . S
C1270 H1265 0.949 . S
C1270 C1276 1.368 1_554 S
C1271 C1255 1.349 . S
C1271 H1263 0.950 . S
C1271 C1269 1.327 . S
C1272 C1260 1.349 . S
C1272 H1266 0.950 . S
C1272 C1273 1.327 1_655 S
C1273 H1267 0.950 . S
C1273 C1272 1.327 1_455 S
C1273 C1277 1.429 . S
C1274 C1257 1.574 . S
C1274 H1268 0.949 . S
C1274 C1278 1.368 1_556 S
C1275 C1256 1.429 . S
C1275 C1269 1.429 . S
C1275 C1276 1.523 . S
C1276 C1257 1.368 . S
C1276 C1270 1.368 1_556 S
C1276 C1275 1.523 . S
C1277 C1261 1.429 1_455 S
C1277 C1273 1.429 . S
C1277 C1278 1.523 . S
C1278 C1262 1.368 . S
C1278 C1274 1.368 1_554 S
C1278 C1277 1.523 . S
H1279 C1254 0.950 . S
H1280 C1256 0.950 1_554 S
H1281 C1257 0.949 . S
H1282 C1259 0.950 . S
H1283 C1261 0.950 . S
C1284 C1285 1.349 . S
C1284 C1286 1.327 . S
C1284 H1309 0.950 . S
C1285 C1284 1.349 . S
C1285 C1301 1.349 . S
C1286 C1284 1.327 . S
C1286 C1305 1.429 . S
C1286 H1310 0.950 . S
C1287 C1304 1.574 . S
C1287 C1306 1.368 1_554 S
C1287 H1311 0.949 . S
H1288 C1292 0.949 . S
C1289 C1290 1.349 . S
C1289 C1291 1.327 . S
C1289 H1312 0.950 . S
C1290 C1289 1.349 . S
C1290 C1302 1.349 . S
C1291 C1289 1.327 . S
C1291 C1307 1.429 . S
C1291 H1313 0.950 . S
C1292 H1288 0.949 . S
C1292 C1300 1.574 . S
C1292 C1308 1.368 1_556 S
H1293 C1301 0.950 . S
H1294 C1299 0.950 1_554 S
H1295 C1300 0.949 . S
H1296 C1302 0.950 . S
H1297 C1303 0.950 1_556 S
H1298 C1304 0.949 . S
C1299 H1294 0.950 1_556 S
C1299 C1301 1.327 . S
C1299 C1305 1.429 . S
C1300 C1292 1.574 . S
C1300 H1295 0.949 . S
C1300 C1306 1.368 . S
C1301 C1285 1.349 . S
C1301 H1293 0.950 . S
C1301 C1299 1.327 . S
C1302 C1290 1.349 . S
C1302 H1296 0.950 . S
C1302 C1303 1.327 . S
C1303 H1297 0.950 1_554 S
C1303 C1302 1.327 . S
C1303 C1307 1.429 . S
C1304 C1287 1.574 . S
C1304 H1298 0.949 . S
C1304 C1308 1.368 . S
C1305 C1286 1.429 . S
C1305 C1299 1.429 . S
C1305 C1306 1.523 . S
C1306 C1287 1.368 1_556 S
C1306 C1300 1.368 . S
C1306 C1305 1.523 . S
C1307 C1291 1.429 . S
C1307 C1303 1.429 . S
C1307 C1308 1.523 . S
C1308 C1292 1.368 1_554 S
C1308 C1304 1.368 . S
C1308 C1307 1.523 . S
H1309 C1284 0.950 . S
H1310 C1286 0.950 . S
H1311 C1287 0.949 . S
H1312 C1289 0.950 . S
H1313 C1291 0.950 . S
C1314 C1315 1.349 . S
C1314 C1316 1.327 . S
C1314 H1339 0.950 . S
C1315 C1314 1.349 . S
C1315 C1331 1.349 . S
C1316 C1314 1.327 . S
C1316 C1335 1.429 . S
C1316 H1340 0.950 . S
C1317 C1334 1.574 . S
C1317 C1336 1.368 . S
C1317 H1341 0.949 . S
H1318 C1322 0.949 . S
C1319 C1320 1.349 . S
C1319 C1321 1.327 1_455 S
C1319 H1342 0.950 . S
C1320 C1319 1.349 . S
C1320 C1332 1.349 . S
C1321 C1319 1.327 1_655 S
C1321 C1337 1.429 . S
C1321 H1343 0.950 . S
C1322 H1318 0.949 . S
C1322 C1330 1.574 . S
C1322 C1338 1.368 . S
H1323 C1331 0.950 . S
H1324 C1329 0.950 . S
H1325 C1330 0.949 . S
H1326 C1332 0.950 . S
H1327 C1333 0.950 . S
H1328 C1334 0.949 . S
C1329 H1324 0.950 . S
C1329 C1331 1.327 . S
C1329 C1335 1.429 . S
C1330 C1322 1.574 . S
C1330 H1325 0.949 . S
C1330 C1336 1.368 . S
C1331 C1315 1.349 . S
C1331 H1323 0.950 . S
C1331 C1329 1.327 . S
C1332 C1320 1.349 . S
C1332 H1326 0.950 . S
C1332 C1333 1.327 1_455 S
C1333 H1327 0.950 . S
C1333 C1332 1.327 1_655 S
C1333 C1337 1.429 . S
C1334 C1317 1.574 . S
C1334 H1328 0.949 . S
C1334 C1338 1.368 . S
C1335 C1316 1.429 . S
C1335 C1329 1.429 . S
C1335 C1336 1.523 . S
C1336 C1317 1.368 . S
C1336 C1330 1.368 . S
C1336 C1335 1.523 . S
C1337 C1321 1.429 . S
C1337 C1333 1.429 . S
C1337 C1338 1.523 . S
C1338 C1322 1.368 . S
C1338 C1334 1.368 . S
C1338 C1337 1.523 . S
H1339 C1314 0.950 . S
H1340 C1316 0.950 . S
H1341 C1317 0.949 . S
H1342 C1319 0.950 . S
H1343 C1321 0.950 . S
C1344 C1345 1.349 . S
C1344 C1346 1.327 . S
C1344 H1369 0.950 . S
C1345 C1344 1.349 . S
C1345 C1361 1.349 . S
C1346 C1344 1.327 . S
C1346 C1365 1.429 . S
C1346 H1370 0.950 . S
C1347 C1364 1.574 . S
C1347 C1366 1.368 . S
C1347 H1371 0.949 . S
H1348 C1352 0.949 . S
C1349 C1350 1.349 . S
C1349 C1351 1.327 . S
C1349 H1372 0.950 . S
C1350 C1349 1.349 . S
C1350 C1362 1.349 . S
C1351 C1349 1.327 . S
C1351 C1367 1.429 . S
C1351 H1373 0.950 . S
C1352 H1348 0.949 . S
C1352 C1360 1.574 . S
C1352 C1368 1.368 . S
H1353 C1361 0.950 . S
H1354 C1359 0.950 . S
H1355 C1360 0.949 . S
H1356 C1362 0.950 . S
H1357 C1363 0.950 . S
H1358 C1364 0.949 . S
C1359 H1354 0.950 . S
C1359 C1361 1.327 . S
C1359 C1365 1.429 . S
C1360 C1352 1.574 . S
C1360 H1355 0.949 . S
C1360 C1366 1.368 . S
C1361 C1345 1.349 . S
C1361 H1353 0.950 . S
C1361 C1359 1.327 . S
C1362 C1350 1.349 . S
C1362 H1356 0.950 . S
C1362 C1363 1.327 . S
C1363 H1357 0.950 . S
C1363 C1362 1.327 . S
C1363 C1367 1.429 . S
C1364 C1347 1.574 . S
C1364 H1358 0.949 . S
C1364 C1368 1.368 . S
C1365 C1346 1.429 . S
C1365 C1359 1.429 . S
C1365 C1366 1.523 . S
C1366 C1347 1.368 . S
C1366 C1360 1.368 . S
C1366 C1365 1.523 . S
C1367 C1351 1.429 . S
C1367 C1363 1.429 . S
C1367 C1368 1.523 . S
C1368 C1352 1.368 . S
C1368 C1364 1.368 . S
C1368 C1367 1.523 . S
H1369 C1344 0.950 . S
H1370 C1346 0.950 . S
H1371 C1347 0.949 . S
H1372 C1349 0.950 . S
H1373 C1351 0.950 . S
C1374 C1375 1.349 . S
C1374 C1376 1.327 1_565 S
C1374 H1399 0.950 . S
C1375 C1374 1.349 . S
C1375 C1391 1.349 . S
C1376 C1374 1.327 1_545 S
C1376 C1395 1.429 . S
C1376 H1400 0.950 . S
C1377 C1394 1.574 . S
C1377 C1396 1.368 . S
C1377 H1401 0.949 . S
H1378 C1382 0.949 . S
C1379 C1380 1.349 . S
C1379 C1381 1.327 . S
C1379 H1402 0.950 . S
C1380 C1379 1.349 . S
C1380 C1392 1.349 . S
C1381 C1379 1.327 . S
C1381 C1397 1.429 . S
C1381 H1403 0.950 . S
C1382 H1378 0.949 . S
C1382 C1390 1.574 . S
C1382 C1398 1.368 . S
H1383 C1391 0.950 . S
H1384 C1389 0.933 . S
H1385 C1390 0.949 . S
H1386 C1392 0.950 . S
H1387 C1393 0.950 . S
H1388 C1394 0.949 . S
C1389 H1384 0.933 . S
C1389 C1391 1.327 . S
C1389 C1395 1.429 1_565 S
C1390 C1382 1.574 . S
C1390 H1385 0.949 . S
C1390 C1396 1.368 . S
C1391 C1375 1.349 . S
C1391 H1383 0.950 . S
C1391 C1389 1.327 . S
C1392 C1380 1.349 . S
C1392 H1386 0.950 . S
C1392 C1393 1.327 . S
C1393 H1387 0.950 . S
C1393 C1392 1.327 . S
C1393 C1397 1.429 . S
C1394 C1377 1.574 . S
C1394 H1388 0.949 . S
C1394 C1398 1.368 . S
C1395 C1376 1.429 . S
C1395 C1389 1.429 1_545 S
C1395 C1396 1.523 . S
C1396 C1377 1.368 . S
C1396 C1390 1.368 . S
C1396 C1395 1.523 . S
C1397 C1381 1.429 . S
C1397 C1393 1.429 . S
C1397 C1398 1.523 . S
C1398 C1382 1.368 . S
C1398 C1394 1.368 . S
C1398 C1397 1.523 . S
H1399 C1374 0.950 . S
H1400 C1376 0.950 . S
H1401 C1377 0.949 . S
H1402 C1379 0.950 . S
H1403 C1381 0.950 . S
C1404 C1405 1.349 . S
C1404 C1406 1.327 . S
C1404 H1429 0.950 . S
C1405 C1404 1.349 . S
C1405 C1421 1.349 . S
C1406 C1404 1.327 . S
C1406 C1425 1.429 . S
C1406 H1430 0.950 . S
C1407 C1424 1.574 . S
C1407 C1426 1.368 . S
C1407 H1431 0.949 . S
H1408 C1412 0.949 . S
C1409 C1410 1.349 . S
C1409 C1411 1.327 . S
C1409 H1432 0.950 . S
C1410 C1409 1.349 . S
C1410 C1422 1.349 . S
C1411 C1409 1.327 . S
C1411 C1427 1.429 . S
C1411 H1433 0.950 . S
C1412 H1408 0.949 . S
C1412 C1420 1.574 . S
C1412 C1428 1.368 . S
H1413 C1421 0.950 . S
H1414 C1419 0.950 . S
H1415 C1420 0.949 . S
H1416 C1422 0.950 . S
H1417 C1423 0.950 . S
H1418 C1424 0.949 . S
C1419 H1414 0.950 . S
C1419 C1421 1.327 . S
C1419 C1425 1.429 . S
C1420 C1412 1.574 . S
C1420 H1415 0.949 . S
C1420 C1426 1.368 . S
C1421 C1405 1.349 . S
C1421 H1413 0.950 . S
C1421 C1419 1.327 . S
C1422 C1410 1.349 . S
C1422 H1416 0.950 . S
C1422 C1423 1.327 . S
C1423 H1417 0.950 . S
C1423 C1422 1.327 . S
C1423 C1427 1.429 . S
C1424 C1407 1.574 . S
C1424 H1418 0.949 . S
C1424 C1428 1.368 . S
C1425 C1406 1.429 . S
C1425 C1419 1.429 . S
C1425 C1426 1.523 . S
C1426 C1407 1.368 . S
C1426 C1420 1.368 . S
C1426 C1425 1.523 . S
C1427 C1411 1.429 . S
C1427 C1423 1.429 . S
C1427 C1428 1.523 . S
C1428 C1412 1.368 . S
C1428 C1424 1.368 . S
C1428 C1427 1.523 . S
H1429 C1404 0.950 . S
H1430 C1406 0.950 . S
H1431 C1407 0.949 . S
H1432 C1409 0.950 . S
H1433 C1411 0.950 . S
C1434 C1435 1.349 . S
C1434 C1436 1.327 . S
C1434 H1459 0.950 . S
C1435 C1434 1.349 . S
C1435 C1451 1.349 . S
C1436 C1434 1.327 . S
C1436 C1455 1.429 . S
C1436 H1460 0.950 . S
C1437 C1454 1.574 . S
C1437 C1456 1.368 . S
C1437 H1461 0.949 . S
H1438 C1442 0.949 . S
C1439 C1440 1.349 . S
C1439 C1441 1.327 . S
C1439 H1462 0.950 . S
C1440 C1439 1.349 . S
C1440 C1452 1.349 . S
C1441 C1439 1.327 . S
C1441 C1457 1.429 . S
C1441 H1463 0.950 . S
C1442 H1438 0.949 . S
C1442 C1450 1.574 . S
C1442 C1458 1.368 . S
H1443 C1451 0.950 . S
H1444 C1449 0.950 . S
H1445 C1450 0.949 . S
H1446 C1452 0.950 . S
H1447 C1453 0.950 . S
H1448 C1454 0.949 . S
C1449 H1444 0.950 . S
C1449 C1451 1.327 . S
C1449 C1455 1.429 . S
C1450 C1442 1.574 . S
C1450 H1445 0.949 . S
C1450 C1456 1.368 . S
C1451 C1435 1.349 . S
C1451 H1443 0.950 . S
C1451 C1449 1.327 . S
C1452 C1440 1.349 . S
C1452 H1446 0.950 . S
C1452 C1453 1.327 . S
C1453 H1447 0.950 . S
C1453 C1452 1.327 . S
C1453 C1457 1.429 . S
C1454 C1437 1.574 . S
C1454 H1448 0.949 . S
C1454 C1458 1.368 . S
C1455 C1436 1.429 . S
C1455 C1449 1.429 . S
C1455 C1456 1.523 . S
C1456 C1437 1.368 . S
C1456 C1450 1.368 . S
C1456 C1455 1.523 . S
C1457 C1441 1.429 . S
C1457 C1453 1.429 . S
C1457 C1458 1.523 . S
C1458 C1442 1.368 . S
C1458 C1454 1.368 . S
C1458 C1457 1.523 . S
H1459 C1434 0.950 . S
H1460 C1436 0.950 . S
H1461 C1437 0.949 . S
H1462 C1439 0.950 . S
H1463 C1441 0.950 . S
C1464 C1465 1.349 . S
C1464 C1466 1.327 . S
C1464 H1489 0.950 . S
C1465 C1464 1.349 . S
C1465 C1481 1.349 . S
C1466 C1464 1.327 . S
C1466 C1485 1.429 . S
C1466 H1490 0.950 . S
C1467 C1484 1.574 . S
C1467 C1486 1.368 . S
C1467 H1491 0.949 . S
H1468 C1472 0.949 . S
C1469 C1470 1.349 . S
C1469 C1471 1.327 . S
C1469 H1492 0.950 . S
C1470 C1469 1.349 . S
C1470 C1482 1.349 . S
C1471 C1469 1.327 . S
C1471 C1487 1.429 . S
C1471 H1493 0.950 . S
C1472 H1468 0.949 . S
C1472 C1480 1.574 . S
C1472 C1488 1.368 . S
H1473 C1481 0.950 . S
H1474 C1479 0.950 . S
H1475 C1480 0.949 . S
H1476 C1482 0.950 . S
H1477 C1483 0.950 . S
H1478 C1484 0.949 . S
C1479 H1474 0.950 . S
C1479 C1481 1.327 . S
C1479 C1485 1.429 . S
C1480 C1472 1.574 . S
C1480 H1475 0.949 . S
C1480 C1486 1.368 . S
C1481 C1465 1.349 . S
C1481 H1473 0.950 . S
C1481 C1479 1.327 . S
C1482 C1470 1.349 . S
C1482 H1476 0.950 . S
C1482 C1483 1.327 . S
C1483 H1477 0.950 . S
C1483 C1482 1.327 . S
C1483 C1487 1.429 . S
C1484 C1467 1.574 . S
C1484 H1478 0.949 . S
C1484 C1488 1.368 . S
C1485 C1466 1.429 . S
C1485 C1479 1.429 . S
C1485 C1486 1.523 . S
C1486 C1467 1.368 . S
C1486 C1480 1.368 . S
C1486 C1485 1.523 . S
C1487 C1471 1.429 . S
C1487 C1483 1.429 . S
C1487 C1488 1.523 . S
C1488 C1472 1.368 . S
C1488 C1484 1.368 . S
C1488 C1487 1.523 . S
H1489 C1464 0.950 . S
H1490 C1466 0.950 . S
H1491 C1467 0.949 . S
H1492 C1469 0.950 . S
H1493 C1471 0.950 . S
C1494 C1495 1.349 . S
C1494 C1496 1.327 . S
C1494 H1519 0.950 . S
C1495 C1494 1.349 . S
C1495 C1511 1.349 . S
C1496 C1494 1.327 . S
C1496 C1515 1.429 . S
C1496 H1520 0.950 . S
C1497 C1514 1.574 . S
C1497 C1516 1.368 . S
C1497 H1521 0.949 . S
H1498 C1502 0.949 . S
C1499 C1500 1.349 . S
C1499 C1501 1.327 . S
C1499 H1522 0.950 . S
C1500 C1499 1.349 . S
C1500 C1512 1.349 . S
C1501 C1499 1.327 . S
C1501 C1517 1.429 . S
C1501 H1523 0.950 . S
C1502 H1498 0.949 . S
C1502 C1510 1.574 . S
C1502 C1518 1.368 . S
H1503 C1511 0.950 . S
H1504 C1509 0.950 . S
H1505 C1510 0.949 . S
H1506 C1512 0.950 . S
H1507 C1513 0.950 . S
H1508 C1514 0.949 . S
C1509 H1504 0.950 . S
C1509 C1511 1.327 . S
C1509 C1515 1.429 . S
C1510 C1502 1.574 . S
C1510 H1505 0.949 . S
C1510 C1516 1.368 . S
C1511 C1495 1.349 . S
C1511 H1503 0.950 . S
C1511 C1509 1.327 . S
C1512 C1500 1.349 . S
C1512 H1506 0.950 . S
C1512 C1513 1.327 . S
C1513 H1507 0.950 . S
C1513 C1512 1.327 . S
C1513 C1517 1.429 . S
C1514 C1497 1.574 . S
C1514 H1508 0.949 . S
C1514 C1518 1.368 . S
C1515 C1496 1.429 . S
C1515 C1509 1.429 . S
C1515 C1516 1.523 . S
C1516 C1497 1.368 . S
C1516 C1510 1.368 . S
C1516 C1515 1.523 . S
C1517 C1501 1.429 . S
C1517 C1513 1.429 . S
C1517 C1518 1.523 . S
C1518 C1502 1.368 . S
C1518 C1514 1.368 . S
C1518 C1517 1.523 . S
H1519 C1494 0.950 . S
H1520 C1496 0.950 . S
H1521 C1497 0.949 . S
H1522 C1499 0.950 . S
H1523 C1501 0.950 . S
C1524 C1525 1.349 . S
C1524 C1526 1.327 . S
C1524 H1549 0.950 . S
C1525 C1524 1.349 . S
C1525 C1541 1.349 . S
C1526 C1524 1.327 . S
C1526 C1545 1.429 . S
C1526 H1550 0.950 . S
C1527 C1544 1.574 . S
C1527 C1546 1.368 . S
C1527 H1551 0.949 . S
H1528 C1532 0.949 . S
C1529 C1530 1.349 . S
C1529 C1531 1.327 . S
C1529 H1552 0.950 . S
C1530 C1529 1.349 . S
C1530 C1542 1.349 . S
C1531 C1529 1.327 . S
C1531 C1547 1.429 . S
C1531 H1553 0.950 . S
C1532 H1528 0.949 . S
C1532 C1540 1.574 . S
C1532 C1548 1.368 . S
H1533 C1541 0.950 . S
H1534 C1539 0.950 . S
H1535 C1540 0.949 . S
H1536 C1542 0.950 . S
H1537 C1543 0.950 . S
H1538 C1544 0.949 . S
C1539 H1534 0.950 . S
C1539 C1541 1.327 . S
C1539 C1545 1.429 . S
C1540 C1532 1.574 . S
C1540 H1535 0.949 . S
C1540 C1546 1.368 . S
C1541 C1525 1.349 . S
C1541 H1533 0.950 . S
C1541 C1539 1.327 . S
C1542 C1530 1.349 . S
C1542 H1536 0.950 . S
C1542 C1543 1.327 . S
C1543 H1537 0.950 . S
C1543 C1542 1.327 . S
C1543 C1547 1.429 . S
C1544 C1527 1.574 . S
C1544 H1538 0.949 . S
C1544 C1548 1.368 . S
C1545 C1526 1.429 . S
C1545 C1539 1.429 . S
C1545 C1546 1.523 . S
C1546 C1527 1.368 . S
C1546 C1540 1.368 . S
C1546 C1545 1.523 . S
C1547 C1531 1.429 . S
C1547 C1543 1.429 . S
C1547 C1548 1.523 . S
C1548 C1532 1.368 . S
C1548 C1544 1.368 . S
C1548 C1547 1.523 . S
H1549 C1524 0.950 . S
H1550 C1526 0.950 . S
H1551 C1527 0.949 . S
H1552 C1529 0.950 . S
H1553 C1531 0.950 . S
C1554 C1555 1.349 . S
C1554 C1556 1.327 . S
C1554 H1579 0.950 . S
C1555 C1554 1.349 . S
C1555 C1571 1.349 . S
C1556 C1554 1.327 . S
C1556 C1575 1.429 . S
C1556 H1580 0.950 . S
C1557 C1574 1.574 . S
C1557 C1576 1.368 . S
C1557 H1581 0.949 . S
H1558 C1562 0.949 . S
C1559 C1560 1.349 . S
C1559 C1561 1.327 . S
C1559 H1582 0.950 . S
C1560 C1559 1.349 . S
C1560 C1572 1.349 . S
C1561 C1559 1.327 . S
C1561 C1577 1.429 . S
C1561 H1583 0.950 . S
C1562 H1558 0.949 . S
C1562 C1570 1.574 . S
C1562 C1578 1.368 . S
H1563 C1571 0.950 . S
H1564 C1569 0.950 . S
H1565 C1570 0.949 . S
H1566 C1572 0.950 . S
H1567 C1573 0.950 . S
H1568 C1574 0.949 . S
C1569 H1564 0.950 . S
C1569 C1571 1.327 . S
C1569 C1575 1.429 . S
C1570 C1562 1.574 . S
C1570 H1565 0.949 . S
C1570 C1576 1.368 . S
C1571 C1555 1.349 . S
C1571 H1563 0.950 . S
C1571 C1569 1.327 . S
C1572 C1560 1.349 . S
C1572 H1566 0.950 . S
C1572 C1573 1.327 . S
C1573 H1567 0.950 . S
C1573 C1572 1.327 . S
C1573 C1577 1.429 . S
C1574 C1557 1.574 . S
C1574 H1568 0.949 . S
C1574 C1578 1.368 . S
C1575 C1556 1.429 . S
C1575 C1569 1.429 . S
C1575 C1576 1.523 . S
C1576 C1557 1.368 . S
C1576 C1570 1.368 . S
C1576 C1575 1.523 . S
C1577 C1561 1.429 . S
C1577 C1573 1.429 . S
C1577 C1578 1.523 . S
C1578 C1562 1.368 . S
C1578 C1574 1.368 . S
C1578 C1577 1.523 . S
H1579 C1554 0.950 . S
H1580 C1556 0.950 . S
H1581 C1557 0.949 . S
H1582 C1559 0.950 . S
H1583 C1561 0.950 . S
C1584 C1585 1.349 . S
C1584 C1586 1.327 . S
C1584 H1609 0.950 . S
C1585 C1584 1.349 . S
C1585 C1601 1.349 . S
C1586 C1584 1.327 . S
C1586 C1605 1.429 . S
C1586 H1610 0.950 . S
C1587 C1604 1.574 . S
C1587 C1606 1.368 . S
C1587 H1611 0.949 . S
H1588 C1592 0.949 . S
C1589 C1590 1.349 . S
C1589 C1591 1.327 . S
C1589 H1612 0.950 . S
C1590 C1589 1.349 . S
C1590 C1602 1.349 . S
C1591 C1589 1.327 . S
C1591 C1607 1.429 . S
C1591 H1613 0.950 . S
C1592 H1588 0.949 . S
C1592 C1600 1.574 . S
C1592 C1608 1.368 . S
H1593 C1601 0.950 . S
H1594 C1599 0.950 . S
H1595 C1600 0.949 . S
H1596 C1602 0.950 . S
H1597 C1603 0.950 . S
H1598 C1604 0.949 . S
C1599 H1594 0.950 . S
C1599 C1601 1.327 . S
C1599 C1605 1.429 . S
C1600 C1592 1.574 . S
C1600 H1595 0.949 . S
C1600 C1606 1.368 . S
C1601 C1585 1.349 . S
C1601 H1593 0.950 . S
C1601 C1599 1.327 . S
C1602 C1590 1.349 . S
C1602 H1596 0.950 . S
C1602 C1603 1.327 . S
C1603 H1597 0.950 . S
C1603 C1602 1.327 . S
C1603 C1607 1.429 . S
C1604 C1587 1.574 . S
C1604 H1598 0.949 . S
C1604 C1608 1.368 . S
C1605 C1586 1.429 . S
C1605 C1599 1.429 . S
C1605 C1606 1.523 . S
C1606 C1587 1.368 . S
C1606 C1600 1.368 . S
C1606 C1605 1.523 . S
C1607 C1591 1.429 . S
C1607 C1603 1.429 . S
C1607 C1608 1.523 . S
C1608 C1592 1.368 . S
C1608 C1604 1.368 . S
C1608 C1607 1.523 . S
H1609 C1584 0.950 . S
H1610 C1586 0.950 . S
H1611 C1587 0.949 . S
H1612 C1589 0.950 . S
H1613 C1591 0.950 . S
C1614 C1615 1.349 . S
C1614 C1616 1.327 . S
C1614 H1639 0.950 . S
C1615 C1614 1.349 . S
C1615 C1631 1.349 . S
C1616 C1614 1.327 . S
C1616 C1635 1.429 . S
C1616 H1640 0.950 . S
C1617 C1634 1.574 . S
C1617 C1636 1.368 . S
C1617 H1641 0.949 . S
H1618 C1622 0.949 . S
C1619 C1620 1.349 . S
C1619 C1621 1.327 . S
C1619 H1642 0.950 . S
C1620 C1619 1.349 . S
C1620 C1632 1.349 . S
C1621 C1619 1.327 . S
C1621 C1637 1.429 . S
C1621 H1643 0.950 . S
C1622 H1618 0.949 . S
C1622 C1630 1.574 . S
C1622 C1638 1.368 . S
H1623 C1631 0.950 . S
H1624 C1629 0.950 . S
H1625 C1630 0.949 . S
H1626 C1632 0.950 . S
H1627 C1633 0.950 . S
H1628 C1634 0.949 . S
C1629 H1624 0.950 . S
C1629 C1631 1.327 . S
C1629 C1635 1.429 . S
C1630 C1622 1.574 . S
C1630 H1625 0.949 . S
C1630 C1636 1.368 . S
C1631 C1615 1.349 . S
C1631 H1623 0.950 . S
C1631 C1629 1.327 . S
C1632 C1620 1.349 . S
C1632 H1626 0.950 . S
C1632 C1633 1.327 . S
C1633 H1627 0.950 . S
C1633 C1632 1.327 . S
C1633 C1637 1.429 . S
C1634 C1617 1.574 . S
C1634 H1628 0.949 . S
C1634 C1638 1.368 . S
C1635 C1616 1.429 . S
C1635 C1629 1.429 . S
C1635 C1636 1.523 . S
C1636 C1617 1.368 . S
C1636 C1630 1.368 . S
C1636 C1635 1.523 . S
C1637 C1621 1.429 . S
C1637 C1633 1.429 . S
C1637 C1638 1.523 . S
C1638 C1622 1.368 . S
C1638 C1634 1.368 . S
C1638 C1637 1.523 . S
H1639 C1614 0.950 . S
H1640 C1616 0.950 . S
H1641 C1617 0.949 . S
H1642 C1619 0.950 . S
H1643 C1621 0.950 . S
C1644 C1645 1.349 . S
C1644 C1646 1.327 . S
C1644 H1669 0.950 . S
C1645 C1644 1.349 . S
C1645 C1661 1.349 . S
C1646 C1644 1.327 . S
C1646 C1665 1.429 . S
C1646 H1670 0.950 . S
C1647 C1664 1.574 . S
C1647 C1666 1.368 . S
C1647 H1671 0.949 . S
H1648 C1652 0.949 . S
C1649 C1650 1.349 . S
C1649 C1651 1.327 . S
C1649 H1672 0.950 . S
C1650 C1649 1.349 . S
C1650 C1662 1.349 . S
C1651 C1649 1.327 . S
C1651 C1667 1.429 . S
C1651 H1673 0.950 . S
C1652 H1648 0.949 . S
C1652 C1660 1.574 . S
C1652 C1668 1.368 . S
H1653 C1661 0.950 . S
H1654 C1659 0.950 . S
H1655 C1660 0.949 . S
H1656 C1662 0.950 . S
H1657 C1663 0.950 . S
H1658 C1664 0.949 . S
C1659 H1654 0.950 . S
C1659 C1661 1.327 . S
C1659 C1665 1.429 . S
C1660 C1652 1.574 . S
C1660 H1655 0.949 . S
C1660 C1666 1.368 . S
C1661 C1645 1.349 . S
C1661 H1653 0.950 . S
C1661 C1659 1.327 . S
C1662 C1650 1.349 . S
C1662 H1656 0.950 . S
C1662 C1663 1.327 . S
C1663 H1657 0.950 . S
C1663 C1662 1.327 . S
C1663 C1667 1.429 . S
C1664 C1647 1.574 . S
C1664 H1658 0.949 . S
C1664 C1668 1.368 . S
C1665 C1646 1.429 . S
C1665 C1659 1.429 . S
C1665 C1666 1.523 . S
C1666 C1647 1.368 . S
C1666 C1660 1.368 . S
C1666 C1665 1.523 . S
C1667 C1651 1.429 . S
C1667 C1663 1.429 . S
C1667 C1668 1.523 . S
C1668 C1652 1.368 . S
C1668 C1664 1.368 . S
C1668 C1667 1.523 . S
H1669 C1644 0.950 . S
H1670 C1646 0.950 . S
H1671 C1647 0.949 . S
H1672 C1649 0.950 . S
H1673 C1651 0.950 . S
C1674 C1675 1.349 . S
C1674 C1676 1.327 . S
C1674 H1699 0.950 . S
C1675 C1674 1.349 . S
C1675 C1691 1.349 . S
C1676 C1674 1.327 . S
C1676 C1695 1.429 . S
C1676 H1700 0.950 . S
C1677 C1694 1.574 . S
C1677 C1696 1.368 . S
C1677 H1701 0.949 . S
H1678 C1682 0.949 . S
C1679 C1680 1.349 . S
C1679 C1681 1.327 . S
C1679 H1702 0.950 . S
C1680 C1679 1.349 . S
C1680 C1692 1.349 . S
C1681 C1679 1.327 . S
C1681 C1697 1.429 . S
C1681 H1703 0.950 . S
C1682 H1678 0.949 . S
C1682 C1690 1.574 . S
C1682 C1698 1.368 . S
H1683 C1691 0.950 . S
H1684 C1689 0.950 . S
H1685 C1690 0.949 . S
H1686 C1692 0.950 . S
H1687 C1693 0.950 . S
H1688 C1694 0.949 . S
C1689 H1684 0.950 . S
C1689 C1691 1.327 . S
C1689 C1695 1.429 . S
C1690 C1682 1.574 . S
C1690 H1685 0.949 . S
C1690 C1696 1.368 . S
C1691 C1675 1.349 . S
C1691 H1683 0.950 . S
C1691 C1689 1.327 . S
C1692 C1680 1.349 . S
C1692 H1686 0.950 . S
C1692 C1693 1.327 . S
C1693 H1687 0.950 . S
C1693 C1692 1.327 . S
C1693 C1697 1.429 . S
C1694 C1677 1.574 . S
C1694 H1688 0.949 . S
C1694 C1698 1.368 . S
C1695 C1676 1.429 . S
C1695 C1689 1.429 . S
C1695 C1696 1.523 . S
C1696 C1677 1.368 . S
C1696 C1690 1.368 . S
C1696 C1695 1.523 . S
C1697 C1681 1.429 . S
C1697 C1693 1.429 . S
C1697 C1698 1.523 . S
C1698 C1682 1.368 . S
C1698 C1694 1.368 . S
C1698 C1697 1.523 . S
H1699 C1674 0.950 . S
H1700 C1676 0.950 . S
H1701 C1677 0.949 . S
H1702 C1679 0.950 . S
H1703 C1681 0.950 . S
C1704 C1705 1.349 . S
C1704 C1706 1.327 . S
C1704 H1729 0.950 . S
C1705 C1704 1.349 . S
C1705 C1721 1.349 . S
C1706 C1704 1.327 . S
C1706 C1725 1.429 . S
C1706 H1730 0.950 . S
C1707 C1724 1.574 . S
C1707 C1726 1.368 . S
C1707 H1731 0.949 . S
H1708 C1712 0.949 . S
C1709 C1710 1.349 . S
C1709 C1711 1.327 . S
C1709 H1732 0.950 . S
C1710 C1709 1.349 . S
C1710 C1722 1.349 . S
C1711 C1709 1.327 . S
C1711 C1727 1.429 . S
C1711 H1733 0.950 . S
C1712 H1708 0.949 . S
C1712 C1720 1.574 . S
C1712 C1728 1.368 . S
H1713 C1721 0.950 . S
H1714 C1719 0.950 . S
H1715 C1720 0.949 . S
H1716 C1722 0.950 . S
H1717 C1723 0.950 . S
H1718 C1724 0.949 . S
C1719 H1714 0.950 . S
C1719 C1721 1.327 . S
C1719 C1725 1.429 . S
C1720 C1712 1.574 . S
C1720 H1715 0.949 . S
C1720 C1726 1.368 . S
C1721 C1705 1.349 . S
C1721 H1713 0.950 . S
C1721 C1719 1.327 . S
C1722 C1710 1.349 . S
C1722 H1716 0.950 . S
C1722 C1723 1.327 . S
C1723 H1717 0.950 . S
C1723 C1722 1.327 . S
C1723 C1727 1.429 . S
C1724 C1707 1.574 . S
C1724 H1718 0.949 . S
C1724 C1728 1.368 . S
C1725 C1706 1.429 . S
C1725 C1719 1.429 . S
C1725 C1726 1.523 . S
C1726 C1707 1.368 . S
C1726 C1720 1.368 . S
C1726 C1725 1.523 . S
C1727 C1711 1.429 . S
C1727 C1723 1.429 . S
C1727 C1728 1.523 . S
C1728 C1712 1.368 . S
C1728 C1724 1.368 . S
C1728 C1727 1.523 . S
H1729 C1704 0.950 . S
H1730 C1706 0.950 . S
H1731 C1707 0.949 . S
H1732 C1709 0.950 . S
H1733 C1711 0.950 . S
C1734 C1735 1.349 . S
C1734 C1736 1.327 . S
C1734 H1759 0.950 . S
C1735 C1734 1.349 . S
C1735 C1751 1.349 . S
C1736 C1734 1.327 . S
C1736 C1755 1.429 . S
C1736 H1760 0.950 . S
C1737 C1754 1.574 . S
C1737 C1756 1.368 . S
C1737 H1761 0.949 . S
H1738 C1742 0.949 . S
C1739 C1740 1.349 . S
C1739 C1741 1.327 . S
C1739 H1762 0.950 . S
C1740 C1739 1.349 . S
C1740 C1752 1.349 . S
C1741 C1739 1.327 . S
C1741 C1757 1.429 . S
C1741 H1763 0.950 . S
C1742 H1738 0.949 . S
C1742 C1750 1.574 . S
C1742 C1758 1.368 . S
H1743 C1751 0.950 . S
H1744 C1749 0.950 . S
H1745 C1750 0.949 . S
H1746 C1752 0.950 . S
H1747 C1753 0.950 . S
H1748 C1754 0.949 . S
C1749 H1744 0.950 . S
C1749 C1751 1.327 . S
C1749 C1755 1.429 . S
C1750 C1742 1.574 . S
C1750 H1745 0.949 . S
C1750 C1756 1.368 . S
C1751 C1735 1.349 . S
C1751 H1743 0.950 . S
C1751 C1749 1.327 . S
C1752 C1740 1.349 . S
C1752 H1746 0.950 . S
C1752 C1753 1.327 . S
C1753 H1747 0.950 . S
C1753 C1752 1.327 . S
C1753 C1757 1.429 . S
C1754 C1737 1.574 . S
C1754 H1748 0.949 . S
C1754 C1758 1.368 . S
C1755 C1736 1.429 . S
C1755 C1749 1.429 . S
C1755 C1756 1.523 . S
C1756 C1737 1.368 . S
C1756 C1750 1.368 . S
C1756 C1755 1.523 . S
C1757 C1741 1.429 . S
C1757 C1753 1.429 . S
C1757 C1758 1.523 . S
C1758 C1742 1.368 . S
C1758 C1754 1.368 . S
C1758 C1757 1.523 . S
H1759 C1734 0.950 . S
H1760 C1736 0.950 . S
H1761 C1737 0.949 . S
H1762 C1739 0.950 . S
H1763 C1741 0.950 . S
C1764 C1765 1.349 . S
C1764 C1766 1.327 . S
C1764 H1789 0.950 . S
C1765 C1764 1.349 . S
C1765 C1781 1.349 . S
C1766 C1764 1.327 . S
C1766 C1785 1.429 . S
C1766 H1790 0.950 . S
C1767 C1784 1.574 . S
C1767 C1786 1.368 . S
C1767 H1791 0.949 . S
H1768 C1772 0.949 . S
C1769 C1770 1.349 . S
C1769 C1771 1.327 . S
C1769 H1792 0.950 . S
C1770 C1769 1.349 . S
C1770 C1782 1.349 . S
C1771 C1769 1.327 . S
C1771 C1787 1.429 . S
C1771 H1793 0.950 . S
C1772 H1768 0.949 . S
C1772 C1780 1.574 . S
C1772 C1788 1.368 . S
H1773 C1781 0.950 . S
H1774 C1779 0.950 . S
H1775 C1780 0.949 . S
H1776 C1782 0.950 . S
H1777 C1783 0.950 . S
H1778 C1784 0.949 . S
C1779 H1774 0.950 . S
C1779 C1781 1.327 . S
C1779 C1785 1.429 . S
C1780 C1772 1.574 . S
C1780 H1775 0.949 . S
C1780 C1786 1.368 . S
C1781 C1765 1.349 . S
C1781 H1773 0.950 . S
C1781 C1779 1.327 . S
C1782 C1770 1.349 . S
C1782 H1776 0.950 . S
C1782 C1783 1.327 . S
C1783 H1777 0.950 . S
C1783 C1782 1.327 . S
C1783 C1787 1.429 . S
C1784 C1767 1.574 . S
C1784 H1778 0.949 . S
C1784 C1788 1.368 . S
C1785 C1766 1.429 . S
C1785 C1779 1.429 . S
C1785 C1786 1.523 . S
C1786 C1767 1.368 . S
C1786 C1780 1.368 . S
C1786 C1785 1.523 . S
C1787 C1771 1.429 . S
C1787 C1783 1.429 . S
C1787 C1788 1.523 . S
C1788 C1772 1.368 . S
C1788 C1784 1.368 . S
C1788 C1787 1.523 . S
H1789 C1764 0.950 . S
H1790 C1766 0.950 . S
H1791 C1767 0.949 . S
H1792 C1769 0.950 . S
H1793 C1771 0.950 . S
C1794 C1795 1.349 . S
C1794 C1796 1.327 . S
C1794 H1819 0.950 . S
C1795 C1794 1.349 . S
C1795 C1811 1.349 . S
C1796 C1794 1.327 . S
C1796 C1815 1.429 . S
C1796 H1820 0.950 . S
C1797 C1814 1.574 . S
C1797 C1816 1.368 . S
C1797 H1821 0.949 . S
H1798 C1802 0.949 . S
C1799 C1800 1.349 . S
C1799 C1801 1.327 . S
C1799 H1822 0.950 . S
C1800 C1799 1.349 . S
C1800 C1812 1.349 . S
C1801 C1799 1.327 . S
C1801 C1817 1.429 . S
C1801 H1823 0.950 . S
C1802 H1798 0.949 . S
C1802 C1810 1.574 . S
C1802 C1818 1.368 . S
H1803 C1811 0.950 . S
H1804 C1809 0.950 . S
H1805 C1810 0.949 . S
H1806 C1812 0.950 . S
H1807 C1813 0.950 . S
H1808 C1814 0.949 . S
C1809 H1804 0.950 . S
C1809 C1811 1.327 . S
C1809 C1815 1.429 . S
C1810 C1802 1.574 . S
C1810 H1805 0.949 . S
C1810 C1816 1.368 . S
C1811 C1795 1.349 . S
C1811 H1803 0.950 . S
C1811 C1809 1.327 . S
C1812 C1800 1.349 . S
C1812 H1806 0.950 . S
C1812 C1813 1.327 . S
C1813 H1807 0.950 . S
C1813 C1812 1.327 . S
C1813 C1817 1.429 . S
C1814 C1797 1.574 . S
C1814 H1808 0.949 . S
C1814 C1818 1.368 . S
C1815 C1796 1.429 . S
C1815 C1809 1.429 . S
C1815 C1816 1.523 . S
C1816 C1797 1.368 . S
C1816 C1810 1.368 . S
C1816 C1815 1.523 . S
C1817 C1801 1.429 . S
C1817 C1813 1.429 . S
C1817 C1818 1.523 . S
C1818 C1802 1.368 . S
C1818 C1814 1.368 . S
C1818 C1817 1.523 . S
H1819 C1794 0.950 . S
H1820 C1796 0.950 . S
H1821 C1797 0.949 . S
H1822 C1799 0.950 . S
H1823 C1801 0.950 . S
C1824 C1825 1.349 . S
C1824 C1826 1.327 . S
C1824 H1849 0.950 . S
C1825 C1824 1.349 . S
C1825 C1841 1.349 . S
C1826 C1824 1.327 . S
C1826 C1845 1.429 . S
C1826 H1850 0.950 . S
C1827 C1844 1.574 . S
C1827 C1846 1.368 . S
C1827 H1851 0.949 . S
H1828 C1832 0.949 . S
C1829 C1830 1.349 . S
C1829 C1831 1.327 . S
C1829 H1852 0.950 . S
C1830 C1829 1.349 . S
C1830 C1842 1.349 . S
C1831 C1829 1.327 . S
C1831 C1847 1.429 . S
C1831 H1853 0.950 . S
C1832 H1828 0.949 . S
C1832 C1840 1.574 . S
C1832 C1848 1.368 . S
H1833 C1841 0.950 . S
H1834 C1839 0.950 . S
H1835 C1840 0.949 . S
H1836 C1842 0.950 . S
H1837 C1843 0.950 . S
H1838 C1844 0.949 . S
C1839 H1834 0.950 . S
C1839 C1841 1.327 . S
C1839 C1845 1.429 . S
C1840 C1832 1.574 . S
C1840 H1835 0.949 . S
C1840 C1846 1.368 . S
C1841 C1825 1.349 . S
C1841 H1833 0.950 . S
C1841 C1839 1.327 . S
C1842 C1830 1.349 . S
C1842 H1836 0.950 . S
C1842 C1843 1.327 . S
C1843 H1837 0.950 . S
C1843 C1842 1.327 . S
C1843 C1847 1.429 . S
C1844 C1827 1.574 . S
C1844 H1838 0.949 . S
C1844 C1848 1.368 . S
C1845 C1826 1.429 . S
C1845 C1839 1.429 . S
C1845 C1846 1.523 . S
C1846 C1827 1.368 . S
C1846 C1840 1.368 . S
C1846 C1845 1.523 . S
C1847 C1831 1.429 . S
C1847 C1843 1.429 . S
C1847 C1848 1.523 . S
C1848 C1832 1.368 . S
C1848 C1844 1.368 . S
C1848 C1847 1.523 . S
H1849 C1824 0.950 . S
H1850 C1826 0.950 . S
H1851 C1827 0.949 . S
H1852 C1829 0.950 . S
H1853 C1831 0.950 . S
C1854 C1855 1.349 . S
C1854 C1856 1.327 . S
C1854 H1879 0.950 . S
C1855 C1854 1.349 . S
C1855 C1871 1.349 . S
C1856 C1854 1.327 . S
C1856 C1875 1.429 . S
C1856 H1880 0.950 . S
C1857 C1874 1.574 . S
C1857 C1876 1.368 . S
C1857 H1881 0.949 . S
H1858 C1862 0.949 . S
C1859 C1860 1.349 . S
C1859 C1861 1.327 . S
C1859 H1882 0.950 . S
C1860 C1859 1.349 . S
C1860 C1872 1.349 . S
C1861 C1859 1.327 . S
C1861 C1877 1.429 . S
C1861 H1883 0.950 . S
C1862 H1858 0.949 . S
C1862 C1870 1.574 . S
C1862 C1878 1.368 . S
H1863 C1871 0.950 . S
H1864 C1869 0.950 . S
H1865 C1870 0.949 . S
H1866 C1872 0.950 . S
H1867 C1873 0.950 . S
H1868 C1874 0.949 . S
C1869 H1864 0.950 . S
C1869 C1871 1.327 . S
C1869 C1875 1.429 . S
C1870 C1862 1.574 . S
C1870 H1865 0.949 . S
C1870 C1876 1.368 . S
C1871 C1855 1.349 . S
C1871 H1863 0.950 . S
C1871 C1869 1.327 . S
C1872 C1860 1.349 . S
C1872 H1866 0.950 . S
C1872 C1873 1.327 . S
C1873 H1867 0.950 . S
C1873 C1872 1.327 . S
C1873 C1877 1.429 . S
C1874 C1857 1.574 . S
C1874 H1868 0.949 . S
C1874 C1878 1.368 . S
C1875 C1856 1.429 . S
C1875 C1869 1.429 . S
C1875 C1876 1.523 . S
C1876 C1857 1.368 . S
C1876 C1870 1.368 . S
C1876 C1875 1.523 . S
C1877 C1861 1.429 . S
C1877 C1873 1.429 . S
C1877 C1878 1.523 . S
C1878 C1862 1.368 . S
C1878 C1874 1.368 . S
C1878 C1877 1.523 . S
H1879 C1854 0.950 . S
H1880 C1856 0.950 . S
H1881 C1857 0.949 . S
H1882 C1859 0.950 . S
H1883 C1861 0.950 . S
C1884 C1885 1.349 . S
C1884 C1886 1.327 . S
C1884 H1909 0.950 . S
C1885 C1884 1.349 . S
C1885 C1901 1.349 . S
C1886 C1884 1.327 . S
C1886 C1905 1.429 . S
C1886 H1910 0.950 . S
C1887 C1904 1.574 . S
C1887 C1906 1.368 . S
C1887 H1911 0.949 . S
H1888 C1892 0.949 . S
C1889 C1890 1.349 . S
C1889 C1891 1.327 . S
C1889 H1912 0.950 . S
C1890 C1889 1.349 . S
C1890 C1902 1.349 . S
C1891 C1889 1.327 . S
C1891 C1907 1.429 . S
C1891 H1913 0.950 . S
C1892 H1888 0.949 . S
C1892 C1900 1.574 . S
C1892 C1908 1.368 . S
H1893 C1901 0.950 . S
H1894 C1899 0.950 . S
H1895 C1900 0.949 . S
H1896 C1902 0.950 . S
H1897 C1903 0.950 . S
H1898 C1904 0.949 . S
C1899 H1894 0.950 . S
C1899 C1901 1.327 . S
C1899 C1905 1.429 . S
C1900 C1892 1.574 . S
C1900 H1895 0.949 . S
C1900 C1906 1.368 . S
C1901 C1885 1.349 . S
C1901 H1893 0.950 . S
C1901 C1899 1.327 . S
C1902 C1890 1.349 . S
C1902 H1896 0.950 . S
C1902 C1903 1.327 . S
C1903 H1897 0.950 . S
C1903 C1902 1.327 . S
C1903 C1907 1.429 . S
C1904 C1887 1.574 . S
C1904 H1898 0.949 . S
C1904 C1908 1.368 . S
C1905 C1886 1.429 . S
C1905 C1899 1.429 . S
C1905 C1906 1.523 . S
C1906 C1887 1.368 . S
C1906 C1900 1.368 . S
C1906 C1905 1.523 . S
C1907 C1891 1.429 . S
C1907 C1903 1.429 . S
C1907 C1908 1.523 . S
C1908 C1892 1.368 . S
C1908 C1904 1.368 . S
C1908 C1907 1.523 . S
H1909 C1884 0.950 . S
H1910 C1886 0.950 . S
H1911 C1887 0.949 . S
H1912 C1889 0.950 . S
H1913 C1891 0.950 . S
C1914 C1915 1.349 . S
C1914 C1916 1.327 . S
C1914 H1939 0.950 . S
C1915 C1914 1.349 . S
C1915 C1931 1.349 . S
C1916 C1914 1.327 . S
C1916 C1935 1.429 . S
C1916 H1940 0.950 . S
C1917 C1934 1.574 . S
C1917 C1936 1.368 . S
C1917 H1941 0.949 . S
H1918 C1922 0.949 . S
C1919 C1920 1.349 . S
C1919 C1921 1.327 . S
C1919 H1942 0.950 . S
C1920 C1919 1.349 . S
C1920 C1932 1.349 . S
C1921 C1919 1.327 . S
C1921 C1937 1.429 . S
C1921 H1943 0.950 . S
C1922 H1918 0.949 . S
C1922 C1930 1.574 . S
C1922 C1938 1.368 . S
H1923 C1931 0.950 . S
H1924 C1929 0.950 . S
H1925 C1930 0.949 . S
H1926 C1932 0.950 . S
H1927 C1933 0.950 . S
H1928 C1934 0.949 . S
C1929 H1924 0.950 . S
C1929 C1931 1.327 . S
C1929 C1935 1.429 . S
C1930 C1922 1.574 . S
C1930 H1925 0.949 . S
C1930 C1936 1.368 . S
C1931 C1915 1.349 . S
C1931 H1923 0.950 . S
C1931 C1929 1.327 . S
C1932 C1920 1.349 . S
C1932 H1926 0.950 . S
C1932 C1933 1.327 . S
C1933 H1927 0.950 . S
C1933 C1932 1.327 . S
C1933 C1937 1.429 . S
C1934 C1917 1.574 . S
C1934 H1928 0.949 . S
C1934 C1938 1.368 . S
C1935 C1916 1.429 . S
C1935 C1929 1.429 . S
C1935 C1936 1.523 . S
C1936 C1917 1.368 . S
C1936 C1930 1.368 . S
C1936 C1935 1.523 . S
C1937 C1921 1.429 . S
C1937 C1933 1.429 . S
C1937 C1938 1.523 . S
C1938 C1922 1.368 . S
C1938 C1934 1.368 . S
C1938 C1937 1.523 . S
H1939 C1914 0.950 . S
H1940 C1916 0.950 . S
H1941 C1917 0.949 . S
H1942 C1919 0.950 . S
H1943 C1921 0.950 . S
C1944 C1945 1.349 . S
C1944 C1946 1.327 . S
C1944 H1969 0.950 . S
C1945 C1944 1.349 . S
C1945 C1961 1.349 . S
C1946 C1944 1.327 . S
C1946 C1965 1.429 . S
C1946 H1970 0.950 . S
C1947 C1964 1.574 . S
C1947 C1966 1.368 . S
C1947 H1971 0.949 . S
H1948 C1952 0.949 . S
C1949 C1950 1.349 . S
C1949 C1951 1.327 . S
C1949 H1972 0.950 . S
C1950 C1949 1.349 . S
C1950 C1962 1.349 . S
C1951 C1949 1.327 . S
C1951 C1967 1.429 . S
C1951 H1973 0.950 . S
C1952 H1948 0.949 . S
C1952 C1960 1.574 . S
C1952 C1968 1.368 . S
H1953 C1961 0.950 . S
H1954 C1959 0.950 . S
H1955 C1960 0.949 . S
H1956 C1962 0.950 . S
H1957 C1963 0.950 . S
H1958 C1964 0.949 . S
C1959 H1954 0.950 . S
C1959 C1961 1.327 . S
C1959 C1965 1.429 . S
C1960 C1952 1.574 . S
C1960 H1955 0.949 . S
C1960 C1966 1.368 . S
C1961 C1945 1.349 . S
C1961 H1953 0.950 . S
C1961 C1959 1.327 . S
C1962 C1950 1.349 . S
C1962 H1956 0.950 . S
C1962 C1963 1.327 . S
C1963 H1957 0.950 . S
C1963 C1962 1.327 . S
C1963 C1967 1.429 . S
C1964 C1947 1.574 . S
C1964 H1958 0.949 . S
C1964 C1968 1.368 . S
C1965 C1946 1.429 . S
C1965 C1959 1.429 . S
C1965 C1966 1.523 . S
C1966 C1947 1.368 . S
C1966 C1960 1.368 . S
C1966 C1965 1.523 . S
C1967 C1951 1.429 . S
C1967 C1963 1.429 . S
C1967 C1968 1.523 . S
C1968 C1952 1.368 . S
C1968 C1964 1.368 . S
C1968 C1967 1.523 . S
H1969 C1944 0.950 . S
H1970 C1946 0.950 . S
H1971 C1947 0.949 . S
H1972 C1949 0.950 . S
H1973 C1951 0.950 . S
C1974 C1975 1.349 . S
C1974 C1976 1.327 . S
C1974 H1999 0.950 . S
C1975 C1974 1.349 . S
C1975 C1991 1.349 . S
C1976 C1974 1.327 . S
C1976 C1995 1.429 . S
C1976 H2000 0.950 . S
C1977 C1994 1.574 . S
C1977 C1996 1.368 . S
C1977 H2001 0.949 . S
H1978 C1982 0.949 . S
C1979 C1980 1.349 . S
C1979 C1981 1.327 . S
C1979 H2002 0.950 . S
C1980 C1979 1.349 . S
C1980 C1992 1.349 . S
C1981 C1979 1.327 . S
C1981 C1997 1.429 . S
C1981 H2003 0.950 . S
C1982 H1978 0.949 . S
C1982 C1990 1.574 . S
C1982 C1998 1.368 . S
H1983 C1991 0.950 . S
H1984 C1989 0.950 . S
H1985 C1990 0.949 . S
H1986 C1992 0.950 . S
H1987 C1993 0.950 . S
H1988 C1994 0.949 . S
C1989 H1984 0.950 . S
C1989 C1991 1.327 . S
C1989 C1995 1.429 . S
C1990 C1982 1.574 . S
C1990 H1985 0.949 . S
C1990 C1996 1.368 . S
C1991 C1975 1.349 . S
C1991 H1983 0.950 . S
C1991 C1989 1.327 . S
C1992 C1980 1.349 . S
C1992 H1986 0.950 . S
C1992 C1993 1.327 . S
C1993 H1987 0.950 . S
C1993 C1992 1.327 . S
C1993 C1997 1.429 . S
C1994 C1977 1.574 . S
C1994 H1988 0.949 . S
C1994 C1998 1.368 . S
C1995 C1976 1.429 . S
C1995 C1989 1.429 . S
C1995 C1996 1.523 . S
C1996 C1977 1.368 . S
C1996 C1990 1.368 . S
C1996 C1995 1.523 . S
C1997 C1981 1.429 . S
C1997 C1993 1.429 . S
C1997 C1998 1.523 . S
C1998 C1982 1.368 . S
C1998 C1994 1.368 . S
C1998 C1997 1.523 . S
H1999 C1974 0.950 . S
H2000 C1976 0.950 . S
H2001 C1977 0.949 . S
H2002 C1979 0.950 . S
H2003 C1981 0.950 . S
C2004 C2005 1.349 . S
C2004 C2006 1.327 . S
C2004 H2029 0.950 . S
C2005 C2004 1.349 . S
C2005 C2021 1.349 . S
C2006 C2004 1.327 . S
C2006 C2025 1.429 . S
C2006 H2030 0.950 . S
C2007 C2024 1.574 . S
C2007 C2026 1.368 . S
C2007 H2031 0.949 . S
H2008 C2012 0.949 . S
C2009 C2010 1.349 . S
C2009 C2011 1.327 . S
C2009 H2032 0.950 . S
C2010 C2009 1.349 . S
C2010 C2022 1.349 . S
C2011 C2009 1.327 . S
C2011 C2027 1.429 . S
C2011 H2033 0.950 . S
C2012 H2008 0.949 . S
C2012 C2020 1.574 . S
C2012 C2028 1.368 . S
H2013 C2021 0.950 . S
H2014 C2019 0.950 . S
H2015 C2020 0.949 . S
H2016 C2022 0.950 . S
H2017 C2023 0.950 . S
H2018 C2024 0.949 . S
C2019 H2014 0.950 . S
C2019 C2021 1.327 . S
C2019 C2025 1.429 . S
C2020 C2012 1.574 . S
C2020 H2015 0.949 . S
C2020 C2026 1.368 . S
C2021 C2005 1.349 . S
C2021 H2013 0.950 . S
C2021 C2019 1.327 . S
C2022 C2010 1.349 . S
C2022 H2016 0.950 . S
C2022 C2023 1.327 . S
C2023 H2017 0.950 . S
C2023 C2022 1.327 . S
C2023 C2027 1.429 . S
C2024 C2007 1.574 . S
C2024 H2018 0.949 . S
C2024 C2028 1.368 . S
C2025 C2006 1.429 . S
C2025 C2019 1.429 . S
C2025 C2026 1.523 . S
C2026 C2007 1.368 . S
C2026 C2020 1.368 . S
C2026 C2025 1.523 . S
C2027 C2011 1.429 . S
C2027 C2023 1.429 . S
C2027 C2028 1.523 . S
C2028 C2012 1.368 . S
C2028 C2024 1.368 . S
C2028 C2027 1.523 . S
H2029 C2004 0.950 . S
H2030 C2006 0.950 . S
H2031 C2007 0.949 . S
H2032 C2009 0.950 . S
H2033 C2011 0.950 . S
C2034 C2035 1.349 . S
C2034 C2036 1.327 . S
C2034 H2059 0.950 . S
C2035 C2034 1.349 . S
C2035 C2051 1.349 . S
C2036 C2034 1.327 . S
C2036 C2055 1.429 . S
C2036 H2060 0.950 . S
C2037 C2054 1.574 . S
C2037 C2056 1.368 . S
C2037 H2061 0.949 . S
H2038 C2042 0.949 . S
C2039 C2040 1.349 . S
C2039 C2041 1.327 . S
C2039 H2062 0.950 . S
C2040 C2039 1.349 . S
C2040 C2052 1.349 . S
C2041 C2039 1.327 . S
C2041 C2057 1.429 . S
C2041 H2063 0.950 . S
C2042 H2038 0.949 . S
C2042 C2050 1.574 . S
C2042 C2058 1.368 . S
H2043 C2051 0.950 . S
H2044 C2049 0.950 . S
H2045 C2050 0.949 . S
H2046 C2052 0.950 . S
H2047 C2053 0.950 . S
H2048 C2054 0.949 . S
C2049 H2044 0.950 . S
C2049 C2051 1.327 . S
C2049 C2055 1.429 . S
C2050 C2042 1.574 . S
C2050 H2045 0.949 . S
C2050 C2056 1.368 . S
C2051 C2035 1.349 . S
C2051 H2043 0.950 . S
C2051 C2049 1.327 . S
C2052 C2040 1.349 . S
C2052 H2046 0.950 . S
C2052 C2053 1.327 . S
C2053 H2047 0.950 . S
C2053 C2052 1.327 . S
C2053 C2057 1.429 . S
C2054 C2037 1.574 . S
C2054 H2048 0.949 . S
C2054 C2058 1.368 . S
C2055 C2036 1.429 . S
C2055 C2049 1.429 . S
C2055 C2056 1.523 . S
C2056 C2037 1.368 . S
C2056 C2050 1.368 . S
C2056 C2055 1.523 . S
C2057 C2041 1.429 . S
C2057 C2053 1.429 . S
C2057 C2058 1.523 . S
C2058 C2042 1.368 . S
C2058 C2054 1.368 . S
C2058 C2057 1.523 . S
H2059 C2034 0.950 . S
H2060 C2036 0.950 . S
H2061 C2037 0.949 . S
H2062 C2039 0.950 . S
H2063 C2041 0.950 . S
C2064 C2065 1.349 . S
C2064 C2066 1.327 . S
C2064 H2089 0.950 . S
C2065 C2064 1.349 . S
C2065 C2081 1.349 . S
C2066 C2064 1.327 . S
C2066 C2085 1.429 . S
C2066 H2090 0.950 . S
C2067 C2084 1.574 . S
C2067 C2086 1.368 . S
C2067 H2091 0.949 . S
H2068 C2072 0.949 . S
C2069 C2070 1.349 . S
C2069 C2071 1.327 . S
C2069 H2092 0.950 . S
C2070 C2069 1.349 . S
C2070 C2082 1.349 . S
C2071 C2069 1.327 . S
C2071 C2087 1.429 . S
C2071 H2093 0.950 . S
C2072 H2068 0.949 . S
C2072 C2080 1.574 . S
C2072 C2088 1.368 . S
H2073 C2081 0.950 . S
H2074 C2079 0.950 . S
H2075 C2080 0.949 . S
H2076 C2082 0.950 . S
H2077 C2083 0.950 . S
H2078 C2084 0.949 . S
C2079 H2074 0.950 . S
C2079 C2081 1.327 . S
C2079 C2085 1.429 . S
C2080 C2072 1.574 . S
C2080 H2075 0.949 . S
C2080 C2086 1.368 . S
C2081 C2065 1.349 . S
C2081 H2073 0.950 . S
C2081 C2079 1.327 . S
C2082 C2070 1.349 . S
C2082 H2076 0.950 . S
C2082 C2083 1.327 . S
C2083 H2077 0.950 . S
C2083 C2082 1.327 . S
C2083 C2087 1.429 . S
C2084 C2067 1.574 . S
C2084 H2078 0.949 . S
C2084 C2088 1.368 . S
C2085 C2066 1.429 . S
C2085 C2079 1.429 . S
C2085 C2086 1.523 . S
C2086 C2067 1.368 . S
C2086 C2080 1.368 . S
C2086 C2085 1.523 . S
C2087 C2071 1.429 . S
C2087 C2083 1.429 . S
C2087 C2088 1.523 . S
C2088 C2072 1.368 . S
C2088 C2084 1.368 . S
C2088 C2087 1.523 . S
H2089 C2064 0.950 . S
H2090 C2066 0.950 . S
H2091 C2067 0.949 . S
H2092 C2069 0.950 . S
H2093 C2071 0.950 . S
C2094 C2095 1.349 . S
C2094 C2096 1.327 . S
C2094 H2119 0.950 . S
C2095 C2094 1.349 . S
C2095 C2111 1.349 . S
C2096 C2094 1.327 . S
C2096 C2115 1.429 . S
C2096 H2120 0.950 . S
C2097 C2114 1.574 . S
C2097 C2116 1.368 . S
C2097 H2121 0.949 . S
H2098 C2102 0.949 . S
C2099 C2100 1.349 . S
C2099 C2101 1.327 . S
C2099 H2122 0.950 . S
C2100 C2099 1.349 . S
C2100 C2112 1.349 . S
C2101 C2099 1.327 . S
C2101 C2117 1.429 . S
C2101 H2123 0.950 . S
C2102 H2098 0.949 . S
C2102 C2110 1.574 . S
C2102 C2118 1.368 . S
H2103 C2111 0.950 . S
H2104 C2109 0.950 . S
H2105 C2110 0.949 . S
H2106 C2112 0.950 . S
H2107 C2113 0.950 . S
H2108 C2114 0.949 . S
C2109 H2104 0.950 . S
C2109 C2111 1.327 . S
C2109 C2115 1.429 . S
C2110 C2102 1.574 . S
C2110 H2105 0.949 . S
C2110 C2116 1.368 . S
C2111 C2095 1.349 . S
C2111 H2103 0.950 . S
C2111 C2109 1.327 . S
C2112 C2100 1.349 . S
C2112 H2106 0.950 . S
C2112 C2113 1.327 . S
C2113 H2107 0.950 . S
C2113 C2112 1.327 . S
C2113 C2117 1.429 . S
C2114 C2097 1.574 . S
C2114 H2108 0.949 . S
C2114 C2118 1.368 . S
C2115 C2096 1.429 . S
C2115 C2109 1.429 . S
C2115 C2116 1.523 . S
C2116 C2097 1.368 . S
C2116 C2110 1.368 . S
C2116 C2115 1.523 . S
C2117 C2101 1.429 . S
C2117 C2113 1.429 . S
C2117 C2118 1.523 . S
C2118 C2102 1.368 . S
C2118 C2114 1.368 . S
C2118 C2117 1.523 . S
H2119 C2094 0.950 . S
H2120 C2096 0.950 . S
H2121 C2097 0.949 . S
H2122 C2099 0.950 . S
H2123 C2101 0.950 . S
C2124 C2125 1.349 . S
C2124 C2126 1.327 . S
C2124 H2149 0.950 . S
C2125 C2124 1.349 . S
C2125 C2141 1.349 . S
C2126 C2124 1.327 . S
C2126 C2145 1.429 . S
C2126 H2150 0.950 . S
C2127 C2144 1.574 . S
C2127 C2146 1.368 . S
C2127 H2151 0.949 . S
H2128 C2132 0.949 . S
C2129 C2130 1.349 . S
C2129 C2131 1.327 . S
C2129 H2152 0.950 . S
C2130 C2129 1.349 . S
C2130 C2142 1.349 . S
C2131 C2129 1.327 . S
C2131 C2147 1.429 . S
C2131 H2153 0.950 . S
C2132 H2128 0.949 . S
C2132 C2140 1.574 . S
C2132 C2148 1.368 . S
H2133 C2141 0.950 . S
H2134 C2139 0.950 . S
H2135 C2140 0.949 . S
H2136 C2142 0.950 . S
H2137 C2143 0.950 . S
H2138 C2144 0.949 . S
C2139 H2134 0.950 . S
C2139 C2141 1.327 . S
C2139 C2145 1.429 . S
C2140 C2132 1.574 . S
C2140 H2135 0.949 . S
C2140 C2146 1.368 . S
C2141 C2125 1.349 . S
C2141 H2133 0.950 . S
C2141 C2139 1.327 . S
C2142 C2130 1.349 . S
C2142 H2136 0.950 . S
C2142 C2143 1.327 . S
C2143 H2137 0.950 . S
C2143 C2142 1.327 . S
C2143 C2147 1.429 . S
C2144 C2127 1.574 . S
C2144 H2138 0.949 . S
C2144 C2148 1.368 . S
C2145 C2126 1.429 . S
C2145 C2139 1.429 . S
C2145 C2146 1.523 . S
C2146 C2127 1.368 . S
C2146 C2140 1.368 . S
C2146 C2145 1.523 . S
C2147 C2131 1.429 . S
C2147 C2143 1.429 . S
C2147 C2148 1.523 . S
C2148 C2132 1.368 . S
C2148 C2144 1.368 . S
C2148 C2147 1.523 . S
H2149 C2124 0.950 . S
H2150 C2126 0.950 . S
H2151 C2127 0.949 . S
H2152 C2129 0.950 . S
H2153 C2131 0.950 . S
C2154 C2155 1.349 . S
C2154 C2156 1.327 . S
C2154 H2179 0.950 . S
C2155 C2154 1.349 . S
C2155 C2171 1.349 . S
C2156 C2154 1.327 . S
C2156 C2175 1.429 . S
C2156 H2180 0.950 . S
C2157 C2174 1.574 . S
C2157 C2176 1.368 . S
C2157 H2181 0.949 . S
H2158 C2162 0.934 1_565 S
C2159 C2160 1.349 . S
C2159 C2161 1.327 . S
C2159 H2182 0.950 . S
C2160 C2159 1.349 . S
C2160 C2172 1.349 . S
C2161 C2159 1.327 . S
C2161 C2177 1.429 . S
C2161 H2183 0.950 . S
C2162 H2158 0.934 1_545 S
C2162 C2170 1.574 1_545 S
C2162 C2178 1.368 . S
H2163 C2171 0.950 . S
H2164 C2169 0.975 . S
H2165 C2170 0.949 . S
H2166 C2172 0.950 . S
H2167 C2173 0.950 . S
H2168 C2174 0.949 . S
C2169 H2164 0.975 . S
C2169 C2171 1.328 1_545 S
C2169 C2175 1.404 1_545 S
C2170 C2162 1.574 1_565 S
C2170 H2165 0.949 . S
C2170 C2176 1.368 1_565 S
C2171 C2155 1.349 . S
C2171 H2163 0.950 . S
C2171 C2169 1.328 1_565 S
C2172 C2160 1.349 . S
C2172 H2166 0.950 . S
C2172 C2173 1.327 . S
C2173 H2167 0.950 . S
C2173 C2172 1.327 . S
C2173 C2177 1.429 . S
C2174 C2157 1.574 . S
C2174 H2168 0.949 . S
C2174 C2178 1.368 . S
C2175 C2156 1.429 . S
C2175 C2169 1.404 1_565 S
C2175 C2176 1.523 1_565 S
C2176 C2157 1.368 . S
C2176 C2170 1.368 1_545 S
C2176 C2175 1.523 1_545 S
C2177 C2161 1.429 . S
C2177 C2173 1.429 . S
C2177 C2178 1.523 . S
C2178 C2162 1.368 . S
C2178 C2174 1.368 . S
C2178 C2177 1.523 . S
H2179 C2154 0.950 . S
H2180 C2156 0.950 . S
H2181 C2157 0.949 . S
H2182 C2159 0.950 . S
H2183 C2161 0.950 . S
C2184 C2185 1.349 . S
C2184 C2186 1.327 . S
C2184 H2209 0.950 . S
C2185 C2184 1.349 . S
C2185 C2201 1.349 . S
C2186 C2184 1.327 . S
C2186 C2205 1.429 . S
C2186 H2210 0.950 . S
C2187 C2204 1.574 . S
C2187 C2206 1.368 . S
C2187 H2211 0.949 . S
H2188 C2192 0.949 . S
C2189 C2190 1.349 . S
C2189 C2191 1.327 . S
C2189 H2212 0.950 . S
C2190 C2189 1.349 . S
C2190 C2202 1.349 . S
C2191 C2189 1.327 . S
C2191 C2207 1.429 . S
C2191 H2213 0.950 . S
C2192 H2188 0.949 . S
C2192 C2200 1.574 . S
C2192 C2208 1.368 . S
H2193 C2201 0.950 . S
H2194 C2199 0.950 . S
H2195 C2200 0.949 . S
H2196 C2202 0.950 . S
H2197 C2203 0.950 . S
H2198 C2204 0.949 1_455 S
C2199 H2194 0.950 . S
C2199 C2201 1.327 . S
C2199 C2205 1.429 . S
C2200 C2192 1.574 . S
C2200 H2195 0.949 . S
C2200 C2206 1.368 . S
C2201 C2185 1.349 . S
C2201 H2193 0.950 . S
C2201 C2199 1.327 . S
C2202 C2190 1.349 . S
C2202 H2196 0.950 . S
C2202 C2203 1.327 . S
C2203 H2197 0.950 . S
C2203 C2202 1.327 . S
C2203 C2207 1.429 . S
C2204 C2187 1.574 . S
C2204 H2198 0.949 1_655 S
C2204 C2208 1.368 . S
C2205 C2186 1.429 . S
C2205 C2199 1.429 . S
C2205 C2206 1.523 . S
C2206 C2187 1.368 . S
C2206 C2200 1.368 . S
C2206 C2205 1.523 . S
C2207 C2191 1.429 . S
C2207 C2203 1.429 . S
C2207 C2208 1.523 1_455 S
C2208 C2192 1.368 . S
C2208 C2204 1.368 . S
C2208 C2207 1.523 1_655 S
H2209 C2184 0.950 . S
H2210 C2186 0.950 . S
H2211 C2187 0.949 . S
H2212 C2189 0.950 . S
H2213 C2191 0.950 . S
C2214 C2215 1.349 . S
C2214 C2216 1.327 . S
C2214 H2239 0.950 . S
C2215 C2214 1.349 . S
C2215 C2231 1.349 . S
C2216 C2214 1.327 . S
C2216 C2235 1.429 . S
C2216 H2240 0.950 . S
C2217 C2234 1.574 . S
C2217 C2236 1.368 . S
C2217 H2241 0.949 . S
H2218 C2222 0.949 . S
C2219 C2220 1.349 . S
C2219 C2221 1.327 . S
C2219 H2242 0.950 . S
C2220 C2219 1.349 . S
C2220 C2232 1.349 . S
C2221 C2219 1.327 . S
C2221 C2237 1.429 . S
C2221 H2243 0.950 . S
C2222 H2218 0.949 . S
C2222 C2230 1.574 . S
C2222 C2238 1.368 . S
H2223 C2231 0.950 . S
H2224 C2229 0.950 . S
H2225 C2230 0.949 . S
H2226 C2232 0.950 . S
H2227 C2233 0.950 . S
H2228 C2234 0.949 . S
C2229 H2224 0.950 . S
C2229 C2231 1.327 . S
C2229 C2235 1.429 . S
C2230 C2222 1.574 . S
C2230 H2225 0.949 . S
C2230 C2236 1.368 . S
C2231 C2215 1.349 . S
C2231 H2223 0.950 . S
C2231 C2229 1.327 . S
C2232 C2220 1.349 . S
C2232 H2226 0.950 . S
C2232 C2233 1.327 . S
C2233 H2227 0.950 . S
C2233 C2232 1.327 . S
C2233 C2237 1.429 . S
C2234 C2217 1.574 . S
C2234 H2228 0.949 . S
C2234 C2238 1.368 . S
C2235 C2216 1.429 . S
C2235 C2229 1.429 . S
C2235 C2236 1.523 . S
C2236 C2217 1.368 . S
C2236 C2230 1.368 . S
C2236 C2235 1.523 . S
C2237 C2221 1.429 . S
C2237 C2233 1.429 . S
C2237 C2238 1.523 . S
C2238 C2222 1.368 . S
C2238 C2234 1.368 . S
C2238 C2237 1.523 . S
H2239 C2214 0.950 . S
H2240 C2216 0.950 . S
H2241 C2217 0.949 . S
H2242 C2219 0.950 . S
H2243 C2221 0.950 . S
C2244 C2245 1.349 . S
C2244 C2246 1.327 . S
C2244 H2269 0.950 . S
C2245 C2244 1.349 . S
C2245 C2261 1.349 . S
C2246 C2244 1.327 . S
C2246 C2265 1.429 . S
C2246 H2270 0.950 1_545 S
C2247 C2264 1.574 1_545 S
C2247 C2266 1.368 1_545 S
C2247 H2271 0.949 . S
H2248 C2252 0.949 . S
C2249 C2250 1.349 . S
C2249 C2251 1.327 . S
C2249 H2272 0.950 . S
C2250 C2249 1.349 . S
C2250 C2262 1.349 . S
C2251 C2249 1.327 . S
C2251 C2267 1.429 . S
C2251 H2273 0.950 . S
C2252 H2248 0.949 . S
C2252 C2260 1.574 . S
C2252 C2268 1.368 . S
H2253 C2261 0.950 . S
H2254 C2259 0.950 . S
H2255 C2260 0.949 . S
H2256 C2262 0.950 . S
H2257 C2263 0.950 . S
H2258 C2264 0.949 . S
C2259 H2254 0.950 . S
C2259 C2261 1.327 . S
C2259 C2265 1.429 . S
C2260 C2252 1.574 . S
C2260 H2255 0.949 . S
C2260 C2266 1.368 . S
C2261 C2245 1.349 . S
C2261 H2253 0.950 . S
C2261 C2259 1.327 . S
C2262 C2250 1.349 . S
C2262 H2256 0.950 . S
C2262 C2263 1.327 . S
C2263 H2257 0.950 . S
C2263 C2262 1.327 . S
C2263 C2267 1.429 . S
C2264 C2247 1.574 1_565 S
C2264 H2258 0.949 . S
C2264 C2268 1.368 . S
C2265 C2246 1.429 . S
C2265 C2259 1.429 . S
C2265 C2266 1.523 1_545 S
C2266 C2247 1.368 1_565 S
C2266 C2260 1.368 . S
C2266 C2265 1.523 1_565 S
C2267 C2251 1.429 . S
C2267 C2263 1.429 . S
C2267 C2268 1.523 . S
C2268 C2252 1.368 . S
C2268 C2264 1.368 . S
C2268 C2267 1.523 . S
H2269 C2244 0.950 . S
H2270 C2246 0.950 1_565 S
H2271 C2247 0.949 . S
H2272 C2249 0.950 . S
H2273 C2251 0.950 . S
C2274 C2275 1.349 . S
C2274 C2276 1.327 . S
C2274 H2299 0.950 . S
C2275 C2274 1.349 . S
C2275 C2291 1.349 . S
C2276 C2274 1.327 . S
C2276 C2295 1.429 . S
C2276 H2300 0.950 . S
C2277 C2294 1.574 . S
C2277 C2296 1.368 . S
C2277 H2301 0.949 . S
H2278 C2282 0.949 . S
C2279 C2280 1.349 . S
C2279 C2281 1.327 . S
C2279 H2302 0.950 . S
C2280 C2279 1.349 . S
C2280 C2292 1.349 . S
C2281 C2279 1.327 . S
C2281 C2297 1.429 . S
C2281 H2303 0.950 . S
C2282 H2278 0.949 . S
C2282 C2290 1.574 . S
C2282 C2298 1.368 . S
H2283 C2291 0.950 . S
H2284 C2289 0.950 . S
H2285 C2290 0.949 . S
H2286 C2292 0.950 . S
H2287 C2293 0.950 . S
H2288 C2294 0.949 . S
C2289 H2284 0.950 . S
C2289 C2291 1.327 . S
C2289 C2295 1.429 . S
C2290 C2282 1.574 . S
C2290 H2285 0.949 . S
C2290 C2296 1.368 . S
C2291 C2275 1.349 . S
C2291 H2283 0.950 . S
C2291 C2289 1.327 . S
C2292 C2280 1.349 . S
C2292 H2286 0.950 . S
C2292 C2293 1.327 . S
C2293 H2287 0.950 . S
C2293 C2292 1.327 . S
C2293 C2297 1.429 . S
C2294 C2277 1.574 . S
C2294 H2288 0.949 . S
C2294 C2298 1.368 . S
C2295 C2276 1.429 . S
C2295 C2289 1.429 . S
C2295 C2296 1.523 . S
C2296 C2277 1.368 . S
C2296 C2290 1.368 . S
C2296 C2295 1.523 . S
C2297 C2281 1.429 . S
C2297 C2293 1.429 . S
C2297 C2298 1.523 1_655 S
C2298 C2282 1.368 . S
C2298 C2294 1.368 . S
C2298 C2297 1.523 1_455 S
H2299 C2274 0.950 . S
H2300 C2276 0.950 . S
H2301 C2277 0.949 . S
H2302 C2279 0.950 . S
H2303 C2281 0.950 . S
C2304 C2305 1.349 . S
C2304 C2306 1.327 . S
C2304 H2329 0.950 . S
C2305 C2304 1.349 . S
C2305 C2321 1.349 . S
C2306 C2304 1.327 . S
C2306 C2325 1.429 . S
C2306 H2330 0.950 . S
C2307 C2324 1.574 . S
C2307 C2326 1.368 . S
C2307 H2331 0.949 . S
H2308 C2312 0.949 . S
C2309 C2310 1.349 . S
C2309 C2311 1.327 . S
C2309 H2332 0.950 . S
C2310 C2309 1.349 . S
C2310 C2322 1.349 . S
C2311 C2309 1.327 . S
C2311 C2327 1.429 . S
C2311 H2333 0.950 . S
C2312 H2308 0.949 . S
C2312 C2320 1.574 . S
C2312 C2328 1.368 . S
H2313 C2321 0.950 . S
H2314 C2319 0.950 . S
H2315 C2320 0.949 . S
H2316 C2322 0.950 . S
H2317 C2323 0.950 . S
H2318 C2324 0.949 . S
C2319 H2314 0.950 . S
C2319 C2321 1.327 . S
C2319 C2325 1.429 . S
C2320 C2312 1.574 . S
C2320 H2315 0.949 . S
C2320 C2326 1.368 . S
C2321 C2305 1.349 . S
C2321 H2313 0.950 . S
C2321 C2319 1.327 . S
C2322 C2310 1.349 . S
C2322 H2316 0.950 . S
C2322 C2323 1.327 . S
C2323 H2317 0.950 . S
C2323 C2322 1.327 . S
C2323 C2327 1.429 . S
C2324 C2307 1.574 . S
C2324 H2318 0.949 . S
C2324 C2328 1.368 . S
C2325 C2306 1.429 . S
C2325 C2319 1.429 . S
C2325 C2326 1.523 . S
C2326 C2307 1.368 . S
C2326 C2320 1.368 . S
C2326 C2325 1.523 . S
C2327 C2311 1.429 . S
C2327 C2323 1.429 . S
C2327 C2328 1.523 . S
C2328 C2312 1.368 . S
C2328 C2324 1.368 . S
C2328 C2327 1.523 . S
H2329 C2304 0.950 . S
H2330 C2306 0.950 . S
H2331 C2307 0.949 . S
H2332 C2309 0.950 . S
H2333 C2311 0.950 . S
C2334 C2335 1.349 . S
C2334 C2336 1.327 . S
C2334 H2359 0.950 . S
C2335 C2334 1.349 . S
C2335 C2351 1.349 . S
C2336 C2334 1.327 . S
C2336 C2355 1.429 . S
C2336 H2360 0.950 . S
C2337 C2354 1.574 . S
C2337 C2356 1.368 . S
C2337 H2361 0.949 . S
H2338 C2342 0.949 . S
C2339 C2340 1.349 . S
C2339 C2341 1.327 . S
C2339 H2362 0.950 . S
C2340 C2339 1.349 . S
C2340 C2352 1.349 . S
C2341 C2339 1.327 . S
C2341 C2357 1.429 . S
C2341 H2363 0.950 . S
C2342 H2338 0.949 . S
C2342 C2350 1.574 1_545 S
C2342 C2358 1.366 . S
H2343 C2351 0.950 . S
H2344 C2349 0.950 . S
H2345 C2350 0.949 . S
H2346 C2352 0.950 . S
H2347 C2353 0.950 . S
H2348 C2354 0.949 . S
C2349 H2344 0.950 . S
C2349 C2351 1.327 . S
C2349 C2355 1.429 . S
C2350 C2342 1.574 1_565 S
C2350 H2345 0.949 . S
C2350 C2356 1.368 . S
C2351 C2335 1.349 . S
C2351 H2343 0.950 . S
C2351 C2349 1.327 . S
C2352 C2340 1.349 . S
C2352 H2346 0.950 . S
C2352 C2353 1.327 . S
C2353 H2347 0.950 . S
C2353 C2352 1.327 . S
C2353 C2357 1.429 . S
C2354 C2337 1.574 . S
C2354 H2348 0.949 . S
C2354 C2358 1.370 1_565 S
C2355 C2336 1.429 . S
C2355 C2349 1.429 . S
C2355 C2356 1.523 . S
C2356 C2337 1.368 . S
C2356 C2350 1.368 . S
C2356 C2355 1.523 . S
C2357 C2341 1.429 . S
C2357 C2353 1.429 . S
C2357 C2358 1.523 . S
C2358 C2342 1.366 . S
C2358 C2354 1.370 1_545 S
C2358 C2357 1.523 . S
H2359 C2334 0.950 . S
H2360 C2336 0.950 . S
H2361 C2337 0.949 . S
H2362 C2339 0.950 . S
H2363 C2341 0.950 . S
C2364 C2365 1.349 . S
C2364 C2366 1.327 . S
C2364 H2389 0.950 . S
C2365 C2364 1.349 . S
C2365 C2381 1.349 . S
C2366 C2364 1.327 . S
C2366 C2385 1.429 . S
C2366 H2390 0.950 . S
C2367 C2384 1.574 . S
C2367 C2386 1.368 1_655 S
C2367 H2391 0.949 . S
H2368 C2372 0.949 . S
C2369 C2370 1.349 . S
C2369 C2371 1.327 . S
C2369 H2392 0.950 . S
C2370 C2369 1.349 . S
C2370 C2382 1.349 . S
C2371 C2369 1.327 . S
C2371 C2387 1.429 . S
C2371 H2393 0.950 . S
C2372 H2368 0.949 . S
C2372 C2380 1.574 . S
C2372 C2388 1.368 1_455 S
H2373 C2381 0.950 . S
H2374 C2379 0.950 . S
H2375 C2380 0.949 . S
H2376 C2382 0.950 . S
H2377 C2383 0.950 1_455 S
H2378 C2384 0.949 . S
C2379 H2374 0.950 . S
C2379 C2381 1.327 . S
C2379 C2385 1.429 . S
C2380 C2372 1.574 . S
C2380 H2375 0.949 . S
C2380 C2386 1.368 . S
C2381 C2365 1.349 . S
C2381 H2373 0.950 . S
C2381 C2379 1.327 . S
C2382 C2370 1.349 . S
C2382 H2376 0.950 . S
C2382 C2383 1.327 . S
C2383 H2377 0.950 1_655 S
C2383 C2382 1.327 . S
C2383 C2387 1.429 . S
C2384 C2367 1.574 . S
C2384 H2378 0.949 . S
C2384 C2388 1.368 . S
C2385 C2366 1.429 . S
C2385 C2379 1.429 . S
C2385 C2386 1.523 . S
C2386 C2367 1.368 1_455 S
C2386 C2380 1.368 . S
C2386 C2385 1.523 . S
C2387 C2371 1.429 . S
C2387 C2383 1.429 . S
C2387 C2388 1.523 . S
C2388 C2372 1.368 1_655 S
C2388 C2384 1.368 . S
C2388 C2387 1.523 . S
H2389 C2364 0.950 . S
H2390 C2366 0.950 . S
H2391 C2367 0.949 . S
H2392 C2369 0.950 . S
H2393 C2371 0.950 . S
C2394 C2395 1.349 . S
C2394 C2396 1.327 . S
C2394 H2419 0.950 . S
C2395 C2394 1.349 . S
C2395 C2411 1.349 . S
C2396 C2394 1.327 . S
C2396 C2415 1.429 . S
C2396 H2420 0.950 . S
C2397 C2414 1.574 . S
C2397 C2416 1.368 . S
C2397 H2421 0.949 . S
H2398 C2402 0.949 . S
C2399 C2400 1.349 . S
C2399 C2401 1.327 . S
C2399 H2422 0.950 . S
C2400 C2399 1.349 . S
C2400 C2412 1.349 . S
C2401 C2399 1.327 . S
C2401 C2417 1.429 . S
C2401 H2423 0.950 . S
C2402 H2398 0.949 . S
C2402 C2410 1.574 . S
C2402 C2418 1.368 . S
H2403 C2411 0.950 . S
H2404 C2409 0.950 . S
H2405 C2410 0.949 . S
H2406 C2412 0.950 . S
H2407 C2413 0.950 . S
H2408 C2414 0.949 . S
C2409 H2404 0.950 . S
C2409 C2411 1.327 . S
C2409 C2415 1.429 . S
C2410 C2402 1.574 . S
C2410 H2405 0.949 . S
C2410 C2416 1.368 . S
C2411 C2395 1.349 . S
C2411 H2403 0.950 . S
C2411 C2409 1.327 . S
C2412 C2400 1.349 . S
C2412 H2406 0.950 . S
C2412 C2413 1.327 . S
C2413 H2407 0.950 . S
C2413 C2412 1.327 . S
C2413 C2417 1.429 . S
C2414 C2397 1.574 . S
C2414 H2408 0.949 . S
C2414 C2418 1.368 . S
C2415 C2396 1.429 . S
C2415 C2409 1.429 . S
C2415 C2416 1.523 . S
C2416 C2397 1.368 . S
C2416 C2410 1.368 . S
C2416 C2415 1.523 . S
C2417 C2401 1.429 . S
C2417 C2413 1.429 . S
C2417 C2418 1.523 . S
C2418 C2402 1.368 . S
C2418 C2414 1.368 . S
C2418 C2417 1.523 . S
H2419 C2394 0.950 . S
H2420 C2396 0.950 . S
H2421 C2397 0.949 . S
H2422 C2399 0.950 . S
H2423 C2401 0.950 . S
C2424 C2425 1.349 . S
C2424 C2426 1.327 . S
C2424 H2449 0.950 . S
C2425 C2424 1.349 . S
C2425 C2441 1.349 . S
C2426 C2424 1.327 . S
C2426 C2445 1.429 . S
C2426 H2450 0.950 . S
C2427 C2444 1.574 . S
C2427 C2446 1.368 . S
C2427 H2451 0.949 . S
H2428 C2432 0.949 . S
C2429 C2430 1.349 . S
C2429 C2431 1.327 . S
C2429 H2452 0.950 . S
C2430 C2429 1.349 . S
C2430 C2442 1.349 . S
C2431 C2429 1.327 . S
C2431 C2447 1.429 . S
C2431 H2453 0.950 . S
C2432 H2428 0.949 . S
C2432 C2440 1.574 . S
C2432 C2448 1.370 1_545 S
H2433 C2441 0.950 . S
H2434 C2439 0.950 . S
H2435 C2440 0.949 . S
H2436 C2442 0.950 . S
H2437 C2443 0.950 . S
H2438 C2444 0.949 1_565 S
C2439 H2434 0.950 . S
C2439 C2441 1.327 . S
C2439 C2445 1.429 . S
C2440 C2432 1.574 . S
C2440 H2435 0.949 . S
C2440 C2446 1.368 . S
C2441 C2425 1.349 . S
C2441 H2433 0.950 . S
C2441 C2439 1.327 . S
C2442 C2430 1.349 . S
C2442 H2436 0.950 . S
C2442 C2443 1.327 . S
C2443 H2437 0.950 . S
C2443 C2442 1.327 . S
C2443 C2447 1.429 . S
C2444 C2427 1.574 . S
C2444 H2438 0.949 1_545 S
C2444 C2448 1.370 1_545 S
C2445 C2426 1.429 . S
C2445 C2439 1.429 . S
C2445 C2446 1.523 . S
C2446 C2427 1.368 . S
C2446 C2440 1.368 . S
C2446 C2445 1.523 . S
C2447 C2431 1.429 . S
C2447 C2443 1.429 . S
C2447 C2448 1.519 . S
C2448 C2432 1.370 1_565 S
C2448 C2444 1.370 1_565 S
C2448 C2447 1.519 . S
H2449 C2424 0.950 . S
H2450 C2426 0.950 . S
H2451 C2427 0.949 . S
H2452 C2429 0.950 . S
H2453 C2431 0.950 . S
C2454 C2455 1.349 . S
C2454 C2456 1.327 . S
C2454 H2479 0.950 . S
C2455 C2454 1.349 . S
C2455 C2471 1.349 . S
C2456 C2454 1.327 . S
C2456 C2475 1.429 . S
C2456 H2480 0.950 1_455 S
C2457 C2474 1.574 1_455 S
C2457 C2476 1.368 . S
C2457 H2481 0.949 . S
H2458 C2462 0.949 . S
C2459 C2460 1.349 . S
C2459 C2461 1.327 . S
C2459 H2482 0.950 . S
C2460 C2459 1.349 . S
C2460 C2472 1.349 . S
C2461 C2459 1.327 . S
C2461 C2477 1.429 . S
C2461 H2483 0.950 . S
C2462 H2458 0.949 . S
C2462 C2470 1.574 . S
C2462 C2478 1.368 . S
H2463 C2471 0.950 . S
H2464 C2469 0.950 . S
H2465 C2470 0.949 . S
H2466 C2472 0.950 . S
H2467 C2473 0.950 . S
H2468 C2474 0.959 . S
C2469 H2464 0.950 . S
C2469 C2471 1.327 . S
C2469 C2475 1.429 . S
C2470 C2462 1.574 . S
C2470 H2465 0.949 . S
C2470 C2476 1.368 1_655 S
C2471 C2455 1.349 . S
C2471 H2463 0.950 . S
C2471 C2469 1.327 . S
C2472 C2460 1.349 . S
C2472 H2466 0.950 . S
C2472 C2473 1.327 . S
C2473 H2467 0.950 . S
C2473 C2472 1.327 . S
C2473 C2477 1.429 . S
C2474 C2457 1.574 1_655 S
C2474 H2468 0.959 . S
C2474 C2478 1.368 . S
C2475 C2456 1.429 . S
C2475 C2469 1.429 . S
C2475 C2476 1.523 . S
C2476 C2457 1.368 . S
C2476 C2470 1.368 1_455 S
C2476 C2475 1.523 . S
C2477 C2461 1.429 . S
C2477 C2473 1.429 . S
C2477 C2478 1.523 . S
C2478 C2462 1.368 . S
C2478 C2474 1.368 . S
C2478 C2477 1.523 . S
H2479 C2454 0.950 . S
H2480 C2456 0.950 1_655 S
H2481 C2457 0.949 . S
H2482 C2459 0.950 . S
H2483 C2461 0.950 . S
C2484 C2485 1.349 . S
C2484 C2486 1.327 . S
C2484 H2509 0.950 . S
C2485 C2484 1.349 . S
C2485 C2501 1.349 . S
C2486 C2484 1.327 . S
C2486 C2505 1.429 . S
C2486 H2510 0.950 . S
C2487 C2504 1.574 1_655 S
C2487 C2506 1.368 . S
C2487 H2511 0.949 . S
H2488 C2492 0.949 . S
C2489 C2490 1.349 . S
C2489 C2491 1.327 . S
C2489 H2512 0.950 . S
C2490 C2489 1.349 . S
C2490 C2502 1.349 . S
C2491 C2489 1.327 . S
C2491 C2507 1.429 . S
C2491 H2513 0.950 . S
C2492 H2488 0.949 . S
C2492 C2500 1.574 1_455 S
C2492 C2508 1.368 . S
H2493 C2501 0.950 . S
H2494 C2499 0.950 . S
H2495 C2500 0.949 . S
H2496 C2502 0.950 . S
H2497 C2503 0.950 . S
H2498 C2504 0.949 . S
C2499 H2494 0.950 . S
C2499 C2501 1.327 . S
C2499 C2505 1.429 . S
C2500 C2492 1.574 1_655 S
C2500 H2495 0.949 . S
C2500 C2506 1.368 . S
C2501 C2485 1.349 . S
C2501 H2493 0.950 . S
C2501 C2499 1.327 . S
C2502 C2490 1.349 . S
C2502 H2496 0.950 . S
C2502 C2503 1.327 . S
C2503 H2497 0.950 . S
C2503 C2502 1.327 . S
C2503 C2507 1.429 . S
C2504 C2487 1.574 1_455 S
C2504 H2498 0.949 . S
C2504 C2508 1.368 . S
C2505 C2486 1.429 . S
C2505 C2499 1.429 . S
C2505 C2506 1.523 . S
C2506 C2487 1.368 . S
C2506 C2500 1.368 . S
C2506 C2505 1.523 . S
C2507 C2491 1.429 . S
C2507 C2503 1.429 . S
C2507 C2508 1.523 . S
C2508 C2492 1.368 . S
C2508 C2504 1.368 . S
C2508 C2507 1.523 . S
H2509 C2484 0.950 . S
H2510 C2486 0.950 . S
H2511 C2487 0.949 . S
H2512 C2489 0.950 . S
H2513 C2491 0.950 . S
C2514 C2515 1.349 . S
C2514 C2516 1.327 . S
C2514 H2539 0.950 . S
C2515 C2514 1.349 . S
C2515 C2531 1.349 . S
C2516 C2514 1.327 . S
C2516 C2535 1.429 . S
C2516 H2540 0.950 . S
C2517 C2534 1.574 . S
C2517 C2536 1.368 . S
C2517 H2541 0.949 . S
H2518 C2522 0.949 . S
C2519 C2520 1.349 . S
C2519 C2521 1.327 . S
C2519 H2542 0.950 . S
C2520 C2519 1.349 . S
C2520 C2532 1.349 . S
C2521 C2519 1.327 . S
C2521 C2537 1.429 . S
C2521 H2543 0.950 . S
C2522 H2518 0.949 . S
C2522 C2530 1.574 . S
C2522 C2538 1.368 . S
H2523 C2531 0.950 . S
H2524 C2529 0.950 . S
H2525 C2530 0.949 . S
H2526 C2532 0.950 . S
H2527 C2533 0.950 . S
H2528 C2534 0.949 . S
C2529 H2524 0.950 . S
C2529 C2531 1.327 . S
C2529 C2535 1.429 . S
C2530 C2522 1.574 . S
C2530 H2525 0.949 . S
C2530 C2536 1.368 . S
C2531 C2515 1.349 . S
C2531 H2523 0.950 . S
C2531 C2529 1.327 . S
C2532 C2520 1.349 . S
C2532 H2526 0.950 . S
C2532 C2533 1.327 . S
C2533 H2527 0.950 . S
C2533 C2532 1.327 . S
C2533 C2537 1.429 . S
C2534 C2517 1.574 . S
C2534 H2528 0.949 . S
C2534 C2538 1.368 . S
C2535 C2516 1.429 . S
C2535 C2529 1.429 . S
C2535 C2536 1.523 . S
C2536 C2517 1.368 . S
C2536 C2530 1.368 . S
C2536 C2535 1.523 . S
C2537 C2521 1.429 . S
C2537 C2533 1.429 . S
C2537 C2538 1.523 . S
C2538 C2522 1.368 . S
C2538 C2534 1.368 . S
C2538 C2537 1.523 . S
H2539 C2514 0.950 . S
H2540 C2516 0.950 . S
H2541 C2517 0.949 . S
H2542 C2519 0.950 . S
H2543 C2521 0.950 . S
C2544 C2545 1.349 . S
C2544 C2546 1.327 . S
C2544 H2569 0.950 . S
C2545 C2544 1.349 . S
C2545 C2561 1.349 . S
C2546 C2544 1.327 . S
C2546 C2565 1.429 . S
C2546 H2570 0.950 . S
C2547 C2564 1.574 1_565 S
C2547 C2566 1.368 . S
C2547 H2571 0.949 . S
H2548 C2552 0.949 . S
C2549 C2550 1.349 . S
C2549 C2551 1.327 . S
C2549 H2572 0.950 . S
C2550 C2549 1.349 . S
C2550 C2562 1.349 . S
C2551 C2549 1.327 . S
C2551 C2567 1.429 . S
C2551 H2573 0.950 . S
C2552 H2548 0.949 . S
C2552 C2560 1.574 1_545 S
C2552 C2568 1.368 . S
H2553 C2561 0.950 . S
H2554 C2559 0.950 . S
H2555 C2560 0.949 . S
H2556 C2562 0.950 . S
H2557 C2563 0.950 . S
H2558 C2564 0.949 . S
C2559 H2554 0.950 . S
C2559 C2561 1.327 . S
C2559 C2565 1.429 . S
C2560 C2552 1.574 1_565 S
C2560 H2555 0.949 . S
C2560 C2566 1.368 . S
C2561 C2545 1.349 . S
C2561 H2553 0.950 . S
C2561 C2559 1.327 . S
C2562 C2550 1.349 . S
C2562 H2556 0.950 . S
C2562 C2563 1.327 . S
C2563 H2557 0.950 . S
C2563 C2562 1.327 . S
C2563 C2567 1.429 . S
C2564 C2547 1.574 1_545 S
C2564 H2558 0.949 . S
C2564 C2568 1.368 . S
C2565 C2546 1.429 . S
C2565 C2559 1.429 . S
C2565 C2566 1.523 . S
C2566 C2547 1.368 . S
C2566 C2560 1.368 . S
C2566 C2565 1.523 . S
C2567 C2551 1.429 . S
C2567 C2563 1.429 . S
C2567 C2568 1.523 . S
C2568 C2552 1.368 . S
C2568 C2564 1.368 . S
C2568 C2567 1.523 . S
H2569 C2544 0.950 . S
H2570 C2546 0.950 . S
H2571 C2547 0.949 . S
H2572 C2549 0.950 . S
H2573 C2551 0.950 . S
C2574 C2575 1.349 . S
C2574 C2576 1.327 . S
C2574 H2599 0.950 . S
C2575 C2574 1.349 . S
C2575 C2591 1.349 . S
C2576 C2574 1.327 . S
C2576 C2595 1.429 . S
C2576 H2600 0.950 . S
C2577 C2594 1.574 1_565 S
C2577 C2596 1.368 . S
C2577 H2601 0.949 . S
H2578 C2582 0.949 . S
C2579 C2580 1.349 . S
C2579 C2581 1.327 . S
C2579 H2602 0.950 . S
C2580 C2579 1.349 . S
C2580 C2592 1.349 . S
C2581 C2579 1.327 . S
C2581 C2597 1.429 . S
C2581 H2603 0.950 . S
C2582 H2578 0.949 . S
C2582 C2590 1.574 1_545 S
C2582 C2598 1.368 . S
H2583 C2591 0.950 . S
H2584 C2589 0.950 . S
H2585 C2590 0.949 . S
H2586 C2592 0.950 . S
H2587 C2593 0.950 . S
H2588 C2594 0.949 . S
C2589 H2584 0.950 . S
C2589 C2591 1.327 . S
C2589 C2595 1.429 . S
C2590 C2582 1.574 1_565 S
C2590 H2585 0.949 . S
C2590 C2596 1.368 . S
C2591 C2575 1.349 . S
C2591 H2583 0.950 . S
C2591 C2589 1.327 . S
C2592 C2580 1.349 . S
C2592 H2586 0.950 . S
C2592 C2593 1.327 . S
C2593 H2587 0.950 . S
C2593 C2592 1.327 . S
C2593 C2597 1.429 . S
C2594 C2577 1.574 1_545 S
C2594 H2588 0.949 . S
C2594 C2598 1.368 . S
C2595 C2576 1.429 . S
C2595 C2589 1.429 . S
C2595 C2596 1.523 . S
C2596 C2577 1.368 . S
C2596 C2590 1.368 . S
C2596 C2595 1.523 . S
C2597 C2581 1.429 . S
C2597 C2593 1.429 . S
C2597 C2598 1.523 . S
C2598 C2582 1.368 . S
C2598 C2594 1.368 . S
C2598 C2597 1.523 . S
H2599 C2574 0.950 . S
H2600 C2576 0.950 . S
H2601 C2577 0.949 . S
H2602 C2579 0.950 . S
H2603 C2581 0.950 . S
C2604 C2605 1.349 . S
C2604 C2606 1.327 . S
C2604 H2629 0.950 . S
C2605 C2604 1.349 . S
C2605 C2621 1.349 . S
C2606 C2604 1.327 . S
C2606 C2625 1.429 . S
C2606 H2630 0.950 . S
C2607 C2624 1.574 1_655 S
C2607 C2626 1.368 . S
C2607 H2631 0.949 . S
H2608 C2612 0.949 . S
C2609 C2610 1.349 . S
C2609 C2611 1.327 . S
C2609 H2632 0.950 . S
C2610 C2609 1.349 . S
C2610 C2622 1.349 . S
C2611 C2609 1.327 . S
C2611 C2627 1.429 . S
C2611 H2633 0.950 . S
C2612 H2608 0.949 . S
C2612 C2620 1.574 1_455 S
C2612 C2628 1.368 . S
H2613 C2621 0.950 . S
H2614 C2619 0.950 . S
H2615 C2620 0.949 . S
H2616 C2622 0.950 . S
H2617 C2623 0.950 . S
H2618 C2624 0.949 . S
C2619 H2614 0.950 . S
C2619 C2621 1.327 . S
C2619 C2625 1.429 . S
C2620 C2612 1.574 1_655 S
C2620 H2615 0.949 . S
C2620 C2626 1.368 . S
C2621 C2605 1.349 . S
C2621 H2613 0.950 . S
C2621 C2619 1.327 . S
C2622 C2610 1.349 . S
C2622 H2616 0.950 . S
C2622 C2623 1.327 . S
C2623 H2617 0.950 . S
C2623 C2622 1.327 . S
C2623 C2627 1.429 . S
C2624 C2607 1.574 1_455 S
C2624 H2618 0.949 . S
C2624 C2628 1.368 . S
C2625 C2606 1.429 . S
C2625 C2619 1.429 . S
C2625 C2626 1.523 . S
C2626 C2607 1.368 . S
C2626 C2620 1.368 . S
C2626 C2625 1.523 . S
C2627 C2611 1.429 . S
C2627 C2623 1.429 . S
C2627 C2628 1.523 . S
C2628 C2612 1.368 . S
C2628 C2624 1.368 . S
C2628 C2627 1.523 . S
H2629 C2604 0.950 . S
H2630 C2606 0.950 . S
H2631 C2607 0.949 . S
H2632 C2609 0.950 . S
H2633 C2611 0.950 . S
C2634 C2635 1.349 . S
C2634 C2636 1.327 . S
C2634 H2659 0.950 . S
C2635 C2634 1.349 . S
C2635 C2651 1.349 . S
C2636 C2634 1.327 . S
C2636 C2655 1.429 . S
C2636 H2660 0.950 . S
C2637 C2654 1.574 . S
C2637 C2656 1.368 . S
C2637 H2661 0.949 . S
H2638 C2642 0.949 . S
C2639 C2640 1.349 . S
C2639 C2641 1.327 . S
C2639 H2662 0.950 . S
C2640 C2639 1.349 . S
C2640 C2652 1.349 . S
C2641 C2639 1.327 . S
C2641 C2657 1.429 . S
C2641 H2663 0.950 . S
C2642 H2638 0.949 . S
C2642 C2650 1.574 . S
C2642 C2658 1.368 . S
H2643 C2651 0.950 . S
H2644 C2649 0.950 . S
H2645 C2650 0.949 . S
H2646 C2652 0.950 . S
H2647 C2653 0.950 . S
H2648 C2654 0.949 . S
C2649 H2644 0.950 . S
C2649 C2651 1.327 . S
C2649 C2655 1.429 . S
C2650 C2642 1.574 . S
C2650 H2645 0.949 . S
C2650 C2656 1.368 . S
C2651 C2635 1.349 . S
C2651 H2643 0.950 . S
C2651 C2649 1.327 . S
C2652 C2640 1.349 . S
C2652 H2646 0.950 . S
C2652 C2653 1.327 . S
C2653 H2647 0.950 . S
C2653 C2652 1.327 . S
C2653 C2657 1.429 . S
C2654 C2637 1.574 . S
C2654 H2648 0.949 . S
C2654 C2658 1.368 . S
C2655 C2636 1.429 . S
C2655 C2649 1.429 . S
C2655 C2656 1.523 . S
C2656 C2637 1.368 . S
C2656 C2650 1.368 . S
C2656 C2655 1.523 . S
C2657 C2641 1.429 . S
C2657 C2653 1.429 . S
C2657 C2658 1.523 . S
C2658 C2642 1.368 . S
C2658 C2654 1.368 . S
C2658 C2657 1.523 . S
H2659 C2634 0.950 . S
H2660 C2636 0.950 . S
H2661 C2637 0.949 . S
H2662 C2639 0.950 . S
H2663 C2641 0.950 . S
C505 C8 1.267 . S
C510 C260 1.262 . S
C535 C17 1.381 . S
C540 C273 1.387 . S
C565 C287 1.375 . S
C570 C31 1.358 . S
C595 C45 1.358 . S
C600 C469 1.375 . S
C625 C483 1.387 . S
C630 C59 1.381 . S
C655 C78 1.266 . S
C660 C498 1.262 . S
C685 C344 1.267 . S
C690 C92 1.262 . S
C715 C105 1.387 . S
C720 C353 1.381 . S
C745 C119 1.375 . S
C750 C367 1.358 . S
C775 C133 1.375 . S
C780 C213 1.358 . S
C805 C227 1.381 . S
C810 C147 1.387 . S
C835 C162 1.262 . S
C840 C246 1.266 . S
C865 C176 1.267 . S
C870 C428 1.262 . S
C895 C185 1.381 . S
C900 C441 1.387 . S
C925 C199 1.358 . S
C930 C455 1.375 . S
C955 C301 1.375 . S
C960 C381 1.358 . S
C985 C315 1.387 . S
C990 C395 1.381 . S
C1015 C330 1.262 . S
C1020 C414 1.266 . S
C1045 C101 1.210 . S
C1050 C3 1.217 . S
C1075 C115 1.277 . S
C1080 C22 1.314 . S
C1105 C36 1.232 . S
C1110 C93 1.177 . S
C1135 C163 1.177 . S
C1140 C50 1.231 . S
C1165 C129 1.278 . S
C1170 C64 1.314 . S
C1195 C143 1.210 . S
C1200 C73 1.217 . S
C1225 C91 1.256 . S
C1230 C21 1.240 . S
C1255 C106 1.338 . S
C1260 C35 1.306 . S
C1285 C120 1.262 . S
C1290 C9 1.217 . S
C1315 C134 1.262 . S
C1320 C79 1.217 . S
C1345 C49 1.306 . S
C1350 C148 1.339 . S
C1375 C63 1.239 . S
C1380 C161 1.256 . S
C1405 C171 1.217 . S
C1410 C269 1.210 . S
C1435 C190 1.314 . S
C1440 C283 1.277 . S
C1465 C204 1.232 . S
C1470 C261 1.177 . S
C1495 C331 1.177 . S
C1500 C218 1.231 . S
C1525 C232 1.314 . S
C1530 C297 1.278 . S
C1555 C311 1.210 . S
C1560 C241 1.217 . S
C1585 C259 1.256 . S
C1590 C189 1.240 . S
C1615 C203 1.306 . S
C1620 C274 1.338 . S
C1645 C177 1.217 . S
C1650 C288 1.262 . S
C1675 C302 1.262 . S
C1680 C247 1.217 . S
C1705 C316 1.339 . S
C1710 C217 1.306 . S
C1735 C329 1.256 . S
C1740 C231 1.239 . S
C1765 C437 1.210 . S
C1770 C339 1.217 . S
C1795 C358 1.314 . S
C1800 C451 1.277 . S
C1825 C372 1.232 . S
C1830 C429 1.177 . S
C1855 C499 1.177 . S
C1860 C386 1.231 . S
C1885 C465 1.278 . S
C1890 C400 1.314 . S
C1915 C479 1.210 . S
C1920 C409 1.217 . S
C1945 C357 1.240 . S
C1950 C427 1.256 . S
C1975 C371 1.306 . S
C1980 C442 1.338 . S
C2005 C345 1.217 . S
C2010 C456 1.262 . S
C2035 C470 1.262 . S
C2040 C415 1.217 . S
C2065 C385 1.306 . S
C2070 C484 1.339 . S
C2095 C497 1.256 . S
C2100 C399 1.239 . S
C2125 C7 0.766 . S
C2130 C413 0.766 . S
C2155 C387 0.810 . S
C2160 C23 0.810 . S
C2185 C37 0.810 . S
C2190 C401 0.810 . S
C2215 C51 0.810 . S
C2220 C191 0.810 . S
C2245 C205 0.810 . S
C2250 C65 0.810 . S
C2275 C77 0.766 . S
C2280 C175 0.766 . S
C2305 C325 0.789 . S
C2310 C87 0.789 . S
C2335 C107 0.829 . S
C2340 C303 0.828 . S
C2365 C121 0.829 . S
C2370 C317 0.829 . S
C2395 C135 0.828 . S
C2400 C443 0.829 . S
C2425 C149 0.829 . S
C2430 C457 0.829 . S
C2455 C423 0.789 . S
C2460 C157 0.789 . S
C2485 C219 0.810 . S
C2490 C359 0.810 . S
C2515 C373 0.810 . S
C2520 C233 0.810 . S
C2545 C343 0.766 . S
C2550 C245 0.766 . S
C2575 C493 0.789 . S
C2580 C255 0.789 . S
C2605 C275 0.829 . S
C2610 C471 0.828 . S
C2635 C289 0.829 . S
C2640 C485 0.829 . S
