# Generated by pormake.
# Topology fcj, (5)-cn, num edge types: 1
# Building blocks:
#     Node 0, Type 0, BuildingBlock: BEQFEK_clean_sbu_0, # of connection points: 5
#     Node 1, Type 0, BuildingBlock: BEQFEK_clean_sbu_0, # of connection points: 5
#     Node 2, Type 0, BuildingBlock: BEQFEK_clean_sbu_0, # of connection points: 5
#     Node 3, Type 0, BuildingBlock: BEQFEK_clean_sbu_0, # of connection points: 5
#     Node 4, Type 0, BuildingBlock: BEQFEK_clean_sbu_0, # of connection points: 5
#     Node 5, Type 0, BuildingBlock: BEQFEK_clean_sbu_0, # of connection points: 5
#     Node 6, Type 0, BuildingBlock: BEQFEK_clean_sbu_0, # of connection points: 5
#     Node 7, Type 0, BuildingBlock: BEQFEK_clean_sbu_0, # of connection points: 5
#     Node 8, Type 0, BuildingBlock: BEQFEK_clean_sbu_0, # of connection points: 5
#     Node 9, Type 0, BuildingBlock: BEQFEK_clean_sbu_0, # of connection points: 5
#     Node 10, Type 0, BuildingBlock: BEQFEK_clean_sbu_0, # of connection points: 5
#     Node 11, Type 0, BuildingBlock: BEQFEK_clean_sbu_0, # of connection points: 5
#     Node 12, Type 0, BuildingBlock: BEQFEK_clean_sbu_0, # of connection points: 5
#     Node 13, Type 0, BuildingBlock: BEQFEK_clean_sbu_0, # of connection points: 5
#     Node 14, Type 0, BuildingBlock: BEQFEK_clean_sbu_0, # of connection points: 5
#     Node 15, Type 0, BuildingBlock: BEQFEK_clean_sbu_0, # of connection points: 5
#     Node 16, Type 0, BuildingBlock: BEQFEK_clean_sbu_0, # of connection points: 5
#     Node 17, Type 0, BuildingBlock: BEQFEK_clean_sbu_0, # of connection points: 5
#     Node 18, Type 0, BuildingBlock: BEQFEK_clean_sbu_0, # of connection points: 5
#     Node 19, Type 0, BuildingBlock: BEQFEK_clean_sbu_0, # of connection points: 5
#     Node 20, Type 0, BuildingBlock: BEQFEK_clean_sbu_0, # of connection points: 5
#     Node 21, Type 0, BuildingBlock: BEQFEK_clean_sbu_0, # of connection points: 5
#     Node 22, Type 0, BuildingBlock: BEQFEK_clean_sbu_0, # of connection points: 5
#     Node 23, Type 0, BuildingBlock: BEQFEK_clean_sbu_0, # of connection points: 5
#     Edge 24, Type (0, 0), BuildingBlock: KIFKEQ_clean_linker_1, # of connection points: 2
#     Edge 25, Type (0, 0), BuildingBlock: KIFKEQ_clean_linker_1, # of connection points: 2
#     Edge 26, Type (0, 0), BuildingBlock: KIFKEQ_clean_linker_1, # of connection points: 2
#     Edge 27, Type (0, 0), BuildingBlock: KIFKEQ_clean_linker_1, # of connection points: 2
#     Edge 28, Type (0, 0), BuildingBlock: KIFKEQ_clean_linker_1, # of connection points: 2
#     Edge 29, Type (0, 0), BuildingBlock: KIFKEQ_clean_linker_1, # of connection points: 2
#     Edge 30, Type (0, 0), BuildingBlock: KIFKEQ_clean_linker_1, # of connection points: 2
#     Edge 31, Type (0, 0), BuildingBlock: KIFKEQ_clean_linker_1, # of connection points: 2
#     Edge 32, Type (0, 0), BuildingBlock: KIFKEQ_clean_linker_1, # of connection points: 2
#     Edge 33, Type (0, 0), BuildingBlock: KIFKEQ_clean_linker_1, # of connection points: 2
#     Edge 34, Type (0, 0), BuildingBlock: KIFKEQ_clean_linker_1, # of connection points: 2
#     Edge 35, Type (0, 0), BuildingBlock: KIFKEQ_clean_linker_1, # of connection points: 2
#     Edge 36, Type (0, 0), BuildingBlock: KIFKEQ_clean_linker_1, # of connection points: 2
#     Edge 37, Type (0, 0), BuildingBlock: KIFKEQ_clean_linker_1, # of connection points: 2
#     Edge 38, Type (0, 0), BuildingBlock: KIFKEQ_clean_linker_1, # of connection points: 2
#     Edge 39, Type (0, 0), BuildingBlock: KIFKEQ_clean_linker_1, # of connection points: 2
#     Edge 40, Type (0, 0), BuildingBlock: KIFKEQ_clean_linker_1, # of connection points: 2
#     Edge 41, Type (0, 0), BuildingBlock: KIFKEQ_clean_linker_1, # of connection points: 2
#     Edge 42, Type (0, 0), BuildingBlock: KIFKEQ_clean_linker_1, # of connection points: 2
#     Edge 43, Type (0, 0), BuildingBlock: KIFKEQ_clean_linker_1, # of connection points: 2
#     Edge 44, Type (0, 0), BuildingBlock: KIFKEQ_clean_linker_1, # of connection points: 2
#     Edge 45, Type (0, 0), BuildingBlock: KIFKEQ_clean_linker_1, # of connection points: 2
#     Edge 46, Type (0, 0), BuildingBlock: KIFKEQ_clean_linker_1, # of connection points: 2
#     Edge 47, Type (0, 0), BuildingBlock: KIFKEQ_clean_linker_1, # of connection points: 2
#     Edge 48, Type (0, 0), BuildingBlock: KIFKEQ_clean_linker_1, # of connection points: 2
#     Edge 49, Type (0, 0), BuildingBlock: KIFKEQ_clean_linker_1, # of connection points: 2
#     Edge 50, Type (0, 0), BuildingBlock: KIFKEQ_clean_linker_1, # of connection points: 2
#     Edge 51, Type (0, 0), BuildingBlock: KIFKEQ_clean_linker_1, # of connection points: 2
#     Edge 52, Type (0, 0), BuildingBlock: KIFKEQ_clean_linker_1, # of connection points: 2
#     Edge 53, Type (0, 0), BuildingBlock: KIFKEQ_clean_linker_1, # of connection points: 2
#     Edge 54, Type (0, 0), BuildingBlock: KIFKEQ_clean_linker_1, # of connection points: 2
#     Edge 55, Type (0, 0), BuildingBlock: KIFKEQ_clean_linker_1, # of connection points: 2
#     Edge 56, Type (0, 0), BuildingBlock: KIFKEQ_clean_linker_1, # of connection points: 2
#     Edge 57, Type (0, 0), BuildingBlock: KIFKEQ_clean_linker_1, # of connection points: 2
#     Edge 58, Type (0, 0), BuildingBlock: KIFKEQ_clean_linker_1, # of connection points: 2
#     Edge 59, Type (0, 0), BuildingBlock: KIFKEQ_clean_linker_1, # of connection points: 2
#     Edge 60, Type (0, 0), BuildingBlock: KIFKEQ_clean_linker_1, # of connection points: 2
#     Edge 61, Type (0, 0), BuildingBlock: KIFKEQ_clean_linker_1, # of connection points: 2
#     Edge 62, Type (0, 0), BuildingBlock: KIFKEQ_clean_linker_1, # of connection points: 2
#     Edge 63, Type (0, 0), BuildingBlock: KIFKEQ_clean_linker_1, # of connection points: 2
#     Edge 64, Type (0, 0), BuildingBlock: KIFKEQ_clean_linker_1, # of connection points: 2
#     Edge 65, Type (0, 0), BuildingBlock: KIFKEQ_clean_linker_1, # of connection points: 2
#     Edge 66, Type (0, 0), BuildingBlock: KIFKEQ_clean_linker_1, # of connection points: 2
#     Edge 67, Type (0, 0), BuildingBlock: KIFKEQ_clean_linker_1, # of connection points: 2
#     Edge 68, Type (0, 0), BuildingBlock: KIFKEQ_clean_linker_1, # of connection points: 2
#     Edge 69, Type (0, 0), BuildingBlock: KIFKEQ_clean_linker_1, # of connection points: 2
#     Edge 70, Type (0, 0), BuildingBlock: KIFKEQ_clean_linker_1, # of connection points: 2
#     Edge 71, Type (0, 0), BuildingBlock: KIFKEQ_clean_linker_1, # of connection points: 2
#     Edge 72, Type (0, 0), BuildingBlock: KIFKEQ_clean_linker_1, # of connection points: 2
#     Edge 73, Type (0, 0), BuildingBlock: KIFKEQ_clean_linker_1, # of connection points: 2
#     Edge 74, Type (0, 0), BuildingBlock: KIFKEQ_clean_linker_1, # of connection points: 2
#     Edge 75, Type (0, 0), BuildingBlock: KIFKEQ_clean_linker_1, # of connection points: 2
#     Edge 76, Type (0, 0), BuildingBlock: KIFKEQ_clean_linker_1, # of connection points: 2
#     Edge 77, Type (0, 0), BuildingBlock: KIFKEQ_clean_linker_1, # of connection points: 2
#     Edge 78, Type (0, 0), BuildingBlock: KIFKEQ_clean_linker_1, # of connection points: 2
#     Edge 79, Type (0, 0), BuildingBlock: KIFKEQ_clean_linker_1, # of connection points: 2
#     Edge 80, Type (0, 0), BuildingBlock: KIFKEQ_clean_linker_1, # of connection points: 2
#     Edge 81, Type (0, 0), BuildingBlock: KIFKEQ_clean_linker_1, # of connection points: 2
#     Edge 82, Type (0, 0), BuildingBlock: KIFKEQ_clean_linker_1, # of connection points: 2
#     Edge 83, Type (0, 0), BuildingBlock: KIFKEQ_clean_linker_1, # of connection points: 2
# Relax obj value: 0.323
# Max RMSD: 0.218
# Mean RMSD: 0.218
data_MOF--net-fcj--node1-BEQFEK_clean_sbu_0--edge1-KIFKEQ_clean_linker_1
_symmetry_space_group_name_H-M    P1
_symmetry_Int_Tables_number       1
_symmetry_cell_setting            triclinic
loop_
_symmetry_equiv_pos_as_xyz
'x, y, z'
_cell_length_a     52.995546
_cell_length_b     52.996595
_cell_length_c     52.998667
_cell_angle_alpha  90.03144
_cell_angle_beta   90.021014
_cell_angle_gamma 89.987719
loop_
_atom_site_label
_atom_site_type_symbol
_atom_site_fract_x
_atom_site_fract_y
_atom_site_fract_z
_atom_type_partial_charge
Co0 Co 0.09832 0.16739 0.32488 0.0
Co1 Co 0.06356 0.21045 0.34581 0.0
C2 C 0.04335 0.16024 0.32589 0.0
O3 O 0.06513 0.15083 0.32168 0.0
O4 O 0.04076 0.18249 0.33479 0.0
C5 C 0.13136 0.1237 0.30841 0.0
O6 O 0.11238 0.10784 0.30682 0.0
C7 C 0.02269 0.2329 0.37595 0.0
C8 C 0.03118 0.27351 0.37191 0.0
C9 C 0.01375 0.25677 0.38183 0.0
N10 N 0.04441 0.23546 0.36308 0.0
N11 N 0.04957 0.25977 0.36111 0.0
C12 C 0.00948 0.20827 0.3798 0.0
H13 H 0.99741 0.20435 0.36315 0.0
H14 H 0.0235 0.19281 0.3816 0.0
H15 H 0.99728 0.20883 0.39678 0.0
C16 C 0.12213 0.17402 0.37431 0.0
N17 N 0.10374 0.17956 0.35779 0.0
N18 N 0.09011 0.19829 0.36666 0.0
C19 C 0.09973 0.2055 0.38916 0.0
C20 C 0.12048 0.19039 0.39459 0.0
C21 C 0.14147 0.15379 0.37037 0.0
H22 H 0.13222 0.13653 0.36301 0.0
H23 H 0.15143 0.14912 0.38819 0.0
H24 H 0.15549 0.16032 0.35628 0.0
O25 O 0.09992 0.1951 0.30015 0.0
O26 O 0.0769 0.22674 0.31477 0.0
H27 H 0.09183 0.2449 0.39218 0.0
H28 H 0.10164 0.23036 0.42152 0.0
C29 C 0.09052 0.22767 0.40398 0.0
H30 H 0.07036 0.22483 0.40886 0.0
H31 H 0.06511 0.26699 0.35142 0.0
O32 O 0.12752 0.14636 0.31518 0.0
C33 C 0.09119 0.21733 0.29793 0.0
Co34 Co 0.57169 0.35148 0.06636 0.0
Co35 Co 0.53175 0.31491 0.09016 0.0
C36 C 0.58136 0.29658 0.06775 0.0
O37 O 0.58929 0.31873 0.06255 0.0
O38 O 0.55994 0.293 0.0782 0.0
C39 C 0.61439 0.38618 0.05133 0.0
O40 O 0.6316 0.36858 0.05427 0.0
C41 C 0.51126 0.27351 0.12106 0.0
C42 C 0.47057 0.28267 0.12027 0.0
C43 C 0.48775 0.26485 0.12859 0.0
N44 N 0.50804 0.2955 0.1088 0.0
N45 N 0.48373 0.30103 0.10874 0.0
C46 C 0.53591 0.25992 0.12283 0.0
H47 H 0.53909 0.24927 0.10507 0.0
H48 H 0.55152 0.2737 0.12508 0.0
H49 H 0.53602 0.24638 0.13877 0.0
C50 C 0.56719 0.37536 0.11607 0.0
N51 N 0.56118 0.35685 0.09984 0.0
N52 N 0.54386 0.3423 0.11001 0.0
C53 C 0.53815 0.35135 0.13318 0.0
C54 C 0.55266 0.37275 0.1376 0.0
C55 C 0.58674 0.39514 0.11108 0.0
H56 H 0.604 0.38609 0.1035 0.0
H57 H 0.59177 0.40568 0.12846 0.0
H58 H 0.57945 0.40859 0.09679 0.0
O59 O 0.5426 0.35189 0.04318 0.0
O60 O 0.51357 0.32668 0.05954 0.0
H61 H 0.49971 0.34151 0.14008 0.0
H62 H 0.51685 0.35109 0.16802 0.0
C63 C 0.51816 0.34063 0.14993 0.0
H64 H 0.5224 0.32049 0.15376 0.0
H65 H 0.47603 0.31685 0.09992 0.0
O66 O 0.59131 0.38118 0.05532 0.0
C67 C 0.52098 0.34156 0.04225 0.0
Co68 Co 0.40132 0.8294 0.82092 0.0
Co69 Co 0.43298 0.78456 0.8426 0.0
C70 C 0.45546 0.83535 0.8254 0.0
O71 O 0.43433 0.8462 0.82147 0.0
O72 O 0.45664 0.81242 0.83277 0.0
C73 C 0.3674 0.87331 0.80614 0.0
O74 O 0.38414 0.89073 0.8117 0.0
C75 C 0.47294 0.7617 0.87339 0.0
C76 C 0.46348 0.72123 0.87015 0.0
C77 C 0.48136 0.73774 0.87967 0.0
N78 N 0.4511 0.75939 0.86068 0.0
N79 N 0.44532 0.73519 0.85922 0.0
C80 C 0.48685 0.78606 0.87647 0.0
H81 H 0.49829 0.78956 0.8593 0.0
H82 H 0.47326 0.80183 0.87873 0.0
H83 H 0.49973 0.78547 0.89293 0.0
C84 C 0.37379 0.82173 0.86831 0.0
N85 N 0.39289 0.81595 0.8527 0.0
N86 N 0.40558 0.79678 0.86201 0.0
C87 C 0.39472 0.78959 0.88392 0.0
C88 C 0.37407 0.80511 0.88845 0.0
C89 C 0.35571 0.84302 0.86407 0.0
H90 H 0.36626 0.86004 0.85805 0.0
H91 H 0.34488 0.84755 0.8814 0.0
H92 H 0.34234 0.83777 0.84883 0.0
O93 O 0.40345 0.8031 0.79471 0.0
O94 O 0.42112 0.76874 0.81073 0.0
H95 H 0.40188 0.7501 0.88732 0.0
H96 H 0.39106 0.76481 0.91618 0.0
C97 C 0.40296 0.76733 0.89915 0.0
H98 H 0.42294 0.76988 0.90489 0.0
H99 H 0.42961 0.72814 0.84965 0.0
O100 O 0.37274 0.85014 0.80905 0.0
C101 C 0.41065 0.78034 0.79252 0.0
Co102 Co 0.91739 0.65077 0.57992 0.0
Co103 Co 0.95917 0.68582 0.60347 0.0
C104 C 0.91242 0.70661 0.57822 0.0
O105 O 0.90325 0.68477 0.57389 0.0
O106 O 0.93363 0.70943 0.58927 0.0
C107 C 0.8898 0.62017 0.54598 0.0
O108 O 0.89877 0.63665 0.52978 0.0
C109 C 0.98193 0.7272 0.63291 0.0
C110 C 0.01925 0.71104 0.64215 0.0
C111 C 0.00432 0.73223 0.6455 0.0
N112 N 0.98355 0.70404 0.62264 0.0
N113 N 0.00594 0.69455 0.62816 0.0
C114 C 0.95885 0.74341 0.63178 0.0
H115 H 0.94171 0.73149 0.63342 0.0
H116 H 0.95889 0.75776 0.64704 0.0
H117 H 0.95824 0.75314 0.61326 0.0
C118 C 0.91782 0.62975 0.63098 0.0
N119 N 0.92609 0.6466 0.61397 0.0
N120 N 0.94369 0.6608 0.62422 0.0
C121 C 0.94715 0.6533 0.64834 0.0
C122 C 0.93078 0.6335 0.65338 0.0
C123 C 0.89962 0.609 0.62488 0.0
H124 H 0.88151 0.61733 0.61848 0.0
H125 H 0.8961 0.5964 0.64117 0.0
H126 H 0.90733 0.59753 0.60915 0.0
O127 O 0.9472 0.64642 0.55824 0.0
O128 O 0.97734 0.67058 0.57433 0.0
H129 H 0.9851 0.65949 0.66029 0.0
H130 H 0.96263 0.65792 0.68582 0.0
C131 C 0.96574 0.6647 0.66625 0.0
H132 H 0.96406 0.68555 0.66585 0.0
H133 H 0.01209 0.67673 0.62245 0.0
O134 O 0.89392 0.62357 0.56935 0.0
C135 C 0.96953 0.65513 0.55766 0.0
Co136 Co 0.59463 0.33269 0.68014 0.0
Co137 Co 0.56303 0.28949 0.65458 0.0
C138 C 0.53943 0.33771 0.67478 0.0
O139 O 0.56051 0.34762 0.68081 0.0
O140 O 0.53822 0.31572 0.66507 0.0
C141 C 0.62664 0.37836 0.69196 0.0
O142 O 0.61419 0.39275 0.67608 0.0
C143 C 0.5245 0.26717 0.62141 0.0
C144 C 0.53927 0.22855 0.61607 0.0
C145 C 0.51951 0.24438 0.6096 0.0
N146 N 0.54628 0.26496 0.63425 0.0
N147 N 0.55496 0.2418 0.63102 0.0
C148 C 0.50936 0.29093 0.6198 0.0
H149 H 0.52216 0.30746 0.61865 0.0
H150 H 0.49667 0.2907 0.60314 0.0
H151 H 0.49776 0.29283 0.63711 0.0
C152 C 0.62364 0.32789 0.63277 0.0
N153 N 0.60386 0.32181 0.64744 0.0
N154 N 0.59076 0.30378 0.63643 0.0
C155 C 0.60178 0.29809 0.61413 0.0
C156 C 0.62307 0.31305 0.61127 0.0
C157 C 0.64285 0.34756 0.63928 0.0
H158 H 0.65173 0.34291 0.65765 0.0
H159 H 0.63327 0.36602 0.64092 0.0
H160 H 0.6577 0.34936 0.62468 0.0
O161 O 0.59538 0.30383 0.70343 0.0
O162 O 0.57475 0.27203 0.68578 0.0
H163 H 0.5966 0.25902 0.60599 0.0
H164 H 0.60364 0.27791 0.57864 0.0
C165 C 0.59325 0.27751 0.59681 0.0
H166 H 0.57275 0.27945 0.5931 0.0
H167 H 0.57157 0.235 0.63914 0.0
O168 O 0.62051 0.35536 0.69482 0.0
C169 C 0.58748 0.2812 0.70398 0.0
Co170 Co 0.42639 0.85169 0.42682 0.0
Co171 Co 0.46507 0.81391 0.40247 0.0
C172 C 0.41559 0.79686 0.42565 0.0
O173 O 0.40832 0.81918 0.43112 0.0
O174 O 0.43673 0.79279 0.41488 0.0
C175 C 0.38361 0.88615 0.44129 0.0
O176 O 0.36675 0.86862 0.43655 0.0
C177 C 0.48242 0.77213 0.37049 0.0
C178 C 0.52305 0.78069 0.36688 0.0
C179 C 0.50477 0.76325 0.36006 0.0
N180 N 0.48739 0.79363 0.38301 0.0
N181 N 0.51168 0.7987 0.38068 0.0
C182 C 0.45651 0.76134 0.36756 0.0
H183 H 0.45243 0.74881 0.38381 0.0
H184 H 0.4423 0.77672 0.36744 0.0
H185 H 0.45497 0.75023 0.34987 0.0
C186 C 0.42867 0.87359 0.37602 0.0
N187 N 0.43618 0.85641 0.39306 0.0
N188 N 0.45272 0.84113 0.38259 0.0
C189 C 0.45625 0.84823 0.35836 0.0
C190 C 0.44103 0.86896 0.35351 0.0
C191 C 0.41003 0.89416 0.38131 0.0
H192 H 0.4171 0.90603 0.39703 0.0
H193 H 0.39185 0.88564 0.38723 0.0
H194 H 0.4068 0.90636 0.36462 0.0
O195 O 0.45603 0.85179 0.44915 0.0
O196 O 0.48418 0.82555 0.43272 0.0
H197 H 0.49262 0.83489 0.3473 0.0
H198 H 0.4726 0.84409 0.32119 0.0
C199 C 0.47301 0.8349 0.34001 0.0
H200 H 0.46681 0.815 0.33812 0.0
H201 H 0.52052 0.81434 0.38874 0.0
O202 O 0.40693 0.88145 0.4383 0.0
C203 C 0.4774 0.84095 0.44985 0.0
Co204 Co 0.89233 0.68187 0.18047 0.0
Co205 Co 0.93363 0.71492 0.15353 0.0
C206 C 0.94738 0.66892 0.18353 0.0
O207 O 0.92431 0.66444 0.18891 0.0
O208 O 0.95368 0.6875 0.16957 0.0
C209 C 0.85726 0.64053 0.19583 0.0
O210 O 0.87426 0.6236 0.18956 0.0
C211 C 0.97772 0.7324 0.12389 0.0
C212 C 0.96288 0.7684 0.10896 0.0
C213 C 0.98387 0.75286 0.10877 0.0
N214 N 0.95406 0.73569 0.13249 0.0
N215 N 0.94541 0.75731 0.12359 0.0
C216 C 0.99348 0.7096 0.12919 0.0
H217 H 0.98154 0.69242 0.12849 0.0
H218 H 0.00914 0.70779 0.11542 0.0
H219 H 0.00147 0.71118 0.14848 0.0
C220 C 0.87221 0.67941 0.12892 0.0
N221 N 0.88951 0.68746 0.14563 0.0
N222 N 0.90655 0.70121 0.13393 0.0
C223 C 0.90062 0.70205 0.10911 0.0
C224 C 0.87875 0.68822 0.10526 0.0
C225 C 0.84916 0.66458 0.13578 0.0
H226 H 0.85489 0.64532 0.14161 0.0
H227 H 0.83569 0.66315 0.11983 0.0
H228 H 0.83947 0.67376 0.15189 0.0
O229 O 0.89181 0.71382 0.19882 0.0
O230 O 0.92178 0.73731 0.18155 0.0
H231 H 0.91285 0.73549 0.09038 0.0
H232 H 0.9105 0.70835 0.07007 0.0
C233 C 0.91598 0.71484 0.08922 0.0
H234 H 0.9363 0.71095 0.09229 0.0
H235 H 0.92745 0.76443 0.12744 0.0
O236 O 0.86219 0.66385 0.19329 0.0
C237 C 0.9046 0.73404 0.198 0.0
Co238 Co 0.07551 0.15104 0.932 0.0
Co239 Co 0.03469 0.18609 0.90756 0.0
C240 C 0.08512 0.20518 0.9286 0.0
O241 O 0.09393 0.18323 0.93314 0.0
O242 O 0.06298 0.20828 0.91951 0.0
C243 C 0.11775 0.11575 0.94654 0.0
O244 O 0.13525 0.13183 0.93954 0.0
C245 C 0.01537 0.22672 0.87501 0.0
C246 C 0.97565 0.21504 0.87011 0.0
C247 C 0.99283 0.23363 0.86357 0.0
N248 N 0.01158 0.20511 0.88774 0.0
N249 N 0.98781 0.19824 0.88471 0.0
C250 C 0.04047 0.23943 0.87283 0.0
H251 H 0.04338 0.25177 0.8895 0.0
H252 H 0.05574 0.2251 0.87259 0.0
H253 H 0.04152 0.25107 0.85546 0.0
C254 C 0.07155 0.12615 0.88262 0.0
N255 N 0.06413 0.14395 0.89909 0.0
N256 N 0.04709 0.15846 0.88837 0.0
C257 C 0.04315 0.15023 0.86453 0.0
C258 C 0.05859 0.12955 0.86023 0.0
C259 C 0.0909 0.10634 0.88821 0.0
H260 H 0.08471 0.0951 0.90472 0.0
H261 H 0.10906 0.11558 0.89298 0.0
H262 H 0.09381 0.09337 0.87204 0.0
O263 O 0.04767 0.1542 0.9563 0.0
O264 O 0.01605 0.17476 0.93817 0.0
H265 H 0.00628 0.16147 0.85284 0.0
H266 H 0.02717 0.15344 0.8271 0.0
C267 C 0.02598 0.16262 0.8459 0.0
H268 H 0.03106 0.18284 0.8441 0.0
H269 H 0.9799 0.18206 0.89267 0.0
O270 O 0.0946 0.12163 0.94463 0.0
C271 C 0.0254 0.16303 0.95688 0.0
Co272 Co 0.32111 0.10094 0.17385 0.0
Co273 Co 0.34573 0.06434 0.2135 0.0
C274 C 0.32392 0.04545 0.16457 0.0
O275 O 0.31823 0.06757 0.15692 0.0
O276 O 0.33449 0.04186 0.18587 0.0
C277 C 0.31276 0.13555 0.12973 0.0
O278 O 0.32918 0.12308 0.11597 0.0
C279 C 0.37636 0.02328 0.23511 0.0
C280 C 0.37656 0.03408 0.27539 0.0
C281 C 0.38419 0.0154 0.25878 0.0
N282 N 0.36461 0.04563 0.23765 0.0
N283 N 0.36517 0.05215 0.26171 0.0
C284 C 0.3774 0.00865 0.211 0.0
H285 H 0.35933 0.99838 0.20851 0.0
H286 H 0.37982 0.02172 0.19482 0.0
H287 H 0.39297 0.99468 0.2112 0.0
C288 C 0.37123 0.12552 0.17873 0.0
N289 N 0.35453 0.1074 0.18486 0.0
N290 N 0.36522 0.09171 0.2009 0.0
C291 C 0.3893 0.09905 0.2049 0.0
C292 C 0.39375 0.12069 0.19097 0.0
C293 C 0.36589 0.14735 0.16165 0.0
H294 H 0.34682 0.15497 0.16554 0.0
H295 H 0.36684 0.14089 0.14179 0.0
H296 H 0.37995 0.16266 0.16422 0.0
O297 O 0.29793 0.10136 0.20279 0.0
O298 O 0.31484 0.07602 0.23143 0.0
H299 H 0.40139 0.08562 0.24088 0.0
H300 H 0.42694 0.09371 0.21977 0.0
C301 C 0.40785 0.08517 0.22099 0.0
H302 H 0.40872 0.06515 0.21493 0.0
H303 H 0.3568 0.06846 0.26893 0.0
O304 O 0.30811 0.12858 0.1522 0.0
C305 C 0.29731 0.0908 0.2243 0.0
Co306 Co 0.6507 0.5741 0.9192 0.0
Co307 Co 0.68512 0.59815 0.96103 0.0
C308 C 0.70627 0.57133 0.91521 0.0
O309 O 0.68459 0.56733 0.9056 0.0
O310 O 0.70883 0.58266 0.93629 0.0
C311 C 0.61972 0.53957 0.89386 0.0
O312 O 0.63434 0.52389 0.90632 0.0
C313 C 0.72678 0.62836 0.98112 0.0
C314 C 0.71403 0.63586 0.02009 0.0
C315 C 0.73383 0.63997 0.00351 0.0
N316 N 0.70398 0.61776 0.98442 0.0
N317 N 0.69642 0.62239 0.00772 0.0
C318 C 0.74069 0.62834 0.95657 0.0
H319 H 0.72709 0.62924 0.94066 0.0
H320 H 0.7539 0.64454 0.95539 0.0
H321 H 0.75157 0.61053 0.95485 0.0
C322 C 0.63051 0.62541 0.91763 0.0
N323 N 0.6468 0.60836 0.92685 0.0
N324 N 0.66048 0.61876 0.94476 0.0
C325 C 0.65302 0.64298 0.94766 0.0
C326 C 0.63394 0.64794 0.9304 0.0
C327 C 0.61078 0.61946 0.89827 0.0
H328 H 0.59807 0.60462 0.90576 0.0
H329 H 0.62001 0.61189 0.88107 0.0
H330 H 0.59932 0.63621 0.89321 0.0
O331 O 0.64583 0.55334 0.94966 0.0
O332 O 0.66951 0.5698 0.97999 0.0
H333 H 0.65979 0.65361 0.98591 0.0
H334 H 0.65536 0.68 0.96472 0.0
C335 C 0.66368 0.66087 0.96668 0.0
H336 H 0.68443 0.66204 0.9643 0.0
H337 H 0.67933 0.61613 0.01522 0.0
O338 O 0.62418 0.56307 0.89524 0.0
C339 C 0.6541 0.55311 0.97217 0.0
Co340 Co 0.17681 0.90403 0.67057 0.0
Co341 Co 0.15324 0.93737 0.71368 0.0
C342 C 0.17482 0.95964 0.66558 0.0
O343 O 0.17988 0.93814 0.65601 0.0
O344 O 0.16477 0.96169 0.68737 0.0
C345 C 0.21164 0.87303 0.6452 0.0
O346 O 0.22738 0.88843 0.6566 0.0
C347 C 0.12261 0.97712 0.73756 0.0
C348 C 0.12344 0.96485 0.7774 0.0
C349 C 0.11523 0.98404 0.76169 0.0
N350 N 0.13464 0.95481 0.73899 0.0
N351 N 0.13471 0.94742 0.7628 0.0
C352 C 0.1211 0.99267 0.71407 0.0
H353 H 0.13918 0.00293 0.71156 0.0
H354 H 0.11828 0.98023 0.69746 0.0
H355 H 0.10561 0.00669 0.71515 0.0
C356 C 0.12799 0.87868 0.67469 0.0
N357 N 0.14368 0.89747 0.68117 0.0
N358 N 0.1336 0.9107 0.69959 0.0
C359 C 0.11099 0.90051 0.70552 0.0
C360 C 0.10685 0.87976 0.69 0.0
C361 C 0.1336 0.85957 0.65464 0.0
H362 H 0.14837 0.84645 0.66158 0.0
H363 H 0.14094 0.86922 0.63759 0.0
H364 H 0.11654 0.84859 0.64943 0.0
O365 O 0.20016 0.9015 0.69943 0.0
O366 O 0.18409 0.9243 0.73054 0.0
H367 H 0.10542 0.90651 0.74495 0.0
H368 H 0.07695 0.89835 0.72801 0.0
C369 C 0.09489 0.90908 0.72704 0.0
H370 H 0.09072 0.92949 0.72493 0.0
H371 H 0.14346 0.93099 0.76922 0.0
O372 O 0.18811 0.8773 0.6468 0.0
C373 C 0.20137 0.91014 0.72176 0.0
Co374 Co 0.8507 0.42432 0.42136 0.0
Co375 Co 0.81681 0.40396 0.46532 0.0
C376 C 0.79544 0.42563 0.41637 0.0
O377 O 0.81702 0.42913 0.40624 0.0
O378 O 0.79326 0.41652 0.43858 0.0
C379 C 0.88188 0.44184 0.37705 0.0
O380 O 0.8619 0.44771 0.36359 0.0
C381 C 0.77568 0.37504 0.48882 0.0
C382 C 0.79119 0.3681 0.52691 0.0
C383 C 0.77054 0.36335 0.51163 0.0
N384 N 0.79843 0.38615 0.49051 0.0
N385 N 0.80752 0.38203 0.51337 0.0
C386 C 0.76007 0.37437 0.46532 0.0
H387 H 0.77248 0.37217 0.4486 0.0
H388 H 0.74619 0.35869 0.46585 0.0
H389 H 0.74977 0.39249 0.46346 0.0
C390 C 0.87052 0.37284 0.42365 0.0
N391 N 0.85491 0.39089 0.43219 0.0
N392 N 0.84157 0.38203 0.45113 0.0
C393 C 0.84863 0.35786 0.45541 0.0
C394 C 0.8671 0.35135 0.43802 0.0
C395 C 0.88904 0.37654 0.40264 0.0
H396 H 0.90365 0.39018 0.4088 0.0
H397 H 0.87922 0.38453 0.38598 0.0
H398 H 0.89854 0.35871 0.39719 0.0
O399 O 0.85437 0.4484 0.4494 0.0
O400 O 0.83209 0.43424 0.48175 0.0
H401 H 0.84234 0.34896 0.49415 0.0
H402 H 0.84524 0.32167 0.47392 0.0
C403 C 0.83769 0.34116 0.47531 0.0
H404 H 0.81687 0.34067 0.47336 0.0
H405 H 0.82505 0.38851 0.51961 0.0
O406 O 0.87925 0.43277 0.39905 0.0
C407 C 0.84662 0.45069 0.47198 0.0
Co408 Co 0.81837 0.39462 0.82316 0.0
Co409 Co 0.84369 0.43174 0.78463 0.0
C410 C 0.82047 0.44977 0.83333 0.0
O411 O 0.81482 0.42755 0.84063 0.0
O412 O 0.83141 0.45361 0.81229 0.0
C413 C 0.80933 0.36032 0.86686 0.0
O414 O 0.82581 0.37286 0.88048 0.0
C415 C 0.87594 0.4731 0.76727 0.0
C416 C 0.88012 0.4642 0.72677 0.0
C417 C 0.88662 0.48182 0.74501 0.0
N418 N 0.86357 0.45152 0.76231 0.0
N419 N 0.86625 0.44623 0.7381 0.0
C420 C 0.87846 0.48416 0.79313 0.0
H421 H 0.87887 0.46888 0.80744 0.0
H422 H 0.89588 0.49567 0.79471 0.0
H423 H 0.86189 0.49634 0.79704 0.0
C424 C 0.86883 0.3705 0.81979 0.0
N425 N 0.85214 0.3885 0.81326 0.0
N426 N 0.86301 0.40421 0.79737 0.0
C427 C 0.88715 0.39687 0.7937 0.0
C428 C 0.89156 0.37541 0.80796 0.0
C429 C 0.86293 0.34811 0.83593 0.0
H430 H 0.84374 0.34104 0.83165 0.0
H431 H 0.86395 0.3537 0.85605 0.0
H432 H 0.87666 0.33261 0.83275 0.0
O433 O 0.79613 0.39462 0.79342 0.0
O434 O 0.81337 0.42048 0.76541 0.0
H435 H 0.89936 0.41044 0.7578 0.0
H436 H 0.92485 0.4019 0.77881 0.0
C437 C 0.90585 0.41063 0.77769 0.0
H438 H 0.90704 0.43056 0.78395 0.0
H439 H 0.85832 0.43051 0.72926 0.0
O440 O 0.80478 0.36698 0.84428 0.0
C441 C 0.79586 0.40545 0.77203 0.0
Co442 Co 0.34875 0.07387 0.578 0.0
Co443 Co 0.31442 0.09823 0.5362 0.0
C444 C 0.29377 0.07571 0.58507 0.0
O445 O 0.31545 0.07055 0.59421 0.0
O446 O 0.29132 0.0859 0.56337 0.0
C447 C 0.3817 0.05689 0.62164 0.0
O448 O 0.36353 0.05927 0.63833 0.0
C449 C 0.2737 0.13011 0.51558 0.0
C450 C 0.28751 0.13708 0.47688 0.0
C451 C 0.26787 0.14243 0.49325 0.0
N452 N 0.29587 0.11811 0.51258 0.0
N453 N 0.30394 0.12227 0.48935 0.0
C454 C 0.25903 0.13052 0.53967 0.0
H455 H 0.27214 0.13174 0.55596 0.0
H456 H 0.24567 0.14665 0.54015 0.0
H457 H 0.2482 0.11269 0.54136 0.0
C458 C 0.3738 0.12288 0.57461 0.0
N459 N 0.35499 0.10726 0.56798 0.0
N460 N 0.34158 0.11766 0.54986 0.0
C461 C 0.35178 0.1404 0.54427 0.0
C462 C 0.37269 0.14422 0.55963 0.0
C463 C 0.39278 0.11726 0.59477 0.0
H464 H 0.38302 0.10966 0.61162 0.0
H465 H 0.40346 0.1344 0.60032 0.0
H466 H 0.40622 0.10281 0.58777 0.0
O467 O 0.34989 0.05117 0.54864 0.0
O468 O 0.32709 0.06791 0.51785 0.0
H469 H 0.34662 0.14758 0.50501 0.0
H470 H 0.35305 0.17548 0.52339 0.0
C471 C 0.34303 0.1571 0.52329 0.0
H472 H 0.32245 0.16042 0.52506 0.0
H473 H 0.3207 0.11498 0.48202 0.0
O474 O 0.37753 0.06193 0.59858 0.0
C475 C 0.3412 0.05039 0.5263 0.0
Co476 Co 0.66983 0.59523 0.33167 0.0
Co477 Co 0.64844 0.56064 0.28844 0.0
C478 C 0.67264 0.53942 0.33562 0.0
O479 O 0.67606 0.56118 0.34532 0.0
O480 O 0.66242 0.53672 0.31398 0.0
C481 C 0.70124 0.62358 0.36468 0.0
O482 O 0.7175 0.60572 0.35904 0.0
C483 C 0.61949 0.51947 0.26461 0.0
C484 C 0.61097 0.53601 0.22729 0.0
C485 C 0.60701 0.51485 0.24207 0.0
N486 N 0.63023 0.54244 0.26325 0.0
N487 N 0.62522 0.55211 0.24082 0.0
C488 C 0.61987 0.5032 0.28765 0.0
H489 H 0.61771 0.51508 0.30476 0.0
H490 H 0.60463 0.48884 0.28707 0.0
H491 H 0.63837 0.49346 0.28883 0.0
C492 C 0.6185 0.61546 0.32995 0.0
N493 N 0.63602 0.59898 0.32197 0.0
N494 N 0.62662 0.58497 0.30375 0.0
C495 C 0.60253 0.59228 0.29956 0.0
C496 C 0.59663 0.61171 0.31613 0.0
C497 C 0.6237 0.636 0.34867 0.0
H498 H 0.62956 0.62747 0.36687 0.0
H499 H 0.60715 0.64838 0.35182 0.0
H500 H 0.63954 0.64777 0.3417 0.0
O501 O 0.69249 0.60068 0.30276 0.0
O502 O 0.67781 0.57704 0.27148 0.0
H503 H 0.59233 0.5867 0.26101 0.0
H504 H 0.5658 0.58788 0.28232 0.0
C505 C 0.5855 0.58118 0.27999 0.0
H506 H 0.58587 0.56031 0.28133 0.0
H507 H 0.6312 0.5699 0.2349 0.0
O508 O 0.6789 0.62194 0.35622 0.0
C509 C 0.69395 0.59258 0.28022 0.0
Co510 Co 0.15299 0.92529 0.07966 0.0
Co511 Co 0.18599 0.9018 0.03627 0.0
C512 C 0.20872 0.92537 0.0832 0.0
O513 O 0.18732 0.92975 0.09331 0.0
O514 O 0.21059 0.915 0.06154 0.0
C515 C 0.12305 0.95962 0.10772 0.0
O516 O 0.13939 0.97584 0.09855 0.0
C517 C 0.22544 0.87023 0.01315 0.0
C518 C 0.20956 0.86368 0.97515 0.0
C519 C 0.22998 0.85802 0.99045 0.0
N520 N 0.20328 0.88246 0.01137 0.0
N521 N 0.19397 0.87857 0.98856 0.0
C522 C 0.24107 0.86922 0.03663 0.0
H523 H 0.22861 0.86837 0.05344 0.0
H524 H 0.25389 0.85266 0.0365 0.0
H525 H 0.25254 0.88669 0.03796 0.0
C526 C 0.12941 0.87544 0.07767 0.0
N527 N 0.14729 0.89171 0.07011 0.0
N528 N 0.16055 0.88149 0.05179 0.0
C529 C 0.15136 0.85813 0.04716 0.0
C530 C 0.13125 0.8537 0.06333 0.0
C531 C 0.11019 0.88112 0.09757 0.0
H532 H 0.11967 0.88923 0.11438 0.0
H533 H 0.09968 0.86393 0.10326 0.0
H534 H 0.09666 0.8953 0.0902 0.0
O535 O 0.14911 0.94789 0.05052 0.0
O536 O 0.17128 0.93175 0.01894 0.0
H537 H 0.15545 0.85 0.00794 0.0
H538 H 0.15113 0.8224 0.02739 0.0
C539 C 0.16018 0.84125 0.02634 0.0
H540 H 0.18095 0.83901 0.02744 0.0
H541 H 0.17683 0.88594 0.98222 0.0
O542 O 0.12637 0.93625 0.10355 0.0
C543 C 0.15694 0.94884 0.02788 0.0
Co544 Co 0.17935 0.32061 0.10168 0.0
Co545 Co 0.21702 0.3485 0.06535 0.0
C546 C 0.17115 0.32058 0.04609 0.0
O547 O 0.16366 0.31473 0.06823 0.0
O548 O 0.19128 0.33331 0.0425 0.0
C549 C 0.13615 0.30354 0.13441 0.0
O550 O 0.11938 0.31039 0.11748 0.0
C551 C 0.23679 0.38009 0.02385 0.0
C552 C 0.27257 0.3935 0.04059 0.0
C553 C 0.25776 0.39505 0.01912 0.0
N554 N 0.23912 0.37023 0.04712 0.0
N555 N 0.26058 0.37827 0.05695 0.0
C556 C 0.2143 0.37625 0.00724 0.0
H557 H 0.19683 0.37672 0.01876 0.0
H558 H 0.21321 0.39094 0.99236 0.0
H559 H 0.2156 0.35741 0.9982 0.0
C560 C 0.17547 0.37138 0.12356 0.0
N561 N 0.18541 0.35515 0.1068 0.0
N562 N 0.20106 0.36728 0.09182 0.0
C563 C 0.20132 0.3919 0.0986 0.0
C564 C 0.18504 0.39519 0.11884 0.0
C565 C 0.15759 0.36402 0.14415 0.0
H566 H 0.16547 0.3478 0.15475 0.0
H567 H 0.13939 0.35814 0.13565 0.0
H568 H 0.15414 0.37971 0.15757 0.0
O569 O 0.21089 0.30143 0.10359 0.0
O570 O 0.23832 0.32012 0.07818 0.0
H571 H 0.23608 0.40995 0.08937 0.0
H572 H 0.20961 0.43121 0.09146 0.0
C573 C 0.21569 0.41215 0.08524 0.0
H574 H 0.21288 0.41038 0.06459 0.0
H575 H 0.267 0.3734 0.07492 0.0
O576 O 0.15951 0.3066 0.13003 0.0
C577 C 0.23263 0.30265 0.09362 0.0
Co578 Co 0.6741 0.17537 0.89893 0.0
Co579 Co 0.7131 0.14889 0.935 0.0
C580 C 0.6662 0.17575 0.95421 0.0
O581 O 0.65819 0.18098 0.93212 0.0
O582 O 0.6868 0.16372 0.95769 0.0
C583 C 0.63084 0.1924 0.86614 0.0
O584 O 0.61414 0.18698 0.88363 0.0
C585 C 0.73259 0.11714 0.97654 0.0
C586 C 0.77037 0.1073 0.96189 0.0
C587 C 0.75435 0.10369 0.98219 0.0
N588 N 0.73562 0.12806 0.95382 0.0
N589 N 0.7583 0.12219 0.94528 0.0
C590 C 0.70899 0.1189 0.99188 0.0
H591 H 0.69226 0.11827 0.9793 0.0
H592 H 0.70788 0.10337 0.00587 0.0
H593 H 0.70877 0.13723 0.00201 0.0
C594 C 0.67451 0.12571 0.8749 0.0
N595 N 0.68161 0.14119 0.89367 0.0
N596 N 0.69843 0.12977 0.90793 0.0
C597 C 0.70258 0.10642 0.8984 0.0
C598 C 0.68773 0.1033 0.87699 0.0
C599 C 0.65573 0.13255 0.85493 0.0
H600 H 0.66394 0.14717 0.8424 0.0
H601 H 0.63861 0.14044 0.86397 0.0
H602 H 0.65018 0.11595 0.84344 0.0
O603 O 0.70516 0.19553 0.89712 0.0
O604 O 0.73355 0.17767 0.92215 0.0
H605 H 0.74097 0.09579 0.90408 0.0
H606 H 0.71999 0.0695 0.89925 0.0
C607 C 0.72187 0.08833 0.9082 0.0
H608 H 0.71985 0.08638 0.92893 0.0
H609 H 0.76556 0.12842 0.92806 0.0
O610 O 0.65415 0.18863 0.87028 0.0
C611 C 0.72708 0.19495 0.9068 0.0
Co612 Co 0.56773 0.91813 0.65094 0.0
Co613 Co 0.59486 0.95959 0.68366 0.0
C614 C 0.57233 0.91207 0.70622 0.0
O615 O 0.56605 0.90287 0.68489 0.0
O616 O 0.58312 0.9335 0.70797 0.0
C617 C 0.55526 0.87278 0.6193 0.0
O618 O 0.57076 0.8585 0.63234 0.0
C619 C 0.62741 0.98083 0.72346 0.0
C620 C 0.63539 0.01885 0.7084 0.0
C621 C 0.64002 0.00313 0.72873 0.0
N622 N 0.61587 0.98322 0.70097 0.0
N623 N 0.62069 0.00603 0.69212 0.0
C624 C 0.62692 0.9574 0.73916 0.0
H625 H 0.62836 0.94054 0.72682 0.0
H626 H 0.64259 0.95725 0.75306 0.0
H627 H 0.60873 0.95646 0.74945 0.0
C628 C 0.61539 0.92152 0.62224 0.0
N629 N 0.6009 0.92781 0.64212 0.0
N630 N 0.61265 0.94501 0.65571 0.0
C631 C 0.63529 0.94984 0.64496 0.0
C632 C 0.63757 0.93529 0.62329 0.0
C633 C 0.60807 0.90264 0.60253 0.0
H634 H 0.60608 0.88393 0.61156 0.0
H635 H 0.62239 0.90086 0.58741 0.0
H636 H 0.58971 0.90804 0.59407 0.0
O637 O 0.54558 0.94789 0.65031 0.0
O638 O 0.56425 0.97828 0.6722 0.0
H639 H 0.64584 0.98827 0.65045 0.0
H640 H 0.67208 0.96755 0.64448 0.0
C641 C 0.65361 0.96921 0.65418 0.0
H642 H 0.6564 0.96709 0.6748 0.0
H643 H 0.61372 0.01294 0.67505 0.0
O644 O 0.55258 0.89594 0.62491 0.0
C645 C 0.54588 0.97026 0.65895 0.0
Co646 Co 0.82914 0.81683 0.39988 0.0
Co647 Co 0.78533 0.84047 0.43211 0.0
C648 C 0.83382 0.82042 0.45526 0.0
O649 O 0.84399 0.81554 0.434 0.0
O650 O 0.81158 0.82951 0.45675 0.0
C651 C 0.87527 0.80817 0.36788 0.0
O652 O 0.8886 0.82458 0.38082 0.0
C653 C 0.7613 0.87098 0.47197 0.0
C654 C 0.72394 0.87878 0.45518 0.0
C655 C 0.73858 0.88317 0.47637 0.0
N656 N 0.76017 0.85987 0.44916 0.0
N657 N 0.73775 0.86455 0.43929 0.0
C658 C 0.78415 0.87095 0.48853 0.0
H659 H 0.80137 0.87339 0.47688 0.0
H660 H 0.78322 0.88622 0.50284 0.0
H661 H 0.78545 0.85251 0.49834 0.0
C662 C 0.8248 0.86579 0.37353 0.0
N663 N 0.81762 0.84953 0.39164 0.0
N664 N 0.7998 0.86004 0.40543 0.0
C665 C 0.79562 0.88369 0.39675 0.0
C666 C 0.81139 0.88795 0.37635 0.0
C667 C 0.84344 0.86006 0.35311 0.0
H668 H 0.84008 0.84084 0.34559 0.0
H669 H 0.86277 0.86116 0.36098 0.0
H670 H 0.84199 0.87373 0.33732 0.0
O671 O 0.80115 0.79271 0.39874 0.0
O672 O 0.76863 0.80908 0.41922 0.0
H673 H 0.75801 0.89613 0.40382 0.0
H674 H 0.78052 0.9214 0.40042 0.0
C675 C 0.77758 0.90215 0.40812 0.0
H676 H 0.77998 0.90253 0.4289 0.0
H677 H 0.7319 0.85807 0.42163 0.0
O678 O 0.85249 0.80374 0.37387 0.0
C679 C 0.7785 0.79127 0.40642 0.0
Co680 Co 0.92457 0.08053 0.15247 0.0
Co681 Co 0.90552 0.03374 0.18326 0.0
C682 C 0.92472 0.08172 0.20814 0.0
O683 O 0.92799 0.09318 0.18726 0.0
O684 O 0.91646 0.05913 0.20888 0.0
C685 C 0.9562 0.1121 0.12414 0.0
O686 O 0.97292 0.10243 0.1397 0.0
C687 C 0.8757 0.00762 0.22178 0.0
C688 C 0.88061 0.96775 0.21061 0.0
C689 C 0.87006 0.9831 0.22896 0.0
N690 N 0.88897 0.00674 0.20019 0.0
N691 N 0.89152 0.98288 0.19341 0.0
C692 C 0.87134 0.0313 0.23653 0.0
H693 H 0.88805 0.03495 0.24862 0.0
H694 H 0.869 0.04751 0.22349 0.0
H695 H 0.85455 0.02969 0.24886 0.0
C696 C 0.87516 0.07462 0.12851 0.0
N697 N 0.89201 0.0681 0.14627 0.0
N698 N 0.88381 0.04813 0.15847 0.0
C699 C 0.86134 0.04118 0.14862 0.0
C700 C 0.85522 0.05775 0.12924 0.0
C701 C 0.8788 0.09588 0.11028 0.0
H702 H 0.88498 0.113 0.12062 0.0
H703 H 0.86117 0.10018 0.09982 0.0
H704 H 0.89381 0.09073 0.09662 0.0
O705 O 0.94996 0.05376 0.14722 0.0
O706 O 0.93682 0.01982 0.16777 0.0
H707 H 0.8596 0.00118 0.15322 0.0
H708 H 0.82974 0.01558 0.14485 0.0
C709 C 0.84729 0.01788 0.15604 0.0
H710 H 0.84249 0.01891 0.17639 0.0
H711 H 0.90157 0.9769 0.17757 0.0
O712 O 0.93307 0.10673 0.12726 0.0
C713 C 0.95302 0.03093 0.15394 0.0
Co714 Co 0.3324 0.67766 0.5947 0.0
Co715 Co 0.28593 0.65646 0.56478 0.0
C716 C 0.33396 0.67674 0.53981 0.0
O717 O 0.34596 0.67959 0.56043 0.0
O718 O 0.3112 0.66886 0.53947 0.0
C719 C 0.36137 0.71171 0.62327 0.0
O720 O 0.35096 0.72768 0.60742 0.0
C721 C 0.26276 0.62593 0.52486 0.0
C722 C 0.22479 0.61844 0.54033 0.0
C723 C 0.24029 0.61359 0.51987 0.0
N724 N 0.26074 0.63753 0.54735 0.0
N725 N 0.23794 0.63308 0.55643 0.0
C726 C 0.28623 0.62559 0.50921 0.0
H727 H 0.30295 0.62313 0.52157 0.0
H728 H 0.28571 0.6102 0.495 0.0
H729 H 0.2881 0.64392 0.49929 0.0
C730 C 0.32901 0.62841 0.61933 0.0
N731 N 0.3209 0.64507 0.60205 0.0
N732 N 0.30126 0.63579 0.59005 0.0
C733 C 0.29615 0.61269 0.59959 0.0
C734 C 0.31367 0.60728 0.61833 0.0
C735 C 0.34974 0.6338 0.63779 0.0
H736 H 0.34445 0.65042 0.64937 0.0
H737 H 0.36725 0.63856 0.62736 0.0
H738 H 0.35343 0.61769 0.6506 0.0
O739 O 0.30487 0.70258 0.59691 0.0
O740 O 0.26993 0.68714 0.57975 0.0
H741 H 0.25678 0.60498 0.5963 0.0
H742 H 0.27611 0.57712 0.59981 0.0
C743 C 0.27499 0.59611 0.59105 0.0
H744 H 0.27557 0.59412 0.57024 0.0
H745 H 0.23143 0.63988 0.57373 0.0
O746 O 0.35754 0.68826 0.62023 0.0
C747 C 0.28167 0.70474 0.59117 0.0
Co748 Co 0.06881 0.57365 0.35713 0.0
Co749 Co 0.09416 0.53877 0.3164 0.0
C750 C 0.06791 0.58742 0.3026 0.0
O751 O 0.06257 0.59227 0.32558 0.0
O752 O 0.08045 0.56776 0.29645 0.0
C753 C 0.05261 0.61465 0.39249 0.0
O754 O 0.05552 0.6318 0.37484 0.0
C755 C 0.1212 0.51844 0.2718 0.0
C756 C 0.12795 0.47934 0.28469 0.0
C757 C 0.13071 0.49524 0.26418 0.0
N758 N 0.11324 0.51625 0.29582 0.0
N759 N 0.11763 0.49293 0.30344 0.0
C760 C 0.11666 0.54117 0.25575 0.0
H761 H 0.09643 0.54171 0.25038 0.0
H762 H 0.12093 0.55852 0.26668 0.0
H763 H 0.1282 0.54073 0.23831 0.0
C764 C 0.11899 0.57041 0.37961 0.0
N765 N 0.10293 0.56508 0.36077 0.0
N766 N 0.11399 0.54997 0.34446 0.0
C767 C 0.1377 0.54515 0.35267 0.0
C768 C 0.14141 0.55773 0.37539 0.0
C769 C 0.11294 0.58759 0.40124 0.0
H770 H 0.10473 0.60535 0.39387 0.0
H771 H 0.12994 0.59231 0.41249 0.0
H772 H 0.0988 0.5784 0.41364 0.0
O773 O 0.04779 0.5433 0.35673 0.0
O774 O 0.06446 0.51855 0.32746 0.0
H775 H 0.14946 0.50797 0.34278 0.0
H776 H 0.17513 0.52969 0.34774 0.0
C777 C 0.15581 0.52769 0.33992 0.0
H778 H 0.15612 0.53157 0.31936 0.0
H779 H 0.1125 0.48597 0.32113 0.0
O780 O 0.05713 0.59162 0.38764 0.0
C781 C 0.04763 0.52303 0.34397 0.0
Co782 Co 0.42644 0.41958 0.8439 0.0
Co783 Co 0.40369 0.46478 0.81332 0.0
C784 C 0.42002 0.41491 0.78935 0.0
O785 O 0.42458 0.40401 0.81029 0.0
O786 O 0.41272 0.43783 0.7885 0.0
C787 C 0.43593 0.37373 0.87611 0.0
O788 O 0.41832 0.36065 0.86458 0.0
C789 C 0.37038 0.48726 0.77545 0.0
C790 C 0.37169 0.52767 0.78556 0.0
C791 C 0.3618 0.5109 0.76806 0.0
N792 N 0.38483 0.49005 0.79612 0.0
N793 N 0.38542 0.51423 0.80216 0.0
C794 C 0.36421 0.46222 0.76397 0.0
H795 H 0.36364 0.44748 0.77883 0.0
H796 H 0.3458 0.46288 0.75401 0.0
H797 H 0.37918 0.45706 0.75027 0.0
C798 C 0.38006 0.42809 0.87402 0.0
N799 N 0.39503 0.43321 0.85417 0.0
N800 N 0.38503 0.45181 0.84108 0.0
C801 C 0.36314 0.45884 0.85206 0.0
C802 C 0.35941 0.4441 0.87334 0.0
C803 C 0.38536 0.40805 0.8932 0.0
H804 H 0.38478 0.38942 0.8838 0.0
H805 H 0.37129 0.40791 0.90866 0.0
H806 H 0.40445 0.41092 0.90127 0.0
O807 O 0.45235 0.44613 0.84215 0.0
O808 O 0.43581 0.4805 0.82493 0.0
H809 H 0.35798 0.49799 0.8441 0.0
H810 H 0.32975 0.48223 0.85493 0.0
C811 C 0.34698 0.48021 0.84321 0.0
H812 H 0.34149 0.47699 0.82327 0.0
H813 H 0.39556 0.52159 0.81736 0.0
O814 O 0.44045 0.39635 0.8696 0.0
C815 C 0.45421 0.46901 0.83524 0.0
H816 H 0.21903 0.12813 0.5005 0.0
H817 H 0.26504 0.18772 0.46976 0.0
H818 H 0.18165 0.14699 0.4815 0.0
H819 H 0.22758 0.20759 0.45185 0.0
H820 H 0.16903 0.20301 0.38741 0.0
H821 H 0.20363 0.19717 0.41669 0.0
H822 H 0.15045 0.17844 0.47573 0.0
H823 H 0.11569 0.18339 0.44549 0.0
C824 C 0.22093 0.14582 0.49046 0.0
C825 C 0.24483 0.15644 0.4864 0.0
C826 C 0.19949 0.15676 0.47962 0.0
C827 C 0.20153 0.17869 0.46475 0.0
C828 C 0.22531 0.19036 0.46258 0.0
C829 C 0.24677 0.17912 0.47295 0.0
C830 C 0.16477 0.19834 0.40686 0.0
C831 C 0.13988 0.19347 0.41428 0.0
C832 C 0.1846 0.19511 0.42379 0.0
C833 C 0.17999 0.18706 0.44867 0.0
C834 C 0.15475 0.1842 0.45662 0.0
C835 C 0.13482 0.18732 0.43948 0.0
H836 H 0.53976 0.42166 0.13395 0.0
H837 H 0.56369 0.36539 0.18749 0.0
H838 H 0.54796 0.4547 0.16446 0.0
H839 H 0.57101 0.39851 0.21905 0.0
H840 H 0.62226 0.46581 0.24492 0.0
H841 H 0.6026 0.42952 0.22455 0.0
H842 H 0.54009 0.47667 0.2014 0.0
H843 H 0.56071 0.51309 0.22055 0.0
C844 C 0.54593 0.4164 0.15273 0.0
C845 C 0.55128 0.39116 0.15843 0.0
C846 C 0.55053 0.43532 0.17037 0.0
C847 C 0.56043 0.42943 0.19431 0.0
C848 C 0.56385 0.40381 0.20067 0.0
C849 C 0.55936 0.3848 0.1828 0.0
C850 C 0.60405 0.46818 0.23592 0.0
C851 C 0.59303 0.49216 0.23406 0.0
C852 C 0.59265 0.44736 0.22433 0.0
C853 C 0.56984 0.45012 0.21094 0.0
C854 C 0.55796 0.47389 0.21091 0.0
C855 C 0.56964 0.49475 0.222 0.0
H856 H 0.37934 0.81038 0.9395 0.0
H857 H 0.32463 0.79655 0.88094 0.0
H858 H 0.34507 0.81663 0.97004 0.0
H859 H 0.29056 0.80361 0.91063 0.0
H860 H 0.23037 0.81352 0.9653 0.0
H861 H 0.26655 0.79265 0.94597 0.0
H862 H 0.31572 0.85012 0.97667 0.0
H863 H 0.27959 0.87011 0.99689 0.0
C864 C 0.35996 0.80802 0.93341 0.0
C865 C 0.35442 0.80313 0.90802 0.0
C866 C 0.34035 0.81187 0.95074 0.0
C867 C 0.31497 0.81093 0.94281 0.0
C868 C 0.30973 0.80419 0.91766 0.0
C869 C 0.32924 0.80027 0.90052 0.0
C870 C 0.24905 0.82124 0.96837 0.0
C871 C 0.25226 0.84338 0.9825 0.0
C872 C 0.26977 0.8094 0.95722 0.0
C873 C 0.29408 0.81989 0.95936 0.0
C874 C 0.29741 0.84126 0.97482 0.0
C875 C 0.27668 0.85283 0.98637 0.0
H876 H 0.87681 0.52831 0.76569 0.0
H877 H 0.9243 0.49021 0.71153 0.0
H878 H 0.89316 0.56885 0.75166 0.0
H879 H 0.93986 0.53077 0.69672 0.0
H880 H 0.96815 0.6047 0.67345 0.0
H881 H 0.96272 0.57008 0.70361 0.0
H882 H 0.88431 0.5908 0.71263 0.0
H883 H 0.8901 0.62546 0.68303 0.0
C884 C 0.89139 0.52848 0.75142 0.0
C885 C 0.89946 0.50602 0.73986 0.0
C886 C 0.90052 0.55179 0.74314 0.0
C887 C 0.91771 0.55309 0.72299 0.0
C888 C 0.92691 0.5305 0.71252 0.0
C889 C 0.9178 0.50723 0.72081 0.0
C890 C 0.95008 0.60229 0.6827 0.0
C891 C 0.92943 0.61737 0.67593 0.0
C892 C 0.94689 0.58242 0.69975 0.0
C893 C 0.923 0.57745 0.71023 0.0
C894 C 0.90301 0.59416 0.70511 0.0
C895 C 0.90623 0.61394 0.68808 0.0
H896 H 0.7678 0.31824 0.53549 0.0
H897 H 0.72182 0.37861 0.50618 0.0
H898 H 0.7305 0.29865 0.55401 0.0
H899 H 0.68467 0.36009 0.52584 0.0
H900 H 0.61873 0.32307 0.56093 0.0
H901 H 0.65348 0.32902 0.53099 0.0
H902 H 0.70659 0.30781 0.58934 0.0
H903 H 0.67188 0.3007 0.61825 0.0
C904 C 0.74957 0.32713 0.53284 0.0
C905 C 0.74756 0.34987 0.51952 0.0
C906 C 0.72822 0.31605 0.54355 0.0
C907 C 0.70451 0.32795 0.54185 0.0
C908 C 0.70243 0.35011 0.52732 0.0
C909 C 0.72374 0.36086 0.51613 0.0
C910 C 0.63785 0.31893 0.56686 0.0
C911 C 0.64286 0.31169 0.59179 0.0
C912 C 0.65778 0.32261 0.5499 0.0
C913 C 0.68299 0.31931 0.55776 0.0
C914 C 0.68757 0.31029 0.58232 0.0
C915 C 0.6677 0.30637 0.59905 0.0
H916 H 0.42742 0.99148 0.24359 0.0
H917 H 0.3621 0.98356 0.29147 0.0
H918 H 0.44376 0.95088 0.25924 0.0
H919 H 0.3781 0.94337 0.30695 0.0
H920 H 0.40075 0.86667 0.32256 0.0
H921 H 0.38796 0.89921 0.29247 0.0
H922 H 0.45937 0.93699 0.30325 0.0
H923 H 0.47213 0.90411 0.33317 0.0
C924 C 0.41641 0.98078 0.25708 0.0
C925 C 0.39351 0.99037 0.26632 0.0
C926 C 0.42575 0.95771 0.26605 0.0
C927 C 0.41204 0.94385 0.28404 0.0
C928 C 0.38884 0.95334 0.2927 0.0
C929 C 0.37978 0.97643 0.28406 0.0
C930 C 0.41407 0.88133 0.31754 0.0
C931 C 0.43735 0.88307 0.32995 0.0
C932 C 0.40673 0.90003 0.30055 0.0
C933 C 0.42252 0.92081 0.29588 0.0
C934 C 0.44689 0.92112 0.3064 0.0
C935 C 0.45423 0.90235 0.32345 0.0
H936 H 0.86953 0.64378 0.08214 0.0
H937 H 0.85504 0.72362 0.07676 0.0
H938 H 0.83743 0.63558 0.0502 0.0
H939 H 0.82275 0.71561 0.04451 0.0
H940 H 0.74103 0.68055 0.0338 0.0
H941 H 0.78081 0.69563 0.05131 0.0
H942 H 0.82129 0.6406 0.00681 0.0
H943 H 0.78143 0.6251 0.98983 0.0
C944 C 0.86 0.6596 0.07336 0.0
C945 C 0.86446 0.68425 0.0818 0.0
C946 C 0.84169 0.65497 0.05503 0.0
C947 C 0.8274 0.67495 0.04501 0.0
C948 C 0.83333 0.69985 0.0521 0.0
C949 C 0.85185 0.70447 0.07034 0.0
C950 C 0.75849 0.67209 0.02734 0.0
C951 C 0.75813 0.6518 0.01033 0.0
C952 C 0.7813 0.68087 0.03717 0.0
C953 C 0.8042 0.6693 0.03041 0.0
C954 C 0.80393 0.64986 0.01237 0.0
C955 C 0.7811 0.64116 0.00243 0.0
H956 H 0.07163 0.00828 0.74805 0.0
H957 H 0.13746 0.01467 0.79552 0.0
H958 H 0.05533 0.04821 0.7654 0.0
H959 H 0.12148 0.0542 0.81268 0.0
H960 H 0.09908 0.13124 0.82953 0.0
H961 H 0.11168 0.09875 0.79929 0.0
H962 H 0.04017 0.06117 0.80999 0.0
H963 H 0.02759 0.09402 0.84012 0.0
C964 C 0.08274 0.0185 0.76184 0.0
C965 C 0.10581 0.00868 0.77041 0.0
C966 C 0.07342 0.04117 0.7718 0.0
C967 C 0.0873 0.05444 0.79013 0.0
C968 C 0.11061 0.04469 0.79821 0.0
C969 C 0.11966 0.02198 0.78859 0.0
C970 C 0.08573 0.11658 0.82455 0.0
C971 C 0.06245 0.11493 0.83696 0.0
C972 C 0.09297 0.09791 0.80746 0.0
C973 C 0.07705 0.07726 0.80264 0.0
C974 C 0.05274 0.07695 0.81328 0.0
C975 C 0.04551 0.09569 0.83045 0.0
H976 H 0.42545 0.11622 0.15158 0.0
H977 H 0.4133 0.15774 0.22042 0.0
H978 H 0.4557 0.14809 0.13755 0.0
H979 H 0.44337 0.18995 0.2064 0.0
H980 H 0.50285 0.24321 0.17301 0.0
H981 H 0.48751 0.20324 0.19106 0.0
H982 H 0.44155 0.19141 0.12475 0.0
H983 H 0.4567 0.231 0.10708 0.0
C984 C 0.43018 0.13166 0.16414 0.0
C985 C 0.41737 0.13465 0.18705 0.0
C986 C 0.44726 0.14997 0.15607 0.0
C987 C 0.45158 0.17165 0.17073 0.0
C988 C 0.44054 0.17335 0.1948 0.0
C989 C 0.42341 0.15496 0.20287 0.0
C990 C 0.48987 0.23167 0.16222 0.0
C991 C 0.48097 0.23991 0.13868 0.0
C992 C 0.48106 0.20896 0.17253 0.0
C993 C 0.46357 0.19411 0.15919 0.0
C994 C 0.4554 0.20216 0.13527 0.0
C995 C 0.46387 0.2249 0.12523 0.0
H996 H 0.63299 0.6798 0.89073 0.0
H997 H 0.59861 0.66551 0.96299 0.0
H998 H 0.59845 0.70838 0.87982 0.0
H999 H 0.56369 0.69378 0.95206 0.0
H1000 H 0.50503 0.75121 0.92368 0.0
H1001 H 0.54659 0.73674 0.93856 0.0
H1002 H 0.5551 0.69265 0.87048 0.0
H1003 H 0.51406 0.70712 0.85584 0.0
C1004 C 0.61848 0.68364 0.90462 0.0
C1005 C 0.6182 0.6706 0.92759 0.0
C1006 C 0.59865 0.69976 0.89834 0.0
C1007 C 0.57816 0.70288 0.9149 0.0
C1008 C 0.57926 0.69179 0.93898 0.0
C1009 C 0.5992 0.67567 0.94527 0.0
C1010 C 0.51612 0.73877 0.91185 0.0
C1011 C 0.5066 0.73033 0.8886 0.0
C1012 C 0.53974 0.73045 0.92035 0.0
C1013 C 0.55422 0.71387 0.90552 0.0
C1014 C 0.54468 0.70586 0.88209 0.0
C1015 C 0.52108 0.71389 0.87382 0.0
H1016 H 0.11409 0.83075 0.70103 0.0
H1017 H 0.05605 0.88458 0.68243 0.0
H1018 H 0.08442 0.79634 0.69547 0.0
H1019 H 0.02554 0.85003 0.67763 0.0
H1020 H 0.99907 0.78069 0.62895 0.0
H1021 H 0.01951 0.81813 0.64614 0.0
H1022 H 0.04848 0.77369 0.70814 0.0
H1023 H 0.02882 0.73612 0.6902 0.0
C1024 C 0.09465 0.83515 0.69646 0.0
C1025 C 0.08727 0.86011 0.69194 0.0
C1026 C 0.07752 0.81546 0.69344 0.0
C1027 C 0.05252 0.82032 0.68594 0.0
C1028 C 0.04473 0.8456 0.68307 0.0
C1029 C 0.06203 0.86537 0.68604 0.0
C1030 C 0.00923 0.77914 0.64662 0.0
C1031 C 0.01247 0.75559 0.65825 0.0
C1032 C 0.02091 0.80061 0.65655 0.0
C1033 C 0.03593 0.79893 0.67841 0.0
C1034 C 0.03754 0.7756 0.69098 0.0
C1035 C 0.02621 0.7541 0.68082 0.0
H1036 H 0.99258 0.24452 0.42735 0.0
H1037 H 0.97922 0.28572 0.35847 0.0
H1038 H 0.95222 0.26002 0.44437 0.0
H1039 H 0.93924 0.30104 0.37514 0.0
H1040 H 0.86348 0.31673 0.40081 0.0
H1041 H 0.89624 0.2865 0.38885 0.0
H1042 H 0.93753 0.3046 0.45677 0.0
H1043 H 0.90447 0.33465 0.46872 0.0
C1044 C 0.98073 0.25645 0.41573 0.0
C1045 C 0.98875 0.2639 0.39162 0.0
C1046 C 0.95779 0.26536 0.42545 0.0
C1047 C 0.94247 0.28148 0.41096 0.0
C1048 C 0.95035 0.28823 0.38656 0.0
C1049 C 0.97332 0.27968 0.37709 0.0
C1050 C 0.87902 0.31331 0.41366 0.0
C1051 C 0.88166 0.32785 0.43559 0.0
C1052 C 0.89784 0.29624 0.40676 0.0
C1053 C 0.91962 0.29356 0.42167 0.0
C1054 C 0.92091 0.3062 0.44498 0.0
C1055 C 0.90203 0.32334 0.45186 0.0
H1056 H 0.00903 0.28197 0.87246 0.0
H1057 H 0.9611 0.23763 0.82371 0.0
H1058 H 0.99226 0.32058 0.85384 0.0
H1059 H 0.94382 0.27616 0.8056 0.0
H1060 H 0.91696 0.34779 0.77284 0.0
H1061 H 0.94937 0.3158 0.78152 0.0
H1062 H 0.94982 0.33812 0.85999 0.0
H1063 H 0.91779 0.36986 0.85111 0.0
C1064 C 0.99559 0.28043 0.85716 0.0
C1065 C 0.98646 0.25678 0.84941 0.0
C1066 C 0.98579 0.30257 0.84667 0.0
C1067 C 0.96664 0.30144 0.82833 0.0
C1068 C 0.95877 0.27772 0.81944 0.0
C1069 C 0.96849 0.25563 0.82999 0.0
C1070 C 0.92478 0.34631 0.79167 0.0
C1071 C 0.91507 0.36104 0.81137 0.0
C1072 C 0.94312 0.32798 0.7967 0.0
C1073 C 0.95201 0.32432 0.82147 0.0
C1074 C 0.94364 0.34061 0.84066 0.0
C1075 C 0.92524 0.35872 0.83566 0.0
H1076 H 0.36823 0.19515 0.56703 0.0
H1077 H 0.42173 0.1366 0.54902 0.0
H1078 H 0.40299 0.22524 0.57245 0.0
H1079 H 0.45633 0.16571 0.55557 0.0
H1080 H 0.51766 0.21918 0.56512 0.0
H1081 H 0.48062 0.20048 0.54514 0.0
H1082 H 0.43354 0.23164 0.60414 0.0
H1083 H 0.47045 0.25139 0.62302 0.0
C1084 C 0.38742 0.18896 0.56369 0.0
C1085 C 0.39249 0.16368 0.55782 0.0
C1086 C 0.40735 0.20602 0.56706 0.0
C1087 C 0.43261 0.19793 0.56479 0.0
C1088 C 0.43729 0.17292 0.55718 0.0
C1089 C 0.41746 0.15607 0.55362 0.0
C1090 C 0.49923 0.22249 0.57333 0.0
C1091 C 0.49681 0.23665 0.59553 0.0
C1092 C 0.47801 0.21167 0.56204 0.0
C1093 C 0.45402 0.21411 0.57322 0.0
C1094 C 0.45154 0.22955 0.59472 0.0
C1095 C 0.47273 0.24083 0.60567 0.0
H1096 H 0.57789 0.64122 0.27861 0.0
H1097 H 0.56532 0.61884 0.35575 0.0
H1098 H 0.54768 0.67586 0.28368 0.0
H1099 H 0.53572 0.65356 0.36124 0.0
H1100 H 0.48338 0.71678 0.3686 0.0
H1101 H 0.49747 0.67634 0.35196 0.0
H1102 H 0.55388 0.71459 0.30724 0.0
H1103 H 0.53901 0.75503 0.32303 0.0
C1104 C 0.56797 0.64327 0.29637 0.0
C1105 C 0.57392 0.62772 0.3169 0.0
C1106 C 0.55089 0.66318 0.29938 0.0
C1107 C 0.5396 0.66775 0.32298 0.0
C1108 C 0.54387 0.65055 0.34275 0.0
C1109 C 0.5609 0.63071 0.3397 0.0
C1110 C 0.49801 0.71668 0.35438 0.0
C1111 C 0.50996 0.73915 0.34696 0.0
C1112 C 0.50633 0.69342 0.34509 0.0
C1113 C 0.5269 0.69217 0.32838 0.0
C1114 C 0.53776 0.7148 0.3198 0.0
C1115 C 0.52943 0.73801 0.32905 0.0
H1116 H 0.99051 0.7712 0.06161 0.0
H1117 H 0.03126 0.74986 0.12876 0.0
H1118 H 0.02885 0.78967 0.04411 0.0
H1119 H 0.06946 0.76909 0.11181 0.0
H1120 H 0.13721 0.80403 0.07567 0.0
H1121 H 0.10337 0.77282 0.08134 0.0
H1122 H 0.04896 0.828 0.05564 0.0
H1123 H 0.08268 0.8584 0.04956 0.0
C1124 C 0.00786 0.77005 0.07238 0.0
C1125 C 0.00801 0.75918 0.09649 0.0
C1126 C 0.02978 0.78071 0.06244 0.0
C1127 C 0.05215 0.78126 0.07672 0.0
C1128 C 0.05267 0.76878 0.10016 0.0
C1129 C 0.03077 0.75778 0.10994 0.0
C1130 C 0.11804 0.80899 0.0706 0.0
C1131 C 0.11231 0.83342 0.06226 0.0
C1132 C 0.09868 0.79131 0.07401 0.0
C1133 C 0.0734 0.7979 0.06906 0.0
C1134 C 0.06816 0.82202 0.05927 0.0
C1135 C 0.08741 0.83955 0.05592 0.0
H1136 H 0.1675 0.51399 0.23303 0.0
H1137 H 0.10987 0.4568 0.23846 0.0
H1138 H 0.18114 0.49624 0.1923 0.0
H1139 H 0.12324 0.43916 0.19826 0.0
H1140 H 0.13938 0.41766 0.12108 0.0
H1141 H 0.12551 0.44852 0.15243 0.0
H1142 H 0.20194 0.45453 0.18017 0.0
H1143 H 0.21576 0.42387 0.14834 0.0
C1144 C 0.15748 0.49799 0.22521 0.0
C1145 C 0.13759 0.48677 0.23862 0.0
C1146 C 0.16532 0.48778 0.20208 0.0
C1147 C 0.1531 0.46647 0.19199 0.0
C1148 C 0.13273 0.45587 0.20524 0.0
C1149 C 0.12519 0.46581 0.22835 0.0
C1150 C 0.15328 0.42633 0.13332 0.0
C1151 C 0.17851 0.41843 0.13262 0.0
C1152 C 0.14538 0.44382 0.15132 0.0
C1153 C 0.16257 0.45356 0.16903 0.0
C1154 C 0.1883 0.44742 0.16671 0.0
C1155 C 0.19622 0.42991 0.14857 0.0
H1156 H 0.67622 0.05315 0.88159 0.0
H1157 H 0.70141 0.1093 0.82849 0.0
H1158 H 0.67068 0.0229 0.84697 0.0
H1159 H 0.69476 0.08013 0.79394 0.0
H1160 H 0.6856 0.02596 0.73293 0.0
H1161 H 0.70425 0.04439 0.77079 0.0
H1162 H 0.64074 0.01774 0.81461 0.0
H1163 H 0.62313 0.99817 0.77696 0.0
C1164 C 0.68106 0.05875 0.86254 0.0
C1165 C 0.68905 0.08345 0.85751 0.0
C1166 C 0.67763 0.04162 0.84267 0.0
C1167 C 0.68195 0.04905 0.81749 0.0
C1168 C 0.69154 0.0734 0.81294 0.0
C1169 C 0.69517 0.09029 0.83273 0.0
C1170 C 0.67607 0.02357 0.75085 0.0
C1171 C 0.65302 0.0107 0.75213 0.0
C1172 C 0.6866 0.03426 0.77253 0.0
C1173 C 0.67383 0.03301 0.79581 0.0
C1174 C 0.65137 0.01888 0.79721 0.0
C1175 C 0.64115 0.00771 0.77559 0.0
H1176 H 0.63185 0.94885 0.5746 0.0
H1177 H 0.68729 0.92256 0.62793 0.0
H1178 H 0.66074 0.94072 0.54006 0.0
H1179 H 0.71729 0.91566 0.59344 0.0
H1180 H 0.74184 0.86676 0.52488 0.0
H1181 H 0.72177 0.88518 0.56185 0.0
H1182 H 0.6965 0.94821 0.51649 0.0
H1183 H 0.71542 0.92872 0.4793 0.0
C1184 C 0.65067 0.94209 0.57888 0.0
C1185 C 0.65734 0.93599 0.60371 0.0
C1186 C 0.6674 0.93757 0.5591 0.0
C1187 C 0.69141 0.92719 0.56377 0.0
C1188 C 0.69878 0.92309 0.58902 0.0
C1189 C 0.6818 0.92733 0.60883 0.0
C1190 C 0.73241 0.8848 0.52303 0.0
C1191 C 0.73005 0.89634 0.49934 0.0
C1192 C 0.72098 0.89551 0.54426 0.0
C1193 C 0.70721 0.91817 0.54227 0.0
C1194 C 0.70636 0.93045 0.51871 0.0
C1195 C 0.71731 0.91943 0.49741 0.0
H1196 H 0.82474 0.99514 0.25089 0.0
H1197 H 0.89196 0.95035 0.26101 0.0
H1198 H 0.80772 0.97854 0.29074 0.0
H1199 H 0.87514 0.93371 0.30037 0.0
H1200 H 0.85135 0.91924 0.37742 0.0
H1201 H 0.8641 0.94809 0.34383 0.0
H1202 H 0.79321 0.93496 0.30577 0.0
H1203 H 0.78042 0.90633 0.33981 0.0
C1204 C 0.83599 0.98209 0.26188 0.0
C1205 C 0.85975 0.9742 0.25319 0.0
C1206 C 0.82622 0.9725 0.28451 0.0
C1207 C 0.84026 0.95513 0.29884 0.0
C1208 C 0.86411 0.94749 0.29007 0.0
C1209 C 0.87365 0.9568 0.26743 0.0
C1210 C 0.83812 0.92345 0.3624 0.0
C1211 C 0.81494 0.91083 0.36107 0.0
C1212 C 0.84547 0.9397 0.34308 0.0
C1213 C 0.82983 0.94339 0.32198 0.0
C1214 C 0.8056 0.93255 0.32185 0.0
C1215 C 0.79822 0.91627 0.3413 0.0
H1216 H 0.86227 0.04665 0.08027 0.0
H1217 H 0.80441 0.06465 0.13446 0.0
H1218 H 0.83237 0.05213 0.04602 0.0
H1219 H 0.7737 0.06956 0.10005 0.0
H1220 H 0.74808 0.11946 0.03085 0.0
H1221 H 0.76779 0.10149 0.06832 0.0
H1222 H 0.79618 0.03949 0.02347 0.0
H1223 H 0.77726 0.05819 0.9859 0.0
C1224 C 0.8428 0.05098 0.08478 0.0
C1225 C 0.83552 0.05533 0.10979 0.0
C1226 C 0.82555 0.054 0.06519 0.0
C1227 C 0.80054 0.06143 0.07019 0.0
C1228 C 0.79287 0.06414 0.09551 0.0
C1229 C 0.81028 0.0611 0.1152 0.0
C1230 C 0.75788 0.1016 0.02921 0.0
C1231 C 0.76128 0.09022 0.00554 0.0
C1232 C 0.76917 0.09122 0.0507 0.0
C1233 C 0.78392 0.06919 0.0489 0.0
C1234 C 0.78546 0.05678 0.02547 0.0
C1235 C 0.77453 0.06737 0.00397 0.0
H1236 H 0.32829 0.54925 0.76303 0.0
H1237 H 0.36534 0.4904 0.72054 0.0
H1238 H 0.31134 0.56667 0.72405 0.0
H1239 H 0.3475 0.50711 0.68169 0.0
H1240 H 0.352 0.57408 0.62375 0.0
H1241 H 0.35843 0.54492 0.6587 0.0
H1242 H 0.28408 0.56281 0.68715 0.0
H1243 H 0.27806 0.59247 0.65215 0.0
C1244 C 0.33218 0.53959 0.74543 0.0
C1245 C 0.34797 0.51833 0.74495 0.0
C1246 C 0.32227 0.54942 0.72309 0.0
C1247 C 0.32809 0.53829 0.69971 0.0
C1248 C 0.34277 0.51619 0.69938 0.0
C1249 C 0.35271 0.50638 0.72175 0.0
C1250 C 0.33681 0.57114 0.63711 0.0
C1251 C 0.31467 0.5855 0.63556 0.0
C1252 C 0.34039 0.55438 0.65708 0.0
C1253 C 0.32186 0.55172 0.6759 0.0
C1254 C 0.29884 0.56471 0.67314 0.0
C1255 C 0.29527 0.58147 0.65307 0.0
H1256 H 0.13911 0.54004 0.42284 0.0
H1257 H 0.1904 0.57262 0.3689 0.0
H1258 H 0.16855 0.54865 0.45662 0.0
H1259 H 0.2212 0.57997 0.40258 0.0
H1260 H 0.24264 0.62989 0.47141 0.0
H1261 H 0.22437 0.60975 0.43441 0.0
H1262 H 0.20453 0.54485 0.47988 0.0
H1263 H 0.2212 0.56619 0.51713 0.0
C1264 C 0.15731 0.54813 0.41818 0.0
C1265 C 0.16247 0.55597 0.39348 0.0
C1266 C 0.17438 0.55299 0.43755 0.0
C1267 C 0.19729 0.5655 0.4326 0.0
C1268 C 0.20349 0.57097 0.40729 0.0
C1269 C 0.18609 0.56641 0.38788 0.0
C1270 C 0.23468 0.61115 0.47327 0.0
C1271 C 0.23301 0.59962 0.49699 0.0
C1272 C 0.22438 0.59941 0.45201 0.0
C1273 C 0.21258 0.57565 0.454 0.0
C1274 C 0.21273 0.56342 0.47762 0.0
C1275 C 0.22241 0.5755 0.49897 0.0
H1276 H 0.25496 0.37758 0.97076 0.0
H1277 H 0.27821 0.44174 0.01515 0.0
H1278 H 0.27463 0.39602 0.93359 0.0
H1279 H 0.29719 0.46081 0.9778 0.0
H1280 H 0.36479 0.45749 0.9221 0.0
H1281 H 0.33468 0.45083 0.95602 0.0
H1282 H 0.27851 0.42758 0.9015 0.0
H1283 H 0.30943 0.43358 0.86756 0.0
C1284 C 0.26344 0.3961 0.97231 0.0
C1285 C 0.2651 0.40827 0.99576 0.0
C1286 C 0.27471 0.40675 0.95098 0.0
C1287 C 0.28776 0.42983 0.9527 0.0
C1288 C 0.28776 0.44278 0.97589 0.0
C1289 C 0.2768 0.43196 0.99725 0.0
C1290 C 0.34577 0.4516 0.91742 0.0
C1291 C 0.33933 0.44581 0.89246 0.0
C1292 C 0.32841 0.44789 0.9368 0.0
C1293 C 0.30415 0.43842 0.93157 0.0
C1294 C 0.29715 0.43449 0.90622 0.0
C1295 C 0.31467 0.43814 0.88679 0.0
H1296 H 0.16696 0.28803 0.17238 0.0
H1297 H 0.08812 0.29492 0.15248 0.0
H1298 H 0.15537 0.26929 0.21242 0.0
H1299 H 0.07652 0.27573 0.193 0.0
H1300 H 0.06926 0.26103 0.2803 0.0
H1301 H 0.07905 0.28337 0.24094 0.0
H1302 H 0.13653 0.22814 0.22407 0.0
H1303 H 0.12705 0.20607 0.26301 0.0
C1304 C 0.1471 0.28556 0.17651 0.0
C1305 C 0.12846 0.29276 0.15903 0.0
C1306 C 0.14049 0.27475 0.19951 0.0
C1307 C 0.11507 0.27084 0.20575 0.0
C1308 C 0.09628 0.27864 0.18869 0.0
C1309 C 0.10293 0.28944 0.16546 0.0
C1310 C 0.08409 0.2538 0.26823 0.0
C1311 C 0.09743 0.23181 0.27485 0.0
C1312 C 0.08952 0.26646 0.24564 0.0
C1313 C 0.10859 0.25753 0.2295 0.0
C1314 C 0.12194 0.23566 0.23626 0.0
C1315 C 0.11641 0.22296 0.25858 0.0
H1316 H 0.41558 0.34473 0.9137 0.0
H1317 H 0.48404 0.38208 0.89046 0.0
H1318 H 0.43431 0.33627 0.95514 0.0
H1319 H 0.50324 0.37265 0.93099 0.0
H1320 H 0.5209 0.38284 0.01209 0.0
H1321 H 0.49935 0.38835 0.97208 0.0
H1322 H 0.4652 0.31469 0.98016 0.0
H1323 H 0.48603 0.30979 0.0211 0.0
C1324 C 0.43488 0.35045 0.91725 0.0
C1325 C 0.44837 0.36416 0.89905 0.0
C1326 C 0.44562 0.34568 0.94097 0.0
C1327 C 0.47011 0.35431 0.94668 0.0
C1328 C 0.48404 0.36651 0.92767 0.0
C1329 C 0.47319 0.37165 0.90429 0.0
C1330 C 0.50856 0.36795 0.00547 0.0
C1331 C 0.50528 0.34583 0.01962 0.0
C1332 C 0.49639 0.37095 0.98236 0.0
C1333 C 0.48103 0.35167 0.97247 0.0
C1334 C 0.47687 0.32993 0.98716 0.0
C1335 C 0.48878 0.32711 0.01061 0.0
H1336 H 0.39757 0.73139 0.78155 0.0
H1337 H 0.41828 0.80229 0.74741 0.0
H1338 H 0.38891 0.71381 0.73964 0.0
H1339 H 0.41138 0.78459 0.70576 0.0
H1340 H 0.36217 0.75993 0.64065 0.0
H1341 H 0.37673 0.77483 0.68122 0.0
H1342 H 0.40311 0.6998 0.69958 0.0
H1343 H 0.38719 0.68455 0.65906 0.0
C1344 C 0.40072 0.74298 0.76502 0.0
C1345 C 0.40807 0.76827 0.76761 0.0
C1346 C 0.39594 0.73294 0.741 0.0
C1347 C 0.39898 0.74791 0.71921 0.0
C1348 C 0.40796 0.77272 0.72202 0.0
C1349 C 0.41208 0.78286 0.74591 0.0
C1350 C 0.37137 0.74662 0.65315 0.0
C1351 C 0.3735 0.72106 0.6466 0.0
C1352 C 0.3799 0.75521 0.67649 0.0
C1353 C 0.39125 0.73858 0.69382 0.0
C1354 C 0.39416 0.71309 0.68691 0.0
C1355 C 0.38526 0.70439 0.66359 0.0
H1356 H 0.03905 0.66141 0.41069 0.0
H1357 H 0.04718 0.58327 0.43273 0.0
H1358 H 0.02233 0.67127 0.4527 0.0
H1359 H 0.03075 0.59319 0.4743 0.0
H1360 H 0.96452 0.61456 0.52676 0.0
H1361 H 0.98749 0.60564 0.4881 0.0
H1362 H 0.03369 0.6717 0.5 0.0
H1363 H 0.01053 0.68076 0.53907 0.0
C1364 C 0.0375 0.64643 0.4245 0.0
C1365 C 0.0441 0.62151 0.41821 0.0
C1366 C 0.02811 0.6521 0.44856 0.0
C1367 C 0.02507 0.63293 0.46665 0.0
C1368 C 0.03256 0.60827 0.46062 0.0
C1369 C 0.04198 0.60263 0.43675 0.0
C1370 C 0.97977 0.62705 0.52136 0.0
C1371 C 0.98571 0.64836 0.53597 0.0
C1372 C 0.99299 0.62188 0.49924 0.0
C1373 C 0.01234 0.638 0.49104 0.0
C1374 C 0.01873 0.65907 0.50585 0.0
C1375 C 0.00565 0.66409 0.52827 0.0
H1376 H 0.58289 0.20274 0.84867 0.0
H1377 H 0.66156 0.2051 0.8271 0.0
H1378 H 0.57146 0.22192 0.80806 0.0
H1379 H 0.65011 0.22398 0.78705 0.0
H1380 H 0.62341 0.29056 0.73923 0.0
H1381 H 0.63238 0.26712 0.77749 0.0
H1382 H 0.5737 0.21374 0.75898 0.0
H1383 H 0.56453 0.23741 0.72014 0.0
C1384 C 0.59768 0.20716 0.83529 0.0
C1385 C 0.62315 0.20269 0.84131 0.0
C1386 C 0.59112 0.21796 0.81202 0.0
C1387 C 0.60995 0.2246 0.79456 0.0
C1388 C 0.63524 0.21936 0.8003 0.0
C1389 C 0.64176 0.20851 0.82331 0.0
C1390 C 0.61239 0.2738 0.74315 0.0
C1391 C 0.59327 0.26583 0.72658 0.0
C1392 C 0.61763 0.26032 0.76506 0.0
C1393 C 0.60379 0.23859 0.77114 0.0
C1394 C 0.58456 0.23052 0.75473 0.0
C1395 C 0.57948 0.24393 0.73247 0.0
H1396 H 0.50993 0.88614 0.60035 0.0
H1397 H 0.57508 0.83991 0.58464 0.0
H1398 H 0.49317 0.87706 0.55869 0.0
H1399 H 0.55893 0.83165 0.54207 0.0
H1400 H 0.50816 0.80713 0.47399 0.0
H1401 H 0.52752 0.81233 0.51566 0.0
H1402 H 0.50213 0.88986 0.51736 0.0
H1403 H 0.48189 0.88416 0.47665 0.0
C1404 C 0.52058 0.87386 0.58793 0.0
C1405 C 0.54377 0.86375 0.59564 0.0
C1406 C 0.51117 0.8689 0.56389 0.0
C1407 C 0.52502 0.85418 0.54666 0.0
C1408 C 0.54775 0.84305 0.55481 0.0
C1409 C 0.55698 0.8477 0.57919 0.0
C1410 C 0.50716 0.82536 0.48319 0.0
C1411 C 0.49334 0.84518 0.47229 0.0
C1412 C 0.51819 0.82835 0.50707 0.0
C1413 C 0.51583 0.85132 0.52023 0.0
C1414 C 0.50354 0.87161 0.50828 0.0
C1415 C 0.49219 0.86848 0.48478 0.0
H1416 H 0.86094 0.76459 0.34579 0.0
H1417 H 0.90937 0.82917 0.33489 0.0
H1418 H 0.86933 0.75081 0.30295 0.0
H1419 H 0.91747 0.81555 0.2913 0.0
H1420 H 0.94079 0.76167 0.22243 0.0
H1421 H 0.93626 0.78162 0.26397 0.0
H1422 H 0.85615 0.76663 0.26203 0.0
H1423 H 0.86086 0.74613 0.22124 0.0
C1424 C 0.87361 0.77571 0.33424 0.0
C1425 C 0.88437 0.79801 0.3436 0.0
C1426 C 0.87821 0.76799 0.30958 0.0
C1427 C 0.89346 0.7825 0.29348 0.0
C1428 C 0.9055 0.80408 0.30323 0.0
C1429 C 0.90099 0.81178 0.32817 0.0
C1430 C 0.92214 0.76338 0.23063 0.0
C1431 C 0.90119 0.75214 0.21885 0.0
C1432 C 0.91957 0.77468 0.25443 0.0
C1433 C 0.89598 0.77499 0.26658 0.0
C1434 C 0.87472 0.76594 0.25353 0.0
C1435 C 0.87734 0.75445 0.23005 0.0
H1436 H 0.04267 0.17826 0.0019 0.0
H1437 H 0.97788 0.14458 0.966 0.0
H1438 H 0.02374 0.17158 0.04312 0.0
H1439 H 0.95926 0.1363 0.00757 0.0
H1440 H 0.927 0.13335 0.08694 0.0
H1441 H 0.94133 0.15053 0.0466 0.0
H1442 H 0.01863 0.13599 0.06839 0.0
H1443 H 0.00446 0.11997 0.10866 0.0
C1444 C 0.02422 0.16949 0.00296 0.0
C1445 C 0.01177 0.16167 0.98098 0.0
C1446 C 0.01344 0.16546 0.02657 0.0
C1447 C 0.99023 0.15282 0.02881 0.0
C1448 C 0.9771 0.14619 0.0066 0.0
C1449 C 0.98774 0.15079 0.9828 0.0
C1450 C 0.94707 0.13431 0.08322 0.0
C1451 C 0.9646 0.1253 0.10102 0.0
C1452 C 0.95527 0.14394 0.06001 0.0
C1453 C 0.98114 0.14467 0.05412 0.0
C1454 C 0.99858 0.13627 0.07232 0.0
C1455 C 0.99044 0.12689 0.09549 0.0
H1456 H 0.26606 0.13131 0.22369 0.0
H1457 H 0.27786 0.05974 0.26088 0.0
H1458 H 0.22716 0.13729 0.24734 0.0
H1459 H 0.2384 0.06571 0.28451 0.0
H1460 H 0.14778 0.0785 0.28843 0.0
H1461 H 0.18988 0.06927 0.2714 0.0
H1462 H 0.21517 0.14334 0.29386 0.0
H1463 H 0.17367 0.15261 0.31079 0.0
C1464 C 0.26042 0.11694 0.23708 0.0
C1465 C 0.27503 0.09509 0.24048 0.0
C1466 C 0.23819 0.1204 0.25066 0.0
C1467 C 0.22983 0.10195 0.26773 0.0
C1468 C 0.24445 0.08015 0.27138 0.0
C1469 C 0.26706 0.07686 0.25805 0.0
C1470 C 0.16244 0.09264 0.29005 0.0
C1471 C 0.15722 0.11641 0.30063 0.0
C1472 C 0.18652 0.08731 0.28043 0.0
C1473 C 0.20561 0.10573 0.28112 0.0
C1474 C 0.20069 0.12894 0.29281 0.0
C1475 C 0.17685 0.13419 0.30251 0.0
H1476 H 0.61293 0.52302 0.9677 0.0
H1477 H 0.68014 0.53387 0.01259 0.0
H1478 H 0.60424 0.48392 0.98998 0.0
H1479 H 0.67134 0.49435 0.03506 0.0
H1480 H 0.66102 0.40481 0.03776 0.0
H1481 H 0.67063 0.4474 0.0224 0.0
H1482 H 0.59272 0.46876 0.03288 0.0
H1483 H 0.58304 0.42665 0.04788 0.0
C1484 C 0.62565 0.51723 0.98262 0.0
C1485 C 0.64721 0.53153 0.98841 0.0
C1486 C 0.62064 0.49485 0.99544 0.0
C1487 C 0.63716 0.48606 0.01421 0.0
C1488 C 0.6584 0.50063 0.02053 0.0
C1489 C 0.66327 0.52333 0.00788 0.0
C1490 C 0.64603 0.41868 0.03696 0.0
C1491 C 0.62121 0.41218 0.04367 0.0
C1492 C 0.65156 0.44308 0.02835 0.0
C1493 C 0.63235 0.46129 0.02626 0.0
C1494 C 0.60782 0.45502 0.03394 0.0
C1495 C 0.60232 0.43082 0.04254 0.0
H1496 H 0.21862 0.93462 0.76416 0.0
H1497 H 0.23603 0.87335 0.71316 0.0
H1498 H 0.25831 0.92686 0.78675 0.0
H1499 H 0.27529 0.8658 0.73553 0.0
H1500 H 0.32895 0.84099 0.79594 0.0
H1501 H 0.28789 0.85046 0.77826 0.0
H1502 H 0.3063 0.92979 0.77705 0.0
H1503 H 0.34794 0.92035 0.7951 0.0
C1504 C 0.23074 0.91938 0.75794 0.0
C1505 C 0.22415 0.90455 0.73692 0.0
C1506 C 0.25351 0.91512 0.77071 0.0
C1507 C 0.26983 0.89573 0.76289 0.0
C1508 C 0.26298 0.88072 0.74215 0.0
C1509 C 0.24048 0.88511 0.72929 0.0
C1510 C 0.32439 0.86053 0.79204 0.0
C1511 C 0.34195 0.87991 0.79664 0.0
C1512 C 0.30079 0.8659 0.78187 0.0
C1513 C 0.29401 0.8908 0.77605 0.0
C1514 C 0.31106 0.91041 0.78147 0.0
C1515 C 0.33491 0.905 0.79164 0.0
H1516 H 0.88213 0.4854 0.45914 0.0
H1517 H 0.82601 0.46919 0.51603 0.0
H1518 H 0.89001 0.52615 0.47835 0.0
H1519 H 0.8338 0.51058 0.53523 0.0
H1520 H 0.8773 0.57822 0.57372 0.0
H1521 H 0.86614 0.53646 0.5576 0.0
H1522 H 0.86684 0.56576 0.48157 0.0
H1523 H 0.87843 0.6072 0.49752 0.0
C1524 C 0.87151 0.49047 0.47585 0.0
C1525 C 0.85325 0.47406 0.4859 0.0
C1526 C 0.8759 0.51399 0.48675 0.0
C1527 C 0.86214 0.52186 0.50799 0.0
C1528 C 0.84466 0.50507 0.51882 0.0
C1529 C 0.84023 0.48137 0.50785 0.0
C1530 C 0.87472 0.57582 0.55359 0.0
C1531 C 0.87909 0.59599 0.53687 0.0
C1532 C 0.86828 0.55189 0.54438 0.0
C1533 C 0.86608 0.54768 0.51828 0.0
C1534 C 0.86902 0.56822 0.50175 0.0
C1535 C 0.87548 0.59206 0.51091 0.0
H1536 H 0.76751 0.36319 0.76776 0.0
H1537 H 0.77334 0.4397 0.74054 0.0
H1538 H 0.72689 0.35873 0.74702 0.0
H1539 H 0.73179 0.43578 0.72065 0.0
H1540 H 0.66264 0.40983 0.67227 0.0
H1541 H 0.70519 0.41691 0.68904 0.0
H1542 H 0.68592 0.37328 0.75522 0.0
H1543 H 0.64425 0.36536 0.73789 0.0
C1544 C 0.7601 0.37902 0.75715 0.0
C1545 C 0.77346 0.40182 0.75588 0.0
C1546 C 0.73665 0.37661 0.74551 0.0
C1547 C 0.72563 0.39715 0.73278 0.0
C1548 C 0.73965 0.41958 0.73031 0.0
C1549 C 0.76346 0.42184 0.74165 0.0
C1550 C 0.6675 0.40221 0.6906 0.0
C1551 C 0.6503 0.38696 0.70378 0.0
C1552 C 0.69187 0.40616 0.70018 0.0
C1553 C 0.69926 0.39514 0.72321 0.0
C1554 C 0.68129 0.38131 0.73701 0.0
C1555 C 0.65726 0.37703 0.72728 0.0
H1556 H 0.33608 0.90365 0.45324 0.0
H1557 H 0.41431 0.92647 0.44934 0.0
H1558 H 0.32515 0.94507 0.47088 0.0
H1559 H 0.40336 0.9674 0.46665 0.0
H1560 H 0.38007 0.01781 0.53295 0.0
H1561 H 0.38899 0.97929 0.50987 0.0
H1562 H 0.3251 0.99318 0.46124 0.0
H1563 H 0.31599 0.03223 0.4846 0.0
C1564 C 0.35086 0.9175 0.4559 0.0
C1565 C 0.37611 0.91158 0.45024 0.0
C1566 C 0.34458 0.94123 0.46583 0.0
C1567 C 0.36347 0.95933 0.47035 0.0
C1568 C 0.38847 0.95369 0.46373 0.0
C1569 C 0.39471 0.93017 0.4538 0.0
C1570 C 0.36796 0.01284 0.51724 0.0
C1571 C 0.34732 0.0281 0.5106 0.0
C1572 C 0.37316 0.99079 0.50394 0.0
C1573 C 0.35778 0.98326 0.48372 0.0
C1574 C 0.33719 0.99852 0.47684 0.0
C1575 C 0.33212 0.02092 0.49005 0.0
H1576 H 0.83915 0.59268 0.20486 0.0
H1577 H 0.81818 0.67145 0.20831 0.0
H1578 H 0.79805 0.5812 0.22265 0.0
H1579 H 0.7774 0.65996 0.22567 0.0
H1580 H 0.72573 0.63187 0.28914 0.0
H1581 H 0.7641 0.64277 0.26668 0.0
H1582 H 0.75092 0.58197 0.21402 0.0
H1583 H 0.71221 0.57079 0.23677 0.0
C1584 C 0.82577 0.6075 0.20923 0.0
C1585 C 0.83211 0.63299 0.20545 0.0
C1586 C 0.80219 0.60092 0.21923 0.0
C1587 C 0.78458 0.61971 0.22572 0.0
C1588 C 0.7907 0.64508 0.22123 0.0
C1589 C 0.81412 0.65164 0.21123 0.0
C1590 C 0.7308 0.62091 0.27264 0.0
C1591 C 0.71587 0.60044 0.26476 0.0
C1592 C 0.75279 0.62724 0.25969 0.0
C1593 C 0.76054 0.61323 0.23857 0.0
C1594 C 0.74548 0.59298 0.23036 0.0
C1595 C 0.72323 0.58674 0.24324 0.0
H1596 H 0.11958 0.98264 0.0372 0.0
H1597 H 0.17987 0.96635 0.98472 0.0
H1598 H 0.11111 0.02199 0.01547 0.0
H1599 H 0.1711 0.00612 0.96266 0.0
H1600 H 0.16483 0.09538 0.95537 0.0
H1601 H 0.17437 0.05335 0.9723 0.0
H1602 H 0.09473 0.03629 0.97444 0.0
H1603 H 0.08518 0.07786 0.95803 0.0
C1604 C 0.13087 0.98732 0.02081 0.0
C1605 C 0.15039 0.97132 0.01267 0.0
C1606 C 0.12594 0.00988 0.0083 0.0
C1607 C 0.14044 0.01714 0.98735 0.0
C1608 C 0.15976 0.00104 0.97887 0.0
C1609 C 0.16459 0.97821 0.99133 0.0
C1610 C 0.14942 0.08259 0.95938 0.0
C1611 C 0.12426 0.09015 0.9557 0.0
C1612 C 0.15488 0.05849 0.96888 0.0
C1613 C 0.13526 0.04165 0.97488 0.0
C1614 C 0.11023 0.04899 0.97039 0.0
C1615 C 0.1048 0.07289 0.96095 0.0
H1616 H 0.26831 0.15606 0.14395 0.0
H1617 H 0.33297 0.16969 0.09637 0.0
H1618 H 0.25218 0.19779 0.13437 0.0
H1619 H 0.31727 0.21231 0.0874 0.0
H1620 H 0.26396 0.27841 0.06046 0.0
H1621 H 0.2849 0.23774 0.06736 0.0
H1622 H 0.26196 0.23968 0.14562 0.0
H1623 H 0.24017 0.27936 0.13829 0.0
C1624 C 0.27906 0.16805 0.13135 0.0
C1625 C 0.30193 0.15969 0.12099 0.0
C1626 C 0.26998 0.19213 0.12607 0.0
C1627 C 0.28376 0.20876 0.11065 0.0
C1628 C 0.3062 0.20003 0.09939 0.0
C1629 C 0.31516 0.17563 0.10445 0.0
C1630 C 0.26398 0.27031 0.07923 0.0
C1631 C 0.2503 0.28181 0.09881 0.0
C1632 C 0.27589 0.247 0.08319 0.0
C1633 C 0.27451 0.23505 0.10688 0.0
C1634 C 0.26263 0.24783 0.1269 0.0
C1635 C 0.25041 0.27074 0.12283 0.0
H1636 H 0.76408 0.34092 0.85378 0.0
H1637 H 0.8294 0.32606 0.90011 0.0
H1638 H 0.74696 0.29984 0.86435 0.0
H1639 H 0.81276 0.28402 0.90997 0.0
H1640 H 0.75942 0.21935 0.93886 0.0
H1641 H 0.78066 0.25967 0.93101 0.0
H1642 H 0.75486 0.25766 0.8536 0.0
H1643 H 0.73275 0.2184 0.86195 0.0
C1644 C 0.77476 0.32878 0.8663 0.0
C1645 C 0.79808 0.33659 0.87605 0.0
C1646 C 0.76511 0.30507 0.87215 0.0
C1647 C 0.77878 0.28825 0.88749 0.0
C1648 C 0.80173 0.29646 0.89809 0.0
C1649 C 0.81125 0.32052 0.89251 0.0
C1650 C 0.75878 0.22741 0.92009 0.0
C1651 C 0.74428 0.21601 0.90106 0.0
C1652 C 0.77089 0.2505 0.91557 0.0
C1653 C 0.76891 0.2623 0.89185 0.0
C1654 C 0.75603 0.24966 0.87237 0.0
C1655 C 0.74359 0.22699 0.87701 0.0
H1656 H 0.42298 0.05334 0.59142 0.0
H1657 H 0.39846 0.0407 0.66821 0.0
H1658 H 0.46403 0.03581 0.60151 0.0
H1659 H 0.44009 0.02294 0.67825 0.0
H1660 H 0.52795 0.01014 0.68697 0.0
H1661 H 0.48888 0.03412 0.67956 0.0
H1662 H 0.47515 0.99047 0.61214 0.0
H1663 H 0.51362 0.96663 0.6195 0.0
C1664 C 0.42634 0.04696 0.61055 0.0
C1665 C 0.40722 0.04807 0.62893 0.0
C1666 C 0.44994 0.03694 0.61629 0.0
C1667 C 0.45514 0.02782 0.64057 0.0
C1668 C 0.43656 0.02996 0.65939 0.0
C1669 C 0.41272 0.03996 0.6536 0.0
C1670 C 0.51667 0.00595 0.67044 0.0
C1671 C 0.52382 0.98655 0.65379 0.0
C1672 C 0.49428 0.01949 0.66635 0.0
C1673 C 0.47907 0.01414 0.64527 0.0
C1674 C 0.48662 0.99515 0.62841 0.0
C1675 C 0.50862 0.98145 0.63268 0.0
H1676 H 0.74765 0.63347 0.38463 0.0
H1677 H 0.67475 0.66758 0.37141 0.0
H1678 H 0.76437 0.6743 0.39742 0.0
H1679 H 0.69172 0.70861 0.38381 0.0
H1680 H 0.73168 0.77659 0.42415 0.0
H1681 H 0.71122 0.73544 0.41809 0.0
H1682 H 0.77351 0.71152 0.37133 0.0
H1683 H 0.7938 0.75193 0.37733 0.0
C1684 C 0.73509 0.64959 0.38477 0.0
C1685 C 0.70999 0.64731 0.3766 0.0
C1686 C 0.7447 0.67303 0.39197 0.0
C1687 C 0.72948 0.69477 0.39111 0.0
C1688 C 0.7039 0.69222 0.38466 0.0
C1689 C 0.69423 0.6687 0.37747 0.0
C1690 C 0.74086 0.76256 0.41245 0.0
C1691 C 0.76448 0.76755 0.4014 0.0
C1692 C 0.72917 0.73902 0.40903 0.0
C1693 C 0.74102 0.72007 0.39465 0.0
C1694 C 0.76421 0.72544 0.38308 0.0
C1695 C 0.77575 0.74879 0.38638 0.0
H1696 H 0.98808 0.04679 0.11991 0.0
H1697 H 0.97227 0.98636 0.17233 0.0
H1698 H 0.02911 0.02854 0.11111 0.0
H1699 H 0.01391 0.96829 0.16384 0.0
H1700 H 0.08116 0.93182 0.11996 0.0
H1701 H 0.03958 0.94774 0.13164 0.0
H1702 H 0.06898 0.02378 0.13225 0.0
H1703 H 0.11028 0.00798 0.1199 0.0
C1704 C 0.99333 0.02954 0.12955 0.0
C1705 C 0.97689 0.01812 0.14694 0.0
C1706 C 0.01702 0.0192 0.12466 0.0
C1707 C 0.02503 0.9972 0.13712 0.0
C1708 C 0.0083 0.98524 0.1539 0.0
C1709 C 0.98444 0.99558 0.15876 0.0
C1710 C 0.07883 0.95191 0.1229 0.0
C1711 C 0.09899 0.96867 0.1187 0.0
C1712 C 0.05498 0.96102 0.12966 0.0
C1713 C 0.05081 0.98708 0.13245 0.0
C1714 C 0.07136 0.00365 0.12961 0.0
C1715 C 0.09512 0.99457 0.12275 0.0
H1716 H 0.30383 0.75035 0.58916 0.0
H1717 H 0.23209 0.71467 0.60362 0.0
H1718 H 0.28586 0.79118 0.59878 0.0
H1719 H 0.21405 0.75589 0.61481 0.0
H1720 H 0.18547 0.83789 0.61734 0.0
H1721 H 0.20101 0.79724 0.60181 0.0
H1722 H 0.274 0.81312 0.6347 0.0
H1723 H 0.25895 0.85375 0.64892 0.0
C1724 C 0.28417 0.75127 0.5947 0.0
C1725 C 0.26945 0.72929 0.59609 0.0
C1726 C 0.27385 0.77473 0.60035 0.0
C1727 C 0.24862 0.77691 0.60819 0.0
C1728 C 0.23354 0.75497 0.60877 0.0
C1729 C 0.24384 0.73135 0.60253 0.0
C1730 C 0.20494 0.83276 0.62086 0.0
C1731 C 0.22105 0.84917 0.63412 0.0
C1732 C 0.21378 0.80936 0.61219 0.0
C1733 C 0.23883 0.80185 0.61682 0.0
C1734 C 0.2548 0.8184 0.63013 0.0
C1735 C 0.24611 0.84178 0.63844 0.0
H1736 H 0.02551 0.49214 0.30886 0.0
H1737 H 0.02112 0.51531 0.38689 0.0
H1738 H 0.98616 0.46807 0.31391 0.0
H1739 H 0.98238 0.49121 0.39194 0.0
H1740 H 0.92604 0.43027 0.40049 0.0
H1741 H 0.96806 0.44512 0.39022 0.0
H1742 H 0.939 0.48238 0.32392 0.0
H1743 H 0.8964 0.46734 0.3341 0.0
C1744 C 0.01645 0.49162 0.32717 0.0
C1745 C 0.02631 0.50553 0.34751 0.0
C1746 C 0.9939 0.47808 0.32996 0.0
C1747 C 0.98132 0.47782 0.35329 0.0
C1748 C 0.99182 0.4909 0.37381 0.0
C1749 C 0.01395 0.50474 0.37091 0.0
C1750 C 0.92849 0.44126 0.38345 0.0
C1751 C 0.90771 0.44795 0.36831 0.0
C1752 C 0.95263 0.44975 0.37762 0.0
C1753 C 0.95668 0.46509 0.35648 0.0
C1754 C 0.93633 0.47046 0.34031 0.0
C1755 C 0.91197 0.46198 0.34621 0.0
H1756 H 0.58557 0.56622 0.86533 0.0
H1757 H 0.60136 0.49173 0.89445 0.0
H1758 H 0.54602 0.55068 0.84725 0.0
H1759 H 0.5618 0.47658 0.87751 0.0
H1760 H 0.50014 0.4478 0.83035 0.0
H1761 H 0.54093 0.46613 0.84014 0.0
H1762 H 0.50461 0.53667 0.85932 0.0
H1763 H 0.4636 0.5184 0.84801 0.0
C1764 C 0.58068 0.54652 0.86775 0.0
C1765 C 0.59668 0.53016 0.88121 0.0
C1766 C 0.55792 0.53768 0.85758 0.0
C1767 C 0.55068 0.51233 0.86078 0.0
C1768 C 0.56692 0.49605 0.87408 0.0
C1769 C 0.58965 0.5048 0.88398 0.0
C1770 C 0.50091 0.46733 0.83639 0.0
C1771 C 0.47875 0.48161 0.8388 0.0
C1772 C 0.52429 0.47781 0.84217 0.0
C1773 C 0.52609 0.50271 0.85114 0.0
C1774 C 0.50397 0.51746 0.85239 0.0
C1775 C 0.48047 0.50702 0.84605 0.0
H1776 H 0.93571 0.13144 0.21608 0.0
H1777 H 0.93564 0.05876 0.25306 0.0
H1778 H 0.95944 0.14924 0.25118 0.0
H1779 H 0.95958 0.07667 0.28816 0.0
H1780 H 0.04009 0.11113 0.31012 0.0
H1781 H 0.00519 0.09173 0.2873 0.0
H1782 H 0.96052 0.15901 0.29799 0.0
H1783 H 0.99534 0.17852 0.32089 0.0
C1784 C 0.94022 0.11941 0.23197 0.0
C1785 C 0.93407 0.09363 0.23161 0.0
C1786 C 0.9537 0.12964 0.25217 0.0
C1787 C 0.96154 0.11426 0.27229 0.0
C1788 C 0.95394 0.08888 0.27277 0.0
C1789 C 0.94013 0.0787 0.25272 0.0
C1790 C 0.02262 0.12158 0.30818 0.0
C1791 C 0.02067 0.14652 0.31701 0.0
C1792 C 0.00256 0.11039 0.29523 0.0
C1793 C 0.98024 0.12399 0.29067 0.0
C1794 C 0.97761 0.14822 0.30105 0.0
C1795 C 0.99756 0.15932 0.31425 0.0
H1796 H 0.63063 0.29477 0.05222 0.0
H1797 H 0.56411 0.24844 0.06134 0.0
H1798 H 0.65131 0.26032 0.02956 0.0
H1799 H 0.58476 0.21429 0.03836 0.0
H1800 H 0.61684 0.19009 0.95717 0.0
H1801 H 0.59716 0.21523 0.99039 0.0
H1802 H 0.66624 0.21283 0.03346 0.0
H1803 H 0.6859 0.18717 0.00046 0.0
C1804 C 0.62063 0.27709 0.04987 0.0
C1805 C 0.59565 0.27445 0.05839 0.0
C1806 C 0.63251 0.25735 0.03701 0.0
C1807 C 0.61952 0.23477 0.03211 0.0
C1808 C 0.5951 0.23158 0.04182 0.0
C1809 C 0.58337 0.25114 0.05506 0.0
C1810 C 0.62764 0.19438 0.974 0.0
C1811 C 0.65294 0.18677 0.97615 0.0
C1812 C 0.61634 0.20869 0.99304 0.0
C1813 C 0.63026 0.21604 0.01438 0.0
C1814 C 0.65517 0.20745 0.01713 0.0
C1815 C 0.66633 0.19267 0.99831 0.0
H1816 H 0.56691 0.93259 0.75322 0.0
H1817 H 0.55733 0.86305 0.71166 0.0
H1818 H 0.54427 0.91436 0.78893 0.0
H1819 H 0.53486 0.84489 0.74742 0.0
H1820 H 0.5017 0.81395 0.81743 0.0
H1821 H 0.53673 0.83217 0.79387 0.0
H1822 H 0.49727 0.90334 0.79023 0.0
H1823 H 0.46213 0.88521 0.81368 0.0
C1824 C 0.56066 0.91318 0.75195 0.0
C1825 C 0.56368 0.89933 0.72949 0.0
C1826 C 0.54759 0.90283 0.77238 0.0
C1827 C 0.53769 0.87831 0.77087 0.0
C1828 C 0.54246 0.86378 0.74919 0.0
C1829 C 0.5552 0.87423 0.72864 0.0
C1830 C 0.50077 0.83371 0.81232 0.0
C1831 C 0.47892 0.84804 0.81712 0.0
C1832 C 0.52081 0.84406 0.7987 0.0
C1833 C 0.51956 0.86903 0.78999 0.0
C1834 C 0.49879 0.88405 0.79681 0.0
C1835 C 0.4786 0.87362 0.81016 0.0
H1836 H 0.93261 0.75317 0.56902 0.0
H1837 H 0.86352 0.71034 0.56242 0.0
H1838 H 0.91393 0.78705 0.54396 0.0
H1839 H 0.84489 0.74428 0.53761 0.0
H1840 H 0.8835 0.8078 0.46129 0.0
H1841 H 0.90219 0.78551 0.49694 0.0
H1842 H 0.83169 0.79076 0.53737 0.0
H1843 H 0.81292 0.81315 0.50181 0.0
C1844 C 0.91324 0.75125 0.56281 0.0
C1845 C 0.89961 0.72894 0.56745 0.0
C1846 C 0.90262 0.77061 0.54838 0.0
C1847 C 0.87805 0.76821 0.53876 0.0
C1848 C 0.86382 0.74673 0.54496 0.0
C1849 C 0.87453 0.72722 0.55904 0.0
C1850 C 0.87216 0.80479 0.47802 0.0
C1851 C 0.84665 0.81199 0.47858 0.0
C1852 C 0.88292 0.79215 0.4985 0.0
C1853 C 0.86828 0.78624 0.51979 0.0
C1854 C 0.8433 0.79494 0.52108 0.0
C1855 C 0.83263 0.80788 0.50075 0.0
H1856 H 0.43087 0.36496 0.78233 0.0
H1857 H 0.42719 0.43629 0.74295 0.0
H1858 H 0.45395 0.34672 0.74706 0.0
H1859 H 0.45046 0.41794 0.70771 0.0
H1860 H 0.53317 0.38706 0.68841 0.0
H1861 H 0.49676 0.4054 0.70964 0.0
H1862 H 0.45597 0.33548 0.70049 0.0
H1863 H 0.49237 0.31704 0.67914 0.0
C1864 C 0.43431 0.37654 0.76585 0.0
C1865 C 0.42761 0.40219 0.76567 0.0
C1866 C 0.44743 0.36604 0.74556 0.0
C1867 C 0.45428 0.38105 0.72481 0.0
C1868 C 0.44563 0.40606 0.72362 0.0
C1869 C 0.43222 0.41649 0.74378 0.0
C1870 C 0.51622 0.3758 0.69031 0.0
C1871 C 0.51581 0.3505 0.68241 0.0
C1872 C 0.49528 0.38636 0.70231 0.0
C1873 C 0.47362 0.37176 0.70688 0.0
C1874 C 0.47251 0.34707 0.69734 0.0
C1875 C 0.49334 0.33659 0.68504 0.0
H1876 H 0.30977 0.69222 0.49699 0.0
H1877 H 0.3839 0.68425 0.53004 0.0
H1878 H 0.32776 0.71748 0.46286 0.0
H1879 H 0.40179 0.70921 0.49586 0.0
H1880 H 0.42998 0.74735 0.42674 0.0
H1881 H 0.40894 0.71272 0.44841 0.0
H1882 H 0.34677 0.76198 0.46691 0.0
H1883 H 0.36775 0.79678 0.4453 0.0
C1884 C 0.32999 0.69517 0.49656 0.0
C1885 C 0.34542 0.6865 0.51635 0.0
C1886 C 0.34022 0.70975 0.47711 0.0
C1887 C 0.36609 0.71545 0.47687 0.0
C1888 C 0.3818 0.70498 0.49549 0.0
C1889 C 0.37154 0.69078 0.51513 0.0
C1890 C 0.41155 0.75072 0.43488 0.0
C1891 C 0.40069 0.77497 0.43458 0.0
C1892 C 0.39957 0.73086 0.44735 0.0
C1893 C 0.37635 0.73473 0.45946 0.0
C1894 C 0.36459 0.75843 0.45756 0.0
C1895 C 0.3767 0.7784 0.44533 0.0
H1896 H 0.99861 0.66978 0.17512 0.0
H1897 H 0.94137 0.63549 0.22211 0.0
H1898 H 0.03148 0.65117 0.2019 0.0
H1899 H 0.97413 0.61748 0.24873 0.0
H1900 H 0.03476 0.62627 0.3089 0.0
H1901 H 0.00769 0.64502 0.27698 0.0
H1902 H 0.04568 0.60241 0.21899 0.0
H1903 H 0.07287 0.58305 0.25105 0.0
C1904 C 0.99302 0.65801 0.19085 0.0
C1905 C 0.96733 0.65435 0.19661 0.0
C1906 C 0.01183 0.6474 0.2061 0.0
C1907 C 0.00519 0.63333 0.22749 0.0
C1908 C 0.97964 0.62858 0.23247 0.0
C1909 C 0.96091 0.6388 0.21711 0.0
C1910 C 0.03781 0.62115 0.28935 0.0
C1911 C 0.05576 0.60278 0.28263 0.0
C1912 C 0.02219 0.63184 0.27111 0.0
C1913 C 0.02441 0.62475 0.24572 0.0
C1914 C 0.04362 0.60801 0.23855 0.0
C1915 C 0.05913 0.59699 0.2569 0.0
H1916 H 0.12234 0.30423 0.04406 0.0
H1917 H 0.18941 0.31287 0.9985 0.0
H1918 H 0.10203 0.28125 0.00967 0.0
H1919 H 0.16912 0.28944 0.96427 0.0
H1920 H 0.13524 0.20814 0.94058 0.0
H1921 H 0.15594 0.24165 0.96449 0.0
H1922 H 0.0874 0.28558 0.96261 0.0
H1923 H 0.0667 0.25233 0.93833 0.0
C1924 C 0.13257 0.3016 0.02656 0.0
C1925 C 0.15752 0.3102 0.02406 0.0
C1926 C 0.12089 0.28859 0.00683 0.0
C1927 C 0.13407 0.28356 0.98438 0.0
C1928 C 0.15861 0.29307 0.98143 0.0
C1929 C 0.17014 0.30653 0.00099 0.0
C1930 C 0.12479 0.22524 0.94464 0.0
C1931 C 0.09925 0.22744 0.9378 0.0
C1932 C 0.13667 0.24445 0.95824 0.0
C1933 C 0.12314 0.26604 0.96557 0.0
C1934 C 0.09815 0.26902 0.95731 0.0
C1935 C 0.08639 0.25001 0.94331 0.0
H1936 H 0.21527 0.93722 0.13286 0.0
H1937 H 0.25347 0.93768 0.06082 0.0
H1938 H 0.24952 0.96193 0.15114 0.0
H1939 H 0.28756 0.96283 0.07915 0.0
H1940 H 0.32015 0.99675 0.18094 0.0
H1941 H 0.29754 0.96227 0.16056 0.0
H1942 H 0.28422 0.00931 0.09546 0.0
H1943 H 0.30666 0.04403 0.11585 0.0
C1944 C 0.23124 0.94212 0.12109 0.0
C1945 C 0.23157 0.9357 0.09538 0.0
C1946 C 0.2509 0.95617 0.13158 0.0
C1947 C 0.27106 0.96439 0.11647 0.0
C1948 C 0.27215 0.95679 0.09112 0.0
C1949 C 0.25269 0.9423 0.08072 0.0
C1950 C 0.31301 -0.00039 0.16201 0.0
C1951 C 0.31495 0.02328 0.15012 0.0
C1952 C 0.29998 0.97985 0.15043 0.0
C1953 C 0.28902 0.98323 0.12657 0.0
C1954 C 0.29264 0.00618 0.11383 0.0
C1955 C 0.30537 0.0261 0.12555 0.0
H1956 H 0.80255 0.45057 0.8818 0.0
H1957 H 0.81676 0.4986 0.81741 0.0
H1958 H 0.78002 0.48513 0.90239 0.0
H1959 H 0.79398 0.53288 0.83797 0.0
H1960 H 0.7508 0.55795 0.93741 0.0
H1961 H 0.78429 0.532 0.919 0.0
H1962 H 0.74546 0.53278 0.8474 0.0
H1963 H 0.71178 0.55823 0.86579 0.0
C1964 C 0.80137 0.46862 0.87229 0.0
C1965 C 0.81121 0.47173 0.84786 0.0
C1966 C 0.78859 0.48842 0.88413 0.0
C1967 C 0.78517 0.51154 0.87163 0.0
C1968 C 0.7963 0.51516 0.8479 0.0
C1969 C 0.8094 0.49552 0.83622 0.0
C1970 C 0.74971 0.55306 0.91759 0.0
C1971 C 0.72859 0.55993 0.90305 0.0
C1972 C 0.7688 0.53814 0.90715 0.0
C1973 C 0.76735 0.5304 0.88186 0.0
C1974 C 0.7471 0.53868 0.86691 0.0
C1975 C 0.72779 0.55314 0.87745 0.0
H1976 H 0.24637 0.06927 0.56577 0.0
H1977 H 0.28975 0.06109 0.63438 0.0
H1978 H 0.2114 0.04646 0.58518 0.0
H1979 H 0.25466 0.0385 0.65374 0.0
H1980 H 0.18396 0.00598 0.68631 0.0
H1981 H 0.20799 0.04044 0.66736 0.0
H1982 H 0.21131 0.99941 0.59706 0.0
H1983 H 0.18757 0.96486 0.61595 0.0
C1984 C 0.24822 0.06325 0.58521 0.0
C1985 C 0.27098 0.06671 0.59845 0.0
C1986 C 0.2282 0.05011 0.59624 0.0
C1987 C 0.23041 0.0406 0.62086 0.0
C1988 C 0.25238 0.04579 0.63478 0.0
C1989 C 0.27253 0.05859 0.62363 0.0
C1990 C 0.1892 0.00459 0.6666 0.0
C1991 C 0.18413 0.98255 0.65268 0.0
C1992 C 0.20306 0.02428 0.65584 0.0
C1993 C 0.21164 0.02248 0.63085 0.0
C1994 C 0.20479 0.00137 0.61633 0.0
C1995 C 0.19131 0.98152 0.62719 0.0
H1996 H 0.68388 0.49337 0.31515 0.0
H1997 H 0.68677 0.53545 0.38498 0.0
H1998 H 0.70934 0.46 0.33428 0.0
H1999 H 0.712 0.50207 0.40401 0.0
H2000 H 0.7485 0.4334 0.43632 0.0
H2001 H 0.71335 0.45589 0.41687 0.0
H2002 H 0.75564 0.46211 0.34756 0.0
H2003 H 0.79086 0.43969 0.36691 0.0
C2004 C 0.68938 0.49522 0.33475 0.0
C2005 C 0.68356 0.51719 0.34848 0.0
C2006 C 0.70405 0.47617 0.34562 0.0
C2007 C 0.71277 0.47855 0.37054 0.0
C2008 C 0.70539 0.49964 0.38482 0.0
C2009 C 0.69106 0.51883 0.37386 0.0
C2010 C 0.75011 0.43902 0.41675 0.0
C2011 C 0.77262 0.43501 0.40325 0.0
C2012 C 0.73 0.45198 0.40568 0.0
C2013 C 0.73185 0.46088 0.3808 0.0
C2014 C 0.75362 0.4553 0.36673 0.0
C2015 C 0.77386 0.44261 0.37787 0.0
loop_
_geom_bond_atom_site_label_1
_geom_bond_atom_site_label_2
_geom_bond_distance
_geom_bond_site_symmetry_2
_ccdc_geom_bond_type
Co0 O3 1.970 . S
Co0 N17 1.989 . S
Co0 O25 1.967 . S
Co0 O32 1.920 . S
Co1 O4 1.966 . S
Co1 N10 2.022 . S
Co1 N18 1.993 . S
Co1 O26 1.941 . S
C2 O3 1.258 . S
C2 O4 1.263 . S
O3 Co0 1.970 . S
O3 C2 1.258 . S
O4 Co1 1.966 . S
O4 C2 1.263 . S
C5 O6 1.235 . S
C5 O32 1.289 . S
O6 C5 1.235 . S
C7 C9 1.400 . S
C7 N10 1.351 . S
C7 C12 1.501 . S
C8 C9 1.387 . S
C8 N11 1.341 . S
C9 C7 1.400 . S
C9 C8 1.387 . S
N10 Co1 2.022 . S
N10 C7 1.351 . S
N10 N11 1.365 . S
N11 C8 1.341 . S
N11 N10 1.365 . S
N11 H31 0.862 . S
C12 C7 1.501 . S
C12 H13 0.961 . S
C12 H14 0.961 . S
C12 H15 0.960 1_455 S
H13 C12 0.961 . S
H14 C12 0.961 . S
H15 C12 0.960 1_655 S
C16 N17 1.342 . S
C16 C20 1.401 . S
C16 C21 1.499 . S
N17 Co0 1.989 . S
N17 C16 1.342 . S
N17 N18 1.388 . S
N18 Co1 1.993 . S
N18 N17 1.388 . S
N18 C19 1.346 . S
C19 N18 1.346 . S
C19 C20 1.396 . S
C19 C29 1.510 . S
C20 C16 1.401 . S
C20 C19 1.396 . S
C21 C16 1.499 . S
C21 H22 0.959 . S
C21 H23 0.960 . S
C21 H24 0.961 . S
H22 C21 0.959 . S
H23 C21 0.960 . S
H24 C21 0.961 . S
O25 Co0 1.967 . S
O25 C33 1.258 . S
O26 Co1 1.941 . S
O26 C33 1.266 . S
H27 C29 0.959 . S
H28 C29 0.961 . S
C29 C19 1.510 . S
C29 H27 0.959 . S
C29 H28 0.961 . S
C29 H30 0.960 . S
H30 C29 0.960 . S
H31 N11 0.862 . S
O32 Co0 1.920 . S
O32 C5 1.289 . S
C33 O25 1.258 . S
C33 O26 1.266 . S
Co34 O37 1.970 . S
Co34 N51 1.989 . S
Co34 O59 1.967 . S
Co34 O66 1.920 . S
Co35 O38 1.966 . S
Co35 N44 2.022 . S
Co35 N52 1.993 . S
Co35 O60 1.941 . S
C36 O37 1.258 . S
C36 O38 1.263 . S
O37 Co34 1.970 . S
O37 C36 1.258 . S
O38 Co35 1.966 . S
O38 C36 1.263 . S
C39 O40 1.235 . S
C39 O66 1.289 . S
O40 C39 1.235 . S
C41 C43 1.400 . S
C41 N44 1.351 . S
C41 C46 1.501 . S
C42 C43 1.387 . S
C42 N45 1.341 . S
C43 C41 1.400 . S
C43 C42 1.387 . S
N44 Co35 2.022 . S
N44 C41 1.351 . S
N44 N45 1.365 . S
N45 C42 1.341 . S
N45 N44 1.365 . S
N45 H65 0.862 . S
C46 C41 1.501 . S
C46 H47 0.961 . S
C46 H48 0.961 . S
C46 H49 0.960 . S
H47 C46 0.961 . S
H48 C46 0.961 . S
H49 C46 0.960 . S
C50 N51 1.342 . S
C50 C54 1.401 . S
C50 C55 1.499 . S
N51 Co34 1.989 . S
N51 C50 1.342 . S
N51 N52 1.388 . S
N52 Co35 1.993 . S
N52 N51 1.388 . S
N52 C53 1.346 . S
C53 N52 1.346 . S
C53 C54 1.396 . S
C53 C63 1.510 . S
C54 C50 1.401 . S
C54 C53 1.396 . S
C55 C50 1.499 . S
C55 H56 0.959 . S
C55 H57 0.960 . S
C55 H58 0.961 . S
H56 C55 0.959 . S
H57 C55 0.960 . S
H58 C55 0.961 . S
O59 Co34 1.967 . S
O59 C67 1.258 . S
O60 Co35 1.941 . S
O60 C67 1.266 . S
H61 C63 0.959 . S
H62 C63 0.961 . S
C63 C53 1.510 . S
C63 H61 0.959 . S
C63 H62 0.961 . S
C63 H64 0.960 . S
H64 C63 0.960 . S
H65 N45 0.862 . S
O66 Co34 1.920 . S
O66 C39 1.289 . S
C67 O59 1.258 . S
C67 O60 1.266 . S
Co68 O71 1.970 . S
Co68 N85 1.989 . S
Co68 O93 1.967 . S
Co68 O100 1.920 . S
Co69 O72 1.966 . S
Co69 N78 2.022 . S
Co69 N86 1.993 . S
Co69 O94 1.941 . S
C70 O71 1.258 . S
C70 O72 1.263 . S
O71 Co68 1.970 . S
O71 C70 1.258 . S
O72 Co69 1.966 . S
O72 C70 1.263 . S
C73 O74 1.235 . S
C73 O100 1.289 . S
O74 C73 1.235 . S
C75 C77 1.400 . S
C75 N78 1.351 . S
C75 C80 1.501 . S
C76 C77 1.387 . S
C76 N79 1.341 . S
C77 C75 1.400 . S
C77 C76 1.387 . S
N78 Co69 2.022 . S
N78 C75 1.351 . S
N78 N79 1.365 . S
N79 C76 1.341 . S
N79 N78 1.365 . S
N79 H99 0.862 . S
C80 C75 1.501 . S
C80 H81 0.961 . S
C80 H82 0.961 . S
C80 H83 0.960 . S
H81 C80 0.961 . S
H82 C80 0.961 . S
H83 C80 0.960 . S
C84 N85 1.342 . S
C84 C88 1.401 . S
C84 C89 1.499 . S
N85 Co68 1.989 . S
N85 C84 1.342 . S
N85 N86 1.388 . S
N86 Co69 1.993 . S
N86 N85 1.388 . S
N86 C87 1.346 . S
C87 N86 1.346 . S
C87 C88 1.396 . S
C87 C97 1.510 . S
C88 C84 1.401 . S
C88 C87 1.396 . S
C89 C84 1.499 . S
C89 H90 0.959 . S
C89 H91 0.960 . S
C89 H92 0.961 . S
H90 C89 0.959 . S
H91 C89 0.960 . S
H92 C89 0.961 . S
O93 Co68 1.967 . S
O93 C101 1.258 . S
O94 Co69 1.941 . S
O94 C101 1.266 . S
H95 C97 0.959 . S
H96 C97 0.961 . S
C97 C87 1.510 . S
C97 H95 0.959 . S
C97 H96 0.961 . S
C97 H98 0.960 . S
H98 C97 0.960 . S
H99 N79 0.862 . S
O100 Co68 1.920 . S
O100 C73 1.289 . S
C101 O93 1.258 . S
C101 O94 1.266 . S
Co102 O105 1.970 . S
Co102 N119 1.989 . S
Co102 O127 1.967 . S
Co102 O134 1.920 . S
Co103 O106 1.966 . S
Co103 N112 2.022 . S
Co103 N120 1.993 . S
Co103 O128 1.941 . S
C104 O105 1.258 . S
C104 O106 1.263 . S
O105 Co102 1.970 . S
O105 C104 1.258 . S
O106 Co103 1.966 . S
O106 C104 1.263 . S
C107 O108 1.235 . S
C107 O134 1.289 . S
O108 C107 1.235 . S
C109 C111 1.400 . S
C109 N112 1.351 . S
C109 C114 1.501 . S
C110 C111 1.387 1_455 S
C110 N113 1.341 1_455 S
C111 C109 1.400 . S
C111 C110 1.387 1_655 S
N112 Co103 2.022 . S
N112 C109 1.351 . S
N112 N113 1.365 . S
N113 C110 1.341 1_655 S
N113 N112 1.365 . S
N113 H133 0.862 1_655 S
C114 C109 1.501 . S
C114 H115 0.961 . S
C114 H116 0.961 . S
C114 H117 0.960 . S
H115 C114 0.961 . S
H116 C114 0.961 . S
H117 C114 0.960 . S
C118 N119 1.342 . S
C118 C122 1.401 . S
C118 C123 1.499 . S
N119 Co102 1.989 . S
N119 C118 1.342 . S
N119 N120 1.388 . S
N120 Co103 1.993 . S
N120 N119 1.388 . S
N120 C121 1.346 . S
C121 N120 1.346 . S
C121 C122 1.396 . S
C121 C131 1.510 . S
C122 C118 1.401 . S
C122 C121 1.396 . S
C123 C118 1.499 . S
C123 H124 0.959 . S
C123 H125 0.960 . S
C123 H126 0.961 . S
H124 C123 0.959 . S
H125 C123 0.960 . S
H126 C123 0.961 . S
O127 Co102 1.967 . S
O127 C135 1.258 . S
O128 Co103 1.941 . S
O128 C135 1.266 . S
H129 C131 0.959 . S
H130 C131 0.961 . S
C131 C121 1.510 . S
C131 H129 0.959 . S
C131 H130 0.961 . S
C131 H132 0.960 . S
H132 C131 0.960 . S
H133 N113 0.862 1_455 S
O134 Co102 1.920 . S
O134 C107 1.289 . S
C135 O127 1.258 . S
C135 O128 1.266 . S
Co136 O139 1.970 . S
Co136 N153 1.989 . S
Co136 O161 1.967 . S
Co136 O168 1.920 . S
Co137 O140 1.966 . S
Co137 N146 2.022 . S
Co137 N154 1.993 . S
Co137 O162 1.941 . S
C138 O139 1.258 . S
C138 O140 1.263 . S
O139 Co136 1.970 . S
O139 C138 1.258 . S
O140 Co137 1.966 . S
O140 C138 1.263 . S
C141 O142 1.235 . S
C141 O168 1.289 . S
O142 C141 1.235 . S
C143 C145 1.400 . S
C143 N146 1.351 . S
C143 C148 1.501 . S
C144 C145 1.387 . S
C144 N147 1.341 . S
C145 C143 1.400 . S
C145 C144 1.387 . S
N146 Co137 2.022 . S
N146 C143 1.351 . S
N146 N147 1.365 . S
N147 C144 1.341 . S
N147 N146 1.365 . S
N147 H167 0.862 . S
C148 C143 1.501 . S
C148 H149 0.961 . S
C148 H150 0.961 . S
C148 H151 0.960 . S
H149 C148 0.961 . S
H150 C148 0.961 . S
H151 C148 0.960 . S
C152 N153 1.342 . S
C152 C156 1.401 . S
C152 C157 1.499 . S
N153 Co136 1.989 . S
N153 C152 1.342 . S
N153 N154 1.388 . S
N154 Co137 1.993 . S
N154 N153 1.388 . S
N154 C155 1.346 . S
C155 N154 1.346 . S
C155 C156 1.396 . S
C155 C165 1.510 . S
C156 C152 1.401 . S
C156 C155 1.396 . S
C157 C152 1.499 . S
C157 H158 0.959 . S
C157 H159 0.960 . S
C157 H160 0.961 . S
H158 C157 0.959 . S
H159 C157 0.960 . S
H160 C157 0.961 . S
O161 Co136 1.967 . S
O161 C169 1.258 . S
O162 Co137 1.941 . S
O162 C169 1.266 . S
H163 C165 0.959 . S
H164 C165 0.961 . S
C165 C155 1.510 . S
C165 H163 0.959 . S
C165 H164 0.961 . S
C165 H166 0.960 . S
H166 C165 0.960 . S
H167 N147 0.862 . S
O168 Co136 1.920 . S
O168 C141 1.289 . S
C169 O161 1.258 . S
C169 O162 1.266 . S
Co170 O173 1.970 . S
Co170 N187 1.989 . S
Co170 O195 1.967 . S
Co170 O202 1.920 . S
Co171 O174 1.966 . S
Co171 N180 2.022 . S
Co171 N188 1.993 . S
Co171 O196 1.941 . S
C172 O173 1.258 . S
C172 O174 1.263 . S
O173 Co170 1.970 . S
O173 C172 1.258 . S
O174 Co171 1.966 . S
O174 C172 1.263 . S
C175 O176 1.235 . S
C175 O202 1.289 . S
O176 C175 1.235 . S
C177 C179 1.400 . S
C177 N180 1.351 . S
C177 C182 1.501 . S
C178 C179 1.387 . S
C178 N181 1.341 . S
C179 C177 1.400 . S
C179 C178 1.387 . S
N180 Co171 2.022 . S
N180 C177 1.351 . S
N180 N181 1.365 . S
N181 C178 1.341 . S
N181 N180 1.365 . S
N181 H201 0.862 . S
C182 C177 1.501 . S
C182 H183 0.961 . S
C182 H184 0.961 . S
C182 H185 0.960 . S
H183 C182 0.961 . S
H184 C182 0.961 . S
H185 C182 0.960 . S
C186 N187 1.342 . S
C186 C190 1.401 . S
C186 C191 1.499 . S
N187 Co170 1.989 . S
N187 C186 1.342 . S
N187 N188 1.388 . S
N188 Co171 1.993 . S
N188 N187 1.388 . S
N188 C189 1.346 . S
C189 N188 1.346 . S
C189 C190 1.396 . S
C189 C199 1.510 . S
C190 C186 1.401 . S
C190 C189 1.396 . S
C191 C186 1.499 . S
C191 H192 0.959 . S
C191 H193 0.960 . S
C191 H194 0.961 . S
H192 C191 0.959 . S
H193 C191 0.960 . S
H194 C191 0.961 . S
O195 Co170 1.967 . S
O195 C203 1.258 . S
O196 Co171 1.941 . S
O196 C203 1.266 . S
H197 C199 0.959 . S
H198 C199 0.961 . S
C199 C189 1.510 . S
C199 H197 0.959 . S
C199 H198 0.961 . S
C199 H200 0.960 . S
H200 C199 0.960 . S
H201 N181 0.862 . S
O202 Co170 1.920 . S
O202 C175 1.289 . S
C203 O195 1.258 . S
C203 O196 1.266 . S
Co204 O207 1.970 . S
Co204 N221 1.989 . S
Co204 O229 1.967 . S
Co204 O236 1.920 . S
Co205 O208 1.966 . S
Co205 N214 2.022 . S
Co205 N222 1.993 . S
Co205 O230 1.941 . S
C206 O207 1.258 . S
C206 O208 1.263 . S
O207 Co204 1.970 . S
O207 C206 1.258 . S
O208 Co205 1.966 . S
O208 C206 1.263 . S
C209 O210 1.235 . S
C209 O236 1.289 . S
O210 C209 1.235 . S
C211 C213 1.400 . S
C211 N214 1.351 . S
C211 C216 1.501 . S
C212 C213 1.387 . S
C212 N215 1.341 . S
C213 C211 1.400 . S
C213 C212 1.387 . S
N214 Co205 2.022 . S
N214 C211 1.351 . S
N214 N215 1.365 . S
N215 C212 1.341 . S
N215 N214 1.365 . S
N215 H235 0.862 . S
C216 C211 1.501 . S
C216 H217 0.961 . S
C216 H218 0.961 . S
C216 H219 0.960 1_655 S
H217 C216 0.961 . S
H218 C216 0.961 . S
H219 C216 0.960 1_455 S
C220 N221 1.342 . S
C220 C224 1.401 . S
C220 C225 1.499 . S
N221 Co204 1.989 . S
N221 C220 1.342 . S
N221 N222 1.388 . S
N222 Co205 1.993 . S
N222 N221 1.388 . S
N222 C223 1.346 . S
C223 N222 1.346 . S
C223 C224 1.396 . S
C223 C233 1.510 . S
C224 C220 1.401 . S
C224 C223 1.396 . S
C225 C220 1.499 . S
C225 H226 0.959 . S
C225 H227 0.960 . S
C225 H228 0.961 . S
H226 C225 0.959 . S
H227 C225 0.960 . S
H228 C225 0.961 . S
O229 Co204 1.967 . S
O229 C237 1.258 . S
O230 Co205 1.941 . S
O230 C237 1.266 . S
H231 C233 0.959 . S
H232 C233 0.961 . S
C233 C223 1.510 . S
C233 H231 0.959 . S
C233 H232 0.961 . S
C233 H234 0.960 . S
H234 C233 0.960 . S
H235 N215 0.862 . S
O236 Co204 1.920 . S
O236 C209 1.289 . S
C237 O229 1.258 . S
C237 O230 1.266 . S
Co238 O241 1.970 . S
Co238 N255 1.989 . S
Co238 O263 1.967 . S
Co238 O270 1.920 . S
Co239 O242 1.966 . S
Co239 N248 2.022 . S
Co239 N256 1.993 . S
Co239 O264 1.941 . S
C240 O241 1.258 . S
C240 O242 1.263 . S
O241 Co238 1.970 . S
O241 C240 1.258 . S
O242 Co239 1.966 . S
O242 C240 1.263 . S
C243 O244 1.235 . S
C243 O270 1.289 . S
O244 C243 1.235 . S
C245 C247 1.400 . S
C245 N248 1.351 . S
C245 C250 1.501 . S
C246 C247 1.387 1_655 S
C246 N249 1.341 1_655 S
C247 C245 1.400 . S
C247 C246 1.387 1_455 S
N248 Co239 2.022 . S
N248 C245 1.351 . S
N248 N249 1.365 . S
N249 C246 1.341 1_455 S
N249 N248 1.365 . S
N249 H269 0.862 1_455 S
C250 C245 1.501 . S
C250 H251 0.961 . S
C250 H252 0.961 . S
C250 H253 0.960 . S
H251 C250 0.961 . S
H252 C250 0.961 . S
H253 C250 0.960 . S
C254 N255 1.342 . S
C254 C258 1.401 . S
C254 C259 1.499 . S
N255 Co238 1.989 . S
N255 C254 1.342 . S
N255 N256 1.388 . S
N256 Co239 1.993 . S
N256 N255 1.388 . S
N256 C257 1.346 . S
C257 N256 1.346 . S
C257 C258 1.396 . S
C257 C267 1.510 . S
C258 C254 1.401 . S
C258 C257 1.396 . S
C259 C254 1.499 . S
C259 H260 0.959 . S
C259 H261 0.960 . S
C259 H262 0.961 . S
H260 C259 0.959 . S
H261 C259 0.960 . S
H262 C259 0.961 . S
O263 Co238 1.967 . S
O263 C271 1.258 . S
O264 Co239 1.941 . S
O264 C271 1.266 . S
H265 C267 0.959 . S
H266 C267 0.961 . S
C267 C257 1.510 . S
C267 H265 0.959 . S
C267 H266 0.961 . S
C267 H268 0.960 . S
H268 C267 0.960 . S
H269 N249 0.862 1_655 S
O270 Co238 1.920 . S
O270 C243 1.289 . S
C271 O263 1.258 . S
C271 O264 1.266 . S
Co272 O275 1.970 . S
Co272 N289 1.989 . S
Co272 O297 1.967 . S
Co272 O304 1.920 . S
Co273 O276 1.966 . S
Co273 N282 2.022 . S
Co273 N290 1.993 . S
Co273 O298 1.941 . S
C274 O275 1.258 . S
C274 O276 1.263 . S
O275 Co272 1.970 . S
O275 C274 1.258 . S
O276 Co273 1.966 . S
O276 C274 1.263 . S
C277 O278 1.235 . S
C277 O304 1.289 . S
O278 C277 1.235 . S
C279 C281 1.400 . S
C279 N282 1.351 . S
C279 C284 1.501 . S
C280 C281 1.387 . S
C280 N283 1.341 . S
C281 C279 1.400 . S
C281 C280 1.387 . S
N282 Co273 2.022 . S
N282 C279 1.351 . S
N282 N283 1.365 . S
N283 C280 1.341 . S
N283 N282 1.365 . S
N283 H303 0.862 . S
C284 C279 1.501 . S
C284 H285 0.961 . S
C284 H286 0.961 . S
C284 H287 0.960 1_545 S
H285 C284 0.961 . S
H286 C284 0.961 . S
H287 C284 0.960 1_565 S
C288 N289 1.342 . S
C288 C292 1.401 . S
C288 C293 1.499 . S
N289 Co272 1.989 . S
N289 C288 1.342 . S
N289 N290 1.388 . S
N290 Co273 1.993 . S
N290 N289 1.388 . S
N290 C291 1.346 . S
C291 N290 1.346 . S
C291 C292 1.396 . S
C291 C301 1.510 . S
C292 C288 1.401 . S
C292 C291 1.396 . S
C293 C288 1.499 . S
C293 H294 0.959 . S
C293 H295 0.960 . S
C293 H296 0.961 . S
H294 C293 0.959 . S
H295 C293 0.960 . S
H296 C293 0.961 . S
O297 Co272 1.967 . S
O297 C305 1.258 . S
O298 Co273 1.941 . S
O298 C305 1.266 . S
H299 C301 0.959 . S
H300 C301 0.961 . S
C301 C291 1.510 . S
C301 H299 0.959 . S
C301 H300 0.961 . S
C301 H302 0.960 . S
H302 C301 0.960 . S
H303 N283 0.862 . S
O304 Co272 1.920 . S
O304 C277 1.289 . S
C305 O297 1.258 . S
C305 O298 1.266 . S
Co306 O309 1.970 . S
Co306 N323 1.989 . S
Co306 O331 1.967 . S
Co306 O338 1.920 . S
Co307 O310 1.966 . S
Co307 N316 2.022 . S
Co307 N324 1.993 . S
Co307 O332 1.941 . S
C308 O309 1.258 . S
C308 O310 1.263 . S
O309 Co306 1.970 . S
O309 C308 1.258 . S
O310 Co307 1.966 . S
O310 C308 1.263 . S
C311 O312 1.235 . S
C311 O338 1.289 . S
O312 C311 1.235 . S
C313 C315 1.400 . S
C313 N316 1.351 . S
C313 C318 1.501 . S
C314 C315 1.387 1_554 S
C314 N317 1.341 1_554 S
C315 C313 1.400 . S
C315 C314 1.387 1_556 S
N316 Co307 2.022 . S
N316 C313 1.351 . S
N316 N317 1.365 . S
N317 C314 1.341 1_556 S
N317 N316 1.365 . S
N317 H337 0.862 1_556 S
C318 C313 1.501 . S
C318 H319 0.961 . S
C318 H320 0.961 . S
C318 H321 0.960 . S
H319 C318 0.961 . S
H320 C318 0.961 . S
H321 C318 0.960 . S
C322 N323 1.342 . S
C322 C326 1.401 . S
C322 C327 1.499 . S
N323 Co306 1.989 . S
N323 C322 1.342 . S
N323 N324 1.388 . S
N324 Co307 1.993 . S
N324 N323 1.388 . S
N324 C325 1.346 . S
C325 N324 1.346 . S
C325 C326 1.396 . S
C325 C335 1.510 . S
C326 C322 1.401 . S
C326 C325 1.396 . S
C327 C322 1.499 . S
C327 H328 0.959 . S
C327 H329 0.960 . S
C327 H330 0.961 . S
H328 C327 0.959 . S
H329 C327 0.960 . S
H330 C327 0.961 . S
O331 Co306 1.967 . S
O331 C339 1.258 . S
O332 Co307 1.941 . S
O332 C339 1.266 . S
H333 C335 0.959 . S
H334 C335 0.961 . S
C335 C325 1.510 . S
C335 H333 0.959 . S
C335 H334 0.961 . S
C335 H336 0.960 . S
H336 C335 0.960 . S
H337 N317 0.862 1_554 S
O338 Co306 1.920 . S
O338 C311 1.289 . S
C339 O331 1.258 . S
C339 O332 1.266 . S
Co340 O343 1.970 . S
Co340 N357 1.989 . S
Co340 O365 1.967 . S
Co340 O372 1.920 . S
Co341 O344 1.966 . S
Co341 N350 2.022 . S
Co341 N358 1.993 . S
Co341 O366 1.941 . S
C342 O343 1.258 . S
C342 O344 1.263 . S
O343 Co340 1.970 . S
O343 C342 1.258 . S
O344 Co341 1.966 . S
O344 C342 1.263 . S
C345 O346 1.235 . S
C345 O372 1.289 . S
O346 C345 1.235 . S
C347 C349 1.400 . S
C347 N350 1.351 . S
C347 C352 1.501 . S
C348 C349 1.387 . S
C348 N351 1.341 . S
C349 C347 1.400 . S
C349 C348 1.387 . S
N350 Co341 2.022 . S
N350 C347 1.351 . S
N350 N351 1.365 . S
N351 C348 1.341 . S
N351 N350 1.365 . S
N351 H371 0.862 . S
C352 C347 1.501 . S
C352 H353 0.961 . S
C352 H354 0.961 . S
C352 H355 0.960 1_565 S
H353 C352 0.961 . S
H354 C352 0.961 . S
H355 C352 0.960 1_545 S
C356 N357 1.342 . S
C356 C360 1.401 . S
C356 C361 1.499 . S
N357 Co340 1.989 . S
N357 C356 1.342 . S
N357 N358 1.388 . S
N358 Co341 1.993 . S
N358 N357 1.388 . S
N358 C359 1.346 . S
C359 N358 1.346 . S
C359 C360 1.396 . S
C359 C369 1.510 . S
C360 C356 1.401 . S
C360 C359 1.396 . S
C361 C356 1.499 . S
C361 H362 0.959 . S
C361 H363 0.960 . S
C361 H364 0.961 . S
H362 C361 0.959 . S
H363 C361 0.960 . S
H364 C361 0.961 . S
O365 Co340 1.967 . S
O365 C373 1.258 . S
O366 Co341 1.941 . S
O366 C373 1.266 . S
H367 C369 0.959 . S
H368 C369 0.961 . S
C369 C359 1.510 . S
C369 H367 0.959 . S
C369 H368 0.961 . S
C369 H370 0.960 . S
H370 C369 0.960 . S
H371 N351 0.862 . S
O372 Co340 1.920 . S
O372 C345 1.289 . S
C373 O365 1.258 . S
C373 O366 1.266 . S
Co374 O377 1.970 . S
Co374 N391 1.989 . S
Co374 O399 1.967 . S
Co374 O406 1.920 . S
Co375 O378 1.966 . S
Co375 N384 2.022 . S
Co375 N392 1.993 . S
Co375 O400 1.941 . S
C376 O377 1.258 . S
C376 O378 1.263 . S
O377 Co374 1.970 . S
O377 C376 1.258 . S
O378 Co375 1.966 . S
O378 C376 1.263 . S
C379 O380 1.235 . S
C379 O406 1.289 . S
O380 C379 1.235 . S
C381 C383 1.400 . S
C381 N384 1.351 . S
C381 C386 1.501 . S
C382 C383 1.387 . S
C382 N385 1.341 . S
C383 C381 1.400 . S
C383 C382 1.387 . S
N384 Co375 2.022 . S
N384 C381 1.351 . S
N384 N385 1.365 . S
N385 C382 1.341 . S
N385 N384 1.365 . S
N385 H405 0.862 . S
C386 C381 1.501 . S
C386 H387 0.961 . S
C386 H388 0.961 . S
C386 H389 0.960 . S
H387 C386 0.961 . S
H388 C386 0.961 . S
H389 C386 0.960 . S
C390 N391 1.342 . S
C390 C394 1.401 . S
C390 C395 1.499 . S
N391 Co374 1.989 . S
N391 C390 1.342 . S
N391 N392 1.388 . S
N392 Co375 1.993 . S
N392 N391 1.388 . S
N392 C393 1.346 . S
C393 N392 1.346 . S
C393 C394 1.396 . S
C393 C403 1.510 . S
C394 C390 1.401 . S
C394 C393 1.396 . S
C395 C390 1.499 . S
C395 H396 0.959 . S
C395 H397 0.960 . S
C395 H398 0.961 . S
H396 C395 0.959 . S
H397 C395 0.960 . S
H398 C395 0.961 . S
O399 Co374 1.967 . S
O399 C407 1.258 . S
O400 Co375 1.941 . S
O400 C407 1.266 . S
H401 C403 0.959 . S
H402 C403 0.961 . S
C403 C393 1.510 . S
C403 H401 0.959 . S
C403 H402 0.961 . S
C403 H404 0.960 . S
H404 C403 0.960 . S
H405 N385 0.862 . S
O406 Co374 1.920 . S
O406 C379 1.289 . S
C407 O399 1.258 . S
C407 O400 1.266 . S
Co408 O411 1.970 . S
Co408 N425 1.989 . S
Co408 O433 1.967 . S
Co408 O440 1.920 . S
Co409 O412 1.966 . S
Co409 N418 2.022 . S
Co409 N426 1.993 . S
Co409 O434 1.941 . S
C410 O411 1.258 . S
C410 O412 1.263 . S
O411 Co408 1.970 . S
O411 C410 1.258 . S
O412 Co409 1.966 . S
O412 C410 1.263 . S
C413 O414 1.235 . S
C413 O440 1.289 . S
O414 C413 1.235 . S
C415 C417 1.400 . S
C415 N418 1.351 . S
C415 C420 1.501 . S
C416 C417 1.387 . S
C416 N419 1.341 . S
C417 C415 1.400 . S
C417 C416 1.387 . S
N418 Co409 2.022 . S
N418 C415 1.351 . S
N418 N419 1.365 . S
N419 C416 1.341 . S
N419 N418 1.365 . S
N419 H439 0.862 . S
C420 C415 1.501 . S
C420 H421 0.961 . S
C420 H422 0.961 . S
C420 H423 0.960 . S
H421 C420 0.961 . S
H422 C420 0.961 . S
H423 C420 0.960 . S
C424 N425 1.342 . S
C424 C428 1.401 . S
C424 C429 1.499 . S
N425 Co408 1.989 . S
N425 C424 1.342 . S
N425 N426 1.388 . S
N426 Co409 1.993 . S
N426 N425 1.388 . S
N426 C427 1.346 . S
C427 N426 1.346 . S
C427 C428 1.396 . S
C427 C437 1.510 . S
C428 C424 1.401 . S
C428 C427 1.396 . S
C429 C424 1.499 . S
C429 H430 0.959 . S
C429 H431 0.960 . S
C429 H432 0.961 . S
H430 C429 0.959 . S
H431 C429 0.960 . S
H432 C429 0.961 . S
O433 Co408 1.967 . S
O433 C441 1.258 . S
O434 Co409 1.941 . S
O434 C441 1.266 . S
H435 C437 0.959 . S
H436 C437 0.961 . S
C437 C427 1.510 . S
C437 H435 0.959 . S
C437 H436 0.961 . S
C437 H438 0.960 . S
H438 C437 0.960 . S
H439 N419 0.862 . S
O440 Co408 1.920 . S
O440 C413 1.289 . S
C441 O433 1.258 . S
C441 O434 1.266 . S
Co442 O445 1.970 . S
Co442 N459 1.989 . S
Co442 O467 1.967 . S
Co442 O474 1.920 . S
Co443 O446 1.966 . S
Co443 N452 2.022 . S
Co443 N460 1.993 . S
Co443 O468 1.941 . S
C444 O445 1.258 . S
C444 O446 1.263 . S
O445 Co442 1.970 . S
O445 C444 1.258 . S
O446 Co443 1.966 . S
O446 C444 1.263 . S
C447 O448 1.235 . S
C447 O474 1.289 . S
O448 C447 1.235 . S
C449 C451 1.400 . S
C449 N452 1.351 . S
C449 C454 1.501 . S
C450 C451 1.387 . S
C450 N453 1.341 . S
C451 C449 1.400 . S
C451 C450 1.387 . S
N452 Co443 2.022 . S
N452 C449 1.351 . S
N452 N453 1.365 . S
N453 C450 1.341 . S
N453 N452 1.365 . S
N453 H473 0.862 . S
C454 C449 1.501 . S
C454 H455 0.961 . S
C454 H456 0.961 . S
C454 H457 0.960 . S
H455 C454 0.961 . S
H456 C454 0.961 . S
H457 C454 0.960 . S
C458 N459 1.342 . S
C458 C462 1.401 . S
C458 C463 1.499 . S
N459 Co442 1.989 . S
N459 C458 1.342 . S
N459 N460 1.388 . S
N460 Co443 1.993 . S
N460 N459 1.388 . S
N460 C461 1.346 . S
C461 N460 1.346 . S
C461 C462 1.396 . S
C461 C471 1.510 . S
C462 C458 1.401 . S
C462 C461 1.396 . S
C463 C458 1.499 . S
C463 H464 0.959 . S
C463 H465 0.960 . S
C463 H466 0.961 . S
H464 C463 0.959 . S
H465 C463 0.960 . S
H466 C463 0.961 . S
O467 Co442 1.967 . S
O467 C475 1.258 . S
O468 Co443 1.941 . S
O468 C475 1.266 . S
H469 C471 0.959 . S
H470 C471 0.961 . S
C471 C461 1.510 . S
C471 H469 0.959 . S
C471 H470 0.961 . S
C471 H472 0.960 . S
H472 C471 0.960 . S
H473 N453 0.862 . S
O474 Co442 1.920 . S
O474 C447 1.289 . S
C475 O467 1.258 . S
C475 O468 1.266 . S
Co476 O479 1.970 . S
Co476 N493 1.989 . S
Co476 O501 1.967 . S
Co476 O508 1.920 . S
Co477 O480 1.966 . S
Co477 N486 2.022 . S
Co477 N494 1.993 . S
Co477 O502 1.941 . S
C478 O479 1.258 . S
C478 O480 1.263 . S
O479 Co476 1.970 . S
O479 C478 1.258 . S
O480 Co477 1.966 . S
O480 C478 1.263 . S
C481 O482 1.235 . S
C481 O508 1.289 . S
O482 C481 1.235 . S
C483 C485 1.400 . S
C483 N486 1.351 . S
C483 C488 1.501 . S
C484 C485 1.387 . S
C484 N487 1.341 . S
C485 C483 1.400 . S
C485 C484 1.387 . S
N486 Co477 2.022 . S
N486 C483 1.351 . S
N486 N487 1.365 . S
N487 C484 1.341 . S
N487 N486 1.365 . S
N487 H507 0.862 . S
C488 C483 1.501 . S
C488 H489 0.961 . S
C488 H490 0.961 . S
C488 H491 0.960 . S
H489 C488 0.961 . S
H490 C488 0.961 . S
H491 C488 0.960 . S
C492 N493 1.342 . S
C492 C496 1.401 . S
C492 C497 1.499 . S
N493 Co476 1.989 . S
N493 C492 1.342 . S
N493 N494 1.388 . S
N494 Co477 1.993 . S
N494 N493 1.388 . S
N494 C495 1.346 . S
C495 N494 1.346 . S
C495 C496 1.396 . S
C495 C505 1.510 . S
C496 C492 1.401 . S
C496 C495 1.396 . S
C497 C492 1.499 . S
C497 H498 0.959 . S
C497 H499 0.960 . S
C497 H500 0.961 . S
H498 C497 0.959 . S
H499 C497 0.960 . S
H500 C497 0.961 . S
O501 Co476 1.967 . S
O501 C509 1.258 . S
O502 Co477 1.941 . S
O502 C509 1.266 . S
H503 C505 0.959 . S
H504 C505 0.961 . S
C505 C495 1.510 . S
C505 H503 0.959 . S
C505 H504 0.961 . S
C505 H506 0.960 . S
H506 C505 0.960 . S
H507 N487 0.862 . S
O508 Co476 1.920 . S
O508 C481 1.289 . S
C509 O501 1.258 . S
C509 O502 1.266 . S
Co510 O513 1.970 . S
Co510 N527 1.989 . S
Co510 O535 1.967 . S
Co510 O542 1.920 . S
Co511 O514 1.966 . S
Co511 N520 2.022 . S
Co511 N528 1.993 . S
Co511 O536 1.941 . S
C512 O513 1.258 . S
C512 O514 1.263 . S
O513 Co510 1.970 . S
O513 C512 1.258 . S
O514 Co511 1.966 . S
O514 C512 1.263 . S
C515 O516 1.235 . S
C515 O542 1.289 . S
O516 C515 1.235 . S
C517 C519 1.400 . S
C517 N520 1.351 . S
C517 C522 1.501 . S
C518 C519 1.387 1_556 S
C518 N521 1.341 1_556 S
C519 C517 1.400 . S
C519 C518 1.387 1_554 S
N520 Co511 2.022 . S
N520 C517 1.351 . S
N520 N521 1.365 . S
N521 C518 1.341 1_554 S
N521 N520 1.365 . S
N521 H541 0.862 1_554 S
C522 C517 1.501 . S
C522 H523 0.961 . S
C522 H524 0.961 . S
C522 H525 0.960 . S
H523 C522 0.961 . S
H524 C522 0.961 . S
H525 C522 0.960 . S
C526 N527 1.342 . S
C526 C530 1.401 . S
C526 C531 1.499 . S
N527 Co510 1.989 . S
N527 C526 1.342 . S
N527 N528 1.388 . S
N528 Co511 1.993 . S
N528 N527 1.388 . S
N528 C529 1.346 . S
C529 N528 1.346 . S
C529 C530 1.396 . S
C529 C539 1.510 . S
C530 C526 1.401 . S
C530 C529 1.396 . S
C531 C526 1.499 . S
C531 H532 0.959 . S
C531 H533 0.960 . S
C531 H534 0.961 . S
H532 C531 0.959 . S
H533 C531 0.960 . S
H534 C531 0.961 . S
O535 Co510 1.967 . S
O535 C543 1.258 . S
O536 Co511 1.941 . S
O536 C543 1.266 . S
H537 C539 0.959 . S
H538 C539 0.961 . S
C539 C529 1.510 . S
C539 H537 0.959 . S
C539 H538 0.961 . S
C539 H540 0.960 . S
H540 C539 0.960 . S
H541 N521 0.862 1_556 S
O542 Co510 1.920 . S
O542 C515 1.289 . S
C543 O535 1.258 . S
C543 O536 1.266 . S
Co544 O547 1.970 . S
Co544 N561 1.989 . S
Co544 O569 1.967 . S
Co544 O576 1.920 . S
Co545 O548 1.966 . S
Co545 N554 2.022 . S
Co545 N562 1.993 . S
Co545 O570 1.941 . S
C546 O547 1.258 . S
C546 O548 1.263 . S
O547 Co544 1.970 . S
O547 C546 1.258 . S
O548 Co545 1.966 . S
O548 C546 1.263 . S
C549 O550 1.235 . S
C549 O576 1.289 . S
O550 C549 1.235 . S
C551 C553 1.400 . S
C551 N554 1.351 . S
C551 C556 1.501 . S
C552 C553 1.387 . S
C552 N555 1.341 . S
C553 C551 1.400 . S
C553 C552 1.387 . S
N554 Co545 2.022 . S
N554 C551 1.351 . S
N554 N555 1.365 . S
N555 C552 1.341 . S
N555 N554 1.365 . S
N555 H575 0.862 . S
C556 C551 1.501 . S
C556 H557 0.961 . S
C556 H558 0.961 . S
C556 H559 0.960 1_554 S
H557 C556 0.961 . S
H558 C556 0.961 . S
H559 C556 0.960 1_556 S
C560 N561 1.342 . S
C560 C564 1.401 . S
C560 C565 1.499 . S
N561 Co544 1.989 . S
N561 C560 1.342 . S
N561 N562 1.388 . S
N562 Co545 1.993 . S
N562 N561 1.388 . S
N562 C563 1.346 . S
C563 N562 1.346 . S
C563 C564 1.396 . S
C563 C573 1.510 . S
C564 C560 1.401 . S
C564 C563 1.396 . S
C565 C560 1.499 . S
C565 H566 0.959 . S
C565 H567 0.960 . S
C565 H568 0.961 . S
H566 C565 0.959 . S
H567 C565 0.960 . S
H568 C565 0.961 . S
O569 Co544 1.967 . S
O569 C577 1.258 . S
O570 Co545 1.941 . S
O570 C577 1.266 . S
H571 C573 0.959 . S
H572 C573 0.961 . S
C573 C563 1.510 . S
C573 H571 0.959 . S
C573 H572 0.961 . S
C573 H574 0.960 . S
H574 C573 0.960 . S
H575 N555 0.862 . S
O576 Co544 1.920 . S
O576 C549 1.289 . S
C577 O569 1.258 . S
C577 O570 1.266 . S
Co578 O581 1.970 . S
Co578 N595 1.989 . S
Co578 O603 1.967 . S
Co578 O610 1.920 . S
Co579 O582 1.966 . S
Co579 N588 2.022 . S
Co579 N596 1.993 . S
Co579 O604 1.941 . S
C580 O581 1.258 . S
C580 O582 1.263 . S
O581 Co578 1.970 . S
O581 C580 1.258 . S
O582 Co579 1.966 . S
O582 C580 1.263 . S
C583 O584 1.235 . S
C583 O610 1.289 . S
O584 C583 1.235 . S
C585 C587 1.400 . S
C585 N588 1.351 . S
C585 C590 1.501 . S
C586 C587 1.387 . S
C586 N589 1.341 . S
C587 C585 1.400 . S
C587 C586 1.387 . S
N588 Co579 2.022 . S
N588 C585 1.351 . S
N588 N589 1.365 . S
N589 C586 1.341 . S
N589 N588 1.365 . S
N589 H609 0.862 . S
C590 C585 1.501 . S
C590 H591 0.961 . S
C590 H592 0.961 . S
C590 H593 0.960 1_556 S
H591 C590 0.961 . S
H592 C590 0.961 . S
H593 C590 0.960 1_554 S
C594 N595 1.342 . S
C594 C598 1.401 . S
C594 C599 1.499 . S
N595 Co578 1.989 . S
N595 C594 1.342 . S
N595 N596 1.388 . S
N596 Co579 1.993 . S
N596 N595 1.388 . S
N596 C597 1.346 . S
C597 N596 1.346 . S
C597 C598 1.396 . S
C597 C607 1.510 . S
C598 C594 1.401 . S
C598 C597 1.396 . S
C599 C594 1.499 . S
C599 H600 0.959 . S
C599 H601 0.960 . S
C599 H602 0.961 . S
H600 C599 0.959 . S
H601 C599 0.960 . S
H602 C599 0.961 . S
O603 Co578 1.967 . S
O603 C611 1.258 . S
O604 Co579 1.941 . S
O604 C611 1.266 . S
H605 C607 0.959 . S
H606 C607 0.961 . S
C607 C597 1.510 . S
C607 H605 0.959 . S
C607 H606 0.961 . S
C607 H608 0.960 . S
H608 C607 0.960 . S
H609 N589 0.862 . S
O610 Co578 1.920 . S
O610 C583 1.289 . S
C611 O603 1.258 . S
C611 O604 1.266 . S
Co612 O615 1.970 . S
Co612 N629 1.989 . S
Co612 O637 1.967 . S
Co612 O644 1.920 . S
Co613 O616 1.966 . S
Co613 N622 2.022 . S
Co613 N630 1.993 . S
Co613 O638 1.941 . S
C614 O615 1.258 . S
C614 O616 1.263 . S
O615 Co612 1.970 . S
O615 C614 1.258 . S
O616 Co613 1.966 . S
O616 C614 1.263 . S
C617 O618 1.235 . S
C617 O644 1.289 . S
O618 C617 1.235 . S
C619 C621 1.400 . S
C619 N622 1.351 . S
C619 C624 1.501 . S
C620 C621 1.387 1_545 S
C620 N623 1.341 1_545 S
C621 C619 1.400 . S
C621 C620 1.387 1_565 S
N622 Co613 2.022 . S
N622 C619 1.351 . S
N622 N623 1.365 . S
N623 C620 1.341 1_565 S
N623 N622 1.365 . S
N623 H643 0.862 1_565 S
C624 C619 1.501 . S
C624 H625 0.961 . S
C624 H626 0.961 . S
C624 H627 0.960 . S
H625 C624 0.961 . S
H626 C624 0.961 . S
H627 C624 0.960 . S
C628 N629 1.342 . S
C628 C632 1.401 . S
C628 C633 1.499 . S
N629 Co612 1.989 . S
N629 C628 1.342 . S
N629 N630 1.388 . S
N630 Co613 1.993 . S
N630 N629 1.388 . S
N630 C631 1.346 . S
C631 N630 1.346 . S
C631 C632 1.396 . S
C631 C641 1.510 . S
C632 C628 1.401 . S
C632 C631 1.396 . S
C633 C628 1.499 . S
C633 H634 0.959 . S
C633 H635 0.960 . S
C633 H636 0.961 . S
H634 C633 0.959 . S
H635 C633 0.960 . S
H636 C633 0.961 . S
O637 Co612 1.967 . S
O637 C645 1.258 . S
O638 Co613 1.941 . S
O638 C645 1.266 . S
H639 C641 0.959 . S
H640 C641 0.961 . S
C641 C631 1.510 . S
C641 H639 0.959 . S
C641 H640 0.961 . S
C641 H642 0.960 . S
H642 C641 0.960 . S
H643 N623 0.862 1_545 S
O644 Co612 1.920 . S
O644 C617 1.289 . S
C645 O637 1.258 . S
C645 O638 1.266 . S
Co646 O649 1.970 . S
Co646 N663 1.989 . S
Co646 O671 1.967 . S
Co646 O678 1.920 . S
Co647 O650 1.966 . S
Co647 N656 2.022 . S
Co647 N664 1.993 . S
Co647 O672 1.941 . S
C648 O649 1.258 . S
C648 O650 1.263 . S
O649 Co646 1.970 . S
O649 C648 1.258 . S
O650 Co647 1.966 . S
O650 C648 1.263 . S
C651 O652 1.235 . S
C651 O678 1.289 . S
O652 C651 1.235 . S
C653 C655 1.400 . S
C653 N656 1.351 . S
C653 C658 1.501 . S
C654 C655 1.387 . S
C654 N657 1.341 . S
C655 C653 1.400 . S
C655 C654 1.387 . S
N656 Co647 2.022 . S
N656 C653 1.351 . S
N656 N657 1.365 . S
N657 C654 1.341 . S
N657 N656 1.365 . S
N657 H677 0.862 . S
C658 C653 1.501 . S
C658 H659 0.961 . S
C658 H660 0.961 . S
C658 H661 0.960 . S
H659 C658 0.961 . S
H660 C658 0.961 . S
H661 C658 0.960 . S
C662 N663 1.342 . S
C662 C666 1.401 . S
C662 C667 1.499 . S
N663 Co646 1.989 . S
N663 C662 1.342 . S
N663 N664 1.388 . S
N664 Co647 1.993 . S
N664 N663 1.388 . S
N664 C665 1.346 . S
C665 N664 1.346 . S
C665 C666 1.396 . S
C665 C675 1.510 . S
C666 C662 1.401 . S
C666 C665 1.396 . S
C667 C662 1.499 . S
C667 H668 0.959 . S
C667 H669 0.960 . S
C667 H670 0.961 . S
H668 C667 0.959 . S
H669 C667 0.960 . S
H670 C667 0.961 . S
O671 Co646 1.967 . S
O671 C679 1.258 . S
O672 Co647 1.941 . S
O672 C679 1.266 . S
H673 C675 0.959 . S
H674 C675 0.961 . S
C675 C665 1.510 . S
C675 H673 0.959 . S
C675 H674 0.961 . S
C675 H676 0.960 . S
H676 C675 0.960 . S
H677 N657 0.862 . S
O678 Co646 1.920 . S
O678 C651 1.289 . S
C679 O671 1.258 . S
C679 O672 1.266 . S
Co680 O683 1.970 . S
Co680 N697 1.989 . S
Co680 O705 1.967 . S
Co680 O712 1.920 . S
Co681 O684 1.966 . S
Co681 N690 2.022 . S
Co681 N698 1.993 . S
Co681 O706 1.941 . S
C682 O683 1.258 . S
C682 O684 1.263 . S
O683 Co680 1.970 . S
O683 C682 1.258 . S
O684 Co681 1.966 . S
O684 C682 1.263 . S
C685 O686 1.235 . S
C685 O712 1.289 . S
O686 C685 1.235 . S
C687 C689 1.400 . S
C687 N690 1.351 . S
C687 C692 1.501 . S
C688 C689 1.387 1_565 S
C688 N691 1.341 1_565 S
C689 C687 1.400 . S
C689 C688 1.387 1_545 S
N690 Co681 2.022 . S
N690 C687 1.351 . S
N690 N691 1.365 . S
N691 C688 1.341 1_545 S
N691 N690 1.365 . S
N691 H711 0.862 1_545 S
C692 C687 1.501 . S
C692 H693 0.961 . S
C692 H694 0.961 . S
C692 H695 0.960 . S
H693 C692 0.961 . S
H694 C692 0.961 . S
H695 C692 0.960 . S
C696 N697 1.342 . S
C696 C700 1.401 . S
C696 C701 1.499 . S
N697 Co680 1.989 . S
N697 C696 1.342 . S
N697 N698 1.388 . S
N698 Co681 1.993 . S
N698 N697 1.388 . S
N698 C699 1.346 . S
C699 N698 1.346 . S
C699 C700 1.396 . S
C699 C709 1.510 . S
C700 C696 1.401 . S
C700 C699 1.396 . S
C701 C696 1.499 . S
C701 H702 0.959 . S
C701 H703 0.960 . S
C701 H704 0.961 . S
H702 C701 0.959 . S
H703 C701 0.960 . S
H704 C701 0.961 . S
O705 Co680 1.967 . S
O705 C713 1.258 . S
O706 Co681 1.941 . S
O706 C713 1.266 . S
H707 C709 0.959 . S
H708 C709 0.961 . S
C709 C699 1.510 . S
C709 H707 0.959 . S
C709 H708 0.961 . S
C709 H710 0.960 . S
H710 C709 0.960 . S
H711 N691 0.862 1_565 S
O712 Co680 1.920 . S
O712 C685 1.289 . S
C713 O705 1.258 . S
C713 O706 1.266 . S
Co714 O717 1.970 . S
Co714 N731 1.989 . S
Co714 O739 1.967 . S
Co714 O746 1.920 . S
Co715 O718 1.966 . S
Co715 N724 2.022 . S
Co715 N732 1.993 . S
Co715 O740 1.941 . S
C716 O717 1.258 . S
C716 O718 1.263 . S
O717 Co714 1.970 . S
O717 C716 1.258 . S
O718 Co715 1.966 . S
O718 C716 1.263 . S
C719 O720 1.235 . S
C719 O746 1.289 . S
O720 C719 1.235 . S
C721 C723 1.400 . S
C721 N724 1.351 . S
C721 C726 1.501 . S
C722 C723 1.387 . S
C722 N725 1.341 . S
C723 C721 1.400 . S
C723 C722 1.387 . S
N724 Co715 2.022 . S
N724 C721 1.351 . S
N724 N725 1.365 . S
N725 C722 1.341 . S
N725 N724 1.365 . S
N725 H745 0.862 . S
C726 C721 1.501 . S
C726 H727 0.961 . S
C726 H728 0.961 . S
C726 H729 0.960 . S
H727 C726 0.961 . S
H728 C726 0.961 . S
H729 C726 0.960 . S
C730 N731 1.342 . S
C730 C734 1.401 . S
C730 C735 1.499 . S
N731 Co714 1.989 . S
N731 C730 1.342 . S
N731 N732 1.388 . S
N732 Co715 1.993 . S
N732 N731 1.388 . S
N732 C733 1.346 . S
C733 N732 1.346 . S
C733 C734 1.396 . S
C733 C743 1.510 . S
C734 C730 1.401 . S
C734 C733 1.396 . S
C735 C730 1.499 . S
C735 H736 0.959 . S
C735 H737 0.960 . S
C735 H738 0.961 . S
H736 C735 0.959 . S
H737 C735 0.960 . S
H738 C735 0.961 . S
O739 Co714 1.967 . S
O739 C747 1.258 . S
O740 Co715 1.941 . S
O740 C747 1.266 . S
H741 C743 0.959 . S
H742 C743 0.961 . S
C743 C733 1.510 . S
C743 H741 0.959 . S
C743 H742 0.961 . S
C743 H744 0.960 . S
H744 C743 0.960 . S
H745 N725 0.862 . S
O746 Co714 1.920 . S
O746 C719 1.289 . S
C747 O739 1.258 . S
C747 O740 1.266 . S
Co748 O751 1.970 . S
Co748 N765 1.989 . S
Co748 O773 1.967 . S
Co748 O780 1.920 . S
Co749 O752 1.966 . S
Co749 N758 2.022 . S
Co749 N766 1.993 . S
Co749 O774 1.941 . S
C750 O751 1.258 . S
C750 O752 1.263 . S
O751 Co748 1.970 . S
O751 C750 1.258 . S
O752 Co749 1.966 . S
O752 C750 1.263 . S
C753 O754 1.235 . S
C753 O780 1.289 . S
O754 C753 1.235 . S
C755 C757 1.400 . S
C755 N758 1.351 . S
C755 C760 1.501 . S
C756 C757 1.387 . S
C756 N759 1.341 . S
C757 C755 1.400 . S
C757 C756 1.387 . S
N758 Co749 2.022 . S
N758 C755 1.351 . S
N758 N759 1.365 . S
N759 C756 1.341 . S
N759 N758 1.365 . S
N759 H779 0.862 . S
C760 C755 1.501 . S
C760 H761 0.961 . S
C760 H762 0.961 . S
C760 H763 0.960 . S
H761 C760 0.961 . S
H762 C760 0.961 . S
H763 C760 0.960 . S
C764 N765 1.342 . S
C764 C768 1.401 . S
C764 C769 1.499 . S
N765 Co748 1.989 . S
N765 C764 1.342 . S
N765 N766 1.388 . S
N766 Co749 1.993 . S
N766 N765 1.388 . S
N766 C767 1.346 . S
C767 N766 1.346 . S
C767 C768 1.396 . S
C767 C777 1.510 . S
C768 C764 1.401 . S
C768 C767 1.396 . S
C769 C764 1.499 . S
C769 H770 0.959 . S
C769 H771 0.960 . S
C769 H772 0.961 . S
H770 C769 0.959 . S
H771 C769 0.960 . S
H772 C769 0.961 . S
O773 Co748 1.967 . S
O773 C781 1.258 . S
O774 Co749 1.941 . S
O774 C781 1.266 . S
H775 C777 0.959 . S
H776 C777 0.961 . S
C777 C767 1.510 . S
C777 H775 0.959 . S
C777 H776 0.961 . S
C777 H778 0.960 . S
H778 C777 0.960 . S
H779 N759 0.862 . S
O780 Co748 1.920 . S
O780 C753 1.289 . S
C781 O773 1.258 . S
C781 O774 1.266 . S
Co782 O785 1.970 . S
Co782 N799 1.989 . S
Co782 O807 1.967 . S
Co782 O814 1.920 . S
Co783 O786 1.966 . S
Co783 N792 2.022 . S
Co783 N800 1.993 . S
Co783 O808 1.941 . S
C784 O785 1.258 . S
C784 O786 1.263 . S
O785 Co782 1.970 . S
O785 C784 1.258 . S
O786 Co783 1.966 . S
O786 C784 1.263 . S
C787 O788 1.235 . S
C787 O814 1.289 . S
O788 C787 1.235 . S
C789 C791 1.400 . S
C789 N792 1.351 . S
C789 C794 1.501 . S
C790 C791 1.387 . S
C790 N793 1.341 . S
C791 C789 1.400 . S
C791 C790 1.387 . S
N792 Co783 2.022 . S
N792 C789 1.351 . S
N792 N793 1.365 . S
N793 C790 1.341 . S
N793 N792 1.365 . S
N793 H813 0.862 . S
C794 C789 1.501 . S
C794 H795 0.961 . S
C794 H796 0.961 . S
C794 H797 0.960 . S
H795 C794 0.961 . S
H796 C794 0.961 . S
H797 C794 0.960 . S
C798 N799 1.342 . S
C798 C802 1.401 . S
C798 C803 1.499 . S
N799 Co782 1.989 . S
N799 C798 1.342 . S
N799 N800 1.388 . S
N800 Co783 1.993 . S
N800 N799 1.388 . S
N800 C801 1.346 . S
C801 N800 1.346 . S
C801 C802 1.396 . S
C801 C811 1.510 . S
C802 C798 1.401 . S
C802 C801 1.396 . S
C803 C798 1.499 . S
C803 H804 0.959 . S
C803 H805 0.960 . S
C803 H806 0.961 . S
H804 C803 0.959 . S
H805 C803 0.960 . S
H806 C803 0.961 . S
O807 Co782 1.967 . S
O807 C815 1.258 . S
O808 Co783 1.941 . S
O808 C815 1.266 . S
H809 C811 0.959 . S
H810 C811 0.961 . S
C811 C801 1.510 . S
C811 H809 0.959 . S
C811 H810 0.961 . S
C811 H812 0.960 . S
H812 C811 0.960 . S
H813 N793 0.862 . S
O814 Co782 1.920 . S
O814 C787 1.289 . S
C815 O807 1.258 . S
C815 O808 1.266 . S
H816 C824 0.950 . S
H817 C829 0.950 . S
H818 C826 0.950 . S
H819 C828 0.950 . S
H820 C830 0.950 . S
H821 C832 0.950 . S
H822 C834 0.950 . S
H823 C835 0.950 . S
C824 H816 0.950 . S
C824 C825 1.386 . S
C824 C826 1.391 . S
C825 C824 1.386 . S
C825 C829 1.393 . S
C826 H818 0.950 . S
C826 C824 1.391 . S
C826 C827 1.400 . S
C827 C826 1.400 . S
C827 C828 1.398 . S
C827 C833 1.491 . S
C828 H819 0.950 . S
C828 C827 1.398 . S
C828 C829 1.391 . S
C829 H817 0.950 . S
C829 C825 1.393 . S
C829 C828 1.391 . S
C830 H820 0.950 . S
C830 C831 1.386 . S
C830 C832 1.391 . S
C831 C830 1.386 . S
C831 C835 1.393 . S
C832 H821 0.950 . S
C832 C830 1.391 . S
C832 C833 1.400 . S
C833 C827 1.491 . S
C833 C832 1.400 . S
C833 C834 1.398 . S
C834 H822 0.950 . S
C834 C833 1.398 . S
C834 C835 1.391 . S
C835 H823 0.950 . S
C835 C831 1.393 . S
C835 C834 1.391 . S
H836 C844 0.950 . S
H837 C849 0.950 . S
H838 C846 0.950 . S
H839 C848 0.950 . S
H840 C850 0.950 . S
H841 C852 0.950 . S
H842 C854 0.950 . S
H843 C855 0.950 . S
C844 H836 0.950 . S
C844 C845 1.386 . S
C844 C846 1.391 . S
C845 C844 1.386 . S
C845 C849 1.393 . S
C846 H838 0.950 . S
C846 C844 1.391 . S
C846 C847 1.400 . S
C847 C846 1.400 . S
C847 C848 1.398 . S
C847 C853 1.491 . S
C848 H839 0.950 . S
C848 C847 1.398 . S
C848 C849 1.391 . S
C849 H837 0.950 . S
C849 C845 1.393 . S
C849 C848 1.391 . S
C850 H840 0.950 . S
C850 C851 1.386 . S
C850 C852 1.391 . S
C851 C850 1.386 . S
C851 C855 1.393 . S
C852 H841 0.950 . S
C852 C850 1.391 . S
C852 C853 1.400 . S
C853 C847 1.491 . S
C853 C852 1.400 . S
C853 C854 1.398 . S
C854 H842 0.950 . S
C854 C853 1.398 . S
C854 C855 1.391 . S
C855 H843 0.950 . S
C855 C851 1.393 . S
C855 C854 1.391 . S
H856 C864 0.950 . S
H857 C869 0.950 . S
H858 C866 0.950 . S
H859 C868 0.950 . S
H860 C870 0.950 . S
H861 C872 0.950 . S
H862 C874 0.950 . S
H863 C875 0.950 . S
C864 H856 0.950 . S
C864 C865 1.386 . S
C864 C866 1.391 . S
C865 C864 1.386 . S
C865 C869 1.393 . S
C866 H858 0.950 . S
C866 C864 1.391 . S
C866 C867 1.400 . S
C867 C866 1.400 . S
C867 C868 1.398 . S
C867 C873 1.491 . S
C868 H859 0.950 . S
C868 C867 1.398 . S
C868 C869 1.391 . S
C869 H857 0.950 . S
C869 C865 1.393 . S
C869 C868 1.391 . S
C870 H860 0.950 . S
C870 C871 1.386 1_556 S
C870 C872 1.391 . S
C871 C870 1.386 1_554 S
C871 C875 1.393 . S
C872 H861 0.950 . S
C872 C870 1.391 . S
C872 C873 1.400 . S
C873 C867 1.491 . S
C873 C872 1.400 . S
C873 C874 1.398 . S
C874 H862 0.950 . S
C874 C873 1.398 . S
C874 C875 1.391 1_556 S
C875 H863 0.950 . S
C875 C871 1.393 . S
C875 C874 1.391 1_554 S
H876 C884 0.950 . S
H877 C889 0.950 . S
H878 C886 0.950 . S
H879 C888 0.950 . S
H880 C890 0.950 . S
H881 C892 0.950 . S
H882 C894 0.950 . S
H883 C895 0.950 . S
C884 H876 0.950 . S
C884 C885 1.386 . S
C884 C886 1.391 . S
C885 C884 1.386 . S
C885 C889 1.393 . S
C886 H878 0.950 . S
C886 C884 1.391 . S
C886 C887 1.400 . S
C887 C886 1.400 . S
C887 C888 1.398 . S
C887 C893 1.491 . S
C888 H879 0.950 . S
C888 C887 1.398 . S
C888 C889 1.391 . S
C889 H877 0.950 . S
C889 C885 1.393 . S
C889 C888 1.391 . S
C890 H880 0.950 . S
C890 C891 1.386 . S
C890 C892 1.391 . S
C891 C890 1.386 . S
C891 C895 1.393 . S
C892 H881 0.950 . S
C892 C890 1.391 . S
C892 C893 1.400 . S
C893 C887 1.491 . S
C893 C892 1.400 . S
C893 C894 1.398 . S
C894 H882 0.950 . S
C894 C893 1.398 . S
C894 C895 1.391 . S
C895 H883 0.950 . S
C895 C891 1.393 . S
C895 C894 1.391 . S
H896 C904 0.950 . S
H897 C909 0.950 . S
H898 C906 0.950 . S
H899 C908 0.950 . S
H900 C910 0.950 . S
H901 C912 0.950 . S
H902 C914 0.950 . S
H903 C915 0.950 . S
C904 H896 0.950 . S
C904 C905 1.386 . S
C904 C906 1.391 . S
C905 C904 1.386 . S
C905 C909 1.393 . S
C906 H898 0.950 . S
C906 C904 1.391 . S
C906 C907 1.400 . S
C907 C906 1.400 . S
C907 C908 1.398 . S
C907 C913 1.491 . S
C908 H899 0.950 . S
C908 C907 1.398 . S
C908 C909 1.391 . S
C909 H897 0.950 . S
C909 C905 1.393 . S
C909 C908 1.391 . S
C910 H900 0.950 . S
C910 C911 1.386 . S
C910 C912 1.391 . S
C911 C910 1.386 . S
C911 C915 1.393 . S
C912 H901 0.950 . S
C912 C910 1.391 . S
C912 C913 1.400 . S
C913 C907 1.491 . S
C913 C912 1.400 . S
C913 C914 1.398 . S
C914 H902 0.950 . S
C914 C913 1.398 . S
C914 C915 1.391 . S
C915 H903 0.950 . S
C915 C911 1.393 . S
C915 C914 1.391 . S
H916 C924 0.950 . S
H917 C929 0.950 . S
H918 C926 0.950 . S
H919 C928 0.950 . S
H920 C930 0.950 . S
H921 C932 0.950 . S
H922 C934 0.950 . S
H923 C935 0.950 . S
C924 H916 0.950 . S
C924 C925 1.386 . S
C924 C926 1.391 . S
C925 C924 1.386 . S
C925 C929 1.393 . S
C926 H918 0.950 . S
C926 C924 1.391 . S
C926 C927 1.400 . S
C927 C926 1.400 . S
C927 C928 1.398 . S
C927 C933 1.491 . S
C928 H919 0.950 . S
C928 C927 1.398 . S
C928 C929 1.391 . S
C929 H917 0.950 . S
C929 C925 1.393 . S
C929 C928 1.391 . S
C930 H920 0.950 . S
C930 C931 1.386 . S
C930 C932 1.391 . S
C931 C930 1.386 . S
C931 C935 1.393 . S
C932 H921 0.950 . S
C932 C930 1.391 . S
C932 C933 1.400 . S
C933 C927 1.491 . S
C933 C932 1.400 . S
C933 C934 1.398 . S
C934 H922 0.950 . S
C934 C933 1.398 . S
C934 C935 1.391 . S
C935 H923 0.950 . S
C935 C931 1.393 . S
C935 C934 1.391 . S
H936 C944 0.950 . S
H937 C949 0.950 . S
H938 C946 0.950 . S
H939 C948 0.950 . S
H940 C950 0.950 . S
H941 C952 0.950 . S
H942 C954 0.950 . S
H943 C955 0.956 . S
C944 H936 0.950 . S
C944 C945 1.386 . S
C944 C946 1.391 . S
C945 C944 1.386 . S
C945 C949 1.393 . S
C946 H938 0.950 . S
C946 C944 1.391 . S
C946 C947 1.400 . S
C947 C946 1.400 . S
C947 C948 1.398 . S
C947 C953 1.491 . S
C948 H939 0.950 . S
C948 C947 1.398 . S
C948 C949 1.391 . S
C949 H937 0.950 . S
C949 C945 1.393 . S
C949 C948 1.391 . S
C950 H940 0.950 . S
C950 C951 1.386 1_554 S
C950 C952 1.391 . S
C951 C950 1.386 1_556 S
C951 C955 1.395 . S
C952 H941 0.950 . S
C952 C950 1.391 . S
C952 C953 1.400 . S
C953 C947 1.491 . S
C953 C952 1.400 . S
C953 C954 1.398 . S
C954 H942 0.950 . S
C954 C953 1.398 . S
C954 C955 1.382 1_554 S
C955 H943 0.956 . S
C955 C951 1.395 . S
C955 C954 1.382 1_556 S
H956 C964 0.950 . S
H957 C969 0.950 . S
H958 C966 0.950 . S
H959 C968 0.950 . S
H960 C970 0.950 . S
H961 C972 0.950 . S
H962 C974 0.950 . S
H963 C975 0.950 . S
C964 H956 0.950 . S
C964 C965 1.386 . S
C964 C966 1.391 . S
C965 C964 1.386 . S
C965 C969 1.393 . S
C966 H958 0.950 . S
C966 C964 1.391 . S
C966 C967 1.400 . S
C967 C966 1.400 . S
C967 C968 1.398 . S
C967 C973 1.491 . S
C968 H959 0.950 . S
C968 C967 1.398 . S
C968 C969 1.391 . S
C969 H957 0.950 . S
C969 C965 1.393 . S
C969 C968 1.391 . S
C970 H960 0.950 . S
C970 C971 1.386 . S
C970 C972 1.391 . S
C971 C970 1.386 . S
C971 C975 1.393 . S
C972 H961 0.950 . S
C972 C970 1.391 . S
C972 C973 1.400 . S
C973 C967 1.491 . S
C973 C972 1.400 . S
C973 C974 1.398 . S
C974 H962 0.950 . S
C974 C973 1.398 . S
C974 C975 1.391 . S
C975 H963 0.950 . S
C975 C971 1.393 . S
C975 C974 1.391 . S
H976 C984 0.950 . S
H977 C989 0.950 . S
H978 C986 0.950 . S
H979 C988 0.950 . S
H980 C990 0.950 . S
H981 C992 0.950 . S
H982 C994 0.950 . S
H983 C995 0.950 . S
C984 H976 0.950 . S
C984 C985 1.386 . S
C984 C986 1.391 . S
C985 C984 1.386 . S
C985 C989 1.393 . S
C986 H978 0.950 . S
C986 C984 1.391 . S
C986 C987 1.400 . S
C987 C986 1.400 . S
C987 C988 1.398 . S
C987 C993 1.491 . S
C988 H979 0.950 . S
C988 C987 1.398 . S
C988 C989 1.391 . S
C989 H977 0.950 . S
C989 C985 1.393 . S
C989 C988 1.391 . S
C990 H980 0.950 . S
C990 C991 1.386 . S
C990 C992 1.391 . S
C991 C990 1.386 . S
C991 C995 1.393 . S
C992 H981 0.950 . S
C992 C990 1.391 . S
C992 C993 1.400 . S
C993 C987 1.491 . S
C993 C992 1.400 . S
C993 C994 1.398 . S
C994 H982 0.950 . S
C994 C993 1.398 . S
C994 C995 1.391 . S
C995 H983 0.950 . S
C995 C991 1.393 . S
C995 C994 1.391 . S
H996 C1004 0.950 . S
H997 C1009 0.950 . S
H998 C1006 0.950 . S
H999 C1008 0.950 . S
H1000 C1010 0.950 . S
H1001 C1012 0.950 . S
H1002 C1014 0.950 . S
H1003 C1015 0.950 . S
C1004 H996 0.950 . S
C1004 C1005 1.386 . S
C1004 C1006 1.391 . S
C1005 C1004 1.386 . S
C1005 C1009 1.393 . S
C1006 H998 0.950 . S
C1006 C1004 1.391 . S
C1006 C1007 1.400 . S
C1007 C1006 1.400 . S
C1007 C1008 1.398 . S
C1007 C1013 1.491 . S
C1008 H999 0.950 . S
C1008 C1007 1.398 . S
C1008 C1009 1.391 . S
C1009 H997 0.950 . S
C1009 C1005 1.393 . S
C1009 C1008 1.391 . S
C1010 H1000 0.950 . S
C1010 C1011 1.386 . S
C1010 C1012 1.391 . S
C1011 C1010 1.386 . S
C1011 C1015 1.393 . S
C1012 H1001 0.950 . S
C1012 C1010 1.391 . S
C1012 C1013 1.400 . S
C1013 C1007 1.491 . S
C1013 C1012 1.400 . S
C1013 C1014 1.398 . S
C1014 H1002 0.950 . S
C1014 C1013 1.398 . S
C1014 C1015 1.391 . S
C1015 H1003 0.950 . S
C1015 C1011 1.393 . S
C1015 C1014 1.391 . S
H1016 C1024 0.950 . S
H1017 C1029 0.950 . S
H1018 C1026 0.950 . S
H1019 C1028 0.950 . S
H1020 C1030 0.950 . S
H1021 C1032 0.950 . S
H1022 C1034 0.950 . S
H1023 C1035 0.950 . S
C1024 H1016 0.950 . S
C1024 C1025 1.386 . S
C1024 C1026 1.391 . S
C1025 C1024 1.386 . S
C1025 C1029 1.393 . S
C1026 H1018 0.950 . S
C1026 C1024 1.391 . S
C1026 C1027 1.400 . S
C1027 C1026 1.400 . S
C1027 C1028 1.398 . S
C1027 C1033 1.491 . S
C1028 H1019 0.950 . S
C1028 C1027 1.398 . S
C1028 C1029 1.391 . S
C1029 H1017 0.950 . S
C1029 C1025 1.393 . S
C1029 C1028 1.391 . S
C1030 H1020 0.950 . S
C1030 C1031 1.386 . S
C1030 C1032 1.391 1_655 S
C1031 C1030 1.386 . S
C1031 C1035 1.393 1_655 S
C1032 H1021 0.950 . S
C1032 C1030 1.391 1_455 S
C1032 C1033 1.400 . S
C1033 C1027 1.491 . S
C1033 C1032 1.400 . S
C1033 C1034 1.398 . S
C1034 H1022 0.950 . S
C1034 C1033 1.398 . S
C1034 C1035 1.391 . S
C1035 H1023 0.950 . S
C1035 C1031 1.393 1_455 S
C1035 C1034 1.391 . S
H1036 C1044 0.950 . S
H1037 C1049 0.950 1_455 S
H1038 C1046 0.950 . S
H1039 C1048 0.950 . S
H1040 C1050 0.950 . S
H1041 C1052 0.950 . S
H1042 C1054 0.950 . S
H1043 C1055 0.950 . S
C1044 H1036 0.950 . S
C1044 C1045 1.386 . S
C1044 C1046 1.391 . S
C1045 C1044 1.386 . S
C1045 C1049 1.393 . S
C1046 H1038 0.950 . S
C1046 C1044 1.391 . S
C1046 C1047 1.400 . S
C1047 C1046 1.400 . S
C1047 C1048 1.398 . S
C1047 C1053 1.491 . S
C1048 H1039 0.950 . S
C1048 C1047 1.398 . S
C1048 C1049 1.391 . S
C1049 H1037 0.950 1_655 S
C1049 C1045 1.393 . S
C1049 C1048 1.391 . S
C1050 H1040 0.950 . S
C1050 C1051 1.386 . S
C1050 C1052 1.391 . S
C1051 C1050 1.386 . S
C1051 C1055 1.393 . S
C1052 H1041 0.950 . S
C1052 C1050 1.391 . S
C1052 C1053 1.400 . S
C1053 C1047 1.491 . S
C1053 C1052 1.400 . S
C1053 C1054 1.398 . S
C1054 H1042 0.950 . S
C1054 C1053 1.398 . S
C1054 C1055 1.391 . S
C1055 H1043 0.950 . S
C1055 C1051 1.393 . S
C1055 C1054 1.391 . S
H1056 C1064 0.950 . S
H1057 C1069 0.932 1_455 S
H1058 C1066 0.950 . S
H1059 C1068 0.950 . S
H1060 C1070 0.950 . S
H1061 C1072 0.950 . S
H1062 C1074 0.950 . S
H1063 C1075 0.950 . S
C1064 H1056 0.950 . S
C1064 C1065 1.386 1_655 S
C1064 C1066 1.391 . S
C1065 C1064 1.386 1_455 S
C1065 C1069 1.384 1_455 S
C1066 H1058 0.950 . S
C1066 C1064 1.391 . S
C1066 C1067 1.400 . S
C1067 C1066 1.400 . S
C1067 C1068 1.398 . S
C1067 C1073 1.491 . S
C1068 H1059 0.950 . S
C1068 C1067 1.398 . S
C1068 C1069 1.419 . S
C1069 H1057 0.932 1_655 S
C1069 C1065 1.384 1_655 S
C1069 C1068 1.419 . S
C1070 H1060 0.950 . S
C1070 C1071 1.386 . S
C1070 C1072 1.391 . S
C1071 C1070 1.386 . S
C1071 C1075 1.393 . S
C1072 H1061 0.950 . S
C1072 C1070 1.391 . S
C1072 C1073 1.400 . S
C1073 C1067 1.491 . S
C1073 C1072 1.400 . S
C1073 C1074 1.398 . S
C1074 H1062 0.950 . S
C1074 C1073 1.398 . S
C1074 C1075 1.391 . S
C1075 H1063 0.950 . S
C1075 C1071 1.393 . S
C1075 C1074 1.391 . S
H1076 C1084 0.950 . S
H1077 C1089 0.950 . S
H1078 C1086 0.950 . S
H1079 C1088 0.950 . S
H1080 C1090 0.950 . S
H1081 C1092 0.950 . S
H1082 C1094 0.950 . S
H1083 C1095 0.950 . S
C1084 H1076 0.950 . S
C1084 C1085 1.386 . S
C1084 C1086 1.391 . S
C1085 C1084 1.386 . S
C1085 C1089 1.393 . S
C1086 H1078 0.950 . S
C1086 C1084 1.391 . S
C1086 C1087 1.400 . S
C1087 C1086 1.400 . S
C1087 C1088 1.398 . S
C1087 C1093 1.491 . S
C1088 H1079 0.950 . S
C1088 C1087 1.398 . S
C1088 C1089 1.391 . S
C1089 H1077 0.950 . S
C1089 C1085 1.393 . S
C1089 C1088 1.391 . S
C1090 H1080 0.950 . S
C1090 C1091 1.386 . S
C1090 C1092 1.391 . S
C1091 C1090 1.386 . S
C1091 C1095 1.393 . S
C1092 H1081 0.950 . S
C1092 C1090 1.391 . S
C1092 C1093 1.400 . S
C1093 C1087 1.491 . S
C1093 C1092 1.400 . S
C1093 C1094 1.398 . S
C1094 H1082 0.950 . S
C1094 C1093 1.398 . S
C1094 C1095 1.391 . S
C1095 H1083 0.950 . S
C1095 C1091 1.393 . S
C1095 C1094 1.391 . S
H1096 C1104 0.950 . S
H1097 C1109 0.950 . S
H1098 C1106 0.950 . S
H1099 C1108 0.950 . S
H1100 C1110 0.950 . S
H1101 C1112 0.950 . S
H1102 C1114 0.950 . S
H1103 C1115 0.950 . S
C1104 H1096 0.950 . S
C1104 C1105 1.386 . S
C1104 C1106 1.391 . S
C1105 C1104 1.386 . S
C1105 C1109 1.393 . S
C1106 H1098 0.950 . S
C1106 C1104 1.391 . S
C1106 C1107 1.400 . S
C1107 C1106 1.400 . S
C1107 C1108 1.398 . S
C1107 C1113 1.491 . S
C1108 H1099 0.950 . S
C1108 C1107 1.398 . S
C1108 C1109 1.391 . S
C1109 H1097 0.950 . S
C1109 C1105 1.393 . S
C1109 C1108 1.391 . S
C1110 H1100 0.950 . S
C1110 C1111 1.386 . S
C1110 C1112 1.391 . S
C1111 C1110 1.386 . S
C1111 C1115 1.393 . S
C1112 H1101 0.950 . S
C1112 C1110 1.391 . S
C1112 C1113 1.400 . S
C1113 C1107 1.491 . S
C1113 C1112 1.400 . S
C1113 C1114 1.398 . S
C1114 H1102 0.950 . S
C1114 C1113 1.398 . S
C1114 C1115 1.391 . S
C1115 H1103 0.950 . S
C1115 C1111 1.393 . S
C1115 C1114 1.391 . S
H1116 C1124 0.952 . S
H1117 C1129 0.950 . S
H1118 C1126 0.950 . S
H1119 C1128 0.950 . S
H1120 C1130 0.950 . S
H1121 C1132 0.950 . S
H1122 C1134 0.950 . S
H1123 C1135 0.950 . S
C1124 H1116 0.952 . S
C1124 C1125 1.385 1_655 S
C1124 C1126 1.389 1_655 S
C1125 C1124 1.385 1_455 S
C1125 C1129 1.393 . S
C1126 H1118 0.950 . S
C1126 C1124 1.389 1_455 S
C1126 C1127 1.400 . S
C1127 C1126 1.400 . S
C1127 C1128 1.398 . S
C1127 C1133 1.491 . S
C1128 H1119 0.950 . S
C1128 C1127 1.398 . S
C1128 C1129 1.391 . S
C1129 H1117 0.950 . S
C1129 C1125 1.393 . S
C1129 C1128 1.391 . S
C1130 H1120 0.950 . S
C1130 C1131 1.386 . S
C1130 C1132 1.391 . S
C1131 C1130 1.386 . S
C1131 C1135 1.393 . S
C1132 H1121 0.950 . S
C1132 C1130 1.391 . S
C1132 C1133 1.400 . S
C1133 C1127 1.491 . S
C1133 C1132 1.400 . S
C1133 C1134 1.398 . S
C1134 H1122 0.950 . S
C1134 C1133 1.398 . S
C1134 C1135 1.391 . S
C1135 H1123 0.950 . S
C1135 C1131 1.393 . S
C1135 C1134 1.391 . S
H1136 C1144 0.950 . S
H1137 C1149 0.950 . S
H1138 C1146 0.950 . S
H1139 C1148 0.950 . S
H1140 C1150 0.950 . S
H1141 C1152 0.950 . S
H1142 C1154 0.950 . S
H1143 C1155 0.950 . S
C1144 H1136 0.950 . S
C1144 C1145 1.386 . S
C1144 C1146 1.391 . S
C1145 C1144 1.386 . S
C1145 C1149 1.393 . S
C1146 H1138 0.950 . S
C1146 C1144 1.391 . S
C1146 C1147 1.400 . S
C1147 C1146 1.400 . S
C1147 C1148 1.398 . S
C1147 C1153 1.491 . S
C1148 H1139 0.950 . S
C1148 C1147 1.398 . S
C1148 C1149 1.391 . S
C1149 H1137 0.950 . S
C1149 C1145 1.393 . S
C1149 C1148 1.391 . S
C1150 H1140 0.950 . S
C1150 C1151 1.386 . S
C1150 C1152 1.391 . S
C1151 C1150 1.386 . S
C1151 C1155 1.393 . S
C1152 H1141 0.950 . S
C1152 C1150 1.391 . S
C1152 C1153 1.400 . S
C1153 C1147 1.491 . S
C1153 C1152 1.400 . S
C1153 C1154 1.398 . S
C1154 H1142 0.950 . S
C1154 C1153 1.398 . S
C1154 C1155 1.391 . S
C1155 H1143 0.950 . S
C1155 C1151 1.393 . S
C1155 C1154 1.391 . S
H1156 C1164 0.950 . S
H1157 C1169 0.950 . S
H1158 C1166 0.950 . S
H1159 C1168 0.950 . S
H1160 C1170 0.950 . S
H1161 C1172 0.950 . S
H1162 C1174 0.950 . S
H1163 C1175 0.950 . S
C1164 H1156 0.950 . S
C1164 C1165 1.386 . S
C1164 C1166 1.391 . S
C1165 C1164 1.386 . S
C1165 C1169 1.393 . S
C1166 H1158 0.950 . S
C1166 C1164 1.391 . S
C1166 C1167 1.400 . S
C1167 C1166 1.400 . S
C1167 C1168 1.398 . S
C1167 C1173 1.491 . S
C1168 H1159 0.950 . S
C1168 C1167 1.398 . S
C1168 C1169 1.391 . S
C1169 H1157 0.950 . S
C1169 C1165 1.393 . S
C1169 C1168 1.391 . S
C1170 H1160 0.950 . S
C1170 C1171 1.386 1_545 S
C1170 C1172 1.391 . S
C1171 C1170 1.386 1_565 S
C1171 C1175 1.393 . S
C1172 H1161 0.950 . S
C1172 C1170 1.391 . S
C1172 C1173 1.400 . S
C1173 C1167 1.491 . S
C1173 C1172 1.400 . S
C1173 C1174 1.398 . S
C1174 H1162 0.950 . S
C1174 C1173 1.398 . S
C1174 C1175 1.391 1_545 S
C1175 H1163 0.950 . S
C1175 C1171 1.393 . S
C1175 C1174 1.391 1_565 S
H1176 C1184 0.950 . S
H1177 C1189 0.950 . S
H1178 C1186 0.950 . S
H1179 C1188 0.950 . S
H1180 C1190 0.950 . S
H1181 C1192 0.950 . S
H1182 C1194 0.950 . S
H1183 C1195 0.950 . S
C1184 H1176 0.950 . S
C1184 C1185 1.386 . S
C1184 C1186 1.391 . S
C1185 C1184 1.386 . S
C1185 C1189 1.393 . S
C1186 H1178 0.950 . S
C1186 C1184 1.391 . S
C1186 C1187 1.400 . S
C1187 C1186 1.400 . S
C1187 C1188 1.398 . S
C1187 C1193 1.491 . S
C1188 H1179 0.950 . S
C1188 C1187 1.398 . S
C1188 C1189 1.391 . S
C1189 H1177 0.950 . S
C1189 C1185 1.393 . S
C1189 C1188 1.391 . S
C1190 H1180 0.950 . S
C1190 C1191 1.386 . S
C1190 C1192 1.391 . S
C1191 C1190 1.386 . S
C1191 C1195 1.393 . S
C1192 H1181 0.950 . S
C1192 C1190 1.391 . S
C1192 C1193 1.400 . S
C1193 C1187 1.491 . S
C1193 C1192 1.400 . S
C1193 C1194 1.398 . S
C1194 H1182 0.950 . S
C1194 C1193 1.398 . S
C1194 C1195 1.391 . S
C1195 H1183 0.950 . S
C1195 C1191 1.393 . S
C1195 C1194 1.391 . S
H1196 C1204 0.950 . S
H1197 C1209 0.950 . S
H1198 C1206 0.950 . S
H1199 C1208 0.950 . S
H1200 C1210 0.950 . S
H1201 C1212 0.950 . S
H1202 C1214 0.950 . S
H1203 C1215 0.950 . S
C1204 H1196 0.950 . S
C1204 C1205 1.386 . S
C1204 C1206 1.391 1_545 S
C1205 C1204 1.386 . S
C1205 C1209 1.393 1_545 S
C1206 H1198 0.950 . S
C1206 C1204 1.391 1_565 S
C1206 C1207 1.400 . S
C1207 C1206 1.400 . S
C1207 C1208 1.398 . S
C1207 C1213 1.491 . S
C1208 H1199 0.950 . S
C1208 C1207 1.398 . S
C1208 C1209 1.391 . S
C1209 H1197 0.950 . S
C1209 C1205 1.393 1_565 S
C1209 C1208 1.391 . S
C1210 H1200 0.950 . S
C1210 C1211 1.386 . S
C1210 C1212 1.391 . S
C1211 C1210 1.386 . S
C1211 C1215 1.393 . S
C1212 H1201 0.950 . S
C1212 C1210 1.391 . S
C1212 C1213 1.400 . S
C1213 C1207 1.491 . S
C1213 C1212 1.400 . S
C1213 C1214 1.398 . S
C1214 H1202 0.950 . S
C1214 C1213 1.398 . S
C1214 C1215 1.391 . S
C1215 H1203 0.950 . S
C1215 C1211 1.393 . S
C1215 C1214 1.391 . S
H1216 C1224 0.950 . S
H1217 C1229 0.950 . S
H1218 C1226 0.950 . S
H1219 C1228 0.950 . S
H1220 C1230 0.950 . S
H1221 C1232 0.950 . S
H1222 C1234 0.950 . S
H1223 C1235 0.957 . S
C1224 H1216 0.950 . S
C1224 C1225 1.386 . S
C1224 C1226 1.391 . S
C1225 C1224 1.386 . S
C1225 C1229 1.393 . S
C1226 H1218 0.950 . S
C1226 C1224 1.391 . S
C1226 C1227 1.400 . S
C1227 C1226 1.400 . S
C1227 C1228 1.398 . S
C1227 C1233 1.491 . S
C1228 H1219 0.950 . S
C1228 C1227 1.398 . S
C1228 C1229 1.391 . S
C1229 H1217 0.950 . S
C1229 C1225 1.393 . S
C1229 C1228 1.391 . S
C1230 H1220 0.950 . S
C1230 C1231 1.386 . S
C1230 C1232 1.391 . S
C1231 C1230 1.386 . S
C1231 C1235 1.391 1_554 S
C1232 H1221 0.950 . S
C1232 C1230 1.391 . S
C1232 C1233 1.400 . S
C1233 C1227 1.491 . S
C1233 C1232 1.400 . S
C1233 C1234 1.398 . S
C1234 H1222 0.950 . S
C1234 C1233 1.398 . S
C1234 C1235 1.385 1_554 S
C1235 H1223 0.957 . S
C1235 C1231 1.391 1_556 S
C1235 C1234 1.385 1_556 S
H1236 C1244 0.950 . S
H1237 C1249 0.950 . S
H1238 C1246 0.950 . S
H1239 C1248 0.950 . S
H1240 C1250 0.950 . S
H1241 C1252 0.950 . S
H1242 C1254 0.950 . S
H1243 C1255 0.950 . S
C1244 H1236 0.950 . S
C1244 C1245 1.386 . S
C1244 C1246 1.391 . S
C1245 C1244 1.386 . S
C1245 C1249 1.393 . S
C1246 H1238 0.950 . S
C1246 C1244 1.391 . S
C1246 C1247 1.400 . S
C1247 C1246 1.400 . S
C1247 C1248 1.398 . S
C1247 C1253 1.491 . S
C1248 H1239 0.950 . S
C1248 C1247 1.398 . S
C1248 C1249 1.391 . S
C1249 H1237 0.950 . S
C1249 C1245 1.393 . S
C1249 C1248 1.391 . S
C1250 H1240 0.950 . S
C1250 C1251 1.386 . S
C1250 C1252 1.391 . S
C1251 C1250 1.386 . S
C1251 C1255 1.393 . S
C1252 H1241 0.950 . S
C1252 C1250 1.391 . S
C1252 C1253 1.400 . S
C1253 C1247 1.491 . S
C1253 C1252 1.400 . S
C1253 C1254 1.398 . S
C1254 H1242 0.950 . S
C1254 C1253 1.398 . S
C1254 C1255 1.391 . S
C1255 H1243 0.950 . S
C1255 C1251 1.393 . S
C1255 C1254 1.391 . S
H1256 C1264 0.950 . S
H1257 C1269 0.950 . S
H1258 C1266 0.950 . S
H1259 C1268 0.950 . S
H1260 C1270 0.950 . S
H1261 C1272 0.950 . S
H1262 C1274 0.950 . S
H1263 C1275 0.950 . S
C1264 H1256 0.950 . S
C1264 C1265 1.386 . S
C1264 C1266 1.391 . S
C1265 C1264 1.386 . S
C1265 C1269 1.393 . S
C1266 H1258 0.950 . S
C1266 C1264 1.391 . S
C1266 C1267 1.400 . S
C1267 C1266 1.400 . S
C1267 C1268 1.398 . S
C1267 C1273 1.491 . S
C1268 H1259 0.950 . S
C1268 C1267 1.398 . S
C1268 C1269 1.391 . S
C1269 H1257 0.950 . S
C1269 C1265 1.393 . S
C1269 C1268 1.391 . S
C1270 H1260 0.950 . S
C1270 C1271 1.386 . S
C1270 C1272 1.391 . S
C1271 C1270 1.386 . S
C1271 C1275 1.393 . S
C1272 H1261 0.950 . S
C1272 C1270 1.391 . S
C1272 C1273 1.400 . S
C1273 C1267 1.491 . S
C1273 C1272 1.400 . S
C1273 C1274 1.398 . S
C1274 H1262 0.950 . S
C1274 C1273 1.398 . S
C1274 C1275 1.391 . S
C1275 H1263 0.950 . S
C1275 C1271 1.393 . S
C1275 C1274 1.391 . S
H1276 C1284 0.950 . S
H1277 C1289 0.914 1_554 S
H1278 C1286 0.950 . S
H1279 C1288 0.950 . S
H1280 C1290 0.950 . S
H1281 C1292 0.950 . S
H1282 C1294 0.950 . S
H1283 C1295 0.950 . S
C1284 H1276 0.950 . S
C1284 C1285 1.386 . S
C1284 C1286 1.391 . S
C1285 C1284 1.386 . S
C1285 C1289 1.401 . S
C1286 H1278 0.950 . S
C1286 C1284 1.391 . S
C1286 C1287 1.400 . S
C1287 C1286 1.400 . S
C1287 C1288 1.398 . S
C1287 C1293 1.491 . S
C1288 H1279 0.950 . S
C1288 C1287 1.398 . S
C1288 C1289 1.419 . S
C1289 H1277 0.914 1_556 S
C1289 C1285 1.401 . S
C1289 C1288 1.419 . S
C1290 H1280 0.950 . S
C1290 C1291 1.386 . S
C1290 C1292 1.391 . S
C1291 C1290 1.386 . S
C1291 C1295 1.393 . S
C1292 H1281 0.950 . S
C1292 C1290 1.391 . S
C1292 C1293 1.400 . S
C1293 C1287 1.491 . S
C1293 C1292 1.400 . S
C1293 C1294 1.398 . S
C1294 H1282 0.950 . S
C1294 C1293 1.398 . S
C1294 C1295 1.391 . S
C1295 H1283 0.950 . S
C1295 C1291 1.393 . S
C1295 C1294 1.391 . S
H1296 C1304 0.950 . S
H1297 C1309 0.950 . S
H1298 C1306 0.950 . S
H1299 C1308 0.950 . S
H1300 C1310 0.950 . S
H1301 C1312 0.950 . S
H1302 C1314 0.950 . S
H1303 C1315 0.950 . S
C1304 H1296 0.950 . S
C1304 C1305 1.386 . S
C1304 C1306 1.391 . S
C1305 C1304 1.386 . S
C1305 C1309 1.393 . S
C1306 H1298 0.950 . S
C1306 C1304 1.391 . S
C1306 C1307 1.400 . S
C1307 C1306 1.400 . S
C1307 C1308 1.398 . S
C1307 C1313 1.491 . S
C1308 H1299 0.950 . S
C1308 C1307 1.398 . S
C1308 C1309 1.391 . S
C1309 H1297 0.950 . S
C1309 C1305 1.393 . S
C1309 C1308 1.391 . S
C1310 H1300 0.950 . S
C1310 C1311 1.386 . S
C1310 C1312 1.391 . S
C1311 C1310 1.386 . S
C1311 C1315 1.393 . S
C1312 H1301 0.950 . S
C1312 C1310 1.391 . S
C1312 C1313 1.400 . S
C1313 C1307 1.491 . S
C1313 C1312 1.400 . S
C1313 C1314 1.398 . S
C1314 H1302 0.950 . S
C1314 C1313 1.398 . S
C1314 C1315 1.391 . S
C1315 H1303 0.950 . S
C1315 C1311 1.393 . S
C1315 C1314 1.391 . S
H1316 C1324 0.950 . S
H1317 C1329 0.950 . S
H1318 C1326 0.950 . S
H1319 C1328 0.950 . S
H1320 C1330 0.950 . S
H1321 C1332 0.950 . S
H1322 C1334 0.950 . S
H1323 C1335 0.950 . S
C1324 H1316 0.950 . S
C1324 C1325 1.386 . S
C1324 C1326 1.391 . S
C1325 C1324 1.386 . S
C1325 C1329 1.393 . S
C1326 H1318 0.950 . S
C1326 C1324 1.391 . S
C1326 C1327 1.400 . S
C1327 C1326 1.400 . S
C1327 C1328 1.398 . S
C1327 C1333 1.491 . S
C1328 H1319 0.950 . S
C1328 C1327 1.398 . S
C1328 C1329 1.391 . S
C1329 H1317 0.950 . S
C1329 C1325 1.393 . S
C1329 C1328 1.391 . S
C1330 H1320 0.950 . S
C1330 C1331 1.386 . S
C1330 C1332 1.391 1_554 S
C1331 C1330 1.386 . S
C1331 C1335 1.393 . S
C1332 H1321 0.950 . S
C1332 C1330 1.391 1_556 S
C1332 C1333 1.400 . S
C1333 C1327 1.491 . S
C1333 C1332 1.400 . S
C1333 C1334 1.398 . S
C1334 H1322 0.950 . S
C1334 C1333 1.398 . S
C1334 C1335 1.391 1_556 S
C1335 H1323 0.950 . S
C1335 C1331 1.393 . S
C1335 C1334 1.391 1_554 S
H1336 C1344 0.950 . S
H1337 C1349 0.950 . S
H1338 C1346 0.950 . S
H1339 C1348 0.950 . S
H1340 C1350 0.950 . S
H1341 C1352 0.950 . S
H1342 C1354 0.950 . S
H1343 C1355 0.950 . S
C1344 H1336 0.950 . S
C1344 C1345 1.386 . S
C1344 C1346 1.391 . S
C1345 C1344 1.386 . S
C1345 C1349 1.393 . S
C1346 H1338 0.950 . S
C1346 C1344 1.391 . S
C1346 C1347 1.400 . S
C1347 C1346 1.400 . S
C1347 C1348 1.398 . S
C1347 C1353 1.491 . S
C1348 H1339 0.950 . S
C1348 C1347 1.398 . S
C1348 C1349 1.391 . S
C1349 H1337 0.950 . S
C1349 C1345 1.393 . S
C1349 C1348 1.391 . S
C1350 H1340 0.950 . S
C1350 C1351 1.386 . S
C1350 C1352 1.391 . S
C1351 C1350 1.386 . S
C1351 C1355 1.393 . S
C1352 H1341 0.950 . S
C1352 C1350 1.391 . S
C1352 C1353 1.400 . S
C1353 C1347 1.491 . S
C1353 C1352 1.400 . S
C1353 C1354 1.398 . S
C1354 H1342 0.950 . S
C1354 C1353 1.398 . S
C1354 C1355 1.391 . S
C1355 H1343 0.950 . S
C1355 C1351 1.393 . S
C1355 C1354 1.391 . S
H1356 C1364 0.950 . S
H1357 C1369 0.950 . S
H1358 C1366 0.950 . S
H1359 C1368 0.950 . S
H1360 C1370 0.950 . S
H1361 C1372 0.950 . S
H1362 C1374 0.950 . S
H1363 C1375 0.950 . S
C1364 H1356 0.950 . S
C1364 C1365 1.386 . S
C1364 C1366 1.391 . S
C1365 C1364 1.386 . S
C1365 C1369 1.393 . S
C1366 H1358 0.950 . S
C1366 C1364 1.391 . S
C1366 C1367 1.400 . S
C1367 C1366 1.400 . S
C1367 C1368 1.398 . S
C1367 C1373 1.491 . S
C1368 H1359 0.950 . S
C1368 C1367 1.398 . S
C1368 C1369 1.391 . S
C1369 H1357 0.950 . S
C1369 C1365 1.393 . S
C1369 C1368 1.391 . S
C1370 H1360 0.950 . S
C1370 C1371 1.386 . S
C1370 C1372 1.391 1_655 S
C1371 C1370 1.386 . S
C1371 C1375 1.393 . S
C1372 H1361 0.950 . S
C1372 C1370 1.391 1_455 S
C1372 C1373 1.400 . S
C1373 C1367 1.491 . S
C1373 C1372 1.400 . S
C1373 C1374 1.398 1_455 S
C1374 H1362 0.950 . S
C1374 C1373 1.398 1_655 S
C1374 C1375 1.391 . S
C1375 H1363 0.950 . S
C1375 C1371 1.393 . S
C1375 C1374 1.391 . S
H1376 C1384 0.950 . S
H1377 C1389 0.950 . S
H1378 C1386 0.950 . S
H1379 C1388 0.950 . S
H1380 C1390 0.950 . S
H1381 C1392 0.950 . S
H1382 C1394 0.950 . S
H1383 C1395 0.950 . S
C1384 H1376 0.950 . S
C1384 C1385 1.386 . S
C1384 C1386 1.391 . S
C1385 C1384 1.386 . S
C1385 C1389 1.393 . S
C1386 H1378 0.950 . S
C1386 C1384 1.391 . S
C1386 C1387 1.400 . S
C1387 C1386 1.400 . S
C1387 C1388 1.398 . S
C1387 C1393 1.491 . S
C1388 H1379 0.950 . S
C1388 C1387 1.398 . S
C1388 C1389 1.391 . S
C1389 H1377 0.950 . S
C1389 C1385 1.393 . S
C1389 C1388 1.391 . S
C1390 H1380 0.950 . S
C1390 C1391 1.386 . S
C1390 C1392 1.391 . S
C1391 C1390 1.386 . S
C1391 C1395 1.393 . S
C1392 H1381 0.950 . S
C1392 C1390 1.391 . S
C1392 C1393 1.400 . S
C1393 C1387 1.491 . S
C1393 C1392 1.400 . S
C1393 C1394 1.398 . S
C1394 H1382 0.950 . S
C1394 C1393 1.398 . S
C1394 C1395 1.391 . S
C1395 H1383 0.950 . S
C1395 C1391 1.393 . S
C1395 C1394 1.391 . S
H1396 C1404 0.950 . S
H1397 C1409 0.950 . S
H1398 C1406 0.950 . S
H1399 C1408 0.950 . S
H1400 C1410 0.950 . S
H1401 C1412 0.950 . S
H1402 C1414 0.950 . S
H1403 C1415 0.950 . S
C1404 H1396 0.950 . S
C1404 C1405 1.386 . S
C1404 C1406 1.391 . S
C1405 C1404 1.386 . S
C1405 C1409 1.393 . S
C1406 H1398 0.950 . S
C1406 C1404 1.391 . S
C1406 C1407 1.400 . S
C1407 C1406 1.400 . S
C1407 C1408 1.398 . S
C1407 C1413 1.491 . S
C1408 H1399 0.950 . S
C1408 C1407 1.398 . S
C1408 C1409 1.391 . S
C1409 H1397 0.950 . S
C1409 C1405 1.393 . S
C1409 C1408 1.391 . S
C1410 H1400 0.950 . S
C1410 C1411 1.386 . S
C1410 C1412 1.391 . S
C1411 C1410 1.386 . S
C1411 C1415 1.393 . S
C1412 H1401 0.950 . S
C1412 C1410 1.391 . S
C1412 C1413 1.400 . S
C1413 C1407 1.491 . S
C1413 C1412 1.400 . S
C1413 C1414 1.398 . S
C1414 H1402 0.950 . S
C1414 C1413 1.398 . S
C1414 C1415 1.391 . S
C1415 H1403 0.950 . S
C1415 C1411 1.393 . S
C1415 C1414 1.391 . S
H1416 C1424 0.950 . S
H1417 C1429 0.950 . S
H1418 C1426 0.950 . S
H1419 C1428 0.950 . S
H1420 C1430 0.950 . S
H1421 C1432 0.950 . S
H1422 C1434 0.950 . S
H1423 C1435 0.950 . S
C1424 H1416 0.950 . S
C1424 C1425 1.386 . S
C1424 C1426 1.391 . S
C1425 C1424 1.386 . S
C1425 C1429 1.393 . S
C1426 H1418 0.950 . S
C1426 C1424 1.391 . S
C1426 C1427 1.400 . S
C1427 C1426 1.400 . S
C1427 C1428 1.398 . S
C1427 C1433 1.491 . S
C1428 H1419 0.950 . S
C1428 C1427 1.398 . S
C1428 C1429 1.391 . S
C1429 H1417 0.950 . S
C1429 C1425 1.393 . S
C1429 C1428 1.391 . S
C1430 H1420 0.950 . S
C1430 C1431 1.386 . S
C1430 C1432 1.391 . S
C1431 C1430 1.386 . S
C1431 C1435 1.393 . S
C1432 H1421 0.950 . S
C1432 C1430 1.391 . S
C1432 C1433 1.400 . S
C1433 C1427 1.491 . S
C1433 C1432 1.400 . S
C1433 C1434 1.398 . S
C1434 H1422 0.950 . S
C1434 C1433 1.398 . S
C1434 C1435 1.391 . S
C1435 H1423 0.950 . S
C1435 C1431 1.393 . S
C1435 C1434 1.391 . S
H1436 C1444 0.950 . S
H1437 C1449 0.950 . S
H1438 C1446 0.950 . S
H1439 C1448 0.950 . S
H1440 C1450 0.950 . S
H1441 C1452 0.950 . S
H1442 C1454 0.950 1_455 S
H1443 C1455 0.950 . S
C1444 H1436 0.950 . S
C1444 C1445 1.386 . S
C1444 C1446 1.391 1_556 S
C1445 C1444 1.386 . S
C1445 C1449 1.393 1_455 S
C1446 H1438 0.950 . S
C1446 C1444 1.391 1_554 S
C1446 C1447 1.400 1_455 S
C1447 C1446 1.400 1_655 S
C1447 C1448 1.398 1_554 S
C1447 C1453 1.491 . S
C1448 H1439 0.950 . S
C1448 C1447 1.398 1_556 S
C1448 C1449 1.391 . S
C1449 H1437 0.950 . S
C1449 C1445 1.393 1_655 S
C1449 C1448 1.391 . S
C1450 H1440 0.950 . S
C1450 C1451 1.386 . S
C1450 C1452 1.391 . S
C1451 C1450 1.386 . S
C1451 C1455 1.393 . S
C1452 H1441 0.950 . S
C1452 C1450 1.391 . S
C1452 C1453 1.400 . S
C1453 C1447 1.491 . S
C1453 C1452 1.400 . S
C1453 C1454 1.398 . S
C1454 H1442 0.950 1_655 S
C1454 C1453 1.398 . S
C1454 C1455 1.391 . S
C1455 H1443 0.950 . S
C1455 C1451 1.393 . S
C1455 C1454 1.391 . S
H1456 C1464 0.950 . S
H1457 C1469 0.950 . S
H1458 C1466 0.950 . S
H1459 C1468 0.950 . S
H1460 C1470 0.950 . S
H1461 C1472 0.950 . S
H1462 C1474 0.950 . S
H1463 C1475 0.950 . S
C1464 H1456 0.950 . S
C1464 C1465 1.386 . S
C1464 C1466 1.391 . S
C1465 C1464 1.386 . S
C1465 C1469 1.393 . S
C1466 H1458 0.950 . S
C1466 C1464 1.391 . S
C1466 C1467 1.400 . S
C1467 C1466 1.400 . S
C1467 C1468 1.398 . S
C1467 C1473 1.491 . S
C1468 H1459 0.950 . S
C1468 C1467 1.398 . S
C1468 C1469 1.391 . S
C1469 H1457 0.950 . S
C1469 C1465 1.393 . S
C1469 C1468 1.391 . S
C1470 H1460 0.950 . S
C1470 C1471 1.386 . S
C1470 C1472 1.391 . S
C1471 C1470 1.386 . S
C1471 C1475 1.393 . S
C1472 H1461 0.950 . S
C1472 C1470 1.391 . S
C1472 C1473 1.400 . S
C1473 C1467 1.491 . S
C1473 C1472 1.400 . S
C1473 C1474 1.398 . S
C1474 H1462 0.950 . S
C1474 C1473 1.398 . S
C1474 C1475 1.391 . S
C1475 H1463 0.950 . S
C1475 C1471 1.393 . S
C1475 C1474 1.391 . S
H1476 C1484 0.950 . S
H1477 C1489 0.950 . S
H1478 C1486 0.950 . S
H1479 C1488 0.950 . S
H1480 C1490 0.950 . S
H1481 C1492 0.950 1_556 S
H1482 C1494 0.950 . S
H1483 C1495 0.950 . S
C1484 H1476 0.950 . S
C1484 C1485 1.386 1_554 S
C1484 C1486 1.391 . S
C1485 C1484 1.386 1_556 S
C1485 C1489 1.393 . S
C1486 H1478 0.950 . S
C1486 C1484 1.391 . S
C1486 C1487 1.400 . S
C1487 C1486 1.400 . S
C1487 C1488 1.398 1_554 S
C1487 C1493 1.491 . S
C1488 H1479 0.950 . S
C1488 C1487 1.398 1_556 S
C1488 C1489 1.391 . S
C1489 H1477 0.950 . S
C1489 C1485 1.393 . S
C1489 C1488 1.391 . S
C1490 H1480 0.950 . S
C1490 C1491 1.386 . S
C1490 C1492 1.391 . S
C1491 C1490 1.386 . S
C1491 C1495 1.393 . S
C1492 H1481 0.950 1_554 S
C1492 C1490 1.391 . S
C1492 C1493 1.400 . S
C1493 C1487 1.491 . S
C1493 C1492 1.400 . S
C1493 C1494 1.398 . S
C1494 H1482 0.950 . S
C1494 C1493 1.398 . S
C1494 C1495 1.391 . S
C1495 H1483 0.950 . S
C1495 C1491 1.393 . S
C1495 C1494 1.391 . S
H1496 C1504 0.950 . S
H1497 C1509 0.950 . S
H1498 C1506 0.950 . S
H1499 C1508 0.950 . S
H1500 C1510 0.950 . S
H1501 C1512 0.950 . S
H1502 C1514 0.950 . S
H1503 C1515 0.950 . S
C1504 H1496 0.950 . S
C1504 C1505 1.386 . S
C1504 C1506 1.391 . S
C1505 C1504 1.386 . S
C1505 C1509 1.393 . S
C1506 H1498 0.950 . S
C1506 C1504 1.391 . S
C1506 C1507 1.400 . S
C1507 C1506 1.400 . S
C1507 C1508 1.398 . S
C1507 C1513 1.491 . S
C1508 H1499 0.950 . S
C1508 C1507 1.398 . S
C1508 C1509 1.391 . S
C1509 H1497 0.950 . S
C1509 C1505 1.393 . S
C1509 C1508 1.391 . S
C1510 H1500 0.950 . S
C1510 C1511 1.386 . S
C1510 C1512 1.391 . S
C1511 C1510 1.386 . S
C1511 C1515 1.393 . S
C1512 H1501 0.950 . S
C1512 C1510 1.391 . S
C1512 C1513 1.400 . S
C1513 C1507 1.491 . S
C1513 C1512 1.400 . S
C1513 C1514 1.398 . S
C1514 H1502 0.950 . S
C1514 C1513 1.398 . S
C1514 C1515 1.391 . S
C1515 H1503 0.950 . S
C1515 C1511 1.393 . S
C1515 C1514 1.391 . S
H1516 C1524 0.950 . S
H1517 C1529 0.950 . S
H1518 C1526 0.950 . S
H1519 C1528 0.950 . S
H1520 C1530 0.950 . S
H1521 C1532 0.950 . S
H1522 C1534 0.950 . S
H1523 C1535 0.950 . S
C1524 H1516 0.950 . S
C1524 C1525 1.386 . S
C1524 C1526 1.391 . S
C1525 C1524 1.386 . S
C1525 C1529 1.393 . S
C1526 H1518 0.950 . S
C1526 C1524 1.391 . S
C1526 C1527 1.400 . S
C1527 C1526 1.400 . S
C1527 C1528 1.398 . S
C1527 C1533 1.491 . S
C1528 H1519 0.950 . S
C1528 C1527 1.398 . S
C1528 C1529 1.391 . S
C1529 H1517 0.950 . S
C1529 C1525 1.393 . S
C1529 C1528 1.391 . S
C1530 H1520 0.950 . S
C1530 C1531 1.386 . S
C1530 C1532 1.391 . S
C1531 C1530 1.386 . S
C1531 C1535 1.393 . S
C1532 H1521 0.950 . S
C1532 C1530 1.391 . S
C1532 C1533 1.400 . S
C1533 C1527 1.491 . S
C1533 C1532 1.400 . S
C1533 C1534 1.398 . S
C1534 H1522 0.950 . S
C1534 C1533 1.398 . S
C1534 C1535 1.391 . S
C1535 H1523 0.950 . S
C1535 C1531 1.393 . S
C1535 C1534 1.391 . S
H1536 C1544 0.950 . S
H1537 C1549 0.950 . S
H1538 C1546 0.950 . S
H1539 C1548 0.950 . S
H1540 C1550 0.950 . S
H1541 C1552 0.950 . S
H1542 C1554 0.950 . S
H1543 C1555 0.950 . S
C1544 H1536 0.950 . S
C1544 C1545 1.386 . S
C1544 C1546 1.391 . S
C1545 C1544 1.386 . S
C1545 C1549 1.393 . S
C1546 H1538 0.950 . S
C1546 C1544 1.391 . S
C1546 C1547 1.400 . S
C1547 C1546 1.400 . S
C1547 C1548 1.398 . S
C1547 C1553 1.491 . S
C1548 H1539 0.950 . S
C1548 C1547 1.398 . S
C1548 C1549 1.391 . S
C1549 H1537 0.950 . S
C1549 C1545 1.393 . S
C1549 C1548 1.391 . S
C1550 H1540 0.950 . S
C1550 C1551 1.386 . S
C1550 C1552 1.391 . S
C1551 C1550 1.386 . S
C1551 C1555 1.393 . S
C1552 H1541 0.950 . S
C1552 C1550 1.391 . S
C1552 C1553 1.400 . S
C1553 C1547 1.491 . S
C1553 C1552 1.400 . S
C1553 C1554 1.398 . S
C1554 H1542 0.950 . S
C1554 C1553 1.398 . S
C1554 C1555 1.391 . S
C1555 H1543 0.950 . S
C1555 C1551 1.393 . S
C1555 C1554 1.391 . S
H1556 C1564 0.950 . S
H1557 C1569 0.950 . S
H1558 C1566 0.950 . S
H1559 C1568 0.950 . S
H1560 C1570 0.950 . S
H1561 C1572 0.950 . S
H1562 C1574 0.950 . S
H1563 C1575 0.950 . S
C1564 H1556 0.950 . S
C1564 C1565 1.386 . S
C1564 C1566 1.391 . S
C1565 C1564 1.386 . S
C1565 C1569 1.393 . S
C1566 H1558 0.950 . S
C1566 C1564 1.391 . S
C1566 C1567 1.400 . S
C1567 C1566 1.400 . S
C1567 C1568 1.398 . S
C1567 C1573 1.491 . S
C1568 H1559 0.950 . S
C1568 C1567 1.398 . S
C1568 C1569 1.391 . S
C1569 H1557 0.950 . S
C1569 C1565 1.393 . S
C1569 C1568 1.391 . S
C1570 H1560 0.950 . S
C1570 C1571 1.386 . S
C1570 C1572 1.391 . S
C1571 C1570 1.386 . S
C1571 C1575 1.393 . S
C1572 H1561 0.950 . S
C1572 C1570 1.391 . S
C1572 C1573 1.400 1_545 S
C1573 C1567 1.491 . S
C1573 C1572 1.400 1_565 S
C1573 C1574 1.398 . S
C1574 H1562 0.950 . S
C1574 C1573 1.398 . S
C1574 C1575 1.391 1_565 S
C1575 H1563 0.950 . S
C1575 C1571 1.393 . S
C1575 C1574 1.391 1_545 S
H1576 C1584 0.950 . S
H1577 C1589 0.950 . S
H1578 C1586 0.950 . S
H1579 C1588 0.950 . S
H1580 C1590 0.950 . S
H1581 C1592 0.950 . S
H1582 C1594 0.950 . S
H1583 C1595 0.950 . S
C1584 H1576 0.950 . S
C1584 C1585 1.386 . S
C1584 C1586 1.391 . S
C1585 C1584 1.386 . S
C1585 C1589 1.393 . S
C1586 H1578 0.950 . S
C1586 C1584 1.391 . S
C1586 C1587 1.400 . S
C1587 C1586 1.400 . S
C1587 C1588 1.398 . S
C1587 C1593 1.491 . S
C1588 H1579 0.950 . S
C1588 C1587 1.398 . S
C1588 C1589 1.391 . S
C1589 H1577 0.950 . S
C1589 C1585 1.393 . S
C1589 C1588 1.391 . S
C1590 H1580 0.950 . S
C1590 C1591 1.386 . S
C1590 C1592 1.391 . S
C1591 C1590 1.386 . S
C1591 C1595 1.393 . S
C1592 H1581 0.950 . S
C1592 C1590 1.391 . S
C1592 C1593 1.400 . S
C1593 C1587 1.491 . S
C1593 C1592 1.400 . S
C1593 C1594 1.398 . S
C1594 H1582 0.950 . S
C1594 C1593 1.398 . S
C1594 C1595 1.391 . S
C1595 H1583 0.950 . S
C1595 C1591 1.393 . S
C1595 C1594 1.391 . S
H1596 C1604 0.950 . S
H1597 C1609 0.950 . S
H1598 C1606 0.950 . S
H1599 C1608 0.950 . S
H1600 C1610 0.950 . S
H1601 C1612 0.950 . S
H1602 C1614 0.950 1_554 S
H1603 C1615 0.950 . S
C1604 H1596 0.950 . S
C1604 C1605 1.386 . S
C1604 C1606 1.391 1_565 S
C1605 C1604 1.386 . S
C1605 C1609 1.393 1_554 S
C1606 H1598 0.950 . S
C1606 C1604 1.391 1_545 S
C1606 C1607 1.400 1_554 S
C1607 C1606 1.400 1_556 S
C1607 C1608 1.398 1_545 S
C1607 C1613 1.491 . S
C1608 H1599 0.950 . S
C1608 C1607 1.398 1_565 S
C1608 C1609 1.391 . S
C1609 H1597 0.950 . S
C1609 C1605 1.393 1_556 S
C1609 C1608 1.391 . S
C1610 H1600 0.950 . S
C1610 C1611 1.386 . S
C1610 C1612 1.391 . S
C1611 C1610 1.386 . S
C1611 C1615 1.393 . S
C1612 H1601 0.950 . S
C1612 C1610 1.391 . S
C1612 C1613 1.400 . S
C1613 C1607 1.491 . S
C1613 C1612 1.400 . S
C1613 C1614 1.398 . S
C1614 H1602 0.950 1_556 S
C1614 C1613 1.398 . S
C1614 C1615 1.391 . S
C1615 H1603 0.950 . S
C1615 C1611 1.393 . S
C1615 C1614 1.391 . S
H1616 C1624 0.950 . S
H1617 C1629 0.950 . S
H1618 C1626 0.950 . S
H1619 C1628 0.950 . S
H1620 C1630 0.950 . S
H1621 C1632 0.950 . S
H1622 C1634 0.950 . S
H1623 C1635 0.950 . S
C1624 H1616 0.950 . S
C1624 C1625 1.386 . S
C1624 C1626 1.391 . S
C1625 C1624 1.386 . S
C1625 C1629 1.393 . S
C1626 H1618 0.950 . S
C1626 C1624 1.391 . S
C1626 C1627 1.400 . S
C1627 C1626 1.400 . S
C1627 C1628 1.398 . S
C1627 C1633 1.491 . S
C1628 H1619 0.950 . S
C1628 C1627 1.398 . S
C1628 C1629 1.391 . S
C1629 H1617 0.950 . S
C1629 C1625 1.393 . S
C1629 C1628 1.391 . S
C1630 H1620 0.950 . S
C1630 C1631 1.386 . S
C1630 C1632 1.391 . S
C1631 C1630 1.386 . S
C1631 C1635 1.393 . S
C1632 H1621 0.950 . S
C1632 C1630 1.391 . S
C1632 C1633 1.400 . S
C1633 C1627 1.491 . S
C1633 C1632 1.400 . S
C1633 C1634 1.398 . S
C1634 H1622 0.950 . S
C1634 C1633 1.398 . S
C1634 C1635 1.391 . S
C1635 H1623 0.950 . S
C1635 C1631 1.393 . S
C1635 C1634 1.391 . S
H1636 C1644 0.950 . S
H1637 C1649 0.950 . S
H1638 C1646 0.950 . S
H1639 C1648 0.950 . S
H1640 C1650 0.950 . S
H1641 C1652 0.950 . S
H1642 C1654 0.950 . S
H1643 C1655 0.950 . S
C1644 H1636 0.950 . S
C1644 C1645 1.386 . S
C1644 C1646 1.391 . S
C1645 C1644 1.386 . S
C1645 C1649 1.393 . S
C1646 H1638 0.950 . S
C1646 C1644 1.391 . S
C1646 C1647 1.400 . S
C1647 C1646 1.400 . S
C1647 C1648 1.398 . S
C1647 C1653 1.491 . S
C1648 H1639 0.950 . S
C1648 C1647 1.398 . S
C1648 C1649 1.391 . S
C1649 H1637 0.950 . S
C1649 C1645 1.393 . S
C1649 C1648 1.391 . S
C1650 H1640 0.950 . S
C1650 C1651 1.386 . S
C1650 C1652 1.391 . S
C1651 C1650 1.386 . S
C1651 C1655 1.393 . S
C1652 H1641 0.950 . S
C1652 C1650 1.391 . S
C1652 C1653 1.400 . S
C1653 C1647 1.491 . S
C1653 C1652 1.400 . S
C1653 C1654 1.398 . S
C1654 H1642 0.950 . S
C1654 C1653 1.398 . S
C1654 C1655 1.391 . S
C1655 H1643 0.950 . S
C1655 C1651 1.393 . S
C1655 C1654 1.391 . S
H1656 C1664 0.950 . S
H1657 C1669 0.950 . S
H1658 C1666 0.950 . S
H1659 C1668 0.950 1_565 S
H1660 C1670 0.950 . S
H1661 C1672 0.950 . S
H1662 C1674 0.950 . S
H1663 C1675 0.950 . S
C1664 H1656 0.950 . S
C1664 C1665 1.386 . S
C1664 C1666 1.391 . S
C1665 C1664 1.386 . S
C1665 C1669 1.393 . S
C1666 H1658 0.950 . S
C1666 C1664 1.391 . S
C1666 C1667 1.400 . S
C1667 C1666 1.400 . S
C1667 C1668 1.398 . S
C1667 C1673 1.491 . S
C1668 H1659 0.950 1_545 S
C1668 C1667 1.398 . S
C1668 C1669 1.391 . S
C1669 H1657 0.950 . S
C1669 C1665 1.393 . S
C1669 C1668 1.391 . S
C1670 H1660 0.950 . S
C1670 C1671 1.386 . S
C1670 C1672 1.391 . S
C1671 C1670 1.386 . S
C1671 C1675 1.393 1_565 S
C1672 H1661 0.950 . S
C1672 C1670 1.391 . S
C1672 C1673 1.400 1_565 S
C1673 C1667 1.491 . S
C1673 C1672 1.400 1_545 S
C1673 C1674 1.398 . S
C1674 H1662 0.950 . S
C1674 C1673 1.398 . S
C1674 C1675 1.391 . S
C1675 H1663 0.950 . S
C1675 C1671 1.393 1_545 S
C1675 C1674 1.391 . S
H1676 C1684 0.950 . S
H1677 C1689 0.950 . S
H1678 C1686 0.950 . S
H1679 C1688 0.950 . S
H1680 C1690 0.950 . S
H1681 C1692 0.950 . S
H1682 C1694 0.950 . S
H1683 C1695 0.950 . S
C1684 H1676 0.950 . S
C1684 C1685 1.386 . S
C1684 C1686 1.391 . S
C1685 C1684 1.386 . S
C1685 C1689 1.393 . S
C1686 H1678 0.950 . S
C1686 C1684 1.391 . S
C1686 C1687 1.400 . S
C1687 C1686 1.400 . S
C1687 C1688 1.398 . S
C1687 C1693 1.491 . S
C1688 H1679 0.950 . S
C1688 C1687 1.398 . S
C1688 C1689 1.391 . S
C1689 H1677 0.950 . S
C1689 C1685 1.393 . S
C1689 C1688 1.391 . S
C1690 H1680 0.950 . S
C1690 C1691 1.386 . S
C1690 C1692 1.391 . S
C1691 C1690 1.386 . S
C1691 C1695 1.393 . S
C1692 H1681 0.950 . S
C1692 C1690 1.391 . S
C1692 C1693 1.400 . S
C1693 C1687 1.491 . S
C1693 C1692 1.400 . S
C1693 C1694 1.398 . S
C1694 H1682 0.950 . S
C1694 C1693 1.398 . S
C1694 C1695 1.391 . S
C1695 H1683 0.950 . S
C1695 C1691 1.393 . S
C1695 C1694 1.391 . S
H1696 C1704 0.950 . S
H1697 C1709 0.950 . S
H1698 C1706 0.950 . S
H1699 C1708 0.950 . S
H1700 C1710 0.950 . S
H1701 C1712 0.950 . S
H1702 C1714 0.950 1_545 S
H1703 C1715 0.950 . S
C1704 H1696 0.950 . S
C1704 C1705 1.386 . S
C1704 C1706 1.391 1_655 S
C1705 C1704 1.386 . S
C1705 C1709 1.393 1_545 S
C1706 H1698 0.950 . S
C1706 C1704 1.391 1_455 S
C1706 C1707 1.400 1_545 S
C1707 C1706 1.400 1_565 S
C1707 C1708 1.398 1_455 S
C1707 C1713 1.491 . S
C1708 H1699 0.950 . S
C1708 C1707 1.398 1_655 S
C1708 C1709 1.391 . S
C1709 H1697 0.950 . S
C1709 C1705 1.393 1_565 S
C1709 C1708 1.391 . S
C1710 H1700 0.950 . S
C1710 C1711 1.386 . S
C1710 C1712 1.391 . S
C1711 C1710 1.386 . S
C1711 C1715 1.393 . S
C1712 H1701 0.950 . S
C1712 C1710 1.391 . S
C1712 C1713 1.400 . S
C1713 C1707 1.491 . S
C1713 C1712 1.400 . S
C1713 C1714 1.398 . S
C1714 H1702 0.950 1_565 S
C1714 C1713 1.398 . S
C1714 C1715 1.391 . S
C1715 H1703 0.950 . S
C1715 C1711 1.393 . S
C1715 C1714 1.391 . S
H1716 C1724 0.950 . S
H1717 C1729 0.950 . S
H1718 C1726 0.950 . S
H1719 C1728 0.950 . S
H1720 C1730 0.950 . S
H1721 C1732 0.950 . S
H1722 C1734 0.950 . S
H1723 C1735 0.950 . S
C1724 H1716 0.950 . S
C1724 C1725 1.386 . S
C1724 C1726 1.391 . S
C1725 C1724 1.386 . S
C1725 C1729 1.393 . S
C1726 H1718 0.950 . S
C1726 C1724 1.391 . S
C1726 C1727 1.400 . S
C1727 C1726 1.400 . S
C1727 C1728 1.398 . S
C1727 C1733 1.491 . S
C1728 H1719 0.950 . S
C1728 C1727 1.398 . S
C1728 C1729 1.391 . S
C1729 H1717 0.950 . S
C1729 C1725 1.393 . S
C1729 C1728 1.391 . S
C1730 H1720 0.950 . S
C1730 C1731 1.386 . S
C1730 C1732 1.391 . S
C1731 C1730 1.386 . S
C1731 C1735 1.393 . S
C1732 H1721 0.950 . S
C1732 C1730 1.391 . S
C1732 C1733 1.400 . S
C1733 C1727 1.491 . S
C1733 C1732 1.400 . S
C1733 C1734 1.398 . S
C1734 H1722 0.950 . S
C1734 C1733 1.398 . S
C1734 C1735 1.391 . S
C1735 H1723 0.950 . S
C1735 C1731 1.393 . S
C1735 C1734 1.391 . S
H1736 C1744 0.950 . S
H1737 C1749 0.950 . S
H1738 C1746 0.950 . S
H1739 C1748 0.950 1_655 S
H1740 C1750 0.950 . S
H1741 C1752 0.950 . S
H1742 C1754 0.950 . S
H1743 C1755 0.950 . S
C1744 H1736 0.950 . S
C1744 C1745 1.386 . S
C1744 C1746 1.391 1_455 S
C1745 C1744 1.386 . S
C1745 C1749 1.393 . S
C1746 H1738 0.950 . S
C1746 C1744 1.391 1_655 S
C1746 C1747 1.400 . S
C1747 C1746 1.400 . S
C1747 C1748 1.398 1_655 S
C1747 C1753 1.491 . S
C1748 H1739 0.950 1_455 S
C1748 C1747 1.398 1_455 S
C1748 C1749 1.391 . S
C1749 H1737 0.950 . S
C1749 C1745 1.393 . S
C1749 C1748 1.391 . S
C1750 H1740 0.950 . S
C1750 C1751 1.386 . S
C1750 C1752 1.391 . S
C1751 C1750 1.386 . S
C1751 C1755 1.393 . S
C1752 H1741 0.950 . S
C1752 C1750 1.391 . S
C1752 C1753 1.400 . S
C1753 C1747 1.491 . S
C1753 C1752 1.400 . S
C1753 C1754 1.398 . S
C1754 H1742 0.950 . S
C1754 C1753 1.398 . S
C1754 C1755 1.391 . S
C1755 H1743 0.950 . S
C1755 C1751 1.393 . S
C1755 C1754 1.391 . S
H1756 C1764 0.950 . S
H1757 C1769 0.950 . S
H1758 C1766 0.950 . S
H1759 C1768 0.950 . S
H1760 C1770 0.950 . S
H1761 C1772 0.950 . S
H1762 C1774 0.950 . S
H1763 C1775 0.950 . S
C1764 H1756 0.950 . S
C1764 C1765 1.386 . S
C1764 C1766 1.391 . S
C1765 C1764 1.386 . S
C1765 C1769 1.393 . S
C1766 H1758 0.950 . S
C1766 C1764 1.391 . S
C1766 C1767 1.400 . S
C1767 C1766 1.400 . S
C1767 C1768 1.398 . S
C1767 C1773 1.491 . S
C1768 H1759 0.950 . S
C1768 C1767 1.398 . S
C1768 C1769 1.391 . S
C1769 H1757 0.950 . S
C1769 C1765 1.393 . S
C1769 C1768 1.391 . S
C1770 H1760 0.950 . S
C1770 C1771 1.386 . S
C1770 C1772 1.391 . S
C1771 C1770 1.386 . S
C1771 C1775 1.393 . S
C1772 H1761 0.950 . S
C1772 C1770 1.391 . S
C1772 C1773 1.400 . S
C1773 C1767 1.491 . S
C1773 C1772 1.400 . S
C1773 C1774 1.398 . S
C1774 H1762 0.950 . S
C1774 C1773 1.398 . S
C1774 C1775 1.391 . S
C1775 H1763 0.950 . S
C1775 C1771 1.393 . S
C1775 C1774 1.391 . S
H1776 C1784 0.950 . S
H1777 C1789 0.950 . S
H1778 C1786 0.950 . S
H1779 C1788 0.950 . S
H1780 C1790 0.950 . S
H1781 C1792 0.950 . S
H1782 C1794 0.950 . S
H1783 C1795 0.950 . S
C1784 H1776 0.950 . S
C1784 C1785 1.386 . S
C1784 C1786 1.391 . S
C1785 C1784 1.386 . S
C1785 C1789 1.393 . S
C1786 H1778 0.950 . S
C1786 C1784 1.391 . S
C1786 C1787 1.400 . S
C1787 C1786 1.400 . S
C1787 C1788 1.398 . S
C1787 C1793 1.491 1_655 S
C1788 H1779 0.950 . S
C1788 C1787 1.398 . S
C1788 C1789 1.391 . S
C1789 H1777 0.950 . S
C1789 C1785 1.393 . S
C1789 C1788 1.391 . S
C1790 H1780 0.950 . S
C1790 C1791 1.386 . S
C1790 C1792 1.391 . S
C1791 C1790 1.386 . S
C1791 C1795 1.393 . S
C1792 H1781 0.950 . S
C1792 C1790 1.391 . S
C1792 C1793 1.400 . S
C1793 C1787 1.491 1_455 S
C1793 C1792 1.400 . S
C1793 C1794 1.398 . S
C1794 H1782 0.950 . S
C1794 C1793 1.398 . S
C1794 C1795 1.391 . S
C1795 H1783 0.950 . S
C1795 C1791 1.393 . S
C1795 C1794 1.391 . S
H1796 C1804 0.950 . S
H1797 C1809 0.950 . S
H1798 C1806 0.950 . S
H1799 C1808 0.950 . S
H1800 C1810 0.950 . S
H1801 C1812 0.950 . S
H1802 C1814 0.950 . S
H1803 C1815 0.950 . S
C1804 H1796 0.950 . S
C1804 C1805 1.386 . S
C1804 C1806 1.391 . S
C1805 C1804 1.386 . S
C1805 C1809 1.393 . S
C1806 H1798 0.950 . S
C1806 C1804 1.391 . S
C1806 C1807 1.400 . S
C1807 C1806 1.400 . S
C1807 C1808 1.398 . S
C1807 C1813 1.491 1_554 S
C1808 H1799 0.950 . S
C1808 C1807 1.398 . S
C1808 C1809 1.391 . S
C1809 H1797 0.950 . S
C1809 C1805 1.393 . S
C1809 C1808 1.391 . S
C1810 H1800 0.950 . S
C1810 C1811 1.386 . S
C1810 C1812 1.391 . S
C1811 C1810 1.386 . S
C1811 C1815 1.393 . S
C1812 H1801 0.950 . S
C1812 C1810 1.391 . S
C1812 C1813 1.400 . S
C1813 C1807 1.491 1_556 S
C1813 C1812 1.400 . S
C1813 C1814 1.398 . S
C1814 H1802 0.950 . S
C1814 C1813 1.398 . S
C1814 C1815 1.391 . S
C1815 H1803 0.950 . S
C1815 C1811 1.393 . S
C1815 C1814 1.391 . S
H1816 C1824 0.950 . S
H1817 C1829 0.950 . S
H1818 C1826 0.950 . S
H1819 C1828 0.950 . S
H1820 C1830 0.950 . S
H1821 C1832 0.950 . S
H1822 C1834 0.950 . S
H1823 C1835 0.950 . S
C1824 H1816 0.950 . S
C1824 C1825 1.386 . S
C1824 C1826 1.391 . S
C1825 C1824 1.386 . S
C1825 C1829 1.393 . S
C1826 H1818 0.950 . S
C1826 C1824 1.391 . S
C1826 C1827 1.400 . S
C1827 C1826 1.400 . S
C1827 C1828 1.398 . S
C1827 C1833 1.491 . S
C1828 H1819 0.950 . S
C1828 C1827 1.398 . S
C1828 C1829 1.391 . S
C1829 H1817 0.950 . S
C1829 C1825 1.393 . S
C1829 C1828 1.391 . S
C1830 H1820 0.950 . S
C1830 C1831 1.386 . S
C1830 C1832 1.391 . S
C1831 C1830 1.386 . S
C1831 C1835 1.393 . S
C1832 H1821 0.950 . S
C1832 C1830 1.391 . S
C1832 C1833 1.400 . S
C1833 C1827 1.491 . S
C1833 C1832 1.400 . S
C1833 C1834 1.398 . S
C1834 H1822 0.950 . S
C1834 C1833 1.398 . S
C1834 C1835 1.391 . S
C1835 H1823 0.950 . S
C1835 C1831 1.393 . S
C1835 C1834 1.391 . S
H1836 C1844 0.950 . S
H1837 C1849 0.950 . S
H1838 C1846 0.950 . S
H1839 C1848 0.950 . S
H1840 C1850 0.950 . S
H1841 C1852 0.950 . S
H1842 C1854 0.950 . S
H1843 C1855 0.950 . S
C1844 H1836 0.950 . S
C1844 C1845 1.386 . S
C1844 C1846 1.391 . S
C1845 C1844 1.386 . S
C1845 C1849 1.393 . S
C1846 H1838 0.950 . S
C1846 C1844 1.391 . S
C1846 C1847 1.400 . S
C1847 C1846 1.400 . S
C1847 C1848 1.398 . S
C1847 C1853 1.491 . S
C1848 H1839 0.950 . S
C1848 C1847 1.398 . S
C1848 C1849 1.391 . S
C1849 H1837 0.950 . S
C1849 C1845 1.393 . S
C1849 C1848 1.391 . S
C1850 H1840 0.950 . S
C1850 C1851 1.386 . S
C1850 C1852 1.391 . S
C1851 C1850 1.386 . S
C1851 C1855 1.393 . S
C1852 H1841 0.950 . S
C1852 C1850 1.391 . S
C1852 C1853 1.400 . S
C1853 C1847 1.491 . S
C1853 C1852 1.400 . S
C1853 C1854 1.398 . S
C1854 H1842 0.950 . S
C1854 C1853 1.398 . S
C1854 C1855 1.391 . S
C1855 H1843 0.950 . S
C1855 C1851 1.393 . S
C1855 C1854 1.391 . S
H1856 C1864 0.950 . S
H1857 C1869 0.950 . S
H1858 C1866 0.950 . S
H1859 C1868 0.950 . S
H1860 C1870 0.950 . S
H1861 C1872 0.950 . S
H1862 C1874 0.950 . S
H1863 C1875 0.950 . S
C1864 H1856 0.950 . S
C1864 C1865 1.386 . S
C1864 C1866 1.391 . S
C1865 C1864 1.386 . S
C1865 C1869 1.393 . S
C1866 H1858 0.950 . S
C1866 C1864 1.391 . S
C1866 C1867 1.400 . S
C1867 C1866 1.400 . S
C1867 C1868 1.398 . S
C1867 C1873 1.491 . S
C1868 H1859 0.950 . S
C1868 C1867 1.398 . S
C1868 C1869 1.391 . S
C1869 H1857 0.950 . S
C1869 C1865 1.393 . S
C1869 C1868 1.391 . S
C1870 H1860 0.950 . S
C1870 C1871 1.386 . S
C1870 C1872 1.391 . S
C1871 C1870 1.386 . S
C1871 C1875 1.393 . S
C1872 H1861 0.950 . S
C1872 C1870 1.391 . S
C1872 C1873 1.400 . S
C1873 C1867 1.491 . S
C1873 C1872 1.400 . S
C1873 C1874 1.398 . S
C1874 H1862 0.950 . S
C1874 C1873 1.398 . S
C1874 C1875 1.391 . S
C1875 H1863 0.950 . S
C1875 C1871 1.393 . S
C1875 C1874 1.391 . S
H1876 C1884 0.950 . S
H1877 C1889 0.950 . S
H1878 C1886 0.950 . S
H1879 C1888 0.950 . S
H1880 C1890 0.950 . S
H1881 C1892 0.950 . S
H1882 C1894 0.950 . S
H1883 C1895 0.950 . S
C1884 H1876 0.950 . S
C1884 C1885 1.386 . S
C1884 C1886 1.391 . S
C1885 C1884 1.386 . S
C1885 C1889 1.393 . S
C1886 H1878 0.950 . S
C1886 C1884 1.391 . S
C1886 C1887 1.400 . S
C1887 C1886 1.400 . S
C1887 C1888 1.398 . S
C1887 C1893 1.491 . S
C1888 H1879 0.950 . S
C1888 C1887 1.398 . S
C1888 C1889 1.391 . S
C1889 H1877 0.950 . S
C1889 C1885 1.393 . S
C1889 C1888 1.391 . S
C1890 H1880 0.950 . S
C1890 C1891 1.386 . S
C1890 C1892 1.391 . S
C1891 C1890 1.386 . S
C1891 C1895 1.393 . S
C1892 H1881 0.950 . S
C1892 C1890 1.391 . S
C1892 C1893 1.400 . S
C1893 C1887 1.491 . S
C1893 C1892 1.400 . S
C1893 C1894 1.398 . S
C1894 H1882 0.950 . S
C1894 C1893 1.398 . S
C1894 C1895 1.391 . S
C1895 H1883 0.950 . S
C1895 C1891 1.393 . S
C1895 C1894 1.391 . S
H1896 C1904 0.950 . S
H1897 C1909 0.950 . S
H1898 C1906 0.950 . S
H1899 C1908 0.950 . S
H1900 C1910 0.950 . S
H1901 C1912 0.950 1_655 S
H1902 C1914 0.950 . S
H1903 C1915 0.950 . S
C1904 H1896 0.950 . S
C1904 C1905 1.386 . S
C1904 C1906 1.391 1_655 S
C1905 C1904 1.386 . S
C1905 C1909 1.393 . S
C1906 H1898 0.950 . S
C1906 C1904 1.391 1_455 S
C1906 C1907 1.400 1_455 S
C1907 C1906 1.400 1_655 S
C1907 C1908 1.398 . S
C1907 C1913 1.491 1_655 S
C1908 H1899 0.950 . S
C1908 C1907 1.398 . S
C1908 C1909 1.391 . S
C1909 H1897 0.950 . S
C1909 C1905 1.393 . S
C1909 C1908 1.391 . S
C1910 H1900 0.950 . S
C1910 C1911 1.386 . S
C1910 C1912 1.391 . S
C1911 C1910 1.386 . S
C1911 C1915 1.393 . S
C1912 H1901 0.950 1_455 S
C1912 C1910 1.391 . S
C1912 C1913 1.400 . S
C1913 C1907 1.491 1_455 S
C1913 C1912 1.400 . S
C1913 C1914 1.398 . S
C1914 H1902 0.950 . S
C1914 C1913 1.398 . S
C1914 C1915 1.391 . S
C1915 H1903 0.950 . S
C1915 C1911 1.393 . S
C1915 C1914 1.391 . S
H1916 C1924 0.950 . S
H1917 C1929 0.950 . S
H1918 C1926 0.950 . S
H1919 C1928 0.950 1_556 S
H1920 C1930 0.950 . S
H1921 C1932 0.950 . S
H1922 C1934 0.950 1_554 S
H1923 C1935 0.950 . S
C1924 H1916 0.950 . S
C1924 C1925 1.386 . S
C1924 C1926 1.391 . S
C1925 C1924 1.386 . S
C1925 C1929 1.393 . S
C1926 H1918 0.950 . S
C1926 C1924 1.391 . S
C1926 C1927 1.400 . S
C1927 C1926 1.400 . S
C1927 C1928 1.398 . S
C1927 C1933 1.491 1_554 S
C1928 H1919 0.950 1_554 S
C1928 C1927 1.398 . S
C1928 C1929 1.391 . S
C1929 H1917 0.950 . S
C1929 C1925 1.393 . S
C1929 C1928 1.391 . S
C1930 H1920 0.950 . S
C1930 C1931 1.386 . S
C1930 C1932 1.391 . S
C1931 C1930 1.386 . S
C1931 C1935 1.393 . S
C1932 H1921 0.950 . S
C1932 C1930 1.391 . S
C1932 C1933 1.400 . S
C1933 C1927 1.491 1_556 S
C1933 C1932 1.400 . S
C1933 C1934 1.398 . S
C1934 H1922 0.950 1_556 S
C1934 C1933 1.398 . S
C1934 C1935 1.391 . S
C1935 H1923 0.950 . S
C1935 C1931 1.393 . S
C1935 C1934 1.391 . S
H1936 C1944 0.950 . S
H1937 C1949 0.950 . S
H1938 C1946 0.950 1_545 S
H1939 C1948 0.950 . S
H1940 C1950 0.950 . S
H1941 C1952 0.928 1_565 S
H1942 C1954 0.950 . S
H1943 C1955 0.950 . S
C1944 H1936 0.950 . S
C1944 C1945 1.386 . S
C1944 C1946 1.391 . S
C1945 C1944 1.386 . S
C1945 C1949 1.393 . S
C1946 H1938 0.950 1_565 S
C1946 C1944 1.391 . S
C1946 C1947 1.400 . S
C1947 C1946 1.400 . S
C1947 C1948 1.398 . S
C1947 C1953 1.491 1_565 S
C1948 H1939 0.950 . S
C1948 C1947 1.398 . S
C1948 C1949 1.391 . S
C1949 H1937 0.950 . S
C1949 C1945 1.393 . S
C1949 C1948 1.391 . S
C1950 H1940 0.950 . S
C1950 C1951 1.386 . S
C1950 C1952 1.407 . S
C1951 C1950 1.386 . S
C1951 C1955 1.393 . S
C1952 H1941 0.928 1_545 S
C1952 C1950 1.407 . S
C1952 C1953 1.406 . S
C1953 C1947 1.491 1_545 S
C1953 C1952 1.406 . S
C1953 C1954 1.398 . S
C1954 H1942 0.950 . S
C1954 C1953 1.398 . S
C1954 C1955 1.391 . S
C1955 H1943 0.950 . S
C1955 C1951 1.393 . S
C1955 C1954 1.391 . S
H1956 C1964 0.950 . S
H1957 C1969 0.950 . S
H1958 C1966 0.950 . S
H1959 C1968 0.950 . S
H1960 C1970 0.950 . S
H1961 C1972 0.950 . S
H1962 C1974 0.950 . S
H1963 C1975 0.950 . S
C1964 H1956 0.950 . S
C1964 C1965 1.386 . S
C1964 C1966 1.391 . S
C1965 C1964 1.386 . S
C1965 C1969 1.393 . S
C1966 H1958 0.950 . S
C1966 C1964 1.391 . S
C1966 C1967 1.400 . S
C1967 C1966 1.400 . S
C1967 C1968 1.398 . S
C1967 C1973 1.491 . S
C1968 H1959 0.950 . S
C1968 C1967 1.398 . S
C1968 C1969 1.391 . S
C1969 H1957 0.950 . S
C1969 C1965 1.393 . S
C1969 C1968 1.391 . S
C1970 H1960 0.950 . S
C1970 C1971 1.386 . S
C1970 C1972 1.391 . S
C1971 C1970 1.386 . S
C1971 C1975 1.393 . S
C1972 H1961 0.950 . S
C1972 C1970 1.391 . S
C1972 C1973 1.400 . S
C1973 C1967 1.491 . S
C1973 C1972 1.400 . S
C1973 C1974 1.398 . S
C1974 H1962 0.950 . S
C1974 C1973 1.398 . S
C1974 C1975 1.391 . S
C1975 H1963 0.950 . S
C1975 C1971 1.393 . S
C1975 C1974 1.391 . S
H1976 C1984 0.950 . S
H1977 C1989 0.950 . S
H1978 C1986 0.950 . S
H1979 C1988 0.950 . S
H1980 C1990 0.950 . S
H1981 C1992 0.950 . S
H1982 C1994 0.950 . S
H1983 C1995 0.950 . S
C1984 H1976 0.950 . S
C1984 C1985 1.386 . S
C1984 C1986 1.391 . S
C1985 C1984 1.386 . S
C1985 C1989 1.393 . S
C1986 H1978 0.950 . S
C1986 C1984 1.391 . S
C1986 C1987 1.400 . S
C1987 C1986 1.400 . S
C1987 C1988 1.398 . S
C1987 C1993 1.491 1_545 S
C1988 H1979 0.950 . S
C1988 C1987 1.398 . S
C1988 C1989 1.391 . S
C1989 H1977 0.950 . S
C1989 C1985 1.393 . S
C1989 C1988 1.391 . S
C1990 H1980 0.950 . S
C1990 C1991 1.386 . S
C1990 C1992 1.391 . S
C1991 C1990 1.386 . S
C1991 C1995 1.393 . S
C1992 H1981 0.950 . S
C1992 C1990 1.391 . S
C1992 C1993 1.400 . S
C1993 C1987 1.491 1_565 S
C1993 C1992 1.400 . S
C1993 C1994 1.398 . S
C1994 H1982 0.950 . S
C1994 C1993 1.398 . S
C1994 C1995 1.391 . S
C1995 H1983 0.950 . S
C1995 C1991 1.393 . S
C1995 C1994 1.391 . S
H1996 C2004 0.950 . S
H1997 C2009 0.950 . S
H1998 C2006 0.950 . S
H1999 C2008 0.950 . S
H2000 C2010 0.950 . S
H2001 C2012 0.950 . S
H2002 C2014 0.950 . S
H2003 C2015 0.950 . S
C2004 H1996 0.950 . S
C2004 C2005 1.386 . S
C2004 C2006 1.391 . S
C2005 C2004 1.386 . S
C2005 C2009 1.393 . S
C2006 H1998 0.950 . S
C2006 C2004 1.391 . S
C2006 C2007 1.400 . S
C2007 C2006 1.400 . S
C2007 C2008 1.398 . S
C2007 C2013 1.491 . S
C2008 H1999 0.950 . S
C2008 C2007 1.398 . S
C2008 C2009 1.391 . S
C2009 H1997 0.950 . S
C2009 C2005 1.393 . S
C2009 C2008 1.391 . S
C2010 H2000 0.950 . S
C2010 C2011 1.386 . S
C2010 C2012 1.391 . S
C2011 C2010 1.386 . S
C2011 C2015 1.393 . S
C2012 H2001 0.950 . S
C2012 C2010 1.391 . S
C2012 C2013 1.400 . S
C2013 C2007 1.491 . S
C2013 C2012 1.400 . S
C2013 C2014 1.398 . S
C2014 H2002 0.950 . S
C2014 C2013 1.398 . S
C2014 C2015 1.391 . S
C2015 H2003 0.950 . S
C2015 C2011 1.393 . S
C2015 C2014 1.391 . S
C825 C451 1.522 . S
C831 C20 1.622 . S
C845 C54 1.637 . S
C851 C485 1.486 . S
C865 C88 1.621 . S
C871 C519 1.523 . S
C885 C417 1.523 . S
C891 C122 1.622 . S
C905 C383 1.488 . S
C911 C156 1.637 . S
C925 C281 1.491 1_565 S
C931 C190 1.635 . S
C945 C224 1.622 . S
C951 C315 1.522 . S
C965 C349 1.494 1_545 S
C971 C258 1.634 . S
C985 C292 1.629 . S
C991 C43 1.508 . S
C1005 C326 1.628 . S
C1011 C77 1.510 . S
C1025 C360 1.638 . S
C1031 C111 1.486 . S
C1045 C9 1.504 1_655 S
C1051 C394 1.629 . S
C1065 C247 1.521 . S
C1071 C428 1.623 . S
C1085 C462 1.621 . S
C1091 C145 1.523 . S
C1105 C496 1.635 . S
C1111 C179 1.491 . S
C1125 C213 1.492 1_455 S
C1131 C530 1.636 . S
C1145 C757 1.493 . S
C1151 C564 1.635 . S
C1165 C598 1.622 . S
C1171 C621 1.523 . S
C1185 C632 1.637 . S
C1191 C655 1.488 . S
C1205 C689 1.496 . S
C1211 C666 1.633 . S
C1225 C700 1.637 . S
C1231 C587 1.488 1_554 S
C1245 C791 1.486 . S
C1251 C734 1.638 . S
C1265 C768 1.637 . S
C1271 C723 1.489 . S
C1285 C553 1.521 1_556 S
C1291 C802 1.622 . S
C1305 C549 1.213 . S
C1311 C33 1.207 . S
C1325 C787 1.217 . S
C1331 C67 1.221 . S
C1345 C101 1.212 . S
C1351 C719 1.217 . S
C1365 C753 1.208 . S
C1371 C135 1.215 . S
C1385 C583 1.220 . S
C1391 C169 1.217 . S
C1405 C617 1.206 . S
C1411 C203 1.202 . S
C1425 C651 1.201 . S
C1431 C237 1.200 . S
C1445 C271 1.208 . S
C1451 C685 1.202 . S
C1465 C305 1.208 . S
C1471 C5 1.213 . S
C1485 C339 1.210 . S
C1491 C39 1.215 . S
C1505 C373 1.220 . S
C1511 C73 1.214 . S
C1525 C407 1.212 . S
C1531 C107 1.205 . S
C1545 C441 1.205 . S
C1551 C141 1.200 . S
C1565 C175 1.201 . S
C1571 C475 1.208 . S
C1585 C209 1.205 . S
C1591 C509 1.212 . S
C1605 C543 1.206 . S
C1611 C243 1.200 . S
C1625 C277 1.200 . S
C1631 C577 1.200 . S
C1645 C413 1.200 . S
C1651 C611 1.200 . S
C1665 C447 1.218 . S
C1671 C645 1.214 . S
C1685 C481 1.203 . S
C1691 C679 1.210 . S
C1705 C713 1.202 . S
C1711 C515 1.199 . S
C1725 C747 1.209 . S
C1731 C345 1.202 . S
C1745 C781 1.217 . S
C1751 C379 1.210 . S
C1765 C311 1.219 . S
C1771 C815 1.214 . S
C1785 C682 1.188 . S
C1791 C2 1.176 . S
C1805 C36 1.188 . S
C1811 C580 1.177 . S
C1825 C614 1.176 . S
C1831 C70 1.188 . S
C1845 C104 1.180 . S
C1851 C648 1.182 . S
C1865 C784 1.187 . S
C1871 C138 1.176 . S
C1885 C716 1.176 . S
C1891 C172 1.187 . S
C1905 C206 1.179 . S
C1911 C750 1.184 . S
C1925 C546 1.188 . S
C1931 C240 1.176 . S
C1945 C512 1.185 . S
C1951 C274 1.182 . S
C1965 C410 1.187 . S
C1971 C308 1.178 . S
C1985 C444 1.176 . S
C1991 C342 1.188 . S
C2005 C478 1.176 . S
C2011 C376 1.188 . S
