# Generated by pormake.
# Topology rob, (6)-cn, num edge types: 1
# Building blocks:
#     Node 0, Type 0, BuildingBlock: PAMTOO_clean_sbu_0, # of connection points: 6
#     Node 1, Type 0, BuildingBlock: PAMTOO_clean_sbu_0, # of connection points: 6
#     Node 2, Type 0, BuildingBlock: PAMTOO_clean_sbu_0, # of connection points: 6
#     Node 3, Type 0, BuildingBlock: PAMTOO_clean_sbu_0, # of connection points: 6
#     Edge 4, Type (0, 0), BuildingBlock: MIFKUJ_clean_linker_0, # of connection points: 2
#     Edge 5, Type (0, 0), BuildingBlock: MIFKUJ_clean_linker_0, # of connection points: 2
#     Edge 6, Type (0, 0), BuildingBlock: MIFKUJ_clean_linker_0, # of connection points: 2
#     Edge 7, Type (0, 0), BuildingBlock: MIFKUJ_clean_linker_0, # of connection points: 2
#     Edge 8, Type (0, 0), BuildingBlock: MIFKUJ_clean_linker_0, # of connection points: 2
#     Edge 9, Type (0, 0), BuildingBlock: MIFKUJ_clean_linker_0, # of connection points: 2
#     Edge 10, Type (0, 0), BuildingBlock: MIFKUJ_clean_linker_0, # of connection points: 2
#     Edge 11, Type (0, 0), BuildingBlock: MIFKUJ_clean_linker_0, # of connection points: 2
#     Edge 12, Type (0, 0), BuildingBlock: MIFKUJ_clean_linker_0, # of connection points: 2
#     Edge 13, Type (0, 0), BuildingBlock: MIFKUJ_clean_linker_0, # of connection points: 2
#     Edge 14, Type (0, 0), BuildingBlock: MIFKUJ_clean_linker_0, # of connection points: 2
#     Edge 15, Type (0, 0), BuildingBlock: MIFKUJ_clean_linker_0, # of connection points: 2
# Relax obj value: 0.074
# Max RMSD: 0.184
# Mean RMSD: 0.184
data_MOF--net-rob--node1-PAMTOO_clean_sbu_0--edge1-MIFKUJ_clean_linker_0
_symmetry_space_group_name_H-M    P1
_symmetry_Int_Tables_number       1
_symmetry_cell_setting            triclinic
loop_
_symmetry_equiv_pos_as_xyz
'x, y, z'
_cell_length_a     19.589222
_cell_length_b     34.007863
_cell_length_c     44.345171
_cell_angle_alpha  101.41556
_cell_angle_beta   90.033459
_cell_angle_gamma 90.233502
loop_
_atom_site_label
_atom_site_type_symbol
_atom_site_fract_x
_atom_site_fract_y
_atom_site_fract_z
_atom_type_partial_charge
Dy0 Dy 0.29511 0.21209 0.98213 0.0
Dy1 Dy 0.17533 0.26872 0.02273 0.0
C2 C 0.30609 0.30692 0.99698 0.0
O3 O 0.33523 0.22462 0.03042 0.0
O4 O 0.23514 0.24313 0.05685 0.0
O5 O 0.39963 0.20102 0.96768 0.0
O6 O 0.31958 0.16021 0.94712 0.0
O7 O 0.13685 0.20577 0.01112 0.0
O8 O 0.23791 0.17128 1.0062 0.0
O9 O 0.16351 0.27773 0.9744 0.0
O10 O 0.20565 0.21639 0.95168 0.0
O11 O 0.06882 0.28106 0.03347 0.0
O12 O 0.14757 0.31884 0.05857 0.0
C13 C 0.2998 0.23289 0.05611 0.0
O14 O 0.31356 0.27437 0.97592 0.0
O15 O 0.26402 0.30874 0.02016 0.0
C16 C 0.40545 0.17556 0.91439 0.0
C17 C 0.44402 0.18299 0.85451 0.0
C18 C 0.41656 0.21588 0.8751 0.0
C19 C 0.39712 0.21213 0.90469 0.0
C20 C 0.43258 0.1426 0.89395 0.0
C21 C 0.45161 0.14624 0.86418 0.0
C22 C 0.3829 0.1715 0.94526 0.0
C23 C 0.17192 0.17293 0.01097 0.0
C24 C 0.1716 0.24907 0.95005 0.0
C25 C 0.0534 0.30441 0.08727 0.0
C26 C 0.00989 0.29588 0.14633 0.0
C27 C 0.00934 0.26274 0.12171 0.0
C28 C 0.03141 0.26688 0.09247 0.0
C29 C 0.05244 0.33765 0.11171 0.0
C30 C 0.03122 0.33341 0.14099 0.0
C31 C 0.08327 0.30877 0.05752 0.0
H32 H 0.40918 0.24438 0.86817 0.0
H33 H 0.37518 0.23778 0.91995 0.0
H34 H 0.4388 0.11407 0.90096 0.0
H35 H 0.47304 0.12047 0.84886 0.0
H36 H 0.99381 0.2334 0.1253 0.0
H37 H 0.03268 0.24054 0.07418 0.0
H38 H 0.06969 0.36677 0.1083 0.0
H39 H 0.03167 0.35949 0.15954 0.0
Dy40 Dy 0.8217 0.71373 0.99398 0.0
Dy41 Dy 0.68821 0.75913 0.03152 0.0
C42 C 0.81844 0.80721 0.01704 0.0
O43 O 0.84975 0.72348 0.04395 0.0
O44 O 0.74123 0.72712 0.06407 0.0
O45 O 0.92897 0.7121 0.98247 0.0
O46 O 0.86109 0.66502 0.9597 0.0
O47 O 0.65754 0.69734 0.00856 0.0
O48 O 0.76063 0.66601 0.00885 0.0
O49 O 0.68327 0.77514 0.98495 0.0
O50 O 0.74152 0.72009 0.95949 0.0
O51 O 0.58026 0.76067 0.04196 0.0
O52 O 0.64673 0.80792 0.06515 0.0
C53 C 0.80741 0.72271 0.06689 0.0
O54 O 0.83116 0.77845 0.99348 0.0
O55 O 0.77442 0.8027 0.03829 0.0
C56 C 0.94214 0.68914 0.92906 0.0
C57 C 0.97298 0.70025 0.86909 0.0
C58 C 0.93656 0.72957 0.88963 0.0
C59 C 0.92104 0.72397 0.91923 0.0
C60 C 0.97895 0.65996 0.90889 0.0
C61 C 0.9943 0.66545 0.87916 0.0
C62 C 0.92077 0.68204 0.95935 0.0
C63 C 0.69386 0.66477 0.00746 0.0
C64 C 0.70165 0.751 0.95929 0.0
C65 C 0.55898 0.78735 0.09445 0.0
C66 C 0.51605 0.78238 0.15432 0.0
C67 C 0.55143 0.7504 0.13601 0.0
C68 C 0.57302 0.75295 0.10639 0.0
C69 C 0.52274 0.81899 0.11238 0.0
C70 C 0.50149 0.81658 0.14208 0.0
C71 C 0.58633 0.79169 0.06438 0.0
H72 H 0.92015 0.75697 0.88289 0.0
H73 H 0.89175 0.74668 0.93436 0.0
H74 H 0.99469 0.63262 0.91592 0.0
H75 H 0.02152 0.64197 0.86384 0.0
H76 H 0.56419 0.72389 0.1449 0.0
H77 H 0.60182 0.7284 0.09305 0.0
H78 H 0.51191 0.84587 0.10362 0.0
H79 H 0.47379 0.84153 0.15551 0.0
Dy80 Dy 0.32556 0.77769 0.53638 0.0
Dy81 Dy 0.19863 0.72659 0.49744 0.0
C82 C 0.31886 0.68162 0.52372 0.0
O83 O 0.34107 0.78391 0.48751 0.0
O84 O 0.2868 0.72549 0.46538 0.0
O85 O 0.4332 0.78802 0.54589 0.0
O86 O 0.35796 0.82627 0.57264 0.0
O87 O 0.19498 0.78832 0.48811 0.0
O88 O 0.24101 0.82059 0.53361 0.0
O89 O 0.16158 0.74556 0.54602 0.0
O90 O 0.26583 0.75098 0.5701 0.0
O91 O 0.09247 0.72245 0.48396 0.0
O92 O 0.16231 0.6748 0.46491 0.0
C93 C 0.32816 0.7554 0.46347 0.0
O94 O 0.35734 0.71356 0.52453 0.0
O95 O 0.25251 0.68251 0.51981 0.0
C96 C 0.45511 0.81106 0.59881 0.0
C97 C 0.50972 0.80452 0.65652 0.0
C98 C 0.47065 0.77307 0.6393 0.0
C99 C 0.44342 0.77638 0.61075 0.0
C100 C 0.49496 0.84218 0.61556 0.0
C101 C 0.52207 0.83897 0.64417 0.0
C102 C 0.42203 0.81606 0.57005 0.0
C103 C 0.20338 0.8208 0.50919 0.0
C104 C 0.19911 0.74762 0.57091 0.0
C105 C 0.07929 0.69226 0.43175 0.0
C106 C 0.0382 0.69563 0.37124 0.0
C107 C 0.08321 0.72462 0.38756 0.0
C108 C 0.1037 0.72286 0.41746 0.0
C109 C 0.03459 0.66326 0.41569 0.0
C110 C 0.01422 0.66489 0.38569 0.0
C111 C 0.1019 0.69011 0.46302 0.0
H112 H 0.45936 0.7464 0.6483 0.0
H113 H 0.41205 0.75222 0.59826 0.0
H114 H 0.50417 0.86924 0.60674 0.0
H115 H 0.5525 0.86352 0.6567 0.0
H116 H 0.10202 0.749 0.37739 0.0
H117 H 0.13862 0.74543 0.42948 0.0
H118 H 0.01578 0.63923 0.42628 0.0
H119 H 0.98039 0.64172 0.37369 0.0
Dy120 Dy 0.80326 0.26547 0.52197 0.0
Dy121 Dy 0.6768 0.21417 0.48281 0.0
C122 C 0.80859 0.17214 0.50237 0.0
O123 O 0.83395 0.25532 0.47219 0.0
O124 O 0.72672 0.24816 0.451 0.0
O125 O 0.91063 0.27114 0.53315 0.0
O126 O 0.83917 0.31549 0.55628 0.0
O127 O 0.63823 0.27597 0.50109 0.0
O128 O 0.73952 0.31082 0.50556 0.0
O129 O 0.66538 0.20223 0.53035 0.0
O130 O 0.7212 0.25885 0.55565 0.0
O131 O 0.5706 0.20466 0.46982 0.0
O132 O 0.64735 0.16338 0.44769 0.0
C133 C 0.7924 0.2544 0.4487 0.0
O134 O 0.81451 0.20182 0.52594 0.0
O135 O 0.76897 0.17522 0.47918 0.0
C136 C 0.9281 0.29685 0.58591 0.0
C137 C 0.97438 0.28957 0.64483 0.0
C138 C 0.93353 0.25942 0.62718 0.0
C139 C 0.91037 0.26311 0.59807 0.0
C140 C 0.96926 0.32685 0.60321 0.0
C141 C 0.9922 0.32329 0.63246 0.0
C142 C 0.90111 0.30148 0.55587 0.0
C143 C 0.67267 0.30974 0.50382 0.0
C144 C 0.68019 0.22814 0.55574 0.0
C145 C 0.56095 0.18026 0.41622 0.0
C146 C 0.5273 0.18774 0.35572 0.0
C147 C 0.55043 0.22117 0.37729 0.0
C148 C 0.56742 0.21742 0.40719 0.0
C149 C 0.53762 0.14687 0.39486 0.0
C150 C 0.52098 0.15054 0.36483 0.0
C151 C 0.58459 0.17549 0.44681 0.0
H152 H 0.91814 0.23333 0.6361 0.0
H153 H 0.87792 0.23983 0.58517 0.0
H154 H 0.98315 0.35317 0.59422 0.0
H155 H 0.02411 0.34684 0.64533 0.0
H156 H 0.55677 0.25008 0.37085 0.0
H157 H 0.58675 0.24343 0.42313 0.0
H158 H 0.53321 0.11784 0.40129 0.0
H159 H 0.50279 0.12434 0.3488 0.0
H160 H 0.55918 0.65237 0.01698 0.0
H161 H 0.50021 0.58816 0.01256 0.0
H162 H 0.68847 0.52553 0.98598 0.0
H163 H 0.74848 0.58985 0.99051 0.0
H164 H 0.56536 0.49642 0.94915 0.0
H165 H 0.64793 0.5281 0.05363 0.0
H166 H 0.66558 0.57304 0.10396 0.0
H167 H 0.44871 0.58423 0.11656 0.0
H168 H 0.42976 0.53985 0.06605 0.0
H169 H 0.42913 0.30862 0.96891 0.0
H170 H 0.50141 0.36727 0.9687 0.0
H171 H 0.34711 0.44354 0.01926 0.0
H172 H 0.27625 0.38477 0.02084 0.0
H173 H 0.46431 0.46314 0.04367 0.0
H174 H 0.3784 0.43653 0.93971 0.0
H175 H 0.35579 0.39484 0.88849 0.0
H176 H 0.571 0.37704 0.87368 0.0
H177 H 0.59486 0.41824 0.925 0.0
C178 C 0.58808 0.62498 0.01005 0.0
C179 C 0.65845 0.62602 1.00423 0.0
C180 C 0.55434 0.58843 0.00756 0.0
C181 C 0.59035 0.55245 0.99908 0.0
C182 C 0.6602 0.55321 0.99253 0.0
C183 C 0.69428 0.58986 0.99534 0.0
C184 C 0.5548 0.51418 0.99827 0.0
C185 C 0.54407 0.48859 0.96978 0.0
C186 C 0.5262 0.50492 0.02523 0.0
C187 C 0.53745 0.53087 0.05595 0.0
C188 C 0.604 0.54034 0.06704 0.0
C189 C 0.61424 0.56569 0.09561 0.0
C190 C 0.5583 0.58154 0.11342 0.0
C191 C 0.492 0.57194 0.10274 0.0
C192 C 0.48148 0.54665 0.07415 0.0
C193 C 0.41055 0.33798 0.97977 0.0
C194 C 0.34733 0.34234 0.99494 0.0
C195 C 0.45171 0.37143 0.97953 0.0
C196 C 0.42929 0.40979 0.99368 0.0
C197 C 0.36547 0.41417 0.00831 0.0
C198 C 0.32501 0.38067 0.00914 0.0
C199 C 0.47307 0.44537 0.99433 0.0
C200 C 0.48574 0.47054 0.02292 0.0
C201 C 0.5026 0.45444 0.96736 0.0
C202 C 0.48837 0.43014 0.93632 0.0
C203 C 0.42088 0.42353 0.9256 0.0
C204 C 0.40784 0.40001 0.89655 0.0
C205 C 0.46192 0.3832 0.87788 0.0
C206 C 0.52917 0.39003 0.88818 0.0
C207 C 0.54248 0.4135 0.91724 0.0
H208 H 0.45172 0.36496 0.85541 0.0
H209 H 0.56633 0.60121 0.13551 0.0
H210 H 0.261 0.60673 0.51417 0.0
H211 H 0.31891 0.543 0.51325 0.0
H212 H 0.50879 0.60619 0.53743 0.0
H213 H 0.45172 0.6699 0.53795 0.0
H214 H 0.52449 0.54738 0.48898 0.0
H215 H 0.42053 0.56123 0.58871 0.0
H216 H 0.32946 0.56847 0.62779 0.0
H217 H 0.23325 0.46076 0.57917 0.0
H218 H 0.32302 0.45321 0.53952 0.0
H219 H 0.72365 0.386 0.51803 0.0
H220 H 0.66083 0.44862 0.52226 0.0
H221 H 0.47444 0.382 0.49736 0.0
H222 H 0.53663 0.3191 0.49367 0.0
H223 H 0.45532 0.44164 0.54554 0.0
H224 H 0.55791 0.42769 0.44588 0.0
H225 H 0.65243 0.4174 0.40849 0.0
H226 H 0.75137 0.52419 0.45713 0.0
H227 H 0.65789 0.53483 0.4951 0.0
C228 C 0.31492 0.60711 0.51964 0.0
C229 C 0.35191 0.64334 0.52586 0.0
C230 C 0.34785 0.57066 0.51924 0.0
C231 C 0.41808 0.56992 0.52536 0.0
C232 C 0.45458 0.60613 0.53252 0.0
C233 C 0.42185 0.64251 0.5328 0.0
C234 C 0.45469 0.53138 0.52219 0.0
C235 C 0.50992 0.52448 0.50169 0.0
C236 C 0.43422 0.50104 0.53801 0.0
C237 C 0.37826 0.50684 0.56099 0.0
C238 C 0.37943 0.53941 0.5861 0.0
C239 C 0.32816 0.54348 0.60842 0.0
C240 C 0.27578 0.51501 0.60599 0.0
C241 C 0.27396 0.48273 0.58104 0.0
C242 C 0.32497 0.47855 0.55864 0.0
C243 C 0.66936 0.38461 0.51329 0.0
C244 C 0.6351 0.34759 0.50547 0.0
C245 C 0.63359 0.42044 0.51562 0.0
C246 C 0.56318 0.41989 0.50977 0.0
C247 C 0.52882 0.38301 0.50195 0.0
C248 C 0.56446 0.34713 0.4998 0.0
C249 C 0.52511 0.45786 0.51252 0.0
C250 C 0.46963 0.46458 0.53282 0.0
C251 C 0.54512 0.48801 0.49645 0.0
C252 C 0.60115 0.48186 0.47349 0.0
C253 C 0.60005 0.44883 0.44873 0.0
C254 C 0.65341 0.44296 0.42741 0.0
C255 C 0.70794 0.47007 0.43047 0.0
C256 C 0.70913 0.50319 0.45481 0.0
C257 C 0.65593 0.50918 0.47622 0.0
H258 H 0.74922 0.46547 0.41394 0.0
H259 H 0.23677 0.51776 0.62352 0.0
H260 H 0.04038 0.16675 0.02981 0.0
H261 H 0.97879 0.1054 0.034 0.0
H262 H 0.15955 0.03575 1.00586 0.0
H263 H 0.22165 0.09675 1.00153 0.0
H264 H 0.0414 0.0078 0.97233 0.0
H265 H 0.11481 0.04656 0.07875 0.0
H266 H 0.12706 0.09404 0.12825 0.0
H267 H 0.90936 0.10792 0.13413 0.0
H268 H 0.89588 0.06013 0.08471 0.0
H269 H 0.94542 0.81895 0.99654 0.0
H270 H 0.00413 0.88283 0.99868 0.0
H271 H 0.82892 0.94573 0.04329 0.0
H272 H 0.77151 0.88146 0.04277 0.0
H273 H 0.93863 0.97974 0.06818 0.0
H274 H 0.86265 0.93695 0.96424 0.0
H275 H 0.84848 0.89052 0.91432 0.0
H276 H 0.06572 0.88741 0.90142 0.0
H277 H 0.08132 0.93333 0.9515 0.0
C278 C 0.06712 0.1384 0.02464 0.0
C279 C 0.13567 0.13646 0.01512 0.0
C280 C 0.03199 0.10351 0.02722 0.0
C281 C 0.06493 0.06633 0.02027 0.0
C282 C 0.13354 0.06434 0.01126 0.0
C283 C 0.16885 0.09919 0.00887 0.0
C284 C 0.02697 0.02916 0.02092 0.0
C285 C 0.01951 0.00128 0.99328 0.0
C286 C 0.99661 0.02178 0.04811 0.0
C287 C 0.00441 0.05009 0.07796 0.0
C288 C 0.0696 0.0599 0.09055 0.0
C289 C 0.07675 0.08682 0.1186 0.0
C290 C 0.01906 0.10426 0.13424 0.0
C291 C 0.95403 0.09447 0.12197 0.0
C292 C 0.94658 0.06732 0.09401 0.0
C293 C 0.91965 0.84645 1.00689 0.0
C294 C 0.85396 0.84559 0.01927 0.0
C295 C 0.95298 0.88288 0.00796 0.0
C296 C 0.9201 0.91904 0.0204 0.0
C297 C 0.85497 0.91814 0.03344 0.0
C298 C 0.82227 0.88156 0.0331 0.0
C299 C 0.95376 0.9577 0.01956 0.0
C300 C 0.96012 0.98609 0.04711 0.0
C301 C 0.98245 0.96579 0.99209 0.0
C302 C 0.97316 0.93839 0.96178 0.0
C303 C 0.90744 0.92618 0.95086 0.0
C304 C 0.89915 0.89996 0.92252 0.0
C305 C 0.95617 0.88597 0.90473 0.0
C306 C 0.0216 0.89825 0.91523 0.0
C307 C 0.03019 0.9244 0.94358 0.0
H308 H 0.94966 0.86567 0.8828 0.0
H309 H 0.02475 0.12525 0.15589 0.0
H310 H 0.81601 0.10631 0.45575 0.0
H311 H 0.88545 0.04639 0.45415 0.0
H312 H 0.96097 0.09485 0.54542 0.0
H313 H 0.89267 0.15508 0.54709 0.0
H314 H 0.0627 0.06473 0.50684 0.0
H315 H 0.83918 0.022 0.53338 0.0
H316 H 0.71533 0.0104 0.52638 0.0
H317 H 0.75103 0.93205 0.43933 0.0
H318 H 0.87511 0.94365 0.44561 0.0
H319 H 0.19851 0.892 0.55041 0.0
H320 H 0.13433 0.95186 0.54575 0.0
H321 H 0.0645 0.89351 0.4556 0.0
H322 H 0.1275 0.83319 0.46025 0.0
H323 H 0.9614 0.92815 0.48975 0.0
H324 H 0.1846 0.96767 0.46393 0.0
H325 H 0.30864 0.97876 0.47047 0.0
H326 H 0.27437 0.06268 0.55502 0.0
H327 H 0.15011 0.05167 0.54922 0.0
C328 C 0.84722 0.10417 0.47553 0.0
C329 C 0.84879 0.13539 0.50157 0.0
C330 C 0.8867 0.06989 0.47458 0.0
C331 C 0.92787 0.06615 0.49976 0.0
C332 C 0.92955 0.09726 0.52575 0.0
C333 C 0.89029 0.13156 0.52669 0.0
C334 C 0.96988 0.03 0.49901 0.0
C335 C 0.04056 0.03487 0.50343 0.0
C336 C 0.941 0.99105 0.49359 0.0
C337 C 0.86638 0.98405 0.48981 0.0
C338 C 0.82059 0.00258 0.51262 0.0
C339 C 0.75035 -0.00405 0.50881 0.0
C340 C 0.72531 0.9706 0.48239 0.0
C341 C 0.77048 0.95174 0.45976 0.0
C342 C 0.84077 0.95831 0.46344 0.0
C343 C 0.16996 0.89198 0.52948 0.0
C344 C 0.16801 0.85785 0.50572 0.0
C345 C 0.13355 0.92627 0.52681 0.0
C346 C 0.09523 0.9272 0.50021 0.0
C347 C 0.09383 0.89336 0.4763 0.0
C348 C 0.12997 0.85897 0.479 0.0
C349 C 0.05421 0.96289 0.49797 0.0
C350 C 0.9837 0.95795 0.49295 0.0
C351 C 0.08329 0.00177 0.50273 0.0
C352 C 0.15803 0.00857 0.50626 0.0
C353 C 0.20352 0.98826 0.48404 0.0
C354 C 0.27388 -0.00543 0.48759 0.0
C355 C 0.29938 0.02134 0.51318 0.0
C356 C 0.25455 0.04193 0.53523 0.0
C357 C 0.18414 0.03569 0.5318 0.0
H358 H 0.35387 0.02619 0.51589 0.0
H359 H 0.67092 0.9655 0.47948 0.0
H360 H 0.56118 0.13762 0.30146 0.0
H361 H 0.52955 0.14417 0.24916 0.0
H362 H 0.42265 0.25382 0.28589 0.0
H363 H 0.4532 0.24716 0.3381 0.0
H364 H 0.34627 0.2025 0.24422 0.0
H365 H 0.5764 0.25542 0.2513 0.0
H366 H 0.70131 0.25441 0.25833 0.0
H367 H 0.71699 0.15368 0.18317 0.0
H368 H 0.59212 0.15367 0.17597 0.0
H369 H 0.27411 0.2782 0.11237 0.0
H370 H 0.32044 0.27017 0.16185 0.0
H371 H 0.44196 0.1704 0.11611 0.0
H372 H 0.39834 0.17999 0.06616 0.0
H373 H 0.51192 0.21127 0.16125 0.0
H374 H 0.28245 0.16166 0.15123 0.0
H375 H 0.15855 0.16519 0.14246 0.0
H376 H 0.13974 0.25689 0.22373 0.0
H377 H 0.26377 0.25562 0.23209 0.0
C378 C 0.53074 0.16303 0.29835 0.0
C379 C 0.50953 0.19184 0.3239 0.0
C380 C 0.51326 0.16693 0.26846 0.0
C381 C 0.47411 0.19963 0.26362 0.0
C382 C 0.45303 0.2284 0.28909 0.0
C383 C 0.47082 0.22468 0.3189 0.0
C384 C 0.45255 0.2033 0.23219 0.0
C385 C 0.38243 0.20486 0.22612 0.0
C386 C 0.49984 0.20492 0.20834 0.0
C387 C 0.57475 0.20428 0.2133 0.0
C388 C 0.60636 0.23275 0.23651 0.0
C389 C 0.6772 0.23245 0.24045 0.0
C390 C 0.717 0.20401 0.22119 0.0
C391 C 0.68607 0.17569 0.19806 0.0
C392 C 0.61529 0.17583 0.19404 0.0
C393 C 0.31117 0.25476 0.11286 0.0
C394 C 0.33221 0.22943 0.08552 0.0
C395 C 0.33735 0.25003 0.14118 0.0
C396 C 0.38315 0.21887 0.14289 0.0
C397 C 0.40624 0.19445 0.11544 0.0
C398 C 0.38133 0.19989 0.08693 0.0
C399 C 0.40541 0.21133 0.17335 0.0
C400 C 0.47557 0.20873 0.17922 0.0
C401 C 0.35802 0.20847 0.19703 0.0
C402 C 0.28284 0.20879 0.19214 0.0
C403 C 0.25205 0.1829 0.16707 0.0
C404 C 0.18168 0.18456 0.16212 0.0
C405 C 0.14118 0.21126 0.18248 0.0
C406 C 0.17103 0.23641 0.20782 0.0
C407 C 0.24147 0.23535 0.21261 0.0
H408 H 0.08669 0.21241 0.17866 0.0
H409 H 0.77182 0.20391 0.22415 0.0
H410 H 0.45887 0.7193 0.1754 0.0
H411 H 0.42914 0.7161 0.2285 0.0
H412 H 0.49875 0.83804 0.25874 0.0
H413 H 0.52943 0.84125 0.20579 0.0
H414 H 0.54685 0.78907 0.29539 0.0
H415 H 0.33172 0.81725 0.25349 0.0
H416 H 0.23376 0.80825 0.21785 0.0
H417 H 0.19201 0.69285 0.23931 0.0
H418 H 0.29055 0.70081 0.27472 0.0
H419 H 0.39949 0.81751 0.44665 0.0
H420 H 0.43613 0.82282 0.39478 0.0
H421 H 0.35798 0.70385 0.35936 0.0
H422 H 0.32042 0.69856 0.41072 0.0
H423 H 0.3142 0.75389 0.32559 0.0
H424 H 0.53199 0.72453 0.36602 0.0
H425 H 0.62931 0.73392 0.40208 0.0
H426 H 0.66474 0.85166 0.38378 0.0
H427 H 0.56726 0.84309 0.34778 0.0
C428 C 0.46794 0.74539 0.19338 0.0
C429 C 0.49626 0.78059 0.18638 0.0
C430 C 0.45049 0.74363 0.22367 0.0
C431 C 0.46118 0.77696 0.24755 0.0
C432 C 0.48983 0.81202 0.24066 0.0
C433 C 0.50685 0.81391 0.21036 0.0
C434 C 0.44381 0.77498 0.27981 0.0
C435 C 0.49574 0.7819 0.30211 0.0
C436 C 0.37747 0.7648 0.28841 0.0
C437 C 0.31918 0.75944 0.2665 0.0
C438 C 0.30227 0.78971 0.25032 0.0
C439 C 0.24649 0.78484 0.23022 0.0
C440 C 0.20681 0.74996 0.22626 0.0
C441 C 0.22291 0.71982 0.24235 0.0
C442 C 0.27873 0.7245 0.26244 0.0
C443 C 0.39092 0.79229 0.42788 0.0
C444 C 0.35682 0.75767 0.43289 0.0
C445 C 0.41207 0.79532 0.39823 0.0
C446 C 0.40003 0.76366 0.37312 0.0
C447 C 0.36762 0.72873 0.3783 0.0
C448 C 0.34631 0.72575 0.40778 0.0
C449 C 0.4174 0.76746 0.34117 0.0
C450 C 0.36536 0.761 0.3189 0.0
C451 C 0.48361 0.77799 0.33261 0.0
C452 C 0.54177 0.78335 0.3545 0.0
C453 C 0.56012 0.75257 0.36991 0.0
C454 C 0.61546 0.7577 0.39026 0.0
C455 C 0.65306 0.79341 0.39528 0.0
C456 C 0.63547 0.82405 0.37992 0.0
C457 C 0.58028 0.81904 0.3595 0.0
H458 H 0.69592 0.79731 0.41102 0.0
H459 H 0.16346 0.74638 0.21081 0.0
H460 H 0.64242 0.81898 0.94637 0.0
H461 H 0.613 0.83217 0.89558 0.0
H462 H 0.68058 0.71344 0.85328 0.0
H463 H 0.71167 0.70054 0.90353 0.0
H464 H 0.72723 0.76423 0.82186 0.0
H465 H 0.50746 0.73963 0.86307 0.0
H466 H 0.41361 0.74999 0.90083 0.0
H467 H 0.39281 0.87184 0.88943 0.0
H468 H 0.48718 0.86235 0.85187 0.0
H469 H 0.56696 0.73982 0.67514 0.0
H470 H 0.60318 0.73481 0.72705 0.0
H471 H 0.54719 0.85832 0.76025 0.0
H472 H 0.50935 0.86327 0.70856 0.0
H473 H 0.49791 0.81029 0.7969 0.0
H474 H 0.71426 0.83084 0.75141 0.0
H475 H 0.80598 0.81738 0.71275 0.0
H476 H 0.83126 0.69908 0.73126 0.0
H477 H 0.73895 0.71158 0.76973 0.0
C478 C 0.65043 0.7956 0.92625 0.0
C479 C 0.67913 0.75867 0.92907 0.0
C480 C 0.63354 0.80315 0.89721 0.0
C481 C 0.64404 0.77367 0.87053 0.0
C482 C 0.67219 0.73674 0.87343 0.0
C483 C 0.68965 0.72935 0.90229 0.0
C484 C 0.62672 0.78108 0.83944 0.0
C485 C 0.67682 0.77391 0.81635 0.0
C486 C 0.56151 0.79462 0.83233 0.0
C487 C 0.50489 0.80041 0.85494 0.0
C488 C 0.48325 0.76873 0.86881 0.0
C489 C 0.42989 0.77443 0.89014 0.0
C490 C 0.39741 0.81159 0.8976 0.0
C491 C 0.41811 0.8431 0.88367 0.0
C492 C 0.47149 0.83758 0.86236 0.0
C493 C 0.56233 0.76591 0.6935 0.0
C494 C 0.53529 0.80195 0.68769 0.0
C495 C 0.58365 0.76312 0.72311 0.0
C496 C 0.57853 0.79632 0.74751 0.0
C497 C 0.55191 0.83238 0.74176 0.0
C498 C 0.53079 0.83524 0.71214 0.0
C499 C 0.59807 0.79288 0.77927 0.0
C500 C 0.54843 0.80086 0.80249 0.0
C501 C 0.66345 0.7796 0.78638 0.0
C502 C 0.71906 0.77202 0.76323 0.0
C503 C 0.73887 0.80181 0.74703 0.0
C504 C 0.79102 0.79435 0.72516 0.0
C505 C 0.8242 0.75732 0.71945 0.0
C506 C 0.80529 0.72767 0.73561 0.0
C507 C 0.75314 0.73496 0.75749 0.0
H508 H 0.86483 0.75168 0.70262 0.0
H509 H 0.3561 0.81593 0.9141 0.0
H510 H 0.69909 0.2765 0.61209 0.0
H511 H 0.65502 0.2674 0.66155 0.0
H512 H 0.55231 0.15883 0.6173 0.0
H513 H 0.59564 0.16797 0.56726 0.0
H514 H 0.47142 0.20465 0.66048 0.0
H515 H 0.70013 0.1544 0.65592 0.0
H516 H 0.82518 0.15482 0.64971 0.0
H517 H 0.84176 0.25575 0.72475 0.0
H518 H 0.71654 0.25637 0.73113 0.0
H519 H 0.41824 0.1316 0.79984 0.0
H520 H 0.45368 0.13893 0.74819 0.0
H521 H 0.55207 0.25134 0.7868 0.0
H522 H 0.51726 0.24408 0.8384 0.0
H523 H 0.63376 0.20117 0.74584 0.0
H524 H 0.40645 0.252 0.75085 0.0
H525 H 0.28216 0.25073 0.75898 0.0
H526 H 0.26262 0.15 0.68391 0.0
H527 H 0.38727 0.14992 0.67588 0.0
C528 C 0.66698 0.25067 0.6127 0.0
C529 C 0.65121 0.22284 0.5856 0.0
C530 C 0.64202 0.24546 0.64111 0.0
C531 C 0.60118 0.21213 0.64322 0.0
C532 C 0.58394 0.18471 0.61621 0.0
C533 C 0.6089 0.18993 0.58764 0.0
C534 C 0.57736 0.20596 0.67376 0.0
C535 C 0.50693 0.20323 0.67902 0.0
C536 C 0.62366 0.20514 0.69818 0.0
C537 C 0.69882 0.20559 0.69385 0.0
C538 C 0.7303 0.17697 0.67088 0.0
C539 C 0.80122 0.17696 0.66739 0.0
C540 C 0.84128 0.20522 0.68688 0.0
C541 C 0.81056 0.23383 0.70972 0.0
C542 C 0.73962 0.23402 0.71329 0.0
C543 C 0.44764 0.15778 0.79728 0.0
C544 C 0.46502 0.18726 0.82315 0.0
C545 C 0.46736 0.16208 0.76778 0.0
C546 C 0.50512 0.19581 0.76368 0.0
C547 C 0.52282 0.22514 0.78947 0.0
C548 C 0.5026 0.22105 0.8189 0.0
C549 C 0.52797 0.20007 0.7326 0.0
C550 C 0.59826 0.20245 0.72727 0.0
C551 C 0.48152 0.20072 0.70824 0.0
C552 C 0.40645 0.20064 0.713 0.0
C553 C 0.37583 0.22926 0.73629 0.0
C554 C 0.30525 0.22885 0.74084 0.0
C555 C 0.26447 0.20031 0.72198 0.0
C556 C 0.29427 0.17207 0.69854 0.0
C557 C 0.36493 0.17221 0.694 0.0
H558 H 0.20979 0.20013 0.72548 0.0
H559 H 0.89615 0.20479 0.68436 0.0
H560 H 0.93924 0.73164 0.08814 0.0
H561 H 0.98096 0.72647 0.13922 0.0
H562 H 0.77812 0.69512 0.16455 0.0
H563 H 0.7358 0.70166 0.11408 0.0
H564 H 0.82834 0.74725 0.20894 0.0
H565 H 0.91352 0.62543 0.14722 0.0
H566 H 0.97654 0.58367 0.10451 0.0
H567 H 0.16344 0.64369 0.13728 0.0
H568 H 0.10136 0.68616 0.17996 0.0
H569 H 0.91138 0.67955 0.34532 0.0
H570 H 0.87531 0.68295 0.29322 0.0
H571 H 0.07753 0.72133 0.27318 0.0
H572 H 0.11503 0.71611 0.32481 0.0
H573 H 0.03022 0.66703 0.22635 0.0
H574 H 0.94236 0.78792 0.28898 0.0
H575 H 0.87769 0.828 0.33195 0.0
H576 H 0.69273 0.76699 0.29758 0.0
H577 H 0.75649 0.72612 0.25458 0.0
C578 C 0.90369 0.72333 0.10452 0.0
C579 C 0.83423 0.71705 0.097 0.0
C580 C 0.92764 0.72023 0.13372 0.0
C581 C 0.8829 0.70998 0.15577 0.0
C582 C 0.81371 0.70318 0.14807 0.0
C583 C 0.7896 0.70682 0.1191 0.0
C584 C 0.90726 0.70755 0.18719 0.0
C585 C 0.87191 0.72921 0.21268 0.0
C586 C 0.96521 0.68488 0.19225 0.0
C587 C 0.00262 0.65934 0.16658 0.0
C588 C 0.96796 0.62997 0.14516 0.0
C589 C 0.00353 0.60611 0.12099 0.0
C590 C 0.07391 0.61112 0.11812 0.0
C591 C 0.1089 0.6399 0.13948 0.0
C592 C 0.07355 0.66387 0.16368 0.0
C593 C 0.94852 0.68825 0.32976 0.0
C594 C 0.01613 0.69766 0.3394 0.0
C595 C 0.92754 0.69066 0.30005 0.0
C596 C 0.97339 0.70303 0.27939 0.0
C597 C 0.04113 0.71192 0.28875 0.0
C598 C 0.06229 0.7093 0.31842 0.0
C599 C 0.95081 0.70635 0.24796 0.0
C600 C 0.98661 0.68501 0.22252 0.0
C601 C 0.89289 0.72902 0.24293 0.0
C602 C 0.85438 0.75369 0.26871 0.0
C603 C 0.888 0.78283 0.2907 0.0
C604 C 0.85149 0.80572 0.31504 0.0
C605 C 0.7812 0.79997 0.31752 0.0
C606 C 0.74721 0.77136 0.29563 0.0
C607 C 0.7835 0.74836 0.27126 0.0
H608 H 0.75309 0.81776 0.33635 0.0
H609 H 0.10136 0.59261 0.09939 0.0
H610 H 0.72249 0.24503 0.3946 0.0
H611 H 0.76496 0.25237 0.34448 0.0
H612 H 0.96428 0.2836 0.38344 0.0
H613 H 0.92206 0.27629 0.43423 0.0
H614 H 0.9146 0.33422 0.34303 0.0
H615 H 0.94884 0.19261 0.34175 0.0
H616 H 0.91041 0.12635 0.35001 0.0
H617 H 0.74641 0.12666 0.28572 0.0
H618 H 0.78355 0.19313 0.27748 0.0
H619 H 0.07961 0.32142 0.19983 0.0
H620 H 0.04721 0.31398 0.2516 0.0
H621 H 0.86154 0.25362 0.2155 0.0
H622 H 0.89562 0.25943 0.16343 0.0
H623 H 0.90796 0.21735 0.25597 0.0
H624 H 0.86902 0.35593 0.25571 0.0
H625 H 0.8968 0.42422 0.24839 0.0
H626 H 0.05559 0.43349 0.31626 0.0
H627 H 0.02934 0.36502 0.32369 0.0
C628 C 0.77541 0.25359 0.39273 0.0
C629 C 0.81899 0.25998 0.41853 0.0
C630 C 0.7996 0.25762 0.36395 0.0
C631 C 0.86786 0.26813 0.36022 0.0
C632 C 0.91141 0.27535 0.38591 0.0
C633 C 0.88729 0.27105 0.41484 0.0
C634 C 0.89314 0.27116 0.32926 0.0
C635 C 0.91454 0.3086 0.32405 0.0
C636 C 0.89048 0.238 0.3044 0.0
C637 C 0.86908 0.19769 0.30886 0.0
C638 C 0.90459 0.17851 0.3294 0.0
C639 C 0.88302 0.14095 0.33411 0.0
C640 C 0.82608 0.12226 0.31835 0.0
C641 C 0.79067 0.14107 0.29782 0.0
C642 C 0.81209 0.17861 0.29304 0.0
C643 C 0.03173 0.30673 0.20302 0.0
C644 C 0.98984 0.29127 0.17769 0.0
C645 C 0.01304 0.30261 0.23264 0.0
C646 C 0.95113 0.28393 0.23771 0.0
C647 C 0.90956 0.26811 0.2123 0.0
C648 C 0.92894 0.27151 0.18256 0.0
C649 C 0.92998 0.28066 0.26941 0.0
C650 C 0.9089 0.2431 0.27483 0.0
C651 C 0.93182 0.31399 0.29438 0.0
C652 C 0.94766 0.3552 0.29002 0.0
C653 C 0.91019 0.37243 0.26891 0.0
C654 C 0.92561 0.41118 0.26477 0.0
C655 C 0.97805 0.43314 0.28179 0.0
C656 C 0.01506 0.41642 0.30306 0.0
C657 C -0.0001 0.37766 0.30726 0.0
H658 H 0.9899 0.46314 0.27856 0.0
H659 H 0.80938 0.09322 0.32208 0.0
H660 H 0.97707 0.34846 0.69682 0.0
H661 H 0.01047 0.34231 0.74884 0.0
H662 H 0.0542 0.21691 0.71629 0.0
H663 H 0.0221 0.223 0.66406 0.0
H664 H 0.97712 0.22985 0.76892 0.0
H665 H 0.18024 0.28173 0.73221 0.0
H666 H 0.25248 0.32791 0.70973 0.0
H667 H 0.20214 0.42437 0.78445 0.0
H668 H 0.12901 0.37878 0.80727 0.0
H669 H 0.16422 0.19203 0.89733 0.0
H670 H 0.12757 0.20035 0.84642 0.0
H671 H 0.08256 0.32479 0.88247 0.0
H672 H 0.11943 0.31677 0.93378 0.0
H673 H 0.15854 0.31336 0.82856 0.0
H674 H 0.95436 0.25985 0.86495 0.0
H675 H 0.88591 0.21187 0.8874 0.0
H676 H 0.94155 0.11686 0.81253 0.0
H677 H 0.01117 0.16418 0.78984 0.0
C678 C 0.99474 0.31971 0.70063 0.0
C679 C 0.99688 0.28621 0.67627 0.0
C680 C 0.01355 0.3162 0.7304 0.0
C681 C 0.035 0.27918 0.73642 0.0
C682 C 0.03749 0.24572 0.71217 0.0
C683 C 0.01904 0.24925 0.68236 0.0
C684 C 0.05376 0.27521 0.76812 0.0
C685 C 0.01735 0.24777 0.78183 0.0
C686 C 0.10527 0.29922 0.78517 0.0
C687 C 0.14858 0.32687 0.77131 0.0
C688 C 0.18405 0.31285 0.74373 0.0
C689 C 0.22532 0.33891 0.73095 0.0
C690 C 0.23174 0.37909 0.7456 0.0
C691 C 0.19704 0.39325 0.7731 0.0
C692 C 0.15575 0.36728 0.78599 0.0
C693 C 0.146 0.22115 0.8946 0.0
C694 C 0.14454 0.25373 0.91972 0.0
C695 C 0.12489 0.2258 0.86543 0.0
C696 C 0.1019 0.2631 0.86068 0.0
C697 C 0.10002 0.29571 0.88568 0.0
C698 C 0.12073 0.29101 0.915 0.0
C699 C 0.08174 0.26812 0.82938 0.0
C700 C 0.11804 0.29565 0.8157 0.0
C701 C 0.03041 0.24403 0.81228 0.0
C702 C 0.98851 0.21551 0.82585 0.0
C703 C 0.95248 0.22866 0.8534 0.0
C704 C 0.91337 0.20159 0.86615 0.0
C705 C 0.90952 0.16132 0.85144 0.0
C706 C 0.94465 0.14805 0.82392 0.0
C707 C 0.98389 0.17499 0.81109 0.0
H708 H 0.8792 0.14041 0.86134 0.0
H709 H 0.26373 0.39923 0.73568 0.0
H710 H 0.26048 0.7299 0.62165 0.0
H711 H 0.20777 0.72393 0.67036 0.0
H712 H 0.01185 0.75355 0.6368 0.0
H713 H 0.06418 0.75898 0.58736 0.0
H714 H 0.05436 0.79503 0.70206 0.0
H715 H 0.01833 0.66617 0.63738 0.0
H716 H 0.05308 0.60671 0.59919 0.0
H717 H 0.20651 0.58002 0.66131 0.0
H718 H 0.17324 0.63965 0.69968 0.0
H719 H 0.89046 0.73248 0.83012 0.0
H720 H 0.91709 0.74265 0.77836 0.0
H721 H 0.11557 0.69018 0.78393 0.0
H722 H 0.09026 0.68084 0.83594 0.0
H723 H 0.05491 0.66047 0.72958 0.0
H724 H 0.09021 0.79041 0.79461 0.0
H725 H 0.05477 0.84999 0.8325 0.0
H726 H 0.90281 0.87643 0.76967 0.0
H727 H 0.93711 0.81684 0.73149 0.0
C728 C 0.20619 0.73532 0.62454 0.0
C729 C 0.16644 0.74475 0.60054 0.0
C730 C 0.17621 0.73193 0.65244 0.0
C731 C 0.10604 0.73835 0.65713 0.0
C732 C 0.06618 0.74865 0.63358 0.0
C733 C 0.09605 0.75145 0.60534 0.0
C734 C 0.0749 0.73223 0.6863 0.0
C735 C 0.05301 0.76558 0.70798 0.0
C736 C 0.07425 0.69387 0.694 0.0
C737 C 0.09364 0.65752 0.67129 0.0
C738 C 0.05978 0.64775 0.6428 0.0
C739 C 0.07915 0.614 0.62113 0.0
C740 C 0.13206 0.58963 0.62776 0.0
C741 C 0.16555 0.59889 0.65615 0.0
C742 C 0.14638 0.63264 0.6779 0.0
C743 C 0.94009 0.72344 0.82048 0.0
C744 C 0.98832 0.7059 0.83731 0.0
C745 C 0.95498 0.72905 0.79077 0.0
C746 C 0.01831 0.71721 0.77724 0.0
C747 C 0.06619 0.69933 0.79383 0.0
C748 C 0.05152 0.69388 0.82355 0.0
C749 C 0.03542 0.72342 0.74588 0.0
C750 C 0.05499 0.68996 0.7237 0.0
C751 C 0.03371 0.76177 0.73784 0.0
C752 C 0.01501 0.79851 0.76044 0.0
C753 C 0.04878 0.80868 0.78896 0.0
C754 C 0.02907 0.84255 0.81048 0.0
C755 C 0.97625 0.86683 0.80359 0.0
C756 C 0.94347 0.85748 0.77506 0.0
C757 C 0.96299 0.82364 0.75348 0.0
H758 H 0.96097 0.89298 0.82031 0.0
H759 H 0.14687 0.56356 0.61089 0.0
loop_
_geom_bond_atom_site_label_1
_geom_bond_atom_site_label_2
_geom_bond_distance
_geom_bond_site_symmetry_2
_ccdc_geom_bond_type
Dy0 O3 2.307 1_556 S
Dy0 O5 2.395 . S
Dy0 O6 2.379 . S
Dy0 O8 2.339 . S
Dy0 O10 2.298 . S
Dy0 O14 2.275 . S
Dy0 C22 2.738 . S
Dy1 O4 2.298 . S
Dy1 O7 2.275 . S
Dy1 O9 2.307 1_554 S
Dy1 O11 2.395 . S
Dy1 O12 2.379 . S
Dy1 O15 2.339 . S
Dy1 C31 2.738 . S
C2 O14 1.254 1_554 S
C2 O15 1.257 . S
O3 Dy0 2.307 1_554 S
O3 C13 1.266 . S
O4 Dy1 2.298 . S
O4 C13 1.236 . S
O5 Dy0 2.395 . S
O5 C22 1.255 . S
O6 Dy0 2.379 . S
O6 C22 1.249 . S
O7 Dy1 2.275 . S
O7 C23 1.254 1_554 S
O8 Dy0 2.339 . S
O8 C23 1.257 . S
O9 Dy1 2.307 1_556 S
O9 C24 1.266 . S
O10 Dy0 2.298 . S
O10 C24 1.236 . S
O11 Dy1 2.395 . S
O11 C31 1.255 . S
O12 Dy1 2.379 . S
O12 C31 1.249 . S
C13 O3 1.266 . S
C13 O4 1.236 . S
O14 Dy0 2.275 . S
O14 C2 1.254 1_556 S
O15 Dy1 2.339 . S
O15 C2 1.257 . S
C16 C19 1.344 . S
C16 C20 1.328 . S
C16 C22 1.516 . S
C17 C18 1.304 . S
C17 C21 1.323 . S
C18 C17 1.304 . S
C18 C19 1.371 . S
C18 H32 0.930 . S
C19 C16 1.344 . S
C19 C18 1.371 . S
C19 H33 0.931 . S
C20 C16 1.328 . S
C20 C21 1.433 . S
C20 H34 0.931 . S
C21 C17 1.323 . S
C21 C20 1.433 . S
C21 H35 0.933 . S
C22 Dy0 2.738 . S
C22 O5 1.255 . S
C22 O6 1.249 . S
C22 C16 1.516 . S
C23 O7 1.254 1_556 S
C23 O8 1.257 . S
C24 O9 1.266 . S
C24 O10 1.236 . S
C25 C28 1.344 . S
C25 C29 1.328 . S
C25 C31 1.516 . S
C26 C27 1.304 . S
C26 C30 1.323 . S
C27 C26 1.304 . S
C27 C28 1.371 . S
C27 H36 0.930 . S
C28 C25 1.344 . S
C28 C27 1.371 . S
C28 H37 0.931 . S
C29 C25 1.328 . S
C29 C30 1.433 . S
C29 H38 0.931 . S
C30 C26 1.323 . S
C30 C29 1.433 . S
C30 H39 0.933 . S
C31 Dy1 2.738 . S
C31 O11 1.255 . S
C31 O12 1.249 . S
C31 C25 1.516 . S
H32 C18 0.930 . S
H33 C19 0.931 . S
H34 C20 0.931 . S
H35 C21 0.933 . S
H36 C27 0.930 . S
H37 C28 0.931 . S
H38 C29 0.931 . S
H39 C30 0.933 . S
Dy40 O43 2.307 1_556 S
Dy40 O45 2.395 . S
Dy40 O46 2.379 . S
Dy40 O48 2.339 . S
Dy40 O50 2.298 . S
Dy40 O54 2.275 . S
Dy40 C62 2.738 . S
Dy41 O44 2.298 . S
Dy41 O47 2.275 . S
Dy41 O49 2.307 1_554 S
Dy41 O51 2.395 . S
Dy41 O52 2.379 . S
Dy41 O55 2.339 . S
Dy41 C71 2.738 . S
C42 O54 1.254 1_554 S
C42 O55 1.257 . S
O43 Dy40 2.307 1_554 S
O43 C53 1.266 . S
O44 Dy41 2.298 . S
O44 C53 1.236 . S
O45 Dy40 2.395 . S
O45 C62 1.255 . S
O46 Dy40 2.379 . S
O46 C62 1.249 . S
O47 Dy41 2.275 . S
O47 C63 1.254 1_554 S
O48 Dy40 2.339 . S
O48 C63 1.257 . S
O49 Dy41 2.307 1_556 S
O49 C64 1.266 . S
O50 Dy40 2.298 . S
O50 C64 1.236 . S
O51 Dy41 2.395 . S
O51 C71 1.255 . S
O52 Dy41 2.379 . S
O52 C71 1.249 . S
C53 O43 1.266 . S
C53 O44 1.236 . S
O54 Dy40 2.275 . S
O54 C42 1.254 1_556 S
O55 Dy41 2.339 . S
O55 C42 1.257 . S
C56 C59 1.344 . S
C56 C60 1.328 . S
C56 C62 1.516 . S
C57 C58 1.304 . S
C57 C61 1.323 . S
C58 C57 1.304 . S
C58 C59 1.371 . S
C58 H72 0.930 . S
C59 C56 1.344 . S
C59 C58 1.371 . S
C59 H73 0.931 . S
C60 C56 1.328 . S
C60 C61 1.433 . S
C60 H74 0.931 . S
C61 C57 1.323 . S
C61 C60 1.433 . S
C61 H75 0.933 . S
C62 Dy40 2.738 . S
C62 O45 1.255 . S
C62 O46 1.249 . S
C62 C56 1.516 . S
C63 O47 1.254 1_556 S
C63 O48 1.257 . S
C64 O49 1.266 . S
C64 O50 1.236 . S
C65 C68 1.344 . S
C65 C69 1.328 . S
C65 C71 1.516 . S
C66 C67 1.304 . S
C66 C70 1.323 . S
C67 C66 1.304 . S
C67 C68 1.371 . S
C67 H76 0.930 . S
C68 C65 1.344 . S
C68 C67 1.371 . S
C68 H77 0.931 . S
C69 C65 1.328 . S
C69 C70 1.433 . S
C69 H78 0.931 . S
C70 C66 1.323 . S
C70 C69 1.433 . S
C70 H79 0.933 . S
C71 Dy41 2.738 . S
C71 O51 1.255 . S
C71 O52 1.249 . S
C71 C65 1.516 . S
H72 C58 0.930 . S
H73 C59 0.931 . S
H74 C60 0.931 . S
H75 C61 0.933 . S
H76 C67 0.930 . S
H77 C68 0.931 . S
H78 C69 0.931 . S
H79 C70 0.933 . S
Dy80 O83 2.307 . S
Dy80 O85 2.395 . S
Dy80 O86 2.379 . S
Dy80 O88 2.339 . S
Dy80 O90 2.298 . S
Dy80 O94 2.275 . S
Dy80 C102 2.738 . S
Dy81 O84 2.298 . S
Dy81 O87 2.275 . S
Dy81 O89 2.307 . S
Dy81 O91 2.395 . S
Dy81 O92 2.379 . S
Dy81 O95 2.339 . S
Dy81 C111 2.738 . S
C82 O94 1.254 . S
C82 O95 1.257 . S
O83 Dy80 2.307 . S
O83 C93 1.266 . S
O84 Dy81 2.298 . S
O84 C93 1.236 . S
O85 Dy80 2.395 . S
O85 C102 1.255 . S
O86 Dy80 2.379 . S
O86 C102 1.249 . S
O87 Dy81 2.275 . S
O87 C103 1.254 . S
O88 Dy80 2.339 . S
O88 C103 1.257 . S
O89 Dy81 2.307 . S
O89 C104 1.266 . S
O90 Dy80 2.298 . S
O90 C104 1.236 . S
O91 Dy81 2.395 . S
O91 C111 1.255 . S
O92 Dy81 2.379 . S
O92 C111 1.249 . S
C93 O83 1.266 . S
C93 O84 1.236 . S
O94 Dy80 2.275 . S
O94 C82 1.254 . S
O95 Dy81 2.339 . S
O95 C82 1.257 . S
C96 C99 1.344 . S
C96 C100 1.328 . S
C96 C102 1.516 . S
C97 C98 1.304 . S
C97 C101 1.323 . S
C98 C97 1.304 . S
C98 C99 1.371 . S
C98 H112 0.930 . S
C99 C96 1.344 . S
C99 C98 1.371 . S
C99 H113 0.931 . S
C100 C96 1.328 . S
C100 C101 1.433 . S
C100 H114 0.931 . S
C101 C97 1.323 . S
C101 C100 1.433 . S
C101 H115 0.933 . S
C102 Dy80 2.738 . S
C102 O85 1.255 . S
C102 O86 1.249 . S
C102 C96 1.516 . S
C103 O87 1.254 . S
C103 O88 1.257 . S
C104 O89 1.266 . S
C104 O90 1.236 . S
C105 C108 1.344 . S
C105 C109 1.328 . S
C105 C111 1.516 . S
C106 C107 1.304 . S
C106 C110 1.323 . S
C107 C106 1.304 . S
C107 C108 1.371 . S
C107 H116 0.930 . S
C108 C105 1.344 . S
C108 C107 1.371 . S
C108 H117 0.931 . S
C109 C105 1.328 . S
C109 C110 1.433 . S
C109 H118 0.931 . S
C110 C106 1.323 . S
C110 C109 1.433 . S
C110 H119 0.933 . S
C111 Dy81 2.738 . S
C111 O91 1.255 . S
C111 O92 1.249 . S
C111 C105 1.516 . S
H112 C98 0.930 . S
H113 C99 0.931 . S
H114 C100 0.931 . S
H115 C101 0.933 . S
H116 C107 0.930 . S
H117 C108 0.931 . S
H118 C109 0.931 . S
H119 C110 0.933 . S
Dy120 O123 2.307 . S
Dy120 O125 2.395 . S
Dy120 O126 2.379 . S
Dy120 O128 2.339 . S
Dy120 O130 2.298 . S
Dy120 O134 2.275 . S
Dy120 C142 2.738 . S
Dy121 O124 2.298 . S
Dy121 O127 2.275 . S
Dy121 O129 2.307 . S
Dy121 O131 2.395 . S
Dy121 O132 2.379 . S
Dy121 O135 2.339 . S
Dy121 C151 2.738 . S
C122 O134 1.254 . S
C122 O135 1.257 . S
O123 Dy120 2.307 . S
O123 C133 1.266 . S
O124 Dy121 2.298 . S
O124 C133 1.236 . S
O125 Dy120 2.395 . S
O125 C142 1.255 . S
O126 Dy120 2.379 . S
O126 C142 1.249 . S
O127 Dy121 2.275 . S
O127 C143 1.254 . S
O128 Dy120 2.339 . S
O128 C143 1.257 . S
O129 Dy121 2.307 . S
O129 C144 1.266 . S
O130 Dy120 2.298 . S
O130 C144 1.236 . S
O131 Dy121 2.395 . S
O131 C151 1.255 . S
O132 Dy121 2.379 . S
O132 C151 1.249 . S
C133 O123 1.266 . S
C133 O124 1.236 . S
O134 Dy120 2.275 . S
O134 C122 1.254 . S
O135 Dy121 2.339 . S
O135 C122 1.257 . S
C136 C139 1.344 . S
C136 C140 1.328 . S
C136 C142 1.516 . S
C137 C138 1.304 . S
C137 C141 1.323 . S
C138 C137 1.304 . S
C138 C139 1.371 . S
C138 H152 0.930 . S
C139 C136 1.344 . S
C139 C138 1.371 . S
C139 H153 0.931 . S
C140 C136 1.328 . S
C140 C141 1.433 . S
C140 H154 0.931 . S
C141 C137 1.323 . S
C141 C140 1.433 . S
C141 H155 0.933 . S
C142 Dy120 2.738 . S
C142 O125 1.255 . S
C142 O126 1.249 . S
C142 C136 1.516 . S
C143 O127 1.254 . S
C143 O128 1.257 . S
C144 O129 1.266 . S
C144 O130 1.236 . S
C145 C148 1.344 . S
C145 C149 1.328 . S
C145 C151 1.516 . S
C146 C147 1.304 . S
C146 C150 1.323 . S
C147 C146 1.304 . S
C147 C148 1.371 . S
C147 H156 0.930 . S
C148 C145 1.344 . S
C148 C147 1.371 . S
C148 H157 0.931 . S
C149 C145 1.328 . S
C149 C150 1.433 . S
C149 H158 0.931 . S
C150 C146 1.323 . S
C150 C149 1.433 . S
C150 H159 0.933 . S
C151 Dy121 2.738 . S
C151 O131 1.255 . S
C151 O132 1.249 . S
C151 C145 1.516 . S
H152 C138 0.930 . S
H153 C139 0.931 . S
H154 C140 0.931 . S
H155 C141 0.933 . S
H156 C147 0.930 . S
H157 C148 0.931 . S
H158 C149 0.931 . S
H159 C150 0.933 . S
H160 C178 0.951 . S
H161 C180 0.951 . S
H162 C182 0.950 . S
H163 C183 0.950 . S
H164 C185 0.950 . S
H165 C188 0.950 . S
H166 C189 0.950 . S
H167 C191 0.950 . S
H168 C192 0.950 . S
H169 C193 0.951 . S
H170 C195 0.951 . S
H171 C197 0.950 . S
H172 C198 0.950 . S
H173 C200 0.950 . S
H174 C203 0.950 . S
H175 C204 0.950 . S
H176 C206 0.950 . S
H177 C207 0.950 . S
C178 H160 0.951 . S
C178 C179 1.363 1_554 S
C178 C180 1.388 . S
C179 C178 1.363 1_556 S
C179 C183 1.386 . S
C180 H161 0.951 . S
C180 C178 1.388 . S
C180 C181 1.366 . S
C181 C180 1.366 . S
C181 C182 1.414 1_554 S
C181 C184 1.499 . S
C182 H162 0.950 . S
C182 C181 1.414 1_556 S
C182 C183 1.374 . S
C183 H163 0.950 . S
C183 C179 1.386 . S
C183 C182 1.374 . S
C184 C181 1.499 . S
C184 C185 1.373 1_554 S
C184 C186 1.389 . S
C185 H164 0.950 . S
C185 C184 1.373 1_556 S
C185 C201 1.377 . S
C186 C184 1.389 . S
C186 C187 1.524 . S
C186 C200 1.377 . S
C187 C186 1.524 . S
C187 C188 1.397 . S
C187 C192 1.363 . S
C188 H165 0.950 . S
C188 C187 1.397 . S
C188 C189 1.334 . S
C189 H166 0.950 . S
C189 C188 1.334 . S
C189 C190 1.287 . S
C190 C189 1.287 . S
C190 C191 1.524 . S
C190 H209 0.913 . S
C191 H167 0.950 . S
C191 C190 1.524 . S
C191 C192 1.415 . S
C192 H168 0.950 . S
C192 C187 1.363 . S
C192 C191 1.415 . S
C193 H169 0.951 . S
C193 C194 1.357 1_556 S
C193 C195 1.388 . S
C194 C193 1.357 1_554 S
C194 C198 1.388 . S
C195 H170 0.951 . S
C195 C193 1.388 . S
C195 C196 1.368 . S
C196 C195 1.368 . S
C196 C197 1.404 1_556 S
C196 C199 1.498 . S
C197 H171 0.950 . S
C197 C196 1.404 1_554 S
C197 C198 1.374 . S
C198 H172 0.950 . S
C198 C194 1.388 . S
C198 C197 1.374 . S
C199 C196 1.498 . S
C199 C200 1.348 1_556 S
C199 C201 1.420 . S
C200 H173 0.950 . S
C200 C186 1.377 . S
C200 C199 1.348 1_554 S
C201 C185 1.377 . S
C201 C199 1.420 . S
C201 C202 1.524 . S
C202 C201 1.524 . S
C202 C203 1.397 . S
C202 C207 1.363 . S
C203 H174 0.950 . S
C203 C202 1.397 . S
C203 C204 1.334 . S
C204 H175 0.950 . S
C204 C203 1.334 . S
C204 C205 1.287 . S
C205 C204 1.287 . S
C205 C206 1.524 . S
C205 H208 0.999 . S
C206 H176 0.950 . S
C206 C205 1.524 . S
C206 C207 1.415 . S
C207 H177 0.950 . S
C207 C202 1.363 . S
C207 C206 1.415 . S
H208 C205 0.999 . S
H209 C190 0.913 . S
H210 C228 0.951 . S
H211 C230 0.951 . S
H212 C232 0.950 . S
H213 C233 0.950 . S
H214 C235 0.950 . S
H215 C238 0.950 . S
H216 C239 0.950 . S
H217 C241 0.950 . S
H218 C242 0.950 . S
H219 C243 0.951 . S
H220 C245 0.951 . S
H221 C247 0.950 . S
H222 C248 0.950 . S
H223 C250 0.950 . S
H224 C253 0.950 . S
H225 C254 0.950 . S
H226 C256 0.950 . S
H227 C257 0.950 . S
C228 H210 0.951 . S
C228 C229 1.366 . S
C228 C230 1.388 . S
C229 C228 1.366 . S
C229 C233 1.385 . S
C230 H211 0.951 . S
C230 C228 1.388 . S
C230 C231 1.366 . S
C231 C230 1.366 . S
C231 C232 1.414 . S
C231 C234 1.499 . S
C232 H212 0.950 . S
C232 C231 1.414 . S
C232 C233 1.374 . S
C233 H213 0.950 . S
C233 C229 1.385 . S
C233 C232 1.374 . S
C234 C231 1.499 . S
C234 C235 1.373 . S
C234 C236 1.389 . S
C235 H214 0.950 . S
C235 C234 1.373 . S
C235 C251 1.377 . S
C236 C234 1.389 . S
C236 C237 1.524 . S
C236 C250 1.377 . S
C237 C236 1.524 . S
C237 C238 1.397 . S
C237 C242 1.363 . S
C238 H215 0.950 . S
C238 C237 1.397 . S
C238 C239 1.334 . S
C239 H216 0.950 . S
C239 C238 1.334 . S
C239 C240 1.287 . S
C240 C239 1.287 . S
C240 C241 1.524 . S
C240 H259 0.913 . S
C241 H217 0.950 . S
C241 C240 1.524 . S
C241 C242 1.415 . S
C242 H218 0.950 . S
C242 C237 1.363 . S
C242 C241 1.415 . S
C243 H219 0.951 . S
C243 C244 1.366 . S
C243 C245 1.388 . S
C244 C243 1.366 . S
C244 C248 1.385 . S
C245 H220 0.951 . S
C245 C243 1.388 . S
C245 C246 1.366 . S
C246 C245 1.366 . S
C246 C247 1.414 . S
C246 C249 1.499 . S
C247 H221 0.950 . S
C247 C246 1.414 . S
C247 C248 1.374 . S
C248 H222 0.950 . S
C248 C244 1.385 . S
C248 C247 1.374 . S
C249 C246 1.499 . S
C249 C250 1.373 . S
C249 C251 1.389 . S
C250 H223 0.950 . S
C250 C236 1.377 . S
C250 C249 1.373 . S
C251 C235 1.377 . S
C251 C249 1.389 . S
C251 C252 1.524 . S
C252 C251 1.524 . S
C252 C253 1.397 . S
C252 C257 1.363 . S
C253 H224 0.950 . S
C253 C252 1.397 . S
C253 C254 1.334 . S
C254 H225 0.950 . S
C254 C253 1.334 . S
C254 C255 1.287 . S
C255 C254 1.287 . S
C255 C256 1.524 . S
C255 H258 0.999 . S
C256 H226 0.950 . S
C256 C255 1.524 . S
C256 C257 1.415 . S
C257 H227 0.950 . S
C257 C252 1.363 . S
C257 C256 1.415 . S
H258 C255 0.999 . S
H259 C240 0.913 . S
H260 C278 0.951 . S
H261 C280 0.951 . S
H262 C282 0.950 . S
H263 C283 0.950 . S
H264 C285 0.950 . S
H265 C288 0.950 1_455 S
H266 C289 0.950 1_455 S
H267 C291 0.950 . S
H268 C292 0.950 . S
H269 C293 0.951 . S
H270 C295 0.951 . S
H271 C297 0.950 . S
H272 C298 0.950 . S
H273 C300 0.950 . S
H274 C303 0.950 1_655 S
H275 C304 0.950 1_655 S
H276 C306 0.950 . S
H277 C307 0.950 . S
C278 H260 0.951 . S
C278 C279 1.368 . S
C278 C280 1.388 . S
C279 C278 1.368 . S
C279 C283 1.380 1_556 S
C280 H261 0.951 . S
C280 C278 1.388 . S
C280 C281 1.366 1_556 S
C281 C280 1.366 1_554 S
C281 C282 1.414 . S
C281 C284 1.499 . S
C282 H262 0.950 . S
C282 C281 1.414 . S
C282 C283 1.374 . S
C283 H263 0.950 . S
C283 C279 1.380 1_554 S
C283 C282 1.374 . S
C284 C281 1.499 . S
C284 C285 1.373 1_544 S
C284 C286 1.389 1_455 S
C285 H264 0.950 . S
C285 C284 1.373 1_566 S
C285 C301 1.377 . S
C286 C284 1.389 1_655 S
C286 C287 1.524 . S
C286 C300 1.377 . S
C287 C286 1.524 . S
C287 C288 1.397 . S
C287 C292 1.363 . S
C288 H265 0.950 1_655 S
C288 C287 1.397 . S
C288 C289 1.334 . S
C289 H266 0.950 1_655 S
C289 C288 1.334 . S
C289 C290 1.287 . S
C290 C289 1.287 . S
C290 C291 1.524 . S
C290 H309 0.913 . S
C291 H267 0.950 . S
C291 C290 1.524 . S
C291 C292 1.415 . S
C292 H268 0.950 . S
C292 C287 1.363 . S
C292 C291 1.415 . S
C293 H269 0.951 . S
C293 C294 1.374 . S
C293 C295 1.388 . S
C294 C293 1.374 . S
C294 C298 1.371 1_554 S
C295 H270 0.951 . S
C295 C293 1.388 . S
C295 C296 1.366 1_554 S
C296 C295 1.366 1_556 S
C296 C297 1.414 . S
C296 C299 1.499 . S
C297 H271 0.950 . S
C297 C296 1.414 . S
C297 C298 1.374 . S
C298 H272 0.950 . S
C298 C294 1.371 1_556 S
C298 C297 1.374 . S
C299 C296 1.499 . S
C299 C300 1.373 1_566 S
C299 C301 1.389 1_655 S
C300 H273 0.950 . S
C300 C286 1.377 . S
C300 C299 1.373 1_544 S
C301 C285 1.377 . S
C301 C299 1.389 1_455 S
C301 C302 1.524 . S
C302 C301 1.524 . S
C302 C303 1.397 . S
C302 C307 1.363 . S
C303 H274 0.950 1_455 S
C303 C302 1.397 . S
C303 C304 1.334 . S
C304 H275 0.950 1_455 S
C304 C303 1.334 . S
C304 C305 1.287 . S
C305 C304 1.287 . S
C305 C306 1.524 . S
C305 H308 0.999 . S
C306 H276 0.950 . S
C306 C305 1.524 . S
C306 C307 1.415 . S
C307 H277 0.950 . S
C307 C302 1.363 . S
C307 C306 1.415 . S
H308 C305 0.999 . S
H309 C290 0.913 . S
H310 C328 0.951 . S
H311 C330 0.951 . S
H312 C332 0.950 . S
H313 C333 0.950 . S
H314 C335 0.950 . S
H315 C338 0.950 . S
H316 C339 0.950 1_545 S
H317 C341 0.950 . S
H318 C342 0.950 . S
H319 C343 0.951 . S
H320 C345 0.951 . S
H321 C347 0.950 . S
H322 C348 0.950 . S
H323 C350 0.950 . S
H324 C353 0.950 . S
H325 C354 0.950 1_565 S
H326 C356 0.950 . S
H327 C357 0.950 . S
C328 H310 0.951 . S
C328 C329 1.366 . S
C328 C330 1.388 . S
C329 C328 1.366 . S
C329 C333 1.385 . S
C330 H311 0.951 . S
C330 C328 1.388 . S
C330 C331 1.366 . S
C331 C330 1.366 . S
C331 C332 1.414 . S
C331 C334 1.499 . S
C332 H312 0.950 . S
C332 C331 1.414 . S
C332 C333 1.374 . S
C333 H313 0.950 . S
C333 C329 1.385 . S
C333 C332 1.374 . S
C334 C331 1.499 . S
C334 C335 1.373 1_655 S
C334 C336 1.389 1_545 S
C335 H314 0.950 . S
C335 C334 1.373 1_455 S
C335 C351 1.377 . S
C336 C334 1.389 1_565 S
C336 C337 1.524 . S
C336 C350 1.377 . S
C337 C336 1.524 . S
C337 C338 1.397 1_565 S
C337 C342 1.363 . S
C338 H315 0.950 . S
C338 C337 1.397 1_545 S
C338 C339 1.334 1_545 S
C339 H316 0.950 1_565 S
C339 C338 1.334 1_565 S
C339 C340 1.287 . S
C340 C339 1.287 . S
C340 C341 1.524 . S
C340 H359 0.913 . S
C341 H317 0.950 . S
C341 C340 1.524 . S
C341 C342 1.415 . S
C342 H318 0.950 . S
C342 C337 1.363 . S
C342 C341 1.415 . S
C343 H319 0.951 . S
C343 C344 1.366 . S
C343 C345 1.388 . S
C344 C343 1.366 . S
C344 C348 1.385 . S
C345 H320 0.951 . S
C345 C343 1.388 . S
C345 C346 1.366 . S
C346 C345 1.366 . S
C346 C347 1.414 . S
C346 C349 1.499 . S
C347 H321 0.950 . S
C347 C346 1.414 . S
C347 C348 1.374 . S
C348 H322 0.950 . S
C348 C344 1.385 . S
C348 C347 1.374 . S
C349 C346 1.499 . S
C349 C350 1.373 1_455 S
C349 C351 1.389 1_565 S
C350 H323 0.950 . S
C350 C336 1.377 . S
C350 C349 1.373 1_655 S
C351 C335 1.377 . S
C351 C349 1.389 1_545 S
C351 C352 1.524 . S
C352 C351 1.524 . S
C352 C353 1.397 1_545 S
C352 C357 1.363 . S
C353 H324 0.950 . S
C353 C352 1.397 1_565 S
C353 C354 1.334 1_565 S
C354 H325 0.950 1_545 S
C354 C353 1.334 1_545 S
C354 C355 1.287 . S
C355 C354 1.287 . S
C355 C356 1.524 . S
C355 H358 0.999 . S
C356 H326 0.950 . S
C356 C355 1.524 . S
C356 C357 1.415 . S
C357 H327 0.950 . S
C357 C352 1.363 . S
C357 C356 1.415 . S
H358 C355 0.999 . S
H359 C340 0.913 . S
H360 C378 0.951 . S
H361 C380 0.951 . S
H362 C382 0.950 . S
H363 C383 0.950 . S
H364 C385 0.950 . S
H365 C388 0.950 . S
H366 C389 0.950 . S
H367 C391 0.950 . S
H368 C392 0.950 . S
H369 C393 0.951 . S
H370 C395 0.951 . S
H371 C397 0.950 . S
H372 C398 0.950 . S
H373 C400 0.950 . S
H374 C403 0.950 . S
H375 C404 0.950 . S
H376 C406 0.950 . S
H377 C407 0.950 . S
C378 H360 0.951 . S
C378 C379 1.366 . S
C378 C380 1.388 . S
C379 C378 1.366 . S
C379 C383 1.385 . S
C380 H361 0.951 . S
C380 C378 1.388 . S
C380 C381 1.366 . S
C381 C380 1.366 . S
C381 C382 1.414 . S
C381 C384 1.499 . S
C382 H362 0.950 . S
C382 C381 1.414 . S
C382 C383 1.374 . S
C383 H363 0.950 . S
C383 C379 1.385 . S
C383 C382 1.374 . S
C384 C381 1.499 . S
C384 C385 1.373 . S
C384 C386 1.389 . S
C385 H364 0.950 . S
C385 C384 1.373 . S
C385 C401 1.377 . S
C386 C384 1.389 . S
C386 C387 1.524 . S
C386 C400 1.377 . S
C387 C386 1.524 . S
C387 C388 1.397 . S
C387 C392 1.363 . S
C388 H365 0.950 . S
C388 C387 1.397 . S
C388 C389 1.334 . S
C389 H366 0.950 . S
C389 C388 1.334 . S
C389 C390 1.287 . S
C390 C389 1.287 . S
C390 C391 1.524 . S
C390 H409 0.913 . S
C391 H367 0.950 . S
C391 C390 1.524 . S
C391 C392 1.415 . S
C392 H368 0.950 . S
C392 C387 1.363 . S
C392 C391 1.415 . S
C393 H369 0.951 . S
C393 C394 1.366 . S
C393 C395 1.388 . S
C394 C393 1.366 . S
C394 C398 1.385 . S
C395 H370 0.951 . S
C395 C393 1.388 . S
C395 C396 1.366 . S
C396 C395 1.366 . S
C396 C397 1.414 . S
C396 C399 1.499 . S
C397 H371 0.950 . S
C397 C396 1.414 . S
C397 C398 1.374 . S
C398 H372 0.950 . S
C398 C394 1.385 . S
C398 C397 1.374 . S
C399 C396 1.499 . S
C399 C400 1.373 . S
C399 C401 1.389 . S
C400 H373 0.950 . S
C400 C386 1.377 . S
C400 C399 1.373 . S
C401 C385 1.377 . S
C401 C399 1.389 . S
C401 C402 1.524 . S
C402 C401 1.524 . S
C402 C403 1.397 . S
C402 C407 1.363 . S
C403 H374 0.950 . S
C403 C402 1.397 . S
C403 C404 1.334 . S
C404 H375 0.950 . S
C404 C403 1.334 . S
C404 C405 1.287 . S
C405 C404 1.287 . S
C405 C406 1.524 . S
C405 H408 0.999 . S
C406 H376 0.950 . S
C406 C405 1.524 . S
C406 C407 1.415 . S
C407 H377 0.950 . S
C407 C402 1.363 . S
C407 C406 1.415 . S
H408 C405 0.999 . S
H409 C390 0.913 . S
H410 C428 0.951 . S
H411 C430 0.951 . S
H412 C432 0.950 . S
H413 C433 0.950 . S
H414 C435 0.950 . S
H415 C438 0.950 . S
H416 C439 0.950 . S
H417 C441 0.950 . S
H418 C442 0.950 . S
H419 C443 0.951 . S
H420 C445 0.951 . S
H421 C447 0.950 . S
H422 C448 0.950 . S
H423 C450 0.950 . S
H424 C453 0.950 . S
H425 C454 0.950 . S
H426 C456 0.950 . S
H427 C457 0.950 . S
C428 H410 0.951 . S
C428 C429 1.366 . S
C428 C430 1.388 . S
C429 C428 1.366 . S
C429 C433 1.385 . S
C430 H411 0.951 . S
C430 C428 1.388 . S
C430 C431 1.366 . S
C431 C430 1.366 . S
C431 C432 1.414 . S
C431 C434 1.499 . S
C432 H412 0.950 . S
C432 C431 1.414 . S
C432 C433 1.374 . S
C433 H413 0.950 . S
C433 C429 1.385 . S
C433 C432 1.374 . S
C434 C431 1.499 . S
C434 C435 1.373 . S
C434 C436 1.389 . S
C435 H414 0.950 . S
C435 C434 1.373 . S
C435 C451 1.377 . S
C436 C434 1.389 . S
C436 C437 1.524 . S
C436 C450 1.377 . S
C437 C436 1.524 . S
C437 C438 1.397 . S
C437 C442 1.363 . S
C438 H415 0.950 . S
C438 C437 1.397 . S
C438 C439 1.334 . S
C439 H416 0.950 . S
C439 C438 1.334 . S
C439 C440 1.287 . S
C440 C439 1.287 . S
C440 C441 1.524 . S
C440 H459 0.913 . S
C441 H417 0.950 . S
C441 C440 1.524 . S
C441 C442 1.415 . S
C442 H418 0.950 . S
C442 C437 1.363 . S
C442 C441 1.415 . S
C443 H419 0.951 . S
C443 C444 1.366 . S
C443 C445 1.388 . S
C444 C443 1.366 . S
C444 C448 1.385 . S
C445 H420 0.951 . S
C445 C443 1.388 . S
C445 C446 1.366 . S
C446 C445 1.366 . S
C446 C447 1.414 . S
C446 C449 1.499 . S
C447 H421 0.950 . S
C447 C446 1.414 . S
C447 C448 1.374 . S
C448 H422 0.950 . S
C448 C444 1.385 . S
C448 C447 1.374 . S
C449 C446 1.499 . S
C449 C450 1.373 . S
C449 C451 1.389 . S
C450 H423 0.950 . S
C450 C436 1.377 . S
C450 C449 1.373 . S
C451 C435 1.377 . S
C451 C449 1.389 . S
C451 C452 1.524 . S
C452 C451 1.524 . S
C452 C453 1.397 . S
C452 C457 1.363 . S
C453 H424 0.950 . S
C453 C452 1.397 . S
C453 C454 1.334 . S
C454 H425 0.950 . S
C454 C453 1.334 . S
C454 C455 1.287 . S
C455 C454 1.287 . S
C455 C456 1.524 . S
C455 H458 0.999 . S
C456 H426 0.950 . S
C456 C455 1.524 . S
C456 C457 1.415 . S
C457 H427 0.950 . S
C457 C452 1.363 . S
C457 C456 1.415 . S
H458 C455 0.999 . S
H459 C440 0.913 . S
H460 C478 0.951 . S
H461 C480 0.951 . S
H462 C482 0.950 . S
H463 C483 0.950 . S
H464 C485 0.950 . S
H465 C488 0.950 . S
H466 C489 0.950 . S
H467 C491 0.950 . S
H468 C492 0.950 . S
H469 C493 0.951 . S
H470 C495 0.951 . S
H471 C497 0.950 . S
H472 C498 0.950 . S
H473 C500 0.950 . S
H474 C503 0.950 . S
H475 C504 0.950 . S
H476 C506 0.950 . S
H477 C507 0.950 . S
C478 H460 0.951 . S
C478 C479 1.366 . S
C478 C480 1.388 . S
C479 C478 1.366 . S
C479 C483 1.385 . S
C480 H461 0.951 . S
C480 C478 1.388 . S
C480 C481 1.366 . S
C481 C480 1.366 . S
C481 C482 1.414 . S
C481 C484 1.499 . S
C482 H462 0.950 . S
C482 C481 1.414 . S
C482 C483 1.374 . S
C483 H463 0.950 . S
C483 C479 1.385 . S
C483 C482 1.374 . S
C484 C481 1.499 . S
C484 C485 1.373 . S
C484 C486 1.389 . S
C485 H464 0.950 . S
C485 C484 1.373 . S
C485 C501 1.377 . S
C486 C484 1.389 . S
C486 C487 1.524 . S
C486 C500 1.377 . S
C487 C486 1.524 . S
C487 C488 1.397 . S
C487 C492 1.363 . S
C488 H465 0.950 . S
C488 C487 1.397 . S
C488 C489 1.334 . S
C489 H466 0.950 . S
C489 C488 1.334 . S
C489 C490 1.287 . S
C490 C489 1.287 . S
C490 C491 1.524 . S
C490 H509 0.913 . S
C491 H467 0.950 . S
C491 C490 1.524 . S
C491 C492 1.415 . S
C492 H468 0.950 . S
C492 C487 1.363 . S
C492 C491 1.415 . S
C493 H469 0.951 . S
C493 C494 1.366 . S
C493 C495 1.388 . S
C494 C493 1.366 . S
C494 C498 1.385 . S
C495 H470 0.951 . S
C495 C493 1.388 . S
C495 C496 1.366 . S
C496 C495 1.366 . S
C496 C497 1.414 . S
C496 C499 1.499 . S
C497 H471 0.950 . S
C497 C496 1.414 . S
C497 C498 1.374 . S
C498 H472 0.950 . S
C498 C494 1.385 . S
C498 C497 1.374 . S
C499 C496 1.499 . S
C499 C500 1.373 . S
C499 C501 1.389 . S
C500 H473 0.950 . S
C500 C486 1.377 . S
C500 C499 1.373 . S
C501 C485 1.377 . S
C501 C499 1.389 . S
C501 C502 1.524 . S
C502 C501 1.524 . S
C502 C503 1.397 . S
C502 C507 1.363 . S
C503 H474 0.950 . S
C503 C502 1.397 . S
C503 C504 1.334 . S
C504 H475 0.950 . S
C504 C503 1.334 . S
C504 C505 1.287 . S
C505 C504 1.287 . S
C505 C506 1.524 . S
C505 H508 0.999 . S
C506 H476 0.950 . S
C506 C505 1.524 . S
C506 C507 1.415 . S
C507 H477 0.950 . S
C507 C502 1.363 . S
C507 C506 1.415 . S
H508 C505 0.999 . S
H509 C490 0.913 . S
H510 C528 0.951 . S
H511 C530 0.951 . S
H512 C532 0.950 . S
H513 C533 0.950 . S
H514 C535 0.950 . S
H515 C538 0.950 . S
H516 C539 0.950 . S
H517 C541 0.950 . S
H518 C542 0.950 . S
H519 C543 0.951 . S
H520 C545 0.951 . S
H521 C547 0.950 . S
H522 C548 0.950 . S
H523 C550 0.950 . S
H524 C553 0.950 . S
H525 C554 0.950 . S
H526 C556 0.950 . S
H527 C557 0.950 . S
C528 H510 0.951 . S
C528 C529 1.366 . S
C528 C530 1.388 . S
C529 C528 1.366 . S
C529 C533 1.385 . S
C530 H511 0.951 . S
C530 C528 1.388 . S
C530 C531 1.366 . S
C531 C530 1.366 . S
C531 C532 1.414 . S
C531 C534 1.499 . S
C532 H512 0.950 . S
C532 C531 1.414 . S
C532 C533 1.374 . S
C533 H513 0.950 . S
C533 C529 1.385 . S
C533 C532 1.374 . S
C534 C531 1.499 . S
C534 C535 1.373 . S
C534 C536 1.389 . S
C535 H514 0.950 . S
C535 C534 1.373 . S
C535 C551 1.377 . S
C536 C534 1.389 . S
C536 C537 1.524 . S
C536 C550 1.377 . S
C537 C536 1.524 . S
C537 C538 1.397 . S
C537 C542 1.363 . S
C538 H515 0.950 . S
C538 C537 1.397 . S
C538 C539 1.334 . S
C539 H516 0.950 . S
C539 C538 1.334 . S
C539 C540 1.287 . S
C540 C539 1.287 . S
C540 C541 1.524 . S
C540 H559 0.913 . S
C541 H517 0.950 . S
C541 C540 1.524 . S
C541 C542 1.415 . S
C542 H518 0.950 . S
C542 C537 1.363 . S
C542 C541 1.415 . S
C543 H519 0.951 . S
C543 C544 1.366 . S
C543 C545 1.388 . S
C544 C543 1.366 . S
C544 C548 1.385 . S
C545 H520 0.951 . S
C545 C543 1.388 . S
C545 C546 1.366 . S
C546 C545 1.366 . S
C546 C547 1.414 . S
C546 C549 1.499 . S
C547 H521 0.950 . S
C547 C546 1.414 . S
C547 C548 1.374 . S
C548 H522 0.950 . S
C548 C544 1.385 . S
C548 C547 1.374 . S
C549 C546 1.499 . S
C549 C550 1.373 . S
C549 C551 1.389 . S
C550 H523 0.950 . S
C550 C536 1.377 . S
C550 C549 1.373 . S
C551 C535 1.377 . S
C551 C549 1.389 . S
C551 C552 1.524 . S
C552 C551 1.524 . S
C552 C553 1.397 . S
C552 C557 1.363 . S
C553 H524 0.950 . S
C553 C552 1.397 . S
C553 C554 1.334 . S
C554 H525 0.950 . S
C554 C553 1.334 . S
C554 C555 1.287 . S
C555 C554 1.287 . S
C555 C556 1.524 . S
C555 H558 0.999 . S
C556 H526 0.950 . S
C556 C555 1.524 . S
C556 C557 1.415 . S
C557 H527 0.950 . S
C557 C552 1.363 . S
C557 C556 1.415 . S
H558 C555 0.999 . S
H559 C540 0.913 . S
H560 C578 0.951 . S
H561 C580 0.951 . S
H562 C582 0.950 . S
H563 C583 0.950 . S
H564 C585 0.950 . S
H565 C588 0.950 . S
H566 C589 0.950 1_655 S
H567 C591 0.950 . S
H568 C592 0.950 . S
H569 C593 0.951 . S
H570 C595 0.951 . S
H571 C597 0.950 . S
H572 C598 0.950 . S
H573 C600 0.950 1_455 S
H574 C603 0.950 . S
H575 C604 0.950 . S
H576 C606 0.950 . S
H577 C607 0.950 . S
C578 H560 0.951 . S
C578 C579 1.366 . S
C578 C580 1.388 . S
C579 C578 1.366 . S
C579 C583 1.385 . S
C580 H561 0.951 . S
C580 C578 1.388 . S
C580 C581 1.366 . S
C581 C580 1.366 . S
C581 C582 1.414 . S
C581 C584 1.499 . S
C582 H562 0.950 . S
C582 C581 1.414 . S
C582 C583 1.374 . S
C583 H563 0.950 . S
C583 C579 1.385 . S
C583 C582 1.374 . S
C584 C581 1.499 . S
C584 C585 1.373 . S
C584 C586 1.389 . S
C585 H564 0.950 . S
C585 C584 1.373 . S
C585 C601 1.377 . S
C586 C584 1.389 . S
C586 C587 1.524 1_655 S
C586 C600 1.377 . S
C587 C586 1.524 1_455 S
C587 C588 1.397 1_455 S
C587 C592 1.363 . S
C588 H565 0.950 . S
C588 C587 1.397 1_655 S
C588 C589 1.334 1_655 S
C589 H566 0.950 1_455 S
C589 C588 1.334 1_455 S
C589 C590 1.287 . S
C590 C589 1.287 . S
C590 C591 1.524 . S
C590 H609 0.913 . S
C591 H567 0.950 . S
C591 C590 1.524 . S
C591 C592 1.415 . S
C592 H568 0.950 . S
C592 C587 1.363 . S
C592 C591 1.415 . S
C593 H569 0.951 . S
C593 C594 1.366 1_655 S
C593 C595 1.388 . S
C594 C593 1.366 1_455 S
C594 C598 1.385 . S
C595 H570 0.951 . S
C595 C593 1.388 . S
C595 C596 1.366 . S
C596 C595 1.366 . S
C596 C597 1.414 1_655 S
C596 C599 1.499 . S
C597 H571 0.950 . S
C597 C596 1.414 1_455 S
C597 C598 1.374 . S
C598 H572 0.950 . S
C598 C594 1.385 . S
C598 C597 1.374 . S
C599 C596 1.499 . S
C599 C600 1.373 . S
C599 C601 1.389 . S
C600 H573 0.950 1_655 S
C600 C586 1.377 . S
C600 C599 1.373 . S
C601 C585 1.377 . S
C601 C599 1.389 . S
C601 C602 1.524 . S
C602 C601 1.524 . S
C602 C603 1.397 . S
C602 C607 1.363 . S
C603 H574 0.950 . S
C603 C602 1.397 . S
C603 C604 1.334 . S
C604 H575 0.950 . S
C604 C603 1.334 . S
C604 C605 1.287 . S
C605 C604 1.287 . S
C605 C606 1.524 . S
C605 H608 0.999 . S
C606 H576 0.950 . S
C606 C605 1.524 . S
C606 C607 1.415 . S
C607 H577 0.950 . S
C607 C602 1.363 . S
C607 C606 1.415 . S
H608 C605 0.999 . S
H609 C590 0.913 . S
H610 C628 0.951 . S
H611 C630 0.951 . S
H612 C632 0.950 . S
H613 C633 0.950 . S
H614 C635 0.950 . S
H615 C638 0.950 . S
H616 C639 0.950 . S
H617 C641 0.950 . S
H618 C642 0.950 . S
H619 C643 0.951 . S
H620 C645 0.951 . S
H621 C647 0.950 . S
H622 C648 0.950 . S
H623 C650 0.950 . S
H624 C653 0.950 . S
H625 C654 0.950 . S
H626 C656 0.950 . S
H627 C657 0.950 . S
C628 H610 0.951 . S
C628 C629 1.366 . S
C628 C630 1.388 . S
C629 C628 1.366 . S
C629 C633 1.385 . S
C630 H611 0.951 . S
C630 C628 1.388 . S
C630 C631 1.366 . S
C631 C630 1.366 . S
C631 C632 1.414 . S
C631 C634 1.499 . S
C632 H612 0.950 . S
C632 C631 1.414 . S
C632 C633 1.374 . S
C633 H613 0.950 . S
C633 C629 1.385 . S
C633 C632 1.374 . S
C634 C631 1.499 . S
C634 C635 1.373 . S
C634 C636 1.389 . S
C635 H614 0.950 . S
C635 C634 1.373 . S
C635 C651 1.377 . S
C636 C634 1.389 . S
C636 C637 1.524 . S
C636 C650 1.377 . S
C637 C636 1.524 . S
C637 C638 1.397 . S
C637 C642 1.363 . S
C638 H615 0.950 . S
C638 C637 1.397 . S
C638 C639 1.334 . S
C639 H616 0.950 . S
C639 C638 1.334 . S
C639 C640 1.287 . S
C640 C639 1.287 . S
C640 C641 1.524 . S
C640 H659 0.913 . S
C641 H617 0.950 . S
C641 C640 1.524 . S
C641 C642 1.415 . S
C642 H618 0.950 . S
C642 C637 1.363 . S
C642 C641 1.415 . S
C643 H619 0.951 . S
C643 C644 1.366 . S
C643 C645 1.388 . S
C644 C643 1.366 . S
C644 C648 1.385 1_455 S
C645 H620 0.951 . S
C645 C643 1.388 . S
C645 C646 1.366 1_455 S
C646 C645 1.366 1_655 S
C646 C647 1.414 . S
C646 C649 1.499 . S
C647 H621 0.950 . S
C647 C646 1.414 . S
C647 C648 1.374 . S
C648 H622 0.950 . S
C648 C644 1.385 1_655 S
C648 C647 1.374 . S
C649 C646 1.499 . S
C649 C650 1.373 . S
C649 C651 1.389 . S
C650 H623 0.950 . S
C650 C636 1.377 . S
C650 C649 1.373 . S
C651 C635 1.377 . S
C651 C649 1.389 . S
C651 C652 1.524 . S
C652 C651 1.524 . S
C652 C653 1.397 . S
C652 C657 1.363 1_655 S
C653 H624 0.950 . S
C653 C652 1.397 . S
C653 C654 1.334 . S
C654 H625 0.950 . S
C654 C653 1.334 . S
C654 C655 1.287 1_655 S
C655 C654 1.287 1_455 S
C655 C656 1.524 . S
C655 H658 0.999 . S
C656 H626 0.950 . S
C656 C655 1.524 . S
C656 C657 1.415 . S
C657 H627 0.950 . S
C657 C652 1.363 1_455 S
C657 C656 1.415 . S
H658 C655 0.999 . S
H659 C640 0.913 . S
H660 C678 0.950 1_655 S
H661 C680 0.951 . S
H662 C682 0.950 . S
H663 C683 0.951 . S
H664 C685 0.950 1_655 S
H665 C688 0.950 . S
H666 C689 0.950 . S
H667 C691 0.950 . S
H668 C692 0.950 . S
H669 C693 0.951 . S
H670 C695 0.951 . S
H671 C697 0.950 . S
H672 C698 0.950 . S
H673 C700 0.950 . S
H674 C703 0.950 . S
H675 C704 0.950 . S
H676 C706 0.950 . S
H677 C707 0.950 . S
C678 H660 0.950 1_455 S
C678 C679 1.365 1_455 S
C678 C680 1.389 . S
C679 C678 1.365 1_655 S
C679 C683 1.386 . S
C680 H661 0.951 . S
C680 C678 1.389 . S
C680 C681 1.366 . S
C681 C680 1.366 . S
C681 C682 1.414 . S
C681 C684 1.499 . S
C682 H662 0.950 . S
C682 C681 1.414 . S
C682 C683 1.371 1_455 S
C683 H663 0.951 . S
C683 C679 1.386 . S
C683 C682 1.371 1_655 S
C684 C681 1.499 . S
C684 C685 1.373 . S
C684 C686 1.389 . S
C685 H664 0.950 1_455 S
C685 C684 1.373 . S
C685 C701 1.377 . S
C686 C684 1.389 . S
C686 C687 1.524 . S
C686 C700 1.377 . S
C687 C686 1.524 . S
C687 C688 1.397 . S
C687 C692 1.363 . S
C688 H665 0.950 . S
C688 C687 1.397 . S
C688 C689 1.334 . S
C689 H666 0.950 . S
C689 C688 1.334 . S
C689 C690 1.287 . S
C690 C689 1.287 . S
C690 C691 1.524 . S
C690 H709 0.913 . S
C691 H667 0.950 . S
C691 C690 1.524 . S
C691 C692 1.415 . S
C692 H668 0.950 . S
C692 C687 1.363 . S
C692 C691 1.415 . S
C693 H669 0.951 . S
C693 C694 1.366 . S
C693 C695 1.388 . S
C694 C693 1.366 . S
C694 C698 1.385 . S
C695 H670 0.951 . S
C695 C693 1.388 . S
C695 C696 1.366 . S
C696 C695 1.366 . S
C696 C697 1.414 . S
C696 C699 1.499 . S
C697 H671 0.950 . S
C697 C696 1.414 . S
C697 C698 1.374 . S
C698 H672 0.950 . S
C698 C694 1.385 . S
C698 C697 1.374 . S
C699 C696 1.499 . S
C699 C700 1.373 . S
C699 C701 1.389 . S
C700 H673 0.950 . S
C700 C686 1.377 . S
C700 C699 1.373 . S
C701 C685 1.377 . S
C701 C699 1.389 . S
C701 C702 1.524 1_455 S
C702 C701 1.524 1_655 S
C702 C703 1.397 . S
C702 C707 1.363 . S
C703 H674 0.950 . S
C703 C702 1.397 . S
C703 C704 1.334 . S
C704 H675 0.950 . S
C704 C703 1.334 . S
C704 C705 1.287 . S
C705 C704 1.287 . S
C705 C706 1.524 . S
C705 H708 0.999 . S
C706 H676 0.950 . S
C706 C705 1.524 . S
C706 C707 1.415 . S
C707 H677 0.950 . S
C707 C702 1.363 . S
C707 C706 1.415 . S
H708 C705 0.999 . S
H709 C690 0.913 . S
H710 C728 0.951 . S
H711 C730 0.951 . S
H712 C732 0.950 . S
H713 C733 0.950 . S
H714 C735 0.950 . S
H715 C738 0.950 . S
H716 C739 0.950 . S
H717 C741 0.950 . S
H718 C742 0.950 . S
H719 C743 0.951 . S
H720 C745 0.951 . S
H721 C747 0.950 . S
H722 C748 0.950 . S
H723 C750 0.950 . S
H724 C753 0.950 . S
H725 C754 0.950 . S
H726 C756 0.951 . S
H727 C757 0.950 1_655 S
C728 H710 0.951 . S
C728 C729 1.366 . S
C728 C730 1.388 . S
C729 C728 1.366 . S
C729 C733 1.385 . S
C730 H711 0.951 . S
C730 C728 1.388 . S
C730 C731 1.366 . S
C731 C730 1.366 . S
C731 C732 1.414 . S
C731 C734 1.499 . S
C732 H712 0.950 . S
C732 C731 1.414 . S
C732 C733 1.374 . S
C733 H713 0.950 . S
C733 C729 1.385 . S
C733 C732 1.374 . S
C734 C731 1.499 . S
C734 C735 1.373 . S
C734 C736 1.389 . S
C735 H714 0.950 . S
C735 C734 1.373 . S
C735 C751 1.377 . S
C736 C734 1.389 . S
C736 C737 1.524 . S
C736 C750 1.377 . S
C737 C736 1.524 . S
C737 C738 1.397 . S
C737 C742 1.363 . S
C738 H715 0.950 . S
C738 C737 1.397 . S
C738 C739 1.334 . S
C739 H716 0.950 . S
C739 C738 1.334 . S
C739 C740 1.287 . S
C740 C739 1.287 . S
C740 C741 1.524 . S
C740 H759 0.913 . S
C741 H717 0.950 . S
C741 C740 1.524 . S
C741 C742 1.415 . S
C742 H718 0.950 . S
C742 C737 1.363 . S
C742 C741 1.415 . S
C743 H719 0.951 . S
C743 C744 1.366 . S
C743 C745 1.388 . S
C744 C743 1.366 . S
C744 C748 1.385 1_655 S
C745 H720 0.951 . S
C745 C743 1.388 . S
C745 C746 1.366 1_655 S
C746 C745 1.366 1_455 S
C746 C747 1.414 . S
C746 C749 1.499 . S
C747 H721 0.950 . S
C747 C746 1.414 . S
C747 C748 1.374 . S
C748 H722 0.950 . S
C748 C744 1.385 1_455 S
C748 C747 1.374 . S
C749 C746 1.499 . S
C749 C750 1.373 . S
C749 C751 1.389 . S
C750 H723 0.950 . S
C750 C736 1.377 . S
C750 C749 1.373 . S
C751 C735 1.377 . S
C751 C749 1.389 . S
C751 C752 1.524 . S
C752 C751 1.524 . S
C752 C753 1.397 . S
C752 C757 1.363 . S
C753 H724 0.950 . S
C753 C752 1.397 . S
C753 C754 1.334 . S
C754 H725 0.950 . S
C754 C753 1.334 . S
C754 C755 1.287 . S
C755 C754 1.287 . S
C755 C756 1.523 1_455 S
C755 H758 0.999 . S
C756 H726 0.951 . S
C756 C755 1.523 1_655 S
C756 C757 1.415 1_655 S
C757 H727 0.950 1_455 S
C757 C752 1.363 . S
C757 C756 1.415 1_455 S
H758 C755 0.999 . S
H759 C740 0.913 . S
C179 C63 1.536 . S
C194 C2 1.544 . S
C229 C82 1.532 . S
C244 C143 1.532 . S
C279 C23 1.536 . S
C294 C42 1.544 . S
C329 C122 1.532 . S
C344 C103 1.532 . S
C379 C146 1.085 . S
C394 C13 1.102 . S
C429 C66 1.084 . S
C444 C93 1.102 . S
C479 C64 1.102 . S
C494 C97 1.085 . S
C529 C144 1.102 . S
C544 C17 1.085 . S
C579 C53 1.102 . S
C594 C106 1.085 . S
C629 C133 1.102 . S
C644 C26 1.084 . S
C679 C137 1.084 . S
C694 C24 1.102 . S
C729 C104 1.102 . S
C744 C57 1.085 . S
