# Generated by pormake.
# Topology wjf, (4)-cn, num edge types: 1
# Building blocks:
#     Node 0, Type 0, BuildingBlock: QUQFOY_clean_sbu_1, # of connection points: 4
#     Node 1, Type 0, BuildingBlock: QUQFOY_clean_sbu_1, # of connection points: 4
#     Node 2, Type 0, BuildingBlock: QUQFOY_clean_sbu_1, # of connection points: 4
#     Node 3, Type 0, BuildingBlock: QUQFOY_clean_sbu_1, # of connection points: 4
#     Node 4, Type 0, BuildingBlock: QUQFOY_clean_sbu_1, # of connection points: 4
#     Node 5, Type 0, BuildingBlock: QUQFOY_clean_sbu_1, # of connection points: 4
#     Node 6, Type 0, BuildingBlock: QUQFOY_clean_sbu_1, # of connection points: 4
#     Node 7, Type 0, BuildingBlock: QUQFOY_clean_sbu_1, # of connection points: 4
#     Node 8, Type 0, BuildingBlock: QUQFOY_clean_sbu_1, # of connection points: 4
#     Node 9, Type 0, BuildingBlock: QUQFOY_clean_sbu_1, # of connection points: 4
#     Node 10, Type 0, BuildingBlock: QUQFOY_clean_sbu_1, # of connection points: 4
#     Node 11, Type 0, BuildingBlock: QUQFOY_clean_sbu_1, # of connection points: 4
#     Edge 12, Type (0, 0), BuildingBlock: CIFDUS_clean_linker_0, # of connection points: 2
#     Edge 13, Type (0, 0), BuildingBlock: CIFDUS_clean_linker_0, # of connection points: 2
#     Edge 14, Type (0, 0), BuildingBlock: CIFDUS_clean_linker_0, # of connection points: 2
#     Edge 15, Type (0, 0), BuildingBlock: CIFDUS_clean_linker_0, # of connection points: 2
#     Edge 16, Type (0, 0), BuildingBlock: CIFDUS_clean_linker_0, # of connection points: 2
#     Edge 17, Type (0, 0), BuildingBlock: CIFDUS_clean_linker_0, # of connection points: 2
#     Edge 18, Type (0, 0), BuildingBlock: CIFDUS_clean_linker_0, # of connection points: 2
#     Edge 19, Type (0, 0), BuildingBlock: CIFDUS_clean_linker_0, # of connection points: 2
#     Edge 20, Type (0, 0), BuildingBlock: CIFDUS_clean_linker_0, # of connection points: 2
#     Edge 21, Type (0, 0), BuildingBlock: CIFDUS_clean_linker_0, # of connection points: 2
#     Edge 22, Type (0, 0), BuildingBlock: CIFDUS_clean_linker_0, # of connection points: 2
#     Edge 23, Type (0, 0), BuildingBlock: CIFDUS_clean_linker_0, # of connection points: 2
#     Edge 24, Type (0, 0), BuildingBlock: CIFDUS_clean_linker_0, # of connection points: 2
#     Edge 25, Type (0, 0), BuildingBlock: CIFDUS_clean_linker_0, # of connection points: 2
#     Edge 26, Type (0, 0), BuildingBlock: CIFDUS_clean_linker_0, # of connection points: 2
#     Edge 27, Type (0, 0), BuildingBlock: CIFDUS_clean_linker_0, # of connection points: 2
#     Edge 28, Type (0, 0), BuildingBlock: CIFDUS_clean_linker_0, # of connection points: 2
#     Edge 29, Type (0, 0), BuildingBlock: CIFDUS_clean_linker_0, # of connection points: 2
#     Edge 30, Type (0, 0), BuildingBlock: CIFDUS_clean_linker_0, # of connection points: 2
#     Edge 31, Type (0, 0), BuildingBlock: CIFDUS_clean_linker_0, # of connection points: 2
#     Edge 32, Type (0, 0), BuildingBlock: CIFDUS_clean_linker_0, # of connection points: 2
#     Edge 33, Type (0, 0), BuildingBlock: CIFDUS_clean_linker_0, # of connection points: 2
#     Edge 34, Type (0, 0), BuildingBlock: CIFDUS_clean_linker_0, # of connection points: 2
#     Edge 35, Type (0, 0), BuildingBlock: CIFDUS_clean_linker_0, # of connection points: 2
# Relax obj value: 0.017
# Max RMSD: 0.064
# Mean RMSD: 0.064
data_MOF--net-wjf--node1-QUQFOY_clean_sbu_1--edge1-CIFDUS_clean_linker_0
_symmetry_space_group_name_H-M    P1
_symmetry_Int_Tables_number       1
_symmetry_cell_setting            triclinic
loop_
_symmetry_equiv_pos_as_xyz
'x, y, z'
_cell_length_a     47.592354
_cell_length_b     47.346302
_cell_length_c     24.92025
_cell_angle_alpha  90.654338
_cell_angle_beta   89.501472
_cell_angle_gamma 120.13954
loop_
_atom_site_label
_atom_site_type_symbol
_atom_site_fract_x
_atom_site_fract_y
_atom_site_fract_z
_atom_type_partial_charge
O0 O 0.33374 0.38283 1.00813 0.0
Cd1 Cd 0.34172 0.41859 0.06377 0.0
Cd2 Cd 0.35987 0.37849 0.12095 0.0
O3 O 0.34252 0.34872 0.05475 0.0
O4 O 0.3224 0.44143 0.02504 0.0
O5 O 0.30329 0.41649 0.10243 0.0
C6 C 0.30072 0.43207 0.06229 0.0
C7 C 0.34967 0.35478 0.20562 0.0
C8 C 0.33421 0.35632 1.01149 0.0
C9 C 0.41136 0.44879 0.09792 0.0
O10 O 0.40428 0.4205 0.11352 0.0
O11 O 0.38944 0.454 0.07986 0.0
O12 O 0.36914 0.35236 0.1722 0.0
O13 O 0.33496 0.36997 0.19026 0.0
O14 O 0.95885 0.3367 0.3231 0.0
Cd15 Cd 0.93534 0.34816 0.38171 0.0
Cd16 Cd 0.9881 0.35478 0.43547 0.0
O17 O 0.99681 0.33415 0.3692 0.0
O18 O 0.89257 0.3328 0.3462 0.0
O19 O 0.89806 0.31116 0.42083 0.0
C20 C 0.87972 0.3106 0.3824 0.0
C21 C 0.98792 0.33752 0.52244 0.0
C22 C 0.98197 0.33066 0.32539 0.0
C23 C 0.98386 0.41546 0.41842 0.0
O24 O 1.00146 0.40323 0.42989 0.0
O25 O 0.95476 0.39717 0.40243 0.0
O26 O 0.01457 0.35345 0.49553 0.0
O27 O 0.96092 0.32967 0.49853 0.0
O28 O 0.62907 0.95606 0.6655 0.0
Cd29 Cd 0.59437 0.93393 0.72408 0.0
Cd30 Cd 0.64405 0.99286 0.77302 0.0
O31 O 0.671 0.99827 0.70375 0.0
O32 O 0.5643 0.89448 0.68088 0.0
O33 O 0.58881 0.89168 0.75361 0.0
C34 C 0.57116 0.87734 0.71202 0.0
C35 C 0.66057 0.99371 0.86173 0.0
C36 C 0.65793 0.97992 0.663 0.0
C37 C 0.57761 0.98517 0.75691 0.0
O38 O 0.60774 1.00417 0.7656 0.0
O39 O 0.56672 0.9552 0.74496 0.0
O40 O 0.67183 0.02022 0.83428 0.0
O41 O 0.64162 0.96638 0.83738 0.0
O42 O 0.68214 0.62277 1.00417 0.0
Cd43 Cd 0.67357 0.59269 0.06838 0.0
Cd44 Cd 0.65774 0.63782 0.10866 0.0
O45 O 0.67794 0.66369 0.03813 0.0
O46 O 0.6899 0.56507 0.03528 0.0
O47 O 0.71248 0.59627 0.10668 0.0
C48 C 0.71307 0.57718 0.06979 0.0
C49 C 0.67331 0.65612 0.19707 0.0
C50 C 0.68443 0.65047 0.99879 0.0
C51 C 0.6039 0.56817 0.09774 0.0
O52 O 0.61151 0.59796 0.10216 0.0
O53 O 0.62571 0.56055 0.08936 0.0
O54 O 0.65661 0.66544 0.16941 0.0
O55 O 0.68325 0.63834 0.17297 0.0
O56 O 0.06846 0.68495 0.34377 0.0
Cd57 Cd 0.08675 0.67239 0.40767 0.0
Cd58 Cd 0.02981 0.66472 0.44837 0.0
O59 O 0.02693 0.68714 0.37898 0.0
O60 O 0.13089 0.68636 0.37809 0.0
O61 O 0.1228 0.70922 0.44989 0.0
C62 C 0.14252 0.70911 0.41405 0.0
C63 C 0.03014 0.68142 0.5372 0.0
C64 C 0.04559 0.69119 0.3393 0.0
C65 C 0.03487 0.60427 0.43305 0.0
O66 O 0.01643 0.61626 0.43975 0.0
O67 O 0.06521 0.62293 0.42481 0.0
O68 O 1.00361 0.66732 0.50962 0.0
O69 O 0.05691 0.68818 0.51285 0.0
O70 O 0.37984 0.05294 0.67113 0.0
Cd71 Cd 0.41489 0.077 0.72886 0.0
Cd72 Cd 0.36937 0.02073 0.78189 0.0
O73 O 0.34036 0.0128 0.71673 0.0
O74 O 0.44131 0.12044 0.69404 0.0
O75 O 0.41465 0.11372 0.77031 0.0
C76 C 0.43196 0.1327 0.73179 0.0
C77 C 0.34782 0.01096 0.86834 0.0
C78 C 0.35113 0.02867 0.67354 0.0
C79 C 0.43611 0.02979 0.75934 0.0
O80 O 0.40653 0.01086 0.77187 0.0
O81 O 0.44585 0.05906 0.74516 0.0
O82 O 0.34067 0.98742 0.83483 0.0
O83 O 0.36616 0.04051 0.85176 0.0
O84 O 0.62175 0.68387 0.70725 0.0
Cd85 Cd 0.5875 0.67358 0.64922 0.0
Cd86 Cd 0.63392 0.65879 0.60011 0.0
O87 O 0.66123 0.67904 0.66938 0.0
O88 O 0.55949 0.68506 0.69382 0.0
O89 O 0.58456 0.71201 0.62071 0.0
C90 C 0.56748 0.70947 0.66282 0.0
C91 C 0.65179 0.67411 0.51143 0.0
C92 C 0.64944 0.68618 0.7099 0.0
C93 C 0.56494 0.60374 0.61671 0.0
O94 O 0.59452 0.61229 0.60792 0.0
O95 O 0.55677 0.62492 0.62848 0.0
O96 O 0.66072 0.65699 0.53886 0.0
O97 O 0.63436 0.68433 0.53568 0.0
O98 O 0.95232 0.629 0.04301 0.0
Cd99 Cd 0.93029 0.59715 0.98001 0.0
Cd100 Cd 0.99152 0.64189 0.93854 0.0
O101 O 0.99817 0.66831 1.00917 0.0
O102 O 0.88702 0.56962 1.01455 0.0
O103 O 0.89379 0.59881 0.94204 0.0
C104 C 0.87492 0.58031 0.97968 0.0
C105 C 0.99396 0.66092 0.85137 0.0
C106 C 0.97826 0.65634 0.04816 0.0
C107 C 0.97527 0.57208 0.94935 0.0
O108 O 0.99743 0.6017 0.94347 0.0
O109 O 0.94614 0.56484 0.95956 0.0
O110 O 0.02008 0.66943 0.8785 0.0
O111 O 0.96634 0.64324 0.87525 0.0
O112 O 0.33449 0.9525 0.38112 0.0
Cd113 Cd 0.34477 0.92518 0.32799 0.0
Cd114 Cd 0.36145 0.9833 0.26766 0.0
O115 O 0.34334 0.99521 0.33341 0.0
O116 O 0.32641 0.88338 0.36861 0.0
O117 O 0.30748 0.88714 0.28996 0.0
C118 C 0.30514 0.86978 0.33119 0.0
C119 C 0.35049 0.99604 0.1831 0.0
C120 C 0.33435 0.97914 0.37665 0.0
C121 C 0.41438 0.96708 0.29208 0.0
O122 O 0.4063 0.98714 0.27481 0.0
O123 O 0.3932 0.9399 0.31208 0.0
O124 O 0.37007 0.0184 0.21584 0.0
O125 O 0.33628 0.9661 0.19898 0.0
O126 O 0.38955 0.33142 0.71748 0.0
Cd127 Cd 0.42444 0.33989 0.66035 0.0
Cd128 Cd 0.3825 0.35546 0.60473 0.0
O129 O 0.35344 0.33706 0.67111 0.0
O130 O 0.4479 0.32017 0.69601 0.0
O131 O 0.4213 0.30136 0.61963 0.0
C132 C 0.4375 0.29842 0.65839 0.0
C133 C 0.35867 0.34421 0.52005 0.0
C134 C 0.36228 0.33009 0.71445 0.0
C135 C 0.45191 0.40937 0.62581 0.0
O136 O 0.42314 0.40106 0.61184 0.0
O137 O 0.45854 0.38813 0.64291 0.0
O138 O 0.35516 0.36306 0.55367 0.0
O139 O 0.37491 0.33058 0.53533 0.0
O140 O 0.05843 0.38461 0.032 0.0
Cd141 Cd 0.08624 0.42073 0.97783 0.0
Cd142 Cd 0.02998 0.38197 0.91958 0.0
O143 O 0.01559 0.35108 0.98395 0.0
O144 O 0.12836 0.4432 1.01715 0.0
O145 O 0.1224 0.41853 0.93877 0.0
C146 C 0.14055 0.43381 0.97947 0.0
C147 C 0.02675 0.3623 0.83252 0.0
C148 C 0.03138 0.35825 0.02754 0.0
C149 C 0.04702 0.45132 0.94448 0.0
O150 O 0.02595 0.42314 0.92752 0.0
O151 O 0.07399 0.45631 0.96309 0.0
O152 O 1.00108 0.35692 0.85878 0.0
O153 O 0.05445 0.37807 0.85666 0.0
O154 O 0.6881 0.07361 0.36872 0.0
Cd155 Cd 0.67761 0.09415 0.3054 0.0
Cd156 Cd 0.66249 0.03328 0.26521 0.0
O157 O 0.68379 0.02846 0.33453 0.0
O158 O 0.69417 0.13864 0.33703 0.0
O159 O 0.71544 0.12965 0.26425 0.0
C160 C 0.71659 0.1497 0.30094 0.0
C161 C 0.6781 0.03115 0.17649 0.0
C162 C 0.69084 0.04845 0.3736 0.0
C163 C 0.60762 0.04692 0.27997 0.0
O164 O 0.61591 0.02539 0.27391 0.0
O165 O 0.62903 0.07675 0.2879 0.0
O166 O 0.66168 1.00486 0.20419 0.0
O167 O 0.68749 0.05884 0.20054 0.0
H168 H 0.31996 0.3657 0.29058 0.0
H169 H 0.37381 0.31799 0.24564 0.0
H170 H 0.37768 0.30656 0.33956 0.0
H171 H 0.37186 0.31629 0.43483 0.0
H172 H 0.31998 0.36602 0.47988 0.0
H173 H 0.3089 0.37002 0.38579 0.0
C174 C 0.33201 0.35227 0.30126 0.0
C175 C 0.34694 0.34312 0.26124 0.0
C176 C 0.33478 0.34637 0.35551 0.0
C177 C 0.36239 0.32564 0.27572 0.0
C178 C 0.36469 0.31913 0.32948 0.0
C179 C 0.3576 0.32743 0.42413 0.0
C180 C 0.34716 0.34121 0.46425 0.0
C181 C 0.35191 0.33033 0.36982 0.0
C182 C 0.32862 0.3555 0.44972 0.0
C183 C 0.32231 0.35789 0.39587 0.0
H184 H 0.04117 0.35388 0.58307 0.0
H185 H 0.93683 0.3094 0.59273 0.0
H186 H 0.93954 0.30977 0.69058 0.0
H187 H 0.97202 0.32893 0.77281 0.0
H188 H 0.07653 0.37537 0.76299 0.0
H189 H 0.07319 0.3677 0.66568 0.0
C190 C 0.01893 0.34374 0.60649 0.0
C191 C 0.98887 0.33201 0.58058 0.0
C192 C 0.02074 0.3447 0.66272 0.0
C193 C 0.96031 0.31875 0.61159 0.0
C194 C 0.96185 0.3191 0.66759 0.0
C195 C 0.99407 0.33697 0.74953 0.0
C196 C 0.02452 0.35312 0.77509 0.0
C197 C 0.99202 0.333 0.69353 0.0
C198 C 0.0528 0.36308 0.74433 0.0
C199 C 0.05092 0.35879 0.68863 0.0
H200 H 0.69482 0.04773 0.92508 0.0
H201 H 0.639 0.94249 0.9312 0.0
H202 H 0.6421 0.94472 0.02909 0.0
H203 H 0.65628 0.97663 0.11326 0.0
H204 H 0.71078 0.08192 0.10703 0.0
H205 H 0.7128 0.0795 1.00921 0.0
C206 C 0.68373 0.02522 0.94771 0.0
C207 C 0.66653 0.99497 0.92054 0.0
C208 C 0.68516 0.02669 1.00421 0.0
C209 C 0.65234 0.96612 0.9508 0.0
C210 C 0.654 0.96738 1.00693 0.0
C211 C 0.66903 0.99908 0.09063 0.0
C212 C 0.68319 0.02944 0.11773 0.0
C213 C 0.66968 0.99754 0.03413 0.0
C214 C 0.69958 0.05821 0.08747 0.0
C215 C 0.70066 0.05685 0.03138 0.0
H216 H 0.65204 0.68942 0.25979 0.0
H217 H 0.70408 0.6367 0.26734 0.0
H218 H 0.7045 0.64012 0.36522 0.0
H219 H 0.68567 0.65354 0.44894 0.0
H220 H 0.63276 0.70537 0.44137 0.0
H221 H 0.6374 0.70707 0.34363 0.0
C222 C 0.66394 0.6791 0.28274 0.0
C223 C 0.67783 0.66263 0.25595 0.0
C224 C 0.66372 0.68076 0.33926 0.0
C225 C 0.69313 0.64946 0.28663 0.0
C226 C 0.69327 0.65129 0.34276 0.0
C227 C 0.67554 0.66563 0.42603 0.0
C228 C 0.65867 0.67911 0.45275 0.0
C229 C 0.67796 0.66619 0.36958 0.0
C230 C 0.64579 0.69471 0.42214 0.0
C231 C 0.64835 0.6956 0.36608 0.0
H232 H 0.04815 0.69277 0.78856 0.0
H233 H 0.94354 0.64531 0.78277 0.0
H234 H 0.94576 0.65055 0.68522 0.0
H235 H 0.97699 0.66368 0.60091 0.0
H236 H 0.08148 0.70957 0.6066 0.0
H237 H 0.07968 0.71018 0.70456 0.0
C238 C 0.02583 0.684 0.76612 0.0
C239 C 0.99569 0.66845 0.79318 0.0
C240 C 0.02724 0.68661 0.70977 0.0
C241 C 0.96707 0.65729 0.7632 0.0
C242 C 0.96831 0.66018 0.70727 0.0
C243 C 0.99944 0.67431 0.62349 0.0
C244 C 0.02933 0.68638 0.59617 0.0
C245 C 0.9982 0.67407 0.68 0.0
C246 C 0.05813 0.70003 0.62634 0.0
C247 C 0.05711 0.70028 0.6825 0.0
H248 H 0.31584 0.95468 0.10149 0.0
H249 H 0.37713 0.05691 0.14037 0.0
H250 H 0.37815 0.07107 0.04641 0.0
H251 H 0.36723 0.05395 0.95204 0.0
H252 H 0.30736 0.95161 0.91277 0.0
H253 H 0.29979 0.93813 1.00788 0.0
C254 C 0.32899 0.98008 0.08954 0.0
C255 C 0.34676 1.00461 0.12778 0.0
C256 C 0.32992 0.98809 0.03521 0.0
C257 C 0.3635 0.03746 0.11167 0.0
C258 C 0.36415 0.04563 0.05788 0.0
C259 C 0.352 0.02877 0.96429 0.0
C260 C 0.33827 1.00382 0.92536 0.0
C261 C 0.34829 0.02107 1.01908 0.0
C262 C 0.31849 0.9713 0.94192 0.0
C263 C 0.31422 0.96352 0.99635 0.0
H264 H 0.17187 0.439 0.0722 0.0
H265 H 0.18195 0.43656 0.90029 0.0
H266 H 0.23422 0.43898 0.91123 0.0
H267 H 0.27518 0.4383 0.96977 0.0
H268 H 0.26218 0.43499 0.14155 0.0
H269 H 0.2129 0.43847 0.13073 0.0
C270 C 0.18575 0.43946 0.03711 0.0
C271 C 0.17326 0.43787 0.98546 0.0
C272 C 0.2151 0.43963 0.04381 0.0
C273 C 0.19113 0.43783 0.9404 0.0
C274 C 0.22096 0.43917 0.94668 0.0
C275 C 0.26178 0.43879 1.00487 0.0
C276 C 0.27238 0.43664 0.05645 0.0
C277 C 0.23293 0.43959 0.99819 0.0
C278 C 0.25449 0.43666 0.1015 0.0
C279 C 0.22634 0.43862 0.09529 0.0
H280 H 0.84779 0.28432 0.2897 0.0
H281 H 0.83687 0.27487 0.4616 0.0
H282 H 0.78317 0.22611 0.45077 0.0
H283 H 0.7416 0.18388 0.39249 0.0
H284 H 0.75571 0.18949 0.22095 0.0
H285 H 0.80587 0.24226 0.23129 0.0
C286 C 0.83337 0.27188 0.32477 0.0
C287 C 0.84603 0.28328 0.37643 0.0
C288 C 0.80326 0.24311 0.31814 0.0
C289 C 0.82751 0.26656 0.42152 0.0
C290 C 0.79689 0.23869 0.41529 0.0
C291 C 0.75536 0.19696 0.3573 0.0
C292 C 0.74486 0.18306 0.30594 0.0
C293 C 0.78481 0.22643 0.36381 0.0
C294 C 0.76329 0.19983 0.2608 0.0
C295 C 0.79196 0.22991 0.26676 0.0
H296 H 0.56462 0.82766 0.77546 0.0
H297 H 0.56113 0.85274 0.61078 0.0
H298 H 0.55789 0.8021 0.58018 0.0
H299 H 0.5615 0.75303 0.59981 0.0
H300 H 0.56074 0.72586 0.76463 0.0
H301 H 0.55983 0.77447 0.79539 0.0
C302 C 0.56256 0.8217 0.73299 0.0
C303 C 0.5634 0.84405 0.69553 0.0
C304 C 0.56018 0.79219 0.71555 0.0
C305 C 0.56043 0.83592 0.64056 0.0
C306 C 0.5588 0.80702 0.62291 0.0
C307 C 0.56058 0.75753 0.64238 0.0
C308 C 0.56147 0.73604 0.6798 0.0
C309 C 0.55947 0.78533 0.65995 0.0
C310 C 0.55997 0.74198 0.73491 0.0
C311 C 0.55965 0.76991 0.75264 0.0
H312 H 0.73796 0.57057 0.97618 0.0
H313 H 0.75225 0.57512 0.14737 0.0
H314 H 0.80209 0.57267 0.13398 0.0
H315 H 0.84343 0.57333 0.07332 0.0
H316 H 0.83261 0.57597 0.90215 0.0
H317 H 0.77934 0.57133 0.91552 0.0
C318 C 0.75173 0.57046 1.01057 0.0
C319 C 0.74135 0.57261 0.06275 0.0
C320 C 0.781 0.57056 1.00238 0.0
C321 C 0.75976 0.57331 0.10692 0.0
C322 C 0.78823 0.57198 0.09922 0.0
C323 C 0.82914 0.57235 0.03893 0.0
C324 C 0.84164 0.5746 0.98676 0.0
C325 C 0.79934 0.57115 0.04711 0.0
C326 C 0.82334 0.57412 0.94259 0.0
C327 C 0.79297 0.57153 0.95028 0.0
H328 H 0.17754 0.73195 0.32304 0.0
H329 H 0.1822 0.74902 0.49392 0.0
H330 H 0.23519 0.79874 0.48338 0.0
H331 H 0.27773 0.8396 0.42464 0.0
H332 H 0.26945 0.8256 0.25297 0.0
H333 H 0.22034 0.77227 0.26456 0.0
C334 C 0.19047 0.74622 0.35811 0.0
C335 C 0.1762 0.73669 0.40931 0.0
C336 C 0.22009 0.77545 0.35139 0.0
C337 C 0.19281 0.75581 0.45421 0.0
C338 C 0.22301 0.78425 0.44812 0.0
C339 C 0.26544 0.82461 0.38982 0.0
C340 C 0.27727 0.83635 0.33799 0.0
C341 C 0.23654 0.79465 0.39678 0.0
C342 C 0.26079 0.81703 0.2932 0.0
C343 C 0.23273 0.78659 0.29985 0.0
H344 H 0.43969 0.16655 0.64099 0.0
H345 H 0.43648 0.17388 0.81332 0.0
H346 H 0.44146 0.22776 0.80543 0.0
H347 H 0.44274 0.2708 0.74929 0.0
H348 H 0.43965 0.2604 0.57696 0.0
H349 H 0.4413 0.20972 0.58488 0.0
C350 C 0.4406 0.18019 0.67684 0.0
C351 C 0.43803 0.16645 0.72773 0.0
C352 C 0.44211 0.21046 0.67185 0.0
C353 C 0.43853 0.18404 0.77379 0.0
C354 C 0.44131 0.21477 0.76924 0.0
C355 C 0.44293 0.25768 0.71345 0.0
C356 C 0.44136 0.26942 0.66255 0.0
C357 C 0.44257 0.22796 0.71846 0.0
C358 C 0.44093 0.25185 0.61651 0.0
C359 C 0.44182 0.22289 0.62107 0.0
H360 H 0.36576 0.30222 0.80661 0.0
H361 H 0.31667 0.34781 0.73388 0.0
H362 H 0.29757 0.35419 0.82186 0.0
H363 H 0.30474 0.35716 0.91949 0.0
H364 H 0.35538 0.31318 0.99224 0.0
H365 H 0.36325 0.2951 0.90421 0.0
C366 C 0.35021 0.31282 0.80992 0.0
C367 C 0.34339 0.32536 0.76413 0.0
C368 C 0.33992 0.31704 0.86068 0.0
C369 C 0.32259 0.33831 0.76866 0.0
C370 C 0.31184 0.34218 0.81902 0.0
C371 C 0.31677 0.34289 0.91618 0.0
C372 C 0.33027 0.33732 0.962 0.0
C373 C 0.32188 0.33325 0.8654 0.0
C374 C 0.3451 0.31814 0.95745 0.0
C375 C 0.34984 0.308 0.90706 0.0
H376 H 0.94844 0.30454 0.23374 0.0
H377 H 0.04383 0.34453 0.3031 0.0
H378 H 0.06757 0.35087 0.21366 0.0
H379 H 0.06219 0.35596 0.11682 0.0
H380 H 0.96689 0.31747 0.04771 0.0
H381 H 0.94203 0.29893 0.13592 0.0
C382 C 0.97431 0.31379 0.22928 0.0
C383 C 0.9945 0.32484 0.27466 0.0
C384 C 0.98783 0.31805 0.17778 0.0
C385 C 0.02784 0.33611 0.26866 0.0
C386 C 0.04146 0.34002 0.21749 0.0
C387 C 0.03594 0.34274 0.1209 0.0
C388 C 0.01642 0.33885 0.07622 0.0
C389 C 0.02188 0.33278 0.17185 0.0
C390 C 0.98245 0.32106 0.08165 0.0
C391 C 0.96822 0.31068 0.13216 0.0
H392 H 0.69959 0.03999 0.62196 0.0
H393 H 0.65002 0.93722 0.58312 0.0
H394 H 0.66132 0.94954 0.48797 0.0
H395 H 0.67558 0.98923 0.41523 0.0
H396 H 0.72251 0.09196 0.45416 0.0
H397 H 0.72251 0.08006 0.54901 0.0
C398 C 0.69234 0.02037 0.59282 0.0
C399 C 0.67366 0.9878 0.60948 0.0
C400 C 0.69789 0.02762 0.53775 0.0
C401 C 0.66419 0.96256 0.57118 0.0
C402 C 0.67046 0.96956 0.51666 0.0
C403 C 0.68671 0.00904 0.44427 0.0
C404 C 0.69844 0.04134 0.42768 0.0
C405 C 0.6858 1.00198 0.49923 0.0
C406 C 0.7128 0.06677 0.46594 0.0
C407 C 0.71275 0.06001 0.52034 0.0
H408 H 0.68974 0.66604 0.74968 0.0
H409 H 0.6429 0.7212 0.79104 0.0
H410 H 0.65472 0.71997 0.88566 0.0
H411 H 0.66916 0.69444 0.9577 0.0
H412 H 0.71397 0.63733 0.91631 0.0
H413 H 0.7127 0.64856 0.82152 0.0
C414 C 0.68312 0.67871 0.77921 0.0
C415 C 0.66505 0.69323 0.76338 0.0
C416 C 0.68911 0.67706 0.83404 0.0
C417 C 0.6565 0.70945 0.80226 0.0
C418 C 0.6631 0.70864 0.85652 0.0
C419 C 0.67951 0.68528 0.92809 0.0
C420 C 0.69104 0.66458 0.94411 0.0
C421 C 0.67798 0.69115 0.87317 0.0
C422 C 0.70441 0.65292 0.90507 0.0
C423 C 0.70365 0.65925 0.85068 0.0
H424 H 0.98715 0.67629 0.29664 0.0
H425 H 0.08934 0.72208 0.25952 0.0
H426 H 0.07781 0.72087 0.16409 0.0
H427 H 0.03812 0.69726 0.09072 0.0
H428 H 0.93575 0.64845 0.12802 0.0
H429 H 0.94785 0.66086 0.22306 0.0
C430 C 1.00692 0.687 0.2678 0.0
C431 C 0.03896 0.69885 0.28505 0.0
C432 C 1.00003 0.68515 0.21261 0.0
C433 C 0.06437 0.71247 0.24713 0.0
C434 C 0.0578 0.71165 0.19246 0.0
C435 C 0.01852 0.69025 0.11946 0.0
C436 C 0.98613 0.67151 0.10238 0.0
C437 C 0.02562 0.69657 0.17452 0.0
C438 C 0.96096 0.66252 0.14021 0.0
C439 C 0.96782 0.66952 0.1947 0.0
H440 H 0.30028 0.9474 0.46531 0.0
H441 H 0.35557 0.04349 0.39667 0.0
H442 H 0.35962 0.06831 0.48469 0.0
H443 H 0.35792 0.06211 0.58245 0.0
H444 H 0.30413 0.96596 0.65132 0.0
H445 H 0.28821 0.9418 0.56186 0.0
C446 C 0.31247 0.97378 0.46944 0.0
C447 C 0.32842 0.9936 0.42504 0.0
C448 C 0.31527 0.98786 0.52029 0.0
C449 C 0.34344 0.0277 0.43046 0.0
C450 C 0.34596 0.04193 0.48086 0.0
C451 C 0.34192 0.03595 0.57788 0.0
C452 C 0.33297 0.01574 0.62311 0.0
C453 C 0.33358 0.02218 0.52635 0.0
C454 C 0.31163 0.98201 0.61698 0.0
C455 C 0.30277 0.96813 0.5658 0.0
H456 H 0.4646 0.44274 0.11128 0.0
H457 H 0.43558 0.51458 0.08644 0.0
H458 H 0.49261 0.55795 0.0861 0.0
H459 H 0.55067 0.57523 0.09091 0.0
H460 H 0.57932 0.50278 0.11186 0.0
H461 H 0.52233 0.45986 0.11573 0.0
C462 C 0.47066 0.4679 0.1061 0.0
C463 C 0.44579 0.47538 0.09907 0.0
C464 C 0.50343 0.49259 0.1051 0.0
C465 C 0.45421 0.50811 0.09188 0.0
C466 C 0.48681 0.53292 0.0917 0.0
C467 C 0.54447 0.55007 0.09661 0.0
C468 C 0.56929 0.54227 0.1012 0.0
C469 C 0.51163 0.52541 0.098 0.0
C470 C 0.56076 0.50949 0.10807 0.0
C471 C 0.52817 0.48492 0.11035 0.0
H472 H 0.06638 0.56944 0.43394 0.0
H473 H 0.9705 0.55796 0.43064 0.0
H474 H 0.9462 0.49881 0.42551 0.0
H475 H 0.95203 0.45006 0.42026 0.0
H476 H 0.04788 0.46163 0.42644 0.0
H477 H 0.0721 0.52073 0.43209 0.0
C478 C 0.04017 0.55402 0.43224 0.0
C479 C 0.02039 0.56825 0.43249 0.0
C480 C 0.02623 0.51989 0.42964 0.0
C481 C 0.98641 0.54778 0.43061 0.0
C482 C 0.97242 0.51387 0.42751 0.0
C483 C 0.9782 0.46552 0.42281 0.0
C484 C 0.99803 0.45134 0.4227 0.0
C485 C 0.99208 0.49963 0.42668 0.0
C486 C 0.03194 0.47179 0.42654 0.0
C487 C 0.0459 0.50567 0.4297 0.0
H488 H 0.51139 0.95151 0.75951 0.0
H489 H 0.59402 0.04935 0.75883 0.0
H490 H 0.55788 0.07193 0.75902 0.0
H491 H 0.50259 0.064 0.7582 0.0
H492 H 0.4202 0.96602 0.76208 0.0
H493 H 0.45638 0.94362 0.76181 0.0
C494 C 0.52151 0.97777 0.75946 0.0
C495 C 0.55538 0.99862 0.75897 0.0
C496 C 0.50059 0.99068 0.76006 0.0
C497 C 0.56804 0.03264 0.75933 0.0
C498 C 0.54738 0.04564 0.75929 0.0
C499 C 0.49258 0.03776 0.75895 0.0
C500 C 0.45871 0.01681 0.76 0.0
C501 C 0.51359 0.0249 0.75944 0.0
C502 C 0.44617 0.98282 0.76143 0.0
C503 C 0.46685 0.9699 0.76117 0.0
H504 H 0.57453 0.55179 0.62207 0.0
H505 H 0.49913 0.57662 0.60861 0.0
H506 H 0.45784 0.51873 0.60865 0.0
H507 H 0.44307 0.46131 0.61432 0.0
H508 H 0.51802 0.43618 0.632 0.0
H509 H 0.55962 0.49405 0.62852 0.0
C510 C 0.54907 0.54455 0.61878 0.0
C511 C 0.53997 0.56856 0.61513 0.0
C512 C 0.5254 0.5112 0.61979 0.0
C513 C 0.50683 0.55871 0.61155 0.0
C514 C 0.4832 0.52559 0.61154 0.0
C515 C 0.46851 0.4684 0.61717 0.0
C516 C 0.47739 0.44435 0.62323 0.0
C517 C 0.4922 0.50167 0.61593 0.0
C518 C 0.51048 0.45413 0.6274 0.0
C519 C 0.53428 0.48722 0.62534 0.0
H520 H 0.03536 0.57855 0.95454 0.0
H521 H 0.93386 0.50663 0.93544 0.0
H522 H 0.94738 0.46328 0.93021 0.0
H523 H 0.98773 0.44565 0.93286 0.0
H524 H 0.08899 0.51704 0.95623 0.0
H525 H 0.07581 0.56077 0.95788 0.0
C526 C 0.01619 0.55341 0.94895 0.0
C527 C 0.98363 0.54589 0.94526 0.0
C528 C 0.02408 0.52851 0.94684 0.0
C529 C 0.9591 0.51313 0.93856 0.0
C530 C 0.96681 0.48831 0.93549 0.0
C531 C 1.007 0.47079 0.93799 0.0
C532 C 0.03934 0.47804 0.9442 0.0
C533 C 0.99919 0.49571 0.93982 0.0
C534 C 0.0639 0.51075 0.95141 0.0
C535 C 0.05638 0.53577 0.95234 0.0
H536 H 0.55564 0.98563 0.29153 0.0
H537 H 0.58106 0.08587 0.26716 0.0
H538 H 0.52359 0.06969 0.26733 0.0
H539 H 0.46635 0.02745 0.2757 0.0
H540 H 0.44062 0.92751 0.30414 0.0
H541 H 0.49809 0.94327 0.30109 0.0
C542 C 0.54862 1.00394 0.28596 0.0
C543 C 0.57268 0.03693 0.27912 0.0
C544 C 0.51551 0.99454 0.28698 0.0
C545 C 0.56311 0.06034 0.27259 0.0
C546 C 0.53023 0.05111 0.27263 0.0
C547 C 0.47322 0.00901 0.281 0.0
C548 C 0.44912 0.97627 0.28991 0.0
C549 C 0.50626 0.01832 0.27998 0.0
C550 C 0.45861 0.95286 0.29728 0.0
C551 C 0.49148 0.96186 0.29547 0.0
loop_
_geom_bond_atom_site_label_1
_geom_bond_atom_site_label_2
_geom_bond_distance
_geom_bond_site_symmetry_2
_ccdc_geom_bond_type
O0 Cd1 2.223 1_556 S
O0 C8 1.315 . S
Cd1 O0 2.223 1_554 S
Cd1 O4 2.297 1_554 S
Cd1 O5 2.439 . S
Cd1 O11 2.240 . S
Cd2 O3 2.240 . S
Cd2 O10 2.223 . S
Cd2 O12 2.297 . S
Cd2 O13 2.439 . S
O3 Cd2 2.240 . S
O3 C8 1.279 1_554 S
O4 Cd1 2.297 1_556 S
O4 C6 1.247 1_556 S
O5 Cd1 2.439 . S
O5 C6 1.208 . S
C6 O4 1.247 1_554 S
C6 O5 1.208 . S
C7 O12 1.247 . S
C7 O13 1.208 . S
C8 O0 1.315 . S
C8 O3 1.279 1_556 S
C9 O10 1.315 . S
C9 O11 1.279 . S
O10 Cd2 2.223 . S
O10 C9 1.315 . S
O11 Cd1 2.240 . S
O11 C9 1.279 . S
O12 Cd2 2.297 . S
O12 C7 1.247 . S
O13 Cd2 2.439 . S
O13 C7 1.208 . S
O14 Cd15 2.223 . S
O14 C22 1.315 . S
Cd15 O14 2.223 . S
Cd15 O18 2.297 . S
Cd15 O19 2.439 . S
Cd15 O25 2.240 . S
Cd16 O17 2.231 1_455 S
Cd16 O24 2.213 . S
Cd16 O26 2.301 . S
Cd16 O27 2.427 1_455 S
O17 Cd16 2.231 1_655 S
O17 C22 1.279 . S
O18 Cd15 2.297 . S
O18 C20 1.247 . S
O19 Cd15 2.439 . S
O19 C20 1.208 . S
C20 O18 1.247 . S
C20 O19 1.208 . S
C21 O26 1.247 1_655 S
C21 O27 1.208 . S
C22 O14 1.315 . S
C22 O17 1.279 . S
C23 O24 1.315 1_655 S
C23 O25 1.279 . S
O24 Cd16 2.213 . S
O24 C23 1.315 1_455 S
O25 Cd15 2.240 . S
O25 C23 1.279 . S
O26 Cd16 2.301 . S
O26 C21 1.247 1_455 S
O27 Cd16 2.427 1_655 S
O27 C21 1.208 . S
O28 Cd29 2.223 . S
O28 C36 1.315 . S
Cd29 O28 2.223 . S
Cd29 O32 2.297 . S
Cd29 O33 2.439 . S
Cd29 O39 2.240 . S
Cd30 O31 2.225 1_545 S
Cd30 O38 2.239 . S
Cd30 O40 2.305 . S
Cd30 O41 2.422 1_545 S
O31 Cd30 2.225 1_565 S
O31 C36 1.279 . S
O32 Cd29 2.297 . S
O32 C34 1.247 . S
O33 Cd29 2.439 . S
O33 C34 1.208 . S
C34 O32 1.247 . S
C34 O33 1.208 . S
C35 O40 1.247 1_565 S
C35 O41 1.208 . S
C36 O28 1.315 . S
C36 O31 1.279 . S
C37 O38 1.315 1_565 S
C37 O39 1.279 . S
O38 Cd30 2.239 . S
O38 C37 1.315 1_545 S
O39 Cd29 2.240 . S
O39 C37 1.279 . S
O40 Cd30 2.305 . S
O40 C35 1.247 1_545 S
O41 Cd30 2.422 1_565 S
O41 C35 1.208 . S
O42 Cd43 2.223 1_556 S
O42 C50 1.315 . S
Cd43 O42 2.223 1_554 S
Cd43 O46 2.297 1_554 S
Cd43 O47 2.439 . S
Cd43 O53 2.240 . S
Cd44 O45 2.240 . S
Cd44 O52 2.223 . S
Cd44 O54 2.297 . S
Cd44 O55 2.439 . S
O45 Cd44 2.240 . S
O45 C50 1.279 1_554 S
O46 Cd43 2.297 1_556 S
O46 C48 1.247 1_556 S
O47 Cd43 2.439 . S
O47 C48 1.208 . S
C48 O46 1.247 1_554 S
C48 O47 1.208 . S
C49 O54 1.247 . S
C49 O55 1.208 . S
C50 O42 1.315 . S
C50 O45 1.279 1_556 S
C51 O52 1.315 . S
C51 O53 1.279 . S
O52 Cd44 2.223 . S
O52 C51 1.315 . S
O53 Cd43 2.240 . S
O53 C51 1.279 . S
O54 Cd44 2.297 . S
O54 C49 1.247 . S
O55 Cd44 2.439 . S
O55 C49 1.208 . S
O56 Cd57 2.223 . S
O56 C64 1.315 . S
Cd57 O56 2.223 . S
Cd57 O60 2.297 . S
Cd57 O61 2.439 . S
Cd57 O67 2.240 . S
Cd58 O59 2.231 1_655 S
Cd58 O66 2.213 . S
Cd58 O68 2.301 . S
Cd58 O69 2.427 1_655 S
O59 Cd58 2.231 1_455 S
O59 C64 1.279 . S
O60 Cd57 2.297 . S
O60 C62 1.247 . S
O61 Cd57 2.439 . S
O61 C62 1.208 . S
C62 O60 1.247 . S
C62 O61 1.208 . S
C63 O68 1.247 1_455 S
C63 O69 1.208 . S
C64 O56 1.315 . S
C64 O59 1.279 . S
C65 O66 1.315 1_455 S
C65 O67 1.279 . S
O66 Cd58 2.213 . S
O66 C65 1.315 1_655 S
O67 Cd57 2.240 . S
O67 C65 1.279 . S
O68 Cd58 2.301 . S
O68 C63 1.247 1_655 S
O69 Cd58 2.427 1_455 S
O69 C63 1.208 . S
O70 Cd71 2.223 . S
O70 C78 1.315 . S
Cd71 O70 2.223 . S
Cd71 O74 2.297 . S
Cd71 O75 2.439 . S
Cd71 O81 2.240 . S
Cd72 O73 2.225 1_565 S
Cd72 O80 2.239 . S
Cd72 O82 2.305 . S
Cd72 O83 2.422 1_565 S
O73 Cd72 2.225 1_545 S
O73 C78 1.279 . S
O74 Cd71 2.297 . S
O74 C76 1.247 . S
O75 Cd71 2.439 . S
O75 C76 1.208 . S
C76 O74 1.247 . S
C76 O75 1.208 . S
C77 O82 1.247 1_545 S
C77 O83 1.208 . S
C78 O70 1.315 . S
C78 O73 1.279 . S
C79 O80 1.315 1_545 S
C79 O81 1.279 . S
O80 Cd72 2.239 . S
O80 C79 1.315 1_565 S
O81 Cd71 2.240 . S
O81 C79 1.279 . S
O82 Cd72 2.305 . S
O82 C77 1.247 1_565 S
O83 Cd72 2.422 1_545 S
O83 C77 1.208 . S
O84 Cd85 2.223 . S
O84 C92 1.315 . S
Cd85 O84 2.223 . S
Cd85 O88 2.297 . S
Cd85 O89 2.439 . S
Cd85 O95 2.240 . S
Cd86 O87 2.240 . S
Cd86 O94 2.223 . S
Cd86 O96 2.297 . S
Cd86 O97 2.439 . S
O87 Cd86 2.240 . S
O87 C92 1.279 . S
O88 Cd85 2.297 . S
O88 C90 1.247 . S
O89 Cd85 2.439 . S
O89 C90 1.208 . S
C90 O88 1.247 . S
C90 O89 1.208 . S
C91 O96 1.247 . S
C91 O97 1.208 . S
C92 O84 1.315 . S
C92 O87 1.279 . S
C93 O94 1.315 . S
C93 O95 1.279 . S
O94 Cd86 2.223 . S
O94 C93 1.315 . S
O95 Cd85 2.240 . S
O95 C93 1.279 . S
O96 Cd86 2.297 . S
O96 C91 1.247 . S
O97 Cd86 2.439 . S
O97 C91 1.208 . S
O98 Cd99 2.223 1_554 S
O98 C106 1.315 . S
Cd99 O98 2.223 1_556 S
Cd99 O102 2.297 1_556 S
Cd99 O103 2.439 . S
Cd99 O109 2.240 . S
Cd100 O101 2.225 1_455 S
Cd100 O108 2.239 . S
Cd100 O110 2.305 . S
Cd100 O111 2.422 1_455 S
O101 Cd100 2.225 1_655 S
O101 C106 1.279 1_556 S
O102 Cd99 2.297 1_554 S
O102 C104 1.247 1_554 S
O103 Cd99 2.439 . S
O103 C104 1.208 . S
C104 O102 1.247 1_556 S
C104 O103 1.208 . S
C105 O110 1.247 1_655 S
C105 O111 1.208 . S
C106 O98 1.315 . S
C106 O101 1.279 1_554 S
C107 O108 1.315 1_655 S
C107 O109 1.279 . S
O108 Cd100 2.239 . S
O108 C107 1.315 1_455 S
O109 Cd99 2.240 . S
O109 C107 1.279 . S
O110 Cd100 2.305 . S
O110 C105 1.247 1_455 S
O111 Cd100 2.422 1_655 S
O111 C105 1.208 . S
O112 Cd113 2.223 . S
O112 C120 1.315 . S
Cd113 O112 2.223 . S
Cd113 O116 2.297 . S
Cd113 O117 2.439 . S
Cd113 O123 2.240 . S
Cd114 O115 2.231 1_545 S
Cd114 O122 2.213 . S
Cd114 O124 2.301 . S
Cd114 O125 2.427 1_545 S
O115 Cd114 2.231 1_565 S
O115 C120 1.279 . S
O116 Cd113 2.297 . S
O116 C118 1.247 . S
O117 Cd113 2.439 . S
O117 C118 1.208 . S
C118 O116 1.247 . S
C118 O117 1.208 . S
C119 O124 1.247 1_565 S
C119 O125 1.208 . S
C120 O112 1.315 . S
C120 O115 1.279 . S
C121 O122 1.315 1_565 S
C121 O123 1.279 . S
O122 Cd114 2.213 . S
O122 C121 1.315 1_545 S
O123 Cd113 2.240 . S
O123 C121 1.279 . S
O124 Cd114 2.301 . S
O124 C119 1.247 1_545 S
O125 Cd114 2.427 1_565 S
O125 C119 1.208 . S
O126 Cd127 2.223 . S
O126 C134 1.315 . S
Cd127 O126 2.223 . S
Cd127 O130 2.297 . S
Cd127 O131 2.439 . S
Cd127 O137 2.240 . S
Cd128 O129 2.240 . S
Cd128 O136 2.223 . S
Cd128 O138 2.297 . S
Cd128 O139 2.439 . S
O129 Cd128 2.240 . S
O129 C134 1.279 . S
O130 Cd127 2.297 . S
O130 C132 1.247 . S
O131 Cd127 2.439 . S
O131 C132 1.208 . S
C132 O130 1.247 . S
C132 O131 1.208 . S
C133 O138 1.247 . S
C133 O139 1.208 . S
C134 O126 1.315 . S
C134 O129 1.279 . S
C135 O136 1.315 . S
C135 O137 1.279 . S
O136 Cd128 2.223 . S
O136 C135 1.315 . S
O137 Cd127 2.240 . S
O137 C135 1.279 . S
O138 Cd128 2.297 . S
O138 C133 1.247 . S
O139 Cd128 2.439 . S
O139 C133 1.208 . S
O140 Cd141 2.223 1_554 S
O140 C148 1.315 . S
Cd141 O140 2.223 1_556 S
Cd141 O144 2.297 1_556 S
Cd141 O145 2.439 . S
Cd141 O151 2.240 . S
Cd142 O143 2.225 1_655 S
Cd142 O150 2.239 . S
Cd142 O152 2.305 . S
Cd142 O153 2.422 1_655 S
O143 Cd142 2.225 1_455 S
O143 C148 1.279 1_556 S
O144 Cd141 2.297 1_554 S
O144 C146 1.247 1_554 S
O145 Cd141 2.439 . S
O145 C146 1.208 . S
C146 O144 1.247 1_556 S
C146 O145 1.208 . S
C147 O152 1.247 1_455 S
C147 O153 1.208 . S
C148 O140 1.315 . S
C148 O143 1.279 1_554 S
C149 O150 1.315 1_455 S
C149 O151 1.279 . S
O150 Cd142 2.239 . S
O150 C149 1.315 1_655 S
O151 Cd141 2.240 . S
O151 C149 1.279 . S
O152 Cd142 2.305 . S
O152 C147 1.247 1_655 S
O153 Cd142 2.422 1_455 S
O153 C147 1.208 . S
O154 Cd155 2.223 . S
O154 C162 1.315 . S
Cd155 O154 2.223 . S
Cd155 O158 2.297 . S
Cd155 O159 2.439 . S
Cd155 O165 2.240 . S
Cd156 O157 2.231 1_565 S
Cd156 O164 2.213 . S
Cd156 O166 2.301 . S
Cd156 O167 2.427 1_565 S
O157 Cd156 2.231 1_545 S
O157 C162 1.279 . S
O158 Cd155 2.297 . S
O158 C160 1.247 . S
O159 Cd155 2.439 . S
O159 C160 1.208 . S
C160 O158 1.247 . S
C160 O159 1.208 . S
C161 O166 1.247 1_545 S
C161 O167 1.208 . S
C162 O154 1.315 . S
C162 O157 1.279 . S
C163 O164 1.315 1_545 S
C163 O165 1.279 . S
O164 Cd156 2.213 . S
O164 C163 1.315 1_565 S
O165 Cd155 2.240 . S
O165 C163 1.279 . S
O166 Cd156 2.301 . S
O166 C161 1.247 1_565 S
O167 Cd156 2.427 1_545 S
O167 C161 1.208 . S
H168 C174 0.930 . S
H169 C177 0.930 . S
H170 C178 0.930 . S
H171 C179 0.930 . S
H172 C182 0.930 . S
H173 C183 0.930 . S
C174 H168 0.930 . S
C174 C175 1.355 . S
C174 C176 1.415 . S
C175 C174 1.355 . S
C175 C177 1.419 . S
C176 C174 1.415 . S
C176 C181 1.425 . S
C176 C183 1.409 . S
C177 H169 0.930 . S
C177 C175 1.419 . S
C177 C178 1.362 . S
C178 H170 0.930 . S
C178 C177 1.362 . S
C178 C181 1.409 . S
C179 H171 0.930 . S
C179 C180 1.355 . S
C179 C181 1.415 . S
C180 C179 1.355 . S
C180 C182 1.419 . S
C181 C176 1.425 . S
C181 C178 1.409 . S
C181 C179 1.415 . S
C182 H172 0.930 . S
C182 C180 1.419 . S
C182 C183 1.362 . S
C183 H173 0.930 . S
C183 C176 1.409 . S
C183 C182 1.362 . S
H184 C190 0.930 . S
H185 C193 0.930 . S
H186 C194 0.930 . S
H187 C195 0.930 . S
H188 C198 0.930 . S
H189 C199 0.930 . S
C190 H184 0.930 . S
C190 C191 1.355 1_455 S
C190 C192 1.415 . S
C191 C190 1.355 1_655 S
C191 C193 1.419 . S
C192 C190 1.415 . S
C192 C197 1.425 1_455 S
C192 C199 1.409 . S
C193 H185 0.930 . S
C193 C191 1.419 . S
C193 C194 1.362 . S
C194 H186 0.930 . S
C194 C193 1.362 . S
C194 C197 1.409 . S
C195 H187 0.930 . S
C195 C196 1.355 1_655 S
C195 C197 1.415 . S
C196 C195 1.355 1_455 S
C196 C198 1.419 . S
C197 C192 1.425 1_655 S
C197 C194 1.409 . S
C197 C195 1.415 . S
C198 H188 0.930 . S
C198 C196 1.419 . S
C198 C199 1.362 . S
C199 H189 0.930 . S
C199 C192 1.409 . S
C199 C198 1.362 . S
H200 C206 0.930 . S
H201 C209 0.930 . S
H202 C210 0.930 . S
H203 C211 0.930 . S
H204 C214 0.930 . S
H205 C215 0.930 . S
C206 H200 0.930 . S
C206 C207 1.355 1_545 S
C206 C208 1.415 . S
C207 C206 1.355 1_565 S
C207 C209 1.419 . S
C208 C206 1.415 . S
C208 C213 1.425 1_546 S
C208 C215 1.409 1_556 S
C209 H201 0.930 . S
C209 C207 1.419 . S
C209 C210 1.362 . S
C210 H202 0.930 . S
C210 C209 1.362 . S
C210 C213 1.409 1_556 S
C211 H203 0.930 . S
C211 C212 1.355 1_565 S
C211 C213 1.415 . S
C212 C211 1.355 1_545 S
C212 C214 1.419 . S
C213 C208 1.425 1_564 S
C213 C210 1.409 1_554 S
C213 C211 1.415 . S
C214 H204 0.930 . S
C214 C212 1.419 . S
C214 C215 1.362 . S
C215 H205 0.930 . S
C215 C208 1.409 1_554 S
C215 C214 1.362 . S
H216 C222 0.930 . S
H217 C225 0.930 . S
H218 C226 0.930 . S
H219 C227 0.930 . S
H220 C230 0.930 . S
H221 C231 0.930 . S
C222 H216 0.930 . S
C222 C223 1.355 . S
C222 C224 1.415 . S
C223 C222 1.355 . S
C223 C225 1.419 . S
C224 C222 1.415 . S
C224 C229 1.425 . S
C224 C231 1.409 . S
C225 H217 0.930 . S
C225 C223 1.419 . S
C225 C226 1.362 . S
C226 H218 0.930 . S
C226 C225 1.362 . S
C226 C229 1.409 . S
C227 H219 0.930 . S
C227 C228 1.355 . S
C227 C229 1.415 . S
C228 C227 1.355 . S
C228 C230 1.419 . S
C229 C224 1.425 . S
C229 C226 1.409 . S
C229 C227 1.415 . S
C230 H220 0.930 . S
C230 C228 1.419 . S
C230 C231 1.362 . S
C231 H221 0.930 . S
C231 C224 1.409 . S
C231 C230 1.362 . S
H232 C238 0.930 . S
H233 C241 0.930 . S
H234 C242 0.930 . S
H235 C243 0.930 . S
H236 C246 0.930 . S
H237 C247 0.930 . S
C238 H232 0.930 . S
C238 C239 1.355 1_455 S
C238 C240 1.415 . S
C239 C238 1.355 1_655 S
C239 C241 1.419 . S
C240 C238 1.415 . S
C240 C245 1.425 1_455 S
C240 C247 1.409 . S
C241 H233 0.930 . S
C241 C239 1.419 . S
C241 C242 1.362 . S
C242 H234 0.930 . S
C242 C241 1.362 . S
C242 C245 1.409 . S
C243 H235 0.930 . S
C243 C244 1.355 1_655 S
C243 C245 1.415 . S
C244 C243 1.355 1_455 S
C244 C246 1.419 . S
C245 C240 1.425 1_655 S
C245 C242 1.409 . S
C245 C243 1.415 . S
C246 H236 0.930 . S
C246 C244 1.419 . S
C246 C247 1.362 . S
C247 H237 0.930 . S
C247 C240 1.409 . S
C247 C246 1.362 . S
H248 C254 0.930 . S
H249 C257 0.930 . S
H250 C258 0.930 . S
H251 C259 0.930 . S
H252 C262 0.930 . S
H253 C263 0.930 . S
C254 H248 0.930 . S
C254 C255 1.355 . S
C254 C256 1.415 . S
C255 C254 1.355 . S
C255 C257 1.419 1_565 S
C256 C254 1.415 . S
C256 C261 1.425 1_564 S
C256 C263 1.409 1_554 S
C257 H249 0.930 . S
C257 C255 1.419 1_545 S
C257 C258 1.362 . S
C258 H250 0.930 . S
C258 C257 1.362 . S
C258 C261 1.409 1_554 S
C259 H251 0.930 . S
C259 C260 1.355 . S
C259 C261 1.415 . S
C260 C259 1.355 . S
C260 C262 1.419 1_545 S
C261 C256 1.425 1_546 S
C261 C258 1.409 1_556 S
C261 C259 1.415 . S
C262 H252 0.930 . S
C262 C260 1.419 1_565 S
C262 C263 1.362 . S
C263 H253 0.930 . S
C263 C256 1.409 1_556 S
C263 C262 1.362 . S
H264 C270 0.930 . S
H265 C273 0.930 . S
H266 C274 0.930 . S
H267 C275 0.930 . S
H268 C278 0.930 . S
H269 C279 0.930 . S
C270 H264 0.930 . S
C270 C271 1.355 1_554 S
C270 C272 1.415 . S
C271 C270 1.355 1_556 S
C271 C273 1.419 . S
C272 C270 1.415 . S
C272 C277 1.425 1_554 S
C272 C279 1.409 . S
C273 H265 0.930 . S
C273 C271 1.419 . S
C273 C274 1.362 . S
C274 H266 0.930 . S
C274 C273 1.362 . S
C274 C277 1.409 . S
C275 H267 0.930 . S
C275 C276 1.355 1_556 S
C275 C277 1.415 . S
C276 C275 1.355 1_554 S
C276 C278 1.419 . S
C277 C272 1.425 1_556 S
C277 C274 1.409 . S
C277 C275 1.415 . S
C278 H268 0.930 . S
C278 C276 1.419 . S
C278 C279 1.362 . S
C279 H269 0.930 . S
C279 C272 1.409 . S
C279 C278 1.362 . S
H280 C286 0.930 . S
H281 C289 0.930 . S
H282 C290 0.930 . S
H283 C291 0.930 . S
H284 C294 0.930 . S
H285 C295 0.930 . S
C286 H280 0.930 . S
C286 C287 1.355 . S
C286 C288 1.415 . S
C287 C286 1.355 . S
C287 C289 1.419 . S
C288 C286 1.415 . S
C288 C293 1.425 . S
C288 C295 1.409 . S
C289 H281 0.930 . S
C289 C287 1.419 . S
C289 C290 1.362 . S
C290 H282 0.930 . S
C290 C289 1.362 . S
C290 C293 1.409 . S
C291 H283 0.930 . S
C291 C292 1.355 . S
C291 C293 1.415 . S
C292 C291 1.355 . S
C292 C294 1.419 . S
C293 C288 1.425 . S
C293 C290 1.409 . S
C293 C291 1.415 . S
C294 H284 0.930 . S
C294 C292 1.419 . S
C294 C295 1.362 . S
C295 H285 0.930 . S
C295 C288 1.409 . S
C295 C294 1.362 . S
H296 C302 0.930 . S
H297 C305 0.930 . S
H298 C306 0.930 . S
H299 C307 0.930 . S
H300 C310 0.930 . S
H301 C311 0.930 . S
C302 H296 0.930 . S
C302 C303 1.355 . S
C302 C304 1.415 . S
C303 C302 1.355 . S
C303 C305 1.419 . S
C304 C302 1.415 . S
C304 C309 1.425 . S
C304 C311 1.409 . S
C305 H297 0.930 . S
C305 C303 1.419 . S
C305 C306 1.362 . S
C306 H298 0.930 . S
C306 C305 1.362 . S
C306 C309 1.409 . S
C307 H299 0.930 . S
C307 C308 1.355 . S
C307 C309 1.415 . S
C308 C307 1.355 . S
C308 C310 1.419 . S
C309 C304 1.425 . S
C309 C306 1.409 . S
C309 C307 1.415 . S
C310 H300 0.930 . S
C310 C308 1.419 . S
C310 C311 1.362 . S
C311 H301 0.930 . S
C311 C304 1.409 . S
C311 C310 1.362 . S
H312 C318 0.933 . S
H313 C321 0.930 . S
H314 C322 0.930 . S
H315 C323 0.933 . S
H316 C326 0.930 . S
H317 C327 0.930 . S
C318 H312 0.933 . S
C318 C319 1.350 1_556 S
C318 C320 1.416 . S
C319 C318 1.350 1_554 S
C319 C321 1.419 . S
C320 C318 1.416 . S
C320 C325 1.425 1_556 S
C320 C327 1.409 . S
C321 H313 0.930 . S
C321 C319 1.419 . S
C321 C322 1.362 . S
C322 H314 0.930 . S
C322 C321 1.362 . S
C322 C325 1.409 . S
C323 H315 0.933 . S
C323 C324 1.350 1_554 S
C323 C325 1.416 . S
C324 C323 1.350 1_556 S
C324 C326 1.419 . S
C325 C320 1.425 1_554 S
C325 C322 1.409 . S
C325 C323 1.416 . S
C326 H316 0.930 . S
C326 C324 1.419 . S
C326 C327 1.362 . S
C327 H317 0.930 . S
C327 C320 1.409 . S
C327 C326 1.362 . S
H328 C334 0.930 . S
H329 C337 0.930 . S
H330 C338 0.930 . S
H331 C339 0.930 . S
H332 C342 0.930 . S
H333 C343 0.930 . S
C334 H328 0.930 . S
C334 C335 1.355 . S
C334 C336 1.415 . S
C335 C334 1.355 . S
C335 C337 1.419 . S
C336 C334 1.415 . S
C336 C341 1.425 . S
C336 C343 1.409 . S
C337 H329 0.930 . S
C337 C335 1.419 . S
C337 C338 1.362 . S
C338 H330 0.930 . S
C338 C337 1.362 . S
C338 C341 1.409 . S
C339 H331 0.930 . S
C339 C340 1.355 . S
C339 C341 1.415 . S
C340 C339 1.355 . S
C340 C342 1.419 . S
C341 C336 1.425 . S
C341 C338 1.409 . S
C341 C339 1.415 . S
C342 H332 0.930 . S
C342 C340 1.419 . S
C342 C343 1.362 . S
C343 H333 0.930 . S
C343 C336 1.409 . S
C343 C342 1.362 . S
H344 C350 0.930 . S
H345 C353 0.930 . S
H346 C354 0.930 . S
H347 C355 0.930 . S
H348 C358 0.930 . S
H349 C359 0.930 . S
C350 H344 0.930 . S
C350 C351 1.355 . S
C350 C352 1.415 . S
C351 C350 1.355 . S
C351 C353 1.419 . S
C352 C350 1.415 . S
C352 C357 1.425 . S
C352 C359 1.409 . S
C353 H345 0.930 . S
C353 C351 1.419 . S
C353 C354 1.362 . S
C354 H346 0.930 . S
C354 C353 1.362 . S
C354 C357 1.409 . S
C355 H347 0.930 . S
C355 C356 1.355 . S
C355 C357 1.415 . S
C356 C355 1.355 . S
C356 C358 1.419 . S
C357 C352 1.425 . S
C357 C354 1.409 . S
C357 C355 1.415 . S
C358 H348 0.930 . S
C358 C356 1.419 . S
C358 C359 1.362 . S
C359 H349 0.930 . S
C359 C352 1.409 . S
C359 C358 1.362 . S
H360 C366 0.930 . S
H361 C369 0.930 . S
H362 C370 0.930 . S
H363 C371 0.930 . S
H364 C374 0.930 . S
H365 C375 0.930 . S
C366 H360 0.930 . S
C366 C367 1.355 . S
C366 C368 1.415 . S
C367 C366 1.355 . S
C367 C369 1.419 . S
C368 C366 1.415 . S
C368 C373 1.425 . S
C368 C375 1.409 . S
C369 H361 0.930 . S
C369 C367 1.419 . S
C369 C370 1.362 . S
C370 H362 0.930 . S
C370 C369 1.362 . S
C370 C373 1.409 . S
C371 H363 0.930 . S
C371 C372 1.355 . S
C371 C373 1.415 . S
C372 C371 1.355 . S
C372 C374 1.419 . S
C373 C368 1.425 . S
C373 C370 1.409 . S
C373 C371 1.415 . S
C374 H364 0.930 . S
C374 C372 1.419 . S
C374 C375 1.362 . S
C375 H365 0.930 . S
C375 C368 1.409 . S
C375 C374 1.362 . S
H376 C382 0.930 . S
H377 C385 0.930 . S
H378 C386 0.930 . S
H379 C387 0.930 . S
H380 C390 0.930 . S
H381 C391 0.930 . S
C382 H376 0.930 . S
C382 C383 1.355 . S
C382 C384 1.415 . S
C383 C382 1.355 . S
C383 C385 1.419 1_655 S
C384 C382 1.415 . S
C384 C389 1.425 1_655 S
C384 C391 1.409 . S
C385 H377 0.930 . S
C385 C383 1.419 1_455 S
C385 C386 1.362 . S
C386 H378 0.930 . S
C386 C385 1.362 . S
C386 C389 1.409 . S
C387 H379 0.930 . S
C387 C388 1.355 . S
C387 C389 1.415 . S
C388 C387 1.355 . S
C388 C390 1.419 1_455 S
C389 C384 1.425 1_455 S
C389 C386 1.409 . S
C389 C387 1.415 . S
C390 H380 0.930 . S
C390 C388 1.419 1_655 S
C390 C391 1.362 . S
C391 H381 0.930 . S
C391 C384 1.409 . S
C391 C390 1.362 . S
H392 C398 0.930 . S
H393 C401 0.930 . S
H394 C402 0.930 . S
H395 C403 0.930 . S
H396 C406 0.930 . S
H397 C407 0.930 . S
C398 H392 0.930 . S
C398 C399 1.355 1_545 S
C398 C400 1.415 . S
C399 C398 1.355 1_565 S
C399 C401 1.419 . S
C400 C398 1.415 . S
C400 C405 1.425 1_545 S
C400 C407 1.409 . S
C401 H393 0.930 . S
C401 C399 1.419 . S
C401 C402 1.362 . S
C402 H394 0.930 . S
C402 C401 1.362 . S
C402 C405 1.409 . S
C403 H395 0.930 . S
C403 C404 1.355 1_565 S
C403 C405 1.415 . S
C404 C403 1.355 1_545 S
C404 C406 1.419 . S
C405 C400 1.425 1_565 S
C405 C402 1.409 . S
C405 C403 1.415 . S
C406 H396 0.930 . S
C406 C404 1.419 . S
C406 C407 1.362 . S
C407 H397 0.930 . S
C407 C400 1.409 . S
C407 C406 1.362 . S
H408 C414 0.930 . S
H409 C417 0.930 . S
H410 C418 0.930 . S
H411 C419 0.930 . S
H412 C422 0.930 . S
H413 C423 0.930 . S
C414 H408 0.930 . S
C414 C415 1.355 . S
C414 C416 1.415 . S
C415 C414 1.355 . S
C415 C417 1.419 . S
C416 C414 1.415 . S
C416 C421 1.425 . S
C416 C423 1.409 . S
C417 H409 0.930 . S
C417 C415 1.419 . S
C417 C418 1.362 . S
C418 H410 0.930 . S
C418 C417 1.362 . S
C418 C421 1.409 . S
C419 H411 0.930 . S
C419 C420 1.355 . S
C419 C421 1.415 . S
C420 C419 1.355 . S
C420 C422 1.419 . S
C421 C416 1.425 . S
C421 C418 1.409 . S
C421 C419 1.415 . S
C422 H412 0.930 . S
C422 C420 1.419 . S
C422 C423 1.362 . S
C423 H413 0.930 . S
C423 C416 1.409 . S
C423 C422 1.362 . S
H424 C430 0.930 . S
H425 C433 0.930 . S
H426 C434 0.930 . S
H427 C435 0.930 . S
H428 C438 0.930 . S
H429 C439 0.930 . S
C430 H424 0.930 . S
C430 C431 1.355 1_655 S
C430 C432 1.415 . S
C431 C430 1.355 1_455 S
C431 C433 1.419 . S
C432 C430 1.415 . S
C432 C437 1.425 1_655 S
C432 C439 1.409 . S
C433 H425 0.930 . S
C433 C431 1.419 . S
C433 C434 1.362 . S
C434 H426 0.930 . S
C434 C433 1.362 . S
C434 C437 1.409 . S
C435 H427 0.930 . S
C435 C436 1.355 1_455 S
C435 C437 1.415 . S
C436 C435 1.355 1_655 S
C436 C438 1.419 . S
C437 C432 1.425 1_455 S
C437 C434 1.409 . S
C437 C435 1.415 . S
C438 H428 0.930 . S
C438 C436 1.419 . S
C438 C439 1.362 . S
C439 H429 0.930 . S
C439 C432 1.409 . S
C439 C438 1.362 . S
H440 C446 0.930 . S
H441 C449 0.930 . S
H442 C450 0.930 . S
H443 C451 0.930 . S
H444 C454 0.930 . S
H445 C455 0.930 . S
C446 H440 0.930 . S
C446 C447 1.355 . S
C446 C448 1.415 . S
C447 C446 1.355 . S
C447 C449 1.419 1_565 S
C448 C446 1.415 . S
C448 C453 1.425 1_565 S
C448 C455 1.409 . S
C449 H441 0.930 . S
C449 C447 1.419 1_545 S
C449 C450 1.362 . S
C450 H442 0.930 . S
C450 C449 1.362 . S
C450 C453 1.409 . S
C451 H443 0.930 . S
C451 C452 1.355 . S
C451 C453 1.415 . S
C452 C451 1.355 . S
C452 C454 1.419 1_545 S
C453 C448 1.425 1_545 S
C453 C450 1.409 . S
C453 C451 1.415 . S
C454 H444 0.930 . S
C454 C452 1.419 1_565 S
C454 C455 1.362 . S
C455 H445 0.930 . S
C455 C448 1.409 . S
C455 C454 1.362 . S
H456 C462 0.930 . S
H457 C465 0.930 . S
H458 C466 0.930 . S
H459 C467 0.930 . S
H460 C470 0.930 . S
H461 C471 0.930 . S
C462 H456 0.930 . S
C462 C463 1.355 . S
C462 C464 1.415 . S
C463 C462 1.355 . S
C463 C465 1.419 . S
C464 C462 1.415 . S
C464 C469 1.425 . S
C464 C471 1.409 . S
C465 H457 0.930 . S
C465 C463 1.419 . S
C465 C466 1.362 . S
C466 H458 0.930 . S
C466 C465 1.362 . S
C466 C469 1.409 . S
C467 H459 0.930 . S
C467 C468 1.355 . S
C467 C469 1.415 . S
C468 C467 1.355 . S
C468 C470 1.419 . S
C469 C464 1.425 . S
C469 C466 1.409 . S
C469 C467 1.415 . S
C470 H460 0.930 . S
C470 C468 1.419 . S
C470 C471 1.362 . S
C471 H461 0.930 . S
C471 C464 1.409 . S
C471 C470 1.362 . S
H472 C478 0.930 . S
H473 C481 0.930 . S
H474 C482 0.930 . S
H475 C483 0.930 . S
H476 C486 0.930 . S
H477 C487 0.930 . S
C478 H472 0.930 . S
C478 C479 1.355 . S
C478 C480 1.415 . S
C479 C478 1.355 . S
C479 C481 1.419 1_455 S
C480 C478 1.415 . S
C480 C485 1.425 1_455 S
C480 C487 1.409 . S
C481 H473 0.930 . S
C481 C479 1.419 1_655 S
C481 C482 1.362 . S
C482 H474 0.930 . S
C482 C481 1.362 . S
C482 C485 1.409 . S
C483 H475 0.930 . S
C483 C484 1.355 . S
C483 C485 1.415 . S
C484 C483 1.355 . S
C484 C486 1.419 1_655 S
C485 C480 1.425 1_655 S
C485 C482 1.409 . S
C485 C483 1.415 . S
C486 H476 0.930 . S
C486 C484 1.419 1_455 S
C486 C487 1.362 . S
C487 H477 0.930 . S
C487 C480 1.409 . S
C487 C486 1.362 . S
H488 C494 0.930 . S
H489 C497 0.930 . S
H490 C498 0.930 . S
H491 C499 0.930 . S
H492 C502 0.930 . S
H493 C503 0.930 . S
C494 H488 0.930 . S
C494 C495 1.355 . S
C494 C496 1.415 . S
C495 C494 1.355 . S
C495 C497 1.419 1_565 S
C496 C494 1.415 . S
C496 C501 1.425 1_565 S
C496 C503 1.409 . S
C497 H489 0.930 . S
C497 C495 1.419 1_545 S
C497 C498 1.362 . S
C498 H490 0.930 . S
C498 C497 1.362 . S
C498 C501 1.409 . S
C499 H491 0.930 . S
C499 C500 1.355 . S
C499 C501 1.415 . S
C500 C499 1.355 . S
C500 C502 1.419 1_545 S
C501 C496 1.425 1_545 S
C501 C498 1.409 . S
C501 C499 1.415 . S
C502 H492 0.930 . S
C502 C500 1.419 1_565 S
C502 C503 1.362 . S
C503 H493 0.930 . S
C503 C496 1.409 . S
C503 C502 1.362 . S
H504 C510 0.930 . S
H505 C513 0.930 . S
H506 C514 0.930 . S
H507 C515 0.930 . S
H508 C518 0.930 . S
H509 C519 0.930 . S
C510 H504 0.930 . S
C510 C511 1.355 . S
C510 C512 1.415 . S
C511 C510 1.355 . S
C511 C513 1.419 . S
C512 C510 1.415 . S
C512 C517 1.425 . S
C512 C519 1.409 . S
C513 H505 0.930 . S
C513 C511 1.419 . S
C513 C514 1.362 . S
C514 H506 0.930 . S
C514 C513 1.362 . S
C514 C517 1.409 . S
C515 H507 0.930 . S
C515 C516 1.355 . S
C515 C517 1.415 . S
C516 C515 1.355 . S
C516 C518 1.419 . S
C517 C512 1.425 . S
C517 C514 1.409 . S
C517 C515 1.415 . S
C518 H508 0.930 . S
C518 C516 1.419 . S
C518 C519 1.362 . S
C519 H509 0.930 . S
C519 C512 1.409 . S
C519 C518 1.362 . S
H520 C526 0.930 . S
H521 C529 0.930 . S
H522 C530 0.930 . S
H523 C531 0.930 . S
H524 C534 0.930 . S
H525 C535 0.930 . S
C526 H520 0.930 . S
C526 C527 1.355 1_455 S
C526 C528 1.415 . S
C527 C526 1.355 1_655 S
C527 C529 1.419 . S
C528 C526 1.415 . S
C528 C533 1.425 1_455 S
C528 C535 1.409 . S
C529 H521 0.930 . S
C529 C527 1.419 . S
C529 C530 1.362 . S
C530 H522 0.930 . S
C530 C529 1.362 . S
C530 C533 1.409 . S
C531 H523 0.930 . S
C531 C532 1.355 1_655 S
C531 C533 1.415 . S
C532 C531 1.355 1_455 S
C532 C534 1.419 . S
C533 C528 1.425 1_655 S
C533 C530 1.409 . S
C533 C531 1.415 . S
C534 H524 0.930 . S
C534 C532 1.419 . S
C534 C535 1.362 . S
C535 H525 0.930 . S
C535 C528 1.409 . S
C535 C534 1.362 . S
H536 C542 0.930 . S
H537 C545 0.930 . S
H538 C546 0.930 . S
H539 C547 0.930 . S
H540 C550 0.930 . S
H541 C551 0.930 . S
C542 H536 0.930 . S
C542 C543 1.355 1_565 S
C542 C544 1.415 . S
C543 C542 1.355 1_545 S
C543 C545 1.419 . S
C544 C542 1.415 . S
C544 C549 1.425 1_565 S
C544 C551 1.409 . S
C545 H537 0.930 . S
C545 C543 1.419 . S
C545 C546 1.362 . S
C546 H538 0.930 . S
C546 C545 1.362 . S
C546 C549 1.409 . S
C547 H539 0.930 . S
C547 C548 1.355 1_545 S
C547 C549 1.415 . S
C548 C547 1.355 1_565 S
C548 C550 1.419 . S
C549 C544 1.425 1_545 S
C549 C546 1.409 . S
C549 C547 1.415 . S
C550 H540 0.930 . S
C550 C548 1.419 . S
C550 C551 1.362 . S
C551 H541 0.930 . S
C551 C544 1.409 . S
C551 C550 1.362 . S
C175 C7 1.446 . S
C180 C133 1.438 . S
C191 C21 1.473 . S
C196 C147 1.457 . S
C207 C35 1.472 . S
C212 C161 1.456 . S
C223 C49 1.475 . S
C228 C91 1.472 . S
C239 C105 1.474 . S
C244 C63 1.475 . S
C255 C119 1.444 . S
C260 C77 1.461 . S
C271 C146 1.471 . S
C276 C6 1.504 . S
C287 C20 1.502 . S
C292 C160 1.457 . S
C303 C34 1.454 . S
C308 C90 1.470 . S
C319 C48 1.454 . S
C324 C104 1.501 . S
C335 C62 1.504 . S
C340 C118 1.471 . S
C351 C76 1.503 . S
C356 C132 1.458 . S
C367 C134 1.205 . S
C372 C8 1.182 . S
C383 C22 1.266 . S
C388 C148 1.252 . S
C399 C36 1.177 . S
C404 C162 1.194 . S
C415 C92 1.195 . S
C420 C50 1.178 . S
C431 C64 1.179 . S
C436 C106 1.177 . S
C447 C120 1.266 . S
C452 C78 1.261 . S
C463 C9 1.509 . S
C468 C51 1.511 . S
C479 C65 1.485 . S
C484 C23 1.464 . S
C495 C37 1.482 . S
C500 C79 1.464 . S
C511 C93 1.500 . S
C516 C135 1.514 . S
C527 C107 1.511 . S
C532 C149 1.508 . S
C543 C163 1.494 . S
C548 C121 1.513 . S
