# Generated by pormake.
# Topology wio, (6)-cn, num edge types: 1
# Building blocks:
#     Node 0, Type 0, BuildingBlock: GEDQOX_clean_sbu_0, # of connection points: 6
#     Node 1, Type 0, BuildingBlock: GEDQOX_clean_sbu_0, # of connection points: 6
#     Node 2, Type 0, BuildingBlock: GEDQOX_clean_sbu_0, # of connection points: 6
#     Node 3, Type 0, BuildingBlock: GEDQOX_clean_sbu_0, # of connection points: 6
#     Node 4, Type 0, BuildingBlock: GEDQOX_clean_sbu_0, # of connection points: 6
#     Node 5, Type 0, BuildingBlock: GEDQOX_clean_sbu_0, # of connection points: 6
#     Node 6, Type 0, BuildingBlock: GEDQOX_clean_sbu_0, # of connection points: 6
#     Node 7, Type 0, BuildingBlock: GEDQOX_clean_sbu_0, # of connection points: 6
#     Node 8, Type 0, BuildingBlock: GEDQOX_clean_sbu_0, # of connection points: 6
#     Node 9, Type 0, BuildingBlock: GEDQOX_clean_sbu_0, # of connection points: 6
#     Node 10, Type 0, BuildingBlock: GEDQOX_clean_sbu_0, # of connection points: 6
#     Node 11, Type 0, BuildingBlock: GEDQOX_clean_sbu_0, # of connection points: 6
#     Node 12, Type 0, BuildingBlock: GEDQOX_clean_sbu_0, # of connection points: 6
#     Node 13, Type 0, BuildingBlock: GEDQOX_clean_sbu_0, # of connection points: 6
#     Node 14, Type 0, BuildingBlock: GEDQOX_clean_sbu_0, # of connection points: 6
#     Node 15, Type 0, BuildingBlock: GEDQOX_clean_sbu_0, # of connection points: 6
#     Node 16, Type 0, BuildingBlock: GEDQOX_clean_sbu_0, # of connection points: 6
#     Node 17, Type 0, BuildingBlock: GEDQOX_clean_sbu_0, # of connection points: 6
#     Node 18, Type 0, BuildingBlock: GEDQOX_clean_sbu_0, # of connection points: 6
#     Node 19, Type 0, BuildingBlock: GEDQOX_clean_sbu_0, # of connection points: 6
#     Node 20, Type 0, BuildingBlock: GEDQOX_clean_sbu_0, # of connection points: 6
#     Node 21, Type 0, BuildingBlock: GEDQOX_clean_sbu_0, # of connection points: 6
#     Node 22, Type 0, BuildingBlock: GEDQOX_clean_sbu_0, # of connection points: 6
#     Node 23, Type 0, BuildingBlock: GEDQOX_clean_sbu_0, # of connection points: 6
#     Node 24, Type 0, BuildingBlock: GEDQOX_clean_sbu_0, # of connection points: 6
#     Node 25, Type 0, BuildingBlock: GEDQOX_clean_sbu_0, # of connection points: 6
#     Node 26, Type 0, BuildingBlock: GEDQOX_clean_sbu_0, # of connection points: 6
#     Node 27, Type 0, BuildingBlock: GEDQOX_clean_sbu_0, # of connection points: 6
#     Node 28, Type 0, BuildingBlock: GEDQOX_clean_sbu_0, # of connection points: 6
#     Node 29, Type 0, BuildingBlock: GEDQOX_clean_sbu_0, # of connection points: 6
#     Node 30, Type 0, BuildingBlock: GEDQOX_clean_sbu_0, # of connection points: 6
#     Node 31, Type 0, BuildingBlock: GEDQOX_clean_sbu_0, # of connection points: 6
#     Edge 32, Type (0, 0), BuildingBlock: KIFKEQ_clean_linker_1, # of connection points: 2
#     Edge 33, Type (0, 0), BuildingBlock: KIFKEQ_clean_linker_1, # of connection points: 2
#     Edge 34, Type (0, 0), BuildingBlock: KIFKEQ_clean_linker_1, # of connection points: 2
#     Edge 35, Type (0, 0), BuildingBlock: KIFKEQ_clean_linker_1, # of connection points: 2
#     Edge 36, Type (0, 0), BuildingBlock: KIFKEQ_clean_linker_1, # of connection points: 2
#     Edge 37, Type (0, 0), BuildingBlock: KIFKEQ_clean_linker_1, # of connection points: 2
#     Edge 38, Type (0, 0), BuildingBlock: KIFKEQ_clean_linker_1, # of connection points: 2
#     Edge 39, Type (0, 0), BuildingBlock: KIFKEQ_clean_linker_1, # of connection points: 2
#     Edge 40, Type (0, 0), BuildingBlock: KIFKEQ_clean_linker_1, # of connection points: 2
#     Edge 41, Type (0, 0), BuildingBlock: KIFKEQ_clean_linker_1, # of connection points: 2
#     Edge 42, Type (0, 0), BuildingBlock: KIFKEQ_clean_linker_1, # of connection points: 2
#     Edge 43, Type (0, 0), BuildingBlock: KIFKEQ_clean_linker_1, # of connection points: 2
#     Edge 44, Type (0, 0), BuildingBlock: KIFKEQ_clean_linker_1, # of connection points: 2
#     Edge 45, Type (0, 0), BuildingBlock: KIFKEQ_clean_linker_1, # of connection points: 2
#     Edge 46, Type (0, 0), BuildingBlock: KIFKEQ_clean_linker_1, # of connection points: 2
#     Edge 47, Type (0, 0), BuildingBlock: KIFKEQ_clean_linker_1, # of connection points: 2
#     Edge 48, Type (0, 0), BuildingBlock: KIFKEQ_clean_linker_1, # of connection points: 2
#     Edge 49, Type (0, 0), BuildingBlock: KIFKEQ_clean_linker_1, # of connection points: 2
#     Edge 50, Type (0, 0), BuildingBlock: KIFKEQ_clean_linker_1, # of connection points: 2
#     Edge 51, Type (0, 0), BuildingBlock: KIFKEQ_clean_linker_1, # of connection points: 2
#     Edge 52, Type (0, 0), BuildingBlock: KIFKEQ_clean_linker_1, # of connection points: 2
#     Edge 53, Type (0, 0), BuildingBlock: KIFKEQ_clean_linker_1, # of connection points: 2
#     Edge 54, Type (0, 0), BuildingBlock: KIFKEQ_clean_linker_1, # of connection points: 2
#     Edge 55, Type (0, 0), BuildingBlock: KIFKEQ_clean_linker_1, # of connection points: 2
#     Edge 56, Type (0, 0), BuildingBlock: KIFKEQ_clean_linker_1, # of connection points: 2
#     Edge 57, Type (0, 0), BuildingBlock: KIFKEQ_clean_linker_1, # of connection points: 2
#     Edge 58, Type (0, 0), BuildingBlock: KIFKEQ_clean_linker_1, # of connection points: 2
#     Edge 59, Type (0, 0), BuildingBlock: KIFKEQ_clean_linker_1, # of connection points: 2
#     Edge 60, Type (0, 0), BuildingBlock: KIFKEQ_clean_linker_1, # of connection points: 2
#     Edge 61, Type (0, 0), BuildingBlock: KIFKEQ_clean_linker_1, # of connection points: 2
#     Edge 62, Type (0, 0), BuildingBlock: KIFKEQ_clean_linker_1, # of connection points: 2
#     Edge 63, Type (0, 0), BuildingBlock: KIFKEQ_clean_linker_1, # of connection points: 2
#     Edge 64, Type (0, 0), BuildingBlock: KIFKEQ_clean_linker_1, # of connection points: 2
#     Edge 65, Type (0, 0), BuildingBlock: KIFKEQ_clean_linker_1, # of connection points: 2
#     Edge 66, Type (0, 0), BuildingBlock: KIFKEQ_clean_linker_1, # of connection points: 2
#     Edge 67, Type (0, 0), BuildingBlock: KIFKEQ_clean_linker_1, # of connection points: 2
#     Edge 68, Type (0, 0), BuildingBlock: KIFKEQ_clean_linker_1, # of connection points: 2
#     Edge 69, Type (0, 0), BuildingBlock: KIFKEQ_clean_linker_1, # of connection points: 2
#     Edge 70, Type (0, 0), BuildingBlock: KIFKEQ_clean_linker_1, # of connection points: 2
#     Edge 71, Type (0, 0), BuildingBlock: KIFKEQ_clean_linker_1, # of connection points: 2
#     Edge 72, Type (0, 0), BuildingBlock: KIFKEQ_clean_linker_1, # of connection points: 2
#     Edge 73, Type (0, 0), BuildingBlock: KIFKEQ_clean_linker_1, # of connection points: 2
#     Edge 74, Type (0, 0), BuildingBlock: KIFKEQ_clean_linker_1, # of connection points: 2
#     Edge 75, Type (0, 0), BuildingBlock: KIFKEQ_clean_linker_1, # of connection points: 2
#     Edge 76, Type (0, 0), BuildingBlock: KIFKEQ_clean_linker_1, # of connection points: 2
#     Edge 77, Type (0, 0), BuildingBlock: KIFKEQ_clean_linker_1, # of connection points: 2
#     Edge 78, Type (0, 0), BuildingBlock: KIFKEQ_clean_linker_1, # of connection points: 2
#     Edge 79, Type (0, 0), BuildingBlock: KIFKEQ_clean_linker_1, # of connection points: 2
#     Edge 80, Type (0, 0), BuildingBlock: KIFKEQ_clean_linker_1, # of connection points: 2
#     Edge 81, Type (0, 0), BuildingBlock: KIFKEQ_clean_linker_1, # of connection points: 2
#     Edge 82, Type (0, 0), BuildingBlock: KIFKEQ_clean_linker_1, # of connection points: 2
#     Edge 83, Type (0, 0), BuildingBlock: KIFKEQ_clean_linker_1, # of connection points: 2
#     Edge 84, Type (0, 0), BuildingBlock: KIFKEQ_clean_linker_1, # of connection points: 2
#     Edge 85, Type (0, 0), BuildingBlock: KIFKEQ_clean_linker_1, # of connection points: 2
#     Edge 86, Type (0, 0), BuildingBlock: KIFKEQ_clean_linker_1, # of connection points: 2
#     Edge 87, Type (0, 0), BuildingBlock: KIFKEQ_clean_linker_1, # of connection points: 2
#     Edge 88, Type (0, 0), BuildingBlock: KIFKEQ_clean_linker_1, # of connection points: 2
#     Edge 89, Type (0, 0), BuildingBlock: KIFKEQ_clean_linker_1, # of connection points: 2
#     Edge 90, Type (0, 0), BuildingBlock: KIFKEQ_clean_linker_1, # of connection points: 2
#     Edge 91, Type (0, 0), BuildingBlock: KIFKEQ_clean_linker_1, # of connection points: 2
#     Edge 92, Type (0, 0), BuildingBlock: KIFKEQ_clean_linker_1, # of connection points: 2
#     Edge 93, Type (0, 0), BuildingBlock: KIFKEQ_clean_linker_1, # of connection points: 2
#     Edge 94, Type (0, 0), BuildingBlock: KIFKEQ_clean_linker_1, # of connection points: 2
#     Edge 95, Type (0, 0), BuildingBlock: KIFKEQ_clean_linker_1, # of connection points: 2
#     Edge 96, Type (0, 0), BuildingBlock: KIFKEQ_clean_linker_1, # of connection points: 2
#     Edge 97, Type (0, 0), BuildingBlock: KIFKEQ_clean_linker_1, # of connection points: 2
#     Edge 98, Type (0, 0), BuildingBlock: KIFKEQ_clean_linker_1, # of connection points: 2
#     Edge 99, Type (0, 0), BuildingBlock: KIFKEQ_clean_linker_1, # of connection points: 2
#     Edge 100, Type (0, 0), BuildingBlock: KIFKEQ_clean_linker_1, # of connection points: 2
#     Edge 101, Type (0, 0), BuildingBlock: KIFKEQ_clean_linker_1, # of connection points: 2
#     Edge 102, Type (0, 0), BuildingBlock: KIFKEQ_clean_linker_1, # of connection points: 2
#     Edge 103, Type (0, 0), BuildingBlock: KIFKEQ_clean_linker_1, # of connection points: 2
#     Edge 104, Type (0, 0), BuildingBlock: KIFKEQ_clean_linker_1, # of connection points: 2
#     Edge 105, Type (0, 0), BuildingBlock: KIFKEQ_clean_linker_1, # of connection points: 2
#     Edge 106, Type (0, 0), BuildingBlock: KIFKEQ_clean_linker_1, # of connection points: 2
#     Edge 107, Type (0, 0), BuildingBlock: KIFKEQ_clean_linker_1, # of connection points: 2
#     Edge 108, Type (0, 0), BuildingBlock: KIFKEQ_clean_linker_1, # of connection points: 2
#     Edge 109, Type (0, 0), BuildingBlock: KIFKEQ_clean_linker_1, # of connection points: 2
#     Edge 110, Type (0, 0), BuildingBlock: KIFKEQ_clean_linker_1, # of connection points: 2
#     Edge 111, Type (0, 0), BuildingBlock: KIFKEQ_clean_linker_1, # of connection points: 2
#     Edge 112, Type (0, 0), BuildingBlock: KIFKEQ_clean_linker_1, # of connection points: 2
#     Edge 113, Type (0, 0), BuildingBlock: KIFKEQ_clean_linker_1, # of connection points: 2
#     Edge 114, Type (0, 0), BuildingBlock: KIFKEQ_clean_linker_1, # of connection points: 2
#     Edge 115, Type (0, 0), BuildingBlock: KIFKEQ_clean_linker_1, # of connection points: 2
#     Edge 116, Type (0, 0), BuildingBlock: KIFKEQ_clean_linker_1, # of connection points: 2
#     Edge 117, Type (0, 0), BuildingBlock: KIFKEQ_clean_linker_1, # of connection points: 2
#     Edge 118, Type (0, 0), BuildingBlock: KIFKEQ_clean_linker_1, # of connection points: 2
#     Edge 119, Type (0, 0), BuildingBlock: KIFKEQ_clean_linker_1, # of connection points: 2
#     Edge 120, Type (0, 0), BuildingBlock: KIFKEQ_clean_linker_1, # of connection points: 2
#     Edge 121, Type (0, 0), BuildingBlock: KIFKEQ_clean_linker_1, # of connection points: 2
#     Edge 122, Type (0, 0), BuildingBlock: KIFKEQ_clean_linker_1, # of connection points: 2
#     Edge 123, Type (0, 0), BuildingBlock: KIFKEQ_clean_linker_1, # of connection points: 2
#     Edge 124, Type (0, 0), BuildingBlock: KIFKEQ_clean_linker_1, # of connection points: 2
#     Edge 125, Type (0, 0), BuildingBlock: KIFKEQ_clean_linker_1, # of connection points: 2
#     Edge 126, Type (0, 0), BuildingBlock: KIFKEQ_clean_linker_1, # of connection points: 2
#     Edge 127, Type (0, 0), BuildingBlock: KIFKEQ_clean_linker_1, # of connection points: 2
# Relax obj value: 0.151
# Max RMSD: 0.208
# Mean RMSD: 0.208
data_MOF--net-wio--node1-GEDQOX_clean_sbu_0--edge1-KIFKEQ_clean_linker_1
_symmetry_space_group_name_H-M    P1
_symmetry_Int_Tables_number       1
_symmetry_cell_setting            triclinic
loop_
_symmetry_equiv_pos_as_xyz
'x, y, z'
_cell_length_a     51.455202
_cell_length_b     51.437654
_cell_length_c     66.208262
_cell_angle_alpha  90.046005
_cell_angle_beta   89.997989
_cell_angle_gamma 90.042855
loop_
_atom_site_label
_atom_site_type_symbol
_atom_site_fract_x
_atom_site_fract_y
_atom_site_fract_z
_atom_type_partial_charge
Nd0 Nd 0.10817 0.12313 0.31603 0.0
Nd1 Nd 0.13916 0.10262 0.35119 0.0
C2 C 0.08797 0.13528 0.28041 0.0
C3 C 0.09484 0.13644 0.25869 0.0
C4 C 0.10267 0.11428 0.2478 0.0
C5 C 0.10746 0.11585 0.22697 0.0
C6 C 0.1045 0.13958 0.2166 0.0
C7 C 0.09734 0.16178 0.22773 0.0
C8 C 0.09247 0.16018 0.24846 0.0
C9 C 0.12022 0.15996 0.3448 0.0
C10 C 0.17064 0.11602 0.31018 0.0
C11 C 0.15976 0.09187 0.38724 0.0
C12 C 0.15579 0.07582 0.40579 0.0
C13 C 0.13375 0.07851 0.41822 0.0
C14 C 0.13126 0.06385 0.43607 0.0
C15 C 0.15074 0.04612 0.44204 0.0
C16 C 0.17266 0.04345 0.42944 0.0
C17 C 0.17515 0.0581 0.41167 0.0
C18 C 0.12673 0.06511 0.32338 0.0
C19 C 0.07409 0.10746 0.35436 0.0
O20 O 0.08544 0.11239 0.28879 0.0
O21 O 0.09913 0.15224 0.29231 0.0
O22 O 0.09772 0.15777 0.33615 0.0
O23 O 0.136 0.14306 0.33822 0.0
O24 O 0.14757 0.11466 0.30171 0.0
O25 O 0.17316 0.11569 0.33015 0.0
O26 O 0.14427 0.11159 0.38391 0.0
O27 O 0.16597 0.07965 0.37063 0.0
O28 O 0.14814 0.06546 0.33363 0.0
O29 O 0.11161 0.08297 0.32914 0.0
O30 O 0.09663 0.10451 0.3639 0.0
O31 O 0.07315 0.11195 0.33481 0.0
H32 H 0.10471 0.09566 0.25527 0.0
H33 H 0.11277 0.09832 0.21891 0.0
H34 H 0.09539 0.1805 0.22042 0.0
H35 H 0.08652 0.17755 0.25649 0.0
H36 H 0.11848 0.09206 0.41425 0.0
H37 H 0.1142 0.06678 0.44536 0.0
H38 H 0.1879 0.02976 0.43316 0.0
H39 H 0.1924 0.05563 0.40249 0.0
Nd40 Nd 0.12998 0.85451 0.56546 0.0
Nd41 Nd 0.15721 0.88515 0.59947 0.0
C42 C 0.11379 0.8345 0.53077 0.0
C43 C 0.11377 0.84066 0.50884 0.0
C44 C 0.13694 0.84312 0.4977 0.0
C45 C 0.13625 0.84845 0.47693 0.0
C46 C 0.11239 0.85134 0.46674 0.0
C47 C 0.08927 0.84883 0.47796 0.0
C48 C 0.08998 0.84355 0.4987 0.0
C49 C 0.09847 0.86591 0.59789 0.0
C50 C 0.14015 0.91727 0.55832 0.0
C51 C 0.17272 0.91227 0.63162 0.0
C52 C 0.18825 0.9088 0.65044 0.0
C53 C 0.18422 0.92554 0.66691 0.0
C54 C 0.19873 0.92286 0.68478 0.0
C55 C 0.21775 0.90329 0.68674 0.0
C56 C 0.22162 0.88643 0.67015 0.0
C57 C 0.20705 0.88913 0.65226 0.0
C58 C 0.18968 0.85999 0.57258 0.0
C59 C 0.14932 0.82226 0.6042 0.0
O60 O 0.13596 0.82822 0.53926 0.0
O61 O 0.09919 0.84909 0.54237 0.0
O62 O 0.09836 0.84391 0.5883 0.0
O63 O 0.11479 0.88146 0.59019 0.0
O64 O 0.13196 0.89482 0.55106 0.0
O65 O 0.14993 0.91932 0.57687 0.0
O66 O 0.15039 0.9001 0.63062 0.0
O67 O 0.18524 0.91192 0.61439 0.0
O68 O 0.19465 0.86163 0.59178 0.0
O69 O 0.16922 0.87213 0.56863 0.0
O70 O 0.14939 0.84491 0.61371 0.0
O71 O 0.14717 0.82106 0.58431 0.0
H72 H 0.15563 0.84084 0.50495 0.0
H73 H 0.15446 0.85049 0.46889 0.0
H74 H 0.07051 0.85044 0.47066 0.0
H75 H 0.07182 0.8415 0.50682 0.0
H76 H 0.16976 0.94078 0.66596 0.0
H77 H 0.19474 0.936 0.69718 0.0
H78 H 0.23623 0.87132 0.6708 0.0
H79 H 0.21058 0.87591 0.63981 0.0
Nd80 Nd 0.40368 0.87808 0.81498 0.0
Nd81 Nd 0.37289 0.90521 0.84823 0.0
C82 C 0.42549 0.86141 0.78116 0.0
C83 C 0.4211 0.86207 0.75919 0.0
C84 C 0.40147 0.87745 0.7506 0.0
C85 C 0.39781 0.87771 0.7296 0.0
C86 C 0.41369 0.86255 0.71685 0.0
C87 C 0.43311 0.84699 0.7257 0.0
C88 C 0.43677 0.84681 0.74662 0.0
C89 C 0.39271 0.84621 0.84738 0.0
C90 C 0.34147 0.88868 0.80649 0.0
C91 C 0.34562 0.92113 0.88013 0.0
C92 C 0.34869 0.9371 0.89892 0.0
C93 C 0.36416 0.92879 0.91527 0.0
C94 C 0.36575 0.94356 0.93316 0.0
C95 C 0.35199 0.9671 0.93523 0.0
C96 C 0.33656 0.97531 0.91883 0.0
C97 C 0.3349 0.96053 0.90102 0.0
C98 C 0.39824 0.93785 0.82151 0.0
C99 C 0.43559 0.89823 0.85357 0.0
O100 O 0.43167 0.88345 0.78988 0.0
O101 O 0.40913 0.8475 0.79177 0.0
O102 O 0.41458 0.84671 0.8377 0.0
O103 O 0.37687 0.86242 0.83983 0.0
O104 O 0.36396 0.8801 0.79966 0.0
O105 O 0.33912 0.89847 0.82503 0.0
O106 O 0.35757 0.89868 0.87921 0.0
O107 O 0.34566 0.9333 0.86276 0.0
O108 O 0.3966 0.94264 0.84074 0.0
O109 O 0.38612 0.91739 0.81744 0.0
O110 O 0.41292 0.89802 0.86298 0.0
O111 O 0.43681 0.89602 0.83371 0.0
H112 H 0.38906 0.88927 0.7601 0.0
H113 H 0.38279 0.89006 0.72334 0.0
H114 H 0.44535 0.83464 0.71648 0.0
H115 H 0.45187 0.83465 0.753 0.0
H116 H 0.375 0.9108 0.91433 0.0
H117 H 0.37803 0.93663 0.94529 0.0
H118 H 0.32527 0.99303 0.91984 0.0
H119 H 0.32252 0.96736 0.8889 0.0
Nd120 Nd 0.37172 0.14839 0.06454 0.0
Nd121 Nd 0.34997 0.11795 0.09916 0.0
C122 C 0.38763 0.16712 0.02933 0.0
C123 C 0.38634 0.16155 1.00747 0.0
C124 C 0.3631 0.15433 0.99778 0.0
C125 C 0.36291 0.14908 0.97697 0.0
C126 C 0.386 0.15066 0.9656 0.0
C127 C 0.40912 0.15786 0.97545 0.0
C128 C 0.40925 0.16328 0.99611 0.0
C129 C 0.40845 0.13399 0.09278 0.0
C130 C 0.35701 0.08796 0.05703 0.0
C131 C 0.33942 0.09754 0.13534 0.0
C132 C 0.32308 0.10172 0.15383 0.0
C133 C 0.3326 0.11566 0.17061 0.0
C134 C 0.31779 0.11802 0.18841 0.0
C135 C 0.29302 0.10646 0.19002 0.0
C136 C 0.28361 0.09247 0.17321 0.0
C137 C 0.29839 0.09009 0.15547 0.0
C138 C 0.31217 0.13358 0.07264 0.0
C139 C 0.35722 0.18285 0.10282 0.0
O140 O 0.36653 0.17507 0.03845 0.0
O141 O 0.40117 0.15086 0.0402 0.0
O142 O 0.40688 0.15669 0.08445 0.0
O143 O 0.39061 0.1191 0.08631 0.0
O144 O 0.35588 0.11163 0.04968 0.0
O145 O 0.36014 0.08433 0.07673 0.0
O146 O 0.35894 0.11329 0.13197 0.0
O147 O 0.32765 0.09073 0.11866 0.0
O148 O 0.31104 0.11225 0.08297 0.0
O149 O 0.33148 0.1472 0.07788 0.0
O150 O 0.35346 0.16018 0.112 0.0
O151 O 0.3622 0.18407 0.08334 0.0
H152 H 0.34517 0.15265 1.00626 0.0
H153 H 0.34483 0.14344 0.96983 0.0
H154 H 0.42714 0.15966 0.9671 0.0
H155 H 0.42737 0.16886 1.00326 0.0
H156 H 0.35164 0.12462 0.17007 0.0
H157 H 0.32572 0.12915 0.20086 0.0
H158 H 0.26491 0.08283 0.17384 0.0
H159 H 0.29053 0.07876 0.1431 0.0
Nd160 Nd 0.10513 0.8876 0.2146 0.0
Nd161 Nd 0.13825 0.90456 0.17941 0.0
C162 C 0.08409 0.8777 0.25042 0.0
C163 C 0.09011 0.87876 0.27234 0.0
C164 C 0.073 0.89167 0.28545 0.0
C165 C 0.07684 0.89091 0.30639 0.0
C166 C 0.09782 0.87705 0.3148 0.0
C167 C 0.11542 0.86481 0.30155 0.0
C168 C 0.11164 0.86568 0.28058 0.0
C169 C 0.1187 0.84825 0.18826 0.0
C170 C 0.16717 0.89657 0.22203 0.0
C171 C 0.15998 0.91188 0.14321 0.0
C172 C 0.15543 0.92706 0.12442 0.0
C173 C 0.1715 0.92315 0.10754 0.0
C174 C 0.16857 0.93833 0.09004 0.0
C175 C 0.14948 0.95793 0.08893 0.0
C176 C 0.13304 0.96139 0.10582 0.0
C177 C 0.13598 0.94616 0.12332 0.0
C178 C 0.12482 0.94487 0.20441 0.0
C179 C 0.07321 0.90033 0.17457 0.0
O180 O 0.0809 0.89973 0.24089 0.0
O181 O 0.09632 0.86037 0.23954 0.0
O182 O 0.09566 0.85131 0.19583 0.0
O183 O 0.13411 0.86564 0.19457 0.0
O184 O 0.14354 0.89968 0.22923 0.0
O185 O 0.17077 0.89285 0.20235 0.0
O186 O 0.14393 0.89284 0.14723 0.0
O187 O 0.16612 0.92514 0.15936 0.0
O188 O 0.14659 0.94344 0.19468 0.0
O189 O 0.10981 0.92648 0.19942 0.0
O190 O 0.09639 0.90129 0.16576 0.0
O191 O 0.07096 0.89806 0.19432 0.0
H192 H 0.0563 0.90195 0.27951 0.0
H193 H 0.06317 0.90107 0.316 0.0
H194 H 0.13168 0.85377 0.30737 0.0
H195 H 0.12525 0.85556 0.27089 0.0
H196 H 0.18671 0.90862 0.10802 0.0
H197 H 0.18184 0.93517 0.07759 0.0
H198 H 0.11785 0.97594 0.10556 0.0
H199 H 0.12327 0.94952 0.1361 0.0
Nd200 Nd 0.37636 0.85709 0.46535 0.0
Nd201 Nd 0.35269 0.88774 0.43098 0.0
C202 C 0.39151 0.83692 0.50027 0.0
C203 C 0.39231 0.84269 0.52218 0.0
C204 C 0.36963 0.84745 0.53347 0.0
C205 C 0.37102 0.85111 0.55444 0.0
C206 C 0.39509 0.85009 0.56456 0.0
C207 C 0.41774 0.84601 0.55306 0.0
C208 C 0.41633 0.84226 0.53218 0.0
C209 C 0.41083 0.86996 0.43521 0.0
C210 C 0.36666 0.91933 0.47189 0.0
C211 C 0.33965 0.90803 0.39521 0.0
C212 C 0.32506 0.90249 0.37621 0.0
C213 C 0.331 0.9165 0.35859 0.0
C214 C 0.3161 0.91348 0.34093 0.0
C215 C 0.29471 0.89632 0.34035 0.0
C216 C 0.28929 0.88175 0.35795 0.0
C217 C 0.30423 0.8848 0.37562 0.0
C218 C 0.31772 0.87406 0.46033 0.0
C219 C 0.35907 0.82281 0.42746 0.0
O220 O 0.3689 0.83212 0.49202 0.0
O221 O 0.40679 0.85058 0.48859 0.0
O222 O 0.40981 0.84746 0.44397 0.0
O223 O 0.39402 0.88538 0.44244 0.0
O224 O 0.36697 0.89608 0.48015 0.0
O225 O 0.36492 0.92215 0.45197 0.0
O226 O 0.36146 0.89565 0.39843 0.0
O227 O 0.32606 0.91094 0.41173 0.0
O228 O 0.31666 0.89563 0.45027 0.0
O229 O 0.3355 0.85952 0.45366 0.0
O230 O 0.3548 0.84529 0.41815 0.0
O231 O 0.36503 0.82189 0.44678 0.0
H232 H 0.35078 0.84791 0.52618 0.0
H233 H 0.35315 0.85403 0.56278 0.0
H234 H 0.43666 0.84562 0.56021 0.0
H235 H 0.43409 0.83867 0.52384 0.0
H236 H 0.34684 0.93039 0.35863 0.0
H237 H 0.32086 0.92533 0.32794 0.0
H238 H 0.27335 0.86801 0.35815 0.0
H239 H 0.29922 0.87366 0.38894 0.0
Nd240 Nd 0.40064 0.12584 0.71537 0.0
Nd241 Nd 0.36893 0.10301 0.68161 0.0
C242 C 0.42134 0.14066 0.75022 0.0
C243 C 0.41575 0.1396 0.77201 0.0
C244 C 0.39746 0.12215 0.78002 0.0
C245 C 0.39264 0.12159 0.80087 0.0
C246 C 0.4061 0.13843 0.81402 0.0
C247 C 0.42412 0.15607 0.80575 0.0
C248 C 0.42888 0.15661 0.78499 0.0
C249 C 0.38711 0.1615 0.68614 0.0
C250 C 0.33883 0.11626 0.72305 0.0
C251 C 0.34805 0.09041 0.64594 0.0
C252 C 0.35223 0.07386 0.62754 0.0
C253 C 0.36642 0.08298 0.61076 0.0
C254 C 0.36864 0.06794 0.59304 0.0
C255 C 0.3567 0.04331 0.59153 0.0
C256 C 0.34248 0.03431 0.60834 0.0
C257 C 0.34024 0.04933 0.62598 0.0
C258 C 0.38318 0.06713 0.71016 0.0
C259 C 0.4339 0.10841 0.67707 0.0
O260 O 0.42701 0.11872 0.74127 0.0
O261 O 0.40617 0.15546 0.73937 0.0
O262 O 0.4097 0.16007 0.69473 0.0
O263 O 0.37183 0.14432 0.69311 0.0
O264 O 0.36238 0.11526 0.73073 0.0
O265 O 0.33539 0.11582 0.70316 0.0
O266 O 0.36288 0.11079 0.64874 0.0
O267 O 0.34246 0.07869 0.66291 0.0
O268 O 0.36142 0.06638 0.70035 0.0
O269 O 0.39764 0.08503 0.70353 0.0
O270 O 0.41104 0.10427 0.66831 0.0
O271 O 0.43557 0.11485 0.69627 0.0
H272 H 0.38704 0.1089 0.77019 0.0
H273 H 0.37876 0.10767 0.80672 0.0
H274 H 0.43446 0.16967 0.81533 0.0
H275 H 0.44289 0.17036 0.77904 0.0
H276 H 0.37566 0.10189 0.61122 0.0
H277 H 0.37994 0.07555 0.58059 0.0
H278 H 0.33255 0.01576 0.60778 0.0
H279 H 0.3287 0.0418 0.63835 0.0
Nd280 Nd 0.12968 0.14782 0.96526 0.0
Nd281 Nd 0.15184 0.11765 0.93034 0.0
C282 C 0.11378 0.16714 1.00033 0.0
C283 C 0.11702 0.16424 0.02231 0.0
C284 C 0.13525 0.14704 0.03068 0.0
C285 C 0.13694 0.14404 0.05173 0.0
C286 C 0.12045 0.15824 0.06469 0.0
C287 C 0.10231 0.17543 0.05604 0.0
C288 C 0.10066 0.17838 0.03512 0.0
C289 C 0.09315 0.13349 0.93676 0.0
C290 C 0.14484 0.08755 0.97243 0.0
C291 C 0.16291 0.09717 0.89425 0.0
C292 C 0.18 0.10084 0.87614 0.0
C293 C 0.17461 0.11966 0.86124 0.0
C294 C 0.19018 0.12175 0.84381 0.0
C295 C 0.21159 0.10509 0.84073 0.0
C296 C 0.21679 0.08624 0.85563 0.0
C297 C 0.20123 0.08412 0.87298 0.0
C298 C 0.18937 0.13396 0.95698 0.0
C299 C 0.14381 0.18227 0.92686 0.0
O300 O 0.13328 0.17674 0.99009 0.0
O301 O 0.1021 0.14809 0.99094 0.0
O302 O 0.09426 0.15591 0.9456 0.0
O303 O 0.1111 0.11868 0.94309 0.0
O304 O 0.14621 0.11123 0.97984 0.0
O305 O 0.14156 0.08406 0.95271 0.0
O306 O 0.14387 0.11355 0.89735 0.0
O307 O 0.17394 0.08986 0.9111 0.0
O308 O 0.19117 0.1129 0.94638 0.0
O309 O 0.16974 0.14702 0.9518 0.0
O310 O 0.14692 0.15967 0.91745 0.0
O311 O 0.13977 0.1834 0.94648 0.0
H312 H 0.148 0.13587 0.02098 0.0
H313 H 0.15123 0.13076 0.05784 0.0
H314 H 0.08893 0.18628 0.06544 0.0
H315 H 0.08631 0.19155 0.02892 0.0
H316 H 0.15829 0.13276 0.86298 0.0
H317 H 0.1856 0.13667 0.83285 0.0
H318 H 0.23271 0.0727 0.85378 0.0
H319 H 0.20571 0.06908 0.88388 0.0
Nd320 Nd 0.8671 0.90426 0.67563 0.0
Nd321 Nd 0.89584 0.88434 0.71212 0.0
C322 C 0.84776 0.91276 0.63881 0.0
C323 C 0.85283 0.92764 0.61996 0.0
C324 C 0.84152 0.91942 0.60173 0.0
C325 C 0.84455 0.934 0.58396 0.0
C326 C 0.85903 0.95728 0.5839 0.0
C327 C 0.87071 0.96522 0.60221 0.0
C328 C 0.86765 0.95059 0.61999 0.0
C329 C 0.88007 0.94298 0.70226 0.0
C330 C 0.93218 0.89767 0.6746 0.0
C331 C 0.91305 0.87123 0.74847 0.0
C332 C 0.90586 0.87294 0.77014 0.0
C333 C 0.90723 0.89648 0.78094 0.0
C334 C 0.90181 0.89711 0.8017 0.0
C335 C 0.89482 0.87426 0.81206 0.0
C336 C 0.89315 0.85086 0.80114 0.0
C337 C 0.8987 0.85021 0.78049 0.0
C338 C 0.88359 0.847 0.68371 0.0
C339 C 0.83454 0.89704 0.7166 0.0
O340 O 0.86318 0.89332 0.64309 0.0
O341 O 0.84134 0.92613 0.65483 0.0
O342 O 0.85932 0.94314 0.69119 0.0
O343 O 0.89448 0.92395 0.69779 0.0
O344 O 0.9102 0.90082 0.66432 0.0
O345 O 0.9321 0.8938 0.69426 0.0
O346 O 0.92013 0.89253 0.73914 0.0
O347 O 0.8989 0.85594 0.73714 0.0
O348 O 0.90589 0.84884 0.69268 0.0
O349 O 0.86818 0.86449 0.6898 0.0
O350 O 0.85754 0.89914 0.72503 0.0
O351 O 0.83244 0.89338 0.69682 0.0
H352 H 0.82999 0.90179 0.60129 0.0
H353 H 0.83558 0.92693 0.57022 0.0
H354 H 0.88172 0.98313 0.60297 0.0
H355 H 0.87651 0.95745 0.63385 0.0
H356 H 0.91274 0.91437 0.77344 0.0
H357 H 0.90309 0.91548 0.80963 0.0
H358 H 0.88824 0.83283 0.80868 0.0
H359 H 0.89779 0.83174 0.77264 0.0
Nd360 Nd 0.85181 0.12033 0.42876 0.0
Nd361 Nd 0.87422 0.15038 0.46398 0.0
C362 C 0.83989 0.10067 0.39252 0.0
C363 C 0.82427 0.10572 0.37391 0.0
C364 C 0.83323 0.0967 0.35511 0.0
C365 C 0.81791 0.09915 0.3376 0.0
C366 C 0.79306 0.11066 0.33837 0.0
C367 C 0.78444 0.12027 0.35722 0.0
C368 C 0.79979 0.11784 0.37471 0.0
C369 C 0.81555 0.1336 0.45729 0.0
C370 C 0.85861 0.18532 0.42605 0.0
C371 C 0.88809 0.16908 0.49979 0.0
C372 C 0.88809 0.16191 0.52148 0.0
C373 C 0.86551 0.15338 0.53148 0.0
C374 C 0.86612 0.14767 0.55221 0.0
C375 C 0.88934 0.15018 0.56333 0.0
C376 C 0.91189 0.15848 0.55316 0.0
C377 C 0.91123 0.16431 0.53253 0.0
C378 C 0.90991 0.13746 0.43462 0.0
C379 C 0.86486 0.0881 0.46928 0.0
O380 O 0.86048 0.115 0.39585 0.0
O381 O 0.82723 0.09539 0.40912 0.0
O382 O 0.81478 0.11233 0.44683 0.0
O383 O 0.83377 0.14818 0.45139 0.0
O384 O 0.85448 0.16296 0.4165 0.0
O385 O 0.86406 0.18603 0.44548 0.0
O386 O 0.86574 0.1741 0.49121 0.0
O387 O 0.90385 0.15617 0.488 0.0
O388 O 0.9087 0.15992 0.44348 0.0
O389 O 0.89266 0.12217 0.44135 0.0
O390 O 0.86373 0.11115 0.47784 0.0
O391 O 0.86451 0.08578 0.44929 0.0
H392 H 0.85193 0.08714 0.35403 0.0
H393 H 0.82528 0.09125 0.32356 0.0
H394 H 0.76571 0.12969 0.35851 0.0
H395 H 0.79233 0.12508 0.38894 0.0
H396 H 0.84738 0.15124 0.52333 0.0
H397 H 0.84846 0.14111 0.55951 0.0
H398 H 0.93001 0.16102 0.56125 0.0
H399 H 0.92885 0.17099 0.52522 0.0
Nd400 Nd 0.63765 0.09987 0.17793 0.0
Nd401 Nd 0.60349 0.11948 0.21173 0.0
C402 C 0.65975 0.08821 0.14252 0.0
C403 C 0.65457 0.07415 0.12321 0.0
C404 C 0.66898 0.08039 0.10585 0.0
C405 C 0.66627 0.06584 0.08796 0.0
C406 C 0.64908 0.04451 0.08694 0.0
C407 C 0.63409 0.03881 0.10427 0.0
C408 C 0.6368 0.05342 0.12214 0.0
C409 C 0.62528 0.06296 0.20623 0.0
C410 C 0.57256 0.10195 0.17249 0.0
C411 C 0.58221 0.12983 0.24732 0.0
C412 C 0.59033 0.1316 0.26886 0.0
C413 C 0.59064 0.10943 0.2813 0.0
C414 C 0.59712 0.11146 0.3018 0.0
C415 C 0.60345 0.13569 0.31039 0.0
C416 C 0.60343 0.15778 0.29788 0.0
C417 C 0.59684 0.15578 0.27742 0.0
C418 C 0.61537 0.15647 0.18309 0.0
C419 C 0.66662 0.11562 0.21948 0.0
O420 O 0.64742 0.11001 0.14592 0.0
O421 O 0.66193 0.07408 0.1588 0.0
O422 O 0.64791 0.06492 0.19782 0.0
O423 O 0.60973 0.07954 0.19911 0.0
O424 O 0.59585 0.10092 0.16386 0.0
O425 O 0.57003 0.10582 0.19206 0.0
O426 O 0.58181 0.10676 0.23898 0.0
O427 O 0.59079 0.1478 0.23503 0.0
O428 O 0.59258 0.15349 0.1912 0.0
O429 O 0.63158 0.14041 0.19033 0.0
O430 O 0.643 0.11443 0.22707 0.0
O431 O 0.67046 0.11406 0.19966 0.0
H432 H 0.68293 0.09616 0.10626 0.0
H433 H 0.67839 0.07078 0.07516 0.0
H434 H 0.62032 0.02289 0.1041 0.0
H435 H 0.62535 0.04819 0.13525 0.0
H436 H 0.58565 0.09049 0.27528 0.0
H437 H 0.59719 0.094 0.31094 0.0
H438 H 0.60783 0.1768 0.30402 0.0
H439 H 0.59651 0.17331 0.26836 0.0
Nd440 Nd 0.6566 0.88598 0.92698 0.0
Nd441 Nd 0.6372 0.85572 0.96283 0.0
C442 C 0.66508 0.90622 0.89045 0.0
C443 C 0.6799 0.90138 0.8715 0.0
C444 C 0.67105 0.91203 0.85323 0.0
C445 C 0.68572 0.90959 0.83542 0.0
C446 C 0.70976 0.89646 0.8354 0.0
C447 C 0.71821 0.88518 0.8537 0.0
C448 C 0.70348 0.88761 0.8715 0.0
C449 C 0.69551 0.87246 0.95323 0.0
C450 C 0.65018 0.82095 0.92424 0.0
C451 C 0.62497 0.83673 0.99884 0.0
C452 C 0.62524 0.84387 0.02049 0.0
C453 C 0.648 0.85198 0.03045 0.0
C454 C 0.64741 0.8581 0.05111 0.0
C455 C 0.62405 0.85643 0.06213 0.0
C456 C 0.60137 0.84844 0.05201 0.0
C457 C 0.602 0.84219 0.03149 0.0
C458 C 0.59911 0.86868 0.93524 0.0
C459 C 0.64898 0.91732 0.96875 0.0
O460 O 0.64547 0.89092 0.89456 0.0
O461 O 0.67851 0.91222 0.90654 0.0
O462 O 0.69531 0.89369 0.94274 0.0
O463 O 0.67668 0.85793 0.94838 0.0
O464 O 0.65337 0.84338 0.91461 0.0
O465 O 0.64633 0.82014 0.9439 0.0
O466 O 0.64717 0.83214 0.98986 0.0
O467 O 0.60863 0.84941 0.9874 0.0
O468 O 0.60106 0.84635 0.94416 0.0
O469 O 0.61684 0.88402 0.94115 0.0
O470 O 0.65064 0.89399 0.9767 0.0
O471 O 0.64592 0.92011 0.94893 0.0
H472 H 0.65299 0.92284 0.85281 0.0
H473 H 0.67859 0.91881 0.82181 0.0
H474 H 0.73634 0.87455 0.85433 0.0
H475 H 0.71074 0.87908 0.88535 0.0
H476 H 0.66621 0.85357 0.02233 0.0
H477 H 0.66518 0.86436 0.05842 0.0
H478 H 0.58314 0.84653 0.06006 0.0
H479 H 0.58424 0.83586 0.02418 0.0
Nd480 Nd 0.86553 0.09899 0.84996 0.0
Nd481 Nd 0.89916 0.11702 0.81492 0.0
C482 C 0.84411 0.09049 0.88612 0.0
C483 C 0.84919 0.07588 0.90515 0.0
C484 C 0.83552 0.08232 0.92282 0.0
C485 C 0.83853 0.06762 0.94057 0.0
C486 C 0.85529 0.04595 0.94113 0.0
C487 C 0.86946 0.03997 0.92345 0.0
C488 C 0.86646 0.05474 0.90572 0.0
C489 C 0.87791 0.06009 0.82342 0.0
C490 C 0.93061 0.1017 0.85471 0.0
C491 C 0.92139 0.1266 0.77949 0.0
C492 C 0.91539 0.12811 0.75767 0.0
C493 C 0.89776 0.11105 0.74829 0.0
C494 C 0.89342 0.11247 0.72737 0.0
C495 C 0.90662 0.13097 0.71545 0.0
C496 C 0.92374 0.14835 0.72512 0.0
C497 C 0.92809 0.14688 0.74593 0.0
C498 C 0.88681 0.15557 0.84235 0.0
C499 C 0.83637 0.11159 0.80763 0.0
O500 O 0.85888 0.11055 0.88212 0.0
O501 O 0.83905 0.07672 0.87001 0.0
O502 O 0.85613 0.06142 0.83315 0.0
O503 O 0.89334 0.07778 0.8291 0.0
O504 O 0.90745 0.10062 0.86353 0.0
O505 O 0.93291 0.10493 0.83505 0.0
O506 O 0.92108 0.10365 0.78799 0.0
O507 O 0.9116 0.14472 0.79104 0.0
O508 O 0.90936 0.15283 0.83384 0.0
O509 O 0.87096 0.13856 0.83595 0.0
O510 O 0.85987 0.10982 0.7999 0.0
O511 O 0.83275 0.11161 0.82753 0.0
H512 H 0.822 0.09846 0.92279 0.0
H513 H 0.82704 0.07277 0.95367 0.0
H514 H 0.88287 0.02376 0.92326 0.0
H515 H 0.87734 0.04939 0.89234 0.0
H516 H 0.88761 0.09646 0.75706 0.0
H517 H 0.8802 0.09868 0.72048 0.0
H518 H 0.93383 0.16321 0.71659 0.0
H519 H 0.94161 0.16036 0.75287 0.0
Nd520 Nd 0.65514 0.11948 0.59761 0.0
Nd521 Nd 0.62813 0.14959 0.55995 0.0
C522 C 0.67003 0.09373 0.63055 0.0
C523 C 0.68567 0.09718 0.6495 0.0
C524 C 0.67775 0.11386 0.66525 0.0
C525 C 0.69231 0.11586 0.68323 0.0
C526 C 0.71525 0.10128 0.68603 0.0
C527 C 0.723 0.08455 0.67024 0.0
C528 C 0.70844 0.08252 0.65234 0.0
C529 C 0.68743 0.14374 0.57017 0.0
C530 C 0.64355 0.18246 0.60065 0.0
C531 C 0.61937 0.17331 0.52515 0.0
C532 C 0.62451 0.1703 0.50336 0.0
C533 C 0.63595 0.14763 0.49562 0.0
C534 C 0.63764 0.14371 0.4747 0.0
C535 C 0.62773 0.16233 0.46111 0.0
C536 C 0.61696 0.18534 0.46906 0.0
C537 C 0.61539 0.18925 0.48994 0.0
C538 C 0.59027 0.13372 0.58716 0.0
C539 C 0.64158 0.08716 0.55533 0.0
O540 O 0.64772 0.10589 0.62901 0.0
O541 O 0.68265 0.09289 0.61337 0.0
O542 O 0.69296 0.14203 0.5893 0.0
O543 O 0.66671 0.13178 0.56656 0.0
O544 O 0.64711 0.16032 0.61055 0.0
O545 O 0.63938 0.18338 0.58092 0.0
O546 O 0.63895 0.17935 0.53698 0.0
O547 O 0.60374 0.15596 0.53303 0.0
O548 O 0.58572 0.14646 0.57068 0.0
O549 O 0.61448 0.13009 0.58871 0.0
O550 O 0.63674 0.10974 0.54658 0.0
O551 O 0.64591 0.08509 0.57517 0.0
H552 H 0.66026 0.12539 0.66374 0.0
H553 H 0.68574 0.12915 0.69484 0.0
H554 H 0.7402 0.07261 0.67178 0.0
H555 H 0.71494 0.0692 0.64071 0.0
H556 H 0.6429 0.13267 0.50574 0.0
H557 H 0.6464 0.12593 0.46919 0.0
H558 H 0.60874 0.19995 0.45919 0.0
H559 H 0.6062 0.20673 0.49563 0.0
Nd560 Nd 0.63864 0.90095 0.35047 0.0
Nd561 Nd 0.6079 0.88396 0.31381 0.0
C562 C 0.65823 0.90828 0.38731 0.0
C563 C 0.65371 0.92462 0.40563 0.0
C564 C 0.65046 0.91289 0.42465 0.0
C565 C 0.64756 0.92805 0.4422 0.0
C566 C 0.64788 0.95543 0.44122 0.0
C567 C 0.65105 0.96707 0.42209 0.0
C568 C 0.65384 0.95194 0.40459 0.0
C569 C 0.62698 0.94095 0.32472 0.0
C570 C 0.57346 0.89667 0.35272 0.0
C571 C 0.58854 0.87547 0.27729 0.0
C572 C 0.59524 0.87801 0.25564 0.0
C573 C 0.57728 0.88942 0.24243 0.0
C574 C 0.58195 0.8899 0.22162 0.0
C575 C 0.60467 0.87879 0.21349 0.0
C576 C 0.6231 0.86816 0.22686 0.0
C577 C 0.61846 0.8678 0.24772 0.0
C578 C 0.61949 0.84437 0.34049 0.0
C579 C 0.67019 0.89282 0.30912 0.0
O580 O 0.64122 0.89014 0.38313 0.0
O581 O 0.66681 0.91995 0.37109 0.0
O582 O 0.64816 0.93964 0.33521 0.0
O583 O 0.61169 0.92268 0.3293 0.0
O584 O 0.5959 0.89897 0.36248 0.0
O585 O 0.57261 0.89316 0.33303 0.0
O586 O 0.58429 0.89687 0.28747 0.0
O587 O 0.60106 0.85793 0.28775 0.0
O588 O 0.59748 0.84687 0.33114 0.0
O589 O 0.63523 0.86203 0.3352 0.0
O590 O 0.6472 0.89604 0.30083 0.0
O591 O 0.67236 0.88879 0.32886 0.0
H592 H 0.65037 0.8919 0.42597 0.0
H593 H 0.64489 0.91827 0.45653 0.0
H594 H 0.65193 0.98801 0.42059 0.0
H595 H 0.65645 0.96172 0.39025 0.0
H596 H 0.5593 0.89752 0.24818 0.0
H597 H 0.56757 0.89876 0.21187 0.0
H598 H 0.64072 0.85927 0.22119 0.0
H599 H 0.63275 0.85895 0.25756 0.0
Nd600 Nd 0.85206 0.88692 0.10025 0.0
Nd601 Nd 0.87207 0.85757 0.06418 0.0
C602 C 0.84266 0.90635 0.13692 0.0
C603 C 0.82626 0.90247 0.15537 0.0
C604 C 0.83226 0.8836 0.17007 0.0
C605 C 0.81773 0.8818 0.18806 0.0
C606 C 0.79693 0.89895 0.19193 0.0
C607 C 0.79074 0.91744 0.17699 0.0
C608 C 0.80521 0.91923 0.15909 0.0
C609 C 0.81335 0.87324 0.07378 0.0
C610 C 0.85855 0.82189 0.10215 0.0
C611 C 0.88432 0.84009 0.0277 0.0
C612 C 0.88161 0.84727 1.00605 0.0
C613 C 0.86192 0.83617 0.9941 0.0
C614 C 0.86066 0.84126 0.97334 0.0
C615 C 0.87912 0.8575 0.964 0.0
C616 C 0.89849 0.86901 0.97605 0.0
C617 C 0.89977 0.8639 0.99678 0.0
C618 C 0.90999 0.87021 0.09203 0.0
C619 C 0.85908 0.91886 0.05894 0.0
O620 O 0.86139 0.88984 0.1331 0.0
O621 O 0.83105 0.91428 0.12049 0.0
O622 O 0.81313 0.89422 0.0846 0.0
O623 O 0.83243 0.85902 0.07844 0.0
O624 O 0.85508 0.84411 0.11204 0.0
O625 O 0.86306 0.82151 0.08256 0.0
O626 O 0.86342 0.83278 0.03745 0.0
O627 O 0.89982 0.85433 0.03878 0.0
O628 O 0.90826 0.84814 0.08269 0.0
O629 O 0.8921 0.88557 0.08641 0.0
O630 O 0.85726 0.89561 0.05085 0.0
O631 O 0.86265 0.9214 0.07871 0.0
H632 H 0.84847 0.87049 0.16788 0.0
H633 H 0.82329 0.86742 0.19918 0.0
H634 H 0.77462 0.93068 0.17908 0.0
H635 H 0.80009 0.93411 0.14822 0.0
H636 H 0.84772 0.82317 1.00073 0.0
H637 H 0.8453 0.83232 0.96458 0.0
H638 H 0.91324 0.8813 0.96936 0.0
H639 H 0.9154 0.87257 1.00543 0.0
Nd640 Nd 0.60393 0.62081 0.81476 0.0
Nd641 Nd 0.63732 0.60046 0.84904 0.0
C642 C 0.5826 0.63215 0.77931 0.0
C643 C 0.58906 0.63186 0.75743 0.0
C644 C 0.57306 0.61809 0.74398 0.0
C645 C 0.57776 0.61874 0.72315 0.0
C646 C 0.59861 0.63324 0.71519 0.0
C647 C 0.61499 0.64656 0.72874 0.0
C648 C 0.61022 0.64597 0.7496 0.0
C649 C 0.61804 0.65787 0.84271 0.0
C650 C 0.66633 0.61315 0.80699 0.0
C651 C 0.65931 0.58931 0.88458 0.0
C652 C 0.65551 0.57373 0.90349 0.0
C653 C 0.63604 0.5797 0.91771 0.0
C654 C 0.6339 0.56557 0.93587 0.0
C655 C 0.65121 0.54508 0.94042 0.0
C656 C 0.67055 0.53914 0.92606 0.0
C657 C 0.67269 0.55327 0.90797 0.0
C658 C 0.6224 0.56292 0.82195 0.0
C659 C 0.57255 0.60623 0.85474 0.0
O660 O 0.57969 0.60968 0.78825 0.0
O661 O 0.5944 0.64923 0.79072 0.0
O662 O 0.59508 0.65596 0.83474 0.0
O663 O 0.63328 0.64069 0.83576 0.0
O664 O 0.64269 0.61161 0.79947 0.0
O665 O 0.67014 0.61316 0.82684 0.0
O666 O 0.6447 0.60976 0.88148 0.0
O667 O 0.66409 0.5766 0.8679 0.0
O668 O 0.64454 0.56302 0.83122 0.0
O669 O 0.60803 0.58102 0.82832 0.0
O670 O 0.59583 0.60402 0.86326 0.0
O671 O 0.57 0.60981 0.83512 0.0
H672 H 0.55663 0.60706 0.74958 0.0
H673 H 0.56497 0.60789 0.71325 0.0
H674 H 0.63108 0.65812 0.7232 0.0
H675 H 0.62285 0.65694 0.75952 0.0
H676 H 0.62256 0.59545 0.91494 0.0
H677 H 0.61891 0.57109 0.94651 0.0
H678 H 0.68401 0.52333 0.92865 0.0
H679 H 0.68803 0.54823 0.89746 0.0
Nd680 Nd 0.62469 0.35651 0.06293 0.0
Nd681 Nd 0.65684 0.38449 0.09923 0.0
C682 C 0.61301 0.33202 0.02904 0.0
C683 C 0.6155 0.33545 1.00708 0.0
C684 C 0.6254 0.35856 0.99881 0.0
C685 C 0.62453 0.36271 0.97789 0.0
C686 C 0.61348 0.34392 0.96501 0.0
C687 C 0.60447 0.32046 0.97341 0.0
C688 C 0.60548 0.3163 0.99424 0.0
C689 C 0.59103 0.37355 0.09268 0.0
C690 C 0.63891 0.41848 0.05796 0.0
C691 C 0.67402 0.41038 0.13138 0.0
C692 C 0.68813 0.4059 0.15077 0.0
C693 C 0.67929 0.41783 0.1686 0.0
C694 C 0.6929 0.41492 0.18688 0.0
C695 C 0.71584 0.39999 0.18787 0.0
C696 C 0.72448 0.38783 0.16995 0.0
C697 C 0.71081 0.39071 0.1517 0.0
C698 C 0.68517 0.35963 0.06974 0.0
C699 C 0.64204 0.32215 0.10291 0.0
O700 O 0.63426 0.32721 0.03935 0.0
O701 O 0.59736 0.34838 0.03808 0.0
O702 O 0.58348 0.36221 0.0762 0.0
O703 O 0.61543 0.37547 0.09252 0.0
O704 O 0.63058 0.39675 0.04947 0.0
O705 O 0.64821 0.41927 0.07686 0.0
O706 O 0.65027 0.40131 0.12989 0.0
O707 O 0.68722 0.40796 0.11454 0.0
O708 O 0.69246 0.36051 0.08858 0.0
O709 O 0.66473 0.37264 0.06736 0.0
O710 O 0.64924 0.34362 0.11259 0.0
O711 O 0.63476 0.32217 0.0837 0.0
H712 H 0.633 0.37369 1.00855 0.0
H713 H 0.6315 0.38101 0.97189 0.0
H714 H 0.59624 0.30544 0.96387 0.0
H715 H 0.59769 0.29839 1.00038 0.0
H716 H 0.66187 0.42964 0.16837 0.0
H717 H 0.68528 0.42429 0.20027 0.0
H718 H 0.74219 0.37649 0.16986 0.0
H719 H 0.71822 0.38126 0.13826 0.0
Nd720 Nd 0.90165 0.3843 0.31505 0.0
Nd721 Nd 0.86878 0.40501 0.34934 0.0
C722 C 0.9222 0.37067 0.27976 0.0
C723 C 0.91528 0.36969 0.25804 0.0
C724 C 0.9024 0.39029 0.2483 0.0
C725 C 0.8965 0.38874 0.22761 0.0
C726 C 0.90313 0.36648 0.2163 0.0
C727 C 0.91586 0.34591 0.22622 0.0
C728 C 0.92187 0.34754 0.2468 0.0
C729 C 0.88783 0.34771 0.34342 0.0
C730 C 0.83959 0.39275 0.30734 0.0
C731 C 0.84707 0.41567 0.38504 0.0
C732 C 0.85097 0.43134 0.40387 0.0
C733 C 0.87095 0.42585 0.41776 0.0
C734 C 0.87325 0.44006 0.43586 0.0
C735 C 0.85562 0.46017 0.44066 0.0
C736 C 0.83577 0.46565 0.42662 0.0
C737 C 0.83346 0.45143 0.40859 0.0
C738 C 0.88357 0.44273 0.32247 0.0
C739 C 0.93366 0.39989 0.35446 0.0
O740 O 0.9256 0.3935 0.28806 0.0
O741 O 0.91006 0.35444 0.29165 0.0
O742 O 0.91082 0.34979 0.33557 0.0
O743 O 0.87249 0.36465 0.3363 0.0
O744 O 0.86317 0.39447 0.2998 0.0
O745 O 0.83589 0.3924 0.32719 0.0
O746 O 0.86207 0.39554 0.38179 0.0
O747 O 0.84173 0.42826 0.36842 0.0
O748 O 0.86165 0.44282 0.33206 0.0
O749 O 0.89791 0.42436 0.32843 0.0
O750 O 0.9105 0.40201 0.36318 0.0
O751 O 0.93593 0.39598 0.33484 0.0
H752 H 0.89691 0.40756 0.25664 0.0
H753 H 0.88648 0.40483 0.22051 0.0
H754 H 0.92161 0.32864 0.21799 0.0
H755 H 0.93185 0.33144 0.25394 0.0
H756 H 0.88471 0.41039 0.41477 0.0
H757 H 0.88863 0.43492 0.44626 0.0
H758 H 0.82204 0.48118 0.42943 0.0
H759 H 0.81775 0.45609 0.39832 0.0
Nd760 Nd 0.87851 0.64935 0.56393 0.0
Nd761 Nd 0.85021 0.62113 0.59842 0.0
C762 C 0.89532 0.66829 0.52915 0.0
C763 C 0.89538 0.66229 0.50721 0.0
C764 C 0.87253 0.66313 0.49553 0.0
C765 C 0.87345 0.65879 0.47463 0.0
C766 C 0.89724 0.65368 0.4649 0.0
C767 C 0.91996 0.65245 0.4767 0.0
C768 C 0.91903 0.65677 0.49754 0.0
C769 C 0.90943 0.64045 0.59719 0.0
C770 C 0.86778 0.58668 0.55829 0.0
C771 C 0.83394 0.59547 0.63101 0.0
C772 C 0.81788 0.59893 0.64968 0.0
C773 C 0.8249 0.61651 0.66509 0.0
C774 C 0.81016 0.61838 0.68296 0.0
C775 C 0.78792 0.6028 0.68594 0.0
C776 C 0.781 0.58525 0.67046 0.0
C777 C 0.79577 0.58333 0.65268 0.0
C778 C 0.81863 0.64497 0.57027 0.0
C779 C 0.85787 0.68418 0.60105 0.0
O780 O 0.87328 0.67528 0.53751 0.0
O781 O 0.90943 0.65333 0.54081 0.0
O782 O 0.90966 0.6615 0.58645 0.0
O783 O 0.89309 0.62431 0.59015 0.0
O784 O 0.87703 0.60846 0.55065 0.0
O785 O 0.85707 0.58586 0.57659 0.0
O786 O 0.8563 0.60761 0.62994 0.0
O787 O 0.82186 0.59474 0.6136 0.0
O788 O 0.81317 0.64452 0.58943 0.0
O789 O 0.83901 0.63236 0.56699 0.0
O790 O 0.85669 0.6623 0.61153 0.0
O791 O 0.86132 0.68393 0.58127 0.0
H792 H 0.85398 0.66755 0.50243 0.0
H793 H 0.85561 0.66015 0.46602 0.0
H794 H 0.93856 0.64816 0.46981 0.0
H795 H 0.93696 0.65608 0.50611 0.0
H796 H 0.84185 0.6288 0.66342 0.0
H797 H 0.81602 0.63233 0.69434 0.0
H798 H 0.76433 0.5726 0.6722 0.0
H799 H 0.79 0.56934 0.64128 0.0
Nd800 Nd 0.60198 0.37643 0.71529 0.0
Nd801 Nd 0.63282 0.40674 0.67932 0.0
C802 C 0.57765 0.36602 0.74949 0.0
C803 C 0.58287 0.36618 0.77154 0.0
C804 C 0.58096 0.38901 0.78317 0.0
C805 C 0.58504 0.38827 0.80412 0.0
C806 C 0.59097 0.36467 0.81386 0.0
C807 C 0.59325 0.34203 0.8021 0.0
C808 C 0.5891 0.34275 0.78129 0.0
C809 C 0.6186 0.34176 0.68608 0.0
C810 C 0.66482 0.38722 0.72094 0.0
C811 C 0.65986 0.42251 0.64736 0.0
C812 C 0.65544 0.43633 0.62791 0.0
C813 C 0.67251 0.43237 0.61164 0.0
C814 C 0.6695 0.44623 0.5935 0.0
C815 C 0.64934 0.46452 0.59117 0.0
C816 C 0.63189 0.46796 0.60741 0.0
C817 C 0.63488 0.45402 0.62552 0.0
C818 C 0.60871 0.43643 0.70839 0.0
C819 C 0.56999 0.39489 0.67461 0.0
O820 O 0.57521 0.38834 0.74006 0.0
O821 O 0.59034 0.34864 0.73892 0.0
O822 O 0.60622 0.33484 0.70226 0.0
O823 O 0.6215 0.36605 0.68622 0.0
O824 O 0.64254 0.3797 0.72904 0.0
O825 O 0.66654 0.3967 0.70215 0.0
O826 O 0.65025 0.39901 0.64907 0.0
O827 O 0.65733 0.43619 0.66395 0.0
O828 O 0.61027 0.44357 0.68954 0.0
O829 O 0.62058 0.41535 0.71093 0.0
O830 O 0.59233 0.39976 0.66529 0.0
O831 O 0.56865 0.38888 0.69408 0.0
H832 H 0.576 0.40737 0.77617 0.0
H833 H 0.5829 0.40604 0.81274 0.0
H834 H 0.59824 0.3236 0.80898 0.0
H835 H 0.5906 0.32477 0.77283 0.0
H836 H 0.68853 0.41884 0.61309 0.0
H837 H 0.68351 0.44316 0.58153 0.0
H838 H 0.61588 0.48151 0.60617 0.0
H839 H 0.62129 0.45732 0.63775 0.0
Nd840 Nd 0.86948 0.35167 0.96443 0.0
Nd841 Nd 0.84992 0.3836 0.92934 0.0
C842 C 0.88168 0.33128 1.00008 0.0
C843 C 0.88185 0.33696 0.022 0.0
C844 C 0.86189 0.35103 0.03154 0.0
C845 C 0.86259 0.35535 0.05251 0.0
C846 C 0.88325 0.34568 0.06433 0.0
C847 C 0.90336 0.33208 0.05452 0.0
C848 C 0.90262 0.32776 0.03367 0.0
C849 C 0.90752 0.36513 0.93694 0.0
C850 C 0.85922 0.4135 0.97134 0.0
C851 C 0.83935 0.40447 0.89329 0.0
C852 C 0.82236 0.40064 0.87509 0.0
C853 C 0.83336 0.39435 0.85624 0.0
C854 C 0.81787 0.39237 0.83877 0.0
C855 C 0.79082 0.39673 0.83955 0.0
C856 C 0.77986 0.40297 0.85849 0.0
C857 C 0.79534 0.4049 0.87593 0.0
C858 C 0.81136 0.36875 0.95561 0.0
C859 C 0.85644 0.31879 0.92485 0.0
O860 O 0.85926 0.32766 0.99119 0.0
O861 O 0.89807 0.34429 0.9889 0.0
O862 O 0.90549 0.34263 0.94561 0.0
O863 O 0.88991 0.3805 0.94307 0.0
O864 O 0.85687 0.38997 0.97887 0.0
O865 O 0.86217 0.41677 0.95156 0.0
O866 O 0.85839 0.3881 0.89635 0.0
O867 O 0.82831 0.41168 0.91016 0.0
O868 O 0.81145 0.39052 0.94585 0.0
O869 O 0.83002 0.35454 0.95006 0.0
O870 O 0.85447 0.3418 0.91589 0.0
O871 O 0.85928 0.31687 0.94459 0.0
H872 H 0.84569 0.35847 0.02284 0.0
H873 H 0.84669 0.36579 0.05951 0.0
H874 H 0.91987 0.32482 0.06294 0.0
H875 H 0.91833 0.31705 0.02663 0.0
H876 H 0.85411 0.39117 0.85496 0.0
H877 H 0.82715 0.38721 0.82465 0.0
H878 H 0.75928 0.40694 0.85985 0.0
H879 H 0.78607 0.4101 0.89005 0.0
Nd880 Nd 0.90131 0.62498 0.21366 0.0
Nd881 Nd 0.87089 0.60042 0.1791 0.0
C882 C 0.92188 0.64142 0.24813 0.0
C883 C 0.91853 0.63931 0.27017 0.0
C884 C 0.89756 0.62575 0.27874 0.0
C885 C 0.89444 0.62497 0.29979 0.0
C886 C 0.91236 0.63758 0.31259 0.0
C887 C 0.9334 0.65093 0.3038 0.0
C888 C 0.93641 0.65178 0.28284 0.0
C889 C 0.88688 0.65916 0.18377 0.0
C890 C 0.84021 0.61185 0.22094 0.0
C891 C 0.85014 0.58823 0.14331 0.0
C892 C 0.85504 0.57306 0.12449 0.0
C893 C 0.84082 0.5788 0.10694 0.0
C894 C 0.84353 0.56365 0.08939 0.0
C895 C 0.86057 0.5422 0.08885 0.0
C896 C 0.8753 0.53691 0.1064 0.0
C897 C 0.87256 0.55212 0.12397 0.0
C898 C 0.88707 0.56517 0.20738 0.0
C899 C 0.93549 0.60923 0.17518 0.0
O900 O 0.92996 0.6207 0.23855 0.0
O901 O 0.90388 0.65407 0.23827 0.0
O902 O 0.90935 0.65908 0.19256 0.0
O903 O 0.87215 0.6417 0.19096 0.0
O904 O 0.86371 0.61184 0.22877 0.0
O905 O 0.83689 0.6113 0.20102 0.0
O906 O 0.86398 0.60919 0.14646 0.0
O907 O 0.84607 0.5751 0.1599 0.0
O908 O 0.86606 0.56236 0.19682 0.0
O909 O 0.90014 0.5844 0.20135 0.0
O910 O 0.91309 0.60412 0.16599 0.0
O911 O 0.93645 0.61511 0.19453 0.0
H912 H 0.8836 0.6159 0.26918 0.0
H913 H 0.87816 0.61433 0.30605 0.0
H914 H 0.94733 0.66121 0.31312 0.0
H915 H 0.95263 0.66246 0.27649 0.0
H916 H 0.82708 0.59476 0.10694 0.0
H917 H 0.83156 0.56829 0.07644 0.0
H918 H 0.88895 0.52092 0.10662 0.0
H919 H 0.88386 0.54728 0.13725 0.0
Nd920 Nd 0.63447 0.6505 0.4639 0.0
Nd921 Nd 0.65508 0.61782 0.4295 0.0
C922 C 0.62096 0.67067 0.49933 0.0
C923 C 0.62094 0.66426 0.5212 0.0
C924 C 0.64395 0.65891 0.53192 0.0
C925 C 0.64313 0.65373 0.55275 0.0
C926 C 0.61931 0.65362 0.56325 0.0
C927 C 0.5964 0.65882 0.55239 0.0
C928 C 0.59723 0.66414 0.53169 0.0
C929 C 0.59755 0.63594 0.43596 0.0
C930 C 0.64602 0.58902 0.47177 0.0
C931 C 0.66606 0.59613 0.39379 0.0
C932 C 0.68293 0.59938 0.37546 0.0
C933 C 0.67602 0.61607 0.35945 0.0
C934 C 0.69139 0.61766 0.34186 0.0
C935 C 0.71414 0.6026 0.3397 0.0
C936 C 0.72087 0.58586 0.35572 0.0
C937 C 0.70552 0.58423 0.37322 0.0
C938 C 0.69291 0.63353 0.4561 0.0
C939 C 0.64861 0.68257 0.4243 0.0
O940 O 0.64321 0.67544 0.49051 0.0
O941 O 0.60511 0.65734 0.48788 0.0
O942 O 0.5995 0.659 0.44372 0.0
O943 O 0.61483 0.62083 0.4429 0.0
O944 O 0.64768 0.61283 0.4789 0.0
O945 O 0.64332 0.58504 0.45206 0.0
O946 O 0.64674 0.61227 0.39665 0.0
O947 O 0.67736 0.58968 0.41073 0.0
O948 O 0.69336 0.61164 0.44645 0.0
O949 O 0.67425 0.64744 0.45016 0.0
O950 O 0.65086 0.65939 0.41562 0.0
O951 O 0.6452 0.68491 0.44396 0.0
H952 H 0.66256 0.65879 0.52428 0.0
H953 H 0.66113 0.6496 0.56059 0.0
H954 H 0.57776 0.65932 0.55998 0.0
H955 H 0.57924 0.66839 0.52385 0.0
H956 H 0.65863 0.62786 0.36043 0.0
H957 H 0.68557 0.63097 0.33003 0.0
H958 H 0.73786 0.57353 0.35464 0.0
H959 H 0.71125 0.57077 0.38498 0.0
Nd960 Nd 0.36867 0.40501 0.18098 0.0
Nd961 Nd 0.39877 0.37881 0.21879 0.0
C962 C 0.34328 0.41964 0.1478 0.0
C963 C 0.34716 0.43528 0.1289 0.0
C964 C 0.36159 0.42574 0.11237 0.0
C965 C 0.36403 0.44031 0.09445 0.0
C966 C 0.35213 0.46488 0.09247 0.0
C967 C 0.33762 0.47427 0.10901 0.0
C968 C 0.33513 0.4597 0.12686 0.0
C969 C 0.39027 0.43768 0.20937 0.0
C970 C 0.43198 0.39556 0.17851 0.0
C971 C 0.42205 0.37251 0.25406 0.0
C972 C 0.41712 0.37759 0.27563 0.0
C973 C 0.39196 0.38299 0.2827 0.0
C974 C 0.38707 0.38466 0.30349 0.0
C975 C 0.40725 0.381 0.31758 0.0
C976 C 0.43258 0.37649 0.31031 0.0
C977 C 0.43742 0.37476 0.28955 0.0
C978 C 0.38607 0.34069 0.19096 0.0
C979 C 0.33534 0.38641 0.22187 0.0
O980 O 0.35542 0.39734 0.1495 0.0
O981 O 0.34211 0.43227 0.16498 0.0
O982 O 0.38958 0.44336 0.19023 0.0
O983 O 0.37895 0.41647 0.21249 0.0
O984 O 0.40993 0.3987 0.16842 0.0
O985 O 0.43264 0.39117 0.19822 0.0
O986 O 0.42648 0.3926 0.24233 0.0
O987 O 0.40709 0.35495 0.24566 0.0
O988 O 0.39871 0.33654 0.20759 0.0
O989 O 0.38114 0.3647 0.18947 0.0
O990 O 0.35758 0.38172 0.23114 0.0
O991 O 0.3341 0.39363 0.2025 0.0
H992 H 0.371 0.40695 0.11323 0.0
H993 H 0.37557 0.43242 0.08222 0.0
H994 H 0.32774 0.4928 0.10809 0.0
H995 H 0.32351 0.46753 0.13907 0.0
H996 H 0.376 0.38523 0.27219 0.0
H997 H 0.36742 0.38851 0.30853 0.0
H998 H 0.44853 0.37326 0.32068 0.0
H999 H 0.45691 0.37039 0.28439 0.0
Nd1000 Nd 0.35362 0.61656 0.92962 0.0
Nd1001 Nd 0.37158 0.64862 0.96552 0.0
C1002 C 0.34497 0.59656 0.89302 0.0
C1003 C 0.32849 0.60117 0.87473 0.0
C1004 C 0.34009 0.60613 0.85587 0.0
C1005 C 0.32489 0.60908 0.83833 0.0
C1006 C 0.29757 0.6071 0.83913 0.0
C1007 C 0.28605 0.60219 0.8581 0.0
C1008 C 0.30122 0.59931 0.87558 0.0
C1009 C 0.31416 0.62961 0.95553 0.0
C1010 C 0.35834 0.68157 0.92607 0.0
C1011 C 0.38034 0.67005 1.00136 0.0
C1012 C 0.37934 0.66407 0.0232 0.0
C1013 C 0.36851 0.68236 0.03646 0.0
C1014 C 0.3689 0.67817 0.05733 0.0
C1015 C 0.3802 0.65557 0.06546 0.0
C1016 C 0.39038 0.63686 0.05208 0.0
C1017 C 0.38999 0.64109 0.03116 0.0
C1018 C 0.41051 0.63636 0.93841 0.0
C1019 C 0.36485 0.58592 0.97145 0.0
O1020 O 0.3637 0.61306 0.89685 0.0
O1021 O 0.33341 0.58858 0.90946 0.0
O1022 O 0.31496 0.60815 0.94534 0.0
O1023 O 0.33262 0.64445 0.95054 0.0
O1024 O 0.35707 0.65873 0.91676 0.0
O1025 O 0.36093 0.68318 0.94581 0.0
O1026 O 0.35818 0.672 0.99183 0.0
O1027 O 0.3983 0.65857 0.9906 0.0
O1028 O 0.40815 0.65863 0.94744 0.0
O1029 O 0.39301 0.62068 0.94419 0.0
O1030 O 0.36278 0.60911 0.97971 0.0
O1031 O 0.36576 0.58309 0.95149 0.0
H1032 H 0.36104 0.60753 0.85464 0.0
H1033 H 0.33459 0.61309 0.82417 0.0
H1034 H 0.26519 0.60001 0.85945 0.0
H1035 H 0.29149 0.59529 0.88975 0.0
H1036 H 0.3601 0.70017 0.03067 0.0
H1037 H 0.36045 0.69277 0.06712 0.0
H1038 H 0.39938 0.61932 0.05778 0.0
H1039 H 0.39851 0.62666 0.02128 0.0
Nd1040 Nd 0.13807 0.60197 0.68076 0.0
Nd1041 Nd 0.10649 0.62285 0.71572 0.0
C1042 C 0.1587 0.59124 0.64467 0.0
C1043 C 0.15506 0.57494 0.62609 0.0
C1044 C 0.13699 0.58151 0.61091 0.0
C1045 C 0.13549 0.56705 0.59285 0.0
C1046 C 0.15213 0.54573 0.58934 0.0
C1047 C 0.16983 0.53901 0.60473 0.0
C1048 C 0.17132 0.5534 0.62271 0.0
C1049 C 0.12337 0.56432 0.70782 0.0
C1050 C 0.0731 0.60763 0.67706 0.0
C1051 C 0.08688 0.6364 0.75128 0.0
C1052 C 0.09346 0.63624 0.77304 0.0
C1053 C 0.10458 0.61449 0.78257 0.0
C1054 C 0.11031 0.61516 0.80331 0.0
C1055 C 0.10526 0.63765 0.81482 0.0
C1056 C 0.09422 0.65931 0.80512 0.0
C1057 C 0.08838 0.65858 0.78451 0.0
C1058 C 0.11955 0.65967 0.68719 0.0
C1059 C 0.16816 0.61154 0.72267 0.0
O1060 O 0.14292 0.61074 0.64795 0.0
O1061 O 0.16528 0.57942 0.66136 0.0
O1062 O 0.14492 0.56379 0.69774 0.0
O1063 O 0.10926 0.58298 0.70212 0.0
O1064 O 0.09591 0.60543 0.6678 0.0
O1065 O 0.07156 0.61142 0.69671 0.0
O1066 O 0.08199 0.61414 0.7425 0.0
O1067 O 0.10032 0.65216 0.73987 0.0
O1068 O 0.09712 0.65788 0.69598 0.0
O1069 O 0.13508 0.64243 0.69373 0.0
O1070 O 0.14456 0.6101 0.73019 0.0
O1071 O 0.17157 0.61366 0.70284 0.0
H1072 H 0.12428 0.5981 0.61282 0.0
H1073 H 0.12173 0.57307 0.5814 0.0
H1074 H 0.18267 0.5225 0.60293 0.0
H1075 H 0.1856 0.54784 0.63392 0.0
H1076 H 0.10886 0.59704 0.77402 0.0
H1077 H 0.11898 0.59821 0.81028 0.0
H1078 H 0.0897 0.6768 0.81354 0.0
H1079 H 0.07974 0.67554 0.77751 0.0
Nd1080 Nd 0.15358 0.38864 0.42935 0.0
Nd1081 Nd 0.13402 0.3586 0.46542 0.0
C1082 C 0.16269 0.40869 0.39286 0.0
C1083 C 0.17814 0.40436 0.37403 0.0
C1084 C 0.17378 0.38294 0.36121 0.0
C1085 C 0.18786 0.38011 0.34311 0.0
C1086 C 0.20668 0.39863 0.33726 0.0
C1087 C 0.21101 0.41995 0.35023 0.0
C1088 C 0.19692 0.42278 0.36825 0.0
C1089 C 0.19227 0.37555 0.45593 0.0
C1090 C 0.14749 0.32365 0.42685 0.0
C1091 C 0.12167 0.33931 0.50133 0.0
C1092 C 0.12093 0.34613 0.52299 0.0
C1093 C 0.14084 0.36039 0.53244 0.0
C1094 C 0.13915 0.36652 0.55308 0.0
C1095 C 0.11742 0.35869 0.56454 0.0
C1096 C 0.09766 0.34439 0.55492 0.0
C1097 C 0.09942 0.3382 0.53442 0.0
C1098 C 0.09602 0.37129 0.43767 0.0
C1099 C 0.1454 0.42043 0.47078 0.0
O1100 O 0.14322 0.3931 0.39683 0.0
O1101 O 0.17543 0.41542 0.40912 0.0
O1102 O 0.19216 0.3966 0.44522 0.0
O1103 O 0.17353 0.36092 0.45108 0.0
O1104 O 0.15064 0.34602 0.41713 0.0
O1105 O 0.14345 0.32297 0.4465 0.0
O1106 O 0.14435 0.33587 0.4928 0.0
O1107 O 0.10518 0.35142 0.48967 0.0
O1108 O 0.09796 0.34906 0.44672 0.0
O1109 O 0.11376 0.38669 0.4435 0.0
O1110 O 0.1469 0.39728 0.47907 0.0
O1111 O 0.14251 0.42287 0.45093 0.0
H1112 H 0.15935 0.36842 0.36506 0.0
H1113 H 0.18364 0.36357 0.33354 0.0
H1114 H 0.22556 0.43443 0.3466 0.0
H1115 H 0.20068 0.43958 0.3777 0.0
H1116 H 0.15759 0.36686 0.52389 0.0
H1117 H 0.15462 0.37769 0.55999 0.0
H1118 H 0.08089 0.33764 0.5633 0.0
H1119 H 0.08389 0.32713 0.52746 0.0
Nd1120 Nd 0.36917 0.60229 0.35118 0.0
Nd1121 Nd 0.4001 0.62377 0.31619 0.0
C1122 C 0.34887 0.59147 0.38737 0.0
C1123 C 0.35408 0.57678 0.40636 0.0
C1124 C 0.34156 0.58418 0.42432 0.0
C1125 C 0.34432 0.56942 0.44206 0.0
C1126 C 0.35967 0.54672 0.44235 0.0
C1127 C 0.37278 0.53979 0.42438 0.0
C1128 C 0.37002 0.5546 0.40664 0.0
C1129 C 0.38176 0.56555 0.32289 0.0
C1130 C 0.43428 0.60741 0.35433 0.0
C1131 C 0.4199 0.63714 0.2807 0.0
C1132 C 0.41301 0.6372 0.259 0.0
C1133 C 0.40384 0.6148 0.24907 0.0
C1134 C 0.39822 0.61546 0.22834 0.0
C1135 C 0.40146 0.63854 0.21719 0.0
C1136 C 0.41042 0.6609 0.22728 0.0
C1137 C 0.41617 0.6602 0.24791 0.0
C1138 C 0.38754 0.65985 0.34536 0.0
C1139 C 0.33775 0.6154 0.31013 0.0
O1140 O 0.36274 0.61227 0.38371 0.0
O1141 O 0.34441 0.57788 0.37105 0.0
O1142 O 0.36035 0.56541 0.3332 0.0
O1143 O 0.39678 0.58342 0.32883 0.0
O1144 O 0.41175 0.60398 0.36378 0.0
O1145 O 0.43524 0.61265 0.33488 0.0
O1146 O 0.42422 0.61468 0.28934 0.0
O1147 O 0.40715 0.65325 0.29231 0.0
O1148 O 0.41012 0.65809 0.33678 0.0
O1149 O 0.372 0.64293 0.33848 0.0
O1150 O 0.36094 0.61417 0.30182 0.0
O1151 O 0.33508 0.615 0.3301 0.0
H1152 H 0.32906 0.60111 0.42452 0.0
H1153 H 0.33363 0.57536 0.45537 0.0
H1154 H 0.38513 0.52277 0.42396 0.0
H1155 H 0.38 0.54846 0.39304 0.0
H1156 H 0.40109 0.59679 0.25727 0.0
H1157 H 0.39114 0.59796 0.22107 0.0
H1158 H 0.4135 0.6789 0.21914 0.0
H1159 H 0.42332 0.67766 0.2552 0.0
Nd1160 Nd 0.15609 0.62085 0.102 0.0
Nd1161 Nd 0.13694 0.65232 0.0663 0.0
C1162 C 0.16496 0.60016 0.13835 0.0
C1163 C 0.17952 0.60504 0.15743 0.0
C1164 C 0.17121 0.59331 0.17547 0.0
C1165 C 0.18558 0.5961 0.1934 0.0
C1166 C 0.20876 0.61075 0.19383 0.0
C1167 C 0.21677 0.62286 0.17572 0.0
C1168 C 0.20236 0.62005 0.15778 0.0
C1169 C 0.19457 0.63299 0.07506 0.0
C1170 C 0.15084 0.68594 0.10543 0.0
C1171 C 0.12595 0.67295 0.03058 0.0
C1172 C 0.12508 0.66647 1.00883 0.0
C1173 C 0.14406 0.65084 0.99955 0.0
C1174 C 0.14308 0.64605 0.97867 0.0
C1175 C 0.12313 0.65681 0.96671 0.0
C1176 C 0.10389 0.67188 0.97628 0.0
C1177 C 0.10491 0.67666 0.99705 0.0
C1178 C 0.09914 0.63966 0.09412 0.0
C1179 C 0.14395 0.58973 0.06048 0.0
O1180 O 0.14492 0.61493 0.13433 0.0
O1181 O 0.17866 0.59494 0.12224 0.0
O1182 O 0.19384 0.61172 0.08548 0.0
O1183 O 0.17654 0.64828 0.0803 0.0
O1184 O 0.15371 0.66328 0.1148 0.0
O1185 O 0.14696 0.6872 0.08579 0.0
O1186 O 0.14876 0.67475 0.0392 0.0
O1187 O 0.10857 0.66188 0.04213 0.0
O1188 O 0.10145 0.66229 0.08567 0.0
O1189 O 0.11638 0.62412 0.08776 0.0
O1190 O 0.14558 0.61285 0.05212 0.0
O1191 O 0.14376 0.58703 0.08045 0.0
H1192 H 0.15369 0.58162 0.17563 0.0
H1193 H 0.17842 0.5868 0.20697 0.0
H1194 H 0.2346 0.63402 0.17521 0.0
H1195 H 0.20931 0.62925 0.1441 0.0
H1196 H 0.15977 0.64262 1.00836 0.0
H1197 H 0.15829 0.63448 0.97184 0.0
H1198 H 0.08793 0.68002 0.96771 0.0
H1199 H 0.08997 0.68859 1.00391 0.0
Nd1200 Nd 0.13415 0.40823 0.85164 0.0
Nd1201 Nd 0.10383 0.3797 0.81456 0.0
C1202 C 0.16071 0.42371 0.884 0.0
C1203 C 0.15745 0.43911 0.90305 0.0
C1204 C 0.14257 0.42994 0.91945 0.0
C1205 C 0.14069 0.44439 0.93747 0.0
C1206 C 0.15358 0.46844 0.93964 0.0
C1207 C 0.16854 0.47743 0.92322 0.0
C1208 C 0.17048 0.46298 0.90528 0.0
C1209 C 0.11112 0.43929 0.82288 0.0
C1210 C 0.07129 0.39608 0.85557 0.0
C1211 C 0.08022 0.37218 0.77962 0.0
C1212 C 0.08537 0.3767 0.75794 0.0
C1213 C 0.06459 0.38152 0.7448 0.0
C1214 C 0.06871 0.38307 0.72394 0.0
C1215 C 0.09375 0.37966 0.71571 0.0
C1216 C 0.11473 0.3759 0.72906 0.0
C1217 C 0.11059 0.3745 0.74995 0.0
C1218 C 0.11974 0.34335 0.8427 0.0
C1219 C 0.16688 0.38969 0.81031 0.0
O1220 O 0.14922 0.40099 0.88264 0.0
O1221 O 0.16044 0.43649 0.86688 0.0
O1222 O 0.11235 0.4458 0.84187 0.0
O1223 O 0.12271 0.41815 0.82008 0.0
O1224 O 0.09348 0.40084 0.86512 0.0
O1225 O 0.07018 0.39076 0.83597 0.0
O1226 O 0.07571 0.39259 0.79101 0.0
O1227 O 0.09481 0.35469 0.78845 0.0
O1228 O 0.1074 0.3375 0.82622 0.0
O1229 O 0.12297 0.36763 0.84352 0.0
O1230 O 0.14455 0.38401 0.80146 0.0
O1231 O 0.16838 0.39741 0.82958 0.0
H1232 H 0.13237 0.41157 0.91841 0.0
H1233 H 0.12878 0.43685 0.94962 0.0
H1234 H 0.17915 0.49556 0.92429 0.0
H1235 H 0.18243 0.47047 0.89312 0.0
H1236 H 0.04501 0.38345 0.75065 0.0
H1237 H 0.05216 0.3866 0.71422 0.0
H1238 H 0.13424 0.37301 0.72337 0.0
H1239 H 0.12701 0.37089 0.7598 0.0
Nd1240 Nd 0.34844 0.3908 0.60318 0.0
Nd1241 Nd 0.36475 0.3581 0.56747 0.0
C1242 C 0.34069 0.41194 0.63951 0.0
C1243 C 0.32518 0.40799 0.65838 0.0
C1244 C 0.32901 0.38644 0.67113 0.0
C1245 C 0.31472 0.38376 0.68914 0.0
C1246 C 0.29617 0.40255 0.69496 0.0
C1247 C 0.29242 0.42405 0.6821 0.0
C1248 C 0.30673 0.42674 0.66416 0.0
C1249 C 0.30802 0.37777 0.57805 0.0
C1250 C 0.35193 0.32577 0.60718 0.0
C1251 C 0.37321 0.3378 0.53119 0.0
C1252 C 0.37479 0.34618 0.50977 0.0
C1253 C 0.35686 0.33652 0.49563 0.0
C1254 C 0.35912 0.34282 0.47512 0.0
C1255 C 0.37951 0.35878 0.46825 0.0
C1256 C 0.39712 0.36887 0.48249 0.0
C1257 C 0.39479 0.36269 0.503 0.0
C1258 C 0.40471 0.37026 0.59368 0.0
C1259 C 0.35756 0.42069 0.56112 0.0
O1260 O 0.35964 0.39578 0.63549 0.0
O1261 O 0.32803 0.41887 0.62329 0.0
O1262 O 0.30968 0.39957 0.58772 0.0
O1263 O 0.3263 0.36274 0.58304 0.0
O1264 O 0.35186 0.34877 0.61632 0.0
O1265 O 0.35334 0.32389 0.58735 0.0
O1266 O 0.35034 0.33809 0.53979 0.0
O1267 O 0.39171 0.34546 0.54335 0.0
O1268 O 0.40148 0.34781 0.58511 0.0
O1269 O 0.38739 0.38622 0.58801 0.0
O1270 O 0.35459 0.39732 0.5534 0.0
O1271 O 0.36085 0.42376 0.58088 0.0
H1272 H 0.34316 0.37166 0.66729 0.0
H1273 H 0.31853 0.36708 0.69865 0.0
H1274 H 0.27811 0.43875 0.6857 0.0
H1275 H 0.30337 0.44363 0.65476 0.0
H1276 H 0.34134 0.32367 0.50039 0.0
H1277 H 0.34535 0.33451 0.46455 0.0
H1278 H 0.41282 0.38152 0.47778 0.0
H1279 H 0.40891 0.37059 0.51347 0.0
H1280 H 0.21836 0.09062 0.31021 0.0
H1281 H 0.17263 0.14644 0.2772 0.0
H1282 H 0.24957 0.08891 0.28199 0.0
H1283 H 0.20361 0.14539 0.24959 0.0
H1284 H 0.24011 0.11257 0.19322 0.0
H1285 H 0.21363 0.11574 0.22343 0.0
H1286 H 0.28241 0.11032 0.26052 0.0
H1287 H 0.30906 0.10605 0.23003 0.0
C1288 C 0.21541 0.1031 0.29725 0.0
C1289 C 0.193 0.11866 0.29597 0.0
C1290 C 0.2332 0.10206 0.28098 0.0
C1291 C 0.22893 0.11657 0.26315 0.0
C1292 C 0.20732 0.1333 0.26266 0.0
C1293 C 0.18964 0.13417 0.27868 0.0
C1294 C 0.24973 0.11177 0.20775 0.0
C1295 C 0.2769 0.10899 0.20895 0.0
C1296 C 0.23447 0.11397 0.22522 0.0
C1297 C 0.24575 0.1136 0.24463 0.0
C1298 C 0.27292 0.11062 0.24593 0.0
C1299 C 0.28827 0.10846 0.22836 0.0
H1300 H 0.1065 0.02467 0.45871 0.0
H1301 H 0.18914 0.03129 0.46889 0.0
H1302 H 0.10259 0.99754 0.48865 0.0
H1303 H 0.18538 1.00307 0.49833 0.0
H1304 H 0.16833 0.96345 0.55914 0.0
H1305 H 0.17005 0.99699 0.53272 0.0
H1306 H 0.11276 0.95452 0.49825 0.0
H1307 H 0.11065 0.92189 0.52446 0.0
C1308 C 0.12387 0.02055 0.46735 0.0
C1309 C 0.14818 0.03021 0.46107 0.0
C1310 C 0.12167 0.00464 0.48451 0.0
C1311 C 0.14369 0.99773 0.49599 0.0
C1312 C 0.1679 0.00799 0.49007 0.0
C1313 C 0.17011 0.02395 0.47291 0.0
C1314 C 0.15576 0.96162 0.5461 0.0
C1315 C 0.13937 0.93986 0.54405 0.0
C1316 C 0.15693 0.98071 0.5308 0.0
C1317 C 0.14157 0.97862 0.51316 0.0
C1318 C 0.12463 0.95724 0.51159 0.0
C1319 C 0.12357 0.93828 0.5267 0.0
H1320 H 0.29725 0.91973 0.80539 0.0
H1321 H 0.33638 0.85819 0.77318 0.0
H1322 H 0.26536 0.9229 0.7778 0.0
H1323 H 0.30526 0.86155 0.74587 0.0
H1324 H 0.23498 0.85843 0.70526 0.0
H1325 H 0.26148 0.85398 0.73552 0.0
H1326 H 0.26276 0.93739 0.7425 0.0
H1327 H 0.23633 0.9419 0.7121 0.0
C1328 C 0.29881 0.90658 0.79267 0.0
C1329 C 0.31943 0.88865 0.79166 0.0
C1330 C 0.28071 0.90858 0.77669 0.0
C1331 C 0.2826 0.89251 0.75942 0.0
C1332 C 0.30275 0.87406 0.75889 0.0
C1333 C 0.3208 0.87221 0.77465 0.0
C1334 C 0.241 0.87591 0.71308 0.0
C1335 C 0.23348 0.90056 0.70589 0.0
C1336 C 0.25622 0.87334 0.73059 0.0
C1337 C 0.26453 0.89531 0.7416 0.0
C1338 C 0.25655 0.91995 0.7347 0.0
C1339 C 0.24133 0.92253 0.71714 0.0
H1340 H 0.35403 0.02027 0.93879 0.0
H1341 H 0.35397 0.95059 0.97508 0.0
H1342 H 0.35467 0.04662 0.96923 0.0
H1343 H 0.35457 0.9772 1.00581 0.0
H1344 H 0.37995 0.03881 0.05592 0.0
H1345 H 0.37935 0.00813 0.02725 0.0
H1346 H 0.32583 0.05844 0.99577 0.0
H1347 H 0.32684 0.08872 0.02378 0.0
C1348 C 0.35391 0.01048 0.95326 0.0
C1349 C 0.35359 0.98315 0.95427 0.0
C1350 C 0.35428 0.02568 0.97085 0.0
C1351 C 0.35425 0.01419 0.99019 0.0
C1352 C 0.3547 0.98684 0.99128 0.0
C1353 C 0.35436 0.97154 0.97358 0.0
C1354 C 0.36772 0.04294 0.04301 0.0
C1355 C 0.35364 0.06636 0.04213 0.0
C1356 C 0.36742 0.02543 0.02651 0.0
C1357 C 0.35303 0.03101 1.00883 0.0
C1358 C 0.33783 0.05372 1.00869 0.0
C1359 C 0.33822 0.07105 0.02495 0.0
H1360 H 0.30835 0.89896 0.2998 0.0
H1361 H 0.24161 0.89007 0.33873 0.0
H1362 H 0.2797 0.89925 0.27026 0.0
H1363 H 0.21334 0.88934 0.30937 0.0
H1364 H 0.16608 0.92089 0.25825 0.0
H1365 H 0.1975 0.91993 0.28535 0.0
H1366 H 0.24928 0.87421 0.24834 0.0
H1367 H 0.21729 0.87544 0.22058 0.0
C1368 C 0.28763 0.89697 0.30215 0.0
C1369 C 0.27749 0.89465 0.3219 0.0
C1370 C 0.27117 0.89685 0.2851 0.0
C1371 C 0.24403 0.89461 0.28726 0.0
C1372 C 0.23403 0.8916 0.30696 0.0
C1373 C 0.25041 0.89166 0.32393 0.0
C1374 C 0.18416 0.91061 0.25568 0.0
C1375 C 0.18887 0.89796 0.23714 0.0
C1376 C 0.20223 0.90992 0.27143 0.0
C1377 C 0.22585 0.89646 0.26942 0.0
C1378 C 0.23129 0.88472 0.25055 0.0
C1379 C 0.21298 0.88545 0.23457 0.0
H1380 H 0.34114 0.96715 0.47159 0.0
H1381 H 0.39614 0.9214 0.50545 0.0
H1382 H 0.33919 0.99866 0.49965 0.0
H1383 H 0.39478 0.95262 0.53287 0.0
H1384 H 0.36199 0.99026 0.58872 0.0
H1385 H 0.36493 0.96331 0.55873 0.0
H1386 H 0.36081 0.03166 0.52108 0.0
H1387 H 0.35679 0.05882 0.55137 0.0
C1388 C 0.35332 0.96419 0.48473 0.0
C1389 C 0.3687 0.94167 0.48627 0.0
C1390 C 0.35215 0.98217 0.50089 0.0
C1391 C 0.36637 0.97801 0.5189 0.0
C1392 C 0.38289 0.95626 0.51968 0.0
C1393 C 0.3839 0.9384 0.50376 0.0
C1394 C 0.36142 0.99969 0.57411 0.0
C1395 C 0.35909 0.0269 0.5727 0.0
C1396 C 0.36348 0.98416 0.55677 0.0
C1397 C 0.36341 0.99516 0.53726 0.0
C1398 C 0.36086 0.02237 0.53575 0.0
C1399 C 0.35885 0.03801 0.5532 0.0
H1400 H 0.26459 0.0997 0.83842 0.0
H1401 H 0.19773 0.11577 0.80109 0.0
H1402 H 0.29261 0.10281 0.80904 0.0
H1403 H 0.22617 0.11983 0.77152 0.0
H1404 H 0.28763 0.09838 0.72011 0.0
H1405 H 0.25546 0.09607 0.74772 0.0
H1406 H 0.30928 0.13561 0.78726 0.0
H1407 H 0.3409 0.1375 0.7603 0.0
C1408 C 0.25575 0.10382 0.82394 0.0
C1409 C 0.22871 0.10744 0.82233 0.0
C1410 C 0.27196 0.10594 0.807 0.0
C1411 C 0.26184 0.11185 0.78775 0.0
C1412 C 0.23475 0.11517 0.786 0.0
C1413 C 0.21845 0.11313 0.80306 0.0
C1414 C 0.29231 0.1069 0.73463 0.0
C1415 C 0.31702 0.11784 0.73797 0.0
C1416 C 0.27392 0.10554 0.7505 0.0
C1417 C 0.27988 0.11512 0.76999 0.0
C1418 C 0.3041 0.12726 0.77278 0.0
C1419 C 0.32227 0.12852 0.75714 0.0
H1420 H 0.15585 0.94549 0.04846 0.0
H1421 H 0.13881 0.01028 0.08778 0.0
H1422 H 0.15525 0.97474 0.01928 0.0
H1423 H 0.13732 0.03908 0.05875 0.0
H1424 H 0.16768 0.08987 1.0092 0.0
H1425 H 0.16812 0.05785 0.03588 0.0
H1426 H 0.12821 0.00336 0.99713 0.0
H1427 H 0.12793 0.03598 0.96983 0.0
C1428 C 0.15189 0.96591 0.05095 0.0
C1429 C 0.14752 0.97537 0.07069 0.0
C1430 C 0.15128 0.98266 0.03412 0.0
C1431 C 0.1465 0.00944 0.03652 0.0
C1432 C 0.14152 0.01871 0.0562 0.0
C1433 C 0.14204 1.00203 0.07294 0.0
C1434 C 0.15898 0.07107 1.00616 0.0
C1435 C 0.14745 0.06575 0.98729 0.0
C1436 C 0.15911 0.05265 0.02165 0.0
C1437 C 0.14767 0.02807 0.019 0.0
C1438 C 0.13715 0.0221 0.9998 0.0
C1439 C 0.13702 0.04077 0.98411 0.0
H1440 H 0.83047 0.93021 0.74788 0.0
H1441 H 0.78802 0.8694 0.71744 0.0
H1442 H 0.79915 0.92989 0.77527 0.0
H1443 H 0.75634 0.86873 0.74539 0.0
H1444 H 0.69474 0.89073 0.79543 0.0
H1445 H 0.7221 0.89197 0.76515 0.0
H1446 H 0.79006 0.90087 0.80274 0.0
H1447 H 0.76289 0.90053 0.83273 0.0
C1448 C 0.81413 0.91694 0.74691 0.0
C1449 C 0.81184 0.89976 0.73046 0.0
C1450 C 0.79626 0.91656 0.7628 0.0
C1451 C 0.77545 0.89882 0.76295 0.0
C1452 C 0.77213 0.88263 0.74587 0.0
C1453 C 0.79018 0.88308 0.72976 0.0
C1454 C 0.71552 0.89309 0.79724 0.0
C1455 C 0.72645 0.89563 0.81671 0.0
C1456 C 0.73126 0.89355 0.77982 0.0
C1457 C 0.75836 0.89682 0.78134 0.0
C1458 C 0.76926 0.89881 0.80082 0.0
C1459 C 0.75362 0.89825 0.81816 0.0
H1460 H 0.8466 0.03732 0.46497 0.0
H1461 H 0.8876 0.08809 0.50598 0.0
H1462 H 0.84641 0.00311 0.4911 0.0
H1463 H 0.88723 0.05469 0.53166 0.0
H1464 H 0.9015 0.98494 0.57044 0.0
H1465 H 0.90485 0.01313 0.54102 0.0
H1466 H 0.82581 0.99454 0.52464 0.0
H1467 H 0.82234 0.96638 0.55421 0.0
C1468 C 0.85593 0.04103 0.47934 0.0
C1469 C 0.8671 0.06547 0.48331 0.0
C1470 C 0.85561 0.02157 0.49441 0.0
C1471 C 0.86685 0.02602 0.5136 0.0
C1472 C 0.87871 0.05022 0.51711 0.0
C1473 C 0.87876 0.06954 0.5023 0.0
C1474 C 0.88473 0.98687 0.56067 0.0
C1475 C 0.86155 0.97344 0.56503 0.0
C1476 C 0.88669 1.00303 0.54367 0.0
C1477 C 0.86554 0.00638 0.53039 0.0
C1478 C 0.84263 0.99229 0.53432 0.0
C1479 C 0.84064 0.97611 0.55138 0.0
H1480 H 0.6637 0.13794 0.2564 0.0
H1481 H 0.71813 0.09855 0.2174 0.0
H1482 H 0.69491 0.13726 0.28369 0.0
H1483 H 0.74985 0.09744 0.24532 0.0
H1484 H 0.80689 0.11935 0.29838 0.0
H1485 H 0.77861 0.12147 0.26867 0.0
H1486 H 0.71205 0.10634 0.30656 0.0
H1487 H 0.74006 0.10423 0.33602 0.0
C1488 C 0.68251 0.1292 0.25356 0.0
C1489 C 0.68822 0.11815 0.23458 0.0
C1490 C 0.70045 0.1286 0.26942 0.0
C1491 C 0.72488 0.11676 0.26708 0.0
C1492 C 0.73125 0.10673 0.24779 0.0
C1493 C 0.71311 0.10742 0.23171 0.0
C1494 C 0.78623 0.1163 0.30039 0.0
C1495 C 0.77591 0.11191 0.31987 0.0
C1496 C 0.76996 0.11751 0.28325 0.0
C1497 C 0.74284 0.11441 0.28504 0.0
C1498 C 0.73268 0.10953 0.30446 0.0
C1499 C 0.74886 0.10835 0.32151 0.0
H1500 H 0.62731 0.96721 0.96727 0.0
H1501 H 0.67579 0.91749 1.00377 0.0
H1502 H 0.62656 0.99944 0.99495 0.0
H1503 H 0.67516 0.94909 0.03084 0.0
H1504 H 0.64363 0.99139 0.08485 0.0
H1505 H 0.64345 0.96349 0.05522 0.0
H1506 H 0.65244 0.03054 0.01672 0.0
H1507 H 0.65184 0.05881 0.04656 0.0
C1508 C 0.63817 0.96335 0.98094 0.0
C1509 C 0.65133 0.93955 0.98329 0.0
C1510 C 0.63768 0.98175 0.99688 0.0
C1511 C 0.65029 0.97667 0.01545 0.0
C1512 C 0.66454 0.95349 0.01714 0.0
C1513 C 0.66504 0.93535 1.00143 0.0
C1514 C 0.64517 1.0004 0.07012 0.0
C1515 C 0.64779 0.02755 0.06833 0.0
C1516 C 0.6454 0.98427 0.05302 0.0
C1517 C 0.64826 0.9946 0.03342 0.0
C1518 C 0.65016 0.0218 0.03149 0.0
C1519 C 0.65008 0.03802 0.04869 0.0
H1520 H 0.83817 0.13701 0.77208 0.0
H1521 H 0.78621 0.09073 0.8084 0.0
H1522 H 0.80784 0.13548 0.74414 0.0
H1523 H 0.75547 0.08867 0.77983 0.0
H1524 H 0.69881 0.10713 0.72573 0.0
H1525 H 0.72543 0.1113 0.75629 0.0
H1526 H 0.79478 0.10396 0.72007 0.0
H1527 H 0.76848 0.10079 0.68975 0.0
C1528 C 0.82002 0.12666 0.7742 0.0
C1529 C 0.81476 0.11393 0.79258 0.0
C1530 C 0.80264 0.12554 0.75798 0.0
C1531 C 0.7793 0.11141 0.75934 0.0
C1532 C 0.77323 0.09975 0.77812 0.0
C1533 C 0.79078 0.101 0.79458 0.0
C1534 C 0.71975 0.10666 0.72426 0.0
C1535 C 0.73132 0.10364 0.70505 0.0
C1536 C 0.73505 0.10877 0.74189 0.0
C1537 C 0.76241 0.1082 0.74084 0.0
C1538 C 0.77385 0.10497 0.72164 0.0
C1539 C 0.75865 0.10279 0.70413 0.0
H1540 H 0.65716 0.08965 0.51653 0.0
H1541 H 0.63315 0.03385 0.56153 0.0
H1542 H 0.65732 0.05616 0.491 0.0
H1543 H 0.63374 0.99945 0.53534 0.0
H1544 H 0.66694 0.94643 0.47982 0.0
H1545 H 0.66515 0.97542 0.50924 0.0
H1546 H 0.62128 0.03094 0.4744 0.0
H1547 H 0.62242 1.00207 0.44534 0.0
C1548 C 0.65179 0.07014 0.52104 0.0
C1549 C 0.64448 0.06471 0.54112 0.0
C1550 C 0.65192 0.05085 0.50627 0.0
C1551 C 0.64494 0.02519 0.51092 0.0
C1552 C 0.63903 0.01912 0.53123 0.0
C1553 C 0.63874 0.03876 0.54623 0.0
C1554 C 0.65648 0.96461 0.4785 0.0
C1555 C 0.64522 0.97196 0.4599 0.0
C1556 C 0.65548 0.98122 0.49543 0.0
C1557 C 0.64337 0.00567 0.49414 0.0
C1558 C 0.6312 0.01247 0.47585 0.0
C1559 C 0.63203 0.9959 0.45907 0.0
H1560 H 0.78189 0.85611 0.21454 0.0
H1561 H 0.77808 0.93997 0.2141 0.0
H1562 H 0.75502 0.85529 0.2451 0.0
H1563 H 0.75125 0.93907 0.24432 0.0
H1564 H 0.67399 0.92494 0.27718 0.0
H1565 H 0.70676 0.92619 0.25098 0.0
H1566 H 0.75072 0.86715 0.28223 0.0
H1567 H 0.71721 0.86591 0.30894 0.0
C1568 C 0.77566 0.8744 0.22103 0.0
C1569 C 0.78192 0.8981 0.21147 0.0
C1570 C 0.76026 0.87391 0.23864 0.0
C1571 C 0.75065 0.8971 0.24716 0.0
C1572 C 0.7578 0.92077 0.23803 0.0
C1573 C 0.77316 0.92126 0.22055 0.0
C1574 C 0.69082 0.91246 0.27876 0.0
C1575 C 0.69297 0.89541 0.29529 0.0
C1576 C 0.70976 0.91325 0.26366 0.0
C1577 C 0.73156 0.89683 0.26436 0.0
C1578 C 0.73413 0.88001 0.28112 0.0
C1579 C 0.71513 0.87948 0.29655 0.0
H1580 H 0.85475 0.06039 0.98153 0.0
H1581 H 0.85954 0.99274 0.94305 0.0
H1582 H 0.85497 0.03219 1.01138 0.0
H1583 H 0.86052 0.96489 0.97267 0.0
H1584 H 0.82996 0.91966 0.02511 0.0
H1585 H 0.82964 0.9513 0.99807 0.0
H1586 H 0.88146 1.00058 0.03223 0.0
H1587 H 0.88167 0.96833 0.05986 0.0
C1588 C 0.85593 0.03956 0.97936 0.0
C1589 C 0.85701 0.029 0.95968 0.0
C1590 C 0.85631 0.02338 0.99655 0.0
C1591 C 0.85751 0.99615 0.99457 0.0
C1592 C 0.85916 0.98571 0.97491 0.0
C1593 C 0.85892 1.0018 0.95781 0.0
C1594 C 0.84119 0.93732 0.02707 0.0
C1595 C 0.85608 0.94123 0.04468 0.0
C1596 C 0.84114 0.95547 1.01139 0.0
C1597 C 0.85603 0.97833 1.01259 0.0
C1598 C 0.86982 0.98314 0.0307 0.0
C1599 C 0.86987 0.96474 0.0466 0.0
H1600 H 0.71657 0.59267 0.80806 0.0
H1601 H 0.66438 0.63781 0.77117 0.0
H1602 H 0.74749 0.59053 0.7796 0.0
H1603 H 0.69478 0.63609 0.74329 0.0
H1604 H 0.73478 0.60053 0.68951 0.0
H1605 H 0.70828 0.60366 0.71975 0.0
H1606 H 0.77726 0.61401 0.75598 0.0
H1607 H 0.8041 0.60999 0.72552 0.0
C1608 C 0.71195 0.60261 0.7941 0.0
C1609 C 0.68784 0.6152 0.79188 0.0
C1610 C 0.72959 0.60133 0.77773 0.0
C1611 C 0.72346 0.61262 0.75884 0.0
C1612 C 0.7 0.62644 0.75725 0.0
C1613 C 0.68255 0.62761 0.77339 0.0
C1614 C 0.74448 0.60319 0.70388 0.0
C1615 C 0.77175 0.60498 0.70486 0.0
C1616 C 0.72916 0.60532 0.72132 0.0
C1617 C 0.74047 0.60938 0.74047 0.0
C1618 C 0.76778 0.61083 0.74158 0.0
C1619 C 0.78318 0.6088 0.72403 0.0
H1620 H 0.69049 0.52432 0.96403 0.0
H1621 H 0.60692 0.53094 0.96132 0.0
H1622 H 0.68671 0.49729 0.99415 0.0
H1623 H 0.60324 0.505 0.9919 0.0
H1624 H 0.6048 0.42871 0.02787 0.0
H1625 H 0.60772 0.46102 1.00141 0.0
H1626 H 0.67589 0.49365 0.02984 0.0
H1627 H 0.67314 0.46039 0.0565 0.0
C1628 C 0.67127 0.52015 0.96982 0.0
C1629 C 0.64901 0.52979 0.95985 0.0
C1630 C 0.66912 0.50488 0.98739 0.0
C1631 C 0.64465 0.49866 0.99563 0.0
C1632 C 0.62246 0.50893 0.98599 0.0
C1633 C 0.62459 0.52417 0.96844 0.0
C1634 C 0.62023 0.44301 0.02878 0.0
C1635 C 0.6387 0.44186 0.04447 0.0
C1636 C 0.62184 0.46177 1.01352 0.0
C1637 C 0.64207 0.48017 1.01324 0.0
C1638 C 0.66014 0.47969 0.02935 0.0
C1639 C 0.65839 0.46085 0.04484 0.0
H1640 H 0.72346 0.43657 0.21803 0.0
H1641 H 0.7425 0.35734 0.20224 0.0
H1642 H 0.74987 0.43282 0.24857 0.0
H1643 H 0.7691 0.35385 0.23252 0.0
H1644 H 0.84219 0.37124 0.27019 0.0
H1645 H 0.81042 0.37201 0.24324 0.0
H1646 H 0.75602 0.4112 0.28246 0.0
H1647 H 0.78848 0.41048 0.30991 0.0
C1648 C 0.73292 0.4182 0.22113 0.0
C1649 C 0.7309 0.39736 0.20732 0.0
C1650 C 0.7481 0.41608 0.23874 0.0
C1651 C 0.76187 0.3931 0.24306 0.0
C1652 C 0.7592 0.37203 0.22959 0.0
C1653 C 0.74397 0.3741 0.21208 0.0
C1654 C 0.82336 0.37978 0.27329 0.0
C1655 C 0.81796 0.39078 0.29233 0.0
C1656 C 0.80499 0.38009 0.25775 0.0
C1657 C 0.7805 0.39161 0.26053 0.0
C1658 C 0.77474 0.40226 0.27971 0.0
C1659 C 0.7932 0.40163 0.29552 0.0
H1660 H 0.90134 0.57771 0.52745 0.0
H1661 H 0.83469 0.54397 0.55707 0.0
H1662 H 0.89859 0.54541 0.50093 0.0
H1663 H 0.83218 0.51076 0.53038 0.0
H1664 H 0.8165 0.47988 0.46491 0.0
H1665 H 0.82043 0.50705 0.49496 0.0
H1666 H 0.90401 0.50156 0.49125 0.0
H1667 H 0.90013 0.4755 0.46071 0.0
C1668 C 0.88633 0.56299 0.52855 0.0
C1669 C 0.86824 0.56356 0.54452 0.0
C1670 C 0.88483 0.54425 0.51326 0.0
C1671 C 0.86512 0.52528 0.51327 0.0
C1672 C 0.84749 0.52518 0.52966 0.0
C1673 C 0.84911 0.54402 0.54515 0.0
C1674 C 0.83577 0.48457 0.47037 0.0
C1675 C 0.85798 0.47553 0.46002 0.0
C1676 C 0.83801 0.49992 0.48789 0.0
C1677 C 0.86255 0.50678 0.49569 0.0
C1678 C 0.88473 0.49711 0.48566 0.0
C1679 C 0.8825 0.48181 0.46816 0.0
H1680 H 0.70613 0.4217 0.72446 0.0
H1681 H 0.67479 0.35105 0.74962 0.0
H1682 H 0.7378 0.42386 0.75223 0.0
H1683 H 0.7065 0.35261 0.77673 0.0
H1684 H 0.74064 0.37838 0.83626 0.0
H1685 H 0.71308 0.37604 0.8066 0.0
H1686 H 0.77523 0.40703 0.76999 0.0
H1687 H 0.80257 0.41062 0.80007 0.0
C1688 C 0.70648 0.40623 0.73555 0.0
C1689 C 0.68782 0.38624 0.73478 0.0
C1690 C 0.72459 0.40749 0.75159 0.0
C1691 C 0.72454 0.38872 0.76719 0.0
C1692 C 0.70682 0.36795 0.76554 0.0
C1693 C 0.68874 0.36684 0.74975 0.0
C1694 C 0.7485 0.38502 0.822 0.0
C1695 C 0.77406 0.39476 0.82084 0.0
C1696 C 0.7327 0.38329 0.80476 0.0
C1697 C 0.7418 0.39106 0.78558 0.0
C1698 C 0.76732 0.40093 0.78438 0.0
C1699 C 0.78319 0.40269 0.8017 0.0
H1700 H 0.86661 0.48906 0.08745 0.0
H1701 H 0.85765 0.55553 0.04828 0.0
H1702 H 0.86697 0.46054 0.05822 0.0
H1703 H 0.85697 0.52663 0.01887 0.0
H1704 H 0.88016 0.4637 0.96939 0.0
H1705 H 0.88163 0.49601 0.99696 0.0
H1706 H 0.83615 0.44457 0.03444 0.0
H1707 H 0.83501 0.41284 1.00755 0.0
C1708 C 0.86492 0.49774 0.07262 0.0
C1709 C 0.86201 0.52481 0.07048 0.0
C1710 C 0.86477 0.48123 0.05573 0.0
C1711 C 0.86161 0.49108 0.036 0.0
C1712 C 0.85946 0.51822 0.03373 0.0
C1713 C 0.85957 0.53481 0.0507 0.0
C1714 C 0.87023 0.45956 0.98344 0.0
C1715 C 0.85776 0.43545 0.98622 0.0
C1716 C 0.8711 0.47803 0.9993 0.0
C1717 C 0.85953 0.47277 0.01826 0.0
C1718 C 0.84604 0.44917 0.02046 0.0
C1719 C 0.84523 0.43092 1.00482 0.0
H1720 H 0.79033 0.59019 0.21921 0.0
H1721 H 0.84068 0.63666 0.25681 0.0
H1722 H 0.75844 0.58813 0.24705 0.0
H1723 H 0.80936 0.63496 0.28402 0.0
H1724 H 0.76745 0.60103 0.33738 0.0
H1725 H 0.79509 0.60337 0.30775 0.0
H1726 H 0.7275 0.61163 0.26969 0.0
H1727 H 0.69949 0.60832 0.29957 0.0
C1728 C 0.79439 0.60035 0.23319 0.0
C1729 C 0.81827 0.6133 0.23579 0.0
C1730 C 0.77617 0.59913 0.24921 0.0
C1731 C 0.78146 0.61087 0.26812 0.0
C1732 C 0.80476 0.62494 0.27008 0.0
C1733 C 0.82276 0.62606 0.2543 0.0
C1734 C 0.75828 0.60305 0.32274 0.0
C1735 C 0.73103 0.60445 0.3211 0.0
C1736 C 0.77427 0.60473 0.30563 0.0
C1737 C 0.76372 0.60797 0.28613 0.0
C1738 C 0.73644 0.60905 0.28436 0.0
C1739 C 0.72035 0.60745 0.30159 0.0
H1740 H 0.63664 0.51617 0.58819 0.0
H1741 H 0.6576 0.45017 0.5513 0.0
H1742 H 0.63529 0.54346 0.55827 0.0
H1743 H 0.65693 0.47794 0.52119 0.0
H1744 H 0.6287 0.53745 0.4699 0.0
H1745 H 0.62853 0.50561 0.49783 0.0
H1746 H 0.66828 0.56105 0.53582 0.0
H1747 H 0.66841 0.59222 0.50858 0.0
C1748 C 0.64071 0.50733 0.57369 0.0
C1749 C 0.6473 0.48083 0.57236 0.0
C1750 C 0.64022 0.52312 0.55646 0.0
C1751 C 0.64629 0.51306 0.53722 0.0
C1752 C 0.6521 0.48639 0.5357 0.0
C1753 C 0.65274 0.47053 0.55304 0.0
C1754 C 0.63765 0.5426 0.48415 0.0
C1755 C 0.64819 0.56761 0.48698 0.0
C1756 C 0.63753 0.52441 0.50018 0.0
C1757 C 0.64786 0.53095 0.51932 0.0
C1758 C 0.65944 0.55549 0.52161 0.0
C1759 C 0.6596 0.57341 0.50581 0.0
H1760 H 0.22486 0.35364 0.31949 0.0
H1761 H 0.2234 0.43685 0.31092 0.0
H1762 H 0.25123 0.34897 0.2892 0.0
H1763 H 0.25088 0.43224 0.28112 0.0
H1764 H 0.28991 0.41548 0.22033 0.0
H1765 H 0.25581 0.41752 0.24636 0.0
H1766 H 0.29486 0.35699 0.2798 0.0
H1767 H 0.32806 0.35469 0.25396 0.0
C1768 C 0.22993 0.37099 0.31112 0.0
C1769 C 0.22199 0.39567 0.31798 0.0
C1770 C 0.24539 0.36832 0.29376 0.0
C1771 C 0.25355 0.39023 0.28263 0.0
C1772 C 0.24494 0.41485 0.28909 0.0
C1773 C 0.22943 0.41752 0.30647 0.0
C1774 C 0.29071 0.40216 0.23297 0.0
C1775 C 0.31173 0.38488 0.23496 0.0
C1776 C 0.27137 0.40355 0.24808 0.0
C1777 C 0.27247 0.3875 0.26539 0.0
C1778 C 0.29292 0.36945 0.26672 0.0
C1779 C 0.31216 0.36821 0.25183 0.0
H1780 H 0.35792 0.51785 0.08901 0.0
H1781 H 0.35279 0.44843 0.05253 0.0
H1782 H 0.36188 0.54403 0.05867 0.0
H1783 H 0.35768 0.47479 0.02194 0.0
H1784 H 0.33907 0.53832 0.97151 0.0
H1785 H 0.33651 0.50751 0.99996 0.0
H1786 H 0.39245 0.55371 0.03282 0.0
H1787 H 0.39456 0.58412 1.00484 0.0
C1788 C 0.35757 0.50806 0.07452 0.0
C1789 C 0.35497 0.48084 0.07346 0.0
C1790 C 0.36019 0.52315 0.05699 0.0
C1791 C 0.36039 0.51167 0.03764 0.0
C1792 C 0.35754 0.48445 0.03647 0.0
C1793 C 0.35501 0.46926 0.05411 0.0
C1794 C 0.35127 0.5414 0.98462 0.0
C1795 C 0.36699 0.56374 0.98591 0.0
C1796 C 0.34972 0.52384 1.00103 0.0
C1797 C 0.36383 0.5283 0.01905 0.0
C1798 C 0.38067 0.54986 0.0196 0.0
C1799 C 0.3821 0.56725 1.0034 0.0
H1800 H 0.16441 0.59748 0.76199 0.0
H1801 H 0.22141 0.62209 0.71801 0.0
H1802 H 0.19695 0.59784 0.78807 0.0
H1803 H 0.25477 0.62235 0.7449 0.0
H1804 H 0.30787 0.59073 0.79995 0.0
H1805 H 0.27919 0.59271 0.77041 0.0
H1806 H 0.22109 0.63164 0.80632 0.0
H1807 H 0.24957 0.6301 0.83556 0.0
C1808 C 0.18396 0.60308 0.75775 0.0
C1809 C 0.18998 0.61015 0.73769 0.0
C1810 C 0.20273 0.60336 0.77293 0.0
C1811 C 0.22847 0.61064 0.76883 0.0
C1812 C 0.23507 0.61675 0.74864 0.0
C1813 C 0.21597 0.6166 0.73322 0.0
C1814 C 0.28914 0.6001 0.80151 0.0
C1815 C 0.28103 0.60985 0.82044 0.0
C1816 C 0.27268 0.60122 0.78449 0.0
C1817 C 0.24761 0.612 0.78596 0.0
C1818 C 0.24001 0.62267 0.80465 0.0
C1819 C 0.25639 0.62166 0.82154 0.0
H1820 H 0.10976 0.53233 0.56555 0.0
H1821 H 0.19329 0.52517 0.56816 0.0
H1822 H 0.10917 0.50574 0.53485 0.0
H1823 H 0.19263 0.49864 0.53776 0.0
H1824 H 0.17749 0.42297 0.50283 0.0
H1825 H 0.17911 0.45516 0.52955 0.0
H1826 H 0.12159 0.50117 0.49835 0.0
H1827 H 0.11988 0.46821 0.47124 0.0
C1828 C 0.12805 0.52541 0.55952 0.0
C1829 C 0.15154 0.53071 0.56974 0.0
C1830 C 0.1277 0.51015 0.54181 0.0
C1831 C 0.15082 0.49969 0.5338 0.0
C1832 C 0.17433 0.50581 0.54362 0.0
C1833 C 0.17469 0.52103 0.56122 0.0
C1834 C 0.16543 0.44014 0.50141 0.0
C1835 C 0.14862 0.443 0.48478 0.0
C1836 C 0.16644 0.45876 0.51679 0.0
C1837 C 0.15051 0.48096 0.51628 0.0
C1838 C 0.13404 0.48426 0.49937 0.0
C1839 C 0.13326 0.46557 0.48369 0.0
H1840 H 0.23641 0.65301 0.20789 0.0
H1841 H 0.21746 0.5737 0.22338 0.0
H1842 H 0.2642 0.65597 0.23757 0.0
H1843 H 0.24518 0.57681 0.25325 0.0
H1844 H 0.28689 0.59699 0.31362 0.0
H1845 H 0.25325 0.59698 0.28703 0.0
H1846 H 0.30554 0.63835 0.24743 0.0
H1847 H 0.33839 0.63853 0.27357 0.0
C1848 C 0.23816 0.63612 0.21754 0.0
C1849 C 0.22471 0.61301 0.21288 0.0
C1850 C 0.2541 0.63786 0.2347 0.0
C1851 C 0.25721 0.61657 0.24789 0.0
C1852 C 0.24312 0.59373 0.24366 0.0
C1853 C 0.22718 0.59196 0.22642 0.0
C1854 C 0.29088 0.60649 0.29936 0.0
C1855 C 0.31538 0.61777 0.29582 0.0
C1856 C 0.27174 0.60626 0.28402 0.0
C1857 C 0.27655 0.6177 0.26496 0.0
C1858 C 0.30078 0.62966 0.26187 0.0
C1859 C 0.3198 0.62962 0.27694 0.0
H1860 H 0.1495 0.52147 0.94321 0.0
H1861 H 0.15234 0.4518 0.97947 0.0
H1862 H 0.14631 0.54765 0.97361 0.0
H1863 H 0.14819 0.47822 1.01015 0.0
H1864 H 0.16859 0.54154 0.06061 0.0
H1865 H 0.1704 0.51051 0.03221 0.0
H1866 H 0.11559 0.55779 0.99925 0.0
H1867 H 0.11436 0.58852 0.02704 0.0
C1868 C 0.14951 0.51164 0.95767 0.0
C1869 C 0.15123 0.48436 0.95868 0.0
C1870 C 0.14733 0.52673 0.97523 0.0
C1871 C 0.14669 0.51518 0.99453 0.0
C1872 C 0.14868 0.48789 0.99564 0.0
C1873 C 0.15078 0.4727 0.97797 0.0
C1874 C 0.15648 0.54482 0.04748 0.0
C1875 C 0.14135 0.56752 0.0461 0.0
C1876 C 0.15759 0.52714 0.03112 0.0
C1877 C 0.14359 0.53185 1.01311 0.0
C1878 C 0.12727 0.55375 1.01249 0.0
C1879 C 0.12631 0.57129 0.0286 0.0
H1880 H 0.2771 0.35766 0.71232 0.0
H1881 H 0.27952 0.44078 0.72139 0.0
H1882 H 0.25037 0.35304 0.7424 0.0
H1883 H 0.25164 0.43624 0.75098 0.0
H1884 H 0.21222 0.41906 0.81171 0.0
H1885 H 0.24622 0.42137 0.78561 0.0
H1886 H 0.20686 0.36127 0.75177 0.0
H1887 H 0.17382 0.35865 0.77769 0.0
C1888 C 0.27216 0.375 0.72075 0.0
C1889 C 0.28052 0.39964 0.7141 0.0
C1890 C 0.25647 0.37237 0.73799 0.0
C1891 C 0.24846 0.39427 0.74921 0.0
C1892 C 0.25744 0.41885 0.74294 0.0
C1893 C 0.27319 0.42149 0.72568 0.0
C1894 C 0.21129 0.40592 0.79894 0.0
C1895 C 0.19024 0.38865 0.79689 0.0
C1896 C 0.23059 0.40746 0.7838 0.0
C1897 C 0.22941 0.39157 0.76638 0.0
C1898 C 0.20887 0.37361 0.76494 0.0
C1899 C 0.1897 0.37221 0.77987 0.0
H1900 H 0.3293 0.42205 0.52685 0.0
H1901 H 0.38257 0.46901 0.56158 0.0
H1902 H 0.33057 0.45329 0.49957 0.0
H1903 H 0.38411 0.50079 0.53366 0.0
H1904 H 0.36084 0.56129 0.48273 0.0
H1905 H 0.35994 0.53325 0.51263 0.0
H1906 H 0.36116 0.4656 0.47405 0.0
H1907 H 0.36112 0.49334 0.44439 0.0
C1908 C 0.34129 0.43921 0.52873 0.0
C1909 C 0.35606 0.44277 0.54644 0.0
C1910 C 0.34216 0.45714 0.5129 0.0
C1911 C 0.35796 0.47939 0.51402 0.0
C1912 C 0.37178 0.48384 0.53217 0.0
C1913 C 0.37085 0.46569 0.54824 0.0
C1914 C 0.3608 0.54042 0.4806 0.0
C1915 C 0.36092 0.52976 0.46093 0.0
C1916 C 0.36055 0.52431 0.49783 0.0
C1917 C 0.36018 0.49704 0.49592 0.0
C1918 C 0.36096 0.48646 0.47627 0.0
C1919 C 0.36129 0.50248 0.45913 0.0
H1920 H 0.16455 0.31378 0.38804 0.0
H1921 H 0.12883 0.2768 0.43963 0.0
H1922 H 0.16068 0.27292 0.36898 0.0
H1923 H 0.12459 0.23653 0.42049 0.0
H1924 H 0.08711 0.18791 0.36787 0.0
H1925 H 0.09626 0.22657 0.3881 0.0
H1926 H 0.17714 0.22224 0.37129 0.0
H1927 H 0.16804 0.18278 0.35132 0.0
C1928 C 0.15608 0.29697 0.39537 0.0
C1929 C 0.14699 0.29866 0.4154 0.0
C1930 C 0.15399 0.27355 0.38448 0.0
C1931 C 0.14229 0.25155 0.39325 0.0
C1932 C 0.13362 0.25317 0.41332 0.0
C1933 C 0.13614 0.27629 0.4243 0.0
C1934 C 0.10691 0.19502 0.36864 0.0
C1935 C 0.12687 0.18228 0.35807 0.0
C1936 C 0.11215 0.21715 0.38024 0.0
C1937 C 0.1374 0.22748 0.38124 0.0
C1938 C 0.15748 0.21476 0.37071 0.0
C1939 C 0.15232 0.19212 0.35942 0.0
H1940 H 0.07587 0.91407 0.60219 0.0
H1941 H 0.07093 0.83461 0.62265 0.0
H1942 H 0.03579 0.92441 0.62088 0.0
H1943 H 0.03154 0.84501 0.64162 0.0
H1944 H 0.97841 0.88053 0.68958 0.0
H1945 H 0.01959 0.87546 0.672 0.0
H1946 H 0.98571 0.9075 0.61791 0.0
H1947 H 0.94386 0.91229 0.63546 0.0
C1948 C 0.0665 0.89899 0.61098 0.0
C1949 C 0.07652 0.87356 0.61107 0.0
C1950 C 0.04348 0.90483 0.62149 0.0
C1951 C 0.03053 0.88549 0.63265 0.0
C1952 C 0.04114 0.86034 0.63323 0.0
C1953 C 0.06369 0.85439 0.6224 0.0
C1954 C 0.97961 0.88679 0.67399 0.0
C1955 C 0.95766 0.89676 0.66393 0.0
C1956 C 0.00329 0.88378 0.66392 0.0
C1957 C 0.00587 0.89104 0.6436 0.0
C1958 C 0.98429 0.9019 0.63364 0.0
C1959 C 0.96032 0.90452 0.64365 0.0
H1960 H 0.34753 0.83742 0.86907 0.0
H1961 H 0.42135 0.80279 0.85363 0.0
H1962 H 0.33586 0.79778 0.88798 0.0
H1963 H 0.40952 0.76356 0.87185 0.0
H1964 H 0.36858 0.68721 0.88572 0.0
H1965 H 0.37428 0.72768 0.86688 0.0
H1966 H 0.35459 0.77187 0.92011 0.0
H1967 H 0.34924 0.73139 0.93914 0.0
C1968 C 0.36121 0.82145 0.86971 0.0
C1969 C 0.38531 0.82326 0.85978 0.0
C1970 C 0.35455 0.7988 0.8805 0.0
C1971 C 0.37165 0.77743 0.88114 0.0
C1972 C 0.39576 0.77949 0.87137 0.0
C1973 C 0.40257 0.80212 0.86101 0.0
C1974 C 0.36508 0.7055 0.89337 0.0
C1975 C 0.35863 0.70599 0.914 0.0
C1976 C 0.36845 0.72869 0.88259 0.0
C1977 C 0.365 0.75296 0.89205 0.0
C1978 C 0.35726 0.75348 0.91239 0.0
C1979 C 0.35434 0.73027 0.92329 0.0
H1980 H 0.45443 0.15944 0.09454 0.0
H1981 H 0.41629 0.09008 0.1162 0.0
H1982 H 0.49374 0.14755 0.11259 0.0
H1983 H 0.45609 0.07826 0.13483 0.0
H1984 H 0.5223 0.09377 0.18483 0.0
H1985 H 0.48256 0.0978 0.16481 0.0
H1986 H 0.52856 0.11262 0.11157 0.0
H1987 H 0.56835 0.1084 0.13149 0.0
C1988 C 0.45444 0.14155 0.10315 0.0
C1989 C 0.43217 0.12568 0.10389 0.0
C1990 C 0.47713 0.13465 0.11341 0.0
C1991 C 0.4782 0.11186 0.12503 0.0
C1992 C 0.45588 0.09594 0.12596 0.0
C1993 C 0.43315 0.10265 0.11529 0.0
C1994 C 0.52399 0.09748 0.16878 0.0
C1995 C 0.54861 0.10094 0.15982 0.0
C1996 C 0.50117 0.09964 0.1573 0.0
C1997 C 0.50235 0.10571 0.13662 0.0
C1998 C 0.52697 0.10815 0.1275 0.0
C1999 C 0.5498 0.1056 0.13892 0.0
H2000 H 0.16704 0.82639 0.18228 0.0
H2001 H 0.08633 0.8187 0.16561 0.0
H2002 H 0.17735 0.78712 0.16245 0.0
H2003 H 0.0967 0.78025 0.1455 0.0
H2004 H 0.13182 0.73281 0.09317 0.0
H2005 H 0.12624 0.77238 0.11291 0.0
H2006 H 0.1618 0.73537 0.16434 0.0
H2007 H 0.16698 0.69511 0.14465 0.0
C2008 C 0.1516 0.81648 0.17425 0.0
C2009 C 0.12587 0.8256 0.17549 0.0
C2010 C 0.15746 0.79396 0.16303 0.0
C2011 C 0.13781 0.78063 0.15244 0.0
C2012 C 0.11225 0.79014 0.15343 0.0
C2013 C 0.10632 0.81215 0.16497 0.0
C2014 C 0.13876 0.73302 0.10861 0.0
C2015 C 0.14984 0.71062 0.11729 0.0
C2016 C 0.13545 0.75575 0.11993 0.0
C2017 C 0.14354 0.75698 0.14016 0.0
C2018 C 0.15551 0.735 0.14873 0.0
C2019 C 0.15838 0.71195 0.13747 0.0
H2020 H 0.52594 0.88056 0.33937 0.0
H2021 H 0.56425 0.91233 0.39197 0.0
H2022 H 0.48556 0.87698 0.35837 0.0
H2023 H 0.52331 0.90909 0.41092 0.0
H2024 H 0.43407 0.91779 0.42973 0.0
H2025 H 0.47321 0.92714 0.40947 0.0
H2026 H 0.4751 0.84722 0.3897 0.0
H2027 H 0.4368 0.8378 0.41019 0.0
C2028 C 0.52573 0.88715 0.35491 0.0
C2029 C 0.54849 0.89665 0.36414 0.0
C2030 C 0.50253 0.88503 0.36579 0.0
C2031 C 0.50127 0.89275 0.38611 0.0
C2032 C 0.52368 0.90317 0.39522 0.0
C2033 C 0.54714 0.90488 0.3844 0.0
C2034 C 0.44275 0.90238 0.42085 0.0
C2035 C 0.43241 0.87708 0.42147 0.0
C2036 C 0.46521 0.90766 0.40942 0.0
C2037 C 0.47719 0.88788 0.39803 0.0
C2038 C 0.46624 0.86287 0.39822 0.0
C2039 C 0.44432 0.85749 0.40996 0.0
H2040 H 0.36155 0.32088 0.6477 0.0
H2041 H 0.34344 0.27558 0.59455 0.0
H2042 H 0.36713 0.28084 0.66703 0.0
H2043 H 0.34879 0.23553 0.61406 0.0
H2044 H 0.34231 0.16974 0.66394 0.0
H2045 H 0.33034 0.20939 0.64519 0.0
H2046 H 0.40204 0.24561 0.66399 0.0
H2047 H 0.4141 0.20641 0.68214 0.0
C2048 C 0.35835 0.30244 0.64019 0.0
C2049 C 0.35224 0.30153 0.61949 0.0
C2050 C 0.36164 0.27947 0.65127 0.0
C2051 C 0.35855 0.255 0.64205 0.0
C2052 C 0.35118 0.25406 0.62162 0.0
C2053 C 0.34826 0.27704 0.61043 0.0
C2054 C 0.35543 0.18622 0.66401 0.0
C2055 C 0.37911 0.18492 0.67456 0.0
C2056 C 0.34863 0.20886 0.65328 0.0
C2057 C 0.36514 0.23074 0.6533 0.0
C2058 C 0.38871 0.2293 0.66391 0.0
C2059 C 0.39568 0.20668 0.67423 0.0
H2060 H 0.08648 0.09055 0.91196 0.0
H2061 H 0.04687 0.15826 0.93511 0.0
H2062 H 0.04728 0.07905 0.89241 0.0
H2063 H 0.00817 0.14667 0.91615 0.0
H2064 H 0.93457 0.10672 0.89583 0.0
H2065 H 0.97408 0.11093 0.91602 0.0
H2066 H 0.02077 0.09968 0.86262 0.0
H2067 H 0.98124 0.09566 0.84228 0.0
C2068 C 0.06943 0.10281 0.913 0.0
C2069 C 0.06981 0.12528 0.92511 0.0
C2070 C 0.04704 0.0963 0.90179 0.0
C2071 C 0.0245 0.11183 0.90288 0.0
C2072 C 0.02499 0.13407 0.91518 0.0
C2073 C 0.04732 0.14079 0.92598 0.0
C2074 C 0.95321 0.10477 0.88838 0.0
C2075 C 0.95462 0.10106 0.86736 0.0
C2076 C 0.97589 0.10727 0.89996 0.0
C2077 C 1.0006 0.10579 0.89091 0.0
C2078 C 1.00207 0.10077 0.87007 0.0
C2079 C 0.97936 0.09862 0.85841 0.0
H2080 H 0.91696 0.81939 0.66061 0.0
H2081 H 0.83565 0.8253 0.67584 0.0
H2082 H 0.9078 0.78151 0.63949 0.0
H2083 H 0.82654 0.78658 0.65503 0.0
H2084 H 0.83958 0.69487 0.63918 0.0
H2085 H 0.84287 0.73599 0.65784 0.0
H2086 H 0.87988 0.7717 0.60643 0.0
H2087 H 0.87612 0.73099 0.58759 0.0
C2088 C 0.89707 0.81263 0.65935 0.0
C2089 C 0.87701 0.82531 0.66985 0.0
C2090 C 0.89183 0.79098 0.64721 0.0
C2091 C 0.86648 0.78106 0.64563 0.0
C2092 C 0.84628 0.7938 0.65603 0.0
C2093 C 0.85145 0.81598 0.66782 0.0
C2094 C 0.84807 0.7116 0.63175 0.0
C2095 C 0.85761 0.70958 0.61188 0.0
C2096 C 0.84983 0.73516 0.64241 0.0
C2097 C 0.86166 0.75703 0.63359 0.0
C2098 C 0.8707 0.75516 0.61361 0.0
C2099 C 0.86846 0.73182 0.60282 0.0
H2100 H 0.02675 0.12364 0.34091 0.0
H2101 H 0.06464 0.09237 0.39383 0.0
H2102 H 0.9865 0.12818 0.35982 0.0
H2103 H 0.02364 0.09655 0.41273 0.0
H2104 H 0.9322 0.08912 0.42941 0.0
H2105 H 0.97201 0.07893 0.41019 0.0
H2106 H 0.9775 0.15912 0.39166 0.0
H2107 H 0.93854 0.16938 0.41114 0.0
C2108 C 0.02648 0.11732 0.3565 0.0
C2109 C 0.04912 0.10769 0.36582 0.0
C2110 C 0.00332 0.12001 0.36734 0.0
C2111 C 1.00192 0.11274 0.38773 0.0
C2112 C 0.02416 0.10214 0.39697 0.0
C2113 C 0.04763 0.09986 0.38617 0.0
C2114 C 0.94186 0.10445 0.42107 0.0
C2115 C 0.93226 0.13003 0.4217 0.0
C2116 C 0.9647 0.09867 0.41025 0.0
C2117 C 0.97785 0.11826 0.39948 0.0
C2118 C 0.96777 0.14363 0.39976 0.0
C2119 C 0.94545 0.14948 0.4109 0.0
H2120 H 0.61892 0.27687 0.09081 0.0
H2121 H 0.66253 0.30997 0.14032 0.0
H2122 H 0.61478 0.23622 0.1093 0.0
H2123 H 0.65847 0.26882 0.15883 0.0
H2124 H 0.66303 0.17966 0.1763 0.0
H2125 H 0.67162 0.21944 0.15668 0.0
H2126 H 0.5903 0.22397 0.14114 0.0
H2127 H 0.58176 0.18485 0.16082 0.0
C2128 C 0.62786 0.27548 0.10557 0.0
C2129 C 0.64098 0.29691 0.11406 0.0
C2130 C 0.62538 0.25211 0.11621 0.0
C2131 C 0.63622 0.24926 0.13557 0.0
C2132 C 0.65005 0.27033 0.14389 0.0
C2133 C 0.65222 0.29397 0.13332 0.0
C2134 C 0.64711 0.1891 0.16854 0.0
C2135 C 0.62172 0.17913 0.17009 0.0
C2136 C 0.65197 0.21195 0.15745 0.0
C2137 C 0.63164 0.22488 0.14734 0.0
C2138 C 0.60643 0.21444 0.14859 0.0
C2139 C 0.60153 0.19203 0.15992 0.0
H2140 H 0.44067 0.89258 0.89445 0.0
H2141 H 0.48605 0.90409 0.84029 0.0
H2142 H 0.48054 0.88836 0.91406 0.0
H2143 H 0.5261 0.90008 0.86015 0.0
H2144 H 0.59163 0.9113 0.91039 0.0
H2145 H 0.55247 0.92162 0.89042 0.0
H2146 H 0.51508 0.8526 0.91339 0.0
H2147 H 0.55381 0.84215 0.93276 0.0
C2148 C 0.45912 0.89457 0.88672 0.0
C2149 C 0.46004 0.89848 0.8657 0.0
C2150 C 0.48201 0.89206 0.898 0.0
C2151 C 0.5065 0.89373 0.88866 0.0
C2152 C 0.50754 0.89884 0.86781 0.0
C2153 C 0.48457 0.901 0.85642 0.0
C2154 C 0.57498 0.89844 0.91113 0.0
C2155 C 0.57581 0.87596 0.92321 0.0
C2156 C 0.55264 0.90427 0.89967 0.0
C2157 C 0.53058 0.88802 0.90046 0.0
C2158 C 0.53155 0.8657 0.91263 0.0
C2159 C 0.55387 0.85966 0.92368 0.0
H2160 H 0.86486 0.31465 0.88412 0.0
H2161 H 0.84966 0.26816 0.93711 0.0
H2162 H 0.86984 0.27506 0.86406 0.0
H2163 H 0.85431 0.22853 0.91687 0.0
H2164 H 0.84352 0.16428 0.86612 0.0
H2165 H 0.83349 0.20357 0.88599 0.0
H2166 H 0.90447 0.23914 0.86498 0.0
H2167 H 0.91468 0.20013 0.8457 0.0
C2168 C 0.86221 0.29603 0.89146 0.0
C2169 C 0.85698 0.29468 0.91229 0.0
C2170 C 0.86518 0.27331 0.87996 0.0
C2171 C 0.86256 0.24862 0.88888 0.0
C2172 C 0.85629 0.24723 0.90952 0.0
C2173 C 0.85377 0.26997 0.92113 0.0
C2174 C 0.8569 0.18053 0.86579 0.0
C2175 C 0.87986 0.17908 0.85431 0.0
C2176 C 0.85122 0.20297 0.87718 0.0
C2177 C 0.86811 0.22457 0.87693 0.0
C2178 C 0.8909 0.22303 0.86532 0.0
C2179 C 0.8968 0.20056 0.85434 0.0
H2180 H 0.48345 0.12152 0.68863 0.0
H2181 H 0.43967 0.09228 0.63778 0.0
H2182 H 0.52237 0.12377 0.6677 0.0
H2183 H 0.47875 0.09377 0.61704 0.0
H2184 H 0.53908 0.13753 0.58006 0.0
H2185 H 0.50304 0.12787 0.60213 0.0
H2186 H 0.55649 0.10198 0.64825 0.0
H2187 H 0.59328 0.11239 0.62578 0.0
C2188 C 0.48217 0.11515 0.67307 0.0
C2189 C 0.45822 0.10704 0.66486 0.0
C2190 C 0.50463 0.11628 0.66108 0.0
C2191 C 0.50379 0.10925 0.64056 0.0
C2192 C 0.4801 0.09989 0.63266 0.0
C2193 C 0.45763 0.09892 0.6446 0.0
C2194 C 0.54333 0.12961 0.59485 0.0
C2195 C 0.56914 0.12576 0.60115 0.0
C2196 C 0.52249 0.1238 0.60751 0.0
C2197 C 0.52664 0.11386 0.62699 0.0
C2198 C 0.55253 0.1097 0.63336 0.0
C2199 C 0.57362 0.11551 0.6205 0.0
H2200 H 0.59236 0.79925 0.34273 0.0
H2201 H 0.66153 0.83657 0.36558 0.0
H2202 H 0.60229 0.76044 0.36232 0.0
H2203 H 0.67132 0.7975 0.38566 0.0
H2204 H 0.65446 0.73337 0.43628 0.0
H2205 H 0.65002 0.7726 0.41566 0.0
H2206 H 0.63701 0.7251 0.36289 0.0
H2207 H 0.6417 0.68588 0.38336 0.0
C2208 C 0.60975 0.79916 0.35194 0.0
C2209 C 0.62621 0.82098 0.35255 0.0
C2210 C 0.61551 0.77682 0.36309 0.0
C2211 C 0.63767 0.77579 0.37546 0.0
C2212 C 0.65408 0.79771 0.37628 0.0
C2213 C 0.64854 0.82002 0.36476 0.0
C2214 C 0.65095 0.73126 0.42023 0.0
C2215 C 0.64833 0.7064 0.41152 0.0
C2216 C 0.64854 0.75377 0.40841 0.0
C2217 C 0.64302 0.75198 0.38766 0.0
C2218 C 0.64105 0.72714 0.37887 0.0
C2219 C 0.64386 0.70465 0.3906 0.0
H2220 H 0.91773 0.91262 0.11714 0.0
H2221 H 0.9556 0.84403 0.09383 0.0
H2222 H 0.9571 0.92299 0.13681 0.0
H2223 H 0.99454 0.85448 0.11297 0.0
H2224 H 0.06921 0.89317 0.13361 0.0
H2225 H 0.02969 0.88873 0.11343 0.0
H2226 H 0.98302 0.90269 0.16647 0.0
H2227 H 0.02255 0.90695 0.18677 0.0
C2228 C 0.93444 0.8999 0.11611 0.0
C2229 C 0.93351 0.87754 0.10388 0.0
C2230 C 0.95694 0.90576 0.1274 0.0
C2231 C 0.97909 0.88967 0.12634 0.0
C2232 C 0.97805 0.86751 0.11395 0.0
C2233 C 0.95558 0.86144 0.10304 0.0
C2234 C 0.05057 0.8956 0.14098 0.0
C2235 C 0.04918 0.90025 0.16189 0.0
C2236 C 0.02788 0.89294 0.1294 0.0
C2237 C 0.00314 0.89521 0.13834 0.0
C2238 C 1.00172 0.90098 0.15907 0.0
C2239 C 0.02444 0.90327 0.17073 0.0
H2240 H 0.58634 0.68614 0.86666 0.0
H2241 H 0.66643 0.68007 0.84794 0.0
H2242 H 0.59683 0.72465 0.88664 0.0
H2243 H 0.67688 0.71939 0.8677 0.0
H2244 H 0.66594 0.81108 0.88506 0.0
H2245 H 0.66103 0.77032 0.866 0.0
H2246 H 0.62654 0.73404 0.91822 0.0
H2247 H 0.63177 0.77417 0.93732 0.0
C2248 C 0.60625 0.69302 0.86689 0.0
C2249 C 0.62557 0.68006 0.85579 0.0
C2250 C 0.61225 0.71506 0.87835 0.0
C2251 C 0.63765 0.72509 0.87869 0.0
C2252 C 0.65711 0.71214 0.86762 0.0
C2253 C 0.65119 0.68959 0.85646 0.0
C2254 C 0.65761 0.79431 0.89254 0.0
C2255 C 0.64922 0.79601 0.91274 0.0
C2256 C 0.65492 0.77095 0.88165 0.0
C2257 C 0.64334 0.74902 0.89062 0.0
C2258 C 0.63545 0.75062 0.91089 0.0
C2259 C 0.63854 0.77368 0.92184 0.0
H2260 H 0.55132 0.40606 0.08557 0.0
H2261 H 0.58828 0.36263 0.13316 0.0
H2262 H 0.51461 0.41537 0.10755 0.0
H2263 H 0.55066 0.37046 0.15511 0.0
H2264 H 0.4819 0.3979 0.19344 0.0
H2265 H 0.5226 0.39725 0.17444 0.0
H2266 H 0.47901 0.39202 0.11876 0.0
H2267 H 0.43871 0.39378 0.1376 0.0
C2268 C 0.55171 0.39892 0.10097 0.0
C2269 C 0.57263 0.38386 0.10777 0.0
C2270 C 0.53045 0.40386 0.11351 0.0
C2271 C 0.52911 0.3931 0.13303 0.0
C2272 C 0.5509 0.37921 0.14025 0.0
C2273 C 0.57255 0.37475 0.12773 0.0
C2274 C 0.48105 0.39684 0.17711 0.0
C2275 C 0.45693 0.39601 0.16708 0.0
C2276 C 0.50446 0.39632 0.1662 0.0
C2277 C 0.50436 0.39475 0.14495 0.0
C2278 C 0.48013 0.39394 0.13502 0.0
C2279 C 0.45683 0.39475 0.14588 0.0
H2280 H 0.83967 0.32512 0.34897 0.0
H2281 H 0.91983 0.32036 0.36771 0.0
H2282 H 0.82969 0.28609 0.36917 0.0
H2283 H 0.90983 0.28214 0.38808 0.0
H2284 H 0.87667 0.23243 0.43886 0.0
H2285 H 0.88097 0.27251 0.41964 0.0
H2286 H 0.84556 0.23563 0.368 0.0
H2287 H 0.84151 0.19494 0.38719 0.0
C2288 C 0.85502 0.31596 0.3576 0.0
C2289 C 0.88053 0.32576 0.3568 0.0
C2290 C 0.84937 0.29357 0.36901 0.0
C2291 C 0.869 0.28107 0.3802 0.0
C2292 C 0.89428 0.29139 0.37973 0.0
C2293 C 0.9 0.31327 0.36804 0.0
C2294 C 0.86949 0.23276 0.42348 0.0
C2295 C 0.85883 0.21028 0.41458 0.0
C2296 C 0.87205 0.25581 0.41246 0.0
C2297 C 0.86367 0.25722 0.39231 0.0
C2298 C 0.85204 0.23515 0.38356 0.0
C2299 C 0.84985 0.21183 0.39452 0.0
H2300 H 0.91728 0.59631 0.62026 0.0
H2301 H 0.95301 0.66902 0.60309 0.0
H2302 H 0.95665 0.58497 0.63961 0.0
H2303 H 0.99197 0.65747 0.62175 0.0
H2304 H 0.06758 0.6157 0.63643 0.0
H2305 H 0.02717 0.62113 0.61748 0.0
H2306 H 0.98282 0.60504 0.67132 0.0
H2307 H 0.02324 0.59998 0.69047 0.0
C2308 C 0.93342 0.60983 0.62064 0.0
C2309 C 0.93203 0.6335 0.61007 0.0
C2310 C 0.9559 0.60335 0.63167 0.0
C2311 C 0.97751 0.62019 0.63191 0.0
C2312 C 0.97585 0.64392 0.62156 0.0
C2313 C 0.95338 0.65057 0.61096 0.0
C2314 C 0.04926 0.61292 0.6442 0.0
C2315 C 0.0487 0.60759 0.66502 0.0
C2316 C 0.02612 0.61613 0.63335 0.0
C2317 C 1.00185 0.61363 0.64296 0.0
C2318 C 1.00122 0.60696 0.66352 0.0
C2319 C 0.02439 0.60421 0.67447 0.0
H2320 H 0.64908 0.30094 0.69461 0.0
H2321 H 0.6103 0.33915 0.64523 0.0
H2322 H 0.65903 0.26402 0.67299 0.0
H2323 H 0.61867 0.30135 0.62359 0.0
H2324 H 0.64739 0.23242 0.5862 0.0
H2325 H 0.64597 0.27294 0.60539 0.0
H2326 H 0.63629 0.22889 0.66049 0.0
H2327 H 0.63893 0.18872 0.64147 0.0
C2328 C 0.64307 0.30151 0.67892 0.0
C2329 C 0.62914 0.32286 0.67149 0.0
C2330 C 0.64836 0.28015 0.66657 0.0
C2331 C 0.63907 0.27915 0.64658 0.0
C2332 C 0.62629 0.30131 0.63882 0.0
C2333 C 0.62151 0.32305 0.65116 0.0
C2334 C 0.64517 0.23144 0.60244 0.0
C2335 C 0.64338 0.20724 0.61228 0.0
C2336 C 0.6442 0.25474 0.61347 0.0
C2337 C 0.64117 0.25447 0.63461 0.0
C2338 C 0.63936 0.23015 0.64434 0.0
C2339 C 0.64067 0.20694 0.63338 0.0
H2340 H 0.95351 0.33971 0.93577 0.0
H2341 H 0.91459 0.40694 0.91121 0.0
H2342 H 0.99233 0.35019 0.91645 0.0
H2343 H 0.95381 0.41721 0.89127 0.0
H2344 H 0.02077 0.39826 0.84189 0.0
H2345 H 0.98073 0.39388 0.8617 0.0
H2346 H 0.02616 0.38739 0.9162 0.0
H2347 H 0.06607 0.39211 0.89661 0.0
C2348 C 0.95323 0.3568 0.92622 0.0
C2349 C 0.93095 0.37256 0.9251 0.0
C2350 C 0.97559 0.36286 0.9152 0.0
C2351 C 0.97624 0.38459 0.9024 0.0
C2352 C 0.95387 0.40031 0.90102 0.0
C2353 C 0.93151 0.39452 0.91247 0.0
C2354 C 0.02223 0.39618 0.85813 0.0
C2355 C 0.04675 0.39542 0.8676 0.0
C2356 C 0.99926 0.39384 0.86947 0.0
C2357 C 1.00027 0.3902 0.89051 0.0
C2358 C 0.02473 0.39003 0.90001 0.0
C2359 C 0.04762 0.39282 0.88875 0.0
H2360 H 0.87505 0.7747 0.08836 0.0
H2361 H 0.84249 0.81185 0.14117 0.0
H2362 H 0.87862 0.73401 0.1069 0.0
H2363 H 0.84582 0.7706 0.15968 0.0
H2364 H 0.83863 0.68169 0.1786 0.0
H2365 H 0.82863 0.72068 0.15835 0.0
H2366 H 0.90813 0.72307 0.13768 0.0
H2367 H 0.91815 0.68493 0.15809 0.0
C2368 C 0.8683 0.77417 0.10385 0.0
C2369 C 0.8586 0.79671 0.11327 0.0
C2370 C 0.87041 0.75078 0.11447 0.0
C2371 C 0.86252 0.7491 0.13473 0.0
C2372 C 0.85186 0.77128 0.14402 0.0
C2373 C 0.85011 0.79492 0.13345 0.0
C2374 C 0.85378 0.69041 0.16948 0.0
C2375 C 0.87915 0.6803 0.16984 0.0
C2376 C 0.84814 0.7128 0.15807 0.0
C2377 C 0.86763 0.72492 0.14646 0.0
C2378 C 0.89268 0.71411 0.14635 0.0
C2379 C 0.89841 0.69227 0.15805 0.0
H2380 H 0.57036 0.66749 0.4113 0.0
H2381 H 0.5744 0.5878 0.43134 0.0
H2382 H 0.53179 0.65738 0.39137 0.0
H2383 H 0.53497 0.57773 0.41158 0.0
H2384 H 0.44337 0.59159 0.39365 0.0
H2385 H 0.48422 0.59516 0.41276 0.0
H2386 H 0.52213 0.62702 0.36023 0.0
H2387 H 0.48196 0.62318 0.34113 0.0
C2388 C 0.56303 0.64773 0.41135 0.0
C2389 C 0.57545 0.62841 0.42281 0.0
C2390 C 0.54094 0.64195 0.39993 0.0
C2391 C 0.5303 0.61679 0.39995 0.0
C2392 C 0.5427 0.59732 0.41136 0.0
C2393 C 0.56533 0.60301 0.42251 0.0
C2394 C 0.46051 0.59902 0.38612 0.0
C2395 C 0.45922 0.60718 0.36584 0.0
C2396 C 0.48392 0.60093 0.39704 0.0
C2397 C 0.50633 0.61146 0.38799 0.0
C2398 C 0.50516 0.61894 0.36763 0.0
C2399 C 0.48205 0.61666 0.35668 0.0
H2400 H 0.34556 0.189 0.14295 0.0
H2401 H 0.36825 0.23244 0.08998 0.0
H2402 H 0.34884 0.22839 0.16322 0.0
H2403 H 0.37213 0.27179 0.11043 0.0
H2404 H 0.36124 0.34276 0.15358 0.0
H2405 H 0.35058 0.30555 0.13154 0.0
H2406 H 0.38514 0.25345 0.17504 0.0
H2407 H 0.39524 0.28985 0.1967 0.0
C2408 C 0.35111 0.20695 0.13557 0.0
C2409 C 0.35692 0.20737 0.11484 0.0
C2410 C 0.3531 0.22959 0.14723 0.0
C2411 C 0.36111 0.25329 0.13854 0.0
C2412 C 0.36577 0.25398 0.11762 0.0
C2413 C 0.36371 0.23131 0.10592 0.0
C2414 C 0.36638 0.32331 0.15835 0.0
C2415 C 0.37902 0.31929 0.1769 0.0
C2416 C 0.36037 0.302 0.14575 0.0
C2417 C 0.3667 0.27637 0.15162 0.0
C2418 C 0.37937 0.27269 0.17017 0.0
C2419 C 0.3854 0.29374 0.18256 0.0
H2420 H 0.52176 0.59975 0.84301 0.0
H2421 H 0.56931 0.61355 0.8957 0.0
H2422 H 0.48257 0.60427 0.86367 0.0
H2423 H 0.53009 0.61836 0.91623 0.0
H2424 H 0.45576 0.66328 0.93599 0.0
H2425 H 0.49463 0.65293 0.91661 0.0
H2426 H 0.45757 0.58356 0.89384 0.0
H2427 H 0.41842 0.59377 0.91374 0.0
C2428 C 0.5239 0.60349 0.85903 0.0
C2429 C 0.54877 0.60639 0.86765 0.0
C2430 C 0.50139 0.60595 0.87088 0.0
C2431 C 0.50317 0.61181 0.89158 0.0
C2432 C 0.52804 0.61404 0.90029 0.0
C2433 C 0.55054 0.61115 0.88853 0.0
C2434 C 0.45585 0.64572 0.92695 0.0
C2435 C 0.43398 0.6293 0.92646 0.0
C2436 C 0.47825 0.63971 0.91592 0.0
C2437 C 0.47932 0.61734 0.90376 0.0
C2438 C 0.45735 0.60096 0.90306 0.0
C2439 C 0.43499 0.60674 0.91448 0.0
H2440 H 0.14276 0.81732 0.64498 0.0
H2441 H 0.15534 0.77165 0.59108 0.0
H2442 H 0.13835 0.77758 0.66468 0.0
H2443 H 0.15117 0.73167 0.61107 0.0
H2444 H 0.16261 0.66712 0.66267 0.0
H2445 H 0.17276 0.70592 0.64217 0.0
H2446 H 0.10257 0.74265 0.66349 0.0
H2447 H 0.09229 0.70432 0.68337 0.0
C2448 C 0.14495 0.79884 0.63732 0.0
C2449 C 0.14924 0.79781 0.61635 0.0
C2450 C 0.14234 0.77601 0.64866 0.0
C2451 C 0.14428 0.75145 0.63944 0.0
C2452 C 0.14971 0.75029 0.61863 0.0
C2453 C 0.15195 0.77322 0.60717 0.0
C2454 C 0.14945 0.68354 0.66293 0.0
C2455 C 0.12671 0.68266 0.67472 0.0
C2456 C 0.15518 0.70566 0.65115 0.0
C2457 C 0.13856 0.72745 0.65135 0.0
C2458 C 0.11594 0.72639 0.66318 0.0
C2459 C 0.11002 0.70429 0.67454 0.0
H2460 H 0.93735 0.39473 0.39556 0.0
H2461 H 0.98438 0.40556 0.34218 0.0
H2462 H 0.97673 0.39079 0.41595 0.0
H2463 H 0.02378 0.40187 0.36272 0.0
H2464 H 0.08861 0.41348 0.41242 0.0
H2465 H 0.04942 0.42367 0.3925 0.0
H2466 H 0.01156 0.35555 0.4166 0.0
H2467 H 0.05036 0.34521 0.43596 0.0
C2468 C 0.95604 0.39666 0.38819 0.0
C2469 C 0.95761 0.4003 0.36717 0.0
C2470 C 0.97864 0.3943 0.39988 0.0
C2471 C 0.00341 0.3959 0.39094 0.0
C2472 C 0.00502 0.40071 0.37008 0.0
C2473 C 0.9824 0.40267 0.35831 0.0
C2474 C 0.07184 0.40081 0.41345 0.0
C2475 C 0.0726 0.37857 0.42579 0.0
C2476 C 0.04947 0.40657 0.40203 0.0
C2477 C 0.02728 0.39051 0.4031 0.0
C2478 C 0.02812 0.36851 0.41562 0.0
C2479 C 0.05048 0.36252 0.42665 0.0
H2480 H 0.37696 0.77569 0.44008 0.0
H2481 H 0.34169 0.81333 0.38858 0.0
H2482 H 0.38113 0.73569 0.42078 0.0
H2483 H 0.34559 0.77261 0.36929 0.0
H2484 H 0.33931 0.68186 0.35155 0.0
H2485 H 0.32946 0.72126 0.37138 0.0
H2486 H 0.41017 0.72702 0.38847 0.0
H2487 H 0.42005 0.68844 0.36842 0.0
C2488 C 0.36971 0.77541 0.42472 0.0
C2489 C 0.35907 0.79792 0.41589 0.0
C2490 C 0.37219 0.7524 0.41366 0.0
C2491 C 0.36375 0.75103 0.39354 0.0
C2492 C 0.35212 0.7731 0.38484 0.0
C2493 C 0.35001 0.79642 0.39585 0.0
C2494 C 0.35483 0.69151 0.35968 0.0
C2495 C 0.38044 0.68209 0.3585 0.0
C2496 C 0.34924 0.71411 0.37087 0.0
C2497 C 0.36907 0.72719 0.38144 0.0
C2498 C 0.39449 0.71731 0.38056 0.0
C2499 C 0.40013 0.69522 0.36908 0.0
H2500 H 0.07771 0.59123 0.10077 0.0
H2501 H 0.06899 0.67243 0.11571 0.0
H2502 H 0.03798 0.58123 0.12013 0.0
H2503 H 0.03005 0.66243 0.13527 0.0
H2504 H 0.9818 0.62955 0.1874 0.0
H2505 H 0.0217 0.63445 0.16814 0.0
H2506 H 0.98624 0.59588 0.11727 0.0
H2507 H 0.94557 0.59123 0.13654 0.0
C2508 C 0.06748 0.60684 0.10835 0.0
C2509 C 0.07644 0.63261 0.10679 0.0
C2510 C 0.0447 0.60116 0.11926 0.0
C2511 C 0.03093 0.62107 0.12918 0.0
C2512 C 0.04028 0.64668 0.12786 0.0
C2513 C 0.06258 0.6524 0.11666 0.0
C2514 C 0.98237 0.62182 0.17218 0.0
C2515 C 0.96029 0.61004 0.16353 0.0
C2516 C 0.00532 0.62472 0.16114 0.0
C2517 C 0.00709 0.61561 0.14121 0.0
C2518 C 0.98544 0.60296 0.13267 0.0
C2519 C 0.96215 0.60042 0.14366 0.0
H2520 H 0.11389 0.34035 0.88388 0.0
H2521 H 0.14682 0.30073 0.83259 0.0
H2522 H 0.12187 0.30191 0.90486 0.0
H2523 H 0.15653 0.26315 0.85347 0.0
H2524 H 0.13762 0.18831 0.88612 0.0
H2525 H 0.1348 0.22851 0.8671 0.0
H2526 H 0.14865 0.27251 0.92176 0.0
H2527 H 0.15004 0.23207 0.94093 0.0
C2528 C 0.12371 0.32373 0.87733 0.0
C2529 C 0.12978 0.32341 0.85668 0.0
C2530 C 0.12829 0.3016 0.8893 0.0
C2531 C 0.13942 0.27892 0.88087 0.0
C2532 C 0.1471 0.27966 0.86047 0.0
C2533 C 0.14194 0.3014 0.8485 0.0
C2534 C 0.14024 0.20654 0.89407 0.0
C2535 C 0.14404 0.20689 0.91506 0.0
C2536 C 0.13882 0.22978 0.88311 0.0
C2537 C 0.14166 0.25412 0.89274 0.0
C2538 C 0.14596 0.25435 0.91375 0.0
C2539 C 0.14695 0.23108 0.92476 0.0
H2540 H 0.56473 0.39136 0.63352 0.0
H2541 H 0.5196 0.39847 0.68825 0.0
H2542 H 0.52467 0.3881 0.61387 0.0
H2543 H 0.47946 0.39559 0.66842 0.0
H2544 H 0.41366 0.41154 0.61958 0.0
H2545 H 0.45343 0.42019 0.63929 0.0
H2546 H 0.48937 0.35229 0.61314 0.0
H2547 H 0.44992 0.34338 0.59405 0.0
C2548 C 0.5463 0.39258 0.64137 0.0
C2549 C 0.54549 0.39503 0.66253 0.0
C2550 C 0.52332 0.39063 0.63009 0.0
C2551 C 0.49887 0.39155 0.63958 0.0
C2552 C 0.49798 0.395 0.66064 0.0
C2553 C 0.521 0.39647 0.672 0.0
C2554 C 0.43013 0.39858 0.61805 0.0
C2555 C 0.42864 0.37681 0.60524 0.0
C2556 C 0.45282 0.40346 0.62936 0.0
C2557 C 0.47462 0.38699 0.62767 0.0
C2558 C 0.47309 0.3655 0.61464 0.0
C2559 C 0.45038 0.36035 0.60375 0.0
H2560 H 0.08372 0.06055 0.29855 0.0
H2561 H 0.15943 0.02779 0.31052 0.0
H2562 H 0.07935 0.03181 0.26888 0.0
H2563 H 0.15497 0.99939 0.28146 0.0
H2564 H 0.15714 0.98362 0.21516 0.0
H2565 H 0.15374 0.01276 0.24383 0.0
H2566 H 0.07928 0.97961 0.25926 0.0
H2567 H 0.08252 0.95014 0.22994 0.0
C2568 C 0.09924 0.04713 0.29496 0.0
C2569 C 0.12206 0.04665 0.30666 0.0
C2570 C 0.09668 0.03064 0.27812 0.0
C2571 C 0.11697 0.01365 0.2728 0.0
C2572 C 0.13919 0.01256 0.28505 0.0
C2573 C 0.1417 0.02881 0.30174 0.0
C2574 C 0.13984 0.98262 0.22446 0.0
C2575 C 0.12028 0.96426 0.22051 0.0
C2576 C 0.13795 0.99932 0.24092 0.0
C2577 C 0.11645 0.99815 0.25391 0.0
C2578 C 0.09607 0.98082 0.24944 0.0
C2579 C 0.098 0.96391 0.23281 0.0
H2580 H 0.18059 0.85816 0.53264 0.0
H2581 H 0.24195 0.84889 0.57649 0.0
H2582 H 0.21223 0.85673 0.50542 0.0
H2583 H 0.27406 0.84777 0.5489 0.0
H2584 H 0.31812 0.83168 0.48582 0.0
H2585 H 0.2879 0.82296 0.51389 0.0
H2586 H 0.24611 0.89328 0.49953 0.0
H2587 H 0.27626 0.90224 0.47218 0.0
C2588 C 0.20083 0.85513 0.53642 0.0
C2589 C 0.20883 0.85383 0.55666 0.0
C2590 C 0.21895 0.85445 0.52083 0.0
C2591 C 0.24558 0.85251 0.5251 0.0
C2592 C 0.25359 0.84923 0.54525 0.0
C2593 C 0.23528 0.84992 0.56099 0.0
C2594 C 0.30253 0.84524 0.4888 0.0
C2595 C 0.29953 0.86764 0.47685 0.0
C2596 C 0.28532 0.84027 0.50482 0.0
C2597 C 0.2646 0.85735 0.50872 0.0
C2598 C 0.26171 0.87962 0.49669 0.0
C2599 C 0.27902 0.88476 0.48104 0.0
H2600 H 0.40197 0.92885 0.78151 0.0
H2601 H 0.40753 0.99042 0.82567 0.0
H2602 H 0.40284 0.96072 0.7544 0.0
H2603 H 0.40844 0.02265 0.7982 0.0
H2604 H 0.42502 0.06802 0.73614 0.0
H2605 H 0.43396 0.03745 0.7639 0.0
H2606 H 0.36548 0.99363 0.74773 0.0
H2607 H 0.35624 0.02419 0.72069 0.0
C2608 C 0.40397 0.9492 0.78541 0.0
C2609 C 0.40433 0.95719 0.8057 0.0
C2610 C 0.4044 0.96744 0.76987 0.0
C2611 C 0.40534 0.99412 0.77424 0.0
C2612 C 0.40776 1.00215 0.79447 0.0
C2613 C 0.40721 0.98376 0.81015 0.0
C2614 C 0.41192 0.05189 0.73863 0.0
C2615 C 0.38992 0.0485 0.7263 0.0
C2616 C 0.41702 0.03447 0.75447 0.0
C2617 C 0.4005 0.01312 0.75783 0.0
C2618 C 0.37871 0.00973 0.74534 0.0
C2619 C 0.3734 0.02728 0.72987 0.0
H2620 H 0.24072 0.12261 0.95848 0.0
H2621 H 0.17936 0.1597 0.99216 0.0
H2622 H 0.27038 0.12871 0.98705 0.0
H2623 H 0.20874 0.1649 0.0211 0.0
H2624 H 0.26295 0.11551 0.06921 0.0
H2625 H 0.23285 0.12174 0.04104 0.0
H2626 H 0.28872 0.17143 1.01156 0.0
H2627 H 0.31841 0.16622 0.04035 0.0
C2628 C 0.23373 0.13247 0.97188 0.0
C2629 C 0.20783 0.14088 0.97314 0.0
C2630 C 0.25068 0.13603 0.98814 0.0
C2631 C 0.24179 0.14739 1.00613 0.0
C2632 C 0.21604 0.15632 1.00727 0.0
C2633 C 0.1993 0.15344 0.99075 0.0
C2634 C 0.26857 0.12825 0.05694 0.0
C2635 C 0.29307 0.14032 0.05687 0.0
C2636 C 0.25134 0.13185 0.0409 0.0
C2637 C 0.25855 0.14706 0.02424 0.0
C2638 C 0.28276 0.1597 0.02433 0.0
C2639 C 0.29971 0.15671 0.04073 0.0
H2640 H 0.84329 0.02553 0.8089 0.0
H2641 H 0.92186 0.05286 0.80002 0.0
H2642 H 0.84734 0.99743 0.77963 0.0
H2643 H 0.92582 0.02444 0.77015 0.0
H2644 H 0.92025 0.94477 0.72991 0.0
H2645 H 0.92306 0.97306 0.75991 0.0
H2646 H 0.85156 0.01056 0.74229 0.0
H2647 H 0.84864 0.98259 0.71283 0.0
C2648 C 0.86155 0.02542 0.80075 0.0
C2649 C 0.88215 0.04168 0.80659 0.0
C2650 C 0.86381 0.00935 0.78393 0.0
C2651 C 0.88675 0.00903 0.77249 0.0
C2652 C 0.90791 0.02439 0.77874 0.0
C2653 C 0.90559 0.04072 0.79569 0.0
C2654 C 0.90535 0.95926 0.73243 0.0
C2655 C 0.88408 0.9613 0.71918 0.0
C2656 C 0.90702 0.97548 0.74948 0.0
C2657 C 0.88736 0.99376 0.75348 0.0
C2658 C 0.86679 0.99639 0.73972 0.0
C2659 C 0.86518 0.9804 0.72281 0.0
H2660 H 0.67768 0.14486 0.53016 0.0
H2661 H 0.7394 0.1562 0.57343 0.0
H2662 H 0.70882 0.14712 0.50267 0.0
H2663 H 0.77103 0.15815 0.54559 0.0
H2664 H 0.81537 0.17505 0.48376 0.0
H2665 H 0.78471 0.1826 0.51172 0.0
H2666 H 0.74301 0.11296 0.49504 0.0
H2667 H 0.77356 0.10521 0.46775 0.0
C2668 C 0.69787 0.14844 0.53378 0.0
C2669 C 0.70611 0.15015 0.55395 0.0
C2670 C 0.71574 0.14959 0.51801 0.0
C2671 C 0.74238 0.15241 0.52201 0.0
C2672 C 0.75057 0.15601 0.5421 0.0
C2673 C 0.73252 0.15484 0.55801 0.0
C2674 C 0.79967 0.1614 0.48618 0.0
C2675 C 0.79688 0.13952 0.47362 0.0
C2676 C 0.78219 0.16571 0.50214 0.0
C2677 C 0.76138 0.14848 0.50542 0.0
C2678 C 0.75862 0.12678 0.49271 0.0
C2679 C 0.77619 0.12231 0.47709 0.0
H2680 H 0.58639 0.02831 0.21488 0.0
H2681 H 0.6553 0.064 0.23943 0.0
H2682 H 0.58456 0.99873 0.24394 0.0
H2683 H 0.6524 0.0366 0.26909 0.0
H2684 H 0.66543 0.96465 0.30438 0.0
H2685 H 0.66231 0.99446 0.27638 0.0
H2686 H 0.5784 0.98916 0.27849 0.0
H2687 H 0.58194 0.95737 0.30605 0.0
C2688 C 0.60068 0.03024 0.22681 0.0
C2689 C 0.62114 0.0481 0.22493 0.0
C2690 C 0.59963 0.01341 0.2435 0.0
C2691 C 0.61875 0.01466 0.25875 0.0
C2692 C 0.63795 0.03412 0.25736 0.0
C2693 C 0.63946 0.05018 0.24047 0.0
C2694 C 0.64627 0.96986 0.29892 0.0
C2695 C 0.62391 0.95898 0.30755 0.0
C2696 C 0.64441 0.98726 0.28291 0.0
C2697 C 0.62004 0.99502 0.27538 0.0
C2698 C 0.59752 0.98373 0.28383 0.0
C2699 C 0.59947 0.96564 0.29967 0.0
H2700 H 0.69929 0.83038 0.97907 0.0
H2701 H 0.73325 0.90518 0.96551 0.0
H2702 H 0.72782 0.82677 1.00891 0.0
H2703 H 0.76127 0.90154 0.99487 0.0
H2704 H 0.81073 0.83171 0.04732 0.0
H2705 H 0.78195 0.82771 0.01767 0.0
H2706 H 0.7458 0.90067 0.03325 0.0
H2707 H 0.7741 0.9047 0.06246 0.0
C2708 C 0.71295 0.84584 0.98233 0.0
C2709 C 0.71387 0.86816 0.97009 0.0
C2710 C 0.72931 0.84371 0.99928 0.0
C2711 C 0.74655 0.86399 1.0042 0.0
C2712 C 0.74799 0.88575 0.99151 0.0
C2713 C 0.73194 0.88778 0.97466 0.0
C2714 C 0.7964 0.84667 0.04446 0.0
C2715 C 0.79482 0.86864 0.05707 0.0
C2716 C 0.77991 0.84431 0.02762 0.0
C2717 C 0.76184 0.864 0.02317 0.0
C2718 C 0.75971 0.88534 0.03626 0.0
C2719 C 0.77593 0.88761 0.053 0.0
H2720 H 0.57831 0.56039 0.79832 0.0
H2721 H 0.65136 0.52201 0.81004 0.0
H2722 H 0.56957 0.52942 0.77076 0.0
H2723 H 0.64243 0.49107 0.78321 0.0
H2724 H 0.61152 0.42512 0.74826 0.0
H2725 H 0.60962 0.45521 0.77653 0.0
H2726 H 0.59179 0.51807 0.73566 0.0
H2727 H 0.59329 0.48759 0.70708 0.0
C2728 C 0.59241 0.54538 0.79504 0.0
C2729 C 0.6156 0.54373 0.80619 0.0
C2730 C 0.5874 0.52769 0.77935 0.0
C2731 C 0.60525 0.50777 0.77496 0.0
C2732 C 0.62813 0.50598 0.78642 0.0
C2733 C 0.63329 0.52378 0.80176 0.0
C2734 C 0.60649 0.44519 0.74528 0.0
C2735 C 0.60274 0.45404 0.72542 0.0
C2736 C 0.60556 0.46246 0.76149 0.0
C2737 C 0.60093 0.48902 0.75825 0.0
C2738 C 0.59533 0.49765 0.73857 0.0
C2739 C 0.59628 0.48026 0.72223 0.0
H2740 H 0.76952 0.39739 0.96586 0.0
H2741 H 0.80952 0.32629 0.98102 0.0
H2742 H 0.73854 0.38973 0.99283 0.0
H2743 H 0.77835 0.31871 1.0086 0.0
H2744 H 0.7361 0.34361 0.07094 0.0
H2745 H 0.76627 0.34112 0.04229 0.0
H2746 H 0.70325 0.35864 1.00146 0.0
H2747 H 0.67346 0.3616 0.02989 0.0
C2748 C 0.77159 0.37997 0.9749 0.0
C2749 C 0.79202 0.36248 0.97138 0.0
C2750 C 0.75373 0.37551 0.99032 0.0
C2751 C 0.75588 0.35352 1.00277 0.0
C2752 C 0.77627 0.33585 0.99926 0.0
C2753 C 0.79407 0.34017 0.98352 0.0
C2754 C 0.72866 0.34634 0.05579 0.0
C2755 C 0.70249 0.35307 0.05266 0.0
C2756 C 0.74589 0.34483 0.0394 0.0
C2757 C 0.73718 0.35007 0.01967 0.0
C2758 C 0.71062 0.35494 0.01651 0.0
C2759 C 0.69351 0.35647 0.0328 0.0
H2760 H 0.90558 0.57824 0.2445 0.0
H2761 H 0.88338 0.51272 0.2077 0.0
H2762 H 0.9106 0.54939 0.27374 0.0
H2763 H 0.88918 0.48372 0.23673 0.0
H2764 H 0.92346 0.44165 0.29492 0.0
H2765 H 0.93009 0.47178 0.26655 0.0
H2766 H 0.86682 0.51916 0.2882 0.0
H2767 H 0.85921 0.48847 0.31567 0.0
C2768 C 0.90281 0.55758 0.24251 0.0
C2769 C 0.89442 0.54759 0.2239 0.0
C2770 C 0.90553 0.54114 0.2592 0.0
C2771 C 0.90055 0.5144 0.2573 0.0
C2772 C 0.8935 0.50423 0.23842 0.0
C2773 C 0.89009 0.52077 0.2219 0.0
C2774 C 0.91104 0.45846 0.29357 0.0
C2775 C 0.8905 0.46241 0.30719 0.0
C2776 C 0.91494 0.47574 0.27749 0.0
C2777 C 0.89897 0.4977 0.27536 0.0
C2778 C 0.87947 0.50243 0.28967 0.0
C2779 C 0.87509 0.48482 0.30531 0.0
H2780 H 0.69292 0.67584 0.48176 0.0
H2781 H 0.73459 0.60539 0.46739 0.0
H2782 H 0.72292 0.68385 0.5101 0.0
H2783 H 0.76449 0.6136 0.49501 0.0
H2784 H 0.82922 0.64574 0.53045 0.0
H2785 H 0.79867 0.64808 0.50255 0.0
H2786 H 0.73559 0.65954 0.5446 0.0
H2787 H 0.76661 0.65761 0.57288 0.0
C2788 C 0.70846 0.66218 0.48462 0.0
C2789 C 0.71139 0.63997 0.47243 0.0
C2790 C 0.72556 0.66674 0.50079 0.0
C2791 C 0.74612 0.64944 0.50463 0.0
C2792 C 0.74906 0.62747 0.49225 0.0
C2793 C 0.73187 0.62274 0.47643 0.0
C2794 C 0.80895 0.64945 0.53379 0.0
C2795 C 0.80026 0.65127 0.55384 0.0
C2796 C 0.79144 0.65065 0.51779 0.0
C2797 C 0.76474 0.65359 0.52144 0.0
C2798 C 0.75611 0.65731 0.5414 0.0
C2799 C 0.77381 0.65614 0.55755 0.0
H2800 H 0.42352 0.56398 0.29679 0.0
H2801 H 0.35197 0.52472 0.31203 0.0
H2802 H 0.43033 0.53314 0.26882 0.0
H2803 H 0.35889 0.49407 0.28468 0.0
H2804 H 0.38843 0.42777 0.24941 0.0
H2805 H 0.39106 0.45861 0.27709 0.0
H2806 H 0.40671 0.52055 0.23481 0.0
H2807 H 0.40457 0.4892 0.20678 0.0
C2808 C 0.40935 0.5488 0.2942 0.0
C2809 C 0.38721 0.54676 0.30655 0.0
C2810 C 0.41321 0.53122 0.27823 0.0
C2811 C 0.39525 0.51109 0.27471 0.0
C2812 C 0.37329 0.50911 0.28721 0.0
C2813 C 0.36928 0.52675 0.30286 0.0
C2814 C 0.39308 0.44781 0.24597 0.0
C2815 C 0.39614 0.4561 0.2259 0.0
C2816 C 0.39442 0.46553 0.26185 0.0
C2817 C 0.3987 0.49204 0.25808 0.0
C2818 C 0.40344 0.50019 0.23813 0.0
C2819 C 0.40213 0.48231 0.22211 0.0
H2820 H 0.30837 0.67294 0.97984 0.0
H2821 H 0.27643 0.59684 0.96773 0.0
H2822 H 0.2791 0.67726 1.00914 0.0
H2823 H 0.24733 0.60133 0.99636 0.0
H2824 H 0.23138 0.59932 0.0629 0.0
H2825 H 0.25954 0.6021 0.03366 0.0
H2826 H 0.22812 0.67763 0.01928 0.0
H2827 H 0.19966 0.675 0.04921 0.0
C2828 C 0.29502 0.65731 0.98333 0.0
C2829 C 0.29503 0.63435 0.97178 0.0
C2830 C 0.27818 0.65987 0.99994 0.0
C2831 C 0.26125 0.63945 1.00515 0.0
C2832 C 0.26047 0.61718 0.9929 0.0
C2833 C 0.27713 0.61466 0.97646 0.0
C2834 C 0.2305 0.61669 0.05368 0.0
C2835 C 0.213 0.63679 0.05819 0.0
C2836 C 0.24661 0.61821 0.03686 0.0
C2837 C 0.24572 0.63988 0.02403 0.0
C2838 C 0.22911 0.66067 0.02893 0.0
C2839 C 0.21276 0.6591 0.04592 0.0
H2840 H 0.09769 0.4911 0.82455 0.0
H2841 H 0.1127 0.42812 0.78297 0.0
H2842 H 0.09645 0.52166 0.79602 0.0
H2843 H 0.11097 0.45823 0.7548 0.0
H2844 H 0.15182 0.52271 0.71899 0.0
H2845 H 0.14389 0.4927 0.74661 0.0
H2846 H 0.07352 0.53397 0.76187 0.0
H2847 H 0.08133 0.56409 0.73363 0.0
C2848 C 0.10003 0.4837 0.80934 0.0
C2849 C 0.10546 0.45727 0.80601 0.0
C2850 C 0.09926 0.50115 0.79303 0.0
C2851 C 0.10399 0.49235 0.77324 0.0
C2852 C 0.10766 0.46564 0.76991 0.0
C2853 C 0.10845 0.44835 0.78608 0.0
C2854 C 0.13452 0.52533 0.72808 0.0
C2855 C 0.11721 0.54578 0.72417 0.0
C2856 C 0.12993 0.50807 0.74389 0.0
C2857 C 0.10799 0.51088 0.75633 0.0
C2858 C 0.09062 0.53141 0.75254 0.0
C2859 C 0.09506 0.54859 0.73642 0.0
H2860 H 0.19551 0.33422 0.48253 0.0
H2861 H 0.22947 0.4088 0.46833 0.0
H2862 H 0.22297 0.33166 0.51298 0.0
H2863 H 0.25668 0.40611 0.49815 0.0
H2864 H 0.27254 0.41203 0.56434 0.0
H2865 H 0.24443 0.40821 0.53506 0.0
H2866 H 0.27289 0.33052 0.52421 0.0
H2867 H 0.30115 0.33422 0.55415 0.0
C2868 C 0.20891 0.34989 0.48582 0.0
C2869 C 0.21011 0.37185 0.47321 0.0
C2870 C 0.22469 0.34836 0.50313 0.0
C2871 C 0.24168 0.36886 0.50805 0.0
C2872 C 0.24346 0.39022 0.49494 0.0
C2873 C 0.22792 0.39169 0.47778 0.0
C2874 C 0.27271 0.39398 0.5559 0.0
C2875 C 0.28937 0.37356 0.56135 0.0
C2876 C 0.25665 0.39185 0.53906 0.0
C2877 C 0.25676 0.36923 0.52718 0.0
C2878 C 0.27247 0.3482 0.53311 0.0
C2879 C 0.28873 0.35037 0.5501 0.0
H2880 H 0.11633 0.19609 0.09358 0.0
H2881 H 0.12705 0.11326 0.08668 0.0
H2882 H 0.11374 0.19082 0.13003 0.0
H2883 H 0.12476 0.10806 0.12339 0.0
H2884 H 0.14109 0.11513 0.19274 0.0
H2885 H 0.14692 0.11895 0.15616 0.0
H2886 H 0.08177 0.17165 0.15333 0.0
H2887 H 0.07566 0.16758 0.18958 0.0
C2888 C 0.11812 0.17672 0.09982 0.0
C2889 C 0.12153 0.15506 0.0871 0.0
C2890 C 0.11665 0.17371 0.12076 0.0
C2891 C 0.11869 0.14897 0.12963 0.0
C2892 C 0.12322 0.1274 0.11704 0.0
C2893 C 0.12458 0.1304 0.096 0.0
C2894 C 0.12786 0.12734 0.18429 0.0
C2895 C 0.10806 0.14126 0.19423 0.0
C2896 C 0.13125 0.12955 0.16332 0.0
C2897 C 0.11501 0.14584 0.15184 0.0
C2898 C 0.09501 0.15939 0.16176 0.0
C2899 C 0.09154 0.15708 0.1826 0.0
H2900 H 0.14368 0.83121 0.43685 0.0
H2901 H 0.07899 0.88337 0.44605 0.0
H2902 H 0.14097 0.8385 0.40049 0.0
H2903 H 0.07617 0.89043 0.40974 0.0
H2904 H 0.05932 0.87132 0.34316 0.0
H2905 H 0.06369 0.86639 0.37953 0.0
H2906 H 0.14714 0.87136 0.37399 0.0
H2907 H 0.14281 0.87669 0.3375 0.0
C2908 C 0.12907 0.84447 0.43119 0.0
C2909 C 0.11147 0.85656 0.4445 0.0
C2910 C 0.12751 0.84864 0.41029 0.0
C2911 C 0.10825 0.86495 0.40211 0.0
C2912 C 0.09094 0.87737 0.41544 0.0
C2913 C 0.09255 0.87328 0.43631 0.0
C2914 C 0.07863 0.87181 0.34965 0.0
C2915 C 0.10069 0.87455 0.33724 0.0
C2916 C 0.08113 0.8689 0.37058 0.0
C2917 C 0.10577 0.86852 0.37977 0.0
C2918 C 0.12787 0.87125 0.36742 0.0
C2919 C 0.12536 0.87428 0.34645 0.0
H2920 H 0.45149 0.86175 0.68773 0.0
H2921 H 0.36808 0.86402 0.69506 0.0
H2922 H 0.44617 0.8594 0.65127 0.0
H2923 H 0.36281 0.86202 0.65838 0.0
H2924 H 0.36734 0.88254 0.58976 0.0
H2925 H 0.371 0.88666 0.62648 0.0
H2926 H 0.43018 0.82721 0.62684 0.0
H2927 H 0.42633 0.8228 0.59041 0.0
C2928 C 0.43198 0.86162 0.6816 0.0
C2929 C 0.41022 0.86276 0.69445 0.0
C2930 C 0.42894 0.86031 0.66065 0.0
C2931 C 0.40405 0.86026 0.65189 0.0
C2932 C 0.38226 0.8622 0.66463 0.0
C2933 C 0.3853 0.86338 0.68567 0.0
C2934 C 0.38095 0.87017 0.5977 0.0
C2935 C 0.39672 0.85251 0.58702 0.0
C2936 C 0.38306 0.87257 0.61875 0.0
C2937 C 0.40106 0.85745 0.62959 0.0
C2938 C 0.41651 0.83956 0.61893 0.0
C2939 C 0.41432 0.83708 0.59798 0.0
H2940 H 0.44258 0.14211 0.84387 0.0
H2941 H 0.35998 0.13279 0.83469 0.0
H2942 H 0.43591 0.14314 0.88015 0.0
H2943 H 0.35336 0.13271 0.87129 0.0
H2944 H 0.3516 0.16735 0.9367 0.0
H2945 H 0.35511 0.16218 0.90007 0.0
H2946 H 0.42452 0.11611 0.90812 0.0
H2947 H 0.42118 0.12165 0.94456 0.0
C2948 C 0.42295 0.14022 0.8496 0.0
C2949 C 0.40181 0.13758 0.8363 0.0
C2950 C 0.41915 0.14044 0.87048 0.0
C2951 C 0.39409 0.13791 0.87874 0.0
C2952 C 0.3729 0.13493 0.86547 0.0
C2953 C 0.37673 0.1347 0.84449 0.0
C2954 C 0.36737 0.15581 0.93062 0.0
C2955 C 0.38631 0.14521 0.94351 0.0
C2956 C 0.36938 0.15281 0.90962 0.0
C2957 C 0.39031 0.13902 0.90108 0.0
C2958 C 0.40851 0.1274 0.9141 0.0
C2959 C 0.40657 0.13052 0.93501 0.0
H2960 H 0.85639 0.84923 0.83309 0.0
H2961 H 0.92283 0.89942 0.8414 0.0
H2962 H 0.85071 0.84668 0.86959 0.0
H2963 H 0.91735 0.8967 0.87794 0.0
H2964 H 0.88834 0.90258 0.9429 0.0
H2965 H 0.89032 0.90838 0.90634 0.0
H2966 H 0.87203 0.82708 0.89802 0.0
H2967 H 0.86996 0.82136 0.93446 0.0
C2968 C 0.86981 0.8597 0.84272 0.0
C2969 C 0.89016 0.8744 0.8343 0.0
C2970 C 0.86659 0.85821 0.86367 0.0
C2971 C 0.88369 0.87131 0.87679 0.0
C2972 C 0.90361 0.8866 0.86834 0.0
C2973 C 0.90677 0.88816 0.84736 0.0
C2974 C 0.88476 0.88594 0.93326 0.0
C2975 C 0.87898 0.8615 0.94167 0.0
C2976 C 0.88593 0.88926 0.91227 0.0
C2977 C 0.88136 0.86821 0.89915 0.0
C2978 C 0.87522 0.84386 0.90759 0.0
C2979 C 0.87402 0.84056 0.92855 0.0
H2980 H 0.86166 0.12447 0.69327 0.0
H2981 H 0.94379 0.13965 0.68662 0.0
H2982 H 0.85643 0.12676 0.65661 0.0
H2983 H 0.93839 0.14311 0.65031 0.0
H2984 H 0.92706 0.12433 0.58448 0.0
H2985 H 0.9302 0.11791 0.62082 0.0
H2986 H 0.85688 0.15742 0.62893 0.0
H2987 H 0.85363 0.16358 0.59243 0.0
C2988 C 0.87862 0.12822 0.68403 0.0
C2989 C 0.90314 0.13197 0.69302 0.0
C2990 C 0.87556 0.12983 0.66299 0.0
C2991 C 0.89697 0.13513 0.65038 0.0
C2992 C 0.92148 0.13865 0.65941 0.0
C2993 C 0.92452 0.13703 0.68036 0.0
C2994 C 0.9116 0.13169 0.594 0.0
C2995 C 0.89021 0.14469 0.58548 0.0
C2996 C 0.91342 0.12804 0.6149 0.0
C2997 C 0.89395 0.13739 0.62795 0.0
C2998 C 0.87215 0.14972 0.61939 0.0
C2999 C 0.87028 0.15329 0.59843 0.0
H3000 H 0.61845 0.11621 0.44137 0.0
H3001 H 0.63574 0.19714 0.4302 0.0
H3002 H 0.61513 0.10861 0.40517 0.0
H3003 H 0.63102 0.18984 0.39407 0.0
H3004 H 0.64141 0.16488 0.32874 0.0
H3005 H 0.64956 0.17018 0.36481 0.0
H3006 H 0.58621 0.11767 0.37798 0.0
H3007 H 0.57836 0.11214 0.34196 0.0
C3008 C 0.62178 0.13238 0.43123 0.0
C3009 C 0.6273 0.15734 0.43884 0.0
C3010 C 0.61948 0.12808 0.41041 0.0
C3011 C 0.62257 0.14863 0.39658 0.0
C3012 C 0.62872 0.17345 0.40417 0.0
C3013 C 0.63111 0.17773 0.42498 0.0
C3014 C 0.62921 0.15449 0.33935 0.0
C3015 C 0.6092 0.13811 0.33241 0.0
C3016 C 0.63385 0.15756 0.36007 0.0
C3017 C 0.61852 0.14443 0.37443 0.0
C3018 C 0.59873 0.12777 0.36744 0.0
C3019 C 0.59418 0.12462 0.34673 0.0
H3020 H 0.65882 0.84235 0.09162 0.0
H3021 H 0.58704 0.88416 0.0825 0.0
H3022 H 0.6551 0.84923 0.12804 0.0
H3023 H 0.58339 0.89116 0.11878 0.0
H3024 H 0.5681 0.86851 0.18453 0.0
H3025 H 0.57401 0.86508 0.14822 0.0
H3026 H 0.65584 0.88151 0.1552 0.0
H3027 H 0.6499 0.88514 0.19172 0.0
C3028 C 0.64247 0.85336 0.09735 0.0
C3029 C 0.6231 0.86248 0.08415 0.0
C3030 C 0.64033 0.85731 0.11824 0.0
C3031 C 0.6188 0.87052 0.12641 0.0
C3032 C 0.59993 0.8804 0.11309 0.0
C3033 C 0.60204 0.87642 0.09227 0.0
C3034 C 0.58732 0.87182 0.17836 0.0
C3035 C 0.60848 0.87728 0.19114 0.0
C3036 C 0.59071 0.86982 0.15748 0.0
C3037 C 0.61539 0.87315 0.14871 0.0
C3038 C 0.63661 0.87857 0.16144 0.0
C3039 C 0.6332 0.88064 0.1824 0.0
H3040 H 0.56164 0.63839 0.68569 0.0
H3041 H 0.64469 0.63271 0.69395 0.0
H3042 H 0.56779 0.64203 0.6494 0.0
H3043 H 0.65089 0.63622 0.65745 0.0
H3044 H 0.65176 0.67198 0.59304 0.0
H3045 H 0.64769 0.6662 0.62953 0.0
H3046 H 0.58013 0.61775 0.62022 0.0
H3047 H 0.58407 0.62378 0.58387 0.0
C3048 C 0.58124 0.63755 0.67976 0.0
C3049 C 0.60264 0.63511 0.69284 0.0
C3050 C 0.58479 0.63964 0.65886 0.0
C3051 C 0.60985 0.63929 0.65034 0.0
C3052 C 0.63131 0.63689 0.66342 0.0
C3053 C 0.62775 0.63485 0.68439 0.0
C3054 C 0.63623 0.65984 0.59878 0.0
C3055 C 0.61811 0.64856 0.58548 0.0
C3056 C 0.63388 0.6565 0.61975 0.0
C3057 C 0.6134 0.6417 0.62796 0.0
C3058 C 0.59579 0.62978 0.61456 0.0
C3059 C 0.59808 0.6332 0.59366 0.0
H3060 H 0.61539 0.39937 0.83932 0.0
H3061 H 0.5733 0.32666 0.83917 0.0
H3062 H 0.62045 0.3962 0.87598 0.0
H3063 H 0.57941 0.32288 0.87535 0.0
H3064 H 0.57044 0.33481 0.94215 0.0
H3065 H 0.56469 0.34165 0.90611 0.0
H3066 H 0.64304 0.3715 0.90194 0.0
H3067 H 0.64858 0.36501 0.93832 0.0
C3068 C 0.60719 0.38275 0.84708 0.0
C3069 C 0.59402 0.36323 0.83624 0.0
C3070 C 0.61035 0.38078 0.86807 0.0
C3071 C 0.60032 0.35929 0.87869 0.0
C3072 C 0.58709 0.33989 0.86779 0.0
C3073 C 0.5839 0.34188 0.84692 0.0
C3074 C 0.5865 0.34271 0.93354 0.0
C3075 C 0.61009 0.34904 0.94305 0.0
C3076 C 0.58322 0.34663 0.91284 0.0
C3077 C 0.6035 0.35684 0.901 0.0
C3078 C 0.62693 0.36379 0.91059 0.0
C3079 C 0.63015 0.36001 0.93142 0.0
H3080 H 0.86901 0.38867 0.08675 0.0
H3081 H 0.89894 0.31067 0.09301 0.0
H3082 H 0.87125 0.39432 0.12339 0.0
H3083 H 0.9023 0.31669 0.12927 0.0
H3084 H 0.88425 0.3245 0.19546 0.0
H3085 H 0.87732 0.32014 0.15925 0.0
H3086 H 0.90193 0.39969 0.15066 0.0
H3087 H 0.90853 0.4041 0.18706 0.0
C3088 C 0.87598 0.37269 0.0959 0.0
C3089 C 0.8839 0.34925 0.08679 0.0
C3090 C 0.87755 0.37604 0.11693 0.0
C3091 C 0.88698 0.35599 0.12943 0.0
C3092 C 0.89461 0.3325 0.12029 0.0
C3093 C 0.89302 0.32916 0.09935 0.0
C3094 C 0.88822 0.34108 0.18586 0.0
C3095 C 0.8972 0.36457 0.19422 0.0
C3096 C 0.88429 0.33857 0.16503 0.0
C3097 C 0.88934 0.35945 0.15185 0.0
C3098 C 0.89758 0.38323 0.16028 0.0
C3099 C 0.90141 0.38577 0.18119 0.0
H3100 H 0.95012 0.63131 0.34128 0.0
H3101 H 0.86748 0.64323 0.33472 0.0
H3102 H 0.94579 0.6341 0.37782 0.0
H3103 H 0.86313 0.6461 0.37143 0.0
H3104 H 0.86335 0.62755 0.43986 0.0
H3105 H 0.86624 0.62209 0.40323 0.0
H3106 H 0.93703 0.66725 0.40268 0.0
H3107 H 0.93415 0.6727 0.43909 0.0
C3108 C 0.931 0.63461 0.34763 0.0
C3109 C 0.90919 0.63731 0.335 0.0
C3110 C 0.92852 0.63625 0.36862 0.0
C3111 C 0.90415 0.64064 0.37763 0.0
C3112 C 0.88217 0.64252 0.36505 0.0
C3113 C 0.88466 0.64085 0.34399 0.0
C3114 C 0.87943 0.63645 0.43189 0.0
C3115 C 0.89863 0.6504 0.44251 0.0
C3116 C 0.88109 0.63331 0.41088 0.0
C3117 C 0.90199 0.64403 0.39997 0.0
C3118 C 0.92098 0.6582 0.4106 0.0
C3119 C 0.91932 0.66134 0.43153 0.0
H3120 H 0.43641 0.40199 0.34827 0.0
H3121 H 0.36598 0.35858 0.33714 0.0
H3122 H 0.4291 0.39847 0.38455 0.0
H3123 H 0.35874 0.35487 0.37338 0.0
H3124 H 0.34212 0.37036 0.44003 0.0
H3125 H 0.34794 0.37785 0.40389 0.0
H3126 H 0.43063 0.36613 0.41055 0.0
H3127 H 0.42481 0.35895 0.4466 0.0
C3128 C 0.41937 0.39166 0.35355 0.0
C3129 C 0.40184 0.38051 0.33973 0.0
C3130 C 0.41519 0.38959 0.37439 0.0
C3131 C 0.3934 0.37623 0.38199 0.0
C3132 C 0.37555 0.3656 0.36814 0.0
C3133 C 0.3797 0.36774 0.3473 0.0
C3134 C 0.36152 0.36934 0.43375 0.0
C3135 C 0.38299 0.36409 0.44626 0.0
C3136 C 0.36488 0.3736 0.41301 0.0
C3137 C 0.38978 0.37263 0.40421 0.0
C3138 C 0.41123 0.36754 0.41679 0.0
C3139 C 0.40789 0.36338 0.43751 0.0
H3140 H 0.41415 0.60245 0.18823 0.0
H3141 H 0.37644 0.67673 0.19605 0.0
H3142 H 0.408 0.60566 0.15173 0.0
H3143 H 0.37006 0.67986 0.15969 0.0
H3144 H 0.39241 0.69231 0.09378 0.0
H3145 H 0.39603 0.68714 0.13015 0.0
H3146 H 0.37652 0.60577 0.12438 0.0
H3147 H 0.37296 0.61097 0.08778 0.0
C3148 C 0.4042 0.61928 0.18219 0.0
C3149 C 0.39601 0.63945 0.19507 0.0
C3150 C 0.40066 0.62113 0.16125 0.0
C3151 C 0.38876 0.64316 0.15268 0.0
C3152 C 0.37984 0.6629 0.16567 0.0
C3153 C 0.38345 0.66109 0.18655 0.0
C3154 C 0.38855 0.67336 0.10024 0.0
C3155 C 0.3822 0.65211 0.08779 0.0
C3156 C 0.39063 0.67038 0.12116 0.0
C3157 C 0.38639 0.64607 0.1303 0.0
C3158 C 0.38017 0.62473 0.11787 0.0
C3159 C 0.37811 0.62771 0.09687 0.0
H3160 H 0.0961 0.60036 0.84371 0.0
H3161 H 0.12767 0.67748 0.83594 0.0
H3162 H 0.10217 0.60405 0.88024 0.0
H3163 H 0.13406 0.68108 0.87225 0.0
H3164 H 0.11049 0.69259 0.9378 0.0
H3165 H 0.1077 0.68663 0.90151 0.0
H3166 H 0.13281 0.60696 0.90806 0.0
H3167 H 0.1345 0.61265 0.94473 0.0
C3168 C 0.10472 0.61793 0.84976 0.0
C3169 C 0.1111 0.63874 0.8369 0.0
C3170 C 0.10823 0.62006 0.87072 0.0
C3171 C 0.11831 0.64301 0.87931 0.0
C3172 C 0.12563 0.66336 0.8663 0.0
C3173 C 0.12202 0.66129 0.84543 0.0
C3174 C 0.11519 0.67369 0.93159 0.0
C3175 C 0.12253 0.65306 0.94431 0.0
C3176 C 0.11395 0.67036 0.91066 0.0
C3177 C 0.12015 0.64633 0.90172 0.0
C3178 C 0.12769 0.62568 0.91439 0.0
C3179 C 0.12893 0.62903 0.93542 0.0
H3180 H 0.06191 0.3577 0.68727 0.0
H3181 H 0.13472 0.3989 0.69332 0.0
H3182 H 0.06837 0.35496 0.651 0.0
H3183 H 0.14132 0.39584 0.65683 0.0
H3184 H 0.15528 0.35661 0.59384 0.0
H3185 H 0.15016 0.36349 0.63019 0.0
H3186 H 0.06918 0.38214 0.62109 0.0
H3187 H 0.07429 0.37526 0.58492 0.0
C3188 C 0.07914 0.36655 0.68087 0.0
C3189 C 0.09767 0.37871 0.69334 0.0
C3190 C 0.08288 0.36491 0.66 0.0
C3191 C 0.10531 0.3753 0.65092 0.0
C3192 C 0.12393 0.38741 0.66333 0.0
C3193 C 0.12014 0.38915 0.68427 0.0
C3194 C 0.13649 0.36255 0.59958 0.0
C3195 C 0.11512 0.36506 0.58646 0.0
C3196 C 0.13354 0.3665 0.62043 0.0
C3197 C 0.10917 0.37307 0.62863 0.0
C3198 C 0.08809 0.37651 0.61538 0.0
C3199 C 0.09102 0.37257 0.59462 0.0
loop_
_geom_bond_atom_site_label_1
_geom_bond_atom_site_label_2
_geom_bond_distance
_geom_bond_site_symmetry_2
_ccdc_geom_bond_type
Nd0 C2 2.836 . S
Nd0 O20 2.500 . S
Nd0 O21 2.492 . S
Nd0 O22 2.487 . S
Nd0 O23 2.682 . S
Nd0 O24 2.410 . S
Nd0 O29 2.414 . S
Nd0 O31 2.424 . S
Nd1 C11 2.836 . S
Nd1 O23 2.414 . S
Nd1 O25 2.424 . S
Nd1 O26 2.500 . S
Nd1 O27 2.492 . S
Nd1 O28 2.487 . S
Nd1 O29 2.682 . S
Nd1 O30 2.410 . S
C2 Nd0 2.836 . S
C2 C3 1.498 . S
C2 O20 1.258 . S
C2 O21 1.239 . S
C3 C2 1.498 . S
C3 C4 1.366 . S
C3 C8 1.407 . S
C4 C3 1.366 . S
C4 C5 1.392 . S
C4 H32 0.930 . S
C5 C4 1.392 . S
C5 C6 1.398 . S
C5 H33 0.929 . S
C6 C5 1.398 . S
C6 C7 1.352 . S
C7 C6 1.352 . S
C7 C8 1.384 . S
C7 H34 0.930 . S
C8 C3 1.407 . S
C8 C7 1.384 . S
C8 H35 0.929 . S
C9 O22 1.241 . S
C9 O23 1.273 . S
C10 O24 1.251 . S
C10 O25 1.268 . S
C11 Nd1 2.836 . S
C11 C12 1.498 . S
C11 O26 1.258 . S
C11 O27 1.239 . S
C12 C11 1.498 . S
C12 C13 1.366 . S
C12 C17 1.407 . S
C13 C12 1.366 . S
C13 C14 1.392 . S
C13 H36 0.930 . S
C14 C13 1.392 . S
C14 C15 1.398 . S
C14 H37 0.929 . S
C15 C14 1.398 . S
C15 C16 1.352 . S
C16 C15 1.352 . S
C16 C17 1.384 . S
C16 H38 0.934 1_545 S
C17 C12 1.407 . S
C17 C16 1.384 . S
C17 H39 0.929 . S
C18 O28 1.241 . S
C18 O29 1.273 . S
C19 O30 1.251 . S
C19 O31 1.268 . S
O20 Nd0 2.500 . S
O20 C2 1.258 . S
O21 Nd0 2.492 . S
O21 C2 1.239 . S
O22 Nd0 2.487 . S
O22 C9 1.241 . S
O23 Nd0 2.682 . S
O23 Nd1 2.414 . S
O23 C9 1.273 . S
O24 Nd0 2.410 . S
O24 C10 1.251 . S
O25 Nd1 2.424 . S
O25 C10 1.268 . S
O26 Nd1 2.500 . S
O26 C11 1.258 . S
O27 Nd1 2.492 . S
O27 C11 1.239 . S
O28 Nd1 2.487 . S
O28 C18 1.241 . S
O29 Nd0 2.414 . S
O29 Nd1 2.682 . S
O29 C18 1.273 . S
O30 Nd1 2.410 . S
O30 C19 1.251 . S
O31 Nd0 2.424 . S
O31 C19 1.268 . S
H32 C4 0.930 . S
H33 C5 0.929 . S
H34 C7 0.930 . S
H35 C8 0.929 . S
H36 C13 0.930 . S
H37 C14 0.929 . S
H38 C16 0.934 1_565 S
H39 C17 0.929 . S
Nd40 C42 2.836 . S
Nd40 O60 2.500 . S
Nd40 O61 2.492 . S
Nd40 O62 2.487 . S
Nd40 O63 2.682 . S
Nd40 O64 2.410 . S
Nd40 O69 2.414 . S
Nd40 O71 2.424 . S
Nd41 C51 2.836 . S
Nd41 O63 2.414 . S
Nd41 O65 2.424 . S
Nd41 O66 2.500 . S
Nd41 O67 2.492 . S
Nd41 O68 2.487 . S
Nd41 O69 2.682 . S
Nd41 O70 2.410 . S
C42 Nd40 2.836 . S
C42 C43 1.498 . S
C42 O60 1.258 . S
C42 O61 1.239 . S
C43 C42 1.498 . S
C43 C44 1.366 . S
C43 C48 1.407 . S
C44 C43 1.366 . S
C44 C45 1.392 . S
C44 H72 0.930 . S
C45 C44 1.392 . S
C45 C46 1.398 . S
C45 H73 0.929 . S
C46 C45 1.398 . S
C46 C47 1.352 . S
C47 C46 1.352 . S
C47 C48 1.384 . S
C47 H74 0.930 . S
C48 C43 1.407 . S
C48 C47 1.384 . S
C48 H75 0.929 . S
C49 O62 1.241 . S
C49 O63 1.273 . S
C50 O64 1.251 . S
C50 O65 1.268 . S
C51 Nd41 2.836 . S
C51 C52 1.498 . S
C51 O66 1.258 . S
C51 O67 1.239 . S
C52 C51 1.498 . S
C52 C53 1.366 . S
C52 C57 1.407 . S
C53 C52 1.366 . S
C53 C54 1.392 . S
C53 H76 0.930 . S
C54 C53 1.392 . S
C54 C55 1.398 . S
C54 H77 0.929 . S
C55 C54 1.398 . S
C55 C56 1.352 . S
C56 C55 1.352 . S
C56 C57 1.384 . S
C56 H78 0.930 . S
C57 C52 1.407 . S
C57 C56 1.384 . S
C57 H79 0.929 . S
C58 O68 1.241 . S
C58 O69 1.273 . S
C59 O70 1.251 . S
C59 O71 1.268 . S
O60 Nd40 2.500 . S
O60 C42 1.258 . S
O61 Nd40 2.492 . S
O61 C42 1.239 . S
O62 Nd40 2.487 . S
O62 C49 1.241 . S
O63 Nd40 2.682 . S
O63 Nd41 2.414 . S
O63 C49 1.273 . S
O64 Nd40 2.410 . S
O64 C50 1.251 . S
O65 Nd41 2.424 . S
O65 C50 1.268 . S
O66 Nd41 2.500 . S
O66 C51 1.258 . S
O67 Nd41 2.492 . S
O67 C51 1.239 . S
O68 Nd41 2.487 . S
O68 C58 1.241 . S
O69 Nd40 2.414 . S
O69 Nd41 2.682 . S
O69 C58 1.273 . S
O70 Nd41 2.410 . S
O70 C59 1.251 . S
O71 Nd40 2.424 . S
O71 C59 1.268 . S
H72 C44 0.930 . S
H73 C45 0.929 . S
H74 C47 0.930 . S
H75 C48 0.929 . S
H76 C53 0.930 . S
H77 C54 0.929 . S
H78 C56 0.930 . S
H79 C57 0.929 . S
Nd80 C82 2.836 . S
Nd80 O100 2.500 . S
Nd80 O101 2.492 . S
Nd80 O102 2.487 . S
Nd80 O103 2.682 . S
Nd80 O104 2.410 . S
Nd80 O109 2.414 . S
Nd80 O111 2.424 . S
Nd81 C91 2.836 . S
Nd81 O103 2.414 . S
Nd81 O105 2.424 . S
Nd81 O106 2.500 . S
Nd81 O107 2.492 . S
Nd81 O108 2.487 . S
Nd81 O109 2.682 . S
Nd81 O110 2.410 . S
C82 Nd80 2.836 . S
C82 C83 1.498 . S
C82 O100 1.258 . S
C82 O101 1.239 . S
C83 C82 1.498 . S
C83 C84 1.366 . S
C83 C88 1.407 . S
C84 C83 1.366 . S
C84 C85 1.392 . S
C84 H112 0.930 . S
C85 C84 1.392 . S
C85 C86 1.398 . S
C85 H113 0.929 . S
C86 C85 1.398 . S
C86 C87 1.352 . S
C87 C86 1.352 . S
C87 C88 1.384 . S
C87 H114 0.930 . S
C88 C83 1.407 . S
C88 C87 1.384 . S
C88 H115 0.929 . S
C89 O102 1.241 . S
C89 O103 1.273 . S
C90 O104 1.251 . S
C90 O105 1.268 . S
C91 Nd81 2.836 . S
C91 C92 1.498 . S
C91 O106 1.258 . S
C91 O107 1.239 . S
C92 C91 1.498 . S
C92 C93 1.366 . S
C92 C97 1.407 . S
C93 C92 1.366 . S
C93 C94 1.392 . S
C93 H116 0.930 . S
C94 C93 1.392 . S
C94 C95 1.398 . S
C94 H117 0.929 . S
C95 C94 1.398 . S
C95 C96 1.352 . S
C96 C95 1.352 . S
C96 C97 1.384 . S
C96 H118 0.925 . S
C97 C92 1.407 . S
C97 C96 1.384 . S
C97 H119 0.929 . S
C98 O108 1.241 . S
C98 O109 1.273 . S
C99 O110 1.251 . S
C99 O111 1.268 . S
O100 Nd80 2.500 . S
O100 C82 1.258 . S
O101 Nd80 2.492 . S
O101 C82 1.239 . S
O102 Nd80 2.487 . S
O102 C89 1.241 . S
O103 Nd80 2.682 . S
O103 Nd81 2.414 . S
O103 C89 1.273 . S
O104 Nd80 2.410 . S
O104 C90 1.251 . S
O105 Nd81 2.424 . S
O105 C90 1.268 . S
O106 Nd81 2.500 . S
O106 C91 1.258 . S
O107 Nd81 2.492 . S
O107 C91 1.239 . S
O108 Nd81 2.487 . S
O108 C98 1.241 . S
O109 Nd80 2.414 . S
O109 Nd81 2.682 . S
O109 C98 1.273 . S
O110 Nd81 2.410 . S
O110 C99 1.251 . S
O111 Nd80 2.424 . S
O111 C99 1.268 . S
H112 C84 0.930 . S
H113 C85 0.929 . S
H114 C87 0.930 . S
H115 C88 0.929 . S
H116 C93 0.930 . S
H117 C94 0.929 . S
H118 C96 0.925 . S
H119 C97 0.929 . S
Nd120 C122 2.836 . S
Nd120 O140 2.500 . S
Nd120 O141 2.492 . S
Nd120 O142 2.487 . S
Nd120 O143 2.682 . S
Nd120 O144 2.410 . S
Nd120 O149 2.414 . S
Nd120 O151 2.424 . S
Nd121 C131 2.836 . S
Nd121 O143 2.414 . S
Nd121 O145 2.424 . S
Nd121 O146 2.500 . S
Nd121 O147 2.492 . S
Nd121 O148 2.487 . S
Nd121 O149 2.682 . S
Nd121 O150 2.410 . S
C122 Nd120 2.836 . S
C122 C123 1.498 1_554 S
C122 O140 1.258 . S
C122 O141 1.239 . S
C123 C122 1.498 1_556 S
C123 C124 1.366 . S
C123 C128 1.407 . S
C124 C123 1.366 . S
C124 C125 1.392 . S
C124 H152 0.930 . S
C125 C124 1.392 . S
C125 C126 1.398 . S
C125 H153 0.929 . S
C126 C125 1.398 . S
C126 C127 1.352 . S
C127 C126 1.352 . S
C127 C128 1.384 . S
C127 H154 0.930 . S
C128 C123 1.407 . S
C128 C127 1.384 . S
C128 H155 0.929 . S
C129 O142 1.241 . S
C129 O143 1.273 . S
C130 O144 1.251 . S
C130 O145 1.268 . S
C131 Nd121 2.836 . S
C131 C132 1.498 . S
C131 O146 1.258 . S
C131 O147 1.239 . S
C132 C131 1.498 . S
C132 C133 1.366 . S
C132 C137 1.407 . S
C133 C132 1.366 . S
C133 C134 1.392 . S
C133 H156 0.930 . S
C134 C133 1.392 . S
C134 C135 1.398 . S
C134 H157 0.929 . S
C135 C134 1.398 . S
C135 C136 1.352 . S
C136 C135 1.352 . S
C136 C137 1.384 . S
C136 H158 0.930 . S
C137 C132 1.407 . S
C137 C136 1.384 . S
C137 H159 0.929 . S
C138 O148 1.241 . S
C138 O149 1.273 . S
C139 O150 1.251 . S
C139 O151 1.268 . S
O140 Nd120 2.500 . S
O140 C122 1.258 . S
O141 Nd120 2.492 . S
O141 C122 1.239 . S
O142 Nd120 2.487 . S
O142 C129 1.241 . S
O143 Nd120 2.682 . S
O143 Nd121 2.414 . S
O143 C129 1.273 . S
O144 Nd120 2.410 . S
O144 C130 1.251 . S
O145 Nd121 2.424 . S
O145 C130 1.268 . S
O146 Nd121 2.500 . S
O146 C131 1.258 . S
O147 Nd121 2.492 . S
O147 C131 1.239 . S
O148 Nd121 2.487 . S
O148 C138 1.241 . S
O149 Nd120 2.414 . S
O149 Nd121 2.682 . S
O149 C138 1.273 . S
O150 Nd121 2.410 . S
O150 C139 1.251 . S
O151 Nd120 2.424 . S
O151 C139 1.268 . S
H152 C124 0.930 . S
H153 C125 0.929 . S
H154 C127 0.930 . S
H155 C128 0.929 . S
H156 C133 0.930 . S
H157 C134 0.929 . S
H158 C136 0.930 . S
H159 C137 0.929 . S
Nd160 C162 2.836 . S
Nd160 O180 2.500 . S
Nd160 O181 2.492 . S
Nd160 O182 2.487 . S
Nd160 O183 2.682 . S
Nd160 O184 2.410 . S
Nd160 O189 2.414 . S
Nd160 O191 2.424 . S
Nd161 C171 2.836 . S
Nd161 O183 2.414 . S
Nd161 O185 2.424 . S
Nd161 O186 2.500 . S
Nd161 O187 2.492 . S
Nd161 O188 2.487 . S
Nd161 O189 2.682 . S
Nd161 O190 2.410 . S
C162 Nd160 2.836 . S
C162 C163 1.498 . S
C162 O180 1.258 . S
C162 O181 1.239 . S
C163 C162 1.498 . S
C163 C164 1.366 . S
C163 C168 1.407 . S
C164 C163 1.366 . S
C164 C165 1.392 . S
C164 H192 0.930 . S
C165 C164 1.392 . S
C165 C166 1.398 . S
C165 H193 0.929 . S
C166 C165 1.398 . S
C166 C167 1.352 . S
C167 C166 1.352 . S
C167 C168 1.384 . S
C167 H194 0.930 . S
C168 C163 1.407 . S
C168 C167 1.384 . S
C168 H195 0.929 . S
C169 O182 1.241 . S
C169 O183 1.273 . S
C170 O184 1.251 . S
C170 O185 1.268 . S
C171 Nd161 2.836 . S
C171 C172 1.498 . S
C171 O186 1.258 . S
C171 O187 1.239 . S
C172 C171 1.498 . S
C172 C173 1.366 . S
C172 C177 1.407 . S
C173 C172 1.366 . S
C173 C174 1.392 . S
C173 H196 0.930 . S
C174 C173 1.392 . S
C174 C175 1.398 . S
C174 H197 0.929 . S
C175 C174 1.398 . S
C175 C176 1.352 . S
C176 C175 1.352 . S
C176 C177 1.384 . S
C176 H198 0.925 . S
C177 C172 1.407 . S
C177 C176 1.384 . S
C177 H199 0.929 . S
C178 O188 1.241 . S
C178 O189 1.273 . S
C179 O190 1.251 . S
C179 O191 1.268 . S
O180 Nd160 2.500 . S
O180 C162 1.258 . S
O181 Nd160 2.492 . S
O181 C162 1.239 . S
O182 Nd160 2.487 . S
O182 C169 1.241 . S
O183 Nd160 2.682 . S
O183 Nd161 2.414 . S
O183 C169 1.273 . S
O184 Nd160 2.410 . S
O184 C170 1.251 . S
O185 Nd161 2.424 . S
O185 C170 1.268 . S
O186 Nd161 2.500 . S
O186 C171 1.258 . S
O187 Nd161 2.492 . S
O187 C171 1.239 . S
O188 Nd161 2.487 . S
O188 C178 1.241 . S
O189 Nd160 2.414 . S
O189 Nd161 2.682 . S
O189 C178 1.273 . S
O190 Nd161 2.410 . S
O190 C179 1.251 . S
O191 Nd160 2.424 . S
O191 C179 1.268 . S
H192 C164 0.930 . S
H193 C165 0.929 . S
H194 C167 0.930 . S
H195 C168 0.929 . S
H196 C173 0.930 . S
H197 C174 0.929 . S
H198 C176 0.925 . S
H199 C177 0.929 . S
Nd200 C202 2.836 . S
Nd200 O220 2.500 . S
Nd200 O221 2.492 . S
Nd200 O222 2.487 . S
Nd200 O223 2.682 . S
Nd200 O224 2.410 . S
Nd200 O229 2.414 . S
Nd200 O231 2.424 . S
Nd201 C211 2.836 . S
Nd201 O223 2.414 . S
Nd201 O225 2.424 . S
Nd201 O226 2.500 . S
Nd201 O227 2.492 . S
Nd201 O228 2.487 . S
Nd201 O229 2.682 . S
Nd201 O230 2.410 . S
C202 Nd200 2.836 . S
C202 C203 1.498 . S
C202 O220 1.258 . S
C202 O221 1.239 . S
C203 C202 1.498 . S
C203 C204 1.366 . S
C203 C208 1.407 . S
C204 C203 1.366 . S
C204 C205 1.392 . S
C204 H232 0.930 . S
C205 C204 1.392 . S
C205 C206 1.398 . S
C205 H233 0.929 . S
C206 C205 1.398 . S
C206 C207 1.352 . S
C207 C206 1.352 . S
C207 C208 1.384 . S
C207 H234 0.930 . S
C208 C203 1.407 . S
C208 C207 1.384 . S
C208 H235 0.929 . S
C209 O222 1.241 . S
C209 O223 1.273 . S
C210 O224 1.251 . S
C210 O225 1.268 . S
C211 Nd201 2.836 . S
C211 C212 1.498 . S
C211 O226 1.258 . S
C211 O227 1.239 . S
C212 C211 1.498 . S
C212 C213 1.366 . S
C212 C217 1.407 . S
C213 C212 1.366 . S
C213 C214 1.392 . S
C213 H236 0.930 . S
C214 C213 1.392 . S
C214 C215 1.398 . S
C214 H237 0.929 . S
C215 C214 1.398 . S
C215 C216 1.352 . S
C216 C215 1.352 . S
C216 C217 1.384 . S
C216 H238 0.930 . S
C217 C212 1.407 . S
C217 C216 1.384 . S
C217 H239 0.929 . S
C218 O228 1.241 . S
C218 O229 1.273 . S
C219 O230 1.251 . S
C219 O231 1.268 . S
O220 Nd200 2.500 . S
O220 C202 1.258 . S
O221 Nd200 2.492 . S
O221 C202 1.239 . S
O222 Nd200 2.487 . S
O222 C209 1.241 . S
O223 Nd200 2.682 . S
O223 Nd201 2.414 . S
O223 C209 1.273 . S
O224 Nd200 2.410 . S
O224 C210 1.251 . S
O225 Nd201 2.424 . S
O225 C210 1.268 . S
O226 Nd201 2.500 . S
O226 C211 1.258 . S
O227 Nd201 2.492 . S
O227 C211 1.239 . S
O228 Nd201 2.487 . S
O228 C218 1.241 . S
O229 Nd200 2.414 . S
O229 Nd201 2.682 . S
O229 C218 1.273 . S
O230 Nd201 2.410 . S
O230 C219 1.251 . S
O231 Nd200 2.424 . S
O231 C219 1.268 . S
H232 C204 0.930 . S
H233 C205 0.929 . S
H234 C207 0.930 . S
H235 C208 0.929 . S
H236 C213 0.930 . S
H237 C214 0.929 . S
H238 C216 0.930 . S
H239 C217 0.929 . S
Nd240 C242 2.836 . S
Nd240 O260 2.500 . S
Nd240 O261 2.492 . S
Nd240 O262 2.487 . S
Nd240 O263 2.682 . S
Nd240 O264 2.410 . S
Nd240 O269 2.414 . S
Nd240 O271 2.424 . S
Nd241 C251 2.836 . S
Nd241 O263 2.414 . S
Nd241 O265 2.424 . S
Nd241 O266 2.500 . S
Nd241 O267 2.492 . S
Nd241 O268 2.487 . S
Nd241 O269 2.682 . S
Nd241 O270 2.410 . S
C242 Nd240 2.836 . S
C242 C243 1.498 . S
C242 O260 1.258 . S
C242 O261 1.239 . S
C243 C242 1.498 . S
C243 C244 1.366 . S
C243 C248 1.407 . S
C244 C243 1.366 . S
C244 C245 1.392 . S
C244 H272 0.930 . S
C245 C244 1.392 . S
C245 C246 1.398 . S
C245 H273 0.929 . S
C246 C245 1.398 . S
C246 C247 1.352 . S
C247 C246 1.352 . S
C247 C248 1.384 . S
C247 H274 0.930 . S
C248 C243 1.407 . S
C248 C247 1.384 . S
C248 H275 0.929 . S
C249 O262 1.241 . S
C249 O263 1.273 . S
C250 O264 1.251 . S
C250 O265 1.268 . S
C251 Nd241 2.836 . S
C251 C252 1.498 . S
C251 O266 1.258 . S
C251 O267 1.239 . S
C252 C251 1.498 . S
C252 C253 1.366 . S
C252 C257 1.407 . S
C253 C252 1.366 . S
C253 C254 1.392 . S
C253 H276 0.930 . S
C254 C253 1.392 . S
C254 C255 1.398 . S
C254 H277 0.929 . S
C255 C254 1.398 . S
C255 C256 1.352 . S
C256 C255 1.352 . S
C256 C257 1.384 . S
C256 H278 0.934 1_545 S
C257 C252 1.407 . S
C257 C256 1.384 . S
C257 H279 0.929 . S
C258 O268 1.241 . S
C258 O269 1.273 . S
C259 O270 1.251 . S
C259 O271 1.268 . S
O260 Nd240 2.500 . S
O260 C242 1.258 . S
O261 Nd240 2.492 . S
O261 C242 1.239 . S
O262 Nd240 2.487 . S
O262 C249 1.241 . S
O263 Nd240 2.682 . S
O263 Nd241 2.414 . S
O263 C249 1.273 . S
O264 Nd240 2.410 . S
O264 C250 1.251 . S
O265 Nd241 2.424 . S
O265 C250 1.268 . S
O266 Nd241 2.500 . S
O266 C251 1.258 . S
O267 Nd241 2.492 . S
O267 C251 1.239 . S
O268 Nd241 2.487 . S
O268 C258 1.241 . S
O269 Nd240 2.414 . S
O269 Nd241 2.682 . S
O269 C258 1.273 . S
O270 Nd241 2.410 . S
O270 C259 1.251 . S
O271 Nd240 2.424 . S
O271 C259 1.268 . S
H272 C244 0.930 . S
H273 C245 0.929 . S
H274 C247 0.930 . S
H275 C248 0.929 . S
H276 C253 0.930 . S
H277 C254 0.929 . S
H278 C256 0.934 1_565 S
H279 C257 0.929 . S
Nd280 C282 2.836 . S
Nd280 O300 2.500 . S
Nd280 O301 2.492 . S
Nd280 O302 2.487 . S
Nd280 O303 2.682 . S
Nd280 O304 2.410 . S
Nd280 O309 2.414 . S
Nd280 O311 2.424 . S
Nd281 C291 2.836 . S
Nd281 O303 2.414 . S
Nd281 O305 2.424 . S
Nd281 O306 2.500 . S
Nd281 O307 2.492 . S
Nd281 O308 2.487 . S
Nd281 O309 2.682 . S
Nd281 O310 2.410 . S
C282 Nd280 2.836 . S
C282 C283 1.498 1_556 S
C282 O300 1.258 . S
C282 O301 1.239 . S
C283 C282 1.498 1_554 S
C283 C284 1.366 . S
C283 C288 1.407 . S
C284 C283 1.366 . S
C284 C285 1.392 . S
C284 H312 0.930 . S
C285 C284 1.392 . S
C285 C286 1.398 . S
C285 H313 0.929 . S
C286 C285 1.398 . S
C286 C287 1.352 . S
C287 C286 1.352 . S
C287 C288 1.384 . S
C287 H314 0.930 . S
C288 C283 1.407 . S
C288 C287 1.384 . S
C288 H315 0.929 . S
C289 O302 1.241 . S
C289 O303 1.273 . S
C290 O304 1.251 . S
C290 O305 1.268 . S
C291 Nd281 2.836 . S
C291 C292 1.498 . S
C291 O306 1.258 . S
C291 O307 1.239 . S
C292 C291 1.498 . S
C292 C293 1.366 . S
C292 C297 1.407 . S
C293 C292 1.366 . S
C293 C294 1.392 . S
C293 H316 0.930 . S
C294 C293 1.392 . S
C294 C295 1.398 . S
C294 H317 0.929 . S
C295 C294 1.398 . S
C295 C296 1.352 . S
C296 C295 1.352 . S
C296 C297 1.384 . S
C296 H318 0.930 . S
C297 C292 1.407 . S
C297 C296 1.384 . S
C297 H319 0.929 . S
C298 O308 1.241 . S
C298 O309 1.273 . S
C299 O310 1.251 . S
C299 O311 1.268 . S
O300 Nd280 2.500 . S
O300 C282 1.258 . S
O301 Nd280 2.492 . S
O301 C282 1.239 . S
O302 Nd280 2.487 . S
O302 C289 1.241 . S
O303 Nd280 2.682 . S
O303 Nd281 2.414 . S
O303 C289 1.273 . S
O304 Nd280 2.410 . S
O304 C290 1.251 . S
O305 Nd281 2.424 . S
O305 C290 1.268 . S
O306 Nd281 2.500 . S
O306 C291 1.258 . S
O307 Nd281 2.492 . S
O307 C291 1.239 . S
O308 Nd281 2.487 . S
O308 C298 1.241 . S
O309 Nd280 2.414 . S
O309 Nd281 2.682 . S
O309 C298 1.273 . S
O310 Nd281 2.410 . S
O310 C299 1.251 . S
O311 Nd280 2.424 . S
O311 C299 1.268 . S
H312 C284 0.930 . S
H313 C285 0.929 . S
H314 C287 0.930 . S
H315 C288 0.929 . S
H316 C293 0.930 . S
H317 C294 0.929 . S
H318 C296 0.930 . S
H319 C297 0.929 . S
Nd320 C322 2.836 . S
Nd320 O340 2.500 . S
Nd320 O341 2.492 . S
Nd320 O342 2.487 . S
Nd320 O343 2.682 . S
Nd320 O344 2.410 . S
Nd320 O349 2.414 . S
Nd320 O351 2.424 . S
Nd321 C331 2.836 . S
Nd321 O343 2.414 . S
Nd321 O345 2.424 . S
Nd321 O346 2.500 . S
Nd321 O347 2.492 . S
Nd321 O348 2.487 . S
Nd321 O349 2.682 . S
Nd321 O350 2.410 . S
C322 Nd320 2.836 . S
C322 C323 1.498 . S
C322 O340 1.258 . S
C322 O341 1.239 . S
C323 C322 1.498 . S
C323 C324 1.366 . S
C323 C328 1.407 . S
C324 C323 1.366 . S
C324 C325 1.392 . S
C324 H352 0.930 . S
C325 C324 1.392 . S
C325 C326 1.398 . S
C325 H353 0.929 . S
C326 C325 1.398 . S
C326 C327 1.352 . S
C327 C326 1.352 . S
C327 C328 1.384 . S
C327 H354 0.934 1_565 S
C328 C323 1.407 . S
C328 C327 1.384 . S
C328 H355 0.929 . S
C329 O342 1.241 . S
C329 O343 1.273 . S
C330 O344 1.251 . S
C330 O345 1.268 . S
C331 Nd321 2.836 . S
C331 C332 1.498 . S
C331 O346 1.258 . S
C331 O347 1.239 . S
C332 C331 1.498 . S
C332 C333 1.366 . S
C332 C337 1.407 . S
C333 C332 1.366 . S
C333 C334 1.392 . S
C333 H356 0.930 . S
C334 C333 1.392 . S
C334 C335 1.398 . S
C334 H357 0.929 . S
C335 C334 1.398 . S
C335 C336 1.352 . S
C336 C335 1.352 . S
C336 C337 1.384 . S
C336 H358 0.930 . S
C337 C332 1.407 . S
C337 C336 1.384 . S
C337 H359 0.929 . S
C338 O348 1.241 . S
C338 O349 1.273 . S
C339 O350 1.251 . S
C339 O351 1.268 . S
O340 Nd320 2.500 . S
O340 C322 1.258 . S
O341 Nd320 2.492 . S
O341 C322 1.239 . S
O342 Nd320 2.487 . S
O342 C329 1.241 . S
O343 Nd320 2.682 . S
O343 Nd321 2.414 . S
O343 C329 1.273 . S
O344 Nd320 2.410 . S
O344 C330 1.251 . S
O345 Nd321 2.424 . S
O345 C330 1.268 . S
O346 Nd321 2.500 . S
O346 C331 1.258 . S
O347 Nd321 2.492 . S
O347 C331 1.239 . S
O348 Nd321 2.487 . S
O348 C338 1.241 . S
O349 Nd320 2.414 . S
O349 Nd321 2.682 . S
O349 C338 1.273 . S
O350 Nd321 2.410 . S
O350 C339 1.251 . S
O351 Nd320 2.424 . S
O351 C339 1.268 . S
H352 C324 0.930 . S
H353 C325 0.929 . S
H354 C327 0.934 1_545 S
H355 C328 0.929 . S
H356 C333 0.930 . S
H357 C334 0.929 . S
H358 C336 0.930 . S
H359 C337 0.929 . S
Nd360 C362 2.836 . S
Nd360 O380 2.500 . S
Nd360 O381 2.492 . S
Nd360 O382 2.487 . S
Nd360 O383 2.682 . S
Nd360 O384 2.410 . S
Nd360 O389 2.414 . S
Nd360 O391 2.424 . S
Nd361 C371 2.836 . S
Nd361 O383 2.414 . S
Nd361 O385 2.424 . S
Nd361 O386 2.500 . S
Nd361 O387 2.492 . S
Nd361 O388 2.487 . S
Nd361 O389 2.682 . S
Nd361 O390 2.410 . S
C362 Nd360 2.836 . S
C362 C363 1.498 . S
C362 O380 1.258 . S
C362 O381 1.239 . S
C363 C362 1.498 . S
C363 C364 1.366 . S
C363 C368 1.407 . S
C364 C363 1.366 . S
C364 C365 1.392 . S
C364 H392 0.930 . S
C365 C364 1.392 . S
C365 C366 1.398 . S
C365 H393 0.929 . S
C366 C365 1.398 . S
C366 C367 1.352 . S
C367 C366 1.352 . S
C367 C368 1.384 . S
C367 H394 0.930 . S
C368 C363 1.407 . S
C368 C367 1.384 . S
C368 H395 0.929 . S
C369 O382 1.241 . S
C369 O383 1.273 . S
C370 O384 1.251 . S
C370 O385 1.268 . S
C371 Nd361 2.836 . S
C371 C372 1.498 . S
C371 O386 1.258 . S
C371 O387 1.239 . S
C372 C371 1.498 . S
C372 C373 1.366 . S
C372 C377 1.407 . S
C373 C372 1.366 . S
C373 C374 1.392 . S
C373 H396 0.930 . S
C374 C373 1.392 . S
C374 C375 1.398 . S
C374 H397 0.929 . S
C375 C374 1.398 . S
C375 C376 1.352 . S
C376 C375 1.352 . S
C376 C377 1.384 . S
C376 H398 0.930 . S
C377 C372 1.407 . S
C377 C376 1.384 . S
C377 H399 0.929 . S
C378 O388 1.241 . S
C378 O389 1.273 . S
C379 O390 1.251 . S
C379 O391 1.268 . S
O380 Nd360 2.500 . S
O380 C362 1.258 . S
O381 Nd360 2.492 . S
O381 C362 1.239 . S
O382 Nd360 2.487 . S
O382 C369 1.241 . S
O383 Nd360 2.682 . S
O383 Nd361 2.414 . S
O383 C369 1.273 . S
O384 Nd360 2.410 . S
O384 C370 1.251 . S
O385 Nd361 2.424 . S
O385 C370 1.268 . S
O386 Nd361 2.500 . S
O386 C371 1.258 . S
O387 Nd361 2.492 . S
O387 C371 1.239 . S
O388 Nd361 2.487 . S
O388 C378 1.241 . S
O389 Nd360 2.414 . S
O389 Nd361 2.682 . S
O389 C378 1.273 . S
O390 Nd361 2.410 . S
O390 C379 1.251 . S
O391 Nd360 2.424 . S
O391 C379 1.268 . S
H392 C364 0.930 . S
H393 C365 0.929 . S
H394 C367 0.930 . S
H395 C368 0.929 . S
H396 C373 0.930 . S
H397 C374 0.929 . S
H398 C376 0.930 . S
H399 C377 0.929 . S
Nd400 C402 2.836 . S
Nd400 O420 2.500 . S
Nd400 O421 2.492 . S
Nd400 O422 2.487 . S
Nd400 O423 2.682 . S
Nd400 O424 2.410 . S
Nd400 O429 2.414 . S
Nd400 O431 2.424 . S
Nd401 C411 2.836 . S
Nd401 O423 2.414 . S
Nd401 O425 2.424 . S
Nd401 O426 2.500 . S
Nd401 O427 2.492 . S
Nd401 O428 2.487 . S
Nd401 O429 2.682 . S
Nd401 O430 2.410 . S
C402 Nd400 2.836 . S
C402 C403 1.498 . S
C402 O420 1.258 . S
C402 O421 1.239 . S
C403 C402 1.498 . S
C403 C404 1.366 . S
C403 C408 1.407 . S
C404 C403 1.366 . S
C404 C405 1.392 . S
C404 H432 0.930 . S
C405 C404 1.392 . S
C405 C406 1.398 . S
C405 H433 0.929 . S
C406 C405 1.398 . S
C406 C407 1.352 . S
C407 C406 1.352 . S
C407 C408 1.384 . S
C407 H434 0.925 . S
C408 C403 1.407 . S
C408 C407 1.384 . S
C408 H435 0.929 . S
C409 O422 1.241 . S
C409 O423 1.273 . S
C410 O424 1.251 . S
C410 O425 1.268 . S
C411 Nd401 2.836 . S
C411 C412 1.498 . S
C411 O426 1.258 . S
C411 O427 1.239 . S
C412 C411 1.498 . S
C412 C413 1.366 . S
C412 C417 1.407 . S
C413 C412 1.366 . S
C413 C414 1.392 . S
C413 H436 0.930 . S
C414 C413 1.392 . S
C414 C415 1.398 . S
C414 H437 0.929 . S
C415 C414 1.398 . S
C415 C416 1.352 . S
C416 C415 1.352 . S
C416 C417 1.384 . S
C416 H438 0.930 . S
C417 C412 1.407 . S
C417 C416 1.384 . S
C417 H439 0.929 . S
C418 O428 1.241 . S
C418 O429 1.273 . S
C419 O430 1.251 . S
C419 O431 1.268 . S
O420 Nd400 2.500 . S
O420 C402 1.258 . S
O421 Nd400 2.492 . S
O421 C402 1.239 . S
O422 Nd400 2.487 . S
O422 C409 1.241 . S
O423 Nd400 2.682 . S
O423 Nd401 2.414 . S
O423 C409 1.273 . S
O424 Nd400 2.410 . S
O424 C410 1.251 . S
O425 Nd401 2.424 . S
O425 C410 1.268 . S
O426 Nd401 2.500 . S
O426 C411 1.258 . S
O427 Nd401 2.492 . S
O427 C411 1.239 . S
O428 Nd401 2.487 . S
O428 C418 1.241 . S
O429 Nd400 2.414 . S
O429 Nd401 2.682 . S
O429 C418 1.273 . S
O430 Nd401 2.410 . S
O430 C419 1.251 . S
O431 Nd400 2.424 . S
O431 C419 1.268 . S
H432 C404 0.930 . S
H433 C405 0.929 . S
H434 C407 0.925 . S
H435 C408 0.929 . S
H436 C413 0.930 . S
H437 C414 0.929 . S
H438 C416 0.930 . S
H439 C417 0.929 . S
Nd440 C442 2.836 . S
Nd440 O460 2.500 . S
Nd440 O461 2.492 . S
Nd440 O462 2.487 . S
Nd440 O463 2.682 . S
Nd440 O464 2.410 . S
Nd440 O469 2.414 . S
Nd440 O471 2.424 . S
Nd441 C451 2.836 . S
Nd441 O463 2.414 . S
Nd441 O465 2.424 . S
Nd441 O466 2.500 . S
Nd441 O467 2.492 . S
Nd441 O468 2.487 . S
Nd441 O469 2.682 . S
Nd441 O470 2.410 . S
C442 Nd440 2.836 . S
C442 C443 1.498 . S
C442 O460 1.258 . S
C442 O461 1.239 . S
C443 C442 1.498 . S
C443 C444 1.366 . S
C443 C448 1.407 . S
C444 C443 1.366 . S
C444 C445 1.392 . S
C444 H472 0.930 . S
C445 C444 1.392 . S
C445 C446 1.398 . S
C445 H473 0.929 . S
C446 C445 1.398 . S
C446 C447 1.352 . S
C447 C446 1.352 . S
C447 C448 1.384 . S
C447 H474 0.930 . S
C448 C443 1.407 . S
C448 C447 1.384 . S
C448 H475 0.929 . S
C449 O462 1.241 . S
C449 O463 1.273 . S
C450 O464 1.251 . S
C450 O465 1.268 . S
C451 Nd441 2.836 . S
C451 C452 1.498 1_556 S
C451 O466 1.258 . S
C451 O467 1.239 . S
C452 C451 1.498 1_554 S
C452 C453 1.366 . S
C452 C457 1.407 . S
C453 C452 1.366 . S
C453 C454 1.392 . S
C453 H476 0.930 . S
C454 C453 1.392 . S
C454 C455 1.398 . S
C454 H477 0.929 . S
C455 C454 1.398 . S
C455 C456 1.352 . S
C456 C455 1.352 . S
C456 C457 1.384 . S
C456 H478 0.930 . S
C457 C452 1.407 . S
C457 C456 1.384 . S
C457 H479 0.929 . S
C458 O468 1.241 . S
C458 O469 1.273 . S
C459 O470 1.251 . S
C459 O471 1.268 . S
O460 Nd440 2.500 . S
O460 C442 1.258 . S
O461 Nd440 2.492 . S
O461 C442 1.239 . S
O462 Nd440 2.487 . S
O462 C449 1.241 . S
O463 Nd440 2.682 . S
O463 Nd441 2.414 . S
O463 C449 1.273 . S
O464 Nd440 2.410 . S
O464 C450 1.251 . S
O465 Nd441 2.424 . S
O465 C450 1.268 . S
O466 Nd441 2.500 . S
O466 C451 1.258 . S
O467 Nd441 2.492 . S
O467 C451 1.239 . S
O468 Nd441 2.487 . S
O468 C458 1.241 . S
O469 Nd440 2.414 . S
O469 Nd441 2.682 . S
O469 C458 1.273 . S
O470 Nd441 2.410 . S
O470 C459 1.251 . S
O471 Nd440 2.424 . S
O471 C459 1.268 . S
H472 C444 0.930 . S
H473 C445 0.929 . S
H474 C447 0.930 . S
H475 C448 0.929 . S
H476 C453 0.930 . S
H477 C454 0.929 . S
H478 C456 0.930 . S
H479 C457 0.929 . S
Nd480 C482 2.836 . S
Nd480 O500 2.500 . S
Nd480 O501 2.492 . S
Nd480 O502 2.487 . S
Nd480 O503 2.682 . S
Nd480 O504 2.410 . S
Nd480 O509 2.414 . S
Nd480 O511 2.424 . S
Nd481 C491 2.836 . S
Nd481 O503 2.414 . S
Nd481 O505 2.424 . S
Nd481 O506 2.500 . S
Nd481 O507 2.492 . S
Nd481 O508 2.487 . S
Nd481 O509 2.682 . S
Nd481 O510 2.410 . S
C482 Nd480 2.836 . S
C482 C483 1.498 . S
C482 O500 1.258 . S
C482 O501 1.239 . S
C483 C482 1.498 . S
C483 C484 1.366 . S
C483 C488 1.407 . S
C484 C483 1.366 . S
C484 C485 1.392 . S
C484 H512 0.930 . S
C485 C484 1.392 . S
C485 C486 1.398 . S
C485 H513 0.929 . S
C486 C485 1.398 . S
C486 C487 1.352 . S
C487 C486 1.352 . S
C487 C488 1.384 . S
C487 H514 0.935 1_545 S
C488 C483 1.407 . S
C488 C487 1.384 . S
C488 H515 0.929 . S
C489 O502 1.241 . S
C489 O503 1.273 . S
C490 O504 1.251 . S
C490 O505 1.268 . S
C491 Nd481 2.836 . S
C491 C492 1.498 . S
C491 O506 1.258 . S
C491 O507 1.239 . S
C492 C491 1.498 . S
C492 C493 1.366 . S
C492 C497 1.407 . S
C493 C492 1.366 . S
C493 C494 1.392 . S
C493 H516 0.930 . S
C494 C493 1.392 . S
C494 C495 1.398 . S
C494 H517 0.929 . S
C495 C494 1.398 . S
C495 C496 1.352 . S
C496 C495 1.352 . S
C496 C497 1.384 . S
C496 H518 0.930 . S
C497 C492 1.407 . S
C497 C496 1.384 . S
C497 H519 0.929 . S
C498 O508 1.241 . S
C498 O509 1.273 . S
C499 O510 1.251 . S
C499 O511 1.268 . S
O500 Nd480 2.500 . S
O500 C482 1.258 . S
O501 Nd480 2.492 . S
O501 C482 1.239 . S
O502 Nd480 2.487 . S
O502 C489 1.241 . S
O503 Nd480 2.682 . S
O503 Nd481 2.414 . S
O503 C489 1.273 . S
O504 Nd480 2.410 . S
O504 C490 1.251 . S
O505 Nd481 2.424 . S
O505 C490 1.268 . S
O506 Nd481 2.500 . S
O506 C491 1.258 . S
O507 Nd481 2.492 . S
O507 C491 1.239 . S
O508 Nd481 2.487 . S
O508 C498 1.241 . S
O509 Nd480 2.414 . S
O509 Nd481 2.682 . S
O509 C498 1.273 . S
O510 Nd481 2.410 . S
O510 C499 1.251 . S
O511 Nd480 2.424 . S
O511 C499 1.268 . S
H512 C484 0.930 . S
H513 C485 0.929 . S
H514 C487 0.935 1_565 S
H515 C488 0.929 . S
H516 C493 0.930 . S
H517 C494 0.929 . S
H518 C496 0.930 . S
H519 C497 0.929 . S
Nd520 C522 2.836 . S
Nd520 O540 2.500 . S
Nd520 O541 2.492 . S
Nd520 O542 2.487 . S
Nd520 O543 2.682 . S
Nd520 O544 2.410 . S
Nd520 O549 2.414 . S
Nd520 O551 2.424 . S
Nd521 C531 2.836 . S
Nd521 O543 2.414 . S
Nd521 O545 2.424 . S
Nd521 O546 2.500 . S
Nd521 O547 2.492 . S
Nd521 O548 2.487 . S
Nd521 O549 2.682 . S
Nd521 O550 2.410 . S
C522 Nd520 2.836 . S
C522 C523 1.498 . S
C522 O540 1.258 . S
C522 O541 1.239 . S
C523 C522 1.498 . S
C523 C524 1.366 . S
C523 C528 1.407 . S
C524 C523 1.366 . S
C524 C525 1.392 . S
C524 H552 0.930 . S
C525 C524 1.392 . S
C525 C526 1.398 . S
C525 H553 0.929 . S
C526 C525 1.398 . S
C526 C527 1.352 . S
C527 C526 1.352 . S
C527 C528 1.384 . S
C527 H554 0.930 . S
C528 C523 1.407 . S
C528 C527 1.384 . S
C528 H555 0.929 . S
C529 O542 1.241 . S
C529 O543 1.273 . S
C530 O544 1.251 . S
C530 O545 1.268 . S
C531 Nd521 2.836 . S
C531 C532 1.498 . S
C531 O546 1.258 . S
C531 O547 1.239 . S
C532 C531 1.498 . S
C532 C533 1.366 . S
C532 C537 1.407 . S
C533 C532 1.366 . S
C533 C534 1.392 . S
C533 H556 0.930 . S
C534 C533 1.392 . S
C534 C535 1.398 . S
C534 H557 0.929 . S
C535 C534 1.398 . S
C535 C536 1.352 . S
C536 C535 1.352 . S
C536 C537 1.384 . S
C536 H558 0.930 . S
C537 C532 1.407 . S
C537 C536 1.384 . S
C537 H559 0.929 . S
C538 O548 1.241 . S
C538 O549 1.273 . S
C539 O550 1.251 . S
C539 O551 1.268 . S
O540 Nd520 2.500 . S
O540 C522 1.258 . S
O541 Nd520 2.492 . S
O541 C522 1.239 . S
O542 Nd520 2.487 . S
O542 C529 1.241 . S
O543 Nd520 2.682 . S
O543 Nd521 2.414 . S
O543 C529 1.273 . S
O544 Nd520 2.410 . S
O544 C530 1.251 . S
O545 Nd521 2.424 . S
O545 C530 1.268 . S
O546 Nd521 2.500 . S
O546 C531 1.258 . S
O547 Nd521 2.492 . S
O547 C531 1.239 . S
O548 Nd521 2.487 . S
O548 C538 1.241 . S
O549 Nd520 2.414 . S
O549 Nd521 2.682 . S
O549 C538 1.273 . S
O550 Nd521 2.410 . S
O550 C539 1.251 . S
O551 Nd520 2.424 . S
O551 C539 1.268 . S
H552 C524 0.930 . S
H553 C525 0.929 . S
H554 C527 0.930 . S
H555 C528 0.929 . S
H556 C533 0.930 . S
H557 C534 0.929 . S
H558 C536 0.930 . S
H559 C537 0.929 . S
Nd560 C562 2.836 . S
Nd560 O580 2.500 . S
Nd560 O581 2.492 . S
Nd560 O582 2.487 . S
Nd560 O583 2.682 . S
Nd560 O584 2.410 . S
Nd560 O589 2.414 . S
Nd560 O591 2.424 . S
Nd561 C571 2.836 . S
Nd561 O583 2.414 . S
Nd561 O585 2.424 . S
Nd561 O586 2.500 . S
Nd561 O587 2.492 . S
Nd561 O588 2.487 . S
Nd561 O589 2.682 . S
Nd561 O590 2.410 . S
C562 Nd560 2.836 . S
C562 C563 1.498 . S
C562 O580 1.258 . S
C562 O581 1.239 . S
C563 C562 1.498 . S
C563 C564 1.366 . S
C563 C568 1.407 . S
C564 C563 1.366 . S
C564 C565 1.392 . S
C564 H592 0.930 . S
C565 C564 1.392 . S
C565 C566 1.398 . S
C565 H593 0.929 . S
C566 C565 1.398 . S
C566 C567 1.352 . S
C567 C566 1.352 . S
C567 C568 1.384 . S
C567 H594 0.934 1_565 S
C568 C563 1.407 . S
C568 C567 1.384 . S
C568 H595 0.929 . S
C569 O582 1.241 . S
C569 O583 1.273 . S
C570 O584 1.251 . S
C570 O585 1.268 . S
C571 Nd561 2.836 . S
C571 C572 1.498 . S
C571 O586 1.258 . S
C571 O587 1.239 . S
C572 C571 1.498 . S
C572 C573 1.366 . S
C572 C577 1.407 . S
C573 C572 1.366 . S
C573 C574 1.392 . S
C573 H596 0.930 . S
C574 C573 1.392 . S
C574 C575 1.398 . S
C574 H597 0.929 . S
C575 C574 1.398 . S
C575 C576 1.352 . S
C576 C575 1.352 . S
C576 C577 1.384 . S
C576 H598 0.930 . S
C577 C572 1.407 . S
C577 C576 1.384 . S
C577 H599 0.929 . S
C578 O588 1.241 . S
C578 O589 1.273 . S
C579 O590 1.251 . S
C579 O591 1.268 . S
O580 Nd560 2.500 . S
O580 C562 1.258 . S
O581 Nd560 2.492 . S
O581 C562 1.239 . S
O582 Nd560 2.487 . S
O582 C569 1.241 . S
O583 Nd560 2.682 . S
O583 Nd561 2.414 . S
O583 C569 1.273 . S
O584 Nd560 2.410 . S
O584 C570 1.251 . S
O585 Nd561 2.424 . S
O585 C570 1.268 . S
O586 Nd561 2.500 . S
O586 C571 1.258 . S
O587 Nd561 2.492 . S
O587 C571 1.239 . S
O588 Nd561 2.487 . S
O588 C578 1.241 . S
O589 Nd560 2.414 . S
O589 Nd561 2.682 . S
O589 C578 1.273 . S
O590 Nd561 2.410 . S
O590 C579 1.251 . S
O591 Nd560 2.424 . S
O591 C579 1.268 . S
H592 C564 0.930 . S
H593 C565 0.929 . S
H594 C567 0.934 1_545 S
H595 C568 0.929 . S
H596 C573 0.930 . S
H597 C574 0.929 . S
H598 C576 0.930 . S
H599 C577 0.929 . S
Nd600 C602 2.836 . S
Nd600 O620 2.500 . S
Nd600 O621 2.492 . S
Nd600 O622 2.487 . S
Nd600 O623 2.682 . S
Nd600 O624 2.410 . S
Nd600 O629 2.414 . S
Nd600 O631 2.424 . S
Nd601 C611 2.836 . S
Nd601 O623 2.414 . S
Nd601 O625 2.424 . S
Nd601 O626 2.500 . S
Nd601 O627 2.492 . S
Nd601 O628 2.487 . S
Nd601 O629 2.682 . S
Nd601 O630 2.410 . S
C602 Nd600 2.836 . S
C602 C603 1.498 . S
C602 O620 1.258 . S
C602 O621 1.239 . S
C603 C602 1.498 . S
C603 C604 1.366 . S
C603 C608 1.407 . S
C604 C603 1.366 . S
C604 C605 1.392 . S
C604 H632 0.930 . S
C605 C604 1.392 . S
C605 C606 1.398 . S
C605 H633 0.929 . S
C606 C605 1.398 . S
C606 C607 1.352 . S
C607 C606 1.352 . S
C607 C608 1.384 . S
C607 H634 0.930 . S
C608 C603 1.407 . S
C608 C607 1.384 . S
C608 H635 0.929 . S
C609 O622 1.241 . S
C609 O623 1.273 . S
C610 O624 1.251 . S
C610 O625 1.268 . S
C611 Nd601 2.836 . S
C611 C612 1.498 1_554 S
C611 O626 1.258 . S
C611 O627 1.239 . S
C612 C611 1.498 1_556 S
C612 C613 1.366 . S
C612 C617 1.407 . S
C613 C612 1.366 . S
C613 C614 1.392 . S
C613 H636 0.930 . S
C614 C613 1.392 . S
C614 C615 1.398 . S
C614 H637 0.929 . S
C615 C614 1.398 . S
C615 C616 1.352 . S
C616 C615 1.352 . S
C616 C617 1.384 . S
C616 H638 0.930 . S
C617 C612 1.407 . S
C617 C616 1.384 . S
C617 H639 0.929 . S
C618 O628 1.241 . S
C618 O629 1.273 . S
C619 O630 1.251 . S
C619 O631 1.268 . S
O620 Nd600 2.500 . S
O620 C602 1.258 . S
O621 Nd600 2.492 . S
O621 C602 1.239 . S
O622 Nd600 2.487 . S
O622 C609 1.241 . S
O623 Nd600 2.682 . S
O623 Nd601 2.414 . S
O623 C609 1.273 . S
O624 Nd600 2.410 . S
O624 C610 1.251 . S
O625 Nd601 2.424 . S
O625 C610 1.268 . S
O626 Nd601 2.500 . S
O626 C611 1.258 . S
O627 Nd601 2.492 . S
O627 C611 1.239 . S
O628 Nd601 2.487 . S
O628 C618 1.241 . S
O629 Nd600 2.414 . S
O629 Nd601 2.682 . S
O629 C618 1.273 . S
O630 Nd601 2.410 . S
O630 C619 1.251 . S
O631 Nd600 2.424 . S
O631 C619 1.268 . S
H632 C604 0.930 . S
H633 C605 0.929 . S
H634 C607 0.930 . S
H635 C608 0.929 . S
H636 C613 0.930 . S
H637 C614 0.929 . S
H638 C616 0.930 . S
H639 C617 0.929 . S
Nd640 C642 2.836 . S
Nd640 O660 2.500 . S
Nd640 O661 2.492 . S
Nd640 O662 2.487 . S
Nd640 O663 2.682 . S
Nd640 O664 2.410 . S
Nd640 O669 2.414 . S
Nd640 O671 2.424 . S
Nd641 C651 2.836 . S
Nd641 O663 2.414 . S
Nd641 O665 2.424 . S
Nd641 O666 2.500 . S
Nd641 O667 2.492 . S
Nd641 O668 2.487 . S
Nd641 O669 2.682 . S
Nd641 O670 2.410 . S
C642 Nd640 2.836 . S
C642 C643 1.498 . S
C642 O660 1.258 . S
C642 O661 1.239 . S
C643 C642 1.498 . S
C643 C644 1.366 . S
C643 C648 1.407 . S
C644 C643 1.366 . S
C644 C645 1.392 . S
C644 H672 0.930 . S
C645 C644 1.392 . S
C645 C646 1.398 . S
C645 H673 0.929 . S
C646 C645 1.398 . S
C646 C647 1.352 . S
C647 C646 1.352 . S
C647 C648 1.384 . S
C647 H674 0.930 . S
C648 C643 1.407 . S
C648 C647 1.384 . S
C648 H675 0.929 . S
C649 O662 1.241 . S
C649 O663 1.273 . S
C650 O664 1.251 . S
C650 O665 1.268 . S
C651 Nd641 2.836 . S
C651 C652 1.498 . S
C651 O666 1.258 . S
C651 O667 1.239 . S
C652 C651 1.498 . S
C652 C653 1.366 . S
C652 C657 1.407 . S
C653 C652 1.366 . S
C653 C654 1.392 . S
C653 H676 0.930 . S
C654 C653 1.392 . S
C654 C655 1.398 . S
C654 H677 0.929 . S
C655 C654 1.398 . S
C655 C656 1.352 . S
C656 C655 1.352 . S
C656 C657 1.384 . S
C656 H678 0.930 . S
C657 C652 1.407 . S
C657 C656 1.384 . S
C657 H679 0.929 . S
C658 O668 1.241 . S
C658 O669 1.273 . S
C659 O670 1.251 . S
C659 O671 1.268 . S
O660 Nd640 2.500 . S
O660 C642 1.258 . S
O661 Nd640 2.492 . S
O661 C642 1.239 . S
O662 Nd640 2.487 . S
O662 C649 1.241 . S
O663 Nd640 2.682 . S
O663 Nd641 2.414 . S
O663 C649 1.273 . S
O664 Nd640 2.410 . S
O664 C650 1.251 . S
O665 Nd641 2.424 . S
O665 C650 1.268 . S
O666 Nd641 2.500 . S
O666 C651 1.258 . S
O667 Nd641 2.492 . S
O667 C651 1.239 . S
O668 Nd641 2.487 . S
O668 C658 1.241 . S
O669 Nd640 2.414 . S
O669 Nd641 2.682 . S
O669 C658 1.273 . S
O670 Nd641 2.410 . S
O670 C659 1.251 . S
O671 Nd640 2.424 . S
O671 C659 1.268 . S
H672 C644 0.930 . S
H673 C645 0.929 . S
H674 C647 0.930 . S
H675 C648 0.929 . S
H676 C653 0.930 . S
H677 C654 0.929 . S
H678 C656 0.930 . S
H679 C657 0.929 . S
Nd680 C682 2.836 . S
Nd680 O700 2.500 . S
Nd680 O701 2.492 . S
Nd680 O702 2.487 . S
Nd680 O703 2.682 . S
Nd680 O704 2.410 . S
Nd680 O709 2.414 . S
Nd680 O711 2.424 . S
Nd681 C691 2.836 . S
Nd681 O703 2.414 . S
Nd681 O705 2.424 . S
Nd681 O706 2.500 . S
Nd681 O707 2.492 . S
Nd681 O708 2.487 . S
Nd681 O709 2.682 . S
Nd681 O710 2.410 . S
C682 Nd680 2.836 . S
C682 C683 1.498 1_554 S
C682 O700 1.258 . S
C682 O701 1.239 . S
C683 C682 1.498 1_556 S
C683 C684 1.366 . S
C683 C688 1.407 . S
C684 C683 1.366 . S
C684 C685 1.392 . S
C684 H712 0.930 . S
C685 C684 1.392 . S
C685 C686 1.398 . S
C685 H713 0.929 . S
C686 C685 1.398 . S
C686 C687 1.352 . S
C687 C686 1.352 . S
C687 C688 1.384 . S
C687 H714 0.930 . S
C688 C683 1.407 . S
C688 C687 1.384 . S
C688 H715 0.929 . S
C689 O702 1.241 . S
C689 O703 1.273 . S
C690 O704 1.251 . S
C690 O705 1.268 . S
C691 Nd681 2.836 . S
C691 C692 1.498 . S
C691 O706 1.258 . S
C691 O707 1.239 . S
C692 C691 1.498 . S
C692 C693 1.366 . S
C692 C697 1.407 . S
C693 C692 1.366 . S
C693 C694 1.392 . S
C693 H716 0.930 . S
C694 C693 1.392 . S
C694 C695 1.398 . S
C694 H717 0.929 . S
C695 C694 1.398 . S
C695 C696 1.352 . S
C696 C695 1.352 . S
C696 C697 1.384 . S
C696 H718 0.930 . S
C697 C692 1.407 . S
C697 C696 1.384 . S
C697 H719 0.929 . S
C698 O708 1.241 . S
C698 O709 1.273 . S
C699 O710 1.251 . S
C699 O711 1.268 . S
O700 Nd680 2.500 . S
O700 C682 1.258 . S
O701 Nd680 2.492 . S
O701 C682 1.239 . S
O702 Nd680 2.487 . S
O702 C689 1.241 . S
O703 Nd680 2.682 . S
O703 Nd681 2.414 . S
O703 C689 1.273 . S
O704 Nd680 2.410 . S
O704 C690 1.251 . S
O705 Nd681 2.424 . S
O705 C690 1.268 . S
O706 Nd681 2.500 . S
O706 C691 1.258 . S
O707 Nd681 2.492 . S
O707 C691 1.239 . S
O708 Nd681 2.487 . S
O708 C698 1.241 . S
O709 Nd680 2.414 . S
O709 Nd681 2.682 . S
O709 C698 1.273 . S
O710 Nd681 2.410 . S
O710 C699 1.251 . S
O711 Nd680 2.424 . S
O711 C699 1.268 . S
H712 C684 0.930 . S
H713 C685 0.929 . S
H714 C687 0.930 . S
H715 C688 0.929 . S
H716 C693 0.930 . S
H717 C694 0.929 . S
H718 C696 0.930 . S
H719 C697 0.929 . S
Nd720 C722 2.836 . S
Nd720 O740 2.500 . S
Nd720 O741 2.492 . S
Nd720 O742 2.487 . S
Nd720 O743 2.682 . S
Nd720 O744 2.410 . S
Nd720 O749 2.414 . S
Nd720 O751 2.424 . S
Nd721 C731 2.836 . S
Nd721 O743 2.414 . S
Nd721 O745 2.424 . S
Nd721 O746 2.500 . S
Nd721 O747 2.492 . S
Nd721 O748 2.487 . S
Nd721 O749 2.682 . S
Nd721 O750 2.410 . S
C722 Nd720 2.836 . S
C722 C723 1.498 . S
C722 O740 1.258 . S
C722 O741 1.239 . S
C723 C722 1.498 . S
C723 C724 1.366 . S
C723 C728 1.407 . S
C724 C723 1.366 . S
C724 C725 1.392 . S
C724 H752 0.930 . S
C725 C724 1.392 . S
C725 C726 1.398 . S
C725 H753 0.929 . S
C726 C725 1.398 . S
C726 C727 1.352 . S
C727 C726 1.352 . S
C727 C728 1.384 . S
C727 H754 0.930 . S
C728 C723 1.407 . S
C728 C727 1.384 . S
C728 H755 0.929 . S
C729 O742 1.241 . S
C729 O743 1.273 . S
C730 O744 1.251 . S
C730 O745 1.268 . S
C731 Nd721 2.836 . S
C731 C732 1.498 . S
C731 O746 1.258 . S
C731 O747 1.239 . S
C732 C731 1.498 . S
C732 C733 1.366 . S
C732 C737 1.407 . S
C733 C732 1.366 . S
C733 C734 1.392 . S
C733 H756 0.930 . S
C734 C733 1.392 . S
C734 C735 1.398 . S
C734 H757 0.929 . S
C735 C734 1.398 . S
C735 C736 1.352 . S
C736 C735 1.352 . S
C736 C737 1.384 . S
C736 H758 0.930 . S
C737 C732 1.407 . S
C737 C736 1.384 . S
C737 H759 0.929 . S
C738 O748 1.241 . S
C738 O749 1.273 . S
C739 O750 1.251 . S
C739 O751 1.268 . S
O740 Nd720 2.500 . S
O740 C722 1.258 . S
O741 Nd720 2.492 . S
O741 C722 1.239 . S
O742 Nd720 2.487 . S
O742 C729 1.241 . S
O743 Nd720 2.682 . S
O743 Nd721 2.414 . S
O743 C729 1.273 . S
O744 Nd720 2.410 . S
O744 C730 1.251 . S
O745 Nd721 2.424 . S
O745 C730 1.268 . S
O746 Nd721 2.500 . S
O746 C731 1.258 . S
O747 Nd721 2.492 . S
O747 C731 1.239 . S
O748 Nd721 2.487 . S
O748 C738 1.241 . S
O749 Nd720 2.414 . S
O749 Nd721 2.682 . S
O749 C738 1.273 . S
O750 Nd721 2.410 . S
O750 C739 1.251 . S
O751 Nd720 2.424 . S
O751 C739 1.268 . S
H752 C724 0.930 . S
H753 C725 0.929 . S
H754 C727 0.930 . S
H755 C728 0.929 . S
H756 C733 0.930 . S
H757 C734 0.929 . S
H758 C736 0.930 . S
H759 C737 0.929 . S
Nd760 C762 2.836 . S
Nd760 O780 2.500 . S
Nd760 O781 2.492 . S
Nd760 O782 2.487 . S
Nd760 O783 2.682 . S
Nd760 O784 2.410 . S
Nd760 O789 2.414 . S
Nd760 O791 2.424 . S
Nd761 C771 2.836 . S
Nd761 O783 2.414 . S
Nd761 O785 2.424 . S
Nd761 O786 2.500 . S
Nd761 O787 2.492 . S
Nd761 O788 2.487 . S
Nd761 O789 2.682 . S
Nd761 O790 2.410 . S
C762 Nd760 2.836 . S
C762 C763 1.498 . S
C762 O780 1.258 . S
C762 O781 1.239 . S
C763 C762 1.498 . S
C763 C764 1.366 . S
C763 C768 1.407 . S
C764 C763 1.366 . S
C764 C765 1.392 . S
C764 H792 0.930 . S
C765 C764 1.392 . S
C765 C766 1.398 . S
C765 H793 0.929 . S
C766 C765 1.398 . S
C766 C767 1.352 . S
C767 C766 1.352 . S
C767 C768 1.384 . S
C767 H794 0.930 . S
C768 C763 1.407 . S
C768 C767 1.384 . S
C768 H795 0.929 . S
C769 O782 1.241 . S
C769 O783 1.273 . S
C770 O784 1.251 . S
C770 O785 1.268 . S
C771 Nd761 2.836 . S
C771 C772 1.498 . S
C771 O786 1.258 . S
C771 O787 1.239 . S
C772 C771 1.498 . S
C772 C773 1.366 . S
C772 C777 1.407 . S
C773 C772 1.366 . S
C773 C774 1.392 . S
C773 H796 0.930 . S
C774 C773 1.392 . S
C774 C775 1.398 . S
C774 H797 0.929 . S
C775 C774 1.398 . S
C775 C776 1.352 . S
C776 C775 1.352 . S
C776 C777 1.384 . S
C776 H798 0.930 . S
C777 C772 1.407 . S
C777 C776 1.384 . S
C777 H799 0.929 . S
C778 O788 1.241 . S
C778 O789 1.273 . S
C779 O790 1.251 . S
C779 O791 1.268 . S
O780 Nd760 2.500 . S
O780 C762 1.258 . S
O781 Nd760 2.492 . S
O781 C762 1.239 . S
O782 Nd760 2.487 . S
O782 C769 1.241 . S
O783 Nd760 2.682 . S
O783 Nd761 2.414 . S
O783 C769 1.273 . S
O784 Nd760 2.410 . S
O784 C770 1.251 . S
O785 Nd761 2.424 . S
O785 C770 1.268 . S
O786 Nd761 2.500 . S
O786 C771 1.258 . S
O787 Nd761 2.492 . S
O787 C771 1.239 . S
O788 Nd761 2.487 . S
O788 C778 1.241 . S
O789 Nd760 2.414 . S
O789 Nd761 2.682 . S
O789 C778 1.273 . S
O790 Nd761 2.410 . S
O790 C779 1.251 . S
O791 Nd760 2.424 . S
O791 C779 1.268 . S
H792 C764 0.930 . S
H793 C765 0.929 . S
H794 C767 0.930 . S
H795 C768 0.929 . S
H796 C773 0.930 . S
H797 C774 0.929 . S
H798 C776 0.930 . S
H799 C777 0.929 . S
Nd800 C802 2.836 . S
Nd800 O820 2.500 . S
Nd800 O821 2.492 . S
Nd800 O822 2.487 . S
Nd800 O823 2.682 . S
Nd800 O824 2.410 . S
Nd800 O829 2.414 . S
Nd800 O831 2.424 . S
Nd801 C811 2.836 . S
Nd801 O823 2.414 . S
Nd801 O825 2.424 . S
Nd801 O826 2.500 . S
Nd801 O827 2.492 . S
Nd801 O828 2.487 . S
Nd801 O829 2.682 . S
Nd801 O830 2.410 . S
C802 Nd800 2.836 . S
C802 C803 1.498 . S
C802 O820 1.258 . S
C802 O821 1.239 . S
C803 C802 1.498 . S
C803 C804 1.366 . S
C803 C808 1.407 . S
C804 C803 1.366 . S
C804 C805 1.392 . S
C804 H832 0.930 . S
C805 C804 1.392 . S
C805 C806 1.398 . S
C805 H833 0.929 . S
C806 C805 1.398 . S
C806 C807 1.352 . S
C807 C806 1.352 . S
C807 C808 1.384 . S
C807 H834 0.930 . S
C808 C803 1.407 . S
C808 C807 1.384 . S
C808 H835 0.929 . S
C809 O822 1.241 . S
C809 O823 1.273 . S
C810 O824 1.251 . S
C810 O825 1.268 . S
C811 Nd801 2.836 . S
C811 C812 1.498 . S
C811 O826 1.258 . S
C811 O827 1.239 . S
C812 C811 1.498 . S
C812 C813 1.366 . S
C812 C817 1.407 . S
C813 C812 1.366 . S
C813 C814 1.392 . S
C813 H836 0.930 . S
C814 C813 1.392 . S
C814 C815 1.398 . S
C814 H837 0.929 . S
C815 C814 1.398 . S
C815 C816 1.352 . S
C816 C815 1.352 . S
C816 C817 1.384 . S
C816 H838 0.930 . S
C817 C812 1.407 . S
C817 C816 1.384 . S
C817 H839 0.929 . S
C818 O828 1.241 . S
C818 O829 1.273 . S
C819 O830 1.251 . S
C819 O831 1.268 . S
O820 Nd800 2.500 . S
O820 C802 1.258 . S
O821 Nd800 2.492 . S
O821 C802 1.239 . S
O822 Nd800 2.487 . S
O822 C809 1.241 . S
O823 Nd800 2.682 . S
O823 Nd801 2.414 . S
O823 C809 1.273 . S
O824 Nd800 2.410 . S
O824 C810 1.251 . S
O825 Nd801 2.424 . S
O825 C810 1.268 . S
O826 Nd801 2.500 . S
O826 C811 1.258 . S
O827 Nd801 2.492 . S
O827 C811 1.239 . S
O828 Nd801 2.487 . S
O828 C818 1.241 . S
O829 Nd800 2.414 . S
O829 Nd801 2.682 . S
O829 C818 1.273 . S
O830 Nd801 2.410 . S
O830 C819 1.251 . S
O831 Nd800 2.424 . S
O831 C819 1.268 . S
H832 C804 0.930 . S
H833 C805 0.929 . S
H834 C807 0.930 . S
H835 C808 0.929 . S
H836 C813 0.930 . S
H837 C814 0.929 . S
H838 C816 0.930 . S
H839 C817 0.929 . S
Nd840 C842 2.836 . S
Nd840 O860 2.500 . S
Nd840 O861 2.492 . S
Nd840 O862 2.487 . S
Nd840 O863 2.682 . S
Nd840 O864 2.410 . S
Nd840 O869 2.414 . S
Nd840 O871 2.424 . S
Nd841 C851 2.836 . S
Nd841 O863 2.414 . S
Nd841 O865 2.424 . S
Nd841 O866 2.500 . S
Nd841 O867 2.492 . S
Nd841 O868 2.487 . S
Nd841 O869 2.682 . S
Nd841 O870 2.410 . S
C842 Nd840 2.836 . S
C842 C843 1.498 1_556 S
C842 O860 1.258 . S
C842 O861 1.239 . S
C843 C842 1.498 1_554 S
C843 C844 1.366 . S
C843 C848 1.407 . S
C844 C843 1.366 . S
C844 C845 1.392 . S
C844 H872 0.930 . S
C845 C844 1.392 . S
C845 C846 1.398 . S
C845 H873 0.929 . S
C846 C845 1.398 . S
C846 C847 1.352 . S
C847 C846 1.352 . S
C847 C848 1.384 . S
C847 H874 0.930 . S
C848 C843 1.407 . S
C848 C847 1.384 . S
C848 H875 0.929 . S
C849 O862 1.241 . S
C849 O863 1.273 . S
C850 O864 1.251 . S
C850 O865 1.268 . S
C851 Nd841 2.836 . S
C851 C852 1.498 . S
C851 O866 1.258 . S
C851 O867 1.239 . S
C852 C851 1.498 . S
C852 C853 1.366 . S
C852 C857 1.407 . S
C853 C852 1.366 . S
C853 C854 1.392 . S
C853 H876 0.930 . S
C854 C853 1.392 . S
C854 C855 1.398 . S
C854 H877 0.929 . S
C855 C854 1.398 . S
C855 C856 1.352 . S
C856 C855 1.352 . S
C856 C857 1.384 . S
C856 H878 0.930 . S
C857 C852 1.407 . S
C857 C856 1.384 . S
C857 H879 0.929 . S
C858 O868 1.241 . S
C858 O869 1.273 . S
C859 O870 1.251 . S
C859 O871 1.268 . S
O860 Nd840 2.500 . S
O860 C842 1.258 . S
O861 Nd840 2.492 . S
O861 C842 1.239 . S
O862 Nd840 2.487 . S
O862 C849 1.241 . S
O863 Nd840 2.682 . S
O863 Nd841 2.414 . S
O863 C849 1.273 . S
O864 Nd840 2.410 . S
O864 C850 1.251 . S
O865 Nd841 2.424 . S
O865 C850 1.268 . S
O866 Nd841 2.500 . S
O866 C851 1.258 . S
O867 Nd841 2.492 . S
O867 C851 1.239 . S
O868 Nd841 2.487 . S
O868 C858 1.241 . S
O869 Nd840 2.414 . S
O869 Nd841 2.682 . S
O869 C858 1.273 . S
O870 Nd841 2.410 . S
O870 C859 1.251 . S
O871 Nd840 2.424 . S
O871 C859 1.268 . S
H872 C844 0.930 . S
H873 C845 0.929 . S
H874 C847 0.930 . S
H875 C848 0.929 . S
H876 C853 0.930 . S
H877 C854 0.929 . S
H878 C856 0.930 . S
H879 C857 0.929 . S
Nd880 C882 2.836 . S
Nd880 O900 2.500 . S
Nd880 O901 2.492 . S
Nd880 O902 2.487 . S
Nd880 O903 2.682 . S
Nd880 O904 2.410 . S
Nd880 O909 2.414 . S
Nd880 O911 2.424 . S
Nd881 C891 2.836 . S
Nd881 O903 2.414 . S
Nd881 O905 2.424 . S
Nd881 O906 2.500 . S
Nd881 O907 2.492 . S
Nd881 O908 2.487 . S
Nd881 O909 2.682 . S
Nd881 O910 2.410 . S
C882 Nd880 2.836 . S
C882 C883 1.498 . S
C882 O900 1.258 . S
C882 O901 1.239 . S
C883 C882 1.498 . S
C883 C884 1.366 . S
C883 C888 1.407 . S
C884 C883 1.366 . S
C884 C885 1.392 . S
C884 H912 0.930 . S
C885 C884 1.392 . S
C885 C886 1.398 . S
C885 H913 0.929 . S
C886 C885 1.398 . S
C886 C887 1.352 . S
C887 C886 1.352 . S
C887 C888 1.384 . S
C887 H914 0.930 . S
C888 C883 1.407 . S
C888 C887 1.384 . S
C888 H915 0.929 . S
C889 O902 1.241 . S
C889 O903 1.273 . S
C890 O904 1.251 . S
C890 O905 1.268 . S
C891 Nd881 2.836 . S
C891 C892 1.498 . S
C891 O906 1.258 . S
C891 O907 1.239 . S
C892 C891 1.498 . S
C892 C893 1.366 . S
C892 C897 1.407 . S
C893 C892 1.366 . S
C893 C894 1.392 . S
C893 H916 0.930 . S
C894 C893 1.392 . S
C894 C895 1.398 . S
C894 H917 0.929 . S
C895 C894 1.398 . S
C895 C896 1.352 . S
C896 C895 1.352 . S
C896 C897 1.384 . S
C896 H918 0.930 . S
C897 C892 1.407 . S
C897 C896 1.384 . S
C897 H919 0.929 . S
C898 O908 1.241 . S
C898 O909 1.273 . S
C899 O910 1.251 . S
C899 O911 1.268 . S
O900 Nd880 2.500 . S
O900 C882 1.258 . S
O901 Nd880 2.492 . S
O901 C882 1.239 . S
O902 Nd880 2.487 . S
O902 C889 1.241 . S
O903 Nd880 2.682 . S
O903 Nd881 2.414 . S
O903 C889 1.273 . S
O904 Nd880 2.410 . S
O904 C890 1.251 . S
O905 Nd881 2.424 . S
O905 C890 1.268 . S
O906 Nd881 2.500 . S
O906 C891 1.258 . S
O907 Nd881 2.492 . S
O907 C891 1.239 . S
O908 Nd881 2.487 . S
O908 C898 1.241 . S
O909 Nd880 2.414 . S
O909 Nd881 2.682 . S
O909 C898 1.273 . S
O910 Nd881 2.410 . S
O910 C899 1.251 . S
O911 Nd880 2.424 . S
O911 C899 1.268 . S
H912 C884 0.930 . S
H913 C885 0.929 . S
H914 C887 0.930 . S
H915 C888 0.929 . S
H916 C893 0.930 . S
H917 C894 0.929 . S
H918 C896 0.930 . S
H919 C897 0.929 . S
Nd920 C922 2.836 . S
Nd920 O940 2.500 . S
Nd920 O941 2.492 . S
Nd920 O942 2.487 . S
Nd920 O943 2.682 . S
Nd920 O944 2.410 . S
Nd920 O949 2.414 . S
Nd920 O951 2.424 . S
Nd921 C931 2.836 . S
Nd921 O943 2.414 . S
Nd921 O945 2.424 . S
Nd921 O946 2.500 . S
Nd921 O947 2.492 . S
Nd921 O948 2.487 . S
Nd921 O949 2.682 . S
Nd921 O950 2.410 . S
C922 Nd920 2.836 . S
C922 C923 1.498 . S
C922 O940 1.258 . S
C922 O941 1.239 . S
C923 C922 1.498 . S
C923 C924 1.366 . S
C923 C928 1.407 . S
C924 C923 1.366 . S
C924 C925 1.392 . S
C924 H952 0.930 . S
C925 C924 1.392 . S
C925 C926 1.398 . S
C925 H953 0.929 . S
C926 C925 1.398 . S
C926 C927 1.352 . S
C927 C926 1.352 . S
C927 C928 1.384 . S
C927 H954 0.930 . S
C928 C923 1.407 . S
C928 C927 1.384 . S
C928 H955 0.929 . S
C929 O942 1.241 . S
C929 O943 1.273 . S
C930 O944 1.251 . S
C930 O945 1.268 . S
C931 Nd921 2.836 . S
C931 C932 1.498 . S
C931 O946 1.258 . S
C931 O947 1.239 . S
C932 C931 1.498 . S
C932 C933 1.366 . S
C932 C937 1.407 . S
C933 C932 1.366 . S
C933 C934 1.392 . S
C933 H956 0.930 . S
C934 C933 1.392 . S
C934 C935 1.398 . S
C934 H957 0.929 . S
C935 C934 1.398 . S
C935 C936 1.352 . S
C936 C935 1.352 . S
C936 C937 1.384 . S
C936 H958 0.930 . S
C937 C932 1.407 . S
C937 C936 1.384 . S
C937 H959 0.929 . S
C938 O948 1.241 . S
C938 O949 1.273 . S
C939 O950 1.251 . S
C939 O951 1.268 . S
O940 Nd920 2.500 . S
O940 C922 1.258 . S
O941 Nd920 2.492 . S
O941 C922 1.239 . S
O942 Nd920 2.487 . S
O942 C929 1.241 . S
O943 Nd920 2.682 . S
O943 Nd921 2.414 . S
O943 C929 1.273 . S
O944 Nd920 2.410 . S
O944 C930 1.251 . S
O945 Nd921 2.424 . S
O945 C930 1.268 . S
O946 Nd921 2.500 . S
O946 C931 1.258 . S
O947 Nd921 2.492 . S
O947 C931 1.239 . S
O948 Nd921 2.487 . S
O948 C938 1.241 . S
O949 Nd920 2.414 . S
O949 Nd921 2.682 . S
O949 C938 1.273 . S
O950 Nd921 2.410 . S
O950 C939 1.251 . S
O951 Nd920 2.424 . S
O951 C939 1.268 . S
H952 C924 0.930 . S
H953 C925 0.929 . S
H954 C927 0.930 . S
H955 C928 0.929 . S
H956 C933 0.930 . S
H957 C934 0.929 . S
H958 C936 0.930 . S
H959 C937 0.929 . S
Nd960 C962 2.836 . S
Nd960 O980 2.500 . S
Nd960 O981 2.492 . S
Nd960 O982 2.487 . S
Nd960 O983 2.682 . S
Nd960 O984 2.410 . S
Nd960 O989 2.414 . S
Nd960 O991 2.424 . S
Nd961 C971 2.836 . S
Nd961 O983 2.414 . S
Nd961 O985 2.424 . S
Nd961 O986 2.500 . S
Nd961 O987 2.492 . S
Nd961 O988 2.487 . S
Nd961 O989 2.682 . S
Nd961 O990 2.410 . S
C962 Nd960 2.836 . S
C962 C963 1.498 . S
C962 O980 1.258 . S
C962 O981 1.239 . S
C963 C962 1.498 . S
C963 C964 1.366 . S
C963 C968 1.407 . S
C964 C963 1.366 . S
C964 C965 1.392 . S
C964 H992 0.930 . S
C965 C964 1.392 . S
C965 C966 1.398 . S
C965 H993 0.929 . S
C966 C965 1.398 . S
C966 C967 1.352 . S
C967 C966 1.352 . S
C967 C968 1.384 . S
C967 H994 0.930 . S
C968 C963 1.407 . S
C968 C967 1.384 . S
C968 H995 0.929 . S
C969 O982 1.241 . S
C969 O983 1.273 . S
C970 O984 1.251 . S
C970 O985 1.268 . S
C971 Nd961 2.836 . S
C971 C972 1.498 . S
C971 O986 1.258 . S
C971 O987 1.239 . S
C972 C971 1.498 . S
C972 C973 1.366 . S
C972 C977 1.407 . S
C973 C972 1.366 . S
C973 C974 1.392 . S
C973 H996 0.930 . S
C974 C973 1.392 . S
C974 C975 1.398 . S
C974 H997 0.929 . S
C975 C974 1.398 . S
C975 C976 1.352 . S
C976 C975 1.352 . S
C976 C977 1.384 . S
C976 H998 0.930 . S
C977 C972 1.407 . S
C977 C976 1.384 . S
C977 H999 0.929 . S
C978 O988 1.241 . S
C978 O989 1.273 . S
C979 O990 1.251 . S
C979 O991 1.268 . S
O980 Nd960 2.500 . S
O980 C962 1.258 . S
O981 Nd960 2.492 . S
O981 C962 1.239 . S
O982 Nd960 2.487 . S
O982 C969 1.241 . S
O983 Nd960 2.682 . S
O983 Nd961 2.414 . S
O983 C969 1.273 . S
O984 Nd960 2.410 . S
O984 C970 1.251 . S
O985 Nd961 2.424 . S
O985 C970 1.268 . S
O986 Nd961 2.500 . S
O986 C971 1.258 . S
O987 Nd961 2.492 . S
O987 C971 1.239 . S
O988 Nd961 2.487 . S
O988 C978 1.241 . S
O989 Nd960 2.414 . S
O989 Nd961 2.682 . S
O989 C978 1.273 . S
O990 Nd961 2.410 . S
O990 C979 1.251 . S
O991 Nd960 2.424 . S
O991 C979 1.268 . S
H992 C964 0.930 . S
H993 C965 0.929 . S
H994 C967 0.930 . S
H995 C968 0.929 . S
H996 C973 0.930 . S
H997 C974 0.929 . S
H998 C976 0.930 . S
H999 C977 0.929 . S
Nd1000 C1002 2.836 . S
Nd1000 O1020 2.500 . S
Nd1000 O1021 2.492 . S
Nd1000 O1022 2.487 . S
Nd1000 O1023 2.682 . S
Nd1000 O1024 2.410 . S
Nd1000 O1029 2.414 . S
Nd1000 O1031 2.424 . S
Nd1001 C1011 2.836 . S
Nd1001 O1023 2.414 . S
Nd1001 O1025 2.424 . S
Nd1001 O1026 2.500 . S
Nd1001 O1027 2.492 . S
Nd1001 O1028 2.487 . S
Nd1001 O1029 2.682 . S
Nd1001 O1030 2.410 . S
C1002 Nd1000 2.836 . S
C1002 C1003 1.498 . S
C1002 O1020 1.258 . S
C1002 O1021 1.239 . S
C1003 C1002 1.498 . S
C1003 C1004 1.366 . S
C1003 C1008 1.407 . S
C1004 C1003 1.366 . S
C1004 C1005 1.392 . S
C1004 H1032 0.930 . S
C1005 C1004 1.392 . S
C1005 C1006 1.398 . S
C1005 H1033 0.929 . S
C1006 C1005 1.398 . S
C1006 C1007 1.352 . S
C1007 C1006 1.352 . S
C1007 C1008 1.384 . S
C1007 H1034 0.930 . S
C1008 C1003 1.407 . S
C1008 C1007 1.384 . S
C1008 H1035 0.929 . S
C1009 O1022 1.241 . S
C1009 O1023 1.273 . S
C1010 O1024 1.251 . S
C1010 O1025 1.268 . S
C1011 Nd1001 2.836 . S
C1011 C1012 1.498 1_556 S
C1011 O1026 1.258 . S
C1011 O1027 1.239 . S
C1012 C1011 1.498 1_554 S
C1012 C1013 1.366 . S
C1012 C1017 1.407 . S
C1013 C1012 1.366 . S
C1013 C1014 1.392 . S
C1013 H1036 0.930 . S
C1014 C1013 1.392 . S
C1014 C1015 1.398 . S
C1014 H1037 0.929 . S
C1015 C1014 1.398 . S
C1015 C1016 1.352 . S
C1016 C1015 1.352 . S
C1016 C1017 1.384 . S
C1016 H1038 0.930 . S
C1017 C1012 1.407 . S
C1017 C1016 1.384 . S
C1017 H1039 0.929 . S
C1018 O1028 1.241 . S
C1018 O1029 1.273 . S
C1019 O1030 1.251 . S
C1019 O1031 1.268 . S
O1020 Nd1000 2.500 . S
O1020 C1002 1.258 . S
O1021 Nd1000 2.492 . S
O1021 C1002 1.239 . S
O1022 Nd1000 2.487 . S
O1022 C1009 1.241 . S
O1023 Nd1000 2.682 . S
O1023 Nd1001 2.414 . S
O1023 C1009 1.273 . S
O1024 Nd1000 2.410 . S
O1024 C1010 1.251 . S
O1025 Nd1001 2.424 . S
O1025 C1010 1.268 . S
O1026 Nd1001 2.500 . S
O1026 C1011 1.258 . S
O1027 Nd1001 2.492 . S
O1027 C1011 1.239 . S
O1028 Nd1001 2.487 . S
O1028 C1018 1.241 . S
O1029 Nd1000 2.414 . S
O1029 Nd1001 2.682 . S
O1029 C1018 1.273 . S
O1030 Nd1001 2.410 . S
O1030 C1019 1.251 . S
O1031 Nd1000 2.424 . S
O1031 C1019 1.268 . S
H1032 C1004 0.930 . S
H1033 C1005 0.929 . S
H1034 C1007 0.930 . S
H1035 C1008 0.929 . S
H1036 C1013 0.930 . S
H1037 C1014 0.929 . S
H1038 C1016 0.930 . S
H1039 C1017 0.929 . S
Nd1040 C1042 2.836 . S
Nd1040 O1060 2.500 . S
Nd1040 O1061 2.492 . S
Nd1040 O1062 2.487 . S
Nd1040 O1063 2.682 . S
Nd1040 O1064 2.410 . S
Nd1040 O1069 2.414 . S
Nd1040 O1071 2.424 . S
Nd1041 C1051 2.836 . S
Nd1041 O1063 2.414 . S
Nd1041 O1065 2.424 . S
Nd1041 O1066 2.500 . S
Nd1041 O1067 2.492 . S
Nd1041 O1068 2.487 . S
Nd1041 O1069 2.682 . S
Nd1041 O1070 2.410 . S
C1042 Nd1040 2.836 . S
C1042 C1043 1.498 . S
C1042 O1060 1.258 . S
C1042 O1061 1.239 . S
C1043 C1042 1.498 . S
C1043 C1044 1.366 . S
C1043 C1048 1.407 . S
C1044 C1043 1.366 . S
C1044 C1045 1.392 . S
C1044 H1072 0.930 . S
C1045 C1044 1.392 . S
C1045 C1046 1.398 . S
C1045 H1073 0.929 . S
C1046 C1045 1.398 . S
C1046 C1047 1.352 . S
C1047 C1046 1.352 . S
C1047 C1048 1.384 . S
C1047 H1074 0.930 . S
C1048 C1043 1.407 . S
C1048 C1047 1.384 . S
C1048 H1075 0.929 . S
C1049 O1062 1.241 . S
C1049 O1063 1.273 . S
C1050 O1064 1.251 . S
C1050 O1065 1.268 . S
C1051 Nd1041 2.836 . S
C1051 C1052 1.498 . S
C1051 O1066 1.258 . S
C1051 O1067 1.239 . S
C1052 C1051 1.498 . S
C1052 C1053 1.366 . S
C1052 C1057 1.407 . S
C1053 C1052 1.366 . S
C1053 C1054 1.392 . S
C1053 H1076 0.930 . S
C1054 C1053 1.392 . S
C1054 C1055 1.398 . S
C1054 H1077 0.929 . S
C1055 C1054 1.398 . S
C1055 C1056 1.352 . S
C1056 C1055 1.352 . S
C1056 C1057 1.384 . S
C1056 H1078 0.930 . S
C1057 C1052 1.407 . S
C1057 C1056 1.384 . S
C1057 H1079 0.929 . S
C1058 O1068 1.241 . S
C1058 O1069 1.273 . S
C1059 O1070 1.251 . S
C1059 O1071 1.268 . S
O1060 Nd1040 2.500 . S
O1060 C1042 1.258 . S
O1061 Nd1040 2.492 . S
O1061 C1042 1.239 . S
O1062 Nd1040 2.487 . S
O1062 C1049 1.241 . S
O1063 Nd1040 2.682 . S
O1063 Nd1041 2.414 . S
O1063 C1049 1.273 . S
O1064 Nd1040 2.410 . S
O1064 C1050 1.251 . S
O1065 Nd1041 2.424 . S
O1065 C1050 1.268 . S
O1066 Nd1041 2.500 . S
O1066 C1051 1.258 . S
O1067 Nd1041 2.492 . S
O1067 C1051 1.239 . S
O1068 Nd1041 2.487 . S
O1068 C1058 1.241 . S
O1069 Nd1040 2.414 . S
O1069 Nd1041 2.682 . S
O1069 C1058 1.273 . S
O1070 Nd1041 2.410 . S
O1070 C1059 1.251 . S
O1071 Nd1040 2.424 . S
O1071 C1059 1.268 . S
H1072 C1044 0.930 . S
H1073 C1045 0.929 . S
H1074 C1047 0.930 . S
H1075 C1048 0.929 . S
H1076 C1053 0.930 . S
H1077 C1054 0.929 . S
H1078 C1056 0.930 . S
H1079 C1057 0.929 . S
Nd1080 C1082 2.836 . S
Nd1080 O1100 2.500 . S
Nd1080 O1101 2.492 . S
Nd1080 O1102 2.487 . S
Nd1080 O1103 2.682 . S
Nd1080 O1104 2.410 . S
Nd1080 O1109 2.414 . S
Nd1080 O1111 2.424 . S
Nd1081 C1091 2.836 . S
Nd1081 O1103 2.414 . S
Nd1081 O1105 2.424 . S
Nd1081 O1106 2.500 . S
Nd1081 O1107 2.492 . S
Nd1081 O1108 2.487 . S
Nd1081 O1109 2.682 . S
Nd1081 O1110 2.410 . S
C1082 Nd1080 2.836 . S
C1082 C1083 1.498 . S
C1082 O1100 1.258 . S
C1082 O1101 1.239 . S
C1083 C1082 1.498 . S
C1083 C1084 1.366 . S
C1083 C1088 1.407 . S
C1084 C1083 1.366 . S
C1084 C1085 1.392 . S
C1084 H1112 0.930 . S
C1085 C1084 1.392 . S
C1085 C1086 1.398 . S
C1085 H1113 0.929 . S
C1086 C1085 1.398 . S
C1086 C1087 1.352 . S
C1087 C1086 1.352 . S
C1087 C1088 1.384 . S
C1087 H1114 0.930 . S
C1088 C1083 1.407 . S
C1088 C1087 1.384 . S
C1088 H1115 0.929 . S
C1089 O1102 1.241 . S
C1089 O1103 1.273 . S
C1090 O1104 1.251 . S
C1090 O1105 1.268 . S
C1091 Nd1081 2.836 . S
C1091 C1092 1.498 . S
C1091 O1106 1.258 . S
C1091 O1107 1.239 . S
C1092 C1091 1.498 . S
C1092 C1093 1.366 . S
C1092 C1097 1.407 . S
C1093 C1092 1.366 . S
C1093 C1094 1.392 . S
C1093 H1116 0.930 . S
C1094 C1093 1.392 . S
C1094 C1095 1.398 . S
C1094 H1117 0.929 . S
C1095 C1094 1.398 . S
C1095 C1096 1.352 . S
C1096 C1095 1.352 . S
C1096 C1097 1.384 . S
C1096 H1118 0.930 . S
C1097 C1092 1.407 . S
C1097 C1096 1.384 . S
C1097 H1119 0.929 . S
C1098 O1108 1.241 . S
C1098 O1109 1.273 . S
C1099 O1110 1.251 . S
C1099 O1111 1.268 . S
O1100 Nd1080 2.500 . S
O1100 C1082 1.258 . S
O1101 Nd1080 2.492 . S
O1101 C1082 1.239 . S
O1102 Nd1080 2.487 . S
O1102 C1089 1.241 . S
O1103 Nd1080 2.682 . S
O1103 Nd1081 2.414 . S
O1103 C1089 1.273 . S
O1104 Nd1080 2.410 . S
O1104 C1090 1.251 . S
O1105 Nd1081 2.424 . S
O1105 C1090 1.268 . S
O1106 Nd1081 2.500 . S
O1106 C1091 1.258 . S
O1107 Nd1081 2.492 . S
O1107 C1091 1.239 . S
O1108 Nd1081 2.487 . S
O1108 C1098 1.241 . S
O1109 Nd1080 2.414 . S
O1109 Nd1081 2.682 . S
O1109 C1098 1.273 . S
O1110 Nd1081 2.410 . S
O1110 C1099 1.251 . S
O1111 Nd1080 2.424 . S
O1111 C1099 1.268 . S
H1112 C1084 0.930 . S
H1113 C1085 0.929 . S
H1114 C1087 0.930 . S
H1115 C1088 0.929 . S
H1116 C1093 0.930 . S
H1117 C1094 0.929 . S
H1118 C1096 0.930 . S
H1119 C1097 0.929 . S
Nd1120 C1122 2.836 . S
Nd1120 O1140 2.500 . S
Nd1120 O1141 2.492 . S
Nd1120 O1142 2.487 . S
Nd1120 O1143 2.682 . S
Nd1120 O1144 2.410 . S
Nd1120 O1149 2.414 . S
Nd1120 O1151 2.424 . S
Nd1121 C1131 2.836 . S
Nd1121 O1143 2.414 . S
Nd1121 O1145 2.424 . S
Nd1121 O1146 2.500 . S
Nd1121 O1147 2.492 . S
Nd1121 O1148 2.487 . S
Nd1121 O1149 2.682 . S
Nd1121 O1150 2.410 . S
C1122 Nd1120 2.836 . S
C1122 C1123 1.498 . S
C1122 O1140 1.258 . S
C1122 O1141 1.239 . S
C1123 C1122 1.498 . S
C1123 C1124 1.366 . S
C1123 C1128 1.407 . S
C1124 C1123 1.366 . S
C1124 C1125 1.392 . S
C1124 H1152 0.930 . S
C1125 C1124 1.392 . S
C1125 C1126 1.398 . S
C1125 H1153 0.929 . S
C1126 C1125 1.398 . S
C1126 C1127 1.352 . S
C1127 C1126 1.352 . S
C1127 C1128 1.384 . S
C1127 H1154 0.930 . S
C1128 C1123 1.407 . S
C1128 C1127 1.384 . S
C1128 H1155 0.929 . S
C1129 O1142 1.241 . S
C1129 O1143 1.273 . S
C1130 O1144 1.251 . S
C1130 O1145 1.268 . S
C1131 Nd1121 2.836 . S
C1131 C1132 1.498 . S
C1131 O1146 1.258 . S
C1131 O1147 1.239 . S
C1132 C1131 1.498 . S
C1132 C1133 1.366 . S
C1132 C1137 1.407 . S
C1133 C1132 1.366 . S
C1133 C1134 1.392 . S
C1133 H1156 0.930 . S
C1134 C1133 1.392 . S
C1134 C1135 1.398 . S
C1134 H1157 0.929 . S
C1135 C1134 1.398 . S
C1135 C1136 1.352 . S
C1136 C1135 1.352 . S
C1136 C1137 1.384 . S
C1136 H1158 0.930 . S
C1137 C1132 1.407 . S
C1137 C1136 1.384 . S
C1137 H1159 0.929 . S
C1138 O1148 1.241 . S
C1138 O1149 1.273 . S
C1139 O1150 1.251 . S
C1139 O1151 1.268 . S
O1140 Nd1120 2.500 . S
O1140 C1122 1.258 . S
O1141 Nd1120 2.492 . S
O1141 C1122 1.239 . S
O1142 Nd1120 2.487 . S
O1142 C1129 1.241 . S
O1143 Nd1120 2.682 . S
O1143 Nd1121 2.414 . S
O1143 C1129 1.273 . S
O1144 Nd1120 2.410 . S
O1144 C1130 1.251 . S
O1145 Nd1121 2.424 . S
O1145 C1130 1.268 . S
O1146 Nd1121 2.500 . S
O1146 C1131 1.258 . S
O1147 Nd1121 2.492 . S
O1147 C1131 1.239 . S
O1148 Nd1121 2.487 . S
O1148 C1138 1.241 . S
O1149 Nd1120 2.414 . S
O1149 Nd1121 2.682 . S
O1149 C1138 1.273 . S
O1150 Nd1121 2.410 . S
O1150 C1139 1.251 . S
O1151 Nd1120 2.424 . S
O1151 C1139 1.268 . S
H1152 C1124 0.930 . S
H1153 C1125 0.929 . S
H1154 C1127 0.930 . S
H1155 C1128 0.929 . S
H1156 C1133 0.930 . S
H1157 C1134 0.929 . S
H1158 C1136 0.930 . S
H1159 C1137 0.929 . S
Nd1160 C1162 2.836 . S
Nd1160 O1180 2.500 . S
Nd1160 O1181 2.492 . S
Nd1160 O1182 2.487 . S
Nd1160 O1183 2.682 . S
Nd1160 O1184 2.410 . S
Nd1160 O1189 2.414 . S
Nd1160 O1191 2.424 . S
Nd1161 C1171 2.836 . S
Nd1161 O1183 2.414 . S
Nd1161 O1185 2.424 . S
Nd1161 O1186 2.500 . S
Nd1161 O1187 2.492 . S
Nd1161 O1188 2.487 . S
Nd1161 O1189 2.682 . S
Nd1161 O1190 2.410 . S
C1162 Nd1160 2.836 . S
C1162 C1163 1.498 . S
C1162 O1180 1.258 . S
C1162 O1181 1.239 . S
C1163 C1162 1.498 . S
C1163 C1164 1.366 . S
C1163 C1168 1.407 . S
C1164 C1163 1.366 . S
C1164 C1165 1.392 . S
C1164 H1192 0.930 . S
C1165 C1164 1.392 . S
C1165 C1166 1.398 . S
C1165 H1193 0.929 . S
C1166 C1165 1.398 . S
C1166 C1167 1.352 . S
C1167 C1166 1.352 . S
C1167 C1168 1.384 . S
C1167 H1194 0.930 . S
C1168 C1163 1.407 . S
C1168 C1167 1.384 . S
C1168 H1195 0.929 . S
C1169 O1182 1.241 . S
C1169 O1183 1.273 . S
C1170 O1184 1.251 . S
C1170 O1185 1.268 . S
C1171 Nd1161 2.836 . S
C1171 C1172 1.498 1_554 S
C1171 O1186 1.258 . S
C1171 O1187 1.239 . S
C1172 C1171 1.498 1_556 S
C1172 C1173 1.366 . S
C1172 C1177 1.407 . S
C1173 C1172 1.366 . S
C1173 C1174 1.392 . S
C1173 H1196 0.930 . S
C1174 C1173 1.392 . S
C1174 C1175 1.398 . S
C1174 H1197 0.929 . S
C1175 C1174 1.398 . S
C1175 C1176 1.352 . S
C1176 C1175 1.352 . S
C1176 C1177 1.384 . S
C1176 H1198 0.930 . S
C1177 C1172 1.407 . S
C1177 C1176 1.384 . S
C1177 H1199 0.929 . S
C1178 O1188 1.241 . S
C1178 O1189 1.273 . S
C1179 O1190 1.251 . S
C1179 O1191 1.268 . S
O1180 Nd1160 2.500 . S
O1180 C1162 1.258 . S
O1181 Nd1160 2.492 . S
O1181 C1162 1.239 . S
O1182 Nd1160 2.487 . S
O1182 C1169 1.241 . S
O1183 Nd1160 2.682 . S
O1183 Nd1161 2.414 . S
O1183 C1169 1.273 . S
O1184 Nd1160 2.410 . S
O1184 C1170 1.251 . S
O1185 Nd1161 2.424 . S
O1185 C1170 1.268 . S
O1186 Nd1161 2.500 . S
O1186 C1171 1.258 . S
O1187 Nd1161 2.492 . S
O1187 C1171 1.239 . S
O1188 Nd1161 2.487 . S
O1188 C1178 1.241 . S
O1189 Nd1160 2.414 . S
O1189 Nd1161 2.682 . S
O1189 C1178 1.273 . S
O1190 Nd1161 2.410 . S
O1190 C1179 1.251 . S
O1191 Nd1160 2.424 . S
O1191 C1179 1.268 . S
H1192 C1164 0.930 . S
H1193 C1165 0.929 . S
H1194 C1167 0.930 . S
H1195 C1168 0.929 . S
H1196 C1173 0.930 . S
H1197 C1174 0.929 . S
H1198 C1176 0.930 . S
H1199 C1177 0.929 . S
Nd1200 C1202 2.836 . S
Nd1200 O1220 2.500 . S
Nd1200 O1221 2.492 . S
Nd1200 O1222 2.487 . S
Nd1200 O1223 2.682 . S
Nd1200 O1224 2.410 . S
Nd1200 O1229 2.414 . S
Nd1200 O1231 2.424 . S
Nd1201 C1211 2.836 . S
Nd1201 O1223 2.414 . S
Nd1201 O1225 2.424 . S
Nd1201 O1226 2.500 . S
Nd1201 O1227 2.492 . S
Nd1201 O1228 2.487 . S
Nd1201 O1229 2.682 . S
Nd1201 O1230 2.410 . S
C1202 Nd1200 2.836 . S
C1202 C1203 1.498 . S
C1202 O1220 1.258 . S
C1202 O1221 1.239 . S
C1203 C1202 1.498 . S
C1203 C1204 1.366 . S
C1203 C1208 1.407 . S
C1204 C1203 1.366 . S
C1204 C1205 1.392 . S
C1204 H1232 0.930 . S
C1205 C1204 1.392 . S
C1205 C1206 1.398 . S
C1205 H1233 0.929 . S
C1206 C1205 1.398 . S
C1206 C1207 1.352 . S
C1207 C1206 1.352 . S
C1207 C1208 1.384 . S
C1207 H1234 0.930 . S
C1208 C1203 1.407 . S
C1208 C1207 1.384 . S
C1208 H1235 0.929 . S
C1209 O1222 1.241 . S
C1209 O1223 1.273 . S
C1210 O1224 1.251 . S
C1210 O1225 1.268 . S
C1211 Nd1201 2.836 . S
C1211 C1212 1.498 . S
C1211 O1226 1.258 . S
C1211 O1227 1.239 . S
C1212 C1211 1.498 . S
C1212 C1213 1.366 . S
C1212 C1217 1.407 . S
C1213 C1212 1.366 . S
C1213 C1214 1.392 . S
C1213 H1236 0.930 . S
C1214 C1213 1.392 . S
C1214 C1215 1.398 . S
C1214 H1237 0.929 . S
C1215 C1214 1.398 . S
C1215 C1216 1.352 . S
C1216 C1215 1.352 . S
C1216 C1217 1.384 . S
C1216 H1238 0.930 . S
C1217 C1212 1.407 . S
C1217 C1216 1.384 . S
C1217 H1239 0.929 . S
C1218 O1228 1.241 . S
C1218 O1229 1.273 . S
C1219 O1230 1.251 . S
C1219 O1231 1.268 . S
O1220 Nd1200 2.500 . S
O1220 C1202 1.258 . S
O1221 Nd1200 2.492 . S
O1221 C1202 1.239 . S
O1222 Nd1200 2.487 . S
O1222 C1209 1.241 . S
O1223 Nd1200 2.682 . S
O1223 Nd1201 2.414 . S
O1223 C1209 1.273 . S
O1224 Nd1200 2.410 . S
O1224 C1210 1.251 . S
O1225 Nd1201 2.424 . S
O1225 C1210 1.268 . S
O1226 Nd1201 2.500 . S
O1226 C1211 1.258 . S
O1227 Nd1201 2.492 . S
O1227 C1211 1.239 . S
O1228 Nd1201 2.487 . S
O1228 C1218 1.241 . S
O1229 Nd1200 2.414 . S
O1229 Nd1201 2.682 . S
O1229 C1218 1.273 . S
O1230 Nd1201 2.410 . S
O1230 C1219 1.251 . S
O1231 Nd1200 2.424 . S
O1231 C1219 1.268 . S
H1232 C1204 0.930 . S
H1233 C1205 0.929 . S
H1234 C1207 0.930 . S
H1235 C1208 0.929 . S
H1236 C1213 0.930 . S
H1237 C1214 0.929 . S
H1238 C1216 0.930 . S
H1239 C1217 0.929 . S
Nd1240 C1242 2.836 . S
Nd1240 O1260 2.500 . S
Nd1240 O1261 2.492 . S
Nd1240 O1262 2.487 . S
Nd1240 O1263 2.682 . S
Nd1240 O1264 2.410 . S
Nd1240 O1269 2.414 . S
Nd1240 O1271 2.424 . S
Nd1241 C1251 2.836 . S
Nd1241 O1263 2.414 . S
Nd1241 O1265 2.424 . S
Nd1241 O1266 2.500 . S
Nd1241 O1267 2.492 . S
Nd1241 O1268 2.487 . S
Nd1241 O1269 2.682 . S
Nd1241 O1270 2.410 . S
C1242 Nd1240 2.836 . S
C1242 C1243 1.498 . S
C1242 O1260 1.258 . S
C1242 O1261 1.239 . S
C1243 C1242 1.498 . S
C1243 C1244 1.366 . S
C1243 C1248 1.407 . S
C1244 C1243 1.366 . S
C1244 C1245 1.392 . S
C1244 H1272 0.930 . S
C1245 C1244 1.392 . S
C1245 C1246 1.398 . S
C1245 H1273 0.929 . S
C1246 C1245 1.398 . S
C1246 C1247 1.352 . S
C1247 C1246 1.352 . S
C1247 C1248 1.384 . S
C1247 H1274 0.930 . S
C1248 C1243 1.407 . S
C1248 C1247 1.384 . S
C1248 H1275 0.929 . S
C1249 O1262 1.241 . S
C1249 O1263 1.273 . S
C1250 O1264 1.251 . S
C1250 O1265 1.268 . S
C1251 Nd1241 2.836 . S
C1251 C1252 1.498 . S
C1251 O1266 1.258 . S
C1251 O1267 1.239 . S
C1252 C1251 1.498 . S
C1252 C1253 1.366 . S
C1252 C1257 1.407 . S
C1253 C1252 1.366 . S
C1253 C1254 1.392 . S
C1253 H1276 0.930 . S
C1254 C1253 1.392 . S
C1254 C1255 1.398 . S
C1254 H1277 0.929 . S
C1255 C1254 1.398 . S
C1255 C1256 1.352 . S
C1256 C1255 1.352 . S
C1256 C1257 1.384 . S
C1256 H1278 0.930 . S
C1257 C1252 1.407 . S
C1257 C1256 1.384 . S
C1257 H1279 0.929 . S
C1258 O1268 1.241 . S
C1258 O1269 1.273 . S
C1259 O1270 1.251 . S
C1259 O1271 1.268 . S
O1260 Nd1240 2.500 . S
O1260 C1242 1.258 . S
O1261 Nd1240 2.492 . S
O1261 C1242 1.239 . S
O1262 Nd1240 2.487 . S
O1262 C1249 1.241 . S
O1263 Nd1240 2.682 . S
O1263 Nd1241 2.414 . S
O1263 C1249 1.273 . S
O1264 Nd1240 2.410 . S
O1264 C1250 1.251 . S
O1265 Nd1241 2.424 . S
O1265 C1250 1.268 . S
O1266 Nd1241 2.500 . S
O1266 C1251 1.258 . S
O1267 Nd1241 2.492 . S
O1267 C1251 1.239 . S
O1268 Nd1241 2.487 . S
O1268 C1258 1.241 . S
O1269 Nd1240 2.414 . S
O1269 Nd1241 2.682 . S
O1269 C1258 1.273 . S
O1270 Nd1241 2.410 . S
O1270 C1259 1.251 . S
O1271 Nd1240 2.424 . S
O1271 C1259 1.268 . S
H1272 C1244 0.930 . S
H1273 C1245 0.929 . S
H1274 C1247 0.930 . S
H1275 C1248 0.929 . S
H1276 C1253 0.930 . S
H1277 C1254 0.929 . S
H1278 C1256 0.930 . S
H1279 C1257 0.929 . S
H1280 C1288 0.950 . S
H1281 C1293 0.950 . S
H1282 C1290 0.950 . S
H1283 C1292 0.950 . S
H1284 C1294 0.950 . S
H1285 C1296 0.950 . S
H1286 C1298 0.950 . S
H1287 C1299 0.950 . S
C1288 H1280 0.950 . S
C1288 C1289 1.386 . S
C1288 C1290 1.391 . S
C1289 C1288 1.386 . S
C1289 C1293 1.393 . S
C1290 H1282 0.950 . S
C1290 C1288 1.391 . S
C1290 C1291 1.400 . S
C1291 C1290 1.400 . S
C1291 C1292 1.398 . S
C1291 C1297 1.491 . S
C1292 H1283 0.950 . S
C1292 C1291 1.398 . S
C1292 C1293 1.391 . S
C1293 H1281 0.950 . S
C1293 C1289 1.393 . S
C1293 C1292 1.391 . S
C1294 H1284 0.950 . S
C1294 C1295 1.386 . S
C1294 C1296 1.391 . S
C1295 C1294 1.386 . S
C1295 C1299 1.393 . S
C1296 H1285 0.950 . S
C1296 C1294 1.391 . S
C1296 C1297 1.400 . S
C1297 C1291 1.491 . S
C1297 C1296 1.400 . S
C1297 C1298 1.398 . S
C1298 H1286 0.950 . S
C1298 C1297 1.398 . S
C1298 C1299 1.391 . S
C1299 H1287 0.950 . S
C1299 C1295 1.393 . S
C1299 C1298 1.391 . S
H1300 C1308 0.950 . S
H1301 C1313 0.941 1_545 S
H1302 C1310 0.950 . S
H1303 C1312 0.950 . S
H1304 C1314 0.950 . S
H1305 C1316 0.950 . S
H1306 C1318 0.950 . S
H1307 C1319 0.950 . S
C1308 H1300 0.950 . S
C1308 C1309 1.386 . S
C1308 C1310 1.391 1_545 S
C1309 C1308 1.386 . S
C1309 C1313 1.375 1_545 S
C1310 H1302 0.950 . S
C1310 C1308 1.391 1_565 S
C1310 C1311 1.400 . S
C1311 C1310 1.400 . S
C1311 C1312 1.398 . S
C1311 C1317 1.491 . S
C1312 H1303 0.950 . S
C1312 C1311 1.398 . S
C1312 C1313 1.419 . S
C1313 H1301 0.941 1_565 S
C1313 C1309 1.375 1_565 S
C1313 C1312 1.419 . S
C1314 H1304 0.950 . S
C1314 C1315 1.386 . S
C1314 C1316 1.391 . S
C1315 C1314 1.386 . S
C1315 C1319 1.393 . S
C1316 H1305 0.950 . S
C1316 C1314 1.391 . S
C1316 C1317 1.400 . S
C1317 C1311 1.491 . S
C1317 C1316 1.400 . S
C1317 C1318 1.398 . S
C1318 H1306 0.950 . S
C1318 C1317 1.398 . S
C1318 C1319 1.391 . S
C1319 H1307 0.950 . S
C1319 C1315 1.393 . S
C1319 C1318 1.391 . S
H1320 C1328 0.950 . S
H1321 C1333 0.950 . S
H1322 C1330 0.950 . S
H1323 C1332 0.950 . S
H1324 C1334 0.950 . S
H1325 C1336 0.950 . S
H1326 C1338 0.950 . S
H1327 C1339 0.950 . S
C1328 H1320 0.950 . S
C1328 C1329 1.386 . S
C1328 C1330 1.391 . S
C1329 C1328 1.386 . S
C1329 C1333 1.393 . S
C1330 H1322 0.950 . S
C1330 C1328 1.391 . S
C1330 C1331 1.400 . S
C1331 C1330 1.400 . S
C1331 C1332 1.398 . S
C1331 C1337 1.491 . S
C1332 H1323 0.950 . S
C1332 C1331 1.398 . S
C1332 C1333 1.391 . S
C1333 H1321 0.950 . S
C1333 C1329 1.393 . S
C1333 C1332 1.391 . S
C1334 H1324 0.950 . S
C1334 C1335 1.386 . S
C1334 C1336 1.391 . S
C1335 C1334 1.386 . S
C1335 C1339 1.393 . S
C1336 H1325 0.950 . S
C1336 C1334 1.391 . S
C1336 C1337 1.400 . S
C1337 C1331 1.491 . S
C1337 C1336 1.400 . S
C1337 C1338 1.398 . S
C1338 H1326 0.950 . S
C1338 C1337 1.398 . S
C1338 C1339 1.391 . S
C1339 H1327 0.950 . S
C1339 C1335 1.393 . S
C1339 C1338 1.391 . S
H1340 C1348 0.950 . S
H1341 C1353 0.950 . S
H1342 C1350 0.950 . S
H1343 C1352 0.942 1_565 S
H1344 C1354 0.950 . S
H1345 C1356 0.950 . S
H1346 C1358 0.950 . S
H1347 C1359 0.950 . S
C1348 H1340 0.950 . S
C1348 C1349 1.386 1_545 S
C1348 C1350 1.391 . S
C1349 C1348 1.386 1_565 S
C1349 C1353 1.393 . S
C1350 H1342 0.950 . S
C1350 C1348 1.391 . S
C1350 C1351 1.400 . S
C1351 C1350 1.400 . S
C1351 C1352 1.433 . S
C1351 C1357 1.491 . S
C1352 H1343 0.942 1_545 S
C1352 C1351 1.433 . S
C1352 C1353 1.364 1_545 S
C1353 H1341 0.950 . S
C1353 C1349 1.393 . S
C1353 C1352 1.364 1_565 S
C1354 H1344 0.950 . S
C1354 C1355 1.386 . S
C1354 C1356 1.391 . S
C1355 C1354 1.386 . S
C1355 C1359 1.393 1_554 S
C1356 H1345 0.950 . S
C1356 C1354 1.391 . S
C1356 C1357 1.400 1_554 S
C1357 C1351 1.491 . S
C1357 C1356 1.400 1_556 S
C1357 C1358 1.398 . S
C1358 H1346 0.950 . S
C1358 C1357 1.398 . S
C1358 C1359 1.391 . S
C1359 H1347 0.950 . S
C1359 C1355 1.393 1_556 S
C1359 C1358 1.391 . S
H1360 C1368 0.950 . S
H1361 C1373 0.950 . S
H1362 C1370 0.950 . S
H1363 C1372 0.950 . S
H1364 C1374 0.950 . S
H1365 C1376 0.950 . S
H1366 C1378 0.950 . S
H1367 C1379 0.950 . S
C1368 H1360 0.950 . S
C1368 C1369 1.386 . S
C1368 C1370 1.391 . S
C1369 C1368 1.386 . S
C1369 C1373 1.393 . S
C1370 H1362 0.950 . S
C1370 C1368 1.391 . S
C1370 C1371 1.400 . S
C1371 C1370 1.400 . S
C1371 C1372 1.398 . S
C1371 C1377 1.491 . S
C1372 H1363 0.950 . S
C1372 C1371 1.398 . S
C1372 C1373 1.391 . S
C1373 H1361 0.950 . S
C1373 C1369 1.393 . S
C1373 C1372 1.391 . S
C1374 H1364 0.950 . S
C1374 C1375 1.386 . S
C1374 C1376 1.391 . S
C1375 C1374 1.386 . S
C1375 C1379 1.393 . S
C1376 H1365 0.950 . S
C1376 C1374 1.391 . S
C1376 C1377 1.400 . S
C1377 C1371 1.491 . S
C1377 C1376 1.400 . S
C1377 C1378 1.398 . S
C1378 H1366 0.950 . S
C1378 C1377 1.398 . S
C1378 C1379 1.391 . S
C1379 H1367 0.950 . S
C1379 C1375 1.393 . S
C1379 C1378 1.391 . S
H1380 C1388 0.950 . S
H1381 C1393 0.950 . S
H1382 C1390 0.950 . S
H1383 C1392 0.950 . S
H1384 C1394 0.950 . S
H1385 C1396 0.950 . S
H1386 C1398 0.950 1_545 S
H1387 C1399 0.950 . S
C1388 H1380 0.950 . S
C1388 C1389 1.386 . S
C1388 C1390 1.391 . S
C1389 C1388 1.386 . S
C1389 C1393 1.393 . S
C1390 H1382 0.950 . S
C1390 C1388 1.391 . S
C1390 C1391 1.400 . S
C1391 C1390 1.400 . S
C1391 C1392 1.398 . S
C1391 C1397 1.491 . S
C1392 H1383 0.950 . S
C1392 C1391 1.398 . S
C1392 C1393 1.391 . S
C1393 H1381 0.950 . S
C1393 C1389 1.393 . S
C1393 C1392 1.391 . S
C1394 H1384 0.950 . S
C1394 C1395 1.386 1_565 S
C1394 C1396 1.391 . S
C1395 C1394 1.386 1_545 S
C1395 C1399 1.393 . S
C1396 H1385 0.950 . S
C1396 C1394 1.391 . S
C1396 C1397 1.400 . S
C1397 C1391 1.491 . S
C1397 C1396 1.400 . S
C1397 C1398 1.398 . S
C1398 H1386 0.950 1_565 S
C1398 C1397 1.398 . S
C1398 C1399 1.391 1_565 S
C1399 H1387 0.950 . S
C1399 C1395 1.393 . S
C1399 C1398 1.391 1_545 S
H1400 C1408 0.950 . S
H1401 C1413 0.950 . S
H1402 C1410 0.950 . S
H1403 C1412 0.950 . S
H1404 C1414 0.950 . S
H1405 C1416 0.950 . S
H1406 C1418 0.950 . S
H1407 C1419 0.950 . S
C1408 H1400 0.950 . S
C1408 C1409 1.386 . S
C1408 C1410 1.391 . S
C1409 C1408 1.386 . S
C1409 C1413 1.393 . S
C1410 H1402 0.950 . S
C1410 C1408 1.391 . S
C1410 C1411 1.400 . S
C1411 C1410 1.400 . S
C1411 C1412 1.398 . S
C1411 C1417 1.491 . S
C1412 H1403 0.950 . S
C1412 C1411 1.398 . S
C1412 C1413 1.391 . S
C1413 H1401 0.950 . S
C1413 C1409 1.393 . S
C1413 C1412 1.391 . S
C1414 H1404 0.950 . S
C1414 C1415 1.386 . S
C1414 C1416 1.391 . S
C1415 C1414 1.386 . S
C1415 C1419 1.393 . S
C1416 H1405 0.950 . S
C1416 C1414 1.391 . S
C1416 C1417 1.400 . S
C1417 C1411 1.491 . S
C1417 C1416 1.400 . S
C1417 C1418 1.398 . S
C1418 H1406 0.950 . S
C1418 C1417 1.398 . S
C1418 C1419 1.391 . S
C1419 H1407 0.950 . S
C1419 C1415 1.393 . S
C1419 C1418 1.391 . S
H1420 C1428 0.950 . S
H1421 C1433 0.950 . S
H1422 C1430 0.950 . S
H1423 C1432 0.950 . S
H1424 C1434 0.950 . S
H1425 C1436 0.950 . S
H1426 C1438 0.950 . S
H1427 C1439 0.950 . S
C1428 H1420 0.950 . S
C1428 C1429 1.386 . S
C1428 C1430 1.391 1_565 S
C1429 C1428 1.386 . S
C1429 C1433 1.393 1_565 S
C1430 H1422 0.950 . S
C1430 C1428 1.391 1_545 S
C1430 C1431 1.400 . S
C1431 C1430 1.400 . S
C1431 C1432 1.398 . S
C1431 C1437 1.491 . S
C1432 H1423 0.950 . S
C1432 C1431 1.398 . S
C1432 C1433 1.391 . S
C1433 H1421 0.950 . S
C1433 C1429 1.393 1_545 S
C1433 C1432 1.391 . S
C1434 H1424 0.950 . S
C1434 C1435 1.386 1_554 S
C1434 C1436 1.391 . S
C1435 C1434 1.386 1_556 S
C1435 C1439 1.393 . S
C1436 H1425 0.950 . S
C1436 C1434 1.391 . S
C1436 C1437 1.400 . S
C1437 C1431 1.491 . S
C1437 C1436 1.400 . S
C1437 C1438 1.398 1_554 S
C1438 H1426 0.950 . S
C1438 C1437 1.398 1_556 S
C1438 C1439 1.391 . S
C1439 H1427 0.950 . S
C1439 C1435 1.393 . S
C1439 C1438 1.391 . S
H1440 C1448 0.950 . S
H1441 C1453 0.950 . S
H1442 C1450 0.950 . S
H1443 C1452 0.950 . S
H1444 C1454 0.950 . S
H1445 C1456 0.950 . S
H1446 C1458 0.950 . S
H1447 C1459 0.950 . S
C1448 H1440 0.950 . S
C1448 C1449 1.386 . S
C1448 C1450 1.391 . S
C1449 C1448 1.386 . S
C1449 C1453 1.393 . S
C1450 H1442 0.950 . S
C1450 C1448 1.391 . S
C1450 C1451 1.400 . S
C1451 C1450 1.400 . S
C1451 C1452 1.398 . S
C1451 C1457 1.491 . S
C1452 H1443 0.950 . S
C1452 C1451 1.398 . S
C1452 C1453 1.391 . S
C1453 H1441 0.950 . S
C1453 C1449 1.393 . S
C1453 C1452 1.391 . S
C1454 H1444 0.950 . S
C1454 C1455 1.386 . S
C1454 C1456 1.391 . S
C1455 C1454 1.386 . S
C1455 C1459 1.393 . S
C1456 H1445 0.950 . S
C1456 C1454 1.391 . S
C1456 C1457 1.400 . S
C1457 C1451 1.491 . S
C1457 C1456 1.400 . S
C1457 C1458 1.398 . S
C1458 H1446 0.950 . S
C1458 C1457 1.398 . S
C1458 C1459 1.391 . S
C1459 H1447 0.950 . S
C1459 C1455 1.393 . S
C1459 C1458 1.391 . S
H1460 C1468 0.950 . S
H1461 C1473 0.950 . S
H1462 C1470 0.950 . S
H1463 C1472 0.950 . S
H1464 C1474 0.950 . S
H1465 C1476 0.950 . S
H1466 C1478 0.950 1_565 S
H1467 C1479 0.950 . S
C1468 H1460 0.950 . S
C1468 C1469 1.386 . S
C1468 C1470 1.391 . S
C1469 C1468 1.386 . S
C1469 C1473 1.393 . S
C1470 H1462 0.950 . S
C1470 C1468 1.391 . S
C1470 C1471 1.400 . S
C1471 C1470 1.400 . S
C1471 C1472 1.398 . S
C1471 C1477 1.491 . S
C1472 H1463 0.950 . S
C1472 C1471 1.398 . S
C1472 C1473 1.391 . S
C1473 H1461 0.950 . S
C1473 C1469 1.393 . S
C1473 C1472 1.391 . S
C1474 H1464 0.950 . S
C1474 C1475 1.386 1_545 S
C1474 C1476 1.391 . S
C1475 C1474 1.386 1_565 S
C1475 C1479 1.393 . S
C1476 H1465 0.950 . S
C1476 C1474 1.391 . S
C1476 C1477 1.400 . S
C1477 C1471 1.491 . S
C1477 C1476 1.400 . S
C1477 C1478 1.398 . S
C1478 H1466 0.950 1_545 S
C1478 C1477 1.398 . S
C1478 C1479 1.391 1_545 S
C1479 H1467 0.950 . S
C1479 C1475 1.393 . S
C1479 C1478 1.391 1_565 S
H1480 C1488 0.950 . S
H1481 C1493 0.950 . S
H1482 C1490 0.950 . S
H1483 C1492 0.950 . S
H1484 C1494 0.950 . S
H1485 C1496 0.950 . S
H1486 C1498 0.950 . S
H1487 C1499 0.950 . S
C1488 H1480 0.950 . S
C1488 C1489 1.386 . S
C1488 C1490 1.391 . S
C1489 C1488 1.386 . S
C1489 C1493 1.393 . S
C1490 H1482 0.950 . S
C1490 C1488 1.391 . S
C1490 C1491 1.400 . S
C1491 C1490 1.400 . S
C1491 C1492 1.398 . S
C1491 C1497 1.491 . S
C1492 H1483 0.950 . S
C1492 C1491 1.398 . S
C1492 C1493 1.391 . S
C1493 H1481 0.950 . S
C1493 C1489 1.393 . S
C1493 C1492 1.391 . S
C1494 H1484 0.950 . S
C1494 C1495 1.386 . S
C1494 C1496 1.391 . S
C1495 C1494 1.386 . S
C1495 C1499 1.393 . S
C1496 H1485 0.950 . S
C1496 C1494 1.391 . S
C1496 C1497 1.400 . S
C1497 C1491 1.491 . S
C1497 C1496 1.400 . S
C1497 C1498 1.398 . S
C1498 H1486 0.950 . S
C1498 C1497 1.398 . S
C1498 C1499 1.391 . S
C1499 H1487 0.950 . S
C1499 C1495 1.393 . S
C1499 C1498 1.391 . S
H1500 C1508 0.950 . S
H1501 C1513 0.950 1_554 S
H1502 C1510 0.950 . S
H1503 C1512 0.950 . S
H1504 C1514 0.948 1_545 S
H1505 C1516 0.950 . S
H1506 C1518 0.950 . S
H1507 C1519 0.950 . S
C1508 H1500 0.950 . S
C1508 C1509 1.386 . S
C1508 C1510 1.391 . S
C1509 C1508 1.386 . S
C1509 C1513 1.393 . S
C1510 H1502 0.950 . S
C1510 C1508 1.391 . S
C1510 C1511 1.400 1_556 S
C1511 C1510 1.400 1_554 S
C1511 C1512 1.398 . S
C1511 C1517 1.491 . S
C1512 H1503 0.950 . S
C1512 C1511 1.398 . S
C1512 C1513 1.391 1_554 S
C1513 H1501 0.950 1_556 S
C1513 C1509 1.393 . S
C1513 C1512 1.391 1_556 S
C1514 H1504 0.948 1_565 S
C1514 C1515 1.382 1_565 S
C1514 C1516 1.397 . S
C1515 C1514 1.382 1_545 S
C1515 C1519 1.393 . S
C1516 H1505 0.950 . S
C1516 C1514 1.397 . S
C1516 C1517 1.400 . S
C1517 C1511 1.491 . S
C1517 C1516 1.400 . S
C1517 C1518 1.398 . S
C1518 H1506 0.950 . S
C1518 C1517 1.398 . S
C1518 C1519 1.391 1_565 S
C1519 H1507 0.950 . S
C1519 C1515 1.393 . S
C1519 C1518 1.391 1_545 S
H1520 C1528 0.950 . S
H1521 C1533 0.950 . S
H1522 C1530 0.950 . S
H1523 C1532 0.950 . S
H1524 C1534 0.950 . S
H1525 C1536 0.950 . S
H1526 C1538 0.950 . S
H1527 C1539 0.950 . S
C1528 H1520 0.950 . S
C1528 C1529 1.386 . S
C1528 C1530 1.391 . S
C1529 C1528 1.386 . S
C1529 C1533 1.393 . S
C1530 H1522 0.950 . S
C1530 C1528 1.391 . S
C1530 C1531 1.400 . S
C1531 C1530 1.400 . S
C1531 C1532 1.398 . S
C1531 C1537 1.491 . S
C1532 H1523 0.950 . S
C1532 C1531 1.398 . S
C1532 C1533 1.391 . S
C1533 H1521 0.950 . S
C1533 C1529 1.393 . S
C1533 C1532 1.391 . S
C1534 H1524 0.950 . S
C1534 C1535 1.386 . S
C1534 C1536 1.391 . S
C1535 C1534 1.386 . S
C1535 C1539 1.393 . S
C1536 H1525 0.950 . S
C1536 C1534 1.391 . S
C1536 C1537 1.400 . S
C1537 C1531 1.491 . S
C1537 C1536 1.400 . S
C1537 C1538 1.398 . S
C1538 H1526 0.950 . S
C1538 C1537 1.398 . S
C1538 C1539 1.391 . S
C1539 H1527 0.950 . S
C1539 C1535 1.393 . S
C1539 C1538 1.391 . S
H1540 C1548 0.950 . S
H1541 C1553 0.950 . S
H1542 C1550 0.950 . S
H1543 C1552 0.950 . S
H1544 C1554 0.950 . S
H1545 C1556 0.940 1_565 S
H1546 C1558 0.950 . S
H1547 C1559 0.950 . S
C1548 H1540 0.950 . S
C1548 C1549 1.386 . S
C1548 C1550 1.391 . S
C1549 C1548 1.386 . S
C1549 C1553 1.393 . S
C1550 H1542 0.950 . S
C1550 C1548 1.391 . S
C1550 C1551 1.400 . S
C1551 C1550 1.400 . S
C1551 C1552 1.398 . S
C1551 C1557 1.491 . S
C1552 H1543 0.950 . S
C1552 C1551 1.398 . S
C1552 C1553 1.391 . S
C1553 H1541 0.950 . S
C1553 C1549 1.393 . S
C1553 C1552 1.391 . S
C1554 H1544 0.950 . S
C1554 C1555 1.386 . S
C1554 C1556 1.359 1_565 S
C1555 C1554 1.386 . S
C1555 C1559 1.393 1_565 S
C1556 H1545 0.940 1_545 S
C1556 C1554 1.359 1_545 S
C1556 C1557 1.443 . S
C1557 C1551 1.491 . S
C1557 C1556 1.443 . S
C1557 C1558 1.398 . S
C1558 H1546 0.950 . S
C1558 C1557 1.398 . S
C1558 C1559 1.391 . S
C1559 H1547 0.950 . S
C1559 C1555 1.393 1_545 S
C1559 C1558 1.391 . S
H1560 C1568 0.950 . S
H1561 C1573 0.950 . S
H1562 C1570 0.950 . S
H1563 C1572 0.950 . S
H1564 C1574 0.950 . S
H1565 C1576 0.950 . S
H1566 C1578 0.950 . S
H1567 C1579 0.950 . S
C1568 H1560 0.950 . S
C1568 C1569 1.386 . S
C1568 C1570 1.391 . S
C1569 C1568 1.386 . S
C1569 C1573 1.393 . S
C1570 H1562 0.950 . S
C1570 C1568 1.391 . S
C1570 C1571 1.400 . S
C1571 C1570 1.400 . S
C1571 C1572 1.398 . S
C1571 C1577 1.491 . S
C1572 H1563 0.950 . S
C1572 C1571 1.398 . S
C1572 C1573 1.391 . S
C1573 H1561 0.950 . S
C1573 C1569 1.393 . S
C1573 C1572 1.391 . S
C1574 H1564 0.950 . S
C1574 C1575 1.386 . S
C1574 C1576 1.391 . S
C1575 C1574 1.386 . S
C1575 C1579 1.393 . S
C1576 H1565 0.950 . S
C1576 C1574 1.391 . S
C1576 C1577 1.400 . S
C1577 C1571 1.491 . S
C1577 C1576 1.400 . S
C1577 C1578 1.398 . S
C1578 H1566 0.950 . S
C1578 C1577 1.398 . S
C1578 C1579 1.391 . S
C1579 H1567 0.950 . S
C1579 C1575 1.393 . S
C1579 C1578 1.391 . S
H1580 C1588 0.950 . S
H1581 C1593 0.960 . S
H1582 C1590 0.950 . S
H1583 C1592 0.950 . S
H1584 C1594 0.950 . S
H1585 C1596 0.950 . S
H1586 C1598 0.950 . S
H1587 C1599 0.950 . S
C1588 H1580 0.950 . S
C1588 C1589 1.386 . S
C1588 C1590 1.391 1_545 S
C1589 C1588 1.386 . S
C1589 C1593 1.411 . S
C1590 H1582 0.950 . S
C1590 C1588 1.391 1_565 S
C1590 C1591 1.400 . S
C1591 C1590 1.400 . S
C1591 C1592 1.398 . S
C1591 C1597 1.491 . S
C1592 H1583 0.950 . S
C1592 C1591 1.398 . S
C1592 C1593 1.363 1_565 S
C1593 H1581 0.960 . S
C1593 C1589 1.411 . S
C1593 C1592 1.363 1_545 S
C1594 H1584 0.950 . S
C1594 C1595 1.386 . S
C1594 C1596 1.391 1_554 S
C1595 C1594 1.386 . S
C1595 C1599 1.393 . S
C1596 H1585 0.950 . S
C1596 C1594 1.391 1_556 S
C1596 C1597 1.400 . S
C1597 C1591 1.491 . S
C1597 C1596 1.400 . S
C1597 C1598 1.398 1_556 S
C1598 H1586 0.950 . S
C1598 C1597 1.398 1_554 S
C1598 C1599 1.391 . S
C1599 H1587 0.950 . S
C1599 C1595 1.393 . S
C1599 C1598 1.391 . S
H1600 C1608 0.950 . S
H1601 C1613 0.950 . S
H1602 C1610 0.950 . S
H1603 C1612 0.950 . S
H1604 C1614 0.950 . S
H1605 C1616 0.950 . S
H1606 C1618 0.950 . S
H1607 C1619 0.950 . S
C1608 H1600 0.950 . S
C1608 C1609 1.386 . S
C1608 C1610 1.391 . S
C1609 C1608 1.386 . S
C1609 C1613 1.393 . S
C1610 H1602 0.950 . S
C1610 C1608 1.391 . S
C1610 C1611 1.400 . S
C1611 C1610 1.400 . S
C1611 C1612 1.398 . S
C1611 C1617 1.491 . S
C1612 H1603 0.950 . S
C1612 C1611 1.398 . S
C1612 C1613 1.391 . S
C1613 H1601 0.950 . S
C1613 C1609 1.393 . S
C1613 C1612 1.391 . S
C1614 H1604 0.950 . S
C1614 C1615 1.386 . S
C1614 C1616 1.391 . S
C1615 C1614 1.386 . S
C1615 C1619 1.393 . S
C1616 H1605 0.950 . S
C1616 C1614 1.391 . S
C1616 C1617 1.400 . S
C1617 C1611 1.491 . S
C1617 C1616 1.400 . S
C1617 C1618 1.398 . S
C1618 H1606 0.950 . S
C1618 C1617 1.398 . S
C1618 C1619 1.391 . S
C1619 H1607 0.950 . S
C1619 C1615 1.393 . S
C1619 C1618 1.391 . S
H1620 C1628 0.950 . S
H1621 C1633 0.950 . S
H1622 C1630 0.950 . S
H1623 C1632 0.950 . S
H1624 C1634 0.950 . S
H1625 C1636 0.950 1_556 S
H1626 C1638 0.950 . S
H1627 C1639 0.950 . S
C1628 H1620 0.950 . S
C1628 C1629 1.386 . S
C1628 C1630 1.391 . S
C1629 C1628 1.386 . S
C1629 C1633 1.393 . S
C1630 H1622 0.950 . S
C1630 C1628 1.391 . S
C1630 C1631 1.400 . S
C1631 C1630 1.400 . S
C1631 C1632 1.398 . S
C1631 C1637 1.491 . S
C1632 H1623 0.950 . S
C1632 C1631 1.398 . S
C1632 C1633 1.391 . S
C1633 H1621 0.950 . S
C1633 C1629 1.393 . S
C1633 C1632 1.391 . S
C1634 H1624 0.950 . S
C1634 C1635 1.386 . S
C1634 C1636 1.391 . S
C1635 C1634 1.386 . S
C1635 C1639 1.393 . S
C1636 H1625 0.950 1_554 S
C1636 C1634 1.391 . S
C1636 C1637 1.400 1_554 S
C1637 C1631 1.491 . S
C1637 C1636 1.400 1_556 S
C1637 C1638 1.398 . S
C1638 H1626 0.950 . S
C1638 C1637 1.398 . S
C1638 C1639 1.391 1_556 S
C1639 H1627 0.950 . S
C1639 C1635 1.393 . S
C1639 C1638 1.391 1_554 S
H1640 C1648 0.950 . S
H1641 C1653 0.950 . S
H1642 C1650 0.950 . S
H1643 C1652 0.950 . S
H1644 C1654 0.950 . S
H1645 C1656 0.950 . S
H1646 C1658 0.950 . S
H1647 C1659 0.950 . S
C1648 H1640 0.950 . S
C1648 C1649 1.386 . S
C1648 C1650 1.391 . S
C1649 C1648 1.386 . S
C1649 C1653 1.393 . S
C1650 H1642 0.950 . S
C1650 C1648 1.391 . S
C1650 C1651 1.400 . S
C1651 C1650 1.400 . S
C1651 C1652 1.398 . S
C1651 C1657 1.491 . S
C1652 H1643 0.950 . S
C1652 C1651 1.398 . S
C1652 C1653 1.391 . S
C1653 H1641 0.950 . S
C1653 C1649 1.393 . S
C1653 C1652 1.391 . S
C1654 H1644 0.950 . S
C1654 C1655 1.386 . S
C1654 C1656 1.391 . S
C1655 C1654 1.386 . S
C1655 C1659 1.393 . S
C1656 H1645 0.950 . S
C1656 C1654 1.391 . S
C1656 C1657 1.400 . S
C1657 C1651 1.491 . S
C1657 C1656 1.400 . S
C1657 C1658 1.398 . S
C1658 H1646 0.950 . S
C1658 C1657 1.398 . S
C1658 C1659 1.391 . S
C1659 H1647 0.950 . S
C1659 C1655 1.393 . S
C1659 C1658 1.391 . S
H1660 C1668 0.950 . S
H1661 C1673 0.950 . S
H1662 C1670 0.950 . S
H1663 C1672 0.950 . S
H1664 C1674 0.950 . S
H1665 C1676 0.950 . S
H1666 C1678 0.950 . S
H1667 C1679 0.950 . S
C1668 H1660 0.950 . S
C1668 C1669 1.386 . S
C1668 C1670 1.391 . S
C1669 C1668 1.386 . S
C1669 C1673 1.393 . S
C1670 H1662 0.950 . S
C1670 C1668 1.391 . S
C1670 C1671 1.400 . S
C1671 C1670 1.400 . S
C1671 C1672 1.398 . S
C1671 C1677 1.491 . S
C1672 H1663 0.950 . S
C1672 C1671 1.398 . S
C1672 C1673 1.391 . S
C1673 H1661 0.950 . S
C1673 C1669 1.393 . S
C1673 C1672 1.391 . S
C1674 H1664 0.950 . S
C1674 C1675 1.386 . S
C1674 C1676 1.391 . S
C1675 C1674 1.386 . S
C1675 C1679 1.393 . S
C1676 H1665 0.950 . S
C1676 C1674 1.391 . S
C1676 C1677 1.400 . S
C1677 C1671 1.491 . S
C1677 C1676 1.400 . S
C1677 C1678 1.398 . S
C1678 H1666 0.950 . S
C1678 C1677 1.398 . S
C1678 C1679 1.391 . S
C1679 H1667 0.950 . S
C1679 C1675 1.393 . S
C1679 C1678 1.391 . S
H1680 C1688 0.950 . S
H1681 C1693 0.950 . S
H1682 C1690 0.950 . S
H1683 C1692 0.950 . S
H1684 C1694 0.950 . S
H1685 C1696 0.950 . S
H1686 C1698 0.950 . S
H1687 C1699 0.950 . S
C1688 H1680 0.950 . S
C1688 C1689 1.386 . S
C1688 C1690 1.391 . S
C1689 C1688 1.386 . S
C1689 C1693 1.393 . S
C1690 H1682 0.950 . S
C1690 C1688 1.391 . S
C1690 C1691 1.400 . S
C1691 C1690 1.400 . S
C1691 C1692 1.398 . S
C1691 C1697 1.491 . S
C1692 H1683 0.950 . S
C1692 C1691 1.398 . S
C1692 C1693 1.391 . S
C1693 H1681 0.950 . S
C1693 C1689 1.393 . S
C1693 C1692 1.391 . S
C1694 H1684 0.950 . S
C1694 C1695 1.386 . S
C1694 C1696 1.391 . S
C1695 C1694 1.386 . S
C1695 C1699 1.393 . S
C1696 H1685 0.950 . S
C1696 C1694 1.391 . S
C1696 C1697 1.400 . S
C1697 C1691 1.491 . S
C1697 C1696 1.400 . S
C1697 C1698 1.398 . S
C1698 H1686 0.950 . S
C1698 C1697 1.398 . S
C1698 C1699 1.391 . S
C1699 H1687 0.950 . S
C1699 C1695 1.393 . S
C1699 C1698 1.391 . S
H1700 C1708 0.950 . S
H1701 C1713 0.950 . S
H1702 C1710 0.950 . S
H1703 C1712 0.950 . S
H1704 C1714 0.950 . S
H1705 C1716 0.950 . S
H1706 C1718 0.950 . S
H1707 C1719 0.953 . S
C1708 H1700 0.950 . S
C1708 C1709 1.386 . S
C1708 C1710 1.391 . S
C1709 C1708 1.386 . S
C1709 C1713 1.393 . S
C1710 H1702 0.950 . S
C1710 C1708 1.391 . S
C1710 C1711 1.400 . S
C1711 C1710 1.400 . S
C1711 C1712 1.398 . S
C1711 C1717 1.491 . S
C1712 H1703 0.950 . S
C1712 C1711 1.398 . S
C1712 C1713 1.391 . S
C1713 H1701 0.950 . S
C1713 C1709 1.393 . S
C1713 C1712 1.391 . S
C1714 H1704 0.950 . S
C1714 C1715 1.386 . S
C1714 C1716 1.391 . S
C1715 C1714 1.386 . S
C1715 C1719 1.393 . S
C1716 H1705 0.950 . S
C1716 C1714 1.391 . S
C1716 C1717 1.400 1_556 S
C1717 C1711 1.491 . S
C1717 C1716 1.400 1_554 S
C1717 C1718 1.398 . S
C1718 H1706 0.950 . S
C1718 C1717 1.398 . S
C1718 C1719 1.391 1_554 S
C1719 H1707 0.953 . S
C1719 C1715 1.393 . S
C1719 C1718 1.391 1_556 S
H1720 C1728 0.950 . S
H1721 C1733 0.950 . S
H1722 C1730 0.950 . S
H1723 C1732 0.950 . S
H1724 C1734 0.950 . S
H1725 C1736 0.950 . S
H1726 C1738 0.950 . S
H1727 C1739 0.950 . S
C1728 H1720 0.950 . S
C1728 C1729 1.386 . S
C1728 C1730 1.391 . S
C1729 C1728 1.386 . S
C1729 C1733 1.393 . S
C1730 H1722 0.950 . S
C1730 C1728 1.391 . S
C1730 C1731 1.400 . S
C1731 C1730 1.400 . S
C1731 C1732 1.398 . S
C1731 C1737 1.491 . S
C1732 H1723 0.950 . S
C1732 C1731 1.398 . S
C1732 C1733 1.391 . S
C1733 H1721 0.950 . S
C1733 C1729 1.393 . S
C1733 C1732 1.391 . S
C1734 H1724 0.950 . S
C1734 C1735 1.386 . S
C1734 C1736 1.391 . S
C1735 C1734 1.386 . S
C1735 C1739 1.393 . S
C1736 H1725 0.950 . S
C1736 C1734 1.391 . S
C1736 C1737 1.400 . S
C1737 C1731 1.491 . S
C1737 C1736 1.400 . S
C1737 C1738 1.398 . S
C1738 H1726 0.950 . S
C1738 C1737 1.398 . S
C1738 C1739 1.391 . S
C1739 H1727 0.950 . S
C1739 C1735 1.393 . S
C1739 C1738 1.391 . S
H1740 C1748 0.950 . S
H1741 C1753 0.950 . S
H1742 C1750 0.950 . S
H1743 C1752 0.950 . S
H1744 C1754 0.950 . S
H1745 C1756 0.950 . S
H1746 C1758 0.950 . S
H1747 C1759 0.950 . S
C1748 H1740 0.950 . S
C1748 C1749 1.386 . S
C1748 C1750 1.391 . S
C1749 C1748 1.386 . S
C1749 C1753 1.393 . S
C1750 H1742 0.950 . S
C1750 C1748 1.391 . S
C1750 C1751 1.400 . S
C1751 C1750 1.400 . S
C1751 C1752 1.398 . S
C1751 C1757 1.491 . S
C1752 H1743 0.950 . S
C1752 C1751 1.398 . S
C1752 C1753 1.391 . S
C1753 H1741 0.950 . S
C1753 C1749 1.393 . S
C1753 C1752 1.391 . S
C1754 H1744 0.950 . S
C1754 C1755 1.386 . S
C1754 C1756 1.391 . S
C1755 C1754 1.386 . S
C1755 C1759 1.393 . S
C1756 H1745 0.950 . S
C1756 C1754 1.391 . S
C1756 C1757 1.400 . S
C1757 C1751 1.491 . S
C1757 C1756 1.400 . S
C1757 C1758 1.398 . S
C1758 H1746 0.950 . S
C1758 C1757 1.398 . S
C1758 C1759 1.391 . S
C1759 H1747 0.950 . S
C1759 C1755 1.393 . S
C1759 C1758 1.391 . S
H1760 C1768 0.950 . S
H1761 C1773 0.950 . S
H1762 C1770 0.950 . S
H1763 C1772 0.950 . S
H1764 C1774 0.950 . S
H1765 C1776 0.950 . S
H1766 C1778 0.950 . S
H1767 C1779 0.950 . S
C1768 H1760 0.950 . S
C1768 C1769 1.386 . S
C1768 C1770 1.391 . S
C1769 C1768 1.386 . S
C1769 C1773 1.393 . S
C1770 H1762 0.950 . S
C1770 C1768 1.391 . S
C1770 C1771 1.400 . S
C1771 C1770 1.400 . S
C1771 C1772 1.398 . S
C1771 C1777 1.491 . S
C1772 H1763 0.950 . S
C1772 C1771 1.398 . S
C1772 C1773 1.391 . S
C1773 H1761 0.950 . S
C1773 C1769 1.393 . S
C1773 C1772 1.391 . S
C1774 H1764 0.950 . S
C1774 C1775 1.386 . S
C1774 C1776 1.391 . S
C1775 C1774 1.386 . S
C1775 C1779 1.393 . S
C1776 H1765 0.950 . S
C1776 C1774 1.391 . S
C1776 C1777 1.400 . S
C1777 C1771 1.491 . S
C1777 C1776 1.400 . S
C1777 C1778 1.398 . S
C1778 H1766 0.950 . S
C1778 C1777 1.398 . S
C1778 C1779 1.391 . S
C1779 H1767 0.950 . S
C1779 C1775 1.393 . S
C1779 C1778 1.391 . S
H1780 C1788 0.950 . S
H1781 C1793 0.950 . S
H1782 C1790 0.950 . S
H1783 C1792 0.950 . S
H1784 C1794 0.950 . S
H1785 C1796 0.950 . S
H1786 C1798 0.950 . S
H1787 C1799 0.950 . S
C1788 H1780 0.950 . S
C1788 C1789 1.386 . S
C1788 C1790 1.391 . S
C1789 C1788 1.386 . S
C1789 C1793 1.393 . S
C1790 H1782 0.950 . S
C1790 C1788 1.391 . S
C1790 C1791 1.400 . S
C1791 C1790 1.400 . S
C1791 C1792 1.398 . S
C1791 C1797 1.491 . S
C1792 H1783 0.950 . S
C1792 C1791 1.398 . S
C1792 C1793 1.391 . S
C1793 H1781 0.950 . S
C1793 C1789 1.393 . S
C1793 C1792 1.391 . S
C1794 H1784 0.950 . S
C1794 C1795 1.386 . S
C1794 C1796 1.391 1_556 S
C1795 C1794 1.386 . S
C1795 C1799 1.393 . S
C1796 H1785 0.950 . S
C1796 C1794 1.391 1_554 S
C1796 C1797 1.400 . S
C1797 C1791 1.491 . S
C1797 C1796 1.400 . S
C1797 C1798 1.398 . S
C1798 H1786 0.950 . S
C1798 C1797 1.398 . S
C1798 C1799 1.391 1_554 S
C1799 H1787 0.950 . S
C1799 C1795 1.393 . S
C1799 C1798 1.391 1_556 S
H1800 C1808 0.950 . S
H1801 C1813 0.950 . S
H1802 C1810 0.950 . S
H1803 C1812 0.950 . S
H1804 C1814 0.950 . S
H1805 C1816 0.950 . S
H1806 C1818 0.950 . S
H1807 C1819 0.950 . S
C1808 H1800 0.950 . S
C1808 C1809 1.386 . S
C1808 C1810 1.391 . S
C1809 C1808 1.386 . S
C1809 C1813 1.393 . S
C1810 H1802 0.950 . S
C1810 C1808 1.391 . S
C1810 C1811 1.400 . S
C1811 C1810 1.400 . S
C1811 C1812 1.398 . S
C1811 C1817 1.491 . S
C1812 H1803 0.950 . S
C1812 C1811 1.398 . S
C1812 C1813 1.391 . S
C1813 H1801 0.950 . S
C1813 C1809 1.393 . S
C1813 C1812 1.391 . S
C1814 H1804 0.950 . S
C1814 C1815 1.386 . S
C1814 C1816 1.391 . S
C1815 C1814 1.386 . S
C1815 C1819 1.393 . S
C1816 H1805 0.950 . S
C1816 C1814 1.391 . S
C1816 C1817 1.400 . S
C1817 C1811 1.491 . S
C1817 C1816 1.400 . S
C1817 C1818 1.398 . S
C1818 H1806 0.950 . S
C1818 C1817 1.398 . S
C1818 C1819 1.391 . S
C1819 H1807 0.950 . S
C1819 C1815 1.393 . S
C1819 C1818 1.391 . S
H1820 C1828 0.950 . S
H1821 C1833 0.950 . S
H1822 C1830 0.950 . S
H1823 C1832 0.950 . S
H1824 C1834 0.950 . S
H1825 C1836 0.950 . S
H1826 C1838 0.950 . S
H1827 C1839 0.950 . S
C1828 H1820 0.950 . S
C1828 C1829 1.386 . S
C1828 C1830 1.391 . S
C1829 C1828 1.386 . S
C1829 C1833 1.393 . S
C1830 H1822 0.950 . S
C1830 C1828 1.391 . S
C1830 C1831 1.400 . S
C1831 C1830 1.400 . S
C1831 C1832 1.398 . S
C1831 C1837 1.491 . S
C1832 H1823 0.950 . S
C1832 C1831 1.398 . S
C1832 C1833 1.391 . S
C1833 H1821 0.950 . S
C1833 C1829 1.393 . S
C1833 C1832 1.391 . S
C1834 H1824 0.950 . S
C1834 C1835 1.386 . S
C1834 C1836 1.391 . S
C1835 C1834 1.386 . S
C1835 C1839 1.393 . S
C1836 H1825 0.950 . S
C1836 C1834 1.391 . S
C1836 C1837 1.400 . S
C1837 C1831 1.491 . S
C1837 C1836 1.400 . S
C1837 C1838 1.398 . S
C1838 H1826 0.950 . S
C1838 C1837 1.398 . S
C1838 C1839 1.391 . S
C1839 H1827 0.950 . S
C1839 C1835 1.393 . S
C1839 C1838 1.391 . S
H1840 C1848 0.950 . S
H1841 C1853 0.950 . S
H1842 C1850 0.950 . S
H1843 C1852 0.950 . S
H1844 C1854 0.950 . S
H1845 C1856 0.950 . S
H1846 C1858 0.950 . S
H1847 C1859 0.950 . S
C1848 H1840 0.950 . S
C1848 C1849 1.386 . S
C1848 C1850 1.391 . S
C1849 C1848 1.386 . S
C1849 C1853 1.393 . S
C1850 H1842 0.950 . S
C1850 C1848 1.391 . S
C1850 C1851 1.400 . S
C1851 C1850 1.400 . S
C1851 C1852 1.398 . S
C1851 C1857 1.491 . S
C1852 H1843 0.950 . S
C1852 C1851 1.398 . S
C1852 C1853 1.391 . S
C1853 H1841 0.950 . S
C1853 C1849 1.393 . S
C1853 C1852 1.391 . S
C1854 H1844 0.950 . S
C1854 C1855 1.386 . S
C1854 C1856 1.391 . S
C1855 C1854 1.386 . S
C1855 C1859 1.393 . S
C1856 H1845 0.950 . S
C1856 C1854 1.391 . S
C1856 C1857 1.400 . S
C1857 C1851 1.491 . S
C1857 C1856 1.400 . S
C1857 C1858 1.398 . S
C1858 H1846 0.950 . S
C1858 C1857 1.398 . S
C1858 C1859 1.391 . S
C1859 H1847 0.950 . S
C1859 C1855 1.393 . S
C1859 C1858 1.391 . S
H1860 C1868 0.950 . S
H1861 C1873 0.950 . S
H1862 C1870 0.950 . S
H1863 C1872 0.950 . S
H1864 C1874 0.950 . S
H1865 C1876 0.950 . S
H1866 C1878 0.950 . S
H1867 C1879 0.950 . S
C1868 H1860 0.950 . S
C1868 C1869 1.386 . S
C1868 C1870 1.391 . S
C1869 C1868 1.386 . S
C1869 C1873 1.393 . S
C1870 H1862 0.950 . S
C1870 C1868 1.391 . S
C1870 C1871 1.400 . S
C1871 C1870 1.400 . S
C1871 C1872 1.398 . S
C1871 C1877 1.491 . S
C1872 H1863 0.950 . S
C1872 C1871 1.398 . S
C1872 C1873 1.391 . S
C1873 H1861 0.950 . S
C1873 C1869 1.393 . S
C1873 C1872 1.391 . S
C1874 H1864 0.950 . S
C1874 C1875 1.386 . S
C1874 C1876 1.391 . S
C1875 C1874 1.386 . S
C1875 C1879 1.393 . S
C1876 H1865 0.950 . S
C1876 C1874 1.391 . S
C1876 C1877 1.400 1_554 S
C1877 C1871 1.491 . S
C1877 C1876 1.400 1_556 S
C1877 C1878 1.398 . S
C1878 H1866 0.950 . S
C1878 C1877 1.398 . S
C1878 C1879 1.391 1_556 S
C1879 H1867 0.950 . S
C1879 C1875 1.393 . S
C1879 C1878 1.391 1_554 S
H1880 C1888 0.950 . S
H1881 C1893 0.950 . S
H1882 C1890 0.950 . S
H1883 C1892 0.950 . S
H1884 C1894 0.950 . S
H1885 C1896 0.950 . S
H1886 C1898 0.950 . S
H1887 C1899 0.950 . S
C1888 H1880 0.950 . S
C1888 C1889 1.386 . S
C1888 C1890 1.391 . S
C1889 C1888 1.386 . S
C1889 C1893 1.393 . S
C1890 H1882 0.950 . S
C1890 C1888 1.391 . S
C1890 C1891 1.400 . S
C1891 C1890 1.400 . S
C1891 C1892 1.398 . S
C1891 C1897 1.491 . S
C1892 H1883 0.950 . S
C1892 C1891 1.398 . S
C1892 C1893 1.391 . S
C1893 H1881 0.950 . S
C1893 C1889 1.393 . S
C1893 C1892 1.391 . S
C1894 H1884 0.950 . S
C1894 C1895 1.386 . S
C1894 C1896 1.391 . S
C1895 C1894 1.386 . S
C1895 C1899 1.393 . S
C1896 H1885 0.950 . S
C1896 C1894 1.391 . S
C1896 C1897 1.400 . S
C1897 C1891 1.491 . S
C1897 C1896 1.400 . S
C1897 C1898 1.398 . S
C1898 H1886 0.950 . S
C1898 C1897 1.398 . S
C1898 C1899 1.391 . S
C1899 H1887 0.950 . S
C1899 C1895 1.393 . S
C1899 C1898 1.391 . S
H1900 C1908 0.950 . S
H1901 C1913 0.950 . S
H1902 C1910 0.950 . S
H1903 C1912 0.950 . S
H1904 C1914 0.950 . S
H1905 C1916 0.950 . S
H1906 C1918 0.950 . S
H1907 C1919 0.950 . S
C1908 H1900 0.950 . S
C1908 C1909 1.386 . S
C1908 C1910 1.391 . S
C1909 C1908 1.386 . S
C1909 C1913 1.393 . S
C1910 H1902 0.950 . S
C1910 C1908 1.391 . S
C1910 C1911 1.400 . S
C1911 C1910 1.400 . S
C1911 C1912 1.398 . S
C1911 C1917 1.491 . S
C1912 H1903 0.950 . S
C1912 C1911 1.398 . S
C1912 C1913 1.391 . S
C1913 H1901 0.950 . S
C1913 C1909 1.393 . S
C1913 C1912 1.391 . S
C1914 H1904 0.950 . S
C1914 C1915 1.386 . S
C1914 C1916 1.391 . S
C1915 C1914 1.386 . S
C1915 C1919 1.393 . S
C1916 H1905 0.950 . S
C1916 C1914 1.391 . S
C1916 C1917 1.400 . S
C1917 C1911 1.491 . S
C1917 C1916 1.400 . S
C1917 C1918 1.398 . S
C1918 H1906 0.950 . S
C1918 C1917 1.398 . S
C1918 C1919 1.391 . S
C1919 H1907 0.950 . S
C1919 C1915 1.393 . S
C1919 C1918 1.391 . S
H1920 C1928 0.950 . S
H1921 C1933 0.950 . S
H1922 C1930 0.950 . S
H1923 C1932 0.950 . S
H1924 C1934 0.950 . S
H1925 C1936 0.950 . S
H1926 C1938 0.950 . S
H1927 C1939 0.950 . S
C1928 H1920 0.950 . S
C1928 C1929 1.386 . S
C1928 C1930 1.391 . S
C1929 C1928 1.386 . S
C1929 C1933 1.393 . S
C1930 H1922 0.950 . S
C1930 C1928 1.391 . S
C1930 C1931 1.400 . S
C1931 C1930 1.400 . S
C1931 C1932 1.398 . S
C1931 C1937 1.491 . S
C1932 H1923 0.950 . S
C1932 C1931 1.398 . S
C1932 C1933 1.391 . S
C1933 H1921 0.950 . S
C1933 C1929 1.393 . S
C1933 C1932 1.391 . S
C1934 H1924 0.950 . S
C1934 C1935 1.386 . S
C1934 C1936 1.391 . S
C1935 C1934 1.386 . S
C1935 C1939 1.393 . S
C1936 H1925 0.950 . S
C1936 C1934 1.391 . S
C1936 C1937 1.400 . S
C1937 C1931 1.491 . S
C1937 C1936 1.400 . S
C1937 C1938 1.398 . S
C1938 H1926 0.950 . S
C1938 C1937 1.398 . S
C1938 C1939 1.391 . S
C1939 H1927 0.950 . S
C1939 C1935 1.393 . S
C1939 C1938 1.391 . S
H1940 C1948 0.950 . S
H1941 C1953 0.950 . S
H1942 C1950 0.950 . S
H1943 C1952 0.950 . S
H1944 C1954 0.950 . S
H1945 C1956 0.950 1_455 S
H1946 C1958 0.950 . S
H1947 C1959 0.950 . S
C1948 H1940 0.950 . S
C1948 C1949 1.386 . S
C1948 C1950 1.391 . S
C1949 C1948 1.386 . S
C1949 C1953 1.393 . S
C1950 H1942 0.950 . S
C1950 C1948 1.391 . S
C1950 C1951 1.400 . S
C1951 C1950 1.400 . S
C1951 C1952 1.398 . S
C1951 C1957 1.491 . S
C1952 H1943 0.950 . S
C1952 C1951 1.398 . S
C1952 C1953 1.391 . S
C1953 H1941 0.950 . S
C1953 C1949 1.393 . S
C1953 C1952 1.391 . S
C1954 H1944 0.950 . S
C1954 C1955 1.386 . S
C1954 C1956 1.391 . S
C1955 C1954 1.386 . S
C1955 C1959 1.393 . S
C1956 H1945 0.950 1_655 S
C1956 C1954 1.391 . S
C1956 C1957 1.400 1_655 S
C1957 C1951 1.491 . S
C1957 C1956 1.400 1_455 S
C1957 C1958 1.398 . S
C1958 H1946 0.950 . S
C1958 C1957 1.398 . S
C1958 C1959 1.391 1_455 S
C1959 H1947 0.950 . S
C1959 C1955 1.393 . S
C1959 C1958 1.391 1_655 S
H1960 C1968 0.950 . S
H1961 C1973 0.950 . S
H1962 C1970 0.950 . S
H1963 C1972 0.950 . S
H1964 C1974 0.950 . S
H1965 C1976 0.950 . S
H1966 C1978 0.950 . S
H1967 C1979 0.950 . S
C1968 H1960 0.950 . S
C1968 C1969 1.386 . S
C1968 C1970 1.391 . S
C1969 C1968 1.386 . S
C1969 C1973 1.393 . S
C1970 H1962 0.950 . S
C1970 C1968 1.391 . S
C1970 C1971 1.400 . S
C1971 C1970 1.400 . S
C1971 C1972 1.398 . S
C1971 C1977 1.491 . S
C1972 H1963 0.950 . S
C1972 C1971 1.398 . S
C1972 C1973 1.391 . S
C1973 H1961 0.950 . S
C1973 C1969 1.393 . S
C1973 C1972 1.391 . S
C1974 H1964 0.950 . S
C1974 C1975 1.386 . S
C1974 C1976 1.391 . S
C1975 C1974 1.386 . S
C1975 C1979 1.393 . S
C1976 H1965 0.950 . S
C1976 C1974 1.391 . S
C1976 C1977 1.400 . S
C1977 C1971 1.491 . S
C1977 C1976 1.400 . S
C1977 C1978 1.398 . S
C1978 H1966 0.950 . S
C1978 C1977 1.398 . S
C1978 C1979 1.391 . S
C1979 H1967 0.950 . S
C1979 C1975 1.393 . S
C1979 C1978 1.391 . S
H1980 C1988 0.950 . S
H1981 C1993 0.950 . S
H1982 C1990 0.950 . S
H1983 C1992 0.950 . S
H1984 C1994 0.950 . S
H1985 C1996 0.950 . S
H1986 C1998 0.950 . S
H1987 C1999 0.950 . S
C1988 H1980 0.950 . S
C1988 C1989 1.386 . S
C1988 C1990 1.391 . S
C1989 C1988 1.386 . S
C1989 C1993 1.393 . S
C1990 H1982 0.950 . S
C1990 C1988 1.391 . S
C1990 C1991 1.400 . S
C1991 C1990 1.400 . S
C1991 C1992 1.398 . S
C1991 C1997 1.491 . S
C1992 H1983 0.950 . S
C1992 C1991 1.398 . S
C1992 C1993 1.391 . S
C1993 H1981 0.950 . S
C1993 C1989 1.393 . S
C1993 C1992 1.391 . S
C1994 H1984 0.950 . S
C1994 C1995 1.386 . S
C1994 C1996 1.391 . S
C1995 C1994 1.386 . S
C1995 C1999 1.393 . S
C1996 H1985 0.950 . S
C1996 C1994 1.391 . S
C1996 C1997 1.400 . S
C1997 C1991 1.491 . S
C1997 C1996 1.400 . S
C1997 C1998 1.398 . S
C1998 H1986 0.950 . S
C1998 C1997 1.398 . S
C1998 C1999 1.391 . S
C1999 H1987 0.950 . S
C1999 C1995 1.393 . S
C1999 C1998 1.391 . S
H2000 C2008 0.950 . S
H2001 C2013 0.950 . S
H2002 C2010 0.950 . S
H2003 C2012 0.950 . S
H2004 C2014 0.950 . S
H2005 C2016 0.950 . S
H2006 C2018 0.950 . S
H2007 C2019 0.950 . S
C2008 H2000 0.950 . S
C2008 C2009 1.386 . S
C2008 C2010 1.391 . S
C2009 C2008 1.386 . S
C2009 C2013 1.393 . S
C2010 H2002 0.950 . S
C2010 C2008 1.391 . S
C2010 C2011 1.400 . S
C2011 C2010 1.400 . S
C2011 C2012 1.398 . S
C2011 C2017 1.491 . S
C2012 H2003 0.950 . S
C2012 C2011 1.398 . S
C2012 C2013 1.391 . S
C2013 H2001 0.950 . S
C2013 C2009 1.393 . S
C2013 C2012 1.391 . S
C2014 H2004 0.950 . S
C2014 C2015 1.386 . S
C2014 C2016 1.391 . S
C2015 C2014 1.386 . S
C2015 C2019 1.393 . S
C2016 H2005 0.950 . S
C2016 C2014 1.391 . S
C2016 C2017 1.400 . S
C2017 C2011 1.491 . S
C2017 C2016 1.400 . S
C2017 C2018 1.398 . S
C2018 H2006 0.950 . S
C2018 C2017 1.398 . S
C2018 C2019 1.391 . S
C2019 H2007 0.950 . S
C2019 C2015 1.393 . S
C2019 C2018 1.391 . S
H2020 C2028 0.950 . S
H2021 C2033 0.950 . S
H2022 C2030 0.950 . S
H2023 C2032 0.950 . S
H2024 C2034 0.950 . S
H2025 C2036 0.950 . S
H2026 C2038 0.950 . S
H2027 C2039 0.950 . S
C2028 H2020 0.950 . S
C2028 C2029 1.386 . S
C2028 C2030 1.391 . S
C2029 C2028 1.386 . S
C2029 C2033 1.393 . S
C2030 H2022 0.950 . S
C2030 C2028 1.391 . S
C2030 C2031 1.400 . S
C2031 C2030 1.400 . S
C2031 C2032 1.398 . S
C2031 C2037 1.491 . S
C2032 H2023 0.950 . S
C2032 C2031 1.398 . S
C2032 C2033 1.391 . S
C2033 H2021 0.950 . S
C2033 C2029 1.393 . S
C2033 C2032 1.391 . S
C2034 H2024 0.950 . S
C2034 C2035 1.386 . S
C2034 C2036 1.391 . S
C2035 C2034 1.386 . S
C2035 C2039 1.393 . S
C2036 H2025 0.950 . S
C2036 C2034 1.391 . S
C2036 C2037 1.400 . S
C2037 C2031 1.491 . S
C2037 C2036 1.400 . S
C2037 C2038 1.398 . S
C2038 H2026 0.950 . S
C2038 C2037 1.398 . S
C2038 C2039 1.391 . S
C2039 H2027 0.950 . S
C2039 C2035 1.393 . S
C2039 C2038 1.391 . S
H2040 C2048 0.950 . S
H2041 C2053 0.950 . S
H2042 C2050 0.950 . S
H2043 C2052 0.950 . S
H2044 C2054 0.950 . S
H2045 C2056 0.950 . S
H2046 C2058 0.950 . S
H2047 C2059 0.950 . S
C2048 H2040 0.950 . S
C2048 C2049 1.386 . S
C2048 C2050 1.391 . S
C2049 C2048 1.386 . S
C2049 C2053 1.393 . S
C2050 H2042 0.950 . S
C2050 C2048 1.391 . S
C2050 C2051 1.400 . S
C2051 C2050 1.400 . S
C2051 C2052 1.398 . S
C2051 C2057 1.491 . S
C2052 H2043 0.950 . S
C2052 C2051 1.398 . S
C2052 C2053 1.391 . S
C2053 H2041 0.950 . S
C2053 C2049 1.393 . S
C2053 C2052 1.391 . S
C2054 H2044 0.950 . S
C2054 C2055 1.386 . S
C2054 C2056 1.391 . S
C2055 C2054 1.386 . S
C2055 C2059 1.393 . S
C2056 H2045 0.950 . S
C2056 C2054 1.391 . S
C2056 C2057 1.400 . S
C2057 C2051 1.491 . S
C2057 C2056 1.400 . S
C2057 C2058 1.398 . S
C2058 H2046 0.950 . S
C2058 C2057 1.398 . S
C2058 C2059 1.391 . S
C2059 H2047 0.950 . S
C2059 C2055 1.393 . S
C2059 C2058 1.391 . S
H2060 C2068 0.950 . S
H2061 C2073 0.950 . S
H2062 C2070 0.950 . S
H2063 C2072 0.950 . S
H2064 C2074 0.950 . S
H2065 C2076 0.950 . S
H2066 C2078 0.950 . S
H2067 C2079 0.950 . S
C2068 H2060 0.950 . S
C2068 C2069 1.386 . S
C2068 C2070 1.391 . S
C2069 C2068 1.386 . S
C2069 C2073 1.393 . S
C2070 H2062 0.950 . S
C2070 C2068 1.391 . S
C2070 C2071 1.400 . S
C2071 C2070 1.400 . S
C2071 C2072 1.398 . S
C2071 C2077 1.491 . S
C2072 H2063 0.950 . S
C2072 C2071 1.398 . S
C2072 C2073 1.391 . S
C2073 H2061 0.950 . S
C2073 C2069 1.393 . S
C2073 C2072 1.391 . S
C2074 H2064 0.950 . S
C2074 C2075 1.386 . S
C2074 C2076 1.391 . S
C2075 C2074 1.386 . S
C2075 C2079 1.393 . S
C2076 H2065 0.950 . S
C2076 C2074 1.391 . S
C2076 C2077 1.400 1_655 S
C2077 C2071 1.491 . S
C2077 C2076 1.400 1_455 S
C2077 C2078 1.398 . S
C2078 H2066 0.950 . S
C2078 C2077 1.398 . S
C2078 C2079 1.391 1_455 S
C2079 H2067 0.950 . S
C2079 C2075 1.393 . S
C2079 C2078 1.391 1_655 S
H2080 C2088 0.950 . S
H2081 C2093 0.950 . S
H2082 C2090 0.950 . S
H2083 C2092 0.950 . S
H2084 C2094 0.950 . S
H2085 C2096 0.950 . S
H2086 C2098 0.950 . S
H2087 C2099 0.950 . S
C2088 H2080 0.950 . S
C2088 C2089 1.386 . S
C2088 C2090 1.391 . S
C2089 C2088 1.386 . S
C2089 C2093 1.393 . S
C2090 H2082 0.950 . S
C2090 C2088 1.391 . S
C2090 C2091 1.400 . S
C2091 C2090 1.400 . S
C2091 C2092 1.398 . S
C2091 C2097 1.491 . S
C2092 H2083 0.950 . S
C2092 C2091 1.398 . S
C2092 C2093 1.391 . S
C2093 H2081 0.950 . S
C2093 C2089 1.393 . S
C2093 C2092 1.391 . S
C2094 H2084 0.950 . S
C2094 C2095 1.386 . S
C2094 C2096 1.391 . S
C2095 C2094 1.386 . S
C2095 C2099 1.393 . S
C2096 H2085 0.950 . S
C2096 C2094 1.391 . S
C2096 C2097 1.400 . S
C2097 C2091 1.491 . S
C2097 C2096 1.400 . S
C2097 C2098 1.398 . S
C2098 H2086 0.950 . S
C2098 C2097 1.398 . S
C2098 C2099 1.391 . S
C2099 H2087 0.950 . S
C2099 C2095 1.393 . S
C2099 C2098 1.391 . S
H2100 C2108 0.950 . S
H2101 C2113 0.950 . S
H2102 C2110 0.950 . S
H2103 C2112 0.960 . S
H2104 C2114 0.950 . S
H2105 C2116 0.950 . S
H2106 C2118 0.950 . S
H2107 C2119 0.950 . S
C2108 H2100 0.950 . S
C2108 C2109 1.386 . S
C2108 C2110 1.391 1_455 S
C2109 C2108 1.386 . S
C2109 C2113 1.393 . S
C2110 H2102 0.950 . S
C2110 C2108 1.391 1_655 S
C2110 C2111 1.400 . S
C2111 C2110 1.400 . S
C2111 C2112 1.412 . S
C2111 C2117 1.491 . S
C2112 H2103 0.960 . S
C2112 C2111 1.412 . S
C2112 C2113 1.369 1_655 S
C2113 H2101 0.950 . S
C2113 C2109 1.393 . S
C2113 C2112 1.369 1_455 S
C2114 H2104 0.950 . S
C2114 C2115 1.386 . S
C2114 C2116 1.391 . S
C2115 C2114 1.386 . S
C2115 C2119 1.393 . S
C2116 H2105 0.950 . S
C2116 C2114 1.391 . S
C2116 C2117 1.400 . S
C2117 C2111 1.491 . S
C2117 C2116 1.400 . S
C2117 C2118 1.398 . S
C2118 H2106 0.950 . S
C2118 C2117 1.398 . S
C2118 C2119 1.391 . S
C2119 H2107 0.950 . S
C2119 C2115 1.393 . S
C2119 C2118 1.391 . S
H2120 C2128 0.950 . S
H2121 C2133 0.950 . S
H2122 C2130 0.950 . S
H2123 C2132 0.950 . S
H2124 C2134 0.950 . S
H2125 C2136 0.950 . S
H2126 C2138 0.950 . S
H2127 C2139 0.950 . S
C2128 H2120 0.950 . S
C2128 C2129 1.386 . S
C2128 C2130 1.391 . S
C2129 C2128 1.386 . S
C2129 C2133 1.393 . S
C2130 H2122 0.950 . S
C2130 C2128 1.391 . S
C2130 C2131 1.400 . S
C2131 C2130 1.400 . S
C2131 C2132 1.398 . S
C2131 C2137 1.491 . S
C2132 H2123 0.950 . S
C2132 C2131 1.398 . S
C2132 C2133 1.391 . S
C2133 H2121 0.950 . S
C2133 C2129 1.393 . S
C2133 C2132 1.391 . S
C2134 H2124 0.950 . S
C2134 C2135 1.386 . S
C2134 C2136 1.391 . S
C2135 C2134 1.386 . S
C2135 C2139 1.393 . S
C2136 H2125 0.950 . S
C2136 C2134 1.391 . S
C2136 C2137 1.400 . S
C2137 C2131 1.491 . S
C2137 C2136 1.400 . S
C2137 C2138 1.398 . S
C2138 H2126 0.950 . S
C2138 C2137 1.398 . S
C2138 C2139 1.391 . S
C2139 H2127 0.950 . S
C2139 C2135 1.393 . S
C2139 C2138 1.391 . S
H2140 C2148 0.950 . S
H2141 C2153 0.950 . S
H2142 C2150 0.950 . S
H2143 C2152 0.950 . S
H2144 C2154 0.950 . S
H2145 C2156 0.950 . S
H2146 C2158 0.950 . S
H2147 C2159 0.950 . S
C2148 H2140 0.950 . S
C2148 C2149 1.386 . S
C2148 C2150 1.391 . S
C2149 C2148 1.386 . S
C2149 C2153 1.393 . S
C2150 H2142 0.950 . S
C2150 C2148 1.391 . S
C2150 C2151 1.400 . S
C2151 C2150 1.400 . S
C2151 C2152 1.398 . S
C2151 C2157 1.491 . S
C2152 H2143 0.950 . S
C2152 C2151 1.398 . S
C2152 C2153 1.391 . S
C2153 H2141 0.950 . S
C2153 C2149 1.393 . S
C2153 C2152 1.391 . S
C2154 H2144 0.950 . S
C2154 C2155 1.386 . S
C2154 C2156 1.391 . S
C2155 C2154 1.386 . S
C2155 C2159 1.393 . S
C2156 H2145 0.950 . S
C2156 C2154 1.391 . S
C2156 C2157 1.400 . S
C2157 C2151 1.491 . S
C2157 C2156 1.400 . S
C2157 C2158 1.398 . S
C2158 H2146 0.950 . S
C2158 C2157 1.398 . S
C2158 C2159 1.391 . S
C2159 H2147 0.950 . S
C2159 C2155 1.393 . S
C2159 C2158 1.391 . S
H2160 C2168 0.950 . S
H2161 C2173 0.950 . S
H2162 C2170 0.950 . S
H2163 C2172 0.950 . S
H2164 C2174 0.950 . S
H2165 C2176 0.950 . S
H2166 C2178 0.950 . S
H2167 C2179 0.950 . S
C2168 H2160 0.950 . S
C2168 C2169 1.386 . S
C2168 C2170 1.391 . S
C2169 C2168 1.386 . S
C2169 C2173 1.393 . S
C2170 H2162 0.950 . S
C2170 C2168 1.391 . S
C2170 C2171 1.400 . S
C2171 C2170 1.400 . S
C2171 C2172 1.398 . S
C2171 C2177 1.491 . S
C2172 H2163 0.950 . S
C2172 C2171 1.398 . S
C2172 C2173 1.391 . S
C2173 H2161 0.950 . S
C2173 C2169 1.393 . S
C2173 C2172 1.391 . S
C2174 H2164 0.950 . S
C2174 C2175 1.386 . S
C2174 C2176 1.391 . S
C2175 C2174 1.386 . S
C2175 C2179 1.393 . S
C2176 H2165 0.950 . S
C2176 C2174 1.391 . S
C2176 C2177 1.400 . S
C2177 C2171 1.491 . S
C2177 C2176 1.400 . S
C2177 C2178 1.398 . S
C2178 H2166 0.950 . S
C2178 C2177 1.398 . S
C2178 C2179 1.391 . S
C2179 H2167 0.950 . S
C2179 C2175 1.393 . S
C2179 C2178 1.391 . S
H2180 C2188 0.950 . S
H2181 C2193 0.950 . S
H2182 C2190 0.950 . S
H2183 C2192 0.950 . S
H2184 C2194 0.950 . S
H2185 C2196 0.950 . S
H2186 C2198 0.950 . S
H2187 C2199 0.950 . S
C2188 H2180 0.950 . S
C2188 C2189 1.386 . S
C2188 C2190 1.391 . S
C2189 C2188 1.386 . S
C2189 C2193 1.393 . S
C2190 H2182 0.950 . S
C2190 C2188 1.391 . S
C2190 C2191 1.400 . S
C2191 C2190 1.400 . S
C2191 C2192 1.398 . S
C2191 C2197 1.491 . S
C2192 H2183 0.950 . S
C2192 C2191 1.398 . S
C2192 C2193 1.391 . S
C2193 H2181 0.950 . S
C2193 C2189 1.393 . S
C2193 C2192 1.391 . S
C2194 H2184 0.950 . S
C2194 C2195 1.386 . S
C2194 C2196 1.391 . S
C2195 C2194 1.386 . S
C2195 C2199 1.393 . S
C2196 H2185 0.950 . S
C2196 C2194 1.391 . S
C2196 C2197 1.400 . S
C2197 C2191 1.491 . S
C2197 C2196 1.400 . S
C2197 C2198 1.398 . S
C2198 H2186 0.950 . S
C2198 C2197 1.398 . S
C2198 C2199 1.391 . S
C2199 H2187 0.950 . S
C2199 C2195 1.393 . S
C2199 C2198 1.391 . S
H2200 C2208 0.950 . S
H2201 C2213 0.950 . S
H2202 C2210 0.950 . S
H2203 C2212 0.950 . S
H2204 C2214 0.950 . S
H2205 C2216 0.950 . S
H2206 C2218 0.950 . S
H2207 C2219 0.950 . S
C2208 H2200 0.950 . S
C2208 C2209 1.386 . S
C2208 C2210 1.391 . S
C2209 C2208 1.386 . S
C2209 C2213 1.393 . S
C2210 H2202 0.950 . S
C2210 C2208 1.391 . S
C2210 C2211 1.400 . S
C2211 C2210 1.400 . S
C2211 C2212 1.398 . S
C2211 C2217 1.491 . S
C2212 H2203 0.950 . S
C2212 C2211 1.398 . S
C2212 C2213 1.391 . S
C2213 H2201 0.950 . S
C2213 C2209 1.393 . S
C2213 C2212 1.391 . S
C2214 H2204 0.950 . S
C2214 C2215 1.386 . S
C2214 C2216 1.391 . S
C2215 C2214 1.386 . S
C2215 C2219 1.393 . S
C2216 H2205 0.950 . S
C2216 C2214 1.391 . S
C2216 C2217 1.400 . S
C2217 C2211 1.491 . S
C2217 C2216 1.400 . S
C2217 C2218 1.398 . S
C2218 H2206 0.950 . S
C2218 C2217 1.398 . S
C2218 C2219 1.391 . S
C2219 H2207 0.950 . S
C2219 C2215 1.393 . S
C2219 C2218 1.391 . S
H2220 C2228 0.950 . S
H2221 C2233 0.950 . S
H2222 C2230 0.950 . S
H2223 C2232 0.950 . S
H2224 C2234 0.950 . S
H2225 C2236 0.950 . S
H2226 C2238 0.950 . S
H2227 C2239 0.950 . S
C2228 H2220 0.950 . S
C2228 C2229 1.386 . S
C2228 C2230 1.391 . S
C2229 C2228 1.386 . S
C2229 C2233 1.393 . S
C2230 H2222 0.950 . S
C2230 C2228 1.391 . S
C2230 C2231 1.400 . S
C2231 C2230 1.400 . S
C2231 C2232 1.398 . S
C2231 C2237 1.491 . S
C2232 H2223 0.950 . S
C2232 C2231 1.398 . S
C2232 C2233 1.391 . S
C2233 H2221 0.950 . S
C2233 C2229 1.393 . S
C2233 C2232 1.391 . S
C2234 H2224 0.950 . S
C2234 C2235 1.386 . S
C2234 C2236 1.391 . S
C2235 C2234 1.386 . S
C2235 C2239 1.393 . S
C2236 H2225 0.950 . S
C2236 C2234 1.391 . S
C2236 C2237 1.400 1_455 S
C2237 C2231 1.491 . S
C2237 C2236 1.400 1_655 S
C2237 C2238 1.398 . S
C2238 H2226 0.950 . S
C2238 C2237 1.398 . S
C2238 C2239 1.391 1_655 S
C2239 H2227 0.950 . S
C2239 C2235 1.393 . S
C2239 C2238 1.391 1_455 S
H2240 C2248 0.950 . S
H2241 C2253 0.950 . S
H2242 C2250 0.950 . S
H2243 C2252 0.950 . S
H2244 C2254 0.950 . S
H2245 C2256 0.950 . S
H2246 C2258 0.950 . S
H2247 C2259 0.950 . S
C2248 H2240 0.950 . S
C2248 C2249 1.386 . S
C2248 C2250 1.391 . S
C2249 C2248 1.386 . S
C2249 C2253 1.393 . S
C2250 H2242 0.950 . S
C2250 C2248 1.391 . S
C2250 C2251 1.400 . S
C2251 C2250 1.400 . S
C2251 C2252 1.398 . S
C2251 C2257 1.491 . S
C2252 H2243 0.950 . S
C2252 C2251 1.398 . S
C2252 C2253 1.391 . S
C2253 H2241 0.950 . S
C2253 C2249 1.393 . S
C2253 C2252 1.391 . S
C2254 H2244 0.950 . S
C2254 C2255 1.386 . S
C2254 C2256 1.391 . S
C2255 C2254 1.386 . S
C2255 C2259 1.393 . S
C2256 H2245 0.950 . S
C2256 C2254 1.391 . S
C2256 C2257 1.400 . S
C2257 C2251 1.491 . S
C2257 C2256 1.400 . S
C2257 C2258 1.398 . S
C2258 H2246 0.950 . S
C2258 C2257 1.398 . S
C2258 C2259 1.391 . S
C2259 H2247 0.950 . S
C2259 C2255 1.393 . S
C2259 C2258 1.391 . S
H2260 C2268 0.950 . S
H2261 C2273 0.950 . S
H2262 C2270 0.950 . S
H2263 C2272 0.950 . S
H2264 C2274 0.950 . S
H2265 C2276 0.950 . S
H2266 C2278 0.950 . S
H2267 C2279 0.950 . S
C2268 H2260 0.950 . S
C2268 C2269 1.386 . S
C2268 C2270 1.391 . S
C2269 C2268 1.386 . S
C2269 C2273 1.393 . S
C2270 H2262 0.950 . S
C2270 C2268 1.391 . S
C2270 C2271 1.400 . S
C2271 C2270 1.400 . S
C2271 C2272 1.398 . S
C2271 C2277 1.491 . S
C2272 H2263 0.950 . S
C2272 C2271 1.398 . S
C2272 C2273 1.391 . S
C2273 H2261 0.950 . S
C2273 C2269 1.393 . S
C2273 C2272 1.391 . S
C2274 H2264 0.950 . S
C2274 C2275 1.386 . S
C2274 C2276 1.391 . S
C2275 C2274 1.386 . S
C2275 C2279 1.393 . S
C2276 H2265 0.950 . S
C2276 C2274 1.391 . S
C2276 C2277 1.400 . S
C2277 C2271 1.491 . S
C2277 C2276 1.400 . S
C2277 C2278 1.398 . S
C2278 H2266 0.950 . S
C2278 C2277 1.398 . S
C2278 C2279 1.391 . S
C2279 H2267 0.950 . S
C2279 C2275 1.393 . S
C2279 C2278 1.391 . S
H2280 C2288 0.950 . S
H2281 C2293 0.950 . S
H2282 C2290 0.950 . S
H2283 C2292 0.950 . S
H2284 C2294 0.950 . S
H2285 C2296 0.950 . S
H2286 C2298 0.950 . S
H2287 C2299 0.950 . S
C2288 H2280 0.950 . S
C2288 C2289 1.386 . S
C2288 C2290 1.391 . S
C2289 C2288 1.386 . S
C2289 C2293 1.393 . S
C2290 H2282 0.950 . S
C2290 C2288 1.391 . S
C2290 C2291 1.400 . S
C2291 C2290 1.400 . S
C2291 C2292 1.398 . S
C2291 C2297 1.491 . S
C2292 H2283 0.950 . S
C2292 C2291 1.398 . S
C2292 C2293 1.391 . S
C2293 H2281 0.950 . S
C2293 C2289 1.393 . S
C2293 C2292 1.391 . S
C2294 H2284 0.950 . S
C2294 C2295 1.386 . S
C2294 C2296 1.391 . S
C2295 C2294 1.386 . S
C2295 C2299 1.393 . S
C2296 H2285 0.950 . S
C2296 C2294 1.391 . S
C2296 C2297 1.400 . S
C2297 C2291 1.491 . S
C2297 C2296 1.400 . S
C2297 C2298 1.398 . S
C2298 H2286 0.950 . S
C2298 C2297 1.398 . S
C2298 C2299 1.391 . S
C2299 H2287 0.950 . S
C2299 C2295 1.393 . S
C2299 C2298 1.391 . S
H2300 C2308 0.950 . S
H2301 C2313 0.950 . S
H2302 C2310 0.950 . S
H2303 C2312 0.950 . S
H2304 C2314 0.950 . S
H2305 C2316 0.950 . S
H2306 C2318 0.950 . S
H2307 C2319 0.950 . S
C2308 H2300 0.950 . S
C2308 C2309 1.386 . S
C2308 C2310 1.391 . S
C2309 C2308 1.386 . S
C2309 C2313 1.393 . S
C2310 H2302 0.950 . S
C2310 C2308 1.391 . S
C2310 C2311 1.400 . S
C2311 C2310 1.400 . S
C2311 C2312 1.398 . S
C2311 C2317 1.491 . S
C2312 H2303 0.950 . S
C2312 C2311 1.398 . S
C2312 C2313 1.391 . S
C2313 H2301 0.950 . S
C2313 C2309 1.393 . S
C2313 C2312 1.391 . S
C2314 H2304 0.950 . S
C2314 C2315 1.386 . S
C2314 C2316 1.391 . S
C2315 C2314 1.386 . S
C2315 C2319 1.393 . S
C2316 H2305 0.950 . S
C2316 C2314 1.391 . S
C2316 C2317 1.400 1_455 S
C2317 C2311 1.491 . S
C2317 C2316 1.400 1_655 S
C2317 C2318 1.398 . S
C2318 H2306 0.950 . S
C2318 C2317 1.398 . S
C2318 C2319 1.391 1_655 S
C2319 H2307 0.950 . S
C2319 C2315 1.393 . S
C2319 C2318 1.391 1_455 S
H2320 C2328 0.950 . S
H2321 C2333 0.950 . S
H2322 C2330 0.950 . S
H2323 C2332 0.950 . S
H2324 C2334 0.950 . S
H2325 C2336 0.950 . S
H2326 C2338 0.950 . S
H2327 C2339 0.950 . S
C2328 H2320 0.950 . S
C2328 C2329 1.386 . S
C2328 C2330 1.391 . S
C2329 C2328 1.386 . S
C2329 C2333 1.393 . S
C2330 H2322 0.950 . S
C2330 C2328 1.391 . S
C2330 C2331 1.400 . S
C2331 C2330 1.400 . S
C2331 C2332 1.398 . S
C2331 C2337 1.491 . S
C2332 H2323 0.950 . S
C2332 C2331 1.398 . S
C2332 C2333 1.391 . S
C2333 H2321 0.950 . S
C2333 C2329 1.393 . S
C2333 C2332 1.391 . S
C2334 H2324 0.950 . S
C2334 C2335 1.386 . S
C2334 C2336 1.391 . S
C2335 C2334 1.386 . S
C2335 C2339 1.393 . S
C2336 H2325 0.950 . S
C2336 C2334 1.391 . S
C2336 C2337 1.400 . S
C2337 C2331 1.491 . S
C2337 C2336 1.400 . S
C2337 C2338 1.398 . S
C2338 H2326 0.950 . S
C2338 C2337 1.398 . S
C2338 C2339 1.391 . S
C2339 H2327 0.950 . S
C2339 C2335 1.393 . S
C2339 C2338 1.391 . S
H2340 C2348 0.950 . S
H2341 C2353 0.950 . S
H2342 C2350 0.950 . S
H2343 C2352 0.950 . S
H2344 C2354 0.950 . S
H2345 C2356 0.950 . S
H2346 C2358 0.950 . S
H2347 C2359 0.950 . S
C2348 H2340 0.950 . S
C2348 C2349 1.386 . S
C2348 C2350 1.391 . S
C2349 C2348 1.386 . S
C2349 C2353 1.393 . S
C2350 H2342 0.950 . S
C2350 C2348 1.391 . S
C2350 C2351 1.400 . S
C2351 C2350 1.400 . S
C2351 C2352 1.398 . S
C2351 C2357 1.491 . S
C2352 H2343 0.950 . S
C2352 C2351 1.398 . S
C2352 C2353 1.391 . S
C2353 H2341 0.950 . S
C2353 C2349 1.393 . S
C2353 C2352 1.391 . S
C2354 H2344 0.950 . S
C2354 C2355 1.386 . S
C2354 C2356 1.391 1_455 S
C2355 C2354 1.386 . S
C2355 C2359 1.393 . S
C2356 H2345 0.950 . S
C2356 C2354 1.391 1_655 S
C2356 C2357 1.400 . S
C2357 C2351 1.491 . S
C2357 C2356 1.400 . S
C2357 C2358 1.398 1_655 S
C2358 H2346 0.950 . S
C2358 C2357 1.398 1_455 S
C2358 C2359 1.391 . S
C2359 H2347 0.950 . S
C2359 C2355 1.393 . S
C2359 C2358 1.391 . S
H2360 C2368 0.950 . S
H2361 C2373 0.950 . S
H2362 C2370 0.950 . S
H2363 C2372 0.950 . S
H2364 C2374 0.950 . S
H2365 C2376 0.950 . S
H2366 C2378 0.950 . S
H2367 C2379 0.950 . S
C2368 H2360 0.950 . S
C2368 C2369 1.386 . S
C2368 C2370 1.391 . S
C2369 C2368 1.386 . S
C2369 C2373 1.393 . S
C2370 H2362 0.950 . S
C2370 C2368 1.391 . S
C2370 C2371 1.400 . S
C2371 C2370 1.400 . S
C2371 C2372 1.398 . S
C2371 C2377 1.491 . S
C2372 H2363 0.950 . S
C2372 C2371 1.398 . S
C2372 C2373 1.391 . S
C2373 H2361 0.950 . S
C2373 C2369 1.393 . S
C2373 C2372 1.391 . S
C2374 H2364 0.950 . S
C2374 C2375 1.386 . S
C2374 C2376 1.391 . S
C2375 C2374 1.386 . S
C2375 C2379 1.393 . S
C2376 H2365 0.950 . S
C2376 C2374 1.391 . S
C2376 C2377 1.400 . S
C2377 C2371 1.491 . S
C2377 C2376 1.400 . S
C2377 C2378 1.398 . S
C2378 H2366 0.950 . S
C2378 C2377 1.398 . S
C2378 C2379 1.391 . S
C2379 H2367 0.950 . S
C2379 C2375 1.393 . S
C2379 C2378 1.391 . S
H2380 C2388 0.950 . S
H2381 C2393 0.950 . S
H2382 C2390 0.950 . S
H2383 C2392 0.950 . S
H2384 C2394 0.950 . S
H2385 C2396 0.950 . S
H2386 C2398 0.950 . S
H2387 C2399 0.950 . S
C2388 H2380 0.950 . S
C2388 C2389 1.386 . S
C2388 C2390 1.391 . S
C2389 C2388 1.386 . S
C2389 C2393 1.393 . S
C2390 H2382 0.950 . S
C2390 C2388 1.391 . S
C2390 C2391 1.400 . S
C2391 C2390 1.400 . S
C2391 C2392 1.398 . S
C2391 C2397 1.491 . S
C2392 H2383 0.950 . S
C2392 C2391 1.398 . S
C2392 C2393 1.391 . S
C2393 H2381 0.950 . S
C2393 C2389 1.393 . S
C2393 C2392 1.391 . S
C2394 H2384 0.950 . S
C2394 C2395 1.386 . S
C2394 C2396 1.391 . S
C2395 C2394 1.386 . S
C2395 C2399 1.393 . S
C2396 H2385 0.950 . S
C2396 C2394 1.391 . S
C2396 C2397 1.400 . S
C2397 C2391 1.491 . S
C2397 C2396 1.400 . S
C2397 C2398 1.398 . S
C2398 H2386 0.950 . S
C2398 C2397 1.398 . S
C2398 C2399 1.391 . S
C2399 H2387 0.950 . S
C2399 C2395 1.393 . S
C2399 C2398 1.391 . S
H2400 C2408 0.950 . S
H2401 C2413 0.950 . S
H2402 C2410 0.950 . S
H2403 C2412 0.950 . S
H2404 C2414 0.950 . S
H2405 C2416 0.950 . S
H2406 C2418 0.950 . S
H2407 C2419 0.950 . S
C2408 H2400 0.950 . S
C2408 C2409 1.386 . S
C2408 C2410 1.391 . S
C2409 C2408 1.386 . S
C2409 C2413 1.393 . S
C2410 H2402 0.950 . S
C2410 C2408 1.391 . S
C2410 C2411 1.400 . S
C2411 C2410 1.400 . S
C2411 C2412 1.398 . S
C2411 C2417 1.491 . S
C2412 H2403 0.950 . S
C2412 C2411 1.398 . S
C2412 C2413 1.391 . S
C2413 H2401 0.950 . S
C2413 C2409 1.393 . S
C2413 C2412 1.391 . S
C2414 H2404 0.950 . S
C2414 C2415 1.386 . S
C2414 C2416 1.391 . S
C2415 C2414 1.386 . S
C2415 C2419 1.393 . S
C2416 H2405 0.950 . S
C2416 C2414 1.391 . S
C2416 C2417 1.400 . S
C2417 C2411 1.491 . S
C2417 C2416 1.400 . S
C2417 C2418 1.398 . S
C2418 H2406 0.950 . S
C2418 C2417 1.398 . S
C2418 C2419 1.391 . S
C2419 H2407 0.950 . S
C2419 C2415 1.393 . S
C2419 C2418 1.391 . S
H2420 C2428 0.950 . S
H2421 C2433 0.950 . S
H2422 C2430 0.950 . S
H2423 C2432 0.950 . S
H2424 C2434 0.950 . S
H2425 C2436 0.950 . S
H2426 C2438 0.950 . S
H2427 C2439 0.950 . S
C2428 H2420 0.950 . S
C2428 C2429 1.386 . S
C2428 C2430 1.391 . S
C2429 C2428 1.386 . S
C2429 C2433 1.393 . S
C2430 H2422 0.950 . S
C2430 C2428 1.391 . S
C2430 C2431 1.400 . S
C2431 C2430 1.400 . S
C2431 C2432 1.398 . S
C2431 C2437 1.491 . S
C2432 H2423 0.950 . S
C2432 C2431 1.398 . S
C2432 C2433 1.391 . S
C2433 H2421 0.950 . S
C2433 C2429 1.393 . S
C2433 C2432 1.391 . S
C2434 H2424 0.950 . S
C2434 C2435 1.386 . S
C2434 C2436 1.391 . S
C2435 C2434 1.386 . S
C2435 C2439 1.393 . S
C2436 H2425 0.950 . S
C2436 C2434 1.391 . S
C2436 C2437 1.400 . S
C2437 C2431 1.491 . S
C2437 C2436 1.400 . S
C2437 C2438 1.398 . S
C2438 H2426 0.950 . S
C2438 C2437 1.398 . S
C2438 C2439 1.391 . S
C2439 H2427 0.950 . S
C2439 C2435 1.393 . S
C2439 C2438 1.391 . S
H2440 C2448 0.950 . S
H2441 C2453 0.950 . S
H2442 C2450 0.950 . S
H2443 C2452 0.950 . S
H2444 C2454 0.950 . S
H2445 C2456 0.950 . S
H2446 C2458 0.950 . S
H2447 C2459 0.950 . S
C2448 H2440 0.950 . S
C2448 C2449 1.386 . S
C2448 C2450 1.391 . S
C2449 C2448 1.386 . S
C2449 C2453 1.393 . S
C2450 H2442 0.950 . S
C2450 C2448 1.391 . S
C2450 C2451 1.400 . S
C2451 C2450 1.400 . S
C2451 C2452 1.398 . S
C2451 C2457 1.491 . S
C2452 H2443 0.950 . S
C2452 C2451 1.398 . S
C2452 C2453 1.391 . S
C2453 H2441 0.950 . S
C2453 C2449 1.393 . S
C2453 C2452 1.391 . S
C2454 H2444 0.950 . S
C2454 C2455 1.386 . S
C2454 C2456 1.391 . S
C2455 C2454 1.386 . S
C2455 C2459 1.393 . S
C2456 H2445 0.950 . S
C2456 C2454 1.391 . S
C2456 C2457 1.400 . S
C2457 C2451 1.491 . S
C2457 C2456 1.400 . S
C2457 C2458 1.398 . S
C2458 H2446 0.950 . S
C2458 C2457 1.398 . S
C2458 C2459 1.391 . S
C2459 H2447 0.950 . S
C2459 C2455 1.393 . S
C2459 C2458 1.391 . S
H2460 C2468 0.950 . S
H2461 C2473 0.950 . S
H2462 C2470 0.957 . S
H2463 C2472 0.950 . S
H2464 C2474 0.950 . S
H2465 C2476 0.950 . S
H2466 C2478 0.950 . S
H2467 C2479 0.950 . S
C2468 H2460 0.950 . S
C2468 C2469 1.386 . S
C2468 C2470 1.391 . S
C2469 C2468 1.386 . S
C2469 C2473 1.393 . S
C2470 H2462 0.957 . S
C2470 C2468 1.391 . S
C2470 C2471 1.400 1_655 S
C2471 C2470 1.400 1_455 S
C2471 C2472 1.398 . S
C2471 C2477 1.491 . S
C2472 H2463 0.950 . S
C2472 C2471 1.398 . S
C2472 C2473 1.391 1_455 S
C2473 H2461 0.950 . S
C2473 C2469 1.393 . S
C2473 C2472 1.391 1_655 S
C2474 H2464 0.950 . S
C2474 C2475 1.386 . S
C2474 C2476 1.391 . S
C2475 C2474 1.386 . S
C2475 C2479 1.393 . S
C2476 H2465 0.950 . S
C2476 C2474 1.391 . S
C2476 C2477 1.400 . S
C2477 C2471 1.491 . S
C2477 C2476 1.400 . S
C2477 C2478 1.398 . S
C2478 H2466 0.950 . S
C2478 C2477 1.398 . S
C2478 C2479 1.391 . S
C2479 H2467 0.950 . S
C2479 C2475 1.393 . S
C2479 C2478 1.391 . S
H2480 C2488 0.950 . S
H2481 C2493 0.950 . S
H2482 C2490 0.950 . S
H2483 C2492 0.950 . S
H2484 C2494 0.950 . S
H2485 C2496 0.950 . S
H2486 C2498 0.950 . S
H2487 C2499 0.950 . S
C2488 H2480 0.950 . S
C2488 C2489 1.386 . S
C2488 C2490 1.391 . S
C2489 C2488 1.386 . S
C2489 C2493 1.393 . S
C2490 H2482 0.950 . S
C2490 C2488 1.391 . S
C2490 C2491 1.400 . S
C2491 C2490 1.400 . S
C2491 C2492 1.398 . S
C2491 C2497 1.491 . S
C2492 H2483 0.950 . S
C2492 C2491 1.398 . S
C2492 C2493 1.391 . S
C2493 H2481 0.950 . S
C2493 C2489 1.393 . S
C2493 C2492 1.391 . S
C2494 H2484 0.950 . S
C2494 C2495 1.386 . S
C2494 C2496 1.391 . S
C2495 C2494 1.386 . S
C2495 C2499 1.393 . S
C2496 H2485 0.950 . S
C2496 C2494 1.391 . S
C2496 C2497 1.400 . S
C2497 C2491 1.491 . S
C2497 C2496 1.400 . S
C2497 C2498 1.398 . S
C2498 H2486 0.950 . S
C2498 C2497 1.398 . S
C2498 C2499 1.391 . S
C2499 H2487 0.950 . S
C2499 C2495 1.393 . S
C2499 C2498 1.391 . S
H2500 C2508 0.950 . S
H2501 C2513 0.950 . S
H2502 C2510 0.950 . S
H2503 C2512 0.950 . S
H2504 C2514 0.950 . S
H2505 C2516 0.950 . S
H2506 C2518 0.950 . S
H2507 C2519 0.950 . S
C2508 H2500 0.950 . S
C2508 C2509 1.386 . S
C2508 C2510 1.391 . S
C2509 C2508 1.386 . S
C2509 C2513 1.393 . S
C2510 H2502 0.950 . S
C2510 C2508 1.391 . S
C2510 C2511 1.400 . S
C2511 C2510 1.400 . S
C2511 C2512 1.398 . S
C2511 C2517 1.491 . S
C2512 H2503 0.950 . S
C2512 C2511 1.398 . S
C2512 C2513 1.391 . S
C2513 H2501 0.950 . S
C2513 C2509 1.393 . S
C2513 C2512 1.391 . S
C2514 H2504 0.950 . S
C2514 C2515 1.386 . S
C2514 C2516 1.391 1_655 S
C2515 C2514 1.386 . S
C2515 C2519 1.393 . S
C2516 H2505 0.950 . S
C2516 C2514 1.391 1_455 S
C2516 C2517 1.400 . S
C2517 C2511 1.491 . S
C2517 C2516 1.400 . S
C2517 C2518 1.398 . S
C2518 H2506 0.950 . S
C2518 C2517 1.398 . S
C2518 C2519 1.391 1_455 S
C2519 H2507 0.950 . S
C2519 C2515 1.393 . S
C2519 C2518 1.391 1_655 S
H2520 C2528 0.950 . S
H2521 C2533 0.950 . S
H2522 C2530 0.950 . S
H2523 C2532 0.950 . S
H2524 C2534 0.950 . S
H2525 C2536 0.950 . S
H2526 C2538 0.950 . S
H2527 C2539 0.950 . S
C2528 H2520 0.950 . S
C2528 C2529 1.386 . S
C2528 C2530 1.391 . S
C2529 C2528 1.386 . S
C2529 C2533 1.393 . S
C2530 H2522 0.950 . S
C2530 C2528 1.391 . S
C2530 C2531 1.400 . S
C2531 C2530 1.400 . S
C2531 C2532 1.398 . S
C2531 C2537 1.491 . S
C2532 H2523 0.950 . S
C2532 C2531 1.398 . S
C2532 C2533 1.391 . S
C2533 H2521 0.950 . S
C2533 C2529 1.393 . S
C2533 C2532 1.391 . S
C2534 H2524 0.950 . S
C2534 C2535 1.386 . S
C2534 C2536 1.391 . S
C2535 C2534 1.386 . S
C2535 C2539 1.393 . S
C2536 H2525 0.950 . S
C2536 C2534 1.391 . S
C2536 C2537 1.400 . S
C2537 C2531 1.491 . S
C2537 C2536 1.400 . S
C2537 C2538 1.398 . S
C2538 H2526 0.950 . S
C2538 C2537 1.398 . S
C2538 C2539 1.391 . S
C2539 H2527 0.950 . S
C2539 C2535 1.393 . S
C2539 C2538 1.391 . S
H2540 C2548 0.950 . S
H2541 C2553 0.950 . S
H2542 C2550 0.950 . S
H2543 C2552 0.950 . S
H2544 C2554 0.950 . S
H2545 C2556 0.950 . S
H2546 C2558 0.950 . S
H2547 C2559 0.950 . S
C2548 H2540 0.950 . S
C2548 C2549 1.386 . S
C2548 C2550 1.391 . S
C2549 C2548 1.386 . S
C2549 C2553 1.393 . S
C2550 H2542 0.950 . S
C2550 C2548 1.391 . S
C2550 C2551 1.400 . S
C2551 C2550 1.400 . S
C2551 C2552 1.398 . S
C2551 C2557 1.491 . S
C2552 H2543 0.950 . S
C2552 C2551 1.398 . S
C2552 C2553 1.391 . S
C2553 H2541 0.950 . S
C2553 C2549 1.393 . S
C2553 C2552 1.391 . S
C2554 H2544 0.950 . S
C2554 C2555 1.386 . S
C2554 C2556 1.391 . S
C2555 C2554 1.386 . S
C2555 C2559 1.393 . S
C2556 H2545 0.950 . S
C2556 C2554 1.391 . S
C2556 C2557 1.400 . S
C2557 C2551 1.491 . S
C2557 C2556 1.400 . S
C2557 C2558 1.398 . S
C2558 H2546 0.950 . S
C2558 C2557 1.398 . S
C2558 C2559 1.391 . S
C2559 H2547 0.950 . S
C2559 C2555 1.393 . S
C2559 C2558 1.391 . S
H2560 C2568 0.950 . S
H2561 C2573 0.950 . S
H2562 C2570 0.950 1_565 S
H2563 C2572 0.950 . S
H2564 C2574 0.950 . S
H2565 C2576 0.950 1_545 S
H2566 C2578 0.950 . S
H2567 C2579 0.950 . S
C2568 H2560 0.950 . S
C2568 C2569 1.386 . S
C2568 C2570 1.391 . S
C2569 C2568 1.386 . S
C2569 C2573 1.393 . S
C2570 H2562 0.950 1_545 S
C2570 C2568 1.391 . S
C2570 C2571 1.400 . S
C2571 C2570 1.400 . S
C2571 C2572 1.398 . S
C2571 C2577 1.491 1_545 S
C2572 H2563 0.950 . S
C2572 C2571 1.398 . S
C2572 C2573 1.391 . S
C2573 H2561 0.950 . S
C2573 C2569 1.393 . S
C2573 C2572 1.391 . S
C2574 H2564 0.950 . S
C2574 C2575 1.386 . S
C2574 C2576 1.391 . S
C2575 C2574 1.386 . S
C2575 C2579 1.393 . S
C2576 H2565 0.950 1_565 S
C2576 C2574 1.391 . S
C2576 C2577 1.400 . S
C2577 C2571 1.491 1_565 S
C2577 C2576 1.400 . S
C2577 C2578 1.398 . S
C2578 H2566 0.950 . S
C2578 C2577 1.398 . S
C2578 C2579 1.391 . S
C2579 H2567 0.950 . S
C2579 C2575 1.393 . S
C2579 C2578 1.391 . S
H2580 C2588 0.950 . S
H2581 C2593 0.950 . S
H2582 C2590 0.950 . S
H2583 C2592 0.950 . S
H2584 C2594 0.950 . S
H2585 C2596 0.950 . S
H2586 C2598 0.950 . S
H2587 C2599 0.950 . S
C2588 H2580 0.950 . S
C2588 C2589 1.386 . S
C2588 C2590 1.391 . S
C2589 C2588 1.386 . S
C2589 C2593 1.393 . S
C2590 H2582 0.950 . S
C2590 C2588 1.391 . S
C2590 C2591 1.400 . S
C2591 C2590 1.400 . S
C2591 C2592 1.398 . S
C2591 C2597 1.491 . S
C2592 H2583 0.950 . S
C2592 C2591 1.398 . S
C2592 C2593 1.391 . S
C2593 H2581 0.950 . S
C2593 C2589 1.393 . S
C2593 C2592 1.391 . S
C2594 H2584 0.950 . S
C2594 C2595 1.386 . S
C2594 C2596 1.391 . S
C2595 C2594 1.386 . S
C2595 C2599 1.393 . S
C2596 H2585 0.950 . S
C2596 C2594 1.391 . S
C2596 C2597 1.400 . S
C2597 C2591 1.491 . S
C2597 C2596 1.400 . S
C2597 C2598 1.398 . S
C2598 H2586 0.950 . S
C2598 C2597 1.398 . S
C2598 C2599 1.391 . S
C2599 H2587 0.950 . S
C2599 C2595 1.393 . S
C2599 C2598 1.391 . S
H2600 C2608 0.950 . S
H2601 C2613 0.950 . S
H2602 C2610 0.950 . S
H2603 C2612 0.950 1_545 S
H2604 C2614 0.950 . S
H2605 C2616 0.950 . S
H2606 C2618 0.950 1_565 S
H2607 C2619 0.950 . S
C2608 H2600 0.950 . S
C2608 C2609 1.386 . S
C2608 C2610 1.391 . S
C2609 C2608 1.386 . S
C2609 C2613 1.393 . S
C2610 H2602 0.950 . S
C2610 C2608 1.391 . S
C2610 C2611 1.400 . S
C2611 C2610 1.400 . S
C2611 C2612 1.398 . S
C2611 C2617 1.491 1_565 S
C2612 H2603 0.950 1_565 S
C2612 C2611 1.398 . S
C2612 C2613 1.391 . S
C2613 H2601 0.950 . S
C2613 C2609 1.393 . S
C2613 C2612 1.391 . S
C2614 H2604 0.950 . S
C2614 C2615 1.386 . S
C2614 C2616 1.391 . S
C2615 C2614 1.386 . S
C2615 C2619 1.393 . S
C2616 H2605 0.950 . S
C2616 C2614 1.391 . S
C2616 C2617 1.400 . S
C2617 C2611 1.491 1_545 S
C2617 C2616 1.400 . S
C2617 C2618 1.398 . S
C2618 H2606 0.950 1_545 S
C2618 C2617 1.398 . S
C2618 C2619 1.391 . S
C2619 H2607 0.950 . S
C2619 C2615 1.393 . S
C2619 C2618 1.391 . S
H2620 C2628 0.950 . S
H2621 C2633 0.950 . S
H2622 C2630 0.950 . S
H2623 C2632 0.950 1_554 S
H2624 C2634 0.950 . S
H2625 C2636 0.950 . S
H2626 C2638 0.950 1_556 S
H2627 C2639 0.950 . S
C2628 H2620 0.950 . S
C2628 C2629 1.386 . S
C2628 C2630 1.391 . S
C2629 C2628 1.386 . S
C2629 C2633 1.393 . S
C2630 H2622 0.950 . S
C2630 C2628 1.391 . S
C2630 C2631 1.400 . S
C2631 C2630 1.400 . S
C2631 C2632 1.398 . S
C2631 C2637 1.491 1_556 S
C2632 H2623 0.950 1_556 S
C2632 C2631 1.398 . S
C2632 C2633 1.391 . S
C2633 H2621 0.950 . S
C2633 C2629 1.393 . S
C2633 C2632 1.391 . S
C2634 H2624 0.950 . S
C2634 C2635 1.386 . S
C2634 C2636 1.391 . S
C2635 C2634 1.386 . S
C2635 C2639 1.393 . S
C2636 H2625 0.950 . S
C2636 C2634 1.391 . S
C2636 C2637 1.400 . S
C2637 C2631 1.491 1_554 S
C2637 C2636 1.400 . S
C2637 C2638 1.398 . S
C2638 H2626 0.950 1_554 S
C2638 C2637 1.398 . S
C2638 C2639 1.391 . S
C2639 H2627 0.950 . S
C2639 C2635 1.393 . S
C2639 C2638 1.391 . S
H2640 C2648 0.950 . S
H2641 C2653 0.950 . S
H2642 C2650 0.950 . S
H2643 C2652 0.950 1_565 S
H2644 C2654 0.950 . S
H2645 C2656 0.950 . S
H2646 C2658 0.950 1_545 S
H2647 C2659 0.950 . S
C2648 H2640 0.950 . S
C2648 C2649 1.386 . S
C2648 C2650 1.391 . S
C2649 C2648 1.386 . S
C2649 C2653 1.393 . S
C2650 H2642 0.950 . S
C2650 C2648 1.391 . S
C2650 C2651 1.400 . S
C2651 C2650 1.400 . S
C2651 C2652 1.398 . S
C2651 C2657 1.491 1_545 S
C2652 H2643 0.950 1_545 S
C2652 C2651 1.398 . S
C2652 C2653 1.391 . S
C2653 H2641 0.950 . S
C2653 C2649 1.393 . S
C2653 C2652 1.391 . S
C2654 H2644 0.950 . S
C2654 C2655 1.386 . S
C2654 C2656 1.391 . S
C2655 C2654 1.386 . S
C2655 C2659 1.393 . S
C2656 H2645 0.950 . S
C2656 C2654 1.391 . S
C2656 C2657 1.400 . S
C2657 C2651 1.491 1_565 S
C2657 C2656 1.400 . S
C2657 C2658 1.398 . S
C2658 H2646 0.950 1_565 S
C2658 C2657 1.398 . S
C2658 C2659 1.391 . S
C2659 H2647 0.950 . S
C2659 C2655 1.393 . S
C2659 C2658 1.391 . S
H2660 C2668 0.950 . S
H2661 C2673 0.950 . S
H2662 C2670 0.950 . S
H2663 C2672 0.950 . S
H2664 C2674 0.950 . S
H2665 C2676 0.950 . S
H2666 C2678 0.950 . S
H2667 C2679 0.950 . S
C2668 H2660 0.950 . S
C2668 C2669 1.386 . S
C2668 C2670 1.391 . S
C2669 C2668 1.386 . S
C2669 C2673 1.393 . S
C2670 H2662 0.950 . S
C2670 C2668 1.391 . S
C2670 C2671 1.400 . S
C2671 C2670 1.400 . S
C2671 C2672 1.398 . S
C2671 C2677 1.491 . S
C2672 H2663 0.950 . S
C2672 C2671 1.398 . S
C2672 C2673 1.391 . S
C2673 H2661 0.950 . S
C2673 C2669 1.393 . S
C2673 C2672 1.391 . S
C2674 H2664 0.950 . S
C2674 C2675 1.386 . S
C2674 C2676 1.391 . S
C2675 C2674 1.386 . S
C2675 C2679 1.393 . S
C2676 H2665 0.950 . S
C2676 C2674 1.391 . S
C2676 C2677 1.400 . S
C2677 C2671 1.491 . S
C2677 C2676 1.400 . S
C2677 C2678 1.398 . S
C2678 H2666 0.950 . S
C2678 C2677 1.398 . S
C2678 C2679 1.391 . S
C2679 H2667 0.950 . S
C2679 C2675 1.393 . S
C2679 C2678 1.391 . S
H2680 C2688 0.950 . S
H2681 C2693 0.950 . S
H2682 C2690 0.950 . S
H2683 C2692 0.950 . S
H2684 C2694 0.950 . S
H2685 C2696 0.950 . S
H2686 C2698 0.950 . S
H2687 C2699 0.950 . S
C2688 H2680 0.950 . S
C2688 C2689 1.386 . S
C2688 C2690 1.391 . S
C2689 C2688 1.386 . S
C2689 C2693 1.393 . S
C2690 H2682 0.950 . S
C2690 C2688 1.391 . S
C2690 C2691 1.400 . S
C2691 C2690 1.400 . S
C2691 C2692 1.398 . S
C2691 C2697 1.491 1_545 S
C2692 H2683 0.950 . S
C2692 C2691 1.398 . S
C2692 C2693 1.391 . S
C2693 H2681 0.950 . S
C2693 C2689 1.393 . S
C2693 C2692 1.391 . S
C2694 H2684 0.950 . S
C2694 C2695 1.386 . S
C2694 C2696 1.391 . S
C2695 C2694 1.386 . S
C2695 C2699 1.393 . S
C2696 H2685 0.950 . S
C2696 C2694 1.391 . S
C2696 C2697 1.400 . S
C2697 C2691 1.491 1_565 S
C2697 C2696 1.400 . S
C2697 C2698 1.398 . S
C2698 H2686 0.950 . S
C2698 C2697 1.398 . S
C2698 C2699 1.391 . S
C2699 H2687 0.950 . S
C2699 C2695 1.393 . S
C2699 C2698 1.391 . S
H2700 C2708 0.950 . S
H2701 C2713 0.950 . S
H2702 C2710 0.950 1_554 S
H2703 C2712 0.950 . S
H2704 C2714 0.950 . S
H2705 C2716 0.950 1_556 S
H2706 C2718 0.950 . S
H2707 C2719 0.950 . S
C2708 H2700 0.950 . S
C2708 C2709 1.386 . S
C2708 C2710 1.391 . S
C2709 C2708 1.386 . S
C2709 C2713 1.393 . S
C2710 H2702 0.950 1_556 S
C2710 C2708 1.391 . S
C2710 C2711 1.400 . S
C2711 C2710 1.400 . S
C2711 C2712 1.398 . S
C2711 C2717 1.491 1_556 S
C2712 H2703 0.950 . S
C2712 C2711 1.398 . S
C2712 C2713 1.391 . S
C2713 H2701 0.950 . S
C2713 C2709 1.393 . S
C2713 C2712 1.391 . S
C2714 H2704 0.950 . S
C2714 C2715 1.386 . S
C2714 C2716 1.391 . S
C2715 C2714 1.386 . S
C2715 C2719 1.393 . S
C2716 H2705 0.950 1_554 S
C2716 C2714 1.391 . S
C2716 C2717 1.400 . S
C2717 C2711 1.491 1_554 S
C2717 C2716 1.400 . S
C2717 C2718 1.398 . S
C2718 H2706 0.950 . S
C2718 C2717 1.398 . S
C2718 C2719 1.391 . S
C2719 H2707 0.950 . S
C2719 C2715 1.393 . S
C2719 C2718 1.391 . S
H2720 C2728 0.950 . S
H2721 C2733 0.950 . S
H2722 C2730 0.950 . S
H2723 C2732 0.950 . S
H2724 C2734 0.950 . S
H2725 C2736 0.950 . S
H2726 C2738 0.950 . S
H2727 C2739 0.950 . S
C2728 H2720 0.950 . S
C2728 C2729 1.386 . S
C2728 C2730 1.391 . S
C2729 C2728 1.386 . S
C2729 C2733 1.393 . S
C2730 H2722 0.950 . S
C2730 C2728 1.391 . S
C2730 C2731 1.400 . S
C2731 C2730 1.400 . S
C2731 C2732 1.398 . S
C2731 C2737 1.491 . S
C2732 H2723 0.950 . S
C2732 C2731 1.398 . S
C2732 C2733 1.391 . S
C2733 H2721 0.950 . S
C2733 C2729 1.393 . S
C2733 C2732 1.391 . S
C2734 H2724 0.950 . S
C2734 C2735 1.386 . S
C2734 C2736 1.391 . S
C2735 C2734 1.386 . S
C2735 C2739 1.393 . S
C2736 H2725 0.950 . S
C2736 C2734 1.391 . S
C2736 C2737 1.400 . S
C2737 C2731 1.491 . S
C2737 C2736 1.400 . S
C2737 C2738 1.398 . S
C2738 H2726 0.950 . S
C2738 C2737 1.398 . S
C2738 C2739 1.391 . S
C2739 H2727 0.950 . S
C2739 C2735 1.393 . S
C2739 C2738 1.391 . S
H2740 C2748 0.950 . S
H2741 C2753 0.950 . S
H2742 C2750 0.950 . S
H2743 C2752 0.950 1_554 S
H2744 C2754 0.950 . S
H2745 C2756 0.950 . S
H2746 C2758 0.950 1_556 S
H2747 C2759 0.950 . S
C2748 H2740 0.950 . S
C2748 C2749 1.386 . S
C2748 C2750 1.391 . S
C2749 C2748 1.386 . S
C2749 C2753 1.393 . S
C2750 H2742 0.950 . S
C2750 C2748 1.391 . S
C2750 C2751 1.400 . S
C2751 C2750 1.400 . S
C2751 C2752 1.398 . S
C2751 C2757 1.491 1_556 S
C2752 H2743 0.950 1_556 S
C2752 C2751 1.398 . S
C2752 C2753 1.391 . S
C2753 H2741 0.950 . S
C2753 C2749 1.393 . S
C2753 C2752 1.391 . S
C2754 H2744 0.950 . S
C2754 C2755 1.386 . S
C2754 C2756 1.391 . S
C2755 C2754 1.386 . S
C2755 C2759 1.393 . S
C2756 H2745 0.950 . S
C2756 C2754 1.391 . S
C2756 C2757 1.400 . S
C2757 C2751 1.491 1_554 S
C2757 C2756 1.400 . S
C2757 C2758 1.398 . S
C2758 H2746 0.950 1_554 S
C2758 C2757 1.398 . S
C2758 C2759 1.391 . S
C2759 H2747 0.950 . S
C2759 C2755 1.393 . S
C2759 C2758 1.391 . S
H2760 C2768 0.950 . S
H2761 C2773 0.950 . S
H2762 C2770 0.950 . S
H2763 C2772 0.950 . S
H2764 C2774 0.950 . S
H2765 C2776 0.950 . S
H2766 C2778 0.950 . S
H2767 C2779 0.950 . S
C2768 H2760 0.950 . S
C2768 C2769 1.386 . S
C2768 C2770 1.391 . S
C2769 C2768 1.386 . S
C2769 C2773 1.393 . S
C2770 H2762 0.950 . S
C2770 C2768 1.391 . S
C2770 C2771 1.400 . S
C2771 C2770 1.400 . S
C2771 C2772 1.398 . S
C2771 C2777 1.491 . S
C2772 H2763 0.950 . S
C2772 C2771 1.398 . S
C2772 C2773 1.391 . S
C2773 H2761 0.950 . S
C2773 C2769 1.393 . S
C2773 C2772 1.391 . S
C2774 H2764 0.950 . S
C2774 C2775 1.386 . S
C2774 C2776 1.391 . S
C2775 C2774 1.386 . S
C2775 C2779 1.393 . S
C2776 H2765 0.950 . S
C2776 C2774 1.391 . S
C2776 C2777 1.400 . S
C2777 C2771 1.491 . S
C2777 C2776 1.400 . S
C2777 C2778 1.398 . S
C2778 H2766 0.950 . S
C2778 C2777 1.398 . S
C2778 C2779 1.391 . S
C2779 H2767 0.950 . S
C2779 C2775 1.393 . S
C2779 C2778 1.391 . S
H2780 C2788 0.950 . S
H2781 C2793 0.950 . S
H2782 C2790 0.950 . S
H2783 C2792 0.950 . S
H2784 C2794 0.950 . S
H2785 C2796 0.950 . S
H2786 C2798 0.950 . S
H2787 C2799 0.950 . S
C2788 H2780 0.950 . S
C2788 C2789 1.386 . S
C2788 C2790 1.391 . S
C2789 C2788 1.386 . S
C2789 C2793 1.393 . S
C2790 H2782 0.950 . S
C2790 C2788 1.391 . S
C2790 C2791 1.400 . S
C2791 C2790 1.400 . S
C2791 C2792 1.398 . S
C2791 C2797 1.491 . S
C2792 H2783 0.950 . S
C2792 C2791 1.398 . S
C2792 C2793 1.391 . S
C2793 H2781 0.950 . S
C2793 C2789 1.393 . S
C2793 C2792 1.391 . S
C2794 H2784 0.950 . S
C2794 C2795 1.386 . S
C2794 C2796 1.391 . S
C2795 C2794 1.386 . S
C2795 C2799 1.393 . S
C2796 H2785 0.950 . S
C2796 C2794 1.391 . S
C2796 C2797 1.400 . S
C2797 C2791 1.491 . S
C2797 C2796 1.400 . S
C2797 C2798 1.398 . S
C2798 H2786 0.950 . S
C2798 C2797 1.398 . S
C2798 C2799 1.391 . S
C2799 H2787 0.950 . S
C2799 C2795 1.393 . S
C2799 C2798 1.391 . S
H2800 C2808 0.950 . S
H2801 C2813 0.950 . S
H2802 C2810 0.950 . S
H2803 C2812 0.950 . S
H2804 C2814 0.950 . S
H2805 C2816 0.950 . S
H2806 C2818 0.950 . S
H2807 C2819 0.950 . S
C2808 H2800 0.950 . S
C2808 C2809 1.386 . S
C2808 C2810 1.391 . S
C2809 C2808 1.386 . S
C2809 C2813 1.393 . S
C2810 H2802 0.950 . S
C2810 C2808 1.391 . S
C2810 C2811 1.400 . S
C2811 C2810 1.400 . S
C2811 C2812 1.398 . S
C2811 C2817 1.491 . S
C2812 H2803 0.950 . S
C2812 C2811 1.398 . S
C2812 C2813 1.391 . S
C2813 H2801 0.950 . S
C2813 C2809 1.393 . S
C2813 C2812 1.391 . S
C2814 H2804 0.950 . S
C2814 C2815 1.386 . S
C2814 C2816 1.391 . S
C2815 C2814 1.386 . S
C2815 C2819 1.393 . S
C2816 H2805 0.950 . S
C2816 C2814 1.391 . S
C2816 C2817 1.400 . S
C2817 C2811 1.491 . S
C2817 C2816 1.400 . S
C2817 C2818 1.398 . S
C2818 H2806 0.950 . S
C2818 C2817 1.398 . S
C2818 C2819 1.391 . S
C2819 H2807 0.950 . S
C2819 C2815 1.393 . S
C2819 C2818 1.391 . S
H2820 C2828 0.950 . S
H2821 C2833 0.950 . S
H2822 C2830 0.950 1_554 S
H2823 C2832 0.950 . S
H2824 C2834 0.950 . S
H2825 C2836 0.950 1_556 S
H2826 C2838 0.950 . S
H2827 C2839 0.950 . S
C2828 H2820 0.950 . S
C2828 C2829 1.386 . S
C2828 C2830 1.391 . S
C2829 C2828 1.386 . S
C2829 C2833 1.393 . S
C2830 H2822 0.950 1_556 S
C2830 C2828 1.391 . S
C2830 C2831 1.400 . S
C2831 C2830 1.400 . S
C2831 C2832 1.398 . S
C2831 C2837 1.491 1_556 S
C2832 H2823 0.950 . S
C2832 C2831 1.398 . S
C2832 C2833 1.391 . S
C2833 H2821 0.950 . S
C2833 C2829 1.393 . S
C2833 C2832 1.391 . S
C2834 H2824 0.950 . S
C2834 C2835 1.386 . S
C2834 C2836 1.391 . S
C2835 C2834 1.386 . S
C2835 C2839 1.393 . S
C2836 H2825 0.950 1_554 S
C2836 C2834 1.391 . S
C2836 C2837 1.400 . S
C2837 C2831 1.491 1_554 S
C2837 C2836 1.400 . S
C2837 C2838 1.398 . S
C2838 H2826 0.950 . S
C2838 C2837 1.398 . S
C2838 C2839 1.391 . S
C2839 H2827 0.950 . S
C2839 C2835 1.393 . S
C2839 C2838 1.391 . S
H2840 C2848 0.950 . S
H2841 C2853 0.950 . S
H2842 C2850 0.950 . S
H2843 C2852 0.950 . S
H2844 C2854 0.950 . S
H2845 C2856 0.950 . S
H2846 C2858 0.950 . S
H2847 C2859 0.950 . S
C2848 H2840 0.950 . S
C2848 C2849 1.386 . S
C2848 C2850 1.391 . S
C2849 C2848 1.386 . S
C2849 C2853 1.393 . S
C2850 H2842 0.950 . S
C2850 C2848 1.391 . S
C2850 C2851 1.400 . S
C2851 C2850 1.400 . S
C2851 C2852 1.398 . S
C2851 C2857 1.491 . S
C2852 H2843 0.950 . S
C2852 C2851 1.398 . S
C2852 C2853 1.391 . S
C2853 H2841 0.950 . S
C2853 C2849 1.393 . S
C2853 C2852 1.391 . S
C2854 H2844 0.950 . S
C2854 C2855 1.386 . S
C2854 C2856 1.391 . S
C2855 C2854 1.386 . S
C2855 C2859 1.393 . S
C2856 H2845 0.950 . S
C2856 C2854 1.391 . S
C2856 C2857 1.400 . S
C2857 C2851 1.491 . S
C2857 C2856 1.400 . S
C2857 C2858 1.398 . S
C2858 H2846 0.950 . S
C2858 C2857 1.398 . S
C2858 C2859 1.391 . S
C2859 H2847 0.950 . S
C2859 C2855 1.393 . S
C2859 C2858 1.391 . S
H2860 C2868 0.950 . S
H2861 C2873 0.950 . S
H2862 C2870 0.950 . S
H2863 C2872 0.950 . S
H2864 C2874 0.950 . S
H2865 C2876 0.950 . S
H2866 C2878 0.950 . S
H2867 C2879 0.950 . S
C2868 H2860 0.950 . S
C2868 C2869 1.386 . S
C2868 C2870 1.391 . S
C2869 C2868 1.386 . S
C2869 C2873 1.393 . S
C2870 H2862 0.950 . S
C2870 C2868 1.391 . S
C2870 C2871 1.400 . S
C2871 C2870 1.400 . S
C2871 C2872 1.398 . S
C2871 C2877 1.491 . S
C2872 H2863 0.950 . S
C2872 C2871 1.398 . S
C2872 C2873 1.391 . S
C2873 H2861 0.950 . S
C2873 C2869 1.393 . S
C2873 C2872 1.391 . S
C2874 H2864 0.950 . S
C2874 C2875 1.386 . S
C2874 C2876 1.391 . S
C2875 C2874 1.386 . S
C2875 C2879 1.393 . S
C2876 H2865 0.950 . S
C2876 C2874 1.391 . S
C2876 C2877 1.400 . S
C2877 C2871 1.491 . S
C2877 C2876 1.400 . S
C2877 C2878 1.398 . S
C2878 H2866 0.950 . S
C2878 C2877 1.398 . S
C2878 C2879 1.391 . S
C2879 H2867 0.950 . S
C2879 C2875 1.393 . S
C2879 C2878 1.391 . S
H2880 C2888 0.950 . S
H2881 C2893 0.950 . S
H2882 C2890 0.950 . S
H2883 C2892 0.950 . S
H2884 C2894 0.950 . S
H2885 C2896 0.950 . S
H2886 C2898 0.950 . S
H2887 C2899 0.950 . S
C2888 H2880 0.950 . S
C2888 C2889 1.386 . S
C2888 C2890 1.391 . S
C2889 C2888 1.386 . S
C2889 C2893 1.393 . S
C2890 H2882 0.950 . S
C2890 C2888 1.391 . S
C2890 C2891 1.400 . S
C2891 C2890 1.400 . S
C2891 C2892 1.398 . S
C2891 C2897 1.491 . S
C2892 H2883 0.950 . S
C2892 C2891 1.398 . S
C2892 C2893 1.391 . S
C2893 H2881 0.950 . S
C2893 C2889 1.393 . S
C2893 C2892 1.391 . S
C2894 H2884 0.950 . S
C2894 C2895 1.386 . S
C2894 C2896 1.391 . S
C2895 C2894 1.386 . S
C2895 C2899 1.393 . S
C2896 H2885 0.950 . S
C2896 C2894 1.391 . S
C2896 C2897 1.400 . S
C2897 C2891 1.491 . S
C2897 C2896 1.400 . S
C2897 C2898 1.398 . S
C2898 H2886 0.950 . S
C2898 C2897 1.398 . S
C2898 C2899 1.391 . S
C2899 H2887 0.950 . S
C2899 C2895 1.393 . S
C2899 C2898 1.391 . S
H2900 C2908 0.950 . S
H2901 C2913 0.950 . S
H2902 C2910 0.950 . S
H2903 C2912 0.950 . S
H2904 C2914 0.950 . S
H2905 C2916 0.950 . S
H2906 C2918 0.950 . S
H2907 C2919 0.950 . S
C2908 H2900 0.950 . S
C2908 C2909 1.386 . S
C2908 C2910 1.391 . S
C2909 C2908 1.386 . S
C2909 C2913 1.393 . S
C2910 H2902 0.950 . S
C2910 C2908 1.391 . S
C2910 C2911 1.400 . S
C2911 C2910 1.400 . S
C2911 C2912 1.398 . S
C2911 C2917 1.491 . S
C2912 H2903 0.950 . S
C2912 C2911 1.398 . S
C2912 C2913 1.391 . S
C2913 H2901 0.950 . S
C2913 C2909 1.393 . S
C2913 C2912 1.391 . S
C2914 H2904 0.950 . S
C2914 C2915 1.386 . S
C2914 C2916 1.391 . S
C2915 C2914 1.386 . S
C2915 C2919 1.393 . S
C2916 H2905 0.950 . S
C2916 C2914 1.391 . S
C2916 C2917 1.400 . S
C2917 C2911 1.491 . S
C2917 C2916 1.400 . S
C2917 C2918 1.398 . S
C2918 H2906 0.950 . S
C2918 C2917 1.398 . S
C2918 C2919 1.391 . S
C2919 H2907 0.950 . S
C2919 C2915 1.393 . S
C2919 C2918 1.391 . S
H2920 C2928 0.950 . S
H2921 C2933 0.950 . S
H2922 C2930 0.950 . S
H2923 C2932 0.950 . S
H2924 C2934 0.950 . S
H2925 C2936 0.950 . S
H2926 C2938 0.950 . S
H2927 C2939 0.950 . S
C2928 H2920 0.950 . S
C2928 C2929 1.386 . S
C2928 C2930 1.391 . S
C2929 C2928 1.386 . S
C2929 C2933 1.393 . S
C2930 H2922 0.950 . S
C2930 C2928 1.391 . S
C2930 C2931 1.400 . S
C2931 C2930 1.400 . S
C2931 C2932 1.398 . S
C2931 C2937 1.491 . S
C2932 H2923 0.950 . S
C2932 C2931 1.398 . S
C2932 C2933 1.391 . S
C2933 H2921 0.950 . S
C2933 C2929 1.393 . S
C2933 C2932 1.391 . S
C2934 H2924 0.950 . S
C2934 C2935 1.386 . S
C2934 C2936 1.391 . S
C2935 C2934 1.386 . S
C2935 C2939 1.393 . S
C2936 H2925 0.950 . S
C2936 C2934 1.391 . S
C2936 C2937 1.400 . S
C2937 C2931 1.491 . S
C2937 C2936 1.400 . S
C2937 C2938 1.398 . S
C2938 H2926 0.950 . S
C2938 C2937 1.398 . S
C2938 C2939 1.391 . S
C2939 H2927 0.950 . S
C2939 C2935 1.393 . S
C2939 C2938 1.391 . S
H2940 C2948 0.950 . S
H2941 C2953 0.950 . S
H2942 C2950 0.950 . S
H2943 C2952 0.950 . S
H2944 C2954 0.950 . S
H2945 C2956 0.950 . S
H2946 C2958 0.950 . S
H2947 C2959 0.950 . S
C2948 H2940 0.950 . S
C2948 C2949 1.386 . S
C2948 C2950 1.391 . S
C2949 C2948 1.386 . S
C2949 C2953 1.393 . S
C2950 H2942 0.950 . S
C2950 C2948 1.391 . S
C2950 C2951 1.400 . S
C2951 C2950 1.400 . S
C2951 C2952 1.398 . S
C2951 C2957 1.491 . S
C2952 H2943 0.950 . S
C2952 C2951 1.398 . S
C2952 C2953 1.391 . S
C2953 H2941 0.950 . S
C2953 C2949 1.393 . S
C2953 C2952 1.391 . S
C2954 H2944 0.950 . S
C2954 C2955 1.386 . S
C2954 C2956 1.391 . S
C2955 C2954 1.386 . S
C2955 C2959 1.393 . S
C2956 H2945 0.950 . S
C2956 C2954 1.391 . S
C2956 C2957 1.400 . S
C2957 C2951 1.491 . S
C2957 C2956 1.400 . S
C2957 C2958 1.398 . S
C2958 H2946 0.950 . S
C2958 C2957 1.398 . S
C2958 C2959 1.391 . S
C2959 H2947 0.950 . S
C2959 C2955 1.393 . S
C2959 C2958 1.391 . S
H2960 C2968 0.950 . S
H2961 C2973 0.950 . S
H2962 C2970 0.950 . S
H2963 C2972 0.950 . S
H2964 C2974 0.950 . S
H2965 C2976 0.950 . S
H2966 C2978 0.950 . S
H2967 C2979 0.950 . S
C2968 H2960 0.950 . S
C2968 C2969 1.386 . S
C2968 C2970 1.391 . S
C2969 C2968 1.386 . S
C2969 C2973 1.393 . S
C2970 H2962 0.950 . S
C2970 C2968 1.391 . S
C2970 C2971 1.400 . S
C2971 C2970 1.400 . S
C2971 C2972 1.398 . S
C2971 C2977 1.491 . S
C2972 H2963 0.950 . S
C2972 C2971 1.398 . S
C2972 C2973 1.391 . S
C2973 H2961 0.950 . S
C2973 C2969 1.393 . S
C2973 C2972 1.391 . S
C2974 H2964 0.950 . S
C2974 C2975 1.386 . S
C2974 C2976 1.391 . S
C2975 C2974 1.386 . S
C2975 C2979 1.393 . S
C2976 H2965 0.950 . S
C2976 C2974 1.391 . S
C2976 C2977 1.400 . S
C2977 C2971 1.491 . S
C2977 C2976 1.400 . S
C2977 C2978 1.398 . S
C2978 H2966 0.950 . S
C2978 C2977 1.398 . S
C2978 C2979 1.391 . S
C2979 H2967 0.950 . S
C2979 C2975 1.393 . S
C2979 C2978 1.391 . S
H2980 C2988 0.950 . S
H2981 C2993 0.950 . S
H2982 C2990 0.950 . S
H2983 C2992 0.950 . S
H2984 C2994 0.950 . S
H2985 C2996 0.950 . S
H2986 C2998 0.950 . S
H2987 C2999 0.950 . S
C2988 H2980 0.950 . S
C2988 C2989 1.386 . S
C2988 C2990 1.391 . S
C2989 C2988 1.386 . S
C2989 C2993 1.393 . S
C2990 H2982 0.950 . S
C2990 C2988 1.391 . S
C2990 C2991 1.400 . S
C2991 C2990 1.400 . S
C2991 C2992 1.398 . S
C2991 C2997 1.491 . S
C2992 H2983 0.950 . S
C2992 C2991 1.398 . S
C2992 C2993 1.391 . S
C2993 H2981 0.950 . S
C2993 C2989 1.393 . S
C2993 C2992 1.391 . S
C2994 H2984 0.950 . S
C2994 C2995 1.386 . S
C2994 C2996 1.391 . S
C2995 C2994 1.386 . S
C2995 C2999 1.393 . S
C2996 H2985 0.950 . S
C2996 C2994 1.391 . S
C2996 C2997 1.400 . S
C2997 C2991 1.491 . S
C2997 C2996 1.400 . S
C2997 C2998 1.398 . S
C2998 H2986 0.950 . S
C2998 C2997 1.398 . S
C2998 C2999 1.391 . S
C2999 H2987 0.950 . S
C2999 C2995 1.393 . S
C2999 C2998 1.391 . S
H3000 C3008 0.950 . S
H3001 C3013 0.950 . S
H3002 C3010 0.950 . S
H3003 C3012 0.950 . S
H3004 C3014 0.950 . S
H3005 C3016 0.950 . S
H3006 C3018 0.950 . S
H3007 C3019 0.950 . S
C3008 H3000 0.950 . S
C3008 C3009 1.386 . S
C3008 C3010 1.391 . S
C3009 C3008 1.386 . S
C3009 C3013 1.393 . S
C3010 H3002 0.950 . S
C3010 C3008 1.391 . S
C3010 C3011 1.400 . S
C3011 C3010 1.400 . S
C3011 C3012 1.398 . S
C3011 C3017 1.491 . S
C3012 H3003 0.950 . S
C3012 C3011 1.398 . S
C3012 C3013 1.391 . S
C3013 H3001 0.950 . S
C3013 C3009 1.393 . S
C3013 C3012 1.391 . S
C3014 H3004 0.950 . S
C3014 C3015 1.386 . S
C3014 C3016 1.391 . S
C3015 C3014 1.386 . S
C3015 C3019 1.393 . S
C3016 H3005 0.950 . S
C3016 C3014 1.391 . S
C3016 C3017 1.400 . S
C3017 C3011 1.491 . S
C3017 C3016 1.400 . S
C3017 C3018 1.398 . S
C3018 H3006 0.950 . S
C3018 C3017 1.398 . S
C3018 C3019 1.391 . S
C3019 H3007 0.950 . S
C3019 C3015 1.393 . S
C3019 C3018 1.391 . S
H3020 C3028 0.950 . S
H3021 C3033 0.950 . S
H3022 C3030 0.950 . S
H3023 C3032 0.950 . S
H3024 C3034 0.950 . S
H3025 C3036 0.950 . S
H3026 C3038 0.950 . S
H3027 C3039 0.950 . S
C3028 H3020 0.950 . S
C3028 C3029 1.386 . S
C3028 C3030 1.391 . S
C3029 C3028 1.386 . S
C3029 C3033 1.393 . S
C3030 H3022 0.950 . S
C3030 C3028 1.391 . S
C3030 C3031 1.400 . S
C3031 C3030 1.400 . S
C3031 C3032 1.398 . S
C3031 C3037 1.491 . S
C3032 H3023 0.950 . S
C3032 C3031 1.398 . S
C3032 C3033 1.391 . S
C3033 H3021 0.950 . S
C3033 C3029 1.393 . S
C3033 C3032 1.391 . S
C3034 H3024 0.950 . S
C3034 C3035 1.386 . S
C3034 C3036 1.391 . S
C3035 C3034 1.386 . S
C3035 C3039 1.393 . S
C3036 H3025 0.950 . S
C3036 C3034 1.391 . S
C3036 C3037 1.400 . S
C3037 C3031 1.491 . S
C3037 C3036 1.400 . S
C3037 C3038 1.398 . S
C3038 H3026 0.950 . S
C3038 C3037 1.398 . S
C3038 C3039 1.391 . S
C3039 H3027 0.950 . S
C3039 C3035 1.393 . S
C3039 C3038 1.391 . S
H3040 C3048 0.950 . S
H3041 C3053 0.950 . S
H3042 C3050 0.950 . S
H3043 C3052 0.950 . S
H3044 C3054 0.950 . S
H3045 C3056 0.950 . S
H3046 C3058 0.950 . S
H3047 C3059 0.950 . S
C3048 H3040 0.950 . S
C3048 C3049 1.386 . S
C3048 C3050 1.391 . S
C3049 C3048 1.386 . S
C3049 C3053 1.393 . S
C3050 H3042 0.950 . S
C3050 C3048 1.391 . S
C3050 C3051 1.400 . S
C3051 C3050 1.400 . S
C3051 C3052 1.398 . S
C3051 C3057 1.491 . S
C3052 H3043 0.950 . S
C3052 C3051 1.398 . S
C3052 C3053 1.391 . S
C3053 H3041 0.950 . S
C3053 C3049 1.393 . S
C3053 C3052 1.391 . S
C3054 H3044 0.950 . S
C3054 C3055 1.386 . S
C3054 C3056 1.391 . S
C3055 C3054 1.386 . S
C3055 C3059 1.393 . S
C3056 H3045 0.950 . S
C3056 C3054 1.391 . S
C3056 C3057 1.400 . S
C3057 C3051 1.491 . S
C3057 C3056 1.400 . S
C3057 C3058 1.398 . S
C3058 H3046 0.950 . S
C3058 C3057 1.398 . S
C3058 C3059 1.391 . S
C3059 H3047 0.950 . S
C3059 C3055 1.393 . S
C3059 C3058 1.391 . S
H3060 C3068 0.950 . S
H3061 C3073 0.950 . S
H3062 C3070 0.950 . S
H3063 C3072 0.950 . S
H3064 C3074 0.950 . S
H3065 C3076 0.950 . S
H3066 C3078 0.950 . S
H3067 C3079 0.950 . S
C3068 H3060 0.950 . S
C3068 C3069 1.386 . S
C3068 C3070 1.391 . S
C3069 C3068 1.386 . S
C3069 C3073 1.393 . S
C3070 H3062 0.950 . S
C3070 C3068 1.391 . S
C3070 C3071 1.400 . S
C3071 C3070 1.400 . S
C3071 C3072 1.398 . S
C3071 C3077 1.491 . S
C3072 H3063 0.950 . S
C3072 C3071 1.398 . S
C3072 C3073 1.391 . S
C3073 H3061 0.950 . S
C3073 C3069 1.393 . S
C3073 C3072 1.391 . S
C3074 H3064 0.950 . S
C3074 C3075 1.386 . S
C3074 C3076 1.391 . S
C3075 C3074 1.386 . S
C3075 C3079 1.393 . S
C3076 H3065 0.950 . S
C3076 C3074 1.391 . S
C3076 C3077 1.400 . S
C3077 C3071 1.491 . S
C3077 C3076 1.400 . S
C3077 C3078 1.398 . S
C3078 H3066 0.950 . S
C3078 C3077 1.398 . S
C3078 C3079 1.391 . S
C3079 H3067 0.950 . S
C3079 C3075 1.393 . S
C3079 C3078 1.391 . S
H3080 C3088 0.950 . S
H3081 C3093 0.950 . S
H3082 C3090 0.950 . S
H3083 C3092 0.950 . S
H3084 C3094 0.950 . S
H3085 C3096 0.950 . S
H3086 C3098 0.950 . S
H3087 C3099 0.950 . S
C3088 H3080 0.950 . S
C3088 C3089 1.386 . S
C3088 C3090 1.391 . S
C3089 C3088 1.386 . S
C3089 C3093 1.393 . S
C3090 H3082 0.950 . S
C3090 C3088 1.391 . S
C3090 C3091 1.400 . S
C3091 C3090 1.400 . S
C3091 C3092 1.398 . S
C3091 C3097 1.491 . S
C3092 H3083 0.950 . S
C3092 C3091 1.398 . S
C3092 C3093 1.391 . S
C3093 H3081 0.950 . S
C3093 C3089 1.393 . S
C3093 C3092 1.391 . S
C3094 H3084 0.950 . S
C3094 C3095 1.386 . S
C3094 C3096 1.391 . S
C3095 C3094 1.386 . S
C3095 C3099 1.393 . S
C3096 H3085 0.950 . S
C3096 C3094 1.391 . S
C3096 C3097 1.400 . S
C3097 C3091 1.491 . S
C3097 C3096 1.400 . S
C3097 C3098 1.398 . S
C3098 H3086 0.950 . S
C3098 C3097 1.398 . S
C3098 C3099 1.391 . S
C3099 H3087 0.950 . S
C3099 C3095 1.393 . S
C3099 C3098 1.391 . S
H3100 C3108 0.950 . S
H3101 C3113 0.950 . S
H3102 C3110 0.950 . S
H3103 C3112 0.950 . S
H3104 C3114 0.950 . S
H3105 C3116 0.950 . S
H3106 C3118 0.950 . S
H3107 C3119 0.950 . S
C3108 H3100 0.950 . S
C3108 C3109 1.386 . S
C3108 C3110 1.391 . S
C3109 C3108 1.386 . S
C3109 C3113 1.393 . S
C3110 H3102 0.950 . S
C3110 C3108 1.391 . S
C3110 C3111 1.400 . S
C3111 C3110 1.400 . S
C3111 C3112 1.398 . S
C3111 C3117 1.491 . S
C3112 H3103 0.950 . S
C3112 C3111 1.398 . S
C3112 C3113 1.391 . S
C3113 H3101 0.950 . S
C3113 C3109 1.393 . S
C3113 C3112 1.391 . S
C3114 H3104 0.950 . S
C3114 C3115 1.386 . S
C3114 C3116 1.391 . S
C3115 C3114 1.386 . S
C3115 C3119 1.393 . S
C3116 H3105 0.950 . S
C3116 C3114 1.391 . S
C3116 C3117 1.400 . S
C3117 C3111 1.491 . S
C3117 C3116 1.400 . S
C3117 C3118 1.398 . S
C3118 H3106 0.950 . S
C3118 C3117 1.398 . S
C3118 C3119 1.391 . S
C3119 H3107 0.950 . S
C3119 C3115 1.393 . S
C3119 C3118 1.391 . S
H3120 C3128 0.950 . S
H3121 C3133 0.950 . S
H3122 C3130 0.950 . S
H3123 C3132 0.950 . S
H3124 C3134 0.950 . S
H3125 C3136 0.950 . S
H3126 C3138 0.950 . S
H3127 C3139 0.950 . S
C3128 H3120 0.950 . S
C3128 C3129 1.386 . S
C3128 C3130 1.391 . S
C3129 C3128 1.386 . S
C3129 C3133 1.393 . S
C3130 H3122 0.950 . S
C3130 C3128 1.391 . S
C3130 C3131 1.400 . S
C3131 C3130 1.400 . S
C3131 C3132 1.398 . S
C3131 C3137 1.491 . S
C3132 H3123 0.950 . S
C3132 C3131 1.398 . S
C3132 C3133 1.391 . S
C3133 H3121 0.950 . S
C3133 C3129 1.393 . S
C3133 C3132 1.391 . S
C3134 H3124 0.950 . S
C3134 C3135 1.386 . S
C3134 C3136 1.391 . S
C3135 C3134 1.386 . S
C3135 C3139 1.393 . S
C3136 H3125 0.950 . S
C3136 C3134 1.391 . S
C3136 C3137 1.400 . S
C3137 C3131 1.491 . S
C3137 C3136 1.400 . S
C3137 C3138 1.398 . S
C3138 H3126 0.950 . S
C3138 C3137 1.398 . S
C3138 C3139 1.391 . S
C3139 H3127 0.950 . S
C3139 C3135 1.393 . S
C3139 C3138 1.391 . S
H3140 C3148 0.950 . S
H3141 C3153 0.950 . S
H3142 C3150 0.950 . S
H3143 C3152 0.950 . S
H3144 C3154 0.950 . S
H3145 C3156 0.950 . S
H3146 C3158 0.950 . S
H3147 C3159 0.950 . S
C3148 H3140 0.950 . S
C3148 C3149 1.386 . S
C3148 C3150 1.391 . S
C3149 C3148 1.386 . S
C3149 C3153 1.393 . S
C3150 H3142 0.950 . S
C3150 C3148 1.391 . S
C3150 C3151 1.400 . S
C3151 C3150 1.400 . S
C3151 C3152 1.398 . S
C3151 C3157 1.491 . S
C3152 H3143 0.950 . S
C3152 C3151 1.398 . S
C3152 C3153 1.391 . S
C3153 H3141 0.950 . S
C3153 C3149 1.393 . S
C3153 C3152 1.391 . S
C3154 H3144 0.950 . S
C3154 C3155 1.386 . S
C3154 C3156 1.391 . S
C3155 C3154 1.386 . S
C3155 C3159 1.393 . S
C3156 H3145 0.950 . S
C3156 C3154 1.391 . S
C3156 C3157 1.400 . S
C3157 C3151 1.491 . S
C3157 C3156 1.400 . S
C3157 C3158 1.398 . S
C3158 H3146 0.950 . S
C3158 C3157 1.398 . S
C3158 C3159 1.391 . S
C3159 H3147 0.950 . S
C3159 C3155 1.393 . S
C3159 C3158 1.391 . S
H3160 C3168 0.950 . S
H3161 C3173 0.950 . S
H3162 C3170 0.950 . S
H3163 C3172 0.950 . S
H3164 C3174 0.950 . S
H3165 C3176 0.950 . S
H3166 C3178 0.950 . S
H3167 C3179 0.950 . S
C3168 H3160 0.950 . S
C3168 C3169 1.386 . S
C3168 C3170 1.391 . S
C3169 C3168 1.386 . S
C3169 C3173 1.393 . S
C3170 H3162 0.950 . S
C3170 C3168 1.391 . S
C3170 C3171 1.400 . S
C3171 C3170 1.400 . S
C3171 C3172 1.398 . S
C3171 C3177 1.491 . S
C3172 H3163 0.950 . S
C3172 C3171 1.398 . S
C3172 C3173 1.391 . S
C3173 H3161 0.950 . S
C3173 C3169 1.393 . S
C3173 C3172 1.391 . S
C3174 H3164 0.950 . S
C3174 C3175 1.386 . S
C3174 C3176 1.391 . S
C3175 C3174 1.386 . S
C3175 C3179 1.393 . S
C3176 H3165 0.950 . S
C3176 C3174 1.391 . S
C3176 C3177 1.400 . S
C3177 C3171 1.491 . S
C3177 C3176 1.400 . S
C3177 C3178 1.398 . S
C3178 H3166 0.950 . S
C3178 C3177 1.398 . S
C3178 C3179 1.391 . S
C3179 H3167 0.950 . S
C3179 C3175 1.393 . S
C3179 C3178 1.391 . S
H3180 C3188 0.950 . S
H3181 C3193 0.950 . S
H3182 C3190 0.950 . S
H3183 C3192 0.950 . S
H3184 C3194 0.950 . S
H3185 C3196 0.950 . S
H3186 C3198 0.950 . S
H3187 C3199 0.950 . S
C3188 H3180 0.950 . S
C3188 C3189 1.386 . S
C3188 C3190 1.391 . S
C3189 C3188 1.386 . S
C3189 C3193 1.393 . S
C3190 H3182 0.950 . S
C3190 C3188 1.391 . S
C3190 C3191 1.400 . S
C3191 C3190 1.400 . S
C3191 C3192 1.398 . S
C3191 C3197 1.491 . S
C3192 H3183 0.950 . S
C3192 C3191 1.398 . S
C3192 C3193 1.391 . S
C3193 H3181 0.950 . S
C3193 C3189 1.393 . S
C3193 C3192 1.391 . S
C3194 H3184 0.950 . S
C3194 C3195 1.386 . S
C3194 C3196 1.391 . S
C3195 C3194 1.386 . S
C3195 C3199 1.393 . S
C3196 H3185 0.950 . S
C3196 C3194 1.391 . S
C3196 C3197 1.400 . S
C3197 C3191 1.491 . S
C3197 C3196 1.400 . S
C3197 C3198 1.398 . S
C3198 H3186 0.950 . S
C3198 C3197 1.398 . S
C3198 C3199 1.391 . S
C3199 H3187 0.950 . S
C3199 C3195 1.393 . S
C3199 C3198 1.391 . S
C1289 C10 1.913 . S
C1295 C135 1.872 . S
C1309 C15 1.854 . S
C1315 C50 1.908 . S
C1329 C90 1.915 . S
C1335 C55 1.868 . S
C1349 C95 1.857 . S
C1355 C130 1.904 . S
C1369 C215 1.854 . S
C1375 C170 1.908 . S
C1389 C210 1.915 . S
C1395 C255 1.872 . S
C1409 C295 1.851 . S
C1415 C250 1.904 . S
C1429 C175 1.862 . S
C1435 C290 1.912 . S
C1449 C339 1.911 . S
C1455 C446 1.859 . S
C1469 C379 1.903 . S
C1475 C326 1.853 . S
C1489 C419 1.911 . S
C1495 C366 1.859 . S
C1509 C459 1.910 . S
C1515 C406 1.868 . S
C1529 C499 1.913 . S
C1535 C526 1.871 . S
C1549 C539 1.914 . S
C1555 C566 1.866 . S
C1569 C606 1.861 . S
C1575 C579 1.906 . S
C1589 C486 1.866 . S
C1595 C619 1.909 . S
C1609 C650 1.911 . S
C1615 C775 1.870 . S
C1629 C655 1.870 . S
C1635 C690 1.912 . S
C1649 C695 1.868 . S
C1655 C730 1.915 . S
C1669 C770 1.908 . S
C1675 C735 1.855 . S
C1689 C810 1.913 . S
C1695 C855 1.872 . S
C1709 C895 1.868 . S
C1715 C850 1.910 . S
C1729 C890 1.911 . S
C1735 C935 1.870 . S
C1749 C815 1.859 . S
C1755 C930 1.905 . S
C1769 C1086 1.863 . S
C1775 C979 1.906 . S
C1789 C966 1.871 . S
C1795 C1019 1.912 . S
C1809 C1059 1.914 . S
C1815 C1006 1.864 . S
C1829 C1046 1.858 . S
C1835 C1099 1.904 . S
C1849 C1166 1.871 . S
C1855 C1139 1.915 . S
C1869 C1206 1.872 . S
C1875 C1179 1.914 . S
C1889 C1246 1.863 . S
C1895 C1219 1.906 . S
C1909 C1259 1.909 . S
C1915 C1126 1.855 . S
C1929 C1090 1.614 . S
C1935 C9 1.601 . S
C1949 C49 1.598 . S
C1955 C330 1.606 . S
C1969 C89 1.602 . S
C1975 C1010 1.603 . S
C1989 C129 1.609 . S
C1995 C410 1.619 . S
C2009 C169 1.599 . S
C2015 C1170 1.611 . S
C2029 C570 1.611 . S
C2035 C209 1.614 . S
C2049 C1250 1.615 . S
C2055 C249 1.602 . S
C2069 C289 1.599 . S
C2075 C490 1.604 . S
C2089 C338 1.598 . S
C2095 C779 1.609 . S
C2109 C19 1.610 . S
C2115 C378 1.599 . S
C2129 C699 1.607 . S
C2135 C418 1.598 . S
C2149 C99 1.604 . S
C2155 C458 1.600 . S
C2169 C859 1.604 . S
C2175 C498 1.601 . S
C2189 C259 1.620 . S
C2195 C538 1.612 . S
C2209 C578 1.603 . S
C2215 C939 1.604 . S
C2229 C618 1.607 . S
C2235 C179 1.619 . S
C2249 C649 1.614 . S
C2255 C450 1.611 . S
C2269 C689 1.599 . S
C2275 C970 1.611 . S
C2289 C729 1.599 . S
C2295 C370 1.606 . S
C2309 C769 1.602 . S
C2315 C1050 1.604 . S
C2329 C809 1.602 . S
C2335 C530 1.615 . S
C2349 C849 1.615 . S
C2355 C1210 1.618 . S
C2369 C610 1.616 . S
C2375 C889 1.616 . S
C2389 C929 1.613 . S
C2395 C1130 1.610 . S
C2409 C139 1.611 . S
C2415 C978 1.614 . S
C2429 C659 1.620 . S
C2435 C1018 1.613 . S
C2449 C59 1.604 . S
C2455 C1058 1.601 . S
C2469 C739 1.605 . S
C2475 C1098 1.599 . S
C2489 C219 1.612 . S
C2495 C1138 1.600 . S
C2509 C1178 1.616 . S
C2515 C899 1.617 . S
C2529 C1218 1.599 . S
C2535 C299 1.610 . S
C2549 C819 1.604 . S
C2555 C1258 1.602 . S
C2569 C18 0.812 . S
C2575 C178 0.778 . S
C2589 C58 0.787 . S
C2595 C218 0.809 . S
C2609 C98 0.783 . S
C2615 C258 0.811 . S
C2629 C298 0.812 . S
C2635 C138 0.780 . S
C2649 C489 0.809 . S
C2655 C329 0.773 . S
C2669 C529 0.793 . S
C2675 C369 0.805 . S
C2689 C409 0.782 . S
C2695 C569 0.790 . S
C2709 C449 0.812 . S
C2715 C609 0.776 . S
C2729 C658 0.804 . S
C2735 C818 0.795 . S
C2749 C858 0.808 . S
C2755 C698 0.788 . S
C2769 C898 0.784 . S
C2775 C738 0.788 . S
C2789 C938 0.777 . S
C2795 C778 0.796 . S
C2809 C1129 0.777 . S
C2815 C969 0.796 . S
C2829 C1009 0.808 . S
C2835 C1169 0.773 . S
C2849 C1209 0.785 . S
C2855 C1049 0.810 . S
C2869 C1089 0.773 . S
C2875 C1249 0.805 . S
C2889 C286 1.336 . S
C2895 C6 1.339 . S
C2909 C46 1.330 . S
C2915 C166 1.319 . S
C2929 C86 1.339 . S
C2935 C206 1.335 . S
C2949 C246 1.337 . S
C2955 C126 1.327 . S
C2969 C335 1.328 . S
C2975 C615 1.317 . S
C2989 C495 1.335 . S
C2995 C375 1.323 . S
C3009 C535 1.336 . S
C3015 C415 1.325 . S
C3029 C455 1.324 . S
C3035 C575 1.335 . S
C3049 C646 1.334 . S
C3055 C926 1.323 . S
C3069 C806 1.313 . S
C3075 C686 1.319 . S
C3089 C846 1.313 . S
C3095 C726 1.319 . S
C3109 C886 1.339 . S
C3115 C766 1.335 . S
C3129 C975 1.313 . S
C3135 C1255 1.319 . S
C3149 C1135 1.325 . S
C3155 C1015 1.336 . S
C3169 C1055 1.332 . S
C3175 C1175 1.339 . S
C3189 C1215 1.320 . S
C3195 C1095 1.332 . S
