# Generated by pormake.
# Topology sxb, (6)-cn, num edge types: 1
# Building blocks:
#     Node 0, Type 0, BuildingBlock: INOVEN_clean_sbu_0, # of connection points: 6
#     Node 1, Type 0, BuildingBlock: INOVEN_clean_sbu_0, # of connection points: 6
#     Node 2, Type 0, BuildingBlock: INOVEN_clean_sbu_0, # of connection points: 6
#     Node 3, Type 0, BuildingBlock: INOVEN_clean_sbu_0, # of connection points: 6
#     Edge 4, Type (0, 0), BuildingBlock: XIVTED_clean_linker_0, # of connection points: 2
#     Edge 5, Type (0, 0), BuildingBlock: XIVTED_clean_linker_0, # of connection points: 2
#     Edge 6, Type (0, 0), BuildingBlock: XIVTED_clean_linker_0, # of connection points: 2
#     Edge 7, Type (0, 0), BuildingBlock: XIVTED_clean_linker_0, # of connection points: 2
#     Edge 8, Type (0, 0), BuildingBlock: XIVTED_clean_linker_0, # of connection points: 2
#     Edge 9, Type (0, 0), BuildingBlock: XIVTED_clean_linker_0, # of connection points: 2
#     Edge 10, Type (0, 0), BuildingBlock: XIVTED_clean_linker_0, # of connection points: 2
#     Edge 11, Type (0, 0), BuildingBlock: XIVTED_clean_linker_0, # of connection points: 2
#     Edge 12, Type (0, 0), BuildingBlock: XIVTED_clean_linker_0, # of connection points: 2
#     Edge 13, Type (0, 0), BuildingBlock: XIVTED_clean_linker_0, # of connection points: 2
#     Edge 14, Type (0, 0), BuildingBlock: XIVTED_clean_linker_0, # of connection points: 2
#     Edge 15, Type (0, 0), BuildingBlock: XIVTED_clean_linker_0, # of connection points: 2
# Relax obj value: 0.400
# Max RMSD: 0.128
# Mean RMSD: 0.084
data_MOF--net-sxb--node1-INOVEN_clean_sbu_0--edge1-XIVTED_clean_linker_0
_symmetry_space_group_name_H-M    P1
_symmetry_Int_Tables_number       1
_symmetry_cell_setting            triclinic
loop_
_symmetry_equiv_pos_as_xyz
'x, y, z'
_cell_length_a     15.850613
_cell_length_b     36.246989
_cell_length_c     29.539631
_cell_angle_alpha  92.529844
_cell_angle_beta   94.387541
_cell_angle_gamma 59.420284
loop_
_atom_site_label
_atom_site_type_symbol
_atom_site_fract_x
_atom_site_fract_y
_atom_site_fract_z
_atom_type_partial_charge
Gd0 Gd 1.00187 1.08849 0.9663 0.0
Gd1 Gd 0.18623 1.08137 0.96072 0.0
C2 C 1.01296 0.17367 0.95678 0.0
C3 C 0.83809 0.1087 -0.00102 0.0
C4 C 0.81258 0.11911 0.04675 0.0
C5 C 0.81455 0.1537 0.0696 0.0
C6 C 0.79584 0.0915 0.07124 0.0
C7 C 0.78065 0.13328 0.14027 0.0
C8 C 0.78052 0.09835 0.11741 0.0
C9 C 0.79775 0.16094 0.11588 0.0
C10 C 1.05027 1.07568 0.87841 0.0
C11 C 0.18013 0.99562 0.959 0.0
C12 C 0.3631 1.06488 0.96483 0.0
C13 C 0.40913 1.06813 0.00913 0.0
C14 C 0.40932 1.04541 0.04679 0.0
C15 C 0.42862 0.10161 0.01677 0.0
C16 C 0.43479 0.09315 0.09861 0.0
C17 C 0.44117 0.11403 0.06103 0.0
C18 C 0.4223 1.05774 0.09103 0.0
C19 C 0.12564 0.09594 0.04732 0.0
O20 O 0.97391 0.15579 0.97887 0.0
O21 O 0.09512 0.14906 0.93689 0.0
O22 O 0.85032 0.13607 0.97727 0.0
O23 O 0.90527 1.06904 0.99126 0.0
O24 O 0.9976 1.06279 0.89617 0.0
O25 O 1.0675 0.09866 0.90656 0.0
O26 O 0.21827 1.01521 0.93939 0.0
O27 O 0.09926 1.0184 0.98048 0.0
O28 O 0.29089 0.10131 0.94893 0.0
O29 O 0.34212 1.03431 0.96105 0.0
O30 O 0.16605 0.1142 0.02929 0.0
O31 O 0.12028 1.07018 0.01916 0.0
H32 H 0.82913 0.17519 0.05185 0.0
H33 H 0.79482 1.06445 0.05463 0.0
H34 H 0.76413 1.07722 0.13474 0.0
H35 H 0.79654 0.18846 0.13243 0.0
H36 H 0.39307 1.0198 0.0424 0.0
H37 H 0.42791 0.11993 0.98859 0.0
H38 H 0.45431 0.14053 0.06583 0.0
H39 H 0.41813 1.04077 0.11927 0.0
Gd40 Gd 0.13939 1.04176 0.46958 0.0
Gd41 Gd 1.02216 0.13363 0.45546 0.0
C42 C 0.89901 1.08789 0.45411 0.0
C43 C 0.2035 0.96387 0.49358 0.0
C44 C 0.15705 0.93785 0.48572 0.0
C45 C 1.08428 0.94867 0.45032 0.0
C46 C 0.17849 0.90467 0.51538 0.0
C47 C 1.05226 0.89423 0.47503 0.0
C48 C 0.12639 0.88294 0.51008 0.0
C49 C 1.03253 0.92703 0.44497 0.0
C50 C 0.12274 1.06454 0.38206 0.0
C51 C 0.26257 1.08736 0.46983 0.0
C52 C 0.95417 0.21239 0.43332 0.0
C53 C 0.9989 0.23951 0.43857 0.0
C54 C 0.95755 0.27585 0.46691 0.0
C55 C 1.08973 0.22627 0.4207 0.0
C56 C 0.10317 0.28168 0.46421 0.0
C57 C 0.14128 0.24716 0.43341 0.0
C58 C 1.00923 0.29686 0.47961 0.0
C59 C 1.04011 0.11003 0.54281 0.0
O60 O 0.98194 1.05531 0.4714 0.0
O61 O 0.89817 0.12151 0.43826 0.0
O62 O 0.22983 0.97365 0.4572 0.0
O63 O 0.15832 0.99665 0.5208 0.0
O64 O 0.2031 1.03519 0.40232 0.0
O65 O 1.05335 1.08005 0.4084 0.0
O66 O 0.17966 0.11981 0.45218 0.0
O67 O 0.26301 1.05416 0.48666 0.0
O68 O 0.93663 0.2013 0.47138 0.0
O69 O 0.99203 0.18057 0.40426 0.0
O70 O 0.9587 0.13858 0.52252 0.0
O71 O 0.10916 0.09526 0.51638 0.0
H72 H 1.06565 0.97467 0.42745 0.0
H73 H 0.2339 0.89622 0.54309 0.0
H74 H 0.14347 0.85759 0.53356 0.0
H75 H 0.9747 0.93701 0.41819 0.0
H76 H 0.8876 0.28658 0.48111 0.0
H77 H 0.12337 0.19855 0.39854 0.0
H78 H 0.21252 0.23546 0.42015 0.0
H79 H 0.97797 0.32348 0.5033 0.0
Gd80 Gd 0.50662 0.58721 0.96626 0.0
Gd81 Gd 0.69009 0.58213 0.96616 0.0
C82 C 0.51381 0.67376 0.96184 0.0
C83 C 0.34103 0.60578 0.99517 0.0
C84 C 0.31273 0.61824 0.04235 0.0
C85 C 0.31611 0.65307 0.0638 0.0
C86 C 0.29578 0.59151 0.06827 0.0
C87 C 0.28535 0.63412 0.1361 0.0
C88 C 0.28263 0.59922 0.11457 0.0
C89 C 0.30155 0.66116 0.11017 0.0
C90 C 0.56453 0.57637 0.88004 0.0
C91 C 0.68807 0.49521 0.95933 0.0
C92 C 0.8651 0.5683 0.97422 0.0
C93 C 0.90768 0.5731 0.01891 0.0
C94 C 0.91599 0.54794 0.056 0.0
C95 C 0.91845 0.60892 0.02728 0.0
C96 C 0.93526 0.59675 0.10878 0.0
C97 C 0.93172 0.62071 0.07172 0.0
C98 C 0.93014 0.55956 0.10044 0.0
C99 C 0.62206 0.59465 0.05113 0.0
O100 O 0.47435 0.65488 0.98185 0.0
O101 O 0.59796 0.65 0.94323 0.0
O102 O 0.35136 0.63282 0.97177 0.0
O103 O 0.4117 0.56628 0.99004 0.0
O104 O 0.51421 0.56093 0.89511 0.0
O105 O 0.57529 0.59985 0.90991 0.0
O106 O 0.72761 0.5156 0.94256 0.0
O107 O 0.60462 0.51711 0.97902 0.0
O108 O 0.79247 0.6039 0.95689 0.0
O109 O 0.84712 0.53684 0.97049 0.0
O110 O 0.66275 0.61387 0.03544 0.0
O111 O 0.6203 0.56913 0.02151 0.0
H112 H 0.33099 0.67388 0.04498 0.0
H113 H 0.29411 0.5642 0.0528 0.0
H114 H 0.26686 0.57858 0.13321 0.0
H115 H 0.3022 0.68866 0.1257 0.0
H116 H 0.90672 0.5204 0.05106 0.0
H117 H 0.91151 0.62911 -0.00042 0.0
H118 H 0.9389 0.64877 0.0771 0.0
H119 H 0.93404 0.54021 0.12834 0.0
Gd120 Gd 0.64904 0.52904 0.47232 0.0
Gd121 Gd 0.53162 0.62136 0.45371 0.0
C122 C 0.40987 0.57578 0.46 0.0
C123 C 0.71752 0.45198 0.50084 0.0
C124 C 0.66916 0.43029 0.51749 0.0
C125 C 0.69817 0.38845 0.5029 0.0
C126 C 0.58601 0.45294 0.54294 0.0
C127 C 0.55454 0.39398 0.53422 0.0
C128 C 0.52942 0.43484 0.55139 0.0
C129 C 0.64138 0.37036 0.51122 0.0
C130 C 0.63421 0.54947 0.38416 0.0
C131 C 0.77293 0.57475 0.46815 0.0
C132 C 0.46828 0.6972 0.42329 0.0
C133 C 0.51158 0.72447 0.43083 0.0
C134 C 0.58014 0.71601 0.46765 0.0
C135 C 0.49236 0.75612 0.3995 0.0
C136 C 0.61313 0.76953 0.44094 0.0
C137 C 0.54277 0.7786 0.40454 0.0
C138 C 0.63037 0.73833 0.47269 0.0
C139 C 0.54765 0.60303 0.5429 0.0
O140 O 0.49163 0.54537 0.48078 0.0
O141 O 0.41016 0.60709 0.43903 0.0
O142 O 0.69721 0.4623 0.45794 0.0
O143 O 0.71571 0.48261 0.52656 0.0
O144 O 0.71501 0.5211 0.40519 0.0
O145 O 0.56458 0.56553 0.41032 0.0
O146 O 0.68865 0.60828 0.45346 0.0
O147 O 0.77624 0.53999 0.48223 0.0
O148 O 0.43549 0.69002 0.4592 0.0
O149 O 0.52026 0.66243 0.39962 0.0
O150 O 0.46986 0.63377 0.52239 0.0
O151 O 0.61604 0.58499 0.51605 0.0
H152 H 0.76172 0.37069 0.48295 0.0
H153 H 0.56198 0.4854 0.55447 0.0
H154 H 0.46375 0.45356 0.56976 0.0
H155 H 0.66229 0.33897 0.49715 0.0
H156 H 0.59701 0.6912 0.49185 0.0
H157 H 0.44024 0.76271 0.37068 0.0
H158 H 0.52754 0.8027 0.37974 0.0
H159 H 0.68535 0.72999 0.50057 0.0
H160 H 0.33993 0.7317 0.99767 0.0
H161 H 0.35122 0.93828 0.91998 0.0
H162 H 0.57336 0.7241 0.92408 0.0
H163 H 0.12108 0.94466 0.99519 0.0
H164 H 0.43249 0.86004 0.91991 0.0
H165 H 0.2581 0.80973 0.99608 0.0
C166 C 0.37414 0.7464 0.98117 0.0
C167 C 0.46388 0.7212 0.96103 0.0
C168 C 0.36414 0.87855 0.93636 0.0
C169 C 0.37008 0.8109 0.95903 0.0
C170 C 0.31754 0.92328 0.93637 0.0
C171 C 0.22906 0.94818 0.95764 0.0
C172 C 0.32208 0.85845 0.95777 0.0
C173 C 0.18913 0.92686 0.97839 0.0
C174 C 0.32721 0.79106 0.98026 0.0
C175 C 0.50437 0.7422 0.94009 0.0
N176 N 0.23591 0.88331 0.97796 0.0
N177 N 0.45722 0.78579 0.93965 0.0
H178 H 0.86243 0.43825 0.92184 0.0
H179 H 0.84062 0.23238 0.99267 0.0
H180 H 0.62574 0.44392 0.99094 0.0
H181 H 1.07551 0.22308 0.91882 0.0
H182 H 0.76208 0.31012 0.99188 0.0
H183 H 0.94244 0.35985 0.91978 0.0
C184 C 0.82714 0.42309 0.93647 0.0
C185 C 0.73717 0.4478 0.95664 0.0
C186 C 0.83073 0.29121 0.97576 0.0
C187 C 0.82846 0.35811 0.95448 0.0
C188 C 0.87583 0.24667 0.97622 0.0
C189 C 0.96501 0.22104 0.9558 0.0
C190 C 0.8749 0.31061 0.95482 0.0
C191 C 1.0068 0.24156 0.93497 0.0
C192 C 0.8729 0.37831 0.93529 0.0
C193 C 0.69499 0.42633 0.97506 0.0
N194 N 0.96147 0.28516 0.93508 0.0
N195 N 0.74099 0.38287 0.97359 0.0
H196 H 1.04819 0.36633 0.47709 0.0
H197 H 0.59597 0.31211 0.55003 0.0
H198 H 0.29687 0.23807 0.49286 0.0
H199 H 0.35489 0.43967 0.52005 0.0
H200 H 0.48178 0.2854 0.54053 0.0
H201 H 0.15414 0.39483 0.50387 0.0
C202 C 0.12488 0.34422 0.48647 0.0
C203 C 0.16428 0.29984 0.48203 0.0
C204 C 0.4537 0.31933 0.53654 0.0
C205 C 0.28559 0.33202 0.51262 0.0
C206 C 0.51889 0.33455 0.54189 0.0
C207 C 0.48508 0.37812 0.53545 0.0
C208 C 0.35409 0.34786 0.52444 0.0
C209 C 0.38412 0.4059 0.52568 0.0
C210 C 0.18533 0.36044 0.50164 0.0
C211 C 0.26407 0.27255 0.49471 0.0
N212 N 0.32236 0.39024 0.52001 0.0
N213 N 0.32136 0.28909 0.50918 0.0
H214 H 0.97309 0.87488 0.54287 0.0
H215 H 0.69676 0.78652 0.37311 0.0
H216 H 0.99286 0.8673 0.39749 0.0
H217 H 0.66625 0.79985 0.51782 0.0
H218 H 0.805 0.8163 0.38122 0.0
H219 H 0.86409 0.84546 0.53457 0.0
C220 C 0.95538 0.86655 0.50925 0.0
C221 C 0.99198 0.87356 0.4708 0.0
C222 C 0.77435 0.81285 0.41119 0.0
C223 C 0.86606 0.84059 0.46095 0.0
C224 C 0.71184 0.79621 0.40651 0.0
C225 C 0.67252 0.79065 0.44486 0.0
C226 C 0.79781 0.82397 0.45452 0.0
C227 C 0.69597 0.80308 0.48742 0.0
C228 C 0.89244 0.85014 0.50448 0.0
C229 C 0.96535 0.86285 0.42798 0.0
N230 N 0.7573 0.81904 0.49112 0.0
N231 N 0.90389 0.84696 0.4242 0.0
H232 H 0.54135 1.0438 0.17281 0.0
H233 H 0.83725 1.08166 0.21588 0.0
H234 H 0.34985 0.17518 0.1325 0.0
H235 H 0.63738 0.21102 0.17207 0.0
H236 H 0.71207 1.08553 0.26158 0.0
H237 H 0.6027 1.06779 0.23832 0.0
C238 C 0.51074 1.0779 0.17825 0.0
C239 C 0.44636 0.10743 0.14529 0.0
C240 C 0.69505 0.11353 0.24253 0.0
C241 C 0.5216 0.13516 0.21846 0.0
C242 C 0.76791 0.11154 0.21708 0.0
C243 C 0.74356 0.14446 0.18636 0.0
C244 C 0.59749 0.1467 0.23309 0.0
C245 C 0.65607 0.18328 0.1921 0.0
C246 C 0.54642 0.09183 0.21579 0.0
C247 C 0.40539 0.15115 0.15542 0.0
N248 N 0.58381 0.18301 0.21374 0.0
N249 N 0.4457 0.16372 0.19045 0.0
H250 H 0.44886 1.02487 0.49953 0.0
H251 H 0.71279 0.15021 0.4243 0.0
H252 H 0.29276 0.14975 0.43761 0.0
H253 H 0.86989 1.02471 0.48497 0.0
H254 H 0.55902 0.15036 0.42847 0.0
H255 H 0.603 1.02435 0.49485 0.0
C256 C 0.4466 1.05235 0.48513 0.0
C257 C 0.35681 1.08749 0.46903 0.0
C258 C 0.62707 0.12271 0.44079 0.0
C259 C 0.53454 1.08696 0.46332 0.0
C260 C 0.7153 0.12254 0.43832 0.0
C261 C 0.80516 1.0874 0.45432 0.0
C262 C 0.62783 1.0875 0.45946 0.0
C263 C 0.80285 1.05257 0.47221 0.0
C264 C 0.53504 1.05195 0.48236 0.0
C265 C 0.35954 0.12198 0.45057 0.0
N266 N 0.71598 1.05356 0.47435 0.0
N267 N 0.44652 0.12083 0.44822 0.0
H268 H 0.84111 0.67618 0.14922 0.0
H269 H 0.14589 0.71212 0.16832 0.0
H270 H 1.06653 0.54538 0.17613 0.0
H271 H 0.34964 0.5835 0.21313 0.0
H272 H 1.02835 0.71576 0.21853 0.0
H273 H 0.91191 0.69959 0.21195 0.0
C274 C 0.90491 0.65232 0.16892 0.0
C275 C 0.9527 0.60914 0.15546 0.0
C276 C 0.09918 0.68668 0.21838 0.0
C277 C 1.03875 0.63579 0.22476 0.0
C278 C 0.16758 0.68499 0.19001 0.0
C279 C 0.25313 0.64569 0.18299 0.0
C280 C 0.11504 0.64785 0.23578 0.0
C281 C 0.27989 0.61312 0.21448 0.0
C282 C 0.94595 0.66565 0.20478 0.0
C283 C 1.03062 0.57932 0.18381 0.0
N284 N 0.20925 0.61419 0.23872 0.0
N285 N 1.07327 0.5933 0.21631 0.0
H286 H 0.38186 0.5143 0.49602 0.0
H287 H 0.79775 0.63966 0.43909 0.0
H288 H 0.22383 0.63574 0.42688 0.0
H289 H 0.96091 0.5127 0.49626 0.0
H290 H 0.95133 0.64014 0.43702 0.0
H291 H 0.22772 0.51445 0.49878 0.0
C292 C 0.31496 0.54101 0.48136 0.0
C293 C 0.3165 0.57507 0.46118 0.0
C294 C 0.95361 0.61217 0.45004 0.0
C295 C 0.1386 0.57539 0.46429 0.0
C296 C 0.86565 0.61188 0.45134 0.0
C297 C 0.86574 0.57605 0.46788 0.0
C298 C 1.04297 0.57643 0.4655 0.0
C299 C 0.95665 0.54108 0.48322 0.0
C300 C 0.22675 0.54102 0.48292 0.0
C301 C 0.22679 0.60872 0.44274 0.0
N302 N 1.04114 0.54217 0.48166 0.0
N303 N 0.14186 0.60805 0.44481 0.0
H304 H 0.95829 0.09688 0.3229 0.0
H305 H 0.21235 0.12127 0.11473 0.0
H306 H 0.26735 1.05426 0.33046 0.0
H307 H 1.01964 1.06991 0.09238 0.0
H308 H 0.2056 0.11711 0.19682 0.0
H309 H 0.95196 0.10792 0.24045 0.0
C310 C 1.02436 1.09017 0.30729 0.0
C311 C 0.11371 1.07436 0.33328 0.0
C312 C 0.16416 0.10713 0.17387 0.0
C313 C 0.10634 1.08716 0.23998 0.0
C314 C 0.16786 0.10948 0.12711 0.0
C315 C 0.11701 0.09558 0.09679 0.0
C316 C 0.10678 0.09204 0.1905 0.0
C317 C 1.06021 1.08073 0.11471 0.0
C318 C 1.02075 0.09609 0.26043 0.0
C319 C 0.19725 1.06615 0.3115 0.0
N320 N 1.05598 1.07959 0.16054 0.0
N321 N 0.19148 1.07288 0.26618 0.0
H322 H 0.94793 1.05791 0.8114 0.0
H323 H 0.20493 1.08 0.60132 0.0
H324 H 0.16709 0.09499 0.83232 0.0
H325 H 0.89847 0.11828 0.59528 0.0
H326 H 0.21434 1.06885 0.68384 0.0
H327 H 0.9518 1.06285 0.72932 0.0
C328 C 0.99743 1.06681 0.79871 0.0
C329 C 1.05665 1.07646 0.82872 0.0
C330 C 0.14537 1.07952 0.66424 0.0
C331 C 1.06247 1.08145 0.73474 0.0
C332 C 0.14008 1.08563 0.6173 0.0
C333 C 1.05063 0.10025 0.59168 0.0
C334 C 1.06132 1.08695 0.68514 0.0
C335 C 0.96862 0.10725 0.61392 0.0
C336 C 0.99934 1.06972 0.75189 0.0
C337 C 0.11966 1.08766 0.81029 0.0
N338 N 0.97605 0.10026 0.65925 0.0
N339 N 0.12126 1.08973 0.76437 0.0
H340 H 0.77668 0.54461 0.33474 0.0
H341 H 0.51811 0.56503 0.09192 0.0
H342 H 0.47333 0.57773 0.32346 0.0
H343 H 0.70657 0.61771 0.12179 0.0
H344 H 0.51167 0.55815 0.17411 0.0
H345 H 0.76593 0.55936 0.25366 0.0
C346 C 0.70781 0.55499 0.3151 0.0
C347 C 0.62578 0.56001 0.33566 0.0
C348 C 0.55362 0.57152 0.16247 0.0
C349 C 0.61368 0.57595 0.24289 0.0
C350 C 0.5576 0.5753 0.11576 0.0
C351 C 0.61288 0.59196 0.10016 0.0
C352 C 0.60788 0.58321 0.19346 0.0
C353 C 0.66293 0.60476 0.13237 0.0
C354 C 0.70166 0.56353 0.26899 0.0
C355 C 0.53808 0.57369 0.30877 0.0
N356 N 0.66048 0.59951 0.17742 0.0
N357 N 0.53458 0.58063 0.26346 0.0
H358 H 0.68579 0.53341 0.5932 0.0
H359 H 0.55113 0.64332 0.83437 0.0
H360 H 0.43756 0.66097 0.60649 0.0
H361 H 0.59747 0.51591 0.81445 0.0
H362 H 0.55326 0.64921 0.75187 0.0
H363 H 0.6969 0.52509 0.67612 0.0
C364 C 0.6339 0.5596 0.61345 0.0
C365 C 0.55983 0.59767 0.59286 0.0
C366 C 0.56384 0.61988 0.76576 0.0
C367 C 0.57463 0.58904 0.68736 0.0
C368 C 0.56308 0.61641 0.81267 0.0
C369 C 0.57364 0.57914 0.83103 0.0
C370 C 0.57834 0.58537 0.73729 0.0
C371 C 0.58847 0.54525 0.80144 0.0
C372 C 0.64038 0.55485 0.66064 0.0
C373 C 0.49527 0.63093 0.62091 0.0
N374 N 0.59109 0.54901 0.75594 0.0
N375 N 0.50471 0.62602 0.66674 0.0
loop_
_geom_bond_atom_site_label_1
_geom_bond_atom_site_label_2
_geom_bond_distance
_geom_bond_site_symmetry_2
_ccdc_geom_bond_type
Gd0 C3 2.818 . S
Gd0 O20 2.377 1_565 S
Gd0 O22 2.448 . S
Gd0 O23 2.505 1_566 S
Gd0 O24 2.435 . S
Gd0 O25 2.718 1_655 S
Gd0 O27 2.395 1_655 S
Gd0 O31 2.323 1_566 S
Gd1 C12 2.818 . S
Gd1 O21 2.395 1_455 S
Gd1 O25 2.327 1_544 S
Gd1 O26 2.377 1_545 S
Gd1 O28 2.448 . S
Gd1 O29 2.506 1_544 S
Gd1 O30 2.435 . S
Gd1 O31 2.722 1_455 S
C2 O20 1.249 . S
C2 O21 1.237 1_556 S
C3 Gd0 2.818 . S
C3 C4 1.510 1_565 S
C3 O22 1.249 . S
C3 O23 1.251 1_566 S
C4 C3 1.510 1_545 S
C4 C5 1.404 . S
C4 C6 1.352 1_556 S
C5 C4 1.404 . S
C5 C9 1.389 . S
C5 H32 0.930 1_545 S
C6 C4 1.352 1_554 S
C6 C8 1.374 . S
C6 H33 0.931 . S
C7 C8 1.353 1_556 S
C7 C9 1.370 . S
C8 C6 1.374 . S
C8 C7 1.353 1_554 S
C8 H34 0.931 . S
C9 C5 1.389 . S
C9 C7 1.370 . S
C9 H35 0.931 . S
C10 O24 1.256 . S
C10 O25 1.258 1_655 S
C11 O26 1.240 . S
C11 O27 1.240 1_554 S
C12 Gd1 2.818 . S
C12 C13 1.510 1_545 S
C12 O28 1.249 . S
C12 O29 1.252 1_544 S
C13 C12 1.510 1_565 S
C13 C14 1.404 . S
C13 C15 1.352 1_554 S
C14 C13 1.404 . S
C14 C18 1.389 . S
C14 H36 0.930 1_565 S
C15 C13 1.352 1_556 S
C15 C17 1.374 . S
C15 H37 0.931 . S
C16 C17 1.349 1_554 S
C16 C18 1.376 . S
C17 C15 1.374 . S
C17 C16 1.349 1_556 S
C17 H38 0.931 . S
C18 C14 1.389 . S
C18 C16 1.376 . S
C18 H39 0.931 . S
C19 O30 1.256 . S
C19 O31 1.259 1_455 S
O20 Gd0 2.377 1_545 S
O20 C2 1.249 . S
O21 Gd1 2.395 1_655 S
O21 C2 1.237 1_554 S
O22 Gd0 2.448 . S
O22 C3 1.249 . S
O23 Gd0 2.505 1_544 S
O23 C3 1.251 1_544 S
O24 Gd0 2.435 . S
O24 C10 1.256 . S
O25 Gd0 2.718 1_455 S
O25 Gd1 2.327 1_566 S
O25 C10 1.258 1_455 S
O26 Gd1 2.377 1_565 S
O26 C11 1.240 . S
O27 Gd0 2.395 1_455 S
O27 C11 1.240 1_556 S
O28 Gd1 2.448 . S
O28 C12 1.249 . S
O29 Gd1 2.506 1_566 S
O29 C12 1.252 1_566 S
O30 Gd1 2.435 . S
O30 C19 1.256 . S
O31 Gd0 2.323 1_544 S
O31 Gd1 2.722 1_655 S
O31 C19 1.259 1_655 S
H32 C5 0.930 1_565 S
H33 C6 0.931 . S
H34 C8 0.931 . S
H35 C9 0.931 . S
H36 C14 0.930 1_545 S
H37 C15 0.931 . S
H38 C17 0.931 . S
H39 C18 0.931 . S
Gd40 C43 2.818 1_455 S
Gd40 O60 2.377 1_455 S
Gd40 O62 2.448 1_455 S
Gd40 O63 2.506 1_455 S
Gd40 O64 2.435 . S
Gd40 O65 2.717 1_565 S
Gd40 O67 2.395 . S
Gd40 O71 2.327 1_455 S
Gd41 C52 2.818 1_655 S
Gd41 O61 2.395 . S
Gd41 O65 2.327 1_655 S
Gd41 O66 2.377 1_655 S
Gd41 O68 2.448 1_655 S
Gd41 O69 2.506 1_655 S
Gd41 O70 2.435 . S
Gd41 O71 2.717 1_545 S
C42 O60 1.240 1_545 S
C42 O61 1.240 . S
C43 Gd40 2.818 1_655 S
C43 C44 1.510 . S
C43 O62 1.249 . S
C43 O63 1.252 . S
C44 C43 1.510 . S
C44 C45 1.404 . S
C44 C46 1.352 . S
C45 C44 1.404 . S
C45 C49 1.389 . S
C45 H72 0.930 . S
C46 C44 1.352 . S
C46 C48 1.374 . S
C46 H73 0.931 . S
C47 C48 1.359 . S
C47 C49 1.364 . S
C48 C46 1.374 . S
C48 C47 1.359 . S
C48 H74 0.931 . S
C49 C45 1.389 . S
C49 C47 1.364 . S
C49 H75 0.931 . S
C50 O64 1.258 1_655 S
C50 O65 1.257 1_665 S
C51 O66 1.240 1_565 S
C51 O67 1.240 . S
C52 Gd41 2.818 1_455 S
C52 C53 1.510 . S
C52 O68 1.249 . S
C52 O69 1.252 . S
C53 C52 1.510 . S
C53 C54 1.404 . S
C53 C55 1.352 . S
C54 C53 1.404 . S
C54 C58 1.389 . S
C54 H76 0.930 . S
C55 C53 1.352 . S
C55 C57 1.374 . S
C55 H77 0.931 . S
C56 C57 1.359 . S
C56 C58 1.364 . S
C57 C55 1.374 . S
C57 C56 1.359 . S
C57 H78 0.931 . S
C58 C54 1.389 . S
C58 C56 1.364 . S
C58 H79 0.931 . S
C59 O70 1.259 1_455 S
C59 O71 1.257 1_445 S
O60 Gd40 2.377 1_655 S
O60 C42 1.240 1_565 S
O61 Gd41 2.395 . S
O61 C42 1.240 . S
O62 Gd40 2.448 1_655 S
O62 C43 1.249 . S
O63 Gd40 2.506 1_655 S
O63 C43 1.252 . S
O64 Gd40 2.435 . S
O64 C50 1.258 1_455 S
O65 Gd40 2.717 1_545 S
O65 Gd41 2.327 1_455 S
O65 C50 1.257 1_445 S
O66 Gd41 2.377 1_455 S
O66 C51 1.240 1_545 S
O67 Gd40 2.395 . S
O67 C51 1.240 . S
O68 Gd41 2.448 1_455 S
O68 C52 1.249 . S
O69 Gd41 2.506 1_455 S
O69 C52 1.252 . S
O70 Gd41 2.435 . S
O70 C59 1.259 1_655 S
O71 Gd40 2.327 1_655 S
O71 Gd41 2.717 1_565 S
O71 C59 1.257 1_665 S
H72 C45 0.930 . S
H73 C46 0.931 . S
H74 C48 0.931 . S
H75 C49 0.931 . S
H76 C54 0.930 . S
H77 C55 0.931 . S
H78 C57 0.931 . S
H79 C58 0.931 . S
Gd80 C83 2.818 . S
Gd80 O100 2.377 . S
Gd80 O102 2.448 . S
Gd80 O103 2.506 1_556 S
Gd80 O104 2.435 . S
Gd80 O105 2.717 . S
Gd80 O107 2.395 . S
Gd80 O111 2.327 1_556 S
Gd81 C92 2.818 . S
Gd81 O101 2.395 . S
Gd81 O105 2.327 1_554 S
Gd81 O106 2.377 . S
Gd81 O108 2.448 . S
Gd81 O109 2.506 1_554 S
Gd81 O110 2.435 . S
Gd81 O111 2.717 . S
C82 O100 1.249 . S
C82 O101 1.237 1_556 S
C83 Gd80 2.818 . S
C83 C84 1.510 . S
C83 O102 1.249 . S
C83 O103 1.252 1_556 S
C84 C83 1.510 . S
C84 C85 1.404 . S
C84 C86 1.352 1_556 S
C85 C84 1.404 . S
C85 C89 1.389 . S
C85 H112 0.930 . S
C86 C84 1.352 1_554 S
C86 C88 1.374 . S
C86 H113 0.931 . S
C87 C88 1.353 1_556 S
C87 C89 1.370 . S
C88 C86 1.374 . S
C88 C87 1.353 1_554 S
C88 H114 0.931 . S
C89 C85 1.389 . S
C89 C87 1.370 . S
C89 H115 0.931 . S
C90 O104 1.256 . S
C90 O105 1.257 . S
C91 O106 1.240 . S
C91 O107 1.240 1_554 S
C92 Gd81 2.818 . S
C92 C93 1.510 . S
C92 O108 1.249 . S
C92 O109 1.252 1_554 S
C93 C92 1.510 . S
C93 C94 1.404 . S
C93 C95 1.352 1_554 S
C94 C93 1.404 . S
C94 C98 1.389 . S
C94 H116 0.930 . S
C95 C93 1.352 1_556 S
C95 C97 1.374 . S
C95 H117 0.931 . S
C96 C97 1.349 1_554 S
C96 C98 1.376 . S
C97 C95 1.374 . S
C97 C96 1.349 1_556 S
C97 H118 0.931 . S
C98 C94 1.389 . S
C98 C96 1.376 . S
C98 H119 0.931 . S
C99 O110 1.256 . S
C99 O111 1.257 . S
O100 Gd80 2.377 . S
O100 C82 1.249 . S
O101 Gd81 2.395 . S
O101 C82 1.237 1_554 S
O102 Gd80 2.448 . S
O102 C83 1.249 . S
O103 Gd80 2.506 1_554 S
O103 C83 1.252 1_554 S
O104 Gd80 2.435 . S
O104 C90 1.256 . S
O105 Gd80 2.717 . S
O105 Gd81 2.327 1_556 S
O105 C90 1.257 . S
O106 Gd81 2.377 . S
O106 C91 1.240 . S
O107 Gd80 2.395 . S
O107 C91 1.240 1_556 S
O108 Gd81 2.448 . S
O108 C92 1.249 . S
O109 Gd81 2.506 1_556 S
O109 C92 1.252 1_556 S
O110 Gd81 2.435 . S
O110 C99 1.256 . S
O111 Gd80 2.327 1_554 S
O111 Gd81 2.717 . S
O111 C99 1.257 . S
H112 C85 0.930 . S
H113 C86 0.931 . S
H114 C88 0.931 . S
H115 C89 0.931 . S
H116 C94 0.930 . S
H117 C95 0.931 . S
H118 C97 0.931 . S
H119 C98 0.931 . S
Gd120 C123 2.818 . S
Gd120 O140 2.377 . S
Gd120 O142 2.448 . S
Gd120 O143 2.506 . S
Gd120 O144 2.435 . S
Gd120 O145 2.717 . S
Gd120 O147 2.395 . S
Gd120 O151 2.327 . S
Gd121 C132 2.818 . S
Gd121 O141 2.395 . S
Gd121 O145 2.327 . S
Gd121 O146 2.377 . S
Gd121 O148 2.448 . S
Gd121 O149 2.506 . S
Gd121 O150 2.435 . S
Gd121 O151 2.717 . S
C122 O140 1.240 . S
C122 O141 1.240 . S
C123 Gd120 2.818 . S
C123 C124 1.510 . S
C123 O142 1.249 . S
C123 O143 1.252 . S
C124 C123 1.510 . S
C124 C125 1.404 . S
C124 C126 1.352 . S
C125 C124 1.404 . S
C125 C129 1.389 . S
C125 H152 0.930 . S
C126 C124 1.352 . S
C126 C128 1.374 . S
C126 H153 0.931 . S
C127 C128 1.359 . S
C127 C129 1.364 . S
C128 C126 1.374 . S
C128 C127 1.359 . S
C128 H154 0.931 . S
C129 C125 1.389 . S
C129 C127 1.364 . S
C129 H155 0.931 . S
C130 O144 1.256 . S
C130 O145 1.257 . S
C131 O146 1.240 . S
C131 O147 1.240 . S
C132 Gd121 2.818 . S
C132 C133 1.510 . S
C132 O148 1.249 . S
C132 O149 1.252 . S
C133 C132 1.510 . S
C133 C134 1.404 . S
C133 C135 1.352 . S
C134 C133 1.404 . S
C134 C138 1.389 . S
C134 H156 0.930 . S
C135 C133 1.352 . S
C135 C137 1.374 . S
C135 H157 0.931 . S
C136 C137 1.359 . S
C136 C138 1.364 . S
C137 C135 1.374 . S
C137 C136 1.359 . S
C137 H158 0.931 . S
C138 C134 1.389 . S
C138 C136 1.364 . S
C138 H159 0.931 . S
C139 O150 1.256 . S
C139 O151 1.257 . S
O140 Gd120 2.377 . S
O140 C122 1.240 . S
O141 Gd121 2.395 . S
O141 C122 1.240 . S
O142 Gd120 2.448 . S
O142 C123 1.249 . S
O143 Gd120 2.506 . S
O143 C123 1.252 . S
O144 Gd120 2.435 . S
O144 C130 1.256 . S
O145 Gd120 2.717 . S
O145 Gd121 2.327 . S
O145 C130 1.257 . S
O146 Gd121 2.377 . S
O146 C131 1.240 . S
O147 Gd120 2.395 . S
O147 C131 1.240 . S
O148 Gd121 2.448 . S
O148 C132 1.249 . S
O149 Gd121 2.506 . S
O149 C132 1.252 . S
O150 Gd121 2.435 . S
O150 C139 1.256 . S
O151 Gd120 2.327 . S
O151 Gd121 2.717 . S
O151 C139 1.257 . S
H152 C125 0.930 . S
H153 C126 0.931 . S
H154 C128 0.931 . S
H155 C129 0.931 . S
H156 C134 0.930 . S
H157 C135 0.931 . S
H158 C137 0.931 . S
H159 C138 0.931 . S
H160 C166 0.930 . S
H161 C170 0.930 . S
H162 C175 0.929 . S
H163 C173 0.929 . S
H164 C168 0.929 . S
H165 C174 0.929 . S
C166 H160 0.930 . S
C166 C167 1.350 1_556 S
C166 C174 1.378 . S
C167 C166 1.350 1_554 S
C167 C175 1.450 . S
C168 H164 0.929 . S
C168 C170 1.378 . S
C168 C172 1.350 . S
C169 C172 1.462 1_556 S
C169 C174 1.371 . S
C169 N177 1.406 1_556 S
C170 H161 0.930 . S
C170 C168 1.378 . S
C170 C171 1.355 1_554 S
C171 C170 1.355 1_556 S
C171 C173 1.445 . S
C172 C168 1.350 . S
C172 C169 1.462 1_554 S
C172 N176 1.427 1_554 S
C173 H163 0.929 . S
C173 C171 1.445 . S
C173 N176 1.384 . S
C174 H165 0.929 . S
C174 C166 1.378 . S
C174 C169 1.371 . S
C175 H162 0.929 . S
C175 C167 1.450 . S
C175 N177 1.384 . S
N176 C172 1.427 1_556 S
N176 C173 1.384 . S
N177 C169 1.406 1_554 S
N177 C175 1.384 . S
H178 C184 0.930 . S
H179 C188 0.930 . S
H180 C193 0.929 . S
H181 C191 0.929 . S
H182 C186 0.929 . S
H183 C192 0.929 . S
C184 H178 0.930 . S
C184 C185 1.367 . S
C184 C192 1.378 . S
C185 C184 1.367 . S
C185 C193 1.433 1_556 S
C186 H182 0.929 . S
C186 C188 1.378 . S
C186 C190 1.350 . S
C187 C190 1.463 1_556 S
C187 C192 1.350 . S
C187 N195 1.427 1_556 S
C188 H179 0.930 . S
C188 C186 1.378 . S
C188 C189 1.367 . S
C189 C188 1.367 . S
C189 C191 1.433 1_554 S
C190 C186 1.350 . S
C190 C187 1.463 1_554 S
C190 N194 1.427 1_554 S
C191 H181 0.929 . S
C191 C189 1.433 1_556 S
C191 N194 1.384 . S
C192 H183 0.929 . S
C192 C184 1.378 . S
C192 C187 1.350 . S
C193 H180 0.929 . S
C193 C185 1.433 1_554 S
C193 N195 1.384 . S
N194 C190 1.427 1_556 S
N194 C191 1.384 . S
N195 C187 1.427 1_554 S
N195 C193 1.384 . S
H196 C202 0.930 . S
H197 C206 0.930 . S
H198 C211 0.929 . S
H199 C209 0.929 . S
H200 C204 0.929 . S
H201 C210 0.929 . S
C202 H196 0.930 . S
C202 C203 1.367 . S
C202 C210 1.378 . S
C203 C202 1.367 . S
C203 C211 1.433 . S
C204 H200 0.929 . S
C204 C206 1.378 . S
C204 C208 1.350 . S
C205 C208 1.463 . S
C205 C210 1.350 . S
C205 N213 1.427 . S
C206 H197 0.930 . S
C206 C204 1.378 . S
C206 C207 1.367 . S
C207 C206 1.367 . S
C207 C209 1.433 . S
C208 C204 1.350 . S
C208 C205 1.463 . S
C208 N212 1.427 . S
C209 H199 0.929 . S
C209 C207 1.433 . S
C209 N212 1.384 . S
C210 H201 0.929 . S
C210 C202 1.378 . S
C210 C205 1.350 . S
C211 H198 0.929 . S
C211 C203 1.433 . S
C211 N213 1.384 . S
N212 C208 1.427 . S
N212 C209 1.384 . S
N213 C205 1.427 . S
N213 C211 1.384 . S
H214 C220 0.930 . S
H215 C224 0.930 . S
H216 C229 0.929 . S
H217 C227 0.929 . S
H218 C222 0.929 . S
H219 C228 0.929 . S
C220 H214 0.930 . S
C220 C221 1.367 . S
C220 C228 1.378 . S
C221 C220 1.367 . S
C221 C229 1.433 . S
C222 H218 0.929 . S
C222 C224 1.378 . S
C222 C226 1.350 . S
C223 C226 1.463 . S
C223 C228 1.350 . S
C223 N231 1.427 . S
C224 H215 0.930 . S
C224 C222 1.378 . S
C224 C225 1.367 . S
C225 C224 1.367 . S
C225 C227 1.433 . S
C226 C222 1.350 . S
C226 C223 1.463 . S
C226 N230 1.427 . S
C227 H217 0.929 . S
C227 C225 1.433 . S
C227 N230 1.384 . S
C228 H219 0.929 . S
C228 C220 1.378 . S
C228 C223 1.350 . S
C229 H216 0.929 . S
C229 C221 1.433 . S
C229 N231 1.384 . S
N230 C226 1.427 . S
N230 C227 1.384 . S
N231 C223 1.427 . S
N231 C229 1.384 . S
H232 C238 0.930 . S
H233 C242 0.930 . S
H234 C247 0.929 . S
H235 C245 0.929 . S
H236 C240 0.929 1_565 S
H237 C246 0.929 1_545 S
C238 H232 0.930 . S
C238 C239 1.367 1_556 S
C238 C246 1.378 . S
C239 C238 1.367 1_554 S
C239 C247 1.433 . S
C240 H236 0.929 1_545 S
C240 C242 1.378 . S
C240 C244 1.352 . S
C241 C244 1.463 1_566 S
C241 C246 1.350 . S
C241 N249 1.427 1_556 S
C242 H233 0.930 . S
C242 C240 1.378 . S
C242 C243 1.367 1_554 S
C243 C242 1.367 1_556 S
C243 C245 1.433 . S
C244 C240 1.352 . S
C244 C241 1.463 1_544 S
C244 N248 1.425 1_554 S
C245 H235 0.929 . S
C245 C243 1.433 . S
C245 N248 1.384 . S
C246 H237 0.929 1_565 S
C246 C238 1.378 . S
C246 C241 1.350 . S
C247 H234 0.929 . S
C247 C239 1.433 . S
C247 N249 1.384 . S
N248 C244 1.425 1_556 S
N248 C245 1.384 . S
N249 C241 1.427 1_554 S
N249 C247 1.384 . S
H250 C256 0.930 . S
H251 C260 0.930 . S
H252 C265 0.929 . S
H253 C263 0.929 . S
H254 C258 0.929 . S
H255 C264 0.929 . S
C256 H250 0.930 . S
C256 C257 1.367 . S
C256 C264 1.378 . S
C257 C256 1.367 . S
C257 C265 1.433 1_565 S
C258 H254 0.929 . S
C258 C260 1.378 . S
C258 C262 1.350 . S
C259 C262 1.453 1_565 S
C259 C264 1.371 . S
C259 N267 1.414 1_565 S
C260 H251 0.930 . S
C260 C258 1.378 . S
C260 C261 1.367 . S
C261 C260 1.367 . S
C261 C263 1.433 1_545 S
C262 C258 1.350 . S
C262 C259 1.453 1_545 S
C262 N266 1.427 1_545 S
C263 H253 0.929 . S
C263 C261 1.433 1_565 S
C263 N266 1.384 . S
C264 H255 0.929 . S
C264 C256 1.378 . S
C264 C259 1.371 . S
C265 H252 0.929 . S
C265 C257 1.433 1_545 S
C265 N267 1.384 . S
N266 C262 1.427 1_565 S
N266 C263 1.384 . S
N267 C259 1.414 1_545 S
N267 C265 1.384 . S
H268 C274 0.931 . S
H269 C278 0.931 . S
H270 C283 0.929 . S
H271 C281 0.929 . S
H272 C276 0.929 . S
H273 C282 0.929 . S
C274 H268 0.931 . S
C274 C275 1.364 1_556 S
C274 C282 1.380 1_655 S
C275 C274 1.364 1_554 S
C275 C283 1.433 . S
C276 H272 0.929 . S
C276 C278 1.381 1_655 S
C276 C280 1.350 1_654 S
C277 C280 1.460 1_654 S
C277 C282 1.350 1_654 S
C277 N285 1.429 . S
C278 H269 0.931 . S
C278 C276 1.381 1_455 S
C278 C279 1.363 1_554 S
C279 C278 1.363 1_556 S
C279 C281 1.433 . S
C280 C276 1.350 1_456 S
C280 C277 1.460 1_456 S
C280 N284 1.428 . S
C281 H271 0.929 . S
C281 C279 1.433 . S
C281 N284 1.384 . S
C282 H273 0.929 . S
C282 C274 1.380 1_455 S
C282 C277 1.350 1_456 S
C283 H270 0.929 . S
C283 C275 1.433 . S
C283 N285 1.384 . S
N284 C280 1.428 . S
N284 C281 1.384 . S
N285 C277 1.429 . S
N285 C283 1.384 . S
H286 C292 0.930 . S
H287 C296 0.930 . S
H288 C301 0.929 . S
H289 C299 0.929 . S
H290 C294 0.929 . S
H291 C300 0.929 . S
C292 H286 0.930 . S
C292 C293 1.367 . S
C292 C300 1.378 . S
C293 C292 1.367 . S
C293 C301 1.433 . S
C294 H290 0.929 . S
C294 C296 1.378 . S
C294 C298 1.350 . S
C295 C298 1.463 1_455 S
C295 C300 1.350 . S
C295 N303 1.427 . S
C296 H287 0.930 . S
C296 C294 1.378 . S
C296 C297 1.367 . S
C297 C296 1.367 . S
C297 C299 1.433 . S
C298 C294 1.350 . S
C298 C295 1.463 1_655 S
C298 N302 1.427 . S
C299 H289 0.929 . S
C299 C297 1.433 . S
C299 N302 1.384 . S
C300 H291 0.929 . S
C300 C292 1.378 . S
C300 C295 1.350 . S
C301 H288 0.929 . S
C301 C293 1.433 . S
C301 N303 1.384 . S
N302 C298 1.427 . S
N302 C299 1.384 . S
N303 C295 1.427 . S
N303 C301 1.384 . S
H304 C310 0.930 . S
H305 C314 0.937 . S
H306 C319 0.933 1_565 S
H307 C317 0.929 . S
H308 C312 0.934 . S
H309 C318 0.929 . S
C310 H304 0.930 . S
C310 C311 1.367 . S
C310 C318 1.378 . S
C311 C310 1.367 . S
C311 C319 1.430 1_655 S
C312 H308 0.934 . S
C312 C314 1.378 . S
C312 C316 1.343 . S
C313 C316 1.463 1_655 S
C313 C318 1.350 . S
C313 N321 1.424 1_655 S
C314 H305 0.937 . S
C314 C312 1.378 . S
C314 C315 1.361 1_455 S
C315 C314 1.361 1_655 S
C315 C317 1.434 . S
C316 C312 1.343 . S
C316 C313 1.463 1_455 S
C316 N320 1.428 1_455 S
C317 H307 0.929 . S
C317 C315 1.434 . S
C317 N320 1.384 . S
C318 H309 0.929 . S
C318 C310 1.378 . S
C318 C313 1.350 . S
C319 H306 0.933 1_545 S
C319 C311 1.430 1_455 S
C319 N321 1.383 . S
N320 C316 1.428 1_655 S
N320 C317 1.384 . S
N321 C313 1.424 1_455 S
N321 C319 1.383 . S
H322 C328 0.930 . S
H323 C332 0.930 . S
H324 C337 0.929 . S
H325 C335 0.929 . S
H326 C330 0.929 . S
H327 C336 0.929 . S
C328 H322 0.930 . S
C328 C329 1.357 1_655 S
C328 C336 1.378 . S
C329 C328 1.357 1_455 S
C329 C337 1.445 1_565 S
C330 H326 0.929 . S
C330 C332 1.378 . S
C330 C334 1.350 1_545 S
C331 C334 1.465 . S
C331 C336 1.338 1_455 S
C331 N339 1.437 1_565 S
C332 H323 0.930 . S
C332 C330 1.378 . S
C332 C333 1.367 1_545 S
C333 C332 1.367 1_565 S
C333 C335 1.433 1_455 S
C334 C330 1.350 1_565 S
C334 C331 1.465 . S
C334 N338 1.427 1_455 S
C335 H325 0.929 . S
C335 C333 1.433 1_655 S
C335 N338 1.384 . S
C336 H327 0.929 . S
C336 C328 1.378 . S
C336 C331 1.338 1_655 S
C337 H324 0.929 . S
C337 C329 1.445 1_545 S
C337 N339 1.384 . S
N338 C334 1.427 1_655 S
N338 C335 1.384 . S
N339 C331 1.437 1_545 S
N339 C337 1.384 . S
H340 C346 0.930 . S
H341 C350 0.930 . S
H342 C355 0.929 . S
H343 C353 0.929 . S
H344 C348 0.929 . S
H345 C354 0.929 . S
C346 H340 0.930 . S
C346 C347 1.367 . S
C346 C354 1.378 . S
C347 C346 1.367 . S
C347 C355 1.433 . S
C348 H344 0.929 . S
C348 C350 1.378 . S
C348 C352 1.350 . S
C349 C352 1.463 . S
C349 C354 1.350 . S
C349 N357 1.427 . S
C350 H341 0.930 . S
C350 C348 1.378 . S
C350 C351 1.367 . S
C351 C350 1.367 . S
C351 C353 1.433 . S
C352 C348 1.350 . S
C352 C349 1.463 . S
C352 N356 1.427 . S
C353 H343 0.929 . S
C353 C351 1.433 . S
C353 N356 1.384 . S
C354 H345 0.929 . S
C354 C346 1.378 . S
C354 C349 1.350 . S
C355 H342 0.929 . S
C355 C347 1.433 . S
C355 N357 1.384 . S
N356 C352 1.427 . S
N356 C353 1.384 . S
N357 C349 1.427 . S
N357 C355 1.384 . S
H358 C364 0.930 . S
H359 C368 0.930 . S
H360 C373 0.929 . S
H361 C371 0.929 . S
H362 C366 0.929 . S
H363 C372 0.929 . S
C364 H358 0.930 . S
C364 C365 1.367 . S
C364 C372 1.378 . S
C365 C364 1.367 . S
C365 C373 1.433 . S
C366 H362 0.929 . S
C366 C368 1.378 . S
C366 C370 1.350 . S
C367 C370 1.463 . S
C367 C372 1.350 . S
C367 N375 1.427 . S
C368 H359 0.930 . S
C368 C366 1.378 . S
C368 C369 1.367 . S
C369 C368 1.367 . S
C369 C371 1.433 . S
C370 C366 1.350 . S
C370 C367 1.463 . S
C370 N374 1.427 . S
C371 H361 0.929 . S
C371 C369 1.433 . S
C371 N374 1.384 . S
C372 H363 0.929 . S
C372 C364 1.378 . S
C372 C367 1.350 . S
C373 H360 0.929 . S
C373 C365 1.433 . S
C373 N375 1.384 . S
N374 C370 1.427 . S
N374 C371 1.384 . S
N375 C367 1.427 . S
N375 C373 1.384 . S
C167 C82 3.576 1_554 S
C171 C11 3.576 1_556 S
C185 C91 3.579 1_556 S
C189 C2 3.579 1_554 S
C203 C56 0.179 . S
C207 C127 0.179 . S
C221 C47 0.168 . S
C225 C136 0.168 . S
C239 C16 0.892 . S
C243 C7 0.891 . S
C257 C51 4.863 . S
C261 C42 4.863 . S
C275 C96 0.926 . S
C279 C87 0.926 . S
C293 C122 4.864 . S
C297 C131 4.864 . S
C311 C50 1.455 1_545 S
C315 C19 1.452 1_655 S
C329 C10 1.450 1_455 S
C333 C59 1.453 1_565 S
C347 C130 1.462 . S
C351 C99 1.465 . S
C365 C139 1.462 . S
C369 C90 1.461 . S
