# Generated by pormake.
# Topology npo, (4)-cn, num edge types: 1
# Building blocks:
#     Node 0, Type 0, BuildingBlock: KUFVIS_clean_sbu_0, # of connection points: 4
#     Node 1, Type 0, BuildingBlock: KUFVIS_clean_sbu_0, # of connection points: 4
#     Node 2, Type 0, BuildingBlock: KUFVIS_clean_sbu_0, # of connection points: 4
#     Node 3, Type 0, BuildingBlock: KUFVIS_clean_sbu_0, # of connection points: 4
#     Node 4, Type 0, BuildingBlock: KUFVIS_clean_sbu_0, # of connection points: 4
#     Node 5, Type 0, BuildingBlock: KUFVIS_clean_sbu_0, # of connection points: 4
#     Edge 6, Type (0, 0), BuildingBlock: XIVTED_clean_linker_0, # of connection points: 2
#     Edge 7, Type (0, 0), BuildingBlock: XIVTED_clean_linker_0, # of connection points: 2
#     Edge 8, Type (0, 0), BuildingBlock: XIVTED_clean_linker_0, # of connection points: 2
#     Edge 9, Type (0, 0), BuildingBlock: XIVTED_clean_linker_0, # of connection points: 2
#     Edge 10, Type (0, 0), BuildingBlock: XIVTED_clean_linker_0, # of connection points: 2
#     Edge 11, Type (0, 0), BuildingBlock: XIVTED_clean_linker_0, # of connection points: 2
#     Edge 12, Type (0, 0), BuildingBlock: XIVTED_clean_linker_0, # of connection points: 2
#     Edge 13, Type (0, 0), BuildingBlock: XIVTED_clean_linker_0, # of connection points: 2
#     Edge 14, Type (0, 0), BuildingBlock: XIVTED_clean_linker_0, # of connection points: 2
#     Edge 15, Type (0, 0), BuildingBlock: XIVTED_clean_linker_0, # of connection points: 2
#     Edge 16, Type (0, 0), BuildingBlock: XIVTED_clean_linker_0, # of connection points: 2
#     Edge 17, Type (0, 0), BuildingBlock: XIVTED_clean_linker_0, # of connection points: 2
# Relax obj value: 0.273
# Max RMSD: 0.237
# Mean RMSD: 0.233
data_MOF--net-npo--node1-KUFVIS_clean_sbu_0--edge1-XIVTED_clean_linker_0
_symmetry_space_group_name_H-M    P1
_symmetry_Int_Tables_number       1
_symmetry_cell_setting            triclinic
loop_
_symmetry_equiv_pos_as_xyz
'x, y, z'
_cell_length_a     42.581283
_cell_length_b     45.002594
_cell_length_c     24.074505
_cell_angle_alpha  90.018529
_cell_angle_beta   91.402199
_cell_angle_gamma 121.94094
loop_
_atom_site_label
_atom_site_type_symbol
_atom_site_fract_x
_atom_site_fract_y
_atom_site_fract_z
_atom_type_partial_charge
Mn0 Mn 0.55705 0.12153 0.29421 0.0
Mn1 Mn 0.62091 0.10057 0.26891 0.0
C2 C 0.61943 0.16223 0.3077 0.0
C3 C 0.52105 0.14485 0.26983 0.0
C4 C 0.57476 0.07768 0.37158 0.0
O5 O 0.52814 0.07828 0.24353 0.0
O6 O 0.57338 0.06723 0.22953 0.0
C7 C 0.62921 0.11552 0.14851 0.0
N8 N 0.64449 0.12139 0.2008 0.0
C9 C 0.70481 0.16392 0.16769 0.0
C10 C 0.68974 0.15815 0.11346 0.0
C11 C 0.65178 0.13385 0.10386 0.0
C12 C 0.68104 0.14459 0.21047 0.0
H13 H 0.6 0.09707 0.1409 0.0
C14 C 0.54039 0.06064 0.22128 0.0
O15 O 0.51256 0.12347 0.31088 0.0
O16 O 0.54889 0.15072 0.24046 0.0
N17 N 0.66831 0.13168 0.30389 0.0
C18 C 0.67807 0.13578 0.35898 0.0
C19 C 0.71494 0.15991 0.37579 0.0
C20 C 0.74137 0.17954 0.33586 0.0
C21 C 0.73073 0.17472 0.2794 0.0
C22 C 0.69368 0.14996 0.26504 0.0
H23 H 0.65784 0.12096 0.38992 0.0
O24 O 0.59525 0.16535 0.33449 0.0
O25 O 0.60647 0.13514 0.27492 0.0
O26 O 0.55653 0.09196 0.35897 0.0
O27 O 0.59918 0.07873 0.34053 0.0
C28 C 0.75524 0.19408 0.23693 0.0
C29 C 0.74229 0.18871 0.18112 0.0
H30 H 0.70698 0.17247 0.07897 0.0
H31 H 0.63991 0.12939 0.06216 0.0
H32 H 0.72291 0.16356 0.41946 0.0
H33 H 0.76966 0.19844 0.34907 0.0
H34 H 0.78397 0.21353 0.24682 0.0
H35 H 0.7613 0.20413 0.14894 0.0
Mn36 Mn 0.43004 0.55691 0.71331 0.0
Mn37 Mn 0.36584 0.4722 0.73915 0.0
C38 C 0.36777 0.53543 0.6996 0.0
C39 C 0.46636 0.61633 0.73726 0.0
C40 C 0.41193 0.49496 0.63647 0.0
O41 O 0.45877 0.54259 0.76423 0.0
O42 O 0.4134 0.4863 0.77831 0.0
C43 C 0.35788 0.47919 0.85956 0.0
N44 N 0.34248 0.46967 0.80735 0.0
C45 C 0.28218 0.45159 0.84085 0.0
C46 C 0.29738 0.461 0.895 0.0
C47 C 0.3354 0.47488 0.90436 0.0
C48 C 0.30588 0.45615 0.79791 0.0
H49 H 0.38712 0.49007 0.86699 0.0
C50 C 0.44645 0.51267 0.78643 0.0
O51 O 0.47471 0.6032 0.69638 0.0
O52 O 0.43843 0.59453 0.76669 0.0
N53 N 0.3184 0.45593 0.7044 0.0
C54 C 0.30854 0.45028 0.64934 0.0
C55 C 0.27165 0.43753 0.63272 0.0
C56 C 0.24529 0.43062 0.67282 0.0
C57 C 0.25602 0.43638 0.72925 0.0
C58 C 0.29311 0.44878 0.74339 0.0
H59 H 0.32872 0.45576 0.61829 0.0
O60 O 0.39211 0.56261 0.67267 0.0
O61 O 0.3805 0.52129 0.73277 0.0
O62 O 0.43041 0.52752 0.64888 0.0
O63 O 0.38733 0.47177 0.66752 0.0
C64 C 0.23156 0.43105 0.7719 0.0
C65 C 0.24463 0.43865 0.82766 0.0
H66 H 0.2802 0.45801 0.92961 0.0
H67 H 0.34737 0.48238 0.946 0.0
H68 H 0.26359 0.43323 0.58908 0.0
H69 H 0.21696 0.42115 0.65979 0.0
H70 H 0.20277 0.42162 0.76217 0.0
H71 H 0.22567 0.43493 0.85998 0.0
Mn72 Mn 0.87138 0.45106 0.23801 0.0
Mn73 Mn 0.91708 0.41306 0.28428 0.0
C74 C 0.8428 0.39114 0.23612 0.0
C75 C 0.83361 0.47292 0.25084 0.0
C76 C 0.93011 0.44805 0.17293 0.0
O77 O 0.91338 0.48965 0.28494 0.0
O78 O 0.94058 0.46111 0.31693 0.0
C79 C 0.89957 0.40764 0.40356 0.0
N80 N 0.89829 0.39194 0.35444 0.0
C81 C 0.86515 0.33483 0.39529 0.0
C82 C 0.86636 0.35043 0.44637 0.0
C83 C 0.88365 0.38699 0.4505 0.0
C84 C 0.88192 0.35678 0.3501 0.0
H85 H 0.91253 0.43569 0.40691 0.0
C86 C 0.93744 0.48793 0.31501 0.0
O87 O 0.85592 0.48282 0.20962 0.0
O88 O 0.83461 0.45161 0.28615 0.0
N89 N 0.89581 0.36616 0.2564 0.0
C90 C 0.89497 0.35503 0.20342 0.0
C91 C 0.87761 0.31902 0.19187 0.0
C92 C 0.86127 0.29485 0.23482 0.0
C93 C 0.86256 0.30691 0.28903 0.0
C94 C 0.88065 0.34314 0.2982 0.0
H95 H 0.90715 0.37344 0.17009 0.0
O96 O 0.83134 0.40642 0.20295 0.0
O97 O 0.87081 0.41148 0.26901 0.0
O98 O 0.90599 0.45631 0.17728 0.0
O99 O 0.93778 0.43304 0.21114 0.0
C100 C 0.84591 0.28437 0.33407 0.0
C101 C 0.84721 0.29832 0.38716 0.0
H102 H 0.85378 0.33458 0.48255 0.0
H103 H 0.88452 0.39921 0.48971 0.0
H104 H 0.87659 0.30991 0.14988 0.0
H105 H 0.84758 0.26709 0.2256 0.0
H106 H 0.83166 0.25625 0.32818 0.0
H107 H 0.8339 0.28069 0.4213 0.0
Mn108 Mn 0.46608 0.87814 0.78501 0.0
Mn109 Mn 0.414 0.91275 0.75505 0.0
C110 C 0.40257 0.84528 0.79254 0.0
C111 C 0.49296 0.846 0.76346 0.0
C112 C 0.45787 0.92772 0.86288 0.0
O113 O 0.50095 0.92019 0.73792 0.0
O114 O 0.46377 0.94136 0.72323 0.0
C115 C 0.4072 0.90063 0.63317 0.0
N116 N 0.39099 0.89591 0.68317 0.0
C117 C 0.33009 0.86153 0.64058 0.0
C118 C 0.34614 0.86621 0.58863 0.0
C119 C 0.38487 0.88582 0.58494 0.0
C120 C 0.35374 0.8771 0.68718 0.0
H121 H 0.43694 0.9155 0.63007 0.0
C122 C 0.49423 0.94253 0.71723 0.0
O123 O 0.50476 0.8676 0.8056 0.0
O124 O 0.46746 0.84505 0.73145 0.0
N125 N 0.36483 0.88702 0.78255 0.0
C126 C 0.35372 0.884 0.83597 0.0
C127 C 0.31576 0.86471 0.8469 0.0
C128 C 0.28963 0.84888 0.80285 0.0
C129 C 0.30171 0.85273 0.74818 0.0
C130 C 0.33989 0.87261 0.73975 0.0
H131 H 0.37367 0.896 0.87003 0.0
O132 O 0.42323 0.83734 0.82122 0.0
O133 O 0.41958 0.87239 0.76107 0.0
O134 O 0.47229 0.91003 0.8505 0.0
O135 O 0.43558 0.93062 0.83025 0.0
C136 C 0.27738 0.83718 0.70181 0.0
C137 C 0.29156 0.84153 0.64806 0.0
H138 H 0.32902 0.85466 0.55136 0.0
H139 H 0.39747 0.88942 0.54502 0.0
H140 H 0.30666 0.86187 0.88921 0.0
H141 H 0.26039 0.83369 0.8115 0.0
H142 H 0.24773 0.82151 0.70707 0.0
H143 H 0.2726 0.82913 0.61281 0.0
Mn144 Mn 0.52379 0.40835 0.22211 0.0
Mn145 Mn 0.57654 0.49502 0.25264 0.0
C146 C 0.58712 0.43879 0.21294 0.0
C147 C 0.49677 0.34924 0.24338 0.0
C148 C 0.53196 0.46654 0.1453 0.0
O149 O 0.48945 0.4156 0.27025 0.0
O150 O 0.52694 0.47395 0.28505 0.0
C151 C 0.58385 0.48911 0.37423 0.0
N152 N 0.59984 0.5008 0.32414 0.0
C153 C 0.6609 0.52703 0.36601 0.0
C154 C 0.64507 0.51546 0.41806 0.0
C155 C 0.60637 0.49638 0.42215 0.0
C156 C 0.63706 0.51918 0.31975 0.0
H157 H 0.55412 0.47428 0.37764 0.0
C158 C 0.49641 0.4447 0.29111 0.0
O159 O 0.48473 0.35914 0.2017 0.0
O160 O 0.52264 0.37374 0.27506 0.0
N161 N 0.62556 0.5185 0.2246 0.0
C162 C 0.63644 0.52698 0.17115 0.0
C163 C 0.67435 0.5457 0.15983 0.0
C164 C 0.70065 0.55569 0.20354 0.0
C165 C 0.68881 0.54714 0.25827 0.0
C166 C 0.65068 0.5288 0.26709 0.0
H167 H 0.61636 0.51928 0.13736 0.0
O168 O 0.56602 0.41017 0.18448 0.0
O169 O 0.57068 0.44898 0.2455 0.0
O170 O 0.51729 0.43432 0.15737 0.0
O171 O 0.55464 0.4916 0.17787 0.0
C172 C 0.71333 0.55567 0.30431 0.0
C173 C 0.69939 0.54557 0.35813 0.0
H174 H 0.66234 0.52084 0.45508 0.0
H175 H 0.59394 0.48722 0.46214 0.0
H176 H 0.68326 0.55224 0.11749 0.0
H177 H 0.72985 0.56979 0.19457 0.0
H178 H 0.74295 0.56969 0.29872 0.0
H179 H 0.71849 0.55197 0.39312 0.0
Mn180 Mn 0.11592 0.57558 0.74724 0.0
Mn181 Mn 0.07055 0.49201 0.69989 0.0
C182 C 0.14396 0.54382 0.75129 0.0
C183 C 0.15477 0.63535 0.73653 0.0
C184 C 0.05571 0.51347 0.81021 0.0
O185 O 0.07533 0.57295 0.69774 0.0
O186 O 0.04774 0.51697 0.66649 0.0
C187 C 0.08973 0.50481 0.58122 0.0
N188 N 0.09016 0.48998 0.63033 0.0
C189 C 0.12301 0.46549 0.5903 0.0
C190 C 0.12268 0.48032 0.53924 0.0
C191 C 0.10596 0.50006 0.53471 0.0
C192 C 0.10597 0.47073 0.63505 0.0
H193 H 0.0772 0.52025 0.57756 0.0
C194 C 0.05134 0.54714 0.66759 0.0
O195 O 0.13119 0.62267 0.77614 0.0
O196 O 0.15429 0.61326 0.70125 0.0
N197 N 0.09112 0.46595 0.72835 0.0
C198 C 0.09131 0.45541 0.78137 0.0
C199 C 0.10819 0.4364 0.79337 0.0
C200 C 0.12467 0.42843 0.75083 0.0
C201 C 0.12403 0.43945 0.69658 0.0
C202 C 0.10645 0.45798 0.68694 0.0
H203 H 0.07901 0.46174 0.81438 0.0
O204 O 0.15473 0.57027 0.78487 0.0
O205 O 0.11682 0.53654 0.71676 0.0
O206 O 0.07964 0.54594 0.80614 0.0
O207 O 0.04893 0.49086 0.7723 0.0
C208 C 0.14088 0.43344 0.65196 0.0
C209 C 0.14035 0.44643 0.59885 0.0
H210 H 0.1355 0.47702 0.5034 0.0
H211 H 0.10577 0.51175 0.49552 0.0
H212 H 0.1087 0.42812 0.8354 0.0
H213 H 0.13798 0.41406 0.76038 0.0
H214 H 0.15474 0.41925 0.65821 0.0
H215 H 0.15383 0.44203 0.56505 0.0
H216 H 0.48545 0.15971 0.34747 0.0
H217 H 0.4699 0.29869 0.16207 0.0
H218 H 0.5198 0.17987 0.17743 0.0
H219 H 0.50215 0.31663 0.33597 0.0
H220 H 0.46605 0.24239 0.1666 0.0
H221 H 0.46944 0.20458 0.34167 0.0
C222 C 0.48867 0.17287 0.30843 0.0
C223 C 0.5042 0.16622 0.2629 0.0
C224 C 0.4732 0.25839 0.20394 0.0
C225 C 0.48568 0.21724 0.2561 0.0
C226 C 0.47513 0.29035 0.20159 0.0
C227 C 0.48657 0.31244 0.24872 0.0
C228 C 0.48194 0.24813 0.25404 0.0
C229 C 0.49341 0.30046 0.29865 0.0
C230 C 0.47977 0.1986 0.30538 0.0
C231 C 0.50809 0.18433 0.21356 0.0
N232 N 0.49111 0.26914 0.29999 0.0
N233 N 0.49902 0.20913 0.21149 0.0
H234 H 0.33473 0.53125 0.79566 0.0
H235 H 0.17056 0.53991 0.65257 0.0
H236 H 0.31824 0.52808 0.61797 0.0
H237 H 0.17723 0.52412 0.82789 0.0
H238 H 0.22065 0.52973 0.63751 0.0
H239 H 0.27442 0.52408 0.80757 0.0
C240 C 0.31789 0.52834 0.75913 0.0
C241 C 0.33061 0.5291 0.70581 0.0
C242 C 0.21073 0.52774 0.67916 0.0
C243 C 0.26233 0.52228 0.71885 0.0
C244 C 0.18191 0.53318 0.68764 0.0
C245 C 0.16933 0.53186 0.74132 0.0
C246 C 0.22784 0.52219 0.72506 0.0
C247 C 0.18599 0.52481 0.78582 0.0
C248 C 0.28358 0.5244 0.76589 0.0
C249 C 0.30881 0.52692 0.65973 0.0
N250 N 0.21464 0.52044 0.77675 0.0
N251 N 0.27558 0.52362 0.66729 0.0
H252 H 0.6704 0.20455 0.388 0.0
H253 H 0.80935 0.33644 0.1625 0.0
H254 H 0.651 0.19056 0.21074 0.0
H255 H 0.81697 0.36296 0.33632 0.0
H256 H 0.75887 0.27663 0.18219 0.0
H257 H 0.73127 0.25767 0.37239 0.0
C258 C 0.67926 0.21258 0.34593 0.0
C259 C 0.65652 0.19298 0.3005 0.0
C260 C 0.77202 0.29538 0.21619 0.0
C261 C 0.72499 0.25326 0.28227 0.0
C262 C 0.8008 0.3293 0.20493 0.0
C263 C 0.81751 0.35408 0.24808 0.0
C264 C 0.75938 0.28673 0.27072 0.0
C265 C 0.80523 0.34411 0.30227 0.0
C266 C 0.71382 0.24267 0.33698 0.0
C267 C 0.66846 0.20456 0.24673 0.0
N268 N 0.77666 0.31118 0.3121 0.0
N269 N 0.70194 0.23393 0.23905 0.0
H270 H 0.51959 0.82207 0.8446 0.0
H271 H 0.50209 0.66656 0.65932 0.0
H272 H 0.48722 0.80786 0.67074 0.0
H273 H 0.46815 0.65298 0.82953 0.0
H274 H 0.51872 0.72766 0.66493 0.0
H275 H 0.52289 0.76933 0.83999 0.0
C276 C 0.51422 0.80846 0.80507 0.0
C277 C 0.5029 0.81923 0.75799 0.0
C278 C 0.50834 0.71142 0.70129 0.0
C279 C 0.50687 0.75919 0.7526 0.0
C280 C 0.49909 0.67667 0.69835 0.0
C281 C 0.4835 0.65461 0.744 0.0
C282 C 0.50272 0.72439 0.75058 0.0
C283 C 0.47989 0.66905 0.79332 0.0
C284 C 0.51583 0.77827 0.80268 0.0
C285 C 0.49587 0.80035 0.70804 0.0
N286 N 0.48931 0.70304 0.79528 0.0
N287 N 0.49784 0.77114 0.70667 0.0
H288 H 0.63745 0.45752 0.13171 0.0
H289 H 0.78788 0.4624 0.33614 0.0
H290 H 0.6253 0.44814 0.30909 0.0
H291 H 0.81165 0.50005 0.1682 0.0
H292 H 0.73047 0.46218 0.32953 0.0
H293 H 0.70284 0.47635 0.14477 0.0
C294 C 0.64885 0.45987 0.17336 0.0
C295 C 0.62668 0.45224 0.21952 0.0
C296 C 0.74856 0.47111 0.29445 0.0
C297 C 0.7005 0.47276 0.23491 0.0
C298 C 0.78137 0.47132 0.29829 0.0
C299 C 0.80416 0.48069 0.25234 0.0
C300 C 0.73824 0.47967 0.24394 0.0
C301 C 0.79464 0.4923 0.20445 0.0
C302 C 0.68604 0.47076 0.18092 0.0
C303 C 0.64206 0.45477 0.27266 0.0
N304 N 0.76195 0.49077 0.20104 0.0
N305 N 0.67807 0.46469 0.27896 0.0
H306 H 0.35002 0.81168 0.8705 0.0
H307 H 0.20383 0.67132 0.65503 0.0
H308 H 0.36699 0.8183 0.69414 0.0
H309 H 0.17526 0.68313 0.82092 0.0
H310 H 0.26206 0.72761 0.66634 0.0
H311 H 0.28481 0.76561 0.85295 0.0
C312 C 0.33974 0.80355 0.82815 0.0
C313 C 0.3632 0.81908 0.78355 0.0
C314 C 0.24276 0.71821 0.69992 0.0
C315 C 0.28962 0.76639 0.76308 0.0
C316 C 0.20948 0.68613 0.69338 0.0
C317 C 0.18503 0.67238 0.7374 0.0
C318 C 0.25184 0.73617 0.75122 0.0
C319 C 0.19354 0.6927 0.78609 0.0
C320 C 0.30266 0.77754 0.81804 0.0
C321 C 0.34923 0.8074 0.72941 0.0
N322 N 0.22665 0.72331 0.79217 0.0
N323 N 0.31331 0.78161 0.72063 0.0
H324 H 0.49865 0.92294 0.94816 0.0
H325 H 0.48635 0.05681 0.15104 0.0
H326 H 0.43551 0.9701 0.90617 0.0
H327 H 0.5445 0.0046 0.19099 0.0
H328 H 0.46143 0.02093 0.06576 0.0
H329 H 0.51134 0.94956 0.04034 0.0
C330 C 0.4875 0.93898 0.95815 0.0
C331 C 0.46624 0.94449 0.91887 0.0
C332 C 0.47915 0.01696 0.09372 0.0
C333 C 0.48061 0.9751 0.02526 0.0
C334 C 0.49305 0.03716 0.14269 0.0
C335 C 0.51781 0.0339 0.1779 0.0
C336 C 0.49015 0.99343 0.08013 0.0
C337 C 0.52585 0.00828 0.16473 0.0
C338 C 0.49461 0.95407 0.01112 0.0
C339 C 0.45228 0.96531 0.93484 0.0
N340 N 0.51243 0.98937 0.11672 0.0
N341 N 0.45988 0.98002 0.98669 0.0
H342 H 0.48298 0.49665 0.30558 0.0
H343 H 0.39014 0.42843 0.60029 0.0
H344 H 0.45326 0.39541 0.36774 0.0
H345 H 0.44753 0.53607 0.54798 0.0
H346 H 0.40135 0.41149 0.50938 0.0
H347 H 0.4556 0.50585 0.38632 0.0
C348 C 0.46982 0.47596 0.33568 0.0
C349 C 0.47066 0.44537 0.3303 0.0
C350 C 0.41128 0.43874 0.51794 0.0
C351 C 0.44018 0.45615 0.42383 0.0
C352 C 0.405 0.44848 0.56978 0.0
C353 C 0.4183 0.48383 0.58212 0.0
C354 C 0.43049 0.46448 0.478 0.0
C355 C 0.43718 0.5086 0.54082 0.0
C356 C 0.45449 0.48135 0.38205 0.0
C357 C 0.45308 0.41933 0.37035 0.0
N358 N 0.44267 0.49844 0.49081 0.0
N359 N 0.43906 0.42556 0.41613 0.0
H360 H 0.08502 0.54006 0.91265 0.0
H361 H 0.89923 0.44226 0.07064 0.0
H362 H 0.98489 0.45931 0.829 0.0
H363 H 0.00178 0.46793 0.15352 0.0
H364 H 0.92959 0.45461 0.98123 0.0
H365 H 0.05462 0.52054 0.00173 0.0
C366 C 0.05654 0.5183 0.91311 0.0
C367 C 0.03719 0.50142 0.86354 0.0
C368 C 0.94531 0.45729 0.01898 0.0
C369 C 0.00247 0.47927 0.96491 0.0
C370 C 0.9282 0.45057 0.0699 0.0
C371 C 0.94826 0.45446 0.11933 0.0
C372 C 0.98294 0.46883 0.01771 0.0
C373 C 0.98549 0.46475 0.11622 0.0
C374 C 0.03943 0.50702 0.96387 0.0
C375 C 0.0006 0.47302 0.86639 0.0
N376 N 0.00191 0.47217 0.06613 0.0
N377 N 0.98413 0.4631 0.91637 0.0
H378 H 0.53991 0.08439 0.45989 0.0
H379 H 0.5375 0.93611 0.64119 0.0
H380 H 0.59585 0.03259 0.40867 0.0
H381 H 0.50731 0.00771 0.70124 0.0
H382 H 0.56369 0.97273 0.55897 0.0
H383 H 0.52994 0.05696 0.54994 0.0
C384 C 0.55001 0.06711 0.46745 0.0
C385 C 0.56842 0.06055 0.42627 0.0
C386 C 0.55212 0.98082 0.59084 0.0
C387 C 0.55719 0.02895 0.53017 0.0
C388 C 0.53757 0.96015 0.63804 0.0
C389 C 0.51994 0.96877 0.67774 0.0
C390 C 0.54871 0.01002 0.58356 0.0
C391 C 0.52029 0.99992 0.67128 0.0
C392 C 0.54459 0.05165 0.51924 0.0
C393 C 0.58133 0.03825 0.43908 0.0
N394 N 0.53386 0.01907 0.62475 0.0
N395 N 0.57514 0.02294 0.48976 0.0
H396 H 0.44327 0.45268 0.81468 0.0
H397 H 0.55545 0.53164 0.10264 0.0
H398 H 0.49961 0.56256 0.85795 0.0
H399 H 0.48991 0.42136 0.06016 0.0
H400 H 0.54191 0.54491 0.00975 0.0
H401 H 0.46872 0.44265 0.89913 0.0
C402 C 0.46165 0.47486 0.84151 0.0
C403 C 0.46908 0.50846 0.82951 0.0
C404 C 0.53063 0.51785 0.02082 0.0
C405 C 0.49769 0.497 0.92731 0.0
C406 C 0.53818 0.51019 0.07395 0.0
C407 C 0.52352 0.47525 0.08966 0.0
C408 C 0.50839 0.4904 0.98297 0.0
C409 C 0.5016 0.44866 0.05037 0.0
C410 C 0.47599 0.46907 0.88999 0.0
C411 C 0.49325 0.53625 0.86559 0.0
N412 N 0.4947 0.4568 0.99908 0.0
N413 N 0.50627 0.52982 0.91342 0.0
H414 H 0.08211 0.59994 0.59436 0.0
H415 H 0.90846 0.51334 0.3855 0.0
H416 H 0.97811 0.50816 0.63676 0.0
H417 H 0.0105 0.52052 0.34631 0.0
H418 H 0.9358 0.54128 0.47622 0.0
H419 H 0.05543 0.59959 0.50256 0.0
C420 C 0.05311 0.58083 0.58536 0.0
C421 C 0.03211 0.554 0.62283 0.0
C422 C 0.95257 0.53806 0.4466 0.0
C423 C 0.00173 0.55392 0.51924 0.0
C424 C 0.93722 0.52241 0.39488 0.0
C425 C 0.95741 0.5147 0.35874 0.0
C426 C 0.98855 0.54684 0.46109 0.0
C427 C -0.0058 0.52612 0.37322 0.0
C428 C 0.03813 0.58056 0.53305 0.0
C429 C -0.00498 0.52926 0.60885 0.0
N430 N 0.00859 0.54142 0.42373 0.0
N431 N 0.981 0.52961 0.55774 0.0
loop_
_geom_bond_atom_site_label_1
_geom_bond_atom_site_label_2
_geom_bond_distance
_geom_bond_site_symmetry_2
_ccdc_geom_bond_type
Mn0 O5 2.095 . S
Mn0 O15 2.162 . S
Mn0 O16 2.297 . S
Mn0 O24 2.385 . S
Mn0 O25 2.209 . S
Mn0 O26 2.094 . S
Mn1 O6 2.121 . S
Mn1 N8 2.257 . S
Mn1 N17 2.282 . S
Mn1 O25 2.215 . S
Mn1 O27 2.117 . S
C2 O24 1.234 . S
C2 O25 1.283 . S
C3 O15 1.281 . S
C3 O16 1.236 . S
C4 O26 1.240 . S
C4 O27 1.264 . S
O5 Mn0 2.095 . S
O5 C14 1.250 . S
O6 Mn1 2.121 . S
O6 C14 1.258 . S
C7 N8 1.326 . S
C7 C11 1.460 . S
C7 H13 0.929 . S
N8 Mn1 2.257 . S
N8 C7 1.326 . S
N8 C12 1.362 . S
C9 C10 1.258 . S
C9 C12 1.431 . S
C9 C29 1.449 . S
C10 C9 1.258 . S
C10 C11 1.477 . S
C10 H30 0.931 . S
C11 C7 1.460 . S
C11 C10 1.477 . S
C11 H31 0.930 . S
C12 N8 1.362 . S
C12 C9 1.431 . S
C12 C22 1.476 . S
H13 C7 0.929 . S
C14 O5 1.250 . S
C14 O6 1.258 . S
O15 Mn0 2.162 . S
O15 C3 1.281 . S
O16 Mn0 2.297 . S
O16 C3 1.236 . S
N17 Mn1 2.282 . S
N17 C18 1.328 . S
N17 C22 1.318 . S
C18 N17 1.328 . S
C18 C19 1.457 . S
C18 H23 0.929 . S
C19 C18 1.457 . S
C19 C20 1.291 . S
C19 H32 0.931 . S
C20 C19 1.291 . S
C20 C21 1.373 . S
C20 H33 0.929 . S
C21 C20 1.373 . S
C21 C22 1.396 . S
C21 C28 1.403 . S
C22 C12 1.476 . S
C22 N17 1.318 . S
C22 C21 1.396 . S
H23 C18 0.929 . S
O24 Mn0 2.385 . S
O24 C2 1.234 . S
O25 Mn0 2.209 . S
O25 Mn1 2.215 . S
O25 C2 1.283 . S
O26 Mn0 2.094 . S
O26 C4 1.240 . S
O27 Mn1 2.117 . S
O27 C4 1.264 . S
C28 C21 1.403 . S
C28 C29 1.399 . S
C28 H34 0.929 . S
C29 C9 1.449 . S
C29 C28 1.399 . S
C29 H35 0.930 . S
H30 C10 0.931 . S
H31 C11 0.930 . S
H32 C19 0.931 . S
H33 C20 0.929 . S
H34 C28 0.929 . S
H35 C29 0.930 . S
Mn36 O41 2.095 . S
Mn36 O51 2.162 . S
Mn36 O52 2.297 . S
Mn36 O60 2.385 . S
Mn36 O61 2.209 . S
Mn36 O62 2.094 . S
Mn37 O42 2.121 . S
Mn37 N44 2.257 . S
Mn37 N53 2.282 . S
Mn37 O61 2.215 . S
Mn37 O63 2.117 . S
C38 O60 1.234 . S
C38 O61 1.283 . S
C39 O51 1.281 . S
C39 O52 1.236 . S
C40 O62 1.240 . S
C40 O63 1.264 . S
O41 Mn36 2.095 . S
O41 C50 1.250 . S
O42 Mn37 2.121 . S
O42 C50 1.258 . S
C43 N44 1.326 . S
C43 C47 1.460 . S
C43 H49 0.929 . S
N44 Mn37 2.257 . S
N44 C43 1.326 . S
N44 C48 1.362 . S
C45 C46 1.258 . S
C45 C48 1.431 . S
C45 C65 1.449 . S
C46 C45 1.258 . S
C46 C47 1.477 . S
C46 H66 0.931 . S
C47 C43 1.460 . S
C47 C46 1.477 . S
C47 H67 0.930 . S
C48 N44 1.362 . S
C48 C45 1.431 . S
C48 C58 1.476 . S
H49 C43 0.929 . S
C50 O41 1.250 . S
C50 O42 1.258 . S
O51 Mn36 2.162 . S
O51 C39 1.281 . S
O52 Mn36 2.297 . S
O52 C39 1.236 . S
N53 Mn37 2.282 . S
N53 C54 1.328 . S
N53 C58 1.318 . S
C54 N53 1.328 . S
C54 C55 1.457 . S
C54 H59 0.929 . S
C55 C54 1.457 . S
C55 C56 1.291 . S
C55 H68 0.931 . S
C56 C55 1.291 . S
C56 C57 1.373 . S
C56 H69 0.929 . S
C57 C56 1.373 . S
C57 C58 1.396 . S
C57 C64 1.403 . S
C58 C48 1.476 . S
C58 N53 1.318 . S
C58 C57 1.396 . S
H59 C54 0.929 . S
O60 Mn36 2.385 . S
O60 C38 1.234 . S
O61 Mn36 2.209 . S
O61 Mn37 2.215 . S
O61 C38 1.283 . S
O62 Mn36 2.094 . S
O62 C40 1.240 . S
O63 Mn37 2.117 . S
O63 C40 1.264 . S
C64 C57 1.403 . S
C64 C65 1.399 . S
C64 H70 0.929 . S
C65 C45 1.449 . S
C65 C64 1.399 . S
C65 H71 0.930 . S
H66 C46 0.931 . S
H67 C47 0.930 . S
H68 C55 0.931 . S
H69 C56 0.929 . S
H70 C64 0.929 . S
H71 C65 0.930 . S
Mn72 O77 2.095 . S
Mn72 O87 2.162 . S
Mn72 O88 2.297 . S
Mn72 O96 2.385 . S
Mn72 O97 2.209 . S
Mn72 O98 2.094 . S
Mn73 O78 2.121 . S
Mn73 N80 2.257 . S
Mn73 N89 2.282 . S
Mn73 O97 2.215 . S
Mn73 O99 2.117 . S
C74 O96 1.234 . S
C74 O97 1.283 . S
C75 O87 1.281 . S
C75 O88 1.236 . S
C76 O98 1.240 . S
C76 O99 1.264 . S
O77 Mn72 2.095 . S
O77 C86 1.250 . S
O78 Mn73 2.121 . S
O78 C86 1.258 . S
C79 N80 1.326 . S
C79 C83 1.460 . S
C79 H85 0.929 . S
N80 Mn73 2.257 . S
N80 C79 1.326 . S
N80 C84 1.362 . S
C81 C82 1.258 . S
C81 C84 1.431 . S
C81 C101 1.449 . S
C82 C81 1.258 . S
C82 C83 1.477 . S
C82 H102 0.931 . S
C83 C79 1.460 . S
C83 C82 1.477 . S
C83 H103 0.930 . S
C84 N80 1.362 . S
C84 C81 1.431 . S
C84 C94 1.476 . S
H85 C79 0.929 . S
C86 O77 1.250 . S
C86 O78 1.258 . S
O87 Mn72 2.162 . S
O87 C75 1.281 . S
O88 Mn72 2.297 . S
O88 C75 1.236 . S
N89 Mn73 2.282 . S
N89 C90 1.328 . S
N89 C94 1.318 . S
C90 N89 1.328 . S
C90 C91 1.457 . S
C90 H95 0.929 . S
C91 C90 1.457 . S
C91 C92 1.291 . S
C91 H104 0.931 . S
C92 C91 1.291 . S
C92 C93 1.373 . S
C92 H105 0.929 . S
C93 C92 1.373 . S
C93 C94 1.396 . S
C93 C100 1.403 . S
C94 C84 1.476 . S
C94 N89 1.318 . S
C94 C93 1.396 . S
H95 C90 0.929 . S
O96 Mn72 2.385 . S
O96 C74 1.234 . S
O97 Mn72 2.209 . S
O97 Mn73 2.215 . S
O97 C74 1.283 . S
O98 Mn72 2.094 . S
O98 C76 1.240 . S
O99 Mn73 2.117 . S
O99 C76 1.264 . S
C100 C93 1.403 . S
C100 C101 1.399 . S
C100 H106 0.929 . S
C101 C81 1.449 . S
C101 C100 1.399 . S
C101 H107 0.930 . S
H102 C82 0.931 . S
H103 C83 0.930 . S
H104 C91 0.931 . S
H105 C92 0.929 . S
H106 C100 0.929 . S
H107 C101 0.930 . S
Mn108 O113 2.095 . S
Mn108 O123 2.162 . S
Mn108 O124 2.297 . S
Mn108 O132 2.385 . S
Mn108 O133 2.209 . S
Mn108 O134 2.094 . S
Mn109 O114 2.121 . S
Mn109 N116 2.257 . S
Mn109 N125 2.282 . S
Mn109 O133 2.215 . S
Mn109 O135 2.117 . S
C110 O132 1.234 . S
C110 O133 1.283 . S
C111 O123 1.281 . S
C111 O124 1.236 . S
C112 O134 1.240 . S
C112 O135 1.264 . S
O113 Mn108 2.095 . S
O113 C122 1.250 . S
O114 Mn109 2.121 . S
O114 C122 1.258 . S
C115 N116 1.326 . S
C115 C119 1.460 . S
C115 H121 0.929 . S
N116 Mn109 2.257 . S
N116 C115 1.326 . S
N116 C120 1.362 . S
C117 C118 1.258 . S
C117 C120 1.431 . S
C117 C137 1.449 . S
C118 C117 1.258 . S
C118 C119 1.477 . S
C118 H138 0.931 . S
C119 C115 1.460 . S
C119 C118 1.477 . S
C119 H139 0.930 . S
C120 N116 1.362 . S
C120 C117 1.431 . S
C120 C130 1.476 . S
H121 C115 0.929 . S
C122 O113 1.250 . S
C122 O114 1.258 . S
O123 Mn108 2.162 . S
O123 C111 1.281 . S
O124 Mn108 2.297 . S
O124 C111 1.236 . S
N125 Mn109 2.282 . S
N125 C126 1.328 . S
N125 C130 1.318 . S
C126 N125 1.328 . S
C126 C127 1.457 . S
C126 H131 0.929 . S
C127 C126 1.457 . S
C127 C128 1.291 . S
C127 H140 0.931 . S
C128 C127 1.291 . S
C128 C129 1.373 . S
C128 H141 0.929 . S
C129 C128 1.373 . S
C129 C130 1.396 . S
C129 C136 1.403 . S
C130 C120 1.476 . S
C130 N125 1.318 . S
C130 C129 1.396 . S
H131 C126 0.929 . S
O132 Mn108 2.385 . S
O132 C110 1.234 . S
O133 Mn108 2.209 . S
O133 Mn109 2.215 . S
O133 C110 1.283 . S
O134 Mn108 2.094 . S
O134 C112 1.240 . S
O135 Mn109 2.117 . S
O135 C112 1.264 . S
C136 C129 1.403 . S
C136 C137 1.399 . S
C136 H142 0.929 . S
C137 C117 1.449 . S
C137 C136 1.399 . S
C137 H143 0.930 . S
H138 C118 0.931 . S
H139 C119 0.930 . S
H140 C127 0.931 . S
H141 C128 0.929 . S
H142 C136 0.929 . S
H143 C137 0.930 . S
Mn144 O149 2.095 . S
Mn144 O159 2.162 . S
Mn144 O160 2.297 . S
Mn144 O168 2.385 . S
Mn144 O169 2.209 . S
Mn144 O170 2.094 . S
Mn145 O150 2.121 . S
Mn145 N152 2.257 . S
Mn145 N161 2.282 . S
Mn145 O169 2.215 . S
Mn145 O171 2.117 . S
C146 O168 1.234 . S
C146 O169 1.283 . S
C147 O159 1.281 . S
C147 O160 1.236 . S
C148 O170 1.240 . S
C148 O171 1.264 . S
O149 Mn144 2.095 . S
O149 C158 1.250 . S
O150 Mn145 2.121 . S
O150 C158 1.258 . S
C151 N152 1.326 . S
C151 C155 1.460 . S
C151 H157 0.929 . S
N152 Mn145 2.257 . S
N152 C151 1.326 . S
N152 C156 1.362 . S
C153 C154 1.258 . S
C153 C156 1.431 . S
C153 C173 1.449 . S
C154 C153 1.258 . S
C154 C155 1.477 . S
C154 H174 0.931 . S
C155 C151 1.460 . S
C155 C154 1.477 . S
C155 H175 0.930 . S
C156 N152 1.362 . S
C156 C153 1.431 . S
C156 C166 1.476 . S
H157 C151 0.929 . S
C158 O149 1.250 . S
C158 O150 1.258 . S
O159 Mn144 2.162 . S
O159 C147 1.281 . S
O160 Mn144 2.297 . S
O160 C147 1.236 . S
N161 Mn145 2.282 . S
N161 C162 1.328 . S
N161 C166 1.318 . S
C162 N161 1.328 . S
C162 C163 1.457 . S
C162 H167 0.929 . S
C163 C162 1.457 . S
C163 C164 1.291 . S
C163 H176 0.931 . S
C164 C163 1.291 . S
C164 C165 1.373 . S
C164 H177 0.929 . S
C165 C164 1.373 . S
C165 C166 1.396 . S
C165 C172 1.403 . S
C166 C156 1.476 . S
C166 N161 1.318 . S
C166 C165 1.396 . S
H167 C162 0.929 . S
O168 Mn144 2.385 . S
O168 C146 1.234 . S
O169 Mn144 2.209 . S
O169 Mn145 2.215 . S
O169 C146 1.283 . S
O170 Mn144 2.094 . S
O170 C148 1.240 . S
O171 Mn145 2.117 . S
O171 C148 1.264 . S
C172 C165 1.403 . S
C172 C173 1.399 . S
C172 H178 0.929 . S
C173 C153 1.449 . S
C173 C172 1.399 . S
C173 H179 0.930 . S
H174 C154 0.931 . S
H175 C155 0.930 . S
H176 C163 0.931 . S
H177 C164 0.929 . S
H178 C172 0.929 . S
H179 C173 0.930 . S
Mn180 O185 2.095 . S
Mn180 O195 2.162 . S
Mn180 O196 2.297 . S
Mn180 O204 2.385 . S
Mn180 O205 2.209 . S
Mn180 O206 2.094 . S
Mn181 O186 2.121 . S
Mn181 N188 2.257 . S
Mn181 N197 2.282 . S
Mn181 O205 2.215 . S
Mn181 O207 2.117 . S
C182 O204 1.234 . S
C182 O205 1.283 . S
C183 O195 1.281 . S
C183 O196 1.236 . S
C184 O206 1.240 . S
C184 O207 1.264 . S
O185 Mn180 2.095 . S
O185 C194 1.250 . S
O186 Mn181 2.121 . S
O186 C194 1.258 . S
C187 N188 1.326 . S
C187 C191 1.460 . S
C187 H193 0.929 . S
N188 Mn181 2.257 . S
N188 C187 1.326 . S
N188 C192 1.362 . S
C189 C190 1.258 . S
C189 C192 1.431 . S
C189 C209 1.449 . S
C190 C189 1.258 . S
C190 C191 1.477 . S
C190 H210 0.931 . S
C191 C187 1.460 . S
C191 C190 1.477 . S
C191 H211 0.930 . S
C192 N188 1.362 . S
C192 C189 1.431 . S
C192 C202 1.476 . S
H193 C187 0.929 . S
C194 O185 1.250 . S
C194 O186 1.258 . S
O195 Mn180 2.162 . S
O195 C183 1.281 . S
O196 Mn180 2.297 . S
O196 C183 1.236 . S
N197 Mn181 2.282 . S
N197 C198 1.328 . S
N197 C202 1.318 . S
C198 N197 1.328 . S
C198 C199 1.457 . S
C198 H203 0.929 . S
C199 C198 1.457 . S
C199 C200 1.291 . S
C199 H212 0.931 . S
C200 C199 1.291 . S
C200 C201 1.373 . S
C200 H213 0.929 . S
C201 C200 1.373 . S
C201 C202 1.396 . S
C201 C208 1.403 . S
C202 C192 1.476 . S
C202 N197 1.318 . S
C202 C201 1.396 . S
H203 C198 0.929 . S
O204 Mn180 2.385 . S
O204 C182 1.234 . S
O205 Mn180 2.209 . S
O205 Mn181 2.215 . S
O205 C182 1.283 . S
O206 Mn180 2.094 . S
O206 C184 1.240 . S
O207 Mn181 2.117 . S
O207 C184 1.264 . S
C208 C201 1.403 . S
C208 C209 1.399 . S
C208 H214 0.929 . S
C209 C189 1.449 . S
C209 C208 1.399 . S
C209 H215 0.930 . S
H210 C190 0.931 . S
H211 C191 0.930 . S
H212 C199 0.931 . S
H213 C200 0.929 . S
H214 C208 0.929 . S
H215 C209 0.930 . S
H216 C222 0.930 . S
H217 C226 0.930 . S
H218 C231 0.929 . S
H219 C229 0.929 . S
H220 C224 0.929 . S
H221 C230 0.929 . S
C222 H216 0.930 . S
C222 C223 1.367 . S
C222 C230 1.378 . S
C223 C222 1.367 . S
C223 C231 1.433 . S
C224 H220 0.929 . S
C224 C226 1.378 . S
C224 C228 1.350 . S
C225 C228 1.463 . S
C225 C230 1.350 . S
C225 N233 1.427 . S
C226 H217 0.930 . S
C226 C224 1.378 . S
C226 C227 1.367 . S
C227 C226 1.367 . S
C227 C229 1.433 . S
C228 C224 1.350 . S
C228 C225 1.463 . S
C228 N232 1.427 . S
C229 H219 0.929 . S
C229 C227 1.433 . S
C229 N232 1.384 . S
C230 H221 0.929 . S
C230 C222 1.378 . S
C230 C225 1.350 . S
C231 H218 0.929 . S
C231 C223 1.433 . S
C231 N233 1.384 . S
N232 C228 1.427 . S
N232 C229 1.384 . S
N233 C225 1.427 . S
N233 C231 1.384 . S
H234 C240 0.930 . S
H235 C244 0.930 . S
H236 C249 0.929 . S
H237 C247 0.929 . S
H238 C242 0.929 . S
H239 C248 0.929 . S
C240 H234 0.930 . S
C240 C241 1.367 . S
C240 C248 1.378 . S
C241 C240 1.367 . S
C241 C249 1.433 . S
C242 H238 0.929 . S
C242 C244 1.378 . S
C242 C246 1.350 . S
C243 C246 1.463 . S
C243 C248 1.350 . S
C243 N251 1.427 . S
C244 H235 0.930 . S
C244 C242 1.378 . S
C244 C245 1.367 . S
C245 C244 1.367 . S
C245 C247 1.433 . S
C246 C242 1.350 . S
C246 C243 1.463 . S
C246 N250 1.427 . S
C247 H237 0.929 . S
C247 C245 1.433 . S
C247 N250 1.384 . S
C248 H239 0.929 . S
C248 C240 1.378 . S
C248 C243 1.350 . S
C249 H236 0.929 . S
C249 C241 1.433 . S
C249 N251 1.384 . S
N250 C246 1.427 . S
N250 C247 1.384 . S
N251 C243 1.427 . S
N251 C249 1.384 . S
H252 C258 0.930 . S
H253 C262 0.930 . S
H254 C267 0.929 . S
H255 C265 0.929 . S
H256 C260 0.929 . S
H257 C266 0.929 . S
C258 H252 0.930 . S
C258 C259 1.367 . S
C258 C266 1.378 . S
C259 C258 1.367 . S
C259 C267 1.433 . S
C260 H256 0.929 . S
C260 C262 1.378 . S
C260 C264 1.350 . S
C261 C264 1.463 . S
C261 C266 1.350 . S
C261 N269 1.427 . S
C262 H253 0.930 . S
C262 C260 1.378 . S
C262 C263 1.367 . S
C263 C262 1.367 . S
C263 C265 1.433 . S
C264 C260 1.350 . S
C264 C261 1.463 . S
C264 N268 1.427 . S
C265 H255 0.929 . S
C265 C263 1.433 . S
C265 N268 1.384 . S
C266 H257 0.929 . S
C266 C258 1.378 . S
C266 C261 1.350 . S
C267 H254 0.929 . S
C267 C259 1.433 . S
C267 N269 1.384 . S
N268 C264 1.427 . S
N268 C265 1.384 . S
N269 C261 1.427 . S
N269 C267 1.384 . S
H270 C276 0.930 . S
H271 C280 0.930 . S
H272 C285 0.929 . S
H273 C283 0.929 . S
H274 C278 0.929 . S
H275 C284 0.929 . S
C276 H270 0.930 . S
C276 C277 1.367 . S
C276 C284 1.378 . S
C277 C276 1.367 . S
C277 C285 1.433 . S
C278 H274 0.929 . S
C278 C280 1.378 . S
C278 C282 1.350 . S
C279 C282 1.463 . S
C279 C284 1.350 . S
C279 N287 1.427 . S
C280 H271 0.930 . S
C280 C278 1.378 . S
C280 C281 1.367 . S
C281 C280 1.367 . S
C281 C283 1.433 . S
C282 C278 1.350 . S
C282 C279 1.463 . S
C282 N286 1.427 . S
C283 H273 0.929 . S
C283 C281 1.433 . S
C283 N286 1.384 . S
C284 H275 0.929 . S
C284 C276 1.378 . S
C284 C279 1.350 . S
C285 H272 0.929 . S
C285 C277 1.433 . S
C285 N287 1.384 . S
N286 C282 1.427 . S
N286 C283 1.384 . S
N287 C279 1.427 . S
N287 C285 1.384 . S
H288 C294 0.930 . S
H289 C298 0.930 . S
H290 C303 0.929 . S
H291 C301 0.929 . S
H292 C296 0.929 . S
H293 C302 0.929 . S
C294 H288 0.930 . S
C294 C295 1.367 . S
C294 C302 1.378 . S
C295 C294 1.367 . S
C295 C303 1.433 . S
C296 H292 0.929 . S
C296 C298 1.378 . S
C296 C300 1.350 . S
C297 C300 1.463 . S
C297 C302 1.350 . S
C297 N305 1.427 . S
C298 H289 0.930 . S
C298 C296 1.378 . S
C298 C299 1.367 . S
C299 C298 1.367 . S
C299 C301 1.433 . S
C300 C296 1.350 . S
C300 C297 1.463 . S
C300 N304 1.427 . S
C301 H291 0.929 . S
C301 C299 1.433 . S
C301 N304 1.384 . S
C302 H293 0.929 . S
C302 C294 1.378 . S
C302 C297 1.350 . S
C303 H290 0.929 . S
C303 C295 1.433 . S
C303 N305 1.384 . S
N304 C300 1.427 . S
N304 C301 1.384 . S
N305 C297 1.427 . S
N305 C303 1.384 . S
H306 C312 0.930 . S
H307 C316 0.930 . S
H308 C321 0.929 . S
H309 C319 0.929 . S
H310 C314 0.929 . S
H311 C320 0.929 . S
C312 H306 0.930 . S
C312 C313 1.367 . S
C312 C320 1.378 . S
C313 C312 1.367 . S
C313 C321 1.433 . S
C314 H310 0.929 . S
C314 C316 1.378 . S
C314 C318 1.350 . S
C315 C318 1.463 . S
C315 C320 1.350 . S
C315 N323 1.427 . S
C316 H307 0.930 . S
C316 C314 1.378 . S
C316 C317 1.367 . S
C317 C316 1.367 . S
C317 C319 1.433 . S
C318 C314 1.350 . S
C318 C315 1.463 . S
C318 N322 1.427 . S
C319 H309 0.929 . S
C319 C317 1.433 . S
C319 N322 1.384 . S
C320 H311 0.929 . S
C320 C312 1.378 . S
C320 C315 1.350 . S
C321 H308 0.929 . S
C321 C313 1.433 . S
C321 N323 1.384 . S
N322 C318 1.427 . S
N322 C319 1.384 . S
N323 C315 1.427 . S
N323 C321 1.384 . S
H324 C330 0.930 . S
H325 C334 0.930 . S
H326 C339 0.929 . S
H327 C337 0.929 . S
H328 C332 0.929 . S
H329 C338 0.929 1_554 S
C330 H324 0.930 . S
C330 C331 1.367 . S
C330 C338 1.378 . S
C331 C330 1.367 . S
C331 C339 1.433 . S
C332 H328 0.929 . S
C332 C334 1.378 . S
C332 C336 1.350 . S
C333 C336 1.463 1_566 S
C333 C338 1.350 . S
C333 N341 1.427 . S
C334 H325 0.930 . S
C334 C332 1.378 . S
C334 C335 1.367 . S
C335 C334 1.367 . S
C335 C337 1.433 . S
C336 C332 1.350 . S
C336 C333 1.463 1_544 S
C336 N340 1.427 . S
C337 H327 0.929 . S
C337 C335 1.433 . S
C337 N340 1.384 . S
C338 H329 0.929 1_556 S
C338 C330 1.378 . S
C338 C333 1.350 . S
C339 H326 0.929 . S
C339 C331 1.433 . S
C339 N341 1.384 . S
N340 C336 1.427 . S
N340 C337 1.384 . S
N341 C333 1.427 . S
N341 C339 1.384 . S
H342 C348 0.930 . S
H343 C352 0.930 . S
H344 C357 0.929 . S
H345 C355 0.929 . S
H346 C350 0.929 . S
H347 C356 0.929 . S
C348 H342 0.930 . S
C348 C349 1.367 . S
C348 C356 1.378 . S
C349 C348 1.367 . S
C349 C357 1.433 . S
C350 H346 0.929 . S
C350 C352 1.378 . S
C350 C354 1.350 . S
C351 C354 1.463 . S
C351 C356 1.350 . S
C351 N359 1.427 . S
C352 H343 0.930 . S
C352 C350 1.378 . S
C352 C353 1.367 . S
C353 C352 1.367 . S
C353 C355 1.433 . S
C354 C350 1.350 . S
C354 C351 1.463 . S
C354 N358 1.427 . S
C355 H345 0.929 . S
C355 C353 1.433 . S
C355 N358 1.384 . S
C356 H347 0.929 . S
C356 C348 1.378 . S
C356 C351 1.350 . S
C357 H344 0.929 . S
C357 C349 1.433 . S
C357 N359 1.384 . S
N358 C354 1.427 . S
N358 C355 1.384 . S
N359 C351 1.427 . S
N359 C357 1.384 . S
H360 C366 0.930 . S
H361 C370 0.930 . S
H362 C375 0.929 . S
H363 C373 0.929 . S
H364 C368 0.929 1_556 S
H365 C374 0.929 1_554 S
C366 H360 0.930 . S
C366 C367 1.367 . S
C366 C374 1.378 . S
C367 C366 1.367 . S
C367 C375 1.433 . S
C368 H364 0.929 1_554 S
C368 C370 1.378 . S
C368 C372 1.350 . S
C369 C372 1.463 1_456 S
C369 C374 1.350 . S
C369 N377 1.427 . S
C370 H361 0.930 . S
C370 C368 1.378 . S
C370 C371 1.367 . S
C371 C370 1.367 . S
C371 C373 1.433 . S
C372 C368 1.350 . S
C372 C369 1.463 1_654 S
C372 N376 1.427 . S
C373 H363 0.929 . S
C373 C371 1.433 . S
C373 N376 1.386 . S
C374 H365 0.929 1_556 S
C374 C366 1.378 . S
C374 C369 1.350 . S
C375 H362 0.929 . S
C375 C367 1.433 . S
C375 N377 1.386 . S
N376 C372 1.427 . S
N376 C373 1.386 . S
N377 C369 1.427 . S
N377 C375 1.386 . S
H378 C384 0.930 . S
H379 C388 0.930 . S
H380 C393 0.929 . S
H381 C391 0.929 . S
H382 C386 0.929 . S
H383 C392 0.929 . S
C384 H378 0.930 . S
C384 C385 1.367 . S
C384 C392 1.378 . S
C385 C384 1.367 . S
C385 C393 1.433 . S
C386 H382 0.929 . S
C386 C388 1.378 . S
C386 C390 1.350 . S
C387 C390 1.463 1_545 S
C387 C392 1.350 . S
C387 N395 1.427 . S
C388 H379 0.930 . S
C388 C386 1.378 . S
C388 C389 1.367 . S
C389 C388 1.367 . S
C389 C391 1.433 . S
C390 C386 1.350 . S
C390 C387 1.463 1_565 S
C390 N394 1.427 1_565 S
C391 H381 0.929 . S
C391 C389 1.433 . S
C391 N394 1.384 1_565 S
C392 H383 0.929 . S
C392 C384 1.378 . S
C392 C387 1.350 . S
C393 H380 0.929 . S
C393 C385 1.433 . S
C393 N395 1.384 . S
N394 C390 1.427 1_545 S
N394 C391 1.384 1_545 S
N395 C387 1.427 . S
N395 C393 1.384 . S
H396 C402 0.930 . S
H397 C406 0.930 . S
H398 C411 0.929 . S
H399 C409 0.929 . S
H400 C404 0.929 . S
H401 C410 0.929 . S
C402 H396 0.930 . S
C402 C403 1.367 . S
C402 C410 1.378 . S
C403 C402 1.367 . S
C403 C411 1.433 . S
C404 H400 0.929 . S
C404 C406 1.378 . S
C404 C408 1.350 . S
C405 C408 1.463 1_556 S
C405 C410 1.350 . S
C405 N413 1.427 . S
C406 H397 0.930 . S
C406 C404 1.378 . S
C406 C407 1.367 . S
C407 C406 1.367 . S
C407 C409 1.433 . S
C408 C404 1.350 . S
C408 C405 1.463 1_554 S
C408 N412 1.427 . S
C409 H399 0.929 . S
C409 C407 1.433 . S
C409 N412 1.384 . S
C410 H401 0.929 . S
C410 C402 1.378 . S
C410 C405 1.350 . S
C411 H398 0.929 . S
C411 C403 1.433 . S
C411 N413 1.384 . S
N412 C408 1.427 . S
N412 C409 1.384 . S
N413 C405 1.427 . S
N413 C411 1.384 . S
H414 C420 0.930 . S
H415 C424 0.930 . S
H416 C429 0.929 . S
H417 C427 0.929 . S
H418 C422 0.929 . S
H419 C428 0.929 . S
C420 H414 0.930 . S
C420 C421 1.367 . S
C420 C428 1.378 . S
C421 C420 1.367 . S
C421 C429 1.433 . S
C422 H418 0.929 . S
C422 C424 1.378 . S
C422 C426 1.350 . S
C423 C426 1.463 1_455 S
C423 C428 1.350 . S
C423 N431 1.427 . S
C424 H415 0.930 . S
C424 C422 1.378 . S
C424 C425 1.367 . S
C425 C424 1.367 . S
C425 C427 1.433 . S
C426 C422 1.350 . S
C426 C423 1.463 1_655 S
C426 N430 1.427 . S
C427 H417 0.929 . S
C427 C425 1.433 . S
C427 N430 1.384 . S
C428 H419 0.929 . S
C428 C420 1.378 . S
C428 C423 1.350 . S
C429 H416 0.929 . S
C429 C421 1.433 . S
C429 N431 1.384 . S
N430 C426 1.427 . S
N430 C427 1.384 . S
N431 C423 1.427 . S
N431 C429 1.384 . S
C223 C3 1.036 . S
C227 C147 1.027 . S
C241 C38 1.054 . S
C245 C182 1.059 . S
C259 C2 1.058 . S
C263 C74 1.058 . S
C277 C111 1.030 . S
C281 C39 1.035 . S
C295 C146 1.060 . S
C299 C75 1.061 . S
C313 C110 1.059 . S
C317 C183 1.061 . S
C331 C112 1.389 . S
C335 C14 1.339 . S
C349 C158 1.324 . S
C353 C40 1.401 . S
C367 C184 1.411 . S
C371 C76 1.409 . S
C385 C4 1.402 . S
C389 C122 1.341 . S
C403 C50 1.322 . S
C407 C148 1.384 . S
C421 C194 1.324 . S
C425 C86 1.339 . S
