# Generated by pormake.
# Topology wkx, (5)-cn, num edge types: 1
# Building blocks:
#     Node 0, Type 0, BuildingBlock: BEQFEK_clean_sbu_0, # of connection points: 5
#     Node 1, Type 0, BuildingBlock: BEQFEK_clean_sbu_0, # of connection points: 5
#     Node 2, Type 0, BuildingBlock: BEQFEK_clean_sbu_0, # of connection points: 5
#     Node 3, Type 0, BuildingBlock: BEQFEK_clean_sbu_0, # of connection points: 5
#     Node 4, Type 0, BuildingBlock: BEQFEK_clean_sbu_0, # of connection points: 5
#     Node 5, Type 0, BuildingBlock: BEQFEK_clean_sbu_0, # of connection points: 5
#     Node 6, Type 0, BuildingBlock: BEQFEK_clean_sbu_0, # of connection points: 5
#     Node 7, Type 0, BuildingBlock: BEQFEK_clean_sbu_0, # of connection points: 5
#     Node 8, Type 0, BuildingBlock: BEQFEK_clean_sbu_0, # of connection points: 5
#     Node 9, Type 0, BuildingBlock: BEQFEK_clean_sbu_0, # of connection points: 5
#     Node 10, Type 0, BuildingBlock: BEQFEK_clean_sbu_0, # of connection points: 5
#     Node 11, Type 0, BuildingBlock: BEQFEK_clean_sbu_0, # of connection points: 5
#     Edge 12, Type (0, 0), BuildingBlock: UVAHIK_clean_linker_0, # of connection points: 2
#     Edge 13, Type (0, 0), BuildingBlock: UVAHIK_clean_linker_0, # of connection points: 2
#     Edge 14, Type (0, 0), BuildingBlock: UVAHIK_clean_linker_0, # of connection points: 2
#     Edge 15, Type (0, 0), BuildingBlock: UVAHIK_clean_linker_0, # of connection points: 2
#     Edge 16, Type (0, 0), BuildingBlock: UVAHIK_clean_linker_0, # of connection points: 2
#     Edge 17, Type (0, 0), BuildingBlock: UVAHIK_clean_linker_0, # of connection points: 2
#     Edge 18, Type (0, 0), BuildingBlock: UVAHIK_clean_linker_0, # of connection points: 2
#     Edge 19, Type (0, 0), BuildingBlock: UVAHIK_clean_linker_0, # of connection points: 2
#     Edge 20, Type (0, 0), BuildingBlock: UVAHIK_clean_linker_0, # of connection points: 2
#     Edge 21, Type (0, 0), BuildingBlock: UVAHIK_clean_linker_0, # of connection points: 2
#     Edge 22, Type (0, 0), BuildingBlock: UVAHIK_clean_linker_0, # of connection points: 2
#     Edge 23, Type (0, 0), BuildingBlock: UVAHIK_clean_linker_0, # of connection points: 2
#     Edge 24, Type (0, 0), BuildingBlock: UVAHIK_clean_linker_0, # of connection points: 2
#     Edge 25, Type (0, 0), BuildingBlock: UVAHIK_clean_linker_0, # of connection points: 2
#     Edge 26, Type (0, 0), BuildingBlock: UVAHIK_clean_linker_0, # of connection points: 2
#     Edge 27, Type (0, 0), BuildingBlock: UVAHIK_clean_linker_0, # of connection points: 2
#     Edge 28, Type (0, 0), BuildingBlock: UVAHIK_clean_linker_0, # of connection points: 2
#     Edge 29, Type (0, 0), BuildingBlock: UVAHIK_clean_linker_0, # of connection points: 2
#     Edge 30, Type (0, 0), BuildingBlock: UVAHIK_clean_linker_0, # of connection points: 2
#     Edge 31, Type (0, 0), BuildingBlock: UVAHIK_clean_linker_0, # of connection points: 2
#     Edge 32, Type (0, 0), BuildingBlock: UVAHIK_clean_linker_0, # of connection points: 2
#     Edge 33, Type (0, 0), BuildingBlock: UVAHIK_clean_linker_0, # of connection points: 2
#     Edge 34, Type (0, 0), BuildingBlock: UVAHIK_clean_linker_0, # of connection points: 2
#     Edge 35, Type (0, 0), BuildingBlock: UVAHIK_clean_linker_0, # of connection points: 2
#     Edge 36, Type (0, 0), BuildingBlock: UVAHIK_clean_linker_0, # of connection points: 2
#     Edge 37, Type (0, 0), BuildingBlock: UVAHIK_clean_linker_0, # of connection points: 2
#     Edge 38, Type (0, 0), BuildingBlock: UVAHIK_clean_linker_0, # of connection points: 2
#     Edge 39, Type (0, 0), BuildingBlock: UVAHIK_clean_linker_0, # of connection points: 2
#     Edge 40, Type (0, 0), BuildingBlock: UVAHIK_clean_linker_0, # of connection points: 2
#     Edge 41, Type (0, 0), BuildingBlock: UVAHIK_clean_linker_0, # of connection points: 2
# Relax obj value: 0.414
# Max RMSD: 0.258
# Mean RMSD: 0.258
data_MOF--net-wkx--node1-BEQFEK_clean_sbu_0--edge1-UVAHIK_clean_linker_0
_symmetry_space_group_name_H-M    P1
_symmetry_Int_Tables_number       1
_symmetry_cell_setting            triclinic
loop_
_symmetry_equiv_pos_as_xyz
'x, y, z'
_cell_length_a     43.576083
_cell_length_b     43.56069
_cell_length_c     97.981594
_cell_angle_alpha  89.97038
_cell_angle_beta   90.008753
_cell_angle_gamma 120.03233
loop_
_atom_site_label
_atom_site_type_symbol
_atom_site_fract_x
_atom_site_fract_y
_atom_site_fract_z
_atom_type_partial_charge
Co0 Co 0.23668 0.16411 0.42922 0.0
Co1 Co 0.31555 0.1919 0.43696 0.0
C2 C 0.27636 0.23014 0.44522 0.0
O3 O 0.24897 0.20856 0.43856 0.0
O4 O 0.30377 0.22676 0.44547 0.0
C5 C 0.16519 0.13981 0.43187 0.0
O6 O 0.17655 0.15086 0.44432 0.0
C7 C 0.39062 0.24204 0.43366 0.0
C8 C 0.41594 0.21724 0.44533 0.0
C9 C 0.42318 0.24666 0.43755 0.0
N10 N 0.36519 0.21105 0.43871 0.0
N11 N 0.38042 0.19627 0.44569 0.0
C12 C 0.38354 0.26762 0.42601 0.0
H13 H 0.355 0.25938 0.42645 0.0
H14 H 0.39125 0.26861 0.41517 0.0
H15 H 0.39976 0.29466 0.43032 0.0
C16 C 0.26204 0.15724 0.40219 0.0
N17 N 0.26837 0.16975 0.41506 0.0
N18 N 0.30151 0.1804 0.41828 0.0
C19 C 0.31722 0.17429 0.40757 0.0
C20 C 0.29279 0.15958 0.39697 0.0
C21 C 0.2257 0.13786 0.39607 0.0
H22 H 0.20895 0.11364 0.40218 0.0
H23 H 0.21346 0.15486 0.39659 0.0
H24 H 0.22617 0.13013 0.38533 0.0
O25 O 0.23564 0.13015 0.44294 0.0
O26 O 0.29181 0.14814 0.44798 0.0
H27 H 0.35657 0.166 0.41727 0.0
H28 H 0.35956 0.16798 0.3988 0.0
C29 C 0.35366 0.17894 0.40799 0.0
H30 H 0.37343 0.20756 0.40852 0.0
H31 H 0.36657 0.17208 0.4508 0.0
O32 O 0.18756 0.14375 0.42272 0.0
C33 C 0.25884 0.1264 0.44947 0.0
Co34 Co 0.08733 0.2406 0.59608 0.0
Co35 Co 0.12788 0.32119 0.60295 0.0
C36 C 0.05162 0.27332 0.61116 0.0
O37 O 0.05088 0.24694 0.6053 0.0
O38 O 0.07953 0.30379 0.61093 0.0
C39 C 0.03377 0.17284 0.58523 0.0
O40 O 0.01594 0.18868 0.58185 0.0
C41 C 0.14221 0.39348 0.59971 0.0
C42 C 0.19571 0.42506 0.60863 0.0
C43 C 0.16882 0.42812 0.60235 0.0
N44 N 0.15304 0.37137 0.60421 0.0
N45 N 0.18492 0.39031 0.60962 0.0
C46 C 0.10826 0.38097 0.59205 0.0
H47 H 0.0984 0.35376 0.58808 0.0
H48 H 0.11207 0.39916 0.58346 0.0
H49 H 0.08791 0.38017 0.59908 0.0
C50 C 0.11676 0.26724 0.56873 0.0
N51 N 0.10964 0.27261 0.58159 0.0
N52 N 0.12784 0.30667 0.58444 0.0
C53 C 0.14761 0.32409 0.57344 0.0
C54 C 0.14109 0.29972 0.56308 0.0
C55 C 0.10476 0.23125 0.56286 0.0
H56 H 0.07553 0.21706 0.56164 0.0
H57 H 0.11719 0.23264 0.55284 0.0
H58 H 0.11137 0.21574 0.57006 0.0
O59 O 0.12303 0.24623 0.60977 0.0
O60 O 0.15236 0.30354 0.61488 0.0
H61 H 0.19256 0.36949 0.58207 0.0
H62 H 0.18994 0.37089 0.56364 0.0
C63 C 0.17439 0.36286 0.57324 0.0
H64 H 0.16054 0.37824 0.57418 0.0
H65 H 0.19944 0.37953 0.61382 0.0
O66 O 0.06445 0.1907 0.59045 0.0
C67 C 0.14698 0.27222 0.61647 0.0
Co68 Co 0.8349 0.07165 0.76089 0.0
Co69 Co 0.80015 0.11788 0.7668 0.0
C70 C 0.76624 0.04213 0.77608 0.0
O71 O 0.79063 0.03883 0.77041 0.0
O72 O 0.76615 0.07129 0.77542 0.0
C73 C 0.85449 0.0196 0.76311 0.0
O74 O 0.83627 0.01342 0.77446 0.0
C75 C 0.74795 0.14008 0.76269 0.0
C76 C 0.7723 0.19183 0.77326 0.0
C77 C 0.7427 0.16801 0.76594 0.0
N78 N 0.77948 0.14718 0.76769 0.0
N79 N 0.79396 0.17814 0.77401 0.0
C80 C 0.72251 0.10616 0.75572 0.0
H81 H 0.73297 0.0876 0.75555 0.0
H82 H 0.71798 0.11166 0.74509 0.0
H83 H 0.69659 0.09375 0.76108 0.0
C84 C 0.84079 0.10066 0.73329 0.0
N85 N 0.82752 0.09476 0.74604 0.0
N86 N 0.8136 0.11496 0.74841 0.0
C87 C 0.81806 0.13484 0.7372 0.0
C88 C 0.83534 0.12637 0.72721 0.0
C89 C 0.86342 0.0863 0.72807 0.0
H90 H 0.88629 0.09448 0.73504 0.0
H91 H 0.8478 0.05689 0.72813 0.0
H92 H 0.87343 0.09574 0.71762 0.0
O93 O 0.86779 0.10743 0.77413 0.0
O94 O 0.84293 0.14019 0.77839 0.0
H95 H 0.82112 0.18202 0.74525 0.0
H96 H 0.81761 0.17871 0.72681 0.0
C97 C 0.80889 0.16366 0.73652 0.0
H98 H 0.77979 0.15173 0.73725 0.0
H99 H 0.81846 0.18977 0.77894 0.0
O100 O 0.85715 0.04383 0.75512 0.0
C101 C 0.86759 0.13306 0.78031 0.0
Co102 Co 0.75587 0.84475 0.9275 0.0
Co103 Co 0.67548 0.80554 0.93462 0.0
C104 C 0.72359 0.77841 0.94397 0.0
O105 O 0.74969 0.80329 0.93769 0.0
O106 O 0.69309 0.77573 0.94364 0.0
C107 C 0.82582 0.85837 0.92046 0.0
O108 O 0.81227 0.82388 0.92136 0.0
C109 C 0.60258 0.74838 0.93127 0.0
C110 C 0.57227 0.76913 0.94212 0.0
C111 C 0.5686 0.74026 0.93484 0.0
N112 N 0.62536 0.78082 0.93606 0.0
N113 N 0.60714 0.79313 0.94254 0.0
C114 C 0.61354 0.72494 0.92419 0.0
H115 H 0.64262 0.73612 0.92494 0.0
H116 H 0.60617 0.72251 0.91325 0.0
H117 H 0.59942 0.69795 0.92871 0.0
C118 C 0.72908 0.84455 0.9 0.0
N119 N 0.72364 0.83298 0.913 0.0
N120 N 0.68968 0.81785 0.91591 0.0
C121 C 0.6724 0.82004 0.90483 0.0
C122 C 0.69676 0.83683 0.89434 0.0
C123 C 0.76518 0.86793 0.89411 0.0
H124 H 0.77896 0.89271 0.90019 0.0
H125 H 0.78092 0.85437 0.89491 0.0
H126 H 0.76406 0.87479 0.8833 0.0
O127 O 0.75034 0.87668 0.94031 0.0
O128 O 0.69317 0.84922 0.94558 0.0
H129 H 0.62814 0.82131 0.91375 0.0
H130 H 0.6265 0.8182 0.89529 0.0
C131 C 0.63404 0.80968 0.90476 0.0
H132 H 0.61762 0.78048 0.90547 0.0
H133 H 0.61852 0.81779 0.94734 0.0
O134 O 0.8057 0.87155 0.92167 0.0
C135 C 0.72442 0.8755 0.94677 0.0
Co136 Co 0.90838 0.76355 0.09887 0.0
Co137 Co 0.86945 0.6817 0.103 0.0
C138 C 0.94384 0.72889 0.11303 0.0
O139 O 0.94376 0.75593 0.10824 0.0
O140 O 0.91696 0.69795 0.11167 0.0
C141 C 0.9646 0.83374 0.09229 0.0
O142 O 0.98438 0.81899 0.09105 0.0
C143 C 0.8542 0.60933 0.09773 0.0
C144 C 0.80234 0.57749 0.10792 0.0
C145 C 0.82821 0.57488 0.10068 0.0
N146 N 0.84403 0.63139 0.10289 0.0
N147 N 0.81295 0.61222 0.10892 0.0
C148 C 0.88929 0.6213 0.09107 0.0
H149 H 0.90626 0.65056 0.09164 0.0
H150 H 0.88527 0.6132 0.0802 0.0
H151 H 0.90274 0.60836 0.09608 0.0
C152 C 0.88466 0.74272 0.07053 0.0
N153 N 0.88938 0.73466 0.08333 0.0
N154 N 0.87161 0.70004 0.08499 0.0
C155 C 0.85422 0.68495 0.07327 0.0
C156 C 0.8622 0.71148 0.06368 0.0
C157 C 0.89739 0.77979 0.06571 0.0
H158 H 0.88699 0.79268 0.0726 0.0
H159 H 0.92675 0.79517 0.0663 0.0
H160 H 0.88889 0.7805 0.0551 0.0
O161 O 0.87003 0.75439 0.11189 0.0
O162 O 0.84292 0.69625 0.1152 0.0
H163 H 0.80938 0.63682 0.08033 0.0
H164 H 0.81342 0.64048 0.0619 0.0
C165 C 0.82825 0.64624 0.07165 0.0
H166 H 0.84272 0.63137 0.07175 0.0
H167 H 0.79927 0.62286 0.11393 0.0
O168 O 0.93163 0.81444 0.09465 0.0
C169 C 0.84614 0.72639 0.11766 0.0
Co170 Co 0.15825 0.92477 0.26214 0.0
Co171 Co 0.18727 0.87403 0.26899 0.0
C172 C 0.22304 0.94935 0.27922 0.0
O173 O 0.20159 0.95535 0.27255 0.0
O174 O 0.22061 0.91896 0.27888 0.0
C175 C 0.14103 0.97869 0.2638 0.0
O176 O 0.15833 0.98429 0.27535 0.0
C177 C 0.23953 0.85134 0.26904 0.0
C178 C 0.20679 0.79316 0.27127 0.0
C179 C 0.24139 0.82055 0.26971 0.0
N180 N 0.20547 0.84263 0.2702 0.0
N181 N 0.18598 0.80786 0.27167 0.0
C182 C 0.2689 0.88806 0.26593 0.0
H183 H 0.25827 0.90349 0.26078 0.0
H184 H 0.2893 0.88735 0.25936 0.0
H185 H 0.2816 0.9016 0.27563 0.0
C186 C 0.15485 0.89675 0.23454 0.0
N187 N 0.16621 0.90149 0.24756 0.0
N188 N 0.17891 0.8804 0.25027 0.0
C189 C 0.17623 0.86162 0.23892 0.0
C190 C 0.16067 0.87112 0.22858 0.0
C191 C 0.13333 0.91195 0.22891 0.0
H192 H 0.14983 0.94129 0.2287 0.0
H193 H 0.12325 0.9021 0.2185 0.0
H194 H 0.11052 0.90501 0.23578 0.0
O195 O 0.12264 0.88932 0.27474 0.0
O196 O 0.1418 0.85168 0.27901 0.0
H197 H 0.16658 0.81019 0.24464 0.0
H198 H 0.18484 0.82379 0.22769 0.0
C199 C 0.18556 0.83294 0.23831 0.0
H200 H 0.21255 0.84296 0.24247 0.0
H201 H 0.15844 0.79413 0.27261 0.0
O202 O 0.13851 0.95446 0.25586 0.0
C203 C 0.119 0.86153 0.28055 0.0
Co204 Co 0.83363 0.75585 0.40921 0.0
Co205 Co 0.79971 0.67555 0.40264 0.0
C206 C 0.76387 0.71794 0.39565 0.0
O207 O 0.78775 0.74521 0.40174 0.0
O208 O 0.76538 0.68948 0.39508 0.0
C209 C 0.84938 0.82402 0.42157 0.0
O210 O 0.82019 0.80784 0.42883 0.0
C211 C 0.74694 0.60136 0.4072 0.0
C212 C 0.76893 0.57319 0.39563 0.0
C213 C 0.74067 0.56791 0.40373 0.0
N214 N 0.77779 0.62543 0.40158 0.0
N215 N 0.79083 0.60848 0.39465 0.0
C216 C 0.72306 0.61046 0.41502 0.0
H217 H 0.73307 0.63941 0.41466 0.0
H218 H 0.72161 0.60229 0.42583 0.0
H219 H 0.69584 0.59574 0.41075 0.0
C220 C 0.84384 0.73191 0.43634 0.0
N221 N 0.82979 0.72541 0.42369 0.0
N222 N 0.81584 0.69143 0.42093 0.0
C223 C 0.82109 0.6753 0.43173 0.0
C224 C 0.83869 0.70035 0.4419 0.0
C225 C 0.86612 0.76831 0.44215 0.0
H226 H 0.84857 0.77837 0.44563 0.0
H227 H 0.88221 0.76836 0.45093 0.0
H228 H 0.88403 0.78649 0.43417 0.0
O229 O 0.86224 0.75256 0.39421 0.0
O230 O 0.8408 0.69531 0.39018 0.0
H231 H 0.82182 0.63104 0.42253 0.0
H232 H 0.8226 0.63075 0.44101 0.0
C233 C 0.81178 0.63723 0.43192 0.0
H234 H 0.78259 0.62016 0.43215 0.0
H235 H 0.81458 0.621 0.3892 0.0
O236 O 0.85858 0.80644 0.41395 0.0
C237 C 0.86304 0.72768 0.38771 0.0
Co238 Co 0.06518 0.83304 0.57726 0.0
Co239 Co 0.11584 0.80406 0.57033 0.0
C240 C 0.03878 0.76641 0.5616 0.0
O241 O 0.03298 0.78822 0.56809 0.0
O242 O 0.06945 0.76948 0.56161 0.0
C243 C 0.01242 0.85194 0.57571 0.0
O244 O 0.00611 0.83444 0.56417 0.0
C245 C 0.13986 0.75324 0.574 0.0
C246 C 0.19055 0.77781 0.56269 0.0
C247 C 0.16773 0.74829 0.5703 0.0
N248 N 0.14607 0.78449 0.56899 0.0
N249 N 0.17642 0.79914 0.56224 0.0
C250 C 0.10668 0.72772 0.58139 0.0
H251 H 0.09575 0.70077 0.57698 0.0
H252 H 0.08668 0.73633 0.58082 0.0
H253 H 0.11281 0.72631 0.59228 0.0
C254 C 0.09675 0.84067 0.60451 0.0
N255 N 0.09076 0.82766 0.59171 0.0
N256 N 0.1128 0.81621 0.58886 0.0
C257 C 0.13409 0.82222 0.59975 0.0
C258 C 0.12455 0.83778 0.61007 0.0
C259 C 0.08023 0.86086 0.61024 0.0
H260 H 0.08771 0.88453 0.60379 0.0
H261 H 0.05094 0.84399 0.60987 0.0
H262 H 0.08872 0.86955 0.62089 0.0
O263 O 0.09846 0.86616 0.56339 0.0
O264 O 0.13651 0.84748 0.55913 0.0
H265 H 0.18205 0.82954 0.59067 0.0
H266 H 0.18137 0.82674 0.60915 0.0
C267 C 0.16525 0.81651 0.59974 0.0
H268 H 0.15568 0.78776 0.59909 0.0
H269 H 0.18725 0.82344 0.55719 0.0
O270 O 0.0367 0.85405 0.58353 0.0
C271 C 0.12557 0.8693 0.55717 0.0
Co272 Co 0.23618 0.0794 0.74558 0.0
Co273 Co 0.31615 0.12565 0.73785 0.0
C274 C 0.27127 0.05077 0.72759 0.0
O275 O 0.2446 0.0471 0.73423 0.0
O276 O 0.30089 0.07961 0.72815 0.0
C277 C 0.16618 0.02008 0.75052 0.0
O278 O 0.17691 0.00203 0.74318 0.0
C279 C 0.39041 0.14602 0.74041 0.0
C280 C 0.41774 0.19753 0.72965 0.0
C281 C 0.42354 0.17331 0.73667 0.0
N282 N 0.36604 0.15388 0.73597 0.0
N283 N 0.38247 0.1847 0.72954 0.0
C284 C 0.38173 0.11187 0.74725 0.0
H285 H 0.35277 0.09296 0.74697 0.0
H286 H 0.39047 0.11694 0.75804 0.0
H287 H 0.39619 0.1001 0.74217 0.0
C288 C 0.2643 0.10431 0.77309 0.0
N289 N 0.26944 0.10021 0.75983 0.0
N290 N 0.30299 0.12123 0.75669 0.0
C291 C 0.32012 0.1403 0.76787 0.0
C292 C 0.29624 0.12992 0.77867 0.0
C293 C 0.22839 0.08852 0.77953 0.0
H294 H 0.21293 0.09906 0.77434 0.0
H295 H 0.21408 0.05935 0.77809 0.0
H296 H 0.22994 0.09463 0.79057 0.0
O297 O 0.238 0.11708 0.73357 0.0
O298 O 0.29489 0.14987 0.72805 0.0
H299 H 0.36169 0.18777 0.75878 0.0
H300 H 0.36386 0.18679 0.77724 0.0
C301 C 0.35744 0.17069 0.7678 0.0
H302 H 0.37591 0.16026 0.76708 0.0
H303 H 0.36959 0.19682 0.72499 0.0
O304 O 0.1874 0.05272 0.75292 0.0
C305 C 0.263 0.14326 0.72725 0.0
Co306 Co 0.14761 0.23004 0.90907 0.0
Co307 Co 0.18555 0.31078 0.90272 0.0
C308 C 0.21717 0.26589 0.89467 0.0
O309 O 0.19173 0.23885 0.90029 0.0
O310 O 0.21844 0.29574 0.8948 0.0
C311 C 0.1363 0.16387 0.92075 0.0
O312 O 0.16838 0.18189 0.92587 0.0
C313 C 0.24044 0.38425 0.90683 0.0
C314 C 0.21945 0.41373 0.89552 0.0
C315 C 0.24792 0.41802 0.90325 0.0
N316 N 0.20872 0.36093 0.90161 0.0
N317 N 0.19624 0.37866 0.89486 0.0
C318 C 0.264 0.37406 0.91428 0.0
H319 H 0.25207 0.34481 0.91455 0.0
H320 H 0.26822 0.3842 0.92489 0.0
H321 H 0.29031 0.38635 0.90922 0.0
C322 C 0.1418 0.25479 0.93651 0.0
N323 N 0.15517 0.26105 0.92376 0.0
N324 N 0.17045 0.29521 0.92112 0.0
C325 C 0.1668 0.31176 0.93214 0.0
C326 C 0.14877 0.28674 0.9423 0.0
C327 C 0.11816 0.2184 0.94213 0.0
H328 H 0.13441 0.20606 0.94462 0.0
H329 H 0.10405 0.21895 0.95146 0.0
H330 H 0.09842 0.20172 0.93431 0.0
O331 O 0.11683 0.23448 0.89528 0.0
O332 O 0.14371 0.29204 0.89063 0.0
H333 H 0.16729 0.35716 0.92345 0.0
H334 H 0.16865 0.3574 0.94194 0.0
C335 C 0.17782 0.35029 0.93254 0.0
H336 H 0.20709 0.36629 0.93226 0.0
H337 H 0.17208 0.3668 0.88968 0.0
O338 O 0.12306 0.17981 0.91431 0.0
C339 C 0.11839 0.26053 0.88876 0.0
Co340 Co 0.91383 0.15166 0.07654 0.0
Co341 Co 0.86879 0.18753 0.07092 0.0
C342 C 0.94413 0.21917 0.06094 0.0
O343 O 0.94721 0.19474 0.06669 0.0
O344 O 0.91534 0.21995 0.06179 0.0
C345 C 0.97117 0.1428 0.08698 0.0
O346 O 0.98601 0.17581 0.09118 0.0
C347 C 0.85041 0.24234 0.07536 0.0
C348 C 0.79969 0.22153 0.06425 0.0
C349 C 0.82433 0.25013 0.07182 0.0
N350 N 0.84149 0.21037 0.07026 0.0
N351 N 0.81108 0.19795 0.06367 0.0
C352 C 0.88465 0.26598 0.08251 0.0
H353 H 0.90223 0.25436 0.08229 0.0
H354 H 0.87936 0.26957 0.09329 0.0
H355 H 0.89807 0.29252 0.0776 0.0
C356 C 0.88724 0.14786 0.10451 0.0
N357 N 0.89244 0.16037 0.09165 0.0
N358 N 0.87227 0.17436 0.08932 0.0
C359 C 0.85299 0.17054 0.10065 0.0
C360 C 0.86211 0.15394 0.1107 0.0
C361 C 0.90165 0.12543 0.1099 0.0
H362 H 0.89659 0.1043 0.10243 0.0
H363 H 0.93075 0.14215 0.1112 0.0
H364 H 0.88965 0.11304 0.11984 0.0
O365 O 0.87673 0.11926 0.06366 0.0
O366 O 0.84419 0.14442 0.05957 0.0
H367 H 0.80629 0.1681 0.09239 0.0
H368 H 0.80815 0.16922 0.11088 0.0
C369 C 0.82393 0.17933 0.10138 0.0
H370 H 0.83568 0.2085 0.10115 0.0
H371 H 0.79848 0.17372 0.05854 0.0
O372 O 0.94071 0.12817 0.08146 0.0
C373 C 0.85084 0.11942 0.05769 0.0
Co374 Co 0.75176 0.90482 0.24551 0.0
Co375 Co 0.67079 0.86362 0.23872 0.0
C376 C 0.7191 0.93741 0.22812 0.0
O377 O 0.74522 0.93873 0.23442 0.0
O378 O 0.68835 0.90999 0.22883 0.0
C379 C 0.82139 0.96283 0.25164 0.0
O380 O 0.80925 0.98265 0.24662 0.0
C381 C 0.59786 0.84825 0.24175 0.0
C382 C 0.56705 0.79258 0.23483 0.0
C383 C 0.5635 0.82007 0.24021 0.0
N384 N 0.62049 0.83757 0.23777 0.0
N385 N 0.60196 0.80438 0.23353 0.0
C386 C 0.60942 0.88506 0.24661 0.0
H387 H 0.63592 0.90412 0.24249 0.0
H388 H 0.61144 0.88591 0.2579 0.0
H389 H 0.59004 0.89322 0.24352 0.0
C390 C 0.72504 0.88183 0.27331 0.0
N391 N 0.71948 0.88632 0.26013 0.0
N392 N 0.6854 0.86764 0.25741 0.0
C393 C 0.66823 0.84979 0.26881 0.0
C394 C 0.69275 0.85847 0.27929 0.0
C395 C 0.76108 0.89501 0.27933 0.0
H396 H 0.77468 0.88307 0.27373 0.0
H397 H 0.77705 0.92419 0.27805 0.0
H398 H 0.75978 0.88832 0.29032 0.0
O399 O 0.74605 0.86563 0.23343 0.0
O400 O 0.68852 0.83663 0.22856 0.0
H401 H 0.62391 0.80264 0.26085 0.0
H402 H 0.6226 0.80751 0.27916 0.0
C403 C 0.62988 0.82183 0.26927 0.0
H404 H 0.61341 0.83438 0.26785 0.0
H405 H 0.61316 0.78961 0.22997 0.0
O406 O 0.80113 0.9294 0.2523 0.0
C407 C 0.71939 0.84059 0.22735 0.0
C408 C 0.11433 0.10737 0.4158 0.0
C409 C 0.12681 0.11843 0.42913 0.0
C410 C 0.07872 0.08252 0.41353 0.0
C411 C 0.98995 0.03068 0.4302 0.0
H412 H 0.98369 0.95594 0.40689 0.0
C413 C 0.87999 0.88268 0.43354 0.0
C414 C 0.87137 0.86284 0.42146 0.0
C415 C 0.9059 0.91871 0.43338 0.0
C416 C 0.98458 0.97677 0.4132 0.0
H417 H 0.1113 0.11432 0.4504 0.0
H418 H 0.04956 0.0702 0.44648 0.0
H419 H 0.03873 0.01155 0.40817 0.0
H420 H 0.87977 0.8652 0.3996 0.0
H421 H 0.92368 0.92801 0.39921 0.0
H422 H 0.93576 0.9947 0.43562 0.0
C423 C 0.067 0.081 0.43775 0.0
C424 C 0.01627 0.00883 0.41392 0.0
C425 C 0.10253 0.10613 0.44001 0.0
C426 C 0.88658 0.87992 0.4091 0.0
C427 C 0.91177 0.91583 0.40889 0.0
C428 C 0.95803 -0.00164 0.42949 0.0
C429 C 0.055 0.06791 0.42455 0.0
C430 C 0.0196 0.03601 0.42257 0.0
C431 C 0.92298 0.93526 0.42109 0.0
C432 C 0.95521 0.97091 0.4211 0.0
H433 H 0.13233 0.11681 0.40719 0.0
H434 H 0.07009 0.07356 0.40319 0.0
H435 H 0.99163 0.05124 0.4369 0.0
H436 H 0.86846 0.86991 0.44318 0.0
H437 H 0.91404 0.93295 0.44297 0.0
C438 C 0.97132 0.87397 0.56913 0.0
C439 C -0.00463 0.87326 0.57852 0.0
C440 C 0.95978 0.8985 0.57059 0.0
C441 C 0.97014 0.97261 0.56954 0.0
H442 H 0.96486 0.01175 0.60441 0.0
C443 C 0.03014 0.11673 0.59282 0.0
C444 C 0.01726 0.13395 0.58445 0.0
C445 C 0.01472 0.08004 0.5925 0.0
C446 C 0.9657 0.00079 0.59458 0.0
H447 H 0.0239 0.89568 0.59739 0.0
H448 H 0.00443 0.93872 0.59982 0.0
H449 H 0.95827 0.95272 0.60351 0.0
H450 H 0.97802 0.12629 0.56918 0.0
H451 H 0.95172 0.06146 0.56822 0.0
H452 H 0.97925 0.02151 0.56074 0.0
C453 C 0.9941 0.92023 0.59138 0.0
C454 C 0.96212 0.96714 0.59407 0.0
C455 C 0.00556 0.89571 0.58993 0.0
C456 C 0.98846 0.11363 0.57573 0.0
C457 C 0.9734 0.0767 0.5752 0.0
C458 C 0.97342 0.00617 0.57005 0.0
C459 C 0.97206 0.92274 0.58148 0.0
C460 C 0.9662 0.9535 0.58163 0.0
C461 C 0.98639 0.05967 0.58365 0.0
C462 C 0.97304 0.02121 0.58266 0.0
H463 H 0.96262 0.85669 0.5603 0.0
H464 H 0.94238 0.89942 0.56291 0.0
H465 H 0.97362 0.96304 0.5598 0.0
H466 H 0.0521 0.1316 0.59973 0.0
H467 H 0.02567 0.06763 0.59893 0.0
C468 C 0.89912 0.0122 0.74965 0.0
C469 C 0.87545 0.002 0.76069 0.0
C470 C 0.92293 -0.00029 0.74862 0.0
C471 C 0.97111 0.97292 0.77133 0.0
H472 H 0.01025 0.96217 0.73733 0.0
C473 C 0.11782 0.02218 0.76333 0.0
C474 C 0.12855 0.00411 0.75441 0.0
C475 C 0.08192 0.00995 0.76549 0.0
C476 C -0.00076 0.9643 0.74695 0.0
H477 H 0.856 0.96831 0.77862 0.0
H478 H 0.89753 0.94644 0.77676 0.0
H479 H 0.95347 0.96053 0.73722 0.0
H480 H 0.11017 0.95778 0.74146 0.0
H481 H 0.04722 0.93657 0.74518 0.0
H482 H 0.01754 0.97811 0.78098 0.0
C483 C 0.89807 0.96456 0.76906 0.0
C484 C 0.96691 0.96372 0.74686 0.0
C485 C 0.87427 0.97706 0.7701 0.0
C486 C 0.10269 0.97237 0.74834 0.0
C487 C 0.06668 0.96028 0.75042 0.0
C488 C 0.00343 0.97355 0.77141 0.0
C489 C 0.92345 0.97671 0.75858 0.0
C490 C 0.95324 0.96945 0.75897 0.0
C491 C 0.05599 0.9795 0.75873 0.0
C492 C 0.01849 0.97071 0.75915 0.0
H493 H 0.90053 0.03122 0.74219 0.0
H494 H 0.94236 0.00985 0.74048 0.0
H495 H 0.96142 0.9776 0.78083 0.0
H496 H 0.13714 0.04656 0.76824 0.0
H497 H 0.07453 0.02557 0.77185 0.0
C498 C 0.8881 0.86934 0.91862 0.0
C499 C 0.86461 0.8823 0.92058 0.0
C500 C 0.92474 0.89199 0.92003 0.0
C501 C 0.98911 0.97401 0.93687 0.0
H502 H 0.04868 0.99631 0.90482 0.0
C503 C 0.09244 0.10601 0.91084 0.0
C504 C 0.11609 0.12492 0.92143 0.0
C505 C 0.07092 0.0694 0.91165 0.0
C506 C 0.03268 0.98981 0.91398 0.0
H507 H 0.86118 0.92918 0.9254 0.0
H508 H 0.92456 0.96813 0.92799 0.0
H509 H 0.99002 0.94292 0.90503 0.0
H510 H 0.13724 0.12046 0.94086 0.0
H511 H 0.09808 0.05582 0.94258 0.0
H512 H 0.0303 0.02225 0.94542 0.0
C513 C 0.91472 0.94055 0.92544 0.0
C514 C -0.00075 0.95926 0.9141 0.0
C515 C 0.87843 0.91827 0.92379 0.0
C516 C 0.11904 0.10637 0.93261 0.0
C517 C 0.09682 0.06954 0.93356 0.0
C518 C 0.02258 0.00434 0.9368 0.0
C519 C 0.93814 0.92758 0.92373 0.0
C520 C 0.97648 0.9524 0.92523 0.0
C521 C 0.07215 0.05087 0.92316 0.0
C522 C 0.0437 0.01364 0.92502 0.0
H523 H 0.87818 0.84173 0.91613 0.0
H524 H 0.94249 0.88165 0.9185 0.0
H525 H 0.97197 0.96895 0.9456 0.0
H526 H 0.08998 0.11965 0.90202 0.0
H527 H 0.05178 0.0559 0.90359 0.0
C528 C 0.9615 0.88768 0.09809 0.0
C529 C 0.98085 0.87267 0.09268 0.0
C530 C 0.97676 0.92427 0.09914 0.0
C531 C 0.03784 0.00493 0.08259 0.0
H532 H 0.01567 0.04511 0.11382 0.0
C533 C 0.01465 0.12905 0.09826 0.0
C534 C 0.99012 0.12282 0.08782 0.0
C535 C 0.02973 0.10731 0.0995 0.0
C536 C 0.02317 0.03487 0.10515 0.0
H537 H 0.03143 0.88428 0.0841 0.0
H538 H 0.05785 0.94899 0.0855 0.0
H539 H 0.01142 0.98733 0.11582 0.0
H540 H 0.9641 0.09109 0.06993 0.0
H541 H 0.99035 0.05368 0.07199 0.0
H542 H 0.04691 0.05127 0.07163 0.0
C543 C 0.03104 0.93205 0.08914 0.0
C544 C 0.02044 0.00166 0.10627 0.0
C545 C 0.01588 0.89516 0.08828 0.0
C546 C 0.98259 0.09617 0.07819 0.0
C547 C -0.00193 0.07507 0.07925 0.0
C548 C 0.04045 0.03811 0.08146 0.0
C549 C 0.0116 0.94684 0.09467 0.0
C550 C 0.0256 0.98552 0.09476 0.0
C551 C 0.02108 0.07977 0.09009 0.0
C552 C 0.03093 0.05228 0.09249 0.0
H553 H 0.93453 0.87116 0.10164 0.0
H554 H 0.96086 0.93497 0.10315 0.0
H555 H 0.04208 0.9931 0.07359 0.0
H556 H 0.02093 0.14958 0.10578 0.0
H557 H 0.04725 0.11131 0.10799 0.0
C558 C 0.0971 0.9863 0.24993 0.0
C559 C 0.11975 0.99592 0.26128 0.0
C560 C 0.07209 -0.00271 0.24895 0.0
C561 C 0.01844 0.0154 0.27207 0.0
H562 H 0.97971 0.02899 0.23847 0.0
C563 C 0.87077 0.95911 0.26285 0.0
C564 C 0.85917 0.97865 0.25522 0.0
C565 C 0.90686 0.97224 0.26497 0.0
C566 C 0.99055 0.02595 0.24799 0.0
H567 H 0.13636 0.02747 0.27981 0.0
H568 H 0.09263 0.04659 0.27806 0.0
H569 H 0.03855 0.03501 0.23838 0.0
H570 H 0.87606 0.02794 0.24431 0.0
H571 H 0.93942 0.05066 0.24785 0.0
H572 H 0.96979 0.00466 0.28152 0.0
C573 C 0.09387 0.03011 0.27005 0.0
C574 C 0.02407 0.02911 0.24791 0.0
C575 C 0.11893 0.01918 0.27103 0.0
C576 C 0.88427 0.01228 0.25023 0.0
C577 C 0.92048 0.02524 0.25221 0.0
C578 C 0.9849 0.01204 0.27212 0.0
C579 C 0.06928 0.0181 0.2593 0.0
C580 C 0.03777 0.02258 0.25984 0.0
C581 C 0.93208 0.00503 0.25939 0.0
C582 C 0.97011 0.01597 0.25998 0.0
H583 H 0.09727 0.96863 0.24219 0.0
H584 H 0.05336 0.98738 0.24057 0.0
H585 H 0.02811 0.00992 0.28141 0.0
H586 H 0.85201 0.93321 0.26689 0.0
H587 H 0.91506 0.9559 0.27041 0.0
C588 C 0.69159 0.50768 0.39775 0.0
C589 C 0.71045 0.53345 0.40769 0.0
C590 C 0.66239 0.47519 0.40144 0.0
C591 C 0.59785 0.43235 0.4297 0.0
H592 H 0.57418 0.34652 0.40966 0.0
C593 C 0.48291 0.29413 0.44501 0.0
C594 C 0.45843 0.2769 0.43448 0.0
C595 C 0.51565 0.32412 0.44219 0.0
C596 C 0.58059 0.37035 0.41533 0.0
H597 H 0.7155 0.5451 0.42931 0.0
H598 H 0.66521 0.48808 0.4359 0.0
H599 H 0.62838 0.40159 0.40409 0.0
H600 H 0.44937 0.27562 0.4127 0.0
H601 H 0.50685 0.32789 0.40772 0.0
H602 H 0.55021 0.40068 0.44108 0.0
C603 C 0.67177 0.49327 0.42517 0.0
C604 C 0.61145 0.40194 0.4121 0.0
C605 C 0.70057 0.52595 0.42143 0.0
C606 C 0.4676 0.28904 0.42102 0.0
C607 C 0.50054 0.3186 0.41816 0.0
C608 C 0.56733 0.40064 0.43308 0.0
C609 C 0.652 0.46761 0.41521 0.0
C610 C 0.62023 0.43348 0.41912 0.0
C611 C 0.52459 0.33669 0.42875 0.0
C612 C 0.55824 0.36951 0.4258 0.0
H613 H 0.69893 0.51301 0.38708 0.0
H614 H 0.64756 0.45639 0.39346 0.0
H615 H 0.60329 0.45614 0.43517 0.0
H616 H 0.47632 0.28501 0.45546 0.0
H617 H 0.53393 0.33757 0.4505 0.0
C618 C 0.13968 0.46462 0.59795 0.0
C619 C 0.17049 0.462 0.59879 0.0
C620 C 0.1418 0.49663 0.59435 0.0
C621 C 0.19906 0.5918 0.59547 0.0
H622 H 0.14032 0.59379 0.5661 0.0
C623 C 0.17979 0.70074 0.56279 0.0
C624 C 0.17207 0.71761 0.57332 0.0
C625 C 0.18217 0.67052 0.56554 0.0
C626 C 0.15701 0.5936 0.57426 0.0
H627 H 0.22787 0.49152 0.59715 0.0
H628 H 0.23151 0.54776 0.59125 0.0
H629 H 0.13881 0.53824 0.57169 0.0
H630 H 0.16297 0.71792 0.59504 0.0
H631 H 0.16755 0.66524 0.5999 0.0
H632 H 0.21649 0.64695 0.59829 0.0
C633 C 0.20573 0.52471 0.5931 0.0
C634 C 0.15596 0.56189 0.5775 0.0
C635 C 0.20358 0.49254 0.59648 0.0
C636 C 0.16815 0.70479 0.58671 0.0
C637 C 0.17116 0.675 0.58951 0.0
C638 C 0.19963 0.62339 0.59239 0.0
C639 C 0.17481 0.52688 0.59187 0.0
C640 C 0.17687 0.56071 0.58817 0.0
C641 C 0.1777 0.65734 0.57891 0.0
C642 C 0.17851 0.62448 0.58178 0.0
H643 H 0.11393 0.44234 0.60034 0.0
H644 H 0.11765 0.49793 0.59375 0.0
H645 H 0.21528 0.59143 0.60378 0.0
H646 H 0.18307 0.71038 0.55239 0.0
H647 H 0.18747 0.65742 0.55723 0.0
C648 C 0.46721 0.17183 0.75265 0.0
C649 C 0.45812 0.17634 0.73937 0.0
C650 C 0.49987 0.17426 0.75519 0.0
C651 C 0.56598 0.15947 0.73949 0.0
H652 H 0.62899 0.21998 0.76798 0.0
C653 C 0.7007 0.16902 0.74899 0.0
C654 C 0.71203 0.17195 0.76255 0.0
C655 C 0.67132 0.17237 0.74578 0.0
C656 C 0.6115 0.20254 0.76012 0.0
H657 H 0.47572 0.18762 0.71837 0.0
H658 H 0.53276 0.19089 0.72275 0.0
H659 H 0.57418 0.22031 0.76322 0.0
H660 H 0.70248 0.18119 0.78339 0.0
H661 H 0.65005 0.18543 0.77798 0.0
H662 H 0.60201 0.14029 0.73672 0.0
C663 C 0.51467 0.18564 0.73117 0.0
C664 C 0.58029 0.20297 0.75735 0.0
C665 C 0.48226 0.18388 0.72868 0.0
C666 C 0.69402 0.17882 0.77286 0.0
C667 C 0.6642 0.18151 0.76971 0.0
C668 C 0.59683 0.15852 0.74241 0.0
C669 C 0.52365 0.18077 0.74444 0.0
C670 C 0.5573 0.1814 0.74704 0.0
C671 C 0.65236 0.17818 0.75612 0.0
C672 C 0.61999 0.17998 0.75279 0.0
H673 H 0.44926 0.16679 0.76109 0.0
H674 H 0.50627 0.17037 0.7655 0.0
H675 H 0.54836 0.1423 0.73159 0.0
H676 H 0.71491 0.1647 0.74084 0.0
H677 H 0.66365 0.17062 0.73518 0.0
C678 C 0.29069 0.4601 0.92025 0.0
C679 C 0.27966 0.45185 0.90666 0.0
C680 C 0.32097 0.49214 0.92348 0.0
C681 C 0.38378 0.58121 0.90915 0.0
H682 H 0.44431 0.58218 0.93839 0.0
C683 C 0.5274 0.69469 0.91834 0.0
C684 C 0.53504 0.70783 0.93173 0.0
C685 C 0.49534 0.66412 0.91539 0.0
C686 C 0.42746 0.58225 0.93027 0.0
H687 H 0.29073 0.47022 0.88577 0.0
H688 H 0.34462 0.52566 0.89125 0.0
H689 H 0.3902 0.5272 0.93286 0.0
H690 H 0.5155 0.70012 0.95248 0.0
H691 H 0.45954 0.64582 0.94737 0.0
H692 H 0.42217 0.63615 0.9063 0.0
C693 C 0.3296 0.50799 0.89951 0.0
C694 C 0.39636 0.55086 0.92713 0.0
C695 C 0.29893 0.47619 0.89633 0.0
C696 C 0.51013 0.69022 0.9421 0.0
C697 C 0.47832 0.65926 0.9392 0.0
C698 C 0.41523 0.61244 0.91215 0.0
C699 C 0.34108 0.51635 0.91314 0.0
C700 C 0.37406 0.54992 0.91654 0.0
C701 C 0.4707 0.64603 0.92581 0.0
C702 C 0.43725 0.61318 0.92274 0.0
H703 H 0.27554 0.44206 0.92841 0.0
H704 H 0.32837 0.49802 0.93412 0.0
H705 H 0.367 0.58173 0.90112 0.0
H706 H 0.5459 0.70838 0.91013 0.0
H707 H 0.48996 0.65434 0.90499 0.0
C708 C 0.82789 0.29561 0.08813 0.0
C709 C 0.82345 0.28275 0.07475 0.0
C710 C 0.82757 0.32687 0.09087 0.0
C711 C 0.80283 0.38997 0.07565 0.0
H712 H 0.86463 0.4521 0.10409 0.0
C713 C 0.83428 0.5346 0.08421 0.0
C714 C 0.82809 0.54184 0.09755 0.0
C715 C 0.83328 0.50274 0.08126 0.0
C716 C 0.84719 0.43487 0.09616 0.0
H717 H 0.81483 0.29171 0.05374 0.0
H718 H 0.81583 0.34725 0.05833 0.0
H719 H 0.86406 0.39703 0.09908 0.0
H720 H 0.81582 0.52196 0.11826 0.0
H721 H 0.81509 0.46649 0.11318 0.0
H722 H 0.78711 0.42888 0.07249 0.0
C723 C 0.81861 0.33292 0.06682 0.0
C724 C 0.8466 0.40319 0.09334 0.0
C725 C 0.81826 0.30126 0.06415 0.0
C726 C 0.82084 0.51688 0.10791 0.0
C727 C 0.82054 0.48536 0.10503 0.0
C728 C 0.80395 0.42201 0.07831 0.0
C729 C 0.82337 0.34621 0.08023 0.0
C730 C 0.82423 0.38017 0.08311 0.0
C731 C 0.82662 0.47802 0.09167 0.0
C732 C 0.82597 0.44454 0.08864 0.0
H733 H 0.83102 0.28117 0.0965 0.0
H734 H 0.83031 0.33566 0.10136 0.0
H735 H 0.78479 0.37271 0.06788 0.0
H736 H 0.83914 0.55317 0.07602 0.0
H737 H 0.83801 0.49752 0.07089 0.0
C738 C 0.27196 0.79086 0.25933 0.0
C739 C 0.27298 0.81693 0.26801 0.0
C740 C 0.30266 0.78917 0.25687 0.0
C741 C 0.40032 0.84524 0.259 0.0
H742 H 0.39849 0.75635 0.25296 0.0
C743 C 0.52714 0.83627 0.25522 0.0
C744 C 0.5296 0.81806 0.24383 0.0
C745 C 0.49518 0.83461 0.25843 0.0
C746 C 0.39925 0.78133 0.25455 0.0
H747 H 0.30578 0.85992 0.28175 0.0
H748 H 0.35919 0.85648 0.27783 0.0
H749 H 0.3436 0.75581 0.25864 0.0
H750 H 0.50001 0.78209 0.22736 0.0
H751 H 0.44378 0.77879 0.23314 0.0
H752 H 0.45607 0.87065 0.25516 0.0
C753 C 0.3352 0.83822 0.27244 0.0
C754 C 0.36787 0.78108 0.25777 0.0
C755 C 0.30464 0.84018 0.27473 0.0
C756 C 0.49899 0.79678 0.2361 0.0
C757 C 0.46685 0.79479 0.23941 0.0
C758 C 0.43166 0.84544 0.25596 0.0
C759 C 0.3348 0.8132 0.26326 0.0
C760 C 0.36805 0.81307 0.26003 0.0
C761 C 0.46484 0.8141 0.2505 0.0
C762 C 0.43141 0.81352 0.2537 0.0
H763 H 0.24773 0.77263 0.25404 0.0
H764 H 0.30142 0.76978 0.24965 0.0
H765 H 0.40137 0.87043 0.26034 0.0
H766 H 0.54961 0.85132 0.26184 0.0
H767 H 0.49407 0.84908 0.26723 0.0
C768 C 0.26087 0.967 0.30033 0.0
C769 C 0.24669 0.9764 0.28926 0.0
C770 C 0.27552 0.98986 0.31151 0.0
C771 C 0.30416 0.08141 0.32412 0.0
H772 H 0.26588 0.03327 0.35851 0.0
C773 C 0.28988 0.15212 0.3716 0.0
C774 C 0.29567 0.14201 0.3845 0.0
C775 C 0.29045 0.13403 0.35988 0.0
C776 C 0.27737 0.04721 0.34905 0.0
H777 H 0.23987 0.0186 0.28073 0.0
H778 H 0.26512 0.05809 0.30011 0.0
H779 H 0.25794 -0.00132 0.338 0.0
H780 H 0.30651 0.10524 0.39538 0.0
H781 H 0.3081 0.07391 0.37493 0.0
H782 H 0.32263 0.12998 0.33517 0.0
C783 C 0.26499 0.03317 0.30025 0.0
C784 C 0.2729 0.02732 0.33727 0.0
C785 C 0.25031 0.01036 0.28912 0.0
C786 C 0.30238 0.11376 0.3855 0.0
C787 C 0.30295 0.09565 0.37381 0.0
C788 C 0.3086 0.10133 0.33592 0.0
C789 C 0.27648 0.02266 0.31183 0.0
C790 C 0.28565 0.04411 0.32459 0.0
C791 C 0.29664 0.10532 0.36085 0.0
C792 C 0.2947 0.08445 0.34849 0.0
H793 H 0.25863 0.94111 0.30077 0.0
H794 H 0.28477 0.98123 0.32016 0.0
H795 H 0.31475 0.09524 0.31457 0.0
H796 H 0.2844 0.17369 0.37062 0.0
H797 H 0.28495 0.14187 0.3501 0.0
C798 C 0.29839 0.27207 0.46518 0.0
C799 C 0.27335 0.25505 0.45474 0.0
C800 C 0.29099 0.28812 0.47609 0.0
C801 C 0.22566 0.3136 0.489 0.0
H802 H 0.2452 0.28502 0.52391 0.0
C803 C 0.14346 0.29535 0.53771 0.0
C804 C 0.16121 0.30532 0.55027 0.0
C805 C 0.16192 0.29742 0.52574 0.0
C806 C 0.24002 0.2938 0.51428 0.0
H807 H 0.22235 0.24463 0.44696 0.0
H808 H 0.20936 0.27194 0.46592 0.0
H809 H 0.27055 0.2761 0.50324 0.0
H810 H 0.21196 0.32549 0.56029 0.0
H811 H 0.24442 0.32932 0.53936 0.0
H812 H 0.19372 0.32976 0.50011 0.0
C813 C 0.23479 0.27316 0.46576 0.0
C814 C 0.25471 0.28882 0.50239 0.0
C815 C 0.24221 0.25725 0.45486 0.0
C816 C 0.19783 0.31804 0.55067 0.0
C817 C 0.21628 0.31994 0.53872 0.0
C818 C 0.21076 0.31835 0.50091 0.0
C819 C 0.2584 0.28752 0.4768 0.0
C820 C 0.24712 0.29792 0.48954 0.0
C821 C 0.19845 0.3092 0.52614 0.0
C822 C 0.2172 0.30784 0.51365 0.0
H823 H 0.32274 0.2711 0.46538 0.0
H824 H 0.31016 0.29967 0.48427 0.0
H825 H 0.2197 0.3215 0.47933 0.0
H826 H 0.11515 0.28518 0.53722 0.0
H827 H 0.14729 0.28849 0.51625 0.0
C828 C 0.84481 0.12807 0.70195 0.0
C829 C 0.85193 0.14601 0.71446 0.0
C830 C 0.86241 0.14619 0.69007 0.0
C831 C 0.94487 0.22578 0.67901 0.0
H832 H 0.8995 0.20283 0.64351 0.0
C833 C 0.02606 0.2908 0.63064 0.0
C834 C 0.02171 0.26651 0.62032 0.0
C835 C 0.00143 0.28072 0.6413 0.0
C836 C 0.91257 0.20954 0.65335 0.0
H837 H 0.8828 0.19678 0.72445 0.0
H838 H 0.91303 0.22873 0.70369 0.0
H839 H 0.86417 0.17569 0.66398 0.0
H840 H 0.98631 0.21373 0.61245 0.0
H841 H 0.94369 0.19628 0.63094 0.0
H842 H 0.99337 0.25883 0.66843 0.0
C843 C 0.89411 0.20063 0.70301 0.0
C844 C 0.89233 0.1939 0.66508 0.0
C845 C 0.87655 0.18247 0.71487 0.0
C846 C 0.99065 0.23307 0.62027 0.0
C847 C 0.96604 0.22306 0.63088 0.0
C848 C 0.96506 0.24141 0.6673 0.0
C849 C 0.8876 0.18266 0.69047 0.0
C850 C 0.90835 0.20137 0.67805 0.0
C851 C 0.97185 0.24623 0.64182 0.0
C852 C 0.94932 0.23305 0.65429 0.0
H853 H 0.82606 0.09988 0.70143 0.0
H854 H 0.8571 0.13136 0.68065 0.0
H855 H 0.95826 0.23178 0.68879 0.0
H856 H 0.04958 0.31681 0.63098 0.0
H857 H 0.00633 0.29946 0.64943 0.0
C858 C 0.72345 0.02061 0.79575 0.0
C859 C 0.74181 0.01366 0.78553 0.0
C860 C 0.70784 -0.00297 0.80668 0.0
C861 C 0.68488 0.90728 0.81986 0.0
H862 H 0.71224 0.95583 0.8547 0.0
C863 C 0.70081 0.84283 0.86892 0.0
C864 C 0.6916 0.85149 0.88146 0.0
C865 C 0.69918 0.85926 0.85688 0.0
C866 C 0.70375 0.94169 0.8451 0.0
H867 H 0.75512 0.97482 0.77811 0.0
H868 H 0.72827 0.93413 0.79707 0.0
H869 H 0.72089 0.98973 0.83393 0.0
H870 H 0.67321 0.88372 0.89136 0.0
H871 H 0.66975 0.91211 0.87033 0.0
H872 H 0.66891 0.85934 0.83107 0.0
C873 C 0.72582 0.95766 0.79674 0.0
C874 C 0.70863 0.96119 0.83315 0.0
C875 C 0.74143 0.98118 0.78585 0.0
C876 C 0.68004 0.87631 0.88176 0.0
C877 C 0.67841 0.89278 0.86974 0.0
C878 C 0.68006 0.88777 0.83183 0.0
C879 C 0.7101 0.96595 0.80758 0.0
C880 C 0.69995 0.94437 0.82034 0.0
C881 C 0.68847 0.88487 0.85717 0.0
C882 C 0.69009 0.90484 0.84457 0.0
H883 H 0.7231 0.04529 0.79581 0.0
H884 H 0.6953 0.00389 0.81472 0.0
H885 H 0.67743 0.89338 0.81019 0.0
H886 H 0.71007 0.82394 0.8685 0.0
H887 H 0.70762 0.85288 0.84743 0.0
C888 C 0.76335 0.75681 0.95266 0.0
C889 C 0.73095 0.75645 0.95354 0.0
C890 C 0.77488 0.74396 0.96338 0.0
C891 C 0.74964 0.69398 0.99606 0.0
H892 H 0.84609 0.76298 0.00617 0.0
C893 C 0.809 0.69674 0.04939 0.0
C894 C 0.84534 0.70841 0.05026 0.0
C895 C 0.79378 0.6974 0.03689 0.0
C896 C 0.81938 0.74297 1.00341 0.0
H897 H 0.68387 0.73941 0.9659 0.0
H898 H 0.7041 0.71696 0.98467 0.0
H899 H 0.82097 0.77131 0.98538 0.0
H900 H 0.8942 0.72891 0.0389 0.0
H901 H 0.86768 0.72913 0.01693 0.0
H902 H 0.74809 0.6658 0.01423 0.0
C903 C 0.72057 0.72722 0.97566 0.0
C904 C 0.80491 0.7478 0.99144 0.0
C905 C 0.70894 0.74005 0.96488 0.0
C906 C 0.86608 0.71977 0.03841 0.0
C907 C 0.85087 0.72015 0.02589 0.0
C908 C 0.76425 0.68897 0.00803 0.0
C909 C 0.75436 0.73047 0.97526 0.0
C910 C 0.76983 0.72351 0.98763 0.0
C911 C 0.81464 0.70967 0.02499 0.0
C912 C 0.79929 0.71357 0.01191 0.0
H913 H 0.7808 0.76884 0.944 0.0
H914 H 0.80065 0.74604 0.96261 0.0
H915 H 0.7226 0.6747 0.99337 0.0
H916 H 0.79264 0.6883 0.05848 0.0
H917 H 0.76598 0.6896 0.03667 0.0
C918 C 0.0048 0.76829 0.12219 0.0
C919 C 0.9737 0.7349 0.12205 0.0
C920 C 0.02968 0.77743 0.13263 0.0
C921 C 0.03178 0.75665 0.16868 0.0
H922 H 0.13244 0.82312 0.16504 0.0
C923 C 0.12116 0.81497 0.21598 0.0
C924 C 0.14486 0.85168 0.21572 0.0
C925 C 0.10383 0.7969 0.20409 0.0
C926 C 0.10436 0.80466 0.16623 0.0
H927 H 0.94587 0.68386 0.13219 0.0
H928 H 0.98965 0.69972 0.1504 0.0
H929 H 0.09652 0.79663 0.14464 0.0
H930 H 0.16976 0.89822 0.20284 0.0
H931 H 0.1391 0.86686 0.182 0.0
H932 H 0.03925 0.76541 0.19019 0.0
C933 C 0.9944 0.71905 0.14252 0.0
C934 C 0.08378 0.78939 0.15454 0.0
C935 C 0.96948 0.70982 0.13201 0.0
C936 C 0.15161 0.86988 0.20327 0.0
C937 C 0.13424 0.85183 0.19135 0.0
C938 C 0.05232 0.77188 0.18035 0.0
C939 C 0.02412 0.75343 0.14323 0.0
C940 C 0.04708 0.76574 0.15561 0.0
C941 C 0.1097 0.81518 0.19165 0.0
C942 C 0.08874 0.7966 0.17927 0.0
H943 H 0.00902 0.7882 0.11464 0.0
H944 H 0.05209 0.80418 0.13285 0.0
H945 H 0.00353 0.73908 0.16991 0.0
H946 H 0.11522 0.80038 0.22549 0.0
H947 H 0.08546 0.76865 0.20467 0.0
C948 C 0.01997 0.72567 0.54131 0.0
C949 C 0.01131 0.74195 0.55183 0.0
C950 C -0.0027 0.7106 0.5301 0.0
C951 C 0.9076 0.68634 0.51635 0.0
H952 H 0.95836 0.71801 0.48205 0.0
C953 C 0.84553 0.70552 0.46726 0.0
C954 C 0.85416 0.69617 0.45474 0.0
C955 C 0.86183 0.70382 0.47932 0.0
C956 C 0.94368 0.7084 0.4915 0.0
H957 H 0.9703 0.75189 0.55945 0.0
H958 H 0.9313 0.72618 0.54001 0.0
H959 H 0.99108 0.72542 0.50305 0.0
H960 H 0.88666 0.67808 0.44486 0.0
H961 H 0.9151 0.67483 0.46594 0.0
H962 H 0.86029 0.67069 0.50475 0.0
C963 C 0.95546 0.72488 0.54031 0.0
C964 C 0.96246 0.71251 0.50358 0.0
C965 C 0.97802 0.73984 0.55149 0.0
C966 C 0.87921 0.68491 0.45445 0.0
C967 C 0.89567 0.68336 0.46649 0.0
C968 C 0.88882 0.68241 0.50426 0.0
C969 C 0.96546 0.71142 0.52919 0.0
C970 C 0.94478 0.7022 0.51621 0.0
C971 C 0.88739 0.69308 0.47906 0.0
C972 C 0.90673 0.69402 0.49173 0.0
H973 H 0.04528 0.72661 0.54125 0.0
H974 H 0.00547 0.6997 0.52187 0.0
H975 H 0.89301 0.67757 0.52585 0.0
H976 H 0.82651 0.71462 0.46767 0.0
H977 H 0.85524 0.71201 0.48878 0.0
C978 C 0.18016 0.88279 0.62169 0.0
C979 C 0.14473 0.85546 0.62259 0.0
C980 C 0.19868 0.90102 0.6334 0.0
C981 C 0.19682 0.89677 0.67134 0.0
H982 H 0.25306 -0.00082 0.66866 0.0
C983 C 0.23389 0.99016 0.71767 0.0
C984 C 0.26557 0.02305 0.71746 0.0
C985 C 0.22433 0.96694 0.7066 0.0
C986 C 0.23812 0.97057 0.66957 0.0
H987 H 0.10075 0.82555 0.63629 0.0
H988 H 0.13286 0.85761 0.65682 0.0
H989 H 0.22577 0.96425 0.64827 0.0
H990 H 0.31342 0.05597 0.70586 0.0
H991 H 0.29694 0.01513 0.68658 0.0
H992 H 0.20853 0.90327 0.69273 0.0
C993 C 0.14666 0.86462 0.64713 0.0
C994 C 0.22235 0.95049 0.65785 0.0
C995 C 0.12817 0.8464 0.6354 0.0
C996 C 0.28879 0.03092 0.70635 0.0
C997 C 0.27915 0.00767 0.69523 0.0
C998 C 0.21264 0.91688 0.68307 0.0
C999 C 0.18208 0.89241 0.64626 0.0
C1000 C 0.20101 0.91338 0.65861 0.0
C1001 C 0.24621 0.97596 0.69502 0.0
C1002 C 0.23301 0.9541 0.68238 0.0
H1003 H 0.19335 0.89051 0.61188 0.0
H1004 H 0.22598 0.92201 0.63236 0.0
H1005 H 0.18107 0.8682 0.67225 0.0
H1006 H 0.21548 0.98306 0.72609 0.0
H1007 H 0.19872 0.9429 0.70681 0.0
C1008 C 0.2446 0.22983 0.88775 0.0
C1009 C 0.24183 0.26037 0.88598 0.0
C1010 C 0.26016 0.21934 0.87769 0.0
C1011 C 0.31043 0.24533 0.84484 0.0
H1012 H 0.25027 0.14537 0.83675 0.0
C1013 C 0.30721 0.18305 0.79223 0.0
C1014 C 0.30069 0.14809 0.79188 0.0
C1015 C 0.30693 0.19877 0.80465 0.0
C1016 C 0.26787 0.17318 0.83897 0.0
H1017 H 0.25591 0.30547 0.87277 0.0
H1018 H 0.28262 0.28688 0.8551 0.0
H1019 H 0.2391 0.17008 0.85702 0.0
H1020 H 0.28982 0.10237 0.80406 0.0
H1021 H 0.28993 0.12988 0.82586 0.0
H1022 H 0.33853 0.24837 0.82645 0.0
C1023 C 0.27303 0.27114 0.86432 0.0
C1024 C 0.26147 0.18742 0.85065 0.0
C1025 C 0.25772 0.28185 0.87447 0.0
C1026 C 0.29502 0.12944 0.80414 0.0
C1027 C 0.29483 0.14514 0.81657 0.0
C1028 C 0.31686 0.23102 0.8331 0.0
C1029 C 0.273 0.23891 0.86555 0.0
C1030 C 0.2824 0.22373 0.8537 0.0
C1031 C 0.3 0.17974 0.81696 0.0
C1032 C 0.29538 0.1948 0.82994 0.0
H1033 H 0.233 0.21293 0.89658 0.0
H1034 H 0.2606 0.19491 0.87916 0.0
H1035 H 0.32724 0.27334 0.84693 0.0
H1036 H 0.3111 0.19771 0.78284 0.0
H1037 H 0.31051 0.22523 0.80451 0.0
C1038 C 0.00458 0.24279 0.05089 0.0
C1039 C 0.97239 0.24296 0.05129 0.0
C1040 C 0.02791 0.25794 0.03993 0.0
C1041 C 0.02442 0.27555 1.00348 0.0
H1042 H 0.12591 0.313 0.00553 0.0
C1043 C 0.10986 0.30411 0.95495 0.0
C1044 C 0.13371 0.29132 0.95517 0.0
C1045 C 0.0933 0.30559 0.96697 0.0
C1046 C 0.09758 0.30251 0.00479 0.0
H1047 H 0.94107 0.26209 0.04104 0.0
H1048 H 0.9822 0.28918 0.02199 0.0
H1049 H 0.09218 0.30514 0.02642 0.0
H1050 H 0.15922 0.27025 0.96798 0.0
H1051 H 0.13027 0.27267 0.98904 0.0
H1052 H 0.02966 0.27214 0.98191 0.0
C1053 C 0.98895 0.27653 0.03003 0.0
C1054 C 0.07823 0.29803 0.01676 0.0
C1055 C 0.96554 0.26134 0.04104 0.0
C1056 C 0.14116 0.28053 0.96762 0.0
C1057 C 0.12472 0.28212 0.97966 0.0
C1058 C 0.04378 0.28017 0.99152 0.0
C1059 C 0.01975 0.27379 0.02908 0.0
C1060 C 0.04125 0.2837 0.0163 0.0
C1061 C 0.10023 0.29425 0.97945 0.0
C1062 C 0.08047 0.29296 0.99205 0.0
H1063 H 0.01086 0.22906 0.05865 0.0
H1064 H 0.05119 0.25509 0.03956 0.0
H1065 H -0.00405 0.26389 1.0027 0.0
H1066 H 0.10332 0.31208 0.94541 0.0
H1067 H 0.07476 0.31526 0.96646 0.0
C1068 C 0.75814 -0.00092 0.21956 0.0
C1069 C 0.72648 0.96642 0.21839 0.0
C1070 C 0.76963 0.02379 0.20896 0.0
C1071 C 0.74472 0.04809 0.17609 0.0
H1072 H 0.8435 0.08262 0.16738 0.0
C1073 C 0.8081 0.11172 0.12392 0.0
C1074 C 0.84383 0.13855 0.12378 0.0
C1075 C 0.79202 0.09417 0.1361 0.0
C1076 C 0.81607 0.07389 0.16976 0.0
H1077 H 0.68069 0.93528 0.20553 0.0
H1078 H 0.70092 0.97849 0.1869 0.0
H1079 H 0.81782 0.04666 0.18761 0.0
H1080 H 0.89064 0.16886 0.13611 0.0
H1081 H 0.86252 0.13905 0.15749 0.0
H1082 H 0.74305 0.07515 0.15805 0.0
C1083 C 0.7168 0.985 0.19609 0.0
C1084 C 0.80128 0.05315 0.1814 0.0
C1085 C 0.70516 0.96023 0.20678 0.0
C1086 C 0.86298 0.1483 0.13603 0.0
C1087 C 0.84691 0.13096 0.14821 0.0
C1088 C 0.75963 0.06908 0.16442 0.0
C1089 C 0.74987 0.01644 0.19685 0.0
C1090 C 0.76541 0.03989 0.18471 0.0
C1091 C 0.81141 0.10312 0.14837 0.0
C1092 C 0.79551 0.08214 0.16108 0.0
H1093 H 0.77495 0.00495 0.22845 0.0
H1094 H 0.79477 0.04815 0.21003 0.0
H1095 H 0.71706 0.03845 0.17839 0.0
H1096 H 0.79301 0.10339 0.11452 0.0
H1097 H 0.76484 0.07261 0.13576 0.0
C1098 C 0.73417 0.75202 0.3889 0.0
C1099 C 0.73855 0.72245 0.38695 0.0
C1100 C 0.71919 0.76275 0.37869 0.0
C1101 C 0.67296 0.73949 0.3451 0.0
H1102 H 0.73518 0.83962 0.33788 0.0
C1103 C 0.67929 0.80443 0.29275 0.0
C1104 C 0.68776 0.84002 0.29247 0.0
C1105 C 0.67878 0.78811 0.30512 0.0
C1106 C 0.71695 0.81181 0.33984 0.0
H1107 H 0.72736 0.67896 0.37327 0.0
H1108 H 0.70132 0.69782 0.35539 0.0
H1109 H 0.74384 0.81341 0.35827 0.0
H1110 H 0.7012 0.88628 0.30472 0.0
H1111 H 0.69927 0.85768 0.32645 0.0
H1112 H 0.64645 0.73794 0.32646 0.0
C1113 C 0.70945 0.7127 0.36484 0.0
C1114 C 0.72197 0.7967 0.35159 0.0
C1115 C 0.72434 0.70182 0.37511 0.0
C1116 C 0.69454 0.85875 0.30476 0.0
C1117 C 0.69372 0.84239 0.31715 0.0
C1118 C 0.66777 0.75471 0.33334 0.0
C1119 C 0.70835 0.74428 0.36625 0.0
C1120 C 0.70031 0.76031 0.35432 0.0
C1121 C 0.68665 0.80708 0.31748 0.0
C1122 C 0.69 0.79103 0.33047 0.0
H1123 H 0.74444 0.76827 0.39796 0.0
H1124 H 0.71787 0.78668 0.38024 0.0
H1125 H 0.65571 0.71142 0.34694 0.0
H1126 H 0.67442 0.78967 0.28333 0.0
H1127 H 0.67373 0.76113 0.3049 0.0
C1128 C 0.21128 0.07856 0.4636 0.0
C1129 C 0.24695 0.09729 0.45951 0.0
C1130 C 0.20018 0.05266 0.47372 0.0
C1131 C 0.23419 0.02309 0.50246 0.0
H1132 H 0.13928 0.94146 0.50125 0.0
C1133 C 0.17633 0.90586 0.54138 0.0
C1134 C 0.143 0.89728 0.54672 0.0
C1135 C 0.19131 0.93034 0.53072 0.0
C1136 C 0.16582 0.9642 0.50171 0.0
H1137 H 0.29878 0.10278 0.46254 0.0
H1138 H 0.27912 0.05665 0.47995 0.0
H1139 H 0.16118 0.9822 0.48197 0.0
H1140 H 0.09962 0.90816 0.54525 0.0
H1141 H 0.12558 0.95035 0.52653 0.0
H1142 H 0.2387 0.00435 0.52221 0.0
C1143 C 0.25991 0.06265 0.47557 0.0
C1144 C 0.17836 0.98763 0.49071 0.0
C1145 C 0.27114 0.08893 0.46553 0.0
C1146 C 0.12534 0.9142 0.54139 0.0
C1147 C 0.14005 0.93817 0.53062 0.0
C1148 C 0.22178 -0.00072 0.5134 0.0
C1149 C 0.22434 0.04445 0.47989 0.0
C1150 C 0.21242 0.0178 0.49106 0.0
C1151 C 0.17292 0.94612 0.5251 0.0
C1152 C 0.18724 0.97006 0.51321 0.0
H1153 H 0.19199 0.08453 0.45927 0.0
H1154 H 0.17275 0.03976 0.47695 0.0
H1155 H 0.26039 0.04623 0.50316 0.0
H1156 H 0.19061 0.89333 0.5453 0.0
H1157 H 0.21672 0.93611 0.5266 0.0
C1158 C 0.18465 0.28974 0.63756 0.0
C1159 C 0.16651 0.26498 0.62714 0.0
C1160 C 0.19849 0.28058 0.64871 0.0
C1161 C 0.18305 0.20087 0.66736 0.0
H1162 H 0.27159 0.26414 0.68559 0.0
C1163 C 0.28014 0.18872 0.70877 0.0
C1164 C 0.25442 0.16455 0.71788 0.0
C1165 C 0.27089 0.20528 0.69868 0.0
C1166 C 0.24683 0.24617 0.68058 0.0
H1167 H 0.15106 0.21226 0.61972 0.0
H1168 H 0.17582 0.19668 0.63895 0.0
H1169 H 0.25473 0.28419 0.66507 0.0
H1170 H 0.19943 0.14085 0.72416 0.0
H1171 H 0.18352 0.17028 0.70673 0.0
H1172 H 0.17546 0.16248 0.68249 0.0
C1173 C 0.17841 0.22274 0.63874 0.0
C1174 C 0.23707 0.25774 0.6689 0.0
C1175 C 0.16441 0.23176 0.62768 0.0
C1176 C 0.21978 0.15895 0.7172 0.0
C1177 C 0.21061 0.17568 0.70716 0.0
C1178 C 0.19278 0.18934 0.67897 0.0
C1179 C 0.19458 0.24659 0.64959 0.0
C1180 C 0.20522 0.23503 0.66209 0.0
C1181 C 0.2358 0.19818 0.69753 0.0
C1182 C 0.22484 0.21173 0.68569 0.0
H1183 H 0.18671 0.31557 0.63744 0.0
H1184 H 0.21075 0.29952 0.65692 0.0
H1185 H 0.15801 0.18294 0.66251 0.0
H1186 H 0.30711 0.19373 0.70904 0.0
H1187 H 0.29089 0.22227 0.69138 0.0
C1188 C 0.89129 0.17586 0.79982 0.0
C1189 C 0.89549 0.15371 0.79049 0.0
C1190 C 0.91611 0.19294 0.81019 0.0
C1191 C 0.00743 0.22176 0.82082 0.0
H1192 H 0.96993 0.20732 0.85765 0.0
C1193 C 0.09741 0.27907 0.86822 0.0
C1194 C 0.09123 0.25364 0.87831 0.0
C1195 C 0.07312 0.27122 0.85762 0.0
C1196 C 0.98072 0.21172 0.84741 0.0
H1197 H 0.92982 0.13335 0.78437 0.0
H1198 H 0.9733 0.16354 0.80241 0.0
H1199 H 0.92922 0.18624 0.83823 0.0
H1200 H 0.05401 0.20066 0.88554 0.0
H1201 H 0.01146 0.18722 0.86714 0.0
H1202 H 0.05891 0.24654 0.83002 0.0
C1203 C 0.95075 0.16755 0.8017 0.0
C1204 C 0.9575 0.19991 0.83632 0.0
C1205 C 0.92573 0.15012 0.79143 0.0
C1206 C 0.05962 0.22076 0.87789 0.0
C1207 C 0.03515 0.21312 0.86741 0.0
C1208 C 0.03067 0.23396 0.83191 0.0
C1209 C 0.94584 0.18861 0.81132 0.0
C1210 C 0.97062 0.20425 0.82293 0.0
C1211 C 0.04197 0.23803 0.85705 0.0
C1212 C 0.01749 0.22845 0.84531 0.0
H1213 H 0.86831 0.17922 0.79938 0.0
H1214 H 0.91188 0.20926 0.81743 0.0
H1215 H 0.01819 0.22559 0.81059 0.0
H1216 H 0.12153 0.30465 0.86826 0.0
H1217 H 0.07884 0.29095 0.84979 0.0
C1218 C 0.8345 0.06179 0.04644 0.0
C1219 C 0.82997 0.09141 0.04759 0.0
C1220 C 0.81843 0.03757 0.03584 0.0
C1221 C 0.8073 0.01 0.00715 0.0
H1222 H 0.71289 0.97761 0.99295 0.0
C1223 C 0.76471 0.93519 0.95674 0.0
C1224 C 0.73163 0.90383 0.9567 0.0
C1225 C 0.77373 0.95979 0.96724 0.0
C1226 C 0.73926 0.98638 0.99684 0.0
H1227 H 0.80336 0.11779 0.03896 0.0
H1228 H 0.77575 0.07571 0.02028 0.0
H1229 H 0.73271 0.01451 0.0135 0.0
H1230 H 0.6812 0.87471 0.96722 0.0
H1231 H 0.69729 0.91748 0.98576 0.0
H1232 H 0.81383 0.98148 0.9908 0.0
C1233 C 0.79151 0.07109 0.02766 0.0
C1234 C 0.75068 0.00767 0.00854 0.0
C1235 C 0.80745 0.09527 0.03833 0.0
C1236 C 0.70694 0.8986 0.96698 0.0
C1237 C 0.7161 0.92316 0.97757 0.0
C1238 C 0.79595 0.98884 0.99552 0.0
C1239 C 0.79766 0.04255 0.02609 0.0
C1240 C 0.78479 0.01955 0.01384 0.0
C1241 C 0.75002 0.95346 0.97803 0.0
C1242 C 0.76187 0.97683 0.9902 0.0
H1243 H 0.85127 0.05775 0.05352 0.0
H1244 H 0.82298 0.01536 0.0351 0.0
H1245 H 0.83395 0.0192 0.01082 0.0
H1246 H 0.78413 0.94028 0.94886 0.0
H1247 H 0.79975 0.98333 0.96713 0.0
C1248 C 0.8219 0.76078 0.12932 0.0
C1249 C 0.82335 0.72939 0.12812 0.0
C1250 C 0.8032 0.76505 0.14 0.0
C1251 C 0.77785 0.7381 0.17506 0.0
H1252 H 0.72126 0.78338 0.17049 0.0
C1253 C 0.69757 0.79494 0.20881 0.0
C1254 C 0.72484 0.81752 0.21776 0.0
C1255 C 0.70406 0.77675 0.19852 0.0
C1256 C 0.73654 0.77023 0.17193 0.0
H1257 H 0.80531 0.67737 0.13693 0.0
H1258 H 0.77302 0.68518 0.15575 0.0
H1259 H 0.74142 0.76529 0.1504 0.0
H1260 H 0.77965 0.83689 0.22346 0.0
H1261 H 0.79085 0.80498 0.20553 0.0
H1262 H 0.77405 0.74424 0.19659 0.0
C1263 C 0.78636 0.70637 0.14837 0.0
C1264 C 0.74829 0.76015 0.16044 0.0
C1265 C 0.8047 0.70188 0.13758 0.0
C1266 C 0.75813 0.81988 0.21669 0.0
C1267 C 0.76449 0.80143 0.20647 0.0
C1268 C 0.76641 0.74852 0.18656 0.0
C1269 C 0.78588 0.73819 0.14978 0.0
C1270 C 0.76963 0.74465 0.1619 0.0
C1271 C 0.7378 0.78046 0.19707 0.0
C1272 C 0.74621 0.76529 0.18509 0.0
H1273 H 0.83586 0.78241 0.12217 0.0
H1274 H 0.80351 0.78999 0.14092 0.0
H1275 H 0.7945 0.72641 0.17645 0.0
H1276 H 0.67156 0.79236 0.20938 0.0
H1277 H 0.68293 0.76045 0.19148 0.0
C1278 C 0.90539 0.7712 0.37088 0.0
C1279 C 0.88885 0.7369 0.37649 0.0
C1280 C 0.92786 0.77966 0.35967 0.0
C1281 C 0.98784 0.75933 0.34201 0.0
H1282 H 0.96949 0.80296 0.31091 0.0
C1283 C 0.08114 0.80846 0.29519 0.0
C1284 C 0.08867 0.8415 0.28987 0.0
C1285 C 0.05382 0.79081 0.30468 0.0
C1286 C 0.9752 0.79109 0.31954 0.0
H1287 H 0.88375 0.68484 0.37499 0.0
H1288 H 0.92416 0.70018 0.35547 0.0
H1289 H 0.92828 0.78188 0.33006 0.0
H1290 H 0.07311 0.88167 0.29022 0.0
H1291 H 0.02646 0.85161 0.30695 0.0
H1292 H 0.03571 0.77014 0.33188 0.0
C1293 C 0.91914 0.72019 0.35974 0.0
C1294 C 0.95148 0.77886 0.33045 0.0
C1295 C 0.89606 0.71147 0.37086 0.0
C1296 C 0.0679 0.85615 0.29404 0.0
C1297 C 0.0409 0.83873 0.30359 0.0
C1298 C 0.01193 0.77206 0.33116 0.0
C1299 C 0.93473 0.7542 0.35395 0.0
C1300 C 0.95796 0.76352 0.34187 0.0
C1301 C 0.03365 0.80596 0.30912 0.0
C1302 C 0.00625 0.78879 0.31992 0.0
H1303 H 0.90035 0.79139 0.37494 0.0
H1304 H 0.93994 0.80619 0.35546 0.0
H1305 H 0.99339 0.7477 0.35076 0.0
H1306 H 0.09654 0.79635 0.29212 0.0
H1307 H 0.04864 0.76538 0.30858 0.0
loop_
_geom_bond_atom_site_label_1
_geom_bond_atom_site_label_2
_geom_bond_distance
_geom_bond_site_symmetry_2
_ccdc_geom_bond_type
Co0 O3 1.970 . S
Co0 N17 1.989 . S
Co0 O25 1.967 . S
Co0 O32 1.920 . S
Co1 O4 1.966 . S
Co1 N10 2.022 . S
Co1 N18 1.993 . S
Co1 O26 1.941 . S
C2 O3 1.258 . S
C2 O4 1.263 . S
O3 Co0 1.970 . S
O3 C2 1.258 . S
O4 Co1 1.966 . S
O4 C2 1.263 . S
C5 O6 1.235 . S
C5 O32 1.289 . S
O6 C5 1.235 . S
C7 C9 1.400 . S
C7 N10 1.351 . S
C7 C12 1.501 . S
C8 C9 1.387 . S
C8 N11 1.341 . S
C9 C7 1.400 . S
C9 C8 1.387 . S
N10 Co1 2.022 . S
N10 C7 1.351 . S
N10 N11 1.365 . S
N11 C8 1.341 . S
N11 N10 1.365 . S
N11 H31 0.862 . S
C12 C7 1.501 . S
C12 H13 0.961 . S
C12 H14 0.961 . S
C12 H15 0.960 . S
H13 C12 0.961 . S
H14 C12 0.961 . S
H15 C12 0.960 . S
C16 N17 1.342 . S
C16 C20 1.401 . S
C16 C21 1.499 . S
N17 Co0 1.989 . S
N17 C16 1.342 . S
N17 N18 1.388 . S
N18 Co1 1.993 . S
N18 N17 1.388 . S
N18 C19 1.346 . S
C19 N18 1.346 . S
C19 C20 1.396 . S
C19 C29 1.510 . S
C20 C16 1.401 . S
C20 C19 1.396 . S
C21 C16 1.499 . S
C21 H22 0.959 . S
C21 H23 0.960 . S
C21 H24 0.961 . S
H22 C21 0.959 . S
H23 C21 0.960 . S
H24 C21 0.961 . S
O25 Co0 1.967 . S
O25 C33 1.258 . S
O26 Co1 1.941 . S
O26 C33 1.266 . S
H27 C29 0.959 . S
H28 C29 0.961 . S
C29 C19 1.510 . S
C29 H27 0.959 . S
C29 H28 0.961 . S
C29 H30 0.960 . S
H30 C29 0.960 . S
H31 N11 0.862 . S
O32 Co0 1.920 . S
O32 C5 1.289 . S
C33 O25 1.258 . S
C33 O26 1.266 . S
Co34 O37 1.970 . S
Co34 N51 1.989 . S
Co34 O59 1.967 . S
Co34 O66 1.920 . S
Co35 O38 1.966 . S
Co35 N44 2.022 . S
Co35 N52 1.993 . S
Co35 O60 1.941 . S
C36 O37 1.258 . S
C36 O38 1.263 . S
O37 Co34 1.970 . S
O37 C36 1.258 . S
O38 Co35 1.966 . S
O38 C36 1.263 . S
C39 O40 1.235 . S
C39 O66 1.289 . S
O40 C39 1.235 . S
C41 C43 1.400 . S
C41 N44 1.351 . S
C41 C46 1.501 . S
C42 C43 1.387 . S
C42 N45 1.341 . S
C43 C41 1.400 . S
C43 C42 1.387 . S
N44 Co35 2.022 . S
N44 C41 1.351 . S
N44 N45 1.365 . S
N45 C42 1.341 . S
N45 N44 1.365 . S
N45 H65 0.862 . S
C46 C41 1.501 . S
C46 H47 0.961 . S
C46 H48 0.961 . S
C46 H49 0.960 . S
H47 C46 0.961 . S
H48 C46 0.961 . S
H49 C46 0.960 . S
C50 N51 1.342 . S
C50 C54 1.401 . S
C50 C55 1.499 . S
N51 Co34 1.989 . S
N51 C50 1.342 . S
N51 N52 1.388 . S
N52 Co35 1.993 . S
N52 N51 1.388 . S
N52 C53 1.346 . S
C53 N52 1.346 . S
C53 C54 1.396 . S
C53 C63 1.510 . S
C54 C50 1.401 . S
C54 C53 1.396 . S
C55 C50 1.499 . S
C55 H56 0.959 . S
C55 H57 0.960 . S
C55 H58 0.961 . S
H56 C55 0.959 . S
H57 C55 0.960 . S
H58 C55 0.961 . S
O59 Co34 1.967 . S
O59 C67 1.258 . S
O60 Co35 1.941 . S
O60 C67 1.266 . S
H61 C63 0.959 . S
H62 C63 0.961 . S
C63 C53 1.510 . S
C63 H61 0.959 . S
C63 H62 0.961 . S
C63 H64 0.960 . S
H64 C63 0.960 . S
H65 N45 0.862 . S
O66 Co34 1.920 . S
O66 C39 1.289 . S
C67 O59 1.258 . S
C67 O60 1.266 . S
Co68 O71 1.970 . S
Co68 N85 1.989 . S
Co68 O93 1.967 . S
Co68 O100 1.920 . S
Co69 O72 1.966 . S
Co69 N78 2.022 . S
Co69 N86 1.993 . S
Co69 O94 1.941 . S
C70 O71 1.258 . S
C70 O72 1.263 . S
O71 Co68 1.970 . S
O71 C70 1.258 . S
O72 Co69 1.966 . S
O72 C70 1.263 . S
C73 O74 1.235 . S
C73 O100 1.289 . S
O74 C73 1.235 . S
C75 C77 1.400 . S
C75 N78 1.351 . S
C75 C80 1.501 . S
C76 C77 1.387 . S
C76 N79 1.341 . S
C77 C75 1.400 . S
C77 C76 1.387 . S
N78 Co69 2.022 . S
N78 C75 1.351 . S
N78 N79 1.365 . S
N79 C76 1.341 . S
N79 N78 1.365 . S
N79 H99 0.862 . S
C80 C75 1.501 . S
C80 H81 0.961 . S
C80 H82 0.961 . S
C80 H83 0.960 . S
H81 C80 0.961 . S
H82 C80 0.961 . S
H83 C80 0.960 . S
C84 N85 1.342 . S
C84 C88 1.401 . S
C84 C89 1.499 . S
N85 Co68 1.989 . S
N85 C84 1.342 . S
N85 N86 1.388 . S
N86 Co69 1.993 . S
N86 N85 1.388 . S
N86 C87 1.346 . S
C87 N86 1.346 . S
C87 C88 1.396 . S
C87 C97 1.510 . S
C88 C84 1.401 . S
C88 C87 1.396 . S
C89 C84 1.499 . S
C89 H90 0.959 . S
C89 H91 0.960 . S
C89 H92 0.961 . S
H90 C89 0.959 . S
H91 C89 0.960 . S
H92 C89 0.961 . S
O93 Co68 1.967 . S
O93 C101 1.258 . S
O94 Co69 1.941 . S
O94 C101 1.266 . S
H95 C97 0.959 . S
H96 C97 0.961 . S
C97 C87 1.510 . S
C97 H95 0.959 . S
C97 H96 0.961 . S
C97 H98 0.960 . S
H98 C97 0.960 . S
H99 N79 0.862 . S
O100 Co68 1.920 . S
O100 C73 1.289 . S
C101 O93 1.258 . S
C101 O94 1.266 . S
Co102 O105 1.970 . S
Co102 N119 1.989 . S
Co102 O127 1.967 . S
Co102 O134 1.920 . S
Co103 O106 1.966 . S
Co103 N112 2.022 . S
Co103 N120 1.993 . S
Co103 O128 1.941 . S
C104 O105 1.258 . S
C104 O106 1.263 . S
O105 Co102 1.970 . S
O105 C104 1.258 . S
O106 Co103 1.966 . S
O106 C104 1.263 . S
C107 O108 1.235 . S
C107 O134 1.289 . S
O108 C107 1.235 . S
C109 C111 1.400 . S
C109 N112 1.351 . S
C109 C114 1.501 . S
C110 C111 1.387 . S
C110 N113 1.341 . S
C111 C109 1.400 . S
C111 C110 1.387 . S
N112 Co103 2.022 . S
N112 C109 1.351 . S
N112 N113 1.365 . S
N113 C110 1.341 . S
N113 N112 1.365 . S
N113 H133 0.862 . S
C114 C109 1.501 . S
C114 H115 0.961 . S
C114 H116 0.961 . S
C114 H117 0.960 . S
H115 C114 0.961 . S
H116 C114 0.961 . S
H117 C114 0.960 . S
C118 N119 1.342 . S
C118 C122 1.401 . S
C118 C123 1.499 . S
N119 Co102 1.989 . S
N119 C118 1.342 . S
N119 N120 1.388 . S
N120 Co103 1.993 . S
N120 N119 1.388 . S
N120 C121 1.346 . S
C121 N120 1.346 . S
C121 C122 1.396 . S
C121 C131 1.510 . S
C122 C118 1.401 . S
C122 C121 1.396 . S
C123 C118 1.499 . S
C123 H124 0.959 . S
C123 H125 0.960 . S
C123 H126 0.961 . S
H124 C123 0.959 . S
H125 C123 0.960 . S
H126 C123 0.961 . S
O127 Co102 1.967 . S
O127 C135 1.258 . S
O128 Co103 1.941 . S
O128 C135 1.266 . S
H129 C131 0.959 . S
H130 C131 0.961 . S
C131 C121 1.510 . S
C131 H129 0.959 . S
C131 H130 0.961 . S
C131 H132 0.960 . S
H132 C131 0.960 . S
H133 N113 0.862 . S
O134 Co102 1.920 . S
O134 C107 1.289 . S
C135 O127 1.258 . S
C135 O128 1.266 . S
Co136 O139 1.970 . S
Co136 N153 1.989 . S
Co136 O161 1.967 . S
Co136 O168 1.920 . S
Co137 O140 1.966 . S
Co137 N146 2.022 . S
Co137 N154 1.993 . S
Co137 O162 1.941 . S
C138 O139 1.258 . S
C138 O140 1.263 . S
O139 Co136 1.970 . S
O139 C138 1.258 . S
O140 Co137 1.966 . S
O140 C138 1.263 . S
C141 O142 1.235 . S
C141 O168 1.289 . S
O142 C141 1.235 . S
C143 C145 1.400 . S
C143 N146 1.351 . S
C143 C148 1.501 . S
C144 C145 1.387 . S
C144 N147 1.341 . S
C145 C143 1.400 . S
C145 C144 1.387 . S
N146 Co137 2.022 . S
N146 C143 1.351 . S
N146 N147 1.365 . S
N147 C144 1.341 . S
N147 N146 1.365 . S
N147 H167 0.862 . S
C148 C143 1.501 . S
C148 H149 0.961 . S
C148 H150 0.961 . S
C148 H151 0.960 . S
H149 C148 0.961 . S
H150 C148 0.961 . S
H151 C148 0.960 . S
C152 N153 1.342 . S
C152 C156 1.401 . S
C152 C157 1.499 . S
N153 Co136 1.989 . S
N153 C152 1.342 . S
N153 N154 1.388 . S
N154 Co137 1.993 . S
N154 N153 1.388 . S
N154 C155 1.346 . S
C155 N154 1.346 . S
C155 C156 1.396 . S
C155 C165 1.510 . S
C156 C152 1.401 . S
C156 C155 1.396 . S
C157 C152 1.499 . S
C157 H158 0.959 . S
C157 H159 0.960 . S
C157 H160 0.961 . S
H158 C157 0.959 . S
H159 C157 0.960 . S
H160 C157 0.961 . S
O161 Co136 1.967 . S
O161 C169 1.258 . S
O162 Co137 1.941 . S
O162 C169 1.266 . S
H163 C165 0.959 . S
H164 C165 0.961 . S
C165 C155 1.510 . S
C165 H163 0.959 . S
C165 H164 0.961 . S
C165 H166 0.960 . S
H166 C165 0.960 . S
H167 N147 0.862 . S
O168 Co136 1.920 . S
O168 C141 1.289 . S
C169 O161 1.258 . S
C169 O162 1.266 . S
Co170 O173 1.970 . S
Co170 N187 1.989 . S
Co170 O195 1.967 . S
Co170 O202 1.920 . S
Co171 O174 1.966 . S
Co171 N180 2.022 . S
Co171 N188 1.993 . S
Co171 O196 1.941 . S
C172 O173 1.258 . S
C172 O174 1.263 . S
O173 Co170 1.970 . S
O173 C172 1.258 . S
O174 Co171 1.966 . S
O174 C172 1.263 . S
C175 O176 1.235 . S
C175 O202 1.289 . S
O176 C175 1.235 . S
C177 C179 1.400 . S
C177 N180 1.351 . S
C177 C182 1.501 . S
C178 C179 1.387 . S
C178 N181 1.341 . S
C179 C177 1.400 . S
C179 C178 1.387 . S
N180 Co171 2.022 . S
N180 C177 1.351 . S
N180 N181 1.365 . S
N181 C178 1.341 . S
N181 N180 1.365 . S
N181 H201 0.862 . S
C182 C177 1.501 . S
C182 H183 0.961 . S
C182 H184 0.961 . S
C182 H185 0.960 . S
H183 C182 0.961 . S
H184 C182 0.961 . S
H185 C182 0.960 . S
C186 N187 1.342 . S
C186 C190 1.401 . S
C186 C191 1.499 . S
N187 Co170 1.989 . S
N187 C186 1.342 . S
N187 N188 1.388 . S
N188 Co171 1.993 . S
N188 N187 1.388 . S
N188 C189 1.346 . S
C189 N188 1.346 . S
C189 C190 1.396 . S
C189 C199 1.510 . S
C190 C186 1.401 . S
C190 C189 1.396 . S
C191 C186 1.499 . S
C191 H192 0.959 . S
C191 H193 0.960 . S
C191 H194 0.961 . S
H192 C191 0.959 . S
H193 C191 0.960 . S
H194 C191 0.961 . S
O195 Co170 1.967 . S
O195 C203 1.258 . S
O196 Co171 1.941 . S
O196 C203 1.266 . S
H197 C199 0.959 . S
H198 C199 0.961 . S
C199 C189 1.510 . S
C199 H197 0.959 . S
C199 H198 0.961 . S
C199 H200 0.960 . S
H200 C199 0.960 . S
H201 N181 0.862 . S
O202 Co170 1.920 . S
O202 C175 1.289 . S
C203 O195 1.258 . S
C203 O196 1.266 . S
Co204 O207 1.970 . S
Co204 N221 1.989 . S
Co204 O229 1.967 . S
Co204 O236 1.920 . S
Co205 O208 1.966 . S
Co205 N214 2.022 . S
Co205 N222 1.993 . S
Co205 O230 1.941 . S
C206 O207 1.258 . S
C206 O208 1.263 . S
O207 Co204 1.970 . S
O207 C206 1.258 . S
O208 Co205 1.966 . S
O208 C206 1.263 . S
C209 O210 1.235 . S
C209 O236 1.289 . S
O210 C209 1.235 . S
C211 C213 1.400 . S
C211 N214 1.351 . S
C211 C216 1.501 . S
C212 C213 1.387 . S
C212 N215 1.341 . S
C213 C211 1.400 . S
C213 C212 1.387 . S
N214 Co205 2.022 . S
N214 C211 1.351 . S
N214 N215 1.365 . S
N215 C212 1.341 . S
N215 N214 1.365 . S
N215 H235 0.862 . S
C216 C211 1.501 . S
C216 H217 0.961 . S
C216 H218 0.961 . S
C216 H219 0.960 . S
H217 C216 0.961 . S
H218 C216 0.961 . S
H219 C216 0.960 . S
C220 N221 1.342 . S
C220 C224 1.401 . S
C220 C225 1.499 . S
N221 Co204 1.989 . S
N221 C220 1.342 . S
N221 N222 1.388 . S
N222 Co205 1.993 . S
N222 N221 1.388 . S
N222 C223 1.346 . S
C223 N222 1.346 . S
C223 C224 1.396 . S
C223 C233 1.510 . S
C224 C220 1.401 . S
C224 C223 1.396 . S
C225 C220 1.499 . S
C225 H226 0.959 . S
C225 H227 0.960 . S
C225 H228 0.961 . S
H226 C225 0.959 . S
H227 C225 0.960 . S
H228 C225 0.961 . S
O229 Co204 1.967 . S
O229 C237 1.258 . S
O230 Co205 1.941 . S
O230 C237 1.266 . S
H231 C233 0.959 . S
H232 C233 0.961 . S
C233 C223 1.510 . S
C233 H231 0.959 . S
C233 H232 0.961 . S
C233 H234 0.960 . S
H234 C233 0.960 . S
H235 N215 0.862 . S
O236 Co204 1.920 . S
O236 C209 1.289 . S
C237 O229 1.258 . S
C237 O230 1.266 . S
Co238 O241 1.970 . S
Co238 N255 1.989 . S
Co238 O263 1.967 . S
Co238 O270 1.920 . S
Co239 O242 1.966 . S
Co239 N248 2.022 . S
Co239 N256 1.993 . S
Co239 O264 1.941 . S
C240 O241 1.258 . S
C240 O242 1.263 . S
O241 Co238 1.970 . S
O241 C240 1.258 . S
O242 Co239 1.966 . S
O242 C240 1.263 . S
C243 O244 1.235 . S
C243 O270 1.289 . S
O244 C243 1.235 . S
C245 C247 1.400 . S
C245 N248 1.351 . S
C245 C250 1.501 . S
C246 C247 1.387 . S
C246 N249 1.341 . S
C247 C245 1.400 . S
C247 C246 1.387 . S
N248 Co239 2.022 . S
N248 C245 1.351 . S
N248 N249 1.365 . S
N249 C246 1.341 . S
N249 N248 1.365 . S
N249 H269 0.862 . S
C250 C245 1.501 . S
C250 H251 0.961 . S
C250 H252 0.961 . S
C250 H253 0.960 . S
H251 C250 0.961 . S
H252 C250 0.961 . S
H253 C250 0.960 . S
C254 N255 1.342 . S
C254 C258 1.401 . S
C254 C259 1.499 . S
N255 Co238 1.989 . S
N255 C254 1.342 . S
N255 N256 1.388 . S
N256 Co239 1.993 . S
N256 N255 1.388 . S
N256 C257 1.346 . S
C257 N256 1.346 . S
C257 C258 1.396 . S
C257 C267 1.510 . S
C258 C254 1.401 . S
C258 C257 1.396 . S
C259 C254 1.499 . S
C259 H260 0.959 . S
C259 H261 0.960 . S
C259 H262 0.961 . S
H260 C259 0.959 . S
H261 C259 0.960 . S
H262 C259 0.961 . S
O263 Co238 1.967 . S
O263 C271 1.258 . S
O264 Co239 1.941 . S
O264 C271 1.266 . S
H265 C267 0.959 . S
H266 C267 0.961 . S
C267 C257 1.510 . S
C267 H265 0.959 . S
C267 H266 0.961 . S
C267 H268 0.960 . S
H268 C267 0.960 . S
H269 N249 0.862 . S
O270 Co238 1.920 . S
O270 C243 1.289 . S
C271 O263 1.258 . S
C271 O264 1.266 . S
Co272 O275 1.970 . S
Co272 N289 1.989 . S
Co272 O297 1.967 . S
Co272 O304 1.920 . S
Co273 O276 1.966 . S
Co273 N282 2.022 . S
Co273 N290 1.993 . S
Co273 O298 1.941 . S
C274 O275 1.258 . S
C274 O276 1.263 . S
O275 Co272 1.970 . S
O275 C274 1.258 . S
O276 Co273 1.966 . S
O276 C274 1.263 . S
C277 O278 1.235 . S
C277 O304 1.289 . S
O278 C277 1.235 . S
C279 C281 1.400 . S
C279 N282 1.351 . S
C279 C284 1.501 . S
C280 C281 1.387 . S
C280 N283 1.341 . S
C281 C279 1.400 . S
C281 C280 1.387 . S
N282 Co273 2.022 . S
N282 C279 1.351 . S
N282 N283 1.365 . S
N283 C280 1.341 . S
N283 N282 1.365 . S
N283 H303 0.862 . S
C284 C279 1.501 . S
C284 H285 0.961 . S
C284 H286 0.961 . S
C284 H287 0.960 . S
H285 C284 0.961 . S
H286 C284 0.961 . S
H287 C284 0.960 . S
C288 N289 1.342 . S
C288 C292 1.401 . S
C288 C293 1.499 . S
N289 Co272 1.989 . S
N289 C288 1.342 . S
N289 N290 1.388 . S
N290 Co273 1.993 . S
N290 N289 1.388 . S
N290 C291 1.346 . S
C291 N290 1.346 . S
C291 C292 1.396 . S
C291 C301 1.510 . S
C292 C288 1.401 . S
C292 C291 1.396 . S
C293 C288 1.499 . S
C293 H294 0.959 . S
C293 H295 0.960 . S
C293 H296 0.961 . S
H294 C293 0.959 . S
H295 C293 0.960 . S
H296 C293 0.961 . S
O297 Co272 1.967 . S
O297 C305 1.258 . S
O298 Co273 1.941 . S
O298 C305 1.266 . S
H299 C301 0.959 . S
H300 C301 0.961 . S
C301 C291 1.510 . S
C301 H299 0.959 . S
C301 H300 0.961 . S
C301 H302 0.960 . S
H302 C301 0.960 . S
H303 N283 0.862 . S
O304 Co272 1.920 . S
O304 C277 1.289 . S
C305 O297 1.258 . S
C305 O298 1.266 . S
Co306 O309 1.970 . S
Co306 N323 1.989 . S
Co306 O331 1.967 . S
Co306 O338 1.920 . S
Co307 O310 1.966 . S
Co307 N316 2.022 . S
Co307 N324 1.993 . S
Co307 O332 1.941 . S
C308 O309 1.258 . S
C308 O310 1.263 . S
O309 Co306 1.970 . S
O309 C308 1.258 . S
O310 Co307 1.966 . S
O310 C308 1.263 . S
C311 O312 1.235 . S
C311 O338 1.289 . S
O312 C311 1.235 . S
C313 C315 1.400 . S
C313 N316 1.351 . S
C313 C318 1.501 . S
C314 C315 1.387 . S
C314 N317 1.341 . S
C315 C313 1.400 . S
C315 C314 1.387 . S
N316 Co307 2.022 . S
N316 C313 1.351 . S
N316 N317 1.365 . S
N317 C314 1.341 . S
N317 N316 1.365 . S
N317 H337 0.862 . S
C318 C313 1.501 . S
C318 H319 0.961 . S
C318 H320 0.961 . S
C318 H321 0.960 . S
H319 C318 0.961 . S
H320 C318 0.961 . S
H321 C318 0.960 . S
C322 N323 1.342 . S
C322 C326 1.401 . S
C322 C327 1.499 . S
N323 Co306 1.989 . S
N323 C322 1.342 . S
N323 N324 1.388 . S
N324 Co307 1.993 . S
N324 N323 1.388 . S
N324 C325 1.346 . S
C325 N324 1.346 . S
C325 C326 1.396 . S
C325 C335 1.510 . S
C326 C322 1.401 . S
C326 C325 1.396 . S
C327 C322 1.499 . S
C327 H328 0.959 . S
C327 H329 0.960 . S
C327 H330 0.961 . S
H328 C327 0.959 . S
H329 C327 0.960 . S
H330 C327 0.961 . S
O331 Co306 1.967 . S
O331 C339 1.258 . S
O332 Co307 1.941 . S
O332 C339 1.266 . S
H333 C335 0.959 . S
H334 C335 0.961 . S
C335 C325 1.510 . S
C335 H333 0.959 . S
C335 H334 0.961 . S
C335 H336 0.960 . S
H336 C335 0.960 . S
H337 N317 0.862 . S
O338 Co306 1.920 . S
O338 C311 1.289 . S
C339 O331 1.258 . S
C339 O332 1.266 . S
Co340 O343 1.970 . S
Co340 N357 1.989 . S
Co340 O365 1.967 . S
Co340 O372 1.920 . S
Co341 O344 1.966 . S
Co341 N350 2.022 . S
Co341 N358 1.993 . S
Co341 O366 1.941 . S
C342 O343 1.258 . S
C342 O344 1.263 . S
O343 Co340 1.970 . S
O343 C342 1.258 . S
O344 Co341 1.966 . S
O344 C342 1.263 . S
C345 O346 1.235 . S
C345 O372 1.289 . S
O346 C345 1.235 . S
C347 C349 1.400 . S
C347 N350 1.351 . S
C347 C352 1.501 . S
C348 C349 1.387 . S
C348 N351 1.341 . S
C349 C347 1.400 . S
C349 C348 1.387 . S
N350 Co341 2.022 . S
N350 C347 1.351 . S
N350 N351 1.365 . S
N351 C348 1.341 . S
N351 N350 1.365 . S
N351 H371 0.862 . S
C352 C347 1.501 . S
C352 H353 0.961 . S
C352 H354 0.961 . S
C352 H355 0.960 . S
H353 C352 0.961 . S
H354 C352 0.961 . S
H355 C352 0.960 . S
C356 N357 1.342 . S
C356 C360 1.401 . S
C356 C361 1.499 . S
N357 Co340 1.989 . S
N357 C356 1.342 . S
N357 N358 1.388 . S
N358 Co341 1.993 . S
N358 N357 1.388 . S
N358 C359 1.346 . S
C359 N358 1.346 . S
C359 C360 1.396 . S
C359 C369 1.510 . S
C360 C356 1.401 . S
C360 C359 1.396 . S
C361 C356 1.499 . S
C361 H362 0.959 . S
C361 H363 0.960 . S
C361 H364 0.961 . S
H362 C361 0.959 . S
H363 C361 0.960 . S
H364 C361 0.961 . S
O365 Co340 1.967 . S
O365 C373 1.258 . S
O366 Co341 1.941 . S
O366 C373 1.266 . S
H367 C369 0.959 . S
H368 C369 0.961 . S
C369 C359 1.510 . S
C369 H367 0.959 . S
C369 H368 0.961 . S
C369 H370 0.960 . S
H370 C369 0.960 . S
H371 N351 0.862 . S
O372 Co340 1.920 . S
O372 C345 1.289 . S
C373 O365 1.258 . S
C373 O366 1.266 . S
Co374 O377 1.970 . S
Co374 N391 1.989 . S
Co374 O399 1.967 . S
Co374 O406 1.920 . S
Co375 O378 1.966 . S
Co375 N384 2.022 . S
Co375 N392 1.993 . S
Co375 O400 1.941 . S
C376 O377 1.258 . S
C376 O378 1.263 . S
O377 Co374 1.970 . S
O377 C376 1.258 . S
O378 Co375 1.966 . S
O378 C376 1.263 . S
C379 O380 1.235 . S
C379 O406 1.289 . S
O380 C379 1.235 . S
C381 C383 1.400 . S
C381 N384 1.351 . S
C381 C386 1.501 . S
C382 C383 1.387 . S
C382 N385 1.341 . S
C383 C381 1.400 . S
C383 C382 1.387 . S
N384 Co375 2.022 . S
N384 C381 1.351 . S
N384 N385 1.365 . S
N385 C382 1.341 . S
N385 N384 1.365 . S
N385 H405 0.862 . S
C386 C381 1.501 . S
C386 H387 0.961 . S
C386 H388 0.961 . S
C386 H389 0.960 . S
H387 C386 0.961 . S
H388 C386 0.961 . S
H389 C386 0.960 . S
C390 N391 1.342 . S
C390 C394 1.401 . S
C390 C395 1.499 . S
N391 Co374 1.989 . S
N391 C390 1.342 . S
N391 N392 1.388 . S
N392 Co375 1.993 . S
N392 N391 1.388 . S
N392 C393 1.346 . S
C393 N392 1.346 . S
C393 C394 1.396 . S
C393 C403 1.510 . S
C394 C390 1.401 . S
C394 C393 1.396 . S
C395 C390 1.499 . S
C395 H396 0.959 . S
C395 H397 0.960 . S
C395 H398 0.961 . S
H396 C395 0.959 . S
H397 C395 0.960 . S
H398 C395 0.961 . S
O399 Co374 1.967 . S
O399 C407 1.258 . S
O400 Co375 1.941 . S
O400 C407 1.266 . S
H401 C403 0.959 . S
H402 C403 0.961 . S
C403 C393 1.510 . S
C403 H401 0.959 . S
C403 H402 0.961 . S
C403 H404 0.960 . S
H404 C403 0.960 . S
H405 N385 0.862 . S
O406 Co374 1.920 . S
O406 C379 1.289 . S
C407 O399 1.258 . S
C407 O400 1.266 . S
C408 C409 1.349 . S
C408 C410 1.327 . S
C408 H433 0.950 . S
C409 C408 1.349 . S
C409 C425 1.349 . S
C410 C408 1.327 . S
C410 C429 1.429 . S
C410 H434 0.950 . S
C411 C428 1.574 . S
C411 C430 1.368 . S
C411 H435 0.949 . S
H412 C416 0.949 . S
C413 C414 1.349 . S
C413 C415 1.327 . S
C413 H436 0.950 . S
C414 C413 1.349 . S
C414 C426 1.349 . S
C415 C413 1.327 . S
C415 C431 1.429 . S
C415 H437 0.950 . S
C416 H412 0.949 . S
C416 C424 1.574 . S
C416 C432 1.368 . S
H417 C425 0.950 . S
H418 C423 0.950 . S
H419 C424 0.949 . S
H420 C426 0.950 . S
H421 C427 0.950 . S
H422 C428 0.949 1_655 S
C423 H418 0.950 . S
C423 C425 1.327 . S
C423 C429 1.429 . S
C424 C416 1.574 . S
C424 H419 0.949 . S
C424 C430 1.368 . S
C425 C409 1.349 . S
C425 H417 0.950 . S
C425 C423 1.327 . S
C426 C414 1.349 . S
C426 H420 0.950 . S
C426 C427 1.327 . S
C427 H421 0.950 . S
C427 C426 1.327 . S
C427 C431 1.429 . S
C428 C411 1.574 . S
C428 H422 0.949 1_455 S
C428 C432 1.368 . S
C429 C410 1.429 . S
C429 C423 1.429 . S
C429 C430 1.523 1_545 S
C430 C411 1.368 . S
C430 C424 1.368 . S
C430 C429 1.523 1_565 S
C431 C415 1.429 . S
C431 C427 1.429 . S
C431 C432 1.523 1_655 S
C432 C416 1.368 . S
C432 C428 1.368 . S
C432 C431 1.523 1_455 S
H433 C408 0.950 . S
H434 C410 0.950 . S
H435 C411 0.949 . S
H436 C413 0.950 . S
H437 C415 0.950 . S
C438 C439 1.349 . S
C438 C440 1.327 . S
C438 H463 0.950 . S
C439 C438 1.349 . S
C439 C455 1.349 . S
C440 C438 1.327 . S
C440 C459 1.429 . S
C440 H464 0.950 . S
C441 C458 1.574 . S
C441 C460 1.368 . S
C441 H465 0.949 . S
H442 C446 0.949 . S
C443 C444 1.349 . S
C443 C445 1.327 . S
C443 H466 0.950 . S
C444 C443 1.349 . S
C444 C456 1.349 . S
C445 C443 1.327 . S
C445 C461 1.429 . S
C445 H467 0.950 . S
C446 H442 0.949 . S
C446 C454 1.574 . S
C446 C462 1.368 . S
H447 C455 0.950 . S
H448 C453 0.950 . S
H449 C454 0.949 . S
H450 C456 0.950 . S
H451 C457 0.950 . S
H452 C458 0.949 . S
C453 H448 0.950 . S
C453 C455 1.327 . S
C453 C459 1.429 . S
C454 C446 1.574 . S
C454 H449 0.949 . S
C454 C460 1.368 . S
C455 C439 1.349 . S
C455 H447 0.950 . S
C455 C453 1.327 . S
C456 C444 1.349 . S
C456 H450 0.950 . S
C456 C457 1.327 . S
C457 H451 0.950 . S
C457 C456 1.327 . S
C457 C461 1.429 . S
C458 C441 1.574 . S
C458 H452 0.949 . S
C458 C462 1.368 . S
C459 C440 1.429 . S
C459 C453 1.429 . S
C459 C460 1.523 1_565 S
C460 C441 1.368 . S
C460 C454 1.368 . S
C460 C459 1.523 1_545 S
C461 C445 1.429 . S
C461 C457 1.429 . S
C461 C462 1.523 . S
C462 C446 1.368 . S
C462 C458 1.368 . S
C462 C461 1.523 . S
H463 C438 0.950 . S
H464 C440 0.950 . S
H465 C441 0.949 . S
H466 C443 0.950 . S
H467 C445 0.950 . S
C468 C469 1.349 . S
C468 C470 1.327 . S
C468 H493 0.950 . S
C469 C468 1.349 . S
C469 C485 1.349 . S
C470 C468 1.327 . S
C470 C489 1.429 . S
C470 H494 0.950 . S
C471 C488 1.574 . S
C471 C490 1.368 . S
C471 H495 0.949 . S
H472 C476 0.949 . S
C473 C474 1.349 . S
C473 C475 1.327 . S
C473 H496 0.950 . S
C474 C473 1.349 . S
C474 C486 1.349 . S
C475 C473 1.327 . S
C475 C491 1.429 . S
C475 H497 0.950 . S
C476 H472 0.949 . S
C476 C484 1.574 . S
C476 C492 1.368 . S
H477 C485 0.950 . S
H478 C483 0.950 . S
H479 C484 0.949 1_655 S
H480 C486 0.950 . S
H481 C487 0.950 . S
H482 C488 0.949 . S
C483 H478 0.950 . S
C483 C485 1.327 . S
C483 C489 1.429 . S
C484 C476 1.574 . S
C484 H479 0.949 1_455 S
C484 C490 1.368 . S
C485 C469 1.349 . S
C485 H477 0.950 . S
C485 C483 1.327 . S
C486 C474 1.349 . S
C486 H480 0.950 . S
C486 C487 1.327 . S
C487 H481 0.950 . S
C487 C486 1.327 . S
C487 C491 1.429 . S
C488 C471 1.574 . S
C488 H482 0.949 . S
C488 C492 1.368 . S
C489 C470 1.429 . S
C489 C483 1.429 . S
C489 C490 1.523 1_655 S
C490 C471 1.368 . S
C490 C484 1.368 . S
C490 C489 1.523 1_455 S
C491 C475 1.429 . S
C491 C487 1.429 . S
C491 C492 1.523 . S
C492 C476 1.368 . S
C492 C488 1.368 . S
C492 C491 1.523 . S
H493 C468 0.950 . S
H494 C470 0.950 . S
H495 C471 0.949 . S
H496 C473 0.950 . S
H497 C475 0.950 . S
C498 C499 1.349 . S
C498 C500 1.327 . S
C498 H523 0.950 . S
C499 C498 1.349 . S
C499 C515 1.349 . S
C500 C498 1.327 . S
C500 C519 1.429 . S
C500 H524 0.950 . S
C501 C518 1.574 . S
C501 C520 1.368 . S
C501 H525 0.949 . S
H502 C506 0.949 1_455 S
C503 C504 1.349 . S
C503 C505 1.327 . S
C503 H526 0.950 . S
C504 C503 1.349 . S
C504 C516 1.349 . S
C505 C503 1.327 . S
C505 C521 1.429 . S
C505 H527 0.950 . S
C506 H502 0.949 1_655 S
C506 C514 1.574 . S
C506 C522 1.368 . S
H507 C515 0.950 . S
H508 C513 0.950 . S
H509 C514 0.950 . S
H510 C516 0.950 . S
H511 C517 0.950 . S
H512 C518 0.949 . S
C513 H508 0.950 . S
C513 C515 1.327 . S
C513 C519 1.429 . S
C514 C506 1.574 . S
C514 H509 0.950 . S
C514 C520 1.368 . S
C515 C499 1.349 . S
C515 H507 0.950 . S
C515 C513 1.327 . S
C516 C504 1.349 . S
C516 H510 0.950 . S
C516 C517 1.327 . S
C517 H511 0.950 . S
C517 C516 1.327 . S
C517 C521 1.429 . S
C518 C501 1.574 . S
C518 H512 0.949 . S
C518 C522 1.368 . S
C519 C500 1.429 . S
C519 C513 1.429 . S
C519 C520 1.523 1_565 S
C520 C501 1.368 . S
C520 C514 1.368 . S
C520 C519 1.523 1_545 S
C521 C505 1.429 . S
C521 C517 1.429 . S
C521 C522 1.523 1_455 S
C522 C506 1.368 . S
C522 C518 1.368 . S
C522 C521 1.523 1_655 S
H523 C498 0.950 . S
H524 C500 0.950 . S
H525 C501 0.949 . S
H526 C503 0.950 . S
H527 C505 0.950 . S
C528 C529 1.349 . S
C528 C530 1.327 . S
C528 H553 0.950 . S
C529 C528 1.349 . S
C529 C545 1.349 . S
C530 C528 1.327 . S
C530 C549 1.429 . S
C530 H554 0.950 . S
C531 C548 1.574 . S
C531 C550 1.368 . S
C531 H555 0.949 . S
H532 C536 0.949 . S
C533 C534 1.349 . S
C533 C535 1.327 . S
C533 H556 0.950 . S
C534 C533 1.349 . S
C534 C546 1.349 . S
C535 C533 1.327 . S
C535 C551 1.429 . S
C535 H557 0.950 . S
C536 H532 0.949 . S
C536 C544 1.574 . S
C536 C552 1.368 . S
H537 C545 0.950 . S
H538 C543 0.950 . S
H539 C544 0.949 . S
H540 C546 0.950 . S
H541 C547 0.950 . S
H542 C548 0.949 1_545 S
C543 H538 0.950 . S
C543 C545 1.327 . S
C543 C549 1.429 . S
C544 C536 1.574 . S
C544 H539 0.949 . S
C544 C550 1.368 . S
C545 C529 1.349 . S
C545 H537 0.950 . S
C545 C543 1.327 . S
C546 C534 1.349 . S
C546 H540 0.950 . S
C546 C547 1.327 . S
C547 H541 0.950 . S
C547 C546 1.327 . S
C547 C551 1.429 . S
C548 C531 1.574 . S
C548 H542 0.949 1_565 S
C548 C552 1.368 . S
C549 C530 1.429 . S
C549 C543 1.429 . S
C549 C550 1.523 . S
C550 C531 1.368 . S
C550 C544 1.368 . S
C550 C549 1.523 . S
C551 C535 1.429 . S
C551 C547 1.429 . S
C551 C552 1.523 1_545 S
C552 C536 1.368 . S
C552 C548 1.368 . S
C552 C551 1.523 1_565 S
H553 C528 0.950 . S
H554 C530 0.950 . S
H555 C531 0.949 . S
H556 C533 0.950 . S
H557 C535 0.950 . S
C558 C559 1.349 . S
C558 C560 1.327 . S
C558 H583 0.950 . S
C559 C558 1.349 . S
C559 C575 1.349 . S
C560 C558 1.327 . S
C560 C579 1.429 . S
C560 H584 0.950 . S
C561 C578 1.574 . S
C561 C580 1.368 . S
C561 H585 0.949 . S
H562 C566 0.949 . S
C563 C564 1.349 . S
C563 C565 1.327 . S
C563 H586 0.950 . S
C564 C563 1.349 . S
C564 C576 1.349 . S
C565 C563 1.327 . S
C565 C581 1.429 . S
C565 H587 0.950 . S
C566 H562 0.949 . S
C566 C574 1.574 . S
C566 C582 1.368 . S
H567 C575 0.950 . S
H568 C573 0.950 . S
H569 C574 0.949 1_455 S
H570 C576 0.950 . S
H571 C577 0.950 . S
H572 C578 0.949 . S
C573 H568 0.950 . S
C573 C575 1.327 . S
C573 C579 1.429 . S
C574 C566 1.574 . S
C574 H569 0.949 1_655 S
C574 C580 1.368 . S
C575 C559 1.349 . S
C575 H567 0.950 . S
C575 C573 1.327 . S
C576 C564 1.349 . S
C576 H570 0.950 . S
C576 C577 1.327 . S
C577 H571 0.950 . S
C577 C576 1.327 . S
C577 C581 1.429 . S
C578 C561 1.574 . S
C578 H572 0.949 . S
C578 C582 1.368 . S
C579 C560 1.429 . S
C579 C573 1.429 . S
C579 C580 1.523 1_455 S
C580 C561 1.368 . S
C580 C574 1.368 . S
C580 C579 1.523 1_655 S
C581 C565 1.429 . S
C581 C577 1.429 . S
C581 C582 1.523 . S
C582 C566 1.368 . S
C582 C578 1.368 . S
C582 C581 1.523 . S
H583 C558 0.950 . S
H584 C560 0.950 . S
H585 C561 0.949 . S
H586 C563 0.950 . S
H587 C565 0.950 . S
C588 C589 1.349 . S
C588 C590 1.327 . S
C588 H613 0.950 . S
C589 C588 1.349 . S
C589 C605 1.349 . S
C590 C588 1.327 . S
C590 C609 1.429 . S
C590 H614 0.950 . S
C591 C608 1.574 . S
C591 C610 1.368 . S
C591 H615 0.949 . S
H592 C596 0.949 . S
C593 C594 1.349 . S
C593 C595 1.327 . S
C593 H616 0.950 . S
C594 C593 1.349 . S
C594 C606 1.349 . S
C595 C593 1.327 . S
C595 C611 1.429 . S
C595 H617 0.950 . S
C596 H592 0.949 . S
C596 C604 1.574 . S
C596 C612 1.368 . S
H597 C605 0.950 . S
H598 C603 0.950 . S
H599 C604 0.949 . S
H600 C606 0.950 . S
H601 C607 0.950 . S
H602 C608 0.949 . S
C603 H598 0.950 . S
C603 C605 1.327 . S
C603 C609 1.429 . S
C604 C596 1.574 . S
C604 H599 0.949 . S
C604 C610 1.368 . S
C605 C589 1.349 . S
C605 H597 0.950 . S
C605 C603 1.327 . S
C606 C594 1.349 . S
C606 H600 0.950 . S
C606 C607 1.327 . S
C607 H601 0.950 . S
C607 C606 1.327 . S
C607 C611 1.429 . S
C608 C591 1.574 . S
C608 H602 0.949 . S
C608 C612 1.368 . S
C609 C590 1.429 . S
C609 C603 1.429 . S
C609 C610 1.523 . S
C610 C591 1.368 . S
C610 C604 1.368 . S
C610 C609 1.523 . S
C611 C595 1.429 . S
C611 C607 1.429 . S
C611 C612 1.523 . S
C612 C596 1.368 . S
C612 C608 1.368 . S
C612 C611 1.523 . S
H613 C588 0.950 . S
H614 C590 0.950 . S
H615 C591 0.949 . S
H616 C593 0.950 . S
H617 C595 0.950 . S
C618 C619 1.349 . S
C618 C620 1.327 . S
C618 H643 0.950 . S
C619 C618 1.349 . S
C619 C635 1.349 . S
C620 C618 1.327 . S
C620 C639 1.429 . S
C620 H644 0.950 . S
C621 C638 1.574 . S
C621 C640 1.368 . S
C621 H645 0.949 . S
H622 C626 0.949 . S
C623 C624 1.349 . S
C623 C625 1.327 . S
C623 H646 0.950 . S
C624 C623 1.349 . S
C624 C636 1.349 . S
C625 C623 1.327 . S
C625 C641 1.429 . S
C625 H647 0.950 . S
C626 H622 0.949 . S
C626 C634 1.574 . S
C626 C642 1.368 . S
H627 C635 0.950 . S
H628 C633 0.950 . S
H629 C634 0.949 . S
H630 C636 0.950 . S
H631 C637 0.950 . S
H632 C638 0.949 . S
C633 H628 0.950 . S
C633 C635 1.327 . S
C633 C639 1.429 . S
C634 C626 1.574 . S
C634 H629 0.949 . S
C634 C640 1.368 . S
C635 C619 1.349 . S
C635 H627 0.950 . S
C635 C633 1.327 . S
C636 C624 1.349 . S
C636 H630 0.950 . S
C636 C637 1.327 . S
C637 H631 0.950 . S
C637 C636 1.327 . S
C637 C641 1.429 . S
C638 C621 1.574 . S
C638 H632 0.949 . S
C638 C642 1.368 . S
C639 C620 1.429 . S
C639 C633 1.429 . S
C639 C640 1.523 . S
C640 C621 1.368 . S
C640 C634 1.368 . S
C640 C639 1.523 . S
C641 C625 1.429 . S
C641 C637 1.429 . S
C641 C642 1.523 . S
C642 C626 1.368 . S
C642 C638 1.368 . S
C642 C641 1.523 . S
H643 C618 0.950 . S
H644 C620 0.950 . S
H645 C621 0.949 . S
H646 C623 0.950 . S
H647 C625 0.950 . S
C648 C649 1.349 . S
C648 C650 1.327 . S
C648 H673 0.950 . S
C649 C648 1.349 . S
C649 C665 1.349 . S
C650 C648 1.327 . S
C650 C669 1.429 . S
C650 H674 0.950 . S
C651 C668 1.574 . S
C651 C670 1.368 . S
C651 H675 0.949 . S
H652 C656 0.949 . S
C653 C654 1.349 . S
C653 C655 1.327 . S
C653 H676 0.950 . S
C654 C653 1.349 . S
C654 C666 1.349 . S
C655 C653 1.327 . S
C655 C671 1.429 . S
C655 H677 0.950 . S
C656 H652 0.949 . S
C656 C664 1.574 . S
C656 C672 1.368 . S
H657 C665 0.950 . S
H658 C663 0.950 . S
H659 C664 0.949 . S
H660 C666 0.950 . S
H661 C667 0.950 . S
H662 C668 0.949 . S
C663 H658 0.950 . S
C663 C665 1.327 . S
C663 C669 1.429 . S
C664 C656 1.574 . S
C664 H659 0.949 . S
C664 C670 1.368 . S
C665 C649 1.349 . S
C665 H657 0.950 . S
C665 C663 1.327 . S
C666 C654 1.349 . S
C666 H660 0.950 . S
C666 C667 1.327 . S
C667 H661 0.950 . S
C667 C666 1.327 . S
C667 C671 1.429 . S
C668 C651 1.574 . S
C668 H662 0.949 . S
C668 C672 1.368 . S
C669 C650 1.429 . S
C669 C663 1.429 . S
C669 C670 1.523 . S
C670 C651 1.368 . S
C670 C664 1.368 . S
C670 C669 1.523 . S
C671 C655 1.429 . S
C671 C667 1.429 . S
C671 C672 1.523 . S
C672 C656 1.368 . S
C672 C668 1.368 . S
C672 C671 1.523 . S
H673 C648 0.950 . S
H674 C650 0.950 . S
H675 C651 0.949 . S
H676 C653 0.950 . S
H677 C655 0.950 . S
C678 C679 1.349 . S
C678 C680 1.327 . S
C678 H703 0.950 . S
C679 C678 1.349 . S
C679 C695 1.349 . S
C680 C678 1.327 . S
C680 C699 1.429 . S
C680 H704 0.950 . S
C681 C698 1.574 . S
C681 C700 1.368 . S
C681 H705 0.949 . S
H682 C686 0.949 . S
C683 C684 1.349 . S
C683 C685 1.327 . S
C683 H706 0.950 . S
C684 C683 1.349 . S
C684 C696 1.349 . S
C685 C683 1.327 . S
C685 C701 1.429 . S
C685 H707 0.950 . S
C686 H682 0.949 . S
C686 C694 1.574 . S
C686 C702 1.368 . S
H687 C695 0.950 . S
H688 C693 0.950 . S
H689 C694 0.949 . S
H690 C696 0.950 . S
H691 C697 0.950 . S
H692 C698 0.949 . S
C693 H688 0.950 . S
C693 C695 1.327 . S
C693 C699 1.429 . S
C694 C686 1.574 . S
C694 H689 0.949 . S
C694 C700 1.368 . S
C695 C679 1.349 . S
C695 H687 0.950 . S
C695 C693 1.327 . S
C696 C684 1.349 . S
C696 H690 0.950 . S
C696 C697 1.327 . S
C697 H691 0.950 . S
C697 C696 1.327 . S
C697 C701 1.429 . S
C698 C681 1.574 . S
C698 H692 0.949 . S
C698 C702 1.368 . S
C699 C680 1.429 . S
C699 C693 1.429 . S
C699 C700 1.523 . S
C700 C681 1.368 . S
C700 C694 1.368 . S
C700 C699 1.523 . S
C701 C685 1.429 . S
C701 C697 1.429 . S
C701 C702 1.523 . S
C702 C686 1.368 . S
C702 C698 1.368 . S
C702 C701 1.523 . S
H703 C678 0.950 . S
H704 C680 0.950 . S
H705 C681 0.949 . S
H706 C683 0.950 . S
H707 C685 0.950 . S
C708 C709 1.349 . S
C708 C710 1.327 . S
C708 H733 0.950 . S
C709 C708 1.349 . S
C709 C725 1.349 . S
C710 C708 1.327 . S
C710 C729 1.429 . S
C710 H734 0.950 . S
C711 C728 1.574 . S
C711 C730 1.368 . S
C711 H735 0.949 . S
H712 C716 0.949 . S
C713 C714 1.349 . S
C713 C715 1.327 . S
C713 H736 0.950 . S
C714 C713 1.349 . S
C714 C726 1.349 . S
C715 C713 1.327 . S
C715 C731 1.429 . S
C715 H737 0.950 . S
C716 H712 0.949 . S
C716 C724 1.574 . S
C716 C732 1.368 . S
H717 C725 0.950 . S
H718 C723 0.950 . S
H719 C724 0.949 . S
H720 C726 0.950 . S
H721 C727 0.950 . S
H722 C728 0.949 . S
C723 H718 0.950 . S
C723 C725 1.327 . S
C723 C729 1.429 . S
C724 C716 1.574 . S
C724 H719 0.949 . S
C724 C730 1.368 . S
C725 C709 1.349 . S
C725 H717 0.950 . S
C725 C723 1.327 . S
C726 C714 1.349 . S
C726 H720 0.950 . S
C726 C727 1.327 . S
C727 H721 0.950 . S
C727 C726 1.327 . S
C727 C731 1.429 . S
C728 C711 1.574 . S
C728 H722 0.949 . S
C728 C732 1.368 . S
C729 C710 1.429 . S
C729 C723 1.429 . S
C729 C730 1.523 . S
C730 C711 1.368 . S
C730 C724 1.368 . S
C730 C729 1.523 . S
C731 C715 1.429 . S
C731 C727 1.429 . S
C731 C732 1.523 . S
C732 C716 1.368 . S
C732 C728 1.368 . S
C732 C731 1.523 . S
H733 C708 0.950 . S
H734 C710 0.950 . S
H735 C711 0.949 . S
H736 C713 0.950 . S
H737 C715 0.950 . S
C738 C739 1.349 . S
C738 C740 1.327 . S
C738 H763 0.950 . S
C739 C738 1.349 . S
C739 C755 1.349 . S
C740 C738 1.327 . S
C740 C759 1.429 . S
C740 H764 0.950 . S
C741 C758 1.574 . S
C741 C760 1.368 . S
C741 H765 0.949 . S
H742 C746 0.949 . S
C743 C744 1.349 . S
C743 C745 1.327 . S
C743 H766 0.950 . S
C744 C743 1.349 . S
C744 C756 1.349 . S
C745 C743 1.327 . S
C745 C761 1.429 . S
C745 H767 0.950 . S
C746 H742 0.949 . S
C746 C754 1.574 . S
C746 C762 1.368 . S
H747 C755 0.950 . S
H748 C753 0.950 . S
H749 C754 0.949 . S
H750 C756 0.950 . S
H751 C757 0.950 . S
H752 C758 0.949 . S
C753 H748 0.950 . S
C753 C755 1.327 . S
C753 C759 1.429 . S
C754 C746 1.574 . S
C754 H749 0.949 . S
C754 C760 1.368 . S
C755 C739 1.349 . S
C755 H747 0.950 . S
C755 C753 1.327 . S
C756 C744 1.349 . S
C756 H750 0.950 . S
C756 C757 1.327 . S
C757 H751 0.950 . S
C757 C756 1.327 . S
C757 C761 1.429 . S
C758 C741 1.574 . S
C758 H752 0.949 . S
C758 C762 1.368 . S
C759 C740 1.429 . S
C759 C753 1.429 . S
C759 C760 1.523 . S
C760 C741 1.368 . S
C760 C754 1.368 . S
C760 C759 1.523 . S
C761 C745 1.429 . S
C761 C757 1.429 . S
C761 C762 1.523 . S
C762 C746 1.368 . S
C762 C758 1.368 . S
C762 C761 1.523 . S
H763 C738 0.950 . S
H764 C740 0.950 . S
H765 C741 0.949 . S
H766 C743 0.950 . S
H767 C745 0.950 . S
C768 C769 1.349 . S
C768 C770 1.327 . S
C768 H793 0.950 . S
C769 C768 1.349 . S
C769 C785 1.349 . S
C770 C768 1.327 . S
C770 C789 1.429 . S
C770 H794 0.950 . S
C771 C788 1.574 . S
C771 C790 1.368 . S
C771 H795 0.949 . S
H772 C776 0.949 . S
C773 C774 1.349 . S
C773 C775 1.327 . S
C773 H796 0.950 . S
C774 C773 1.349 . S
C774 C786 1.349 . S
C775 C773 1.327 . S
C775 C791 1.429 . S
C775 H797 0.950 . S
C776 H772 0.949 . S
C776 C784 1.574 . S
C776 C792 1.368 . S
H777 C785 0.950 . S
H778 C783 0.950 . S
H779 C784 0.949 1_565 S
H780 C786 0.950 . S
H781 C787 0.950 . S
H782 C788 0.949 . S
C783 H778 0.950 . S
C783 C785 1.327 1_545 S
C783 C789 1.429 1_545 S
C784 C776 1.574 . S
C784 H779 0.949 1_545 S
C784 C790 1.368 . S
C785 C769 1.349 . S
C785 H777 0.950 . S
C785 C783 1.327 1_565 S
C786 C774 1.349 . S
C786 H780 0.950 . S
C786 C787 1.327 . S
C787 H781 0.950 . S
C787 C786 1.327 . S
C787 C791 1.429 . S
C788 C771 1.574 . S
C788 H782 0.949 . S
C788 C792 1.368 . S
C789 C770 1.429 . S
C789 C783 1.429 1_565 S
C789 C790 1.523 1_565 S
C790 C771 1.368 . S
C790 C784 1.368 . S
C790 C789 1.523 1_545 S
C791 C775 1.429 . S
C791 C787 1.429 . S
C791 C792 1.523 . S
C792 C776 1.368 . S
C792 C788 1.368 . S
C792 C791 1.523 . S
H793 C768 0.950 . S
H794 C770 0.950 . S
H795 C771 0.949 . S
H796 C773 0.950 . S
H797 C775 0.950 . S
C798 C799 1.349 . S
C798 C800 1.327 . S
C798 H823 0.950 . S
C799 C798 1.349 . S
C799 C815 1.349 . S
C800 C798 1.327 . S
C800 C819 1.429 . S
C800 H824 0.950 . S
C801 C818 1.574 . S
C801 C820 1.368 . S
C801 H825 0.949 . S
H802 C806 0.949 . S
C803 C804 1.349 . S
C803 C805 1.327 . S
C803 H826 0.950 . S
C804 C803 1.349 . S
C804 C816 1.349 . S
C805 C803 1.327 . S
C805 C821 1.429 . S
C805 H827 0.950 . S
C806 H802 0.949 . S
C806 C814 1.574 . S
C806 C822 1.368 . S
H807 C815 0.950 . S
H808 C813 0.950 . S
H809 C814 0.949 . S
H810 C816 0.950 . S
H811 C817 0.950 . S
H812 C818 0.949 . S
C813 H808 0.950 . S
C813 C815 1.327 . S
C813 C819 1.429 . S
C814 C806 1.574 . S
C814 H809 0.949 . S
C814 C820 1.368 . S
C815 C799 1.349 . S
C815 H807 0.950 . S
C815 C813 1.327 . S
C816 C804 1.349 . S
C816 H810 0.950 . S
C816 C817 1.327 . S
C817 H811 0.950 . S
C817 C816 1.327 . S
C817 C821 1.429 . S
C818 C801 1.574 . S
C818 H812 0.949 . S
C818 C822 1.368 . S
C819 C800 1.429 . S
C819 C813 1.429 . S
C819 C820 1.523 . S
C820 C801 1.368 . S
C820 C814 1.368 . S
C820 C819 1.523 . S
C821 C805 1.429 . S
C821 C817 1.429 . S
C821 C822 1.523 . S
C822 C806 1.368 . S
C822 C818 1.368 . S
C822 C821 1.523 . S
H823 C798 0.950 . S
H824 C800 0.950 . S
H825 C801 0.949 . S
H826 C803 0.950 . S
H827 C805 0.950 . S
C828 C829 1.349 . S
C828 C830 1.327 . S
C828 H853 0.950 . S
C829 C828 1.349 . S
C829 C845 1.349 . S
C830 C828 1.327 . S
C830 C849 1.429 . S
C830 H854 0.950 . S
C831 C848 1.574 . S
C831 C850 1.368 . S
C831 H855 0.949 . S
H832 C836 0.949 . S
C833 C834 1.349 . S
C833 C835 1.327 . S
C833 H856 0.950 . S
C834 C833 1.349 . S
C834 C846 1.349 . S
C835 C833 1.327 . S
C835 C851 1.429 . S
C835 H857 0.950 . S
C836 H832 0.949 . S
C836 C844 1.574 . S
C836 C852 1.368 . S
H837 C845 0.950 . S
H838 C843 0.950 . S
H839 C844 0.949 . S
H840 C846 0.950 . S
H841 C847 0.950 . S
H842 C848 0.949 1_455 S
C843 H838 0.950 . S
C843 C845 1.327 . S
C843 C849 1.429 . S
C844 C836 1.574 . S
C844 H839 0.949 . S
C844 C850 1.368 . S
C845 C829 1.349 . S
C845 H837 0.950 . S
C845 C843 1.327 . S
C846 C834 1.349 . S
C846 H840 0.950 . S
C846 C847 1.327 1_455 S
C847 H841 0.950 . S
C847 C846 1.327 1_655 S
C847 C851 1.429 1_655 S
C848 C831 1.574 . S
C848 H842 0.949 1_655 S
C848 C852 1.368 . S
C849 C830 1.429 . S
C849 C843 1.429 . S
C849 C850 1.523 . S
C850 C831 1.368 . S
C850 C844 1.368 . S
C850 C849 1.523 . S
C851 C835 1.429 . S
C851 C847 1.429 1_455 S
C851 C852 1.523 1_455 S
C852 C836 1.368 . S
C852 C848 1.368 . S
C852 C851 1.523 1_655 S
H853 C828 0.950 . S
H854 C830 0.950 . S
H855 C831 0.949 . S
H856 C833 0.950 . S
H857 C835 0.950 . S
C858 C859 1.349 . S
C858 C860 1.327 . S
C858 H883 0.950 . S
C859 C858 1.349 . S
C859 C875 1.349 . S
C860 C858 1.327 . S
C860 C879 1.429 . S
C860 H884 0.950 . S
C861 C878 1.574 . S
C861 C880 1.368 . S
C861 H885 0.949 . S
H862 C866 0.949 . S
C863 C864 1.349 . S
C863 C865 1.327 . S
C863 H886 0.950 . S
C864 C863 1.349 . S
C864 C876 1.349 . S
C865 C863 1.327 . S
C865 C881 1.429 . S
C865 H887 0.950 . S
C866 H862 0.949 . S
C866 C874 1.574 . S
C866 C882 1.368 . S
H867 C875 0.950 1_565 S
H868 C873 0.950 . S
H869 C874 0.949 1_545 S
H870 C876 0.950 . S
H871 C877 0.950 . S
H872 C878 0.949 . S
C873 H868 0.950 . S
C873 C875 1.327 1_565 S
C873 C879 1.429 1_565 S
C874 C866 1.574 . S
C874 H869 0.949 1_565 S
C874 C880 1.368 . S
C875 C859 1.349 . S
C875 H867 0.950 1_545 S
C875 C873 1.327 1_545 S
C876 C864 1.349 . S
C876 H870 0.950 . S
C876 C877 1.327 . S
C877 H871 0.950 . S
C877 C876 1.327 . S
C877 C881 1.429 . S
C878 C861 1.574 . S
C878 H872 0.949 . S
C878 C882 1.368 . S
C879 C860 1.429 . S
C879 C873 1.429 1_545 S
C879 C880 1.523 1_545 S
C880 C861 1.368 . S
C880 C874 1.368 . S
C880 C879 1.523 1_565 S
C881 C865 1.429 . S
C881 C877 1.429 . S
C881 C882 1.523 . S
C882 C866 1.368 . S
C882 C878 1.368 . S
C882 C881 1.523 . S
H883 C858 0.950 . S
H884 C860 0.950 . S
H885 C861 0.949 . S
H886 C863 0.950 . S
H887 C865 0.950 . S
C888 C889 1.349 . S
C888 C890 1.327 . S
C888 H913 0.950 . S
C889 C888 1.349 . S
C889 C905 1.349 . S
C890 C888 1.327 . S
C890 C909 1.429 . S
C890 H914 0.950 . S
C891 C908 1.537 1_556 S
C891 C910 1.368 . S
C891 H915 0.949 . S
H892 C896 0.949 . S
C893 C894 1.349 . S
C893 C895 1.327 . S
C893 H916 0.950 . S
C894 C893 1.349 . S
C894 C906 1.349 . S
C895 C893 1.327 . S
C895 C911 1.429 . S
C895 H917 0.950 . S
C896 H892 0.949 . S
C896 C904 1.574 1_554 S
C896 C912 1.368 . S
H897 C905 0.950 . S
H898 C903 0.950 . S
H899 C904 0.949 . S
H900 C906 0.950 . S
H901 C907 0.950 . S
H902 C908 0.956 . S
C903 H898 0.950 . S
C903 C905 1.327 . S
C903 C909 1.429 . S
C904 C896 1.574 1_556 S
C904 H899 0.949 . S
C904 C910 1.368 . S
C905 C889 1.349 . S
C905 H897 0.950 . S
C905 C903 1.327 . S
C906 C894 1.349 . S
C906 H900 0.950 . S
C906 C907 1.327 . S
C907 H901 0.950 . S
C907 C906 1.327 . S
C907 C911 1.429 . S
C908 C891 1.537 1_554 S
C908 H902 0.956 . S
C908 C912 1.399 . S
C909 C890 1.429 . S
C909 C903 1.429 . S
C909 C910 1.523 . S
C910 C891 1.368 . S
C910 C904 1.368 . S
C910 C909 1.523 . S
C911 C895 1.429 . S
C911 C907 1.429 . S
C911 C912 1.523 . S
C912 C896 1.368 . S
C912 C908 1.399 . S
C912 C911 1.523 . S
H913 C888 0.950 . S
H914 C890 0.950 . S
H915 C891 0.949 . S
H916 C893 0.950 . S
H917 C895 0.950 . S
C918 C919 1.349 . S
C918 C920 1.327 1_655 S
C918 H943 0.950 1_655 S
C919 C918 1.349 . S
C919 C935 1.349 . S
C920 C918 1.327 1_455 S
C920 C939 1.429 1_455 S
C920 H944 0.950 . S
C921 C938 1.574 . S
C921 C940 1.368 . S
C921 H945 0.949 1_455 S
H922 C926 0.949 . S
C923 C924 1.349 . S
C923 C925 1.327 . S
C923 H946 0.950 . S
C924 C923 1.349 . S
C924 C936 1.349 . S
C925 C923 1.327 . S
C925 C941 1.429 . S
C925 H947 0.950 . S
C926 H922 0.949 . S
C926 C934 1.574 . S
C926 C942 1.368 . S
H927 C935 0.950 . S
H928 C933 0.950 . S
H929 C934 0.949 . S
H930 C936 0.950 . S
H931 C937 0.950 . S
H932 C938 0.949 . S
C933 H928 0.950 . S
C933 C935 1.327 . S
C933 C939 1.429 . S
C934 C926 1.574 . S
C934 H929 0.949 . S
C934 C940 1.368 . S
C935 C919 1.349 . S
C935 H927 0.950 . S
C935 C933 1.327 . S
C936 C924 1.349 . S
C936 H930 0.950 . S
C936 C937 1.327 . S
C937 H931 0.950 . S
C937 C936 1.327 . S
C937 C941 1.429 . S
C938 C921 1.574 . S
C938 H932 0.949 . S
C938 C942 1.368 . S
C939 C920 1.429 1_655 S
C939 C933 1.429 . S
C939 C940 1.523 1_655 S
C940 C921 1.368 . S
C940 C934 1.368 . S
C940 C939 1.523 1_455 S
C941 C925 1.429 . S
C941 C937 1.429 . S
C941 C942 1.523 . S
C942 C926 1.368 . S
C942 C938 1.368 . S
C942 C941 1.523 . S
H943 C918 0.950 1_455 S
H944 C920 0.950 . S
H945 C921 0.949 1_655 S
H946 C923 0.950 . S
H947 C925 0.950 . S
C948 C949 1.349 . S
C948 C950 1.327 . S
C948 H973 0.950 . S
C949 C948 1.349 . S
C949 C965 1.349 . S
C950 C948 1.327 . S
C950 C969 1.429 . S
C950 H974 0.950 . S
C951 C968 1.574 . S
C951 C970 1.368 . S
C951 H975 0.949 . S
H952 C956 0.949 . S
C953 C954 1.349 . S
C953 C955 1.327 . S
C953 H976 0.950 . S
C954 C953 1.349 . S
C954 C966 1.349 . S
C955 C953 1.327 . S
C955 C971 1.429 . S
C955 H977 0.950 . S
C956 H952 0.949 . S
C956 C964 1.574 . S
C956 C972 1.368 . S
H957 C965 0.948 1_655 S
H958 C963 0.950 . S
H959 C964 0.949 1_455 S
H960 C966 0.950 . S
H961 C967 0.950 . S
H962 C968 0.949 . S
C963 H958 0.950 . S
C963 C965 1.327 1_655 S
C963 C969 1.429 1_655 S
C964 C956 1.574 . S
C964 H959 0.949 1_655 S
C964 C970 1.368 . S
C965 C949 1.349 . S
C965 H957 0.948 1_455 S
C965 C963 1.327 1_455 S
C966 C954 1.349 . S
C966 H960 0.950 . S
C966 C967 1.327 . S
C967 H961 0.950 . S
C967 C966 1.327 . S
C967 C971 1.429 . S
C968 C951 1.574 . S
C968 H962 0.949 . S
C968 C972 1.368 . S
C969 C950 1.429 . S
C969 C963 1.429 1_455 S
C969 C970 1.523 1_455 S
C970 C951 1.368 . S
C970 C964 1.368 . S
C970 C969 1.523 1_655 S
C971 C955 1.429 . S
C971 C967 1.429 . S
C971 C972 1.523 . S
C972 C956 1.368 . S
C972 C968 1.368 . S
C972 C971 1.523 . S
H973 C948 0.950 . S
H974 C950 0.950 . S
H975 C951 0.949 . S
H976 C953 0.950 . S
H977 C955 0.950 . S
C978 C979 1.349 . S
C978 C980 1.327 . S
C978 H1003 0.950 . S
C979 C978 1.349 . S
C979 C995 1.349 . S
C980 C978 1.327 . S
C980 C999 1.429 . S
C980 H1004 0.950 . S
C981 C998 1.574 . S
C981 C1000 1.368 . S
C981 H1005 0.949 . S
H982 C986 0.949 1_545 S
C983 C984 1.349 . S
C983 C985 1.327 1_545 S
C983 H1006 0.950 . S
C984 C983 1.349 . S
C984 C996 1.349 . S
C985 C983 1.327 1_565 S
C985 C1001 1.429 1_565 S
C985 H1007 0.950 . S
C986 H982 0.949 1_565 S
C986 C994 1.574 . S
C986 C1002 1.368 . S
H987 C995 0.950 . S
H988 C993 0.950 . S
H989 C994 0.949 . S
H990 C996 0.950 . S
H991 C997 0.950 . S
H992 C998 0.949 . S
C993 H988 0.950 . S
C993 C995 1.327 . S
C993 C999 1.429 . S
C994 C986 1.574 . S
C994 H989 0.949 . S
C994 C1000 1.368 . S
C995 C979 1.349 . S
C995 H987 0.950 . S
C995 C993 1.327 . S
C996 C984 1.349 . S
C996 H990 0.950 . S
C996 C997 1.327 . S
C997 H991 0.950 . S
C997 C996 1.327 . S
C997 C1001 1.429 . S
C998 C981 1.574 . S
C998 H992 0.949 . S
C998 C1002 1.368 . S
C999 C980 1.429 . S
C999 C993 1.429 . S
C999 C1000 1.523 . S
C1000 C981 1.368 . S
C1000 C994 1.368 . S
C1000 C999 1.523 . S
C1001 C985 1.429 1_545 S
C1001 C997 1.429 . S
C1001 C1002 1.523 1_545 S
C1002 C986 1.368 . S
C1002 C998 1.368 . S
C1002 C1001 1.523 1_565 S
H1003 C978 0.950 . S
H1004 C980 0.950 . S
H1005 C981 0.949 . S
H1006 C983 0.950 . S
H1007 C985 0.950 . S
C1008 C1009 1.349 . S
C1008 C1010 1.327 . S
C1008 H1033 0.950 . S
C1009 C1008 1.349 . S
C1009 C1025 1.349 . S
C1010 C1008 1.327 . S
C1010 C1029 1.429 . S
C1010 H1034 0.950 . S
C1011 C1028 1.574 . S
C1011 C1030 1.368 . S
C1011 H1035 0.949 . S
H1012 C1016 0.949 . S
C1013 C1014 1.349 . S
C1013 C1015 1.327 . S
C1013 H1036 0.950 . S
C1014 C1013 1.349 . S
C1014 C1026 1.349 . S
C1015 C1013 1.327 . S
C1015 C1031 1.429 . S
C1015 H1037 0.950 . S
C1016 H1012 0.949 . S
C1016 C1024 1.574 . S
C1016 C1032 1.368 . S
H1017 C1025 0.950 . S
H1018 C1023 0.950 . S
H1019 C1024 0.949 . S
H1020 C1026 0.950 . S
H1021 C1027 0.950 . S
H1022 C1028 0.949 . S
C1023 H1018 0.950 . S
C1023 C1025 1.327 . S
C1023 C1029 1.429 . S
C1024 C1016 1.574 . S
C1024 H1019 0.949 . S
C1024 C1030 1.368 . S
C1025 C1009 1.349 . S
C1025 H1017 0.950 . S
C1025 C1023 1.327 . S
C1026 C1014 1.349 . S
C1026 H1020 0.950 . S
C1026 C1027 1.327 . S
C1027 H1021 0.950 . S
C1027 C1026 1.327 . S
C1027 C1031 1.429 . S
C1028 C1011 1.574 . S
C1028 H1022 0.949 . S
C1028 C1032 1.368 . S
C1029 C1010 1.429 . S
C1029 C1023 1.429 . S
C1029 C1030 1.523 . S
C1030 C1011 1.368 . S
C1030 C1024 1.368 . S
C1030 C1029 1.523 . S
C1031 C1015 1.429 . S
C1031 C1027 1.429 . S
C1031 C1032 1.523 . S
C1032 C1016 1.368 . S
C1032 C1028 1.368 . S
C1032 C1031 1.523 . S
H1033 C1008 0.950 . S
H1034 C1010 0.950 . S
H1035 C1011 0.949 . S
H1036 C1013 0.950 . S
H1037 C1015 0.950 . S
C1038 C1039 1.349 . S
C1038 C1040 1.327 1_655 S
C1038 H1063 0.950 1_655 S
C1039 C1038 1.349 . S
C1039 C1055 1.349 . S
C1040 C1038 1.327 1_455 S
C1040 C1059 1.429 1_455 S
C1040 H1064 0.950 . S
C1041 C1058 1.549 1_554 S
C1041 C1060 1.393 . S
C1041 H1065 0.949 1_455 S
H1042 C1046 0.949 . S
C1043 C1044 1.349 . S
C1043 C1045 1.327 . S
C1043 H1066 0.950 . S
C1044 C1043 1.349 . S
C1044 C1056 1.349 . S
C1045 C1043 1.327 . S
C1045 C1061 1.429 . S
C1045 H1067 0.950 . S
C1046 H1042 0.949 . S
C1046 C1054 1.574 . S
C1046 C1062 1.368 1_554 S
H1047 C1055 0.950 . S
H1048 C1053 0.950 . S
H1049 C1054 0.949 . S
H1050 C1056 0.950 . S
H1051 C1057 0.950 . S
H1052 C1058 0.949 . S
C1053 H1048 0.950 . S
C1053 C1055 1.327 . S
C1053 C1059 1.429 . S
C1054 C1046 1.574 . S
C1054 H1049 0.949 . S
C1054 C1060 1.368 . S
C1055 C1039 1.349 . S
C1055 H1047 0.950 . S
C1055 C1053 1.327 . S
C1056 C1044 1.349 . S
C1056 H1050 0.950 . S
C1056 C1057 1.327 . S
C1057 H1051 0.950 . S
C1057 C1056 1.327 . S
C1057 C1061 1.429 . S
C1058 C1041 1.549 1_556 S
C1058 H1052 0.949 . S
C1058 C1062 1.368 . S
C1059 C1040 1.429 1_655 S
C1059 C1053 1.429 . S
C1059 C1060 1.523 1_655 S
C1060 C1041 1.393 . S
C1060 C1054 1.368 . S
C1060 C1059 1.523 1_455 S
C1061 C1045 1.429 . S
C1061 C1057 1.429 . S
C1061 C1062 1.523 . S
C1062 C1046 1.368 1_556 S
C1062 C1058 1.368 . S
C1062 C1061 1.523 . S
H1063 C1038 0.950 1_455 S
H1064 C1040 0.950 . S
H1065 C1041 0.949 1_655 S
H1066 C1043 0.950 . S
H1067 C1045 0.950 . S
C1068 C1069 1.349 . S
C1068 C1070 1.327 . S
C1068 H1093 0.950 . S
C1069 C1068 1.349 . S
C1069 C1085 1.349 . S
C1070 C1068 1.327 . S
C1070 C1089 1.429 . S
C1070 H1094 0.950 . S
C1071 C1088 1.574 . S
C1071 C1090 1.368 . S
C1071 H1095 0.949 . S
H1072 C1076 0.949 . S
C1073 C1074 1.349 . S
C1073 C1075 1.327 . S
C1073 H1096 0.950 . S
C1074 C1073 1.349 . S
C1074 C1086 1.349 . S
C1075 C1073 1.327 . S
C1075 C1091 1.429 . S
C1075 H1097 0.950 . S
C1076 H1072 0.949 . S
C1076 C1084 1.574 . S
C1076 C1092 1.368 . S
H1077 C1085 0.950 . S
H1078 C1083 0.950 . S
H1079 C1084 0.949 . S
H1080 C1086 0.950 . S
H1081 C1087 0.950 . S
H1082 C1088 0.949 . S
C1083 H1078 0.950 . S
C1083 C1085 1.327 . S
C1083 C1089 1.429 . S
C1084 C1076 1.574 . S
C1084 H1079 0.949 . S
C1084 C1090 1.368 . S
C1085 C1069 1.349 . S
C1085 H1077 0.950 . S
C1085 C1083 1.327 . S
C1086 C1074 1.349 . S
C1086 H1080 0.950 . S
C1086 C1087 1.327 . S
C1087 H1081 0.950 . S
C1087 C1086 1.327 . S
C1087 C1091 1.429 . S
C1088 C1071 1.574 . S
C1088 H1082 0.949 . S
C1088 C1092 1.368 . S
C1089 C1070 1.429 . S
C1089 C1083 1.429 . S
C1089 C1090 1.523 1_565 S
C1090 C1071 1.368 . S
C1090 C1084 1.368 . S
C1090 C1089 1.523 1_545 S
C1091 C1075 1.429 . S
C1091 C1087 1.429 . S
C1091 C1092 1.523 . S
C1092 C1076 1.368 . S
C1092 C1088 1.368 . S
C1092 C1091 1.523 . S
H1093 C1068 0.950 . S
H1094 C1070 0.950 . S
H1095 C1071 0.949 . S
H1096 C1073 0.950 . S
H1097 C1075 0.950 . S
C1098 C1099 1.349 . S
C1098 C1100 1.327 . S
C1098 H1123 0.950 . S
C1099 C1098 1.349 . S
C1099 C1115 1.349 . S
C1100 C1098 1.327 . S
C1100 C1119 1.429 . S
C1100 H1124 0.950 . S
C1101 C1118 1.574 . S
C1101 C1120 1.368 . S
C1101 H1125 0.949 . S
H1102 C1106 0.949 . S
C1103 C1104 1.349 . S
C1103 C1105 1.327 . S
C1103 H1126 0.950 . S
C1104 C1103 1.349 . S
C1104 C1116 1.349 . S
C1105 C1103 1.327 . S
C1105 C1121 1.429 . S
C1105 H1127 0.950 . S
C1106 H1102 0.949 . S
C1106 C1114 1.574 . S
C1106 C1122 1.368 . S
H1107 C1115 0.950 . S
H1108 C1113 0.950 . S
H1109 C1114 0.949 . S
H1110 C1116 0.950 . S
H1111 C1117 0.950 . S
H1112 C1118 0.949 . S
C1113 H1108 0.950 . S
C1113 C1115 1.327 . S
C1113 C1119 1.429 . S
C1114 C1106 1.574 . S
C1114 H1109 0.949 . S
C1114 C1120 1.368 . S
C1115 C1099 1.349 . S
C1115 H1107 0.950 . S
C1115 C1113 1.327 . S
C1116 C1104 1.349 . S
C1116 H1110 0.950 . S
C1116 C1117 1.327 . S
C1117 H1111 0.950 . S
C1117 C1116 1.327 . S
C1117 C1121 1.429 . S
C1118 C1101 1.574 . S
C1118 H1112 0.949 . S
C1118 C1122 1.368 . S
C1119 C1100 1.429 . S
C1119 C1113 1.429 . S
C1119 C1120 1.523 . S
C1120 C1101 1.368 . S
C1120 C1114 1.368 . S
C1120 C1119 1.523 . S
C1121 C1105 1.429 . S
C1121 C1117 1.429 . S
C1121 C1122 1.523 . S
C1122 C1106 1.368 . S
C1122 C1118 1.368 . S
C1122 C1121 1.523 . S
H1123 C1098 0.950 . S
H1124 C1100 0.950 . S
H1125 C1101 0.949 . S
H1126 C1103 0.950 . S
H1127 C1105 0.950 . S
C1128 C1129 1.349 . S
C1128 C1130 1.327 . S
C1128 H1153 0.950 . S
C1129 C1128 1.349 . S
C1129 C1145 1.349 . S
C1130 C1128 1.327 . S
C1130 C1149 1.429 . S
C1130 H1154 0.950 . S
C1131 C1148 1.574 . S
C1131 C1150 1.368 1_565 S
C1131 H1155 0.949 . S
H1132 C1136 0.949 . S
C1133 C1134 1.349 . S
C1133 C1135 1.327 . S
C1133 H1156 0.950 . S
C1134 C1133 1.349 . S
C1134 C1146 1.349 . S
C1135 C1133 1.327 . S
C1135 C1151 1.429 . S
C1135 H1157 0.950 . S
C1136 H1132 0.949 . S
C1136 C1144 1.574 . S
C1136 C1152 1.368 1_545 S
H1137 C1145 0.950 . S
H1138 C1143 0.950 . S
H1139 C1144 0.949 . S
H1140 C1146 0.950 . S
H1141 C1147 0.950 . S
H1142 C1148 0.949 . S
C1143 H1138 0.950 . S
C1143 C1145 1.327 . S
C1143 C1149 1.429 . S
C1144 C1136 1.574 . S
C1144 H1139 0.949 . S
C1144 C1150 1.368 . S
C1145 C1129 1.349 . S
C1145 H1137 0.950 . S
C1145 C1143 1.327 . S
C1146 C1134 1.349 . S
C1146 H1140 0.950 . S
C1146 C1147 1.327 . S
C1147 H1141 0.950 . S
C1147 C1146 1.327 . S
C1147 C1151 1.429 . S
C1148 C1131 1.574 . S
C1148 H1142 0.949 . S
C1148 C1152 1.368 . S
C1149 C1130 1.429 . S
C1149 C1143 1.429 . S
C1149 C1150 1.523 . S
C1150 C1131 1.368 1_545 S
C1150 C1144 1.368 . S
C1150 C1149 1.523 . S
C1151 C1135 1.429 . S
C1151 C1147 1.429 . S
C1151 C1152 1.523 . S
C1152 C1136 1.368 1_565 S
C1152 C1148 1.368 . S
C1152 C1151 1.523 . S
H1153 C1128 0.950 . S
H1154 C1130 0.950 . S
H1155 C1131 0.949 . S
H1156 C1133 0.950 . S
H1157 C1135 0.950 . S
C1158 C1159 1.349 . S
C1158 C1160 1.327 . S
C1158 H1183 0.950 . S
C1159 C1158 1.349 . S
C1159 C1175 1.349 . S
C1160 C1158 1.327 . S
C1160 C1179 1.429 . S
C1160 H1184 0.950 . S
C1161 C1178 1.574 . S
C1161 C1180 1.368 . S
C1161 H1185 0.949 . S
H1162 C1166 0.949 . S
C1163 C1164 1.349 . S
C1163 C1165 1.327 . S
C1163 H1186 0.950 . S
C1164 C1163 1.349 . S
C1164 C1176 1.349 . S
C1165 C1163 1.327 . S
C1165 C1181 1.429 . S
C1165 H1187 0.950 . S
C1166 H1162 0.949 . S
C1166 C1174 1.574 . S
C1166 C1182 1.368 . S
H1167 C1175 0.950 . S
H1168 C1173 0.950 . S
H1169 C1174 0.949 . S
H1170 C1176 0.950 . S
H1171 C1177 0.950 . S
H1172 C1178 0.949 . S
C1173 H1168 0.950 . S
C1173 C1175 1.327 . S
C1173 C1179 1.429 . S
C1174 C1166 1.574 . S
C1174 H1169 0.949 . S
C1174 C1180 1.368 . S
C1175 C1159 1.349 . S
C1175 H1167 0.950 . S
C1175 C1173 1.327 . S
C1176 C1164 1.349 . S
C1176 H1170 0.950 . S
C1176 C1177 1.327 . S
C1177 H1171 0.950 . S
C1177 C1176 1.327 . S
C1177 C1181 1.429 . S
C1178 C1161 1.574 . S
C1178 H1172 0.949 . S
C1178 C1182 1.368 . S
C1179 C1160 1.429 . S
C1179 C1173 1.429 . S
C1179 C1180 1.523 . S
C1180 C1161 1.368 . S
C1180 C1174 1.368 . S
C1180 C1179 1.523 . S
C1181 C1165 1.429 . S
C1181 C1177 1.429 . S
C1181 C1182 1.523 . S
C1182 C1166 1.368 . S
C1182 C1178 1.368 . S
C1182 C1181 1.523 . S
H1183 C1158 0.950 . S
H1184 C1160 0.950 . S
H1185 C1161 0.949 . S
H1186 C1163 0.950 . S
H1187 C1165 0.950 . S
C1188 C1189 1.349 . S
C1188 C1190 1.327 . S
C1188 H1213 0.950 . S
C1189 C1188 1.349 . S
C1189 C1205 1.349 . S
C1190 C1188 1.327 . S
C1190 C1209 1.429 . S
C1190 H1214 0.950 . S
C1191 C1208 1.574 1_655 S
C1191 C1210 1.368 . S
C1191 H1215 0.949 . S
H1192 C1196 0.949 . S
C1193 C1194 1.349 . S
C1193 C1195 1.327 . S
C1193 H1216 0.950 . S
C1194 C1193 1.349 . S
C1194 C1206 1.349 . S
C1195 C1193 1.327 . S
C1195 C1211 1.429 . S
C1195 H1217 0.950 . S
C1196 H1192 0.949 . S
C1196 C1204 1.574 1_455 S
C1196 C1212 1.368 . S
H1197 C1205 0.950 . S
H1198 C1203 0.950 . S
H1199 C1204 0.949 . S
H1200 C1206 0.950 . S
H1201 C1207 0.950 . S
H1202 C1208 0.949 . S
C1203 H1198 0.950 . S
C1203 C1205 1.327 . S
C1203 C1209 1.429 . S
C1204 C1196 1.574 1_655 S
C1204 H1199 0.949 . S
C1204 C1210 1.368 . S
C1205 C1189 1.349 . S
C1205 H1197 0.950 . S
C1205 C1203 1.327 . S
C1206 C1194 1.349 . S
C1206 H1200 0.950 . S
C1206 C1207 1.327 . S
C1207 H1201 0.950 . S
C1207 C1206 1.327 . S
C1207 C1211 1.429 . S
C1208 C1191 1.574 1_455 S
C1208 H1202 0.949 . S
C1208 C1212 1.368 . S
C1209 C1190 1.429 . S
C1209 C1203 1.429 . S
C1209 C1210 1.523 . S
C1210 C1191 1.368 . S
C1210 C1204 1.368 . S
C1210 C1209 1.523 . S
C1211 C1195 1.429 . S
C1211 C1207 1.429 . S
C1211 C1212 1.523 . S
C1212 C1196 1.368 . S
C1212 C1208 1.368 . S
C1212 C1211 1.523 . S
H1213 C1188 0.950 . S
H1214 C1190 0.950 . S
H1215 C1191 0.949 . S
H1216 C1193 0.950 . S
H1217 C1195 0.950 . S
C1218 C1219 1.349 . S
C1218 C1220 1.327 . S
C1218 H1243 0.950 . S
C1219 C1218 1.349 . S
C1219 C1235 1.349 . S
C1220 C1218 1.327 . S
C1220 C1239 1.429 . S
C1220 H1244 0.950 . S
C1221 C1238 1.574 . S
C1221 C1240 1.368 1_556 S
C1221 H1245 0.949 . S
H1222 C1226 0.949 . S
C1223 C1224 1.349 . S
C1223 C1225 1.327 . S
C1223 H1246 0.950 . S
C1224 C1223 1.349 . S
C1224 C1236 1.349 . S
C1225 C1223 1.327 . S
C1225 C1241 1.429 . S
C1225 H1247 0.950 . S
C1226 H1222 0.949 . S
C1226 C1234 1.574 . S
C1226 C1242 1.368 1_554 S
H1227 C1235 0.950 . S
H1228 C1233 0.950 . S
H1229 C1234 0.949 . S
H1230 C1236 0.950 . S
H1231 C1237 0.950 . S
H1232 C1238 0.949 . S
C1233 H1228 0.950 . S
C1233 C1235 1.327 . S
C1233 C1239 1.429 . S
C1234 C1226 1.574 . S
C1234 H1229 0.949 . S
C1234 C1240 1.368 1_565 S
C1235 C1219 1.349 . S
C1235 H1227 0.950 . S
C1235 C1233 1.327 . S
C1236 C1224 1.349 . S
C1236 H1230 0.950 . S
C1236 C1237 1.327 . S
C1237 H1231 0.950 . S
C1237 C1236 1.327 . S
C1237 C1241 1.429 . S
C1238 C1221 1.574 . S
C1238 H1232 0.949 . S
C1238 C1242 1.368 1_545 S
C1239 C1220 1.429 . S
C1239 C1233 1.429 . S
C1239 C1240 1.523 . S
C1240 C1221 1.368 1_554 S
C1240 C1234 1.368 1_545 S
C1240 C1239 1.523 . S
C1241 C1225 1.429 . S
C1241 C1237 1.429 . S
C1241 C1242 1.523 . S
C1242 C1226 1.368 1_556 S
C1242 C1238 1.368 1_565 S
C1242 C1241 1.523 . S
H1243 C1218 0.950 . S
H1244 C1220 0.950 . S
H1245 C1221 0.949 . S
H1246 C1223 0.950 . S
H1247 C1225 0.950 . S
C1248 C1249 1.349 . S
C1248 C1250 1.327 . S
C1248 H1273 0.950 . S
C1249 C1248 1.349 . S
C1249 C1265 1.349 . S
C1250 C1248 1.327 . S
C1250 C1269 1.429 . S
C1250 H1274 0.950 . S
C1251 C1268 1.574 . S
C1251 C1270 1.368 . S
C1251 H1275 0.949 . S
H1252 C1256 0.949 . S
C1253 C1254 1.349 . S
C1253 C1255 1.327 . S
C1253 H1276 0.950 . S
C1254 C1253 1.349 . S
C1254 C1266 1.349 . S
C1255 C1253 1.327 . S
C1255 C1271 1.429 . S
C1255 H1277 0.950 . S
C1256 H1252 0.949 . S
C1256 C1264 1.574 . S
C1256 C1272 1.368 . S
H1257 C1265 0.950 . S
H1258 C1263 0.950 . S
H1259 C1264 0.949 . S
H1260 C1266 0.950 . S
H1261 C1267 0.950 . S
H1262 C1268 0.949 . S
C1263 H1258 0.950 . S
C1263 C1265 1.327 . S
C1263 C1269 1.429 . S
C1264 C1256 1.574 . S
C1264 H1259 0.949 . S
C1264 C1270 1.368 . S
C1265 C1249 1.349 . S
C1265 H1257 0.950 . S
C1265 C1263 1.327 . S
C1266 C1254 1.349 . S
C1266 H1260 0.950 . S
C1266 C1267 1.327 . S
C1267 H1261 0.950 . S
C1267 C1266 1.327 . S
C1267 C1271 1.429 . S
C1268 C1251 1.574 . S
C1268 H1262 0.949 . S
C1268 C1272 1.368 . S
C1269 C1250 1.429 . S
C1269 C1263 1.429 . S
C1269 C1270 1.523 . S
C1270 C1251 1.368 . S
C1270 C1264 1.368 . S
C1270 C1269 1.523 . S
C1271 C1255 1.429 . S
C1271 C1267 1.429 . S
C1271 C1272 1.523 . S
C1272 C1256 1.368 . S
C1272 C1268 1.368 . S
C1272 C1271 1.523 . S
H1273 C1248 0.950 . S
H1274 C1250 0.950 . S
H1275 C1251 0.949 . S
H1276 C1253 0.950 . S
H1277 C1255 0.950 . S
C1278 C1279 1.349 . S
C1278 C1280 1.327 . S
C1278 H1303 0.950 . S
C1279 C1278 1.349 . S
C1279 C1295 1.349 . S
C1280 C1278 1.327 . S
C1280 C1299 1.429 . S
C1280 H1304 0.950 . S
C1281 C1298 1.574 . S
C1281 C1300 1.368 . S
C1281 H1305 0.949 . S
H1282 C1286 0.949 . S
C1283 C1284 1.349 . S
C1283 C1285 1.327 . S
C1283 H1306 0.950 . S
C1284 C1283 1.349 . S
C1284 C1296 1.349 . S
C1285 C1283 1.327 . S
C1285 C1301 1.429 . S
C1285 H1307 0.950 . S
C1286 H1282 0.949 . S
C1286 C1294 1.574 . S
C1286 C1302 1.368 . S
H1287 C1295 0.950 . S
H1288 C1293 0.950 . S
H1289 C1294 0.949 . S
H1290 C1296 0.950 . S
H1291 C1297 0.950 . S
H1292 C1298 0.949 . S
C1293 H1288 0.950 . S
C1293 C1295 1.327 . S
C1293 C1299 1.429 . S
C1294 C1286 1.574 . S
C1294 H1289 0.949 . S
C1294 C1300 1.368 1_455 S
C1295 C1279 1.349 . S
C1295 H1287 0.950 . S
C1295 C1293 1.327 . S
C1296 C1284 1.349 . S
C1296 H1290 0.950 . S
C1296 C1297 1.327 . S
C1297 H1291 0.950 . S
C1297 C1296 1.327 . S
C1297 C1301 1.429 . S
C1298 C1281 1.574 . S
C1298 H1292 0.949 . S
C1298 C1302 1.368 1_655 S
C1299 C1280 1.429 . S
C1299 C1293 1.429 . S
C1299 C1300 1.523 . S
C1300 C1281 1.368 . S
C1300 C1294 1.368 1_655 S
C1300 C1299 1.523 . S
C1301 C1285 1.429 . S
C1301 C1297 1.429 . S
C1301 C1302 1.523 . S
C1302 C1286 1.368 . S
C1302 C1298 1.368 1_455 S
C1302 C1301 1.523 . S
H1303 C1278 0.950 . S
H1304 C1280 0.950 . S
H1305 C1281 0.949 . S
H1306 C1283 0.950 . S
H1307 C1285 0.950 . S
C409 C5 0.338 . S
C414 C209 0.338 . S
C439 C243 0.338 . S
C444 C39 0.338 . S
C469 C73 0.338 . S
C474 C277 0.338 . S
C499 C107 0.338 . S
C504 C311 0.338 . S
C529 C141 0.338 . S
C534 C345 0.338 . S
C559 C175 0.338 . S
C564 C379 0.338 . S
C589 C213 1.193 . S
C594 C9 1.193 . S
C619 C43 1.193 . S
C624 C247 1.193 . S
C649 C281 1.193 . S
C654 C77 1.193 . S
C679 C315 1.193 . S
C684 C111 1.193 . S
C709 C349 1.193 . S
C714 C145 1.193 . S
C739 C179 1.193 . S
C744 C383 1.193 . S
C769 C172 1.388 . S
C774 C20 1.368 . S
C799 C2 1.388 . S
C804 C54 1.368 . S
C829 C88 1.368 . S
C834 C36 1.387 . S
C859 C70 1.387 . S
C864 C122 1.367 . S
C889 C104 1.387 . S
C894 C156 1.367 . S
C919 C138 1.388 . S
C924 C190 1.368 . S
C949 C240 1.387 . S
C954 C224 1.367 . S
C979 C258 1.367 . S
C984 C274 1.387 . S
C1009 C308 1.388 . S
C1014 C292 1.368 . S
C1039 C342 1.388 . S
C1044 C326 1.368 . S
C1069 C376 1.387 . S
C1074 C360 1.367 . S
C1099 C206 1.387 . S
C1104 C394 1.367 . S
C1129 C33 1.233 . S
C1134 C271 1.233 . S
C1159 C67 1.233 . S
C1164 C305 1.233 . S
C1189 C101 1.233 . S
C1194 C339 1.233 . S
C1219 C373 1.233 . S
C1224 C135 1.233 . S
C1249 C169 1.233 . S
C1254 C407 1.233 . S
C1279 C237 1.233 . S
C1284 C203 1.233 . S
