# Generated by pormake.
# Topology loh, (5)-cn, num edge types: 1
# Building blocks:
#     Node 0, Type 0, BuildingBlock: BEQFEK_clean_sbu_0, # of connection points: 5
#     Node 1, Type 0, BuildingBlock: BEQFEK_clean_sbu_0, # of connection points: 5
#     Node 2, Type 0, BuildingBlock: BEQFEK_clean_sbu_0, # of connection points: 5
#     Node 3, Type 0, BuildingBlock: BEQFEK_clean_sbu_0, # of connection points: 5
#     Node 4, Type 0, BuildingBlock: BEQFEK_clean_sbu_0, # of connection points: 5
#     Node 5, Type 0, BuildingBlock: BEQFEK_clean_sbu_0, # of connection points: 5
#     Node 6, Type 0, BuildingBlock: BEQFEK_clean_sbu_0, # of connection points: 5
#     Node 7, Type 0, BuildingBlock: BEQFEK_clean_sbu_0, # of connection points: 5
#     Edge 8, Type (0, 0), None
#     Edge 9, Type (0, 0), None
#     Edge 10, Type (0, 0), None
#     Edge 11, Type (0, 0), None
#     Edge 12, Type (0, 0), None
#     Edge 13, Type (0, 0), None
#     Edge 14, Type (0, 0), None
#     Edge 15, Type (0, 0), None
#     Edge 16, Type (0, 0), None
#     Edge 17, Type (0, 0), None
#     Edge 18, Type (0, 0), None
#     Edge 19, Type (0, 0), None
#     Edge 20, Type (0, 0), None
#     Edge 21, Type (0, 0), None
#     Edge 22, Type (0, 0), None
#     Edge 23, Type (0, 0), None
#     Edge 24, Type (0, 0), None
#     Edge 25, Type (0, 0), None
#     Edge 26, Type (0, 0), None
#     Edge 27, Type (0, 0), None
# Relax obj value: 0.229
# Max RMSD: 0.144
# Mean RMSD: 0.144
data_MOF--net-loh--node1-BEQFEK_clean_sbu_0--edge1-none
_symmetry_space_group_name_H-M    P1
_symmetry_Int_Tables_number       1
_symmetry_cell_setting            triclinic
loop_
_symmetry_equiv_pos_as_xyz
'x, y, z'
_cell_length_a     10.577993
_cell_length_b     15.649929
_cell_length_c     21.33104
_cell_angle_alpha  90.001077
_cell_angle_beta   89.311778
_cell_angle_gamma 90.005883
loop_
_atom_site_label
_atom_site_type_symbol
_atom_site_fract_x
_atom_site_fract_y
_atom_site_fract_z
_atom_type_partial_charge
Co0 Co 0.00102 0.43943 0.14572 0.0
Co1 Co -0.00271 0.24956 0.18585 0.0
C2 C 0.8032 0.3057 0.10249 0.0
O3 O 0.86441 0.37478 0.10257 0.0
O4 O 0.83512 0.24596 0.13926 0.0
C5 C 0.82228 0.57325 0.1606 0.0
O6 O 0.78037 0.64152 0.1896 0.0
C7 C 0.94398 0.072 0.23669 0.0
C8 C 0.1337 0.01765 0.24461 0.0
C9 C 0.00816 0.99854 0.25707 0.0
N10 N 0.0276 0.1315 0.21609 0.0
N11 N 0.14096 0.09665 0.21913 0.0
C12 C 0.80408 0.0817 0.23056 0.0
H13 H 0.77288 0.14227 0.25281 0.0
H14 H 0.75261 0.02626 0.25096 0.0
H15 H 0.7808 0.08603 0.18009 0.0
C16 C 0.0648 0.46744 0.27167 0.0
N17 N 0.04342 0.4082 0.22754 0.0
N18 N -8e-05 0.33749 0.25248 0.0
C19 C -0.02195 0.35471 0.31445 0.0
C20 C 0.01953 0.4386 0.32888 0.0
C21 C 0.11338 0.55531 0.25684 0.0
H22 H 0.14249 0.56019 0.20701 0.0
H23 H 0.0403 0.60379 0.26841 0.0
H24 H 0.19868 0.56926 0.28427 0.0
O25 O 0.14699 0.42401 0.09444 0.0
O26 O 0.13858 0.28519 0.12039 0.0
H27 H -0.0186 0.26621 0.39037 0.0
H28 H 0.84083 0.33003 0.38734 0.0
C29 C 0.91138 0.29493 0.35828 0.0
H30 H 0.86396 0.24338 0.33171 0.0
H31 H 0.22388 0.12807 0.20561 0.0
O32 O 0.93877 0.55674 0.16153 0.0
C33 C 0.18804 0.34822 0.08917 0.0
Co34 Co 0.50116 0.69957 0.6209 0.0
Co35 Co 0.48016 0.87848 0.67785 0.0
C36 C 0.68835 0.83242 0.58891 0.0
O37 O 0.63783 0.76043 0.58418 0.0
O38 O 0.64273 0.88863 0.62614 0.0
C39 C 0.67449 0.56494 0.60771 0.0
O40 O 0.76557 0.61603 0.62567 0.0
C41 C 0.53855 0.04331 0.75065 0.0
C42 C 0.35052 0.10242 0.75591 0.0
C43 C 0.47428 0.11544 0.7742 0.0
N44 N 0.4567 0.99098 0.7207 0.0
N45 N 0.3454 0.02888 0.72288 0.0
C46 C 0.67813 0.02869 0.75172 0.0
H47 H 0.72195 0.06214 0.71105 0.0
H48 H 0.69892 0.95964 0.74679 0.0
H49 H 0.72075 0.05533 0.79476 0.0
C50 C 0.46911 0.64024 0.74788 0.0
N51 N 0.47838 0.7058 0.70733 0.0
N52 N 0.48458 0.77907 0.7371 0.0
C53 C 0.48774 0.75978 0.79955 0.0
C54 C 0.47735 0.6705 0.80847 0.0
C55 C 0.45785 0.54867 0.72836 0.0
H56 H 0.41066 0.54362 0.68244 0.0
H57 H 0.55323 0.51929 0.72573 0.0
H58 H 0.40032 0.51221 0.76245 0.0
O59 O 0.34957 0.72408 0.5762 0.0
O60 O 0.3326 0.85715 0.61273 0.0
H61 H 0.40412 0.83094 0.87431 0.0
H62 H 0.56697 0.80431 0.88566 0.0
C63 C 0.49725 0.82484 0.85023 0.0
H64 H 0.52401 0.88731 0.82984 0.0
H65 H 0.2657 1.0034 0.70209 0.0
O66 O 0.56091 0.59031 0.60314 0.0
C67 C 0.29372 0.79561 0.57721 0.0
Co68 Co 0.92462 0.5784 1.03142 0.0
Co69 Co 0.96272 0.72961 0.94888 0.0
C70 C 0.76214 0.72146 1.0332 0.0
O71 O 0.85031 0.68502 1.06107 0.0
O72 O 0.78419 0.7504 0.97877 0.0
C73 C 0.74182 0.52399 0.11916 0.0
O74 O 0.63618 0.48988 0.13983 0.0
C75 C 0.95988 0.87059 0.85599 0.0
C76 C 0.13644 0.93893 0.87811 0.0
C77 C 0.03053 0.94279 0.84083 0.0
N78 N 0.02013 0.82682 0.90092 0.0
N79 N 0.1257 0.86822 0.91387 0.0
C80 C 0.83283 0.84682 0.83187 0.0
H81 H 0.80193 0.78427 0.85117 0.0
H82 H 0.83523 0.84356 0.78001 0.0
H83 H 0.76394 0.89678 0.84604 0.0
C84 C 0.96326 0.48573 0.91176 0.0
N85 N 0.95309 0.5595 0.94384 0.0
N86 N 0.96414 0.62424 0.90496 0.0
C87 C -0.02548 0.59321 0.84596 0.0
C88 C -0.0249 0.50403 0.84845 0.0
C89 C 0.95135 0.39939 0.94133 0.0
H90 H 0.04597 0.37826 0.95699 0.0
H91 H 0.88901 0.40299 0.98314 0.0
H92 H 0.91389 0.35159 0.90792 0.0
O93 O 0.08934 0.58863 0.07013 0.0
O94 O 0.09037 0.71395 1.02009 0.0
H95 H 0.02578 0.61177 0.74883 0.0
H96 H 0.88374 0.66544 0.77475 0.0
C97 C -0.01891 0.64733 0.78831 0.0
H98 H 0.03506 0.70661 0.79777 0.0
H99 H 0.18995 0.84876 0.94774 0.0
O100 O 0.78001 0.50976 1.0633 0.0
C101 C 0.13684 0.66228 1.06078 0.0
Co102 Co 0.55576 0.33527 0.54188 0.0
Co103 Co 0.52243 0.18181 0.45574 0.0
C104 C 0.7375 0.19101 0.54323 0.0
O105 O 0.69358 0.2621 0.56067 0.0
O106 O 0.68486 0.14787 0.4999 0.0
C107 C 0.69607 0.47754 0.59079 0.0
O108 O 0.8075 0.44807 0.5738 0.0
C109 C 0.50536 0.01519 0.37578 0.0
C110 C 0.37294 0.06475 0.30644 0.0
C111 C 0.44224 0.99278 0.32074 0.0
N112 N 0.4739 0.09691 0.392 0.0
N113 N 0.39247 0.12432 0.35024 0.0
C114 C 0.59313 0.95919 0.41156 0.0
H115 H 0.53804 0.90734 0.43446 0.0
H116 H 0.64243 0.99584 0.44833 0.0
H117 H 0.66144 0.92822 0.37893 0.0
C118 C 0.5199 0.43311 0.42719 0.0
N119 N 0.53029 0.35746 0.45637 0.0
N120 N 0.5352 0.29527 0.41518 0.0
C121 C 0.53647 0.33181 0.35693 0.0
C122 C 0.52556 0.4212 0.36279 0.0
C123 C 0.50063 0.51602 0.46107 0.0
H124 H 0.44207 0.50565 0.50387 0.0
H125 H 0.59369 0.54184 0.47481 0.0
H126 H 0.45314 0.56389 0.43114 0.0
O127 O 0.40682 0.30258 0.58536 0.0
O128 O 0.37907 0.19067 0.52369 0.0
H129 H 0.46828 0.27582 0.27258 0.0
H130 H 0.62441 0.3201 0.26609 0.0
C131 C 0.55916 0.28373 0.29734 0.0
H132 H 0.59939 0.21977 0.3073 0.0
H133 H 0.3519 0.18506 0.35078 0.0
O134 O 0.59592 0.43677 0.58045 0.0
C135 C 0.34345 0.23843 0.56975 0.0
Co136 Co 0.43132 0.83526 0.09559 0.0
Co137 Co 0.46461 0.68179 0.18169 0.0
C138 C 0.24955 0.691 0.0942 0.0
O139 O 0.29348 0.76209 0.07678 0.0
O140 O 0.30219 0.64785 0.13753 0.0
C141 C 0.29091 0.97746 1.04673 0.0
O142 O 0.17952 0.94784 1.06364 0.0
C143 C 0.48153 0.51518 0.26164 0.0
C144 C 0.61365 0.56483 0.3311 0.0
C145 C 0.54426 0.4929 0.31681 0.0
N146 N 0.51307 0.59689 0.24542 0.0
N147 N 0.59438 0.62433 0.28724 0.0
C148 C 0.39399 0.45911 0.22576 0.0
H149 H 0.44925 0.40733 0.20289 0.0
H150 H 0.34478 0.49573 0.18895 0.0
H151 H 0.32562 0.42805 0.25832 0.0
C152 C 0.46688 0.93311 0.21031 0.0
N153 N 0.45671 0.85745 0.18111 0.0
N154 N 0.4518 0.79523 0.22228 0.0
C155 C 0.45034 0.83175 0.28054 0.0
C156 C 0.46095 0.92115 0.2747 0.0
C157 C 0.48612 0.01604 0.17648 0.0
H158 H 0.54473 1.00574 0.13369 0.0
H159 H 0.39305 0.04183 0.16273 0.0
H160 H 0.53354 0.06391 0.20644 0.0
O161 O 0.58027 0.8026 1.05211 0.0
O162 O 0.60798 0.69066 0.11375 0.0
H163 H 0.51851 0.77574 0.36488 0.0
H164 H 0.36236 0.81994 0.37137 0.0
C165 C 0.42764 0.78362 0.34011 0.0
H166 H 0.38746 0.71965 0.33012 0.0
H167 H 0.635 0.68506 0.28669 0.0
O168 O 0.39112 0.93676 1.05705 0.0
C169 C 0.64361 0.73844 1.0677 0.0
Co170 Co 0.06238 0.07837 0.60606 0.0
Co171 Co 0.0243 0.22963 0.68856 0.0
C172 C 0.22489 0.22146 0.60425 0.0
O173 O 0.13675 0.18498 0.57639 0.0
O174 O 0.20284 0.25041 0.65868 0.0
C175 C 0.24526 0.02395 0.51835 0.0
O176 O 0.35094 0.98987 0.49771 0.0
C177 C 0.02716 0.37052 0.7815 0.0
C178 C 0.85068 0.43895 0.75938 0.0
C179 C 0.95649 0.44266 0.79674 0.0
N180 N 0.96691 0.32683 0.73652 0.0
N181 N 0.8614 0.36828 0.72358 0.0
C182 C 0.15419 0.34671 0.80561 0.0
H183 H 0.18509 0.28419 0.78624 0.0
H184 H 0.15176 0.34335 0.85747 0.0
H185 H 0.2231 0.39669 0.79149 0.0
C186 C 0.02382 0.98574 0.72575 0.0
N187 N 0.03391 0.0595 0.69364 0.0
N188 N 0.02286 0.12427 0.73251 0.0
C189 C 0.01256 0.09328 0.79152 0.0
C190 C 0.01223 1.00411 0.78906 0.0
C191 C 0.03568 0.89939 0.6962 0.0
H192 H 0.94109 0.8783 0.68048 0.0
H193 H 0.09813 0.90295 0.65443 0.0
H194 H 0.073 0.85158 0.72964 0.0
O195 O 0.89763 0.08862 0.56735 0.0
O196 O 0.89668 0.21397 0.61734 0.0
H197 H 0.96119 0.11187 0.88863 0.0
H198 H 0.10323 0.16557 0.86274 0.0
C199 C 0.0059 0.14743 0.84916 0.0
H200 H 0.95191 0.20668 0.83967 0.0
H201 H 0.79718 0.3489 0.68966 0.0
O202 O 0.20705 1.00974 0.57421 0.0
C203 C 0.85019 0.16229 0.57667 0.0
Co204 Co 0.48559 0.19958 1.01661 0.0
Co205 Co 0.50678 0.37849 0.9597 0.0
C206 C 0.29847 0.33239 1.04862 0.0
O207 O 0.34891 0.26038 1.05333 0.0
O208 O 0.34421 0.38862 1.01144 0.0
C209 C 0.31237 0.06488 1.02982 0.0
O210 O 0.22123 0.11589 1.01184 0.0
C211 C 0.44827 0.54318 0.88686 0.0
C212 C 0.63632 0.60239 0.88143 0.0
C213 C 0.51253 0.61518 0.86312 0.0
N214 N 0.53023 0.49098 0.91683 0.0
N215 N 0.64152 0.52893 0.91456 0.0
C216 C 0.30871 0.52848 0.88587 0.0
H217 H 0.26495 0.56189 0.92658 0.0
H218 H 0.288 0.45942 0.8908 0.0
H219 H 0.26596 0.55512 0.84286 0.0
C220 C 0.51725 0.14025 0.88959 0.0
N221 N 0.50824 0.20581 0.93017 0.0
N222 N 0.50226 0.27911 0.90043 0.0
C223 C 0.49907 0.25989 0.83797 0.0
C224 C 0.5089 0.1706 0.82904 0.0
C225 C 0.5284 0.04866 0.90905 0.0
H226 H 0.57562 0.04353 0.95496 0.0
H227 H 0.43299 0.01931 0.91167 0.0
H228 H 0.58589 0.01222 0.87494 0.0
O229 O 0.63721 0.22412 1.0613 0.0
O230 O 0.65433 0.35719 1.02479 0.0
H231 H 0.58311 0.33089 0.76324 0.0
H232 H 0.42012 0.30467 0.75186 0.0
C233 C 0.48994 0.32501 0.78731 0.0
H234 H 0.46353 0.38754 0.80771 0.0
H235 H 0.72126 0.50354 0.93537 0.0
O236 O 0.42591 0.09032 1.03439 0.0
C237 C 0.69313 0.29564 1.06032 0.0
Co238 Co -0.01407 0.93947 0.49184 0.0
Co239 Co -0.01056 0.74958 0.45168 0.0
C240 C 0.18362 0.8057 0.53505 0.0
O241 O 0.12248 0.8748 0.53498 0.0
O242 O 0.15162 0.74597 0.49828 0.0
C243 C 0.16482 0.0732 0.47691 0.0
O244 O 0.20677 0.14143 0.44787 0.0
C245 C 0.04281 0.57213 0.40077 0.0
C246 C 0.85305 0.51771 0.39271 0.0
C247 C -0.02139 0.49879 0.3802 0.0
N248 N 0.95913 0.63154 0.4214 0.0
N249 N 0.84577 0.59666 0.41829 0.0
C250 C 0.18271 0.58186 0.40692 0.0
H251 H 0.21392 0.64239 0.38462 0.0
H252 H 0.2342 0.52638 0.38659 0.0
H253 H 0.20594 0.58629 0.45739 0.0
C254 C 0.92247 0.96759 0.36586 0.0
N255 N 0.94366 0.90832 0.41 0.0
N256 N -0.0131 0.83753 0.38506 0.0
C257 C 0.00871 0.85466 0.32307 0.0
C258 C -0.03226 0.93866 0.30869 0.0
C259 C 0.87399 0.0555 0.38063 0.0
H260 H 0.8448 0.06043 0.43045 0.0
H261 H 0.94715 0.10394 0.36906 0.0
H262 H 0.78873 0.06946 0.35319 0.0
O263 O 0.8399 0.92401 0.54309 0.0
O264 O 0.84818 0.78519 0.51712 0.0
H265 H 0.14468 0.82968 0.24964 0.0
H266 H 0.12299 0.74346 0.30577 0.0
C267 C 0.07486 0.79468 0.2792 0.0
H268 H 0.00433 0.7655 0.2476 0.0
H269 H 0.76284 0.62802 0.43184 0.0
O270 O 0.0483 0.05676 0.47606 0.0
C271 C 0.79879 0.84823 0.54836 0.0
loop_
_geom_bond_atom_site_label_1
_geom_bond_atom_site_label_2
_geom_bond_distance
_geom_bond_site_symmetry_2
_ccdc_geom_bond_type
Co0 O3 1.970 1_455 S
Co0 N17 1.989 . S
Co0 O25 1.967 . S
Co0 O32 1.920 . S
Co1 O4 1.966 1_455 S
Co1 N10 2.022 . S
Co1 N18 1.993 . S
Co1 O26 1.941 . S
C2 O3 1.258 . S
C2 O4 1.263 . S
O3 Co0 1.970 1_655 S
O3 C2 1.258 . S
O4 Co1 1.966 1_655 S
O4 C2 1.263 . S
C5 O6 1.245 . S
C5 O32 1.289 1_655 S
O6 C5 1.245 . S
C7 C9 1.400 . S
C7 N10 1.351 1_655 S
C7 C12 1.501 . S
C8 C9 1.387 1_455 S
C8 N11 1.341 . S
C9 C7 1.400 . S
C9 C8 1.387 1_655 S
N10 Co1 2.022 . S
N10 C7 1.351 1_455 S
N10 N11 1.365 . S
N11 C8 1.341 . S
N11 N10 1.365 . S
N11 H31 0.862 . S
C12 C7 1.501 . S
C12 H13 0.961 . S
C12 H14 0.961 . S
C12 H15 0.960 . S
H13 C12 0.961 . S
H14 C12 0.961 . S
H15 C12 0.960 . S
C16 N17 1.342 . S
C16 C20 1.401 . S
C16 C21 1.499 . S
N17 Co0 1.989 . S
N17 C16 1.342 . S
N17 N18 1.388 . S
N18 Co1 1.993 . S
N18 N17 1.388 . S
N18 C19 1.346 . S
C19 N18 1.346 . S
C19 C20 1.396 . S
C19 C29 1.510 . S
C20 C16 1.401 . S
C20 C19 1.396 . S
C21 C16 1.499 . S
C21 H22 0.959 . S
C21 H23 0.960 1_455 S
C21 H24 0.961 . S
H22 C21 0.959 . S
H23 C21 0.960 1_655 S
H24 C21 0.961 . S
O25 Co0 1.967 . S
O25 C33 1.258 . S
O26 Co1 1.941 . S
O26 C33 1.266 . S
H27 C29 0.959 . S
H28 C29 0.961 1_655 S
C29 C19 1.510 . S
C29 H27 0.959 . S
C29 H28 0.961 1_455 S
C29 H30 0.960 . S
H30 C29 0.960 . S
H31 N11 0.862 . S
O32 Co0 1.920 . S
O32 C5 1.289 1_455 S
C33 O25 1.258 . S
C33 O26 1.266 . S
Co34 O37 1.970 . S
Co34 N51 1.989 . S
Co34 O59 1.967 . S
Co34 O66 1.920 . S
Co35 O38 1.966 . S
Co35 N44 2.022 . S
Co35 N52 1.993 . S
Co35 O60 1.941 . S
C36 O37 1.258 . S
C36 O38 1.263 . S
O37 Co34 1.970 . S
O37 C36 1.258 . S
O38 Co35 1.966 . S
O38 C36 1.263 . S
C39 O40 1.235 . S
C39 O66 1.289 . S
O40 C39 1.235 . S
C41 C43 1.400 . S
C41 N44 1.351 . S
C41 C46 1.501 . S
C42 C43 1.387 . S
C42 N45 1.341 . S
C43 C41 1.400 . S
C43 C42 1.387 . S
N44 Co35 2.022 . S
N44 C41 1.351 . S
N44 N45 1.365 . S
N45 C42 1.341 . S
N45 N44 1.365 . S
N45 H65 0.862 . S
C46 C41 1.501 . S
C46 H47 0.961 . S
C46 H48 0.961 . S
C46 H49 0.960 . S
H47 C46 0.961 . S
H48 C46 0.961 . S
H49 C46 0.960 . S
C50 N51 1.342 . S
C50 C54 1.401 . S
C50 C55 1.499 . S
N51 Co34 1.989 . S
N51 C50 1.342 . S
N51 N52 1.388 . S
N52 Co35 1.993 . S
N52 N51 1.388 . S
N52 C53 1.346 . S
C53 N52 1.346 . S
C53 C54 1.396 . S
C53 C63 1.510 . S
C54 C50 1.401 . S
C54 C53 1.396 . S
C55 C50 1.499 . S
C55 H56 0.959 . S
C55 H57 0.960 . S
C55 H58 0.961 . S
H56 C55 0.959 . S
H57 C55 0.960 . S
H58 C55 0.961 . S
O59 Co34 1.967 . S
O59 C67 1.258 . S
O60 Co35 1.941 . S
O60 C67 1.266 . S
H61 C63 0.959 . S
H62 C63 0.961 . S
C63 C53 1.510 . S
C63 H61 0.959 . S
C63 H62 0.961 . S
C63 H64 0.960 . S
H64 C63 0.960 . S
H65 N45 0.862 . S
O66 Co34 1.920 . S
O66 C39 1.289 . S
C67 O59 1.258 . S
C67 O60 1.266 . S
Co68 O71 1.970 1_455 S
Co68 N85 1.989 . S
Co68 O93 1.967 . S
Co68 O100 1.920 . S
Co69 O72 1.966 1_455 S
Co69 N78 2.022 . S
Co69 N86 1.993 . S
Co69 O94 1.941 . S
C70 O71 1.258 . S
C70 O72 1.263 . S
O71 Co68 1.970 1_655 S
O71 C70 1.258 . S
O72 Co69 1.966 1_655 S
O72 C70 1.263 . S
C73 O74 1.245 . S
C73 O100 1.289 1_655 S
O74 C73 1.245 . S
C75 C77 1.400 . S
C75 N78 1.351 1_655 S
C75 C80 1.501 . S
C76 C77 1.387 1_455 S
C76 N79 1.341 . S
C77 C75 1.400 . S
C77 C76 1.387 1_655 S
N78 Co69 2.022 . S
N78 C75 1.351 1_455 S
N78 N79 1.365 . S
N79 C76 1.341 . S
N79 N78 1.365 . S
N79 H99 0.862 . S
C80 C75 1.501 . S
C80 H81 0.961 . S
C80 H82 0.961 . S
C80 H83 0.960 . S
H81 C80 0.961 . S
H82 C80 0.961 . S
H83 C80 0.960 . S
C84 N85 1.342 . S
C84 C88 1.401 . S
C84 C89 1.499 . S
N85 Co68 1.989 . S
N85 C84 1.342 . S
N85 N86 1.388 . S
N86 Co69 1.993 . S
N86 N85 1.388 . S
N86 C87 1.346 . S
C87 N86 1.346 . S
C87 C88 1.396 . S
C87 C97 1.510 . S
C88 C84 1.401 . S
C88 C87 1.396 . S
C89 C84 1.499 . S
C89 H90 0.959 . S
C89 H91 0.960 1_455 S
C89 H92 0.961 . S
H90 C89 0.959 . S
H91 C89 0.960 1_655 S
H92 C89 0.961 . S
O93 Co68 1.967 . S
O93 C101 1.258 . S
O94 Co69 1.941 . S
O94 C101 1.266 . S
H95 C97 0.959 . S
H96 C97 0.961 1_655 S
C97 C87 1.510 . S
C97 H95 0.959 . S
C97 H96 0.961 1_455 S
C97 H98 0.960 . S
H98 C97 0.960 . S
H99 N79 0.862 . S
O100 Co68 1.920 . S
O100 C73 1.289 1_455 S
C101 O93 1.258 . S
C101 O94 1.266 . S
Co102 O105 1.970 . S
Co102 N119 1.989 . S
Co102 O127 1.967 . S
Co102 O134 1.920 . S
Co103 O106 1.966 . S
Co103 N112 2.022 . S
Co103 N120 1.993 . S
Co103 O128 1.941 . S
C104 O105 1.258 . S
C104 O106 1.263 . S
O105 Co102 1.970 . S
O105 C104 1.258 . S
O106 Co103 1.966 . S
O106 C104 1.263 . S
C107 O108 1.235 . S
C107 O134 1.289 . S
O108 C107 1.235 . S
C109 C111 1.400 . S
C109 N112 1.351 . S
C109 C114 1.501 . S
C110 C111 1.387 . S
C110 N113 1.341 . S
C111 C109 1.400 . S
C111 C110 1.387 . S
N112 Co103 2.022 . S
N112 C109 1.351 . S
N112 N113 1.365 . S
N113 C110 1.341 . S
N113 N112 1.365 . S
N113 H133 0.862 . S
C114 C109 1.501 . S
C114 H115 0.961 . S
C114 H116 0.961 . S
C114 H117 0.960 . S
H115 C114 0.961 . S
H116 C114 0.961 . S
H117 C114 0.960 . S
C118 N119 1.342 . S
C118 C122 1.401 . S
C118 C123 1.499 . S
N119 Co102 1.989 . S
N119 C118 1.342 . S
N119 N120 1.388 . S
N120 Co103 1.993 . S
N120 N119 1.388 . S
N120 C121 1.346 . S
C121 N120 1.346 . S
C121 C122 1.396 . S
C121 C131 1.510 . S
C122 C118 1.401 . S
C122 C121 1.396 . S
C123 C118 1.499 . S
C123 H124 0.959 . S
C123 H125 0.960 . S
C123 H126 0.961 . S
H124 C123 0.959 . S
H125 C123 0.960 . S
H126 C123 0.961 . S
O127 Co102 1.967 . S
O127 C135 1.258 . S
O128 Co103 1.941 . S
O128 C135 1.266 . S
H129 C131 0.959 . S
H130 C131 0.961 . S
C131 C121 1.510 . S
C131 H129 0.959 . S
C131 H130 0.961 . S
C131 H132 0.960 . S
H132 C131 0.960 . S
H133 N113 0.862 . S
O134 Co102 1.920 . S
O134 C107 1.289 . S
C135 O127 1.258 . S
C135 O128 1.266 . S
Co136 O139 1.970 . S
Co136 N153 1.989 . S
Co136 O161 1.967 . S
Co136 O168 1.920 . S
Co137 O140 1.966 . S
Co137 N146 2.022 . S
Co137 N154 1.993 . S
Co137 O162 1.941 . S
C138 O139 1.258 . S
C138 O140 1.263 . S
O139 Co136 1.970 . S
O139 C138 1.258 . S
O140 Co137 1.966 . S
O140 C138 1.263 . S
C141 O142 1.245 . S
C141 O168 1.289 1_545 S
O142 C141 1.245 . S
C143 C145 1.400 . S
C143 N146 1.351 . S
C143 C148 1.501 . S
C144 C145 1.387 . S
C144 N147 1.341 . S
C145 C143 1.400 . S
C145 C144 1.387 . S
N146 Co137 2.022 . S
N146 C143 1.351 . S
N146 N147 1.365 . S
N147 C144 1.341 . S
N147 N146 1.365 . S
N147 H167 0.862 . S
C148 C143 1.501 . S
C148 H149 0.961 . S
C148 H150 0.961 . S
C148 H151 0.960 . S
H149 C148 0.961 . S
H150 C148 0.961 . S
H151 C148 0.960 . S
C152 N153 1.342 . S
C152 C156 1.401 . S
C152 C157 1.499 1_565 S
N153 Co136 1.989 . S
N153 C152 1.342 . S
N153 N154 1.388 . S
N154 Co137 1.993 . S
N154 N153 1.388 . S
N154 C155 1.346 . S
C155 N154 1.346 . S
C155 C156 1.396 . S
C155 C165 1.510 . S
C156 C152 1.401 . S
C156 C155 1.396 . S
C157 C152 1.499 1_545 S
C157 H158 0.959 . S
C157 H159 0.960 . S
C157 H160 0.961 . S
H158 C157 0.959 . S
H159 C157 0.960 . S
H160 C157 0.961 . S
O161 Co136 1.967 . S
O161 C169 1.258 . S
O162 Co137 1.941 . S
O162 C169 1.266 . S
H163 C165 0.959 . S
H164 C165 0.961 . S
C165 C155 1.510 . S
C165 H163 0.959 . S
C165 H164 0.961 . S
C165 H166 0.960 . S
H166 C165 0.960 . S
H167 N147 0.862 . S
O168 Co136 1.920 . S
O168 C141 1.289 1_565 S
C169 O161 1.258 . S
C169 O162 1.266 . S
Co170 O173 1.970 . S
Co170 N187 1.989 . S
Co170 O195 1.967 1_455 S
Co170 O202 1.920 . S
Co171 O174 1.966 . S
Co171 N180 2.022 . S
Co171 N188 1.993 . S
Co171 O196 1.941 1_455 S
C172 O173 1.258 . S
C172 O174 1.263 . S
O173 Co170 1.970 . S
O173 C172 1.258 . S
O174 Co171 1.966 . S
O174 C172 1.263 . S
C175 O176 1.235 . S
C175 O202 1.289 1_565 S
O176 C175 1.235 . S
C177 C179 1.400 . S
C177 N180 1.351 . S
C177 C182 1.501 . S
C178 C179 1.387 1_655 S
C178 N181 1.341 . S
C179 C177 1.400 . S
C179 C178 1.387 1_455 S
N180 Co171 2.022 . S
N180 C177 1.351 . S
N180 N181 1.365 1_455 S
N181 C178 1.341 . S
N181 N180 1.365 1_655 S
N181 H201 0.862 . S
C182 C177 1.501 . S
C182 H183 0.961 . S
C182 H184 0.961 . S
C182 H185 0.960 . S
H183 C182 0.961 . S
H184 C182 0.961 . S
H185 C182 0.960 . S
C186 N187 1.342 1_655 S
C186 C190 1.401 . S
C186 C191 1.499 1_545 S
N187 Co170 1.989 . S
N187 C186 1.342 1_455 S
N187 N188 1.388 . S
N188 Co171 1.993 . S
N188 N187 1.388 . S
N188 C189 1.346 . S
C189 N188 1.346 . S
C189 C190 1.396 1_455 S
C189 C199 1.510 . S
C190 C186 1.401 . S
C190 C189 1.396 1_655 S
C191 C186 1.499 1_565 S
C191 H192 0.959 . S
C191 H193 0.960 1_655 S
C191 H194 0.961 . S
H192 C191 0.959 . S
H193 C191 0.960 1_455 S
H194 C191 0.961 . S
O195 Co170 1.967 1_655 S
O195 C203 1.258 . S
O196 Co171 1.941 1_655 S
O196 C203 1.266 . S
H197 C199 0.959 1_655 S
H198 C199 0.961 . S
C199 C189 1.510 . S
C199 H197 0.959 1_455 S
C199 H198 0.961 . S
C199 H200 0.960 . S
H200 C199 0.960 . S
H201 N181 0.862 . S
O202 Co170 1.920 . S
O202 C175 1.289 1_545 S
C203 O195 1.258 . S
C203 O196 1.266 . S
Co204 O207 1.970 . S
Co204 N221 1.989 . S
Co204 O229 1.967 . S
Co204 O236 1.920 . S
Co205 O208 1.966 . S
Co205 N214 2.022 . S
Co205 N222 1.993 . S
Co205 O230 1.941 . S
C206 O207 1.258 . S
C206 O208 1.263 . S
O207 Co204 1.970 . S
O207 C206 1.258 . S
O208 Co205 1.966 . S
O208 C206 1.263 . S
C209 O210 1.245 . S
C209 O236 1.289 1_565 S
O210 C209 1.245 . S
C211 C213 1.400 . S
C211 N214 1.351 . S
C211 C216 1.501 . S
C212 C213 1.387 . S
C212 N215 1.341 . S
C213 C211 1.400 . S
C213 C212 1.387 . S
N214 Co205 2.022 . S
N214 C211 1.351 . S
N214 N215 1.365 . S
N215 C212 1.341 . S
N215 N214 1.365 . S
N215 H235 0.862 . S
C216 C211 1.501 . S
C216 H217 0.961 . S
C216 H218 0.961 . S
C216 H219 0.960 . S
H217 C216 0.961 . S
H218 C216 0.961 . S
H219 C216 0.960 . S
C220 N221 1.342 . S
C220 C224 1.401 . S
C220 C225 1.499 1_545 S
N221 Co204 1.989 . S
N221 C220 1.342 . S
N221 N222 1.388 . S
N222 Co205 1.993 . S
N222 N221 1.388 . S
N222 C223 1.346 . S
C223 N222 1.346 . S
C223 C224 1.396 . S
C223 C233 1.510 . S
C224 C220 1.401 . S
C224 C223 1.396 . S
C225 C220 1.499 1_565 S
C225 H226 0.959 . S
C225 H227 0.960 . S
C225 H228 0.961 . S
H226 C225 0.959 . S
H227 C225 0.960 . S
H228 C225 0.961 . S
O229 Co204 1.967 . S
O229 C237 1.258 . S
O230 Co205 1.941 . S
O230 C237 1.266 . S
H231 C233 0.959 . S
H232 C233 0.961 . S
C233 C223 1.510 . S
C233 H231 0.959 . S
C233 H232 0.961 . S
C233 H234 0.960 . S
H234 C233 0.960 . S
H235 N215 0.862 . S
O236 Co204 1.920 . S
O236 C209 1.289 1_545 S
C237 O229 1.258 . S
C237 O230 1.266 . S
Co238 O241 1.970 . S
Co238 N255 1.989 . S
Co238 O263 1.967 1_455 S
Co238 O270 1.920 . S
Co239 O242 1.966 . S
Co239 N248 2.022 . S
Co239 N256 1.993 . S
Co239 O264 1.941 1_455 S
C240 O241 1.258 . S
C240 O242 1.263 . S
O241 Co238 1.970 . S
O241 C240 1.258 . S
O242 Co239 1.966 . S
O242 C240 1.263 . S
C243 O244 1.235 . S
C243 O270 1.289 1_545 S
O244 C243 1.235 . S
C245 C247 1.400 . S
C245 N248 1.351 . S
C245 C250 1.501 . S
C246 C247 1.387 1_655 S
C246 N249 1.341 . S
C247 C245 1.400 . S
C247 C246 1.387 1_455 S
N248 Co239 2.022 . S
N248 C245 1.351 . S
N248 N249 1.365 1_455 S
N249 C246 1.341 . S
N249 N248 1.365 1_655 S
N249 H269 0.862 . S
C250 C245 1.501 . S
C250 H251 0.961 . S
C250 H252 0.961 . S
C250 H253 0.960 . S
H251 C250 0.961 . S
H252 C250 0.961 . S
H253 C250 0.960 . S
C254 N255 1.342 1_655 S
C254 C258 1.401 . S
C254 C259 1.499 1_565 S
N255 Co238 1.989 . S
N255 C254 1.342 1_455 S
N255 N256 1.388 . S
N256 Co239 1.993 . S
N256 N255 1.388 . S
N256 C257 1.346 . S
C257 N256 1.346 . S
C257 C258 1.396 1_455 S
C257 C267 1.510 . S
C258 C254 1.401 . S
C258 C257 1.396 1_655 S
C259 C254 1.499 1_545 S
C259 H260 0.959 . S
C259 H261 0.960 1_655 S
C259 H262 0.961 . S
H260 C259 0.959 . S
H261 C259 0.960 1_455 S
H262 C259 0.961 . S
O263 Co238 1.967 1_655 S
O263 C271 1.258 . S
O264 Co239 1.941 1_655 S
O264 C271 1.266 . S
H265 C267 0.959 1_655 S
H266 C267 0.961 . S
C267 C257 1.510 . S
C267 H265 0.959 1_455 S
C267 H266 0.961 . S
C267 H268 0.960 . S
H268 C267 0.960 . S
H269 N249 0.862 . S
O270 Co238 1.920 . S
O270 C243 1.289 1_565 S
C271 O263 1.258 . S
C271 O264 1.266 . S
C206 C33 2.124 1_556 S
C67 C240 2.124 . S
C138 C101 2.124 1_554 S
C135 C172 2.125 . S
C169 C70 2.124 1_554 S
C203 C104 2.124 . S
C2 C237 2.124 1_554 S
C36 C271 2.124 . S
C20 C247 1.923 . S
C54 C213 1.923 . S
C179 C88 1.923 . S
C122 C145 1.923 . S
C156 C111 1.923 1_565 S
C77 C190 1.923 1_565 S
C43 C224 1.923 1_565 S
C9 C258 1.923 1_545 S
C73 C5 0.434 1_556 S
C39 C107 0.436 . S
C209 C141 0.434 1_566 S
C243 C175 0.436 1_545 S
