# Generated by pormake.
# Topology lcy-e, (6)-cn, num edge types: 1
# Building blocks:
#     Node 0, Type 0, BuildingBlock: CUKXOW_clean_sbu_0, # of connection points: 6
#     Node 1, Type 0, BuildingBlock: CUKXOW_clean_sbu_0, # of connection points: 6
#     Node 2, Type 0, BuildingBlock: CUKXOW_clean_sbu_0, # of connection points: 6
#     Node 3, Type 0, BuildingBlock: CUKXOW_clean_sbu_0, # of connection points: 6
#     Node 4, Type 0, BuildingBlock: CUKXOW_clean_sbu_0, # of connection points: 6
#     Node 5, Type 0, BuildingBlock: CUKXOW_clean_sbu_0, # of connection points: 6
#     Node 6, Type 0, BuildingBlock: CUKXOW_clean_sbu_0, # of connection points: 6
#     Node 7, Type 0, BuildingBlock: CUKXOW_clean_sbu_0, # of connection points: 6
#     Node 8, Type 0, BuildingBlock: CUKXOW_clean_sbu_0, # of connection points: 6
#     Node 9, Type 0, BuildingBlock: CUKXOW_clean_sbu_0, # of connection points: 6
#     Node 10, Type 0, BuildingBlock: CUKXOW_clean_sbu_0, # of connection points: 6
#     Node 11, Type 0, BuildingBlock: CUKXOW_clean_sbu_0, # of connection points: 6
#     Edge 12, Type (0, 0), BuildingBlock: EZIPEK_clean_linker_0, # of connection points: 2
#     Edge 13, Type (0, 0), BuildingBlock: EZIPEK_clean_linker_0, # of connection points: 2
#     Edge 14, Type (0, 0), BuildingBlock: EZIPEK_clean_linker_0, # of connection points: 2
#     Edge 15, Type (0, 0), BuildingBlock: EZIPEK_clean_linker_0, # of connection points: 2
#     Edge 16, Type (0, 0), BuildingBlock: EZIPEK_clean_linker_0, # of connection points: 2
#     Edge 17, Type (0, 0), BuildingBlock: EZIPEK_clean_linker_0, # of connection points: 2
#     Edge 18, Type (0, 0), BuildingBlock: EZIPEK_clean_linker_0, # of connection points: 2
#     Edge 19, Type (0, 0), BuildingBlock: EZIPEK_clean_linker_0, # of connection points: 2
#     Edge 20, Type (0, 0), BuildingBlock: EZIPEK_clean_linker_0, # of connection points: 2
#     Edge 21, Type (0, 0), BuildingBlock: EZIPEK_clean_linker_0, # of connection points: 2
#     Edge 22, Type (0, 0), BuildingBlock: EZIPEK_clean_linker_0, # of connection points: 2
#     Edge 23, Type (0, 0), BuildingBlock: EZIPEK_clean_linker_0, # of connection points: 2
#     Edge 24, Type (0, 0), BuildingBlock: EZIPEK_clean_linker_0, # of connection points: 2
#     Edge 25, Type (0, 0), BuildingBlock: EZIPEK_clean_linker_0, # of connection points: 2
#     Edge 26, Type (0, 0), BuildingBlock: EZIPEK_clean_linker_0, # of connection points: 2
#     Edge 27, Type (0, 0), BuildingBlock: EZIPEK_clean_linker_0, # of connection points: 2
#     Edge 28, Type (0, 0), BuildingBlock: EZIPEK_clean_linker_0, # of connection points: 2
#     Edge 29, Type (0, 0), BuildingBlock: EZIPEK_clean_linker_0, # of connection points: 2
#     Edge 30, Type (0, 0), BuildingBlock: EZIPEK_clean_linker_0, # of connection points: 2
#     Edge 31, Type (0, 0), BuildingBlock: EZIPEK_clean_linker_0, # of connection points: 2
#     Edge 32, Type (0, 0), BuildingBlock: EZIPEK_clean_linker_0, # of connection points: 2
#     Edge 33, Type (0, 0), BuildingBlock: EZIPEK_clean_linker_0, # of connection points: 2
#     Edge 34, Type (0, 0), BuildingBlock: EZIPEK_clean_linker_0, # of connection points: 2
#     Edge 35, Type (0, 0), BuildingBlock: EZIPEK_clean_linker_0, # of connection points: 2
#     Edge 36, Type (0, 0), BuildingBlock: EZIPEK_clean_linker_0, # of connection points: 2
#     Edge 37, Type (0, 0), BuildingBlock: EZIPEK_clean_linker_0, # of connection points: 2
#     Edge 38, Type (0, 0), BuildingBlock: EZIPEK_clean_linker_0, # of connection points: 2
#     Edge 39, Type (0, 0), BuildingBlock: EZIPEK_clean_linker_0, # of connection points: 2
#     Edge 40, Type (0, 0), BuildingBlock: EZIPEK_clean_linker_0, # of connection points: 2
#     Edge 41, Type (0, 0), BuildingBlock: EZIPEK_clean_linker_0, # of connection points: 2
#     Edge 42, Type (0, 0), BuildingBlock: EZIPEK_clean_linker_0, # of connection points: 2
#     Edge 43, Type (0, 0), BuildingBlock: EZIPEK_clean_linker_0, # of connection points: 2
#     Edge 44, Type (0, 0), BuildingBlock: EZIPEK_clean_linker_0, # of connection points: 2
#     Edge 45, Type (0, 0), BuildingBlock: EZIPEK_clean_linker_0, # of connection points: 2
#     Edge 46, Type (0, 0), BuildingBlock: EZIPEK_clean_linker_0, # of connection points: 2
#     Edge 47, Type (0, 0), BuildingBlock: EZIPEK_clean_linker_0, # of connection points: 2
# Relax obj value: 0.172
# Max RMSD: 0.264
# Mean RMSD: 0.228
data_MOF--net-lcy-e--node1-CUKXOW_clean_sbu_0--edge1-EZIPEK_clean_linker_0
_symmetry_space_group_name_H-M    P1
_symmetry_Int_Tables_number       1
_symmetry_cell_setting            triclinic
loop_
_symmetry_equiv_pos_as_xyz
'x, y, z'
_cell_length_a     25.548888
_cell_length_b     27.985882
_cell_length_c     28.201668
_cell_angle_alpha  90.276458
_cell_angle_beta   91.783429
_cell_angle_gamma 88.557763
loop_
_atom_site_label
_atom_site_type_symbol
_atom_site_fract_x
_atom_site_fract_y
_atom_site_fract_z
_atom_type_partial_charge
Tb0 Tb 0.18096 0.18964 0.41967 0.0
C1 C 0.08289 0.11948 0.40819 0.0
Tb2 Tb 0.07874 0.2144 0.46832 0.0
O3 O 0.2181 0.16577 0.48705 0.0
O4 O 0.13884 0.1618 0.47543 0.0
O5 O 0.13065 0.13007 0.39359 0.0
C6 C 1.00734 0.22031 0.53472 0.0
O7 O 0.05751 0.14663 0.43898 0.0
C8 C 0.08191 0.23755 0.37978 0.0
C9 C 0.1712 0.28741 0.47717 0.0
O10 O 1.0068 0.24566 0.49617 0.0
O11 O 0.04956 0.19361 0.53637 0.0
O12 O 0.03818 0.22949 0.40045 0.0
O13 O 0.11891 0.23947 0.41007 0.0
O14 O 0.12829 0.27122 0.49632 0.0
O15 O 0.19529 0.26382 0.44258 0.0
C16 C 0.2566 0.17565 0.35765 0.0
O17 O 0.2637 0.18287 0.40279 0.0
O18 O 0.20665 0.17584 0.34737 0.0
C19 C 0.1743 0.1562 0.50664 0.0
Tb20 Tb 0.11774 0.93607 0.69939 0.0
C21 C 0.14493 0.82532 0.68532 0.0
Tb22 Tb 0.07622 0.85781 0.76753 0.0
O23 O 0.19133 0.95142 0.73988 0.0
O24 O 0.14134 0.90259 0.76315 0.0
O25 O 0.13324 0.86643 0.66267 0.0
C26 C 0.0701 0.80537 0.84533 0.0
O27 O 0.13873 0.82121 0.73118 0.0
C28 C 0.02294 0.86904 0.68549 0.0
C29 C 0.02705 0.9614 0.7753 0.0
O30 O 0.07828 0.78854 0.80321 0.0
O31 O 0.06356 0.85136 0.84316 0.0
O32 O 0.01735 0.83234 0.71308 0.0
O33 O 0.04987 0.89794 0.7088 0.0
O34 O 0.03787 0.92064 0.79779 0.0
O35 O 0.05137 0.97344 0.73562 0.0
C36 C 0.1331 1.00257 0.6346 0.0
O37 O 0.10592 1.00843 0.67233 0.0
O38 O 0.14982 0.95836 0.63227 0.0
C39 C 0.18467 0.92107 0.7735 0.0
Tb40 Tb 0.4555 0.8342 0.9685 0.0
C41 C 0.34751 0.85998 0.90813 0.0
Tb42 Tb 0.35077 0.79497 0.99735 0.0
O43 O 0.47909 0.76574 0.93556 0.0
O44 O 0.40165 0.78528 0.93907 0.0
O45 O 0.39796 0.8701 0.91727 0.0
C46 C 0.27501 0.73363 1.00718 0.0
O47 O 0.32279 0.82796 0.93282 0.0
C48 C 0.36992 0.88189 0.02663 0.0
C49 C 0.44705 0.77586 0.06789 0.0
O50 O 0.31882 0.72473 0.98665 0.0
O51 O 0.27408 0.77705 0.02367 0.0
O52 O 0.32283 0.86532 0.02239 0.0
O53 O 0.40226 0.84778 0.02163 0.0
O54 O 0.40056 0.76125 0.05266 0.0
O55 O 0.47376 0.8075 0.04279 0.0
C56 C 0.53185 0.89489 0.94634 0.0
O57 O 0.53899 0.8519 0.96307 0.0
O58 O 0.4817 0.9034 0.94304 0.0
C59 C 0.43171 0.75168 0.92616 0.0
Tb60 Tb 0.45949 0.139 0.13801 0.0
C61 C 0.422 0.24889 0.12591 0.0
Tb62 Tb 0.5103 0.21645 0.19837 0.0
O63 O 0.42557 0.10946 0.20088 0.0
O64 O 0.4365 0.18258 0.1956 0.0
O65 O 0.41877 0.20401 0.10979 0.0
C66 C 0.52993 0.26508 0.27902 0.0
O67 O 0.45622 0.2622 0.15931 0.0
C68 C 0.55323 0.20044 0.11462 0.0
C69 C 0.5487 0.11066 0.21129 0.0
O70 O 0.48413 0.2581 0.25965 0.0
O71 O 0.56518 0.24597 0.25196 0.0
O72 O 0.55714 0.24075 0.138 0.0
O73 O 0.53247 0.17144 0.14175 0.0
O74 O 0.5361 0.15056 0.23365 0.0
O75 O 0.52807 0.10074 0.1687 0.0
C76 C 0.42352 0.07373 0.07728 0.0
O77 O 0.40642 0.08233 0.11912 0.0
O78 O 0.46098 0.10285 0.06866 0.0
C79 C 0.42114 0.15017 0.22253 0.0
Tb80 Tb 0.61366 0.35845 0.57182 0.0
C81 C 0.73227 0.37315 0.61425 0.0
Tb82 Tb 0.70543 0.31344 0.52389 0.0
O83 O 0.59207 0.28789 0.5965 0.0
O84 O 0.66937 0.30414 0.5907 0.0
O85 O 0.68157 0.38739 0.61424 0.0
C86 C 0.74725 0.2284 0.49961 0.0
O87 O 0.75066 0.3418 0.58309 0.0
C88 C 0.68306 0.40298 0.49686 0.0
C89 C 0.59386 0.30874 0.47091 0.0
O90 O 0.76929 0.26949 0.49251 0.0
O91 O 0.7029 0.23603 0.51953 0.0
O92 O 0.72924 0.38194 0.49298 0.0
O93 O 0.65214 0.37104 0.50869 0.0
O94 O 0.64377 0.29491 0.47219 0.0
O95 O 0.57364 0.33573 0.5051 0.0
C96 C 0.53441 0.4093 0.60799 0.0
O97 O 0.54289 0.36393 0.61312 0.0
O98 O 0.57192 0.42689 0.58389 0.0
C99 C 0.63953 0.27164 0.60364 0.0
Tb100 Tb 0.93215 0.43543 0.85053 0.0
C101 C 0.90377 0.32702 0.86903 0.0
Tb102 Tb 0.9707 0.35765 0.78245 0.0
O103 O 0.85301 0.43505 0.81683 0.0
O104 O 0.91753 0.41677 0.77833 0.0
O105 O 0.9127 0.36943 0.88935 0.0
C106 C 0.96391 0.30491 0.70514 0.0
O107 O 0.91716 0.31748 0.82491 0.0
C108 C 0.02089 0.35584 0.86563 0.0
C109 C 0.02919 0.4556 0.78167 0.0
O110 O 0.92441 0.32301 0.72723 0.0
O111 O 1.00787 0.31591 0.72675 0.0
O112 O 0.01822 0.31923 0.83689 0.0
O113 O 0.99995 0.39113 0.84428 0.0
O114 O 0.02057 0.41464 0.75872 0.0
O115 O 1.0015 0.46939 0.81931 0.0
C116 C 0.91264 0.51039 0.90894 0.0
O117 O 0.93804 0.51151 0.86989 0.0
O118 O 0.89927 0.46652 0.91532 0.0
C119 C 0.8684 0.4177 0.77714 0.0
Tb120 Tb 0.85431 0.69493 0.12273 0.0
C121 C 0.96238 0.63126 0.1345 0.0
Tb122 Tb 0.95815 0.73211 0.08793 0.0
O123 O 0.82809 0.68421 0.04899 0.0
O124 O 0.90568 0.67642 0.06849 0.0
O125 O 0.9106 0.63482 0.14078 0.0
C126 C 0.02565 0.74122 0.0206 0.0
O127 O 0.98937 0.66582 0.1161 0.0
C128 C 0.94046 0.76686 0.17395 0.0
C129 C 0.85864 0.80034 0.07991 0.0
O130 O 0.03883 0.73791 0.06543 0.0
O131 O 0.9752 0.74119 1.01442 0.0
O132 O 0.98072 0.77753 0.14893 0.0
O133 O 0.9134 0.73927 0.14828 0.0
O134 O 0.90488 0.78878 0.06265 0.0
O135 O 0.83381 0.77148 0.1089 0.0
C136 C 0.77596 0.65626 0.16888 0.0
O137 O 0.82259 0.66312 0.1867 0.0
O138 O 0.77333 0.67186 0.12574 0.0
C139 C 0.87411 0.67361 0.03338 0.0
Tb140 Tb 0.56241 0.67434 0.35801 0.0
C141 C 0.58507 0.56335 0.38867 0.0
Tb142 Tb 0.50103 0.5907 0.30977 0.0
O143 O 0.51335 0.68731 0.41954 0.0
O144 O 0.49464 0.63541 0.37102 0.0
O145 O 0.60394 0.60779 0.38553 0.0
C146 C 0.41248 0.54665 0.28544 0.0
O147 O 0.54013 0.55126 0.3675 0.0
C148 C 0.59755 0.60518 0.27983 0.0
C149 C 0.49553 0.69121 0.25637 0.0
O150 O 0.41596 0.58546 0.31054 0.0
O151 O 0.4594 0.53161 0.27467 0.0
O152 O 0.57272 0.56517 0.27358 0.0
O153 O 0.56422 0.63455 0.29541 0.0
O154 O 0.4796 0.64637 0.25735 0.0
O155 O 0.52579 0.70926 0.29178 0.0
C156 C 0.62771 0.74486 0.38062 0.0
O157 O 0.57805 0.74998 0.37017 0.0
O158 O 0.64086 0.69955 0.37907 0.0
C159 C 0.48033 0.65415 0.4098 0.0
Tb160 Tb 0.16248 0.38636 0.14921 0.0
C161 C 0.13769 0.37613 0.03912 0.0
Tb162 Tb 0.19397 0.46635 0.08146 0.0
O163 O 0.11088 0.43937 0.18292 0.0
O164 O 0.12357 0.44329 0.11156 0.0
O165 O 0.14439 0.35317 0.08021 0.0
C166 C 0.18971 0.5542 0.04668 0.0
O167 O 0.14995 0.42152 0.03276 0.0
C168 C 0.26893 0.40037 0.08836 0.0
C169 C 0.2325 0.46736 0.19099 0.0
O170 O 0.20833 0.5168 0.02467 0.0
O171 O 0.17287 0.54161 0.08754 0.0
O172 O 0.27227 0.43794 0.06173 0.0
O173 O 0.22599 0.40349 0.10867 0.0
O174 O 0.22271 0.49148 0.15109 0.0
O175 O 0.21878 0.42236 0.19522 0.0
C176 C 0.13785 0.31243 0.20189 0.0
O177 O 0.1851 0.32712 0.19615 0.0
O178 O 0.10539 0.3382 0.17607 0.0
C179 C 0.09886 0.46293 0.14464 0.0
Tb180 Tb 0.72729 0.11271 0.85336 0.0
C181 C 0.67641 0.12851 0.95598 0.0
Tb182 Tb 0.7786 0.06377 0.94559 0.0
O183 O 0.66582 0.05893 0.84 0.0
O184 O 0.72014 0.05129 0.89341 0.0
O185 O 0.68229 0.14571 0.91216 0.0
C186 C 0.79999 0.98576 0.99963 0.0
O187 O 0.70681 0.09307 0.97335 0.0
C188 C 0.80295 0.15461 0.93157 0.0
C189 C 0.8395 0.05498 0.84923 0.0
O190 O 0.81005 0.0298 1.01176 0.0
O191 O 0.77844 0.98645 0.95746 0.0
O192 O 0.808 0.13262 0.97241 0.0
O193 O 0.79267 0.12309 0.90053 0.0
O194 O 0.83792 0.04346 0.89485 0.0
O195 O 0.80233 0.08186 0.82678 0.0
C196 C 0.70059 0.1661 0.77649 0.0
O197 O 0.72464 0.12466 0.77645 0.0
O198 O 0.693 0.1781 0.82056 0.0
C199 C 0.67971 0.03238 0.87601 0.0
Tb200 Tb 0.86609 0.93849 0.42898 0.0
C201 C 0.88734 0.88902 0.3288 0.0
Tb202 Tb 0.81225 0.97742 0.34187 0.0
O203 O 0.79028 0.91247 0.45093 0.0
O204 O 0.80805 0.91239 0.38054 0.0
O205 O 0.90467 0.89501 0.37352 0.0
C206 C 0.72713 1.00455 0.29108 0.0
O207 O 0.84627 0.91341 0.31074 0.0
C208 C 0.90679 1.01023 0.35676 0.0
C209 C 0.79894 0.03424 0.44035 0.0
O210 O 0.77429 1.00068 0.2748 0.0
O211 O 0.72823 0.99248 0.33534 0.0
O212 O 0.88302 1.01026 0.31516 0.0
O213 O 0.87376 0.99951 0.38701 0.0
O214 O 0.78379 0.02825 0.39532 0.0
O215 O 0.83495 1.005 0.46008 0.0
C216 C 0.92971 0.90908 0.50005 0.0
O217 O 0.88106 0.89839 0.49419 0.0
O218 O 0.9433 0.93616 0.46553 0.0
C219 C 0.77343 0.90077 0.40872 0.0
Tb220 Tb 0.3149 0.60189 0.68176 0.0
C221 C 0.35243 0.6085 0.57029 0.0
Tb222 Tb 0.25624 0.55283 0.60063 0.0
O223 O 0.34425 0.53211 0.70599 0.0
O224 O 0.33161 0.54503 0.63498 0.0
O225 O 0.35727 0.62484 0.61558 0.0
C226 C 0.22811 0.47333 0.55401 0.0
O227 O 0.31795 0.57621 0.55739 0.0
C228 C 0.23116 0.64427 0.61512 0.0
C229 C 0.2091 0.5462 0.70252 0.0
O230 O 0.20906 0.51621 0.54481 0.0
O231 O 0.26228 0.47603 0.58868 0.0
O232 O 0.22421 0.6223 0.57444 0.0
O233 O 0.24285 0.61298 0.64589 0.0
O234 O 0.20994 0.52875 0.65897 0.0
O235 O 0.2428 0.57924 0.71768 0.0
C236 C 0.35952 0.6529 0.75357 0.0
O237 O 0.36066 0.60695 0.74875 0.0
O238 O 0.33428 0.67101 0.71663 0.0
C239 C 0.34801 0.51369 0.66407 0.0
C240 C 0.19766 0.3737 0.46365 0.0
C241 C 0.19085 0.33452 0.49483 0.0
C242 C 0.20039 0.38872 0.5631 0.0
C243 C 0.21155 0.42703 0.53247 0.0
N244 N 0.23058 0.45366 0.45382 0.0
N245 N 0.20166 0.30307 0.57394 0.0
C246 C 0.2128 0.41896 0.48273 0.0
C247 C 0.19688 0.34164 0.54449 0.0
N248 N 0.18804 0.36847 0.41604 0.0
N249 N 0.19106 0.39742 0.60988 0.0
H250 H 0.20306 0.26811 0.56105 0.0
H251 H 0.21083 0.30587 0.61009 0.0
H252 H 0.19059 0.43166 0.62465 0.0
H253 H 0.17792 0.37143 0.6327 0.0
H254 H 0.18615 0.39707 0.3925 0.0
H255 H 0.17833 0.33611 0.40024 0.0
H256 H 0.23827 0.44798 0.41815 0.0
H257 H 0.24188 0.48708 0.46633 0.0
C258 C 0.88638 0.98336 0.81555 0.0
C259 C 0.88417 0.03354 0.82238 0.0
C260 C 0.97552 0.03812 0.79648 0.0
C261 C 0.97744 0.98773 0.7891 0.0
N262 N 0.92813 0.91509 0.77886 0.0
N263 N 0.92206 0.11009 0.80996 0.0
C264 C 0.93102 0.96115 0.79509 0.0
C265 C 0.92728 0.06141 0.80956 0.0
N266 N 0.84554 0.95646 0.82908 0.0
N267 N 0.02036 0.06339 0.79356 0.0
H268 H 0.88764 0.12779 0.81978 0.0
H269 H 0.94989 0.13273 0.79691 0.0
H270 H 0.05622 0.04756 0.78497 0.0
H271 H 0.02311 0.09922 0.80318 0.0
H272 H 0.84786 0.91942 0.83254 0.0
H273 H 0.80992 0.97156 0.83914 0.0
H274 H 0.89353 0.89619 0.77698 0.0
H275 H 0.95842 0.89696 0.76215 0.0
C276 C 0.206 0.67472 0.98825 0.0
C277 C 0.24122 0.69538 0.02181 0.0
C278 C 0.24322 0.62352 0.06956 0.0
C279 C 0.20609 0.60306 0.03753 0.0
N280 N 0.14715 0.60976 0.96945 0.0
N281 N 0.28197 0.69561 0.10004 0.0
C282 C 0.18559 0.62899 0.99779 0.0
C283 C 0.2554 0.67198 0.06463 0.0
N284 N 0.19346 0.69847 0.94705 0.0
N285 N 0.27053 0.59569 0.10202 0.0
H286 H 0.29226 0.73129 0.09737 0.0
H287 H 0.28897 0.68128 0.13376 0.0
H288 H 0.2661 0.55894 0.10473 0.0
H289 H 0.30237 0.60789 0.12218 0.0
H290 H 0.17204 0.68387 0.91879 0.0
H291 H 0.20603 0.73302 0.94076 0.0
H292 H 0.12821 0.62783 0.94146 0.0
H293 H 0.13232 0.576 0.97546 0.0
C294 C 0.59026 0.03328 0.23924 0.0
C295 C 0.59469 0.08264 0.22984 0.0
C296 C 0.68748 0.07921 0.256 0.0
C297 C 0.68214 0.03048 0.26799 0.0
N298 N 0.62638 0.96345 0.27969 0.0
N299 N 0.64637 0.15438 0.23307 0.0
C300 C 0.63298 1.00811 0.26193 0.0
C301 C 0.64293 0.10608 0.23929 0.0
N302 N 0.54504 1.01045 0.22699 0.0
N303 N 0.73519 0.10026 0.26071 0.0
H304 H 0.61867 0.17518 0.21425 0.0
H305 H 0.67646 0.17463 0.24776 0.0
H306 H 0.76756 0.08485 0.27861 0.0
H307 H 0.74369 0.13268 0.24511 0.0
H308 H 0.54186 0.97343 0.22696 0.0
H309 H 0.51122 0.02818 0.21406 0.0
H310 H 0.59024 0.94732 0.28158 0.0
H311 H 0.65656 0.94389 0.29635 0.0
C312 C 0.80631 0.15461 0.50681 0.0
C313 C 0.76426 0.17976 0.48323 0.0
C314 C 0.73643 0.10507 0.44512 0.0
C315 C 0.78158 0.08049 0.46422 0.0
N316 N 0.8452 0.07779 0.52966 0.0
N317 N 0.6947 0.18082 0.42368 0.0
C318 C 0.81302 0.10404 0.49961 0.0
C319 C 0.73078 0.15539 0.45079 0.0
N320 N 0.83984 0.17918 0.53606 0.0
N321 N 0.6967 0.07953 0.42473 0.0
H322 H 0.69047 0.21794 0.4258 0.0
H323 H 0.67303 0.16586 0.3957 0.0
H324 H 0.69708 0.04222 0.42485 0.0
H325 H 0.66072 0.09474 0.41378 0.0
H326 H 0.87493 0.16483 0.5501 0.0
H327 H 0.83455 0.21552 0.54333 0.0
H328 H 0.86726 0.09228 0.55755 0.0
H329 H 0.84412 0.04076 0.53176 0.0
C330 C 0.0746 0.53148 0.75578 0.0
C331 C 0.07736 0.48245 0.76908 0.0
C332 C 0.17019 0.47846 0.74697 0.0
C333 C 0.16756 0.52734 0.73359 0.0
N334 N 0.12136 0.60318 0.73592 0.0
N335 N 0.13254 0.41443 0.79124 0.0
C336 C 0.1211 0.55481 0.74177 0.0
C337 C 0.12665 0.45751 0.76879 0.0
N338 N 0.02712 0.55506 0.75387 0.0
N339 N 0.21416 0.45152 0.73788 0.0
H340 H 0.10244 0.39882 0.80933 0.0
H341 H 0.16855 0.39664 0.7964 0.0
H342 H 0.2482 0.46614 0.72525 0.0
H343 H 0.21592 0.4144 0.74049 0.0
H344 H 0.02128 0.58906 0.73953 0.0
H345 H 0.99252 0.53922 0.76348 0.0
H346 H 0.09075 0.62597 0.74581 0.0
H347 H 0.15441 0.62094 0.72534 0.0
C348 C 0.77407 0.90355 0.02625 0.0
C349 C 0.81112 0.94088 0.02782 0.0
C350 C 0.86941 0.88939 0.07769 0.0
C351 C 0.83728 0.84953 0.06812 0.0
N352 N 0.7599 0.81815 0.02956 0.0
N353 N 0.89832 0.96593 0.05073 0.0
C354 C 0.7895 0.85652 0.04177 0.0
C355 C 0.85971 0.93318 0.05291 0.0
N356 N 0.72352 0.91332 1.01139 0.0
N357 N 0.90898 0.88563 0.11124 0.0
H358 H 0.89435 0.99768 0.03178 0.0
H359 H 0.93635 0.95938 0.06395 0.0
H360 H 0.91587 0.8547 0.1311 0.0
H361 H 0.93063 0.91465 0.1231 0.0
H362 H 0.69376 0.88867 1.01312 0.0
H363 H 0.70996 0.94767 1.00243 0.0
H364 H 0.72801 0.82029 1.00565 0.0
H365 H 0.76949 0.78344 0.04062 0.0
C366 C 0.34881 0.47928 0.27688 0.0
C367 C 0.36214 0.5271 0.26689 0.0
C368 C 0.2769 0.53962 0.22541 0.0
C369 C 0.26792 0.49001 0.2281 0.0
N370 N 0.27993 0.4213 0.27896 0.0
N371 N 0.34003 0.60257 0.22876 0.0
C372 C 0.2993 0.46203 0.26052 0.0
C373 C 0.32606 0.55755 0.24115 0.0
N374 N 0.38359 0.45015 0.30154 0.0
N375 N 0.237 0.5698 0.21035 0.0
H376 H 0.3766 0.61655 0.23705 0.0
H377 H 0.31724 0.62473 0.20644 0.0
H378 H 0.19933 0.55762 0.20282 0.0
H379 H 0.23913 0.6069 0.21118 0.0
H380 H 0.37924 0.4134 0.30455 0.0
H381 H 0.41864 0.46219 0.31668 0.0
H382 H 0.29954 0.40074 0.30488 0.0
H383 H 0.24086 0.41218 0.2741 0.0
C384 C 0.53769 0.32536 0.34543 0.0
C385 C 0.53849 0.27704 0.33008 0.0
C386 C 0.56059 0.25007 0.41122 0.0
C387 C 0.56379 0.29842 0.42611 0.0
N388 N 0.54562 0.38219 0.41071 0.0
N389 N 0.53579 0.19343 0.3497 0.0
C390 C 0.54866 0.33616 0.39433 0.0
C391 C 0.54544 0.23937 0.36346 0.0
N392 N 0.52792 0.36074 0.31276 0.0
N393 N 0.5732 0.21439 0.44289 0.0
H394 H 0.52369 0.18449 0.3153 0.0
H395 H 0.53523 0.1646 0.37279 0.0
H396 H 0.58012 0.22089 0.479 0.0
H397 H 0.57853 0.17863 0.43358 0.0
H398 H 0.52961 0.3971 0.31997 0.0
H399 H 0.51904 0.35365 0.2771 0.0
H400 H 0.5309 0.41101 0.39092 0.0
H401 H 0.55499 0.39189 0.44551 0.0
C402 C 0.94104 0.27037 0.57665 0.0
C403 C 0.97424 0.22942 0.576 0.0
C404 C 0.98062 0.22846 0.66223 0.0
C405 C 0.95932 0.27577 0.66194 0.0
N406 N 0.91326 0.34062 0.62046 0.0
N407 N 1.00061 0.15696 0.61603 0.0
C408 C 0.93616 0.29593 0.61985 0.0
C409 C 0.98592 0.20416 0.61837 0.0
N410 N 0.91373 0.28376 0.53631 0.0
N411 N 0.99688 0.20771 0.70412 0.0
H412 H 1.00025 0.13835 0.58383 0.0
H413 H 1.00785 0.13526 0.64546 0.0
H414 H 0.99023 0.22362 0.73701 0.0
H415 H 0.01765 0.17531 0.70654 0.0
H416 H 0.8858 0.31149 0.53495 0.0
H417 H 0.91437 0.26281 0.5056 0.0
H418 H 0.901 0.35909 0.58999 0.0
H419 H 0.90885 0.36075 0.6513 0.0
C420 C 0.10239 0.79926 0.92955 0.0
C421 C 0.07518 0.77836 0.89003 0.0
C422 C 0.04688 0.71468 0.94107 0.0
C423 C 0.06057 0.74324 0.98062 0.0
N424 N 0.10943 0.80747 1.01514 0.0
N425 N 0.02446 0.7131 0.85732 0.0
C426 C 0.09235 0.78312 0.97578 0.0
C427 C 0.04972 0.73419 0.89509 0.0
N428 N 0.13781 0.83417 0.92288 0.0
N429 N 0.02887 0.66987 0.94836 0.0
H430 H 0.02436 0.72626 0.82292 0.0
H431 H 1.00062 0.68373 0.86042 0.0
H432 H 0.02676 0.65588 0.9825 0.0
H433 H 0.02136 0.64534 0.92127 0.0
H434 H 0.16264 0.84704 0.94972 0.0
H435 H 0.14592 0.84743 0.88966 0.0
H436 H 0.12625 0.84093 1.01408 0.0
H437 H 0.10566 0.79429 0.04933 0.0
C438 C 0.44854 0.75481 0.20423 0.0
C439 C 0.48745 0.71797 0.20956 0.0
C440 C 0.50844 0.72864 0.12456 0.0
C441 C 0.46486 0.76049 0.11767 0.0
N442 N 0.38952 0.8004 0.15133 0.0
N443 N 0.54878 0.66448 0.17111 0.0
C444 C 0.43399 0.77272 0.15774 0.0
C445 C 0.51607 0.70373 0.16873 0.0
N446 N 0.42519 0.77273 0.24367 0.0
N447 N 0.5424 0.72139 0.0886 0.0
H448 H 0.55464 0.64447 0.20173 0.0
H449 H 0.56628 0.64903 0.14171 0.0
H450 H 0.537 0.73731 0.0554 0.0
H451 H 0.57822 0.7031 0.09302 0.0
H452 H 0.40064 0.803 0.24328 0.0
H453 H 0.43388 0.75958 0.27765 0.0
H454 H 0.3619 0.8056 0.17736 0.0
H455 H 0.37821 0.81586 0.11897 0.0
C456 C 0.09421 0.30686 0.32817 0.0
C457 C 0.08565 0.25755 0.33222 0.0
C458 C 0.10815 0.24393 0.24959 0.0
C459 C 0.12132 0.29259 0.2468 0.0
N460 N 0.13083 0.37054 0.28341 0.0
N461 N 0.06844 0.18192 0.29535 0.0
C462 C 0.11501 0.32429 0.28595 0.0
C463 C 0.08789 0.22673 0.29244 0.0
N464 N 0.07999 0.33709 0.36408 0.0
N465 N 0.11709 0.21407 0.21203 0.0
H466 H 0.05124 0.16979 0.32595 0.0
H467 H 0.0643 0.15885 0.26654 0.0
H468 H 0.13165 0.22603 0.18014 0.0
H469 H 0.1134 0.17716 0.21324 0.0
H470 H 0.07978 0.37419 0.36166 0.0
H471 H 0.06383 0.32502 0.39525 0.0
H472 H 0.13312 0.39359 0.31241 0.0
H473 H 0.14539 0.38543 0.25294 0.0
C474 C 0.97766 0.92436 0.62608 0.0
C475 C 0.99884 0.8781 0.63714 0.0
C476 C 0.97578 0.85204 0.55588 0.0
C477 C 0.96011 0.89951 0.5443 0.0
N478 N 0.95505 0.98304 0.56579 0.0
N479 N 0.02609 0.80003 0.60886 0.0
C480 C 0.96479 0.93647 0.57837 0.0
C481 C 0.99996 0.84239 0.60102 0.0
N482 N 0.96473 0.95529 0.66155 0.0
N483 N 0.96716 0.81602 0.52387 0.0
H484 H 0.04438 0.79199 0.6411 0.0
H485 H 0.03356 0.77492 0.58238 0.0
H486 H 0.95254 0.82217 0.48941 0.0
H487 H 0.97161 0.77993 0.53239 0.0
H488 H 0.94516 0.98797 0.65592 0.0
H489 H 0.96637 0.94505 0.6968 0.0
H490 H 0.96369 1.0117 0.5882 0.0
H491 H 0.94262 0.9934 0.53176 0.0
C492 C 0.36441 0.66282 0.84292 0.0
C493 C 0.37888 0.67875 0.79732 0.0
C494 C 0.42955 0.74266 0.83607 0.0
C495 C 0.41867 0.72397 0.88171 0.0
N496 N 0.38527 0.65997 0.92749 0.0
N497 N 0.43333 0.72858 0.75117 0.0
C498 C 0.38907 0.68206 0.8847 0.0
C499 C 0.4138 0.71717 0.79411 0.0
N500 N 0.32485 0.63119 0.84663 0.0
N501 N 0.45183 0.78635 0.8324 0.0
H502 H 0.42274 0.71101 0.71975 0.0
H503 H 0.46348 0.75251 0.74734 0.0
H504 H 0.46337 0.80693 0.86156 0.0
H505 H 0.45451 0.8043 0.80034 0.0
H506 H 0.30897 0.62216 0.87887 0.0
H507 H 0.30386 0.61796 0.81733 0.0
H508 H 0.36845 0.62674 0.93137 0.0
H509 H 0.40363 0.67276 0.95844 0.0
C510 C 0.58479 0.21312 0.02978 0.0
C511 C 0.58376 0.18522 0.07179 0.0
C512 C 0.62252 0.11837 0.0281 0.0
C513 C 0.6354 0.14819 0.98965 0.0
N514 N 0.62528 0.22751 0.95467 0.0
N515 N 0.62143 0.11642 0.11253 0.0
C516 C 0.61536 0.19667 0.9904 0.0
C517 C 0.60793 0.13924 0.07131 0.0
N518 N 0.55517 0.25434 0.02658 0.0
N519 N 0.62393 0.06975 0.02403 0.0
H520 H 0.61975 0.13407 0.14482 0.0
H521 H 0.642 0.08372 0.11365 0.0
H522 H 0.63161 0.05216 0.99241 0.0
H523 H 0.61116 0.04753 0.05074 0.0
H524 H 0.54954 0.27354 0.9952 0.0
H525 H 0.53249 0.26707 0.05427 0.0
H526 H 0.6185 0.26428 0.9574 0.0
H527 H 0.64139 0.21729 0.92279 0.0
C528 C 0.65722 0.2687 0.69241 0.0
C529 C 0.65194 0.24412 0.64824 0.0
C530 C 0.66689 0.16818 0.69053 0.0
C531 C 0.68203 0.19329 0.73283 0.0
N532 N 0.69823 0.26957 0.77078 0.0
N533 N 0.65434 0.16996 0.60483 0.0
C534 C 0.67863 0.24414 0.73303 0.0
C535 C 0.65787 0.19372 0.64718 0.0
N536 N 0.64135 0.31554 0.69595 0.0
N537 N 0.6569 0.12047 0.69223 0.0
H538 H 0.64382 0.187 0.57302 0.0
H539 H 0.6649 0.13397 0.60101 0.0
H540 H 0.65702 0.10119 0.72372 0.0
H541 H 0.64152 0.1014 0.66344 0.0
H542 H 0.63884 0.33366 0.72817 0.0
H543 H 0.62542 0.33504 0.66746 0.0
H544 H 0.70042 0.30668 0.77095 0.0
H545 H 0.7183 0.25406 0.79967 0.0
C546 C 0.127 0.32999 0.96322 0.0
C547 C 0.10444 0.35537 1.00116 0.0
C548 C 0.03523 0.38643 0.94913 0.0
C549 C 0.05311 0.35786 0.91092 0.0
N550 N 0.11915 0.3019 0.88194 0.0
N551 N 0.02739 0.39147 0.03383 0.0
C552 C 0.09946 0.32855 0.91825 0.0
C553 C 0.05462 0.3769 0.99528 0.0
N554 N 0.17561 0.30934 0.96986 0.0
N555 N 1.00535 0.42669 0.94165 0.0
H556 H 0.04148 0.38501 0.06844 0.0
H557 H 0.98932 0.40582 0.03081 0.0
H558 H 0.99783 0.44082 0.90828 0.0
H559 H 0.9981 0.45102 0.96888 0.0
H560 H 0.19777 0.295 0.94264 0.0
H561 H 0.19416 0.30783 1.00335 0.0
H562 H 0.14779 0.27512 0.88689 0.0
H563 H 0.10758 0.30689 0.84658 0.0
C564 C 0.8696 0.81465 0.28417 0.0
C565 C 0.90657 0.84816 0.3001 0.0
C566 C 0.97023 0.8109 0.24783 0.0
C567 C 0.92902 0.7876 0.22213 0.0
N568 N 0.83634 0.76843 0.219 0.0
N569 N 0.99373 0.87844 0.29763 0.0
C570 C 0.87792 0.78908 0.24149 0.0
C571 C 0.95768 0.84613 0.28252 0.0
N572 N 0.8267 0.80678 0.31048 0.0
N573 N 0.02128 0.79784 0.24089 0.0
H574 H 0.98617 0.9036 0.32412 0.0
H575 H 0.02976 0.88189 0.28179 0.0
H576 H 0.03186 0.76843 0.22013 0.0
H577 H 0.05238 0.81166 0.26095 0.0
H578 H 0.80032 0.77975 0.30294 0.0
H579 H 0.82152 0.82347 0.34319 0.0
H580 H 0.79766 0.77511 0.22833 0.0
H581 H 0.83958 0.74641 0.18996 0.0
C582 C 0.37967 0.66725 0.50743 0.0
C583 C 0.3876 0.6228 0.53114 0.0
C584 C 0.4373 0.59397 0.46238 0.0
C585 C 0.4389 0.64089 0.44411 0.0
N586 N 0.41051 0.72355 0.45019 0.0
N587 N 0.42917 0.5444 0.5318 0.0
C588 C 0.41012 0.678 0.46731 0.0
C589 C 0.41838 0.58649 0.50882 0.0
N590 N 0.33997 0.69758 0.5204 0.0
N591 N 0.45038 0.55619 0.43425 0.0
H592 H 0.41567 0.53755 0.56551 0.0
H593 H 0.45531 0.51845 0.51924 0.0
H594 H 0.45508 0.5608 0.39811 0.0
H595 H 0.44742 0.52067 0.44452 0.0
H596 H 0.32914 0.72853 0.5018 0.0
H597 H 0.31369 0.68864 0.5461 0.0
H598 H 0.39618 0.753 0.46895 0.0
H599 H 0.4267 0.73193 0.41784 0.0
C600 C 0.2949 0.19288 0.27876 0.0
C601 C 0.29906 0.16947 0.32329 0.0
C602 C 0.38658 0.13851 0.30367 0.0
C603 C 0.37976 0.1579 0.25752 0.0
N604 N 0.31957 0.18982 0.19699 0.0
N605 N 0.34414 0.11085 0.37359 0.0
C606 C 0.3317 0.1812 0.24375 0.0
C607 C 0.34376 0.13992 0.33474 0.0
N608 N 0.25731 0.22767 0.27024 0.0
N609 N 0.4339 0.1187 0.31787 0.0
H610 H 0.31244 0.10838 0.39574 0.0
H611 H 0.37353 0.08526 0.38093 0.0
H612 H 0.46549 0.11533 0.29544 0.0
H613 H 0.44302 0.10903 0.35284 0.0
H614 H 0.25616 0.24862 0.23973 0.0
H615 H 0.23111 0.23947 0.29562 0.0
H616 H 0.28287 0.20276 0.18511 0.0
H617 H 0.34388 0.17931 0.16966 0.0
C618 C 0.16078 0.12674 0.58896 0.0
C619 C 0.171 0.11682 0.54092 0.0
C620 C 0.15249 0.0325 0.55317 0.0
C621 C 0.14746 0.04152 0.60237 0.0
N622 N 0.16407 0.09543 0.66849 0.0
N623 N 0.1886 0.0583 0.47964 0.0
C624 C 0.15651 0.08814 0.62084 0.0
C625 C 0.17149 0.06894 0.52399 0.0
N626 N 0.15402 0.17282 0.60411 0.0
N627 N 0.13544 0.99076 0.53338 0.0
H628 H 0.20188 0.08397 0.45655 0.0
H629 H 0.19411 0.02334 0.46754 0.0
H630 H 0.11713 0.96454 0.5525 0.0
H631 H 0.1335 0.98472 0.49688 0.0
H632 H 0.14082 0.1816 0.63774 0.0
H633 H 0.15709 0.20197 0.58162 0.0
H634 H 0.1748 0.12828 0.68287 0.0
H635 H 0.1666 0.06773 0.69304 0.0
C636 C 0.26114 0.94254 0.82931 0.0
C637 C 0.22601 0.90748 0.81076 0.0
C638 C 0.28617 0.84471 0.84081 0.0
C639 C 0.31678 0.87856 0.86575 0.0
N640 N 0.33633 0.96078 0.88139 0.0
N641 N 0.19928 0.82574 0.8152 0.0
C642 C 0.30561 0.92799 0.8588 0.0
C643 C 0.23707 0.85871 0.82075 0.0
N644 N 0.25087 0.98982 0.82024 0.0
N645 N 0.30346 0.79834 0.83767 0.0
H646 H 0.1605 0.83649 0.81082 0.0
H647 H 0.20447 0.78991 0.82462 0.0
H648 H 0.33928 0.78707 0.85267 0.0
H649 H 0.28498 0.77294 0.81625 0.0
H650 H 0.27749 0.01673 0.82699 0.0
H651 H 0.21519 1.00238 0.8056 0.0
H652 H 0.32783 0.9973 0.88223 0.0
H653 H 0.3703 0.95112 0.90074 0.0
C654 C 0.44853 0.98874 0.06798 0.0
C655 C 0.41494 0.02735 0.05403 0.0
C656 C 0.35346 0.97138 0.01724 0.0
C657 C 0.384 0.93239 0.03675 0.0
N658 N 0.45237 0.90683 0.09311 0.0
N659 N 0.33301 0.05664 0.02002 0.0
C660 C 0.42967 0.94172 0.06508 0.0
C661 C 0.36665 0.019 0.02993 0.0
N662 N 0.49813 0.99693 0.08521 0.0
N663 N 0.31292 0.96341 0.98567 0.0
H664 H 0.34318 0.09209 0.02614 0.0
H665 H 0.2943 0.0527 1.00828 0.0
H666 H 0.30297 0.92975 0.97321 0.0
H667 H 0.29207 0.99065 0.96788 0.0
H668 H 0.52593 0.96958 0.09136 0.0
H669 H 0.51337 0.03102 0.08842 0.0
H670 H 0.48294 0.91299 0.11751 0.0
H671 H 0.43589 0.87366 0.09732 0.0
C672 C 0.82319 0.44246 0.69957 0.0
C673 C 0.83346 0.40747 0.73518 0.0
C674 C 0.78378 0.34923 0.68827 0.0
C675 C 0.7679 0.3855 0.65525 0.0
N676 N 0.77123 0.46732 0.62977 0.0
N677 N 0.81288 0.3317 0.76872 0.0
C678 C 0.78709 0.43248 0.66114 0.0
C679 C 0.81063 0.36209 0.731 0.0
N680 N 0.84856 0.48486 0.70216 0.0
N681 N 0.77396 0.30228 0.67896 0.0
H682 H 0.82665 0.34236 0.80202 0.0
H683 H 0.79626 0.29819 0.76867 0.0
H684 H 0.75271 0.29053 0.64934 0.0
H685 H 0.79082 0.27426 0.69879 0.0
H686 H 0.84718 0.5101 0.67515 0.0
H687 H 0.87388 0.49363 0.73044 0.0
H688 H 0.77873 0.50341 0.6347 0.0
H689 H 0.74838 0.46021 0.59945 0.0
C690 C 0.89258 0.5461 0.98969 0.0
C691 C 0.89988 0.55242 0.94023 0.0
C692 C 0.89079 0.63975 0.95189 0.0
C693 C 0.87921 0.63256 0.99997 0.0
N694 N 0.85348 0.57745 0.06041 0.0
N695 N 0.8891 0.60591 0.8729 0.0
C696 C 0.87485 0.58534 0.01738 0.0
C697 C 0.89451 0.59949 0.92083 0.0
N698 N 0.90533 0.50376 1.01163 0.0
N699 N 0.89785 0.68497 0.93569 0.0
H700 H 0.88545 0.57779 0.84883 0.0
H701 H 0.88105 0.63911 0.85742 0.0
H702 H 0.89259 0.71526 0.95689 0.0
H703 H 0.91228 0.692 0.90235 0.0
H704 H 0.90715 0.50016 0.04843 0.0
H705 H 0.91963 0.47357 0.99449 0.0
H706 H 0.84456 0.54345 0.07221 0.0
H707 H 0.83938 0.60467 0.08215 0.0
C708 C 0.69036 0.67523 0.20487 0.0
C709 C 0.73074 0.64137 0.19619 0.0
C710 C 0.687 0.58304 0.24568 0.0
C711 C 0.64797 0.61836 0.25661 0.0
N712 N 0.63237 0.70366 0.26346 0.0
N713 N 0.77167 0.56435 0.21158 0.0
C714 C 0.65491 0.66598 0.24077 0.0
C715 C 0.73036 0.59557 0.21764 0.0
N716 N 0.68671 0.71755 0.18075 0.0
N717 N 0.68363 0.538 0.26332 0.0
H718 H 0.80226 0.57139 0.18917 0.0
H719 H 0.77708 0.53248 0.23014 0.0
H720 H 0.65855 0.53015 0.29031 0.0
H721 H 0.70575 0.50876 0.25167 0.0
H722 H 0.65357 0.74005 0.18181 0.0
H723 H 0.71426 0.72886 0.15712 0.0
H724 H 0.63863 0.73915 0.2548 0.0
H725 H 0.61716 0.69963 0.29649 0.0
C726 C 0.64841 0.48928 0.49219 0.0
C727 C 0.66419 0.44631 0.46875 0.0
C728 C 0.62805 0.47958 0.39331 0.0
C729 C 0.61525 0.52416 0.41594 0.0
N730 N 0.61741 0.57214 0.48726 0.0
N731 N 0.67609 0.40358 0.39538 0.0
C732 C 0.62731 0.52931 0.46538 0.0
C733 C 0.65653 0.44271 0.41883 0.0
N734 N 0.65156 0.49113 0.54059 0.0
N735 N 0.61103 0.47102 0.34773 0.0
H736 H 0.69354 0.37408 0.41245 0.0
H737 H 0.6787 0.40171 0.35864 0.0
H738 H 0.59135 0.49613 0.32651 0.0
H739 H 0.61298 0.43756 0.33154 0.0
H740 H 0.63519 0.51855 0.5608 0.0
H741 H 0.66746 0.46315 0.56098 0.0
H742 H 0.63117 0.58046 0.52135 0.0
H743 H 0.59752 0.60067 0.4706 0.0
C744 C 0.33245 0.35582 0.14051 0.0
C745 C 0.30941 0.36212 0.09504 0.0
C746 C 0.36382 0.2951 0.06606 0.0
C747 C 0.38009 0.28484 0.11368 0.0
N748 N 0.36449 0.29835 0.19746 0.0
N749 N 0.29972 0.33574 1.0138 0.0
C750 C 0.35944 0.31282 0.15129 0.0
C751 C 0.32398 0.3311 0.05739 0.0
N752 N 0.33268 0.3925 0.17238 0.0
N753 N 0.38784 0.2725 0.02932 0.0
H754 H 0.27166 0.36256 1.00617 0.0
H755 H 0.30481 0.31113 0.9864 0.0
H756 H 0.41798 0.24707 0.03437 0.0
H757 H 0.38097 0.2819 0.99395 0.0
H758 H 0.3532 0.39041 0.2049 0.0
H759 H 0.31995 0.42682 0.1627 0.0
H760 H 0.34613 0.31663 0.22494 0.0
H761 H 0.38146 0.26563 0.20761 0.0
C762 C 0.82457 0.28722 0.90339 0.0
C763 C 0.87924 0.28693 0.8955 0.0
C764 C 0.88426 0.20057 0.91356 0.0
C765 C 0.82958 0.20069 0.92124 0.0
N766 N 0.7512 0.24669 0.93682 0.0
N767 N 0.96266 0.2472 0.90926 0.0
C768 C 0.80077 0.24487 0.92017 0.0
C769 C 0.90949 0.24461 0.90528 0.0
N770 N 0.79508 0.32758 0.89379 0.0
N771 N 0.91228 0.15832 0.91384 0.0
H772 H 0.98124 0.27976 0.90823 0.0
H773 H 0.98734 0.21884 0.91997 0.0
H774 H 0.89598 0.12564 0.92175 0.0
H775 H 0.95081 0.15514 0.90298 0.0
H776 H 0.75429 0.32848 0.89273 0.0
H777 H 0.81162 0.3598 0.88454 0.0
H778 H 0.72942 0.2783 0.94097 0.0
H779 H 0.73404 0.21689 0.95118 0.0
C780 C 0.02368 0.51282 0.17871 0.0
C781 C 0.05455 0.49961 0.13913 0.0
C782 C 1.0115 0.56532 0.09374 0.0
C783 C 0.98986 0.5838 0.13618 0.0
N784 N 0.97759 0.57663 0.22003 0.0
N785 N 0.06713 0.50798 0.05491 0.0
C786 C 0.99626 0.55783 0.1789 0.0
C787 C 0.04509 0.5242 0.09547 0.0
N788 N 1.01663 0.48096 0.21435 0.0
N789 N 0.99798 0.58581 0.05097 0.0
H790 H 0.07494 0.47205 0.04909 0.0
H791 H 0.07365 0.52946 0.02575 0.0
H792 H 0.97452 0.61641 0.0474 0.0
H793 H 1.00641 0.57076 0.01819 0.0
H794 H 0.99176 0.48773 0.24231 0.0
H795 H 0.02823 0.44512 0.21205 0.0
H796 H 0.98652 0.5619 0.25325 0.0
H797 H 0.95661 0.60906 0.22127 0.0
C798 C 0.7373 0.82077 0.43321 0.0
C799 C 0.73863 0.8587 0.39965 0.0
C800 C 0.66922 0.81978 0.35194 0.0
C801 C 0.66477 0.78465 0.38767 0.0
N802 N 0.6887 0.75605 0.46596 0.0
N803 N 0.72185 0.87957 0.31733 0.0
C804 C 0.69732 0.78627 0.42921 0.0
C805 C 0.70905 0.85424 0.3563 0.0
N806 N 0.77791 0.81391 0.46537 0.0
N807 N 0.63445 0.82163 0.31408 0.0
H808 H 0.74902 0.90632 0.31779 0.0
H809 H 0.70865 0.87101 0.28306 0.0
H810 H 0.60584 0.79652 0.30742 0.0
H811 H 0.63131 0.85051 0.29088 0.0
H812 H 0.78136 0.78457 0.48792 0.0
H813 H 0.81243 0.83277 0.46439 0.0
H814 H 0.70675 0.75948 0.4994 0.0
H815 H 0.6597 0.73046 0.46464 0.0
C816 C 0.43662 0.41572 0.61588 0.0
C817 C 0.48696 0.43555 0.62383 0.0
C818 C 0.44595 0.5074 0.65731 0.0
C819 C 0.39615 0.48553 0.65353 0.0
N820 N 0.3464 0.41468 0.64001 0.0
N821 N 0.54004 0.49539 0.66226 0.0
C822 C 0.39222 0.43829 0.63627 0.0
C823 C 0.49183 0.48002 0.64744 0.0
N824 N 0.43049 0.37709 0.58657 0.0
N825 N 0.44965 0.55481 0.66847 0.0
H826 H 0.57465 0.47581 0.65703 0.0
H827 H 0.54521 0.52513 0.68412 0.0
H828 H 0.41766 0.5767 0.67659 0.0
H829 H 0.48413 0.57355 0.66563 0.0
H830 H 0.39394 0.36428 0.57617 0.0
H831 H 0.46118 0.36117 0.56826 0.0
H832 H 0.34265 0.37858 0.63169 0.0
H833 H 0.31377 0.42996 0.65618 0.0
C834 C 0.15502 0.69499 0.64159 0.0
C835 C 0.20747 0.69217 0.62731 0.0
C836 C 0.21354 0.77938 0.63951 0.0
C837 C 0.16374 0.78085 0.66034 0.0
N838 N 0.09431 0.73402 0.69315 0.0
N839 N 0.29091 0.73057 0.62656 0.0
C840 C 0.13641 0.73701 0.66474 0.0
C841 C 0.23791 0.73413 0.62959 0.0
N842 N 0.12281 0.65728 0.63392 0.0
N843 N 0.23906 0.8207 0.63138 0.0
H844 H 0.31029 0.69777 0.62406 0.0
H845 H 0.31569 0.75913 0.63257 0.0
H846 H 0.22418 0.85437 0.64056 0.0
H847 H 0.27312 0.82159 0.61203 0.0
H848 H 0.08264 0.6595 0.63937 0.0
H849 H 0.13524 0.62524 0.61835 0.0
H850 H 0.07758 0.70169 0.7016 0.0
H851 H 0.07793 0.76288 0.71101 0.0
C852 C 0.56292 0.97923 0.93732 0.0
C853 C 0.57312 0.9293 0.93249 0.0
C854 C 0.65897 0.94768 0.89981 0.0
C855 C 0.64489 0.99708 0.89839 0.0
N856 N 0.57749 0.05849 0.90808 0.0
N857 N 0.62846 0.86645 0.9 0.0
C858 C 0.59484 1.01227 0.91424 0.0
C859 C 0.62083 0.91348 0.91179 0.0
N860 N 0.52456 0.99562 0.96637 0.0
N861 N 0.70836 0.93314 0.88839 0.0
H862 H 0.60075 0.84047 0.90474 0.0
H863 H 0.66001 0.85392 0.88056 0.0
H864 H 0.73589 0.95688 0.87687 0.0
H865 H 0.72312 0.89854 0.89413 0.0
H866 H 0.51896 0.03164 0.97488 0.0
H867 H 0.50298 0.97301 0.98692 0.0
H868 H 0.53895 0.06957 0.91392 0.0
H869 H 0.60025 0.08525 0.8946 0.0
C870 C 1.00034 0.03252 0.33533 0.0
C871 C 0.95919 0.03115 0.36855 0.0
C872 C 0.02109 0.05824 0.42926 0.0
C873 C 0.05487 0.07481 0.39463 0.0
N874 N 0.08035 0.07123 0.31309 0.0
N875 N 0.93004 0.06294 0.44351 0.0
C876 C 0.0461 0.05959 0.34699 0.0
C877 C 0.96951 0.04832 0.41512 0.0
N878 N 0.9967 1.00746 0.29379 0.0
N879 N 0.03581 0.05879 0.47608 0.0
H880 H 0.89262 0.07015 0.42946 0.0
H881 H 0.93692 0.07753 0.47719 0.0
H882 H 0.07329 0.06853 0.4872 0.0
H883 H 1.01207 0.04596 0.50237 0.0
H884 H 0.02729 1.00438 0.27032 0.0
H885 H 0.96545 0.98551 0.28522 0.0
H886 H 0.07276 0.06589 0.27697 0.0
H887 H 0.11576 0.08745 0.32127 0.0
loop_
_geom_bond_atom_site_label_1
_geom_bond_atom_site_label_2
_geom_bond_distance
_geom_bond_site_symmetry_2
_ccdc_geom_bond_type
Tb0 O3 2.453 . S
Tb0 O4 2.596 . S
Tb0 O5 2.374 . S
Tb0 O13 2.343 . S
Tb0 O15 2.353 . S
Tb0 O17 2.427 . S
Tb0 O18 2.513 . S
C1 O5 1.251 . S
C1 O7 1.263 . S
Tb2 O4 2.343 . S
Tb2 O7 2.353 . S
Tb2 O10 2.427 . S
Tb2 O11 2.513 . S
Tb2 O12 2.453 . S
Tb2 O13 2.596 . S
Tb2 O14 2.374 . S
O3 Tb0 2.453 . S
O3 C19 1.245 . S
O4 Tb0 2.596 . S
O4 Tb2 2.343 . S
O4 C19 1.259 . S
O5 Tb0 2.374 . S
O5 C1 1.251 . S
C6 O10 1.275 . S
C6 O11 1.246 . S
O7 C1 1.263 . S
O7 Tb2 2.353 . S
C8 O12 1.245 . S
C8 O13 1.259 . S
C9 O14 1.250 . S
C9 O15 1.263 . S
O10 Tb2 2.427 . S
O10 C6 1.275 . S
O11 Tb2 2.513 . S
O11 C6 1.246 . S
O12 Tb2 2.453 . S
O12 C8 1.245 . S
O13 Tb0 2.343 . S
O13 Tb2 2.596 . S
O13 C8 1.259 . S
O14 Tb2 2.374 . S
O14 C9 1.250 . S
O15 Tb0 2.353 . S
O15 C9 1.263 . S
C16 O17 1.275 . S
C16 O18 1.246 . S
O17 Tb0 2.427 . S
O17 C16 1.275 . S
O18 Tb0 2.513 . S
O18 C16 1.246 . S
C19 O3 1.245 . S
C19 O4 1.259 . S
Tb20 O23 2.453 . S
Tb20 O24 2.596 . S
Tb20 O25 2.374 . S
Tb20 O33 2.343 . S
Tb20 O35 2.353 . S
Tb20 O37 2.427 . S
Tb20 O38 2.513 . S
C21 O25 1.251 . S
C21 O27 1.263 . S
Tb22 O24 2.343 . S
Tb22 O27 2.353 . S
Tb22 O30 2.427 . S
Tb22 O31 2.513 . S
Tb22 O32 2.453 1_455 S
Tb22 O33 2.596 . S
Tb22 O34 2.373 . S
O23 Tb20 2.453 . S
O23 C39 1.245 . S
O24 Tb20 2.596 . S
O24 Tb22 2.343 . S
O24 C39 1.259 . S
O25 Tb20 2.374 . S
O25 C21 1.251 . S
C26 O30 1.275 . S
C26 O31 1.246 . S
O27 C21 1.263 . S
O27 Tb22 2.353 . S
C28 O32 1.245 1_455 S
C28 O33 1.259 . S
C29 O34 1.250 . S
C29 O35 1.263 . S
O30 Tb22 2.427 . S
O30 C26 1.275 . S
O31 Tb22 2.513 . S
O31 C26 1.246 . S
O32 Tb22 2.453 1_655 S
O32 C28 1.245 1_655 S
O33 Tb20 2.343 . S
O33 Tb22 2.596 . S
O33 C28 1.259 . S
O34 Tb22 2.373 . S
O34 C29 1.250 . S
O35 Tb20 2.353 . S
O35 C29 1.263 . S
C36 O37 1.275 . S
C36 O38 1.246 . S
O37 Tb20 2.427 . S
O37 C36 1.275 . S
O38 Tb20 2.513 . S
O38 C36 1.246 . S
C39 O23 1.245 . S
C39 O24 1.259 . S
Tb40 O43 2.453 . S
Tb40 O44 2.596 . S
Tb40 O45 2.374 . S
Tb40 O53 2.343 . S
Tb40 O55 2.353 . S
Tb40 O57 2.427 . S
Tb40 O58 2.513 . S
C41 O45 1.251 . S
C41 O47 1.263 . S
Tb42 O44 2.343 . S
Tb42 O47 2.353 . S
Tb42 O50 2.427 . S
Tb42 O51 2.513 1_556 S
Tb42 O52 2.453 1_556 S
Tb42 O53 2.596 . S
Tb42 O54 2.374 1_556 S
O43 Tb40 2.453 . S
O43 C59 1.245 . S
O44 Tb40 2.596 . S
O44 Tb42 2.343 . S
O44 C59 1.259 . S
O45 Tb40 2.374 . S
O45 C41 1.251 . S
C46 O50 1.275 . S
C46 O51 1.246 1_556 S
O47 C41 1.263 . S
O47 Tb42 2.353 . S
C48 O52 1.245 . S
C48 O53 1.259 1_554 S
C49 O54 1.250 . S
C49 O55 1.263 1_554 S
O50 Tb42 2.427 . S
O50 C46 1.275 . S
O51 Tb42 2.513 1_554 S
O51 C46 1.246 1_554 S
O52 Tb42 2.453 1_554 S
O52 C48 1.245 . S
O53 Tb40 2.343 . S
O53 Tb42 2.596 . S
O53 C48 1.259 1_556 S
O54 Tb42 2.374 1_554 S
O54 C49 1.250 . S
O55 Tb40 2.353 . S
O55 C49 1.263 1_556 S
C56 O57 1.275 . S
C56 O58 1.246 . S
O57 Tb40 2.427 . S
O57 C56 1.275 . S
O58 Tb40 2.513 . S
O58 C56 1.246 . S
C59 O43 1.245 . S
C59 O44 1.259 . S
Tb60 O63 2.453 . S
Tb60 O64 2.596 . S
Tb60 O65 2.374 . S
Tb60 O73 2.343 . S
Tb60 O75 2.353 . S
Tb60 O77 2.427 . S
Tb60 O78 2.513 . S
C61 O65 1.251 . S
C61 O67 1.263 . S
Tb62 O64 2.343 . S
Tb62 O67 2.353 . S
Tb62 O70 2.427 . S
Tb62 O71 2.513 . S
Tb62 O72 2.453 . S
Tb62 O73 2.596 . S
Tb62 O74 2.374 . S
O63 Tb60 2.453 . S
O63 C79 1.245 . S
O64 Tb60 2.596 . S
O64 Tb62 2.343 . S
O64 C79 1.259 . S
O65 Tb60 2.374 . S
O65 C61 1.251 . S
C66 O70 1.275 . S
C66 O71 1.246 . S
O67 C61 1.263 . S
O67 Tb62 2.353 . S
C68 O72 1.245 . S
C68 O73 1.259 . S
C69 O74 1.250 . S
C69 O75 1.263 . S
O70 Tb62 2.427 . S
O70 C66 1.275 . S
O71 Tb62 2.513 . S
O71 C66 1.246 . S
O72 Tb62 2.453 . S
O72 C68 1.245 . S
O73 Tb60 2.343 . S
O73 Tb62 2.596 . S
O73 C68 1.259 . S
O74 Tb62 2.374 . S
O74 C69 1.250 . S
O75 Tb60 2.353 . S
O75 C69 1.263 . S
C76 O77 1.275 . S
C76 O78 1.246 . S
O77 Tb60 2.427 . S
O77 C76 1.275 . S
O78 Tb60 2.513 . S
O78 C76 1.246 . S
C79 O63 1.245 . S
C79 O64 1.259 . S
Tb80 O83 2.453 . S
Tb80 O84 2.596 . S
Tb80 O85 2.374 . S
Tb80 O93 2.343 . S
Tb80 O95 2.353 . S
Tb80 O97 2.427 . S
Tb80 O98 2.513 . S
C81 O85 1.251 . S
C81 O87 1.263 . S
Tb82 O84 2.343 . S
Tb82 O87 2.353 . S
Tb82 O90 2.427 . S
Tb82 O91 2.513 . S
Tb82 O92 2.453 . S
Tb82 O93 2.596 . S
Tb82 O94 2.374 . S
O83 Tb80 2.453 . S
O83 C99 1.245 . S
O84 Tb80 2.596 . S
O84 Tb82 2.343 . S
O84 C99 1.259 . S
O85 Tb80 2.374 . S
O85 C81 1.251 . S
C86 O90 1.275 . S
C86 O91 1.246 . S
O87 C81 1.263 . S
O87 Tb82 2.353 . S
C88 O92 1.245 . S
C88 O93 1.259 . S
C89 O94 1.250 . S
C89 O95 1.263 . S
O90 Tb82 2.427 . S
O90 C86 1.275 . S
O91 Tb82 2.513 . S
O91 C86 1.246 . S
O92 Tb82 2.453 . S
O92 C88 1.245 . S
O93 Tb80 2.343 . S
O93 Tb82 2.596 . S
O93 C88 1.259 . S
O94 Tb82 2.374 . S
O94 C89 1.250 . S
O95 Tb80 2.353 . S
O95 C89 1.263 . S
C96 O97 1.275 . S
C96 O98 1.246 . S
O97 Tb80 2.427 . S
O97 C96 1.275 . S
O98 Tb80 2.513 . S
O98 C96 1.246 . S
C99 O83 1.245 . S
C99 O84 1.259 . S
Tb100 O103 2.453 . S
Tb100 O104 2.596 . S
Tb100 O105 2.374 . S
Tb100 O113 2.343 . S
Tb100 O115 2.353 . S
Tb100 O117 2.427 . S
Tb100 O118 2.513 . S
C101 O105 1.251 . S
C101 O107 1.263 . S
Tb102 O104 2.343 . S
Tb102 O107 2.353 . S
Tb102 O110 2.427 . S
Tb102 O111 2.513 . S
Tb102 O112 2.453 1_655 S
Tb102 O113 2.596 . S
Tb102 O114 2.374 1_655 S
O103 Tb100 2.453 . S
O103 C119 1.245 . S
O104 Tb100 2.596 . S
O104 Tb102 2.343 . S
O104 C119 1.259 . S
O105 Tb100 2.374 . S
O105 C101 1.251 . S
C106 O110 1.275 . S
C106 O111 1.246 . S
O107 C101 1.263 . S
O107 Tb102 2.353 . S
C108 O112 1.245 . S
C108 O113 1.259 1_455 S
C109 O114 1.250 . S
C109 O115 1.263 1_455 S
O110 Tb102 2.427 . S
O110 C106 1.275 . S
O111 Tb102 2.513 . S
O111 C106 1.246 . S
O112 Tb102 2.453 1_455 S
O112 C108 1.245 . S
O113 Tb100 2.343 . S
O113 Tb102 2.596 . S
O113 C108 1.259 1_655 S
O114 Tb102 2.374 1_455 S
O114 C109 1.250 . S
O115 Tb100 2.353 . S
O115 C109 1.263 1_655 S
C116 O117 1.275 . S
C116 O118 1.246 . S
O117 Tb100 2.427 . S
O117 C116 1.275 . S
O118 Tb100 2.513 . S
O118 C116 1.246 . S
C119 O103 1.245 . S
C119 O104 1.259 . S
Tb120 O123 2.453 . S
Tb120 O124 2.596 . S
Tb120 O125 2.374 . S
Tb120 O133 2.343 . S
Tb120 O135 2.353 . S
Tb120 O137 2.427 . S
Tb120 O138 2.513 . S
C121 O125 1.251 . S
C121 O127 1.263 . S
Tb122 O124 2.343 . S
Tb122 O127 2.353 . S
Tb122 O130 2.427 1_655 S
Tb122 O131 2.513 1_554 S
Tb122 O132 2.453 . S
Tb122 O133 2.596 . S
Tb122 O134 2.374 . S
O123 Tb120 2.453 . S
O123 C139 1.245 . S
O124 Tb120 2.596 . S
O124 Tb122 2.343 . S
O124 C139 1.259 . S
O125 Tb120 2.374 . S
O125 C121 1.251 . S
C126 O130 1.275 1_556 S
C126 O131 1.246 1_455 S
O127 C121 1.263 . S
O127 Tb122 2.353 . S
C128 O132 1.245 . S
C128 O133 1.259 . S
C129 O134 1.250 . S
C129 O135 1.263 . S
O130 Tb122 2.427 1_455 S
O130 C126 1.275 1_554 S
O131 Tb122 2.513 1_556 S
O131 C126 1.246 1_655 S
O132 Tb122 2.453 . S
O132 C128 1.245 . S
O133 Tb120 2.343 . S
O133 Tb122 2.596 . S
O133 C128 1.259 . S
O134 Tb122 2.374 . S
O134 C129 1.250 . S
O135 Tb120 2.353 . S
O135 C129 1.263 . S
C136 O137 1.275 . S
C136 O138 1.246 . S
O137 Tb120 2.427 . S
O137 C136 1.275 . S
O138 Tb120 2.513 . S
O138 C136 1.246 . S
C139 O123 1.245 . S
C139 O124 1.259 . S
Tb140 O143 2.453 . S
Tb140 O144 2.596 . S
Tb140 O145 2.374 . S
Tb140 O153 2.343 . S
Tb140 O155 2.353 . S
Tb140 O157 2.427 . S
Tb140 O158 2.513 . S
C141 O145 1.251 . S
C141 O147 1.263 . S
Tb142 O144 2.343 . S
Tb142 O147 2.353 . S
Tb142 O150 2.427 . S
Tb142 O151 2.513 . S
Tb142 O152 2.453 . S
Tb142 O153 2.596 . S
Tb142 O154 2.374 . S
O143 Tb140 2.453 . S
O143 C159 1.245 . S
O144 Tb140 2.596 . S
O144 Tb142 2.343 . S
O144 C159 1.259 . S
O145 Tb140 2.374 . S
O145 C141 1.251 . S
C146 O150 1.275 . S
C146 O151 1.246 . S
O147 C141 1.263 . S
O147 Tb142 2.353 . S
C148 O152 1.245 . S
C148 O153 1.259 . S
C149 O154 1.250 . S
C149 O155 1.263 . S
O150 Tb142 2.427 . S
O150 C146 1.275 . S
O151 Tb142 2.513 . S
O151 C146 1.246 . S
O152 Tb142 2.453 . S
O152 C148 1.245 . S
O153 Tb140 2.343 . S
O153 Tb142 2.596 . S
O153 C148 1.259 . S
O154 Tb142 2.374 . S
O154 C149 1.250 . S
O155 Tb140 2.353 . S
O155 C149 1.263 . S
C156 O157 1.275 . S
C156 O158 1.246 . S
O157 Tb140 2.427 . S
O157 C156 1.275 . S
O158 Tb140 2.513 . S
O158 C156 1.246 . S
C159 O143 1.245 . S
C159 O144 1.259 . S
Tb160 O163 2.453 . S
Tb160 O164 2.596 . S
Tb160 O165 2.374 . S
Tb160 O173 2.343 . S
Tb160 O175 2.353 . S
Tb160 O177 2.427 . S
Tb160 O178 2.513 . S
C161 O165 1.251 . S
C161 O167 1.263 . S
Tb162 O164 2.343 . S
Tb162 O167 2.353 . S
Tb162 O170 2.427 . S
Tb162 O171 2.513 . S
Tb162 O172 2.453 . S
Tb162 O173 2.596 . S
Tb162 O174 2.374 . S
O163 Tb160 2.453 . S
O163 C179 1.245 . S
O164 Tb160 2.596 . S
O164 Tb162 2.343 . S
O164 C179 1.259 . S
O165 Tb160 2.374 . S
O165 C161 1.251 . S
C166 O170 1.275 . S
C166 O171 1.246 . S
O167 C161 1.263 . S
O167 Tb162 2.353 . S
C168 O172 1.245 . S
C168 O173 1.259 . S
C169 O174 1.250 . S
C169 O175 1.263 . S
O170 Tb162 2.427 . S
O170 C166 1.275 . S
O171 Tb162 2.513 . S
O171 C166 1.246 . S
O172 Tb162 2.453 . S
O172 C168 1.245 . S
O173 Tb160 2.343 . S
O173 Tb162 2.596 . S
O173 C168 1.259 . S
O174 Tb162 2.374 . S
O174 C169 1.250 . S
O175 Tb160 2.353 . S
O175 C169 1.263 . S
C176 O177 1.275 . S
C176 O178 1.246 . S
O177 Tb160 2.427 . S
O177 C176 1.275 . S
O178 Tb160 2.513 . S
O178 C176 1.246 . S
C179 O163 1.245 . S
C179 O164 1.259 . S
Tb180 O183 2.453 1_545 S
Tb180 O184 2.596 . S
Tb180 O185 2.374 . S
Tb180 O193 2.343 . S
Tb180 O195 2.353 . S
Tb180 O197 2.427 . S
Tb180 O198 2.513 . S
C181 O185 1.251 . S
C181 O187 1.263 . S
Tb182 O184 2.343 . S
Tb182 O187 2.353 . S
Tb182 O190 2.427 1_545 S
Tb182 O191 2.513 1_545 S
Tb182 O192 2.453 . S
Tb182 O193 2.596 . S
Tb182 O194 2.374 . S
O183 Tb180 2.453 1_565 S
O183 C199 1.245 . S
O184 Tb180 2.596 . S
O184 Tb182 2.343 . S
O184 C199 1.259 1_545 S
O185 Tb180 2.374 . S
O185 C181 1.251 . S
C186 O190 1.275 . S
C186 O191 1.246 . S
O187 C181 1.263 . S
O187 Tb182 2.353 . S
C188 O192 1.245 . S
C188 O193 1.259 . S
C189 O194 1.250 . S
C189 O195 1.263 . S
O190 Tb182 2.427 1_565 S
O190 C186 1.275 . S
O191 Tb182 2.513 1_565 S
O191 C186 1.246 . S
O192 Tb182 2.453 . S
O192 C188 1.245 . S
O193 Tb180 2.343 . S
O193 Tb182 2.596 . S
O193 C188 1.259 . S
O194 Tb182 2.374 . S
O194 C189 1.250 . S
O195 Tb180 2.353 . S
O195 C189 1.263 . S
C196 O197 1.275 . S
C196 O198 1.246 . S
O197 Tb180 2.427 . S
O197 C196 1.275 . S
O198 Tb180 2.513 . S
O198 C196 1.246 . S
C199 O183 1.245 . S
C199 O184 1.259 1_565 S
Tb200 O203 2.453 . S
Tb200 O204 2.596 . S
Tb200 O205 2.374 . S
Tb200 O213 2.343 . S
Tb200 O215 2.353 . S
Tb200 O217 2.427 . S
Tb200 O218 2.513 . S
C201 O205 1.251 . S
C201 O207 1.263 . S
Tb202 O204 2.343 . S
Tb202 O207 2.353 . S
Tb202 O210 2.427 . S
Tb202 O211 2.513 1_565 S
Tb202 O212 2.453 1_565 S
Tb202 O213 2.596 . S
Tb202 O214 2.374 1_565 S
O203 Tb200 2.453 . S
O203 C219 1.245 . S
O204 Tb200 2.596 . S
O204 Tb202 2.343 . S
O204 C219 1.259 . S
O205 Tb200 2.374 . S
O205 C201 1.251 . S
C206 O210 1.275 . S
C206 O211 1.246 1_565 S
O207 C201 1.263 . S
O207 Tb202 2.353 . S
C208 O212 1.245 . S
C208 O213 1.259 1_545 S
C209 O214 1.250 . S
C209 O215 1.263 1_545 S
O210 Tb202 2.427 . S
O210 C206 1.275 . S
O211 Tb202 2.513 1_545 S
O211 C206 1.246 1_545 S
O212 Tb202 2.453 1_545 S
O212 C208 1.245 . S
O213 Tb200 2.343 . S
O213 Tb202 2.596 . S
O213 C208 1.259 1_565 S
O214 Tb202 2.374 1_545 S
O214 C209 1.250 . S
O215 Tb200 2.353 . S
O215 C209 1.263 1_565 S
C216 O217 1.275 . S
C216 O218 1.246 . S
O217 Tb200 2.427 . S
O217 C216 1.275 . S
O218 Tb200 2.513 . S
O218 C216 1.246 . S
C219 O203 1.245 . S
C219 O204 1.259 . S
Tb220 O223 2.453 . S
Tb220 O224 2.596 . S
Tb220 O225 2.374 . S
Tb220 O233 2.343 . S
Tb220 O235 2.353 . S
Tb220 O237 2.427 . S
Tb220 O238 2.513 . S
C221 O225 1.251 . S
C221 O227 1.263 . S
Tb222 O224 2.343 . S
Tb222 O227 2.353 . S
Tb222 O230 2.427 . S
Tb222 O231 2.513 . S
Tb222 O232 2.453 . S
Tb222 O233 2.596 . S
Tb222 O234 2.374 . S
O223 Tb220 2.453 . S
O223 C239 1.245 . S
O224 Tb220 2.596 . S
O224 Tb222 2.343 . S
O224 C239 1.259 . S
O225 Tb220 2.374 . S
O225 C221 1.251 . S
C226 O230 1.275 . S
C226 O231 1.246 . S
O227 C221 1.263 . S
O227 Tb222 2.353 . S
C228 O232 1.245 . S
C228 O233 1.259 . S
C229 O234 1.250 . S
C229 O235 1.263 . S
O230 Tb222 2.427 . S
O230 C226 1.275 . S
O231 Tb222 2.513 . S
O231 C226 1.246 . S
O232 Tb222 2.453 . S
O232 C228 1.245 . S
O233 Tb220 2.343 . S
O233 Tb222 2.596 . S
O233 C228 1.259 . S
O234 Tb222 2.374 . S
O234 C229 1.250 . S
O235 Tb220 2.353 . S
O235 C229 1.263 . S
C236 O237 1.275 . S
C236 O238 1.246 . S
O237 Tb220 2.427 . S
O237 C236 1.275 . S
O238 Tb220 2.513 . S
O238 C236 1.246 . S
C239 O223 1.245 . S
C239 O224 1.259 . S
C240 C241 1.363 . S
C240 C246 1.379 . S
C240 N248 1.356 . S
C241 C240 1.363 . S
C241 C247 1.363 . S
C242 C243 1.363 . S
C242 C247 1.379 . S
C242 N249 1.356 . S
C243 C242 1.363 . S
C243 C246 1.363 . S
N244 C246 1.356 . S
N244 H256 0.984 . S
N244 H257 0.985 . S
N245 C247 1.356 . S
N245 H250 0.984 . S
N245 H251 0.985 . S
C246 C240 1.379 . S
C246 C243 1.363 . S
C246 N244 1.356 . S
C247 C241 1.363 . S
C247 C242 1.379 . S
C247 N245 1.356 . S
N248 C240 1.356 . S
N248 H254 0.984 . S
N248 H255 0.984 . S
N249 C242 1.356 . S
N249 H252 0.984 . S
N249 H253 0.985 . S
H250 N245 0.984 . S
H251 N245 0.985 . S
H252 N249 0.984 . S
H253 N249 0.985 . S
H254 N248 0.984 . S
H255 N248 0.984 . S
H256 N244 0.984 . S
H257 N244 0.985 . S
C258 C259 1.363 1_565 S
C258 C264 1.379 . S
C258 N266 1.356 . S
C259 C258 1.363 1_545 S
C259 C265 1.363 . S
C260 C261 1.363 1_545 S
C260 C265 1.379 . S
C260 N267 1.356 . S
C261 C260 1.363 1_565 S
C261 C264 1.363 . S
N262 C264 1.356 . S
N262 H274 0.984 . S
N262 H275 0.985 . S
N263 C265 1.356 . S
N263 H268 0.984 . S
N263 H269 0.985 . S
C264 C258 1.379 . S
C264 C261 1.363 . S
C264 N262 1.356 . S
C265 C259 1.363 . S
C265 C260 1.379 . S
C265 N263 1.356 . S
N266 C258 1.356 . S
N266 H272 0.984 . S
N266 H273 0.984 . S
N267 C260 1.356 . S
N267 H270 0.984 1_655 S
N267 H271 0.985 . S
H268 N263 0.984 . S
H269 N263 0.985 . S
H270 N267 0.984 1_455 S
H271 N267 0.985 . S
H272 N266 0.984 . S
H273 N266 0.984 . S
H274 N262 0.984 . S
H275 N262 0.985 . S
C276 C277 1.363 . S
C276 C282 1.379 . S
C276 N284 1.356 . S
C277 C276 1.363 . S
C277 C283 1.363 . S
C278 C279 1.363 . S
C278 C283 1.379 1_554 S
C278 N285 1.356 . S
C279 C278 1.363 . S
C279 C282 1.363 1_554 S
N280 C282 1.356 . S
N280 H292 0.984 . S
N280 H293 0.985 1_556 S
N281 C283 1.356 . S
N281 H286 0.984 . S
N281 H287 0.985 1_556 S
C282 C276 1.379 . S
C282 C279 1.363 1_556 S
C282 N280 1.356 . S
C283 C277 1.363 . S
C283 C278 1.379 1_556 S
C283 N281 1.356 . S
N284 C276 1.356 . S
N284 H290 0.984 . S
N284 H291 0.984 . S
N285 C278 1.356 . S
N285 H288 0.984 . S
N285 H289 0.985 . S
H286 N281 0.984 . S
H287 N281 0.985 1_554 S
H288 N285 0.984 . S
H289 N285 0.985 . S
H290 N284 0.984 . S
H291 N284 0.984 . S
H292 N280 0.984 . S
H293 N280 0.985 1_554 S
C294 C295 1.363 . S
C294 C300 1.379 1_545 S
C294 N302 1.356 1_545 S
C295 C294 1.363 . S
C295 C301 1.363 . S
C296 C297 1.363 1_545 S
C296 C301 1.379 . S
C296 N303 1.356 . S
C297 C296 1.363 1_565 S
C297 C300 1.363 . S
N298 C300 1.356 . S
N298 H310 0.984 . S
N298 H311 0.985 . S
N299 C301 1.356 . S
N299 H304 0.984 . S
N299 H305 0.985 . S
C300 C294 1.379 1_565 S
C300 C297 1.363 . S
C300 N298 1.356 . S
C301 C295 1.363 . S
C301 C296 1.379 . S
C301 N299 1.356 . S
N302 C294 1.356 1_565 S
N302 H308 0.984 . S
N302 H309 0.984 1_565 S
N303 C296 1.356 . S
N303 H306 0.984 . S
N303 H307 0.985 . S
H304 N299 0.984 . S
H305 N299 0.985 . S
H306 N303 0.984 . S
H307 N303 0.985 . S
H308 N302 0.984 . S
H309 N302 0.984 1_545 S
H310 N298 0.984 . S
H311 N298 0.985 . S
C312 C313 1.363 . S
C312 C318 1.379 . S
C312 N320 1.356 . S
C313 C312 1.363 . S
C313 C319 1.363 . S
C314 C315 1.363 . S
C314 C319 1.379 . S
C314 N321 1.356 . S
C315 C314 1.363 . S
C315 C318 1.363 . S
N316 C318 1.356 . S
N316 H328 0.984 . S
N316 H329 0.985 . S
N317 C319 1.356 . S
N317 H322 0.984 . S
N317 H323 0.985 . S
C318 C312 1.379 . S
C318 C315 1.363 . S
C318 N316 1.356 . S
C319 C313 1.363 . S
C319 C314 1.379 . S
C319 N317 1.356 . S
N320 C312 1.356 . S
N320 H326 0.984 . S
N320 H327 0.984 . S
N321 C314 1.356 . S
N321 H324 0.984 . S
N321 H325 0.985 . S
H322 N317 0.984 . S
H323 N317 0.985 . S
H324 N321 0.984 . S
H325 N321 0.985 . S
H326 N320 0.984 . S
H327 N320 0.984 . S
H328 N316 0.984 . S
H329 N316 0.985 . S
C330 C331 1.363 . S
C330 C336 1.379 . S
C330 N338 1.356 . S
C331 C330 1.363 . S
C331 C337 1.363 . S
C332 C333 1.363 . S
C332 C337 1.379 . S
C332 N339 1.356 . S
C333 C332 1.363 . S
C333 C336 1.363 . S
N334 C336 1.356 . S
N334 H346 0.984 . S
N334 H347 0.985 . S
N335 C337 1.356 . S
N335 H340 0.984 . S
N335 H341 0.985 . S
C336 C330 1.379 . S
C336 C333 1.363 . S
C336 N334 1.356 . S
C337 C331 1.363 . S
C337 C332 1.379 . S
C337 N335 1.356 . S
N338 C330 1.356 . S
N338 H344 0.980 1_455 S
N338 H345 0.984 1_455 S
N339 C332 1.356 . S
N339 H342 0.984 . S
N339 H343 0.985 . S
H340 N335 0.984 . S
H341 N335 0.985 . S
H342 N339 0.984 . S
H343 N339 0.985 . S
H344 N338 0.980 1_655 S
H345 N338 0.984 1_655 S
H346 N334 0.984 . S
H347 N334 0.985 . S
C348 C349 1.363 1_556 S
C348 C354 1.379 1_556 S
C348 N356 1.356 . S
C349 C348 1.363 1_554 S
C349 C355 1.363 . S
C350 C351 1.363 . S
C350 C355 1.379 . S
C350 N357 1.356 . S
C351 C350 1.363 . S
C351 C354 1.363 . S
N352 C354 1.356 . S
N352 H364 0.984 1_554 S
N352 H365 0.985 . S
N353 C355 1.356 . S
N353 H358 0.984 . S
N353 H359 0.985 . S
C354 C348 1.379 1_554 S
C354 C351 1.363 . S
C354 N352 1.356 . S
C355 C349 1.363 . S
C355 C350 1.379 . S
C355 N353 1.356 . S
N356 C348 1.356 . S
N356 H362 0.984 . S
N356 H363 0.984 . S
N357 C350 1.356 . S
N357 H360 0.984 . S
N357 H361 0.985 . S
H358 N353 0.984 . S
H359 N353 0.985 . S
H360 N357 0.984 . S
H361 N357 0.985 . S
H362 N356 0.984 . S
H363 N356 0.984 . S
H364 N352 0.984 1_556 S
H365 N352 0.985 . S
C366 C367 1.363 . S
C366 C372 1.379 . S
C366 N374 1.356 . S
C367 C366 1.363 . S
C367 C373 1.363 . S
C368 C369 1.363 . S
C368 C373 1.379 . S
C368 N375 1.356 . S
C369 C368 1.363 . S
C369 C372 1.363 . S
N370 C372 1.356 . S
N370 H382 0.984 . S
N370 H383 0.985 . S
N371 C373 1.356 . S
N371 H376 0.984 . S
N371 H377 0.985 . S
C372 C366 1.379 . S
C372 C369 1.363 . S
C372 N370 1.356 . S
C373 C367 1.363 . S
C373 C368 1.379 . S
C373 N371 1.356 . S
N374 C366 1.356 . S
N374 H380 0.984 . S
N374 H381 0.984 . S
N375 C368 1.356 . S
N375 H378 0.984 . S
N375 H379 0.985 . S
H376 N371 0.984 . S
H377 N371 0.985 . S
H378 N375 0.984 . S
H379 N375 0.985 . S
H380 N374 0.984 . S
H381 N374 0.984 . S
H382 N370 0.984 . S
H383 N370 0.985 . S
C384 C385 1.363 . S
C384 C390 1.379 . S
C384 N392 1.356 . S
C385 C384 1.363 . S
C385 C391 1.363 . S
C386 C387 1.363 . S
C386 C391 1.379 . S
C386 N393 1.356 . S
C387 C386 1.363 . S
C387 C390 1.363 . S
N388 C390 1.356 . S
N388 H400 0.984 . S
N388 H401 0.985 . S
N389 C391 1.356 . S
N389 H394 0.984 . S
N389 H395 0.985 . S
C390 C384 1.379 . S
C390 C387 1.363 . S
C390 N388 1.356 . S
C391 C385 1.363 . S
C391 C386 1.379 . S
C391 N389 1.356 . S
N392 C384 1.356 . S
N392 H398 0.984 . S
N392 H399 0.984 . S
N393 C386 1.356 . S
N393 H396 0.984 . S
N393 H397 0.985 . S
H394 N389 0.984 . S
H395 N389 0.985 . S
H396 N393 0.984 . S
H397 N393 0.985 . S
H398 N392 0.984 . S
H399 N392 0.984 . S
H400 N388 0.984 . S
H401 N388 0.985 . S
C402 C403 1.363 . S
C402 C408 1.379 . S
C402 N410 1.356 . S
C403 C402 1.363 . S
C403 C409 1.363 1_455 S
C404 C405 1.363 . S
C404 C409 1.379 . S
C404 N411 1.356 . S
C405 C404 1.363 . S
C405 C408 1.363 1_655 S
N406 C408 1.356 . S
N406 H418 0.984 . S
N406 H419 0.985 1_455 S
N407 C409 1.356 . S
N407 H412 0.984 . S
N407 H413 0.985 . S
C408 C402 1.379 . S
C408 C405 1.363 1_455 S
C408 N406 1.356 . S
C409 C403 1.363 1_655 S
C409 C404 1.379 . S
C409 N407 1.356 . S
N410 C402 1.356 . S
N410 H416 0.984 . S
N410 H417 0.984 . S
N411 C404 1.356 . S
N411 H414 0.984 . S
N411 H415 0.985 . S
H412 N407 0.984 . S
H413 N407 0.985 . S
H414 N411 0.984 . S
H415 N411 0.985 . S
H416 N410 0.984 . S
H417 N410 0.984 . S
H418 N406 0.984 . S
H419 N406 0.985 1_655 S
C420 C421 1.363 . S
C420 C426 1.379 . S
C420 N428 1.356 . S
C421 C420 1.363 . S
C421 C427 1.363 . S
C422 C423 1.363 . S
C422 C427 1.379 . S
C422 N429 1.356 1_455 S
C423 C422 1.363 . S
C423 C426 1.363 . S
N424 C426 1.356 . S
N424 H436 0.984 . S
N424 H437 0.985 1_556 S
N425 C427 1.353 1_655 S
N425 H430 0.979 1_655 S
N425 H431 0.993 . S
C426 C420 1.379 . S
C426 C423 1.363 . S
C426 N424 1.356 . S
C427 C421 1.363 . S
C427 C422 1.379 . S
C427 N425 1.353 1_455 S
N428 C420 1.356 . S
N428 H434 0.984 . S
N428 H435 0.984 . S
N429 C422 1.356 1_655 S
N429 H432 0.984 . S
N429 H433 0.985 . S
H430 N425 0.979 1_455 S
H431 N425 0.993 . S
H432 N429 0.984 . S
H433 N429 0.985 . S
H434 N428 0.984 . S
H435 N428 0.984 . S
H436 N424 0.984 . S
H437 N424 0.985 1_554 S
C438 C439 1.363 . S
C438 C444 1.379 . S
C438 N446 1.356 . S
C439 C438 1.363 . S
C439 C445 1.363 . S
C440 C441 1.363 . S
C440 C445 1.379 . S
C440 N447 1.356 . S
C441 C440 1.363 . S
C441 C444 1.363 . S
N442 C444 1.356 . S
N442 H454 0.984 . S
N442 H455 0.985 . S
N443 C445 1.356 . S
N443 H448 0.984 . S
N443 H449 0.985 . S
C444 C438 1.379 . S
C444 C441 1.363 . S
C444 N442 1.356 . S
C445 C439 1.363 . S
C445 C440 1.379 . S
C445 N443 1.356 . S
N446 C438 1.356 . S
N446 H452 0.984 . S
N446 H453 0.984 . S
N447 C440 1.356 . S
N447 H450 0.984 . S
N447 H451 0.985 . S
H448 N443 0.984 . S
H449 N443 0.985 . S
H450 N447 0.984 . S
H451 N447 0.985 . S
H452 N446 0.984 . S
H453 N446 0.984 . S
H454 N442 0.984 . S
H455 N442 0.985 . S
C456 C457 1.363 . S
C456 C462 1.379 . S
C456 N464 1.356 . S
C457 C456 1.363 . S
C457 C463 1.363 . S
C458 C459 1.363 . S
C458 C463 1.379 . S
C458 N465 1.356 . S
C459 C458 1.363 . S
C459 C462 1.363 . S
N460 C462 1.356 . S
N460 H472 0.984 . S
N460 H473 0.985 . S
N461 C463 1.356 . S
N461 H466 0.984 . S
N461 H467 0.985 . S
C462 C456 1.379 . S
C462 C459 1.363 . S
C462 N460 1.356 . S
C463 C457 1.363 . S
C463 C458 1.379 . S
C463 N461 1.356 . S
N464 C456 1.356 . S
N464 H470 0.984 . S
N464 H471 0.984 . S
N465 C458 1.356 . S
N465 H468 0.984 . S
N465 H469 0.985 . S
H466 N461 0.984 . S
H467 N461 0.985 . S
H468 N465 0.984 . S
H469 N465 0.985 . S
H470 N464 0.984 . S
H471 N464 0.984 . S
H472 N460 0.984 . S
H473 N460 0.985 . S
C474 C475 1.363 . S
C474 C480 1.379 . S
C474 N482 1.356 . S
C475 C474 1.363 . S
C475 C481 1.363 1_655 S
C476 C477 1.363 . S
C476 C481 1.379 1_655 S
C476 N483 1.356 . S
C477 C476 1.363 . S
C477 C480 1.363 . S
N478 C480 1.356 . S
N478 H490 0.984 1_565 S
N478 H491 0.985 . S
N479 C481 1.356 . S
N479 H484 0.984 . S
N479 H485 0.985 . S
C480 C474 1.379 . S
C480 C477 1.363 . S
C480 N478 1.356 . S
C481 C475 1.363 1_455 S
C481 C476 1.379 1_455 S
C481 N479 1.356 . S
N482 C474 1.356 . S
N482 H488 0.984 . S
N482 H489 0.984 . S
N483 C476 1.356 . S
N483 H486 0.984 . S
N483 H487 0.985 1_655 S
H484 N479 0.984 . S
H485 N479 0.985 . S
H486 N483 0.984 . S
H487 N483 0.985 1_455 S
H488 N482 0.984 . S
H489 N482 0.984 . S
H490 N478 0.984 1_545 S
H491 N478 0.985 . S
C492 C493 1.363 . S
C492 C498 1.379 . S
C492 N500 1.356 . S
C493 C492 1.363 . S
C493 C499 1.363 . S
C494 C495 1.363 . S
C494 C499 1.379 . S
C494 N501 1.356 . S
C495 C494 1.363 . S
C495 C498 1.363 . S
N496 C498 1.356 . S
N496 H508 0.984 . S
N496 H509 0.985 . S
N497 C499 1.356 . S
N497 H502 0.984 . S
N497 H503 0.985 . S
C498 C492 1.379 . S
C498 C495 1.363 . S
C498 N496 1.356 . S
C499 C493 1.363 . S
C499 C494 1.379 . S
C499 N497 1.356 . S
N500 C492 1.356 . S
N500 H506 0.984 . S
N500 H507 0.984 . S
N501 C494 1.356 . S
N501 H504 0.984 . S
N501 H505 0.985 . S
H502 N497 0.984 . S
H503 N497 0.985 . S
H504 N501 0.984 . S
H505 N501 0.985 . S
H506 N500 0.984 . S
H507 N500 0.984 . S
H508 N496 0.984 . S
H509 N496 0.985 . S
C510 C511 1.363 . S
C510 C516 1.379 1_554 S
C510 N518 1.356 . S
C511 C510 1.363 . S
C511 C517 1.363 . S
C512 C513 1.363 1_554 S
C512 C517 1.379 . S
C512 N519 1.356 . S
C513 C512 1.363 1_556 S
C513 C516 1.363 . S
N514 C516 1.356 . S
N514 H526 0.984 . S
N514 H527 0.985 . S
N515 C517 1.356 . S
N515 H520 0.984 . S
N515 H521 0.985 . S
C516 C510 1.379 1_556 S
C516 C513 1.363 . S
C516 N514 1.356 . S
C517 C511 1.363 . S
C517 C512 1.379 . S
C517 N515 1.356 . S
N518 C510 1.356 . S
N518 H524 0.984 . S
N518 H525 0.984 . S
N519 C512 1.356 . S
N519 H522 0.984 1_554 S
N519 H523 0.985 . S
H520 N515 0.984 . S
H521 N515 0.985 . S
H522 N519 0.984 1_556 S
H523 N519 0.985 . S
H524 N518 0.984 . S
H525 N518 0.984 . S
H526 N514 0.984 . S
H527 N514 0.985 . S
C528 C529 1.363 . S
C528 C534 1.379 . S
C528 N536 1.356 . S
C529 C528 1.363 . S
C529 C535 1.363 . S
C530 C531 1.363 . S
C530 C535 1.379 . S
C530 N537 1.356 . S
C531 C530 1.363 . S
C531 C534 1.363 . S
N532 C534 1.356 . S
N532 H544 0.984 . S
N532 H545 0.985 . S
N533 C535 1.356 . S
N533 H538 0.984 . S
N533 H539 0.985 . S
C534 C528 1.379 . S
C534 C531 1.363 . S
C534 N532 1.356 . S
C535 C529 1.363 . S
C535 C530 1.379 . S
C535 N533 1.356 . S
N536 C528 1.356 . S
N536 H542 0.984 . S
N536 H543 0.984 . S
N537 C530 1.356 . S
N537 H540 0.984 . S
N537 H541 0.985 . S
H538 N533 0.984 . S
H539 N533 0.985 . S
H540 N537 0.984 . S
H541 N537 0.985 . S
H542 N536 0.984 . S
H543 N536 0.984 . S
H544 N532 0.984 . S
H545 N532 0.985 . S
C546 C547 1.363 1_556 S
C546 C552 1.379 . S
C546 N554 1.356 . S
C547 C546 1.363 1_554 S
C547 C553 1.363 1_554 S
C548 C549 1.363 . S
C548 C553 1.379 . S
C548 N555 1.356 1_455 S
C549 C548 1.363 . S
C549 C552 1.363 . S
N550 C552 1.356 . S
N550 H562 0.984 . S
N550 H563 0.985 . S
N551 C553 1.356 1_554 S
N551 H556 0.984 . S
N551 H557 0.985 . S
C552 C546 1.379 . S
C552 C549 1.363 . S
C552 N550 1.356 . S
C553 C547 1.363 1_556 S
C553 C548 1.379 . S
C553 N551 1.356 1_556 S
N554 C546 1.356 . S
N554 H560 0.984 . S
N554 H561 0.984 1_556 S
N555 C548 1.356 1_655 S
N555 H558 0.984 . S
N555 H559 0.985 . S
H556 N551 0.984 . S
H557 N551 0.985 . S
H558 N555 0.984 . S
H559 N555 0.985 . S
H560 N554 0.984 . S
H561 N554 0.984 1_554 S
H562 N550 0.984 . S
H563 N550 0.985 . S
C564 C565 1.363 . S
C564 C570 1.379 . S
C564 N572 1.356 . S
C565 C564 1.363 . S
C565 C571 1.363 . S
C566 C567 1.363 . S
C566 C571 1.379 . S
C566 N573 1.356 . S
C567 C566 1.363 . S
C567 C570 1.363 . S
N568 C570 1.356 . S
N568 H580 0.984 . S
N568 H581 0.985 . S
N569 C571 1.356 . S
N569 H574 0.984 . S
N569 H575 0.985 . S
C570 C564 1.379 . S
C570 C567 1.363 . S
C570 N568 1.356 . S
C571 C565 1.363 . S
C571 C566 1.379 . S
C571 N569 1.356 . S
N572 C564 1.356 . S
N572 H578 0.984 . S
N572 H579 0.984 . S
N573 C566 1.356 . S
N573 H576 0.984 . S
N573 H577 0.985 . S
H574 N569 0.984 . S
H575 N569 0.985 . S
H576 N573 0.984 . S
H577 N573 0.985 . S
H578 N572 0.984 . S
H579 N572 0.984 . S
H580 N568 0.984 . S
H581 N568 0.985 . S
C582 C583 1.363 . S
C582 C588 1.379 . S
C582 N590 1.356 . S
C583 C582 1.363 . S
C583 C589 1.363 . S
C584 C585 1.363 . S
C584 C589 1.379 . S
C584 N591 1.356 . S
C585 C584 1.363 . S
C585 C588 1.363 . S
N586 C588 1.356 . S
N586 H598 0.984 . S
N586 H599 0.985 . S
N587 C589 1.356 . S
N587 H592 0.984 . S
N587 H593 0.985 . S
C588 C582 1.379 . S
C588 C585 1.363 . S
C588 N586 1.356 . S
C589 C583 1.363 . S
C589 C584 1.379 . S
C589 N587 1.356 . S
N590 C582 1.356 . S
N590 H596 0.984 . S
N590 H597 0.984 . S
N591 C584 1.356 . S
N591 H594 0.984 . S
N591 H595 0.985 . S
H592 N587 0.984 . S
H593 N587 0.985 . S
H594 N591 0.984 . S
H595 N591 0.985 . S
H596 N590 0.984 . S
H597 N590 0.984 . S
H598 N586 0.984 . S
H599 N586 0.985 . S
C600 C601 1.363 . S
C600 C606 1.379 . S
C600 N608 1.356 . S
C601 C600 1.363 . S
C601 C607 1.363 . S
C602 C603 1.363 . S
C602 C607 1.379 . S
C602 N609 1.356 . S
C603 C602 1.363 . S
C603 C606 1.363 . S
N604 C606 1.356 . S
N604 H616 0.984 . S
N604 H617 0.985 . S
N605 C607 1.356 . S
N605 H610 0.984 . S
N605 H611 0.985 . S
C606 C600 1.379 . S
C606 C603 1.363 . S
C606 N604 1.356 . S
C607 C601 1.363 . S
C607 C602 1.379 . S
C607 N605 1.356 . S
N608 C600 1.356 . S
N608 H614 0.984 . S
N608 H615 0.984 . S
N609 C602 1.356 . S
N609 H612 0.984 . S
N609 H613 0.985 . S
H610 N605 0.984 . S
H611 N605 0.985 . S
H612 N609 0.984 . S
H613 N609 0.985 . S
H614 N608 0.984 . S
H615 N608 0.984 . S
H616 N604 0.984 . S
H617 N604 0.985 . S
C618 C619 1.363 . S
C618 C624 1.379 . S
C618 N626 1.356 . S
C619 C618 1.363 . S
C619 C625 1.363 . S
C620 C621 1.363 . S
C620 C625 1.379 . S
C620 N627 1.356 1_545 S
C621 C620 1.363 . S
C621 C624 1.363 . S
N622 C624 1.356 . S
N622 H634 0.984 . S
N622 H635 0.985 1_545 S
N623 C625 1.356 . S
N623 H628 0.984 . S
N623 H629 0.985 . S
C624 C618 1.379 . S
C624 C621 1.363 . S
C624 N622 1.356 . S
C625 C619 1.363 . S
C625 C620 1.379 . S
C625 N623 1.356 . S
N626 C618 1.356 . S
N626 H632 0.984 . S
N626 H633 0.984 . S
N627 C620 1.356 1_565 S
N627 H630 0.984 . S
N627 H631 0.985 . S
H628 N623 0.984 . S
H629 N623 0.985 . S
H630 N627 0.984 . S
H631 N627 0.985 . S
H632 N626 0.984 . S
H633 N626 0.984 . S
H634 N622 0.984 . S
H635 N622 0.985 1_565 S
C636 C637 1.363 . S
C636 C642 1.379 . S
C636 N644 1.356 . S
C637 C636 1.363 . S
C637 C643 1.363 . S
C638 C639 1.363 . S
C638 C643 1.379 . S
C638 N645 1.356 . S
C639 C638 1.363 . S
C639 C642 1.363 . S
N640 C642 1.356 . S
N640 H652 0.984 . S
N640 H653 0.985 . S
N641 C643 1.356 . S
N641 H646 0.984 . S
N641 H647 0.985 . S
C642 C636 1.379 . S
C642 C639 1.363 . S
C642 N640 1.356 . S
C643 C637 1.363 . S
C643 C638 1.379 . S
C643 N641 1.356 . S
N644 C636 1.356 . S
N644 H650 0.984 . S
N644 H651 0.984 . S
N645 C638 1.356 . S
N645 H648 0.984 . S
N645 H649 0.985 . S
H646 N641 0.984 . S
H647 N641 0.985 . S
H648 N645 0.984 . S
H649 N645 0.985 . S
H650 N644 0.984 . S
H651 N644 0.984 . S
H652 N640 0.984 . S
H653 N640 0.985 . S
C654 C655 1.368 . S
C654 C660 1.379 . S
C654 N662 1.356 . S
C655 C654 1.368 . S
C655 C661 1.365 . S
C656 C657 1.375 . S
C656 C661 1.383 . S
C656 N663 1.342 1_554 S
C657 C656 1.375 . S
C657 C660 1.363 . S
N658 C660 1.356 . S
N658 H670 0.984 . S
N658 H671 0.985 . S
N659 C661 1.356 1_546 S
N659 H664 0.984 1_556 S
N659 H665 0.985 . S
C660 C654 1.379 . S
C660 C657 1.363 . S
C660 N658 1.356 . S
C661 C655 1.365 . S
C661 C656 1.383 . S
C661 N659 1.356 1_564 S
N662 C654 1.356 . S
N662 H668 0.984 . S
N662 H669 0.984 1_565 S
N663 C656 1.342 1_556 S
N663 H666 0.984 . S
N663 H667 0.985 . S
H664 N659 0.984 1_554 S
H665 N659 0.985 . S
H666 N663 0.984 . S
H667 N663 0.985 . S
H668 N662 0.984 . S
H669 N662 0.984 1_545 S
H670 N658 0.984 . S
H671 N658 0.985 . S
C672 C673 1.363 . S
C672 C678 1.379 . S
C672 N680 1.356 . S
C673 C672 1.363 . S
C673 C679 1.363 . S
C674 C675 1.363 . S
C674 C679 1.379 . S
C674 N681 1.356 . S
C675 C674 1.363 . S
C675 C678 1.363 . S
N676 C678 1.356 . S
N676 H688 0.984 . S
N676 H689 0.985 . S
N677 C679 1.356 . S
N677 H682 0.984 . S
N677 H683 0.985 . S
C678 C672 1.379 . S
C678 C675 1.363 . S
C678 N676 1.356 . S
C679 C673 1.363 . S
C679 C674 1.379 . S
C679 N677 1.356 . S
N680 C672 1.356 . S
N680 H686 0.984 . S
N680 H687 0.984 . S
N681 C674 1.356 . S
N681 H684 0.984 . S
N681 H685 0.985 . S
H682 N677 0.984 . S
H683 N677 0.985 . S
H684 N681 0.984 . S
H685 N681 0.985 . S
H686 N680 0.984 . S
H687 N680 0.984 . S
H688 N676 0.984 . S
H689 N676 0.985 . S
C690 C691 1.363 . S
C690 C696 1.379 1_556 S
C690 N698 1.363 . S
C691 C690 1.363 . S
C691 C697 1.363 . S
C692 C693 1.363 . S
C692 C697 1.379 . S
C692 N699 1.356 . S
C693 C692 1.363 . S
C693 C696 1.363 1_556 S
N694 C696 1.356 . S
N694 H706 0.984 . S
N694 H707 0.985 . S
N695 C697 1.356 . S
N695 H700 0.984 . S
N695 H701 0.985 . S
C696 C690 1.379 1_554 S
C696 C693 1.363 1_554 S
C696 N694 1.356 . S
C697 C691 1.363 . S
C697 C692 1.379 . S
C697 N695 1.356 . S
N698 C690 1.363 . S
N698 H704 0.960 1_556 S
N698 H705 1.003 . S
N699 C692 1.356 . S
N699 H702 0.984 . S
N699 H703 0.985 . S
H700 N695 0.984 . S
H701 N695 0.985 . S
H702 N699 0.984 . S
H703 N699 0.985 . S
H704 N698 0.960 1_554 S
H705 N698 1.003 . S
H706 N694 0.984 . S
H707 N694 0.985 . S
C708 C709 1.363 . S
C708 C714 1.379 . S
C708 N716 1.356 . S
C709 C708 1.363 . S
C709 C715 1.363 . S
C710 C711 1.363 . S
C710 C715 1.379 . S
C710 N717 1.356 . S
C711 C710 1.363 . S
C711 C714 1.363 . S
N712 C714 1.356 . S
N712 H724 0.984 . S
N712 H725 0.985 . S
N713 C715 1.356 . S
N713 H718 0.984 . S
N713 H719 0.985 . S
C714 C708 1.379 . S
C714 C711 1.363 . S
C714 N712 1.356 . S
C715 C709 1.363 . S
C715 C710 1.379 . S
C715 N713 1.356 . S
N716 C708 1.356 . S
N716 H722 0.984 . S
N716 H723 0.984 . S
N717 C710 1.356 . S
N717 H720 0.984 . S
N717 H721 0.985 . S
H718 N713 0.984 . S
H719 N713 0.985 . S
H720 N717 0.984 . S
H721 N717 0.985 . S
H722 N716 0.984 . S
H723 N716 0.984 . S
H724 N712 0.984 . S
H725 N712 0.985 . S
C726 C727 1.363 . S
C726 C732 1.379 . S
C726 N734 1.356 . S
C727 C726 1.363 . S
C727 C733 1.363 . S
C728 C729 1.363 . S
C728 C733 1.379 . S
C728 N735 1.356 . S
C729 C728 1.363 . S
C729 C732 1.363 . S
N730 C732 1.356 . S
N730 H742 0.984 . S
N730 H743 0.985 . S
N731 C733 1.356 . S
N731 H736 0.984 . S
N731 H737 0.985 . S
C732 C726 1.379 . S
C732 C729 1.363 . S
C732 N730 1.356 . S
C733 C727 1.363 . S
C733 C728 1.379 . S
C733 N731 1.356 . S
N734 C726 1.356 . S
N734 H740 0.984 . S
N734 H741 0.984 . S
N735 C728 1.356 . S
N735 H738 0.984 . S
N735 H739 0.985 . S
H736 N731 0.984 . S
H737 N731 0.985 . S
H738 N735 0.984 . S
H739 N735 0.985 . S
H740 N734 0.984 . S
H741 N734 0.984 . S
H742 N730 0.984 . S
H743 N730 0.985 . S
C744 C745 1.363 . S
C744 C750 1.379 . S
C744 N752 1.356 . S
C745 C744 1.363 . S
C745 C751 1.363 . S
C746 C747 1.363 . S
C746 C751 1.379 . S
C746 N753 1.356 . S
C747 C746 1.363 . S
C747 C750 1.363 . S
N748 C750 1.356 . S
N748 H760 0.984 . S
N748 H761 0.985 . S
N749 C751 1.356 . S
N749 H754 0.984 . S
N749 H755 0.985 . S
C750 C744 1.379 . S
C750 C747 1.363 . S
C750 N748 1.356 . S
C751 C745 1.363 . S
C751 C746 1.379 . S
C751 N749 1.356 . S
N752 C744 1.356 . S
N752 H758 0.984 . S
N752 H759 0.984 . S
N753 C746 1.356 . S
N753 H756 0.984 . S
N753 H757 0.985 . S
H754 N749 0.984 . S
H755 N749 0.985 . S
H756 N753 0.984 . S
H757 N753 0.985 . S
H758 N752 0.984 . S
H759 N752 0.984 . S
H760 N748 0.984 . S
H761 N748 0.985 . S
C762 C763 1.363 . S
C762 C768 1.379 . S
C762 N770 1.356 . S
C763 C762 1.363 . S
C763 C769 1.363 . S
C764 C765 1.363 . S
C764 C769 1.379 . S
C764 N771 1.356 . S
C765 C764 1.363 . S
C765 C768 1.363 . S
N766 C768 1.356 . S
N766 H778 0.984 . S
N766 H779 0.985 . S
N767 C769 1.356 . S
N767 H772 0.984 . S
N767 H773 0.985 . S
C768 C762 1.379 . S
C768 C765 1.363 . S
C768 N766 1.356 . S
C769 C763 1.363 . S
C769 C764 1.379 . S
C769 N767 1.356 . S
N770 C762 1.356 . S
N770 H776 0.984 . S
N770 H777 0.984 . S
N771 C764 1.356 . S
N771 H774 0.984 . S
N771 H775 0.985 . S
H772 N767 0.984 . S
H773 N767 0.985 . S
H774 N771 0.984 . S
H775 N771 0.985 . S
H776 N770 0.984 . S
H777 N770 0.984 . S
H778 N766 0.984 . S
H779 N766 0.985 . S
C780 C781 1.363 . S
C780 C786 1.379 . S
C780 N788 1.356 . S
C781 C780 1.363 . S
C781 C787 1.363 . S
C782 C783 1.354 1_455 S
C782 C787 1.379 . S
C782 N789 1.356 . S
C783 C782 1.354 1_655 S
C783 C786 1.361 1_655 S
N784 C786 1.356 1_655 S
N784 H796 0.984 . S
N784 H797 0.985 . S
N785 C787 1.356 . S
N785 H790 0.984 . S
N785 H791 0.985 . S
C786 C780 1.379 . S
C786 C783 1.361 1_455 S
C786 N784 1.356 1_455 S
C787 C781 1.363 . S
C787 C782 1.379 . S
C787 N785 1.356 . S
N788 C780 1.356 . S
N788 H794 0.984 . S
N788 H795 0.984 . S
N789 C782 1.356 . S
N789 H792 0.984 1_455 S
N789 H793 0.985 . S
H790 N785 0.984 . S
H791 N785 0.985 . S
H792 N789 0.984 1_655 S
H793 N789 0.985 . S
H794 N788 0.984 . S
H795 N788 0.984 . S
H796 N784 0.984 . S
H797 N784 0.985 . S
C798 C799 1.363 . S
C798 C804 1.379 . S
C798 N806 1.356 . S
C799 C798 1.363 . S
C799 C805 1.363 . S
C800 C801 1.363 . S
C800 C805 1.379 . S
C800 N807 1.356 . S
C801 C800 1.363 . S
C801 C804 1.363 . S
N802 C804 1.356 . S
N802 H814 0.984 . S
N802 H815 0.985 . S
N803 C805 1.356 . S
N803 H808 0.984 . S
N803 H809 0.985 . S
C804 C798 1.379 . S
C804 C801 1.363 . S
C804 N802 1.356 . S
C805 C799 1.363 . S
C805 C800 1.379 . S
C805 N803 1.356 . S
N806 C798 1.356 . S
N806 H812 0.984 . S
N806 H813 0.984 . S
N807 C800 1.356 . S
N807 H810 0.984 . S
N807 H811 0.985 . S
H808 N803 0.984 . S
H809 N803 0.985 . S
H810 N807 0.984 . S
H811 N807 0.985 . S
H812 N806 0.984 . S
H813 N806 0.984 . S
H814 N802 0.984 . S
H815 N802 0.985 . S
C816 C817 1.363 . S
C816 C822 1.379 . S
C816 N824 1.356 . S
C817 C816 1.363 . S
C817 C823 1.363 . S
C818 C819 1.363 . S
C818 C823 1.379 . S
C818 N825 1.356 . S
C819 C818 1.363 . S
C819 C822 1.363 . S
N820 C822 1.356 . S
N820 H832 0.984 . S
N820 H833 0.985 . S
N821 C823 1.356 . S
N821 H826 0.984 . S
N821 H827 0.985 . S
C822 C816 1.379 . S
C822 C819 1.363 . S
C822 N820 1.356 . S
C823 C817 1.363 . S
C823 C818 1.379 . S
C823 N821 1.356 . S
N824 C816 1.356 . S
N824 H830 0.984 . S
N824 H831 0.984 . S
N825 C818 1.356 . S
N825 H828 0.984 . S
N825 H829 0.985 . S
H826 N821 0.984 . S
H827 N821 0.985 . S
H828 N825 0.984 . S
H829 N825 0.985 . S
H830 N824 0.984 . S
H831 N824 0.984 . S
H832 N820 0.984 . S
H833 N820 0.985 . S
C834 C835 1.363 . S
C834 C840 1.379 . S
C834 N842 1.356 . S
C835 C834 1.363 . S
C835 C841 1.363 . S
C836 C837 1.363 . S
C836 C841 1.379 . S
C836 N843 1.356 . S
C837 C836 1.363 . S
C837 C840 1.363 . S
N838 C840 1.356 . S
N838 H850 0.984 . S
N838 H851 0.985 . S
N839 C841 1.356 . S
N839 H844 0.984 . S
N839 H845 0.985 . S
C840 C834 1.379 . S
C840 C837 1.363 . S
C840 N838 1.356 . S
C841 C835 1.363 . S
C841 C836 1.379 . S
C841 N839 1.356 . S
N842 C834 1.356 . S
N842 H848 0.984 . S
N842 H849 0.984 . S
N843 C836 1.356 . S
N843 H846 0.984 . S
N843 H847 0.985 . S
H844 N839 0.984 . S
H845 N839 0.985 . S
H846 N843 0.984 . S
H847 N843 0.985 . S
H848 N842 0.984 . S
H849 N842 0.984 . S
H850 N838 0.984 . S
H851 N838 0.985 . S
C852 C853 1.363 . S
C852 C858 1.379 . S
C852 N860 1.356 . S
C853 C852 1.363 . S
C853 C859 1.363 . S
C854 C855 1.363 . S
C854 C859 1.379 . S
C854 N861 1.356 . S
C855 C854 1.363 . S
C855 C858 1.363 . S
N856 C858 1.356 1_545 S
N856 H868 0.984 . S
N856 H869 0.985 . S
N857 C859 1.356 . S
N857 H862 0.984 . S
N857 H863 0.985 . S
C858 C852 1.379 . S
C858 C855 1.363 . S
C858 N856 1.356 1_565 S
C859 C853 1.363 . S
C859 C854 1.379 . S
C859 N857 1.356 . S
N860 C852 1.356 . S
N860 H866 0.984 1_565 S
N860 H867 0.984 . S
N861 C854 1.356 . S
N861 H864 0.984 . S
N861 H865 0.985 . S
H862 N857 0.984 . S
H863 N857 0.985 . S
H864 N861 0.984 . S
H865 N861 0.985 . S
H866 N860 0.984 1_545 S
H867 N860 0.984 . S
H868 N856 0.984 . S
H869 N856 0.985 . S
C870 C871 1.363 . S
C870 C876 1.379 1_655 S
C870 N878 1.356 1_545 S
C871 C870 1.363 . S
C871 C877 1.363 . S
C872 C873 1.363 1_655 S
C872 C877 1.379 . S
C872 N879 1.356 1_655 S
C873 C872 1.363 1_455 S
C873 C876 1.363 . S
N874 C876 1.356 . S
N874 H886 0.984 . S
N874 H887 0.985 . S
N875 C877 1.356 . S
N875 H880 0.984 . S
N875 H881 0.985 . S
C876 C870 1.379 1_455 S
C876 C873 1.363 . S
C876 N874 1.356 . S
C877 C871 1.363 . S
C877 C872 1.379 . S
C877 N875 1.356 . S
N878 C870 1.356 1_565 S
N878 H884 0.984 . S
N878 H885 0.984 . S
N879 C872 1.356 1_455 S
N879 H882 0.984 . S
N879 H883 0.985 1_455 S
H880 N875 0.984 . S
H881 N875 0.985 . S
H882 N879 0.984 . S
H883 N879 0.985 1_655 S
H884 N878 0.984 . S
H885 N878 0.984 . S
H886 N874 0.984 . S
H887 N874 0.985 . S
C241 C9 1.691 . S
C243 C226 1.726 . S
C259 C189 1.841 . S
C261 C29 1.816 1_655 S
C277 C46 1.270 . S
C279 C166 1.249 . S
C295 C69 1.505 . S
C297 C206 1.428 . S
C313 C86 1.632 . S
C315 C209 1.703 . S
C331 C109 1.754 . S
C333 C229 1.790 . S
C349 C186 1.608 1_554 S
C351 C129 1.605 . S
C367 C146 1.441 . S
C369 C169 1.483 . S
C385 C66 1.617 . S
C387 C89 1.659 . S
C403 C6 1.244 . S
C405 C106 1.281 . S
C421 C26 1.315 . S
C423 C126 1.269 . S
C439 C149 2.082 . S
C441 C49 2.052 . S
C457 C8 1.413 . S
C459 C176 1.392 . S
C475 C28 1.421 1_655 S
C477 C216 1.383 . S
C493 C236 1.765 . S
C495 C59 1.752 . S
C511 C68 1.712 . S
C513 C181 1.763 . S
C529 C99 1.671 . S
C531 C196 1.737 . S
C547 C161 1.624 . S
C549 C108 1.558 . S
C565 C201 1.602 . S
C567 C128 1.555 . S
C583 C221 1.868 . S
C585 C159 1.748 . S
C601 C16 1.310 . S
C603 C79 1.218 . S
C619 C19 1.357 . S
C621 C36 1.391 1_545 S
C637 C39 1.270 . S
C639 C41 1.353 . S
C655 C76 1.357 1_565 S
C657 C48 1.468 . S
C673 C119 1.641 . S
C675 C81 1.749 . S
C691 C116 1.772 . S
C693 C139 1.665 1_556 S
C709 C136 1.592 . S
C711 C148 1.651 . S
C727 C88 1.980 . S
C729 C141 1.975 . S
C745 C168 1.573 . S
C747 C61 1.664 . S
C763 C101 1.770 . S
C765 C188 1.735 . S
C781 C179 1.383 . S
C783 C121 1.536 . S
C799 C219 1.462 . S
C801 C156 1.565 . S
C817 C96 1.491 . S
C819 C239 1.453 . S
C835 C228 1.706 . S
C837 C21 1.668 . S
C853 C56 1.564 . S
C855 C199 1.535 . S
C871 C208 1.485 . S
C873 C1 1.541 . S
