# Generated by pormake.
# Topology zfo, (5)-cn, num edge types: 1
# Building blocks:
#     Node 0, Type 0, BuildingBlock: XOMCOT_clean_sbu_1, # of connection points: 5
#     Node 1, Type 0, BuildingBlock: XOMCOT_clean_sbu_1, # of connection points: 5
#     Node 2, Type 0, BuildingBlock: XOMCOT_clean_sbu_1, # of connection points: 5
#     Node 3, Type 0, BuildingBlock: XOMCOT_clean_sbu_1, # of connection points: 5
#     Node 4, Type 0, BuildingBlock: XOMCOT_clean_sbu_1, # of connection points: 5
#     Node 5, Type 0, BuildingBlock: XOMCOT_clean_sbu_1, # of connection points: 5
#     Node 6, Type 0, BuildingBlock: XOMCOT_clean_sbu_1, # of connection points: 5
#     Node 7, Type 0, BuildingBlock: XOMCOT_clean_sbu_1, # of connection points: 5
#     Node 8, Type 0, BuildingBlock: XOMCOT_clean_sbu_1, # of connection points: 5
#     Node 9, Type 0, BuildingBlock: XOMCOT_clean_sbu_1, # of connection points: 5
#     Node 10, Type 0, BuildingBlock: XOMCOT_clean_sbu_1, # of connection points: 5
#     Node 11, Type 0, BuildingBlock: XOMCOT_clean_sbu_1, # of connection points: 5
#     Node 12, Type 0, BuildingBlock: XOMCOT_clean_sbu_1, # of connection points: 5
#     Node 13, Type 0, BuildingBlock: XOMCOT_clean_sbu_1, # of connection points: 5
#     Node 14, Type 0, BuildingBlock: XOMCOT_clean_sbu_1, # of connection points: 5
#     Node 15, Type 0, BuildingBlock: XOMCOT_clean_sbu_1, # of connection points: 5
#     Edge 16, Type (0, 0), BuildingBlock: OJICUG_clean_linker_0, # of connection points: 2
#     Edge 17, Type (0, 0), BuildingBlock: OJICUG_clean_linker_0, # of connection points: 2
#     Edge 18, Type (0, 0), BuildingBlock: OJICUG_clean_linker_0, # of connection points: 2
#     Edge 19, Type (0, 0), BuildingBlock: OJICUG_clean_linker_0, # of connection points: 2
#     Edge 20, Type (0, 0), BuildingBlock: OJICUG_clean_linker_0, # of connection points: 2
#     Edge 21, Type (0, 0), BuildingBlock: OJICUG_clean_linker_0, # of connection points: 2
#     Edge 22, Type (0, 0), BuildingBlock: OJICUG_clean_linker_0, # of connection points: 2
#     Edge 23, Type (0, 0), BuildingBlock: OJICUG_clean_linker_0, # of connection points: 2
#     Edge 24, Type (0, 0), BuildingBlock: OJICUG_clean_linker_0, # of connection points: 2
#     Edge 25, Type (0, 0), BuildingBlock: OJICUG_clean_linker_0, # of connection points: 2
#     Edge 26, Type (0, 0), BuildingBlock: OJICUG_clean_linker_0, # of connection points: 2
#     Edge 27, Type (0, 0), BuildingBlock: OJICUG_clean_linker_0, # of connection points: 2
#     Edge 28, Type (0, 0), BuildingBlock: OJICUG_clean_linker_0, # of connection points: 2
#     Edge 29, Type (0, 0), BuildingBlock: OJICUG_clean_linker_0, # of connection points: 2
#     Edge 30, Type (0, 0), BuildingBlock: OJICUG_clean_linker_0, # of connection points: 2
#     Edge 31, Type (0, 0), BuildingBlock: OJICUG_clean_linker_0, # of connection points: 2
#     Edge 32, Type (0, 0), BuildingBlock: OJICUG_clean_linker_0, # of connection points: 2
#     Edge 33, Type (0, 0), BuildingBlock: OJICUG_clean_linker_0, # of connection points: 2
#     Edge 34, Type (0, 0), BuildingBlock: OJICUG_clean_linker_0, # of connection points: 2
#     Edge 35, Type (0, 0), BuildingBlock: OJICUG_clean_linker_0, # of connection points: 2
#     Edge 36, Type (0, 0), BuildingBlock: OJICUG_clean_linker_0, # of connection points: 2
#     Edge 37, Type (0, 0), BuildingBlock: OJICUG_clean_linker_0, # of connection points: 2
#     Edge 38, Type (0, 0), BuildingBlock: OJICUG_clean_linker_0, # of connection points: 2
#     Edge 39, Type (0, 0), BuildingBlock: OJICUG_clean_linker_0, # of connection points: 2
#     Edge 40, Type (0, 0), BuildingBlock: OJICUG_clean_linker_0, # of connection points: 2
#     Edge 41, Type (0, 0), BuildingBlock: OJICUG_clean_linker_0, # of connection points: 2
#     Edge 42, Type (0, 0), BuildingBlock: OJICUG_clean_linker_0, # of connection points: 2
#     Edge 43, Type (0, 0), BuildingBlock: OJICUG_clean_linker_0, # of connection points: 2
#     Edge 44, Type (0, 0), BuildingBlock: OJICUG_clean_linker_0, # of connection points: 2
#     Edge 45, Type (0, 0), BuildingBlock: OJICUG_clean_linker_0, # of connection points: 2
#     Edge 46, Type (0, 0), BuildingBlock: OJICUG_clean_linker_0, # of connection points: 2
#     Edge 47, Type (0, 0), BuildingBlock: OJICUG_clean_linker_0, # of connection points: 2
#     Edge 48, Type (0, 0), BuildingBlock: OJICUG_clean_linker_0, # of connection points: 2
#     Edge 49, Type (0, 0), BuildingBlock: OJICUG_clean_linker_0, # of connection points: 2
#     Edge 50, Type (0, 0), BuildingBlock: OJICUG_clean_linker_0, # of connection points: 2
#     Edge 51, Type (0, 0), BuildingBlock: OJICUG_clean_linker_0, # of connection points: 2
#     Edge 52, Type (0, 0), BuildingBlock: OJICUG_clean_linker_0, # of connection points: 2
#     Edge 53, Type (0, 0), BuildingBlock: OJICUG_clean_linker_0, # of connection points: 2
#     Edge 54, Type (0, 0), BuildingBlock: OJICUG_clean_linker_0, # of connection points: 2
#     Edge 55, Type (0, 0), BuildingBlock: OJICUG_clean_linker_0, # of connection points: 2
# Relax obj value: 0.179
# Max RMSD: 0.150
# Mean RMSD: 0.150
data_MOF--net-zfo--node1-XOMCOT_clean_sbu_1--edge1-OJICUG_clean_linker_0
_symmetry_space_group_name_H-M    P1
_symmetry_Int_Tables_number       1
_symmetry_cell_setting            triclinic
loop_
_symmetry_equiv_pos_as_xyz
'x, y, z'
_cell_length_a     27.179613
_cell_length_b     27.154713
_cell_length_c     37.062635
_cell_angle_alpha  89.892448
_cell_angle_beta   89.851447
_cell_angle_gamma 90.250626
loop_
_atom_site_label
_atom_site_type_symbol
_atom_site_fract_x
_atom_site_fract_y
_atom_site_fract_z
_atom_type_partial_charge
C0 C 0.9759 0.23725 0.20568 0.0
C1 C 0.92553 0.23723 0.20676 0.0
N2 N 0.90882 0.25965 0.17682 0.0
N3 N 0.99168 0.26017 0.17548 0.0
C4 C 0.94979 0.27323 0.15814 0.0
H5 H 0.99958 0.21901 0.22484 0.0
Co6 Co 0.05906 0.26018 0.16395 0.0
C7 C 0.06737 0.27907 0.08641 0.0
O8 O 0.09728 0.24121 0.08559 0.0
N9 N 0.12847 0.26023 0.15447 0.0
C10 C 0.20162 0.29022 0.13739 0.0
C11 C 0.15191 0.29864 0.13852 0.0
C12 C 0.16588 0.2301 0.16472 0.0
N13 N 0.21046 0.24714 0.15387 0.0
O14 O 0.06723 0.3234 0.18579 0.0
H15 H 0.13407 0.33177 0.12914 0.0
H16 H 0.16135 0.19726 0.18082 0.0
O17 O 0.04708 0.29194 0.11622 0.0
C18 C 0.0718 0.32232 0.21997 0.0
O19 O 0.06805 0.27984 0.23671 0.0
N20 N 0.05003 0.19661 0.14509 0.0
C21 C 0.0214 0.09982 0.13142 0.0
C22 C 1.00422 0.13821 0.10978 0.0
C23 C 0.0178 0.18647 0.11771 0.0
C24 C 0.06667 0.15955 0.16656 0.0
C25 C 0.05353 0.11074 0.15985 0.0
H26 H 0.99951 0.21558 0.10326 0.0
H27 H 0.08685 0.16812 0.19079 0.0
H28 H 0.94928 0.29061 0.13185 0.0
H29 H 0.90293 0.21935 0.22704 0.0
H30 H 0.2295 0.31509 0.12697 0.0
H31 H 0.97756 0.13143 0.08866 0.0
H32 H 0.06638 0.08211 0.17786 0.0
C33 C 0.81397 0.02057 0.68067 0.0
C34 C 0.81326 0.97026 0.68477 0.0
N35 N 0.7753 0.95179 0.66563 0.0
N36 N 0.77665 0.03424 0.65906 0.0
C37 C 0.75352 0.99161 0.65047 0.0
H38 H 0.84127 0.04555 0.69151 0.0
Co39 Co 0.76707 0.09897 0.64246 0.0
C40 C 0.69237 0.08374 0.58494 0.0
O41 O 0.66103 0.11287 0.60135 0.0
N42 N 0.75805 0.1639 0.6259 0.0
C43 C 0.75781 0.22994 0.59036 0.0
C44 C 0.7599 0.17944 0.59129 0.0
C45 C 0.75523 0.20577 0.64552 0.0
N46 N 0.75526 0.2467 0.62451 0.0
O47 O 0.7081 0.10367 0.67123 0.0
H48 H 0.76473 0.15575 0.56815 0.0
H49 H 0.75596 0.2062 0.67469 0.0
O50 O 0.73344 0.07421 0.5999 0.0
C51 C 0.72075 0.1096 0.7042 0.0
O52 O 0.7679 0.11085 0.71191 0.0
N53 N 0.82698 0.09589 0.61796 0.0
C54 C 0.92608 0.0812 0.60355 0.0
C55 C 0.89053 0.04867 0.58972 0.0
C56 C 0.84077 0.05698 0.59701 0.0
C57 C 0.8606 0.13023 0.6285 0.0
C58 C 0.91016 0.12444 0.6205 0.0
H59 H 0.81413 0.02934 0.58926 0.0
H60 H 0.84966 0.1603 0.64576 0.0
H61 H 0.72211 0.9898 0.63268 0.0
H62 H 0.84029 0.94892 0.69931 0.0
H63 H 0.75915 0.25247 0.56627 0.0
H64 H 0.90107 0.0147 0.5766 0.0
H65 H 0.93619 0.15127 0.63073 0.0
C66 C 0.99134 0.79936 0.19108 0.0
C67 C 0.03939 0.80076 0.20173 0.0
N68 N 0.0607 0.75799 0.1925 0.0
N69 N 0.98159 0.75637 0.17424 0.0
C70 C 0.02448 0.73102 0.17678 0.0
H71 H 0.96502 0.82855 0.1951 0.0
Co72 Co 0.91682 0.74575 0.15647 0.0
C73 C 0.9748 0.69707 0.09316 0.0
O74 O 0.01993 0.70561 0.10391 0.0
N75 N 0.85183 0.73725 0.14037 0.0
C76 C 0.78559 0.73702 0.10531 0.0
C77 C 0.83609 0.7396 0.10592 0.0
C78 C 0.81012 0.73355 0.16026 0.0
N79 N 0.76905 0.73348 0.13954 0.0
O80 O 0.91134 0.68603 0.18401 0.0
H81 H 0.85966 0.74489 0.08268 0.0
H82 H 0.80995 0.73303 0.18945 0.0
O83 O 0.93836 0.71073 0.11259 0.0
C84 C 0.90769 0.69493 0.21776 0.0
O85 O 0.91132 0.74078 0.22872 0.0
N86 N 0.92024 0.80616 0.1322 0.0
C87 C 0.93862 0.90499 0.11866 0.0
C88 C 0.96687 0.86873 0.1017 0.0
C89 C 0.9572 0.81923 0.109 0.0
C90 C 0.88923 0.84081 0.14578 0.0
C91 C 0.89761 0.8906 0.13917 0.0
H92 H 0.98285 0.79244 0.09914 0.0
H93 H 0.8608 0.83017 0.16475 0.0
H94 H 0.02911 0.69343 0.16789 0.0
H95 H 0.05776 0.83192 0.21403 0.0
H96 H 0.76292 0.73814 0.08138 0.0
H97 H 0.99916 0.87845 0.08599 0.0
H98 H 0.87471 0.91768 0.15245 0.0
C99 C 0.2755 0.02622 0.72678 0.0
C100 C 0.27575 0.07685 0.72615 0.0
N101 N 0.27491 0.09202 0.69156 0.0
N102 N 0.27496 0.00868 0.69272 0.0
C103 C 0.27515 0.04991 0.67187 0.0
H104 H 0.27329 1.00421 0.75095 0.0
Co105 Co 0.26323 0.94231 0.67872 0.0
C106 C 0.33739 0.92453 0.62264 0.0
O107 O 0.35411 0.88747 0.64181 0.0
N108 N 0.25006 0.8763 0.66431 0.0
C109 C 0.23054 0.81293 0.62894 0.0
C110 C 0.23741 0.86291 0.63047 0.0
C111 C 0.25043 0.83315 0.68292 0.0
N112 N 0.23865 0.79392 0.66194 0.0
O113 O 0.31896 0.92071 0.70664 0.0
H114 H 0.23452 0.88773 0.60778 0.0
H115 H 0.2592 0.83036 0.71126 0.0
O116 O 0.30336 0.95155 0.63563 0.0
C117 C 0.308 0.91041 0.73933 0.0
O118 O 0.26191 0.91441 0.7497 0.0
N119 N 0.20692 0.96277 0.65473 0.0
C120 C 0.11719 0.99929 0.63158 0.0
C121 C 0.15798 0.99998 0.60842 0.0
C122 C 0.20288 0.98152 0.6206 0.0
C123 C 0.1671 0.95968 0.67682 0.0
C124 C 0.12177 0.97757 0.66577 0.0
H125 H 0.23431 0.98376 0.60292 0.0
H126 H 0.17114 0.94442 0.70363 0.0
H127 H 0.27257 0.04909 0.64279 0.0
H128 H 0.27517 0.10052 0.7496 0.0
H129 H 0.22203 0.79207 0.60489 0.0
H130 H 0.15576 0.01651 0.58186 0.0
H131 H 0.09081 0.97553 0.6842 0.0
C132 C 0.50488 0.179 0.85669 0.0
C133 C 0.4549 0.18197 0.85195 0.0
N134 N 0.44048 0.22788 0.86034 0.0
N135 N 0.52267 0.22268 0.86844 0.0
C136 C 0.48228 0.25192 0.86963 0.0
H137 H 0.52651 0.14631 0.85218 0.0
Co138 Co 0.58932 0.23711 0.88153 0.0
C139 C 0.56667 0.15836 0.93806 0.0
O140 O 0.55035 0.12419 0.91612 0.0
N141 N 0.65448 0.25107 0.89508 0.0
C142 C 0.71902 0.26849 0.92954 0.0
C143 C 0.66902 0.2616 0.92899 0.0
C144 C 0.69647 0.25212 0.87539 0.0
N145 N 0.73661 0.26254 0.89579 0.0
O146 O 0.61223 0.18184 0.85361 0.0
H147 H 0.64482 0.26357 0.95214 0.0
H148 H 0.69744 0.2451 0.84669 0.0
O149 O 0.58175 0.1996 0.9258 0.0
C150 C 0.61013 0.19321 0.82009 0.0
O151 O 0.5919 0.2363 0.81119 0.0
N152 N 0.56911 0.29389 0.90507 0.0
C153 C 0.53366 0.38557 0.92475 0.0
C154 C 0.52467 0.34448 0.94684 0.0
C155 C 0.54287 0.2984 0.93643 0.0
C156 C 0.58064 0.334 0.88474 0.0
C157 C 0.56354 0.38024 0.89418 0.0
H158 H 0.53335 0.26636 0.95234 0.0
H159 H 0.60155 0.32945 0.8601 0.0
H160 H 0.48321 0.29032 0.87706 0.0
H161 H 0.43097 0.15196 0.84403 0.0
H162 H 0.7407 0.27577 0.95338 0.0
H163 H 0.50153 0.34742 0.97057 0.0
H164 H 0.57178 0.41131 0.87676 0.0
C165 C 0.70099 0.49601 0.35376 0.0
C166 C 0.70411 0.44709 0.34527 0.0
N167 N 0.74926 0.43113 0.35417 0.0
N168 N 0.74344 0.51145 0.36897 0.0
C169 C 0.77302 0.47143 0.36718 0.0
H170 H 0.66887 0.51873 0.34996 0.0
Co171 Co 0.74918 0.57747 0.38535 0.0
C172 C 0.80596 0.52618 0.44856 0.0
O173 O 0.79958 0.48007 0.43925 0.0
N174 N 0.75274 0.6437 0.39996 0.0
C175 C 0.74677 0.71105 0.43358 0.0
C176 C 0.74558 0.6605 0.43375 0.0
C177 C 0.75754 0.68491 0.37957 0.0
N178 N 0.75401 0.72677 0.39941 0.0
O179 O 0.80754 0.58653 0.3567 0.0
H180 H 0.73782 0.63747 0.4569 0.0
H181 H 0.76179 0.68402 0.35056 0.0
O182 O 0.78803 0.56073 0.42903 0.0
C183 C 0.7994 0.58669 0.32276 0.0
O184 O 0.75444 0.57812 0.31138 0.0
N185 N 0.69007 0.56982 0.41088 0.0
C186 C 0.59353 0.54307 0.42573 0.0
C187 C 0.63242 0.51844 0.44257 0.0
C188 C 0.68078 0.53243 0.4347 0.0
C189 C 0.65261 0.59751 0.39754 0.0
C190 C 0.60394 0.58507 0.40497 0.0
H191 H 0.71005 0.5096 0.44453 0.0
H192 H 0.66033 0.6264 0.37818 0.0
H193 H 0.81118 0.47158 0.37531 0.0
H194 H 0.67426 0.42442 0.33531 0.0
H195 H 0.74211 0.73416 0.45705 0.0
H196 H 0.62583 0.48565 0.45859 0.0
H197 H 0.57477 0.60544 0.3919 0.0
C198 C 0.51317 0.70311 0.85962 0.0
C199 C 0.5633 0.70596 0.85567 0.0
N200 N 0.58051 0.74247 0.87687 0.0
N201 N 0.49804 0.7376 0.88318 0.0
C202 C 0.53988 0.76113 0.89331 0.0
H203 H 0.48919 0.67633 0.84702 0.0
Co204 Co 0.43197 0.7415 0.89822 0.0
C205 C 0.43486 0.81241 0.95799 0.0
O206 O 0.4054 0.84117 0.9395 0.0
N207 N 0.3655 0.7443 0.91292 0.0
C208 C 0.29774 0.73575 0.94599 0.0
C209 C 0.3482 0.73461 0.94633 0.0
C210 C 0.32466 0.75102 0.89267 0.0
N211 N 0.28252 0.74603 0.91217 0.0
O212 O 0.42421 0.80281 0.8727 0.0
H213 H 0.37086 0.72553 0.96933 0.0
H214 H 0.3261 0.75844 0.86403 0.0
O215 O 0.45125 0.7733 0.94328 0.0
C216 C 0.42159 0.79703 0.83854 0.0
O217 O 0.42847 0.75282 0.82521 0.0
N218 N 0.43796 0.67976 0.91986 0.0
C219 C 0.45328 0.58082 0.93566 0.0
C220 C 0.48298 0.6174 0.95141 0.0
C221 C 0.47447 0.66701 0.94328 0.0
C222 C 0.40704 0.64499 0.90618 0.0
C223 C 0.4131 0.59556 0.91461 0.0
H224 H 0.49953 0.69467 0.95347 0.0
H225 H 0.37894 0.65539 0.88706 0.0
H226 H 0.54049 0.79061 0.91288 0.0
H227 H 0.58538 0.68135 0.83949 0.0
H228 H 0.27437 0.72783 0.96894 0.0
H229 H 0.51469 0.6078 0.96753 0.0
H230 H 0.38845 0.56882 0.90259 0.0
C231 C 0.2923 0.51851 0.33814 0.0
C232 C 0.29599 0.56891 0.33905 0.0
N233 N 0.26471 0.58591 0.3643 0.0
N234 N 0.25864 0.50321 0.36253 0.0
C235 C 0.24248 0.54522 0.37824 0.0
H236 H 0.31363 0.49424 0.32116 0.0
Co237 Co 0.24525 0.43595 0.36966 0.0
C238 C 0.2057 0.42401 0.44364 0.0
O239 O 0.22662 0.38055 0.44486 0.0
N240 N 0.23175 0.36697 0.37478 0.0
C241 C 0.1868 0.2982 0.37857 0.0
C242 C 0.18553 0.34863 0.37708 0.0
C243 C 0.26052 0.32609 0.37478 0.0
N244 N 0.23408 0.28365 0.37724 0.0
O245 O 0.18604 0.44177 0.34221 0.0
H246 H 0.15256 0.37064 0.37827 0.0
H247 H 0.3001 0.32708 0.37345 0.0
O248 O 0.20951 0.4504 0.415 0.0
C249 C 0.19144 0.44119 0.30804 0.0
O250 O 0.23622 0.44361 0.29473 0.0
N251 N 0.30538 0.43128 0.39406 0.0
C252 C 0.40293 0.4503 0.41242 0.0
C253 C 0.36465 0.46557 0.43503 0.0
C254 C 0.31602 0.45646 0.42505 0.0
C255 C 0.34237 0.41397 0.37282 0.0
C256 C 0.39143 0.42214 0.38187 0.0
H257 H 0.28775 0.47462 0.44034 0.0
H258 H 0.33376 0.39753 0.34702 0.0
H259 H 0.21511 0.546 0.39946 0.0
H260 H 0.32105 0.5912 0.32311 0.0
H261 H 0.15494 0.27431 0.38018 0.0
H262 H 0.37188 0.48873 0.45821 0.0
H263 H 0.41997 0.4099 0.36356 0.0
C264 C 0.01745 0.79316 0.83743 0.0
C265 C 0.06783 0.78907 0.83612 0.0
N266 N 0.08238 0.76112 0.86412 0.0
N267 N 0.99974 0.76727 0.86578 0.0
C268 C 0.04038 0.74811 0.88152 0.0
H269 H 0.99565 0.81678 0.82033 0.0
Co270 Co 0.93431 0.77166 0.88269 0.0
C271 C 0.92947 0.69849 0.94194 0.0
O272 O 0.88929 0.67891 0.92839 0.0
N273 N 0.8688 0.77739 0.89976 0.0
C274 C 0.80543 0.78998 0.93665 0.0
C275 C 0.85581 0.78979 0.93369 0.0
C276 C 0.82537 0.77083 0.88246 0.0
N277 N 0.78589 0.77809 0.90438 0.0
O278 O 0.91671 0.71391 0.85578 0.0
H279 H 0.88148 0.79754 0.95523 0.0
H280 H 0.82291 0.76104 0.85429 0.0
O281 O 0.95093 0.73382 0.92541 0.0
C282 C 0.91062 0.72553 0.82268 0.0
O283 O 0.91534 0.77193 0.81325 0.0
N284 N 0.95119 0.82998 0.90546 0.0
C285 C 0.99152 0.92248 0.91689 0.0
C286 C 0.00851 0.88187 0.93661 0.0
C287 C 0.98769 0.83545 0.93043 0.0
C288 C 0.93147 0.86969 0.88857 0.0
C289 C 0.95072 0.91647 0.89422 0.0
H290 H 1.00387 0.80371 0.94329 0.0
H291 H 0.90318 0.8644 0.86844 0.0
H292 H 0.03961 0.72736 0.90643 0.0
H293 H 0.0921 0.80839 0.81766 0.0
H294 H 0.7851 0.79727 0.96116 0.0
H295 H 0.04003 0.88517 0.95427 0.0
H296 H 0.93603 0.94716 0.87901 0.0
C297 C 0.35079 0.02104 0.39998 0.0
C298 C 0.35026 0.07125 0.39466 0.0
N299 N 0.30427 0.08463 0.38554 0.0
N300 N 0.30541 1.00244 0.39407 0.0
C301 C 0.278 0.04214 0.38498 0.0
H302 H 0.38195 0.99965 0.40894 0.0
Co303 Co 0.28591 0.93635 0.40216 0.0
C304 C 0.34342 0.91416 0.46746 0.0
O305 O 0.36401 0.87668 0.45101 0.0
N306 N 0.2666 0.87042 0.41139 0.0
C307 C 0.23512 0.80534 0.43989 0.0
C308 C 0.24271 0.85526 0.4414 0.0
C309 C 0.27316 0.82867 0.39198 0.0
N310 N 0.25447 0.78817 0.40885 0.0
O311 O 0.34659 0.91323 0.3815 0.0
H312 H 0.23167 0.87908 0.46331 0.0
H313 H 0.29208 0.82802 0.3663 0.0
O314 O 0.31263 0.94085 0.45053 0.0
C315 C 0.34633 0.91907 0.34726 0.0
O316 O 0.30957 0.94326 0.33272 0.0
N317 N 0.2248 0.95775 0.41792 0.0
C318 C 0.12975 0.99336 0.42519 0.0
C319 C 0.16542 1.00437 0.45136 0.0
C320 C 0.21337 0.98618 0.44712 0.0
C321 C 0.19003 0.94527 0.39327 0.0
C322 C 0.14225 0.9622 0.39656 0.0
H323 H 0.24153 0.9968 0.46612 0.0
H324 H 0.20015 0.92323 0.37014 0.0
H325 H 0.23911 0.04019 0.379 0.0
H326 H 0.38079 0.09624 0.39903 0.0
H327 H 0.21642 0.78368 0.46027 0.0
H328 H 0.15699 0.02859 0.4737 0.0
H329 H 0.11559 0.95231 0.37609 0.0
C330 C 0.01073 0.2185 0.83958 0.0
C331 C 0.9605 0.2144 0.83899 0.0
N332 N 0.94136 0.24996 0.86003 0.0
N333 N 0.02391 0.25627 0.86106 0.0
C334 C 0.98082 0.27488 0.87322 0.0
H335 H 0.03625 0.1952 0.8252 0.0
Co336 Co 0.09003 0.27312 0.86818 0.0
C337 C 0.10026 0.30811 0.94314 0.0
O338 O 0.1438 0.28732 0.94325 0.0
N339 N 0.15775 0.29047 0.8731 0.0
C340 C 0.22439 0.33832 0.87847 0.0
C341 C 0.17383 0.33699 0.87903 0.0
C342 C 0.19979 0.26449 0.86825 0.0
N343 N 0.24071 0.29263 0.87155 0.0
O344 O 0.08115 0.33306 0.84196 0.0
H345 H 0.15013 0.36826 0.8836 0.0
H346 H 0.20112 0.22574 0.86238 0.0
O347 O 0.07351 0.30575 0.91471 0.0
C348 C 0.08036 0.32729 0.80784 0.0
O349 O 0.07713 0.28231 0.79504 0.0
N350 N 0.09844 0.21187 0.89117 0.0
C351 C 0.08669 0.11225 0.90796 0.0
C352 C 0.06778 0.1486 0.93081 0.0
C353 C 0.0734 0.19814 0.92166 0.0
C354 C 0.11879 0.17692 0.86953 0.0
C355 C 0.11473 0.12707 0.87799 0.0
H356 H 0.05259 0.22437 0.93699 0.0
H357 H 0.13391 0.18733 0.8436 0.0
H358 H 0.97853 0.30623 0.89111 0.0
H359 H 0.93987 0.1865 0.82465 0.0
H360 H 0.24727 0.37066 0.88205 0.0
H361 H 0.04439 0.13901 0.95349 0.0
H362 H 0.12977 0.10029 0.8594 0.0
C363 C 0.80535 0.99631 0.33072 0.0
C364 C 0.80451 0.94575 0.32952 0.0
N365 N 0.77244 0.929 0.35458 0.0
N366 N 0.77385 0.01204 0.35626 0.0
C367 C 0.75414 0.97024 0.3703 0.0
H368 H 0.82942 0.02015 0.31523 0.0
Co369 Co 0.77052 0.07825 0.37058 0.0
C370 C 0.6973 0.07473 0.42971 0.0
O371 O 0.66855 0.10419 0.41122 0.0
N372 N 0.76855 0.14474 0.38484 0.0
C373 C 0.77905 0.2115 0.41859 0.0
C374 C 0.77656 0.16107 0.41872 0.0
C375 C 0.76642 0.18617 0.3645 0.0
N376 N 0.77306 0.22746 0.38446 0.0
O377 O 0.70936 0.0861 0.34484 0.0
H378 H 0.7822 0.1377 0.44199 0.0
H379 H 0.76223 0.18592 0.33547 0.0
O380 O 0.73746 0.05985 0.41555 0.0
C381 C 0.71467 0.08977 0.31066 0.0
O382 O 0.75913 0.08599 0.29701 0.0
N383 N 0.83186 0.07182 0.39257 0.0
C384 C 0.92952 0.06058 0.41371 0.0
C385 C 0.89225 0.03092 0.42884 0.0
C386 C 0.84339 0.03726 0.41794 0.0
C387 C 0.86726 0.10183 0.37849 0.0
C388 C 0.91595 0.09777 0.38938 0.0
H389 H 0.81541 0.01265 0.42835 0.0
H390 H 0.85783 0.12831 0.35783 0.0
H391 H 0.72832 0.97014 0.39253 0.0
H392 H 0.828 0.92326 0.31275 0.0
H393 H 0.78506 0.23461 0.44194 0.0
H394 H 0.90093 1.00124 0.44726 0.0
H395 H 0.94305 0.12229 0.37751 0.0
C396 C 0.49853 0.68498 0.2057 0.0
C397 C 0.54875 0.68055 0.20395 0.0
N398 N 0.56654 0.716 0.18194 0.0
N399 N 0.48412 0.72295 0.18487 0.0
C400 C 0.5264 0.74124 0.17063 0.0
H401 H 0.47383 0.6617 0.22112 0.0
Co402 Co 0.41784 0.74083 0.18073 0.0
C403 C 0.40392 0.78241 0.10778 0.0
O404 O 0.36049 0.76106 0.10773 0.0
N405 N 0.35014 0.7593 0.17855 0.0
C406 C 0.28615 0.81053 0.18008 0.0
C407 C 0.33634 0.80712 0.17729 0.0
C408 C 0.3068 0.7343 0.18185 0.0
N409 N 0.26766 0.76478 0.18281 0.0
O410 O 0.42983 0.79767 0.21023 0.0
H411 H 0.36141 0.83801 0.17504 0.0
H412 H 0.30334 0.69496 0.1849 0.0
O413 O 0.4321 0.77796 0.13535 0.0
C414 C 0.42853 0.78777 0.24392 0.0
O415 O 0.42524 0.74138 0.25381 0.0
N416 N 0.40687 0.68241 0.15517 0.0
C417 C 0.41646 0.58396 0.1355 0.0
C418 C 0.43538 0.62137 0.11331 0.0
C419 C 0.43078 0.67044 0.12389 0.0
C420 C 0.38617 0.64651 0.17598 0.0
C421 C 0.3891 0.59723 0.16607 0.0
H422 H 0.45151 0.6976 0.10906 0.0
H423 H 0.37172 0.65559 0.20233 0.0
H424 H 0.52773 0.77264 0.15264 0.0
H425 H 0.57033 0.65261 0.21736 0.0
H426 H 0.26479 0.84409 0.18066 0.0
H427 H 0.45808 0.61275 0.09012 0.0
H428 H 0.37409 0.56951 0.18409 0.0
C429 C 0.30897 0.52014 0.68335 0.0
C430 C 0.30778 0.56924 0.69174 0.0
N431 N 0.26358 0.58722 0.68226 0.0
N432 N 0.26621 0.50656 0.66774 0.0
C433 C 0.23851 0.54801 0.66874 0.0
H434 H 0.33982 0.49585 0.6877 0.0
Co435 Co 0.25675 0.44056 0.6523 0.0
C436 C 0.20641 0.49364 0.58731 0.0
O437 O 0.21531 0.53996 0.59496 0.0
N438 N 0.24915 0.37404 0.63854 0.0
C439 C 0.25121 0.30564 0.60569 0.0
C440 C 0.24985 0.3562 0.60461 0.0
C441 C 0.25035 0.33338 0.65984 0.0
N442 N 0.25206 0.29099 0.64047 0.0
O443 O 0.19631 0.43649 0.6786 0.0
H444 H 0.2525 0.37846 0.58049 0.0
H445 H 0.25313 0.33516 0.68893 0.0
O446 O 0.22159 0.45941 0.60823 0.0
C447 C 0.19862 0.43922 0.71288 0.0
O448 O 0.24126 0.44875 0.72803 0.0
N449 N 0.31727 0.44303 0.62786 0.0
C450 C 0.41521 0.45517 0.60748 0.0
C451 C 0.37874 0.48625 0.59359 0.0
C452 C 0.32982 0.47942 0.60404 0.0
C453 C 0.35165 0.41026 0.63941 0.0
C454 C 0.40058 0.41489 0.62879 0.0
H455 H 0.30325 0.50638 0.59575 0.0
H456 H 0.34183 0.38223 0.6589 0.0
H457 H 0.20067 0.54947 0.65989 0.0
H458 H 0.33816 0.59045 0.70249 0.0
H459 H 0.25294 0.28171 0.58242 0.0
H460 H 0.3882 0.51825 0.57749 0.0
H461 H 0.42727 0.3893 0.63954 0.0
C462 C 0.47722 0.26772 0.19652 0.0
C463 C 0.42807 0.26252 0.20391 0.0
N464 N 0.41115 0.22303 0.186 0.0
N465 N 0.49216 0.23206 0.17365 0.0
C466 C 0.451 0.20425 0.16876 0.0
H467 H 0.50032 0.2977 0.20566 0.0
Co468 Co 0.5576 0.23787 0.15536 0.0
C469 C 0.51491 0.18196 0.08729 0.0
O470 O 0.46741 0.18434 0.09308 0.0
N471 N 0.62292 0.24612 0.13873 0.0
C472 C 0.68628 0.26782 0.10393 0.0
C473 C 0.63607 0.26244 0.10566 0.0
C474 C 0.66601 0.2424 0.15681 0.0
N475 N 0.70538 0.2553 0.13616 0.0
O476 O 0.57692 0.17887 0.18069 0.0
H477 H 0.61049 0.27188 0.08447 0.0
H478 H 0.66832 0.23115 0.18475 0.0
O479 O 0.5451 0.20116 0.10986 0.0
C480 C 0.58117 0.18595 0.21467 0.0
O481 O 0.56914 0.22917 0.22776 0.0
N482 N 0.54017 0.29763 0.13395 0.0
C483 C 0.50467 0.39209 0.12284 0.0
C484 C 0.48287 0.35196 0.10528 0.0
C485 C 0.50117 0.30463 0.11138 0.0
C486 C 0.56384 0.33677 0.14902 0.0
C487 C 0.54711 0.38439 0.14343 0.0
H488 H 0.4812 0.2738 0.10061 0.0
H489 H 0.59372 0.33067 0.16771 0.0
H490 H 0.4496 0.17095 0.1531 0.0
H491 H 0.40555 0.28835 0.21875 0.0
H492 H 0.70679 0.28182 0.08103 0.0
H493 H 0.44966 0.35654 0.08955 0.0
H494 H 0.56512 0.41462 0.15722 0.0
C495 C 0.76457 0.51472 0.70423 0.0
C496 C 0.76401 0.46417 0.70461 0.0
N497 N 0.7627 0.44813 0.67033 0.0
N498 N 0.76414 0.53127 0.66981 0.0
C499 C 0.76279 0.48944 0.64982 0.0
H500 H 0.76378 0.53729 0.72808 0.0
Co501 Co 0.75782 0.59781 0.65436 0.0
C502 C 0.83197 0.56103 0.59982 0.0
O503 O 0.85779 0.5346 0.62259 0.0
N504 N 0.75057 0.66364 0.63869 0.0
C505 C 0.7403 0.72784 0.60209 0.0
C506 C 0.74227 0.67742 0.60423 0.0
C507 C 0.75311 0.70673 0.65705 0.0
N508 N 0.74718 0.74653 0.63536 0.0
O509 O 0.81579 0.61579 0.68082 0.0
H510 H 0.73858 0.6524 0.58174 0.0
H511 H 0.75923 0.70903 0.68577 0.0
O512 O 0.79485 0.58521 0.61081 0.0
C513 C 0.80326 0.62649 0.7131 0.0
O514 O 0.75624 0.62593 0.72155 0.0
N515 N 0.69929 0.58106 0.63185 0.0
C516 C 0.60769 0.5425 0.61503 0.0
C517 C 0.64639 0.53935 0.59009 0.0
C518 C 0.69239 0.55906 0.59907 0.0
C519 C 0.66109 0.58783 0.65494 0.0
C520 C 0.61483 0.56902 0.64702 0.0
H521 H 0.72267 0.55394 0.58057 0.0
H522 H 0.66745 0.6056 0.68061 0.0
H523 H 0.76022 0.48918 0.62073 0.0
H524 H 0.76417 0.44109 0.72844 0.0
H525 H 0.73566 0.74897 0.57757 0.0
H526 H 0.64201 0.51931 0.56505 0.0
H527 H 0.58544 0.57318 0.66657 0.0
C528 C 0.98201 0.02528 0.1579 0.0
C529 C 1.00053 0.04987 0.12743 0.0
H530 H 0.94765 0.96048 0.17877 0.0
C531 C 0.9967 0.02748 0.09338 0.0
H532 H 0.98371 0.04209 0.18437 0.0
C533 C 0.97554 0.98065 0.09007 0.0
C534 C 0.95717 0.95611 0.1207 0.0
H535 H 0.01059 0.04594 0.06947 0.0
H536 H 0.97365 0.96359 0.06371 0.0
C537 C 0.96053 0.97897 0.15457 0.0
C538 C 0.04796 0.05434 0.64729 0.0
C539 C 0.07085 0.0241 0.62176 0.0
H540 H 0.98471 0.09512 0.66184 0.0
C541 C 0.0483 0.01674 0.58809 0.0
H542 H 0.06498 0.06145 0.67319 0.0
C543 C 1.00201 0.03718 0.58104 0.0
C544 C 0.97805 0.06553 0.60749 0.0
H545 H 0.06549 0.99374 0.56785 0.0
H546 H 0.98453 0.02982 0.55537 0.0
C547 C 1.00215 0.07449 0.64039 0.0
C548 C 0.46429 0.50111 0.90359 0.0
C549 C 0.46856 0.52832 0.93568 0.0
H550 H 0.48043 0.43461 0.87565 0.0
C551 C 0.49113 0.50618 0.96578 0.0
H552 H 0.44821 0.51693 0.87955 0.0
C553 C 0.51062 0.45851 0.96318 0.0
C554 C 0.5081 0.43281 0.93038 0.0
H555 H 0.49465 0.52603 0.99097 0.0
H556 H 0.52934 0.44265 0.98618 0.0
C557 C 0.48346 0.45399 0.9011 0.0
C558 C 0.52092 0.49955 0.45419 0.0
C559 C 0.54426 0.5199 0.42369 0.0
H560 H 0.45745 0.46103 0.47463 0.0
C561 C 0.52175 0.51528 0.38981 0.0
H562 H 0.53776 0.50233 0.48058 0.0
C563 C 0.47666 0.49156 0.38638 0.0
C564 C 0.45283 0.47155 0.41671 0.0
H565 H 0.53934 0.52952 0.36566 0.0
H566 H 0.45995 0.48992 0.3599 0.0
C567 C 0.47522 0.4759 0.45077 0.0
C568 C 0.06047 0.03824 0.94482 0.0
C569 C 0.06861 0.06075 0.91103 0.0
H570 H 0.02936 0.97645 0.97337 0.0
C571 C 0.05371 0.03588 0.87968 0.0
H572 H 0.07169 0.05643 0.96946 0.0
C573 C 0.02986 0.99066 0.88196 0.0
C574 C 0.01972 0.96915 0.91563 0.0
H575 H 0.05831 0.05227 0.85322 0.0
H576 H 0.01851 0.97285 0.85718 0.0
C577 C 0.03637 0.99258 0.9471 0.0
C578 C 0.06348 0.03736 0.39283 0.0
C579 C 0.08068 0.01667 0.42509 0.0
H580 H 1.00282 0.0657 0.36368 0.0
C581 C 0.04928 0.01477 0.45523 0.0
H582 H 0.08715 0.03988 0.36931 0.0
C583 C 1.00037 0.03071 0.45228 0.0
C584 C 0.98245 0.04895 0.41919 0.0
H585 H 0.06184 0.99906 0.48044 0.0
H586 H 0.97641 0.02777 0.47558 0.0
C587 C 0.01507 0.05284 0.38981 0.0
C588 C 0.4619 0.46435 0.09406 0.0
C589 C 0.4794 0.44003 0.12493 0.0
H590 H 0.42757 0.52951 0.07308 0.0
C591 C 0.47249 0.46154 0.15892 0.0
H592 H 0.46659 0.44822 0.06757 0.0
C593 C 0.45034 0.50725 0.1621 0.0
C594 C 0.43405 0.53268 0.13136 0.0
H595 H 0.48474 0.44313 0.18324 0.0
H596 H 0.44779 0.52342 0.18873 0.0
C597 C 0.43968 0.51067 0.09723 0.0
C598 C 0.49664 0.46538 0.6372 0.0
C599 C 0.46777 0.47022 0.60599 0.0
H600 H 0.56351 0.48361 0.66396 0.0
C601 C 0.48774 0.49507 0.57587 0.0
H602 H 0.48258 0.44735 0.6612 0.0
C603 C 0.53441 0.51707 0.57788 0.0
C604 C 0.56142 0.51466 0.61008 0.0
H605 H 0.46668 0.49895 0.55127 0.0
H606 H 0.5483 0.53777 0.55498 0.0
C607 C 0.54287 0.48703 0.6391 0.0
C608 C 0.10288 0.33492 0.04121 0.0
C609 C 0.06208 0.30739 0.05285 0.0
H610 H 0.14639 0.35802 0.99606 0.0
C611 C 0.02652 0.29297 0.02748 0.0
H612 H 0.13118 0.34569 0.0602 0.0
C613 C 0.0349 0.30068 0.99049 0.0
C614 C 0.07965 0.32145 0.97872 0.0
H615 H 0.99523 0.27084 0.03585 0.0
H616 H 0.00946 0.28477 0.97128 0.0
C617 C 0.11166 0.34182 1.00442 0.0
C618 C 0.72289 0.04128 0.49011 0.0
C619 C 0.68949 0.06863 0.46928 0.0
H620 H 0.7493 0.02364 0.54287 0.0
C621 C 0.65225 0.09493 0.48724 0.0
H622 H 0.75171 0.02011 0.47731 0.0
C623 C 0.65088 0.09701 0.52504 0.0
C624 C 0.68674 0.07283 0.54578 0.0
H625 H 0.6257 0.11622 0.47214 0.0
H626 H 0.62344 0.11993 0.53786 0.0
C627 C 0.72151 0.04334 0.52784 0.0
C628 C 0.99119 0.7004 0.99188 0.0
C629 C 0.94381 0.68802 0.97975 0.0
H630 H 0.03851 0.71164 0.03709 0.0
C631 C 0.90869 0.67164 1.00507 0.0
H632 H 0.01912 0.71294 0.97306 0.0
C633 C 0.91961 0.67145 0.04203 0.0
C634 C 0.96606 0.68696 0.05432 0.0
H635 H 0.87179 0.66196 0.9966 0.0
H636 H 0.89104 0.6612 0.06107 0.0
C637 C 1.00233 0.69943 0.02868 0.0
C638 C 0.37187 0.88422 0.52808 0.0
C639 C 0.34972 0.92098 0.50695 0.0
H640 H 0.38588 0.85672 0.58122 0.0
C641 C 0.32989 0.96241 0.52437 0.0
H642 H 0.38779 0.85195 0.5156 0.0
C643 C 0.32916 0.96537 0.56206 0.0
C644 C 0.34785 0.92677 0.58327 0.0
H645 H 0.31338 0.99188 0.50892 0.0
H646 H 0.31215 0.99704 0.57456 0.0
C647 C 0.3709 0.88705 0.56581 0.0
C648 C 0.57961 0.1787 0.03842 0.0
C649 C 0.53215 0.16651 0.05084 0.0
H650 H 0.62757 0.18644 0.99261 0.0
C651 C 0.49909 0.14428 0.02652 0.0
H652 H 0.60658 0.1943 0.05641 0.0
C653 C 0.51193 0.13783 0.99021 0.0
C654 C 0.55768 0.15441 0.9773 0.0
H655 H 0.4624 0.13379 0.03514 0.0
H656 H 0.48475 0.12307 0.97178 0.0
C657 C 0.59186 0.17374 1.00188 0.0
C658 C 0.84442 0.50701 0.54602 0.0
C659 C 0.83725 0.55419 0.56043 0.0
H660 H 0.84004 0.46104 0.49927 0.0
C661 C 0.82703 0.59338 0.53686 0.0
H662 H 0.85193 0.47604 0.56361 0.0
C663 C 0.82112 0.58506 0.49986 0.0
C664 C 0.82344 0.53706 0.4858 0.0
H665 H 0.8217 0.63023 0.54728 0.0
H666 H 0.8124 0.61595 0.48269 0.0
C667 C 0.83725 0.49845 0.50911 0.0
C668 C 0.39 0.83306 0.0531 0.0
C669 C 0.42162 0.80275 0.07305 0.0
H670 H 0.37047 0.86146 1.0013 0.0
C671 C 0.46321 0.78293 0.0559 0.0
H672 H 0.35743 0.84838 0.06563 0.0
C673 C 0.46996 0.78906 1.01855 0.0
C674 C 0.43593 0.8162 0.99802 0.0
H675 H 0.48801 0.75912 0.07057 0.0
H676 H 0.50005 0.77008 1.00542 0.0
C677 C 0.39748 0.84038 1.01613 0.0
C678 C 0.19964 0.51298 0.52126 0.0
C679 C 0.19169 0.48011 0.55014 0.0
H680 H 0.2094 0.52108 0.46414 0.0
C681 C 0.17704 0.43163 0.54246 0.0
H682 H 0.21051 0.55078 0.52622 0.0
C683 C 0.17679 0.41459 0.50696 0.0
C684 C 0.19041 0.44592 0.47837 0.0
H685 H 0.16908 0.40587 0.56407 0.0
H686 H 0.16933 0.37593 0.50213 0.0
C687 C 0.19885 0.49602 0.48558 0.0
C688 C 0.12787 0.39487 0.22464 0.0
C689 C 0.09153 0.36466 0.24013 0.0
H690 H 0.18833 0.44374 0.23447 0.0
C691 C 0.08144 0.36877 0.27719 0.0
H692 H 0.13639 0.39232 0.19613 0.0
C693 C 0.11059 0.39877 0.29909 0.0
C694 C 0.15116 0.42401 0.28437 0.0
H695 H 0.05321 0.3461 0.28966 0.0
H696 H 0.10394 0.39855 0.32789 0.0
C697 C 0.15772 0.42412 0.24667 0.0
C698 C 0.64281 0.14825 0.72655 0.0
C699 C 0.68543 0.12103 0.73344 0.0
H700 H 0.58532 0.19243 0.74901 0.0
C701 C 0.69859 0.11142 0.76954 0.0
H702 H 0.63199 0.15652 0.69909 0.0
C703 C 0.67171 0.13153 0.79819 0.0
C704 C 0.63161 0.16231 0.79121 0.0
H705 H 0.7313 0.09034 0.77564 0.0
H706 H 0.68444 0.12587 0.82556 0.0
C707 C 0.61637 0.16902 0.75519 0.0
C708 C 0.87305 0.63808 0.30701 0.0
C709 C 0.83634 0.6047 0.29644 0.0
H710 H 0.92503 0.6928 0.28983 0.0
C711 C 0.83009 0.59474 0.25944 0.0
H712 H 0.8786 0.64662 0.33526 0.0
C713 C 0.85709 0.62075 0.23338 0.0
C714 C 0.89026 0.65764 0.24395 0.0
H715 H 0.80218 0.56892 0.25053 0.0
H716 H 0.84898 0.61486 0.20511 0.0
C717 C 0.8995 0.66459 0.28096 0.0
C718 C 0.41142 0.83359 0.7772 0.0
C719 C 0.40104 0.83517 0.81444 0.0
H720 H 0.39068 0.85708 0.72403 0.0
C721 C 0.36441 0.86714 0.82691 0.0
H722 H 0.43945 0.80908 0.76686 0.0
C723 C 0.33593 0.89381 0.80232 0.0
C724 C 0.34419 0.88972 0.76492 0.0
H725 H 0.35523 0.86871 0.85535 0.0
H726 H 0.30594 0.91597 0.81254 0.0
C727 C 0.38357 0.86102 0.75266 0.0
C728 C 0.85525 0.65636 0.80462 0.0
C729 C 0.89187 0.69065 0.79553 0.0
H730 H 0.79812 0.60902 0.78497 0.0
C731 C 0.90437 0.69764 0.75896 0.0
H732 H 0.84462 0.65073 0.83252 0.0
C733 C 0.87834 0.67329 0.73174 0.0
C734 C 0.83873 0.6425 0.74076 0.0
H735 H 0.93256 0.72405 0.75135 0.0
H736 H 0.88669 0.68153 0.70377 0.0
C737 C 0.82852 0.63286 0.77739 0.0
C738 C 0.38342 0.90544 0.2865 0.0
C739 C 0.37955 0.89142 0.323 0.0
H740 H 0.4029 0.88405 0.23273 0.0
C741 C 0.40022 0.8466 0.33396 0.0
H742 H 0.3681 0.94 0.27728 0.0
C743 C 0.41991 0.81435 0.30831 0.0
C744 C 0.41964 0.82651 0.27131 0.0
H745 H 0.39768 0.83472 0.36183 0.0
H746 H 0.43253 0.77859 0.31726 0.0
C747 C 0.40347 0.87342 0.26091 0.0
C748 C 0.12763 0.40496 0.79654 0.0
C749 C 0.09788 0.36666 0.78334 0.0
H750 H 0.18331 0.4584 0.78412 0.0
C751 C 0.09385 0.36024 0.74581 0.0
H752 H 0.13122 0.41118 0.82526 0.0
C753 C 0.12331 0.3877 0.72217 0.0
C754 C 0.15764 0.4216 0.73579 0.0
H755 H 0.0708 0.3313 0.73483 0.0
H756 H 0.12229 0.37914 0.69364 0.0
C757 C 0.15763 0.4319 0.77295 0.0
C758 C 0.63354 0.13117 0.30002 0.0
C759 C 0.67396 0.10501 0.28654 0.0
H760 H 0.57198 0.17705 0.28747 0.0
C761 C 0.67862 0.09902 0.2489 0.0
H762 H 0.62895 0.13651 0.32879 0.0
C763 C 0.64564 0.12171 0.22517 0.0
C764 C 0.60775 0.15141 0.23864 0.0
H765 H 0.70927 0.07875 0.23767 0.0
H766 H 0.65203 0.11897 0.19638 0.0
C767 C 0.60099 0.15444 0.27629 0.0
C768 C 0.3244 0.21739 0.20583 0.0
C769 C 0.35973 0.2152 0.17802 0.0
H770 H 0.24821 0.22799 0.21972 0.0
C771 C 0.34353 0.21618 0.14206 0.0
H772 H 0.33605 0.21749 0.23375 0.0
C773 C 0.29366 0.22341 0.13414 0.0
C774 C 0.25879 0.2285 0.16195 0.0
H775 H 0.36994 0.2157 0.12015 0.0
H776 H 0.28254 0.22777 0.10629 0.0
C777 C 0.27428 0.22339 0.19786 0.0
C778 C 0.73855 0.31142 0.67003 0.0
C779 C 0.75645 0.29765 0.63592 0.0
H780 H 0.72561 0.36982 0.70743 0.0
C781 C 0.77589 0.33461 0.61316 0.0
H782 H 0.72266 0.28426 0.68807 0.0
C783 C 0.77754 0.38383 0.62425 0.0
C784 C 0.75999 0.39749 0.65846 0.0
H785 H 0.79083 0.32556 0.58694 0.0
H786 H 0.79355 0.411 0.60628 0.0
C787 C 0.74029 0.36064 0.68114 0.0
C788 C 0.63075 0.74551 0.13917 0.0
C789 C 0.61768 0.72337 0.17214 0.0
H790 H 0.68869 0.76663 0.10315 0.0
C791 C 0.65561 0.70662 0.19489 0.0
H792 H 0.60271 0.75867 0.1209 0.0
C793 C 0.70507 0.71061 0.18455 0.0
C794 C 0.7181 0.73149 0.15113 0.0
H795 H 0.64716 0.69012 0.22078 0.0
H796 H 0.73297 0.69625 0.20243 0.0
C797 C 0.68024 0.74948 0.1288 0.0
C798 C 0.21797 0.65701 0.65519 0.0
C799 C 0.25057 0.63891 0.68135 0.0
H800 H 0.18787 0.72026 0.62899 0.0
C801 C 0.27462 0.67306 0.70396 0.0
H802 H 0.19876 0.63209 0.6373 0.0
C803 C 0.26896 0.7239 0.69885 0.0
C804 C 0.23901 0.74197 0.67101 0.0
H805 H 0.29925 0.66056 0.72491 0.0
H806 H 0.28999 0.74887 0.71558 0.0
C807 C 0.21226 0.70781 0.65012 0.0
C808 C 0.87409 0.28172 0.89891 0.0
C809 C 0.8896 0.25733 0.86752 0.0
H810 H 0.81379 0.30368 0.93205 0.0
C811 C 0.85344 0.23801 0.84424 0.0
H812 H 0.90061 0.29712 0.91749 0.0
C813 C 0.80342 0.24081 0.85293 0.0
C814 C 0.78793 0.26341 0.88506 0.0
H815 H 0.86363 0.22001 0.81933 0.0
H816 H 0.77719 0.22388 0.83486 0.0
C817 C 0.82399 0.28488 0.90748 0.0
C818 C 0.77548 0.78987 0.35303 0.0
C819 C 0.7562 0.7776 0.38716 0.0
H820 H 0.79449 0.84671 0.31556 0.0
C821 C 0.73985 0.81628 0.40949 0.0
H822 H 0.78852 0.76158 0.33493 0.0
C823 C 0.74415 0.86554 0.39861 0.0
C824 C 0.76461 0.87791 0.36489 0.0
H825 H 0.72379 0.80888 0.43565 0.0
H826 H 0.73236 0.89379 0.41719 0.0
C827 C 0.7794 0.83918 0.34202 0.0
C828 C 0.14367 0.75273 0.91302 0.0
C829 C 0.13253 0.75465 0.87609 0.0
H830 H 0.19902 0.75008 0.95342 0.0
C831 C 0.17153 0.7533 0.85109 0.0
H832 H 0.1147 0.75477 0.93305 0.0
C833 C 0.22049 0.75027 0.86272 0.0
C834 C 0.23189 0.74891 0.89979 0.0
H835 H 0.16413 0.7545 0.82241 0.0
H836 H 0.24914 0.74888 0.84249 0.0
C837 C 0.19252 0.75018 0.92469 0.0
C838 C 0.3002 0.22142 0.36804 0.0
C839 C 0.25184 0.23327 0.37858 0.0
H840 H 0.3545 0.16497 0.36154 0.0
C841 C 0.22091 0.19465 0.39055 0.0
H842 H 0.32509 0.24957 0.35818 0.0
C843 C 0.23769 0.14602 0.39199 0.0
C844 C 0.2861 0.13441 0.38189 0.0
H845 H 0.18378 0.20176 0.39956 0.0
H846 H 0.21306 0.11772 0.40208 0.0
C847 C 0.31711 0.17271 0.36982 0.0
C848 C 0.64721 0.78089 0.91337 0.0
C849 C 0.63195 0.75499 0.88253 0.0
H850 H 0.70704 0.80948 0.94414 0.0
C851 C 0.66842 0.73946 0.85794 0.0
H852 H 0.62068 0.79356 0.93302 0.0
C853 C 0.71849 0.74768 0.86469 0.0
C854 C 0.73391 0.77219 0.89612 0.0
H855 H 0.65854 0.72039 0.83341 0.0
H856 H 0.74495 0.7337 0.84549 0.0
C857 C 0.69731 0.78951 0.91998 0.0
C858 C 0.24756 0.64905 0.41084 0.0
C859 C 0.25943 0.63681 0.37511 0.0
H860 H 0.23806 0.70576 0.44983 0.0
C861 C 0.26867 0.67528 0.35041 0.0
H862 H 0.24098 0.62044 0.43067 0.0
C863 C 0.26673 0.72467 0.36126 0.0
C864 C 0.2557 0.7371 0.39721 0.0
H865 H 0.2773 0.66722 0.32253 0.0
H866 H 0.27373 0.75296 0.3413 0.0
C867 C 0.24597 0.69838 0.42178 0.0
C868 C 0.35274 0.22216 0.84239 0.0
C869 C 0.39045 0.2459 0.86179 0.0
H870 H 0.27591 0.21853 0.83001 0.0
C871 C 0.37794 0.28619 0.88378 0.0
H872 H 0.36087 0.19165 0.82466 0.0
C873 C 0.32904 0.30173 0.88669 0.0
C874 C 0.29131 0.27728 0.86787 0.0
H875 H 0.40561 0.30505 0.89957 0.0
H876 H 0.32062 0.33218 0.90443 0.0
C877 C 0.30385 0.23753 0.84548 0.0
C878 C 0.79962 0.31409 0.39258 0.0
C879 C 0.77359 0.27828 0.37277 0.0
H880 H 0.81297 0.39066 0.40195 0.0
C881 C 0.7454 0.29368 0.34315 0.0
H882 H 0.82276 0.30347 0.41497 0.0
C883 C 0.74028 0.34393 0.33539 0.0
C884 C 0.76327 0.37994 0.35701 0.0
H885 H 0.72516 0.26713 0.3272 0.0
H886 H 0.71656 0.35467 0.31335 0.0
C887 C 0.79461 0.36423 0.38478 0.0
C888 C 0.14121 0.77176 0.22132 0.0
C889 C 0.113 0.74874 0.19434 0.0
H890 H 0.21294 0.79493 0.23846 0.0
C891 C 0.13771 0.72394 0.16634 0.0
H892 H 0.12345 0.7904 0.24358 0.0
C893 C 0.18937 0.72592 0.16386 0.0
C894 C 0.21676 0.75289 0.18919 0.0
H895 H 0.1171 0.70618 0.14503 0.0
H896 H 0.20762 0.70945 0.14088 0.0
C897 C 0.19237 0.77425 0.21855 0.0
C898 C 0.24427 0.22774 0.68887 0.0
C899 C 0.25811 0.24092 0.65357 0.0
H900 H 0.23784 0.17062 0.7284 0.0
C901 C 0.27806 0.20404 0.63115 0.0
H902 H 0.22828 0.25471 0.70682 0.0
C903 C 0.28363 0.15556 0.64353 0.0
C904 C 0.26966 0.14233 0.67878 0.0
H905 H 0.29014 0.21257 0.60402 0.0
H906 H 0.29953 0.12858 0.62554 0.0
C907 C 0.24991 0.17923 0.70128 0.0
C908 C 0.7943 0.25713 0.11994 0.0
C909 C 0.7568 0.25776 0.14636 0.0
H910 H 0.87185 0.25747 0.10878 0.0
C911 C 0.77062 0.26145 0.18278 0.0
H912 H 0.78538 0.25372 0.09164 0.0
C913 C 0.82032 0.26364 0.1925 0.0
C914 C 0.85773 0.26217 0.16615 0.0
H915 H 0.74312 0.26301 0.20389 0.0
H916 H 0.8295 0.26637 0.22083 0.0
C917 C 0.84408 0.25947 0.1297 0.0
C918 C 0.78244 0.86374 0.68331 0.0
C919 C 0.76442 0.90012 0.65966 0.0
H920 H 0.7917 0.78695 0.69418 0.0
C921 C 0.73782 0.88476 0.62916 0.0
H922 H 0.80232 0.87387 0.70743 0.0
C923 C 0.73096 0.83462 0.62188 0.0
C924 C 0.75071 0.79824 0.64473 0.0
H925 H 0.72343 0.91129 0.61017 0.0
H926 H 0.71056 0.82453 0.59798 0.0
C927 C 0.7758 0.81357 0.67592 0.0
loop_
_geom_bond_atom_site_label_1
_geom_bond_atom_site_label_2
_geom_bond_distance
_geom_bond_site_symmetry_2
_ccdc_geom_bond_type
C0 C1 1.351 . S
C0 N3 1.368 . S
C0 H5 0.931 . S
C1 C0 1.351 . S
C1 N2 1.373 . S
C1 H29 0.930 . S
N2 C1 1.373 . S
N2 C4 1.340 . S
N3 C0 1.368 . S
N3 C4 1.321 . S
N3 Co6 2.135 1_655 S
C4 N2 1.340 . S
C4 N3 1.321 . S
C4 H28 0.930 . S
H5 C0 0.931 . S
Co6 N3 2.135 1_455 S
Co6 N9 2.121 . S
Co6 O14 2.055 . S
Co6 O17 2.039 . S
Co6 N20 2.140 . S
C7 O8 1.227 . S
C7 O17 1.265 . S
O8 C7 1.227 . S
N9 Co6 2.121 . S
N9 C11 1.375 . S
N9 C12 1.313 . S
C10 C11 1.338 . S
C10 N13 1.377 . S
C10 H30 0.930 . S
C11 N9 1.375 . S
C11 C10 1.338 . S
C11 H15 0.931 . S
C12 N9 1.313 . S
C12 N13 1.344 . S
C12 H16 0.930 . S
N13 C10 1.377 . S
N13 C12 1.344 . S
O14 Co6 2.055 . S
O14 C18 1.253 . S
H15 C11 0.931 . S
H16 C12 0.930 . S
O17 Co6 2.039 . S
O17 C7 1.265 . S
C18 O14 1.253 . S
C18 O19 1.227 . S
O19 C18 1.227 . S
N20 Co6 2.140 . S
N20 C23 1.346 1_455 S
N20 C24 1.345 . S
C21 C22 1.387 1_455 S
C21 C25 1.391 . S
C22 C21 1.387 1_655 S
C22 C23 1.369 . S
C22 H31 0.929 . S
C23 N20 1.346 1_655 S
C23 C22 1.369 . S
C23 H26 0.928 . S
C24 N20 1.345 . S
C24 C25 1.371 . S
C24 H27 0.931 . S
C25 C21 1.391 . S
C25 C24 1.371 . S
C25 H32 0.930 . S
H26 C23 0.928 . S
H27 C24 0.931 . S
H28 C4 0.930 . S
H29 C1 0.930 . S
H30 C10 0.930 . S
H31 C22 0.929 . S
H32 C25 0.930 . S
C33 C34 1.351 . S
C33 N36 1.368 . S
C33 H38 0.931 . S
C34 C33 1.351 . S
C34 N35 1.373 . S
C34 H62 0.930 . S
N35 C34 1.373 . S
N35 C37 1.340 . S
N36 C33 1.368 . S
N36 C37 1.321 . S
N36 Co39 2.135 1_565 S
C37 N35 1.340 . S
C37 N36 1.321 . S
C37 H61 0.930 . S
H38 C33 0.931 . S
Co39 N36 2.135 1_545 S
Co39 N42 2.121 . S
Co39 O47 2.055 . S
Co39 O50 2.039 . S
Co39 N53 2.140 . S
C40 O41 1.227 . S
C40 O50 1.265 . S
O41 C40 1.227 . S
N42 Co39 2.121 . S
N42 C44 1.375 . S
N42 C45 1.313 . S
C43 C44 1.338 . S
C43 N46 1.377 . S
C43 H63 0.930 . S
C44 N42 1.375 . S
C44 C43 1.338 . S
C44 H48 0.931 . S
C45 N42 1.313 . S
C45 N46 1.344 . S
C45 H49 0.930 . S
N46 C43 1.377 . S
N46 C45 1.344 . S
O47 Co39 2.055 . S
O47 C51 1.253 . S
H48 C44 0.931 . S
H49 C45 0.930 . S
O50 Co39 2.039 . S
O50 C40 1.265 . S
C51 O47 1.253 . S
C51 O52 1.227 . S
O52 C51 1.227 . S
N53 Co39 2.140 . S
N53 C56 1.346 1_545 S
N53 C57 1.345 . S
C54 C55 1.387 1_545 S
C54 C58 1.391 . S
C55 C54 1.387 1_565 S
C55 C56 1.369 . S
C55 H64 0.929 . S
C56 N53 1.346 1_565 S
C56 C55 1.369 . S
C56 H59 0.928 . S
C57 N53 1.345 . S
C57 C58 1.371 . S
C57 H60 0.931 . S
C58 C54 1.391 . S
C58 C57 1.371 . S
C58 H65 0.930 . S
H59 C56 0.928 . S
H60 C57 0.931 . S
H61 C37 0.930 . S
H62 C34 0.930 . S
H63 C43 0.930 . S
H64 C55 0.929 . S
H65 C58 0.930 . S
C66 C67 1.351 . S
C66 N69 1.368 . S
C66 H71 0.931 . S
C67 C66 1.351 . S
C67 N68 1.373 . S
C67 H95 0.930 . S
N68 C67 1.373 . S
N68 C70 1.340 . S
N69 C66 1.368 . S
N69 C70 1.321 . S
N69 Co72 2.135 1_455 S
C70 N68 1.340 . S
C70 N69 1.321 . S
C70 H94 0.930 . S
H71 C66 0.931 . S
Co72 N69 2.135 1_655 S
Co72 N75 2.121 . S
Co72 O80 2.055 . S
Co72 O83 2.039 . S
Co72 N86 2.140 . S
C73 O74 1.227 . S
C73 O83 1.265 . S
O74 C73 1.227 . S
N75 Co72 2.121 . S
N75 C77 1.375 . S
N75 C78 1.313 . S
C76 C77 1.338 . S
C76 N79 1.377 . S
C76 H96 0.930 . S
C77 N75 1.375 . S
C77 C76 1.338 . S
C77 H81 0.931 . S
C78 N75 1.313 . S
C78 N79 1.344 . S
C78 H82 0.930 . S
N79 C76 1.377 . S
N79 C78 1.344 . S
O80 Co72 2.055 . S
O80 C84 1.253 . S
H81 C77 0.931 . S
H82 C78 0.930 . S
O83 Co72 2.039 . S
O83 C73 1.265 . S
C84 O80 1.253 . S
C84 O85 1.227 . S
O85 C84 1.227 . S
N86 Co72 2.140 . S
N86 C89 1.346 1_655 S
N86 C90 1.345 . S
C87 C88 1.387 1_655 S
C87 C91 1.391 . S
C88 C87 1.387 1_455 S
C88 C89 1.369 . S
C88 H97 0.929 . S
C89 N86 1.346 1_455 S
C89 C88 1.369 . S
C89 H92 0.928 . S
C90 N86 1.345 . S
C90 C91 1.371 . S
C90 H93 0.931 . S
C91 C87 1.391 . S
C91 C90 1.371 . S
C91 H98 0.930 . S
H92 C89 0.928 . S
H93 C90 0.931 . S
H94 C70 0.930 . S
H95 C67 0.930 . S
H96 C76 0.930 . S
H97 C88 0.929 . S
H98 C91 0.930 . S
C99 C100 1.351 . S
C99 N102 1.368 . S
C99 H104 0.931 . S
C100 C99 1.351 . S
C100 N101 1.373 . S
C100 H128 0.930 . S
N101 C100 1.373 . S
N101 C103 1.340 . S
N102 C99 1.368 . S
N102 C103 1.321 . S
N102 Co105 2.135 1_545 S
C103 N101 1.340 . S
C103 N102 1.321 . S
C103 H127 0.930 . S
H104 C99 0.931 . S
Co105 N102 2.135 1_565 S
Co105 N108 2.121 . S
Co105 O113 2.055 . S
Co105 O116 2.039 . S
Co105 N119 2.140 . S
C106 O107 1.227 . S
C106 O116 1.265 . S
O107 C106 1.227 . S
N108 Co105 2.121 . S
N108 C110 1.375 . S
N108 C111 1.313 . S
C109 C110 1.338 . S
C109 N112 1.377 . S
C109 H129 0.930 . S
C110 N108 1.375 . S
C110 C109 1.338 . S
C110 H114 0.931 . S
C111 N108 1.313 . S
C111 N112 1.344 . S
C111 H115 0.930 . S
N112 C109 1.377 . S
N112 C111 1.344 . S
O113 Co105 2.055 . S
O113 C117 1.253 . S
H114 C110 0.931 . S
H115 C111 0.930 . S
O116 Co105 2.039 . S
O116 C106 1.265 . S
C117 O113 1.253 . S
C117 O118 1.227 . S
O118 C117 1.227 . S
N119 Co105 2.140 . S
N119 C122 1.346 1_565 S
N119 C123 1.345 . S
C120 C121 1.387 1_565 S
C120 C124 1.391 . S
C121 C120 1.387 1_545 S
C121 C122 1.369 . S
C121 H130 0.929 . S
C122 N119 1.346 1_545 S
C122 C121 1.369 . S
C122 H125 0.928 . S
C123 N119 1.345 . S
C123 C124 1.371 . S
C123 H126 0.931 . S
C124 C120 1.391 . S
C124 C123 1.371 . S
C124 H131 0.930 . S
H125 C122 0.928 . S
H126 C123 0.931 . S
H127 C103 0.930 . S
H128 C100 0.930 . S
H129 C109 0.930 . S
H130 C121 0.929 . S
H131 C124 0.930 . S
C132 C133 1.351 . S
C132 N135 1.368 . S
C132 H137 0.931 . S
C133 C132 1.351 . S
C133 N134 1.373 . S
C133 H161 0.930 . S
N134 C133 1.373 . S
N134 C136 1.340 . S
N135 C132 1.368 . S
N135 C136 1.321 . S
N135 Co138 2.135 . S
C136 N134 1.340 . S
C136 N135 1.321 . S
C136 H160 0.930 . S
H137 C132 0.931 . S
Co138 N135 2.135 . S
Co138 N141 2.121 . S
Co138 O146 2.055 . S
Co138 O149 2.039 . S
Co138 N152 2.140 . S
C139 O140 1.227 . S
C139 O149 1.265 . S
O140 C139 1.227 . S
N141 Co138 2.121 . S
N141 C143 1.375 . S
N141 C144 1.313 . S
C142 C143 1.338 . S
C142 N145 1.377 . S
C142 H162 0.930 . S
C143 N141 1.375 . S
C143 C142 1.338 . S
C143 H147 0.931 . S
C144 N141 1.313 . S
C144 N145 1.344 . S
C144 H148 0.930 . S
N145 C142 1.377 . S
N145 C144 1.344 . S
O146 Co138 2.055 . S
O146 C150 1.253 . S
H147 C143 0.931 . S
H148 C144 0.930 . S
O149 Co138 2.039 . S
O149 C139 1.265 . S
C150 O146 1.253 . S
C150 O151 1.227 . S
O151 C150 1.227 . S
N152 Co138 2.140 . S
N152 C155 1.346 . S
N152 C156 1.345 . S
C153 C154 1.387 . S
C153 C157 1.391 . S
C154 C153 1.387 . S
C154 C155 1.369 . S
C154 H163 0.929 . S
C155 N152 1.346 . S
C155 C154 1.369 . S
C155 H158 0.928 . S
C156 N152 1.345 . S
C156 C157 1.371 . S
C156 H159 0.931 . S
C157 C153 1.391 . S
C157 C156 1.371 . S
C157 H164 0.930 . S
H158 C155 0.928 . S
H159 C156 0.931 . S
H160 C136 0.930 . S
H161 C133 0.930 . S
H162 C142 0.930 . S
H163 C154 0.929 . S
H164 C157 0.930 . S
C165 C166 1.351 . S
C165 N168 1.368 . S
C165 H170 0.931 . S
C166 C165 1.351 . S
C166 N167 1.373 . S
C166 H194 0.930 . S
N167 C166 1.373 . S
N167 C169 1.340 . S
N168 C165 1.368 . S
N168 C169 1.321 . S
N168 Co171 2.135 . S
C169 N167 1.340 . S
C169 N168 1.321 . S
C169 H193 0.930 . S
H170 C165 0.931 . S
Co171 N168 2.135 . S
Co171 N174 2.121 . S
Co171 O179 2.055 . S
Co171 O182 2.039 . S
Co171 N185 2.140 . S
C172 O173 1.227 . S
C172 O182 1.265 . S
O173 C172 1.227 . S
N174 Co171 2.121 . S
N174 C176 1.375 . S
N174 C177 1.313 . S
C175 C176 1.338 . S
C175 N178 1.377 . S
C175 H195 0.930 . S
C176 N174 1.375 . S
C176 C175 1.338 . S
C176 H180 0.931 . S
C177 N174 1.313 . S
C177 N178 1.344 . S
C177 H181 0.930 . S
N178 C175 1.377 . S
N178 C177 1.344 . S
O179 Co171 2.055 . S
O179 C183 1.253 . S
H180 C176 0.931 . S
H181 C177 0.930 . S
O182 Co171 2.039 . S
O182 C172 1.265 . S
C183 O179 1.253 . S
C183 O184 1.227 . S
O184 C183 1.227 . S
N185 Co171 2.140 . S
N185 C188 1.346 . S
N185 C189 1.345 . S
C186 C187 1.387 . S
C186 C190 1.391 . S
C187 C186 1.387 . S
C187 C188 1.369 . S
C187 H196 0.929 . S
C188 N185 1.346 . S
C188 C187 1.369 . S
C188 H191 0.928 . S
C189 N185 1.345 . S
C189 C190 1.371 . S
C189 H192 0.931 . S
C190 C186 1.391 . S
C190 C189 1.371 . S
C190 H197 0.930 . S
H191 C188 0.928 . S
H192 C189 0.931 . S
H193 C169 0.930 . S
H194 C166 0.930 . S
H195 C175 0.930 . S
H196 C187 0.929 . S
H197 C190 0.930 . S
C198 C199 1.351 . S
C198 N201 1.368 . S
C198 H203 0.931 . S
C199 C198 1.351 . S
C199 N200 1.373 . S
C199 H227 0.930 . S
N200 C199 1.373 . S
N200 C202 1.340 . S
N201 C198 1.368 . S
N201 C202 1.321 . S
N201 Co204 2.135 . S
C202 N200 1.340 . S
C202 N201 1.321 . S
C202 H226 0.930 . S
H203 C198 0.931 . S
Co204 N201 2.135 . S
Co204 N207 2.121 . S
Co204 O212 2.055 . S
Co204 O215 2.039 . S
Co204 N218 2.140 . S
C205 O206 1.227 . S
C205 O215 1.265 . S
O206 C205 1.227 . S
N207 Co204 2.121 . S
N207 C209 1.375 . S
N207 C210 1.313 . S
C208 C209 1.338 . S
C208 N211 1.377 . S
C208 H228 0.930 . S
C209 N207 1.375 . S
C209 C208 1.338 . S
C209 H213 0.931 . S
C210 N207 1.313 . S
C210 N211 1.344 . S
C210 H214 0.930 . S
N211 C208 1.377 . S
N211 C210 1.344 . S
O212 Co204 2.055 . S
O212 C216 1.253 . S
H213 C209 0.931 . S
H214 C210 0.930 . S
O215 Co204 2.039 . S
O215 C205 1.265 . S
C216 O212 1.253 . S
C216 O217 1.227 . S
O217 C216 1.227 . S
N218 Co204 2.140 . S
N218 C221 1.346 . S
N218 C222 1.345 . S
C219 C220 1.387 . S
C219 C223 1.391 . S
C220 C219 1.387 . S
C220 C221 1.369 . S
C220 H229 0.929 . S
C221 N218 1.346 . S
C221 C220 1.369 . S
C221 H224 0.928 . S
C222 N218 1.345 . S
C222 C223 1.371 . S
C222 H225 0.931 . S
C223 C219 1.391 . S
C223 C222 1.371 . S
C223 H230 0.930 . S
H224 C221 0.928 . S
H225 C222 0.931 . S
H226 C202 0.930 . S
H227 C199 0.930 . S
H228 C208 0.930 . S
H229 C220 0.929 . S
H230 C223 0.930 . S
C231 C232 1.351 . S
C231 N234 1.368 . S
C231 H236 0.931 . S
C232 C231 1.351 . S
C232 N233 1.373 . S
C232 H260 0.930 . S
N233 C232 1.373 . S
N233 C235 1.340 . S
N234 C231 1.368 . S
N234 C235 1.321 . S
N234 Co237 2.135 . S
C235 N233 1.340 . S
C235 N234 1.321 . S
C235 H259 0.930 . S
H236 C231 0.931 . S
Co237 N234 2.135 . S
Co237 N240 2.121 . S
Co237 O245 2.055 . S
Co237 O248 2.039 . S
Co237 N251 2.140 . S
C238 O239 1.227 . S
C238 O248 1.265 . S
O239 C238 1.227 . S
N240 Co237 2.121 . S
N240 C242 1.375 . S
N240 C243 1.313 . S
C241 C242 1.338 . S
C241 N244 1.377 . S
C241 H261 0.930 . S
C242 N240 1.375 . S
C242 C241 1.338 . S
C242 H246 0.931 . S
C243 N240 1.313 . S
C243 N244 1.344 . S
C243 H247 0.930 . S
N244 C241 1.377 . S
N244 C243 1.344 . S
O245 Co237 2.055 . S
O245 C249 1.253 . S
H246 C242 0.931 . S
H247 C243 0.930 . S
O248 Co237 2.039 . S
O248 C238 1.265 . S
C249 O245 1.253 . S
C249 O250 1.227 . S
O250 C249 1.227 . S
N251 Co237 2.140 . S
N251 C254 1.346 . S
N251 C255 1.345 . S
C252 C253 1.387 . S
C252 C256 1.391 . S
C253 C252 1.387 . S
C253 C254 1.369 . S
C253 H262 0.929 . S
C254 N251 1.346 . S
C254 C253 1.369 . S
C254 H257 0.928 . S
C255 N251 1.345 . S
C255 C256 1.371 . S
C255 H258 0.931 . S
C256 C252 1.391 . S
C256 C255 1.371 . S
C256 H263 0.930 . S
H257 C254 0.928 . S
H258 C255 0.931 . S
H259 C235 0.930 . S
H260 C232 0.930 . S
H261 C241 0.930 . S
H262 C253 0.929 . S
H263 C256 0.930 . S
C264 C265 1.351 . S
C264 N267 1.368 . S
C264 H269 0.931 . S
C265 C264 1.351 . S
C265 N266 1.373 . S
C265 H293 0.930 . S
N266 C265 1.373 . S
N266 C268 1.340 . S
N267 C264 1.368 . S
N267 C268 1.321 . S
N267 Co270 2.135 1_455 S
C268 N266 1.340 . S
C268 N267 1.321 . S
C268 H292 0.930 . S
H269 C264 0.931 . S
Co270 N267 2.135 1_655 S
Co270 N273 2.121 . S
Co270 O278 2.055 . S
Co270 O281 2.039 . S
Co270 N284 2.140 . S
C271 O272 1.227 . S
C271 O281 1.265 . S
O272 C271 1.227 . S
N273 Co270 2.121 . S
N273 C275 1.375 . S
N273 C276 1.313 . S
C274 C275 1.338 . S
C274 N277 1.377 . S
C274 H294 0.930 . S
C275 N273 1.375 . S
C275 C274 1.338 . S
C275 H279 0.931 . S
C276 N273 1.313 . S
C276 N277 1.344 . S
C276 H280 0.930 . S
N277 C274 1.377 . S
N277 C276 1.344 . S
O278 Co270 2.055 . S
O278 C282 1.253 . S
H279 C275 0.931 . S
H280 C276 0.930 . S
O281 Co270 2.039 . S
O281 C271 1.265 . S
C282 O278 1.253 . S
C282 O283 1.227 . S
O283 C282 1.227 . S
N284 Co270 2.140 . S
N284 C287 1.346 1_655 S
N284 C288 1.345 . S
C285 C286 1.387 1_655 S
C285 C289 1.391 . S
C286 C285 1.387 1_455 S
C286 C287 1.369 . S
C286 H295 0.929 . S
C287 N284 1.346 1_455 S
C287 C286 1.369 . S
C287 H290 0.928 . S
C288 N284 1.345 . S
C288 C289 1.371 . S
C288 H291 0.931 . S
C289 C285 1.391 . S
C289 C288 1.371 . S
C289 H296 0.930 . S
H290 C287 0.928 . S
H291 C288 0.931 . S
H292 C268 0.930 . S
H293 C265 0.930 . S
H294 C274 0.930 . S
H295 C286 0.929 . S
H296 C289 0.930 . S
C297 C298 1.351 . S
C297 N300 1.368 . S
C297 H302 0.931 . S
C298 C297 1.351 . S
C298 N299 1.373 . S
C298 H326 0.930 . S
N299 C298 1.373 . S
N299 C301 1.340 . S
N300 C297 1.368 . S
N300 C301 1.321 . S
N300 Co303 2.135 1_545 S
C301 N299 1.340 . S
C301 N300 1.321 . S
C301 H325 0.930 . S
H302 C297 0.931 . S
Co303 N300 2.135 1_565 S
Co303 N306 2.121 . S
Co303 O311 2.055 . S
Co303 O314 2.039 . S
Co303 N317 2.140 . S
C304 O305 1.227 . S
C304 O314 1.265 . S
O305 C304 1.227 . S
N306 Co303 2.121 . S
N306 C308 1.375 . S
N306 C309 1.313 . S
C307 C308 1.338 . S
C307 N310 1.377 . S
C307 H327 0.930 . S
C308 N306 1.375 . S
C308 C307 1.338 . S
C308 H312 0.931 . S
C309 N306 1.313 . S
C309 N310 1.344 . S
C309 H313 0.930 . S
N310 C307 1.377 . S
N310 C309 1.344 . S
O311 Co303 2.055 . S
O311 C315 1.253 . S
H312 C308 0.931 . S
H313 C309 0.930 . S
O314 Co303 2.039 . S
O314 C304 1.265 . S
C315 O311 1.253 . S
C315 O316 1.227 . S
O316 C315 1.227 . S
N317 Co303 2.140 . S
N317 C320 1.346 1_565 S
N317 C321 1.345 . S
C318 C319 1.387 1_565 S
C318 C322 1.391 . S
C319 C318 1.387 1_545 S
C319 C320 1.369 . S
C319 H328 0.929 . S
C320 N317 1.346 1_545 S
C320 C319 1.369 . S
C320 H323 0.928 . S
C321 N317 1.345 . S
C321 C322 1.371 . S
C321 H324 0.931 . S
C322 C318 1.391 . S
C322 C321 1.371 . S
C322 H329 0.930 . S
H323 C320 0.928 . S
H324 C321 0.931 . S
H325 C301 0.930 . S
H326 C298 0.930 . S
H327 C307 0.930 . S
H328 C319 0.929 . S
H329 C322 0.930 . S
C330 C331 1.351 . S
C330 N333 1.368 . S
C330 H335 0.931 . S
C331 C330 1.351 . S
C331 N332 1.373 . S
C331 H359 0.930 . S
N332 C331 1.373 . S
N332 C334 1.340 . S
N333 C330 1.368 . S
N333 C334 1.321 . S
N333 Co336 2.135 1_655 S
C334 N332 1.340 . S
C334 N333 1.321 . S
C334 H358 0.930 . S
H335 C330 0.931 . S
Co336 N333 2.135 1_455 S
Co336 N339 2.121 . S
Co336 O344 2.055 . S
Co336 O347 2.039 . S
Co336 N350 2.140 . S
C337 O338 1.227 . S
C337 O347 1.265 . S
O338 C337 1.227 . S
N339 Co336 2.121 . S
N339 C341 1.375 . S
N339 C342 1.313 . S
C340 C341 1.338 . S
C340 N343 1.377 . S
C340 H360 0.930 . S
C341 N339 1.375 . S
C341 C340 1.338 . S
C341 H345 0.931 . S
C342 N339 1.313 . S
C342 N343 1.344 . S
C342 H346 0.930 . S
N343 C340 1.377 . S
N343 C342 1.344 . S
O344 Co336 2.055 . S
O344 C348 1.253 . S
H345 C341 0.931 . S
H346 C342 0.930 . S
O347 Co336 2.039 . S
O347 C337 1.265 . S
C348 O344 1.253 . S
C348 O349 1.227 . S
O349 C348 1.227 . S
N350 Co336 2.140 . S
N350 C353 1.346 1_455 S
N350 C354 1.345 . S
C351 C352 1.387 1_455 S
C351 C355 1.391 . S
C352 C351 1.387 1_655 S
C352 C353 1.369 . S
C352 H361 0.929 . S
C353 N350 1.346 1_655 S
C353 C352 1.369 . S
C353 H356 0.928 . S
C354 N350 1.345 . S
C354 C355 1.371 . S
C354 H357 0.931 . S
C355 C351 1.391 . S
C355 C354 1.371 . S
C355 H362 0.930 . S
H356 C353 0.928 . S
H357 C354 0.931 . S
H358 C334 0.930 . S
H359 C331 0.930 . S
H360 C340 0.930 . S
H361 C352 0.929 . S
H362 C355 0.930 . S
C363 C364 1.351 . S
C363 N366 1.368 . S
C363 H368 0.931 . S
C364 C363 1.351 . S
C364 N365 1.373 . S
C364 H392 0.930 . S
N365 C364 1.373 . S
N365 C367 1.340 . S
N366 C363 1.368 . S
N366 C367 1.321 . S
N366 Co369 2.135 1_565 S
C367 N365 1.340 . S
C367 N366 1.321 . S
C367 H391 0.930 . S
H368 C363 0.931 . S
Co369 N366 2.135 1_545 S
Co369 N372 2.121 . S
Co369 O377 2.055 . S
Co369 O380 2.039 . S
Co369 N383 2.140 . S
C370 O371 1.227 . S
C370 O380 1.265 . S
O371 C370 1.227 . S
N372 Co369 2.121 . S
N372 C374 1.375 . S
N372 C375 1.313 . S
C373 C374 1.338 . S
C373 N376 1.377 . S
C373 H393 0.930 . S
C374 N372 1.375 . S
C374 C373 1.338 . S
C374 H378 0.931 . S
C375 N372 1.313 . S
C375 N376 1.344 . S
C375 H379 0.930 . S
N376 C373 1.377 . S
N376 C375 1.344 . S
O377 Co369 2.055 . S
O377 C381 1.253 . S
H378 C374 0.931 . S
H379 C375 0.930 . S
O380 Co369 2.039 . S
O380 C370 1.265 . S
C381 O377 1.253 . S
C381 O382 1.227 . S
O382 C381 1.227 . S
N383 Co369 2.140 . S
N383 C386 1.346 1_545 S
N383 C387 1.345 . S
C384 C385 1.387 1_545 S
C384 C388 1.391 . S
C385 C384 1.387 1_565 S
C385 C386 1.369 . S
C385 H394 0.929 . S
C386 N383 1.346 1_565 S
C386 C385 1.369 . S
C386 H389 0.928 . S
C387 N383 1.345 . S
C387 C388 1.371 . S
C387 H390 0.931 . S
C388 C384 1.391 . S
C388 C387 1.371 . S
C388 H395 0.930 . S
H389 C386 0.928 . S
H390 C387 0.931 . S
H391 C367 0.930 . S
H392 C364 0.930 . S
H393 C373 0.930 . S
H394 C385 0.929 . S
H395 C388 0.930 . S
C396 C397 1.351 . S
C396 N399 1.368 . S
C396 H401 0.931 . S
C397 C396 1.351 . S
C397 N398 1.373 . S
C397 H425 0.930 . S
N398 C397 1.373 . S
N398 C400 1.340 . S
N399 C396 1.368 . S
N399 C400 1.321 . S
N399 Co402 2.135 . S
C400 N398 1.340 . S
C400 N399 1.321 . S
C400 H424 0.930 . S
H401 C396 0.931 . S
Co402 N399 2.135 . S
Co402 N405 2.121 . S
Co402 O410 2.055 . S
Co402 O413 2.039 . S
Co402 N416 2.140 . S
C403 O404 1.227 . S
C403 O413 1.265 . S
O404 C403 1.227 . S
N405 Co402 2.121 . S
N405 C407 1.375 . S
N405 C408 1.313 . S
C406 C407 1.338 . S
C406 N409 1.377 . S
C406 H426 0.930 . S
C407 N405 1.375 . S
C407 C406 1.338 . S
C407 H411 0.931 . S
C408 N405 1.313 . S
C408 N409 1.344 . S
C408 H412 0.930 . S
N409 C406 1.377 . S
N409 C408 1.344 . S
O410 Co402 2.055 . S
O410 C414 1.253 . S
H411 C407 0.931 . S
H412 C408 0.930 . S
O413 Co402 2.039 . S
O413 C403 1.265 . S
C414 O410 1.253 . S
C414 O415 1.227 . S
O415 C414 1.227 . S
N416 Co402 2.140 . S
N416 C419 1.346 . S
N416 C420 1.345 . S
C417 C418 1.387 . S
C417 C421 1.391 . S
C418 C417 1.387 . S
C418 C419 1.369 . S
C418 H427 0.929 . S
C419 N416 1.346 . S
C419 C418 1.369 . S
C419 H422 0.928 . S
C420 N416 1.345 . S
C420 C421 1.371 . S
C420 H423 0.931 . S
C421 C417 1.391 . S
C421 C420 1.371 . S
C421 H428 0.930 . S
H422 C419 0.928 . S
H423 C420 0.931 . S
H424 C400 0.930 . S
H425 C397 0.930 . S
H426 C406 0.930 . S
H427 C418 0.929 . S
H428 C421 0.930 . S
C429 C430 1.351 . S
C429 N432 1.368 . S
C429 H434 0.931 . S
C430 C429 1.351 . S
C430 N431 1.373 . S
C430 H458 0.930 . S
N431 C430 1.373 . S
N431 C433 1.340 . S
N432 C429 1.368 . S
N432 C433 1.321 . S
N432 Co435 2.135 . S
C433 N431 1.340 . S
C433 N432 1.321 . S
C433 H457 0.930 . S
H434 C429 0.931 . S
Co435 N432 2.135 . S
Co435 N438 2.121 . S
Co435 O443 2.055 . S
Co435 O446 2.039 . S
Co435 N449 2.140 . S
C436 O437 1.227 . S
C436 O446 1.265 . S
O437 C436 1.227 . S
N438 Co435 2.121 . S
N438 C440 1.375 . S
N438 C441 1.313 . S
C439 C440 1.338 . S
C439 N442 1.377 . S
C439 H459 0.930 . S
C440 N438 1.375 . S
C440 C439 1.338 . S
C440 H444 0.931 . S
C441 N438 1.313 . S
C441 N442 1.344 . S
C441 H445 0.930 . S
N442 C439 1.377 . S
N442 C441 1.344 . S
O443 Co435 2.055 . S
O443 C447 1.253 . S
H444 C440 0.931 . S
H445 C441 0.930 . S
O446 Co435 2.039 . S
O446 C436 1.265 . S
C447 O443 1.253 . S
C447 O448 1.227 . S
O448 C447 1.227 . S
N449 Co435 2.140 . S
N449 C452 1.346 . S
N449 C453 1.345 . S
C450 C451 1.387 . S
C450 C454 1.391 . S
C451 C450 1.387 . S
C451 C452 1.369 . S
C451 H460 0.929 . S
C452 N449 1.346 . S
C452 C451 1.369 . S
C452 H455 0.928 . S
C453 N449 1.345 . S
C453 C454 1.371 . S
C453 H456 0.931 . S
C454 C450 1.391 . S
C454 C453 1.371 . S
C454 H461 0.930 . S
H455 C452 0.928 . S
H456 C453 0.931 . S
H457 C433 0.930 . S
H458 C430 0.930 . S
H459 C439 0.930 . S
H460 C451 0.929 . S
H461 C454 0.930 . S
C462 C463 1.351 . S
C462 N465 1.368 . S
C462 H467 0.931 . S
C463 C462 1.351 . S
C463 N464 1.373 . S
C463 H491 0.930 . S
N464 C463 1.373 . S
N464 C466 1.340 . S
N465 C462 1.368 . S
N465 C466 1.321 . S
N465 Co468 2.135 . S
C466 N464 1.340 . S
C466 N465 1.321 . S
C466 H490 0.930 . S
H467 C462 0.931 . S
Co468 N465 2.135 . S
Co468 N471 2.121 . S
Co468 O476 2.055 . S
Co468 O479 2.039 . S
Co468 N482 2.140 . S
C469 O470 1.227 . S
C469 O479 1.265 . S
O470 C469 1.227 . S
N471 Co468 2.121 . S
N471 C473 1.375 . S
N471 C474 1.313 . S
C472 C473 1.338 . S
C472 N475 1.377 . S
C472 H492 0.930 . S
C473 N471 1.375 . S
C473 C472 1.338 . S
C473 H477 0.931 . S
C474 N471 1.313 . S
C474 N475 1.344 . S
C474 H478 0.930 . S
N475 C472 1.377 . S
N475 C474 1.344 . S
O476 Co468 2.055 . S
O476 C480 1.253 . S
H477 C473 0.931 . S
H478 C474 0.930 . S
O479 Co468 2.039 . S
O479 C469 1.265 . S
C480 O476 1.253 . S
C480 O481 1.227 . S
O481 C480 1.227 . S
N482 Co468 2.140 . S
N482 C485 1.346 . S
N482 C486 1.345 . S
C483 C484 1.387 . S
C483 C487 1.391 . S
C484 C483 1.387 . S
C484 C485 1.369 . S
C484 H493 0.929 . S
C485 N482 1.346 . S
C485 C484 1.369 . S
C485 H488 0.928 . S
C486 N482 1.345 . S
C486 C487 1.371 . S
C486 H489 0.931 . S
C487 C483 1.391 . S
C487 C486 1.371 . S
C487 H494 0.930 . S
H488 C485 0.928 . S
H489 C486 0.931 . S
H490 C466 0.930 . S
H491 C463 0.930 . S
H492 C472 0.930 . S
H493 C484 0.929 . S
H494 C487 0.930 . S
C495 C496 1.351 . S
C495 N498 1.368 . S
C495 H500 0.931 . S
C496 C495 1.351 . S
C496 N497 1.373 . S
C496 H524 0.930 . S
N497 C496 1.373 . S
N497 C499 1.340 . S
N498 C495 1.368 . S
N498 C499 1.321 . S
N498 Co501 2.135 . S
C499 N497 1.340 . S
C499 N498 1.321 . S
C499 H523 0.930 . S
H500 C495 0.931 . S
Co501 N498 2.135 . S
Co501 N504 2.121 . S
Co501 O509 2.055 . S
Co501 O512 2.039 . S
Co501 N515 2.140 . S
C502 O503 1.227 . S
C502 O512 1.265 . S
O503 C502 1.227 . S
N504 Co501 2.121 . S
N504 C506 1.375 . S
N504 C507 1.313 . S
C505 C506 1.338 . S
C505 N508 1.377 . S
C505 H525 0.930 . S
C506 N504 1.375 . S
C506 C505 1.338 . S
C506 H510 0.931 . S
C507 N504 1.313 . S
C507 N508 1.344 . S
C507 H511 0.930 . S
N508 C505 1.377 . S
N508 C507 1.344 . S
O509 Co501 2.055 . S
O509 C513 1.253 . S
H510 C506 0.931 . S
H511 C507 0.930 . S
O512 Co501 2.039 . S
O512 C502 1.265 . S
C513 O509 1.253 . S
C513 O514 1.227 . S
O514 C513 1.227 . S
N515 Co501 2.140 . S
N515 C518 1.346 . S
N515 C519 1.345 . S
C516 C517 1.387 . S
C516 C520 1.391 . S
C517 C516 1.387 . S
C517 C518 1.369 . S
C517 H526 0.929 . S
C518 N515 1.346 . S
C518 C517 1.369 . S
C518 H521 0.928 . S
C519 N515 1.345 . S
C519 C520 1.371 . S
C519 H522 0.931 . S
C520 C516 1.391 . S
C520 C519 1.371 . S
C520 H527 0.930 . S
H521 C518 0.928 . S
H522 C519 0.931 . S
H523 C499 0.930 . S
H524 C496 0.930 . S
H525 C505 0.930 . S
H526 C517 0.929 . S
H527 C520 0.930 . S
C528 C529 1.387 . S
C528 H532 0.950 . S
C528 C537 1.390 1_445 S
C529 C528 1.387 . S
C529 C531 1.387 . S
H530 C537 0.950 . S
C531 C529 1.387 . S
C531 C533 1.390 1_445 S
C531 H535 0.950 . S
H532 C528 0.950 . S
C533 C531 1.390 1_665 S
C533 C534 1.387 . S
C533 H536 0.950 . S
C534 C533 1.387 . S
C534 C537 1.387 . S
H535 C531 0.950 . S
H536 C533 0.950 . S
C537 C528 1.390 1_665 S
C537 H530 0.950 . S
C537 C534 1.387 . S
C538 C539 1.387 . S
C538 H542 0.950 . S
C538 C547 1.390 1_465 S
C539 C538 1.387 . S
C539 C541 1.387 . S
H540 C547 0.950 . S
C541 C539 1.387 . S
C541 C543 1.390 1_465 S
C541 H545 0.950 . S
H542 C538 0.950 . S
C543 C541 1.390 1_645 S
C543 C544 1.387 . S
C543 H546 0.950 . S
C544 C543 1.387 . S
C544 C547 1.387 . S
H545 C541 0.950 . S
H546 C543 0.950 . S
C547 C538 1.390 1_645 S
C547 H540 0.950 . S
C547 C544 1.387 . S
C548 C549 1.387 . S
C548 H552 0.950 . S
C548 C557 1.390 . S
C549 C548 1.387 . S
C549 C551 1.387 . S
H550 C557 0.950 . S
C551 C549 1.387 . S
C551 C553 1.390 . S
C551 H555 0.950 . S
H552 C548 0.950 . S
C553 C551 1.390 . S
C553 C554 1.387 . S
C553 H556 0.950 . S
C554 C553 1.387 . S
C554 C557 1.387 . S
H555 C551 0.950 . S
H556 C553 0.950 . S
C557 C548 1.390 . S
C557 H550 0.950 . S
C557 C554 1.387 . S
C558 C559 1.387 . S
C558 H562 0.950 . S
C558 C567 1.390 . S
C559 C558 1.387 . S
C559 C561 1.387 . S
H560 C567 0.950 . S
C561 C559 1.387 . S
C561 C563 1.390 . S
C561 H565 0.950 . S
H562 C558 0.950 . S
C563 C561 1.390 . S
C563 C564 1.387 . S
C563 H566 0.950 . S
C564 C563 1.387 . S
C564 C567 1.387 . S
H565 C561 0.950 . S
H566 C563 0.950 . S
C567 C558 1.390 . S
C567 H560 0.950 . S
C567 C564 1.387 . S
C568 C569 1.387 . S
C568 H572 0.950 . S
C568 C577 1.390 1_445 S
C569 C568 1.387 . S
C569 C571 1.387 . S
H570 C577 0.950 . S
C571 C569 1.387 . S
C571 C573 1.390 1_445 S
C571 H575 0.950 . S
H572 C568 0.950 . S
C573 C571 1.390 1_665 S
C573 C574 1.387 . S
C573 H576 0.950 . S
C574 C573 1.387 . S
C574 C577 1.387 . S
H575 C571 0.950 . S
H576 C573 0.950 . S
C577 C568 1.390 1_665 S
C577 H570 0.950 . S
C577 C574 1.387 . S
C578 C579 1.387 . S
C578 H582 0.950 . S
C578 C587 1.390 1_465 S
C579 C578 1.387 . S
C579 C581 1.387 . S
H580 C587 0.950 . S
C581 C579 1.387 . S
C581 C583 1.390 1_465 S
C581 H585 0.950 . S
H582 C578 0.950 . S
C583 C581 1.390 1_645 S
C583 C584 1.387 . S
C583 H586 0.950 . S
C584 C583 1.387 . S
C584 C587 1.387 . S
H585 C581 0.950 . S
H586 C583 0.950 . S
C587 C578 1.390 1_645 S
C587 H580 0.950 . S
C587 C584 1.387 . S
C588 C589 1.387 . S
C588 H592 0.950 . S
C588 C597 1.390 . S
C589 C588 1.387 . S
C589 C591 1.387 . S
H590 C597 0.950 . S
C591 C589 1.387 . S
C591 C593 1.390 . S
C591 H595 0.950 . S
H592 C588 0.950 . S
C593 C591 1.390 . S
C593 C594 1.387 . S
C593 H596 0.950 . S
C594 C593 1.387 . S
C594 C597 1.387 . S
H595 C591 0.950 . S
H596 C593 0.950 . S
C597 C588 1.390 . S
C597 H590 0.950 . S
C597 C594 1.387 . S
C598 C599 1.387 . S
C598 H602 0.950 . S
C598 C607 1.390 . S
C599 C598 1.387 . S
C599 C601 1.387 . S
H600 C607 0.950 . S
C601 C599 1.387 . S
C601 C603 1.390 . S
C601 H605 0.950 . S
H602 C598 0.950 . S
C603 C601 1.390 . S
C603 C604 1.387 . S
C603 H606 0.950 . S
C604 C603 1.387 . S
C604 C607 1.387 . S
H605 C601 0.950 . S
H606 C603 0.950 . S
C607 C598 1.390 . S
C607 H600 0.950 . S
C607 C604 1.387 . S
C608 C609 1.387 . S
C608 H612 0.950 . S
C608 C617 1.390 1_554 S
C609 C608 1.387 . S
C609 C611 1.387 . S
H610 C617 0.950 . S
C611 C609 1.387 . S
C611 C613 1.390 1_554 S
C611 H615 0.950 1_455 S
H612 C608 0.950 . S
C613 C611 1.390 1_556 S
C613 C614 1.387 . S
C613 H616 0.950 1_455 S
C614 C613 1.387 . S
C614 C617 1.387 . S
H615 C611 0.950 1_655 S
H616 C613 0.950 1_655 S
C617 C608 1.390 1_556 S
C617 H610 0.950 . S
C617 C614 1.387 . S
C618 C619 1.387 . S
C618 H622 0.950 . S
C618 C627 1.390 . S
C619 C618 1.387 . S
C619 C621 1.387 . S
H620 C627 0.950 . S
C621 C619 1.387 . S
C621 C623 1.390 . S
C621 H625 0.950 . S
H622 C618 0.950 . S
C623 C621 1.390 . S
C623 C624 1.387 . S
C623 H626 0.950 . S
C624 C623 1.387 . S
C624 C627 1.387 . S
H625 C621 0.950 . S
H626 C623 0.950 . S
C627 C618 1.390 . S
C627 H620 0.950 . S
C627 C624 1.387 . S
C628 C629 1.387 . S
C628 H632 0.950 . S
C628 C637 1.390 1_556 S
C629 C628 1.387 . S
C629 C631 1.387 . S
H630 C637 0.950 . S
C631 C629 1.387 . S
C631 C633 1.390 1_556 S
C631 H635 0.950 . S
H632 C628 0.950 . S
C633 C631 1.390 1_554 S
C633 C634 1.387 . S
C633 H636 0.950 . S
C634 C633 1.387 . S
C634 C637 1.387 . S
H635 C631 0.950 . S
H636 C633 0.950 . S
C637 C628 1.390 1_554 S
C637 H630 0.950 . S
C637 C634 1.387 . S
C638 C639 1.387 . S
C638 H642 0.950 . S
C638 C647 1.390 . S
C639 C638 1.387 . S
C639 C641 1.387 . S
H640 C647 0.950 . S
C641 C639 1.387 . S
C641 C643 1.390 . S
C641 H645 0.950 . S
H642 C638 0.950 . S
C643 C641 1.390 . S
C643 C644 1.387 . S
C643 H646 0.950 . S
C644 C643 1.387 . S
C644 C647 1.387 . S
H645 C641 0.950 . S
H646 C643 0.950 . S
C647 C638 1.390 . S
C647 H640 0.950 . S
C647 C644 1.387 . S
C648 C649 1.387 . S
C648 H652 0.950 . S
C648 C657 1.390 1_554 S
C649 C648 1.387 . S
C649 C651 1.387 . S
H650 C657 0.950 . S
C651 C649 1.387 . S
C651 C653 1.390 1_554 S
C651 H655 0.950 . S
H652 C648 0.950 . S
C653 C651 1.390 1_556 S
C653 C654 1.387 . S
C653 H656 0.950 . S
C654 C653 1.387 . S
C654 C657 1.387 . S
H655 C651 0.950 . S
H656 C653 0.950 . S
C657 C648 1.390 1_556 S
C657 H650 0.950 . S
C657 C654 1.387 . S
C658 C659 1.387 . S
C658 H662 0.950 . S
C658 C667 1.390 . S
C659 C658 1.387 . S
C659 C661 1.387 . S
H660 C667 0.950 . S
C661 C659 1.387 . S
C661 C663 1.390 . S
C661 H665 0.950 . S
H662 C658 0.950 . S
C663 C661 1.390 . S
C663 C664 1.387 . S
C663 H666 0.950 . S
C664 C663 1.387 . S
C664 C667 1.387 . S
H665 C661 0.950 . S
H666 C663 0.950 . S
C667 C658 1.390 . S
C667 H660 0.950 . S
C667 C664 1.387 . S
C668 C669 1.387 . S
C668 H672 0.950 . S
C668 C677 1.390 1_554 S
C669 C668 1.387 . S
C669 C671 1.387 . S
H670 C677 0.950 . S
C671 C669 1.387 . S
C671 C673 1.390 1_554 S
C671 H675 0.950 . S
H672 C668 0.950 . S
C673 C671 1.390 1_556 S
C673 C674 1.387 . S
C673 H676 0.950 . S
C674 C673 1.387 . S
C674 C677 1.387 . S
H675 C671 0.950 . S
H676 C673 0.950 . S
C677 C668 1.390 1_556 S
C677 H670 0.950 . S
C677 C674 1.387 . S
C678 C679 1.387 . S
C678 H682 0.950 . S
C678 C687 1.390 . S
C679 C678 1.387 . S
C679 C681 1.387 . S
H680 C687 0.950 . S
C681 C679 1.387 . S
C681 C683 1.390 . S
C681 H685 0.950 . S
H682 C678 0.950 . S
C683 C681 1.390 . S
C683 C684 1.387 . S
C683 H686 0.950 . S
C684 C683 1.387 . S
C684 C687 1.387 . S
H685 C681 0.950 . S
H686 C683 0.950 . S
C687 C678 1.390 . S
C687 H680 0.950 . S
C687 C684 1.387 . S
C688 C689 1.387 . S
C688 H692 0.950 . S
C688 C697 1.390 . S
C689 C688 1.387 . S
C689 C691 1.387 . S
H690 C697 0.950 . S
C691 C689 1.387 . S
C691 C693 1.390 . S
C691 H695 0.950 . S
H692 C688 0.950 . S
C693 C691 1.390 . S
C693 C694 1.387 . S
C693 H696 0.950 . S
C694 C693 1.387 . S
C694 C697 1.387 . S
H695 C691 0.950 . S
H696 C693 0.950 . S
C697 C688 1.390 . S
C697 H690 0.950 . S
C697 C694 1.387 . S
C698 C699 1.387 . S
C698 H702 0.950 . S
C698 C707 1.390 . S
C699 C698 1.387 . S
C699 C701 1.387 . S
H700 C707 0.950 . S
C701 C699 1.387 . S
C701 C703 1.390 . S
C701 H705 0.950 . S
H702 C698 0.950 . S
C703 C701 1.390 . S
C703 C704 1.387 . S
C703 H706 0.950 . S
C704 C703 1.387 . S
C704 C707 1.387 . S
H705 C701 0.950 . S
H706 C703 0.950 . S
C707 C698 1.390 . S
C707 H700 0.950 . S
C707 C704 1.387 . S
C708 C709 1.387 . S
C708 H712 0.950 . S
C708 C717 1.390 . S
C709 C708 1.387 . S
C709 C711 1.387 . S
H710 C717 0.950 . S
C711 C709 1.387 . S
C711 C713 1.390 . S
C711 H715 0.950 . S
H712 C708 0.950 . S
C713 C711 1.390 . S
C713 C714 1.387 . S
C713 H716 0.950 . S
C714 C713 1.387 . S
C714 C717 1.387 . S
H715 C711 0.950 . S
H716 C713 0.950 . S
C717 C708 1.390 . S
C717 H710 0.950 . S
C717 C714 1.387 . S
C718 C719 1.387 . S
C718 H722 0.950 . S
C718 C727 1.390 . S
C719 C718 1.387 . S
C719 C721 1.387 . S
H720 C727 0.950 . S
C721 C719 1.387 . S
C721 C723 1.390 . S
C721 H725 0.950 . S
H722 C718 0.950 . S
C723 C721 1.390 . S
C723 C724 1.387 . S
C723 H726 0.950 . S
C724 C723 1.387 . S
C724 C727 1.387 . S
H725 C721 0.950 . S
H726 C723 0.950 . S
C727 C718 1.390 . S
C727 H720 0.950 . S
C727 C724 1.387 . S
C728 C729 1.387 . S
C728 H732 0.950 . S
C728 C737 1.390 . S
C729 C728 1.387 . S
C729 C731 1.387 . S
H730 C737 0.950 . S
C731 C729 1.387 . S
C731 C733 1.390 . S
C731 H735 0.950 . S
H732 C728 0.950 . S
C733 C731 1.390 . S
C733 C734 1.387 . S
C733 H736 0.950 . S
C734 C733 1.387 . S
C734 C737 1.387 . S
H735 C731 0.950 . S
H736 C733 0.950 . S
C737 C728 1.390 . S
C737 H730 0.950 . S
C737 C734 1.387 . S
C738 C739 1.387 . S
C738 H742 0.950 . S
C738 C747 1.390 . S
C739 C738 1.387 . S
C739 C741 1.387 . S
H740 C747 0.950 . S
C741 C739 1.387 . S
C741 C743 1.390 . S
C741 H745 0.950 . S
H742 C738 0.950 . S
C743 C741 1.390 . S
C743 C744 1.387 . S
C743 H746 0.950 . S
C744 C743 1.387 . S
C744 C747 1.387 . S
H745 C741 0.950 . S
H746 C743 0.950 . S
C747 C738 1.390 . S
C747 H740 0.950 . S
C747 C744 1.387 . S
C748 C749 1.387 . S
C748 H752 0.950 . S
C748 C757 1.390 . S
C749 C748 1.387 . S
C749 C751 1.387 . S
H750 C757 0.950 . S
C751 C749 1.387 . S
C751 C753 1.390 . S
C751 H755 0.950 . S
H752 C748 0.950 . S
C753 C751 1.390 . S
C753 C754 1.387 . S
C753 H756 0.950 . S
C754 C753 1.387 . S
C754 C757 1.387 . S
H755 C751 0.950 . S
H756 C753 0.950 . S
C757 C748 1.390 . S
C757 H750 0.950 . S
C757 C754 1.387 . S
C758 C759 1.387 . S
C758 H762 0.950 . S
C758 C767 1.390 . S
C759 C758 1.387 . S
C759 C761 1.387 . S
H760 C767 0.950 . S
C761 C759 1.387 . S
C761 C763 1.390 . S
C761 H765 0.950 . S
H762 C758 0.950 . S
C763 C761 1.390 . S
C763 C764 1.387 . S
C763 H766 0.950 . S
C764 C763 1.387 . S
C764 C767 1.387 . S
H765 C761 0.950 . S
H766 C763 0.950 . S
C767 C758 1.390 . S
C767 H760 0.950 . S
C767 C764 1.387 . S
C768 C769 1.387 . S
C768 H772 0.950 . S
C768 C777 1.390 . S
C769 C768 1.387 . S
C769 C771 1.387 . S
H770 C777 0.950 . S
C771 C769 1.387 . S
C771 C773 1.390 . S
C771 H775 0.950 . S
H772 C768 0.950 . S
C773 C771 1.390 . S
C773 C774 1.387 . S
C773 H776 0.950 . S
C774 C773 1.387 . S
C774 C777 1.387 . S
H775 C771 0.950 . S
H776 C773 0.950 . S
C777 C768 1.390 . S
C777 H770 0.950 . S
C777 C774 1.387 . S
C778 C779 1.387 . S
C778 H782 0.950 . S
C778 C787 1.390 . S
C779 C778 1.387 . S
C779 C781 1.387 . S
H780 C787 0.950 . S
C781 C779 1.387 . S
C781 C783 1.390 . S
C781 H785 0.950 . S
H782 C778 0.950 . S
C783 C781 1.390 . S
C783 C784 1.387 . S
C783 H786 0.950 . S
C784 C783 1.387 . S
C784 C787 1.387 . S
H785 C781 0.950 . S
H786 C783 0.950 . S
C787 C778 1.390 . S
C787 H780 0.950 . S
C787 C784 1.387 . S
C788 C789 1.387 . S
C788 H792 0.950 . S
C788 C797 1.390 . S
C789 C788 1.387 . S
C789 C791 1.387 . S
H790 C797 0.950 . S
C791 C789 1.387 . S
C791 C793 1.390 . S
C791 H795 0.950 . S
H792 C788 0.950 . S
C793 C791 1.390 . S
C793 C794 1.387 . S
C793 H796 0.950 . S
C794 C793 1.387 . S
C794 C797 1.387 . S
H795 C791 0.950 . S
H796 C793 0.950 . S
C797 C788 1.390 . S
C797 H790 0.950 . S
C797 C794 1.387 . S
C798 C799 1.387 . S
C798 H802 0.950 . S
C798 C807 1.390 . S
C799 C798 1.387 . S
C799 C801 1.387 . S
H800 C807 0.950 . S
C801 C799 1.387 . S
C801 C803 1.390 . S
C801 H805 0.950 . S
H802 C798 0.950 . S
C803 C801 1.390 . S
C803 C804 1.387 . S
C803 H806 0.950 . S
C804 C803 1.387 . S
C804 C807 1.387 . S
H805 C801 0.950 . S
H806 C803 0.950 . S
C807 C798 1.390 . S
C807 H800 0.950 . S
C807 C804 1.387 . S
C808 C809 1.387 . S
C808 H812 0.950 . S
C808 C817 1.390 . S
C809 C808 1.387 . S
C809 C811 1.387 . S
H810 C817 0.950 . S
C811 C809 1.387 . S
C811 C813 1.390 . S
C811 H815 0.950 . S
H812 C808 0.950 . S
C813 C811 1.390 . S
C813 C814 1.387 . S
C813 H816 0.950 . S
C814 C813 1.387 . S
C814 C817 1.387 . S
H815 C811 0.950 . S
H816 C813 0.950 . S
C817 C808 1.390 . S
C817 H810 0.950 . S
C817 C814 1.387 . S
C818 C819 1.387 . S
C818 H822 0.950 . S
C818 C827 1.390 . S
C819 C818 1.387 . S
C819 C821 1.387 . S
H820 C827 0.950 . S
C821 C819 1.387 . S
C821 C823 1.390 . S
C821 H825 0.950 . S
H822 C818 0.950 . S
C823 C821 1.390 . S
C823 C824 1.387 . S
C823 H826 0.950 . S
C824 C823 1.387 . S
C824 C827 1.387 . S
H825 C821 0.950 . S
H826 C823 0.950 . S
C827 C818 1.390 . S
C827 H820 0.950 . S
C827 C824 1.387 . S
C828 C829 1.387 . S
C828 H832 0.950 . S
C828 C837 1.390 . S
C829 C828 1.387 . S
C829 C831 1.387 . S
H830 C837 0.950 . S
C831 C829 1.387 . S
C831 C833 1.390 . S
C831 H835 0.950 . S
H832 C828 0.950 . S
C833 C831 1.390 . S
C833 C834 1.387 . S
C833 H836 0.950 . S
C834 C833 1.387 . S
C834 C837 1.387 . S
H835 C831 0.950 . S
H836 C833 0.950 . S
C837 C828 1.390 . S
C837 H830 0.950 . S
C837 C834 1.387 . S
C838 C839 1.387 . S
C838 H842 0.950 . S
C838 C847 1.390 . S
C839 C838 1.387 . S
C839 C841 1.387 . S
H840 C847 0.950 . S
C841 C839 1.387 . S
C841 C843 1.390 . S
C841 H845 0.950 . S
H842 C838 0.950 . S
C843 C841 1.390 . S
C843 C844 1.387 . S
C843 H846 0.950 . S
C844 C843 1.387 . S
C844 C847 1.387 . S
H845 C841 0.950 . S
H846 C843 0.950 . S
C847 C838 1.390 . S
C847 H840 0.950 . S
C847 C844 1.387 . S
C848 C849 1.387 . S
C848 H852 0.950 . S
C848 C857 1.390 . S
C849 C848 1.387 . S
C849 C851 1.387 . S
H850 C857 0.950 . S
C851 C849 1.387 . S
C851 C853 1.390 . S
C851 H855 0.950 . S
H852 C848 0.950 . S
C853 C851 1.390 . S
C853 C854 1.387 . S
C853 H856 0.950 . S
C854 C853 1.387 . S
C854 C857 1.387 . S
H855 C851 0.950 . S
H856 C853 0.950 . S
C857 C848 1.390 . S
C857 H850 0.950 . S
C857 C854 1.387 . S
C858 C859 1.387 . S
C858 H862 0.950 . S
C858 C867 1.390 . S
C859 C858 1.387 . S
C859 C861 1.387 . S
H860 C867 0.950 . S
C861 C859 1.387 . S
C861 C863 1.390 . S
C861 H865 0.950 . S
H862 C858 0.950 . S
C863 C861 1.390 . S
C863 C864 1.387 . S
C863 H866 0.950 . S
C864 C863 1.387 . S
C864 C867 1.387 . S
H865 C861 0.950 . S
H866 C863 0.950 . S
C867 C858 1.390 . S
C867 H860 0.950 . S
C867 C864 1.387 . S
C868 C869 1.387 . S
C868 H872 0.950 . S
C868 C877 1.390 . S
C869 C868 1.387 . S
C869 C871 1.387 . S
H870 C877 0.950 . S
C871 C869 1.387 . S
C871 C873 1.390 . S
C871 H875 0.950 . S
H872 C868 0.950 . S
C873 C871 1.390 . S
C873 C874 1.387 . S
C873 H876 0.950 . S
C874 C873 1.387 . S
C874 C877 1.387 . S
H875 C871 0.950 . S
H876 C873 0.950 . S
C877 C868 1.390 . S
C877 H870 0.950 . S
C877 C874 1.387 . S
C878 C879 1.387 . S
C878 H882 0.950 . S
C878 C887 1.390 . S
C879 C878 1.387 . S
C879 C881 1.387 . S
H880 C887 0.950 . S
C881 C879 1.387 . S
C881 C883 1.390 . S
C881 H885 0.950 . S
H882 C878 0.950 . S
C883 C881 1.390 . S
C883 C884 1.387 . S
C883 H886 0.950 . S
C884 C883 1.387 . S
C884 C887 1.387 . S
H885 C881 0.950 . S
H886 C883 0.950 . S
C887 C878 1.390 . S
C887 H880 0.950 . S
C887 C884 1.387 . S
C888 C889 1.387 . S
C888 H892 0.950 . S
C888 C897 1.390 . S
C889 C888 1.387 . S
C889 C891 1.387 . S
H890 C897 0.950 . S
C891 C889 1.387 . S
C891 C893 1.390 . S
C891 H895 0.950 . S
H892 C888 0.950 . S
C893 C891 1.390 . S
C893 C894 1.387 . S
C893 H896 0.950 . S
C894 C893 1.387 . S
C894 C897 1.387 . S
H895 C891 0.950 . S
H896 C893 0.950 . S
C897 C888 1.390 . S
C897 H890 0.950 . S
C897 C894 1.387 . S
C898 C899 1.387 . S
C898 H902 0.950 . S
C898 C907 1.390 . S
C899 C898 1.387 . S
C899 C901 1.387 . S
H900 C907 0.950 . S
C901 C899 1.387 . S
C901 C903 1.390 . S
C901 H905 0.950 . S
H902 C898 0.950 . S
C903 C901 1.390 . S
C903 C904 1.387 . S
C903 H906 0.950 . S
C904 C903 1.387 . S
C904 C907 1.387 . S
H905 C901 0.950 . S
H906 C903 0.950 . S
C907 C898 1.390 . S
C907 H900 0.950 . S
C907 C904 1.387 . S
C908 C909 1.387 . S
C908 H912 0.950 . S
C908 C917 1.390 . S
C909 C908 1.387 . S
C909 C911 1.387 . S
H910 C917 0.950 . S
C911 C909 1.387 . S
C911 C913 1.390 . S
C911 H915 0.950 . S
H912 C908 0.950 . S
C913 C911 1.390 . S
C913 C914 1.387 . S
C913 H916 0.950 . S
C914 C913 1.387 . S
C914 C917 1.387 . S
H915 C911 0.950 . S
H916 C913 0.950 . S
C917 C908 1.390 . S
C917 H910 0.950 . S
C917 C914 1.387 . S
C918 C919 1.387 . S
C918 H922 0.950 . S
C918 C927 1.390 . S
C919 C918 1.387 . S
C919 C921 1.387 . S
H920 C927 0.950 . S
C921 C919 1.387 . S
C921 C923 1.390 . S
C921 H925 0.950 . S
H922 C918 0.950 . S
C923 C921 1.390 . S
C923 C924 1.387 . S
C923 H926 0.950 . S
C924 C923 1.387 . S
C924 C927 1.387 . S
H925 C921 0.950 . S
H926 C923 0.950 . S
C927 C918 1.390 . S
C927 H920 0.950 . S
C927 C924 1.387 . S
C529 C21 1.408 . S
C534 C87 1.408 . S
C539 C120 1.408 . S
C544 C54 1.408 . S
C549 C219 1.408 . S
C554 C153 1.408 . S
C559 C186 1.407 . S
C564 C252 1.407 . S
C569 C351 1.408 . S
C574 C285 1.408 . S
C579 C318 1.407 . S
C584 C384 1.407 . S
C589 C483 1.408 . S
C594 C417 1.408 . S
C599 C450 1.407 . S
C604 C516 1.407 . S
C609 C7 1.545 . S
C614 C337 1.545 . S
C619 C370 1.545 . S
C624 C40 1.545 . S
C629 C271 1.545 . S
C634 C73 1.545 . S
C639 C304 1.545 . S
C644 C106 1.545 . S
C649 C469 1.545 . S
C654 C139 1.545 . S
C659 C502 1.545 . S
C664 C172 1.545 . S
C669 C403 1.545 . S
C674 C205 1.545 . S
C679 C436 1.546 . S
C684 C238 1.544 . S
C689 C18 1.421 . S
C694 C249 1.423 . S
C699 C51 1.422 . S
C704 C150 1.424 . S
C709 C183 1.422 . S
C714 C84 1.424 . S
C719 C216 1.422 . S
C724 C117 1.421 . S
C729 C282 1.424 . S
C734 C513 1.422 . S
C739 C315 1.422 . S
C744 C414 1.424 . S
C749 C348 1.424 . S
C754 C447 1.422 . S
C759 C381 1.423 . S
C764 C480 1.422 . S
C769 N464 1.363 . S
C774 N13 1.353 . S
C779 N46 1.353 . S
C784 N497 1.363 . S
C789 N398 1.362 . S
C794 N79 1.351 . S
C799 N431 1.362 . S
C804 N112 1.351 . S
C809 N332 1.362 . S
C814 N145 1.351 . S
C819 N178 1.353 . S
C824 N365 1.363 . S
C829 N266 1.362 . S
C834 N211 1.351 . S
C839 N244 1.354 . S
C844 N299 1.363 . S
C849 N200 1.363 . S
C854 N277 1.353 . S
C859 N233 1.363 . S
C864 N310 1.353 . S
C869 N134 1.362 . S
C874 N343 1.351 . S
C879 N376 1.353 . S
C884 N167 1.363 . S
C889 N68 1.362 . S
C894 N409 1.351 . S
C899 N442 1.351 . S
C904 N101 1.362 . S
C909 N475 1.353 . S
C914 N2 1.363 . S
C919 N35 1.362 . S
C924 N508 1.351 . S
