# Generated by pormake.
# Topology uow, (4)-cn, num edge types: 1
# Building blocks:
#     Node 0, Type 0, BuildingBlock: KUFVIS_clean_sbu_0, # of connection points: 4
#     Node 1, Type 0, BuildingBlock: KUFVIS_clean_sbu_0, # of connection points: 4
#     Node 2, Type 0, BuildingBlock: KUFVIS_clean_sbu_0, # of connection points: 4
#     Node 3, Type 0, BuildingBlock: KUFVIS_clean_sbu_0, # of connection points: 4
#     Node 4, Type 0, BuildingBlock: KUFVIS_clean_sbu_0, # of connection points: 4
#     Node 5, Type 0, BuildingBlock: KUFVIS_clean_sbu_0, # of connection points: 4
#     Node 6, Type 0, BuildingBlock: KUFVIS_clean_sbu_0, # of connection points: 4
#     Node 7, Type 0, BuildingBlock: KUFVIS_clean_sbu_0, # of connection points: 4
#     Node 8, Type 0, BuildingBlock: KUFVIS_clean_sbu_0, # of connection points: 4
#     Node 9, Type 0, BuildingBlock: KUFVIS_clean_sbu_0, # of connection points: 4
#     Node 10, Type 0, BuildingBlock: KUFVIS_clean_sbu_0, # of connection points: 4
#     Node 11, Type 0, BuildingBlock: KUFVIS_clean_sbu_0, # of connection points: 4
#     Node 12, Type 0, BuildingBlock: KUFVIS_clean_sbu_0, # of connection points: 4
#     Node 13, Type 0, BuildingBlock: KUFVIS_clean_sbu_0, # of connection points: 4
#     Node 14, Type 0, BuildingBlock: KUFVIS_clean_sbu_0, # of connection points: 4
#     Node 15, Type 0, BuildingBlock: KUFVIS_clean_sbu_0, # of connection points: 4
#     Node 16, Type 0, BuildingBlock: KUFVIS_clean_sbu_0, # of connection points: 4
#     Node 17, Type 0, BuildingBlock: KUFVIS_clean_sbu_0, # of connection points: 4
#     Node 18, Type 0, BuildingBlock: KUFVIS_clean_sbu_0, # of connection points: 4
#     Node 19, Type 0, BuildingBlock: KUFVIS_clean_sbu_0, # of connection points: 4
#     Node 20, Type 0, BuildingBlock: KUFVIS_clean_sbu_0, # of connection points: 4
#     Node 21, Type 0, BuildingBlock: KUFVIS_clean_sbu_0, # of connection points: 4
#     Node 22, Type 0, BuildingBlock: KUFVIS_clean_sbu_0, # of connection points: 4
#     Node 23, Type 0, BuildingBlock: KUFVIS_clean_sbu_0, # of connection points: 4
#     Node 24, Type 0, BuildingBlock: KUFVIS_clean_sbu_0, # of connection points: 4
#     Node 25, Type 0, BuildingBlock: KUFVIS_clean_sbu_0, # of connection points: 4
#     Node 26, Type 0, BuildingBlock: KUFVIS_clean_sbu_0, # of connection points: 4
#     Node 27, Type 0, BuildingBlock: KUFVIS_clean_sbu_0, # of connection points: 4
#     Node 28, Type 0, BuildingBlock: KUFVIS_clean_sbu_0, # of connection points: 4
#     Node 29, Type 0, BuildingBlock: KUFVIS_clean_sbu_0, # of connection points: 4
#     Node 30, Type 0, BuildingBlock: KUFVIS_clean_sbu_0, # of connection points: 4
#     Node 31, Type 0, BuildingBlock: KUFVIS_clean_sbu_0, # of connection points: 4
#     Edge 32, Type (0, 0), BuildingBlock: XIVTED_clean_linker_0, # of connection points: 2
#     Edge 33, Type (0, 0), BuildingBlock: XIVTED_clean_linker_0, # of connection points: 2
#     Edge 34, Type (0, 0), BuildingBlock: XIVTED_clean_linker_0, # of connection points: 2
#     Edge 35, Type (0, 0), BuildingBlock: XIVTED_clean_linker_0, # of connection points: 2
#     Edge 36, Type (0, 0), BuildingBlock: XIVTED_clean_linker_0, # of connection points: 2
#     Edge 37, Type (0, 0), BuildingBlock: XIVTED_clean_linker_0, # of connection points: 2
#     Edge 38, Type (0, 0), BuildingBlock: XIVTED_clean_linker_0, # of connection points: 2
#     Edge 39, Type (0, 0), BuildingBlock: XIVTED_clean_linker_0, # of connection points: 2
#     Edge 40, Type (0, 0), BuildingBlock: XIVTED_clean_linker_0, # of connection points: 2
#     Edge 41, Type (0, 0), BuildingBlock: XIVTED_clean_linker_0, # of connection points: 2
#     Edge 42, Type (0, 0), BuildingBlock: XIVTED_clean_linker_0, # of connection points: 2
#     Edge 43, Type (0, 0), BuildingBlock: XIVTED_clean_linker_0, # of connection points: 2
#     Edge 44, Type (0, 0), BuildingBlock: XIVTED_clean_linker_0, # of connection points: 2
#     Edge 45, Type (0, 0), BuildingBlock: XIVTED_clean_linker_0, # of connection points: 2
#     Edge 46, Type (0, 0), BuildingBlock: XIVTED_clean_linker_0, # of connection points: 2
#     Edge 47, Type (0, 0), BuildingBlock: XIVTED_clean_linker_0, # of connection points: 2
#     Edge 48, Type (0, 0), BuildingBlock: XIVTED_clean_linker_0, # of connection points: 2
#     Edge 49, Type (0, 0), BuildingBlock: XIVTED_clean_linker_0, # of connection points: 2
#     Edge 50, Type (0, 0), BuildingBlock: XIVTED_clean_linker_0, # of connection points: 2
#     Edge 51, Type (0, 0), BuildingBlock: XIVTED_clean_linker_0, # of connection points: 2
#     Edge 52, Type (0, 0), BuildingBlock: XIVTED_clean_linker_0, # of connection points: 2
#     Edge 53, Type (0, 0), BuildingBlock: XIVTED_clean_linker_0, # of connection points: 2
#     Edge 54, Type (0, 0), BuildingBlock: XIVTED_clean_linker_0, # of connection points: 2
#     Edge 55, Type (0, 0), BuildingBlock: XIVTED_clean_linker_0, # of connection points: 2
#     Edge 56, Type (0, 0), BuildingBlock: XIVTED_clean_linker_0, # of connection points: 2
#     Edge 57, Type (0, 0), BuildingBlock: XIVTED_clean_linker_0, # of connection points: 2
#     Edge 58, Type (0, 0), BuildingBlock: XIVTED_clean_linker_0, # of connection points: 2
#     Edge 59, Type (0, 0), BuildingBlock: XIVTED_clean_linker_0, # of connection points: 2
#     Edge 60, Type (0, 0), BuildingBlock: XIVTED_clean_linker_0, # of connection points: 2
#     Edge 61, Type (0, 0), BuildingBlock: XIVTED_clean_linker_0, # of connection points: 2
#     Edge 62, Type (0, 0), BuildingBlock: XIVTED_clean_linker_0, # of connection points: 2
#     Edge 63, Type (0, 0), BuildingBlock: XIVTED_clean_linker_0, # of connection points: 2
#     Edge 64, Type (0, 0), BuildingBlock: XIVTED_clean_linker_0, # of connection points: 2
#     Edge 65, Type (0, 0), BuildingBlock: XIVTED_clean_linker_0, # of connection points: 2
#     Edge 66, Type (0, 0), BuildingBlock: XIVTED_clean_linker_0, # of connection points: 2
#     Edge 67, Type (0, 0), BuildingBlock: XIVTED_clean_linker_0, # of connection points: 2
#     Edge 68, Type (0, 0), BuildingBlock: XIVTED_clean_linker_0, # of connection points: 2
#     Edge 69, Type (0, 0), BuildingBlock: XIVTED_clean_linker_0, # of connection points: 2
#     Edge 70, Type (0, 0), BuildingBlock: XIVTED_clean_linker_0, # of connection points: 2
#     Edge 71, Type (0, 0), BuildingBlock: XIVTED_clean_linker_0, # of connection points: 2
#     Edge 72, Type (0, 0), BuildingBlock: XIVTED_clean_linker_0, # of connection points: 2
#     Edge 73, Type (0, 0), BuildingBlock: XIVTED_clean_linker_0, # of connection points: 2
#     Edge 74, Type (0, 0), BuildingBlock: XIVTED_clean_linker_0, # of connection points: 2
#     Edge 75, Type (0, 0), BuildingBlock: XIVTED_clean_linker_0, # of connection points: 2
#     Edge 76, Type (0, 0), BuildingBlock: XIVTED_clean_linker_0, # of connection points: 2
#     Edge 77, Type (0, 0), BuildingBlock: XIVTED_clean_linker_0, # of connection points: 2
#     Edge 78, Type (0, 0), BuildingBlock: XIVTED_clean_linker_0, # of connection points: 2
#     Edge 79, Type (0, 0), BuildingBlock: XIVTED_clean_linker_0, # of connection points: 2
#     Edge 80, Type (0, 0), BuildingBlock: XIVTED_clean_linker_0, # of connection points: 2
#     Edge 81, Type (0, 0), BuildingBlock: XIVTED_clean_linker_0, # of connection points: 2
#     Edge 82, Type (0, 0), BuildingBlock: XIVTED_clean_linker_0, # of connection points: 2
#     Edge 83, Type (0, 0), BuildingBlock: XIVTED_clean_linker_0, # of connection points: 2
#     Edge 84, Type (0, 0), BuildingBlock: XIVTED_clean_linker_0, # of connection points: 2
#     Edge 85, Type (0, 0), BuildingBlock: XIVTED_clean_linker_0, # of connection points: 2
#     Edge 86, Type (0, 0), BuildingBlock: XIVTED_clean_linker_0, # of connection points: 2
#     Edge 87, Type (0, 0), BuildingBlock: XIVTED_clean_linker_0, # of connection points: 2
#     Edge 88, Type (0, 0), BuildingBlock: XIVTED_clean_linker_0, # of connection points: 2
#     Edge 89, Type (0, 0), BuildingBlock: XIVTED_clean_linker_0, # of connection points: 2
#     Edge 90, Type (0, 0), BuildingBlock: XIVTED_clean_linker_0, # of connection points: 2
#     Edge 91, Type (0, 0), BuildingBlock: XIVTED_clean_linker_0, # of connection points: 2
#     Edge 92, Type (0, 0), BuildingBlock: XIVTED_clean_linker_0, # of connection points: 2
#     Edge 93, Type (0, 0), BuildingBlock: XIVTED_clean_linker_0, # of connection points: 2
#     Edge 94, Type (0, 0), BuildingBlock: XIVTED_clean_linker_0, # of connection points: 2
#     Edge 95, Type (0, 0), BuildingBlock: XIVTED_clean_linker_0, # of connection points: 2
# Relax obj value: 0.132
# Max RMSD: 0.176
# Mean RMSD: 0.165
data_MOF--net-uow--node1-KUFVIS_clean_sbu_0--edge1-XIVTED_clean_linker_0
_symmetry_space_group_name_H-M    P1
_symmetry_Int_Tables_number       1
_symmetry_cell_setting            triclinic
loop_
_symmetry_equiv_pos_as_xyz
'x, y, z'
_cell_length_a     60.8917
_cell_length_b     62.758039
_cell_length_c     40.986744
_cell_angle_alpha  89.962175
_cell_angle_beta   89.983152
_cell_angle_gamma 89.981599
loop_
_atom_site_label
_atom_site_type_symbol
_atom_site_fract_x
_atom_site_fract_y
_atom_site_fract_z
_atom_type_partial_charge
Mn0 Mn 0.05069 0.38536 0.27014 0.0
Mn1 Mn 0.00308 0.38428 0.22846 0.0
C2 C 0.0185 0.37659 0.29657 0.0
C3 C 0.0822 0.36802 0.28746 0.0
C4 C 0.02634 0.42494 0.24872 0.0
O5 O 0.06039 0.38512 0.22252 0.0
O6 O 0.02779 0.37905 0.19793 0.0
C7 C 0.00231 0.33886 0.20904 0.0
N8 N 0.99268 0.35567 0.22443 0.0
C9 C 0.96189 0.33408 0.24066 0.0
C10 C 0.97137 0.31661 0.22465 0.0
C11 C 0.99169 0.319 0.20885 0.0
C12 C 0.97317 0.35351 0.23985 0.0
H13 H 0.01805 0.34057 0.19719 0.0
C14 C 0.04877 0.38079 0.19741 0.0
O15 O 0.08137 0.38869 0.2863 0.0
O16 O 0.06511 0.35757 0.27751 0.0
N17 N 0.97799 0.38879 0.25579 0.0
C18 C 0.97173 0.40683 0.27178 0.0
C19 C 0.95208 0.4069 0.28973 0.0
C20 C 0.93903 0.38846 0.29097 0.0
C21 C 0.94571 0.37014 0.27411 0.0
C22 C 0.96534 0.37108 0.25635 0.0
H23 H 0.98168 0.42105 0.27098 0.0
O24 O 0.0354 0.38287 0.31323 0.0
O25 O 0.02119 0.37535 0.26525 0.0
O26 O 0.04112 0.41624 0.26619 0.0
O27 O 0.01224 0.41452 0.23203 0.0
C28 C 0.93388 0.35085 0.27477 0.0
C29 C 0.94198 0.33283 0.25809 0.0
H30 H 0.96331 0.30122 0.22466 0.0
H31 H -0.00079 0.30555 0.19669 0.0
H32 H 0.94705 0.42109 0.3027 0.0
H33 H 0.92401 0.3885 0.30514 0.0
H34 H 0.91871 0.34961 0.28845 0.0
H35 H 0.93291 0.31799 0.25921 0.0
Mn36 Mn 0.85851 0.8143 0.56181 0.0
Mn37 Mn 0.85233 0.86784 0.56524 0.0
C38 C 0.88528 0.83482 0.58535 0.0
C39 C 0.85266 0.78071 0.58458 0.0
C40 C 0.86828 0.84479 0.50499 0.0
O41 O 0.82647 0.81826 0.5502 0.0
O42 O 0.82403 0.85392 0.55395 0.0
C43 C 0.82415 0.86813 0.62409 0.0
N44 N 0.84274 0.87455 0.60845 0.0
C45 C 0.85499 0.8939 0.65575 0.0
C46 C 0.8359 0.8876 0.6723 0.0
C47 C 0.82043 0.87464 0.6564 0.0
C48 C 0.85779 0.8869 0.62358 0.0
H49 H 0.81231 0.85804 0.61204 0.0
C50 C 0.81572 0.8356 0.54796 0.0
O51 O 0.85665 0.78295 0.5536 0.0
O52 O 0.85097 0.798 0.60168 0.0
N53 N 0.87809 0.88391 0.57571 0.0
C54 C 0.89515 0.88932 0.55584 0.0
C55 C 0.91195 0.90248 0.56786 0.0
C56 C 0.91084 0.91026 0.59995 0.0
C57 C 0.89268 0.90517 0.61949 0.0
C58 C 0.87634 0.89214 0.60607 0.0
H59 H 0.89605 0.88344 0.53111 0.0
O60 O 0.88954 0.81553 0.57614 0.0
O61 O 0.86509 0.84134 0.58203 0.0
O62 O 0.86736 0.82595 0.5169 0.0
O63 O 0.86295 0.86163 0.52074 0.0
C64 C 0.89019 0.91243 0.6518 0.0
C65 C 0.8714 0.90672 0.66997 0.0
H66 H 0.83298 0.89257 0.69724 0.0
H67 H 0.8057 0.86964 0.66906 0.0
H68 H 0.92578 0.90655 0.55248 0.0
H69 H 0.92393 0.92022 0.60925 0.0
H70 H 0.90265 0.92236 0.66293 0.0
H71 H 0.86971 0.91232 0.69484 0.0
Mn72 Mn 0.45022 0.61729 0.7706 0.0
Mn73 Mn 0.49114 0.60565 0.71815 0.0
C74 C 0.48553 0.61303 0.7897 0.0
C75 C 0.42859 0.64252 0.79631 0.0
C76 C 0.45748 0.57344 0.74161 0.0
O77 O 0.43702 0.62396 0.72633 0.0
O78 O 0.46659 0.61929 0.69388 0.0
C79 C 0.50452 0.64941 0.6999 0.0
N80 N 0.50971 0.6299 0.71227 0.0
C81 C 0.54722 0.64049 0.7211 0.0
C82 C 0.54234 0.66061 0.70808 0.0
C83 C 0.52089 0.66509 0.6975 0.0
C84 C 0.5303 0.62541 0.72252 0.0
H85 H 0.488 0.653 0.69211 0.0
C86 C 0.44658 0.62482 0.69867 0.0
O87 O 0.42167 0.62309 0.79267 0.0
O88 O 0.44764 0.64731 0.78421 0.0
N89 N 0.51601 0.59268 0.73875 0.0
C90 C 0.51759 0.57311 0.75296 0.0
C91 C 0.53777 0.56648 0.76607 0.0
C92 C 0.55611 0.58001 0.76438 0.0
C93 C 0.55412 0.60003 0.74948 0.0
C94 C 0.53365 0.60568 0.73649 0.0
H95 H 0.50354 0.56267 0.75449 0.0
O96 O 0.46901 0.61138 0.80954 0.0
O97 O 0.48082 0.61748 0.75954 0.0
O98 O 0.44757 0.58563 0.76158 0.0
O99 O 0.47329 0.57952 0.72331 0.0
C100 C 0.57149 0.61481 0.74772 0.0
C101 C 0.56805 0.63503 0.73355 0.0
H102 H 0.55486 0.67283 0.7065 0.0
H103 H 0.51694 0.68065 0.6877 0.0
H104 H 0.53917 0.55103 0.77762 0.0
H105 H 0.57158 0.57494 0.77488 0.0
H106 H 0.58747 0.61092 0.75769 0.0
H107 H 0.58143 0.64639 0.73286 0.0
Mn108 Mn 0.63231 0.1922 0.06347 0.0
Mn109 Mn 0.63819 0.13869 0.06596 0.0
C110 C 0.6047 0.17144 0.08462 0.0
C111 C 0.63751 0.22523 0.08822 0.0
C112 C 0.62529 0.16282 0.00489 0.0
O113 O 0.66474 0.18816 0.05401 0.0
O114 O 0.66711 0.15252 0.05897 0.0
C115 C 0.6629 0.13674 0.12805 0.0
N116 N 0.6452 0.13092 0.10983 0.0
C117 C 0.63018 0.11053 0.1543 0.0
C118 C 0.64833 0.11619 0.17348 0.0
C119 C 0.66474 0.12938 0.1603 0.0
C120 C 0.62926 0.11834 0.12232 0.0
H121 H 0.67546 0.14699 0.11807 0.0
C122 C 0.67564 0.17082 0.05345 0.0
O123 O 0.63454 0.22372 0.05688 0.0
O124 O 0.63865 0.20757 0.10451 0.0
N125 N 0.61166 0.12291 0.07242 0.0
C126 C 0.59545 0.11862 0.05048 0.0
C127 C 0.5778 0.10553 0.05974 0.0
C128 C 0.57717 0.09676 0.09127 0.0
C129 C 0.59439 0.10087 0.11307 0.0
C130 C 0.61165 0.11385 0.10236 0.0
H131 H 0.59587 0.12528 0.02619 0.0
O132 O 0.60076 0.19085 0.07563 0.0
O133 O 0.62495 0.16498 0.08232 0.0
O134 O 0.62492 0.18144 0.01755 0.0
O135 O 0.63032 0.14586 0.02055 0.0
C136 C 0.59506 0.0927 0.14507 0.0
C137 C 0.61288 0.09761 0.16573 0.0
H138 H 0.64978 0.11059 0.19839 0.0
H139 H 0.67875 0.13389 0.175 0.0
H140 H 0.56467 0.10228 0.04267 0.0
H141 H 0.56342 0.08686 0.09845 0.0
H142 H 0.5819 0.08271 0.15406 0.0
H143 H 0.61312 0.09135 0.19037 0.0
Mn144 Mn 0.06529 0.61993 0.21271 0.0
Mn145 Mn 0.0177 0.62602 0.25362 0.0
C146 C 0.03373 0.62861 0.18469 0.0
C147 C 0.09765 0.63472 0.19351 0.0
C148 C 0.03834 0.5831 0.23854 0.0
O149 O 0.07494 0.62214 0.2602 0.0
O150 O 0.04271 0.63142 0.28346 0.0
C151 C 0.02008 0.67236 0.2666 0.0
N152 N 0.00919 0.65534 0.25387 0.0
C153 C 0.97953 0.67771 0.23559 0.0
C154 C 0.99029 0.69543 0.24889 0.0
C155 C 0.0107 0.69275 0.26436 0.0
C156 C 0.98965 0.65777 0.23867 0.0
H157 H 0.03587 0.6704 0.27819 0.0
C158 C 0.06352 0.62846 0.28449 0.0
O159 O 0.09582 0.61423 0.19724 0.0
O160 O 0.08113 0.64646 0.20209 0.0
N161 N 0.99213 0.62151 0.22732 0.0
C162 C 0.98437 0.60296 0.21445 0.0
C163 C 0.96431 0.60298 0.19754 0.0
C164 C 0.95237 0.62201 0.19422 0.0
C165 C 0.96055 0.64084 0.20798 0.0
C166 C 0.98052 0.63982 0.22485 0.0
H167 H 0.99341 0.58826 0.21699 0.0
O168 O 0.05042 0.62073 0.16923 0.0
O169 O 0.03627 0.63167 0.21577 0.0
O170 O 0.05384 0.58994 0.22048 0.0
O171 O 0.02489 0.59519 0.25378 0.0
C172 C 0.94985 0.66067 0.20512 0.0
C173 C 0.95938 0.6791 0.21881 0.0
H174 H 0.98316 0.71121 0.24706 0.0
H175 H 0.0192 0.70639 0.27442 0.0
H176 H 0.95811 0.58837 0.18699 0.0
H177 H 0.93702 0.622 0.18085 0.0
H178 H 0.93447 0.66198 0.19201 0.0
H179 H 0.95118 0.69431 0.216 0.0
Mn180 Mn 0.62888 0.81371 0.41938 0.0
Mn181 Mn 0.63395 0.86715 0.41447 0.0
C182 C 0.60057 0.83365 0.39922 0.0
C183 C 0.63359 0.78011 0.39635 0.0
C184 C 0.61961 0.84495 0.47586 0.0
O185 O 0.66132 0.81771 0.42686 0.0
O186 O 0.66201 0.85343 0.42802 0.0
C187 C 0.66339 0.86561 0.35698 0.0
N188 N 0.64444 0.87245 0.37121 0.0
C189 C 0.63322 0.8902 0.32188 0.0
C190 C 0.65266 0.88342 0.30676 0.0
C191 C 0.66779 0.87104 0.32438 0.0
C192 C 0.62967 0.88418 0.35436 0.0
H193 H 0.67505 0.85603 0.37035 0.0
C194 C 0.67121 0.83524 0.43173 0.0
O195 O 0.63138 0.78238 0.42773 0.0
O196 O 0.63424 0.79735 0.379 0.0
N197 N 0.60867 0.88329 0.40176 0.0
C198 C 0.59178 0.89027 0.4208 0.0
C199 C 0.5754 0.90326 0.40711 0.0
C200 C 0.5769 0.90949 0.37427 0.0
C201 C 0.59507 0.90311 0.35567 0.0
C202 C 0.61088 0.89016 0.37067 0.0
H203 H 0.5906 0.88559 0.44605 0.0
O204 O 0.59722 0.81438 0.40931 0.0
O205 O 0.62082 0.84047 0.39927 0.0
O206 O 0.6226 0.82594 0.46519 0.0
O207 O 0.62238 0.86179 0.45861 0.0
C208 C 0.59829 0.90934 0.32299 0.0
C209 C 0.61728 0.90278 0.30604 0.0
H210 H 0.65614 0.88763 0.28165 0.0
H211 H 0.68281 0.86571 0.31287 0.0
H212 H 0.56162 0.90841 0.42181 0.0
H213 H 0.56419 0.91943 0.36375 0.0
H214 H 0.58633 0.91929 0.31071 0.0
H215 H 0.61958 0.90769 0.28093 0.0
Mn216 Mn 0.4511 0.37248 0.72787 0.0
Mn217 Mn 0.49215 0.38406 0.77974 0.0
C218 C 0.48677 0.37376 0.70911 0.0
C219 C 0.42841 0.34684 0.70521 0.0
C220 C 0.46002 0.41678 0.7531 0.0
O221 O 0.43726 0.36888 0.7726 0.0
O222 O 0.46712 0.37205 0.80494 0.0
C223 C 0.50414 0.34065 0.80164 0.0
N224 N 0.50991 0.35946 0.78745 0.0
C225 C 0.54688 0.34717 0.77864 0.0
C226 C 0.5414 0.32775 0.79351 0.0
C227 C 0.51993 0.32448 0.80501 0.0
C228 C 0.53053 0.3628 0.77632 0.0
H229 H 0.4876 0.33797 0.81014 0.0
C230 C 0.44671 0.36798 0.80035 0.0
O231 O 0.42245 0.36673 0.70586 0.0
O232 O 0.4471 0.342 0.71838 0.0
N233 N 0.51733 0.39545 0.75783 0.0
C234 C 0.51946 0.41438 0.74183 0.0
C235 C 0.53969 0.41972 0.72756 0.0
C236 C 0.5575 0.40558 0.72988 0.0
C237 C 0.55494 0.38622 0.74656 0.0
C238 C 0.53446 0.38186 0.76062 0.0
H239 H 0.5058 0.42526 0.73977 0.0
O240 O 0.47052 0.37529 0.68876 0.0
O241 O 0.48147 0.37119 0.73952 0.0
O242 O 0.45018 0.40462 0.73302 0.0
O243 O 0.47505 0.4105 0.77266 0.0
C244 C 0.57175 0.37089 0.74914 0.0
C245 C 0.56773 0.35138 0.76519 0.0
H246 H 0.55346 0.31515 0.79583 0.0
H247 H 0.51551 0.30947 0.81624 0.0
H248 H 0.54152 0.43466 0.71463 0.0
H249 H 0.57301 0.40965 0.71853 0.0
H250 H 0.58774 0.3738 0.73844 0.0
H251 H 0.58068 0.33957 0.76655 0.0
Mn252 Mn 0.86683 0.18264 0.9327 0.0
Mn253 Mn 0.85706 0.12964 0.92994 0.0
C254 C 0.89277 0.16013 0.91142 0.0
C255 C 0.86372 0.21613 0.90843 0.0
C256 C 0.87314 0.15207 0.9906 0.0
O257 O 0.83432 0.18099 0.94246 0.0
O258 O 0.82964 0.14551 0.94002 0.0
C259 C 0.83003 0.131 0.86996 0.0
N260 N 0.84787 0.12346 0.88636 0.0
C261 C 0.85999 0.10373 0.83934 0.0
C262 C 0.84166 0.11117 0.82202 0.0
C263 C 0.82663 0.12487 0.8374 0.0
C264 C 0.86249 0.11036 0.87174 0.0
H265 H 0.81856 0.14169 0.8816 0.0
C266 C 0.82243 0.1644 0.94499 0.0
O267 O 0.86684 0.21423 0.93969 0.0
O268 O 0.86145 0.19869 0.89192 0.0
N269 N 0.88182 0.11187 0.92062 0.0
C270 C 0.898 0.10529 0.94127 0.0
C271 C 0.91422 0.09121 0.92987 0.0
C272 C 0.91344 0.08381 0.89756 0.0
C273 C 0.89613 0.09013 0.87717 0.0
C274 C 0.88029 0.10397 0.89003 0.0
H275 H 0.89867 0.11095 0.96613 0.0
O276 O 0.89809 0.17923 0.92037 0.0
O277 O 0.87209 0.15504 0.91353 0.0
O278 O 0.8736 0.17088 0.97843 0.0
O279 O 0.86727 0.13544 0.97474 0.0
C280 C 0.89398 0.08329 0.84459 0.0
C281 C 0.87596 0.09014 0.82566 0.0
H282 H 0.83902 0.10653 0.79687 0.0
H283 H 0.8125 0.13075 0.82415 0.0
H284 H 0.92737 0.0862 0.94588 0.0
H285 H 0.92611 0.07315 0.88873 0.0
H286 H 0.9061 0.07277 0.83385 0.0
H287 H 0.87451 0.08482 0.80061 0.0
Mn288 Mn 0.92383 0.62098 0.71367 0.0
Mn289 Mn 0.96572 0.60447 0.76122 0.0
C290 C 0.95822 0.61605 0.69125 0.0
C291 C 0.90294 0.64914 0.69351 0.0
C292 C 0.92845 0.57579 0.7389 0.0
O293 O 0.91302 0.62653 0.75992 0.0
O294 O 0.94386 0.61955 0.78865 0.0
C295 C 0.98482 0.6456 0.78223 0.0
N296 N 0.98713 0.62638 0.76721 0.0
C297 C 0.02537 0.63309 0.75639 0.0
C298 C 0.02341 0.65291 0.77188 0.0
C299 C 0.00305 0.6592 0.78482 0.0
C300 C 0.00669 0.6201 0.75487 0.0
H301 H 0.96917 0.65051 0.79211 0.0
C302 C 0.9241 0.62649 0.7864 0.0
O303 O 0.89509 0.6299 0.69431 0.0
O304 O 0.92268 0.65195 0.70448 0.0
N305 N 0.98801 0.59 0.73681 0.0
C306 C 0.98663 0.57127 0.72013 0.0
C307 C 0.00531 0.56325 0.70424 0.0
C308 C 0.02521 0.57451 0.70571 0.0
C309 C 0.02625 0.59373 0.72306 0.0
C310 C 0.00714 0.60087 0.73863 0.0
H311 H 0.97136 0.56258 0.71878 0.0
O312 O 0.94096 0.61619 0.67266 0.0
O313 O 0.95472 0.61889 0.72218 0.0
O314 O 0.91928 0.58883 0.71929 0.0
O315 O 0.94502 0.58052 0.75654 0.0
C316 C 0.04536 0.60634 0.72485 0.0
C317 C 0.04493 0.62599 0.74154 0.0
H318 H 0.03737 0.66355 0.77364 0.0
H319 H 0.00139 0.67452 0.79667 0.0
H320 H 0.00436 0.54845 0.69078 0.0
H321 H 0.03952 0.56835 0.6932 0.0
H322 H 0.06037 0.60125 0.71299 0.0
H323 H 0.05961 0.63571 0.74225 0.0
Mn324 Mn 0.12258 0.22214 0.44408 0.0
Mn325 Mn 0.13381 0.26223 0.49623 0.0
C326 C 0.13166 0.25512 0.42386 0.0
C327 C 0.0971 0.20199 0.41564 0.0
C328 C 0.16522 0.22601 0.482 0.0
O329 O 0.11071 0.21159 0.48718 0.0
O330 O 0.11642 0.24007 0.51965 0.0
C331 C 0.089 0.2791 0.5067 0.0
N332 N 0.11016 0.28221 0.49708 0.0
C333 C 0.10313 0.31913 0.4851 0.0
C334 C 0.08129 0.31637 0.49511 0.0
C335 C 0.07419 0.29626 0.50593 0.0
C336 C 0.11721 0.30152 0.48684 0.0
H337 H 0.08347 0.26364 0.51483 0.0
C338 C 0.10927 0.22114 0.51452 0.0
O339 O 0.11617 0.19421 0.42336 0.0
O340 O 0.09288 0.22141 0.42452 0.0
N341 N 0.15051 0.28463 0.47657 0.0
C342 C 0.1715 0.28409 0.46506 0.0
C343 C 0.1808 0.30265 0.45181 0.0
C344 C 0.16846 0.32155 0.45061 0.0
C345 C 0.14692 0.32173 0.46272 0.0
C346 C 0.13859 0.3028 0.47592 0.0
H347 H 0.18099 0.26956 0.46574 0.0
O348 O 0.13373 0.23826 0.40576 0.0
O349 O 0.12407 0.25211 0.45323 0.0
O350 O 0.15377 0.21693 0.46007 0.0
O351 O 0.15922 0.24281 0.49711 0.0
C352 C 0.13318 0.33978 0.46137 0.0
C353 C 0.11131 0.33849 0.47258 0.0
H354 H 0.06975 0.3295 0.49421 0.0
H355 H 0.05733 0.29398 0.5135 0.0
H356 H 0.1974 0.30236 0.44239 0.0
H357 H 0.17561 0.33577 0.44005 0.0
H358 H 0.13914 0.35463 0.45122 0.0
H359 H 0.10079 0.35237 0.47089 0.0
Mn360 Mn 0.55658 0.37838 0.22113 0.0
Mn361 Mn 0.51323 0.39325 0.26672 0.0
C362 C 0.52237 0.38147 0.19728 0.0
C363 C 0.57941 0.35134 0.20233 0.0
C364 C 0.54991 0.42308 0.24579 0.0
O365 O 0.56685 0.37425 0.26812 0.0
O366 O 0.53468 0.37835 0.295 0.0
C367 C 0.49434 0.35164 0.28598 0.0
N368 N 0.49203 0.37102 0.27144 0.0
C369 C 0.45391 0.36427 0.2599 0.0
C370 C 0.45582 0.34433 0.2751 0.0
C371 C 0.47614 0.33796 0.28807 0.0
C372 C 0.47256 0.37729 0.25877 0.0
H373 H 0.50997 0.34663 0.29574 0.0
C374 C 0.55503 0.37312 0.29388 0.0
O375 O 0.58608 0.37099 0.20315 0.0
O376 O 0.55974 0.34742 0.21284 0.0
N377 N 0.49131 0.40752 0.24131 0.0
C378 C 0.49281 0.42627 0.22468 0.0
C379 C 0.47426 0.43428 0.20843 0.0
C380 C 0.45435 0.42301 0.20959 0.0
C381 C 0.4532 0.40376 0.22686 0.0
C382 C 0.47222 0.39657 0.24263 0.0
H383 H 0.50804 0.43503 0.22371 0.0
O384 O 0.53993 0.38179 0.17932 0.0
O385 O 0.52547 0.37909 0.22837 0.0
O386 O 0.55934 0.41059 0.22576 0.0
O387 O 0.5336 0.41764 0.26349 0.0
C388 C 0.43406 0.39121 0.22853 0.0
C389 C 0.43441 0.37149 0.24506 0.0
H390 H 0.44187 0.33366 0.27654 0.0
H391 H 0.47779 0.32251 0.29957 0.0
H392 H 0.4753 0.44912 0.19504 0.0
H393 H 0.44012 0.42922 0.19693 0.0
H394 H 0.41908 0.39639 0.21669 0.0
H395 H 0.41969 0.36179 0.24563 0.0
Mn396 Mn 0.36684 0.79548 0.93922 0.0
Mn397 Mn 0.35072 0.75592 0.98912 0.0
C398 C 0.36208 0.76155 0.91904 0.0
C399 C 0.39573 0.81474 0.91706 0.0
C400 C 0.32059 0.79102 0.96489 0.0
O401 O 0.37231 0.80732 0.98448 0.0
O402 O 0.36468 0.7786 0.01576 0.0
C403 C 0.3939 0.74006 0.01154 0.0
N404 N 0.37441 0.7365 0.99623 0.0
C405 C 0.38429 0.70014 0.98476 0.0
C406 C 0.40443 0.70338 0.00058 0.0
C407 C 0.40925 0.72343 0.01402 0.0
C408 C 0.36953 0.71724 0.98339 0.0
H409 H 0.39774 0.75551 0.02164 0.0
C410 C 0.37123 0.79787 0.01204 0.0
O411 O 0.37609 0.82286 0.91828 0.0
O412 O 0.39848 0.79595 0.92942 0.0
N413 N 0.33714 0.73312 0.96558 0.0
C414 C 0.31768 0.73309 0.9492 0.0
C415 C 0.31075 0.71445 0.93332 0.0
C416 C 0.32391 0.69607 0.93441 0.0
C417 C 0.34387 0.69648 0.95146 0.0
C418 C 0.3498 0.71544 0.96714 0.0
H419 H 0.30759 0.74722 0.94808 0.0
O420 O 0.36173 0.77777 0.89939 0.0
O421 O 0.36508 0.76595 0.94962 0.0
O422 O 0.3339 0.79995 0.94517 0.0
O423 O 0.32538 0.77496 0.98269 0.0
C424 C 0.35833 0.67898 0.95291 0.0
C425 C 0.37851 0.6808 0.96958 0.0
H426 H 0.4164 0.69066 0.00224 0.0
H427 H 0.42481 0.72609 0.0261 0.0
H428 H 0.29537 0.71428 0.9201 0.0
H429 H 0.31862 0.68179 0.92183 0.0
H430 H 0.35421 0.66412 0.94094 0.0
H431 H 0.38962 0.66732 0.97015 0.0
Mn432 Mn 0.93336 0.37575 0.77391 0.0
Mn433 Mn 0.97381 0.39271 0.72394 0.0
C434 C 0.96801 0.38197 0.79447 0.0
C435 C 0.91373 0.34757 0.7966 0.0
C436 C 0.93615 0.42073 0.7469 0.0
O437 O 0.92189 0.36889 0.7285 0.0
O438 O 0.95166 0.37695 0.69794 0.0
C439 C 0.9932 0.35172 0.70284 0.0
N440 N 0.99548 0.37109 0.71741 0.0
C441 C 0.03395 0.36492 0.72705 0.0
C442 C 0.03203 0.34494 0.712 0.0
C443 C 0.01157 0.33832 0.69987 0.0
C444 C 0.01514 0.37771 0.72892 0.0
H445 H 0.97748 0.34652 0.69362 0.0
C446 C 0.93232 0.36917 0.70143 0.0
O447 O 0.9053 0.36656 0.795 0.0
O448 O 0.93331 0.34498 0.78485 0.0
N449 N 0.99633 0.40776 0.747 0.0
C450 C 0.99494 0.42658 0.76345 0.0
C451 C 0.01373 0.43491 0.77864 0.0
C452 C 0.03375 0.42384 0.77675 0.0
C453 C 0.0348 0.40453 0.75964 0.0
C454 C 0.01557 0.39709 0.74476 0.0
H455 H 0.97957 0.43508 0.76518 0.0
O456 O 0.95112 0.38189 0.81381 0.0
O457 O 0.964 0.37848 0.76384 0.0
O458 O 0.9276 0.40757 0.7669 0.0
O459 O 0.95275 0.41638 0.72907 0.0
C460 C 0.05402 0.39211 0.75751 0.0
C461 C 0.05361 0.37234 0.74117 0.0
H462 H 0.0461 0.33446 0.70999 0.0
H463 H 0.00994 0.32288 0.68838 0.0
H464 H 0.01277 0.44977 0.79193 0.0
H465 H 0.04815 0.4302 0.78881 0.0
H466 H 0.06913 0.39744 0.76881 0.0
H467 H 0.0684 0.36277 0.74018 0.0
Mn468 Mn 0.3635 0.19467 0.55982 0.0
Mn469 Mn 0.35511 0.23694 0.51083 0.0
C470 C 0.36005 0.22838 0.58169 0.0
C471 C 0.38866 0.17267 0.58588 0.0
C472 C 0.32016 0.20415 0.52677 0.0
O473 O 0.37183 0.18363 0.51495 0.0
O474 O 0.36892 0.21379 0.48506 0.0
C475 C 0.40119 0.24911 0.49756 0.0
N476 N 0.38098 0.25415 0.50951 0.0
C477 C 0.39332 0.289 0.52571 0.0
C478 C 0.41423 0.28423 0.51338 0.0
C479 C 0.41818 0.2642 0.49926 0.0
C480 C 0.37697 0.27341 0.52301 0.0
H481 H 0.40433 0.23365 0.48696 0.0
C482 C 0.37365 0.19398 0.48823 0.0
O483 O 0.36874 0.1661 0.58042 0.0
O484 O 0.39389 0.19139 0.57517 0.0
N485 N 0.34194 0.2603 0.53361 0.0
C486 C 0.32131 0.26183 0.54626 0.0
C487 C 0.31491 0.28064 0.56218 0.0
C488 C 0.32979 0.29765 0.56498 0.0
C489 C 0.35093 0.29571 0.5517 0.0
C490 C 0.35628 0.27669 0.53574 0.0
H491 H 0.30987 0.24874 0.54439 0.0
O492 O 0.35662 0.21177 0.59985 0.0
O493 O 0.3651 0.22449 0.55158 0.0
O494 O 0.33102 0.19331 0.54759 0.0
O495 O 0.32775 0.22026 0.51141 0.0
C496 C 0.36704 0.31173 0.55432 0.0
C497 C 0.38821 0.30838 0.54131 0.0
H498 H 0.42745 0.29574 0.51494 0.0
H499 H 0.43431 0.26035 0.48987 0.0
H500 H 0.2986 0.28198 0.57246 0.0
H501 H 0.32488 0.31203 0.57761 0.0
H502 H 0.3634 0.32657 0.56666 0.0
H503 H 0.40055 0.3207 0.54387 0.0
Mn504 Mn 0.55089 0.62387 0.27414 0.0
Mn505 Mn 0.5085 0.60774 0.22732 0.0
C506 C 0.51633 0.62089 0.29656 0.0
C507 C 0.57334 0.65106 0.29323 0.0
C508 C 0.54471 0.57846 0.25135 0.0
O509 O 0.56193 0.62778 0.22766 0.0
O510 O 0.53096 0.62116 0.19892 0.0
C511 C 0.49091 0.6489 0.20366 0.0
N512 N 0.4879 0.63018 0.21986 0.0
C513 C 0.44988 0.63838 0.22991 0.0
C514 C 0.45254 0.65772 0.21321 0.0
C515 C 0.47316 0.66301 0.20008 0.0
C516 C 0.46811 0.62487 0.23244 0.0
H517 H 0.50675 0.65303 0.1936 0.0
C518 C 0.55103 0.62722 0.20101 0.0
O519 O 0.58002 0.63141 0.29301 0.0
O520 O 0.55381 0.65492 0.28204 0.0
N521 N 0.48572 0.5947 0.25256 0.0
C522 C 0.48644 0.57638 0.2704 0.0
C523 C 0.46744 0.56933 0.28653 0.0
C524 C 0.44791 0.58113 0.28408 0.0
C525 C 0.44756 0.59994 0.2656 0.0
C526 C 0.46697 0.6061 0.24987 0.0
H527 H 0.50141 0.56727 0.27243 0.0
O528 O 0.53356 0.62072 0.31523 0.0
O529 O 0.51994 0.62291 0.26548 0.0
O530 O 0.55411 0.59162 0.27035 0.0
O531 O 0.52831 0.5832 0.23341 0.0
C532 C 0.42887 0.61304 0.26276 0.0
C533 C 0.43002 0.63225 0.24492 0.0
H534 H 0.43895 0.66873 0.21065 0.0
H535 H 0.47536 0.67795 0.18729 0.0
H536 H 0.46785 0.55485 0.30086 0.0
H537 H 0.43333 0.57568 0.29669 0.0
H538 H 0.41363 0.60869 0.27468 0.0
H539 H 0.41566 0.64239 0.24343 0.0
Mn540 Mn 0.12351 0.77867 0.03601 0.0
Mn541 Mn 0.13516 0.74102 0.97987 0.0
C542 C 0.13554 0.74575 0.05273 0.0
C543 C 0.0981 0.79629 0.06837 0.0
C544 C 0.16524 0.77802 0.99502 0.0
O545 O 0.10942 0.79007 0.99501 0.0
O546 O 0.11656 0.76353 0.95953 0.0
C547 C 0.09055 0.72334 0.97082 0.0
N548 N 0.11207 0.72045 0.97865 0.0
C549 C 0.10646 0.68293 0.9875 0.0
C550 C 0.08425 0.68547 0.97929 0.0
C551 C 0.07627 0.70577 0.97095 0.0
C552 C 0.11996 0.70098 0.98655 0.0
H553 H 0.08434 0.73895 0.96461 0.0
C554 C 0.1083 0.78173 0.96675 0.0
O555 O 0.11631 0.80545 0.05961 0.0
O556 O 0.09468 0.77701 0.05817 0.0
N557 N 0.15308 0.71835 0.99615 0.0
C558 C 0.17444 0.71899 0.00599 0.0
C559 C 0.1847 0.70018 0.01658 0.0
C560 C 0.17294 0.68093 0.0168 0.0
C561 C 0.15101 0.68065 0.00635 0.0
C562 C 0.14171 0.69986 0.99577 0.0
H563 H 0.1835 0.73379 0.00603 0.0
O564 O 0.13718 0.76213 0.07191 0.0
O565 O 0.12646 0.7491 0.02437 0.0
O566 O 0.1537 0.78615 0.01775 0.0
O567 O 0.15989 0.76118 0.97947 0.0
C568 C 0.13784 0.66219 0.00685 0.0
C569 C 0.11559 0.66334 -0.00257 0.0
H570 H 0.07314 0.672 0.97967 0.0
H571 H 0.05912 0.70788 0.96479 0.0
H572 H 0.2016 0.70053 0.0247 0.0
H573 H 0.18084 0.66649 0.02532 0.0
H574 H 0.14456 0.64712 0.01498 0.0
H575 H 0.10554 0.64911 -0.00157 0.0
Mn576 Mn 0.55911 0.86781 0.77045 0.0
Mn577 Mn 0.51314 0.88313 0.73117 0.0
C578 C 0.52622 0.86922 0.79812 0.0
C579 C 0.58291 0.84022 0.78361 0.0
C580 C 0.54875 0.91368 0.75324 0.0
O581 O 0.56752 0.86594 0.72261 0.0
O582 O 0.53488 0.87277 0.69873 0.0
C583 C 0.49837 0.84106 0.70717 0.0
N584 N 0.49446 0.85903 0.72483 0.0
C585 C 0.45881 0.84627 0.74099 0.0
C586 C 0.46239 0.82769 0.72275 0.0
C587 C 0.48227 0.82507 0.70581 0.0
C588 C 0.4754 0.86171 0.74126 0.0
H589 H 0.51371 0.83892 0.69433 0.0
C590 C 0.55522 0.86756 0.69755 0.0
O591 O 0.58955 0.85991 0.78434 0.0
O592 O 0.56276 0.83681 0.77499 0.0
N593 N 0.49072 0.89341 0.7599 0.0
C594 C 0.49023 0.91185 0.77741 0.0
C595 C 0.47161 0.91674 0.7962 0.0
C596 C 0.45368 0.90266 0.79671 0.0
C597 C 0.45448 0.88388 0.77824 0.0
C598 C 0.47335 0.87999 0.75964 0.0
H599 H 0.50398 0.92271 0.77717 0.0
O600 O 0.54458 0.86908 0.81417 0.0
O601 O 0.52781 0.86803 0.7666 0.0
O602 O 0.56065 0.90031 0.76867 0.0
O603 O 0.53133 0.9088 0.73755 0.0
C604 C 0.43744 0.86869 0.77799 0.0
C605 C 0.43962 0.84988 0.75942 0.0
H606 H 0.45007 0.81526 0.72182 0.0
H607 H 0.48521 0.81071 0.69186 0.0
H608 H 0.47113 0.93126 0.81041 0.0
H609 H 0.43946 0.90635 0.81155 0.0
H610 H 0.42271 0.87119 0.79231 0.0
H611 H 0.42653 0.8382 0.75975 0.0
Mn612 Mn 0.3603 0.31005 0.06787 0.0
Mn613 Mn 0.35503 0.36368 0.06854 0.0
C614 C 0.3879 0.33073 0.08887 0.0
C615 C 0.35463 0.27715 0.09261 0.0
C616 C 0.36922 0.33891 0.00896 0.0
O617 O 0.32805 0.31417 0.05771 0.0
O618 O 0.3263 0.34994 0.05945 0.0
C619 C 0.32817 0.36583 0.12865 0.0
N620 N 0.34652 0.37155 0.11178 0.0
C621 C 0.36016 0.39173 0.15739 0.0
C622 C 0.34134 0.38616 0.17518 0.0
C623 C 0.32529 0.37314 0.16075 0.0
C624 C 0.36213 0.38395 0.12551 0.0
H625 H 0.31588 0.3557 0.11772 0.0
C626 C 0.31754 0.33162 0.05501 0.0
O627 O 0.35786 0.27864 0.06134 0.0
O628 O 0.35351 0.2948 0.10893 0.0
N629 N 0.38128 0.37953 0.07686 0.0
C630 C 0.39797 0.3842 0.05588 0.0
C631 C 0.41526 0.39733 0.06636 0.0
C632 C 0.41501 0.40584 0.09805 0.0
C633 C 0.39722 0.40148 0.11874 0.0
C634 C 0.38037 0.38844 0.10684 0.0
H635 H 0.39821 0.37775 0.03146 0.0
O636 O 0.39169 0.31118 0.0805 0.0
O637 O 0.36772 0.33742 0.08624 0.0
O638 O 0.36826 0.32042 0.02201 0.0
O639 O 0.36455 0.35624 0.0239 0.0
C640 C 0.39556 0.40954 0.15072 0.0
C641 C 0.3771 0.40458 0.17009 0.0
H642 H 0.33907 0.39174 0.19996 0.0
H643 H 0.31077 0.3687 0.17437 0.0
H644 H 0.4288 0.40082 0.0501 0.0
H645 H 0.42846 0.41579 0.10616 0.0
H646 H 0.4084 0.41954 0.16065 0.0
H647 H 0.37606 0.41079 0.1947 0.0
Mn648 Mn 0.9477 0.11181 0.27382 0.0
Mn649 Mn 0.99387 0.11501 0.22899 0.0
C650 C 0.98031 0.12126 0.29836 0.0
C651 C 0.91616 0.1279 0.29341 0.0
C652 C 0.9727 0.07332 0.24963 0.0
O653 O 0.93655 0.11244 0.22695 0.0
O654 O 0.96809 0.12001 0.20034 0.0
C655 C 0.99264 0.16071 0.21111 0.0
N656 N 0.00325 0.14398 0.22524 0.0
C657 C 0.03377 0.16627 0.24027 0.0
C658 C 0.02328 0.18367 0.2255 0.0
C659 C 0.0026 0.18088 0.21094 0.0
C660 C 0.02311 0.1465 0.23946 0.0
H661 H 0.97663 0.1587 0.20026 0.0
C662 C 0.94716 0.1177 0.20128 0.0
O663 O 0.91764 0.10728 0.29183 0.0
O664 O 0.93262 0.13902 0.28286 0.0
N665 N 0.01989 0.11086 0.25448 0.0
C666 C 0.02714 0.09283 0.26957 0.0
C667 C 0.04723 0.09314 0.28636 0.0
C668 C 0.05971 0.11195 0.2874 0.0
C669 C 0.052 0.13027 0.2715 0.0
C670 C 0.03196 0.12895 0.25486 0.0
H671 H 0.01762 0.07833 0.26895 0.0
O672 O 0.96415 0.11421 0.31591 0.0
O673 O 0.97666 0.12285 0.26729 0.0
O674 O 0.95819 0.08133 0.26832 0.0
O675 O 0.98583 0.08442 0.23218 0.0
C676 C 0.06321 0.1499 0.2721 0.0
C677 C 0.05409 0.16789 0.25652 0.0
H678 H 0.03083 0.1993 0.22556 0.0
H679 H 0.99431 0.19428 0.19977 0.0
H680 H 0.05305 0.07894 0.2986 0.0
H681 H 0.07508 0.11219 0.30068 0.0
H682 H 0.07868 0.15143 0.28492 0.0
H683 H 0.06269 0.18299 0.25761 0.0
Mn684 Mn 0.12398 0.68242 0.56858 0.0
Mn685 Mn 0.13091 0.62905 0.57157 0.0
C686 C 0.09583 0.66108 0.58615 0.0
C687 C 0.12723 0.71578 0.59284 0.0
C688 C 0.11995 0.65258 0.50944 0.0
O689 O 0.1568 0.67928 0.56347 0.0
O690 O 0.15963 0.64358 0.56517 0.0
C691 C 0.15454 0.62861 0.63466 0.0
N692 N 0.1373 0.62213 0.61599 0.0
C693 C 0.12171 0.60252 0.66086 0.0
C694 C 0.13938 0.60888 0.6805 0.0
C695 C 0.15585 0.62199 0.66734 0.0
C696 C 0.1213 0.60961 0.62846 0.0
H697 H 0.16714 0.63883 0.62471 0.0
C698 C 0.16798 0.66219 0.5618 0.0
O699 O 0.126 0.71381 0.56132 0.0
O700 O 0.12747 0.69838 0.60989 0.0
N701 N 0.10479 0.61255 0.57748 0.0
C702 C 0.08936 0.60713 0.55488 0.0
C703 C 0.07185 0.59382 0.56396 0.0
C704 C 0.07056 0.58598 0.59602 0.0
C705 C 0.08707 0.59115 0.61851 0.0
C706 C 0.10424 0.60429 0.60794 0.0
H707 H 0.09029 0.61312 0.5302 0.0
O708 O 0.09196 0.68037 0.57646 0.0
O709 O 0.11631 0.65506 0.5867 0.0
O710 O 0.11975 0.67123 0.52205 0.0
O711 O 0.12368 0.6355 0.52563 0.0
C712 C 0.08716 0.5838 0.65099 0.0
C713 C 0.10442 0.58955 0.67219 0.0
H714 H 0.14042 0.60384 0.70574 0.0
H715 H 0.16949 0.62704 0.68239 0.0
H716 H 0.0593 0.58972 0.54636 0.0
H717 H 0.05692 0.57591 0.60304 0.0
H718 H 0.07403 0.57372 0.65991 0.0
H719 H 0.10425 0.58386 0.69715 0.0
Mn720 Mn 0.54748 0.113 0.72752 0.0
Mn721 Mn 0.50701 0.10199 0.78072 0.0
C722 C 0.51185 0.10866 0.70922 0.0
C723 C 0.56827 0.1383 0.70025 0.0
C724 C 0.54135 0.0698 0.75912 0.0
O725 O 0.56082 0.12064 0.77144 0.0
O726 O 0.53123 0.1167 0.80422 0.0
C727 C 0.49254 0.14578 0.7968 0.0
N728 N 0.48789 0.126 0.78503 0.0
C729 C 0.45052 0.13604 0.77363 0.0
C730 C 0.45485 0.15644 0.786 0.0
C731 C 0.47596 0.16133 0.79759 0.0
C732 C 0.46762 0.12111 0.77386 0.0
H733 H 0.50882 0.14973 0.80524 0.0
C734 C 0.5512 0.12228 0.79902 0.0
O735 O 0.57568 0.11905 0.70433 0.0
O736 O 0.54935 0.14283 0.71292 0.0
N737 N 0.48263 0.0882 0.76011 0.0
C738 C 0.48168 0.06843 0.74645 0.0
C739 C 0.46196 0.06142 0.73233 0.0
C740 C 0.44346 0.07479 0.73233 0.0
C741 C 0.44484 0.09506 0.74653 0.0
C742 C 0.46484 0.1011 0.7606 0.0
H743 H 0.49589 0.05815 0.74612 0.0
O744 O 0.5282 0.1064 0.68919 0.0
O745 O 0.51711 0.11319 0.73906 0.0
O746 O 0.55068 0.08153 0.73789 0.0
O747 O 0.52554 0.07612 0.77727 0.0
C748 C 0.42729 0.1097 0.74657 0.0
C749 C 0.43013 0.13017 0.76013 0.0
H750 H 0.44218 0.16856 0.78628 0.0
H751 H 0.47949 0.1771 0.80687 0.0
H752 H 0.46106 0.04578 0.72128 0.0
H753 H 0.42836 0.06941 0.72108 0.0
H754 H 0.41164 0.1055 0.73579 0.0
H755 H 0.41662 0.14141 0.75953 0.0
Mn756 Mn 0.1277 0.31365 0.93127 0.0
Mn757 Mn 0.13758 0.36626 0.92052 0.0
C758 C 0.10225 0.33443 0.90518 0.0
C759 C 0.13105 0.27841 0.91445 0.0
C760 C 0.1201 0.34805 0.98351 0.0
O761 O 0.15996 0.31602 0.94224 0.0
O762 O 0.16471 0.35117 0.93451 0.0
C763 C 0.16604 0.36082 0.86256 0.0
N764 N 0.14785 0.36944 0.8767 0.0
C765 C 0.13718 0.38621 0.82631 0.0
C766 C 0.15587 0.37762 0.81125 0.0
C767 C 0.17034 0.36485 0.82945 0.0
C768 C 0.13373 0.3816 0.85934 0.0
H769 H 0.17712 0.35088 0.8764 0.0
C770 C 0.17179 0.33272 0.94272 0.0
O771 O 0.1272 0.2832 0.94474 0.0
O772 O 0.13395 0.2941 0.89428 0.0
N773 N 0.1132 0.38341 0.90713 0.0
C774 C 0.09678 0.39166 0.92588 0.0
C775 C 0.0811 0.40516 0.91157 0.0
C776 C 0.08272 0.4104 0.87833 0.0
C777 C 0.10034 0.4025 0.85991 0.0
C778 C 0.11556 0.38927 0.87558 0.0
H779 H 0.09552 0.38774 0.95148 0.0
O780 O 0.0968 0.31603 0.91695 0.0
O781 O 0.1229 0.33978 0.90729 0.0
O782 O 0.11997 0.32861 0.97415 0.0
O783 O 0.1263 0.36365 0.96557 0.0
C784 C 0.10345 0.40734 0.82665 0.0
C785 C 0.12181 0.39911 0.80982 0.0
H786 H 0.15925 0.38068 0.78572 0.0
H787 H 0.18476 0.35809 0.81797 0.0
H788 H 0.06774 0.41144 0.92609 0.0
H789 H 0.07049 0.42066 0.8673 0.0
H790 H 0.09187 0.41741 0.81383 0.0
H791 H 0.12402 0.40291 0.78425 0.0
Mn792 Mn 0.94717 0.87584 0.22218 0.0
Mn793 Mn 0.99362 0.87288 0.26646 0.0
C794 C 0.97962 0.86659 0.19706 0.0
C795 C 0.91544 0.85951 0.2038 0.0
C796 C 0.97231 0.91446 0.24552 0.0
O797 O 0.93639 0.87563 0.26916 0.0
O798 O 0.96797 0.86804 0.29554 0.0
C799 C 0.99241 0.82726 0.28479 0.0
N800 N 0.00299 0.84392 0.2704 0.0
C801 C 0.03348 0.82155 0.25547 0.0
C802 C 0.02303 0.80421 0.27046 0.0
C803 C 0.00238 0.80708 0.28511 0.0
C804 C 0.02282 0.84132 0.25611 0.0
H805 H 0.97644 0.82934 0.29578 0.0
C806 C 0.94707 0.87057 0.29482 0.0
O807 O 0.91689 0.88015 0.20487 0.0
O808 O 0.93211 0.84852 0.21397 0.0
N809 N 0.0196 0.87692 0.24084 0.0
C810 C 0.02693 0.89495 0.22584 0.0
C811 C 0.04706 0.8946 0.20914 0.0
C812 C 0.05951 0.87576 0.20814 0.0
C813 C 0.05175 0.85747 0.22404 0.0
C814 C 0.03168 0.85882 0.2406 0.0
H815 H 0.01745 0.90948 0.22646 0.0
O816 O 0.96316 0.87331 0.17982 0.0
O817 O 0.9763 0.86494 0.22825 0.0
O818 O 0.95768 0.90639 0.22709 0.0
O819 O 0.98553 0.90343 0.26295 0.0
C820 C 0.06296 0.83782 0.22359 0.0
C821 C 0.05382 0.81987 0.23926 0.0
H822 H 0.03058 0.78858 0.27055 0.0
H823 H 0.99411 0.79373 0.29649 0.0
H824 H 0.05293 0.90879 0.19692 0.0
H825 H 0.07491 0.87549 0.19492 0.0
H826 H 0.07847 0.83627 0.21085 0.0
H827 H 0.06244 0.80478 0.23832 0.0
Mn828 Mn 0.35632 0.68917 0.43671 0.0
Mn829 Mn 0.35177 0.63555 0.43287 0.0
C830 C 0.38326 0.6696 0.41159 0.0
C831 C 0.34881 0.72256 0.41456 0.0
C832 C 0.36777 0.6589 0.49284 0.0
O833 O 0.32469 0.68415 0.44987 0.0
O834 O 0.32314 0.64849 0.44493 0.0
C835 C 0.323 0.63446 0.37473 0.0
N836 N 0.34197 0.62862 0.38987 0.0
C837 C 0.35434 0.6097 0.34223 0.0
C838 C 0.33486 0.6154 0.32619 0.0
C839 C 0.31914 0.62785 0.3425 0.0
C840 C 0.35727 0.61677 0.37433 0.0
H841 H 0.31095 0.64416 0.38712 0.0
C842 C 0.31445 0.66651 0.45188 0.0
O843 O 0.35358 0.72039 0.4453 0.0
O844 O 0.34731 0.70528 0.39741 0.0
N845 N 0.378 0.62042 0.42167 0.0
C846 C 0.39552 0.61565 0.44104 0.0
C847 C 0.41265 0.60307 0.42854 0.0
C848 C 0.4114 0.59522 0.3965 0.0
C849 C 0.39283 0.59968 0.37747 0.0
C850 C 0.37619 0.61215 0.39135 0.0
H851 H 0.39651 0.62158 0.46572 0.0
O852 O 0.38707 0.68898 0.42082 0.0
O853 O 0.36338 0.66247 0.4159 0.0
O854 O 0.3665 0.67773 0.48104 0.0
O855 O 0.36255 0.64199 0.4772 0.0
C856 C 0.39019 0.59232 0.34525 0.0
C857 C 0.37101 0.59741 0.32758 0.0
H858 H 0.33184 0.61036 0.30132 0.0
H859 H 0.30411 0.63239 0.33024 0.0
H860 H 0.42681 0.5995 0.44351 0.0
H861 H 0.42474 0.5857 0.38683 0.0
H862 H 0.40282 0.58274 0.33383 0.0
H863 H 0.36924 0.59175 0.30276 0.0
Mn864 Mn 0.43634 0.12147 0.21648 0.0
Mn865 Mn 0.47876 0.10623 0.26389 0.0
C866 C 0.47105 0.11894 0.19439 0.0
C867 C 0.41361 0.14845 0.19739 0.0
C868 C 0.44283 0.07643 0.24044 0.0
O869 O 0.42506 0.12526 0.26279 0.0
O870 O 0.45609 0.11966 0.29188 0.0
C871 C 0.49593 0.14769 0.28683 0.0
N872 N 0.49913 0.12889 0.27097 0.0
C873 C 0.53712 0.13727 0.26102 0.0
C874 C 0.53425 0.15671 0.27736 0.0
C875 C 0.51356 0.16194 0.29027 0.0
C876 C 0.519 0.12363 0.2586 0.0
H877 H 0.48004 0.15177 0.29674 0.0
C878 C 0.43585 0.12514 0.28954 0.0
O879 O 0.40717 0.12873 0.19744 0.0
O880 O 0.43311 0.15246 0.20852 0.0
N881 N 0.50169 0.09318 0.23898 0.0
C882 C 0.50117 0.07473 0.22151 0.0
C883 C 0.52028 0.06769 0.20564 0.0
C884 C 0.53971 0.07964 0.20799 0.0
C885 C 0.53984 0.0986 0.22607 0.0
C886 C 0.52033 0.10475 0.24152 0.0
H887 H 0.48628 0.0655 0.21959 0.0
O888 O 0.45392 0.11847 0.17554 0.0
O889 O 0.46723 0.12095 0.2254 0.0
O890 O 0.43351 0.0892 0.22069 0.0
O891 O 0.45914 0.08154 0.25833 0.0
C892 C 0.55843 0.11184 0.22882 0.0
C893 C 0.55707 0.13116 0.24629 0.0
H894 H 0.54775 0.16782 0.27982 0.0
H895 H 0.5112 0.17695 0.30277 0.0
H896 H 0.52003 0.05309 0.19162 0.0
H897 H 0.55438 0.07417 0.19565 0.0
H898 H 0.57374 0.10749 0.21712 0.0
H899 H 0.57136 0.14139 0.24772 0.0
Mn900 Mn 0.63577 0.68825 0.93417 0.0
Mn901 Mn 0.6381 0.73399 0.9768 0.0
C902 C 0.64337 0.72006 0.90818 0.0
C903 C 0.61501 0.66425 0.90459 0.0
C904 C 0.67399 0.70057 0.97811 0.0
O905 O 0.62057 0.68061 0.97662 0.0
O906 O 0.62147 0.71243 0.00228 0.0
C907 C 0.59097 0.7453 0.9738 0.0
N908 N 0.61231 0.75024 0.96739 0.0
C909 C 0.60186 0.7831 0.94136 0.0
C910 C 0.57977 0.77844 0.9479 0.0
C911 C 0.57431 0.75946 0.96416 0.0
C912 C 0.61775 0.76846 0.95174 0.0
H913 H 0.5867 0.73063 0.98601 0.0
C914 C 0.61627 0.69265 0.00089 0.0
O915 O 0.63334 0.65824 0.91797 0.0
O916 O 0.60862 0.68367 0.90923 0.0
N917 N 0.65373 0.75608 0.95445 0.0
C918 C 0.6757 0.75772 0.94873 0.0
C919 C 0.68389 0.77569 0.93232 0.0
C920 C 0.66941 0.79176 0.92196 0.0
C921 C 0.64687 0.78977 0.92827 0.0
C922 C 0.6397 0.77164 0.94512 0.0
H923 H 0.68688 0.74536 0.95653 0.0
O924 O 0.6491 0.70217 0.89478 0.0
O925 O 0.63382 0.71848 0.93632 0.0
O926 O 0.66527 0.68782 0.95763 0.0
O927 O 0.66529 0.71822 0.98689 0.0
C928 C 0.63119 0.80484 0.91794 0.0
C929 C 0.6087 0.80149 0.9244 0.0
H930 H 0.56686 0.78924 0.9403 0.0
H931 H 0.55729 0.75569 0.96912 0.0
H932 H 0.7013 0.77709 0.92749 0.0
H933 H 0.67576 0.80548 0.90897 0.0
H934 H 0.63622 0.81894 0.90464 0.0
H935 H 0.59677 0.81305 0.91596 0.0
Mn936 Mn 0.05567 0.87939 0.71116 0.0
Mn937 Mn 0.01573 0.89766 0.76066 0.0
C938 C 0.0208 0.88458 0.69083 0.0
C939 C 0.07554 0.85054 0.69136 0.0
C940 C 0.05324 0.92485 0.73496 0.0
O941 O 0.06757 0.87446 0.75688 0.0
O942 O 0.03761 0.88197 0.78731 0.0
C943 C 0.9955 0.85765 0.78434 0.0
N944 N 0.99362 0.87666 0.76853 0.0
C945 C 0.95499 0.87107 0.75948 0.0
C946 C 0.9565 0.85147 0.77577 0.0
C947 C 0.97685 0.84474 0.78823 0.0
C948 C 0.97408 0.88339 0.7567 0.0
H949 H 0.01112 0.85236 0.79384 0.0
C950 C 0.05711 0.87453 0.78392 0.0
O951 O 0.0837 0.86966 0.69073 0.0
O952 O 0.05598 0.84826 0.70336 0.0
N953 N 0.99348 0.91259 0.73676 0.0
C954 C 0.99523 0.93092 0.71911 0.0
C955 C 0.97659 0.93922 0.70343 0.0
C956 C 0.95635 0.92862 0.70607 0.0
C957 C 0.95493 0.9098 0.72438 0.0
C958 C 0.97403 0.90235 0.73966 0.0
H959 H 0.01075 0.93908 0.71681 0.0
O960 O 0.03747 0.88376 0.6711 0.0
O961 O 0.02518 0.88229 0.72161 0.0
O962 O 0.06112 0.91139 0.71489 0.0
O963 O 0.03726 0.92082 0.75416 0.0
C964 C 0.93544 0.89786 0.7274 0.0
C965 C 0.93546 0.87854 0.745 0.0
H966 H 0.94221 0.84135 0.7785 0.0
H967 H 0.97816 0.82958 0.80069 0.0
H968 H 0.97784 0.9537 0.68922 0.0
H969 H 0.94206 0.93496 0.69367 0.0
H970 H 0.92043 0.90321 0.71581 0.0
H971 H 0.92046 0.86933 0.74666 0.0
Mn972 Mn 0.87387 0.27758 0.44039 0.0
Mn973 Mn 0.86196 0.23845 0.49398 0.0
C974 C 0.86632 0.244 0.4214 0.0
C975 C 0.90006 0.29768 0.41326 0.0
C976 C 0.82997 0.27316 0.47464 0.0
O977 O 0.88346 0.2896 0.4838 0.0
O978 O 0.87785 0.26163 0.51732 0.0
C979 C 0.90686 0.22318 0.50855 0.0
N980 N 0.88613 0.21921 0.49772 0.0
C981 C 0.89463 0.18225 0.48851 0.0
C982 C 0.91603 0.1859 0.49982 0.0
C983 C 0.92217 0.20646 0.50984 0.0
C984 C 0.88 0.19947 0.48818 0.0
H985 H 0.91165 0.239 0.51608 0.0
C986 C 0.88432 0.28073 0.51174 0.0
O987 O 0.88049 0.30518 0.41859 0.0
O988 O 0.90433 0.27863 0.42376 0.0
N989 N 0.84655 0.21508 0.47468 0.0
C990 C 0.82586 0.21465 0.46204 0.0
C991 C 0.8175 0.19547 0.44952 0.0
C992 C 0.83045 0.17695 0.45026 0.0
C993 C 0.85163 0.17776 0.4636 0.0
C994 C 0.85901 0.19727 0.47601 0.0
H995 H 0.81589 0.22888 0.46125 0.0
O996 O 0.86484 0.26035 0.40209 0.0
O997 O 0.87278 0.2478 0.45114 0.0
O998 O 0.84183 0.28209 0.45301 0.0
O999 O 0.83606 0.25715 0.49159 0.0
C1000 C 0.86594 0.16011 0.46428 0.0
C1001 C 0.88741 0.16235 0.47674 0.0
H1002 H 0.92796 0.1731 0.50054 0.0
H1003 H 0.9387 0.20943 0.5184 0.0
H1004 H 0.80116 0.195 0.43917 0.0
H1005 H 0.82404 0.16225 0.44023 0.0
H1006 H 0.86072 0.14483 0.45478 0.0
H1007 H 0.89837 0.14875 0.47666 0.0
Mn1008 Mn 0.4251 0.87737 0.28378 0.0
Mn1009 Mn 0.46831 0.89101 0.23657 0.0
C1010 C 0.45954 0.8803 0.30655 0.0
C1011 C 0.40217 0.85082 0.30374 0.0
C1012 C 0.43286 0.92194 0.25813 0.0
O1013 O 0.41415 0.8726 0.23749 0.0
O1014 O 0.44549 0.87764 0.20895 0.0
C1015 C 0.48428 0.84854 0.21613 0.0
N1016 N 0.48803 0.86764 0.23085 0.0
C1017 C 0.52571 0.8584 0.2415 0.0
C1018 C 0.52229 0.83867 0.2263 0.0
C1019 C 0.50147 0.83371 0.21361 0.0
C1020 C 0.50801 0.87262 0.24302 0.0
H1021 H 0.46828 0.84467 0.20642 0.0
C1022 C 0.42523 0.87227 0.21102 0.0
O1023 O 0.39571 0.87054 0.30274 0.0
O1024 O 0.42174 0.8466 0.2931 0.0
N1025 N 0.49157 0.90398 0.2609 0.0
C1026 C 0.49161 0.92291 0.27716 0.0
C1027 C 0.51091 0.9298 0.29265 0.0
C1028 C 0.52997 0.91722 0.29113 0.0
C1029 C 0.52956 0.89786 0.2741 0.0
C1030 C 0.50989 0.89187 0.25898 0.0
H1031 H 0.477 0.93262 0.27846 0.0
O1032 O 0.44223 0.88118 0.32498 0.0
O1033 O 0.45611 0.87748 0.2756 0.0
O1034 O 0.42274 0.90963 0.27779 0.0
O1035 O 0.44934 0.91624 0.24101 0.0
C1036 C 0.54774 0.88401 0.2722 0.0
C1037 C 0.54582 0.86429 0.25594 0.0
H1038 H 0.53546 0.82711 0.22454 0.0
H1039 H 0.49868 0.81847 0.20199 0.0
H1040 H 0.51108 0.94473 0.30584 0.0
H1041 H 0.54475 0.92249 0.3034 0.0
H1042 H 0.56316 0.88819 0.28367 0.0
H1043 H 0.55979 0.85362 0.25519 0.0
Mn1044 Mn 0.8736 0.712 0.05602 0.0
Mn1045 Mn 0.85127 0.74839 0.0054 0.0
C1046 C 0.86381 0.74482 0.07605 0.0
C1047 C 0.90469 0.69575 0.07696 0.0
C1048 C 0.82656 0.71045 0.03247 0.0
O1049 O 0.88009 0.70044 0.01107 0.0
O1050 O 0.8675 0.72689 0.97889 0.0
C1051 C 0.89168 0.7687 0.98016 0.0
N1052 N 0.87201 0.77033 0.99575 0.0
C1053 C 0.87639 0.80818 0.0023 0.0
C1054 C 0.89664 0.80695 0.98609 0.0
C1055 C 0.90432 0.78711 0.97501 0.0
C1056 C 0.8644 0.78934 0.00638 0.0
H1057 H 0.89767 0.75346 0.97178 0.0
C1058 C 0.87695 0.70883 0.98315 0.0
O1059 O 0.88594 0.68587 0.07637 0.0
O1060 O 0.90531 0.71497 0.06535 0.0
N1061 N 0.83513 0.77005 0.02784 0.0
C1062 C 0.81617 0.7682 0.04528 0.0
C1063 C 0.80677 0.78643 0.05938 0.0
C1064 C 0.8169 0.80637 0.05529 0.0
C1065 C 0.83634 0.80789 0.03709 0.0
C1066 C 0.84485 0.7892 0.02337 0.0
H1067 H 0.80839 0.75289 0.04863 0.0
O1068 O 0.86643 0.72876 0.09567 0.0
O1069 O 0.86757 0.74123 0.04524 0.0
O1070 O 0.84152 0.70329 0.05113 0.0
O1071 O 0.82864 0.72676 0.01414 0.0
C1072 C 0.84791 0.82712 0.03271 0.0
C1073 C 0.86791 0.82727 0.01532 0.0
H1074 H 0.90653 0.82108 0.98235 0.0
H1075 H 0.91999 0.78601 0.96266 0.0
H1076 H 0.79181 0.78511 0.07349 0.0
H1077 H 0.80972 0.82036 0.06649 0.0
H1078 H 0.84175 0.84183 0.04306 0.0
H1079 H 0.87683 0.8421 0.01257 0.0
Mn1080 Mn 0.05905 0.12283 0.77487 0.0
Mn1081 Mn 0.0173 0.10779 0.72581 0.0
C1082 C 0.0254 0.11411 0.7969 0.0
C1083 C 0.07848 0.14962 0.8013 0.0
C1084 C 0.05613 0.07942 0.74204 0.0
O1085 O 0.0685 0.13337 0.73015 0.0
O1086 O 0.03854 0.12506 0.70024 0.0
C1087 C -0.00293 0.14964 0.7113 0.0
N1088 N 0.99535 0.12952 0.72354 0.0
C1089 C 0.95724 0.1349 0.73685 0.0
C1090 C 0.95859 0.15564 0.72424 0.0
C1091 C 0.97859 0.16303 0.71143 0.0
C1092 C 0.97612 0.12217 0.73566 0.0
H1093 H 0.01244 0.15543 0.70159 0.0
C1094 C 0.05751 0.13365 0.70359 0.0
O1095 O 0.08771 0.13147 0.79461 0.0
O1096 O 0.05836 0.15234 0.79189 0.0
N1097 N 0.99559 0.09136 0.74843 0.0
C1098 C -0.00241 0.07171 0.76229 0.0
C1099 C 0.97935 0.06245 0.77776 0.0
C1100 C 0.95927 0.07345 0.77881 0.0
C1101 C 0.9576 0.09364 0.76434 0.0
C1102 C 0.97628 0.102 0.74901 0.0
H1103 H 0.01302 0.06325 0.76179 0.0
O1104 O 0.04298 0.11313 0.81479 0.0
O1105 O 0.02826 0.11978 0.76675 0.0
O1106 O 0.06555 0.09198 0.76205 0.0
O1107 O 0.03855 0.08409 0.72666 0.0
C1108 C 0.9383 0.10602 0.76528 0.0
C1109 C 0.93811 0.12661 0.75148 0.0
H1110 H 0.94444 0.16611 0.72464 0.0
H1111 H 0.97978 0.17905 0.70182 0.0
H1112 H 0.9808 0.04691 0.78901 0.0
H1113 H 0.94532 0.06636 0.79109 0.0
H1114 H 0.92363 0.1 0.77707 0.0
H1115 H 0.92328 0.13612 0.75286 0.0
Mn1116 Mn 0.63139 0.2897 0.55259 0.0
Mn1117 Mn 0.63564 0.24973 0.49849 0.0
C1118 C 0.63509 0.255 0.57059 0.0
C1119 C 0.60856 0.31115 0.58362 0.0
C1120 C 0.67215 0.28138 0.51282 0.0
O1121 O 0.62131 0.30299 0.50996 0.0
O1122 O 0.61983 0.27384 0.47753 0.0
C1123 C 0.58889 0.23771 0.49145 0.0
N1124 N 0.60987 0.23236 0.49955 0.0
C1125 C 0.59887 0.19676 0.51401 0.0
C1126 C 0.57719 0.20183 0.5055 0.0
C1127 C 0.57218 0.2224 0.4942 0.0
C1128 C 0.61489 0.21259 0.51034 0.0
H1129 H 0.58493 0.25358 0.4832 0.0
C1130 C 0.61659 0.2937 0.48315 0.0
O1131 O 0.6283 0.31745 0.57628 0.0
O1132 O 0.60208 0.29306 0.57198 0.0
N1133 N 0.65041 0.22558 0.51682 0.0
C1134 C 0.67177 0.22376 0.52631 0.0
C1135 C 0.67928 0.20442 0.53943 0.0
C1136 C 0.66475 0.18717 0.54272 0.0
C1137 C 0.64284 0.18942 0.53279 0.0
C1138 C 0.63635 0.209 0.51953 0.0
H1139 H 0.68298 0.23701 0.52406 0.0
O1140 O 0.63989 0.27071 0.58988 0.0
O1141 O 0.6285 0.26035 0.54168 0.0
O1142 O 0.66294 0.29085 0.53666 0.0
O1143 O 0.66308 0.26652 0.49628 0.0
C1144 C 0.62706 0.17315 0.53622 0.0
C1145 C 0.6051 0.17681 0.52682 0.0
H1146 H 0.5642 0.19013 0.50793 0.0
H1147 H 0.55545 0.22649 0.48785 0.0
H1148 H 0.69619 0.20284 0.54717 0.0
H1149 H 0.67054 0.17235 0.55318 0.0
H1150 H 0.63158 0.15785 0.54647 0.0
H1151 H 0.59306 0.16428 0.53001 0.0
H1152 H 0.03307 0.35782 0.14619 0.0
H1153 H 0.12856 0.38296 0.02185 0.0
H1154 H 0.08987 0.39363 0.17739 0.0
H1155 H 0.09176 0.32417 0.01968 0.0
H1156 H 0.11218 0.39115 0.0752 0.0
H1157 H 0.05168 0.34967 0.09515 0.0
C1158 C 0.04944 0.36406 0.14229 0.0
C1159 C 0.05996 0.3764 0.16616 0.0
C1160 C 0.1079 0.37641 0.06302 0.0
C1161 C 0.08124 0.3672 0.10755 0.0
C1162 C 0.11713 0.37177 0.03263 0.0
C1163 C 0.11149 0.35285 0.01635 0.0
C1164 C 0.0926 0.36229 0.07668 0.0
C1165 C 0.09666 0.33887 0.03143 0.0
C1166 C 0.06008 0.35928 0.1132 0.0
C1167 C 0.08123 0.38397 0.15968 0.0
N1168 N 0.08754 0.34399 0.06057 0.0
N1169 N 0.09117 0.37938 0.13076 0.0
H1170 H 0.95984 0.84647 0.34689 0.0
H1171 H 0.86137 0.87782 0.46257 0.0
H1172 H 0.90609 0.88508 0.31176 0.0
H1173 H 0.89628 0.81826 0.47241 0.0
H1174 H 0.87948 0.8836 0.40989 0.0
H1175 H 0.93901 0.83906 0.39647 0.0
C1176 C 0.94369 0.85346 0.34963 0.0
C1177 C 0.93469 0.86644 0.32515 0.0
C1178 C 0.88295 0.86919 0.4235 0.0
C1179 C 0.91087 0.85809 0.38193 0.0
C1180 C 0.87271 0.86589 0.45353 0.0
C1181 C 0.87737 0.84754 0.47188 0.0
C1182 C 0.8983 0.85426 0.41217 0.0
C1183 C 0.89213 0.83258 0.459 0.0
C1184 C 0.93176 0.84909 0.37783 0.0
C1185 C 0.9136 0.87495 0.33 0.0
N1186 N 0.9023 0.8364 0.4301 0.0
N1187 N 0.90245 0.87078 0.35803 0.0
H1188 H 0.46195 0.64567 0.64492 0.0
H1189 H 0.3574 0.62836 0.53761 0.0
H1190 H 0.40246 0.62097 0.68798 0.0
H1191 H 0.39905 0.68312 0.52264 0.0
H1192 H 0.37519 0.62227 0.59046 0.0
H1193 H 0.4409 0.65656 0.59685 0.0
C1194 C 0.44445 0.64262 0.64429 0.0
C1195 C 0.43389 0.63238 0.67036 0.0
C1196 C 0.3802 0.63576 0.57572 0.0
C1197 C 0.40994 0.64446 0.61546 0.0
C1198 C 0.37017 0.63918 0.54561 0.0
C1199 C 0.37683 0.65624 0.52586 0.0
C1200 C 0.39739 0.64914 0.58559 0.0
C1201 C 0.39339 0.66986 0.53729 0.0
C1202 C 0.43247 0.64894 0.617 0.0
C1203 C 0.41117 0.62889 0.66839 0.0
N1204 N 0.40339 0.6658 0.56625 0.0
N1205 N 0.39995 0.63464 0.64111 0.0
H1206 H 0.53508 0.14446 0.85091 0.0
H1207 H 0.63886 0.13316 0.96066 0.0
H1208 H 0.59551 0.12029 0.81009 0.0
H1209 H 0.59456 0.18629 0.97238 0.0
H1210 H 0.62267 0.12604 0.90702 0.0
H1211 H 0.55555 0.15775 0.89792 0.0
C1212 C 0.55267 0.14203 0.85178 0.0
C1213 C 0.56363 0.13119 0.82667 0.0
C1214 C 0.61679 0.13946 0.92115 0.0
C1215 C 0.58701 0.14609 0.88049 0.0
C1216 C 0.62592 0.14348 0.95171 0.0
C1217 C 0.61793 0.16027 0.97091 0.0
C1218 C 0.59917 0.15197 0.91024 0.0
C1219 C 0.60121 0.17323 0.95824 0.0
C1220 C 0.56434 0.14974 0.87848 0.0
C1221 C 0.58647 0.12859 0.82896 0.0
N1222 N 0.59207 0.16855 0.92889 0.0
N1223 N 0.59741 0.13569 0.85574 0.0
H1224 H 0.10158 0.61098 0.30874 0.0
H1225 H 0.09954 0.68176 0.47032 0.0
H1226 H 0.05065 0.65657 0.33111 0.0
H1227 H 0.12823 0.6188 0.46877 0.0
H1228 H 0.0884 0.67712 0.41357 0.0
H1229 H 0.11812 0.61799 0.36246 0.0
C1230 C 0.09403 0.62258 0.32477 0.0
C1231 C 0.07465 0.63311 0.31563 0.0
C1232 C 0.09727 0.6644 0.42565 0.0
C1233 C 0.09352 0.64134 0.37635 0.0
C1234 C 0.10371 0.66705 0.45798 0.0
C1235 C 0.11465 0.65056 0.47442 0.0
C1236 C 0.10203 0.64525 0.40949 0.0
C1237 C 0.1196 0.63183 0.45712 0.0
C1238 C 0.1034 0.62649 0.35534 0.0
C1239 C 0.06547 0.64795 0.33728 0.0
N1240 N 0.11321 0.62965 0.42552 0.0
N1241 N 0.07502 0.65166 0.36658 0.0
H1242 H 0.62075 0.81628 0.52668 0.0
H1243 H 0.54213 0.88429 0.63949 0.0
H1244 H 0.60001 0.88013 0.502 0.0
H1245 H 0.59035 0.84214 0.68199 0.0
H1246 H 0.55865 0.87842 0.58595 0.0
H1247 H 0.6056 0.82136 0.58172 0.0
C1248 C 0.61304 0.83132 0.53276 0.0
C1249 C 0.61153 0.84776 0.50959 0.0
C1250 C 0.5656 0.87048 0.60703 0.0
C1251 C 0.59402 0.85343 0.57194 0.0
C1252 C 0.55613 0.8737 0.63752 0.0
C1253 C 0.56495 0.86372 0.66517 0.0
C1254 C 0.58374 0.85684 0.60406 0.0
C1255 C 0.58318 0.85025 0.66124 0.0
C1256 C 0.60451 0.8342 0.56412 0.0
C1257 C 0.6015 0.86697 0.51889 0.0
N1258 N 0.59193 0.84705 0.6311 0.0
N1259 N 0.59292 0.86918 0.54921 0.0
H1260 H 0.39809 0.31225 0.97873 0.0
H1261 H 0.40306 0.37551 0.81088 0.0
H1262 H 0.36025 0.36958 0.96343 0.0
H1263 H 0.46027 0.34664 0.85464 0.0
H1264 H 0.38184 0.36649 0.85999 0.0
H1265 H 0.41553 0.31757 0.92549 0.0
C1266 C 0.39318 0.32574 0.96392 0.0
C1267 C 0.37782 0.34058 0.97548 0.0
C1268 C 0.39901 0.36205 0.85857 0.0
C1269 C 0.39752 0.34658 0.91482 0.0
C1270 C 0.41107 0.3671 0.83066 0.0
C1271 C 0.43345 0.3619 0.82889 0.0
C1272 C 0.40932 0.35127 0.88433 0.0
C1273 C 0.4431 0.35108 0.85518 0.0
C1274 C 0.40322 0.3288 0.93374 0.0
C1275 C 0.37217 0.35788 0.95544 0.0
N1276 N 0.43094 0.34602 0.88181 0.0
N1277 N 0.38203 0.36042 0.92596 0.0
H1278 H 0.90137 0.17748 0.02478 0.0
H1279 H 0.90536 0.10517 0.18455 0.0
H1280 H 0.86381 0.11934 0.03254 0.0
H1281 H 0.96052 0.14209 0.14994 0.0
H1282 H 0.88514 0.11484 0.13479 0.0
H1283 H 0.91802 0.16979 0.0778 0.0
C1284 C 0.89637 0.16328 0.03785 0.0
C1285 C 0.8813 0.14895 0.02416 0.0
C1286 C 0.90167 0.12078 0.1383 0.0
C1287 C 0.90025 0.14012 0.08465 0.0
C1288 C 0.91319 0.1153 0.16658 0.0
C1289 C 0.9347 0.12274 0.17133 0.0
C1290 C 0.91159 0.13415 0.11512 0.0
C1291 C 0.94406 0.13585 0.14726 0.0
C1292 C 0.90599 0.15883 0.06794 0.0
C1293 C 0.87552 0.13071 0.04212 0.0
N1294 N 0.9324 0.14123 0.12032 0.0
N1295 N 0.88503 0.12679 0.0715 0.0
H1296 H 0.88933 0.65427 0.78982 0.0
H1297 H 0.90347 0.67371 0.9814 0.0
H1298 H 0.93748 0.62216 0.84961 0.0
H1299 H 0.86588 0.71554 0.91898 0.0
H1300 H 0.91314 0.65232 0.93401 0.0
H1301 H 0.87701 0.67406 0.83793 0.0
C1302 C 0.89709 0.65114 0.81311 0.0
C1303 C 0.91453 0.63659 0.81567 0.0
C1304 C 0.90281 0.6662 0.93064 0.0
C1305 C 0.90068 0.65929 0.87056 0.0
C1306 C 0.89728 0.67846 0.95771 0.0
C1307 C 0.88387 0.69651 0.9542 0.0
C1308 C 0.89478 0.6719 0.89976 0.0
C1309 C 0.87638 0.70184 0.92282 0.0
C1310 C 0.89018 0.66258 0.84047 0.0
C1311 C 0.92409 0.63332 0.84642 0.0
N1312 N 0.88188 0.68954 0.89679 0.0
N1313 N 0.91708 0.64462 0.87261 0.0
H1314 H 0.08354 0.1855 0.51227 0.0
H1315 H 0.09045 0.16346 0.7036 0.0
H1316 H 0.11441 0.22897 0.57983 0.0
H1317 H 0.04436 0.13175 0.6399 0.0
H1318 H 0.10247 0.18539 0.6576 0.0
H1319 H 0.07137 0.16379 0.55824 0.0
C1320 C 0.08764 0.19056 0.53679 0.0
C1321 C 0.10004 0.20907 0.54223 0.0
C1322 C 0.08975 0.17359 0.65376 0.0
C1323 C 0.08639 0.18413 0.59488 0.0
C1324 C 0.08301 0.16095 0.67991 0.0
C1325 C 0.06635 0.14575 0.67561 0.0
C1326 C 0.07993 0.17086 0.62307 0.0
C1327 C 0.05719 0.14332 0.6444 0.0
C1328 C 0.08069 0.17815 0.56301 0.0
C1329 C 0.1048 0.21488 0.57453 0.0
N1330 N 0.06412 0.15573 0.61932 0.0
N1331 N 0.09812 0.20234 0.59966 0.0
H1332 H 0.58361 0.28246 0.44203 0.0
H1333 H 0.59842 0.37189 0.31229 0.0
H1334 H 0.6283 0.33378 0.46421 0.0
H1335 H 0.53346 0.35278 0.34294 0.0
H1336 H 0.61367 0.35387 0.36067 0.0
H1337 H 0.56857 0.30366 0.39705 0.0
C1338 C 0.59021 0.29819 0.43739 0.0
C1339 C 0.60705 0.30654 0.4568 0.0
C1340 C 0.59608 0.35387 0.35667 0.0
C1341 C 0.59045 0.3304 0.40526 0.0
C1342 C 0.58741 0.36399 0.32917 0.0
C1343 C 0.56467 0.36373 0.32356 0.0
C1344 C 0.58193 0.34296 0.37787 0.0
C1345 C 0.55108 0.35337 0.34625 0.0
C1346 C 0.58163 0.31023 0.4119 0.0
C1347 C 0.61513 0.32698 0.44985 0.0
N1348 N 0.55995 0.34309 0.37215 0.0
N1349 N 0.60693 0.3382 0.42423 0.0
H1350 H 0.43719 0.87992 0.14803 0.0
H1351 H 0.36239 0.78805 0.07573 0.0
H1352 H 0.38961 0.84583 0.20621 0.0
H1353 H 0.39433 0.83523 0.01533 0.0
H1354 H 0.37318 0.80816 0.12408 0.0
H1355 H 0.42231 0.86321 0.09913 0.0
C1356 C 0.42348 0.86904 0.15047 0.0
C1357 C 0.4147 0.86413 0.18121 0.0
C1358 C 0.37769 0.81416 0.10022 0.0
C1359 C 0.39778 0.8448 0.12543 0.0
C1360 C 0.37169 0.80262 0.07262 0.0
C1361 C 0.37759 0.80991 0.04143 0.0
C1362 C 0.38991 0.83296 0.09664 0.0
C1363 C 0.38945 0.829 0.03888 0.0
C1364 C 0.41497 0.85956 0.12254 0.0
C1365 C 0.39684 0.85007 0.18295 0.0
N1366 N 0.39537 0.83979 0.06617 0.0
N1367 N 0.38912 0.84066 0.15542 0.0
H1368 H 0.8994 0.33939 0.70113 0.0
H1369 H 0.90756 0.31798 0.50946 0.0
H1370 H 0.94371 0.37332 0.63726 0.0
H1371 H 0.87821 0.27348 0.57707 0.0
H1372 H 0.91763 0.34077 0.55525 0.0
H1373 H 0.88733 0.31792 0.65468 0.0
C1374 C 0.90634 0.34256 0.67728 0.0
C1375 C 0.92265 0.35813 0.67308 0.0
C1376 C 0.90906 0.32598 0.56006 0.0
C1377 C 0.90908 0.33351 0.62007 0.0
C1378 C 0.90332 0.31294 0.53395 0.0
C1379 C 0.89205 0.29376 0.53944 0.0
C1380 C 0.9033 0.31994 0.5919 0.0
C1381 C 0.88702 0.28805 0.57172 0.0
C1382 C 0.8996 0.33016 0.65087 0.0
C1383 C 0.9312 0.36141 0.64166 0.0
N1384 N 0.89258 0.30116 0.59675 0.0
N1385 N 0.92434 0.34916 0.61638 0.0
H1386 H 0.44762 0.11765 0.35285 0.0
H1387 H 0.36763 0.20524 0.42462 0.0
H1388 H 0.39917 0.15013 0.29405 0.0
H1389 H 0.39707 0.1567 0.48527 0.0
H1390 H 0.38096 0.18661 0.37635 0.0
H1391 H 0.43095 0.1329 0.40178 0.0
C1392 C 0.43339 0.12788 0.35025 0.0
C1393 C 0.42482 0.13274 0.31934 0.0
C1394 C 0.38438 0.17997 0.40021 0.0
C1395 C 0.40589 0.15032 0.37509 0.0
C1396 C 0.37692 0.19066 0.42779 0.0
C1397 C 0.38136 0.18255 0.45901 0.0
C1398 C 0.39665 0.16121 0.40386 0.0
C1399 C 0.39328 0.16349 0.46164 0.0
C1400 C 0.42386 0.13649 0.37818 0.0
C1401 C 0.40628 0.14595 0.3174 0.0
N1402 N 0.40071 0.15354 0.43436 0.0
N1403 N 0.39757 0.15449 0.34492 0.0
H1404 H 0.5401 0.61808 0.13788 0.0
H1405 H 0.61607 0.70826 0.06298 0.0
H1406 H 0.58574 0.65463 0.19586 0.0
H1407 H 0.59328 0.65511 0.00523 0.0
H1408 H 0.60093 0.69135 0.11159 0.0
H1409 H 0.55598 0.63363 0.08846 0.0
C1410 C 0.55354 0.62928 0.14019 0.0
C1411 C 0.56162 0.6351 0.171 0.0
C1412 C 0.59926 0.6834 0.08827 0.0
C1413 C 0.57953 0.6531 0.11474 0.0
C1414 C 0.60772 0.69311 0.06044 0.0
C1415 C 0.60593 0.68307 0.02997 0.0
C1416 C 0.58864 0.66367 0.08558 0.0
C1417 C 0.59509 0.66336 0.02827 0.0
C1418 C 0.56259 0.63808 0.11201 0.0
C1419 C 0.5791 0.64962 0.1726 0.0
N1420 N 0.58674 0.65432 0.05574 0.0
N1421 N 0.58733 0.6583 0.14483 0.0
H1422 H 0.09163 0.84657 0.78352 0.0
H1423 H 0.082 0.81696 0.97222 0.0
H1424 H 0.04415 0.87575 0.8479 0.0
H1425 H 0.1137 0.77665 0.90094 0.0
H1426 H 0.07053 0.84084 0.92831 0.0
H1427 H 0.10359 0.82375 0.82833 0.0
C1428 C 0.08396 0.84845 0.80719 0.0
C1429 C 0.0668 0.86308 0.81191 0.0
C1430 C 0.07987 0.82669 0.92231 0.0
C1431 C 0.08024 0.83678 0.86312 0.0
C1432 C 0.08637 0.81301 0.94732 0.0
C1433 C 0.09885 0.79477 0.94025 0.0
C1434 C 0.08612 0.82223 0.89009 0.0
C1435 C 0.10402 0.79046 0.90753 0.0
C1436 C 0.09064 0.83524 0.83265 0.0
C1437 C 0.05737 0.86464 0.8431 0.0
N1438 N 0.09779 0.8042 0.88368 0.0
N1439 N 0.06418 0.85159 0.86752 0.0
H1440 H 0.10279 0.37978 0.34341 0.0
H1441 H 0.10046 0.28545 0.4293 0.0
H1442 H 0.10038 0.32994 0.27115 0.0
H1443 H 0.16065 0.27068 0.37894 0.0
H1444 H 0.09741 0.31836 0.39773 0.0
H1445 H 0.1223 0.35537 0.38038 0.0
C1446 C 0.10731 0.36407 0.33478 0.0
C1447 C 0.09987 0.35666 0.30447 0.0
C1448 C 0.11169 0.30828 0.39445 0.0
C1449 C 0.12219 0.32917 0.34601 0.0
C1450 C 0.11355 0.28968 0.41264 0.0
C1451 C 0.1315 0.2761 0.40801 0.0
C1452 C 0.12719 0.31264 0.37011 0.0
C1453 C 0.14698 0.28124 0.38388 0.0
C1454 C 0.1183 0.35022 0.35586 0.0
C1455 C 0.10576 0.33608 0.29451 0.0
N1456 N 0.14424 0.29898 0.36519 0.0
N1457 N 0.11637 0.32287 0.31547 0.0
H1458 H 0.88585 0.8487 0.64803 0.0
H1459 H 0.99255 0.85402 0.70968 0.0
H1460 H 0.92422 0.84673 0.55972 0.0
H1461 H 0.00019 0.90525 0.64058 0.0
H1462 H 0.95642 0.84617 0.68664 0.0
H1463 H 0.91747 0.86453 0.67664 0.0
C1464 C 0.90077 0.85214 0.63461 0.0
C1465 C 0.90252 0.84704 0.60149 0.0
C1466 C 0.96579 0.85946 0.67711 0.0
C1467 C 0.93821 0.86474 0.6336 0.0
C1468 C 0.98625 0.86402 0.69028 0.0
C1469 C -0.00134 0.881 0.67805 0.0
C1470 C 0.95823 0.87134 0.6505 0.0
C1471 C 0.99064 0.89247 0.65125 0.0
C1472 C 0.91868 0.86102 0.65084 0.0
C1473 C 0.92232 0.85092 0.58519 0.0
N1474 N 0.97087 0.88727 0.63798 0.0
N1475 N 0.93947 0.85976 0.60139 0.0
H1476 H 0.39839 0.73957 0.93397 0.0
H1477 H 0.38419 0.64413 0.80902 0.0
H1478 H 0.34085 0.73748 0.87282 0.0
H1479 H 0.44539 0.6766 0.82763 0.0
H1480 H 0.36503 0.67116 0.8424 0.0
H1481 H 0.41247 0.70787 0.90671 0.0
C1482 C 0.38847 0.73202 0.91532 0.0
C1483 C 0.36829 0.74073 0.90594 0.0
C1484 C 0.38264 0.67219 0.83901 0.0
C1485 C 0.3846 0.70506 0.87397 0.0
C1486 C 0.39353 0.65688 0.82014 0.0
C1487 C 0.41633 0.65832 0.81549 0.0
C1488 C 0.39488 0.68845 0.85385 0.0
C1489 C 0.42777 0.67504 0.83034 0.0
C1490 C 0.39659 0.71413 0.89961 0.0
C1491 C 0.35638 0.73092 0.88085 0.0
N1492 N 0.41695 0.68935 0.84905 0.0
N1493 N 0.36476 0.71346 0.86553 0.0
H1494 H 0.60433 0.1578 0.14731 0.0
H1495 H 0.49812 0.15099 0.21135 0.0
H1496 H 0.56544 0.15964 0.05954 0.0
H1497 H 0.49155 0.09909 0.14332 0.0
H1498 H 0.53348 0.1602 0.1867 0.0
H1499 H 0.57293 0.14203 0.17645 0.0
C1500 C 0.58933 0.15435 0.13412 0.0
C1501 C 0.5874 0.15941 0.101 0.0
C1502 C 0.52449 0.14652 0.17768 0.0
C1503 C 0.55192 0.14169 0.13374 0.0
C1504 C 0.50449 0.14119 0.19179 0.0
C1505 C 0.49267 0.12359 0.18039 0.0
C1506 C 0.53213 0.13476 0.15102 0.0
C1507 C 0.50069 0.11234 0.15337 0.0
C1508 C 0.57154 0.1455 0.15066 0.0
C1509 C 0.56749 0.15549 0.08501 0.0
N1510 N 0.51999 0.11825 0.13926 0.0
N1511 N 0.55045 0.14662 0.10151 0.0
H1512 H 0.11395 0.62108 0.13563 0.0
H1513 H 0.10711 0.71283 0.04811 0.0
H1514 H 0.12009 0.671 0.20719 0.0
H1515 H 0.16791 0.73169 0.09325 0.0
H1516 H 0.10816 0.67945 0.07868 0.0
H1517 H 0.13155 0.64441 0.09514 0.0
C1518 C 0.12008 0.6365 0.14325 0.0
C1519 C 0.11546 0.64435 0.17452 0.0
C1520 C 0.12176 0.69049 0.08089 0.0
C1521 C 0.1354 0.67072 0.12886 0.0
C1522 C 0.12125 0.70942 0.06325 0.0
C1523 C 0.13807 0.72439 0.06687 0.0
C1524 C 0.13848 0.68717 0.10384 0.0
C1525 C 0.15501 0.72013 0.08914 0.0
C1526 C 0.12993 0.64978 0.12015 0.0
C1527 C 0.1233 0.66454 0.18316 0.0
N1528 N 0.15452 0.70207 0.10751 0.0
N1529 N 0.13265 0.67724 0.16023 0.0
H1530 H 0.47983 0.90367 0.35409 0.0
H1531 H 0.56503 0.84521 0.43412 0.0
H1532 H 0.48707 0.84778 0.29401 0.0
H1533 H 0.59285 0.84743 0.33748 0.0
H1534 H 0.53086 0.86074 0.41266 0.0
H1535 H 0.51608 0.89607 0.37875 0.0
C1536 C 0.4892 0.89001 0.34592 0.0
C1537 C 0.48112 0.87675 0.32121 0.0
C1538 C 0.54468 0.85828 0.39644 0.0
C1539 C 0.52177 0.86815 0.34879 0.0
C1540 C 0.564 0.84944 0.40852 0.0
C1541 C 0.58179 0.84586 0.38756 0.0
C1542 C 0.54297 0.86249 0.36301 0.0
C1543 C 0.57961 0.8507 0.3544 0.0
C1544 C 0.50968 0.88574 0.35984 0.0
C1545 C 0.49333 0.85884 0.312 0.0
N1546 N 0.56029 0.85849 0.34293 0.0
N1547 N 0.51328 0.85519 0.32548 0.0
H1548 H 0.3999 0.24569 0.57592 0.0
H1549 H 0.38547 0.34849 0.68358 0.0
H1550 H 0.33757 0.25467 0.62392 0.0
H1551 H 0.44258 0.30773 0.6876 0.0
H1552 H 0.36619 0.32062 0.65201 0.0
H1553 H 0.4146 0.2762 0.60544 0.0
C1554 C 0.38921 0.25442 0.59231 0.0
C1555 C 0.36745 0.24808 0.59721 0.0
C1556 C 0.38287 0.31793 0.66018 0.0
C1557 C 0.38425 0.28254 0.63148 0.0
C1558 C 0.39386 0.33372 0.67799 0.0
C1559 C 0.41563 0.33037 0.68813 0.0
C1560 C 0.39408 0.29915 0.65202 0.0
C1561 C 0.42581 0.311 0.68036 0.0
C1562 C 0.39763 0.27165 0.60927 0.0
C1563 C 0.35439 0.25941 0.61939 0.0
N1564 N 0.41503 0.29625 0.66247 0.0
N1565 N 0.36299 0.27634 0.63582 0.0
H1566 H -0.00315 0.14604 0.78718 0.0
H1567 H 0.93021 0.1455 0.93882 0.0
H1568 H 0.00668 0.08935 0.84475 0.0
H1569 H 0.89389 0.14677 0.84863 0.0
H1570 H 0.96117 0.12864 0.9101 0.0
H1571 H 0.96151 0.15161 0.81397 0.0
C1572 C 0.99122 0.13445 0.8049 0.0
C1573 C 0.00396 0.1166 0.81263 0.0
C1574 C 0.94614 0.13205 0.89695 0.0
C1575 C 0.96447 0.12363 0.84464 0.0
C1576 C 0.92865 0.14169 0.91314 0.0
C1577 C 0.90947 0.14683 0.89604 0.0
C1578 C 0.94467 0.12869 0.86328 0.0
C1579 C 0.90829 0.14242 0.86263 0.0
C1580 C 0.97121 0.13772 0.82022 0.0
C1581 C -0.00317 0.10291 0.83751 0.0
N1582 N 0.92591 0.13392 0.84707 0.0
N1583 N 0.97747 0.10682 0.85305 0.0
H1584 H 0.90397 0.69001 0.71444 0.0
H1585 H 0.85541 0.74092 0.55651 0.0
H1586 H 0.87408 0.64949 0.64209 0.0
H1587 H 0.85171 0.7726 0.64981 0.0
H1588 H 0.86301 0.70722 0.58497 0.0
H1589 H 0.88641 0.7209 0.68919 0.0
C1590 C 0.89351 0.68764 0.69337 0.0
C1591 C 0.89043 0.66727 0.68025 0.0
C1592 C 0.86009 0.72152 0.59911 0.0
C1593 C 0.8707 0.70253 0.65082 0.0
C1594 C 0.85578 0.74073 0.58293 0.0
C1595 C 0.85316 0.75965 0.6008 0.0
C1596 C 0.86223 0.72143 0.63323 0.0
C1597 C 0.85379 0.75847 0.635 0.0
C1598 C 0.88343 0.70523 0.67906 0.0
C1599 C 0.87672 0.665 0.65296 0.0
N1600 N 0.85866 0.7398 0.65004 0.0
N1601 N 0.86763 0.68253 0.63867 0.0
H1602 H 0.9905 0.16272 0.29168 0.0
H1603 H 0.09694 0.15893 0.40439 0.0
H1604 H 0.01 0.10552 0.34213 0.0
H1605 H 0.06009 0.21645 0.38579 0.0
H1606 H 0.06885 0.13851 0.37491 0.0
H1607 H 0.01971 0.18228 0.31955 0.0
C1608 C 0.00118 0.1543 0.30845 0.0
C1609 C -0.00156 0.13249 0.31414 0.0
C1610 C 0.06698 0.1556 0.37742 0.0
C1611 C 0.03146 0.15465 0.3464 0.0
C1612 C 0.08299 0.16725 0.39405 0.0
C1613 C 0.08074 0.18938 0.39759 0.0
C1614 C 0.04886 0.16626 0.36397 0.0
C1615 C 0.06238 0.19939 0.38378 0.0
C1616 C 0.01768 0.16544 0.32449 0.0
C1617 C 0.01206 0.1223 0.3368 0.0
N1618 N 0.04718 0.18777 0.36747 0.0
N1619 N 0.02825 0.13345 0.35196 0.0
H1620 H 0.63385 0.26564 0.06242 0.0
H1621 H 0.57976 0.30984 0.22072 0.0
H1622 H 0.63753 0.23163 0.15386 0.0
H1623 H 0.6095 0.35365 0.15274 0.0
H1624 H 0.59942 0.28049 0.19455 0.0
H1625 H 0.62432 0.29819 0.09263 0.0
C1626 C 0.63311 0.2651 0.08881 0.0
C1627 C 0.63622 0.24583 0.10561 0.0
C1628 C 0.6019 0.29656 0.18562 0.0
C1629 C 0.62495 0.28269 0.13999 0.0
C1630 C 0.59063 0.31326 0.20045 0.0
C1631 C 0.59306 0.3341 0.1888 0.0
C1632 C 0.61519 0.30064 0.15833 0.0
C1633 C 0.60733 0.33775 0.16248 0.0
C1634 C 0.62768 0.28365 0.10599 0.0
C1635 C 0.63506 0.24605 0.13983 0.0
N1636 N 0.6176 0.32108 0.14764 0.0
N1637 N 0.6291 0.26406 0.15581 0.0
H1638 H 0.4006 0.85733 0.90171 0.0
H1639 H 0.50564 0.89216 0.84599 0.0
H1640 H 0.4326 0.79612 0.89418 0.0
H1641 H 0.50169 0.83409 0.79028 0.0
H1642 H 0.47211 0.88157 0.87579 0.0
H1643 H 0.432 0.87358 0.87278 0.0
C1644 C 0.41422 0.84739 0.89414 0.0
C1645 C 0.41415 0.82541 0.90051 0.0
C1646 C 0.47844 0.87141 0.85664 0.0
C1647 C 0.44956 0.84366 0.86769 0.0
C1648 C 0.4975 0.87734 0.83989 0.0
C1649 C 0.50578 0.8642 0.81517 0.0
C1650 C 0.46838 0.85188 0.84918 0.0
C1651 C 0.4953 0.84486 0.80861 0.0
C1652 C 0.43209 0.85666 0.87793 0.0
C1653 C 0.43208 0.81316 0.89009 0.0
N1654 N 0.4772 0.83918 0.82572 0.0
N1655 N 0.44893 0.82241 0.87389 0.0
H1656 H 0.86442 0.2229 0.84291 0.0
H1657 H 0.88467 0.34823 0.84779 0.0
H1658 H 0.86716 0.25647 0.93475 0.0
H1659 H 0.91649 0.30592 0.7797 0.0
H1660 H 0.8683 0.31702 0.87522 0.0
H1661 H 0.87289 0.25604 0.81453 0.0
C1662 C 0.86643 0.23731 0.85714 0.0
C1663 C 0.86534 0.23685 0.89135 0.0
C1664 C 0.8787 0.31472 0.85407 0.0
C1665 C 0.87494 0.27486 0.85879 0.0
C1666 C 0.8879 0.33242 0.83836 0.0
C1667 C 0.90198 0.32953 0.81161 0.0
C1668 C 0.88318 0.29419 0.84222 0.0
C1669 C 0.90584 0.30878 0.80041 0.0
C1670 C 0.87135 0.25618 0.84087 0.0
C1671 C 0.86803 0.25609 0.90838 0.0
N1672 N 0.89642 0.29191 0.81567 0.0
N1673 N 0.87284 0.27438 0.89191 0.0
H1674 H 0.49085 0.14533 0.72077 0.0
H1675 H 0.39054 0.1293 0.59853 0.0
H1676 H 0.48535 0.08695 0.6661 0.0
H1677 H 0.42288 0.18904 0.61884 0.0
H1678 H 0.41851 0.11092 0.63223 0.0
H1679 H 0.45789 0.15866 0.69423 0.0
C1680 C 0.4823 0.13511 0.70368 0.0
C1681 C 0.49039 0.11487 0.69608 0.0
C1682 C 0.41927 0.12804 0.62915 0.0
C1683 C 0.45325 0.13039 0.66444 0.0
C1684 C 0.40341 0.13849 0.61011 0.0
C1685 C 0.40456 0.16066 0.60575 0.0
C1686 C 0.4358 0.14008 0.64437 0.0
C1687 C 0.42147 0.17191 0.62122 0.0
C1688 C 0.46366 0.1428 0.68828 0.0
C1689 C 0.47928 0.10256 0.67279 0.0
N1690 N 0.4363 0.16152 0.63989 0.0
N1691 N 0.46115 0.11055 0.65757 0.0
H1692 H 0.6334 0.77222 0.33113 0.0
H1693 H 0.60362 0.6489 0.34248 0.0
H1694 H 0.62949 0.74035 0.42437 0.0
H1695 H 0.57379 0.69249 0.27421 0.0
H1696 H 0.62356 0.67903 0.3672 0.0
H1697 H 0.62291 0.73912 0.30426 0.0
C1698 C 0.63079 0.75815 0.34597 0.0
C1699 C 0.63198 0.75914 0.38015 0.0
C1700 C 0.61282 0.68183 0.34657 0.0
C1701 C 0.62004 0.72123 0.34934 0.0
C1702 C 0.60156 0.66474 0.33242 0.0
C1703 C 0.587 0.66836 0.30646 0.0
C1704 C 0.60988 0.70241 0.33394 0.0
C1705 C 0.58474 0.68911 0.29438 0.0
C1706 C 0.62471 0.73932 0.33056 0.0
C1707 C 0.62856 0.74032 0.398 0.0
N1708 N 0.59612 0.70537 0.30815 0.0
N1709 N 0.62252 0.72209 0.38237 0.0
H1710 H 0.09568 0.83883 0.08296 0.0
H1711 H 0.99281 0.82568 0.20184 0.0
H1712 H 0.06356 0.77861 0.10068 0.0
H1713 H 0.00768 0.88496 0.15367 0.0
H1714 H 0.02285 0.80856 0.17193 0.0
H1715 H 0.06756 0.85656 0.11618 0.0
C1716 C 0.08278 0.82935 0.09393 0.0
C1717 C 0.08182 0.80726 0.08896 0.0
C1718 C 0.01964 0.82534 0.16801 0.0
C1719 C 0.04989 0.82732 0.12688 0.0
C1720 C 0.00269 0.83509 0.18522 0.0
C1721 C -0.0016 0.85678 0.18071 0.0
C1722 C 0.03226 0.83742 0.14612 0.0
C1723 C 0.01095 0.86826 0.15813 0.0
C1724 C 0.06674 0.83947 0.11272 0.0
C1725 C 0.06479 0.7957 0.1037 0.0
N1726 N 0.02755 0.85847 0.14181 0.0
N1727 N 0.04951 0.80587 0.12208 0.0
H1728 H 0.6717 0.7456 0.87289 0.0
H1729 H 0.57407 0.79826 0.77635 0.0
H1730 H 0.60335 0.73469 0.89463 0.0
H1731 H 0.62288 0.84112 0.81554 0.0
H1732 H 0.59266 0.76859 0.80277 0.0
H1733 H 0.66078 0.77568 0.837 0.0
C1734 C 0.6545 0.74959 0.87006 0.0
C1735 C 0.63833 0.7382 0.88705 0.0
C1736 C 0.5995 0.78446 0.80502 0.0
C1737 C 0.62596 0.7712 0.84573 0.0
C1738 C 0.58893 0.80141 0.79006 0.0
C1739 C 0.5967 0.82224 0.79437 0.0
C1740 C 0.61804 0.78827 0.8243 0.0
C1741 C 0.61626 0.82528 0.81196 0.0
C1742 C 0.64835 0.76659 0.84978 0.0
C1743 C 0.61626 0.74346 0.88236 0.0
N1744 N 0.6262 0.80841 0.82683 0.0
N1745 N 0.6107 0.75952 0.86199 0.0
H1746 H 0.50349 0.40314 0.14659 0.0
H1747 H 0.38928 0.34486 0.15122 0.0
H1748 H 0.49392 0.34999 0.21164 0.0
H1749 H 0.42674 0.34217 0.0621 0.0
H1750 H 0.42126 0.36059 0.17887 0.0
H1751 H 0.46841 0.39418 0.11946 0.0
C1752 C 0.49375 0.38994 0.15553 0.0
C1753 C 0.50092 0.37778 0.18215 0.0
C1754 C 0.42217 0.35706 0.15309 0.0
C1755 C 0.46144 0.36775 0.15191 0.0
C1756 C 0.40406 0.34819 0.1374 0.0
C1757 C 0.40544 0.3429 0.10432 0.0
C1758 C 0.44143 0.36086 0.13532 0.0
C1759 C 0.42511 0.34658 0.08753 0.0
C1760 C 0.47392 0.3849 0.1402 0.0
C1761 C 0.48828 0.36036 0.19226 0.0
N1762 N 0.44241 0.3556 0.10317 0.0
N1763 N 0.46895 0.35597 0.17737 0.0
H1764 H 0.83685 0.22761 0.37825 0.0
H1765 H 0.90162 0.119 0.35432 0.0
H1766 H 0.89698 0.21326 0.42904 0.0
H1767 H 0.89209 0.16188 0.27337 0.0
H1768 H 0.88195 0.14419 0.38981 0.0
H1769 H 0.84081 0.19407 0.34739 0.0
C1770 C 0.85038 0.21699 0.38373 0.0
C1771 C 0.86616 0.2226 0.40711 0.0
C1772 C 0.88336 0.14752 0.36395 0.0
C1773 C 0.8705 0.18465 0.37268 0.0
C1774 C 0.89441 0.1332 0.34373 0.0
C1775 C 0.89842 0.13857 0.3111 0.0
C1776 C 0.87593 0.1669 0.35099 0.0
C1777 C 0.88926 0.15732 0.29852 0.0
C1778 C 0.85255 0.19798 0.36631 0.0
C1779 C 0.88389 0.20887 0.41251 0.0
N1780 N 0.87857 0.17102 0.31863 0.0
N1781 N 0.88556 0.19042 0.39551 0.0
H1782 H 0.05858 0.64842 0.55594 0.0
H1783 H 0.98702 0.64709 0.7059 0.0
H1784 H 0.09165 0.64801 0.64887 0.0
H1785 H 0.97747 0.59364 0.64156 0.0
H1786 H 0.02301 0.65341 0.68111 0.0
H1787 H 0.0259 0.63291 0.58214 0.0
C1788 C 0.05902 0.64459 0.58172 0.0
C1789 C 0.07782 0.64879 0.60028 0.0
C1790 C 0.01317 0.64007 0.67288 0.0
C1791 C 0.04065 0.63226 0.63023 0.0
C1792 C 0.99281 0.63639 0.68705 0.0
C1793 C 0.97998 0.61916 0.6768 0.0
C1794 C 0.02018 0.62707 0.64721 0.0
C1795 C 0.98737 0.60665 0.6507 0.0
C1796 C 0.04054 0.63575 0.5965 0.0
C1797 C 0.07757 0.64436 0.63375 0.0
N1798 N 0.00708 0.61094 0.63648 0.0
N1799 N 0.05904 0.63663 0.6479 0.0
H1800 H 0.65895 0.22733 0.60879 0.0
H1801 H 0.55058 0.17361 0.67346 0.0
H1802 H 0.59493 0.238 0.56707 0.0
H1803 H 0.61173 0.1391 0.68081 0.0
H1804 H 0.56841 0.19976 0.63893 0.0
H1805 H 0.64399 0.19637 0.63882 0.0
C1806 C 0.64192 0.22283 0.60552 0.0
C1807 C 0.62817 0.23476 0.58506 0.0
C1808 C 0.57798 0.18645 0.64794 0.0
C1809 C 0.61101 0.20038 0.61962 0.0
C1810 C 0.56785 0.17159 0.66792 0.0
C1811 C 0.57973 0.15421 0.68007 0.0
C1812 C 0.60031 0.1842 0.64033 0.0
C1813 C 0.60204 0.15232 0.67183 0.0
C1814 C 0.63345 0.20528 0.62249 0.0
C1815 C 0.60614 0.22882 0.58201 0.0
N1816 N 0.61177 0.16733 0.65257 0.0
N1817 N 0.59822 0.21215 0.59926 0.0
H1818 H -0.00305 0.35117 0.77891 0.0
H1819 H 0.06554 0.35054 0.93237 0.0
H1820 H 0.98769 0.40454 0.84352 0.0
H1821 H 0.09999 0.34491 0.84094 0.0
H1822 H 0.03443 0.36694 0.90355 0.0
H1823 H 0.03282 0.3445 0.80373 0.0
C1824 C 0.00283 0.36186 0.79771 0.0
C1825 C 0.99003 0.37907 0.80816 0.0
C1826 C 0.04904 0.36258 0.89001 0.0
C1827 C 0.03008 0.37067 0.83796 0.0
C1828 C 0.06664 0.35323 0.9063 0.0
C1829 C 0.08541 0.34713 0.88893 0.0
C1830 C 0.04991 0.3647 0.85604 0.0
C1831 C 0.08595 0.35008 0.8551 0.0
C1832 C 0.02314 0.35796 0.81193 0.0
C1833 C -0.00247 0.39151 0.83425 0.0
N1834 N 0.06821 0.35841 0.83953 0.0
N1835 N 0.0171 0.38693 0.84863 0.0
H1836 H 0.88939 0.77853 0.06039 0.0
H1837 H 0.89322 0.82483 0.22532 0.0
H1838 H 0.8381 0.75863 0.12604 0.0
H1839 H 0.8978 0.86867 0.14466 0.0
H1840 H 0.87152 0.8007 0.19117 0.0
H1841 H 0.89228 0.8122 0.08994 0.0
C1842 C 0.87804 0.78172 0.08014 0.0
C1843 C 0.86281 0.76632 0.08998 0.0
C1844 C 0.87658 0.81596 0.18132 0.0
C1845 C 0.86724 0.80388 0.12543 0.0
C1846 C 0.88893 0.82966 0.20074 0.0
C1847 C 0.89721 0.84861 0.18758 0.0
C1848 C 0.87342 0.82092 0.14828 0.0
C1849 C 0.89154 0.85418 0.15557 0.0
C1850 C 0.87982 0.80081 0.09717 0.0
C1851 C 0.84968 0.77044 0.11736 0.0
N1852 N 0.88057 0.84001 0.13652 0.0
N1853 N 0.8525 0.78871 0.13465 0.0
H1854 H 0.38255 0.65648 0.34853 0.0
H1855 H 0.48806 0.65215 0.27998 0.0
H1856 H 0.42325 0.65853 0.43447 0.0
H1857 H 0.49695 0.60047 0.34796 0.0
H1858 H 0.45271 0.6604 0.30555 0.0
H1859 H 0.41378 0.64174 0.31762 0.0
C1860 C 0.39792 0.65329 0.36094 0.0
C1861 C 0.40042 0.65807 0.39407 0.0
C1862 C 0.4622 0.64696 0.31432 0.0
C1863 C 0.43566 0.64154 0.35937 0.0
C1864 C 0.4822 0.64217 0.29971 0.0
C1865 C 0.49468 0.62493 0.31089 0.0
C1866 C 0.45525 0.63503 0.34125 0.0
C1867 C 0.4873 0.61346 0.3381 0.0
C1868 C 0.41561 0.64504 0.34339 0.0
C1869 C 0.42076 0.65455 0.40903 0.0
N1870 N 0.46802 0.61886 0.35271 0.0
N1871 N 0.43766 0.64623 0.3916 0.0
H1872 H 0.3828 0.14632 0.14883 0.0
H1873 H 0.35547 0.27046 0.15825 0.0
H1874 H 0.41311 0.18978 0.2167 0.0
H1875 H 0.35685 0.23687 0.06636 0.0
H1876 H 0.36518 0.23744 0.18621 0.0
H1877 H 0.3627 0.17648 0.12448 0.0
C1878 C 0.38492 0.16214 0.1589 0.0
C1879 C 0.39971 0.16571 0.18456 0.0
C1880 C 0.36297 0.23726 0.15999 0.0
C1881 C 0.37665 0.19984 0.1575 0.0
C1882 C 0.35732 0.25605 0.14398 0.0
C1883 C 0.35569 0.25649 0.10983 0.0
C1884 C 0.36676 0.21871 0.14181 0.0
C1885 C 0.35818 0.23727 0.09268 0.0
C1886 C 0.37355 0.17925 0.14498 0.0
C1887 C 0.40201 0.18645 0.19671 0.0
N1888 N 0.36382 0.21912 0.10886 0.0
N1889 N 0.39057 0.20274 0.1831 0.0
H1890 H 0.50823 0.58754 0.83228 0.0
H1891 H 0.60582 0.67226 0.84196 0.0
H1892 H 0.51178 0.64669 0.7792 0.0
H1893 H 0.59451 0.62639 0.91838 0.0
H1894 H 0.57728 0.65536 0.80926 0.0
H1895 H 0.54446 0.59532 0.85659 0.0
C1896 C 0.51686 0.60195 0.82542 0.0
C1897 C 0.50762 0.61619 0.80294 0.0
C1898 C 0.58122 0.64871 0.83295 0.0
C1899 C 0.54838 0.6252 0.83046 0.0
C1900 C 0.5976 0.65823 0.85142 0.0
C1901 C 0.60229 0.65064 0.88272 0.0
C1902 C 0.56905 0.63185 0.8463 0.0
C1903 C 0.59127 0.63254 0.89417 0.0
C1904 C 0.53741 0.60635 0.83916 0.0
C1905 C 0.51887 0.63495 0.79546 0.0
N1906 N 0.57473 0.6239 0.87612 0.0
N1907 N 0.5387 0.63886 0.80905 0.0
H1908 H 0.10641 0.84928 0.64261 0.0
H1909 H 0.12303 0.72354 0.65787 0.0
H1910 H 0.07202 0.80961 0.71176 0.0
H1911 H 0.12766 0.75569 0.56494 0.0
H1912 H 0.11451 0.75751 0.68382 0.0
H1913 H 0.12372 0.81712 0.61954 0.0
C1914 C 0.10277 0.83385 0.65318 0.0
C1915 C 0.08768 0.83196 0.67889 0.0
C1916 C 0.11768 0.75715 0.65782 0.0
C1917 C 0.10755 0.79555 0.65325 0.0
C1918 C 0.12264 0.7378 0.64296 0.0
C1919 C 0.12577 0.73674 0.60908 0.0
C1920 C 0.11606 0.77564 0.63878 0.0
C1921 C 0.12514 0.75579 0.59109 0.0
C1922 C 0.11255 0.8156 0.63998 0.0
C1923 C 0.08341 0.81168 0.6917 0.0
N1924 N 0.12019 0.77451 0.60615 0.0
N1925 N 0.09332 0.79427 0.6788 0.0
H1926 H 0.9005 0.34063 0.40069 0.0
H1927 H 0.00722 0.33545 0.28968 0.0
H1928 H 0.93786 0.28291 0.38629 0.0
H1929 H 0.99015 0.39259 0.3421 0.0
H1930 H 0.97787 0.31638 0.31812 0.0
H1931 H 0.9294 0.36066 0.3721 0.0
C1932 C 0.91474 0.3322 0.39147 0.0
C1933 C 0.91689 0.31012 0.39589 0.0
C1934 C 0.9805 0.3331 0.3234 0.0
C1935 C 0.94962 0.33276 0.36331 0.0
C1936 C -0.00293 0.34396 0.30706 0.0
C1937 C 0.0005 0.36562 0.31312 0.0
C1938 C 0.96729 0.34405 0.34586 0.0
C1939 C 0.98754 0.37592 0.33649 0.0
C1940 C 0.93119 0.34363 0.37539 0.0
C1941 C 0.93563 0.29994 0.38356 0.0
N1942 N 0.97119 0.36508 0.35184 0.0
N1943 N 0.95122 0.31133 0.36766 0.0
H1944 H 0.39941 0.81024 0.28202 0.0
H1945 H 0.35317 0.76225 0.44237 0.0
H1946 H 0.3741 0.85246 0.35596 0.0
H1947 H 0.34448 0.73075 0.34965 0.0
H1948 H 0.36066 0.79568 0.41323 0.0
H1949 H 0.37998 0.78059 0.30773 0.0
C1950 C 0.38952 0.81325 0.30352 0.0
C1951 C 0.38832 0.83369 0.31702 0.0
C1952 C 0.35661 0.78151 0.3994 0.0
C1953 C 0.36649 0.79987 0.34696 0.0
C1954 C 0.35235 0.76245 0.41598 0.0
C1955 C 0.34854 0.74362 0.3984 0.0
C1956 C 0.35746 0.78151 0.36516 0.0
C1957 C 0.34761 0.74481 0.36422 0.0
C1958 C 0.37837 0.79639 0.31808 0.0
C1959 C 0.37529 0.83686 0.34484 0.0
N1960 N 0.35251 0.76331 0.34872 0.0
N1961 N 0.36519 0.81998 0.35939 0.0
H1962 H 0.0057 0.60843 0.1432 0.0
H1963 H 0.94282 0.71527 0.09431 0.0
H1964 H 0.02173 0.66992 0.18327 0.0
H1965 H 0.91166 0.65354 0.09041 0.0
H1966 H 0.97548 0.69867 0.11781 0.0
H1967 H 0.97465 0.62471 0.1138 0.0
C1968 C 0.00259 0.62535 0.14567 0.0
C1969 C 0.0155 0.63785 0.16641 0.0
C1970 C 0.9615 0.68877 0.11169 0.0
C1971 C 0.98097 0.6565 0.13251 0.0
C1972 C 0.9429 0.6982 0.09824 0.0
C1973 C 0.92453 0.68573 0.09055 0.0
C1974 C 0.96184 0.6667 0.117 0.0
C1975 C 0.92548 0.6637 0.0962 0.0
C1976 C 0.98501 0.63459 0.12902 0.0
C1977 C 0.01152 0.65976 0.16825 0.0
N1978 N 0.94391 0.65483 0.10905 0.0
N1979 N 0.99449 0.66843 0.15161 0.0
H1980 H 0.11007 0.24523 0.94388 0.0
H1981 H 0.12177 0.16181 0.7988 0.0
H1982 H 0.1467 0.26163 0.85728 0.0
H1983 H 0.06041 0.17484 0.84741 0.0
H1984 H 0.13888 0.19121 0.8298 0.0
H1985 H 0.10026 0.21114 0.91877 0.0
C1986 C 0.11654 0.24143 0.91996 0.0
C1987 C 0.12901 0.25633 0.90244 0.0
C1988 C 0.12175 0.18737 0.83377 0.0
C1989 C 0.118 0.21744 0.87391 0.0
C1990 C 0.11204 0.1707 0.81625 0.0
C1991 C 0.08967 0.16617 0.82049 0.0
C1992 C 0.10908 0.19889 0.85631 0.0
C1993 C 0.07766 0.17806 0.84326 0.0
C1994 C 0.11082 0.22207 0.90563 0.0
C1995 C 0.13686 0.25062 0.87143 0.0
N1996 N 0.08754 0.19381 0.86048 0.0
N1997 N 0.13112 0.2316 0.85798 0.0
H1998 H 0.60499 0.3546 0.59315 0.0
H1999 H 0.50896 0.33809 0.72373 0.0
H2000 H 0.57962 0.29397 0.62543 0.0
H2001 H 0.51255 0.39485 0.66478 0.0
H2002 H 0.54257 0.3251 0.69833 0.0
H2003 H 0.57799 0.37263 0.62881 0.0
C2004 C 0.59394 0.34516 0.608 0.0
C2005 C 0.59421 0.32285 0.60618 0.0
C2006 C 0.53625 0.34055 0.69122 0.0
C2007 C 0.56404 0.34306 0.64691 0.0
C2008 C 0.51723 0.34803 0.70593 0.0
C2009 C 0.50845 0.36772 0.69678 0.0
C2010 C 0.54627 0.35261 0.66652 0.0
C2011 C 0.51917 0.37968 0.67267 0.0
C2012 C 0.5786 0.35539 0.62815 0.0
C2013 C 0.57968 0.31123 0.62578 0.0
N2014 N 0.53762 0.3719 0.65816 0.0
N2015 N 0.56522 0.32146 0.64529 0.0
H2016 H 0.01528 0.45019 0.19706 0.0
H2017 H 0.02405 0.56016 0.29111 0.0
H2018 H 0.03619 0.45272 0.29758 0.0
H2019 H 0.04533 0.55358 0.19118 0.0
H2020 H 0.01933 0.52129 0.29413 0.0
H2021 H 0.01684 0.48927 0.19476 0.0
C2022 C 0.01995 0.459 0.21869 0.0
C2023 C 0.02577 0.44834 0.24748 0.0
C2024 C 0.02499 0.52847 0.2716 0.0
C2025 C 0.02724 0.49265 0.24513 0.0
C2026 C 0.02763 0.55052 0.26984 0.0
C2027 C 0.03527 0.55993 0.24096 0.0
C2028 C 0.02942 0.51597 0.24402 0.0
C2029 C 0.03967 0.54684 0.21401 0.0
C2030 C 0.02095 0.48118 0.2173 0.0
C2031 C 0.03181 0.46042 0.27484 0.0
N2032 N 0.03652 0.52548 0.2161 0.0
N2033 N 0.03229 0.48201 0.27307 0.0
H2034 H 0.78721 0.86889 0.53964 0.0
H2035 H 0.69652 0.80017 0.44603 0.0
H2036 H 0.793 0.80098 0.52451 0.0
H2037 H 0.69676 0.86897 0.45043 0.0
H2038 H 0.73117 0.79969 0.47607 0.0
H2039 H 0.75254 0.86854 0.51021 0.0
C2040 C 0.78112 0.85384 0.53043 0.0
C2041 C 0.7932 0.83495 0.5344 0.0
C2042 C 0.72367 0.81487 0.47026 0.0
C2043 C 0.75347 0.83452 0.50024 0.0
C2044 C 0.70394 0.81518 0.45295 0.0
C2045 C 0.69359 0.83465 0.44577 0.0
C2046 C 0.73307 0.83414 0.48061 0.0
C2047 C 0.70403 0.85357 0.45543 0.0
C2048 C 0.76134 0.85369 0.51341 0.0
C2049 C 0.78432 0.81594 0.522 0.0
N2050 N 0.72309 0.85282 0.47252 0.0
N2051 N 0.76503 0.81623 0.50531 0.0
H2052 H 0.46199 0.44474 0.8038 0.0
H2053 H 0.4356 0.55147 0.78912 0.0
H2054 H 0.44618 0.44056 0.70135 0.0
H2055 H 0.46659 0.54341 0.69508 0.0
H2056 H 0.43126 0.51285 0.79301 0.0
H2057 H 0.45606 0.48326 0.80143 0.0
C2058 C 0.457 0.45193 0.78094 0.0
C2059 C 0.45456 0.43957 0.75273 0.0
C2060 C 0.43889 0.51963 0.77151 0.0
C2061 C 0.44775 0.48335 0.74986 0.0
C2062 C 0.44121 0.54163 0.76908 0.0
C2063 C 0.45182 0.55062 0.74194 0.0
C2064 C 0.44707 0.50662 0.74652 0.0
C2065 C 0.45865 0.53709 0.71665 0.0
C2066 C 0.45339 0.47382 0.77968 0.0
C2067 C 0.44807 0.44959 0.72368 0.0
N2068 N 0.45623 0.51568 0.71961 0.0
N2069 N 0.4453 0.47104 0.72281 0.0
H2070 H 0.80005 0.20126 0.9602 0.0
H2071 H 0.70473 0.13771 0.05154 0.0
H2072 H 0.79351 0.13268 0.96047 0.0
H2073 H 0.69907 0.20472 0.02866 0.0
H2074 H 0.74015 0.13694 0.02432 0.0
H2075 H 0.7649 0.20392 0.98903 0.0
C2076 C 0.79116 0.18678 0.96593 0.0
C2077 C 0.79987 0.16669 0.958 0.0
C2078 C 0.73122 0.15185 0.02534 0.0
C2079 C 0.75999 0.16969 0.99149 0.0
C2080 C 0.71101 0.15236 0.04112 0.0
C2081 C 0.6987 0.17126 0.0421 0.0
C2082 C 0.73934 0.17037 0.01047 0.0
C2083 C 0.70792 0.18976 0.02839 0.0
C2084 C 0.77117 0.18834 0.98252 0.0
C2085 C 0.78758 0.14852 0.9661 0.0
N2086 N 0.72766 0.18882 0.01291 0.0
N2087 N 0.76841 0.15046 0.98262 0.0
H2088 H 0.91707 0.44427 0.79553 0.0
H2089 H 0.91428 0.55089 0.68836 0.0
H2090 H 0.93564 0.44699 0.69401 0.0
H2091 H 0.92641 0.54996 0.79202 0.0
H2092 H 0.90942 0.51201 0.68962 0.0
H2093 H 0.908 0.48239 0.79343 0.0
C2094 C 0.91878 0.45278 0.77267 0.0
C2095 C 0.92739 0.44262 0.74502 0.0
C2096 C 0.91268 0.52045 0.71215 0.0
C2097 C 0.9169 0.48589 0.7424 0.0
C2098 C 0.9153 0.54257 0.71148 0.0
C2099 C 0.92096 0.55349 0.74008 0.0
C2100 C 0.91541 0.50938 0.7417 0.0
C2101 C 0.9223 0.54201 0.76939 0.0
C2102 C 0.91369 0.47448 0.77152 0.0
C2103 C 0.92936 0.45436 0.71601 0.0
N2104 N 0.9197 0.52053 0.76943 0.0
N2105 N 0.92428 0.47542 0.71548 0.0
H2106 H 0.30021 0.20104 0.46811 0.0
H2107 H 0.18662 0.22872 0.54013 0.0
H2108 H 0.28815 0.19579 0.57145 0.0
H2109 H 0.19231 0.20207 0.44342 0.0
H2110 H 0.22348 0.21578 0.55266 0.0
H2111 H 0.26067 0.19965 0.45819 0.0
C2112 C 0.28914 0.19912 0.48862 0.0
C2113 C 0.29719 0.1987 0.5206 0.0
C2114 C 0.21651 0.21245 0.5289 0.0
C2115 C 0.25221 0.19769 0.50963 0.0
C2116 C 0.19561 0.22002 0.52161 0.0
C2117 C 0.18664 0.21676 0.49051 0.0
C2118 C 0.22868 0.20199 0.50466 0.0
C2119 C 0.19876 0.20506 0.4676 0.0
C2120 C 0.26665 0.19826 0.48298 0.0
C2121 C 0.28241 0.19615 0.54645 0.0
N2122 N 0.2194 0.19844 0.47492 0.0
N2123 N 0.26047 0.19627 0.54047 0.0
H2124 H 0.56183 0.5549 0.30144 0.0
H2125 H 0.56603 0.44778 0.19637 0.0
H2126 H 0.54508 0.55172 0.19927 0.0
H2127 H 0.5492 0.44929 0.29861 0.0
H2128 H 0.57131 0.48655 0.19767 0.0
H2129 H 0.56993 0.51654 0.30056 0.0
C2130 C 0.56029 0.5462 0.27873 0.0
C2131 C 0.55249 0.55629 0.25049 0.0
C2132 C 0.56688 0.47825 0.21991 0.0
C2133 C 0.56196 0.51288 0.24925 0.0
C2134 C 0.56397 0.45621 0.21922 0.0
C2135 C 0.55689 0.44549 0.24733 0.0
C2136 C 0.56303 0.48944 0.249 0.0
C2137 C 0.55435 0.45709 0.27632 0.0
C2138 C 0.56484 0.5244 0.27828 0.0
C2139 C 0.55072 0.54438 0.22168 0.0
N2140 N 0.55729 0.47852 0.27639 0.0
N2141 N 0.55532 0.52324 0.22181 0.0
H2142 H 0.18767 0.77542 0.93761 0.0
H2143 H 0.29826 0.8001 0.01998 0.0
H2144 H 0.1908 0.80343 0.03368 0.0
H2145 H 0.29206 0.79931 0.91525 0.0
H2146 H 0.25871 0.80557 0.02471 0.0
H2147 H 0.22501 0.78765 0.92712 0.0
C2148 C 0.19615 0.78437 0.95636 0.0
C2149 C 0.18639 0.78799 0.98685 0.0
C2150 C 0.26599 0.80477 0.00063 0.0
C2151 C 0.22906 0.80191 0.97506 0.0
C2152 C 0.2885 0.80158 -0.00202 0.0
C2153 C 0.29812 0.79901 0.96723 0.0
C2154 C 0.25303 0.80464 0.97233 0.0
C2155 C 0.28504 0.80115 0.93936 0.0
C2156 C 0.21738 0.79153 0.95023 0.0
C2157 C 0.19788 0.80005 0.01 0.0
N2158 N 0.26295 0.8033 0.94257 0.0
N2159 N 0.21885 0.80619 0.0039 0.0
H2160 H 0.55017 0.94126 0.70258 0.0
H2161 H 0.53505 0.04196 0.80981 0.0
H2162 H 0.55957 0.93729 0.80665 0.0
H2163 H 0.56302 0.04638 0.71319 0.0
H2164 H 0.54289 0.00367 0.80992 0.0
H2165 H 0.55402 0.98 0.70571 0.0
C2166 C 0.55343 0.94862 0.72599 0.0
C2167 C 0.55458 0.93629 0.7544 0.0
C2168 C 0.54764 0.01315 0.78899 0.0
C2169 C 0.55837 0.98035 0.75833 0.0
C2170 C 0.54304 0.03493 0.7888 0.0
C2171 C 0.54817 0.0473 0.7613 0.0
C2172 C 0.55693 0.00371 0.76122 0.0
C2173 C 0.5587 0.03743 0.73485 0.0
C2174 C 0.55568 0.97063 0.72778 0.0
C2175 C 0.55874 0.9464 0.78423 0.0
N2176 N 0.56237 0.01612 0.73522 0.0
N2177 N 0.56004 0.96801 0.78558 0.0
H2178 H 0.28972 0.36527 0.04554 0.0
H2179 H 0.1939 0.29698 0.96374 0.0
H2180 H 0.2934 0.29681 0.0355 0.0
H2181 H 0.20049 0.3653 0.95456 0.0
H2182 H 0.2288 0.29601 0.99333 0.0
H2183 H 0.25456 0.36489 0.01754 0.0
C2184 C 0.28307 0.35009 0.03777 0.0
C2185 C 0.29472 0.33105 0.04264 0.0
C2186 C 0.22261 0.31115 0.98462 0.0
C2187 C 0.25439 0.33058 0.01015 0.0
C2188 C 0.20275 0.31174 0.9676 0.0
C2189 C 0.19414 0.33127 0.95672 0.0
C2190 C 0.2338 0.33024 0.99103 0.0
C2191 C 0.20637 0.34986 0.96249 0.0
C2192 C 0.26301 0.34992 0.02154 0.0
C2193 C 0.28507 0.31189 0.03216 0.0
N2194 N 0.22546 0.34888 0.97944 0.0
N2195 N 0.26549 0.31216 0.01622 0.0
H2196 H 0.98452 0.04833 0.19791 0.0
H2197 H 0.98484 0.93949 0.29675 0.0
H2198 H 0.9652 0.04534 0.29913 0.0
H2199 H 0.96422 0.94242 0.19611 0.0
H2200 H 0.98662 0.97858 0.2978 0.0
H2201 H 0.98604 0.0092 0.19667 0.0
C2202 C 0.98078 0.03943 0.21988 0.0
C2203 C 0.97455 0.04996 0.24859 0.0
C2204 C 0.98179 0.97057 0.27552 0.0
C2205 C 0.97666 0.00561 0.24746 0.0
C2206 C 0.98085 0.94837 0.27486 0.0
C2207 C 0.9742 0.93783 0.24639 0.0
C2208 C 0.97659 0.98216 0.24728 0.0
C2209 C 0.96917 0.95001 0.21866 0.0
C2210 C 0.98156 0.01721 0.21911 0.0
C2211 C 0.96982 0.03776 0.27641 0.0
N2212 N 0.97059 0.97159 0.21972 0.0
N2213 N 0.97109 0.01618 0.27523 0.0
H2214 H 0.28773 0.63213 0.46225 0.0
H2215 H 0.19205 0.69823 0.54849 0.0
H2216 H 0.2904 0.70045 0.47493 0.0
H2217 H 0.19662 0.62951 0.54958 0.0
H2218 H 0.22777 0.69981 0.52146 0.0
H2219 H 0.2532 0.63142 0.49197 0.0
C2220 C 0.28099 0.64705 0.471 0.0
C2221 C 0.29212 0.66638 0.46614 0.0
C2222 C 0.22101 0.68441 0.52792 0.0
C2223 C 0.25252 0.6656 0.50065 0.0
C2224 C 0.20066 0.68348 0.54353 0.0
C2225 C 0.19114 0.66368 0.55108 0.0
C2226 C 0.23184 0.66543 0.51962 0.0
C2227 C 0.20316 0.64514 0.54407 0.0
C2228 C 0.26131 0.64659 0.48823 0.0
C2229 C 0.28245 0.68516 0.47809 0.0
N2230 N 0.22275 0.64647 0.52845 0.0
N2231 N 0.26321 0.68429 0.49488 0.0
H2232 H 0.4241 0.05179 0.19284 0.0
H2233 H 0.41907 0.94848 0.30689 0.0
H2234 H 0.44278 0.05134 0.2944 0.0
H2235 H 0.43184 0.94617 0.20342 0.0
H2236 H 0.41484 0.98735 0.30287 0.0
H2237 H 0.41436 0.01389 0.19729 0.0
C2238 C 0.4258 0.04379 0.21614 0.0
C2239 C 0.43461 0.05447 0.24314 0.0
C2240 C 0.41812 0.9782 0.281 0.0
C2241 C 0.42323 0.01163 0.24849 0.0
C2242 C 0.42041 0.95612 0.28326 0.0
C2243 C 0.42612 0.94433 0.25552 0.0
C2244 C 0.42121 0.9883 0.25075 0.0
C2245 C 0.42778 0.95486 0.22544 0.0
C2246 C 0.42028 0.02227 0.21865 0.0
C2247 C 0.43645 0.0435 0.27284 0.0
N2248 N 0.4255 0.97632 0.22385 0.0
N2249 N 0.43091 0.02261 0.2747 0.0
H2250 H 0.81126 0.68655 0.98304 0.0
H2251 H 0.70146 0.66789 0.96018 0.0
H2252 H 0.79419 0.71099 0.07786 0.0
H2253 H 0.69567 0.72025 0.02808 0.0
H2254 H 0.7388 0.6616 0.97966 0.0
H2255 H 0.77307 0.67639 0.97436 0.0
C2256 C 0.79946 0.68897 0.00249 0.0
C2257 C 0.80556 0.69944 0.03117 0.0
C2258 C 0.72934 0.67446 0.99021 0.0
C2259 C 0.76196 0.68824 0.02153 0.0
C2260 C 0.70798 0.67802 0.97924 0.0
C2261 C 0.69566 0.69505 0.99181 0.0
C2262 C 0.73838 0.68813 0.01375 0.0
C2263 C 0.70477 0.70731 0.01702 0.0
C2264 C 0.77768 0.6831 -0.00232 0.0
C2265 C 0.7899 0.70274 0.05555 0.0
N2266 N 0.72568 0.70374 0.02691 0.0
N2267 N 0.76859 0.69759 0.04986 0.0
H2268 H 0.07707 0.05519 0.7879 0.0
H2269 H 0.06759 0.94833 0.68293 0.0
H2270 H 0.05351 0.05364 0.68865 0.0
H2271 H 0.05798 0.95118 0.78711 0.0
H2272 H 0.07573 0.98669 0.68284 0.0
H2273 H 0.08364 0.01667 0.78515 0.0
C2274 C 0.07385 0.04685 0.76527 0.0
C2275 C 0.06446 0.05748 0.7386 0.0
C2276 C 0.07228 0.97875 0.70574 0.0
C2277 C 0.072 0.01371 0.73531 0.0
C2278 C 0.06774 0.95693 0.70584 0.0
C2279 C 0.06186 0.94676 0.73503 0.0
C2280 C 0.07133 0.99022 0.73511 0.0
C2281 C 0.06215 0.95857 0.76405 0.0
C2282 C 0.07749 0.02491 0.7638 0.0
C2283 C 0.06048 0.04593 0.7099 0.0
N2284 N 0.06668 0.97973 0.76336 0.0
N2285 N 0.06411 0.02459 0.70908 0.0
H2286 H 0.6931 0.27685 0.45441 0.0
H2287 H 0.80864 0.27614 0.53243 0.0
H2288 H 0.70309 0.29841 0.55331 0.0
H2289 H 0.8009 0.28817 0.42944 0.0
H2290 H 0.76998 0.28494 0.54078 0.0
H2291 H 0.73231 0.28158 0.44388 0.0
C2292 C 0.70352 0.28282 0.47377 0.0
C2293 C 0.69499 0.28692 0.50492 0.0
C2294 C 0.77682 0.28606 0.51644 0.0
C2295 C 0.73965 0.29217 0.49314 0.0
C2296 C 0.79878 0.2809 0.51166 0.0
C2297 C 0.80771 0.28122 0.48018 0.0
C2298 C 0.76364 0.29095 0.48941 0.0
C2299 C 0.79446 0.2877 0.45406 0.0
C2300 C 0.72582 0.28567 0.46768 0.0
C2301 C 0.70908 0.29492 0.52902 0.0
N2302 N 0.77285 0.29188 0.45914 0.0
N2303 N 0.73087 0.29687 0.52283 0.0
loop_
_geom_bond_atom_site_label_1
_geom_bond_atom_site_label_2
_geom_bond_distance
_geom_bond_site_symmetry_2
_ccdc_geom_bond_type
Mn0 O5 2.095 . S
Mn0 O15 2.162 . S
Mn0 O16 2.297 . S
Mn0 O24 2.385 . S
Mn0 O25 2.209 . S
Mn0 O26 2.094 . S
Mn1 O6 2.121 . S
Mn1 N8 2.257 . S
Mn1 N17 2.282 . S
Mn1 O25 2.215 . S
Mn1 O27 2.117 . S
C2 O24 1.234 . S
C2 O25 1.283 . S
C3 O15 1.281 . S
C3 O16 1.236 . S
C4 O26 1.240 . S
C4 O27 1.264 . S
O5 Mn0 2.095 . S
O5 C14 1.250 . S
O6 Mn1 2.121 . S
O6 C14 1.258 . S
C7 N8 1.326 . S
C7 C11 1.460 1_455 S
C7 H13 0.929 . S
N8 Mn1 2.257 . S
N8 C7 1.326 . S
N8 C12 1.362 1_455 S
C9 C10 1.258 . S
C9 C12 1.431 . S
C9 C29 1.449 . S
C10 C9 1.258 . S
C10 C11 1.477 . S
C10 H30 0.931 . S
C11 C7 1.460 1_655 S
C11 C10 1.477 . S
C11 H31 0.930 . S
C12 N8 1.362 1_655 S
C12 C9 1.431 . S
C12 C22 1.476 . S
H13 C7 0.929 . S
C14 O5 1.250 . S
C14 O6 1.258 . S
O15 Mn0 2.162 . S
O15 C3 1.281 . S
O16 Mn0 2.297 . S
O16 C3 1.236 . S
N17 Mn1 2.282 . S
N17 C18 1.328 . S
N17 C22 1.318 1_455 S
C18 N17 1.328 . S
C18 C19 1.457 1_455 S
C18 H23 0.929 . S
C19 C18 1.457 1_655 S
C19 C20 1.291 . S
C19 H32 0.931 . S
C20 C19 1.291 . S
C20 C21 1.373 . S
C20 H33 0.929 . S
C21 C20 1.373 . S
C21 C22 1.396 . S
C21 C28 1.403 . S
C22 C12 1.476 . S
C22 N17 1.318 1_655 S
C22 C21 1.396 . S
H23 C18 0.929 . S
O24 Mn0 2.385 . S
O24 C2 1.234 . S
O25 Mn0 2.209 . S
O25 Mn1 2.215 . S
O25 C2 1.283 . S
O26 Mn0 2.094 . S
O26 C4 1.240 . S
O27 Mn1 2.117 . S
O27 C4 1.264 . S
C28 C21 1.403 . S
C28 C29 1.399 . S
C28 H34 0.929 . S
C29 C9 1.449 . S
C29 C28 1.399 . S
C29 H35 0.930 . S
H30 C10 0.931 . S
H31 C11 0.930 . S
H32 C19 0.931 . S
H33 C20 0.929 . S
H34 C28 0.929 . S
H35 C29 0.930 . S
Mn36 O41 2.095 . S
Mn36 O51 2.162 . S
Mn36 O52 2.297 . S
Mn36 O60 2.385 . S
Mn36 O61 2.209 . S
Mn36 O62 2.094 . S
Mn37 O42 2.121 . S
Mn37 N44 2.257 . S
Mn37 N53 2.282 . S
Mn37 O61 2.215 . S
Mn37 O63 2.117 . S
C38 O60 1.234 . S
C38 O61 1.283 . S
C39 O51 1.281 . S
C39 O52 1.236 . S
C40 O62 1.240 . S
C40 O63 1.264 . S
O41 Mn36 2.095 . S
O41 C50 1.250 . S
O42 Mn37 2.121 . S
O42 C50 1.258 . S
C43 N44 1.326 . S
C43 C47 1.460 . S
C43 H49 0.929 . S
N44 Mn37 2.257 . S
N44 C43 1.326 . S
N44 C48 1.362 . S
C45 C46 1.258 . S
C45 C48 1.431 . S
C45 C65 1.449 . S
C46 C45 1.258 . S
C46 C47 1.477 . S
C46 H66 0.931 . S
C47 C43 1.460 . S
C47 C46 1.477 . S
C47 H67 0.930 . S
C48 N44 1.362 . S
C48 C45 1.431 . S
C48 C58 1.476 . S
H49 C43 0.929 . S
C50 O41 1.250 . S
C50 O42 1.258 . S
O51 Mn36 2.162 . S
O51 C39 1.281 . S
O52 Mn36 2.297 . S
O52 C39 1.236 . S
N53 Mn37 2.282 . S
N53 C54 1.328 . S
N53 C58 1.318 . S
C54 N53 1.328 . S
C54 C55 1.457 . S
C54 H59 0.929 . S
C55 C54 1.457 . S
C55 C56 1.291 . S
C55 H68 0.931 . S
C56 C55 1.291 . S
C56 C57 1.373 . S
C56 H69 0.929 . S
C57 C56 1.373 . S
C57 C58 1.396 . S
C57 C64 1.403 . S
C58 C48 1.476 . S
C58 N53 1.318 . S
C58 C57 1.396 . S
H59 C54 0.929 . S
O60 Mn36 2.385 . S
O60 C38 1.234 . S
O61 Mn36 2.209 . S
O61 Mn37 2.215 . S
O61 C38 1.283 . S
O62 Mn36 2.094 . S
O62 C40 1.240 . S
O63 Mn37 2.117 . S
O63 C40 1.264 . S
C64 C57 1.403 . S
C64 C65 1.399 . S
C64 H70 0.929 . S
C65 C45 1.449 . S
C65 C64 1.399 . S
C65 H71 0.930 . S
H66 C46 0.931 . S
H67 C47 0.930 . S
H68 C55 0.931 . S
H69 C56 0.929 . S
H70 C64 0.929 . S
H71 C65 0.930 . S
Mn72 O77 2.095 . S
Mn72 O87 2.162 . S
Mn72 O88 2.297 . S
Mn72 O96 2.385 . S
Mn72 O97 2.209 . S
Mn72 O98 2.094 . S
Mn73 O78 2.121 . S
Mn73 N80 2.257 . S
Mn73 N89 2.282 . S
Mn73 O97 2.215 . S
Mn73 O99 2.117 . S
C74 O96 1.234 . S
C74 O97 1.283 . S
C75 O87 1.281 . S
C75 O88 1.236 . S
C76 O98 1.240 . S
C76 O99 1.264 . S
O77 Mn72 2.095 . S
O77 C86 1.250 . S
O78 Mn73 2.121 . S
O78 C86 1.258 . S
C79 N80 1.326 . S
C79 C83 1.460 . S
C79 H85 0.929 . S
N80 Mn73 2.257 . S
N80 C79 1.326 . S
N80 C84 1.362 . S
C81 C82 1.258 . S
C81 C84 1.431 . S
C81 C101 1.449 . S
C82 C81 1.258 . S
C82 C83 1.477 . S
C82 H102 0.931 . S
C83 C79 1.460 . S
C83 C82 1.477 . S
C83 H103 0.930 . S
C84 N80 1.362 . S
C84 C81 1.431 . S
C84 C94 1.476 . S
H85 C79 0.929 . S
C86 O77 1.250 . S
C86 O78 1.258 . S
O87 Mn72 2.162 . S
O87 C75 1.281 . S
O88 Mn72 2.297 . S
O88 C75 1.236 . S
N89 Mn73 2.282 . S
N89 C90 1.328 . S
N89 C94 1.318 . S
C90 N89 1.328 . S
C90 C91 1.457 . S
C90 H95 0.929 . S
C91 C90 1.457 . S
C91 C92 1.291 . S
C91 H104 0.931 . S
C92 C91 1.291 . S
C92 C93 1.373 . S
C92 H105 0.929 . S
C93 C92 1.373 . S
C93 C94 1.396 . S
C93 C100 1.403 . S
C94 C84 1.476 . S
C94 N89 1.318 . S
C94 C93 1.396 . S
H95 C90 0.929 . S
O96 Mn72 2.385 . S
O96 C74 1.234 . S
O97 Mn72 2.209 . S
O97 Mn73 2.215 . S
O97 C74 1.283 . S
O98 Mn72 2.094 . S
O98 C76 1.240 . S
O99 Mn73 2.117 . S
O99 C76 1.264 . S
C100 C93 1.403 . S
C100 C101 1.399 . S
C100 H106 0.929 . S
C101 C81 1.449 . S
C101 C100 1.399 . S
C101 H107 0.930 . S
H102 C82 0.931 . S
H103 C83 0.930 . S
H104 C91 0.931 . S
H105 C92 0.929 . S
H106 C100 0.929 . S
H107 C101 0.930 . S
Mn108 O113 2.095 . S
Mn108 O123 2.162 . S
Mn108 O124 2.297 . S
Mn108 O132 2.385 . S
Mn108 O133 2.209 . S
Mn108 O134 2.094 1_554 S
Mn109 O114 2.121 . S
Mn109 N116 2.257 . S
Mn109 N125 2.282 . S
Mn109 O133 2.215 . S
Mn109 O135 2.117 1_554 S
C110 O132 1.234 . S
C110 O133 1.283 . S
C111 O123 1.281 . S
C111 O124 1.236 . S
C112 O134 1.240 . S
C112 O135 1.264 . S
O113 Mn108 2.095 . S
O113 C122 1.250 . S
O114 Mn109 2.121 . S
O114 C122 1.258 . S
C115 N116 1.326 . S
C115 C119 1.460 . S
C115 H121 0.929 . S
N116 Mn109 2.257 . S
N116 C115 1.326 . S
N116 C120 1.362 . S
C117 C118 1.258 . S
C117 C120 1.431 . S
C117 C137 1.449 . S
C118 C117 1.258 . S
C118 C119 1.477 . S
C118 H138 0.931 . S
C119 C115 1.460 . S
C119 C118 1.477 . S
C119 H139 0.930 . S
C120 N116 1.362 . S
C120 C117 1.431 . S
C120 C130 1.476 . S
H121 C115 0.929 . S
C122 O113 1.250 . S
C122 O114 1.258 . S
O123 Mn108 2.162 . S
O123 C111 1.281 . S
O124 Mn108 2.297 . S
O124 C111 1.236 . S
N125 Mn109 2.282 . S
N125 C126 1.328 . S
N125 C130 1.318 . S
C126 N125 1.328 . S
C126 C127 1.457 . S
C126 H131 0.929 . S
C127 C126 1.457 . S
C127 C128 1.291 . S
C127 H140 0.931 . S
C128 C127 1.291 . S
C128 C129 1.373 . S
C128 H141 0.929 . S
C129 C128 1.373 . S
C129 C130 1.396 . S
C129 C136 1.403 . S
C130 C120 1.476 . S
C130 N125 1.318 . S
C130 C129 1.396 . S
H131 C126 0.929 . S
O132 Mn108 2.385 . S
O132 C110 1.234 . S
O133 Mn108 2.209 . S
O133 Mn109 2.215 . S
O133 C110 1.283 . S
O134 Mn108 2.094 1_556 S
O134 C112 1.240 . S
O135 Mn109 2.117 1_556 S
O135 C112 1.264 . S
C136 C129 1.403 . S
C136 C137 1.399 . S
C136 H142 0.929 . S
C137 C117 1.449 . S
C137 C136 1.399 . S
C137 H143 0.930 . S
H138 C118 0.931 . S
H139 C119 0.930 . S
H140 C127 0.931 . S
H141 C128 0.929 . S
H142 C136 0.929 . S
H143 C137 0.930 . S
Mn144 O149 2.095 . S
Mn144 O159 2.162 . S
Mn144 O160 2.297 . S
Mn144 O168 2.385 . S
Mn144 O169 2.209 . S
Mn144 O170 2.094 . S
Mn145 O150 2.121 . S
Mn145 N152 2.257 . S
Mn145 N161 2.282 . S
Mn145 O169 2.215 . S
Mn145 O171 2.117 . S
C146 O168 1.234 . S
C146 O169 1.283 . S
C147 O159 1.281 . S
C147 O160 1.236 . S
C148 O170 1.240 . S
C148 O171 1.264 . S
O149 Mn144 2.095 . S
O149 C158 1.250 . S
O150 Mn145 2.121 . S
O150 C158 1.258 . S
C151 N152 1.326 . S
C151 C155 1.460 1_455 S
C151 H157 0.929 . S
N152 Mn145 2.257 . S
N152 C151 1.326 . S
N152 C156 1.362 1_455 S
C153 C154 1.258 . S
C153 C156 1.431 . S
C153 C173 1.449 . S
C154 C153 1.258 . S
C154 C155 1.477 . S
C154 H174 0.931 . S
C155 C151 1.460 1_655 S
C155 C154 1.477 . S
C155 H175 0.930 . S
C156 N152 1.362 1_655 S
C156 C153 1.431 . S
C156 C166 1.476 . S
H157 C151 0.929 . S
C158 O149 1.250 . S
C158 O150 1.258 . S
O159 Mn144 2.162 . S
O159 C147 1.281 . S
O160 Mn144 2.297 . S
O160 C147 1.236 . S
N161 Mn145 2.282 . S
N161 C162 1.328 . S
N161 C166 1.318 1_455 S
C162 N161 1.328 . S
C162 C163 1.457 1_455 S
C162 H167 0.929 . S
C163 C162 1.457 1_655 S
C163 C164 1.291 . S
C163 H176 0.931 . S
C164 C163 1.291 . S
C164 C165 1.373 . S
C164 H177 0.929 . S
C165 C164 1.373 . S
C165 C166 1.396 . S
C165 C172 1.403 . S
C166 C156 1.476 . S
C166 N161 1.318 1_655 S
C166 C165 1.396 . S
H167 C162 0.929 . S
O168 Mn144 2.385 . S
O168 C146 1.234 . S
O169 Mn144 2.209 . S
O169 Mn145 2.215 . S
O169 C146 1.283 . S
O170 Mn144 2.094 . S
O170 C148 1.240 . S
O171 Mn145 2.117 . S
O171 C148 1.264 . S
C172 C165 1.403 . S
C172 C173 1.399 . S
C172 H178 0.929 . S
C173 C153 1.449 . S
C173 C172 1.399 . S
C173 H179 0.930 . S
H174 C154 0.931 . S
H175 C155 0.930 . S
H176 C163 0.931 . S
H177 C164 0.929 . S
H178 C172 0.929 . S
H179 C173 0.930 . S
Mn180 O185 2.095 . S
Mn180 O195 2.162 . S
Mn180 O196 2.297 . S
Mn180 O204 2.385 . S
Mn180 O205 2.209 . S
Mn180 O206 2.094 . S
Mn181 O186 2.121 . S
Mn181 N188 2.257 . S
Mn181 N197 2.282 . S
Mn181 O205 2.215 . S
Mn181 O207 2.117 . S
C182 O204 1.234 . S
C182 O205 1.283 . S
C183 O195 1.281 . S
C183 O196 1.236 . S
C184 O206 1.240 . S
C184 O207 1.264 . S
O185 Mn180 2.095 . S
O185 C194 1.250 . S
O186 Mn181 2.121 . S
O186 C194 1.258 . S
C187 N188 1.326 . S
C187 C191 1.460 . S
C187 H193 0.929 . S
N188 Mn181 2.257 . S
N188 C187 1.326 . S
N188 C192 1.362 . S
C189 C190 1.258 . S
C189 C192 1.431 . S
C189 C209 1.449 . S
C190 C189 1.258 . S
C190 C191 1.477 . S
C190 H210 0.931 . S
C191 C187 1.460 . S
C191 C190 1.477 . S
C191 H211 0.930 . S
C192 N188 1.362 . S
C192 C189 1.431 . S
C192 C202 1.476 . S
H193 C187 0.929 . S
C194 O185 1.250 . S
C194 O186 1.258 . S
O195 Mn180 2.162 . S
O195 C183 1.281 . S
O196 Mn180 2.297 . S
O196 C183 1.236 . S
N197 Mn181 2.282 . S
N197 C198 1.328 . S
N197 C202 1.318 . S
C198 N197 1.328 . S
C198 C199 1.457 . S
C198 H203 0.929 . S
C199 C198 1.457 . S
C199 C200 1.291 . S
C199 H212 0.931 . S
C200 C199 1.291 . S
C200 C201 1.373 . S
C200 H213 0.929 . S
C201 C200 1.373 . S
C201 C202 1.396 . S
C201 C208 1.403 . S
C202 C192 1.476 . S
C202 N197 1.318 . S
C202 C201 1.396 . S
H203 C198 0.929 . S
O204 Mn180 2.385 . S
O204 C182 1.234 . S
O205 Mn180 2.209 . S
O205 Mn181 2.215 . S
O205 C182 1.283 . S
O206 Mn180 2.094 . S
O206 C184 1.240 . S
O207 Mn181 2.117 . S
O207 C184 1.264 . S
C208 C201 1.403 . S
C208 C209 1.399 . S
C208 H214 0.929 . S
C209 C189 1.449 . S
C209 C208 1.399 . S
C209 H215 0.930 . S
H210 C190 0.931 . S
H211 C191 0.930 . S
H212 C199 0.931 . S
H213 C200 0.929 . S
H214 C208 0.929 . S
H215 C209 0.930 . S
Mn216 O221 2.095 . S
Mn216 O231 2.162 . S
Mn216 O232 2.297 . S
Mn216 O240 2.385 . S
Mn216 O241 2.209 . S
Mn216 O242 2.094 . S
Mn217 O222 2.121 . S
Mn217 N224 2.257 . S
Mn217 N233 2.282 . S
Mn217 O241 2.215 . S
Mn217 O243 2.117 . S
C218 O240 1.234 . S
C218 O241 1.283 . S
C219 O231 1.281 . S
C219 O232 1.236 . S
C220 O242 1.240 . S
C220 O243 1.264 . S
O221 Mn216 2.095 . S
O221 C230 1.250 . S
O222 Mn217 2.121 . S
O222 C230 1.258 . S
C223 N224 1.326 . S
C223 C227 1.460 . S
C223 H229 0.929 . S
N224 Mn217 2.257 . S
N224 C223 1.326 . S
N224 C228 1.362 . S
C225 C226 1.258 . S
C225 C228 1.431 . S
C225 C245 1.449 . S
C226 C225 1.258 . S
C226 C227 1.477 . S
C226 H246 0.931 . S
C227 C223 1.460 . S
C227 C226 1.477 . S
C227 H247 0.930 . S
C228 N224 1.362 . S
C228 C225 1.431 . S
C228 C238 1.476 . S
H229 C223 0.929 . S
C230 O221 1.250 . S
C230 O222 1.258 . S
O231 Mn216 2.162 . S
O231 C219 1.281 . S
O232 Mn216 2.297 . S
O232 C219 1.236 . S
N233 Mn217 2.282 . S
N233 C234 1.328 . S
N233 C238 1.318 . S
C234 N233 1.328 . S
C234 C235 1.457 . S
C234 H239 0.929 . S
C235 C234 1.457 . S
C235 C236 1.291 . S
C235 H248 0.931 . S
C236 C235 1.291 . S
C236 C237 1.373 . S
C236 H249 0.929 . S
C237 C236 1.373 . S
C237 C238 1.396 . S
C237 C244 1.403 . S
C238 C228 1.476 . S
C238 N233 1.318 . S
C238 C237 1.396 . S
H239 C234 0.929 . S
O240 Mn216 2.385 . S
O240 C218 1.234 . S
O241 Mn216 2.209 . S
O241 Mn217 2.215 . S
O241 C218 1.283 . S
O242 Mn216 2.094 . S
O242 C220 1.240 . S
O243 Mn217 2.117 . S
O243 C220 1.264 . S
C244 C237 1.403 . S
C244 C245 1.399 . S
C244 H250 0.929 . S
C245 C225 1.449 . S
C245 C244 1.399 . S
C245 H251 0.930 . S
H246 C226 0.931 . S
H247 C227 0.930 . S
H248 C235 0.931 . S
H249 C236 0.929 . S
H250 C244 0.929 . S
H251 C245 0.930 . S
Mn252 O257 2.095 . S
Mn252 O267 2.162 . S
Mn252 O268 2.297 . S
Mn252 O276 2.385 . S
Mn252 O277 2.209 . S
Mn252 O278 2.094 1_556 S
Mn253 O258 2.121 . S
Mn253 N260 2.257 . S
Mn253 N269 2.282 . S
Mn253 O277 2.215 . S
Mn253 O279 2.117 1_556 S
C254 O276 1.234 . S
C254 O277 1.283 . S
C255 O267 1.281 . S
C255 O268 1.236 . S
C256 O278 1.240 . S
C256 O279 1.264 . S
O257 Mn252 2.095 . S
O257 C266 1.250 . S
O258 Mn253 2.121 . S
O258 C266 1.258 . S
C259 N260 1.326 . S
C259 C263 1.460 . S
C259 H265 0.929 . S
N260 Mn253 2.257 . S
N260 C259 1.326 . S
N260 C264 1.362 . S
C261 C262 1.258 . S
C261 C264 1.431 . S
C261 C281 1.449 . S
C262 C261 1.258 . S
C262 C263 1.477 . S
C262 H282 0.931 . S
C263 C259 1.460 . S
C263 C262 1.477 . S
C263 H283 0.930 . S
C264 N260 1.362 . S
C264 C261 1.431 . S
C264 C274 1.476 . S
H265 C259 0.929 . S
C266 O257 1.250 . S
C266 O258 1.258 . S
O267 Mn252 2.162 . S
O267 C255 1.281 . S
O268 Mn252 2.297 . S
O268 C255 1.236 . S
N269 Mn253 2.282 . S
N269 C270 1.328 . S
N269 C274 1.318 . S
C270 N269 1.328 . S
C270 C271 1.457 . S
C270 H275 0.929 . S
C271 C270 1.457 . S
C271 C272 1.291 . S
C271 H284 0.931 . S
C272 C271 1.291 . S
C272 C273 1.373 . S
C272 H285 0.929 . S
C273 C272 1.373 . S
C273 C274 1.396 . S
C273 C280 1.403 . S
C274 C264 1.476 . S
C274 N269 1.318 . S
C274 C273 1.396 . S
H275 C270 0.929 . S
O276 Mn252 2.385 . S
O276 C254 1.234 . S
O277 Mn252 2.209 . S
O277 Mn253 2.215 . S
O277 C254 1.283 . S
O278 Mn252 2.094 1_554 S
O278 C256 1.240 . S
O279 Mn253 2.117 1_554 S
O279 C256 1.264 . S
C280 C273 1.403 . S
C280 C281 1.399 . S
C280 H286 0.929 . S
C281 C261 1.449 . S
C281 C280 1.399 . S
C281 H287 0.930 . S
H282 C262 0.931 . S
H283 C263 0.930 . S
H284 C271 0.931 . S
H285 C272 0.929 . S
H286 C280 0.929 . S
H287 C281 0.930 . S
Mn288 O293 2.095 . S
Mn288 O303 2.162 . S
Mn288 O304 2.297 . S
Mn288 O312 2.385 . S
Mn288 O313 2.209 . S
Mn288 O314 2.094 . S
Mn289 O294 2.121 . S
Mn289 N296 2.257 1_655 S
Mn289 N305 2.282 1_655 S
Mn289 O313 2.215 . S
Mn289 O315 2.117 . S
C290 O312 1.234 . S
C290 O313 1.283 . S
C291 O303 1.281 . S
C291 O304 1.236 . S
C292 O314 1.240 . S
C292 O315 1.264 . S
O293 Mn288 2.095 . S
O293 C302 1.250 . S
O294 Mn289 2.121 . S
O294 C302 1.258 . S
C295 N296 1.326 . S
C295 C299 1.460 . S
C295 H301 0.929 1_455 S
N296 Mn289 2.257 1_455 S
N296 C295 1.326 . S
N296 C300 1.362 . S
C297 C298 1.258 . S
C297 C300 1.431 . S
C297 C317 1.449 . S
C298 C297 1.258 . S
C298 C299 1.477 . S
C298 H318 0.931 . S
C299 C295 1.460 . S
C299 C298 1.477 . S
C299 H319 0.930 . S
C300 N296 1.362 . S
C300 C297 1.431 . S
C300 C310 1.476 . S
H301 C295 0.929 1_655 S
C302 O293 1.250 . S
C302 O294 1.258 . S
O303 Mn288 2.162 . S
O303 C291 1.281 . S
O304 Mn288 2.297 . S
O304 C291 1.236 . S
N305 Mn289 2.282 1_455 S
N305 C306 1.328 . S
N305 C310 1.318 . S
C306 N305 1.328 . S
C306 C307 1.457 . S
C306 H311 0.929 1_455 S
C307 C306 1.457 . S
C307 C308 1.291 . S
C307 H320 0.931 . S
C308 C307 1.291 . S
C308 C309 1.373 . S
C308 H321 0.929 . S
C309 C308 1.373 . S
C309 C310 1.396 . S
C309 C316 1.403 . S
C310 C300 1.476 . S
C310 N305 1.318 . S
C310 C309 1.396 . S
H311 C306 0.929 1_655 S
O312 Mn288 2.385 . S
O312 C290 1.234 . S
O313 Mn288 2.209 . S
O313 Mn289 2.215 . S
O313 C290 1.283 . S
O314 Mn288 2.094 . S
O314 C292 1.240 . S
O315 Mn289 2.117 . S
O315 C292 1.264 . S
C316 C309 1.403 . S
C316 C317 1.399 . S
C316 H322 0.929 . S
C317 C297 1.449 . S
C317 C316 1.399 . S
C317 H323 0.930 . S
H318 C298 0.931 . S
H319 C299 0.930 . S
H320 C307 0.931 . S
H321 C308 0.929 . S
H322 C316 0.929 . S
H323 C317 0.930 . S
Mn324 O329 2.095 . S
Mn324 O339 2.162 . S
Mn324 O340 2.297 . S
Mn324 O348 2.385 . S
Mn324 O349 2.209 . S
Mn324 O350 2.094 . S
Mn325 O330 2.121 . S
Mn325 N332 2.257 . S
Mn325 N341 2.282 . S
Mn325 O349 2.215 . S
Mn325 O351 2.117 . S
C326 O348 1.234 . S
C326 O349 1.283 . S
C327 O339 1.281 . S
C327 O340 1.236 . S
C328 O350 1.240 . S
C328 O351 1.264 . S
O329 Mn324 2.095 . S
O329 C338 1.250 . S
O330 Mn325 2.121 . S
O330 C338 1.258 . S
C331 N332 1.326 . S
C331 C335 1.460 . S
C331 H337 0.929 . S
N332 Mn325 2.257 . S
N332 C331 1.326 . S
N332 C336 1.362 . S
C333 C334 1.258 . S
C333 C336 1.431 . S
C333 C353 1.449 . S
C334 C333 1.258 . S
C334 C335 1.477 . S
C334 H354 0.931 . S
C335 C331 1.460 . S
C335 C334 1.477 . S
C335 H355 0.930 . S
C336 N332 1.362 . S
C336 C333 1.431 . S
C336 C346 1.476 . S
H337 C331 0.929 . S
C338 O329 1.250 . S
C338 O330 1.258 . S
O339 Mn324 2.162 . S
O339 C327 1.281 . S
O340 Mn324 2.297 . S
O340 C327 1.236 . S
N341 Mn325 2.282 . S
N341 C342 1.328 . S
N341 C346 1.318 . S
C342 N341 1.328 . S
C342 C343 1.457 . S
C342 H347 0.929 . S
C343 C342 1.457 . S
C343 C344 1.291 . S
C343 H356 0.931 . S
C344 C343 1.291 . S
C344 C345 1.373 . S
C344 H357 0.929 . S
C345 C344 1.373 . S
C345 C346 1.396 . S
C345 C352 1.403 . S
C346 C336 1.476 . S
C346 N341 1.318 . S
C346 C345 1.396 . S
H347 C342 0.929 . S
O348 Mn324 2.385 . S
O348 C326 1.234 . S
O349 Mn324 2.209 . S
O349 Mn325 2.215 . S
O349 C326 1.283 . S
O350 Mn324 2.094 . S
O350 C328 1.240 . S
O351 Mn325 2.117 . S
O351 C328 1.264 . S
C352 C345 1.403 . S
C352 C353 1.399 . S
C352 H358 0.929 . S
C353 C333 1.449 . S
C353 C352 1.399 . S
C353 H359 0.930 . S
H354 C334 0.931 . S
H355 C335 0.930 . S
H356 C343 0.931 . S
H357 C344 0.929 . S
H358 C352 0.929 . S
H359 C353 0.930 . S
Mn360 O365 2.095 . S
Mn360 O375 2.162 . S
Mn360 O376 2.297 . S
Mn360 O384 2.385 . S
Mn360 O385 2.209 . S
Mn360 O386 2.094 . S
Mn361 O366 2.121 . S
Mn361 N368 2.257 . S
Mn361 N377 2.282 . S
Mn361 O385 2.215 . S
Mn361 O387 2.117 . S
C362 O384 1.234 . S
C362 O385 1.283 . S
C363 O375 1.281 . S
C363 O376 1.236 . S
C364 O386 1.240 . S
C364 O387 1.264 . S
O365 Mn360 2.095 . S
O365 C374 1.250 . S
O366 Mn361 2.121 . S
O366 C374 1.258 . S
C367 N368 1.326 . S
C367 C371 1.460 . S
C367 H373 0.929 . S
N368 Mn361 2.257 . S
N368 C367 1.326 . S
N368 C372 1.362 . S
C369 C370 1.258 . S
C369 C372 1.431 . S
C369 C389 1.449 . S
C370 C369 1.258 . S
C370 C371 1.477 . S
C370 H390 0.931 . S
C371 C367 1.460 . S
C371 C370 1.477 . S
C371 H391 0.930 . S
C372 N368 1.362 . S
C372 C369 1.431 . S
C372 C382 1.476 . S
H373 C367 0.929 . S
C374 O365 1.250 . S
C374 O366 1.258 . S
O375 Mn360 2.162 . S
O375 C363 1.281 . S
O376 Mn360 2.297 . S
O376 C363 1.236 . S
N377 Mn361 2.282 . S
N377 C378 1.328 . S
N377 C382 1.318 . S
C378 N377 1.328 . S
C378 C379 1.457 . S
C378 H383 0.929 . S
C379 C378 1.457 . S
C379 C380 1.291 . S
C379 H392 0.931 . S
C380 C379 1.291 . S
C380 C381 1.373 . S
C380 H393 0.929 . S
C381 C380 1.373 . S
C381 C382 1.396 . S
C381 C388 1.403 . S
C382 C372 1.476 . S
C382 N377 1.318 . S
C382 C381 1.396 . S
H383 C378 0.929 . S
O384 Mn360 2.385 . S
O384 C362 1.234 . S
O385 Mn360 2.209 . S
O385 Mn361 2.215 . S
O385 C362 1.283 . S
O386 Mn360 2.094 . S
O386 C364 1.240 . S
O387 Mn361 2.117 . S
O387 C364 1.264 . S
C388 C381 1.403 . S
C388 C389 1.399 . S
C388 H394 0.929 . S
C389 C369 1.449 . S
C389 C388 1.399 . S
C389 H395 0.930 . S
H390 C370 0.931 . S
H391 C371 0.930 . S
H392 C379 0.931 . S
H393 C380 0.929 . S
H394 C388 0.929 . S
H395 C389 0.930 . S
Mn396 O401 2.095 . S
Mn396 O411 2.162 . S
Mn396 O412 2.297 . S
Mn396 O420 2.385 . S
Mn396 O421 2.209 . S
Mn396 O422 2.094 . S
Mn397 O402 2.121 . S
Mn397 N404 2.257 . S
Mn397 N413 2.282 1_554 S
Mn397 O421 2.215 1_554 S
Mn397 O423 2.117 1_554 S
C398 O420 1.234 . S
C398 O421 1.283 . S
C399 O411 1.281 . S
C399 O412 1.236 . S
C400 O422 1.240 . S
C400 O423 1.264 . S
O401 Mn396 2.095 . S
O401 C410 1.250 1_556 S
O402 Mn397 2.121 . S
O402 C410 1.258 . S
C403 N404 1.326 . S
C403 C407 1.460 . S
C403 H409 0.929 . S
N404 Mn397 2.257 . S
N404 C403 1.326 . S
N404 C408 1.362 . S
C405 C406 1.258 . S
C405 C408 1.431 . S
C405 C425 1.449 . S
C406 C405 1.258 . S
C406 C407 1.477 . S
C406 H426 0.931 . S
C407 C403 1.460 . S
C407 C406 1.477 . S
C407 H427 0.930 . S
C408 N404 1.362 . S
C408 C405 1.431 . S
C408 C418 1.476 1_554 S
H409 C403 0.929 . S
C410 O401 1.250 1_554 S
C410 O402 1.258 . S
O411 Mn396 2.162 . S
O411 C399 1.281 . S
O412 Mn396 2.297 . S
O412 C399 1.236 . S
N413 Mn397 2.282 1_556 S
N413 C414 1.328 . S
N413 C418 1.318 . S
C414 N413 1.328 . S
C414 C415 1.457 . S
C414 H419 0.929 . S
C415 C414 1.457 . S
C415 C416 1.291 . S
C415 H428 0.931 . S
C416 C415 1.291 . S
C416 C417 1.373 . S
C416 H429 0.929 . S
C417 C416 1.373 . S
C417 C418 1.396 . S
C417 C424 1.403 . S
C418 C408 1.476 1_556 S
C418 N413 1.318 . S
C418 C417 1.396 . S
H419 C414 0.929 . S
O420 Mn396 2.385 . S
O420 C398 1.234 . S
O421 Mn396 2.209 . S
O421 Mn397 2.215 1_556 S
O421 C398 1.283 . S
O422 Mn396 2.094 . S
O422 C400 1.240 . S
O423 Mn397 2.117 1_556 S
O423 C400 1.264 . S
C424 C417 1.403 . S
C424 C425 1.399 1_556 S
C424 H430 0.929 . S
C425 C405 1.449 . S
C425 C424 1.399 1_554 S
C425 H431 0.930 . S
H426 C406 0.931 . S
H427 C407 0.930 . S
H428 C415 0.931 . S
H429 C416 0.929 . S
H430 C424 0.929 . S
H431 C425 0.930 . S
Mn432 O437 2.095 . S
Mn432 O447 2.162 . S
Mn432 O448 2.297 . S
Mn432 O456 2.385 . S
Mn432 O457 2.209 . S
Mn432 O458 2.094 . S
Mn433 O438 2.121 . S
Mn433 N440 2.257 1_655 S
Mn433 N449 2.282 1_655 S
Mn433 O457 2.215 . S
Mn433 O459 2.117 . S
C434 O456 1.234 . S
C434 O457 1.283 . S
C435 O447 1.281 . S
C435 O448 1.236 . S
C436 O458 1.240 . S
C436 O459 1.264 . S
O437 Mn432 2.095 . S
O437 C446 1.250 . S
O438 Mn433 2.121 . S
O438 C446 1.258 . S
C439 N440 1.326 . S
C439 C443 1.460 . S
C439 H445 0.929 1_455 S
N440 Mn433 2.257 1_455 S
N440 C439 1.326 . S
N440 C444 1.362 . S
C441 C442 1.258 . S
C441 C444 1.431 . S
C441 C461 1.449 . S
C442 C441 1.258 . S
C442 C443 1.477 . S
C442 H462 0.931 . S
C443 C439 1.460 . S
C443 C442 1.477 . S
C443 H463 0.930 . S
C444 N440 1.362 . S
C444 C441 1.431 . S
C444 C454 1.476 . S
H445 C439 0.929 1_655 S
C446 O437 1.250 . S
C446 O438 1.258 . S
O447 Mn432 2.162 . S
O447 C435 1.281 . S
O448 Mn432 2.297 . S
O448 C435 1.236 . S
N449 Mn433 2.282 1_455 S
N449 C450 1.328 . S
N449 C454 1.318 . S
C450 N449 1.328 . S
C450 C451 1.457 . S
C450 H455 0.929 1_455 S
C451 C450 1.457 . S
C451 C452 1.291 . S
C451 H464 0.931 . S
C452 C451 1.291 . S
C452 C453 1.373 . S
C452 H465 0.929 . S
C453 C452 1.373 . S
C453 C454 1.396 . S
C453 C460 1.403 . S
C454 C444 1.476 . S
C454 N449 1.318 . S
C454 C453 1.396 . S
H455 C450 0.929 1_655 S
O456 Mn432 2.385 . S
O456 C434 1.234 . S
O457 Mn432 2.209 . S
O457 Mn433 2.215 . S
O457 C434 1.283 . S
O458 Mn432 2.094 . S
O458 C436 1.240 . S
O459 Mn433 2.117 . S
O459 C436 1.264 . S
C460 C453 1.403 . S
C460 C461 1.399 . S
C460 H466 0.929 . S
C461 C441 1.449 . S
C461 C460 1.399 . S
C461 H467 0.930 . S
H462 C442 0.931 . S
H463 C443 0.930 . S
H464 C451 0.931 . S
H465 C452 0.929 . S
H466 C460 0.929 . S
H467 C461 0.930 . S
Mn468 O473 2.095 . S
Mn468 O483 2.162 . S
Mn468 O484 2.297 . S
Mn468 O492 2.385 . S
Mn468 O493 2.209 . S
Mn468 O494 2.094 . S
Mn469 O474 2.121 . S
Mn469 N476 2.257 . S
Mn469 N485 2.282 . S
Mn469 O493 2.215 . S
Mn469 O495 2.117 . S
C470 O492 1.234 . S
C470 O493 1.283 . S
C471 O483 1.281 . S
C471 O484 1.236 . S
C472 O494 1.240 . S
C472 O495 1.264 . S
O473 Mn468 2.095 . S
O473 C482 1.250 . S
O474 Mn469 2.121 . S
O474 C482 1.258 . S
C475 N476 1.326 . S
C475 C479 1.460 . S
C475 H481 0.929 . S
N476 Mn469 2.257 . S
N476 C475 1.326 . S
N476 C480 1.362 . S
C477 C478 1.258 . S
C477 C480 1.431 . S
C477 C497 1.449 . S
C478 C477 1.258 . S
C478 C479 1.477 . S
C478 H498 0.931 . S
C479 C475 1.460 . S
C479 C478 1.477 . S
C479 H499 0.930 . S
C480 N476 1.362 . S
C480 C477 1.431 . S
C480 C490 1.476 . S
H481 C475 0.929 . S
C482 O473 1.250 . S
C482 O474 1.258 . S
O483 Mn468 2.162 . S
O483 C471 1.281 . S
O484 Mn468 2.297 . S
O484 C471 1.236 . S
N485 Mn469 2.282 . S
N485 C486 1.328 . S
N485 C490 1.318 . S
C486 N485 1.328 . S
C486 C487 1.457 . S
C486 H491 0.929 . S
C487 C486 1.457 . S
C487 C488 1.291 . S
C487 H500 0.931 . S
C488 C487 1.291 . S
C488 C489 1.373 . S
C488 H501 0.929 . S
C489 C488 1.373 . S
C489 C490 1.396 . S
C489 C496 1.403 . S
C490 C480 1.476 . S
C490 N485 1.318 . S
C490 C489 1.396 . S
H491 C486 0.929 . S
O492 Mn468 2.385 . S
O492 C470 1.234 . S
O493 Mn468 2.209 . S
O493 Mn469 2.215 . S
O493 C470 1.283 . S
O494 Mn468 2.094 . S
O494 C472 1.240 . S
O495 Mn469 2.117 . S
O495 C472 1.264 . S
C496 C489 1.403 . S
C496 C497 1.399 . S
C496 H502 0.929 . S
C497 C477 1.449 . S
C497 C496 1.399 . S
C497 H503 0.930 . S
H498 C478 0.931 . S
H499 C479 0.930 . S
H500 C487 0.931 . S
H501 C488 0.929 . S
H502 C496 0.929 . S
H503 C497 0.930 . S
Mn504 O509 2.095 . S
Mn504 O519 2.162 . S
Mn504 O520 2.297 . S
Mn504 O528 2.385 . S
Mn504 O529 2.209 . S
Mn504 O530 2.094 . S
Mn505 O510 2.121 . S
Mn505 N512 2.257 . S
Mn505 N521 2.282 . S
Mn505 O529 2.215 . S
Mn505 O531 2.117 . S
C506 O528 1.234 . S
C506 O529 1.283 . S
C507 O519 1.281 . S
C507 O520 1.236 . S
C508 O530 1.240 . S
C508 O531 1.264 . S
O509 Mn504 2.095 . S
O509 C518 1.250 . S
O510 Mn505 2.121 . S
O510 C518 1.258 . S
C511 N512 1.326 . S
C511 C515 1.460 . S
C511 H517 0.929 . S
N512 Mn505 2.257 . S
N512 C511 1.326 . S
N512 C516 1.362 . S
C513 C514 1.258 . S
C513 C516 1.431 . S
C513 C533 1.449 . S
C514 C513 1.258 . S
C514 C515 1.477 . S
C514 H534 0.931 . S
C515 C511 1.460 . S
C515 C514 1.477 . S
C515 H535 0.930 . S
C516 N512 1.362 . S
C516 C513 1.431 . S
C516 C526 1.476 . S
H517 C511 0.929 . S
C518 O509 1.250 . S
C518 O510 1.258 . S
O519 Mn504 2.162 . S
O519 C507 1.281 . S
O520 Mn504 2.297 . S
O520 C507 1.236 . S
N521 Mn505 2.282 . S
N521 C522 1.328 . S
N521 C526 1.318 . S
C522 N521 1.328 . S
C522 C523 1.457 . S
C522 H527 0.929 . S
C523 C522 1.457 . S
C523 C524 1.291 . S
C523 H536 0.931 . S
C524 C523 1.291 . S
C524 C525 1.373 . S
C524 H537 0.929 . S
C525 C524 1.373 . S
C525 C526 1.396 . S
C525 C532 1.403 . S
C526 C516 1.476 . S
C526 N521 1.318 . S
C526 C525 1.396 . S
H527 C522 0.929 . S
O528 Mn504 2.385 . S
O528 C506 1.234 . S
O529 Mn504 2.209 . S
O529 Mn505 2.215 . S
O529 C506 1.283 . S
O530 Mn504 2.094 . S
O530 C508 1.240 . S
O531 Mn505 2.117 . S
O531 C508 1.264 . S
C532 C525 1.403 . S
C532 C533 1.399 . S
C532 H538 0.929 . S
C533 C513 1.449 . S
C533 C532 1.399 . S
C533 H539 0.930 . S
H534 C514 0.931 . S
H535 C515 0.930 . S
H536 C523 0.931 . S
H537 C524 0.929 . S
H538 C532 0.929 . S
H539 C533 0.930 . S
Mn540 O545 2.095 . S
Mn540 O555 2.162 . S
Mn540 O556 2.297 . S
Mn540 O564 2.385 . S
Mn540 O565 2.209 . S
Mn540 O566 2.094 . S
Mn541 O546 2.121 . S
Mn541 N548 2.257 . S
Mn541 N557 2.282 1_556 S
Mn541 O565 2.215 1_556 S
Mn541 O567 2.117 1_556 S
C542 O564 1.234 . S
C542 O565 1.283 . S
C543 O555 1.281 . S
C543 O556 1.236 . S
C544 O566 1.240 . S
C544 O567 1.264 . S
O545 Mn540 2.095 . S
O545 C554 1.250 1_554 S
O546 Mn541 2.121 . S
O546 C554 1.258 . S
C547 N548 1.326 . S
C547 C551 1.460 . S
C547 H553 0.929 . S
N548 Mn541 2.257 . S
N548 C547 1.326 . S
N548 C552 1.362 . S
C549 C550 1.258 . S
C549 C552 1.431 . S
C549 C569 1.449 . S
C550 C549 1.258 . S
C550 C551 1.477 . S
C550 H570 0.931 . S
C551 C547 1.460 . S
C551 C550 1.477 . S
C551 H571 0.930 . S
C552 N548 1.362 . S
C552 C549 1.431 . S
C552 C562 1.476 1_556 S
H553 C547 0.929 . S
C554 O545 1.250 1_556 S
C554 O546 1.258 . S
O555 Mn540 2.162 . S
O555 C543 1.281 . S
O556 Mn540 2.297 . S
O556 C543 1.236 . S
N557 Mn541 2.282 1_554 S
N557 C558 1.328 . S
N557 C562 1.318 . S
C558 N557 1.328 . S
C558 C559 1.457 . S
C558 H563 0.929 . S
C559 C558 1.457 . S
C559 C560 1.291 . S
C559 H572 0.931 . S
C560 C559 1.291 . S
C560 C561 1.373 . S
C560 H573 0.929 . S
C561 C560 1.373 . S
C561 C562 1.396 . S
C561 C568 1.403 . S
C562 C552 1.476 1_554 S
C562 N557 1.318 . S
C562 C561 1.396 . S
H563 C558 0.929 . S
O564 Mn540 2.385 . S
O564 C542 1.234 . S
O565 Mn540 2.209 . S
O565 Mn541 2.215 1_554 S
O565 C542 1.283 . S
O566 Mn540 2.094 . S
O566 C544 1.240 . S
O567 Mn541 2.117 1_554 S
O567 C544 1.264 . S
C568 C561 1.403 . S
C568 C569 1.399 1_554 S
C568 H574 0.929 . S
C569 C549 1.449 . S
C569 C568 1.399 1_556 S
C569 H575 0.930 . S
H570 C550 0.931 . S
H571 C551 0.930 . S
H572 C559 0.931 . S
H573 C560 0.929 . S
H574 C568 0.929 . S
H575 C569 0.930 . S
Mn576 O581 2.095 . S
Mn576 O591 2.162 . S
Mn576 O592 2.297 . S
Mn576 O600 2.385 . S
Mn576 O601 2.209 . S
Mn576 O602 2.094 . S
Mn577 O582 2.121 . S
Mn577 N584 2.257 . S
Mn577 N593 2.282 . S
Mn577 O601 2.215 . S
Mn577 O603 2.117 . S
C578 O600 1.234 . S
C578 O601 1.283 . S
C579 O591 1.281 . S
C579 O592 1.236 . S
C580 O602 1.240 . S
C580 O603 1.264 . S
O581 Mn576 2.095 . S
O581 C590 1.250 . S
O582 Mn577 2.121 . S
O582 C590 1.258 . S
C583 N584 1.326 . S
C583 C587 1.460 . S
C583 H589 0.929 . S
N584 Mn577 2.257 . S
N584 C583 1.326 . S
N584 C588 1.362 . S
C585 C586 1.258 . S
C585 C588 1.431 . S
C585 C605 1.449 . S
C586 C585 1.258 . S
C586 C587 1.477 . S
C586 H606 0.931 . S
C587 C583 1.460 . S
C587 C586 1.477 . S
C587 H607 0.930 . S
C588 N584 1.362 . S
C588 C585 1.431 . S
C588 C598 1.476 . S
H589 C583 0.929 . S
C590 O581 1.250 . S
C590 O582 1.258 . S
O591 Mn576 2.162 . S
O591 C579 1.281 . S
O592 Mn576 2.297 . S
O592 C579 1.236 . S
N593 Mn577 2.282 . S
N593 C594 1.328 . S
N593 C598 1.318 . S
C594 N593 1.328 . S
C594 C595 1.457 . S
C594 H599 0.929 . S
C595 C594 1.457 . S
C595 C596 1.291 . S
C595 H608 0.931 . S
C596 C595 1.291 . S
C596 C597 1.373 . S
C596 H609 0.929 . S
C597 C596 1.373 . S
C597 C598 1.396 . S
C597 C604 1.403 . S
C598 C588 1.476 . S
C598 N593 1.318 . S
C598 C597 1.396 . S
H599 C594 0.929 . S
O600 Mn576 2.385 . S
O600 C578 1.234 . S
O601 Mn576 2.209 . S
O601 Mn577 2.215 . S
O601 C578 1.283 . S
O602 Mn576 2.094 . S
O602 C580 1.240 . S
O603 Mn577 2.117 . S
O603 C580 1.264 . S
C604 C597 1.403 . S
C604 C605 1.399 . S
C604 H610 0.929 . S
C605 C585 1.449 . S
C605 C604 1.399 . S
C605 H611 0.930 . S
H606 C586 0.931 . S
H607 C587 0.930 . S
H608 C595 0.931 . S
H609 C596 0.929 . S
H610 C604 0.929 . S
H611 C605 0.930 . S
Mn612 O617 2.095 . S
Mn612 O627 2.162 . S
Mn612 O628 2.297 . S
Mn612 O636 2.385 . S
Mn612 O637 2.209 . S
Mn612 O638 2.094 1_554 S
Mn613 O618 2.121 . S
Mn613 N620 2.257 . S
Mn613 N629 2.282 . S
Mn613 O637 2.215 . S
Mn613 O639 2.117 1_554 S
C614 O636 1.234 . S
C614 O637 1.283 . S
C615 O627 1.281 . S
C615 O628 1.236 . S
C616 O638 1.240 . S
C616 O639 1.264 . S
O617 Mn612 2.095 . S
O617 C626 1.250 . S
O618 Mn613 2.121 . S
O618 C626 1.258 . S
C619 N620 1.326 . S
C619 C623 1.460 . S
C619 H625 0.929 . S
N620 Mn613 2.257 . S
N620 C619 1.326 . S
N620 C624 1.362 . S
C621 C622 1.258 . S
C621 C624 1.431 . S
C621 C641 1.449 . S
C622 C621 1.258 . S
C622 C623 1.477 . S
C622 H642 0.931 . S
C623 C619 1.460 . S
C623 C622 1.477 . S
C623 H643 0.930 . S
C624 N620 1.362 . S
C624 C621 1.431 . S
C624 C634 1.476 . S
H625 C619 0.929 . S
C626 O617 1.250 . S
C626 O618 1.258 . S
O627 Mn612 2.162 . S
O627 C615 1.281 . S
O628 Mn612 2.297 . S
O628 C615 1.236 . S
N629 Mn613 2.282 . S
N629 C630 1.328 . S
N629 C634 1.318 . S
C630 N629 1.328 . S
C630 C631 1.457 . S
C630 H635 0.929 . S
C631 C630 1.457 . S
C631 C632 1.291 . S
C631 H644 0.931 . S
C632 C631 1.291 . S
C632 C633 1.373 . S
C632 H645 0.929 . S
C633 C632 1.373 . S
C633 C634 1.396 . S
C633 C640 1.403 . S
C634 C624 1.476 . S
C634 N629 1.318 . S
C634 C633 1.396 . S
H635 C630 0.929 . S
O636 Mn612 2.385 . S
O636 C614 1.234 . S
O637 Mn612 2.209 . S
O637 Mn613 2.215 . S
O637 C614 1.283 . S
O638 Mn612 2.094 1_556 S
O638 C616 1.240 . S
O639 Mn613 2.117 1_556 S
O639 C616 1.264 . S
C640 C633 1.403 . S
C640 C641 1.399 . S
C640 H646 0.929 . S
C641 C621 1.449 . S
C641 C640 1.399 . S
C641 H647 0.930 . S
H642 C622 0.931 . S
H643 C623 0.930 . S
H644 C631 0.931 . S
H645 C632 0.929 . S
H646 C640 0.929 . S
H647 C641 0.930 . S
Mn648 O653 2.095 . S
Mn648 O663 2.162 . S
Mn648 O664 2.297 . S
Mn648 O672 2.385 . S
Mn648 O673 2.209 . S
Mn648 O674 2.094 . S
Mn649 O654 2.121 . S
Mn649 N656 2.257 . S
Mn649 N665 2.282 . S
Mn649 O673 2.215 . S
Mn649 O675 2.117 . S
C650 O672 1.234 . S
C650 O673 1.283 . S
C651 O663 1.281 . S
C651 O664 1.236 . S
C652 O674 1.240 . S
C652 O675 1.264 . S
O653 Mn648 2.095 . S
O653 C662 1.250 . S
O654 Mn649 2.121 . S
O654 C662 1.258 . S
C655 N656 1.326 . S
C655 C659 1.460 1_655 S
C655 H661 0.929 . S
N656 Mn649 2.257 . S
N656 C655 1.326 . S
N656 C660 1.362 1_655 S
C657 C658 1.258 . S
C657 C660 1.431 . S
C657 C677 1.449 . S
C658 C657 1.258 . S
C658 C659 1.477 . S
C658 H678 0.931 . S
C659 C655 1.460 1_455 S
C659 C658 1.477 . S
C659 H679 0.930 . S
C660 N656 1.362 1_455 S
C660 C657 1.431 . S
C660 C670 1.476 . S
H661 C655 0.929 . S
C662 O653 1.250 . S
C662 O654 1.258 . S
O663 Mn648 2.162 . S
O663 C651 1.281 . S
O664 Mn648 2.297 . S
O664 C651 1.236 . S
N665 Mn649 2.282 . S
N665 C666 1.328 . S
N665 C670 1.318 1_655 S
C666 N665 1.328 . S
C666 C667 1.457 1_655 S
C666 H671 0.929 . S
C667 C666 1.457 1_455 S
C667 C668 1.291 . S
C667 H680 0.931 . S
C668 C667 1.291 . S
C668 C669 1.373 . S
C668 H681 0.929 . S
C669 C668 1.373 . S
C669 C670 1.396 . S
C669 C676 1.403 . S
C670 C660 1.476 . S
C670 N665 1.318 1_455 S
C670 C669 1.396 . S
H671 C666 0.929 . S
O672 Mn648 2.385 . S
O672 C650 1.234 . S
O673 Mn648 2.209 . S
O673 Mn649 2.215 . S
O673 C650 1.283 . S
O674 Mn648 2.094 . S
O674 C652 1.240 . S
O675 Mn649 2.117 . S
O675 C652 1.264 . S
C676 C669 1.403 . S
C676 C677 1.399 . S
C676 H682 0.929 . S
C677 C657 1.449 . S
C677 C676 1.399 . S
C677 H683 0.930 . S
H678 C658 0.931 . S
H679 C659 0.930 . S
H680 C667 0.931 . S
H681 C668 0.929 . S
H682 C676 0.929 . S
H683 C677 0.930 . S
Mn684 O689 2.095 . S
Mn684 O699 2.162 . S
Mn684 O700 2.297 . S
Mn684 O708 2.385 . S
Mn684 O709 2.209 . S
Mn684 O710 2.094 . S
Mn685 O690 2.121 . S
Mn685 N692 2.257 . S
Mn685 N701 2.282 . S
Mn685 O709 2.215 . S
Mn685 O711 2.117 . S
C686 O708 1.234 . S
C686 O709 1.283 . S
C687 O699 1.281 . S
C687 O700 1.236 . S
C688 O710 1.240 . S
C688 O711 1.264 . S
O689 Mn684 2.095 . S
O689 C698 1.250 . S
O690 Mn685 2.121 . S
O690 C698 1.258 . S
C691 N692 1.326 . S
C691 C695 1.460 . S
C691 H697 0.929 . S
N692 Mn685 2.257 . S
N692 C691 1.326 . S
N692 C696 1.362 . S
C693 C694 1.258 . S
C693 C696 1.431 . S
C693 C713 1.449 . S
C694 C693 1.258 . S
C694 C695 1.477 . S
C694 H714 0.931 . S
C695 C691 1.460 . S
C695 C694 1.477 . S
C695 H715 0.930 . S
C696 N692 1.362 . S
C696 C693 1.431 . S
C696 C706 1.476 . S
H697 C691 0.929 . S
C698 O689 1.250 . S
C698 O690 1.258 . S
O699 Mn684 2.162 . S
O699 C687 1.281 . S
O700 Mn684 2.297 . S
O700 C687 1.236 . S
N701 Mn685 2.282 . S
N701 C702 1.328 . S
N701 C706 1.318 . S
C702 N701 1.328 . S
C702 C703 1.457 . S
C702 H707 0.929 . S
C703 C702 1.457 . S
C703 C704 1.291 . S
C703 H716 0.931 . S
C704 C703 1.291 . S
C704 C705 1.373 . S
C704 H717 0.929 . S
C705 C704 1.373 . S
C705 C706 1.396 . S
C705 C712 1.403 . S
C706 C696 1.476 . S
C706 N701 1.318 . S
C706 C705 1.396 . S
H707 C702 0.929 . S
O708 Mn684 2.385 . S
O708 C686 1.234 . S
O709 Mn684 2.209 . S
O709 Mn685 2.215 . S
O709 C686 1.283 . S
O710 Mn684 2.094 . S
O710 C688 1.240 . S
O711 Mn685 2.117 . S
O711 C688 1.264 . S
C712 C705 1.403 . S
C712 C713 1.399 . S
C712 H718 0.929 . S
C713 C693 1.449 . S
C713 C712 1.399 . S
C713 H719 0.930 . S
H714 C694 0.931 . S
H715 C695 0.930 . S
H716 C703 0.931 . S
H717 C704 0.929 . S
H718 C712 0.929 . S
H719 C713 0.930 . S
Mn720 O725 2.095 . S
Mn720 O735 2.162 . S
Mn720 O736 2.297 . S
Mn720 O744 2.385 . S
Mn720 O745 2.209 . S
Mn720 O746 2.094 . S
Mn721 O726 2.121 . S
Mn721 N728 2.257 . S
Mn721 N737 2.282 . S
Mn721 O745 2.215 . S
Mn721 O747 2.117 . S
C722 O744 1.234 . S
C722 O745 1.283 . S
C723 O735 1.281 . S
C723 O736 1.236 . S
C724 O746 1.240 . S
C724 O747 1.264 . S
O725 Mn720 2.095 . S
O725 C734 1.250 . S
O726 Mn721 2.121 . S
O726 C734 1.258 . S
C727 N728 1.326 . S
C727 C731 1.460 . S
C727 H733 0.929 . S
N728 Mn721 2.257 . S
N728 C727 1.326 . S
N728 C732 1.362 . S
C729 C730 1.258 . S
C729 C732 1.431 . S
C729 C749 1.449 . S
C730 C729 1.258 . S
C730 C731 1.477 . S
C730 H750 0.931 . S
C731 C727 1.460 . S
C731 C730 1.477 . S
C731 H751 0.930 . S
C732 N728 1.362 . S
C732 C729 1.431 . S
C732 C742 1.476 . S
H733 C727 0.929 . S
C734 O725 1.250 . S
C734 O726 1.258 . S
O735 Mn720 2.162 . S
O735 C723 1.281 . S
O736 Mn720 2.297 . S
O736 C723 1.236 . S
N737 Mn721 2.282 . S
N737 C738 1.328 . S
N737 C742 1.318 . S
C738 N737 1.328 . S
C738 C739 1.457 . S
C738 H743 0.929 . S
C739 C738 1.457 . S
C739 C740 1.291 . S
C739 H752 0.931 . S
C740 C739 1.291 . S
C740 C741 1.373 . S
C740 H753 0.929 . S
C741 C740 1.373 . S
C741 C742 1.396 . S
C741 C748 1.403 . S
C742 C732 1.476 . S
C742 N737 1.318 . S
C742 C741 1.396 . S
H743 C738 0.929 . S
O744 Mn720 2.385 . S
O744 C722 1.234 . S
O745 Mn720 2.209 . S
O745 Mn721 2.215 . S
O745 C722 1.283 . S
O746 Mn720 2.094 . S
O746 C724 1.240 . S
O747 Mn721 2.117 . S
O747 C724 1.264 . S
C748 C741 1.403 . S
C748 C749 1.399 . S
C748 H754 0.929 . S
C749 C729 1.449 . S
C749 C748 1.399 . S
C749 H755 0.930 . S
H750 C730 0.931 . S
H751 C731 0.930 . S
H752 C739 0.931 . S
H753 C740 0.929 . S
H754 C748 0.929 . S
H755 C749 0.930 . S
Mn756 O761 2.095 . S
Mn756 O771 2.162 . S
Mn756 O772 2.297 . S
Mn756 O780 2.385 . S
Mn756 O781 2.209 . S
Mn756 O782 2.094 1_556 S
Mn757 O762 2.121 . S
Mn757 N764 2.257 . S
Mn757 N773 2.282 . S
Mn757 O781 2.215 . S
Mn757 O783 2.117 1_556 S
C758 O780 1.234 . S
C758 O781 1.283 . S
C759 O771 1.281 . S
C759 O772 1.236 . S
C760 O782 1.240 . S
C760 O783 1.264 . S
O761 Mn756 2.095 . S
O761 C770 1.250 . S
O762 Mn757 2.121 . S
O762 C770 1.258 . S
C763 N764 1.326 . S
C763 C767 1.460 . S
C763 H769 0.929 . S
N764 Mn757 2.257 . S
N764 C763 1.326 . S
N764 C768 1.362 . S
C765 C766 1.258 . S
C765 C768 1.431 . S
C765 C785 1.449 . S
C766 C765 1.258 . S
C766 C767 1.477 . S
C766 H786 0.931 . S
C767 C763 1.460 . S
C767 C766 1.477 . S
C767 H787 0.930 . S
C768 N764 1.362 . S
C768 C765 1.431 . S
C768 C778 1.476 . S
H769 C763 0.929 . S
C770 O761 1.250 . S
C770 O762 1.258 . S
O771 Mn756 2.162 . S
O771 C759 1.281 . S
O772 Mn756 2.297 . S
O772 C759 1.236 . S
N773 Mn757 2.282 . S
N773 C774 1.328 . S
N773 C778 1.318 . S
C774 N773 1.328 . S
C774 C775 1.457 . S
C774 H779 0.929 . S
C775 C774 1.457 . S
C775 C776 1.291 . S
C775 H788 0.931 . S
C776 C775 1.291 . S
C776 C777 1.373 . S
C776 H789 0.929 . S
C777 C776 1.373 . S
C777 C778 1.396 . S
C777 C784 1.403 . S
C778 C768 1.476 . S
C778 N773 1.318 . S
C778 C777 1.396 . S
H779 C774 0.929 . S
O780 Mn756 2.385 . S
O780 C758 1.234 . S
O781 Mn756 2.209 . S
O781 Mn757 2.215 . S
O781 C758 1.283 . S
O782 Mn756 2.094 1_554 S
O782 C760 1.240 . S
O783 Mn757 2.117 1_554 S
O783 C760 1.264 . S
C784 C777 1.403 . S
C784 C785 1.399 . S
C784 H790 0.929 . S
C785 C765 1.449 . S
C785 C784 1.399 . S
C785 H791 0.930 . S
H786 C766 0.931 . S
H787 C767 0.930 . S
H788 C775 0.931 . S
H789 C776 0.929 . S
H790 C784 0.929 . S
H791 C785 0.930 . S
Mn792 O797 2.095 . S
Mn792 O807 2.162 . S
Mn792 O808 2.297 . S
Mn792 O816 2.385 . S
Mn792 O817 2.209 . S
Mn792 O818 2.094 . S
Mn793 O798 2.121 . S
Mn793 N800 2.257 . S
Mn793 N809 2.282 . S
Mn793 O817 2.215 . S
Mn793 O819 2.117 . S
C794 O816 1.234 . S
C794 O817 1.283 . S
C795 O807 1.281 . S
C795 O808 1.236 . S
C796 O818 1.240 . S
C796 O819 1.264 . S
O797 Mn792 2.095 . S
O797 C806 1.250 . S
O798 Mn793 2.121 . S
O798 C806 1.258 . S
C799 N800 1.326 . S
C799 C803 1.460 1_655 S
C799 H805 0.929 . S
N800 Mn793 2.257 . S
N800 C799 1.326 . S
N800 C804 1.362 1_655 S
C801 C802 1.258 . S
C801 C804 1.431 . S
C801 C821 1.449 . S
C802 C801 1.258 . S
C802 C803 1.477 . S
C802 H822 0.931 . S
C803 C799 1.460 1_455 S
C803 C802 1.477 . S
C803 H823 0.930 . S
C804 N800 1.362 1_455 S
C804 C801 1.431 . S
C804 C814 1.476 . S
H805 C799 0.929 . S
C806 O797 1.250 . S
C806 O798 1.258 . S
O807 Mn792 2.162 . S
O807 C795 1.281 . S
O808 Mn792 2.297 . S
O808 C795 1.236 . S
N809 Mn793 2.282 . S
N809 C810 1.328 . S
N809 C814 1.318 1_655 S
C810 N809 1.328 . S
C810 C811 1.457 1_655 S
C810 H815 0.929 . S
C811 C810 1.457 1_455 S
C811 C812 1.291 . S
C811 H824 0.931 . S
C812 C811 1.291 . S
C812 C813 1.373 . S
C812 H825 0.929 . S
C813 C812 1.373 . S
C813 C814 1.396 . S
C813 C820 1.403 . S
C814 C804 1.476 . S
C814 N809 1.318 1_455 S
C814 C813 1.396 . S
H815 C810 0.929 . S
O816 Mn792 2.385 . S
O816 C794 1.234 . S
O817 Mn792 2.209 . S
O817 Mn793 2.215 . S
O817 C794 1.283 . S
O818 Mn792 2.094 . S
O818 C796 1.240 . S
O819 Mn793 2.117 . S
O819 C796 1.264 . S
C820 C813 1.403 . S
C820 C821 1.399 . S
C820 H826 0.929 . S
C821 C801 1.449 . S
C821 C820 1.399 . S
C821 H827 0.930 . S
H822 C802 0.931 . S
H823 C803 0.930 . S
H824 C811 0.931 . S
H825 C812 0.929 . S
H826 C820 0.929 . S
H827 C821 0.930 . S
Mn828 O833 2.095 . S
Mn828 O843 2.162 . S
Mn828 O844 2.297 . S
Mn828 O852 2.385 . S
Mn828 O853 2.209 . S
Mn828 O854 2.094 . S
Mn829 O834 2.121 . S
Mn829 N836 2.257 . S
Mn829 N845 2.282 . S
Mn829 O853 2.215 . S
Mn829 O855 2.117 . S
C830 O852 1.234 . S
C830 O853 1.283 . S
C831 O843 1.281 . S
C831 O844 1.236 . S
C832 O854 1.240 . S
C832 O855 1.264 . S
O833 Mn828 2.095 . S
O833 C842 1.250 . S
O834 Mn829 2.121 . S
O834 C842 1.258 . S
C835 N836 1.326 . S
C835 C839 1.460 . S
C835 H841 0.929 . S
N836 Mn829 2.257 . S
N836 C835 1.326 . S
N836 C840 1.362 . S
C837 C838 1.258 . S
C837 C840 1.431 . S
C837 C857 1.449 . S
C838 C837 1.258 . S
C838 C839 1.477 . S
C838 H858 0.931 . S
C839 C835 1.460 . S
C839 C838 1.477 . S
C839 H859 0.930 . S
C840 N836 1.362 . S
C840 C837 1.431 . S
C840 C850 1.476 . S
H841 C835 0.929 . S
C842 O833 1.250 . S
C842 O834 1.258 . S
O843 Mn828 2.162 . S
O843 C831 1.281 . S
O844 Mn828 2.297 . S
O844 C831 1.236 . S
N845 Mn829 2.282 . S
N845 C846 1.328 . S
N845 C850 1.318 . S
C846 N845 1.328 . S
C846 C847 1.457 . S
C846 H851 0.929 . S
C847 C846 1.457 . S
C847 C848 1.291 . S
C847 H860 0.931 . S
C848 C847 1.291 . S
C848 C849 1.373 . S
C848 H861 0.929 . S
C849 C848 1.373 . S
C849 C850 1.396 . S
C849 C856 1.403 . S
C850 C840 1.476 . S
C850 N845 1.318 . S
C850 C849 1.396 . S
H851 C846 0.929 . S
O852 Mn828 2.385 . S
O852 C830 1.234 . S
O853 Mn828 2.209 . S
O853 Mn829 2.215 . S
O853 C830 1.283 . S
O854 Mn828 2.094 . S
O854 C832 1.240 . S
O855 Mn829 2.117 . S
O855 C832 1.264 . S
C856 C849 1.403 . S
C856 C857 1.399 . S
C856 H862 0.929 . S
C857 C837 1.449 . S
C857 C856 1.399 . S
C857 H863 0.930 . S
H858 C838 0.931 . S
H859 C839 0.930 . S
H860 C847 0.931 . S
H861 C848 0.929 . S
H862 C856 0.929 . S
H863 C857 0.930 . S
Mn864 O869 2.095 . S
Mn864 O879 2.162 . S
Mn864 O880 2.297 . S
Mn864 O888 2.385 . S
Mn864 O889 2.209 . S
Mn864 O890 2.094 . S
Mn865 O870 2.121 . S
Mn865 N872 2.257 . S
Mn865 N881 2.282 . S
Mn865 O889 2.215 . S
Mn865 O891 2.117 . S
C866 O888 1.234 . S
C866 O889 1.283 . S
C867 O879 1.281 . S
C867 O880 1.236 . S
C868 O890 1.240 . S
C868 O891 1.264 . S
O869 Mn864 2.095 . S
O869 C878 1.250 . S
O870 Mn865 2.121 . S
O870 C878 1.258 . S
C871 N872 1.326 . S
C871 C875 1.460 . S
C871 H877 0.929 . S
N872 Mn865 2.257 . S
N872 C871 1.326 . S
N872 C876 1.362 . S
C873 C874 1.258 . S
C873 C876 1.431 . S
C873 C893 1.449 . S
C874 C873 1.258 . S
C874 C875 1.477 . S
C874 H894 0.931 . S
C875 C871 1.460 . S
C875 C874 1.477 . S
C875 H895 0.930 . S
C876 N872 1.362 . S
C876 C873 1.431 . S
C876 C886 1.476 . S
H877 C871 0.929 . S
C878 O869 1.250 . S
C878 O870 1.258 . S
O879 Mn864 2.162 . S
O879 C867 1.281 . S
O880 Mn864 2.297 . S
O880 C867 1.236 . S
N881 Mn865 2.282 . S
N881 C882 1.328 . S
N881 C886 1.318 . S
C882 N881 1.328 . S
C882 C883 1.457 . S
C882 H887 0.929 . S
C883 C882 1.457 . S
C883 C884 1.291 . S
C883 H896 0.931 . S
C884 C883 1.291 . S
C884 C885 1.373 . S
C884 H897 0.929 . S
C885 C884 1.373 . S
C885 C886 1.396 . S
C885 C892 1.403 . S
C886 C876 1.476 . S
C886 N881 1.318 . S
C886 C885 1.396 . S
H887 C882 0.929 . S
O888 Mn864 2.385 . S
O888 C866 1.234 . S
O889 Mn864 2.209 . S
O889 Mn865 2.215 . S
O889 C866 1.283 . S
O890 Mn864 2.094 . S
O890 C868 1.240 . S
O891 Mn865 2.117 . S
O891 C868 1.264 . S
C892 C885 1.403 . S
C892 C893 1.399 . S
C892 H898 0.929 . S
C893 C873 1.449 . S
C893 C892 1.399 . S
C893 H899 0.930 . S
H894 C874 0.931 . S
H895 C875 0.930 . S
H896 C883 0.931 . S
H897 C884 0.929 . S
H898 C892 0.929 . S
H899 C893 0.930 . S
Mn900 O905 2.095 . S
Mn900 O915 2.162 . S
Mn900 O916 2.297 . S
Mn900 O924 2.385 . S
Mn900 O925 2.209 . S
Mn900 O926 2.094 . S
Mn901 O906 2.121 . S
Mn901 N908 2.257 . S
Mn901 N917 2.282 1_554 S
Mn901 O925 2.215 1_554 S
Mn901 O927 2.117 1_554 S
C902 O924 1.234 . S
C902 O925 1.283 . S
C903 O915 1.281 . S
C903 O916 1.236 . S
C904 O926 1.240 . S
C904 O927 1.264 . S
O905 Mn900 2.095 . S
O905 C914 1.250 1_556 S
O906 Mn901 2.121 . S
O906 C914 1.258 . S
C907 N908 1.326 . S
C907 C911 1.460 . S
C907 H913 0.929 . S
N908 Mn901 2.257 . S
N908 C907 1.326 . S
N908 C912 1.362 . S
C909 C910 1.258 . S
C909 C912 1.431 . S
C909 C929 1.449 . S
C910 C909 1.258 . S
C910 C911 1.477 . S
C910 H930 0.931 . S
C911 C907 1.460 . S
C911 C910 1.477 . S
C911 H931 0.930 . S
C912 N908 1.362 . S
C912 C909 1.431 . S
C912 C922 1.476 1_554 S
H913 C907 0.929 . S
C914 O905 1.250 1_554 S
C914 O906 1.258 . S
O915 Mn900 2.162 . S
O915 C903 1.281 . S
O916 Mn900 2.297 . S
O916 C903 1.236 . S
N917 Mn901 2.282 1_556 S
N917 C918 1.328 . S
N917 C922 1.318 . S
C918 N917 1.328 . S
C918 C919 1.457 . S
C918 H923 0.929 . S
C919 C918 1.457 . S
C919 C920 1.291 . S
C919 H932 0.931 . S
C920 C919 1.291 . S
C920 C921 1.373 . S
C920 H933 0.929 . S
C921 C920 1.373 . S
C921 C922 1.396 . S
C921 C928 1.403 . S
C922 C912 1.476 1_556 S
C922 N917 1.318 . S
C922 C921 1.396 . S
H923 C918 0.929 . S
O924 Mn900 2.385 . S
O924 C902 1.234 . S
O925 Mn900 2.209 . S
O925 Mn901 2.215 1_556 S
O925 C902 1.283 . S
O926 Mn900 2.094 . S
O926 C904 1.240 . S
O927 Mn901 2.117 1_556 S
O927 C904 1.264 . S
C928 C921 1.403 . S
C928 C929 1.399 1_556 S
C928 H934 0.929 . S
C929 C909 1.449 . S
C929 C928 1.399 1_554 S
C929 H935 0.930 . S
H930 C910 0.931 . S
H931 C911 0.930 . S
H932 C919 0.931 . S
H933 C920 0.929 . S
H934 C928 0.929 . S
H935 C929 0.930 . S
Mn936 O941 2.095 . S
Mn936 O951 2.162 . S
Mn936 O952 2.297 . S
Mn936 O960 2.385 . S
Mn936 O961 2.209 . S
Mn936 O962 2.094 . S
Mn937 O942 2.121 . S
Mn937 N944 2.257 1_455 S
Mn937 N953 2.282 1_455 S
Mn937 O961 2.215 . S
Mn937 O963 2.117 . S
C938 O960 1.234 . S
C938 O961 1.283 . S
C939 O951 1.281 . S
C939 O952 1.236 . S
C940 O962 1.240 . S
C940 O963 1.264 . S
O941 Mn936 2.095 . S
O941 C950 1.250 . S
O942 Mn937 2.121 . S
O942 C950 1.258 . S
C943 N944 1.326 . S
C943 C947 1.460 . S
C943 H949 0.929 1_655 S
N944 Mn937 2.257 1_655 S
N944 C943 1.326 . S
N944 C948 1.362 . S
C945 C946 1.258 . S
C945 C948 1.431 . S
C945 C965 1.449 . S
C946 C945 1.258 . S
C946 C947 1.477 . S
C946 H966 0.931 . S
C947 C943 1.460 . S
C947 C946 1.477 . S
C947 H967 0.930 . S
C948 N944 1.362 . S
C948 C945 1.431 . S
C948 C958 1.476 . S
H949 C943 0.929 1_455 S
C950 O941 1.250 . S
C950 O942 1.258 . S
O951 Mn936 2.162 . S
O951 C939 1.281 . S
O952 Mn936 2.297 . S
O952 C939 1.236 . S
N953 Mn937 2.282 1_655 S
N953 C954 1.328 . S
N953 C958 1.318 . S
C954 N953 1.328 . S
C954 C955 1.457 . S
C954 H959 0.929 1_655 S
C955 C954 1.457 . S
C955 C956 1.291 . S
C955 H968 0.931 . S
C956 C955 1.291 . S
C956 C957 1.373 . S
C956 H969 0.929 . S
C957 C956 1.373 . S
C957 C958 1.396 . S
C957 C964 1.403 . S
C958 C948 1.476 . S
C958 N953 1.318 . S
C958 C957 1.396 . S
H959 C954 0.929 1_455 S
O960 Mn936 2.385 . S
O960 C938 1.234 . S
O961 Mn936 2.209 . S
O961 Mn937 2.215 . S
O961 C938 1.283 . S
O962 Mn936 2.094 . S
O962 C940 1.240 . S
O963 Mn937 2.117 . S
O963 C940 1.264 . S
C964 C957 1.403 . S
C964 C965 1.399 . S
C964 H970 0.929 . S
C965 C945 1.449 . S
C965 C964 1.399 . S
C965 H971 0.930 . S
H966 C946 0.931 . S
H967 C947 0.930 . S
H968 C955 0.931 . S
H969 C956 0.929 . S
H970 C964 0.929 . S
H971 C965 0.930 . S
Mn972 O977 2.095 . S
Mn972 O987 2.162 . S
Mn972 O988 2.297 . S
Mn972 O996 2.385 . S
Mn972 O997 2.209 . S
Mn972 O998 2.094 . S
Mn973 O978 2.121 . S
Mn973 N980 2.257 . S
Mn973 N989 2.282 . S
Mn973 O997 2.215 . S
Mn973 O999 2.117 . S
C974 O996 1.234 . S
C974 O997 1.283 . S
C975 O987 1.281 . S
C975 O988 1.236 . S
C976 O998 1.240 . S
C976 O999 1.264 . S
O977 Mn972 2.095 . S
O977 C986 1.250 . S
O978 Mn973 2.121 . S
O978 C986 1.258 . S
C979 N980 1.326 . S
C979 C983 1.460 . S
C979 H985 0.929 . S
N980 Mn973 2.257 . S
N980 C979 1.326 . S
N980 C984 1.362 . S
C981 C982 1.258 . S
C981 C984 1.431 . S
C981 C1001 1.449 . S
C982 C981 1.258 . S
C982 C983 1.477 . S
C982 H1002 0.931 . S
C983 C979 1.460 . S
C983 C982 1.477 . S
C983 H1003 0.930 . S
C984 N980 1.362 . S
C984 C981 1.431 . S
C984 C994 1.476 . S
H985 C979 0.929 . S
C986 O977 1.250 . S
C986 O978 1.258 . S
O987 Mn972 2.162 . S
O987 C975 1.281 . S
O988 Mn972 2.297 . S
O988 C975 1.236 . S
N989 Mn973 2.282 . S
N989 C990 1.328 . S
N989 C994 1.318 . S
C990 N989 1.328 . S
C990 C991 1.457 . S
C990 H995 0.929 . S
C991 C990 1.457 . S
C991 C992 1.291 . S
C991 H1004 0.931 . S
C992 C991 1.291 . S
C992 C993 1.373 . S
C992 H1005 0.929 . S
C993 C992 1.373 . S
C993 C994 1.396 . S
C993 C1000 1.403 . S
C994 C984 1.476 . S
C994 N989 1.318 . S
C994 C993 1.396 . S
H995 C990 0.929 . S
O996 Mn972 2.385 . S
O996 C974 1.234 . S
O997 Mn972 2.209 . S
O997 Mn973 2.215 . S
O997 C974 1.283 . S
O998 Mn972 2.094 . S
O998 C976 1.240 . S
O999 Mn973 2.117 . S
O999 C976 1.264 . S
C1000 C993 1.403 . S
C1000 C1001 1.399 . S
C1000 H1006 0.929 . S
C1001 C981 1.449 . S
C1001 C1000 1.399 . S
C1001 H1007 0.930 . S
H1002 C982 0.931 . S
H1003 C983 0.930 . S
H1004 C991 0.931 . S
H1005 C992 0.929 . S
H1006 C1000 0.929 . S
H1007 C1001 0.930 . S
Mn1008 O1013 2.095 . S
Mn1008 O1023 2.162 . S
Mn1008 O1024 2.297 . S
Mn1008 O1032 2.385 . S
Mn1008 O1033 2.209 . S
Mn1008 O1034 2.094 . S
Mn1009 O1014 2.121 . S
Mn1009 N1016 2.257 . S
Mn1009 N1025 2.282 . S
Mn1009 O1033 2.215 . S
Mn1009 O1035 2.117 . S
C1010 O1032 1.234 . S
C1010 O1033 1.283 . S
C1011 O1023 1.281 . S
C1011 O1024 1.236 . S
C1012 O1034 1.240 . S
C1012 O1035 1.264 . S
O1013 Mn1008 2.095 . S
O1013 C1022 1.250 . S
O1014 Mn1009 2.121 . S
O1014 C1022 1.258 . S
C1015 N1016 1.326 . S
C1015 C1019 1.460 . S
C1015 H1021 0.929 . S
N1016 Mn1009 2.257 . S
N1016 C1015 1.326 . S
N1016 C1020 1.362 . S
C1017 C1018 1.258 . S
C1017 C1020 1.431 . S
C1017 C1037 1.449 . S
C1018 C1017 1.258 . S
C1018 C1019 1.477 . S
C1018 H1038 0.931 . S
C1019 C1015 1.460 . S
C1019 C1018 1.477 . S
C1019 H1039 0.930 . S
C1020 N1016 1.362 . S
C1020 C1017 1.431 . S
C1020 C1030 1.476 . S
H1021 C1015 0.929 . S
C1022 O1013 1.250 . S
C1022 O1014 1.258 . S
O1023 Mn1008 2.162 . S
O1023 C1011 1.281 . S
O1024 Mn1008 2.297 . S
O1024 C1011 1.236 . S
N1025 Mn1009 2.282 . S
N1025 C1026 1.328 . S
N1025 C1030 1.318 . S
C1026 N1025 1.328 . S
C1026 C1027 1.457 . S
C1026 H1031 0.929 . S
C1027 C1026 1.457 . S
C1027 C1028 1.291 . S
C1027 H1040 0.931 . S
C1028 C1027 1.291 . S
C1028 C1029 1.373 . S
C1028 H1041 0.929 . S
C1029 C1028 1.373 . S
C1029 C1030 1.396 . S
C1029 C1036 1.403 . S
C1030 C1020 1.476 . S
C1030 N1025 1.318 . S
C1030 C1029 1.396 . S
H1031 C1026 0.929 . S
O1032 Mn1008 2.385 . S
O1032 C1010 1.234 . S
O1033 Mn1008 2.209 . S
O1033 Mn1009 2.215 . S
O1033 C1010 1.283 . S
O1034 Mn1008 2.094 . S
O1034 C1012 1.240 . S
O1035 Mn1009 2.117 . S
O1035 C1012 1.264 . S
C1036 C1029 1.403 . S
C1036 C1037 1.399 . S
C1036 H1042 0.929 . S
C1037 C1017 1.449 . S
C1037 C1036 1.399 . S
C1037 H1043 0.930 . S
H1038 C1018 0.931 . S
H1039 C1019 0.930 . S
H1040 C1027 0.931 . S
H1041 C1028 0.929 . S
H1042 C1036 0.929 . S
H1043 C1037 0.930 . S
Mn1044 O1049 2.095 . S
Mn1044 O1059 2.162 . S
Mn1044 O1060 2.297 . S
Mn1044 O1068 2.385 . S
Mn1044 O1069 2.209 . S
Mn1044 O1070 2.094 . S
Mn1045 O1050 2.121 . S
Mn1045 N1052 2.257 . S
Mn1045 N1061 2.282 1_556 S
Mn1045 O1069 2.215 1_556 S
Mn1045 O1071 2.117 1_556 S
C1046 O1068 1.234 . S
C1046 O1069 1.283 . S
C1047 O1059 1.281 . S
C1047 O1060 1.236 . S
C1048 O1070 1.240 . S
C1048 O1071 1.264 . S
O1049 Mn1044 2.095 . S
O1049 C1058 1.250 1_554 S
O1050 Mn1045 2.121 . S
O1050 C1058 1.258 . S
C1051 N1052 1.326 . S
C1051 C1055 1.460 . S
C1051 H1057 0.929 . S
N1052 Mn1045 2.257 . S
N1052 C1051 1.326 . S
N1052 C1056 1.362 . S
C1053 C1054 1.258 . S
C1053 C1056 1.431 . S
C1053 C1073 1.449 . S
C1054 C1053 1.258 . S
C1054 C1055 1.477 . S
C1054 H1074 0.931 . S
C1055 C1051 1.460 . S
C1055 C1054 1.477 . S
C1055 H1075 0.930 . S
C1056 N1052 1.362 . S
C1056 C1053 1.431 . S
C1056 C1066 1.476 1_556 S
H1057 C1051 0.929 . S
C1058 O1049 1.250 1_556 S
C1058 O1050 1.258 . S
O1059 Mn1044 2.162 . S
O1059 C1047 1.281 . S
O1060 Mn1044 2.297 . S
O1060 C1047 1.236 . S
N1061 Mn1045 2.282 1_554 S
N1061 C1062 1.328 . S
N1061 C1066 1.318 . S
C1062 N1061 1.328 . S
C1062 C1063 1.457 . S
C1062 H1067 0.929 . S
C1063 C1062 1.457 . S
C1063 C1064 1.291 . S
C1063 H1076 0.931 . S
C1064 C1063 1.291 . S
C1064 C1065 1.373 . S
C1064 H1077 0.929 . S
C1065 C1064 1.373 . S
C1065 C1066 1.396 . S
C1065 C1072 1.403 . S
C1066 C1056 1.476 1_554 S
C1066 N1061 1.318 . S
C1066 C1065 1.396 . S
H1067 C1062 0.929 . S
O1068 Mn1044 2.385 . S
O1068 C1046 1.234 . S
O1069 Mn1044 2.209 . S
O1069 Mn1045 2.215 1_554 S
O1069 C1046 1.283 . S
O1070 Mn1044 2.094 . S
O1070 C1048 1.240 . S
O1071 Mn1045 2.117 1_554 S
O1071 C1048 1.264 . S
C1072 C1065 1.403 . S
C1072 C1073 1.399 1_554 S
C1072 H1078 0.929 . S
C1073 C1053 1.449 . S
C1073 C1072 1.399 1_556 S
C1073 H1079 0.930 . S
H1074 C1054 0.931 . S
H1075 C1055 0.930 . S
H1076 C1063 0.931 . S
H1077 C1064 0.929 . S
H1078 C1072 0.929 . S
H1079 C1073 0.930 . S
Mn1080 O1085 2.095 . S
Mn1080 O1095 2.162 . S
Mn1080 O1096 2.297 . S
Mn1080 O1104 2.385 . S
Mn1080 O1105 2.209 . S
Mn1080 O1106 2.094 . S
Mn1081 O1086 2.121 . S
Mn1081 N1088 2.257 1_455 S
Mn1081 N1097 2.282 1_455 S
Mn1081 O1105 2.215 . S
Mn1081 O1107 2.117 . S
C1082 O1104 1.234 . S
C1082 O1105 1.283 . S
C1083 O1095 1.281 . S
C1083 O1096 1.236 . S
C1084 O1106 1.240 . S
C1084 O1107 1.264 . S
O1085 Mn1080 2.095 . S
O1085 C1094 1.250 . S
O1086 Mn1081 2.121 . S
O1086 C1094 1.258 . S
C1087 N1088 1.326 . S
C1087 C1091 1.460 . S
C1087 H1093 0.929 1_655 S
N1088 Mn1081 2.257 1_655 S
N1088 C1087 1.326 . S
N1088 C1092 1.362 . S
C1089 C1090 1.258 . S
C1089 C1092 1.431 . S
C1089 C1109 1.449 . S
C1090 C1089 1.258 . S
C1090 C1091 1.477 . S
C1090 H1110 0.931 . S
C1091 C1087 1.460 . S
C1091 C1090 1.477 . S
C1091 H1111 0.930 . S
C1092 N1088 1.362 . S
C1092 C1089 1.431 . S
C1092 C1102 1.476 . S
H1093 C1087 0.929 1_455 S
C1094 O1085 1.250 . S
C1094 O1086 1.258 . S
O1095 Mn1080 2.162 . S
O1095 C1083 1.281 . S
O1096 Mn1080 2.297 . S
O1096 C1083 1.236 . S
N1097 Mn1081 2.282 1_655 S
N1097 C1098 1.328 . S
N1097 C1102 1.318 . S
C1098 N1097 1.328 . S
C1098 C1099 1.457 . S
C1098 H1103 0.929 1_655 S
C1099 C1098 1.457 . S
C1099 C1100 1.291 . S
C1099 H1112 0.931 . S
C1100 C1099 1.291 . S
C1100 C1101 1.373 . S
C1100 H1113 0.929 . S
C1101 C1100 1.373 . S
C1101 C1102 1.396 . S
C1101 C1108 1.403 . S
C1102 C1092 1.476 . S
C1102 N1097 1.318 . S
C1102 C1101 1.396 . S
H1103 C1098 0.929 1_455 S
O1104 Mn1080 2.385 . S
O1104 C1082 1.234 . S
O1105 Mn1080 2.209 . S
O1105 Mn1081 2.215 . S
O1105 C1082 1.283 . S
O1106 Mn1080 2.094 . S
O1106 C1084 1.240 . S
O1107 Mn1081 2.117 . S
O1107 C1084 1.264 . S
C1108 C1101 1.403 . S
C1108 C1109 1.399 . S
C1108 H1114 0.929 . S
C1109 C1089 1.449 . S
C1109 C1108 1.399 . S
C1109 H1115 0.930 . S
H1110 C1090 0.931 . S
H1111 C1091 0.930 . S
H1112 C1099 0.931 . S
H1113 C1100 0.929 . S
H1114 C1108 0.929 . S
H1115 C1109 0.930 . S
Mn1116 O1121 2.095 . S
Mn1116 O1131 2.162 . S
Mn1116 O1132 2.297 . S
Mn1116 O1140 2.385 . S
Mn1116 O1141 2.209 . S
Mn1116 O1142 2.094 . S
Mn1117 O1122 2.121 . S
Mn1117 N1124 2.257 . S
Mn1117 N1133 2.282 . S
Mn1117 O1141 2.215 . S
Mn1117 O1143 2.117 . S
C1118 O1140 1.234 . S
C1118 O1141 1.283 . S
C1119 O1131 1.281 . S
C1119 O1132 1.236 . S
C1120 O1142 1.240 . S
C1120 O1143 1.264 . S
O1121 Mn1116 2.095 . S
O1121 C1130 1.250 . S
O1122 Mn1117 2.121 . S
O1122 C1130 1.258 . S
C1123 N1124 1.326 . S
C1123 C1127 1.460 . S
C1123 H1129 0.929 . S
N1124 Mn1117 2.257 . S
N1124 C1123 1.326 . S
N1124 C1128 1.362 . S
C1125 C1126 1.258 . S
C1125 C1128 1.431 . S
C1125 C1145 1.449 . S
C1126 C1125 1.258 . S
C1126 C1127 1.477 . S
C1126 H1146 0.931 . S
C1127 C1123 1.460 . S
C1127 C1126 1.477 . S
C1127 H1147 0.930 . S
C1128 N1124 1.362 . S
C1128 C1125 1.431 . S
C1128 C1138 1.476 . S
H1129 C1123 0.929 . S
C1130 O1121 1.250 . S
C1130 O1122 1.258 . S
O1131 Mn1116 2.162 . S
O1131 C1119 1.281 . S
O1132 Mn1116 2.297 . S
O1132 C1119 1.236 . S
N1133 Mn1117 2.282 . S
N1133 C1134 1.328 . S
N1133 C1138 1.318 . S
C1134 N1133 1.328 . S
C1134 C1135 1.457 . S
C1134 H1139 0.929 . S
C1135 C1134 1.457 . S
C1135 C1136 1.291 . S
C1135 H1148 0.931 . S
C1136 C1135 1.291 . S
C1136 C1137 1.373 . S
C1136 H1149 0.929 . S
C1137 C1136 1.373 . S
C1137 C1138 1.396 . S
C1137 C1144 1.403 . S
C1138 C1128 1.476 . S
C1138 N1133 1.318 . S
C1138 C1137 1.396 . S
H1139 C1134 0.929 . S
O1140 Mn1116 2.385 . S
O1140 C1118 1.234 . S
O1141 Mn1116 2.209 . S
O1141 Mn1117 2.215 . S
O1141 C1118 1.283 . S
O1142 Mn1116 2.094 . S
O1142 C1120 1.240 . S
O1143 Mn1117 2.117 . S
O1143 C1120 1.264 . S
C1144 C1137 1.403 . S
C1144 C1145 1.399 . S
C1144 H1150 0.929 . S
C1145 C1125 1.449 . S
C1145 C1144 1.399 . S
C1145 H1151 0.930 . S
H1146 C1126 0.931 . S
H1147 C1127 0.930 . S
H1148 C1135 0.931 . S
H1149 C1136 0.929 . S
H1150 C1144 0.929 . S
H1151 C1145 0.930 . S
H1152 C1158 0.930 . S
H1153 C1162 0.930 . S
H1154 C1167 0.929 . S
H1155 C1165 0.929 . S
H1156 C1160 0.929 . S
H1157 C1166 0.929 . S
C1158 H1152 0.930 . S
C1158 C1159 1.367 . S
C1158 C1166 1.378 . S
C1159 C1158 1.367 . S
C1159 C1167 1.433 . S
C1160 H1156 0.929 . S
C1160 C1162 1.378 . S
C1160 C1164 1.350 . S
C1161 C1164 1.463 . S
C1161 C1166 1.350 . S
C1161 N1169 1.427 . S
C1162 H1153 0.930 . S
C1162 C1160 1.378 . S
C1162 C1163 1.367 . S
C1163 C1162 1.367 . S
C1163 C1165 1.433 . S
C1164 C1160 1.350 . S
C1164 C1161 1.463 . S
C1164 N1168 1.427 . S
C1165 H1155 0.929 . S
C1165 C1163 1.433 . S
C1165 N1168 1.384 . S
C1166 H1157 0.929 . S
C1166 C1158 1.378 . S
C1166 C1161 1.350 . S
C1167 H1154 0.929 . S
C1167 C1159 1.433 . S
C1167 N1169 1.384 . S
N1168 C1164 1.427 . S
N1168 C1165 1.384 . S
N1169 C1161 1.427 . S
N1169 C1167 1.384 . S
H1170 C1176 0.930 . S
H1171 C1180 0.930 . S
H1172 C1185 0.929 . S
H1173 C1183 0.929 . S
H1174 C1178 0.929 . S
H1175 C1184 0.929 . S
C1176 H1170 0.930 . S
C1176 C1177 1.367 . S
C1176 C1184 1.378 . S
C1177 C1176 1.367 . S
C1177 C1185 1.433 . S
C1178 H1174 0.929 . S
C1178 C1180 1.378 . S
C1178 C1182 1.350 . S
C1179 C1182 1.463 . S
C1179 C1184 1.350 . S
C1179 N1187 1.427 . S
C1180 H1171 0.930 . S
C1180 C1178 1.378 . S
C1180 C1181 1.367 . S
C1181 C1180 1.367 . S
C1181 C1183 1.433 . S
C1182 C1178 1.350 . S
C1182 C1179 1.463 . S
C1182 N1186 1.427 . S
C1183 H1173 0.929 . S
C1183 C1181 1.433 . S
C1183 N1186 1.384 . S
C1184 H1175 0.929 . S
C1184 C1176 1.378 . S
C1184 C1179 1.350 . S
C1185 H1172 0.929 . S
C1185 C1177 1.433 . S
C1185 N1187 1.384 . S
N1186 C1182 1.427 . S
N1186 C1183 1.384 . S
N1187 C1179 1.427 . S
N1187 C1185 1.384 . S
H1188 C1194 0.930 . S
H1189 C1198 0.930 . S
H1190 C1203 0.929 . S
H1191 C1201 0.929 . S
H1192 C1196 0.929 . S
H1193 C1202 0.929 . S
C1194 H1188 0.930 . S
C1194 C1195 1.367 . S
C1194 C1202 1.378 . S
C1195 C1194 1.367 . S
C1195 C1203 1.433 . S
C1196 H1192 0.929 . S
C1196 C1198 1.378 . S
C1196 C1200 1.350 . S
C1197 C1200 1.463 . S
C1197 C1202 1.350 . S
C1197 N1205 1.427 . S
C1198 H1189 0.930 . S
C1198 C1196 1.378 . S
C1198 C1199 1.367 . S
C1199 C1198 1.367 . S
C1199 C1201 1.433 . S
C1200 C1196 1.350 . S
C1200 C1197 1.463 . S
C1200 N1204 1.427 . S
C1201 H1191 0.929 . S
C1201 C1199 1.433 . S
C1201 N1204 1.384 . S
C1202 H1193 0.929 . S
C1202 C1194 1.378 . S
C1202 C1197 1.350 . S
C1203 H1190 0.929 . S
C1203 C1195 1.433 . S
C1203 N1205 1.384 . S
N1204 C1200 1.427 . S
N1204 C1201 1.384 . S
N1205 C1197 1.427 . S
N1205 C1203 1.384 . S
H1206 C1212 0.930 . S
H1207 C1216 0.930 . S
H1208 C1221 0.929 . S
H1209 C1219 0.929 . S
H1210 C1214 0.929 . S
H1211 C1220 0.929 . S
C1212 H1206 0.930 . S
C1212 C1213 1.367 . S
C1212 C1220 1.378 . S
C1213 C1212 1.367 . S
C1213 C1221 1.433 . S
C1214 H1210 0.929 . S
C1214 C1216 1.378 . S
C1214 C1218 1.350 . S
C1215 C1218 1.463 . S
C1215 C1220 1.350 . S
C1215 N1223 1.427 . S
C1216 H1207 0.930 . S
C1216 C1214 1.378 . S
C1216 C1217 1.367 . S
C1217 C1216 1.367 . S
C1217 C1219 1.433 . S
C1218 C1214 1.350 . S
C1218 C1215 1.463 . S
C1218 N1222 1.427 . S
C1219 H1209 0.929 . S
C1219 C1217 1.433 . S
C1219 N1222 1.384 . S
C1220 H1211 0.929 . S
C1220 C1212 1.378 . S
C1220 C1215 1.350 . S
C1221 H1208 0.929 . S
C1221 C1213 1.433 . S
C1221 N1223 1.384 . S
N1222 C1218 1.427 . S
N1222 C1219 1.384 . S
N1223 C1215 1.427 . S
N1223 C1221 1.384 . S
H1224 C1230 0.930 . S
H1225 C1234 0.930 . S
H1226 C1239 0.929 . S
H1227 C1237 0.929 . S
H1228 C1232 0.929 . S
H1229 C1238 0.929 . S
C1230 H1224 0.930 . S
C1230 C1231 1.367 . S
C1230 C1238 1.378 . S
C1231 C1230 1.367 . S
C1231 C1239 1.433 . S
C1232 H1228 0.929 . S
C1232 C1234 1.378 . S
C1232 C1236 1.350 . S
C1233 C1236 1.463 . S
C1233 C1238 1.350 . S
C1233 N1241 1.427 . S
C1234 H1225 0.930 . S
C1234 C1232 1.378 . S
C1234 C1235 1.367 . S
C1235 C1234 1.367 . S
C1235 C1237 1.433 . S
C1236 C1232 1.350 . S
C1236 C1233 1.463 . S
C1236 N1240 1.427 . S
C1237 H1227 0.929 . S
C1237 C1235 1.433 . S
C1237 N1240 1.384 . S
C1238 H1229 0.929 . S
C1238 C1230 1.378 . S
C1238 C1233 1.350 . S
C1239 H1226 0.929 . S
C1239 C1231 1.433 . S
C1239 N1241 1.384 . S
N1240 C1236 1.427 . S
N1240 C1237 1.384 . S
N1241 C1233 1.427 . S
N1241 C1239 1.384 . S
H1242 C1248 0.930 . S
H1243 C1252 0.930 . S
H1244 C1257 0.929 . S
H1245 C1255 0.929 . S
H1246 C1250 0.929 . S
H1247 C1256 0.929 . S
C1248 H1242 0.930 . S
C1248 C1249 1.367 . S
C1248 C1256 1.378 . S
C1249 C1248 1.367 . S
C1249 C1257 1.433 . S
C1250 H1246 0.929 . S
C1250 C1252 1.378 . S
C1250 C1254 1.350 . S
C1251 C1254 1.463 . S
C1251 C1256 1.350 . S
C1251 N1259 1.427 . S
C1252 H1243 0.930 . S
C1252 C1250 1.378 . S
C1252 C1253 1.367 . S
C1253 C1252 1.367 . S
C1253 C1255 1.433 . S
C1254 C1250 1.350 . S
C1254 C1251 1.463 . S
C1254 N1258 1.427 . S
C1255 H1245 0.929 . S
C1255 C1253 1.433 . S
C1255 N1258 1.384 . S
C1256 H1247 0.929 . S
C1256 C1248 1.378 . S
C1256 C1251 1.350 . S
C1257 H1244 0.929 . S
C1257 C1249 1.433 . S
C1257 N1259 1.384 . S
N1258 C1254 1.427 . S
N1258 C1255 1.384 . S
N1259 C1251 1.427 . S
N1259 C1257 1.384 . S
H1260 C1266 0.930 . S
H1261 C1270 0.930 . S
H1262 C1275 0.929 . S
H1263 C1273 0.929 . S
H1264 C1268 0.929 . S
H1265 C1274 0.929 . S
C1266 H1260 0.930 . S
C1266 C1267 1.367 . S
C1266 C1274 1.378 . S
C1267 C1266 1.367 . S
C1267 C1275 1.433 . S
C1268 H1264 0.929 . S
C1268 C1270 1.378 . S
C1268 C1272 1.350 . S
C1269 C1272 1.463 . S
C1269 C1274 1.350 . S
C1269 N1277 1.427 . S
C1270 H1261 0.930 . S
C1270 C1268 1.378 . S
C1270 C1271 1.367 . S
C1271 C1270 1.367 . S
C1271 C1273 1.433 . S
C1272 C1268 1.350 . S
C1272 C1269 1.463 . S
C1272 N1276 1.427 . S
C1273 H1263 0.929 . S
C1273 C1271 1.433 . S
C1273 N1276 1.384 . S
C1274 H1265 0.929 . S
C1274 C1266 1.378 . S
C1274 C1269 1.350 . S
C1275 H1262 0.929 . S
C1275 C1267 1.433 . S
C1275 N1277 1.384 . S
N1276 C1272 1.427 . S
N1276 C1273 1.384 . S
N1277 C1269 1.427 . S
N1277 C1275 1.384 . S
H1278 C1284 0.930 . S
H1279 C1288 0.930 . S
H1280 C1293 0.929 . S
H1281 C1291 0.929 . S
H1282 C1286 0.929 . S
H1283 C1292 0.929 . S
C1284 H1278 0.930 . S
C1284 C1285 1.367 . S
C1284 C1292 1.378 . S
C1285 C1284 1.367 . S
C1285 C1293 1.433 . S
C1286 H1282 0.929 . S
C1286 C1288 1.378 . S
C1286 C1290 1.350 . S
C1287 C1290 1.463 . S
C1287 C1292 1.350 . S
C1287 N1295 1.427 . S
C1288 H1279 0.930 . S
C1288 C1286 1.378 . S
C1288 C1289 1.367 . S
C1289 C1288 1.367 . S
C1289 C1291 1.433 . S
C1290 C1286 1.350 . S
C1290 C1287 1.463 . S
C1290 N1294 1.427 . S
C1291 H1281 0.929 . S
C1291 C1289 1.433 . S
C1291 N1294 1.384 . S
C1292 H1283 0.929 . S
C1292 C1284 1.378 . S
C1292 C1287 1.350 . S
C1293 H1280 0.929 . S
C1293 C1285 1.433 . S
C1293 N1295 1.384 . S
N1294 C1290 1.427 . S
N1294 C1291 1.384 . S
N1295 C1287 1.427 . S
N1295 C1293 1.384 . S
H1296 C1302 0.930 . S
H1297 C1306 0.930 . S
H1298 C1311 0.929 . S
H1299 C1309 0.929 . S
H1300 C1304 0.929 . S
H1301 C1310 0.929 . S
C1302 H1296 0.930 . S
C1302 C1303 1.367 . S
C1302 C1310 1.378 . S
C1303 C1302 1.367 . S
C1303 C1311 1.433 . S
C1304 H1300 0.929 . S
C1304 C1306 1.378 . S
C1304 C1308 1.350 . S
C1305 C1308 1.463 . S
C1305 C1310 1.350 . S
C1305 N1313 1.427 . S
C1306 H1297 0.930 . S
C1306 C1304 1.378 . S
C1306 C1307 1.367 . S
C1307 C1306 1.367 . S
C1307 C1309 1.433 . S
C1308 C1304 1.350 . S
C1308 C1305 1.463 . S
C1308 N1312 1.427 . S
C1309 H1299 0.929 . S
C1309 C1307 1.433 . S
C1309 N1312 1.384 . S
C1310 H1301 0.929 . S
C1310 C1302 1.378 . S
C1310 C1305 1.350 . S
C1311 H1298 0.929 . S
C1311 C1303 1.433 . S
C1311 N1313 1.384 . S
N1312 C1308 1.427 . S
N1312 C1309 1.384 . S
N1313 C1305 1.427 . S
N1313 C1311 1.384 . S
H1314 C1320 0.930 . S
H1315 C1324 0.930 . S
H1316 C1329 0.929 . S
H1317 C1327 0.929 . S
H1318 C1322 0.929 . S
H1319 C1328 0.929 . S
C1320 H1314 0.930 . S
C1320 C1321 1.367 . S
C1320 C1328 1.378 . S
C1321 C1320 1.367 . S
C1321 C1329 1.433 . S
C1322 H1318 0.929 . S
C1322 C1324 1.378 . S
C1322 C1326 1.350 . S
C1323 C1326 1.463 . S
C1323 C1328 1.350 . S
C1323 N1331 1.427 . S
C1324 H1315 0.930 . S
C1324 C1322 1.378 . S
C1324 C1325 1.367 . S
C1325 C1324 1.367 . S
C1325 C1327 1.433 . S
C1326 C1322 1.350 . S
C1326 C1323 1.463 . S
C1326 N1330 1.427 . S
C1327 H1317 0.929 . S
C1327 C1325 1.433 . S
C1327 N1330 1.384 . S
C1328 H1319 0.929 . S
C1328 C1320 1.378 . S
C1328 C1323 1.350 . S
C1329 H1316 0.929 . S
C1329 C1321 1.433 . S
C1329 N1331 1.384 . S
N1330 C1326 1.427 . S
N1330 C1327 1.384 . S
N1331 C1323 1.427 . S
N1331 C1329 1.384 . S
H1332 C1338 0.930 . S
H1333 C1342 0.930 . S
H1334 C1347 0.929 . S
H1335 C1345 0.929 . S
H1336 C1340 0.929 . S
H1337 C1346 0.929 . S
C1338 H1332 0.930 . S
C1338 C1339 1.367 . S
C1338 C1346 1.378 . S
C1339 C1338 1.367 . S
C1339 C1347 1.433 . S
C1340 H1336 0.929 . S
C1340 C1342 1.378 . S
C1340 C1344 1.350 . S
C1341 C1344 1.463 . S
C1341 C1346 1.350 . S
C1341 N1349 1.427 . S
C1342 H1333 0.930 . S
C1342 C1340 1.378 . S
C1342 C1343 1.367 . S
C1343 C1342 1.367 . S
C1343 C1345 1.433 . S
C1344 C1340 1.350 . S
C1344 C1341 1.463 . S
C1344 N1348 1.427 . S
C1345 H1335 0.929 . S
C1345 C1343 1.433 . S
C1345 N1348 1.384 . S
C1346 H1337 0.929 . S
C1346 C1338 1.378 . S
C1346 C1341 1.350 . S
C1347 H1334 0.929 . S
C1347 C1339 1.433 . S
C1347 N1349 1.384 . S
N1348 C1344 1.427 . S
N1348 C1345 1.384 . S
N1349 C1341 1.427 . S
N1349 C1347 1.384 . S
H1350 C1356 0.930 . S
H1351 C1360 0.930 . S
H1352 C1365 0.929 . S
H1353 C1363 0.929 . S
H1354 C1358 0.929 . S
H1355 C1364 0.929 . S
C1356 H1350 0.930 . S
C1356 C1357 1.367 . S
C1356 C1364 1.378 . S
C1357 C1356 1.367 . S
C1357 C1365 1.433 . S
C1358 H1354 0.929 . S
C1358 C1360 1.378 . S
C1358 C1362 1.350 . S
C1359 C1362 1.463 . S
C1359 C1364 1.350 . S
C1359 N1367 1.427 . S
C1360 H1351 0.930 . S
C1360 C1358 1.378 . S
C1360 C1361 1.367 . S
C1361 C1360 1.367 . S
C1361 C1363 1.433 . S
C1362 C1358 1.350 . S
C1362 C1359 1.463 . S
C1362 N1366 1.427 . S
C1363 H1353 0.929 . S
C1363 C1361 1.433 . S
C1363 N1366 1.384 . S
C1364 H1355 0.929 . S
C1364 C1356 1.378 . S
C1364 C1359 1.350 . S
C1365 H1352 0.929 . S
C1365 C1357 1.433 . S
C1365 N1367 1.384 . S
N1366 C1362 1.427 . S
N1366 C1363 1.384 . S
N1367 C1359 1.427 . S
N1367 C1365 1.384 . S
H1368 C1374 0.930 . S
H1369 C1378 0.930 . S
H1370 C1383 0.929 . S
H1371 C1381 0.929 . S
H1372 C1376 0.929 . S
H1373 C1382 0.929 . S
C1374 H1368 0.930 . S
C1374 C1375 1.367 . S
C1374 C1382 1.378 . S
C1375 C1374 1.367 . S
C1375 C1383 1.433 . S
C1376 H1372 0.929 . S
C1376 C1378 1.378 . S
C1376 C1380 1.350 . S
C1377 C1380 1.463 . S
C1377 C1382 1.350 . S
C1377 N1385 1.427 . S
C1378 H1369 0.930 . S
C1378 C1376 1.378 . S
C1378 C1379 1.367 . S
C1379 C1378 1.367 . S
C1379 C1381 1.433 . S
C1380 C1376 1.350 . S
C1380 C1377 1.463 . S
C1380 N1384 1.427 . S
C1381 H1371 0.929 . S
C1381 C1379 1.433 . S
C1381 N1384 1.384 . S
C1382 H1373 0.929 . S
C1382 C1374 1.378 . S
C1382 C1377 1.350 . S
C1383 H1370 0.929 . S
C1383 C1375 1.433 . S
C1383 N1385 1.384 . S
N1384 C1380 1.427 . S
N1384 C1381 1.384 . S
N1385 C1377 1.427 . S
N1385 C1383 1.384 . S
H1386 C1392 0.930 . S
H1387 C1396 0.930 . S
H1388 C1401 0.929 . S
H1389 C1399 0.929 . S
H1390 C1394 0.929 . S
H1391 C1400 0.929 . S
C1392 H1386 0.930 . S
C1392 C1393 1.367 . S
C1392 C1400 1.378 . S
C1393 C1392 1.367 . S
C1393 C1401 1.433 . S
C1394 H1390 0.929 . S
C1394 C1396 1.378 . S
C1394 C1398 1.350 . S
C1395 C1398 1.463 . S
C1395 C1400 1.350 . S
C1395 N1403 1.427 . S
C1396 H1387 0.930 . S
C1396 C1394 1.378 . S
C1396 C1397 1.367 . S
C1397 C1396 1.367 . S
C1397 C1399 1.433 . S
C1398 C1394 1.350 . S
C1398 C1395 1.463 . S
C1398 N1402 1.427 . S
C1399 H1389 0.929 . S
C1399 C1397 1.433 . S
C1399 N1402 1.384 . S
C1400 H1391 0.929 . S
C1400 C1392 1.378 . S
C1400 C1395 1.350 . S
C1401 H1388 0.929 . S
C1401 C1393 1.433 . S
C1401 N1403 1.384 . S
N1402 C1398 1.427 . S
N1402 C1399 1.384 . S
N1403 C1395 1.427 . S
N1403 C1401 1.384 . S
H1404 C1410 0.930 . S
H1405 C1414 0.930 . S
H1406 C1419 0.929 . S
H1407 C1417 0.929 . S
H1408 C1412 0.929 . S
H1409 C1418 0.929 . S
C1410 H1404 0.930 . S
C1410 C1411 1.367 . S
C1410 C1418 1.378 . S
C1411 C1410 1.367 . S
C1411 C1419 1.433 . S
C1412 H1408 0.929 . S
C1412 C1414 1.378 . S
C1412 C1416 1.350 . S
C1413 C1416 1.463 . S
C1413 C1418 1.350 . S
C1413 N1421 1.427 . S
C1414 H1405 0.930 . S
C1414 C1412 1.378 . S
C1414 C1415 1.367 . S
C1415 C1414 1.367 . S
C1415 C1417 1.433 . S
C1416 C1412 1.350 . S
C1416 C1413 1.463 . S
C1416 N1420 1.427 . S
C1417 H1407 0.929 . S
C1417 C1415 1.433 . S
C1417 N1420 1.384 . S
C1418 H1409 0.929 . S
C1418 C1410 1.378 . S
C1418 C1413 1.350 . S
C1419 H1406 0.929 . S
C1419 C1411 1.433 . S
C1419 N1421 1.384 . S
N1420 C1416 1.427 . S
N1420 C1417 1.384 . S
N1421 C1413 1.427 . S
N1421 C1419 1.384 . S
H1422 C1428 0.930 . S
H1423 C1432 0.930 . S
H1424 C1437 0.929 . S
H1425 C1435 0.929 . S
H1426 C1430 0.929 . S
H1427 C1436 0.929 . S
C1428 H1422 0.930 . S
C1428 C1429 1.367 . S
C1428 C1436 1.378 . S
C1429 C1428 1.367 . S
C1429 C1437 1.433 . S
C1430 H1426 0.929 . S
C1430 C1432 1.378 . S
C1430 C1434 1.350 . S
C1431 C1434 1.463 . S
C1431 C1436 1.350 . S
C1431 N1439 1.427 . S
C1432 H1423 0.930 . S
C1432 C1430 1.378 . S
C1432 C1433 1.367 . S
C1433 C1432 1.367 . S
C1433 C1435 1.433 . S
C1434 C1430 1.350 . S
C1434 C1431 1.463 . S
C1434 N1438 1.427 . S
C1435 H1425 0.929 . S
C1435 C1433 1.433 . S
C1435 N1438 1.384 . S
C1436 H1427 0.929 . S
C1436 C1428 1.378 . S
C1436 C1431 1.350 . S
C1437 H1424 0.929 . S
C1437 C1429 1.433 . S
C1437 N1439 1.384 . S
N1438 C1434 1.427 . S
N1438 C1435 1.384 . S
N1439 C1431 1.427 . S
N1439 C1437 1.384 . S
H1440 C1446 0.930 . S
H1441 C1450 0.930 . S
H1442 C1455 0.929 . S
H1443 C1453 0.929 . S
H1444 C1448 0.929 . S
H1445 C1454 0.929 . S
C1446 H1440 0.930 . S
C1446 C1447 1.367 . S
C1446 C1454 1.378 . S
C1447 C1446 1.367 . S
C1447 C1455 1.433 . S
C1448 H1444 0.929 . S
C1448 C1450 1.378 . S
C1448 C1452 1.350 . S
C1449 C1452 1.463 . S
C1449 C1454 1.350 . S
C1449 N1457 1.427 . S
C1450 H1441 0.930 . S
C1450 C1448 1.378 . S
C1450 C1451 1.367 . S
C1451 C1450 1.367 . S
C1451 C1453 1.433 . S
C1452 C1448 1.350 . S
C1452 C1449 1.463 . S
C1452 N1456 1.427 . S
C1453 H1443 0.929 . S
C1453 C1451 1.433 . S
C1453 N1456 1.384 . S
C1454 H1445 0.929 . S
C1454 C1446 1.378 . S
C1454 C1449 1.350 . S
C1455 H1442 0.929 . S
C1455 C1447 1.433 . S
C1455 N1457 1.384 . S
N1456 C1452 1.427 . S
N1456 C1453 1.384 . S
N1457 C1449 1.427 . S
N1457 C1455 1.384 . S
H1458 C1464 0.930 . S
H1459 C1468 0.930 . S
H1460 C1473 0.929 . S
H1461 C1471 0.929 . S
H1462 C1466 0.929 . S
H1463 C1472 0.929 . S
C1464 H1458 0.930 . S
C1464 C1465 1.367 . S
C1464 C1472 1.378 . S
C1465 C1464 1.367 . S
C1465 C1473 1.433 . S
C1466 H1462 0.929 . S
C1466 C1468 1.378 1_655 S
C1466 C1470 1.350 . S
C1467 C1470 1.463 . S
C1467 C1472 1.350 . S
C1467 N1475 1.427 . S
C1468 H1459 0.930 . S
C1468 C1466 1.378 1_455 S
C1468 C1469 1.367 . S
C1469 C1468 1.367 . S
C1469 C1471 1.433 1_455 S
C1470 C1466 1.350 . S
C1470 C1467 1.463 . S
C1470 N1474 1.427 . S
C1471 H1461 0.929 . S
C1471 C1469 1.433 1_655 S
C1471 N1474 1.384 . S
C1472 H1463 0.929 . S
C1472 C1464 1.378 . S
C1472 C1467 1.350 . S
C1473 H1460 0.929 . S
C1473 C1465 1.433 . S
C1473 N1475 1.384 . S
N1474 C1470 1.427 . S
N1474 C1471 1.384 . S
N1475 C1467 1.427 . S
N1475 C1473 1.384 . S
H1476 C1482 0.930 . S
H1477 C1486 0.930 . S
H1478 C1491 0.929 . S
H1479 C1489 0.929 . S
H1480 C1484 0.929 . S
H1481 C1490 0.929 . S
C1482 H1476 0.930 . S
C1482 C1483 1.367 . S
C1482 C1490 1.378 . S
C1483 C1482 1.367 . S
C1483 C1491 1.433 . S
C1484 H1480 0.929 . S
C1484 C1486 1.378 . S
C1484 C1488 1.350 . S
C1485 C1488 1.463 . S
C1485 C1490 1.350 . S
C1485 N1493 1.427 . S
C1486 H1477 0.930 . S
C1486 C1484 1.378 . S
C1486 C1487 1.367 . S
C1487 C1486 1.367 . S
C1487 C1489 1.433 . S
C1488 C1484 1.350 . S
C1488 C1485 1.463 . S
C1488 N1492 1.427 . S
C1489 H1479 0.929 . S
C1489 C1487 1.433 . S
C1489 N1492 1.384 . S
C1490 H1481 0.929 . S
C1490 C1482 1.378 . S
C1490 C1485 1.350 . S
C1491 H1478 0.929 . S
C1491 C1483 1.433 . S
C1491 N1493 1.384 . S
N1492 C1488 1.427 . S
N1492 C1489 1.384 . S
N1493 C1485 1.427 . S
N1493 C1491 1.384 . S
H1494 C1500 0.930 . S
H1495 C1504 0.930 . S
H1496 C1509 0.929 . S
H1497 C1507 0.929 . S
H1498 C1502 0.929 . S
H1499 C1508 0.929 . S
C1500 H1494 0.930 . S
C1500 C1501 1.367 . S
C1500 C1508 1.378 . S
C1501 C1500 1.367 . S
C1501 C1509 1.433 . S
C1502 H1498 0.929 . S
C1502 C1504 1.378 . S
C1502 C1506 1.350 . S
C1503 C1506 1.463 . S
C1503 C1508 1.350 . S
C1503 N1511 1.427 . S
C1504 H1495 0.930 . S
C1504 C1502 1.378 . S
C1504 C1505 1.367 . S
C1505 C1504 1.367 . S
C1505 C1507 1.433 . S
C1506 C1502 1.350 . S
C1506 C1503 1.463 . S
C1506 N1510 1.427 . S
C1507 H1497 0.929 . S
C1507 C1505 1.433 . S
C1507 N1510 1.384 . S
C1508 H1499 0.929 . S
C1508 C1500 1.378 . S
C1508 C1503 1.350 . S
C1509 H1496 0.929 . S
C1509 C1501 1.433 . S
C1509 N1511 1.384 . S
N1510 C1506 1.427 . S
N1510 C1507 1.384 . S
N1511 C1503 1.427 . S
N1511 C1509 1.384 . S
H1512 C1518 0.930 . S
H1513 C1522 0.930 . S
H1514 C1527 0.929 . S
H1515 C1525 0.929 . S
H1516 C1520 0.929 . S
H1517 C1526 0.929 . S
C1518 H1512 0.930 . S
C1518 C1519 1.367 . S
C1518 C1526 1.378 . S
C1519 C1518 1.367 . S
C1519 C1527 1.433 . S
C1520 H1516 0.929 . S
C1520 C1522 1.378 . S
C1520 C1524 1.350 . S
C1521 C1524 1.463 . S
C1521 C1526 1.350 . S
C1521 N1529 1.427 . S
C1522 H1513 0.930 . S
C1522 C1520 1.378 . S
C1522 C1523 1.367 . S
C1523 C1522 1.367 . S
C1523 C1525 1.433 . S
C1524 C1520 1.350 . S
C1524 C1521 1.463 . S
C1524 N1528 1.427 . S
C1525 H1515 0.929 . S
C1525 C1523 1.433 . S
C1525 N1528 1.384 . S
C1526 H1517 0.929 . S
C1526 C1518 1.378 . S
C1526 C1521 1.350 . S
C1527 H1514 0.929 . S
C1527 C1519 1.433 . S
C1527 N1529 1.384 . S
N1528 C1524 1.427 . S
N1528 C1525 1.384 . S
N1529 C1521 1.427 . S
N1529 C1527 1.384 . S
H1530 C1536 0.930 . S
H1531 C1540 0.930 . S
H1532 C1545 0.929 . S
H1533 C1543 0.929 . S
H1534 C1538 0.929 . S
H1535 C1544 0.929 . S
C1536 H1530 0.930 . S
C1536 C1537 1.367 . S
C1536 C1544 1.378 . S
C1537 C1536 1.367 . S
C1537 C1545 1.433 . S
C1538 H1534 0.929 . S
C1538 C1540 1.378 . S
C1538 C1542 1.350 . S
C1539 C1542 1.463 . S
C1539 C1544 1.350 . S
C1539 N1547 1.427 . S
C1540 H1531 0.930 . S
C1540 C1538 1.378 . S
C1540 C1541 1.367 . S
C1541 C1540 1.367 . S
C1541 C1543 1.433 . S
C1542 C1538 1.350 . S
C1542 C1539 1.463 . S
C1542 N1546 1.427 . S
C1543 H1533 0.929 . S
C1543 C1541 1.433 . S
C1543 N1546 1.384 . S
C1544 H1535 0.929 . S
C1544 C1536 1.378 . S
C1544 C1539 1.350 . S
C1545 H1532 0.929 . S
C1545 C1537 1.433 . S
C1545 N1547 1.384 . S
N1546 C1542 1.427 . S
N1546 C1543 1.384 . S
N1547 C1539 1.427 . S
N1547 C1545 1.384 . S
H1548 C1554 0.930 . S
H1549 C1558 0.930 . S
H1550 C1563 0.929 . S
H1551 C1561 0.929 . S
H1552 C1556 0.929 . S
H1553 C1562 0.929 . S
C1554 H1548 0.930 . S
C1554 C1555 1.367 . S
C1554 C1562 1.378 . S
C1555 C1554 1.367 . S
C1555 C1563 1.433 . S
C1556 H1552 0.929 . S
C1556 C1558 1.378 . S
C1556 C1560 1.350 . S
C1557 C1560 1.463 . S
C1557 C1562 1.350 . S
C1557 N1565 1.427 . S
C1558 H1549 0.930 . S
C1558 C1556 1.378 . S
C1558 C1559 1.367 . S
C1559 C1558 1.367 . S
C1559 C1561 1.433 . S
C1560 C1556 1.350 . S
C1560 C1557 1.463 . S
C1560 N1564 1.427 . S
C1561 H1551 0.929 . S
C1561 C1559 1.433 . S
C1561 N1564 1.384 . S
C1562 H1553 0.929 . S
C1562 C1554 1.378 . S
C1562 C1557 1.350 . S
C1563 H1550 0.929 . S
C1563 C1555 1.433 . S
C1563 N1565 1.384 . S
N1564 C1560 1.427 . S
N1564 C1561 1.384 . S
N1565 C1557 1.427 . S
N1565 C1563 1.384 . S
H1566 C1572 0.930 . S
H1567 C1576 0.930 . S
H1568 C1581 0.929 1_455 S
H1569 C1579 0.929 . S
H1570 C1574 0.929 . S
H1571 C1580 0.929 . S
C1572 H1566 0.930 . S
C1572 C1573 1.367 1_655 S
C1572 C1580 1.378 . S
C1573 C1572 1.367 1_455 S
C1573 C1581 1.433 1_455 S
C1574 H1570 0.929 . S
C1574 C1576 1.378 . S
C1574 C1578 1.350 . S
C1575 C1578 1.463 . S
C1575 C1580 1.350 . S
C1575 N1583 1.427 . S
C1576 H1567 0.930 . S
C1576 C1574 1.378 . S
C1576 C1577 1.367 . S
C1577 C1576 1.367 . S
C1577 C1579 1.433 . S
C1578 C1574 1.350 . S
C1578 C1575 1.463 . S
C1578 N1582 1.427 . S
C1579 H1569 0.929 . S
C1579 C1577 1.433 . S
C1579 N1582 1.384 . S
C1580 H1571 0.929 . S
C1580 C1572 1.378 . S
C1580 C1575 1.350 . S
C1581 H1568 0.929 1_655 S
C1581 C1573 1.433 1_655 S
C1581 N1583 1.384 . S
N1582 C1578 1.427 . S
N1582 C1579 1.384 . S
N1583 C1575 1.427 . S
N1583 C1581 1.384 . S
H1584 C1590 0.930 . S
H1585 C1594 0.930 . S
H1586 C1599 0.929 . S
H1587 C1597 0.929 . S
H1588 C1592 0.929 . S
H1589 C1598 0.929 . S
C1590 H1584 0.930 . S
C1590 C1591 1.367 . S
C1590 C1598 1.378 . S
C1591 C1590 1.367 . S
C1591 C1599 1.433 . S
C1592 H1588 0.929 . S
C1592 C1594 1.378 . S
C1592 C1596 1.350 . S
C1593 C1596 1.463 . S
C1593 C1598 1.350 . S
C1593 N1601 1.427 . S
C1594 H1585 0.930 . S
C1594 C1592 1.378 . S
C1594 C1595 1.367 . S
C1595 C1594 1.367 . S
C1595 C1597 1.433 . S
C1596 C1592 1.350 . S
C1596 C1593 1.463 . S
C1596 N1600 1.427 . S
C1597 H1587 0.929 . S
C1597 C1595 1.433 . S
C1597 N1600 1.384 . S
C1598 H1589 0.929 . S
C1598 C1590 1.378 . S
C1598 C1593 1.350 . S
C1599 H1586 0.929 . S
C1599 C1591 1.433 . S
C1599 N1601 1.384 . S
N1600 C1596 1.427 . S
N1600 C1597 1.384 . S
N1601 C1593 1.427 . S
N1601 C1599 1.384 . S
H1602 C1608 0.930 . S
H1603 C1612 0.930 . S
H1604 C1617 0.929 . S
H1605 C1615 0.929 . S
H1606 C1610 0.929 . S
H1607 C1616 0.929 . S
C1608 H1602 0.930 . S
C1608 C1609 1.367 . S
C1608 C1616 1.378 1_655 S
C1609 C1608 1.367 . S
C1609 C1617 1.433 . S
C1610 H1606 0.929 . S
C1610 C1612 1.378 . S
C1610 C1614 1.350 . S
C1611 C1614 1.463 . S
C1611 C1616 1.350 . S
C1611 N1619 1.427 . S
C1612 H1603 0.930 . S
C1612 C1610 1.378 . S
C1612 C1613 1.367 . S
C1613 C1612 1.367 . S
C1613 C1615 1.433 . S
C1614 C1610 1.350 . S
C1614 C1611 1.463 . S
C1614 N1618 1.427 . S
C1615 H1605 0.929 . S
C1615 C1613 1.433 . S
C1615 N1618 1.384 . S
C1616 H1607 0.929 . S
C1616 C1608 1.378 1_455 S
C1616 C1611 1.350 . S
C1617 H1604 0.929 . S
C1617 C1609 1.433 . S
C1617 N1619 1.384 1_655 S
N1618 C1614 1.427 . S
N1618 C1615 1.384 . S
N1619 C1611 1.427 . S
N1619 C1617 1.384 1_455 S
H1620 C1626 0.930 . S
H1621 C1630 0.930 . S
H1622 C1635 0.929 . S
H1623 C1633 0.929 . S
H1624 C1628 0.929 . S
H1625 C1634 0.929 . S
C1626 H1620 0.930 . S
C1626 C1627 1.367 . S
C1626 C1634 1.378 . S
C1627 C1626 1.367 . S
C1627 C1635 1.433 . S
C1628 H1624 0.929 . S
C1628 C1630 1.378 . S
C1628 C1632 1.350 . S
C1629 C1632 1.463 . S
C1629 C1634 1.350 . S
C1629 N1637 1.427 . S
C1630 H1621 0.930 . S
C1630 C1628 1.378 . S
C1630 C1631 1.367 . S
C1631 C1630 1.367 . S
C1631 C1633 1.433 . S
C1632 C1628 1.350 . S
C1632 C1629 1.463 . S
C1632 N1636 1.427 . S
C1633 H1623 0.929 . S
C1633 C1631 1.433 . S
C1633 N1636 1.384 . S
C1634 H1625 0.929 . S
C1634 C1626 1.378 . S
C1634 C1629 1.350 . S
C1635 H1622 0.929 . S
C1635 C1627 1.433 . S
C1635 N1637 1.384 . S
N1636 C1632 1.427 . S
N1636 C1633 1.384 . S
N1637 C1629 1.427 . S
N1637 C1635 1.384 . S
H1638 C1644 0.930 . S
H1639 C1648 0.930 . S
H1640 C1653 0.929 . S
H1641 C1651 0.929 . S
H1642 C1646 0.929 . S
H1643 C1652 0.929 . S
C1644 H1638 0.930 . S
C1644 C1645 1.367 . S
C1644 C1652 1.378 . S
C1645 C1644 1.367 . S
C1645 C1653 1.433 . S
C1646 H1642 0.929 . S
C1646 C1648 1.378 . S
C1646 C1650 1.350 . S
C1647 C1650 1.463 . S
C1647 C1652 1.350 . S
C1647 N1655 1.427 . S
C1648 H1639 0.930 . S
C1648 C1646 1.378 . S
C1648 C1649 1.367 . S
C1649 C1648 1.367 . S
C1649 C1651 1.433 . S
C1650 C1646 1.350 . S
C1650 C1647 1.463 . S
C1650 N1654 1.427 . S
C1651 H1641 0.929 . S
C1651 C1649 1.433 . S
C1651 N1654 1.384 . S
C1652 H1643 0.929 . S
C1652 C1644 1.378 . S
C1652 C1647 1.350 . S
C1653 H1640 0.929 . S
C1653 C1645 1.433 . S
C1653 N1655 1.384 . S
N1654 C1650 1.427 . S
N1654 C1651 1.384 . S
N1655 C1647 1.427 . S
N1655 C1653 1.384 . S
H1656 C1662 0.930 . S
H1657 C1666 0.930 . S
H1658 C1671 0.929 . S
H1659 C1669 0.929 . S
H1660 C1664 0.929 . S
H1661 C1670 0.929 . S
C1662 H1656 0.930 . S
C1662 C1663 1.367 . S
C1662 C1670 1.378 . S
C1663 C1662 1.367 . S
C1663 C1671 1.433 . S
C1664 H1660 0.929 . S
C1664 C1666 1.378 . S
C1664 C1668 1.350 . S
C1665 C1668 1.463 . S
C1665 C1670 1.350 . S
C1665 N1673 1.427 . S
C1666 H1657 0.930 . S
C1666 C1664 1.378 . S
C1666 C1667 1.367 . S
C1667 C1666 1.367 . S
C1667 C1669 1.433 . S
C1668 C1664 1.350 . S
C1668 C1665 1.463 . S
C1668 N1672 1.427 . S
C1669 H1659 0.929 . S
C1669 C1667 1.433 . S
C1669 N1672 1.384 . S
C1670 H1661 0.929 . S
C1670 C1662 1.378 . S
C1670 C1665 1.350 . S
C1671 H1658 0.929 . S
C1671 C1663 1.433 . S
C1671 N1673 1.384 . S
N1672 C1668 1.427 . S
N1672 C1669 1.384 . S
N1673 C1665 1.427 . S
N1673 C1671 1.384 . S
H1674 C1680 0.930 . S
H1675 C1684 0.930 . S
H1676 C1689 0.929 . S
H1677 C1687 0.929 . S
H1678 C1682 0.929 . S
H1679 C1688 0.929 . S
C1680 H1674 0.930 . S
C1680 C1681 1.367 . S
C1680 C1688 1.378 . S
C1681 C1680 1.367 . S
C1681 C1689 1.433 . S
C1682 H1678 0.929 . S
C1682 C1684 1.378 . S
C1682 C1686 1.350 . S
C1683 C1686 1.463 . S
C1683 C1688 1.350 . S
C1683 N1691 1.427 . S
C1684 H1675 0.930 . S
C1684 C1682 1.378 . S
C1684 C1685 1.367 . S
C1685 C1684 1.367 . S
C1685 C1687 1.433 . S
C1686 C1682 1.350 . S
C1686 C1683 1.463 . S
C1686 N1690 1.427 . S
C1687 H1677 0.929 . S
C1687 C1685 1.433 . S
C1687 N1690 1.384 . S
C1688 H1679 0.929 . S
C1688 C1680 1.378 . S
C1688 C1683 1.350 . S
C1689 H1676 0.929 . S
C1689 C1681 1.433 . S
C1689 N1691 1.384 . S
N1690 C1686 1.427 . S
N1690 C1687 1.384 . S
N1691 C1683 1.427 . S
N1691 C1689 1.384 . S
H1692 C1698 0.930 . S
H1693 C1702 0.930 . S
H1694 C1707 0.929 . S
H1695 C1705 0.929 . S
H1696 C1700 0.929 . S
H1697 C1706 0.929 . S
C1698 H1692 0.930 . S
C1698 C1699 1.367 . S
C1698 C1706 1.378 . S
C1699 C1698 1.367 . S
C1699 C1707 1.433 . S
C1700 H1696 0.929 . S
C1700 C1702 1.378 . S
C1700 C1704 1.350 . S
C1701 C1704 1.463 . S
C1701 C1706 1.350 . S
C1701 N1709 1.427 . S
C1702 H1693 0.930 . S
C1702 C1700 1.378 . S
C1702 C1703 1.367 . S
C1703 C1702 1.367 . S
C1703 C1705 1.433 . S
C1704 C1700 1.350 . S
C1704 C1701 1.463 . S
C1704 N1708 1.427 . S
C1705 H1695 0.929 . S
C1705 C1703 1.433 . S
C1705 N1708 1.384 . S
C1706 H1697 0.929 . S
C1706 C1698 1.378 . S
C1706 C1701 1.350 . S
C1707 H1694 0.929 . S
C1707 C1699 1.433 . S
C1707 N1709 1.384 . S
N1708 C1704 1.427 . S
N1708 C1705 1.384 . S
N1709 C1701 1.427 . S
N1709 C1707 1.384 . S
H1710 C1716 0.930 . S
H1711 C1720 0.930 . S
H1712 C1725 0.929 . S
H1713 C1723 0.929 . S
H1714 C1718 0.929 . S
H1715 C1724 0.929 . S
C1716 H1710 0.930 . S
C1716 C1717 1.367 . S
C1716 C1724 1.378 . S
C1717 C1716 1.367 . S
C1717 C1725 1.433 . S
C1718 H1714 0.929 . S
C1718 C1720 1.378 1_455 S
C1718 C1722 1.350 . S
C1719 C1722 1.463 . S
C1719 C1724 1.350 . S
C1719 N1727 1.427 . S
C1720 H1711 0.930 . S
C1720 C1718 1.378 1_655 S
C1720 C1721 1.367 . S
C1721 C1720 1.367 . S
C1721 C1723 1.433 . S
C1722 C1718 1.350 . S
C1722 C1719 1.463 . S
C1722 N1726 1.427 . S
C1723 H1713 0.929 . S
C1723 C1721 1.433 . S
C1723 N1726 1.384 1_655 S
C1724 H1715 0.929 . S
C1724 C1716 1.378 . S
C1724 C1719 1.350 . S
C1725 H1712 0.929 . S
C1725 C1717 1.433 . S
C1725 N1727 1.384 . S
N1726 C1722 1.427 . S
N1726 C1723 1.384 1_455 S
N1727 C1719 1.427 . S
N1727 C1725 1.384 . S
H1728 C1734 0.930 . S
H1729 C1738 0.930 . S
H1730 C1743 0.929 . S
H1731 C1741 0.929 . S
H1732 C1736 0.929 . S
H1733 C1742 0.929 . S
C1734 H1728 0.930 . S
C1734 C1735 1.367 . S
C1734 C1742 1.378 . S
C1735 C1734 1.367 . S
C1735 C1743 1.433 . S
C1736 H1732 0.929 . S
C1736 C1738 1.378 . S
C1736 C1740 1.350 . S
C1737 C1740 1.463 . S
C1737 C1742 1.350 . S
C1737 N1745 1.427 . S
C1738 H1729 0.930 . S
C1738 C1736 1.378 . S
C1738 C1739 1.367 . S
C1739 C1738 1.367 . S
C1739 C1741 1.433 . S
C1740 C1736 1.350 . S
C1740 C1737 1.463 . S
C1740 N1744 1.427 . S
C1741 H1731 0.929 . S
C1741 C1739 1.433 . S
C1741 N1744 1.384 . S
C1742 H1733 0.929 . S
C1742 C1734 1.378 . S
C1742 C1737 1.350 . S
C1743 H1730 0.929 . S
C1743 C1735 1.433 . S
C1743 N1745 1.384 . S
N1744 C1740 1.427 . S
N1744 C1741 1.384 . S
N1745 C1737 1.427 . S
N1745 C1743 1.384 . S
H1746 C1752 0.930 . S
H1747 C1756 0.930 . S
H1748 C1761 0.929 . S
H1749 C1759 0.929 . S
H1750 C1754 0.929 . S
H1751 C1760 0.929 . S
C1752 H1746 0.930 . S
C1752 C1753 1.367 . S
C1752 C1760 1.378 . S
C1753 C1752 1.367 . S
C1753 C1761 1.433 . S
C1754 H1750 0.929 . S
C1754 C1756 1.378 . S
C1754 C1758 1.350 . S
C1755 C1758 1.463 . S
C1755 C1760 1.350 . S
C1755 N1763 1.427 . S
C1756 H1747 0.930 . S
C1756 C1754 1.378 . S
C1756 C1757 1.367 . S
C1757 C1756 1.367 . S
C1757 C1759 1.433 . S
C1758 C1754 1.350 . S
C1758 C1755 1.463 . S
C1758 N1762 1.427 . S
C1759 H1749 0.929 . S
C1759 C1757 1.433 . S
C1759 N1762 1.384 . S
C1760 H1751 0.929 . S
C1760 C1752 1.378 . S
C1760 C1755 1.350 . S
C1761 H1748 0.929 . S
C1761 C1753 1.433 . S
C1761 N1763 1.384 . S
N1762 C1758 1.427 . S
N1762 C1759 1.384 . S
N1763 C1755 1.427 . S
N1763 C1761 1.384 . S
H1764 C1770 0.930 . S
H1765 C1774 0.930 . S
H1766 C1779 0.929 . S
H1767 C1777 0.929 . S
H1768 C1772 0.929 . S
H1769 C1778 0.929 . S
C1770 H1764 0.930 . S
C1770 C1771 1.367 . S
C1770 C1778 1.378 . S
C1771 C1770 1.367 . S
C1771 C1779 1.433 . S
C1772 H1768 0.929 . S
C1772 C1774 1.378 . S
C1772 C1776 1.350 . S
C1773 C1776 1.463 . S
C1773 C1778 1.350 . S
C1773 N1781 1.427 . S
C1774 H1765 0.930 . S
C1774 C1772 1.378 . S
C1774 C1775 1.367 . S
C1775 C1774 1.367 . S
C1775 C1777 1.433 . S
C1776 C1772 1.350 . S
C1776 C1773 1.463 . S
C1776 N1780 1.427 . S
C1777 H1767 0.929 . S
C1777 C1775 1.433 . S
C1777 N1780 1.384 . S
C1778 H1769 0.929 . S
C1778 C1770 1.378 . S
C1778 C1773 1.350 . S
C1779 H1766 0.929 . S
C1779 C1771 1.433 . S
C1779 N1781 1.384 . S
N1780 C1776 1.427 . S
N1780 C1777 1.384 . S
N1781 C1773 1.427 . S
N1781 C1779 1.384 . S
H1782 C1788 0.930 . S
H1783 C1792 0.914 1_655 S
H1784 C1797 0.929 . S
H1785 C1795 0.929 . S
H1786 C1790 0.929 . S
H1787 C1796 0.929 . S
C1788 H1782 0.930 . S
C1788 C1789 1.367 . S
C1788 C1796 1.378 . S
C1789 C1788 1.367 . S
C1789 C1797 1.433 . S
C1790 H1786 0.929 . S
C1790 C1792 1.378 . S
C1790 C1794 1.350 . S
C1791 C1794 1.463 . S
C1791 C1796 1.350 . S
C1791 N1799 1.427 . S
C1792 H1783 0.914 1_455 S
C1792 C1790 1.378 . S
C1792 C1793 1.367 1_455 S
C1793 C1792 1.367 1_655 S
C1793 C1795 1.433 1_655 S
C1794 C1790 1.350 . S
C1794 C1791 1.463 . S
C1794 N1798 1.427 . S
C1795 H1785 0.929 . S
C1795 C1793 1.433 1_455 S
C1795 N1798 1.384 . S
C1796 H1787 0.929 . S
C1796 C1788 1.378 . S
C1796 C1791 1.350 . S
C1797 H1784 0.929 . S
C1797 C1789 1.433 . S
C1797 N1799 1.384 . S
N1798 C1794 1.427 . S
N1798 C1795 1.384 . S
N1799 C1791 1.427 . S
N1799 C1797 1.384 . S
H1800 C1806 0.930 . S
H1801 C1810 0.930 . S
H1802 C1815 0.929 . S
H1803 C1813 0.929 . S
H1804 C1808 0.929 . S
H1805 C1814 0.929 . S
C1806 H1800 0.930 . S
C1806 C1807 1.367 . S
C1806 C1814 1.378 . S
C1807 C1806 1.367 . S
C1807 C1815 1.433 . S
C1808 H1804 0.929 . S
C1808 C1810 1.378 . S
C1808 C1812 1.350 . S
C1809 C1812 1.463 . S
C1809 C1814 1.350 . S
C1809 N1817 1.427 . S
C1810 H1801 0.930 . S
C1810 C1808 1.378 . S
C1810 C1811 1.367 . S
C1811 C1810 1.367 . S
C1811 C1813 1.433 . S
C1812 C1808 1.350 . S
C1812 C1809 1.463 . S
C1812 N1816 1.427 . S
C1813 H1803 0.929 . S
C1813 C1811 1.433 . S
C1813 N1816 1.384 . S
C1814 H1805 0.929 . S
C1814 C1806 1.378 . S
C1814 C1809 1.350 . S
C1815 H1802 0.929 . S
C1815 C1807 1.433 . S
C1815 N1817 1.384 . S
N1816 C1812 1.427 . S
N1816 C1813 1.384 . S
N1817 C1809 1.427 . S
N1817 C1815 1.384 . S
H1818 C1824 0.930 . S
H1819 C1828 0.930 . S
H1820 C1833 0.929 . S
H1821 C1831 0.929 . S
H1822 C1826 0.929 . S
H1823 C1832 0.929 . S
C1824 H1818 0.930 . S
C1824 C1825 1.367 1_455 S
C1824 C1832 1.378 . S
C1825 C1824 1.367 1_655 S
C1825 C1833 1.433 . S
C1826 H1822 0.929 . S
C1826 C1828 1.378 . S
C1826 C1830 1.350 . S
C1827 C1830 1.463 . S
C1827 C1832 1.350 . S
C1827 N1835 1.427 . S
C1828 H1819 0.930 . S
C1828 C1826 1.378 . S
C1828 C1829 1.367 . S
C1829 C1828 1.367 . S
C1829 C1831 1.433 . S
C1830 C1826 1.350 . S
C1830 C1827 1.463 . S
C1830 N1834 1.427 . S
C1831 H1821 0.929 . S
C1831 C1829 1.433 . S
C1831 N1834 1.384 . S
C1832 H1823 0.929 . S
C1832 C1824 1.378 . S
C1832 C1827 1.350 . S
C1833 H1820 0.929 . S
C1833 C1825 1.433 . S
C1833 N1835 1.384 1_655 S
N1834 C1830 1.427 . S
N1834 C1831 1.384 . S
N1835 C1827 1.427 . S
N1835 C1833 1.384 1_455 S
H1836 C1842 0.930 . S
H1837 C1846 0.930 . S
H1838 C1851 0.929 . S
H1839 C1849 0.929 . S
H1840 C1844 0.929 . S
H1841 C1850 0.929 . S
C1842 H1836 0.930 . S
C1842 C1843 1.367 . S
C1842 C1850 1.378 . S
C1843 C1842 1.367 . S
C1843 C1851 1.433 . S
C1844 H1840 0.929 . S
C1844 C1846 1.378 . S
C1844 C1848 1.350 . S
C1845 C1848 1.463 . S
C1845 C1850 1.350 . S
C1845 N1853 1.427 . S
C1846 H1837 0.930 . S
C1846 C1844 1.378 . S
C1846 C1847 1.367 . S
C1847 C1846 1.367 . S
C1847 C1849 1.433 . S
C1848 C1844 1.350 . S
C1848 C1845 1.463 . S
C1848 N1852 1.427 . S
C1849 H1839 0.929 . S
C1849 C1847 1.433 . S
C1849 N1852 1.384 . S
C1850 H1841 0.929 . S
C1850 C1842 1.378 . S
C1850 C1845 1.350 . S
C1851 H1838 0.929 . S
C1851 C1843 1.433 . S
C1851 N1853 1.384 . S
N1852 C1848 1.427 . S
N1852 C1849 1.384 . S
N1853 C1845 1.427 . S
N1853 C1851 1.384 . S
H1854 C1860 0.930 . S
H1855 C1864 0.930 . S
H1856 C1869 0.929 . S
H1857 C1867 0.929 . S
H1858 C1862 0.929 . S
H1859 C1868 0.929 . S
C1860 H1854 0.930 . S
C1860 C1861 1.367 . S
C1860 C1868 1.378 . S
C1861 C1860 1.367 . S
C1861 C1869 1.433 . S
C1862 H1858 0.929 . S
C1862 C1864 1.378 . S
C1862 C1866 1.350 . S
C1863 C1866 1.463 . S
C1863 C1868 1.350 . S
C1863 N1871 1.427 . S
C1864 H1855 0.930 . S
C1864 C1862 1.378 . S
C1864 C1865 1.367 . S
C1865 C1864 1.367 . S
C1865 C1867 1.433 . S
C1866 C1862 1.350 . S
C1866 C1863 1.463 . S
C1866 N1870 1.427 . S
C1867 H1857 0.929 . S
C1867 C1865 1.433 . S
C1867 N1870 1.384 . S
C1868 H1859 0.929 . S
C1868 C1860 1.378 . S
C1868 C1863 1.350 . S
C1869 H1856 0.929 . S
C1869 C1861 1.433 . S
C1869 N1871 1.384 . S
N1870 C1866 1.427 . S
N1870 C1867 1.384 . S
N1871 C1863 1.427 . S
N1871 C1869 1.384 . S
H1872 C1878 0.930 . S
H1873 C1882 0.930 . S
H1874 C1887 0.929 . S
H1875 C1885 0.929 . S
H1876 C1880 0.929 . S
H1877 C1886 0.929 . S
C1878 H1872 0.930 . S
C1878 C1879 1.367 . S
C1878 C1886 1.378 . S
C1879 C1878 1.367 . S
C1879 C1887 1.433 . S
C1880 H1876 0.929 . S
C1880 C1882 1.378 . S
C1880 C1884 1.350 . S
C1881 C1884 1.463 . S
C1881 C1886 1.350 . S
C1881 N1889 1.427 . S
C1882 H1873 0.930 . S
C1882 C1880 1.378 . S
C1882 C1883 1.367 . S
C1883 C1882 1.367 . S
C1883 C1885 1.433 . S
C1884 C1880 1.350 . S
C1884 C1881 1.463 . S
C1884 N1888 1.427 . S
C1885 H1875 0.929 . S
C1885 C1883 1.433 . S
C1885 N1888 1.384 . S
C1886 H1877 0.929 . S
C1886 C1878 1.378 . S
C1886 C1881 1.350 . S
C1887 H1874 0.929 . S
C1887 C1879 1.433 . S
C1887 N1889 1.384 . S
N1888 C1884 1.427 . S
N1888 C1885 1.384 . S
N1889 C1881 1.427 . S
N1889 C1887 1.384 . S
H1890 C1896 0.930 . S
H1891 C1900 0.930 . S
H1892 C1905 0.929 . S
H1893 C1903 0.929 . S
H1894 C1898 0.929 . S
H1895 C1904 0.929 . S
C1896 H1890 0.930 . S
C1896 C1897 1.367 . S
C1896 C1904 1.378 . S
C1897 C1896 1.367 . S
C1897 C1905 1.433 . S
C1898 H1894 0.929 . S
C1898 C1900 1.378 . S
C1898 C1902 1.350 . S
C1899 C1902 1.463 . S
C1899 C1904 1.350 . S
C1899 N1907 1.427 . S
C1900 H1891 0.930 . S
C1900 C1898 1.378 . S
C1900 C1901 1.367 . S
C1901 C1900 1.367 . S
C1901 C1903 1.433 . S
C1902 C1898 1.350 . S
C1902 C1899 1.463 . S
C1902 N1906 1.427 . S
C1903 H1893 0.929 . S
C1903 C1901 1.433 . S
C1903 N1906 1.384 . S
C1904 H1895 0.929 . S
C1904 C1896 1.378 . S
C1904 C1899 1.350 . S
C1905 H1892 0.929 . S
C1905 C1897 1.433 . S
C1905 N1907 1.384 . S
N1906 C1902 1.427 . S
N1906 C1903 1.384 . S
N1907 C1899 1.427 . S
N1907 C1905 1.384 . S
H1908 C1914 0.930 . S
H1909 C1918 0.930 . S
H1910 C1923 0.929 . S
H1911 C1921 0.929 . S
H1912 C1916 0.929 . S
H1913 C1922 0.929 . S
C1914 H1908 0.930 . S
C1914 C1915 1.367 . S
C1914 C1922 1.378 . S
C1915 C1914 1.367 . S
C1915 C1923 1.433 . S
C1916 H1912 0.929 . S
C1916 C1918 1.378 . S
C1916 C1920 1.350 . S
C1917 C1920 1.463 . S
C1917 C1922 1.350 . S
C1917 N1925 1.427 . S
C1918 H1909 0.930 . S
C1918 C1916 1.378 . S
C1918 C1919 1.367 . S
C1919 C1918 1.367 . S
C1919 C1921 1.433 . S
C1920 C1916 1.350 . S
C1920 C1917 1.463 . S
C1920 N1924 1.427 . S
C1921 H1911 0.929 . S
C1921 C1919 1.433 . S
C1921 N1924 1.384 . S
C1922 H1913 0.929 . S
C1922 C1914 1.378 . S
C1922 C1917 1.350 . S
C1923 H1910 0.929 . S
C1923 C1915 1.433 . S
C1923 N1925 1.384 . S
N1924 C1920 1.427 . S
N1924 C1921 1.384 . S
N1925 C1917 1.427 . S
N1925 C1923 1.384 . S
H1926 C1932 0.930 . S
H1927 C1936 0.930 . S
H1928 C1941 0.929 . S
H1929 C1939 0.932 . S
H1930 C1934 0.929 . S
H1931 C1940 0.929 . S
C1932 H1926 0.930 . S
C1932 C1933 1.367 . S
C1932 C1940 1.378 . S
C1933 C1932 1.367 . S
C1933 C1941 1.433 . S
C1934 H1930 0.929 . S
C1934 C1936 1.378 1_655 S
C1934 C1938 1.350 . S
C1935 C1938 1.463 . S
C1935 C1940 1.350 . S
C1935 N1943 1.427 . S
C1936 H1927 0.930 . S
C1936 C1934 1.378 1_455 S
C1936 C1937 1.367 . S
C1937 C1936 1.367 . S
C1937 C1939 1.433 1_455 S
C1938 C1934 1.350 . S
C1938 C1935 1.463 . S
C1938 N1942 1.427 . S
C1939 H1929 0.932 . S
C1939 C1937 1.433 1_655 S
C1939 N1942 1.384 . S
C1940 H1931 0.929 . S
C1940 C1932 1.378 . S
C1940 C1935 1.350 . S
C1941 H1928 0.929 . S
C1941 C1933 1.433 . S
C1941 N1943 1.384 . S
N1942 C1938 1.427 . S
N1942 C1939 1.384 . S
N1943 C1935 1.427 . S
N1943 C1941 1.384 . S
H1944 C1950 0.930 . S
H1945 C1954 0.930 . S
H1946 C1959 0.929 . S
H1947 C1957 0.929 . S
H1948 C1952 0.929 . S
H1949 C1958 0.929 . S
C1950 H1944 0.930 . S
C1950 C1951 1.367 . S
C1950 C1958 1.378 . S
C1951 C1950 1.367 . S
C1951 C1959 1.433 . S
C1952 H1948 0.929 . S
C1952 C1954 1.378 . S
C1952 C1956 1.350 . S
C1953 C1956 1.463 . S
C1953 C1958 1.350 . S
C1953 N1961 1.427 . S
C1954 H1945 0.930 . S
C1954 C1952 1.378 . S
C1954 C1955 1.367 . S
C1955 C1954 1.367 . S
C1955 C1957 1.433 . S
C1956 C1952 1.350 . S
C1956 C1953 1.463 . S
C1956 N1960 1.427 . S
C1957 H1947 0.929 . S
C1957 C1955 1.433 . S
C1957 N1960 1.384 . S
C1958 H1949 0.929 . S
C1958 C1950 1.378 . S
C1958 C1953 1.350 . S
C1959 H1946 0.929 . S
C1959 C1951 1.433 . S
C1959 N1961 1.384 . S
N1960 C1956 1.427 . S
N1960 C1957 1.384 . S
N1961 C1953 1.427 . S
N1961 C1959 1.384 . S
H1962 C1968 0.930 . S
H1963 C1972 0.930 . S
H1964 C1977 0.929 . S
H1965 C1975 0.929 . S
H1966 C1970 0.929 . S
H1967 C1976 0.929 . S
C1968 H1962 0.930 . S
C1968 C1969 1.367 . S
C1968 C1976 1.378 1_455 S
C1969 C1968 1.367 . S
C1969 C1977 1.433 . S
C1970 H1966 0.929 . S
C1970 C1972 1.378 . S
C1970 C1974 1.350 . S
C1971 C1974 1.463 . S
C1971 C1976 1.350 . S
C1971 N1979 1.427 . S
C1972 H1963 0.930 . S
C1972 C1970 1.378 . S
C1972 C1973 1.367 . S
C1973 C1972 1.367 . S
C1973 C1975 1.433 . S
C1974 C1970 1.350 . S
C1974 C1971 1.463 . S
C1974 N1978 1.427 . S
C1975 H1965 0.929 . S
C1975 C1973 1.433 . S
C1975 N1978 1.384 . S
C1976 H1967 0.929 . S
C1976 C1968 1.378 1_655 S
C1976 C1971 1.350 . S
C1977 H1964 0.929 . S
C1977 C1969 1.433 . S
C1977 N1979 1.384 1_455 S
N1978 C1974 1.427 . S
N1978 C1975 1.384 . S
N1979 C1971 1.427 . S
N1979 C1977 1.384 1_655 S
H1980 C1986 0.930 . S
H1981 C1990 0.930 . S
H1982 C1995 0.929 . S
H1983 C1993 0.929 . S
H1984 C1988 0.929 . S
H1985 C1994 0.929 . S
C1986 H1980 0.930 . S
C1986 C1987 1.367 . S
C1986 C1994 1.378 . S
C1987 C1986 1.367 . S
C1987 C1995 1.433 . S
C1988 H1984 0.929 . S
C1988 C1990 1.378 . S
C1988 C1992 1.350 . S
C1989 C1992 1.463 . S
C1989 C1994 1.350 . S
C1989 N1997 1.427 . S
C1990 H1981 0.930 . S
C1990 C1988 1.378 . S
C1990 C1991 1.367 . S
C1991 C1990 1.367 . S
C1991 C1993 1.433 . S
C1992 C1988 1.350 . S
C1992 C1989 1.463 . S
C1992 N1996 1.427 . S
C1993 H1983 0.929 . S
C1993 C1991 1.433 . S
C1993 N1996 1.384 . S
C1994 H1985 0.929 . S
C1994 C1986 1.378 . S
C1994 C1989 1.350 . S
C1995 H1982 0.929 . S
C1995 C1987 1.433 . S
C1995 N1997 1.384 . S
N1996 C1992 1.427 . S
N1996 C1993 1.384 . S
N1997 C1989 1.427 . S
N1997 C1995 1.384 . S
H1998 C2004 0.930 . S
H1999 C2008 0.930 . S
H2000 C2013 0.929 . S
H2001 C2011 0.929 . S
H2002 C2006 0.929 . S
H2003 C2012 0.929 . S
C2004 H1998 0.930 . S
C2004 C2005 1.367 . S
C2004 C2012 1.378 . S
C2005 C2004 1.367 . S
C2005 C2013 1.433 . S
C2006 H2002 0.929 . S
C2006 C2008 1.378 . S
C2006 C2010 1.350 . S
C2007 C2010 1.463 . S
C2007 C2012 1.350 . S
C2007 N2015 1.427 . S
C2008 H1999 0.930 . S
C2008 C2006 1.378 . S
C2008 C2009 1.367 . S
C2009 C2008 1.367 . S
C2009 C2011 1.433 . S
C2010 C2006 1.350 . S
C2010 C2007 1.463 . S
C2010 N2014 1.427 . S
C2011 H2001 0.929 . S
C2011 C2009 1.433 . S
C2011 N2014 1.384 . S
C2012 H2003 0.929 . S
C2012 C2004 1.378 . S
C2012 C2007 1.350 . S
C2013 H2000 0.929 . S
C2013 C2005 1.433 . S
C2013 N2015 1.384 . S
N2014 C2010 1.427 . S
N2014 C2011 1.384 . S
N2015 C2007 1.427 . S
N2015 C2013 1.384 . S
H2016 C2022 0.930 . S
H2017 C2026 0.930 . S
H2018 C2031 0.929 . S
H2019 C2029 0.929 . S
H2020 C2024 0.929 . S
H2021 C2030 0.929 . S
C2022 H2016 0.930 . S
C2022 C2023 1.367 . S
C2022 C2030 1.378 . S
C2023 C2022 1.367 . S
C2023 C2031 1.433 . S
C2024 H2020 0.929 . S
C2024 C2026 1.378 . S
C2024 C2028 1.350 . S
C2025 C2028 1.463 . S
C2025 C2030 1.350 . S
C2025 N2033 1.427 . S
C2026 H2017 0.930 . S
C2026 C2024 1.378 . S
C2026 C2027 1.367 . S
C2027 C2026 1.367 . S
C2027 C2029 1.433 . S
C2028 C2024 1.350 . S
C2028 C2025 1.463 . S
C2028 N2032 1.427 . S
C2029 H2019 0.929 . S
C2029 C2027 1.433 . S
C2029 N2032 1.384 . S
C2030 H2021 0.929 . S
C2030 C2022 1.378 . S
C2030 C2025 1.350 . S
C2031 H2018 0.929 . S
C2031 C2023 1.433 . S
C2031 N2033 1.384 . S
N2032 C2028 1.427 . S
N2032 C2029 1.384 . S
N2033 C2025 1.427 . S
N2033 C2031 1.384 . S
H2034 C2040 0.930 . S
H2035 C2044 0.930 . S
H2036 C2049 0.929 . S
H2037 C2047 0.929 . S
H2038 C2042 0.929 . S
H2039 C2048 0.929 . S
C2040 H2034 0.930 . S
C2040 C2041 1.367 . S
C2040 C2048 1.378 . S
C2041 C2040 1.367 . S
C2041 C2049 1.433 . S
C2042 H2038 0.929 . S
C2042 C2044 1.378 . S
C2042 C2046 1.350 . S
C2043 C2046 1.463 . S
C2043 C2048 1.350 . S
C2043 N2051 1.427 . S
C2044 H2035 0.930 . S
C2044 C2042 1.378 . S
C2044 C2045 1.367 . S
C2045 C2044 1.367 . S
C2045 C2047 1.433 . S
C2046 C2042 1.350 . S
C2046 C2043 1.463 . S
C2046 N2050 1.427 . S
C2047 H2037 0.929 . S
C2047 C2045 1.433 . S
C2047 N2050 1.384 . S
C2048 H2039 0.929 . S
C2048 C2040 1.378 . S
C2048 C2043 1.350 . S
C2049 H2036 0.929 . S
C2049 C2041 1.433 . S
C2049 N2051 1.384 . S
N2050 C2046 1.427 . S
N2050 C2047 1.384 . S
N2051 C2043 1.427 . S
N2051 C2049 1.384 . S
H2052 C2058 0.930 . S
H2053 C2062 0.930 . S
H2054 C2067 0.929 . S
H2055 C2065 0.929 . S
H2056 C2060 0.929 . S
H2057 C2066 0.929 . S
C2058 H2052 0.930 . S
C2058 C2059 1.367 . S
C2058 C2066 1.378 . S
C2059 C2058 1.367 . S
C2059 C2067 1.433 . S
C2060 H2056 0.929 . S
C2060 C2062 1.378 . S
C2060 C2064 1.350 . S
C2061 C2064 1.463 . S
C2061 C2066 1.350 . S
C2061 N2069 1.427 . S
C2062 H2053 0.930 . S
C2062 C2060 1.378 . S
C2062 C2063 1.367 . S
C2063 C2062 1.367 . S
C2063 C2065 1.433 . S
C2064 C2060 1.350 . S
C2064 C2061 1.463 . S
C2064 N2068 1.427 . S
C2065 H2055 0.929 . S
C2065 C2063 1.433 . S
C2065 N2068 1.384 . S
C2066 H2057 0.929 . S
C2066 C2058 1.378 . S
C2066 C2061 1.350 . S
C2067 H2054 0.929 . S
C2067 C2059 1.433 . S
C2067 N2069 1.384 . S
N2068 C2064 1.427 . S
N2068 C2065 1.384 . S
N2069 C2061 1.427 . S
N2069 C2067 1.384 . S
H2070 C2076 0.930 . S
H2071 C2080 0.930 . S
H2072 C2085 0.916 1_554 S
H2073 C2083 0.916 1_556 S
H2074 C2078 0.929 . S
H2075 C2084 0.929 . S
C2076 H2070 0.930 . S
C2076 C2077 1.367 . S
C2076 C2084 1.378 . S
C2077 C2076 1.367 . S
C2077 C2085 1.433 . S
C2078 H2074 0.929 . S
C2078 C2080 1.378 . S
C2078 C2082 1.350 . S
C2079 C2082 1.463 1_556 S
C2079 C2084 1.350 . S
C2079 N2087 1.427 1_556 S
C2080 H2071 0.930 . S
C2080 C2078 1.378 . S
C2080 C2081 1.367 . S
C2081 C2080 1.367 . S
C2081 C2083 1.433 . S
C2082 C2078 1.350 . S
C2082 C2079 1.463 1_554 S
C2082 N2086 1.427 1_554 S
C2083 H2073 0.916 1_554 S
C2083 C2081 1.433 . S
C2083 N2086 1.384 1_554 S
C2084 H2075 0.929 . S
C2084 C2076 1.378 . S
C2084 C2079 1.350 . S
C2085 H2072 0.916 1_556 S
C2085 C2077 1.433 . S
C2085 N2087 1.384 1_556 S
N2086 C2082 1.427 1_556 S
N2086 C2083 1.384 1_556 S
N2087 C2079 1.427 1_554 S
N2087 C2085 1.384 1_554 S
H2088 C2094 0.930 . S
H2089 C2098 0.930 . S
H2090 C2103 0.929 . S
H2091 C2101 0.929 . S
H2092 C2096 0.929 . S
H2093 C2102 0.929 . S
C2094 H2088 0.930 . S
C2094 C2095 1.367 . S
C2094 C2102 1.378 . S
C2095 C2094 1.367 . S
C2095 C2103 1.433 . S
C2096 H2092 0.929 . S
C2096 C2098 1.378 . S
C2096 C2100 1.350 . S
C2097 C2100 1.463 . S
C2097 C2102 1.350 . S
C2097 N2105 1.427 . S
C2098 H2089 0.930 . S
C2098 C2096 1.378 . S
C2098 C2099 1.367 . S
C2099 C2098 1.367 . S
C2099 C2101 1.433 . S
C2100 C2096 1.350 . S
C2100 C2097 1.463 . S
C2100 N2104 1.427 . S
C2101 H2091 0.929 . S
C2101 C2099 1.433 . S
C2101 N2104 1.384 . S
C2102 H2093 0.929 . S
C2102 C2094 1.378 . S
C2102 C2097 1.350 . S
C2103 H2090 0.929 . S
C2103 C2095 1.433 . S
C2103 N2105 1.384 . S
N2104 C2100 1.427 . S
N2104 C2101 1.384 . S
N2105 C2097 1.427 . S
N2105 C2103 1.384 . S
H2106 C2112 0.930 . S
H2107 C2116 0.930 . S
H2108 C2121 0.929 . S
H2109 C2119 0.929 . S
H2110 C2114 0.929 . S
H2111 C2120 0.929 . S
C2112 H2106 0.930 . S
C2112 C2113 1.367 . S
C2112 C2120 1.378 . S
C2113 C2112 1.367 . S
C2113 C2121 1.433 . S
C2114 H2110 0.929 . S
C2114 C2116 1.378 . S
C2114 C2118 1.350 . S
C2115 C2118 1.463 . S
C2115 C2120 1.350 . S
C2115 N2123 1.427 . S
C2116 H2107 0.930 . S
C2116 C2114 1.378 . S
C2116 C2117 1.367 . S
C2117 C2116 1.367 . S
C2117 C2119 1.433 . S
C2118 C2114 1.350 . S
C2118 C2115 1.463 . S
C2118 N2122 1.427 . S
C2119 H2109 0.929 . S
C2119 C2117 1.433 . S
C2119 N2122 1.384 . S
C2120 H2111 0.929 . S
C2120 C2112 1.378 . S
C2120 C2115 1.350 . S
C2121 H2108 0.929 . S
C2121 C2113 1.433 . S
C2121 N2123 1.384 . S
N2122 C2118 1.427 . S
N2122 C2119 1.384 . S
N2123 C2115 1.427 . S
N2123 C2121 1.384 . S
H2124 C2130 0.930 . S
H2125 C2134 0.930 . S
H2126 C2139 0.929 . S
H2127 C2137 0.929 . S
H2128 C2132 0.929 . S
H2129 C2138 0.929 . S
C2130 H2124 0.930 . S
C2130 C2131 1.367 . S
C2130 C2138 1.378 . S
C2131 C2130 1.367 . S
C2131 C2139 1.433 . S
C2132 H2128 0.929 . S
C2132 C2134 1.378 . S
C2132 C2136 1.350 . S
C2133 C2136 1.463 . S
C2133 C2138 1.350 . S
C2133 N2141 1.427 . S
C2134 H2125 0.930 . S
C2134 C2132 1.378 . S
C2134 C2135 1.367 . S
C2135 C2134 1.367 . S
C2135 C2137 1.433 . S
C2136 C2132 1.350 . S
C2136 C2133 1.463 . S
C2136 N2140 1.427 . S
C2137 H2127 0.929 . S
C2137 C2135 1.433 . S
C2137 N2140 1.384 . S
C2138 H2129 0.929 . S
C2138 C2130 1.378 . S
C2138 C2133 1.350 . S
C2139 H2126 0.929 . S
C2139 C2131 1.433 . S
C2139 N2141 1.384 . S
N2140 C2136 1.427 . S
N2140 C2137 1.384 . S
N2141 C2133 1.427 . S
N2141 C2139 1.384 . S
H2142 C2148 0.912 1_556 S
H2143 C2152 0.912 1_554 S
H2144 C2157 0.929 . S
H2145 C2155 0.929 . S
H2146 C2150 0.929 . S
H2147 C2156 0.929 . S
C2148 H2142 0.912 1_554 S
C2148 C2149 1.400 . S
C2148 C2156 1.364 1_554 S
C2149 C2148 1.400 . S
C2149 C2157 1.433 . S
C2150 H2146 0.929 . S
C2150 C2152 1.364 1_554 S
C2150 C2154 1.350 1_554 S
C2151 C2154 1.463 1_554 S
C2151 C2156 1.350 1_554 S
C2151 N2159 1.427 . S
C2152 H2143 0.912 1_556 S
C2152 C2150 1.364 1_556 S
C2152 C2153 1.400 . S
C2153 C2152 1.400 . S
C2153 C2155 1.433 . S
C2154 C2150 1.350 1_556 S
C2154 C2151 1.463 1_556 S
C2154 N2158 1.427 . S
C2155 H2145 0.929 . S
C2155 C2153 1.433 . S
C2155 N2158 1.384 . S
C2156 H2147 0.929 . S
C2156 C2148 1.364 1_556 S
C2156 C2151 1.350 1_556 S
C2157 H2144 0.929 . S
C2157 C2149 1.433 . S
C2157 N2159 1.384 . S
N2158 C2154 1.427 . S
N2158 C2155 1.384 . S
N2159 C2151 1.427 . S
N2159 C2157 1.384 . S
H2160 C2166 0.930 . S
H2161 C2170 0.930 . S
H2162 C2175 0.929 . S
H2163 C2173 0.929 . S
H2164 C2168 0.929 . S
H2165 C2174 0.929 . S
C2166 H2160 0.930 . S
C2166 C2167 1.367 . S
C2166 C2174 1.378 . S
C2167 C2166 1.367 . S
C2167 C2175 1.433 . S
C2168 H2164 0.929 . S
C2168 C2170 1.378 . S
C2168 C2172 1.350 . S
C2169 C2172 1.463 1_565 S
C2169 C2174 1.350 . S
C2169 N2177 1.427 . S
C2170 H2161 0.930 . S
C2170 C2168 1.378 . S
C2170 C2171 1.367 . S
C2171 C2170 1.367 . S
C2171 C2173 1.433 . S
C2172 C2168 1.350 . S
C2172 C2169 1.463 1_545 S
C2172 N2176 1.427 . S
C2173 H2163 0.929 . S
C2173 C2171 1.433 . S
C2173 N2176 1.384 . S
C2174 H2165 0.929 . S
C2174 C2166 1.378 . S
C2174 C2169 1.350 . S
C2175 H2162 0.929 . S
C2175 C2167 1.433 . S
C2175 N2177 1.384 . S
N2176 C2172 1.427 . S
N2176 C2173 1.384 . S
N2177 C2169 1.427 . S
N2177 C2175 1.384 . S
H2178 C2184 0.930 . S
H2179 C2188 0.930 . S
H2180 C2193 0.929 . S
H2181 C2191 0.929 . S
H2182 C2186 0.929 . S
H2183 C2192 0.929 . S
C2184 H2178 0.930 . S
C2184 C2185 1.367 . S
C2184 C2192 1.378 1_554 S
C2185 C2184 1.367 . S
C2185 C2193 1.433 . S
C2186 H2182 0.929 . S
C2186 C2188 1.378 1_554 S
C2186 C2190 1.350 1_554 S
C2187 C2190 1.463 1_554 S
C2187 C2192 1.350 1_554 S
C2187 N2195 1.427 . S
C2188 H2179 0.930 . S
C2188 C2186 1.378 1_556 S
C2188 C2189 1.367 . S
C2189 C2188 1.367 . S
C2189 C2191 1.433 . S
C2190 C2186 1.350 1_556 S
C2190 C2187 1.463 1_556 S
C2190 N2194 1.427 . S
C2191 H2181 0.929 . S
C2191 C2189 1.433 . S
C2191 N2194 1.384 . S
C2192 H2183 0.929 . S
C2192 C2184 1.378 1_556 S
C2192 C2187 1.350 1_556 S
C2193 H2180 0.929 . S
C2193 C2185 1.433 . S
C2193 N2195 1.384 . S
N2194 C2190 1.427 . S
N2194 C2191 1.384 . S
N2195 C2187 1.427 . S
N2195 C2193 1.384 . S
H2196 C2202 0.930 . S
H2197 C2206 0.930 . S
H2198 C2211 0.929 . S
H2199 C2209 0.929 . S
H2200 C2204 0.929 . S
H2201 C2210 0.929 . S
C2202 H2196 0.930 . S
C2202 C2203 1.367 . S
C2202 C2210 1.378 . S
C2203 C2202 1.367 . S
C2203 C2211 1.433 . S
C2204 H2200 0.929 . S
C2204 C2206 1.378 . S
C2204 C2208 1.350 . S
C2205 C2208 1.463 1_545 S
C2205 C2210 1.350 . S
C2205 N2213 1.427 . S
C2206 H2197 0.930 . S
C2206 C2204 1.378 . S
C2206 C2207 1.367 . S
C2207 C2206 1.367 . S
C2207 C2209 1.433 . S
C2208 C2204 1.350 . S
C2208 C2205 1.463 1_565 S
C2208 N2212 1.427 . S
C2209 H2199 0.929 . S
C2209 C2207 1.433 . S
C2209 N2212 1.384 . S
C2210 H2201 0.929 . S
C2210 C2202 1.378 . S
C2210 C2205 1.350 . S
C2211 H2198 0.929 . S
C2211 C2203 1.433 . S
C2211 N2213 1.384 . S
N2212 C2208 1.427 . S
N2212 C2209 1.384 . S
N2213 C2205 1.427 . S
N2213 C2211 1.384 . S
H2214 C2220 0.930 . S
H2215 C2224 0.930 . S
H2216 C2229 0.929 . S
H2217 C2227 0.929 . S
H2218 C2222 0.929 . S
H2219 C2228 0.929 . S
C2220 H2214 0.930 . S
C2220 C2221 1.367 . S
C2220 C2228 1.378 . S
C2221 C2220 1.367 . S
C2221 C2229 1.433 . S
C2222 H2218 0.929 . S
C2222 C2224 1.378 . S
C2222 C2226 1.350 . S
C2223 C2226 1.463 . S
C2223 C2228 1.350 . S
C2223 N2231 1.427 . S
C2224 H2215 0.930 . S
C2224 C2222 1.378 . S
C2224 C2225 1.367 . S
C2225 C2224 1.367 . S
C2225 C2227 1.433 . S
C2226 C2222 1.350 . S
C2226 C2223 1.463 . S
C2226 N2230 1.427 . S
C2227 H2217 0.929 . S
C2227 C2225 1.433 . S
C2227 N2230 1.384 . S
C2228 H2219 0.929 . S
C2228 C2220 1.378 . S
C2228 C2223 1.350 . S
C2229 H2216 0.929 . S
C2229 C2221 1.433 . S
C2229 N2231 1.384 . S
N2230 C2226 1.427 . S
N2230 C2227 1.384 . S
N2231 C2223 1.427 . S
N2231 C2229 1.384 . S
H2232 C2238 0.930 . S
H2233 C2242 0.930 . S
H2234 C2247 0.929 . S
H2235 C2245 0.929 . S
H2236 C2240 0.929 . S
H2237 C2246 0.929 . S
C2238 H2232 0.930 . S
C2238 C2239 1.367 . S
C2238 C2246 1.378 . S
C2239 C2238 1.367 . S
C2239 C2247 1.433 . S
C2240 H2236 0.929 . S
C2240 C2242 1.378 . S
C2240 C2244 1.350 . S
C2241 C2244 1.463 1_545 S
C2241 C2246 1.350 . S
C2241 N2249 1.427 . S
C2242 H2233 0.930 . S
C2242 C2240 1.378 . S
C2242 C2243 1.367 . S
C2243 C2242 1.367 . S
C2243 C2245 1.433 . S
C2244 C2240 1.350 . S
C2244 C2241 1.463 1_565 S
C2244 N2248 1.427 . S
C2245 H2235 0.929 . S
C2245 C2243 1.433 . S
C2245 N2248 1.384 . S
C2246 H2237 0.929 . S
C2246 C2238 1.378 . S
C2246 C2241 1.350 . S
C2247 H2234 0.929 . S
C2247 C2239 1.433 . S
C2247 N2249 1.384 . S
N2248 C2244 1.427 . S
N2248 C2245 1.384 . S
N2249 C2241 1.427 . S
N2249 C2247 1.384 . S
H2250 C2256 0.930 . S
H2251 C2260 0.930 . S
H2252 C2265 0.929 . S
H2253 C2263 0.929 . S
H2254 C2258 0.932 . S
H2255 C2264 0.932 . S
C2256 H2250 0.930 . S
C2256 C2257 1.367 . S
C2256 C2264 1.378 . S
C2257 C2256 1.367 . S
C2257 C2265 1.433 . S
C2258 H2254 0.932 . S
C2258 C2260 1.378 . S
C2258 C2262 1.350 . S
C2259 C2262 1.463 1_554 S
C2259 C2264 1.350 . S
C2259 N2267 1.427 . S
C2260 H2251 0.930 . S
C2260 C2258 1.378 . S
C2260 C2261 1.367 . S
C2261 C2260 1.367 . S
C2261 C2263 1.433 . S
C2262 C2258 1.350 . S
C2262 C2259 1.463 1_556 S
C2262 N2266 1.427 . S
C2263 H2253 0.929 . S
C2263 C2261 1.433 . S
C2263 N2266 1.384 . S
C2264 H2255 0.932 . S
C2264 C2256 1.378 . S
C2264 C2259 1.350 . S
C2265 H2252 0.929 . S
C2265 C2257 1.433 . S
C2265 N2267 1.384 . S
N2266 C2262 1.427 . S
N2266 C2263 1.384 . S
N2267 C2259 1.427 . S
N2267 C2265 1.384 . S
H2268 C2274 0.930 . S
H2269 C2278 0.930 . S
H2270 C2283 0.929 . S
H2271 C2281 0.929 . S
H2272 C2276 0.929 . S
H2273 C2282 0.929 . S
C2274 H2268 0.930 . S
C2274 C2275 1.367 . S
C2274 C2282 1.378 . S
C2275 C2274 1.367 . S
C2275 C2283 1.433 . S
C2276 H2272 0.929 . S
C2276 C2278 1.378 . S
C2276 C2280 1.350 . S
C2277 C2280 1.463 1_545 S
C2277 C2282 1.350 . S
C2277 N2285 1.427 . S
C2278 H2269 0.930 . S
C2278 C2276 1.378 . S
C2278 C2279 1.367 . S
C2279 C2278 1.367 . S
C2279 C2281 1.433 . S
C2280 C2276 1.350 . S
C2280 C2277 1.463 1_565 S
C2280 N2284 1.427 . S
C2281 H2271 0.929 . S
C2281 C2279 1.433 . S
C2281 N2284 1.384 . S
C2282 H2273 0.929 . S
C2282 C2274 1.378 . S
C2282 C2277 1.350 . S
C2283 H2270 0.929 . S
C2283 C2275 1.433 . S
C2283 N2285 1.384 . S
N2284 C2280 1.427 . S
N2284 C2281 1.384 . S
N2285 C2277 1.427 . S
N2285 C2283 1.384 . S
H2286 C2292 0.930 . S
H2287 C2296 0.930 . S
H2288 C2301 0.929 . S
H2289 C2299 0.929 . S
H2290 C2294 0.929 . S
H2291 C2300 0.929 . S
C2292 H2286 0.930 . S
C2292 C2293 1.367 . S
C2292 C2300 1.378 . S
C2293 C2292 1.367 . S
C2293 C2301 1.433 . S
C2294 H2290 0.929 . S
C2294 C2296 1.378 . S
C2294 C2298 1.350 . S
C2295 C2298 1.463 . S
C2295 C2300 1.350 . S
C2295 N2303 1.427 . S
C2296 H2287 0.930 . S
C2296 C2294 1.378 . S
C2296 C2297 1.367 . S
C2297 C2296 1.367 . S
C2297 C2299 1.433 . S
C2298 C2294 1.350 . S
C2298 C2295 1.463 . S
C2298 N2302 1.427 . S
C2299 H2289 0.929 . S
C2299 C2297 1.433 . S
C2299 N2302 1.384 . S
C2300 H2291 0.929 . S
C2300 C2292 1.378 . S
C2300 C2295 1.350 . S
C2301 H2288 0.929 . S
C2301 C2293 1.433 . S
C2301 N2303 1.384 . S
N2302 C2298 1.427 . S
N2302 C2299 1.384 . S
N2303 C2295 1.427 . S
N2303 C2301 1.384 . S
C1159 C14 1.230 . S
C1163 C760 1.247 . S
C1177 C806 1.227 . S
C1181 C40 1.248 . S
C1195 C86 1.226 . S
C1199 C832 1.248 . S
C1213 C734 1.217 . S
C1217 C112 1.252 . S
C1231 C158 1.224 . S
C1235 C688 1.251 . S
C1249 C184 1.253 . S
C1253 C590 1.218 . S
C1267 C616 1.247 . S
C1271 C230 1.232 . S
C1285 C256 1.247 . S
C1289 C662 1.232 . S
C1303 C302 1.338 . S
C1307 C1058 1.336 . S
C1321 C338 1.332 . S
C1325 C1094 1.336 . S
C1339 C1130 1.331 . S
C1343 C374 1.332 . S
C1357 C1022 1.326 . S
C1361 C410 1.324 . S
C1375 C446 1.338 . S
C1379 C986 1.336 . S
C1393 C878 1.326 . S
C1397 C482 1.324 . S
C1411 C518 1.329 . S
C1415 C914 1.326 . S
C1429 C950 1.338 . S
C1433 C554 1.336 . S
C1447 C3 1.396 . S
C1451 C326 1.405 . S
C1465 C38 1.334 . S
C1469 C938 1.372 . S
C1483 C398 1.408 . S
C1487 C75 1.392 . S
C1501 C110 1.334 . S
C1505 C866 1.373 . S
C1519 C147 1.397 . S
C1523 C542 1.404 . S
C1537 C1010 1.375 . S
C1541 C182 1.318 . S
C1555 C470 1.403 . S
C1559 C219 1.397 . S
C1573 C1082 1.378 . S
C1577 C254 1.328 . S
C1591 C291 1.254 . S
C1595 C39 1.269 . S
C1609 C650 1.226 . S
C1613 C327 1.225 . S
C1627 C111 1.266 . S
C1631 C363 1.255 . S
C1645 C399 1.227 . S
C1649 C578 1.222 . S
C1663 C255 1.268 . S
C1667 C435 1.262 . S
C1681 C722 1.225 . S
C1685 C471 1.226 . S
C1699 C183 1.269 . S
C1703 C507 1.260 . S
C1717 C543 1.221 . S
C1721 C794 1.229 . S
C1735 C902 1.401 . S
C1739 C579 1.393 . S
C1753 C362 1.371 . S
C1757 C614 1.331 . S
C1771 C974 1.407 . S
C1775 C651 1.386 . S
C1789 C686 1.330 . S
C1793 C290 1.377 . S
C1807 C1118 1.405 . S
C1811 C723 1.387 . S
C1825 C434 1.379 . S
C1829 C758 1.316 . S
C1843 C1046 1.408 . S
C1847 C795 1.387 . S
C1861 C830 1.332 . S
C1865 C506 1.376 . S
C1879 C867 1.261 . S
C1883 C615 1.265 . S
C1897 C74 1.223 . S
C1901 C903 1.223 . S
C1915 C939 1.262 . S
C1919 C687 1.266 . S
C1933 C975 1.227 . S
C1937 C2 1.223 . S
C1951 C1011 1.253 . S
C1955 C831 1.268 . S
C1969 C146 1.225 . S
C1973 C1047 1.220 . S
C1987 C759 1.265 . S
C1991 C1083 1.257 . S
C2005 C1119 1.221 . S
C2009 C218 1.229 . S
C2023 C4 1.285 . S
C2027 C148 1.293 . S
C2041 C50 1.213 . S
C2045 C194 1.213 . S
C2059 C220 1.300 . S
C2063 C76 1.292 . S
C2077 C266 1.234 . S
C2081 C122 1.227 . S
C2095 C436 1.212 . S
C2099 C292 1.206 . S
C2113 C472 1.228 . S
C2117 C328 1.233 . S
C2131 C508 1.208 . S
C2135 C364 1.212 . S
C2149 C544 1.229 . S
C2153 C400 1.231 . S
C2167 C580 1.287 . S
C2171 C724 1.285 . S
C2185 C626 1.212 . S
C2189 C770 1.221 . S
C2203 C652 1.285 . S
C2207 C796 1.290 . S
C2221 C842 1.211 . S
C2225 C698 1.216 . S
C2239 C868 1.210 . S
C2243 C1012 1.212 . S
C2257 C1048 1.240 . S
C2261 C904 1.231 . S
C2275 C1084 1.206 . S
C2279 C940 1.212 . S
C2293 C1120 1.238 . S
C2297 C976 1.230 . S
