# Generated by pormake.
# Topology ato, (4)-cn, num edge types: 1
# Building blocks:
#     Node 0, Type 0, BuildingBlock: QUQFOY_clean_sbu_1, # of connection points: 4
#     Node 1, Type 0, BuildingBlock: QUQFOY_clean_sbu_1, # of connection points: 4
#     Node 2, Type 0, BuildingBlock: QUQFOY_clean_sbu_1, # of connection points: 4
#     Node 3, Type 0, BuildingBlock: QUQFOY_clean_sbu_1, # of connection points: 4
#     Node 4, Type 0, BuildingBlock: QUQFOY_clean_sbu_1, # of connection points: 4
#     Node 5, Type 0, BuildingBlock: QUQFOY_clean_sbu_1, # of connection points: 4
#     Node 6, Type 0, BuildingBlock: QUQFOY_clean_sbu_1, # of connection points: 4
#     Node 7, Type 0, BuildingBlock: QUQFOY_clean_sbu_1, # of connection points: 4
#     Node 8, Type 0, BuildingBlock: QUQFOY_clean_sbu_1, # of connection points: 4
#     Node 9, Type 0, BuildingBlock: QUQFOY_clean_sbu_1, # of connection points: 4
#     Node 10, Type 0, BuildingBlock: QUQFOY_clean_sbu_1, # of connection points: 4
#     Node 11, Type 0, BuildingBlock: QUQFOY_clean_sbu_1, # of connection points: 4
#     Node 12, Type 0, BuildingBlock: QUQFOY_clean_sbu_1, # of connection points: 4
#     Node 13, Type 0, BuildingBlock: QUQFOY_clean_sbu_1, # of connection points: 4
#     Node 14, Type 0, BuildingBlock: QUQFOY_clean_sbu_1, # of connection points: 4
#     Node 15, Type 0, BuildingBlock: QUQFOY_clean_sbu_1, # of connection points: 4
#     Node 16, Type 0, BuildingBlock: QUQFOY_clean_sbu_1, # of connection points: 4
#     Node 17, Type 0, BuildingBlock: QUQFOY_clean_sbu_1, # of connection points: 4
#     Node 18, Type 0, BuildingBlock: QUQFOY_clean_sbu_1, # of connection points: 4
#     Node 19, Type 0, BuildingBlock: QUQFOY_clean_sbu_1, # of connection points: 4
#     Node 20, Type 0, BuildingBlock: QUQFOY_clean_sbu_1, # of connection points: 4
#     Node 21, Type 0, BuildingBlock: QUQFOY_clean_sbu_1, # of connection points: 4
#     Node 22, Type 0, BuildingBlock: QUQFOY_clean_sbu_1, # of connection points: 4
#     Node 23, Type 0, BuildingBlock: QUQFOY_clean_sbu_1, # of connection points: 4
#     Node 24, Type 0, BuildingBlock: QUQFOY_clean_sbu_1, # of connection points: 4
#     Node 25, Type 0, BuildingBlock: QUQFOY_clean_sbu_1, # of connection points: 4
#     Node 26, Type 0, BuildingBlock: QUQFOY_clean_sbu_1, # of connection points: 4
#     Node 27, Type 0, BuildingBlock: QUQFOY_clean_sbu_1, # of connection points: 4
#     Node 28, Type 0, BuildingBlock: QUQFOY_clean_sbu_1, # of connection points: 4
#     Node 29, Type 0, BuildingBlock: QUQFOY_clean_sbu_1, # of connection points: 4
#     Node 30, Type 0, BuildingBlock: QUQFOY_clean_sbu_1, # of connection points: 4
#     Node 31, Type 0, BuildingBlock: QUQFOY_clean_sbu_1, # of connection points: 4
#     Node 32, Type 0, BuildingBlock: QUQFOY_clean_sbu_1, # of connection points: 4
#     Node 33, Type 0, BuildingBlock: QUQFOY_clean_sbu_1, # of connection points: 4
#     Node 34, Type 0, BuildingBlock: QUQFOY_clean_sbu_1, # of connection points: 4
#     Node 35, Type 0, BuildingBlock: QUQFOY_clean_sbu_1, # of connection points: 4
#     Edge 36, Type (0, 0), BuildingBlock: ZUJKAS_clean_linker_0, # of connection points: 2
#     Edge 37, Type (0, 0), BuildingBlock: ZUJKAS_clean_linker_0, # of connection points: 2
#     Edge 38, Type (0, 0), BuildingBlock: ZUJKAS_clean_linker_0, # of connection points: 2
#     Edge 39, Type (0, 0), BuildingBlock: ZUJKAS_clean_linker_0, # of connection points: 2
#     Edge 40, Type (0, 0), BuildingBlock: ZUJKAS_clean_linker_0, # of connection points: 2
#     Edge 41, Type (0, 0), BuildingBlock: ZUJKAS_clean_linker_0, # of connection points: 2
#     Edge 42, Type (0, 0), BuildingBlock: ZUJKAS_clean_linker_0, # of connection points: 2
#     Edge 43, Type (0, 0), BuildingBlock: ZUJKAS_clean_linker_0, # of connection points: 2
#     Edge 44, Type (0, 0), BuildingBlock: ZUJKAS_clean_linker_0, # of connection points: 2
#     Edge 45, Type (0, 0), BuildingBlock: ZUJKAS_clean_linker_0, # of connection points: 2
#     Edge 46, Type (0, 0), BuildingBlock: ZUJKAS_clean_linker_0, # of connection points: 2
#     Edge 47, Type (0, 0), BuildingBlock: ZUJKAS_clean_linker_0, # of connection points: 2
#     Edge 48, Type (0, 0), BuildingBlock: ZUJKAS_clean_linker_0, # of connection points: 2
#     Edge 49, Type (0, 0), BuildingBlock: ZUJKAS_clean_linker_0, # of connection points: 2
#     Edge 50, Type (0, 0), BuildingBlock: ZUJKAS_clean_linker_0, # of connection points: 2
#     Edge 51, Type (0, 0), BuildingBlock: ZUJKAS_clean_linker_0, # of connection points: 2
#     Edge 52, Type (0, 0), BuildingBlock: ZUJKAS_clean_linker_0, # of connection points: 2
#     Edge 53, Type (0, 0), BuildingBlock: ZUJKAS_clean_linker_0, # of connection points: 2
#     Edge 54, Type (0, 0), BuildingBlock: ZUJKAS_clean_linker_0, # of connection points: 2
#     Edge 55, Type (0, 0), BuildingBlock: ZUJKAS_clean_linker_0, # of connection points: 2
#     Edge 56, Type (0, 0), BuildingBlock: ZUJKAS_clean_linker_0, # of connection points: 2
#     Edge 57, Type (0, 0), BuildingBlock: ZUJKAS_clean_linker_0, # of connection points: 2
#     Edge 58, Type (0, 0), BuildingBlock: ZUJKAS_clean_linker_0, # of connection points: 2
#     Edge 59, Type (0, 0), BuildingBlock: ZUJKAS_clean_linker_0, # of connection points: 2
#     Edge 60, Type (0, 0), BuildingBlock: ZUJKAS_clean_linker_0, # of connection points: 2
#     Edge 61, Type (0, 0), BuildingBlock: ZUJKAS_clean_linker_0, # of connection points: 2
#     Edge 62, Type (0, 0), BuildingBlock: ZUJKAS_clean_linker_0, # of connection points: 2
#     Edge 63, Type (0, 0), BuildingBlock: ZUJKAS_clean_linker_0, # of connection points: 2
#     Edge 64, Type (0, 0), BuildingBlock: ZUJKAS_clean_linker_0, # of connection points: 2
#     Edge 65, Type (0, 0), BuildingBlock: ZUJKAS_clean_linker_0, # of connection points: 2
#     Edge 66, Type (0, 0), BuildingBlock: ZUJKAS_clean_linker_0, # of connection points: 2
#     Edge 67, Type (0, 0), BuildingBlock: ZUJKAS_clean_linker_0, # of connection points: 2
#     Edge 68, Type (0, 0), BuildingBlock: ZUJKAS_clean_linker_0, # of connection points: 2
#     Edge 69, Type (0, 0), BuildingBlock: ZUJKAS_clean_linker_0, # of connection points: 2
#     Edge 70, Type (0, 0), BuildingBlock: ZUJKAS_clean_linker_0, # of connection points: 2
#     Edge 71, Type (0, 0), BuildingBlock: ZUJKAS_clean_linker_0, # of connection points: 2
#     Edge 72, Type (0, 0), BuildingBlock: ZUJKAS_clean_linker_0, # of connection points: 2
#     Edge 73, Type (0, 0), BuildingBlock: ZUJKAS_clean_linker_0, # of connection points: 2
#     Edge 74, Type (0, 0), BuildingBlock: ZUJKAS_clean_linker_0, # of connection points: 2
#     Edge 75, Type (0, 0), BuildingBlock: ZUJKAS_clean_linker_0, # of connection points: 2
#     Edge 76, Type (0, 0), BuildingBlock: ZUJKAS_clean_linker_0, # of connection points: 2
#     Edge 77, Type (0, 0), BuildingBlock: ZUJKAS_clean_linker_0, # of connection points: 2
#     Edge 78, Type (0, 0), BuildingBlock: ZUJKAS_clean_linker_0, # of connection points: 2
#     Edge 79, Type (0, 0), BuildingBlock: ZUJKAS_clean_linker_0, # of connection points: 2
#     Edge 80, Type (0, 0), BuildingBlock: ZUJKAS_clean_linker_0, # of connection points: 2
#     Edge 81, Type (0, 0), BuildingBlock: ZUJKAS_clean_linker_0, # of connection points: 2
#     Edge 82, Type (0, 0), BuildingBlock: ZUJKAS_clean_linker_0, # of connection points: 2
#     Edge 83, Type (0, 0), BuildingBlock: ZUJKAS_clean_linker_0, # of connection points: 2
#     Edge 84, Type (0, 0), BuildingBlock: ZUJKAS_clean_linker_0, # of connection points: 2
#     Edge 85, Type (0, 0), BuildingBlock: ZUJKAS_clean_linker_0, # of connection points: 2
#     Edge 86, Type (0, 0), BuildingBlock: ZUJKAS_clean_linker_0, # of connection points: 2
#     Edge 87, Type (0, 0), BuildingBlock: ZUJKAS_clean_linker_0, # of connection points: 2
#     Edge 88, Type (0, 0), BuildingBlock: ZUJKAS_clean_linker_0, # of connection points: 2
#     Edge 89, Type (0, 0), BuildingBlock: ZUJKAS_clean_linker_0, # of connection points: 2
#     Edge 90, Type (0, 0), BuildingBlock: ZUJKAS_clean_linker_0, # of connection points: 2
#     Edge 91, Type (0, 0), BuildingBlock: ZUJKAS_clean_linker_0, # of connection points: 2
#     Edge 92, Type (0, 0), BuildingBlock: ZUJKAS_clean_linker_0, # of connection points: 2
#     Edge 93, Type (0, 0), BuildingBlock: ZUJKAS_clean_linker_0, # of connection points: 2
#     Edge 94, Type (0, 0), BuildingBlock: ZUJKAS_clean_linker_0, # of connection points: 2
#     Edge 95, Type (0, 0), BuildingBlock: ZUJKAS_clean_linker_0, # of connection points: 2
#     Edge 96, Type (0, 0), BuildingBlock: ZUJKAS_clean_linker_0, # of connection points: 2
#     Edge 97, Type (0, 0), BuildingBlock: ZUJKAS_clean_linker_0, # of connection points: 2
#     Edge 98, Type (0, 0), BuildingBlock: ZUJKAS_clean_linker_0, # of connection points: 2
#     Edge 99, Type (0, 0), BuildingBlock: ZUJKAS_clean_linker_0, # of connection points: 2
#     Edge 100, Type (0, 0), BuildingBlock: ZUJKAS_clean_linker_0, # of connection points: 2
#     Edge 101, Type (0, 0), BuildingBlock: ZUJKAS_clean_linker_0, # of connection points: 2
#     Edge 102, Type (0, 0), BuildingBlock: ZUJKAS_clean_linker_0, # of connection points: 2
#     Edge 103, Type (0, 0), BuildingBlock: ZUJKAS_clean_linker_0, # of connection points: 2
#     Edge 104, Type (0, 0), BuildingBlock: ZUJKAS_clean_linker_0, # of connection points: 2
#     Edge 105, Type (0, 0), BuildingBlock: ZUJKAS_clean_linker_0, # of connection points: 2
#     Edge 106, Type (0, 0), BuildingBlock: ZUJKAS_clean_linker_0, # of connection points: 2
#     Edge 107, Type (0, 0), BuildingBlock: ZUJKAS_clean_linker_0, # of connection points: 2
# Relax obj value: 0.076
# Max RMSD: 0.152
# Mean RMSD: 0.152
data_MOF--net-ato--node1-QUQFOY_clean_sbu_1--edge1-ZUJKAS_clean_linker_0
_symmetry_space_group_name_H-M    P1
_symmetry_Int_Tables_number       1
_symmetry_cell_setting            triclinic
loop_
_symmetry_equiv_pos_as_xyz
'x, y, z'
_cell_length_a     141.86752
_cell_length_b     141.8881
_cell_length_c     31.131712
_cell_angle_alpha  90.002976
_cell_angle_beta   89.996108
_cell_angle_gamma 120.01408
loop_
_atom_site_label
_atom_site_type_symbol
_atom_site_fract_x
_atom_site_fract_y
_atom_site_fract_z
_atom_type_partial_charge
O0 O 0.24988 0.03708 0.19964 0.0
Cd1 Cd 0.25794 0.04607 0.25319 0.0
Cd2 Cd 0.25507 0.0616 0.20695 0.0
O3 O 0.24506 0.04817 0.17007 0.0
O4 O 0.25804 0.03485 0.29139 0.0
O5 O 0.24942 0.04368 0.30814 0.0
C6 C 0.2519 0.03633 0.3177 0.0
C7 C 0.2496 0.07443 0.22003 0.0
C8 C 0.24476 0.03907 0.17087 0.0
C9 C 0.27802 0.06576 0.22109 0.0
O10 O 0.2717 0.06814 0.20084 0.0
O11 O 0.27417 0.05769 0.24663 0.0
O12 O 0.25274 0.07325 0.18262 0.0
O13 O 0.24931 0.06809 0.25041 0.0
O14 O 0.96469 0.21001 0.20027 0.0
Cd15 Cd 0.95539 0.21059 0.25007 0.0
Cd16 Cd 0.93946 0.19236 0.20153 0.0
O17 O 0.95285 0.19518 0.16576 0.0
O18 O 0.96691 0.22245 0.28552 0.0
O19 O 0.95697 0.20562 0.3093 0.0
C20 C 0.96479 0.21545 0.31563 0.0
C21 C 0.92632 0.17431 0.21681 0.0
C22 C 0.96244 0.20318 0.1701 0.0
C23 C 0.93654 0.21199 0.21208 0.0
O24 O 0.93358 0.20293 0.19372 0.0
O25 O 0.94464 0.21611 0.23753 0.0
O26 O 0.92751 0.17833 0.17879 0.0
O27 O 0.93278 0.18053 0.24658 0.0
O28 O 0.7928 0.75627 0.20021 0.0
Cd29 Cd 0.7914 0.7462 0.2504 0.0
Cd30 Cd 0.81002 0.74798 0.20448 0.0
O31 O 0.80742 0.75839 0.16647 0.0
O32 O 0.77946 0.74631 0.28368 0.0
O33 O 0.79597 0.75257 0.3101 0.0
C34 C 0.78622 0.75095 0.31472 0.0
C35 C 0.82806 0.75252 0.21794 0.0
C36 C 0.7997 0.76044 0.17003 0.0
C37 C 0.78982 0.72562 0.21514 0.0
O38 O 0.79926 0.73149 0.1992 0.0
O39 O 0.78542 0.72987 0.23761 0.0
O40 O 0.82367 0.74937 0.18065 0.0
O41 O 0.82225 0.75336 0.24799 0.0
O42 O 0.03714 0.24569 0.80018 0.0
Cd43 Cd 0.04558 0.2554 0.74884 0.0
Cd44 Cd 0.06262 0.25367 0.79379 0.0
O45 O 0.04973 0.24355 0.83302 0.0
O46 O 0.03341 0.25519 0.71606 0.0
O47 O 0.04346 0.2487 0.68964 0.0
C48 C 0.03535 0.25036 0.68523 0.0
C49 C 0.07593 0.24887 0.78016 0.0
C50 C 0.03999 0.24161 0.83035 0.0
C51 C 0.06491 0.27606 0.78178 0.0
O52 O 0.06849 0.27021 0.79772 0.0
O53 O 0.05613 0.27177 0.76012 0.0
O54 O 0.07491 0.25226 0.81727 0.0
O55 O 0.06919 0.24797 0.7504 0.0
O56 O 0.75573 0.79144 0.80072 0.0
Cd57 Cd 0.74596 0.79063 0.75008 0.0
Cd58 Cd 0.74789 0.80892 0.79783 0.0
O59 O 0.75854 0.80635 0.83411 0.0
O60 O 0.74591 0.7788 0.71541 0.0
O61 O 0.75265 0.79556 0.69106 0.0
C62 C 0.75078 0.78576 0.68519 0.0
C63 C 0.75229 0.82691 0.78416 0.0
C64 C 0.76023 0.79839 0.83058 0.0
C65 C 0.72548 0.78901 0.78642 0.0
O66 O 0.73146 0.79809 0.80483 0.0
O67 O 0.72961 0.78495 0.76144 0.0
O68 O 0.74942 0.82263 0.82176 0.0
O69 O 0.75293 0.82102 0.75392 0.0
O70 O 0.21325 0.96399 0.79819 0.0
Cd71 Cd 0.21217 0.95479 0.74514 0.0
Cd72 Cd 0.19369 0.93962 0.79074 0.0
O73 O 0.19722 0.95313 0.82731 0.0
O74 O 0.22349 0.9658 0.70631 0.0
O75 O 0.20599 0.95704 0.69007 0.0
C76 C 0.21584 0.9643 0.6801 0.0
C77 C 0.17538 0.92716 0.7761 0.0
C78 C 0.20611 0.96214 0.82663 0.0
C79 C 0.21221 0.93503 0.77835 0.0
O80 O 0.20349 0.93279 0.79816 0.0
O81 O 0.21658 0.94305 0.75262 0.0
O82 O 0.17943 0.92821 0.81398 0.0
O83 O 0.18172 0.9334 0.74609 0.0
O84 O 0.7541 0.96552 0.80018 0.0
Cd85 Cd 0.74522 0.95669 0.74782 0.0
Cd86 Cd 0.74766 0.94044 0.79211 0.0
O87 O 0.75807 0.95373 0.82912 0.0
O88 O 0.7454 0.96812 0.7101 0.0
O89 O 0.75304 0.95845 0.69155 0.0
C90 C 0.75098 0.96613 0.68267 0.0
C91 C 0.75239 0.92701 0.78 0.0
C92 C 0.75901 0.96312 0.82846 0.0
C93 C 0.72492 0.93728 0.78036 0.0
O94 O 0.73107 0.93427 0.79795 0.0
O95 O 0.72891 0.94574 0.75688 0.0
O96 O 0.74938 0.92847 0.81719 0.0
O97 O 0.75305 0.93343 0.74929 0.0
O98 O 0.03887 0.7915 0.79883 0.0
Cd99 Cd 0.04829 0.7919 0.74756 0.0
Cd100 Cd 0.06381 0.80991 0.79614 0.0
O101 O 0.05042 0.80652 0.83304 0.0
O102 O 0.0372 0.78031 0.70987 0.0
O103 O 0.04632 0.79759 0.69059 0.0
C104 C 0.03893 0.7877 0.68197 0.0
C105 C 0.07643 0.82808 0.78039 0.0
C106 C 0.04099 0.79822 0.82933 0.0
C107 C 0.06761 0.79097 0.78281 0.0
O108 O 0.07025 0.79979 0.80258 0.0
O109 O 0.05953 0.78686 0.75726 0.0
O110 O 0.07553 0.82413 0.81839 0.0
O111 O 0.06994 0.82173 0.75097 0.0
O112 O 0.21179 0.24707 0.80056 0.0
Cd113 Cd 0.21303 0.25672 0.74902 0.0
Cd114 Cd 0.19422 0.25499 0.79316 0.0
O115 O 0.19692 0.24486 0.83249 0.0
O116 O 0.22487 0.2564 0.71575 0.0
O117 O 0.20825 0.24991 0.69009 0.0
C118 C 0.218 0.25153 0.68525 0.0
C119 C 0.17605 0.25004 0.77962 0.0
C120 C 0.20477 0.24296 0.83038 0.0
C121 C 0.21436 0.27739 0.78156 0.0
O122 O 0.20488 0.27154 0.79725 0.0
O123 O 0.21887 0.2731 0.76008 0.0
O124 O 0.18048 0.2535 0.81666 0.0
O125 O 0.18193 0.24923 0.74978 0.0
O126 O 0.96628 0.75406 0.20186 0.0
Cd127 Cd 0.95734 0.74499 0.25374 0.0
Cd128 Cd 0.94105 0.7472 0.20811 0.0
O129 O 0.9542 0.75711 0.16966 0.0
O130 O 0.96875 0.74501 0.29107 0.0
O131 O 0.95913 0.75263 0.31055 0.0
C132 C 0.96679 0.75051 0.31898 0.0
C133 C 0.92789 0.75227 0.22038 0.0
C134 C 0.96374 0.75846 0.1719 0.0
C135 C 0.93786 0.72454 0.2212 0.0
O136 O 0.93473 0.7306 0.20375 0.0
O137 O 0.94643 0.72863 0.24411 0.0
O138 O 0.9291 0.74898 0.18337 0.0
O139 O 0.93442 0.75301 0.25078 0.0
O140 O 0.24626 0.20923 0.20037 0.0
Cd141 Cd 0.25623 0.20985 0.24988 0.0
Cd142 Cd 0.25388 0.19157 0.20047 0.0
O143 O 0.24342 0.19457 0.16486 0.0
O144 O 0.25675 0.22187 0.28484 0.0
O145 O 0.24982 0.20512 0.30947 0.0
C146 C 0.25192 0.21499 0.31535 0.0
C147 C 0.24882 0.17345 0.21501 0.0
C148 C 0.24175 0.2025 0.16982 0.0
C149 C 0.27646 0.21113 0.21164 0.0
O150 O 0.27035 0.20209 0.19317 0.0
O151 O 0.27248 0.21526 0.23702 0.0
O152 O 0.2517 0.17755 0.17713 0.0
O153 O 0.24862 0.17963 0.24506 0.0
O154 O 0.78999 0.03703 0.19809 0.0
Cd155 Cd 0.79018 0.046 0.2503 0.0
Cd156 Cd 0.80886 0.06203 0.20616 0.0
O157 O 0.80576 0.04871 0.16891 0.0
O158 O 0.77888 0.03474 0.28835 0.0
O159 O 0.79623 0.04419 0.30649 0.0
C160 C 0.78645 0.03663 0.31562 0.0
C161 C 0.82711 0.07487 0.22018 0.0
C162 C 0.79725 0.03936 0.16968 0.0
C163 C 0.78957 0.06559 0.21768 0.0
O164 O 0.79872 0.06853 0.20009 0.0
O165 O 0.78504 0.05712 0.24108 0.0
O166 O 0.82291 0.07378 0.18259 0.0
O167 O 0.82097 0.06847 0.25026 0.0
O168 O 0.91558 0.37145 0.53269 0.0
Cd169 Cd 0.92468 0.3805 0.58442 0.0
Cd170 Cd 0.9216 0.39621 0.53949 0.0
O171 O 0.91105 0.3828 0.50359 0.0
O172 O 0.92506 0.36902 0.61997 0.0
O173 O 0.91751 0.37847 0.64255 0.0
C174 C 0.91976 0.37082 0.64928 0.0
C175 C 0.91639 0.40913 0.55499 0.0
C176 C 0.91038 0.37354 0.50465 0.0
C177 C 0.94454 0.39992 0.54868 0.0
O178 O 0.93813 0.40253 0.53058 0.0
O179 O 0.94086 0.39179 0.57393 0.0
O180 O 0.91913 0.40792 0.51684 0.0
O181 O 0.91641 0.40281 0.58483 0.0
O182 O 0.63291 0.54513 0.53552 0.0
Cd183 Cd 0.62393 0.54545 0.58685 0.0
Cd184 Cd 0.6075 0.52734 0.53951 0.0
O185 O 0.6207 0.53034 0.50176 0.0
O186 O 0.63545 0.55676 0.62412 0.0
O187 O 0.62552 0.53959 0.64402 0.0
C188 C 0.63333 0.54932 0.65227 0.0
C189 C 0.59401 0.50918 0.55124 0.0
C190 C 0.63034 0.53832 0.50504 0.0
C191 C 0.60497 0.5472 0.55296 0.0
O192 O 0.60165 0.53801 0.5351 0.0
O193 O 0.61343 0.55136 0.57651 0.0
O194 O 0.59538 0.51378 0.51433 0.0
O195 O 0.60055 0.51484 0.58185 0.0
O196 O 0.45838 0.08923 0.5318 0.0
Cd197 Cd 0.45679 0.07928 0.58272 0.0
Cd198 Cd 0.47566 0.08098 0.53852 0.0
O199 O 0.47327 0.09145 0.50002 0.0
O200 O 0.44488 0.07958 0.61544 0.0
O201 O 0.46134 0.08576 0.64224 0.0
C202 C 0.45161 0.08423 0.64653 0.0
C203 C 0.49365 0.0852 0.55149 0.0
C204 C 0.46548 0.09343 0.50229 0.0
C205 C 0.45528 0.05866 0.54859 0.0
O206 O 0.46478 0.06453 0.5332 0.0
O207 O 0.4508 0.06291 0.57056 0.0
O208 O 0.48917 0.08209 0.51434 0.0
O209 O 0.48798 0.08622 0.58168 0.0
O210 O 0.70517 0.58125 0.13281 0.0
Cd211 Cd 0.71425 0.59052 0.08162 0.0
Cd212 Cd 0.73052 0.58875 0.12911 0.0
O213 O 0.71732 0.57869 0.16715 0.0
O214 O 0.70282 0.59043 0.0442 0.0
O215 O 0.71261 0.58303 0.02453 0.0
C216 C 0.70487 0.58503 0.01617 0.0
C217 C 0.74352 0.58356 0.1152 0.0
C218 C 0.70768 0.57703 0.16355 0.0
C219 C 0.73333 0.6112 0.11546 0.0
O220 O 0.73662 0.60532 0.13348 0.0
O221 O 0.72487 0.60691 0.09195 0.0
O222 O 0.74254 0.58689 0.15253 0.0
O223 O 0.7369 0.58295 0.08539 0.0
O224 O 0.42263 0.12543 0.13204 0.0
Cd225 Cd 0.41257 0.12474 0.0828 0.0
Cd226 Cd 0.41522 0.14322 0.13058 0.0
O227 O 0.42588 0.14043 0.16585 0.0
O228 O 0.41201 0.11276 0.04753 0.0
O229 O 0.41889 0.12953 0.02317 0.0
C230 C 0.4168 0.11967 0.01707 0.0
C231 C 0.42013 0.16125 0.11513 0.0
C232 C 0.42738 0.13237 0.16172 0.0
C233 C 0.39255 0.12363 0.12193 0.0
O234 O 0.3988 0.13275 0.13958 0.0
O235 O 0.39636 0.11935 0.09641 0.0
O236 O 0.41745 0.1573 0.1533 0.0
O237 O 0.42024 0.15498 0.08529 0.0
O238 O 0.87952 0.29877 0.13553 0.0
Cd239 Cd 0.87977 0.29012 0.08273 0.0
Cd240 Cd 0.86099 0.27395 0.12771 0.0
O241 O 0.86365 0.28718 0.16433 0.0
O242 O 0.89164 0.30196 0.04844 0.0
O243 O 0.87472 0.29251 0.02499 0.0
C244 C 0.88459 0.3003 0.01909 0.0
C245 C 0.84291 0.26052 0.11401 0.0
C246 C 0.8722 0.2965 0.16367 0.0
C247 C 0.88051 0.27071 0.11641 0.0
O248 O 0.87153 0.26796 0.13507 0.0
O249 O 0.88482 0.2789 0.09147 0.0
O250 O 0.84718 0.26192 0.15162 0.0
O251 O 0.84887 0.26699 0.08374 0.0
O252 O 0.42035 0.29779 0.13382 0.0
Cd253 Cd 0.41151 0.28854 0.0819 0.0
Cd254 Cd 0.41406 0.27287 0.12889 0.0
O255 O 0.42404 0.28617 0.16623 0.0
O256 O 0.41122 0.2997 0.04396 0.0
O257 O 0.41936 0.29051 0.02543 0.0
C258 C 0.41696 0.29796 0.0165 0.0
C259 C 0.4196 0.26019 0.11416 0.0
C260 C 0.42503 0.29557 0.16371 0.0
C261 C 0.39128 0.26912 0.11624 0.0
O262 O 0.39749 0.26644 0.13546 0.0
O263 O 0.3952 0.27727 0.09105 0.0
O264 O 0.4165 0.26118 0.15192 0.0
O265 O 0.41977 0.2666 0.08433 0.0
O266 O 0.70419 0.12426 0.13364 0.0
Cd267 Cd 0.71295 0.12352 0.08244 0.0
Cd268 Cd 0.72938 0.14253 0.12635 0.0
O269 O 0.71611 0.13991 0.16302 0.0
O270 O 0.70121 0.1117 0.04764 0.0
O271 O 0.71118 0.12851 0.02363 0.0
C272 C 0.70329 0.11869 0.01757 0.0
C273 C 0.74286 0.16061 0.11306 0.0
C274 C 0.70664 0.13159 0.16184 0.0
C275 C 0.73226 0.12268 0.11718 0.0
O276 O 0.73542 0.13202 0.13339 0.0
O277 O 0.72374 0.11808 0.09407 0.0
O278 O 0.7414 0.15629 0.15059 0.0
O279 O 0.73641 0.15471 0.08265 0.0
O280 O 0.87882 0.58048 0.13759 0.0
Cd281 Cd 0.87983 0.58995 0.08584 0.0
Cd282 Cd 0.86065 0.5876 0.1284 0.0
O283 O 0.86321 0.57712 0.16632 0.0
O284 O 0.89169 0.58983 0.05204 0.0
O285 O 0.87497 0.58307 0.02712 0.0
C286 C 0.88476 0.58486 0.02181 0.0
C287 C 0.84251 0.58268 0.11442 0.0
C288 C 0.87143 0.57579 0.16575 0.0
C289 C 0.88062 0.61026 0.11885 0.0
O290 O 0.87118 0.60418 0.13442 0.0
O291 O 0.8853 0.60622 0.09686 0.0
O292 O 0.8468 0.58583 0.15186 0.0
O293 O 0.84851 0.58214 0.08442 0.0
O294 O 0.63234 0.08751 0.52883 0.0
Cd295 Cd 0.62384 0.07814 0.58074 0.0
Cd296 Cd 0.60717 0.08052 0.53771 0.0
O297 O 0.62029 0.09119 0.50044 0.0
O298 O 0.63581 0.07833 0.61486 0.0
O299 O 0.62583 0.08513 0.63919 0.0
C300 C 0.63383 0.08335 0.64481 0.0
C301 C 0.59361 0.085 0.55118 0.0
C302 C 0.62977 0.09236 0.50094 0.0
C303 C 0.60449 0.05785 0.54736 0.0
O304 O 0.60126 0.06397 0.53117 0.0
O305 O 0.61308 0.06185 0.57011 0.0
O306 O 0.595 0.08204 0.51373 0.0
O307 O 0.60016 0.0857 0.58142 0.0
O308 O 0.91425 0.54461 0.53271 0.0
Cd309 Cd 0.92381 0.54504 0.58341 0.0
Cd310 Cd 0.92078 0.52619 0.53871 0.0
O311 O 0.90986 0.52872 0.50394 0.0
O312 O 0.92423 0.55692 0.619 0.0
O313 O 0.91705 0.54 0.64222 0.0
C314 C 0.9192 0.54987 0.64882 0.0
C315 C 0.91599 0.50819 0.55459 0.0
C316 C 0.90897 0.53719 0.50518 0.0
C317 C 0.94362 0.5457 0.54592 0.0
O318 O 0.93722 0.53659 0.5284 0.0
O319 O 0.93998 0.55012 0.5714 0.0
O320 O 0.91848 0.51206 0.51624 0.0
O321 O 0.91601 0.51453 0.58441 0.0
O322 O 0.45739 0.37057 0.53708 0.0
Cd323 Cd 0.45754 0.37977 0.58873 0.0
Cd324 Cd 0.47549 0.39573 0.5393 0.0
O325 O 0.47231 0.38235 0.50278 0.0
O326 O 0.44605 0.36845 0.6261 0.0
O327 O 0.46329 0.37785 0.64566 0.0
C328 C 0.45346 0.37029 0.65406 0.0
C329 C 0.49365 0.40915 0.55106 0.0
C330 C 0.46413 0.37284 0.50651 0.0
C331 C 0.45605 0.3988 0.5538 0.0
O332 O 0.46488 0.40162 0.53378 0.0
O333 O 0.45214 0.39075 0.57946 0.0
O334 O 0.48913 0.40768 0.51394 0.0
O335 O 0.48792 0.40274 0.58187 0.0
O336 O 0.58017 0.70375 0.86723 0.0
Cd337 Cd 0.59018 0.71296 0.91689 0.0
Cd338 Cd 0.58806 0.72911 0.86866 0.0
O339 O 0.57749 0.71578 0.83266 0.0
O340 O 0.59048 0.70134 0.95176 0.0
O341 O 0.58377 0.71136 0.9764 0.0
C342 C 0.58571 0.70348 0.98225 0.0
C343 C 0.58315 0.74228 0.88332 0.0
C344 C 0.57571 0.70613 0.83701 0.0
C345 C 0.61053 0.7318 0.87907 0.0
O346 O 0.6045 0.7349 0.8611 0.0
O347 O 0.60648 0.72361 0.9041 0.0
O348 O 0.58605 0.74106 0.84547 0.0
O349 O 0.58288 0.73585 0.91332 0.0
O350 O 0.29815 0.87777 0.87026 0.0
Cd351 Cd 0.28837 0.87715 0.92054 0.0
Cd352 Cd 0.27335 0.859 0.87146 0.0
O353 O 0.28709 0.86242 0.83687 0.0
O354 O 0.29911 0.88867 0.95941 0.0
O355 O 0.29005 0.87131 0.97761 0.0
C356 C 0.29731 0.8812 0.98701 0.0
C357 C 0.26032 0.8408 0.88477 0.0
C358 C 0.29637 0.87092 0.84061 0.0
C359 C 0.26926 0.87785 0.88238 0.0
O360 O 0.26698 0.86911 0.86273 0.0
O361 O 0.27704 0.882 0.9093 0.0
O362 O 0.26187 0.84497 0.84691 0.0
O363 O 0.26646 0.84692 0.91547 0.0
O364 O 0.12227 0.4196 0.86389 0.0
Cd365 Cd 0.12218 0.41067 0.91612 0.0
Cd366 Cd 0.14093 0.41313 0.87243 0.0
O367 O 0.13798 0.42342 0.8349 0.0
O368 O 0.11089 0.41076 0.95388 0.0
O369 O 0.12819 0.4184 0.9726 0.0
C370 C 0.11843 0.4163 0.98147 0.0
C371 C 0.15915 0.41832 0.88595 0.0
C372 C 0.12957 0.42442 0.83551 0.0
C373 C 0.12138 0.39037 0.88356 0.0
O374 O 0.13062 0.39652 0.8665 0.0
O375 O 0.11685 0.39437 0.90661 0.0
O376 O 0.15485 0.41516 0.84854 0.0
O377 O 0.15313 0.41875 0.91614 0.0
O378 O 0.37053 0.91463 0.46704 0.0
Cd379 Cd 0.37918 0.92367 0.41464 0.0
Cd380 Cd 0.39591 0.92201 0.45965 0.0
O381 O 0.38303 0.9123 0.49962 0.0
O382 O 0.3675 0.9234 0.37829 0.0
O383 O 0.37724 0.91602 0.35771 0.0
C384 C 0.36944 0.91798 0.35001 0.0
C385 C 0.40881 0.91664 0.44639 0.0
C386 C 0.37337 0.91062 0.49751 0.0
C387 C 0.39865 0.94445 0.44559 0.0
O388 O 0.40213 0.93862 0.46258 0.0
O389 O 0.38989 0.94009 0.42378 0.0
O390 O 0.408 0.92028 0.48326 0.0
O391 O 0.40212 0.91585 0.41661 0.0
O392 O 0.08754 0.45669 0.46555 0.0
Cd393 Cd 0.07891 0.45725 0.41322 0.0
Cd394 Cd 0.08194 0.47575 0.45933 0.0
O395 O 0.09242 0.47267 0.49459 0.0
O396 O 0.07844 0.44571 0.37531 0.0
O397 O 0.08686 0.46306 0.35693 0.0
C398 C 0.08428 0.45317 0.34791 0.0
C399 C 0.08695 0.49391 0.44572 0.0
C400 C 0.09286 0.46394 0.4936 0.0
C401 C 0.05899 0.4568 0.44793 0.0
O402 O 0.0654 0.46555 0.46767 0.0
O403 O 0.06271 0.45257 0.42183 0.0
O404 O 0.08424 0.48973 0.48353 0.0
O405 O 0.08713 0.48783 0.41523 0.0
O406 O 0.54448 0.63166 0.46733 0.0
Cd407 Cd 0.54598 0.62318 0.41668 0.0
Cd408 Cd 0.5274 0.60611 0.46207 0.0
O409 O 0.52979 0.61903 0.50026 0.0
O410 O 0.55783 0.63537 0.38364 0.0
O411 O 0.54135 0.62502 0.35716 0.0
C412 C 0.55106 0.63323 0.35266 0.0
C413 C 0.50941 0.59239 0.44894 0.0
C414 C 0.5375 0.62881 0.49727 0.0
C415 C 0.54781 0.6043 0.45138 0.0
O416 O 0.53835 0.60061 0.46727 0.0
O417 O 0.55213 0.61296 0.42901 0.0
O418 O 0.51387 0.59371 0.48611 0.0
O419 O 0.51512 0.59908 0.4188 0.0
O420 O 0.08682 0.63123 0.46611 0.0
Cd421 Cd 0.07829 0.6223 0.41312 0.0
Cd422 Cd 0.08093 0.60645 0.45849 0.0
O423 O 0.09131 0.61981 0.49492 0.0
O424 O 0.07816 0.6336 0.37555 0.0
O425 O 0.0864 0.62449 0.35721 0.0
C426 C 0.08401 0.63195 0.34831 0.0
C427 C 0.08588 0.59324 0.44525 0.0
C428 C 0.09191 0.62905 0.49435 0.0
C429 C 0.05812 0.60279 0.44604 0.0
O430 O 0.06437 0.60021 0.46561 0.0
O431 O 0.06201 0.6109 0.42074 0.0
O432 O 0.08297 0.59462 0.48279 0.0
O433 O 0.08629 0.59962 0.4148 0.0
O434 O 0.36985 0.45734 0.4656 0.0
Cd435 Cd 0.37919 0.45659 0.41633 0.0
Cd436 Cd 0.39507 0.47497 0.4644 0.0
O437 O 0.38159 0.47247 0.49875 0.0
O438 O 0.36771 0.44477 0.38063 0.0
O439 O 0.37781 0.46158 0.3569 0.0
C440 C 0.36995 0.45177 0.35044 0.0
C441 C 0.40878 0.49289 0.45049 0.0
C442 C 0.37203 0.46439 0.49484 0.0
C443 C 0.39777 0.45512 0.45605 0.0
O444 O 0.40064 0.4642 0.47403 0.0
O445 O 0.38983 0.45099 0.42986 0.0
O446 O 0.40707 0.48876 0.48847 0.0
O447 O 0.40245 0.48689 0.41998 0.0
O448 O 0.5434 0.91283 0.46427 0.0
Cd449 Cd 0.54457 0.92275 0.41388 0.0
Cd450 Cd 0.52604 0.92096 0.46077 0.0
O451 O 0.5289 0.91074 0.49892 0.0
O452 O 0.55653 0.92274 0.38045 0.0
O453 O 0.53995 0.91623 0.35442 0.0
C454 C 0.54974 0.91797 0.34964 0.0
C455 C 0.5079 0.91601 0.44703 0.0
C456 C 0.53663 0.90872 0.49491 0.0
C457 C 0.54602 0.94336 0.44844 0.0
O458 O 0.53666 0.9375 0.46502 0.0
O459 O 0.5504 0.93909 0.42599 0.0
O460 O 0.51225 0.91934 0.48428 0.0
O461 O 0.51382 0.91527 0.41718 0.0
O462 O 0.29785 0.42254 0.86524 0.0
Cd463 Cd 0.28952 0.41258 0.91621 0.0
Cd464 Cd 0.27221 0.41388 0.87122 0.0
O465 O 0.285 0.42417 0.83196 0.0
O466 O 0.30183 0.41296 0.9485 0.0
O467 O 0.29154 0.41906 0.97583 0.0
C468 C 0.29976 0.41757 0.97979 0.0
C469 C 0.25876 0.41847 0.8852 0.0
C470 C 0.29484 0.42643 0.83492 0.0
C471 C 0.27046 0.39173 0.88271 0.0
O472 O 0.26664 0.39741 0.8671 0.0
O473 O 0.27926 0.39618 0.90427 0.0
O474 O 0.25977 0.41509 0.84806 0.0
O475 O 0.26556 0.41944 0.91484 0.0
O476 O 0.58017 0.87728 0.86403 0.0
Cd477 Cd 0.59001 0.87828 0.91446 0.0
Cd478 Cd 0.58792 0.85961 0.86906 0.0
O479 O 0.57769 0.86246 0.83089 0.0
O480 O 0.59005 0.89011 0.94898 0.0
O481 O 0.58346 0.8734 0.97369 0.0
C482 C 0.58527 0.88318 0.9794 0.0
C483 C 0.58288 0.84148 0.88355 0.0
C484 C 0.57588 0.87035 0.834 0.0
C485 C 0.61046 0.87947 0.87991 0.0
O486 O 0.60448 0.87007 0.86384 0.0
O487 O 0.60631 0.88398 0.90222 0.0
O488 O 0.58609 0.8457 0.84604 0.0
O489 O 0.5823 0.84753 0.91324 0.0
O490 O 0.12287 0.70326 0.8653 0.0
Cd491 Cd 0.12344 0.71255 0.91729 0.0
Cd492 Cd 0.14205 0.72788 0.87196 0.0
O493 O 0.13898 0.71428 0.83701 0.0
O494 O 0.11204 0.70157 0.95588 0.0
O495 O 0.12944 0.71065 0.97349 0.0
C496 C 0.11959 0.70332 0.98301 0.0
C497 C 0.16024 0.741 0.88542 0.0
C498 C 0.1302 0.70515 0.83766 0.0
C499 C 0.1231 0.73195 0.88169 0.0
O500 O 0.13192 0.73426 0.86264 0.0
O501 O 0.11875 0.72403 0.9079 0.0
O502 O 0.15606 0.73945 0.84759 0.0
O503 O 0.15413 0.73484 0.91607 0.0
H504 H 0.23582 0.97987 0.65201 0.0
H505 H 0.24011 0.99204 0.59074 0.0
H506 H 0.20602 0.97671 0.55874 0.0
H507 H 0.20162 0.96434 0.62019 0.0
H508 H 0.2196 0.98018 0.48763 0.0
H509 H 0.23466 0.0178 0.58412 0.0
H510 H 0.24111 0.01008 0.59792 0.0
H511 H 0.22675 0.00437 0.60706 0.0
C512 C 0.22921 0.97904 0.63197 0.0
C513 C 0.21836 0.97116 0.64115 0.0
C514 C 0.23168 0.98607 0.59711 0.0
C515 C 0.22337 0.98545 0.57078 0.0
C516 C 0.21255 0.9774 0.57898 0.0
H517 H 0.23751 0.03613 0.37739 0.0
H518 H 0.22947 0.02366 0.43848 0.0
C519 C 0.21005 0.97033 0.61401 0.0
C520 C 0.22611 0.99311 0.53429 0.0
H521 H 0.23945 0.0202 0.50946 0.0
C522 C 0.22382 0.98892 0.49238 0.0
C523 C 0.23145 0.00452 0.54055 0.0
C524 C 0.23354 0.00947 0.58486 0.0
C525 C 0.22721 0.99586 0.45651 0.0
C526 C 0.23319 0.00727 0.46279 0.0
C527 C 0.23499 0.01145 0.50469 0.0
C528 C 0.23811 0.01495 0.42634 0.0
C529 C 0.22443 0.9909 0.4122 0.0
C530 C 0.24583 0.01438 0.40004 0.0
C531 C 0.25043 0.02147 0.36537 0.0
C532 C 0.24748 0.02937 0.35636 0.0
C533 C 0.23995 0.03014 0.38344 0.0
C534 C 0.23533 0.02301 0.41826 0.0
H535 H 0.21724 0.98256 0.41287 0.0
H536 H 0.22275 0.99597 0.38983 0.0
H537 H 0.23142 0.99031 0.3994 0.0
H538 H 0.2483 0.00842 0.40633 0.0
H539 H 0.25625 0.02069 0.34537 0.0
H540 H 0.01537 0.24837 0.67723 0.0
H541 H 0.00305 0.24155 0.61602 0.0
H542 H 0.02671 0.23714 0.54515 0.0
H543 H 0.03895 0.24357 0.60738 0.0
H544 H 0.00493 0.24928 0.53909 0.0
H545 H 1.00013 0.20818 0.52549 0.0
H546 H 0.00666 0.21693 0.57096 0.0
H547 H 0.01407 0.2188 0.52177 0.0
C548 C 0.01796 0.24592 0.64869 0.0
C549 C 0.02814 0.24649 0.64717 0.0
C550 C 0.01089 0.242 0.61368 0.0
C551 C 0.01384 0.23865 0.57611 0.0
C552 C 0.02409 0.23938 0.57417 0.0
H553 H 0.9839 0.23418 0.32939 0.0
H554 H 0.99546 0.23945 0.39287 0.0
C555 C 0.03114 0.24315 0.60958 0.0
C556 C 0.0063 0.23482 0.53872 0.0
H557 H 0.99313 0.21387 0.46754 0.0
C558 C 0.00232 0.2415 0.52365 0.0
C559 C 0.0027 0.22458 0.51896 0.0
C560 C 0.00601 0.21666 0.53539 0.0
C561 C 0.99499 0.23833 0.48917 0.0
C562 C 0.99183 0.22835 0.468 0.0
C563 C 0.99564 0.22157 0.48347 0.0
C564 C 0.98478 0.22496 0.42921 0.0
C565 C 0.99056 0.24564 0.47642 0.0
C566 C 0.97508 0.21485 0.42774 0.0
C567 C 0.9685 0.21171 0.39096 0.0
C568 C 0.9715 0.21865 0.35514 0.0
C569 C 0.98125 0.22871 0.35666 0.0
C570 C 0.98786 0.23177 0.39308 0.0
H571 H 0.99082 0.25081 0.50371 0.0
H572 H 0.99564 0.25114 0.45021 0.0
H573 H 0.98203 0.24085 0.46486 0.0
H574 H 0.97258 0.20942 0.45515 0.0
H575 H 0.96107 0.20389 0.39065 0.0
H576 H 0.7681 0.75266 0.32405 0.0
H577 H 0.76268 0.75936 0.38585 0.0
H578 H 0.79106 0.76405 0.45506 0.0
H579 H 0.79679 0.75773 0.39225 0.0
H580 H 0.75717 0.75163 0.46325 0.0
H581 H 0.79325 0.79297 0.47462 0.0
H582 H 0.79091 0.78418 0.42918 0.0
H583 H 0.7967 0.78243 0.4779 0.0
C584 C 0.77323 0.75514 0.35235 0.0
C585 C 0.7829 0.75468 0.35323 0.0
C586 C 0.77011 0.75899 0.38771 0.0
C587 C 0.77654 0.7624 0.42496 0.0
C588 C 0.78612 0.76176 0.42629 0.0
H589 H 0.75158 0.76722 0.67264 0.0
H590 H 0.75791 0.7619 0.60942 0.0
C591 C 0.78934 0.75805 0.39055 0.0
C592 C 0.77291 0.76621 0.46261 0.0
H593 H 0.78071 0.78732 0.53299 0.0
C594 C 0.76232 0.75946 0.47833 0.0
C595 C 0.77953 0.77652 0.48188 0.0
C596 C 0.79068 0.7845 0.46478 0.0
C597 C 0.75822 0.76265 0.51294 0.0
C598 C 0.76501 0.77272 0.53355 0.0
C599 C 0.77554 0.77956 0.51749 0.0
C600 C 0.7614 0.77617 0.57226 0.0
C601 C 0.74655 0.75526 0.5264 0.0
C602 C 0.76163 0.7862 0.57317 0.0
C603 C 0.75818 0.78937 0.60979 0.0
C604 C 0.75439 0.78255 0.64599 0.0
C605 C 0.75429 0.77259 0.64506 0.0
C606 C 0.75786 0.7695 0.6088 0.0
H607 H 0.74158 0.74993 0.49953 0.0
H608 H 0.7463 0.74991 0.5529 0.0
H609 H 0.74274 0.75999 0.53783 0.0
H610 H 0.76441 0.79152 0.54543 0.0
H611 H 0.7584 0.79712 0.60964 0.0
H612 H 0.76468 0.96561 0.62152 0.0
H613 H 0.77257 0.97778 0.5595 0.0
H614 H 0.75472 0.99395 0.59319 0.0
H615 H 0.74695 0.982 0.65516 0.0
H616 H 0.76264 0.98131 0.48953 0.0
H617 H 0.78585 0.01926 0.58339 0.0
H618 H 0.78013 0.00592 0.60736 0.0
H619 H 0.77171 0.01189 0.59786 0.0
C620 C 0.76243 0.97174 0.61561 0.0
C621 C 0.75525 0.97288 0.64344 0.0
C622 C 0.76696 0.9787 0.58026 0.0
C623 C 0.76443 0.98693 0.57234 0.0
C624 C 0.75702 0.98785 0.59935 0.0
H625 H 0.76647 0.0211 0.34393 0.0
H626 H 0.7622 0.00914 0.40589 0.0
C627 C 0.75251 0.98094 0.6346 0.0
C628 C 0.76927 0.99444 0.53535 0.0
H629 H 0.78311 0.02142 0.50875 0.0
C630 C 0.76723 0.99008 0.49372 0.0
C631 C 0.77544 0.00587 0.54086 0.0
C632 C 0.77852 0.01102 0.5848 0.0
C633 C 0.77072 0.99686 0.45741 0.0
C634 C 0.77623 0.00829 0.46293 0.0
C635 C 0.77875 0.01265 0.50455 0.0
C636 C 0.77895 0.01583 0.42601 0.0
C637 C 0.76842 0.9917 0.41344 0.0
C638 C 0.78976 0.02389 0.4177 0.0
C639 C 0.79224 0.03086 0.38235 0.0
C640 C 0.78393 0.0299 0.35492 0.0
C641 C 0.77309 0.02202 0.36417 0.0
C642 C 0.77063 0.0151 0.39942 0.0
H643 H 0.76731 0.98337 0.41467 0.0
H644 H 0.76078 0.991 0.40084 0.0
H645 H 0.7751 0.99668 0.39062 0.0
H646 H 0.79629 0.02467 0.43813 0.0
H647 H 0.80067 0.03686 0.37612 0.0
H648 H 0.02391 0.76744 0.65453 0.0
H649 H 0.01187 0.76256 0.59252 0.0
H650 H 0.02623 0.79647 0.55881 0.0
H651 H 0.0385 0.80145 0.62081 0.0
H652 H 0.99653 0.76877 0.576 0.0
H653 H 0.02743 0.78229 0.44577 0.0
H654 H 0.03048 0.78066 0.50064 0.0
H655 H 0.02965 0.79243 0.48529 0.0
C656 C 0.0246 0.77388 0.63377 0.0
C657 C 0.0322 0.78484 0.64256 0.0
C658 C 0.01768 0.77107 0.59839 0.0
C659 C 0.01818 0.77914 0.57091 0.0
C660 C 0.02581 0.7901 0.57925 0.0
H661 H 0.96669 0.76443 0.38014 0.0
H662 H 0.97893 0.77209 0.44204 0.0
C663 C 0.0328 0.79293 0.61472 0.0
C664 C 0.0105 0.77595 0.53425 0.0
H665 H 0.00916 0.77528 0.42472 0.0
C666 C 0.99927 0.77025 0.54289 0.0
C667 C 0.01412 0.77783 0.49114 0.0
C668 C 0.02607 0.78356 0.47991 0.0
C669 C 0.99156 0.7662 0.50959 0.0
C670 C 0.99519 0.76805 0.46647 0.0
C671 C 0.00641 0.77393 0.45783 0.0
C672 C 0.98753 0.76334 0.42982 0.0
C673 C 0.97964 0.75961 0.52082 0.0
C674 C 0.98836 0.75597 0.40227 0.0
C675 C 0.98145 0.75164 0.36694 0.0
C676 C 0.97355 0.75461 0.35827 0.0
C677 C 0.97263 0.76191 0.38615 0.0
C678 C 0.9796 0.76628 0.42156 0.0
H679 H 0.97835 0.75696 0.55495 0.0
H680 H 0.97577 0.76465 0.51554 0.0
H681 H 0.97544 0.75229 0.50005 0.0
H682 H 0.99441 0.75358 0.40807 0.0
H683 H 0.98239 0.74605 0.34614 0.0
H684 H 0.25164 0.2338 0.3282 0.0
H685 H 0.24565 0.23937 0.39169 0.0
H686 H 0.2387 0.20961 0.45572 0.0
H687 H 0.24436 0.20376 0.39123 0.0
H688 H 0.22269 0.21415 0.46874 0.0
H689 H 0.26216 0.25123 0.50116 0.0
H690 H 0.25741 0.25132 0.4479 0.0
H691 H 0.26078 0.24109 0.46283 0.0
C692 C 0.24892 0.22845 0.35585 0.0
C693 C 0.24858 0.21837 0.35482 0.0
C694 C 0.24554 0.23168 0.39228 0.0
C695 C 0.24196 0.22504 0.4289 0.0
C696 C 0.24151 0.21491 0.42792 0.0
H697 H 0.23598 0.24954 0.67631 0.0
H698 H 0.2412 0.24249 0.61503 0.0
C699 C 0.24477 0.21159 0.39114 0.0
C700 C 0.2385 0.22862 0.4677 0.0
H701 H 0.24669 0.24988 0.53744 0.0
C702 C 0.22797 0.22192 0.48403 0.0
C703 C 0.24543 0.2387 0.48806 0.0
C704 C 0.25711 0.24593 0.47437 0.0
C705 C 0.22411 0.22511 0.5196 0.0
C706 C 0.23086 0.23543 0.53855 0.0
C707 C 0.24145 0.24203 0.52261 0.0
C708 C 0.22733 0.23944 0.57596 0.0
C709 C 0.21294 0.21727 0.53698 0.0
C710 C 0.2178 0.24017 0.5745 0.0
C711 C 0.21469 0.24407 0.60996 0.0
C712 C 0.22119 0.24755 0.6471 0.0
C713 C 0.23081 0.24699 0.64812 0.0
C714 C 0.23381 0.24294 0.61307 0.0
H715 H 0.21029 0.20874 0.52758 0.0
H716 H 0.21275 0.2177 0.57255 0.0
H717 H 0.20697 0.21936 0.5236 0.0
H718 H 0.21282 0.23781 0.54582 0.0
H719 H 0.20728 0.24448 0.60813 0.0
H720 H 0.91189 0.37445 0.7244 0.0
H721 H 0.90588 0.36286 0.78866 0.0
H722 H 0.91267 0.33987 0.72528 0.0
H723 H 0.91905 0.35154 0.6621 0.0
H724 H 0.88978 0.34251 0.80191 0.0
H725 H 0.9289 0.34424 0.83495 0.0
H726 H 0.92772 0.35306 0.79633 0.0
H727 H 0.92415 0.33938 0.78173 0.0
C728 C 0.91218 0.36697 0.72441 0.0
C729 C 0.91609 0.36399 0.68843 0.0
C730 C 0.90872 0.36034 0.76106 0.0
C731 C 0.90905 0.3506 0.7622 0.0
C732 C 0.91267 0.3475 0.72579 0.0
H733 H 0.87365 0.29684 0.94263 0.0
H734 H 0.87926 0.309 0.88016 0.0
C735 C 0.91627 0.35417 0.68954 0.0
C736 C 0.90546 0.34355 0.80101 0.0
H737 H 0.91331 0.33028 0.8711 0.0
C738 C 0.89495 0.33991 0.81731 0.0
C739 C 0.91225 0.34027 0.82154 0.0
C740 C 0.92392 0.34454 0.80802 0.0
C741 C 0.891 0.33292 0.85303 0.0
C742 C 0.89761 0.32919 0.87214 0.0
C743 C 0.90816 0.33299 0.85618 0.0
C744 C 0.89399 0.32172 0.90975 0.0
C745 C 0.87989 0.32982 0.87041 0.0
C746 C 0.90055 0.3246 0.94662 0.0
C747 C 0.89751 0.31756 0.98172 0.0
C748 C 0.88776 0.3075 0.98101 0.0
C749 C 0.88116 0.30458 0.94419 0.0
C750 C 0.88432 0.31157 0.90865 0.0
H751 H 0.87741 0.33582 0.86096 0.0
H752 H 0.8738 0.3218 0.85707 0.0
H753 H 0.87968 0.32921 0.90599 0.0
H754 H 0.90805 0.33236 0.94834 0.0
H755 H 0.90275 0.3201 0.00968 0.0
H756 H 0.64921 0.56928 0.67906 0.0
H757 H 0.6613 0.5736 0.74062 0.0
H758 H 0.64516 0.53966 0.77563 0.0
H759 H 0.63283 0.53524 0.71404 0.0
H760 H 0.64902 0.55328 0.84523 0.0
H761 H 0.68659 0.56776 0.74913 0.0
H762 H 0.67921 0.57452 0.73501 0.0
H763 H 0.67316 0.56012 0.72595 0.0
C764 C 0.64818 0.56271 0.69984 0.0
C765 C 0.64009 0.55189 0.69147 0.0
C766 C 0.65518 0.56519 0.73485 0.0
C767 C 0.65431 0.55693 0.76207 0.0
C768 C 0.64603 0.54615 0.7547 0.0
H769 H 0.70505 0.57112 0.95517 0.0
H770 H 0.69266 0.56321 0.89377 0.0
C771 C 0.63899 0.54364 0.7196 0.0
C772 C 0.66197 0.55967 0.79861 0.0
H773 H 0.68905 0.57287 0.82356 0.0
C774 C 0.65776 0.55744 0.8405 0.0
C775 C 0.67337 0.56491 0.79241 0.0
C776 C 0.67835 0.56687 0.74817 0.0
C777 C 0.66469 0.56081 0.8764 0.0
C778 C 0.6761 0.56674 0.87018 0.0
C779 C 0.6803 0.56847 0.8283 0.0
C780 C 0.68379 0.57164 0.90663 0.0
C781 C 0.65969 0.55803 0.92067 0.0
C782 C 0.68311 0.57924 0.93338 0.0
C783 C 0.69014 0.58374 0.96829 0.0
C784 C 0.69809 0.58084 0.97701 0.0
C785 C 0.69901 0.57351 0.94933 0.0
C786 C 0.69193 0.56897 0.91434 0.0
H787 H 0.65138 0.55079 0.91994 0.0
H788 H 0.66479 0.55643 0.94324 0.0
H789 H 0.659 0.56498 0.93324 0.0
H790 H 0.6771 0.58166 0.92733 0.0
H791 H 0.68926 0.58943 0.98873 0.0
H792 H 0.43367 0.08631 0.65489 0.0
H793 H 0.42825 0.09313 0.71635 0.0
H794 H 0.45627 0.09729 0.78689 0.0
H795 H 0.46201 0.09085 0.72445 0.0
H796 H 0.42242 0.08539 0.79345 0.0
H797 H 0.45893 0.12638 0.80652 0.0
H798 H 0.45659 0.1176 0.76103 0.0
H799 H 0.46214 0.11568 0.81008 0.0
C800 C 0.43872 0.0887 0.68342 0.0
C801 C 0.44829 0.08806 0.68478 0.0
C802 C 0.43561 0.09261 0.71857 0.0
C803 C 0.44193 0.09591 0.7561 0.0
C804 C 0.45141 0.0951 0.75791 0.0
H805 H 0.4169 0.1008 0.00334 0.0
H806 H 0.42299 0.09537 0.93972 0.0
C807 C 0.45463 0.09132 0.72236 0.0
C808 C 0.4383 0.09979 0.79357 0.0
H809 H 0.44629 0.1208 0.86458 0.0
C810 C 0.42764 0.09317 0.80881 0.0
C811 C 0.44501 0.11002 0.81322 0.0
C812 C 0.45626 0.11789 0.79661 0.0
C813 C 0.42356 0.0964 0.84336 0.0
C814 C 0.43045 0.10638 0.86439 0.0
C815 C 0.44105 0.1131 0.84876 0.0
C816 C 0.42687 0.10985 0.9032 0.0
C817 C 0.41182 0.08916 0.85633 0.0
C818 C 0.42738 0.12 0.9046 0.0
C819 C 0.42406 0.12323 0.94145 0.0
C820 C 0.42014 0.11634 0.97743 0.0
C821 C 0.41972 0.10623 0.97596 0.0
C822 C 0.42315 0.10308 0.93946 0.0
H823 H 0.40686 0.08397 0.82915 0.0
H824 H 0.41139 0.08366 0.88257 0.0
H825 H 0.40814 0.09399 0.86791 0.0
H826 H 0.4303 0.12539 0.87709 0.0
H827 H 0.42453 0.13109 0.9417 0.0
H828 H 0.4333 0.35487 0.68096 0.0
H829 H 0.42859 0.34281 0.74284 0.0
H830 H 0.46252 0.35786 0.77731 0.0
H831 H 0.46732 0.37015 0.71544 0.0
H832 H 0.43526 0.32783 0.75967 0.0
H833 H 0.44797 0.35864 0.88999 0.0
H834 H 0.44632 0.36162 0.83505 0.0
H835 H 0.45823 0.36109 0.85071 0.0
C836 C 0.43978 0.35571 0.70186 0.0
C837 C 0.45069 0.36351 0.69332 0.0
C838 C 0.43707 0.34877 0.73716 0.0
C839 C 0.44519 0.34947 0.76484 0.0
C840 C 0.45611 0.35729 0.75673 0.0
H841 H 0.43122 0.29823 0.95603 0.0
H842 H 0.43881 0.31052 0.89422 0.0
C843 C 0.45884 0.36429 0.72133 0.0
C844 C 0.44211 0.34179 0.80148 0.0
H845 H 0.44127 0.34042 0.91101 0.0
C846 C 0.43663 0.33057 0.7928 0.0
C847 C 0.44385 0.3454 0.84462 0.0
C848 C 0.44933 0.35733 0.85589 0.0
C849 C 0.43266 0.32285 0.82607 0.0
C850 C 0.43437 0.32646 0.8692 0.0
C851 C 0.44002 0.33768 0.87789 0.0
C852 C 0.4297 0.31877 0.90579 0.0
C853 C 0.42632 0.31091 0.81478 0.0
C854 C 0.42214 0.31939 0.93293 0.0
C855 C 0.41784 0.31244 0.9682 0.0
C856 C 0.42104 0.30473 0.97723 0.0
C857 C 0.42853 0.30402 0.94975 0.0
C858 C 0.43286 0.31102 0.91438 0.0
H859 H 0.42376 0.30959 0.78054 0.0
H860 H 0.43149 0.30721 0.82045 0.0
H861 H 0.41895 0.30659 0.83526 0.0
H862 H 0.41957 0.32529 0.92687 0.0
H863 H 0.4121 0.31322 0.98868 0.0
H864 H 0.68389 0.10021 0.00481 0.0
H865 H 0.67238 0.09488 0.94115 0.0
H866 H 0.69576 0.12441 0.87724 0.0
H867 H 0.70721 0.13002 0.94188 0.0
H868 H 0.67536 0.12026 0.86339 0.0
H869 H 0.67701 0.08274 0.83233 0.0
H870 H 0.67209 0.0828 0.8853 0.0
H871 H 0.68581 0.09282 0.87075 0.0
C872 C 0.68664 0.10557 0.97716 0.0
C873 C 0.69653 0.1155 0.97822 0.0
C874 C 0.68006 0.10246 0.94065 0.0
C875 C 0.68331 0.1091 0.90399 0.0
C876 C 0.69312 0.11911 0.90507 0.0
H877 H 0.65364 0.08507 0.65524 0.0
H878 H 0.66567 0.09196 0.71727 0.0
C879 C 0.69967 0.1223 0.94193 0.0
C880 C 0.67636 0.10562 0.86495 0.0
H881 H 0.66325 0.08444 0.79491 0.0
C882 C 0.67277 0.11247 0.84816 0.0
C883 C 0.67311 0.09551 0.84469 0.0
C884 C 0.6773 0.0881 0.85892 0.0
C885 C 0.66588 0.10941 0.81216 0.0
C886 C 0.6622 0.09907 0.79324 0.0
C887 C 0.66593 0.09231 0.8097 0.0
C888 C 0.65484 0.09521 0.75531 0.0
C889 C 0.66281 0.11741 0.79429 0.0
C890 C 0.64466 0.09465 0.75595 0.0
C891 C 0.63778 0.09084 0.72005 0.0
C892 C 0.64087 0.08729 0.68332 0.0
C893 C 0.65098 0.08769 0.68311 0.0
C894 C 0.65789 0.09164 0.71859 0.0
H895 H 0.66875 0.12589 0.80395 0.0
H896 H 0.66235 0.11701 0.75868 0.0
H897 H 0.65473 0.11543 0.80704 0.0
H898 H 0.64197 0.09706 0.78431 0.0
H899 H 0.63002 0.09056 0.72124 0.0
H900 H 0.91874 0.56855 0.66264 0.0
H901 H 0.91259 0.57384 0.72648 0.0
H902 H 0.90572 0.54392 0.78883 0.0
H903 H 0.91152 0.53835 0.72398 0.0
H904 H 0.88968 0.54829 0.80263 0.0
H905 H 0.929 0.58543 0.83622 0.0
H906 H 0.92424 0.58566 0.78314 0.0
H907 H 0.9277 0.57545 0.79726 0.0
C908 C 0.91599 0.5631 0.68999 0.0
C909 C 0.91572 0.55307 0.6884 0.0
C910 C 0.91253 0.56618 0.72662 0.0
C911 C 0.90894 0.55941 0.7629 0.0
C912 C 0.90854 0.54931 0.76133 0.0
H913 H 0.90282 0.58305 0.01205 0.0
H914 H 0.90809 0.57623 0.95014 0.0
C915 C 0.91188 0.54615 0.72433 0.0
C916 C 0.90542 0.56284 0.80201 0.0
H917 H 0.91349 0.58384 0.87292 0.0
C918 C 0.89491 0.55602 0.81826 0.0
C919 C 0.9123 0.57286 0.82281 0.0
C920 C 0.92397 0.58021 0.80924 0.0
C921 C 0.89102 0.55904 0.85421 0.0
C922 C 0.89771 0.56931 0.87364 0.0
C923 C 0.90828 0.57603 0.85775 0.0
C924 C 0.89414 0.57315 0.91148 0.0
C925 C 0.87988 0.55108 0.87148 0.0
C926 C 0.88456 0.57378 0.91048 0.0
C927 C 0.88142 0.57754 0.94631 0.0
C928 C 0.88796 0.58098 0.98336 0.0
C929 C 0.89762 0.58052 0.98394 0.0
C930 C 0.90065 0.5766 0.94852 0.0
H931 H 0.8773 0.5426 0.86162 0.0
H932 H 0.87968 0.55139 0.90708 0.0
H933 H 0.87385 0.55313 0.85845 0.0
H934 H 0.87955 0.57146 0.88188 0.0
H935 H 0.87397 0.57788 0.94482 0.0
H936 H 0.56907 0.65317 0.34363 0.0
H937 H 0.57439 0.66536 0.28208 0.0
H938 H 0.54608 0.6416 0.21267 0.0
H939 H 0.54045 0.62946 0.27522 0.0
H940 H 0.57993 0.66326 0.20455 0.0
H941 H 0.54368 0.66824 0.19374 0.0
H942 H 0.54609 0.66179 0.23903 0.0
H943 H 0.54032 0.65428 0.19024 0.0
C944 C 0.56394 0.65052 0.31534 0.0
C945 C 0.55431 0.64035 0.31433 0.0
C946 C 0.56699 0.65753 0.28013 0.0
C947 C 0.56056 0.65451 0.2429 0.0
C948 C 0.55103 0.64425 0.24144 0.0
H949 H 0.58514 0.68426 0.99509 0.0
H950 H 0.579 0.67269 0.05855 0.0
C951 C 0.54787 0.63728 0.27704 0.0
C952 C 0.56415 0.66199 0.20537 0.0
H953 H 0.55618 0.6752 0.13522 0.0
C954 C 0.57474 0.6659 0.18957 0.0
C955 C 0.55747 0.66562 0.18623 0.0
C956 C 0.5463 0.66236 0.20344 0.0
C957 C 0.57878 0.6732 0.15497 0.0
C958 C 0.57192 0.67641 0.13447 0.0
C959 C 0.56139 0.67265 0.15064 0.0
C960 C 0.57547 0.68345 0.09569 0.0
C961 C 0.59046 0.67755 0.14138 0.0
C962 C 0.57515 0.6932 0.0947 0.0
C963 C 0.57851 0.69979 0.05795 0.0
C964 C 0.58227 0.69675 0.02168 0.0
C965 C 0.58246 0.68694 0.02271 0.0
C966 C 0.57899 0.68032 0.05911 0.0
H967 H 0.59546 0.67725 0.16821 0.0
H968 H 0.59072 0.67245 0.1149 0.0
H969 H 0.59421 0.68609 0.12989 0.0
H970 H 0.57238 0.69574 0.12247 0.0
H971 H 0.57821 0.70727 0.05803 0.0
H972 H 0.36981 0.90451 0.28738 0.0
H973 H 0.35749 0.89684 0.22572 0.0
H974 H 0.34117 0.91429 0.26341 0.0
H975 H 0.35328 0.92183 0.32507 0.0
H976 H 0.32688 0.89251 0.24483 0.0
H977 H 0.35751 0.91253 0.11503 0.0
H978 H 0.36043 0.90483 0.15316 0.0
H979 H 0.36032 0.91686 0.17035 0.0
C980 C 0.36366 0.90678 0.28228 0.0
C981 C 0.36255 0.91381 0.31107 0.0
C982 C 0.35664 0.90241 0.247 0.0
C983 C 0.34846 0.90506 0.23982 0.0
C984 C 0.34741 0.91213 0.26836 0.0
H985 H 0.31173 0.90141 0.01686 0.0
H986 H 0.32367 0.90617 0.07914 0.0
C987 C 0.35438 0.91646 0.30354 0.0
C988 C 0.34082 0.90041 0.2031 0.0
H989 H 0.33943 0.90049 0.09364 0.0
C990 C 0.32961 0.89419 0.21173 0.0
C991 C 0.34442 0.90269 0.16001 0.0
C992 C 0.35631 0.90966 0.14885 0.0
C993 C 0.32189 0.89034 0.17845 0.0
C994 C 0.32549 0.89264 0.13537 0.0
C995 C 0.3367 0.8987 0.12672 0.0
C996 C 0.31778 0.88952 0.09881 0.0
C997 C 0.30995 0.8842 0.18974 0.0
C998 C 0.3104 0.87855 0.08935 0.0
C999 C 0.30346 0.87579 0.05374 0.0
C1000 C 0.30387 0.88395 0.02686 0.0
C1001 C 0.31119 0.89491 0.03686 0.0
C1002 C 0.31806 0.89766 0.0724 0.0
H1003 H 0.30853 0.88516 0.22416 0.0
H1004 H 0.30534 0.88701 0.16979 0.0
H1005 H 0.30663 0.8754 0.18334 0.0
H1006 H 0.31016 0.87213 0.10893 0.0
H1007 H 0.29798 0.86727 0.04669 0.0
H1008 H 0.09857 0.46702 0.28723 0.0
H1009 H 0.10579 0.46214 0.22474 0.0
H1010 H 0.08611 0.42816 0.25735 0.0
H1011 H 0.07901 0.43294 0.31984 0.0
H1012 H 0.10761 0.43428 0.23996 0.0
H1013 H 0.09018 0.44829 0.11168 0.0
H1014 H 0.09822 0.45831 0.15139 0.0
H1015 H 0.0856 0.44656 0.16671 0.0
C1016 C 0.09571 0.45851 0.28082 0.0
C1017 C 0.0882 0.45037 0.30845 0.0
C1018 C 0.09983 0.45573 0.24506 0.0
C1019 C 0.09643 0.44478 0.23623 0.0
C1020 C 0.08886 0.43666 0.26358 0.0
H1021 H 0.09847 0.41201 0.00931 0.0
H1022 H 0.09417 0.41952 0.07183 0.0
C1023 C 0.08478 0.43942 0.29925 0.0
C1024 C 0.10083 0.44164 0.1991 0.0
H1025 H 0.10131 0.44122 0.08949 0.0
C1026 C 0.1063 0.43585 0.20703 0.0
C1027 C 0.09904 0.44364 0.15622 0.0
C1028 C 0.09287 0.44946 0.14574 0.0
C1029 C 0.10985 0.43184 0.17323 0.0
C1030 C 0.10804 0.43381 0.13035 0.0
C1031 C 0.10274 0.43977 0.12242 0.0
C1032 C 0.11086 0.42914 0.09321 0.0
C1033 C 0.11514 0.42516 0.18371 0.0
C1034 C 0.12169 0.43202 0.08451 0.0
C1035 C 0.12419 0.42767 0.04875 0.0
C1036 C 0.11589 0.42043 0.02096 0.0
C1037 C 0.10506 0.41754 0.03003 0.0
C1038 C 0.10258 0.42186 0.0657 0.0
H1039 H 0.11382 0.42244 0.21774 0.0
H1040 H 0.11193 0.41788 0.16265 0.0
H1041 H 0.12404 0.43016 0.17821 0.0
H1042 H 0.12823 0.43776 0.10495 0.0
H1043 H 0.13262 0.43012 0.04245 0.0
H1044 H 0.07933 0.64737 0.32091 0.0
H1045 H 0.08673 0.65935 0.2588 0.0
H1046 H 0.10569 0.64432 0.22554 0.0
H1047 H 0.09818 0.63213 0.28766 0.0
H1048 H 0.10842 0.67435 0.24145 0.0
H1049 H 0.09015 0.64309 0.11275 0.0
H1050 H 0.08557 0.64031 0.16779 0.0
H1051 H 0.098 0.64078 0.15232 0.0
C1052 C 0.08501 0.64653 0.30027 0.0
C1053 C 0.08813 0.63876 0.30917 0.0
C1054 C 0.08926 0.65342 0.26483 0.0
C1055 C 0.0967 0.65269 0.23739 0.0
C1056 C 0.09983 0.64491 0.24595 0.0
H1057 H 0.13369 0.7032 0.0433 0.0
H1058 H 0.12909 0.69114 0.10582 0.0
C1059 C 0.09555 0.63797 0.28149 0.0
C1060 C 0.10125 0.66025 0.20037 0.0
H1061 H 0.10161 0.66125 0.09078 0.0
C1062 C 0.10701 0.6715 0.20847 0.0
C1063 C 0.09931 0.65649 0.15744 0.0
C1064 C 0.09285 0.64452 0.14681 0.0
C1065 C 0.11071 0.6791 0.17478 0.0
C1066 C 0.10874 0.67535 0.13185 0.0
C1067 C 0.10316 0.6641 0.12375 0.0
C1068 C 0.1117 0.6829 0.09486 0.0
C1069 C 0.11633 0.69108 0.18542 0.0
C1070 C 0.10347 0.68222 0.06784 0.0
C1071 C 0.10606 0.68903 0.03218 0.0
C1072 C 0.11696 0.69668 0.02262 0.0
C1073 C 0.12521 0.69745 0.04998 0.0
C1074 C 0.1226 0.69059 0.08574 0.0
H1075 H 0.11518 0.69252 0.21961 0.0
H1076 H 0.12519 0.69476 0.17941 0.0
H1077 H 0.11324 0.69532 0.16477 0.0
H1078 H 0.09501 0.67636 0.0743 0.0
H1079 H 0.0995 0.6882 0.01181 0.0
H1080 H 0.35093 0.433 0.33579 0.0
H1081 H 0.33947 0.42786 0.27206 0.0
H1082 H 0.36234 0.45809 0.21106 0.0
H1083 H 0.37376 0.46349 0.27579 0.0
H1084 H 0.34172 0.45358 0.19883 0.0
H1085 H 0.34433 0.4169 0.16048 0.0
H1086 H 0.33946 0.41639 0.21404 0.0
H1087 H 0.35306 0.42677 0.1997 0.0
C1088 C 0.3536 0.43854 0.30874 0.0
C1089 C 0.36332 0.44862 0.31071 0.0
C1090 C 0.34704 0.43555 0.27218 0.0
C1091 C 0.35015 0.44246 0.23634 0.0
C1092 C 0.35982 0.45259 0.23823 0.0
H1093 H 0.31986 0.4198 0.98739 0.0
H1094 H 0.33213 0.4265 0.04876 0.0
C1095 C 0.36635 0.45565 0.27514 0.0
C1096 C 0.34314 0.43916 0.19746 0.0
H1097 H 0.33021 0.41846 0.12532 0.0
C1098 C 0.33927 0.44594 0.18248 0.0
C1099 C 0.34006 0.42927 0.17576 0.0
C1100 C 0.34454 0.42198 0.18804 0.0
C1101 C 0.33224 0.443 0.14694 0.0
C1102 C 0.32873 0.43285 0.12661 0.0
C1103 C 0.33276 0.42617 0.1412 0.0
C1104 C 0.32121 0.4291 0.08913 0.0
C1105 C 0.32885 0.45092 0.13108 0.0
C1106 C 0.31091 0.42825 0.09128 0.0
C1107 C 0.30389 0.42454 0.05578 0.0
C1108 C 0.30697 0.4214 0.0179 0.0
C1109 C 0.3172 0.4221 0.01616 0.0
C1110 C 0.32425 0.42595 0.05126 0.0
H1111 H 0.33467 0.45938 0.14144 0.0
H1112 H 0.32825 0.45077 0.0955 0.0
H1113 H 0.32076 0.44866 0.14467 0.0
H1114 H 0.30824 0.43034 0.12051 0.0
H1115 H 0.29603 0.42402 0.05816 0.0
H1116 H 0.53908 0.91095 0.27237 0.0
H1117 H 0.54484 0.90462 0.20967 0.0
H1118 H 0.57343 0.90976 0.27853 0.0
H1119 H 0.56798 0.91647 0.34021 0.0
H1120 H 0.57878 0.91738 0.20094 0.0
H1121 H 0.54299 0.87583 0.19077 0.0
H1122 H 0.53938 0.88624 0.18729 0.0
H1123 H 0.54529 0.88467 0.236 0.0
C1124 C 0.54659 0.91072 0.27403 0.0
C1125 C 0.55307 0.91422 0.3112 0.0
C1126 C 0.54982 0.907 0.23835 0.0
C1127 C 0.55947 0.9065 0.23962 0.0
C1128 C 0.56595 0.91004 0.27673 0.0
H1129 H 0.57787 0.87192 0.05525 0.0
H1130 H 0.57187 0.87752 0.11949 0.0
C1131 C 0.56281 0.91389 0.31201 0.0
C1132 C 0.56313 0.90269 0.20202 0.0
H1133 H 0.55545 0.88151 0.13212 0.0
C1134 C 0.57368 0.90951 0.18606 0.0
C1135 C 0.55658 0.89234 0.18302 0.0
C1136 C 0.54548 0.8843 0.2004 0.0
C1137 C 0.5778 0.90634 0.15147 0.0
C1138 C 0.57106 0.89622 0.13112 0.0
C1139 C 0.56058 0.88931 0.14743 0.0
C1140 C 0.57469 0.89277 0.09241 0.0
C1141 C 0.58944 0.91381 0.13775 0.0
C1142 C 0.57812 0.8994 0.05573 0.0
C1143 C 0.58169 0.89631 0.01944 0.0
C1144 C 0.58169 0.8864 0.01864 0.0
C1145 C 0.57802 0.87963 0.055 0.0
C1146 C 0.57456 0.8828 0.09164 0.0
H1147 H 0.59441 0.9192 0.16449 0.0
H1148 H 0.59331 0.90914 0.12633 0.0
H1149 H 0.58958 0.91909 0.11119 0.0
H1150 H 0.57798 0.90696 0.05501 0.0
H1151 H 0.58431 0.90165 0.99175 0.0
H1152 H 0.22567 0.98002 0.84538 0.0
H1153 H 0.2299 0.99292 0.90399 0.0
H1154 H 0.19613 0.97615 0.94211 0.0
H1155 H 0.19188 0.96292 0.88426 0.0
H1156 H 0.22333 0.00702 0.92293 0.0
H1157 H 0.21065 0.97625 0.05308 0.0
H1158 H 0.21182 0.97313 0.99788 0.0
H1159 H 0.20006 0.97375 0.01548 0.0
C1160 C 0.21911 0.97907 0.86612 0.0
C1161 C 0.20845 0.97038 0.86039 0.0
C1162 C 0.22155 0.98647 0.89962 0.0
C1163 C 0.21337 0.98539 0.92796 0.0
C1164 C 0.20263 0.97697 0.92137 0.0
H1165 H 0.23004 0.03861 0.1125 0.0
H1166 H 0.22103 0.02544 0.05447 0.0
C1167 C 0.2002 0.96946 0.88812 0.0
C1168 C 0.21627 0.99304 0.9646 0.0
H1169 H 0.21674 0.99434 0.07414 0.0
C1170 C 0.22184 0.00426 0.95602 0.0
C1171 C 0.21441 0.98941 0.00776 0.0
C1172 C 0.209 0.97749 0.01926 0.0
C1173 C 0.22587 0.01196 0.98932 0.0
C1174 C 0.22396 0.00833 0.03248 0.0
C1175 C 0.21812 0.99711 0.04105 0.0
C1176 C 0.22874 0.01596 0.06917 0.0
C1177 C 0.23258 0.02387 0.97784 0.0
C1178 C 0.23568 0.01473 0.09784 0.0
C1179 C 0.24066 0.02209 0.13144 0.0
C1180 C 0.23886 0.0309 0.13693 0.0
C1181 C 0.23169 0.03198 0.10883 0.0
C1182 C 0.22659 0.0245 0.07549 0.0
H1183 H 0.23553 0.02506 0.94413 0.0
H1184 H 0.2275 0.02774 0.98132 0.0
H1185 H 0.23973 0.02813 0.99944 0.0
H1186 H 0.23744 0.00818 0.09368 0.0
H1187 H 0.24613 0.02101 0.15246 0.0
H1188 H 0.9602 0.19223 0.09468 0.0
H1189 H 0.97399 0.1968 0.03896 0.0
H1190 H 0.99776 0.22282 0.11799 0.0
H1191 H 0.98405 0.21843 0.17351 0.0
H1192 H 0.99601 0.22948 0.03727 0.0
H1193 H 1.0007 0.19298 0.02796 0.0
H1194 H 0.98686 0.1901 0.02462 0.0
H1195 H 0.99445 0.19568 0.07329 0.0
C1196 C 0.96841 0.1988 0.10053 0.0
C1197 C 0.97099 0.20501 0.13845 0.0
C1198 C 0.9763 0.20136 0.06875 0.0
C1199 C 0.98692 0.21009 0.07453 0.0
C1200 C 0.98962 0.21603 0.11297 0.0
H1201 H 0.04356 0.23423 0.90679 0.0
H1202 H 0.0306 0.22571 0.96599 0.0
C1203 C 0.98175 0.21351 0.14464 0.0
C1204 C 0.99492 0.2138 0.03895 0.0
H1205 H 0.00874 0.20598 0.97134 0.0
C1206 C 0.99884 0.22436 0.02306 0.0
C1207 C 0.99865 0.20712 0.02067 0.0
C1208 C 0.99504 0.19587 0.0377 0.0
C1209 C 0.00624 0.22839 0.98889 0.0
C1210 C 0.00969 0.2216 0.96963 0.0
C1211 C 0.00598 0.2111 0.98599 0.0
C1212 C 0.01711 0.22537 0.93224 0.0
C1213 C 0.01036 0.23991 0.9738 0.0
C1214 C 0.01368 0.22764 0.89335 0.0
C1215 C 0.02103 0.23253 0.85966 0.0
C1216 C 0.03196 0.23519 0.86414 0.0
C1217 C 0.03522 0.23233 0.90235 0.0
C1218 C 0.02783 0.22745 0.93617 0.0
H1219 H 0.00895 0.24481 0.99809 0.0
H1220 H 0.0192 0.24402 0.96649 0.0
H1221 H 0.00601 0.23976 0.94395 0.0
H1222 H 0.00539 0.22595 0.88958 0.0
H1223 H 0.0182 0.2345 0.83053 0.0
H1224 H 0.7663 0.78291 0.83027 0.0
H1225 H 0.77536 0.77872 0.88763 0.0
H1226 H 0.77821 0.80566 0.96197 0.0
H1227 H 0.76919 0.81001 0.90452 0.0
H1228 H 0.79735 0.80245 0.96307 0.0
H1229 H 0.75795 0.76536 0.00123 0.0
H1230 H 0.76215 0.76666 0.94604 0.0
H1231 H 0.75883 0.77629 0.96864 0.0
C1232 C 0.76896 0.78805 0.85855 0.0
C1233 C 0.76688 0.79672 0.86304 0.0
C1234 C 0.77413 0.78563 0.89127 0.0
C1235 C 0.7773 0.7918 0.92914 0.0
C1236 C 0.77579 0.8008 0.93292 0.0
H1237 H 0.78573 0.76837 0.17335 0.0
H1238 H 0.78152 0.77743 0.1162 0.0
C1239 C 0.77061 0.80325 0.90012 0.0
C1240 C 0.78136 0.78828 0.96598 0.0
H1241 H 0.77348 0.7676 0.03812 0.0
C1242 C 0.79216 0.79485 0.97966 0.0
C1243 C 0.77449 0.77844 0.98774 0.0
C1244 C 0.76268 0.7713 0.97553 0.0
C1245 C 0.79634 0.7917 0.01426 0.0
C1246 C 0.78953 0.7817 0.03525 0.0
C1247 C 0.77869 0.77524 0.02184 0.0
C1248 C 0.79332 0.77769 0.0715 0.0
C1249 C 0.80792 0.79912 0.02846 0.0
C1250 C 0.80152 0.77502 0.06557 0.0
C1251 C 0.80398 0.76984 0.09833 0.0
C1252 C 0.7982 0.76715 0.13733 0.0
C1253 C 0.7903 0.77025 0.14363 0.0
C1254 C 0.78788 0.77545 0.11103 0.0
H1255 H 0.81115 0.80755 0.01629 0.0
H1256 H 0.80855 0.79937 0.06405 0.0
H1257 H 0.81314 0.79599 0.01575 0.0
H1258 H 0.80568 0.77651 0.03501 0.0
H1259 H 0.81009 0.76754 0.0924 0.0
H1260 H 0.75929 0.98206 0.84636 0.0
H1261 H 0.76903 0.99494 0.90372 0.0
H1262 H 0.78334 0.97572 0.94328 0.0
H1263 H 0.77325 0.96249 0.88655 0.0
H1264 H 0.77596 0.98115 0.01026 0.0
H1265 H 0.8 0.01832 0.91449 0.0
H1266 H 0.78588 0.01233 0.90101 0.0
H1267 H 0.79296 0.00498 0.89028 0.0
C1268 C 0.7646 0.98061 0.86688 0.0
C1269 C 0.76551 0.97125 0.86177 0.0
C1270 C 0.77025 0.98806 0.8995 0.0
C1271 C 0.77714 0.98647 0.92722 0.0
C1272 C 0.77815 0.97718 0.92202 0.0
H1273 H 0.81213 0.03963 0.11256 0.0
H1274 H 0.80888 0.02631 0.05609 0.0
C1275 C 0.77238 0.96962 0.88962 0.0
C1276 C 0.78254 0.99409 0.9635 0.0
H1277 H 0.79642 0.02113 0.98839 0.0
C1278 C 0.78062 0.98989 0.00542 0.0
C1279 C 0.78886 0.00549 0.95736 0.0
C1280 C 0.79215 0.01052 0.91328 0.0
C1281 C 0.78422 0.99678 0.04133 0.0
C1282 C 0.78956 0.00819 0.03514 0.0
C1283 C 0.79214 0.01239 0.99325 0.0
C1284 C 0.79182 0.01587 0.07127 0.0
C1285 C 0.78216 0.99174 0.08547 0.0
C1286 C 0.78332 0.01448 0.0984 0.0
C1287 C 0.78517 0.02198 0.13089 0.0
C1288 C 0.79554 0.03119 0.13643 0.0
C1289 C 0.80406 0.03262 0.10914 0.0
C1290 C 0.80221 0.02501 0.07689 0.0
H1291 H 0.782 0.98383 0.08462 0.0
H1292 H 0.78846 0.99717 0.10882 0.0
H1293 H 0.77408 0.99011 0.09703 0.0
H1294 H 0.77514 0.00772 0.09382 0.0
H1295 H 0.77839 0.02069 0.15098 0.0
H1296 H 0.01951 0.78256 0.82671 0.0
H1297 H 0.00593 0.77768 0.88321 0.0
H1298 H 0.02966 0.80359 0.96276 0.0
H1299 H 0.04329 0.80868 0.90603 0.0
H1300 H 0.00761 0.77069 0.96241 0.0
H1301 H 0.00306 0.80718 0.97687 0.0
H1302 H 0.00943 0.80483 0.93106 0.0
H1303 H 0.0169 0.81011 0.98022 0.0
C1304 C 0.02182 0.78734 0.85595 0.0
C1305 C 0.03251 0.79599 0.86191 0.0
C1306 C 0.01403 0.78454 0.88819 0.0
C1307 C 0.01675 0.79033 0.92702 0.0
C1308 C 0.02732 0.79915 0.9327 0.0
H1309 H 0.98519 0.76413 0.16996 0.0
H1310 H 0.99806 0.77262 0.11099 0.0
C1311 C 0.03513 0.80201 0.90032 0.0
C1312 C 0.00881 0.78644 0.96287 0.0
H1313 H 0.99522 0.79397 0.03292 0.0
C1314 C 0.00486 0.77577 0.97763 0.0
C1315 C 0.00517 0.79305 0.98246 0.0
C1316 C 0.00877 0.8044 0.96663 0.0
C1317 C 0.99749 0.77156 0.01188 0.0
C1318 C 0.99415 0.77829 0.03251 0.0
C1319 C 0.99792 0.78889 0.0173 0.0
C1320 C 0.98672 0.77433 0.06988 0.0
C1321 C 0.99326 0.75991 0.02543 0.0
C1322 C 0.97622 0.77292 0.06691 0.0
C1323 C 0.96883 0.7681 0.10071 0.0
C1324 C 0.97184 0.76464 0.138 0.0
C1325 C 0.98255 0.76658 0.14154 0.0
C1326 C 0.98992 0.77141 0.10785 0.0
H1327 H 0.99444 0.75512 -8e-05 0.0
H1328 H 0.99773 0.75977 0.05444 0.0
H1329 H 0.98446 0.75586 0.03351 0.0
H1330 H 0.97363 0.77518 0.03786 0.0
H1331 H 0.96066 0.76677 0.09701 0.0
H1332 H 0.23449 0.217 0.17605 0.0
H1333 H 0.22532 0.2217 0.12093 0.0
H1334 H 0.22501 0.19742 0.03669 0.0
H1335 H 0.23402 0.1925 0.09203 0.0
H1336 H 0.23441 0.22992 0.0434 0.0
H1337 H 0.19435 0.19255 0.02088 0.0
H1338 H 0.20281 0.19469 0.06739 0.0
H1339 H 0.20569 0.19027 0.01746 0.0
C1340 C 0.23231 0.21251 0.14609 0.0
C1341 C 0.23505 0.20441 0.13835 0.0
C1342 C 0.22705 0.21521 0.11466 0.0
C1343 C 0.2244 0.20986 0.07485 0.0
C1344 C 0.22677 0.2015 0.06751 0.0
H1345 H 0.22012 0.23675 0.83366 0.0
H1346 H 0.22391 0.22792 0.89305 0.0
C1347 C 0.23199 0.19874 0.09909 0.0
C1348 C 0.22031 0.21388 0.03965 0.0
H1349 H 0.19975 0.2063 0.96675 0.0
C1350 C 0.22678 0.22477 0.02692 0.0
C1351 C 0.21033 0.20716 0.01835 0.0
C1352 C 0.20283 0.19554 0.03193 0.0
C1353 C 0.22368 0.22908 0.9929 0.0
C1354 C 0.21392 0.22227 0.97052 0.0
C1355 C 0.20728 0.21145 0.98379 0.0
C1356 C 0.21069 0.22633 0.93282 0.0
C1357 C 0.23087 0.24091 0.98111 0.0
C1358 C 0.20175 0.22798 0.93503 0.0
C1359 C 0.19953 0.23304 0.90105 0.0
C1360 C 0.20623 0.23649 0.86435 0.0
C1361 C 0.21485 0.2343 0.86156 0.0
C1362 C 0.21705 0.22926 0.89546 0.0
H1363 H 0.23666 0.24559 0.00728 0.0
H1364 H 0.23567 0.24149 0.95206 0.0
H1365 H 0.2259 0.24476 0.97365 0.0
H1366 H 0.19675 0.22574 0.96368 0.0
H1367 H 0.19281 0.23457 0.90416 0.0
H1368 H 0.91115 0.35519 0.4858 0.0
H1369 H 0.90184 0.34226 0.42798 0.0
H1370 H 0.88555 0.35985 0.39166 0.0
H1371 H 0.89523 0.37315 0.44869 0.0
H1372 H 0.88109 0.32858 0.41028 0.0
H1373 H 0.89914 0.35923 0.27955 0.0
H1374 H 0.90368 0.36235 0.33446 0.0
H1375 H 0.89129 0.36186 0.3179 0.0
C1376 C 0.90556 0.35632 0.46566 0.0
C1377 C 0.90401 0.36527 0.47159 0.0
C1378 C 0.90023 0.34889 0.4326 0.0
C1379 C 0.89314 0.35018 0.40494 0.0
C1380 C 0.89121 0.35885 0.41185 0.0
H1381 H 0.85732 0.29651 0.2201 0.0
H1382 H 0.86077 0.30967 0.27752 0.0
C1383 C 0.89669 0.36641 0.44463 0.0
C1384 C 0.8881 0.34253 0.36845 0.0
H1385 H 0.88727 0.34113 0.25893 0.0
C1386 C 0.88236 0.33132 0.37715 0.0
C1387 C 0.88984 0.34613 0.32524 0.0
C1388 C 0.8964 0.35804 0.31355 0.0
C1389 C 0.87871 0.32359 0.34395 0.0
C1390 C 0.88052 0.32719 0.30075 0.0
C1391 C 0.88585 0.3384 0.29206 0.0
C1392 C 0.87802 0.31957 0.26423 0.0
C1393 C 0.87353 0.31169 0.35562 0.0
C1394 C 0.88644 0.32101 0.23651 0.0
C1395 C 0.88445 0.31366 0.20325 0.0
C1396 C 0.874 0.30463 0.19717 0.0
C1397 C 0.86549 0.30332 0.22427 0.0
C1398 C 0.86746 0.3108 0.25726 0.0
H1399 H 0.87511 0.31053 0.38962 0.0
H1400 H 0.86458 0.30775 0.35128 0.0
H1401 H 0.87659 0.30747 0.33469 0.0
H1402 H 0.89465 0.32772 0.24118 0.0
H1403 H 0.8912 0.31493 0.18302 0.0
H1404 H 0.7105 0.56913 0.24007 0.0
H1405 H 0.69705 0.5603 0.29731 0.0
H1406 H 0.67269 0.56163 0.21885 0.0
H1407 H 0.68605 0.57056 0.16184 0.0
H1408 H 0.6748 0.5706 0.29906 0.0
H1409 H 0.67057 0.52961 0.31115 0.0
H1410 H 0.68435 0.54073 0.3131 0.0
H1411 H 0.67649 0.53831 0.26492 0.0
C1412 C 0.70224 0.56739 0.23472 0.0
C1413 C 0.69938 0.57062 0.19647 0.0
C1414 C 0.69455 0.56227 0.26738 0.0
C1415 C 0.68386 0.56023 0.26214 0.0
C1416 C 0.6809 0.56311 0.22347 0.0
H1417 H 0.62734 0.52737 0.42899 0.0
H1418 H 0.64055 0.53206 0.37065 0.0
C1419 C 0.68856 0.56824 0.19094 0.0
C1420 C 0.67602 0.55607 0.29826 0.0
H1421 H 0.66236 0.53461 0.36676 0.0
C1422 C 0.67205 0.56271 0.31374 0.0
C1423 C 0.6724 0.54575 0.31711 0.0
C1424 C 0.67608 0.53812 0.30055 0.0
C1425 C 0.66465 0.55938 0.3479 0.0
C1426 C 0.66126 0.5492 0.3676 0.0
C1427 C 0.66508 0.54245 0.35178 0.0
C1428 C 0.65371 0.54551 0.40457 0.0
C1429 C 0.66041 0.56673 0.36233 0.0
C1430 C 0.65687 0.55131 0.44331 0.0
C1431 C 0.64936 0.5487 0.47653 0.0
C1432 C 0.63855 0.54019 0.47172 0.0
C1433 C 0.63557 0.534 0.43367 0.0
C1434 C 0.64311 0.53665 0.40034 0.0
H1435 H 0.66178 0.57296 0.33769 0.0
H1436 H 0.65156 0.56195 0.36954 0.0
H1437 H 0.66471 0.57104 0.39208 0.0
H1438 H 0.66507 0.55808 0.44734 0.0
H1439 H 0.65197 0.55357 0.50555 0.0
H1440 H 0.43612 0.14335 0.23703 0.0
H1441 H 0.44532 0.13876 0.29277 0.0
H1442 H 0.44316 0.11282 0.21354 0.0
H1443 H 0.43384 0.11721 0.15803 0.0
H1444 H 0.43462 0.10603 0.29364 0.0
H1445 H 0.47576 0.14256 0.30515 0.0
H1446 H 0.46481 0.14545 0.30834 0.0
H1447 H 0.46691 0.13998 0.25955 0.0
C1448 C 0.43778 0.1368 0.23113 0.0
C1449 C 0.43417 0.13059 0.1932 0.0
C1450 C 0.44311 0.13423 0.26292 0.0
C1451 C 0.44501 0.12551 0.25712 0.0
C1452 C 0.4418 0.1196 0.21859 0.0
H1453 H 0.47684 0.10106 0.42683 0.0
H1454 H 0.47271 0.10976 0.36743 0.0
C1455 C 0.43645 0.12212 0.18693 0.0
C1456 C 0.44921 0.12175 0.29282 0.0
H1457 H 0.47058 0.12951 0.3618 0.0
C1458 C 0.44252 0.11115 0.30831 0.0
C1459 C 0.45954 0.12842 0.31173 0.0
C1460 C 0.46723 0.1397 0.29514 0.0
C1461 C 0.44578 0.10708 0.3427 0.0
C1462 C 0.45593 0.11387 0.36263 0.0
C1463 C 0.46276 0.12439 0.34665 0.0
C1464 C 0.45943 0.11005 0.4003 0.0
C1465 C 0.43834 0.09552 0.35736 0.0
C1466 C 0.45356 0.1077 0.4388 0.0
C1467 C 0.45585 0.10271 0.47261 0.0
C1468 C 0.4641 0.10002 0.46863 0.0
C1469 C 0.47041 0.10298 0.43088 0.0
C1470 C 0.46808 0.10796 0.39694 0.0
H1471 H 0.43214 0.09065 0.33268 0.0
H1472 H 0.44307 0.09143 0.36501 0.0
H1473 H 0.43401 0.0956 0.38692 0.0
H1474 H 0.44694 0.10939 0.44212 0.0
H1475 H 0.45091 0.10066 0.50138 0.0
H1476 H 0.43386 0.29301 0.23812 0.0
H1477 H 0.44214 0.30614 0.29677 0.0
H1478 H 0.43837 0.32988 0.22384 0.0
H1479 H 0.42997 0.31681 0.16535 0.0
H1480 H 0.46041 0.32771 0.30118 0.0
H1481 H 0.42129 0.32627 0.3355 0.0
H1482 H 0.42216 0.31642 0.30157 0.0
H1483 H 0.42583 0.32965 0.28091 0.0
C1484 C 0.43489 0.30106 0.23435 0.0
C1485 C 0.43112 0.30381 0.19726 0.0
C1486 C 0.43963 0.30855 0.26787 0.0
C1487 C 0.44068 0.31889 0.26486 0.0
C1488 C 0.43744 0.32185 0.22706 0.0
H1489 H 0.4746 0.37543 0.42963 0.0
H1490 H 0.46964 0.36195 0.3724 0.0
C1491 C 0.43266 0.31438 0.19363 0.0
C1492 C 0.44462 0.3264 0.30202 0.0
H1493 H 0.43683 0.33957 0.37276 0.0
C1494 C 0.45527 0.3303 0.317 0.0
C1495 C 0.43781 0.32959 0.32294 0.0
C1496 C 0.4261 0.3252 0.30975 0.0
C1497 C 0.45938 0.33753 0.35193 0.0
C1498 C 0.45268 0.34101 0.37186 0.0
C1499 C 0.44197 0.33694 0.35727 0.0
C1500 C 0.4565 0.34886 0.40796 0.0
C1501 C 0.47077 0.34124 0.36755 0.0
C1502 C 0.45074 0.346 0.44687 0.0
C1503 C 0.45347 0.3537 0.47941 0.0
C1504 C 0.46201 0.36445 0.47367 0.0
C1505 C 0.46801 0.36721 0.43518 0.0
C1506 C 0.46523 0.3595 0.4025 0.0
H1507 H 0.47366 0.33565 0.35695 0.0
H1508 H 0.47639 0.34943 0.35416 0.0
H1509 H 0.47122 0.34183 0.40314 0.0
H1510 H 0.44396 0.33784 0.45168 0.0
H1511 H 0.44871 0.35127 0.5087 0.0
H1512 H 0.70681 0.14671 0.21755 0.0
H1513 H 0.69356 0.14356 0.27432 0.0
H1514 H 0.67511 0.10967 0.23845 0.0
H1515 H 0.68796 0.11284 0.18092 0.0
H1516 H 0.6619 0.11724 0.25555 0.0
H1517 H 0.69238 0.12937 0.38685 0.0
H1518 H 0.69517 0.13984 0.34822 0.0
H1519 H 0.69549 0.12782 0.33208 0.0
C1520 C 0.69989 0.13861 0.22168 0.0
C1521 C 0.69848 0.13002 0.19491 0.0
C1522 C 0.69236 0.13681 0.25429 0.0
C1523 C 0.68345 0.12633 0.26124 0.0
C1524 C 0.68192 0.11783 0.23379 0.0
H1525 H 0.64836 0.09228 0.48023 0.0
H1526 H 0.66111 0.10217 0.42266 0.0
C1527 C 0.6893 0.11966 0.20089 0.0
C1528 C 0.6758 0.12393 0.2976 0.0
H1529 H 0.67427 0.12305 0.40708 0.0
C1530 C 0.66459 0.11859 0.28873 0.0
C1531 C 0.67935 0.12568 0.34087 0.0
C1532 C 0.69124 0.1309 0.35276 0.0
C1533 C 0.65682 0.11443 0.32176 0.0
C1534 C 0.66037 0.11601 0.36501 0.0
C1535 C 0.67158 0.12187 0.37391 0.0
C1536 C 0.65273 0.11056 0.40123 0.0
C1537 C 0.64494 0.10779 0.3098 0.0
C1538 C 0.64382 0.11208 0.40889 0.0
C1539 C 0.63635 0.10625 0.44152 0.0
C1540 C 0.63782 0.09898 0.46759 0.0
C1541 C 0.64698 0.09781 0.46081 0.0
C1542 C 0.65431 0.10349 0.4279 0.0
H1543 H 0.6438 0.10529 0.2755 0.0
H1544 H 0.6407 0.10036 0.32992 0.0
H1545 H 0.64098 0.11274 0.31509 0.0
H1546 H 0.64259 0.11771 0.38948 0.0
H1547 H 0.62944 0.10741 0.44628 0.0
H1548 H 0.90889 0.55594 0.4871 0.0
H1549 H 0.89884 0.55902 0.43088 0.0
H1550 H 0.88345 0.52518 0.39452 0.0
H1551 H 0.89388 0.5221 0.44999 0.0
H1552 H 0.89047 0.5373 0.32638 0.0
H1553 H 0.86822 0.55245 0.42239 0.0
H1554 H 0.88245 0.56034 0.43424 0.0
H1555 H 0.87509 0.54601 0.44682 0.0
C1556 C 0.90326 0.54909 0.46759 0.0
C1557 C 0.90217 0.53876 0.47311 0.0
C1558 C 0.89743 0.55085 0.43563 0.0
C1559 C 0.89017 0.54228 0.40907 0.0
C1560 C 0.88893 0.5319 0.41488 0.0
H1561 H 0.85625 0.56185 0.22377 0.0
H1562 H 0.85891 0.55147 0.2807 0.0
C1563 C 0.8949 0.53015 0.44656 0.0
C1564 C 0.88469 0.54448 0.373 0.0
H1565 H 0.87166 0.55846 0.3478 0.0
C1566 C 0.88616 0.54173 0.33118 0.0
C1567 C 0.87879 0.55 0.37907 0.0
C1568 C 0.87594 0.55224 0.42316 0.0
C1569 C 0.88259 0.54504 0.29522 0.0
C1570 C 0.87776 0.55159 0.30119 0.0
C1571 C 0.87557 0.55364 0.34307 0.0
C1572 C 0.87577 0.55714 0.2648 0.0
C1573 C 0.88418 0.54159 0.25123 0.0
C1574 C 0.88436 0.56382 0.23713 0.0
C1575 C 0.88283 0.56963 0.2044 0.0
C1576 C 0.87273 0.56909 0.19914 0.0
C1577 C 0.86412 0.56243 0.22694 0.0
C1578 C 0.86563 0.55649 0.25946 0.0
H1579 H 0.88384 0.5336 0.25267 0.0
H1580 H 0.87791 0.54096 0.22818 0.0
H1581 H 0.89234 0.54765 0.2389 0.0
H1582 H 0.89237 0.56478 0.24146 0.0
H1583 H 0.88968 0.57478 0.18394 0.0
H1584 H 0.52605 0.62544 0.57237 0.0
H1585 H 0.53012 0.63853 0.63065 0.0
H1586 H 0.55619 0.66351 0.55554 0.0
H1587 H 0.55228 0.65055 0.49746 0.0
H1588 H 0.56234 0.66011 0.63744 0.0
H1589 H 0.52617 0.66553 0.645 0.0
H1590 H 0.5234 0.65169 0.64381 0.0
H1591 H 0.52949 0.6603 0.59795 0.0
C1592 C 0.53252 0.63376 0.56794 0.0
C1593 C 0.5389 0.63691 0.53038 0.0
C1594 C 0.53479 0.64125 0.60119 0.0
C1595 C 0.54341 0.65199 0.59723 0.0
C1596 C 0.54949 0.65525 0.55913 0.0
H1597 H 0.56782 0.70878 0.76025 0.0
H1598 H 0.55887 0.69513 0.7037 0.0
C1599 C 0.54724 0.64781 0.526 0.0
C1600 C 0.54691 0.65955 0.63417 0.0
H1601 H 0.5393 0.67377 0.70044 0.0
C1602 C 0.5573 0.66309 0.65123 0.0
C1603 C 0.54033 0.66346 0.6518 0.0
C1604 C 0.52925 0.66014 0.63362 0.0
C1605 C 0.56132 0.67045 0.68554 0.0
C1606 C 0.55468 0.67423 0.70376 0.0
C1607 C 0.5443 0.67075 0.68659 0.0
C1608 C 0.55863 0.68202 0.73998 0.0
C1609 C 0.57273 0.67428 0.70144 0.0
C1610 C 0.5611 0.67903 0.77951 0.0
C1611 C 0.56627 0.6868 0.81169 0.0
C1612 C 0.56899 0.69768 0.80505 0.0
C1613 C 0.56589 0.70048 0.76633 0.0
C1614 C 0.56075 0.6927 0.73402 0.0
H1615 H 0.57757 0.67258 0.67788 0.0
H1616 H 0.57707 0.68316 0.7082 0.0
H1617 H 0.57233 0.66998 0.73174 0.0
H1618 H 0.55936 0.67077 0.78489 0.0
H1619 H 0.56842 0.68432 0.84132 0.0
H1620 H 0.29472 0.86006 0.76561 0.0
H1621 H 0.30856 0.86528 0.70968 0.0
H1622 H 0.33142 0.89221 0.78757 0.0
H1623 H 0.31761 0.88719 0.84327 0.0
H1624 H 0.32953 0.89843 0.70722 0.0
H1625 H 0.33597 0.86301 0.69873 0.0
H1626 H 0.32194 0.85941 0.6945 0.0
H1627 H 0.32925 0.86528 0.74352 0.0
C1628 C 0.30275 0.86699 0.77117 0.0
C1629 C 0.30504 0.87325 0.80882 0.0
C1630 C 0.31067 0.86992 0.73926 0.0
C1631 C 0.32105 0.87907 0.74466 0.0
C1632 C 0.32347 0.8851 0.78283 0.0
H1633 H 0.37709 0.90326 0.57359 0.0
H1634 H 0.36439 0.89501 0.63366 0.0
C1635 C 0.31555 0.88222 0.8146 0.0
C1636 C 0.32904 0.88301 0.70901 0.0
H1637 H 0.34325 0.87579 0.6409 0.0
C1638 C 0.33258 0.8935 0.69294 0.0
C1639 C 0.33308 0.8766 0.69066 0.0
C1640 C 0.32996 0.86549 0.70797 0.0
C1641 C 0.33989 0.89769 0.6585 0.0
C1642 C 0.34359 0.89113 0.63902 0.0
C1643 C 0.34027 0.88073 0.65563 0.0
C1644 C 0.35091 0.89502 0.6013 0.0
C1645 C 0.34365 0.90915 0.64347 0.0
C1646 C 0.3474 0.89742 0.56286 0.0
C1647 C 0.35462 0.90217 0.52865 0.0
C1648 C 0.36547 0.90453 0.53211 0.0
C1649 C 0.36881 0.90159 0.56993 0.0
C1650 C 0.36157 0.89687 0.60426 0.0
H1651 H 0.3423 0.91397 0.66831 0.0
H1652 H 0.35243 0.91343 0.63502 0.0
H1653 H 0.33899 0.90885 0.61439 0.0
H1654 H 0.33914 0.89586 0.55973 0.0
H1655 H 0.35173 0.9042 0.49984 0.0
H1656 H 0.14449 0.4385 0.7772 0.0
H1657 H 0.14145 0.44857 0.72012 0.0
H1658 H 0.10794 0.43457 0.75963 0.0
H1659 H 0.11099 0.42484 0.81735 0.0
H1660 H 0.12858 0.44115 0.65313 0.0
H1661 H 0.11591 0.46566 0.7484 0.0
H1662 H 0.12209 0.45852 0.77274 0.0
H1663 H 0.10767 0.45156 0.76195 0.0
C1664 C 0.13652 0.43769 0.77405 0.0
C1665 C 0.128 0.43091 0.80199 0.0
C1666 C 0.1348 0.44345 0.74143 0.0
C1667 C 0.12453 0.44252 0.73611 0.0
C1668 C 0.11603 0.43573 0.76392 0.0
H1669 H 0.09213 0.44478 0.51151 0.0
H1670 H 0.10156 0.44109 0.56862 0.0
C1671 C 0.11777 0.43008 0.79676 0.0
C1672 C 0.12239 0.44794 0.69969 0.0
H1673 H 0.10972 0.46227 0.67439 0.0
C1674 C 0.12464 0.44594 0.65783 0.0
C1675 C 0.11749 0.45443 0.70566 0.0
C1676 C 0.11578 0.45777 0.74969 0.0
C1677 C 0.1215 0.44965 0.62181 0.0
C1678 C 0.11564 0.45521 0.62782 0.0
C1679 C 0.11402 0.45782 0.66966 0.0
C1680 C 0.11046 0.45772 0.59153 0.0
C1681 C 0.12443 0.44749 0.57775 0.0
C1682 C 0.11206 0.46825 0.58603 0.0
C1683 C 0.10647 0.47035 0.55381 0.0
C1684 C 0.09922 0.46195 0.52642 0.0
C1685 C 0.09775 0.45146 0.5317 0.0
C1686 C 0.10322 0.44935 0.56418 0.0
H1687 H 0.13204 0.44707 0.57877 0.0
H1688 H 0.11784 0.43951 0.56601 0.0
H1689 H 0.12553 0.45389 0.55443 0.0
H1690 H 0.11754 0.47482 0.60698 0.0
H1691 H 0.10778 0.47852 0.55059 0.0
H1692 H 0.11107 0.68666 0.81962 0.0
H1693 H 0.10744 0.67363 0.76222 0.0
H1694 H 0.14119 0.69154 0.72402 0.0
H1695 H 0.14483 0.7049 0.78073 0.0
H1696 H 0.12851 0.68689 0.65659 0.0
H1697 H 0.11367 0.64925 0.75135 0.0
H1698 H 0.10607 0.65583 0.7644 0.0
H1699 H 0.12045 0.66256 0.7759 0.0
C1700 C 0.11777 0.68778 0.79941 0.0
C1701 C 0.12825 0.69682 0.80483 0.0
C1702 C 0.1157 0.68025 0.76676 0.0
C1703 C 0.12409 0.68145 0.73934 0.0
C1704 C 0.1346 0.69039 0.74501 0.0
H1705 H 0.10623 0.62873 0.5527 0.0
H1706 H 0.11593 0.64189 0.61004 0.0
C1707 C 0.13667 0.69802 0.77742 0.0
C1708 C 0.12162 0.67384 0.70284 0.0
H1709 H 0.10794 0.64686 0.67691 0.0
C1710 C 0.12418 0.67814 0.66109 0.0
C1711 C 0.11619 0.66242 0.7086 0.0
C1712 C 0.11406 0.65727 0.75255 0.0
C1713 C 0.1209 0.67133 0.62493 0.0
C1714 C 0.11459 0.65992 0.63065 0.0
C1715 C 0.1126 0.65561 0.67242 0.0
C1716 C 0.1094 0.65236 0.59404 0.0
C1717 C 0.12418 0.67646 0.58101 0.0
C1718 C 0.10248 0.65383 0.56609 0.0
C1719 C 0.09704 0.64641 0.53309 0.0
C1720 C 0.09822 0.63722 0.52784 0.0
C1721 C 0.10515 0.63573 0.55586 0.0
C1722 C 0.1107 0.64324 0.58864 0.0
H1723 H 0.13194 0.68435 0.58247 0.0
H1724 H 0.12516 0.67104 0.55793 0.0
H1725 H 0.11782 0.67812 0.56866 0.0
H1726 H 0.10106 0.66059 0.5704 0.0
H1727 H 0.09168 0.64775 0.51241 0.0
H1728 H 0.29095 0.43307 0.75738 0.0
H1729 H 0.30388 0.44167 0.69819 0.0
H1730 H 0.32961 0.44322 0.77695 0.0
H1731 H 0.31681 0.43458 0.836 0.0
H1732 H 0.32529 0.46186 0.69116 0.0
H1733 H 0.3269 0.42375 0.67178 0.0
H1734 H 0.3164 0.42432 0.70241 0.0
H1735 H 0.32971 0.42933 0.72512 0.0
C1736 C 0.29939 0.4354 0.76234 0.0
C1737 C 0.30281 0.43299 0.8012 0.0
C1738 C 0.30677 0.44032 0.72852 0.0
C1739 C 0.31764 0.44291 0.73312 0.0
C1740 C 0.32121 0.44113 0.77267 0.0
H1741 H 0.37412 0.476 0.56824 0.0
H1742 H 0.36036 0.47162 0.62398 0.0
C1743 C 0.31387 0.43619 0.80635 0.0
C1744 C 0.32506 0.44661 0.69575 0.0
H1745 H 0.33932 0.4389 0.63051 0.0
C1746 C 0.32835 0.45685 0.67768 0.0
C1747 C 0.32889 0.43997 0.67803 0.0
C1748 C 0.32524 0.42869 0.695 0.0
C1749 C 0.3356 0.46074 0.64275 0.0
C1750 C 0.33968 0.45422 0.62594 0.0
C1751 C 0.33621 0.4439 0.6436 0.0
C1752 C 0.34758 0.45782 0.59006 0.0
C1753 C 0.33875 0.47171 0.62383 0.0
C1754 C 0.34494 0.45155 0.5525 0.0
C1755 C 0.35278 0.45397 0.52083 0.0
C1756 C 0.36346 0.46269 0.52615 0.0
C1757 C 0.36597 0.46924 0.56308 0.0
C1758 C 0.3581 0.46679 0.59487 0.0
H1759 H 0.33293 0.47444 0.63307 0.0
H1760 H 0.34693 0.47782 0.63585 0.0
H1761 H 0.33915 0.47152 0.58824 0.0
H1762 H 0.33687 0.44457 0.54826 0.0
H1763 H 0.35053 0.44878 0.49272 0.0
H1764 H 0.56743 0.85888 0.75925 0.0
H1765 H 0.55855 0.86322 0.70111 0.0
H1766 H 0.56064 0.88978 0.77578 0.0
H1767 H 0.56953 0.8856 0.83381 0.0
H1768 H 0.5391 0.86628 0.69956 0.0
H1769 H 0.57856 0.90343 0.66275 0.0
H1770 H 0.57763 0.89241 0.69485 0.0
H1771 H 0.57429 0.90197 0.71789 0.0
C1772 C 0.56586 0.86555 0.76356 0.0
C1773 C 0.56932 0.87199 0.80096 0.0
C1774 C 0.56077 0.86799 0.73037 0.0
C1775 C 0.55909 0.87689 0.7341 0.0
C1776 C 0.562 0.88295 0.77221 0.0
H1777 H 0.52637 0.90149 0.57273 0.0
H1778 H 0.53085 0.89241 0.62944 0.0
C1779 C 0.56708 0.88054 0.80531 0.0
C1780 C 0.55511 0.88043 0.69708 0.0
H1781 H 0.56307 0.9013 0.6258 0.0
C1782 C 0.54432 0.8739 0.68322 0.0
C1783 C 0.562 0.89032 0.67567 0.0
C1784 C 0.5738 0.89742 0.68819 0.0
C1785 C 0.54017 0.87716 0.64882 0.0
C1786 C 0.547 0.88722 0.62825 0.0
C1787 C 0.55783 0.89362 0.64176 0.0
C1788 C 0.54321 0.89136 0.59244 0.0
C1789 C 0.52859 0.86979 0.63444 0.0
C1790 C 0.54865 0.89375 0.55287 0.0
C1791 C 0.5462 0.89901 0.52067 0.0
C1792 C 0.53826 0.90204 0.52739 0.0
C1793 C 0.5325 0.89924 0.56647 0.0
C1794 C 0.53501 0.894 0.59883 0.0
H1795 H 0.52536 0.86132 0.64607 0.0
H1796 H 0.52336 0.87286 0.64761 0.0
H1797 H 0.52797 0.86968 0.59887 0.0
H1798 H 0.55503 0.8918 0.54735 0.0
H1799 H 0.55075 0.90097 0.49088 0.0
H1800 H 0.38249 0.12776 0.18805 0.0
H1801 H 0.36322 0.11787 0.20692 0.0
H1802 H 0.35659 0.09677 0.09759 0.0
H1803 H 0.37597 0.10638 0.0794 0.0
H1804 H 0.34588 0.11527 0.16601 0.0
H1805 H 0.34172 0.0747 0.19052 0.0
H1806 H 0.35477 0.08687 0.18414 0.0
H1807 H 0.3466 0.07999 0.13783 0.0
C1808 C 0.37695 0.12099 0.16804 0.0
C1809 C 0.38078 0.11781 0.13235 0.0
C1810 C 0.36592 0.11534 0.1789 0.0
C1811 C 0.35846 0.10643 0.1542 0.0
C1812 C 0.36222 0.1034 0.11791 0.0
H1813 H 0.28859 0.08022 0.15623 0.0
H1814 H 0.30808 0.09018 0.14136 0.0
C1815 C 0.37329 0.10896 0.10734 0.0
C1816 C 0.34674 0.10053 0.16599 0.0
H1817 H 0.32522 0.07528 0.18759 0.0
C1818 C 0.34138 0.10653 0.17097 0.0
C1819 C 0.3409 0.08915 0.17327 0.0
C1820 C 0.34632 0.08232 0.17162 0.0
C1821 C 0.33034 0.10146 0.1823 0.0
C1822 C 0.32437 0.09002 0.18743 0.0
C1823 C 0.32976 0.08404 0.1832 0.0
C1824 C 0.31251 0.08406 0.1969 0.0
C1825 C 0.32526 0.10849 0.18949 0.0
C1826 C 0.30844 0.07701 0.23236 0.0
C1827 C 0.29725 0.07113 0.24052 0.0
C1828 C 0.28991 0.07221 0.21346 0.0
C1829 C 0.29402 0.0793 0.17805 0.0
C1830 C 0.30518 0.08506 0.16962 0.0
H1831 H 0.3315 0.11695 0.19814 0.0
H1832 H 0.32127 0.10885 0.1594 0.0
H1833 H 0.31905 0.10515 0.21537 0.0
H1834 H 0.31393 0.07606 0.25374 0.0
H1835 H 0.29435 0.06573 0.26802 0.0
H1836 H 0.89727 0.27113 0.07104 0.0
H1837 H 0.90649 0.26078 0.08559 0.0
H1838 H 0.88599 0.24622 0.1964 0.0
H1839 H 0.87649 0.2562 0.18118 0.0
H1840 H 0.91824 0.26111 0.15202 0.0
H1841 H 0.88261 0.21964 0.13796 0.0
H1842 H 0.88216 0.23159 0.12148 0.0
H1843 H 0.88047 0.22763 0.17718 0.0
C1844 C 0.89467 0.26565 0.0983 0.0
C1845 C 0.88608 0.26441 0.12472 0.0
C1846 C 0.89995 0.25975 0.10661 0.0
C1847 C 0.8968 0.25255 0.14162 0.0
C1848 C 0.88836 0.25146 0.16845 0.0
H1849 H 0.93728 0.22903 0.25649 0.0
H1850 H 0.92767 0.23888 0.23971 0.0
C1851 C 0.88297 0.25723 0.15983 0.0
C1852 C 0.90257 0.24646 0.15089 0.0
H1853 H 0.89854 0.22101 0.17004 0.0
C1854 C 0.91394 0.25233 0.15567 0.0
C1855 C 0.89699 0.23499 0.15503 0.0
C1856 C 0.8849 0.22809 0.14719 0.0
C1857 C 0.91986 0.24708 0.16509 0.0
C1858 C 0.91421 0.23566 0.17131 0.0
C1859 C 0.90286 0.22978 0.16588 0.0
C1860 C 0.91991 0.22959 0.18232 0.0
C1861 C 0.93211 0.25381 0.16726 0.0
C1862 C 0.91841 0.2208 0.15672 0.0
C1863 C 0.92369 0.21501 0.16678 0.0
C1864 C 0.93066 0.21793 0.20254 0.0
C1865 C 0.93206 0.22665 0.22846 0.0
C1866 C 0.92664 0.23235 0.2187 0.0
H1867 H 0.93524 0.26155 0.14911 0.0
H1868 H 0.93465 0.25591 0.20125 0.0
H1869 H 0.93598 0.24927 0.15421 0.0
H1870 H 0.91322 0.21847 0.1286 0.0
H1871 H 0.92244 0.20834 0.14607 0.0
H1872 H 0.75214 0.62319 0.16111 0.0
H1873 H 0.76126 0.6426 0.17765 0.0
H1874 H 0.73691 0.6456 0.10577 0.0
H1875 H 0.72779 0.62618 0.0884 0.0
H1876 H 0.7578 0.66215 0.08868 0.0
H1877 H 0.75064 0.65678 0.26434 0.0
H1878 H 0.75734 0.6499 0.24318 0.0
H1879 H 0.74366 0.64574 0.22667 0.0
C1880 C 0.74871 0.62796 0.1487 0.0
C1881 C 0.73918 0.62309 0.12362 0.0
C1882 C 0.7539 0.63905 0.15846 0.0
C1883 C 0.74963 0.64549 0.14371 0.0
C1884 C 0.74029 0.64075 0.11776 0.0
H1885 H 0.76888 0.71061 0.23781 0.0
H1886 H 0.75882 0.69122 0.21972 0.0
C1887 C 0.73509 0.62965 0.10785 0.0
C1888 C 0.75499 0.6572 0.155 0.0
H1889 H 0.76303 0.67475 0.24005 0.0
C1890 C 0.75889 0.66491 0.12175 0.0
C1891 C 0.75625 0.66078 0.19816 0.0
C1892 C 0.75166 0.65287 0.23515 0.0
C1893 C 0.76429 0.67612 0.13053 0.0
C1894 C 0.766 0.6797 0.17375 0.0
C1895 C 0.76183 0.67198 0.20696 0.0
C1896 C 0.77215 0.69141 0.18515 0.0
C1897 C 0.76802 0.68402 0.09341 0.0
C1898 C 0.78304 0.69789 0.17248 0.0
C1899 C 0.7888 0.70896 0.18265 0.0
C1900 C 0.78381 0.71377 0.20608 0.0
C1901 C 0.77297 0.70719 0.21966 0.0
C1902 C 0.7672 0.6961 0.20934 0.0
H1903 H 0.76346 0.68008 0.06352 0.0
H1904 H 0.76699 0.69111 0.10071 0.0
H1905 H 0.77678 0.68705 0.08724 0.0
H1906 H 0.7871 0.69438 0.15472 0.0
H1907 H 0.79716 0.71375 0.17196 0.0
H1908 H 0.05901 0.2911 0.7592 0.0
H1909 H 0.06857 0.31055 0.77609 0.0
H1910 H 0.09387 0.30741 0.83959 0.0
H1911 H 0.08433 0.28797 0.82352 0.0
H1912 H 0.08654 0.31877 0.88773 0.0
H1913 H 0.09625 0.33486 0.72125 0.0
H1914 H 0.08208 0.32543 0.73055 0.0
H1915 H 0.09179 0.32084 0.73408 0.0
C1916 C 0.06665 0.29455 0.77646 0.0
C1917 C 0.0709 0.28796 0.78991 0.0
C1918 C 0.07213 0.30569 0.78592 0.0
C1919 C 0.082 0.31045 0.80866 0.0
C1920 C 0.08628 0.3039 0.82193 0.0
H1921 H 0.1289 0.37899 0.83794 0.0
H1922 H 0.11927 0.35955 0.82146 0.0
C1923 C 0.08081 0.29279 0.81261 0.0
C1924 C 0.08772 0.32218 0.81992 0.0
H1925 H 0.09998 0.34772 0.77677 0.0
C1926 C 0.08949 0.32511 0.86349 0.0
C1927 C 0.09167 0.33042 0.78821 0.0
C1928 C 0.09046 0.32777 0.74088 0.0
C1929 C 0.09504 0.33607 0.87626 0.0
C1930 C 0.09875 0.34431 0.84459 0.0
C1931 C 0.09705 0.34138 0.801 0.0
C1932 C 0.10462 0.35603 0.85589 0.0
C1933 C 0.09708 0.33872 0.92348 0.0
C1934 C 0.09956 0.36051 0.88069 0.0
C1935 C 0.10507 0.37163 0.89037 0.0
C1936 C 0.1157 0.3785 0.8751 0.0
C1937 C 0.12073 0.37395 0.8503 0.0
C1938 C 0.11523 0.36284 0.84074 0.0
H1939 H 0.09625 0.3317 0.94237 0.0
H1940 H 0.10533 0.3458 0.92894 0.0
H1941 H 0.09102 0.34082 0.93589 0.0
H1942 H 0.0913 0.35544 0.89201 0.0
H1943 H 0.10092 0.37486 0.90928 0.0
H1944 H 0.70944 0.77204 0.74077 0.0
H1945 H 0.68983 0.76241 0.75493 0.0
H1946 H 0.69519 0.78251 0.86653 0.0
H1947 H 0.71469 0.79241 0.85171 0.0
H1948 H 0.67822 0.75038 0.82071 0.0
H1949 H 0.67205 0.7858 0.80713 0.0
H1950 H 0.68456 0.78641 0.79111 0.0
H1951 H 0.6821 0.78795 0.84676 0.0
C1952 C 0.70642 0.77445 0.76816 0.0
C1953 C 0.71361 0.78307 0.79485 0.0
C1954 C 0.69522 0.76893 0.77625 0.0
C1955 C 0.691 0.77188 0.81129 0.0
C1956 C 0.6982 0.78031 0.83853 0.0
H1957 H 0.62674 0.73085 0.92336 0.0
H1958 H 0.64622 0.74045 0.907 0.0
C1959 C 0.70937 0.78592 0.83014 0.0
C1960 C 0.6791 0.76598 0.81998 0.0
H1961 H 0.65749 0.76976 0.83844 0.0
C1962 C 0.67367 0.75461 0.82429 0.0
C1963 C 0.67311 0.77147 0.82399 0.0
C1964 C 0.67823 0.78356 0.81655 0.0
C1965 C 0.66247 0.74859 0.83319 0.0
C1966 C 0.6566 0.75415 0.83932 0.0
C1967 C 0.66201 0.7655 0.83433 0.0
C1968 C 0.64479 0.74836 0.84985 0.0
C1969 C 0.65702 0.73634 0.83491 0.0
C1970 C 0.63755 0.74991 0.82421 0.0
C1971 C 0.62646 0.74464 0.83405 0.0
C1972 C 0.62235 0.73761 0.86962 0.0
C1973 C 0.62962 0.73612 0.8955 0.0
C1974 C 0.64076 0.74153 0.88596 0.0
H1975 H 0.66172 0.73331 0.81679 0.0
H1976 H 0.65652 0.73373 0.86882 0.0
H1977 H 0.64864 0.73245 0.82157 0.0
H1978 H 0.64046 0.75517 0.79629 0.0
H1979 H 0.62108 0.74595 0.81338 0.0
H1980 H 0.22881 0.93503 0.73337 0.0
H1981 H 0.23796 0.9247 0.74934 0.0
H1982 H 0.21722 0.91043 0.85972 0.0
H1983 H 0.2078 0.92041 0.84318 0.0
H1984 H 0.24958 0.92557 0.81752 0.0
H1985 H 0.21446 0.88376 0.80381 0.0
H1986 H 0.21387 0.89553 0.78578 0.0
H1987 H 0.21201 0.8918 0.84174 0.0
C1988 C 0.22612 0.9296 0.76077 0.0
C1989 C 0.21752 0.92849 0.78681 0.0
C1990 C 0.23137 0.92371 0.7699 0.0
C1991 C 0.22817 0.91664 0.80533 0.0
C1992 C 0.21964 0.91558 0.83152 0.0
H1993 H 0.26906 0.89445 0.92677 0.0
H1994 H 0.25904 0.90382 0.90876 0.0
C1995 C 0.21429 0.92136 0.82213 0.0
C1996 C 0.23406 0.91074 0.81596 0.0
H1997 H 0.23041 0.88552 0.83721 0.0
C1998 C 0.2454 0.9168 0.82154 0.0
C1999 C 0.22863 0.89929 0.82068 0.0
C2000 C 0.21659 0.89221 0.81225 0.0
C2001 C 0.25143 0.91175 0.83225 0.0
C2002 C 0.24593 0.90035 0.8389 0.0
C2003 C 0.23461 0.89428 0.83272 0.0
C2004 C 0.25178 0.89449 0.85091 0.0
C2005 C 0.26366 0.91866 0.83532 0.0
C2006 C 0.25069 0.88584 0.82543 0.0
C2007 C 0.25622 0.88034 0.83612 0.0
C2008 C 0.26303 0.88341 0.87244 0.0
C2009 C 0.26398 0.89196 0.89834 0.0
C2010 C 0.25832 0.89738 0.8879 0.0
H2011 H 0.26675 0.9264 0.81715 0.0
H2012 H 0.26601 0.92077 0.86946 0.0
H2013 H 0.26771 0.91426 0.82284 0.0
H2014 H 0.24565 0.88343 0.79687 0.0
H2015 H 0.25531 0.8738 0.81542 0.0
H2016 H 0.71352 0.9183 0.82551 0.0
H2017 H 0.69404 0.90836 0.84126 0.0
H2018 H 0.68993 0.93224 0.77097 0.0
H2019 H 0.70939 0.94218 0.75439 0.0
H2020 H 0.68205 0.91549 0.88576 0.0
H2021 H 0.66634 0.90369 0.71961 0.0
H2022 H 0.68044 0.90878 0.73326 0.0
H2023 H 0.67537 0.91803 0.7266 0.0
C2024 C 0.70848 0.92141 0.81306 0.0
C2025 C 0.71303 0.93103 0.78852 0.0
C2026 C 0.69734 0.91572 0.82218 0.0
C2027 C 0.69052 0.91949 0.80688 0.0
C2028 C 0.69501 0.92907 0.78238 0.0
H2029 H 0.62568 0.90028 0.90308 0.0
H2030 H 0.64513 0.91002 0.88627 0.0
C2031 C 0.70615 0.93476 0.77309 0.0
C2032 C 0.67877 0.91355 0.81783 0.0
H2033 H 0.6533 0.90042 0.77395 0.0
C2034 C 0.67576 0.91217 0.86134 0.0
C2035 C 0.67058 0.90913 0.78591 0.0
C2036 C 0.67331 0.90987 0.73873 0.0
C2037 C 0.66478 0.90657 0.87382 0.0
C2038 C 0.65659 0.90241 0.84187 0.0
C2039 C 0.6596 0.9037 0.79837 0.0
C2040 C 0.64484 0.8965 0.85283 0.0
C2041 C 0.66205 0.90496 0.92107 0.0
C2042 C 0.63818 0.88574 0.83895 0.0
C2043 C 0.62706 0.88018 0.8482 0.0
C2044 C 0.62234 0.88529 0.87145 0.0
C2045 C 0.62905 0.89608 0.8854 0.0
C2046 C 0.64018 0.90164 0.87599 0.0
H2047 H 0.66908 0.90607 0.94069 0.0
H2048 H 0.65983 0.91106 0.93187 0.0
H2049 H 0.65503 0.89673 0.9274 0.0
H2050 H 0.64161 0.88163 0.82093 0.0
H2051 H 0.62215 0.87189 0.8369 0.0
H2052 H 0.0821 0.79475 0.84743 0.0
H2053 H 0.09171 0.78488 0.86274 0.0
H2054 H 0.07693 0.76457 0.7517 0.0
H2055 H 0.06697 0.77417 0.73697 0.0
H2056 H 0.07602 0.75264 0.81875 0.0
H2057 H 0.11805 0.78735 0.8051 0.0
H2058 H 0.11022 0.78987 0.84383 0.0
H2059 H 0.10636 0.78822 0.78802 0.0
C2060 C 0.08095 0.78824 0.826 0.0
C2061 C 0.0738 0.78528 0.79082 0.0
C2062 C 0.08651 0.78265 0.83468 0.0
C2063 C 0.08523 0.77412 0.80789 0.0
C2064 C 0.0781 0.77115 0.7727 0.0
H2065 H 0.1274 0.7461 0.81525 0.0
H2066 H 0.11797 0.75598 0.79703 0.0
C2067 C 0.07242 0.77666 0.76428 0.0
C2068 C 0.09098 0.76804 0.81757 0.0
H2069 H 0.11607 0.77123 0.83777 0.0
C2070 C 0.08479 0.75669 0.82261 0.0
C2071 C 0.10244 0.7733 0.82202 0.0
C2072 C 0.10966 0.78534 0.81401 0.0
C2073 C 0.08971 0.7505 0.83263 0.0
C2074 C 0.10111 0.75583 0.83914 0.0
C2075 C 0.10731 0.76715 0.8334 0.0
C2076 C 0.10682 0.74982 0.8508 0.0
C2077 C 0.08264 0.73828 0.83515 0.0
C2078 C 0.10382 0.74318 0.88752 0.0
C2079 C 0.10911 0.73739 0.89774 0.0
C2080 C 0.11767 0.73831 0.87192 0.0
C2081 C 0.12086 0.74521 0.83587 0.0
C2082 C 0.11546 0.75087 0.82538 0.0
H2083 H 0.07494 0.73534 0.81689 0.0
H2084 H 0.08696 0.73415 0.82246 0.0
H2085 H 0.08047 0.73584 0.86919 0.0
H2086 H 0.09739 0.74248 0.90836 0.0
H2087 H 0.10654 0.73224 0.92597 0.0
H2088 H 0.20702 0.28926 0.82471 0.0
H2089 H 0.21697 0.30869 0.84091 0.0
H2090 H 0.24515 0.31192 0.77479 0.0
H2091 H 0.2352 0.29246 0.75785 0.0
H2092 H 0.23614 0.32015 0.8877 0.0
H2093 H 0.24112 0.33606 0.72121 0.0
H2094 H 0.23164 0.32206 0.73471 0.0
H2095 H 0.24591 0.32663 0.72958 0.0
C2096 C 0.2153 0.29409 0.81327 0.0
C2097 C 0.22029 0.28928 0.78981 0.0
C2098 C 0.22099 0.3052 0.82268 0.0
C2099 C 0.23176 0.31177 0.80871 0.0
C2100 C 0.23678 0.30703 0.78523 0.0
H2101 H 0.27673 0.377 0.90604 0.0
H2102 H 0.26759 0.35757 0.88896 0.0
C2103 C 0.23109 0.2959 0.77572 0.0
C2104 C 0.23777 0.3235 0.81981 0.0
H2105 H 0.25024 0.349 0.77626 0.0
C2106 C 0.23924 0.32647 0.86337 0.0
C2107 C 0.2417 0.33171 0.78798 0.0
C2108 C 0.23995 0.329 0.74073 0.0
C2109 C 0.24456 0.33744 0.87598 0.0
C2110 C 0.24865 0.34565 0.84414 0.0
C2111 C 0.24717 0.34268 0.80059 0.0
C2112 C 0.25416 0.35738 0.85526 0.0
C2113 C 0.24551 0.34014 0.92324 0.0
C2114 C 0.24972 0.36375 0.84144 0.0
C2115 C 0.25494 0.37485 0.85092 0.0
C2116 C 0.26474 0.37984 0.87431 0.0
C2117 C 0.26916 0.37342 0.88823 0.0
C2118 C 0.26393 0.3623 0.87864 0.0
H2119 H 0.23974 0.33302 0.94281 0.0
H2120 H 0.25389 0.34268 0.93425 0.0
H2121 H 0.24396 0.34696 0.92936 0.0
H2122 H 0.2422 0.36011 0.82328 0.0
H2123 H 0.2513 0.37953 0.83961 0.0
H2124 H 0.91878 0.71303 0.17688 0.0
H2125 H 0.90893 0.69358 0.16097 0.0
H2126 H 0.93305 0.68962 0.23021 0.0
H2127 H 0.94291 0.70908 0.24692 0.0
H2128 H 0.91628 0.68185 0.11562 0.0
H2129 H 0.90454 0.66574 0.28135 0.0
H2130 H 0.90948 0.67984 0.26816 0.0
H2131 H 0.91886 0.6749 0.27431 0.0
C2132 C 0.92196 0.70803 0.1891 0.0
C2133 C 0.93163 0.71263 0.21332 0.0
C2134 C 0.91632 0.6969 0.17988 0.0
C2135 C 0.92019 0.69013 0.19477 0.0
C2136 C 0.9298 0.69467 0.21909 0.0
H2137 H 0.90142 0.62564 0.09624 0.0
H2138 H 0.91102 0.64504 0.11381 0.0
C2139 C 0.93545 0.7058 0.22846 0.0
C2140 C 0.91433 0.67841 0.18344 0.0
H2141 H 0.90126 0.65284 0.22641 0.0
C2142 C 0.91297 0.6755 0.13982 0.0
C2143 C 0.90992 0.67015 0.21507 0.0
C2144 C 0.91067 0.67278 0.26234 0.0
C2145 C 0.90741 0.66455 0.12695 0.0
C2146 C 0.90326 0.65629 0.15859 0.0
C2147 C 0.90452 0.6592 0.20221 0.0
C2148 C 0.89741 0.64457 0.14719 0.0
C2149 C 0.90583 0.66193 0.0796 0.0
C2150 C 0.88664 0.63783 0.16075 0.0
C2151 C 0.88114 0.62673 0.15103 0.0
C2152 C 0.88634 0.62212 0.12766 0.0
C2153 C 0.89714 0.62892 0.11402 0.0
C2154 C 0.90264 0.64003 0.12387 0.0
H2155 H 0.90692 0.66899 0.06028 0.0
H2156 H 0.91195 0.65977 0.06862 0.0
H2157 H 0.8976 0.65491 0.07309 0.0
H2158 H 0.88247 0.64117 0.17889 0.0
H2159 H 0.87284 0.62175 0.16212 0.0
H2160 H 0.37491 0.26944 0.07057 0.0
H2161 H 0.35539 0.2595 0.08644 0.0
H2162 H 0.36139 0.24525 0.19808 0.0
H2163 H 0.3808 0.2548 0.18153 0.0
H2164 H 0.34439 0.23041 0.15617 0.0
H2165 H 0.33984 0.26672 0.1763 0.0
H2166 H 0.34503 0.26619 0.12439 0.0
H2167 H 0.35296 0.26768 0.17171 0.0
C2168 C 0.37206 0.26418 0.09847 0.0
C2169 C 0.37942 0.26294 0.12485 0.0
C2170 C 0.36091 0.25857 0.10772 0.0
C2171 C 0.35694 0.25181 0.14403 0.0
C2172 C 0.36426 0.25046 0.17001 0.0
H2173 H 0.29271 0.22818 0.25625 0.0
H2174 H 0.31225 0.23776 0.24086 0.0
C2175 C 0.37537 0.25593 0.16047 0.0
C2176 C 0.34514 0.24596 0.1547 0.0
H2177 H 0.32346 0.24958 0.17388 0.0
C2178 C 0.33983 0.23462 0.16022 0.0
C2179 C 0.33922 0.25145 0.16078 0.0
C2180 C 0.34457 0.26369 0.15844 0.0
C2181 C 0.32875 0.22861 0.17114 0.0
C2182 C 0.32271 0.23404 0.17525 0.0
C2183 C 0.32805 0.2454 0.17027 0.0
C2184 C 0.31086 0.22811 0.18481 0.0
C2185 C 0.32374 0.21655 0.17917 0.0
C2186 C 0.30356 0.21958 0.15821 0.0
C2187 C 0.29242 0.21399 0.16728 0.0
C2188 C 0.28831 0.21697 0.20267 0.0
C2189 C 0.29561 0.22567 0.2288 0.0
C2190 C 0.30678 0.23116 0.22001 0.0
H2191 H 0.33 0.21439 0.18825 0.0
H2192 H 0.31753 0.21376 0.20506 0.0
H2193 H 0.31975 0.21205 0.14931 0.0
H2194 H 0.30645 0.21729 0.13012 0.0
H2195 H 0.28702 0.20744 0.14614 0.0
H2196 H 0.72701 0.10196 0.09431 0.0
H2197 H 0.7368 0.09239 0.11249 0.0
H2198 H 0.76128 0.12093 0.17834 0.0
H2199 H 0.75147 0.13052 0.16103 0.0
H2200 H 0.75759 0.09713 0.09263 0.0
H2201 H 0.75245 0.09735 0.26919 0.0
H2202 H 0.74483 0.10071 0.23191 0.0
H2203 H 0.75864 0.11064 0.2453 0.0
C2204 C 0.73448 0.10622 0.11266 0.0
C2205 C 0.73841 0.11699 0.12646 0.0
C2206 C 0.74006 0.10073 0.12303 0.0
C2207 C 0.74965 0.10588 0.14744 0.0
C2208 C 0.75375 0.11671 0.16036 0.0
H2209 H 0.79721 0.08462 0.17265 0.0
H2210 H 0.78759 0.09443 0.15606 0.0
C2211 C 0.74816 0.1222 0.15017 0.0
C2212 C 0.75544 0.09996 0.15892 0.0
H2213 H 0.76454 0.09153 0.24408 0.0
C2214 C 0.75909 0.09587 0.12573 0.0
C2215 C 0.75725 0.0982 0.20216 0.0
C2216 C 0.753 0.10185 0.23923 0.0
C2217 C 0.76464 0.09022 0.13457 0.0
C2218 C 0.76678 0.08881 0.17778 0.0
C2219 C 0.76299 0.09274 0.21098 0.0
C2220 C 0.77279 0.08309 0.1892 0.0
C2221 C 0.76796 0.08564 0.09758 0.0
C2222 C 0.76781 0.07368 0.21469 0.0
C2223 C 0.77332 0.0681 0.22463 0.0
C2224 C 0.78395 0.07184 0.20932 0.0
C2225 C 0.78901 0.08144 0.18468 0.0
C2226 C 0.7835 0.08704 0.17491 0.0
H2227 H 0.76322 0.08486 0.06807 0.0
H2228 H 0.7767 0.0912 0.09028 0.0
H2229 H 0.76685 0.07753 0.10571 0.0
H2230 H 0.75957 0.07054 0.22629 0.0
H2231 H 0.76918 0.06075 0.24374 0.0
H2232 H 0.04247 0.44044 0.40179 0.0
H2233 H 0.02294 0.43129 0.41699 0.0
H2234 H 0.02925 0.4513 0.52962 0.0
H2235 H 0.0487 0.46072 0.51383 0.0
H2236 H 0.0118 0.41926 0.48334 0.0
H2237 H 0.00579 0.45485 0.47426 0.0
H2238 H 0.01815 0.45541 0.45638 0.0
H2239 H 0.01607 0.45686 0.51252 0.0
C2240 C 0.03969 0.44296 0.42957 0.0
C2241 C 0.04714 0.45137 0.45641 0.0
C2242 C 0.02852 0.43772 0.43825 0.0
C2243 C 0.02459 0.44073 0.47402 0.0
C2244 C 0.03203 0.44904 0.50113 0.0
H2245 H 0.9612 0.39957 0.5918 0.0
H2246 H 0.98059 0.40954 0.57402 0.0
C2247 C 0.04318 0.45438 0.49218 0.0
C2248 C 0.01276 0.4349 0.48393 0.0
H2249 H 0.99135 0.43876 0.50603 0.0
C2250 C 0.00731 0.42352 0.488 0.0
C2251 C 0.00685 0.44043 0.48942 0.0
C2252 C 0.01199 0.45255 0.48247 0.0
C2253 C 0.99618 0.41754 0.49806 0.0
C2254 C 0.9904 0.42313 0.50563 0.0
C2255 C 0.99581 0.43449 0.50085 0.0
C2256 C 0.97869 0.41734 0.51752 0.0
C2257 C 0.9907 0.40528 0.49947 0.0
C2258 C 0.97121 0.41876 0.49284 0.0
C2259 C 0.96016 0.41326 0.50346 0.0
C2260 C 0.95633 0.40616 0.53888 0.0
C2261 C 0.96386 0.40489 0.56404 0.0
C2262 C 0.97494 0.41051 0.55371 0.0
H2263 H 0.99526 0.40224 0.48045 0.0
H2264 H 0.99039 0.40263 0.53321 0.0
H2265 H 0.98224 0.40144 0.48695 0.0
H2266 H 0.97391 0.42402 0.46492 0.0
H2267 H 0.95459 0.41442 0.48337 0.0
H2268 H 0.58621 0.54039 0.50713 0.0
H2269 H 0.57713 0.5507 0.49023 0.0
H2270 H 0.60148 0.57809 0.56193 0.0
H2271 H 0.61057 0.56778 0.57965 0.0
H2272 H 0.58054 0.57373 0.57882 0.0
H2273 H 0.58782 0.57548 0.40329 0.0
H2274 H 0.58115 0.56189 0.42445 0.0
H2275 H 0.5948 0.57146 0.44115 0.0
C2276 C 0.58965 0.5486 0.51943 0.0
C2277 C 0.59917 0.55328 0.54456 0.0
C2278 C 0.58448 0.55451 0.50945 0.0
C2279 C 0.58877 0.56524 0.52405 0.0
C2280 C 0.5981 0.56985 0.55005 0.0
H2281 H 0.56883 0.61052 0.42875 0.0
H2282 H 0.57913 0.60147 0.44715 0.0
C2283 C 0.60327 0.56393 0.56016 0.0
C2284 C 0.58341 0.57157 0.51258 0.0
H2285 H 0.57524 0.58086 0.42722 0.0
C2286 C 0.57944 0.57535 0.5457 0.0
C2287 C 0.58213 0.57383 0.46936 0.0
C2288 C 0.58679 0.57055 0.43251 0.0
C2289 C 0.57394 0.58105 0.53672 0.0
C2290 C 0.57221 0.58285 0.49343 0.0
C2291 C 0.57646 0.57935 0.46036 0.0
C2292 C 0.56591 0.58824 0.48182 0.0
C2293 C 0.57013 0.58518 0.57368 0.0
C2294 C 0.555 0.58368 0.49442 0.0
C2295 C 0.5491 0.58883 0.48405 0.0
C2296 C 0.55396 0.59861 0.46051 0.0
C2297 C 0.56483 0.60301 0.44698 0.0
C2298 C 0.57074 0.59786 0.45749 0.0
H2299 H 0.57471 0.5859 0.60361 0.0
H2300 H 0.57104 0.59325 0.56619 0.0
H2301 H 0.56139 0.57937 0.57991 0.0
H2302 H 0.55103 0.57612 0.5123 0.0
H2303 H 0.54073 0.58515 0.49472 0.0
H2304 H 0.43436 0.04355 0.57144 0.0
H2305 H 0.42442 0.02414 0.55355 0.0
H2306 H 0.45267 0.02755 0.48741 0.0
H2307 H 0.46262 0.04693 0.50454 0.0
H2308 H 0.43357 0.01616 0.44029 0.0
H2309 H 0.42847 0.99994 0.60629 0.0
H2310 H 0.42365 0.00935 0.59824 0.0
H2311 H 0.43793 0.01397 0.59321 0.0
C2312 C 0.43849 0.04016 0.55333 0.0
C2313 C 0.44931 0.04681 0.53954 0.0
C2314 C 0.43281 0.02906 0.54328 0.0
C2315 C 0.43785 0.02439 0.51955 0.0
C2316 C 0.44863 0.03099 0.50582 0.0
H2317 H 0.41793 0.95649 0.4881 0.0
H2318 H 0.42729 0.97594 0.50402 0.0
C2319 C 0.45431 0.04207 0.51577 0.0
C2320 C 0.43187 0.01268 0.50808 0.0
H2321 H 0.41939 0.9871 0.55087 0.0
C2322 C 0.43046 0.0098 0.46443 0.0
C2323 C 0.42793 0.00441 0.53966 0.0
C2324 C 0.42964 0.00703 0.58699 0.0
C2325 C 0.42518 0.99885 0.45148 0.0
C2326 C 0.42106 0.99058 0.48308 0.0
C2327 C 0.4225 0.99346 0.52672 0.0
C2328 C 0.4155 0.97887 0.47166 0.0
C2329 C 0.42429 0.99625 0.40415 0.0
C2330 C 0.40576 0.97405 0.44807 0.0
C2331 C 0.40039 0.96291 0.4387 0.0
C2332 C 0.40463 0.95637 0.45308 0.0
C2333 C 0.41443 0.96127 0.47647 0.0
C2334 C 0.41979 0.97239 0.48571 0.0
H2335 H 0.43015 0.00338 0.38487 0.0
H2336 H 0.42576 0.98939 0.39785 0.0
H2337 H 0.41595 0.99382 0.39294 0.0
H2338 H 0.4022 0.97886 0.43758 0.0
H2339 H 0.39283 0.95941 0.42089 0.0
H2340 H 0.58544 0.04646 0.50266 0.0
H2341 H 0.57552 0.027 0.48651 0.0
H2342 H 0.59972 0.02294 0.55461 0.0
H2343 H 0.60963 0.04238 0.57156 0.0
H2344 H 0.58256 0.01497 0.44098 0.0
H2345 H 0.57129 0.99943 0.60763 0.0
H2346 H 0.5763 0.0135 0.59384 0.0
H2347 H 0.58561 0.00846 0.59979 0.0
C2348 C 0.58863 0.04143 0.5145 0.0
C2349 C 0.59832 0.04599 0.53859 0.0
C2350 C 0.58295 0.03031 0.50515 0.0
C2351 C 0.58681 0.0235 0.51978 0.0
C2352 C 0.59648 0.02801 0.54372 0.0
H2353 H 0.56681 0.95839 0.42407 0.0
H2354 H 0.57677 0.97787 0.44034 0.0
C2355 C 0.60216 0.03914 0.55321 0.0
C2356 C 0.58083 0.01175 0.50897 0.0
H2357 H 0.56771 0.98633 0.55325 0.0
C2358 C 0.57929 0.0087 0.4655 0.0
C2359 C 0.57647 0.0036 0.54102 0.0
C2360 C 0.5774 0.00638 0.58819 0.0
C2361 C 0.5736 0.99771 0.45319 0.0
C2362 C 0.5695 0.98955 0.48526 0.0
C2363 C 0.57095 0.9926 0.52872 0.0
C2364 C 0.56344 0.97779 0.4745 0.0
C2365 C 0.57183 0.99494 0.406 0.0
C2366 C 0.55271 0.97125 0.48893 0.0
C2367 C 0.54702 0.96011 0.47998 0.0
C2368 C 0.55197 0.95526 0.4565 0.0
C2369 C 0.56273 0.96186 0.44196 0.0
C2370 C 0.56842 0.97301 0.45106 0.0
H2371 H 0.57296 0.00197 0.38638 0.0
H2372 H 0.57782 0.99261 0.39489 0.0
H2373 H 0.56353 0.98797 0.40004 0.0
H2374 H 0.54873 0.97477 0.50718 0.0
H2375 H 0.53876 0.95529 0.49173 0.0
H2376 H 0.96038 0.56274 0.58847 0.0
H2377 H 0.97973 0.57215 0.57004 0.0
H2378 H 0.97277 0.55105 0.46049 0.0
H2379 H 0.95349 0.54135 0.47962 0.0
H2380 H 0.99015 0.55354 0.50084 0.0
H2381 H 0.99454 0.59421 0.4771 0.0
H2382 H 0.98969 0.58893 0.52984 0.0
H2383 H 0.98146 0.58209 0.48362 0.0
C2384 C 0.96297 0.56011 0.56043 0.0
C2385 C 0.95538 0.55132 0.53541 0.0
C2386 C 0.97403 0.56556 0.54973 0.0
C2387 C 0.97769 0.56248 0.51328 0.0
C2388 C 0.97014 0.55362 0.48862 0.0
H2389 H 0.04185 0.60308 0.39967 0.0
H2390 H 0.02226 0.59282 0.41395 0.0
C2391 C 0.95911 0.54807 0.49962 0.0
C2392 C 0.98939 0.56833 0.50126 0.0
H2393 H 0.011 0.59355 0.48007 0.0
C2394 C 0.99469 0.56228 0.49604 0.0
C2395 C 0.99529 0.57971 0.49418 0.0
C2396 C 0.98993 0.5866 0.49601 0.0
C2397 C 0.00574 0.56731 0.48473 0.0
C2398 C 0.01177 0.57876 0.47987 0.0
C2399 C 0.00642 0.58478 0.48428 0.0
C2400 C 0.02362 0.58468 0.47044 0.0
C2401 C 0.01075 0.56024 0.4773 0.0
C2402 C 0.03092 0.58358 0.49756 0.0
C2403 C 0.04209 0.58931 0.48913 0.0
C2404 C 0.04623 0.59645 0.45389 0.0
C2405 C 0.03893 0.59764 0.42705 0.0
C2406 C 0.02773 0.5918 0.4352 0.0
H2407 H 0.00449 0.5518 0.46846 0.0
H2408 H 0.01698 0.56359 0.45147 0.0
H2409 H 0.01472 0.5598 0.50735 0.0
H2410 H 0.028 0.57841 0.52568 0.0
H2411 H 0.0475 0.5883 0.51078 0.0
H2412 H 0.39726 0.43799 0.41308 0.0
H2413 H 0.40705 0.42841 0.43119 0.0
H2414 H 0.42104 0.44911 0.54189 0.0
H2415 H 0.41162 0.45897 0.52314 0.0
H2416 H 0.43603 0.447 0.5009 0.0
H2417 H 0.40002 0.40601 0.52259 0.0
H2418 H 0.40046 0.41149 0.47024 0.0
H2419 H 0.39889 0.41806 0.51698 0.0
C2420 C 0.4024 0.44048 0.44134 0.0
C2421 C 0.40364 0.44923 0.46671 0.0
C2422 C 0.40793 0.43494 0.45186 0.0
C2423 C 0.41461 0.43788 0.48844 0.0
C2424 C 0.4159 0.44665 0.51362 0.0
H2425 H 0.43921 0.39793 0.60032 0.0
H2426 H 0.42943 0.40777 0.58625 0.0
C2427 C 0.4105 0.45229 0.50283 0.0
C2428 C 0.42057 0.4321 0.49989 0.0
H2429 H 0.41727 0.40695 0.51988 0.0
C2430 C 0.43191 0.43825 0.50529 0.0
C2431 C 0.41519 0.42069 0.5064 0.0
C2432 C 0.40296 0.41369 0.50421 0.0
C2433 C 0.43803 0.43332 0.51632 0.0
C2434 C 0.43272 0.42186 0.52068 0.0
C2435 C 0.42136 0.41572 0.51605 0.0
C2436 C 0.4388 0.41607 0.5297 0.0
C2437 C 0.45009 0.44049 0.52399 0.0
C2438 C 0.44725 0.41737 0.5024 0.0
C2439 C 0.45294 0.4119 0.51069 0.0
C2440 C 0.45016 0.4048 0.54599 0.0
C2441 C 0.44158 0.40336 0.57292 0.0
C2442 C 0.43597 0.40895 0.56489 0.0
H2443 H 0.45216 0.44888 0.53316 0.0
H2444 H 0.45301 0.43715 0.54969 0.0
H2445 H 0.45456 0.44106 0.49395 0.0
H2446 H 0.44938 0.42255 0.47432 0.0
H2447 H 0.45941 0.41309 0.48894 0.0
H2448 H 0.24802 0.08755 0.16026 0.0
H2449 H 0.24507 0.10285 0.17221 0.0
H2450 H 0.24208 0.09643 0.30837 0.0
H2451 H 0.24515 0.08104 0.29672 0.0
H2452 H 0.2274 0.10371 0.212 0.0
H2453 H 0.26671 0.12861 0.29822 0.0
H2454 H 0.26393 0.11675 0.2672 0.0
H2455 H 0.25762 0.11519 0.31865 0.0
C2456 C 0.24668 0.08932 0.1928 0.0
C2457 C 0.2469 0.08312 0.2276 0.0
C2458 C 0.24496 0.09807 0.19954 0.0
C2459 C 0.24348 0.10086 0.24119 0.0
C2460 C 0.24336 0.0945 0.27602 0.0
H2461 H 0.2454 0.16302 0.29275 0.0
H2462 H 0.24239 0.14462 0.30557 0.0
C2463 C 0.24506 0.08569 0.26928 0.0
C2464 C 0.24244 0.11066 0.24742 0.0
H2465 H 0.25658 0.13706 0.2815 0.0
C2466 C 0.23369 0.11096 0.2278 0.0
C2467 C 0.25062 0.12008 0.26824 0.0
C2468 C 0.26031 0.12025 0.28914 0.0
C2469 C 0.23313 0.12056 0.22689 0.0
C2470 C 0.24165 0.13015 0.24545 0.0
C2471 C 0.25007 0.12969 0.26724 0.0
C2472 C 0.24263 0.14094 0.23827 0.0
C2473 C 0.22356 0.12041 0.20514 0.0
C2474 C 0.24381 0.14497 0.19629 0.0
C2475 C 0.24556 0.15542 0.18892 0.0
C2476 C 0.24622 0.16212 0.22341 0.0
C2477 C 0.24488 0.15804 0.26551 0.0
C2478 C 0.24317 0.14755 0.27288 0.0
H2479 H 0.21628 0.11212 0.2055 0.0
H2480 H 0.22144 0.12614 0.22083 0.0
H2481 H 0.22565 0.12289 0.17109 0.0
H2482 H 0.24367 0.14012 0.16915 0.0
H2483 H 0.24659 0.15831 0.1561 0.0
H2484 H 0.84227 0.08741 0.16071 0.0
H2485 H 0.86053 0.10263 0.17304 0.0
H2486 H 0.85613 0.09739 0.30976 0.0
H2487 H 0.83766 0.08203 0.29764 0.0
H2488 H 0.86371 0.11909 0.28396 0.0
H2489 H 0.88854 0.10333 0.21021 0.0
H2490 H 0.87771 0.10171 0.17565 0.0
H2491 H 0.87454 0.09455 0.22607 0.0
C2492 C 0.8452 0.08937 0.19344 0.0
C2493 C 0.83851 0.0835 0.22822 0.0
C2494 C 0.85569 0.09805 0.20041 0.0
C2495 C 0.85976 0.10104 0.24226 0.0
C2496 C 0.85317 0.09514 0.27717 0.0
H2497 H 0.91986 0.16383 0.29473 0.0
H2498 H 0.90447 0.14548 0.30842 0.0
C2499 C 0.84264 0.08637 0.2702 0.0
C2500 C 0.87057 0.11087 0.24892 0.0
H2501 H 0.89693 0.1229 0.21464 0.0
C2502 C 0.87105 0.11987 0.26978 0.0
C2503 C 0.88013 0.11185 0.23046 0.0
C2504 C 0.88024 0.1023 0.20972 0.0
C2505 C 0.88066 0.13006 0.26984 0.0
C2506 C 0.89004 0.13119 0.249 0.0
C2507 C 0.88972 0.12202 0.23042 0.0
C2508 C 0.89979 0.14201 0.2416 0.0
C2509 C 0.88052 0.13969 0.28969 0.0
C2510 C 0.90242 0.14599 0.19951 0.0
C2511 C 0.91116 0.15639 0.19162 0.0
C2512 C 0.91753 0.16303 0.22568 0.0
C2513 C 0.91509 0.15892 0.26783 0.0
C2514 C 0.90628 0.14847 0.27573 0.0
H2515 H 0.87218 0.13775 0.29909 0.0
H2516 H 0.88571 0.14231 0.31886 0.0
H2517 H 0.88389 0.14665 0.26693 0.0
H2518 H 0.89753 0.14113 0.17271 0.0
H2519 H 0.91283 0.15927 0.15875 0.0
H2520 H 0.92119 0.75695 0.29648 0.0
H2521 H 0.90485 0.75849 0.30808 0.0
H2522 H 0.89784 0.75394 0.17251 0.0
H2523 H 0.91399 0.75241 0.16058 0.0
H2524 H 0.89741 0.77306 0.26198 0.0
H2525 H 0.87087 0.72851 0.23917 0.0
H2526 H 0.88506 0.73466 0.25379 0.0
H2527 H 0.88128 0.73515 0.19911 0.0
C2528 C 0.91624 0.75643 0.26911 0.0
C2529 C 0.91884 0.75446 0.22767 0.0
C2530 C 0.90693 0.75731 0.27581 0.0
C2531 C 0.90011 0.7562 0.24118 0.0
C2532 C 0.90296 0.75472 0.19967 0.0
H2533 H 0.84196 0.75194 0.15929 0.0
H2534 H 0.85966 0.75359 0.17214 0.0
C2535 C 0.91221 0.75384 0.19296 0.0
C2536 C 0.88966 0.75594 0.24786 0.0
H2537 H 0.86234 0.73929 0.23399 0.0
C2538 C 0.88971 0.76566 0.25678 0.0
C2539 C 0.87965 0.74625 0.24119 0.0
C2540 C 0.87915 0.73551 0.23314 0.0
C2541 C 0.87997 0.76603 0.25656 0.0
C2542 C 0.87004 0.75644 0.24746 0.0
C2543 C 0.86998 0.74664 0.24077 0.0
C2544 C 0.85976 0.75651 0.24034 0.0
C2545 C 0.88039 0.77674 0.26368 0.0
C2546 C 0.854 0.75774 0.27449 0.0
C2547 C 0.8438 0.75678 0.26727 0.0
C2548 C 0.83922 0.75454 0.22581 0.0
C2549 C 0.8452 0.75363 0.19164 0.0
C2550 C 0.85534 0.75457 0.19888 0.0
H2551 H 0.88886 0.78363 0.26685 0.0
H2552 H 0.87637 0.77845 0.23656 0.0
H2553 H 0.87585 0.77627 0.29341 0.0
H2554 H 0.85725 0.75913 0.30682 0.0
H2555 H 0.83938 0.7575 0.29425 0.0
H2556 H 0.08999 0.24864 0.83894 0.0
H2557 H 0.10551 0.24608 0.82626 0.0
H2558 H 0.09777 0.24122 0.69125 0.0
H2559 H 0.08214 0.24388 0.70363 0.0
H2560 H 0.10632 0.22808 0.78923 0.0
H2561 H 0.12989 0.26635 0.69516 0.0
H2562 H 0.11829 0.26381 0.72756 0.0
H2563 H 0.11631 0.25687 0.67731 0.0
C2564 C 0.09153 0.24698 0.8065 0.0
C2565 C 0.08486 0.24653 0.77223 0.0
C2566 C 0.1004 0.24549 0.79935 0.0
C2567 C 0.10286 0.24358 0.75779 0.0
C2568 C 0.09608 0.24284 0.72351 0.0
H2569 H 0.16497 0.24551 0.70294 0.0
H2570 H 0.14643 0.24225 0.69129 0.0
C2571 C 0.08714 0.2443 0.73067 0.0
C2572 C 0.11272 0.24266 0.75105 0.0
H2573 H 0.13879 0.25673 0.71316 0.0
C2574 C 0.11337 0.23424 0.772 0.0
C2575 C 0.12188 0.25067 0.72836 0.0
C2576 C 0.12166 0.25999 0.70594 0.0
C2577 C 0.12308 0.23389 0.77243 0.0
C2578 C 0.13242 0.24227 0.75197 0.0
C2579 C 0.13161 0.25033 0.72887 0.0
C2580 C 0.14335 0.24353 0.7585 0.0
C2581 C 0.12332 0.2247 0.79576 0.0
C2582 C 0.14776 0.2454 0.80001 0.0
C2583 C 0.15829 0.2473 0.8067 0.0
C2584 C 0.16468 0.2474 0.77198 0.0
C2585 C 0.16023 0.24542 0.73035 0.0
C2586 C 0.14966 0.24357 0.72364 0.0
H2587 H 0.11509 0.21735 0.79733 0.0
H2588 H 0.12897 0.22249 0.77995 0.0
H2589 H 0.12616 0.22727 0.82919 0.0
H2590 H 0.14314 0.24564 0.82726 0.0
H2591 H 0.16147 0.24883 0.83916 0.0
H2592 H 0.75699 0.8381 0.70762 0.0
H2593 H 0.75856 0.85594 0.69497 0.0
H2594 H 0.75338 0.85853 0.82987 0.0
H2595 H 0.7518 0.84086 0.84281 0.0
H2596 H 0.73893 0.86117 0.7686 0.0
H2597 H 0.7832 0.88756 0.73397 0.0
H2598 H 0.77577 0.87453 0.70768 0.0
H2599 H 0.77807 0.87511 0.76445 0.0
C2600 C 0.75633 0.84255 0.73463 0.0
C2601 C 0.75423 0.83804 0.77619 0.0
C2602 C 0.75726 0.85273 0.72736 0.0
C2603 C 0.75612 0.85854 0.76155 0.0
C2604 C 0.75429 0.85417 0.80309 0.0
H2605 H 0.75233 0.91308 0.84015 0.0
H2606 H 0.75366 0.8968 0.82871 0.0
C2607 C 0.75339 0.84406 0.81038 0.0
C2608 C 0.75605 0.86882 0.75442 0.0
H2609 H 0.77267 0.89615 0.73883 0.0
C2610 C 0.74627 0.86879 0.76145 0.0
C2611 C 0.76563 0.87872 0.74485 0.0
C2612 C 0.77631 0.8791 0.73738 0.0
C2613 C 0.7459 0.87847 0.76084 0.0
C2614 C 0.75558 0.88846 0.75364 0.0
C2615 C 0.76527 0.88846 0.74444 0.0
C2616 C 0.75588 0.89894 0.75998 0.0
C2617 C 0.73519 0.878 0.76918 0.0
C2618 C 0.75703 0.90572 0.72516 0.0
C2619 C 0.75627 0.9151 0.73157 0.0
C2620 C 0.75438 0.91782 0.77294 0.0
C2621 C 0.7537 0.91121 0.80783 0.0
C2622 C 0.75446 0.90189 0.8014 0.0
H2623 H 0.72816 0.86972 0.76344 0.0
H2624 H 0.7349 0.88019 0.8032 0.0
H2625 H 0.73431 0.88389 0.74849 0.0
H2626 H 0.75817 0.90357 0.69296 0.0
H2627 H 0.75684 0.92003 0.70407 0.0
H2628 H 0.16511 0.91993 0.69819 0.0
H2629 H 0.14657 0.90474 0.68552 0.0
H2630 H 0.14153 0.90002 0.82223 0.0
H2631 H 0.15985 0.91508 0.8351 0.0
H2632 H 0.1387 0.88318 0.7125 0.0
H2633 H 0.11379 0.89935 0.78197 0.0
H2634 H 0.12788 0.90802 0.767 0.0
H2635 H 0.12442 0.90099 0.81774 0.0
C2636 C 0.15997 0.91576 0.72549 0.0
C2637 C 0.16394 0.91871 0.76765 0.0
C2638 C 0.1494 0.90709 0.71821 0.0
C2639 C 0.14261 0.90137 0.75295 0.0
C2640 C 0.14652 0.90447 0.79495 0.0
H2641 H 0.08967 0.84348 0.83786 0.0
H2642 H 0.10481 0.86166 0.82308 0.0
C2643 C 0.15705 0.91304 0.80224 0.0
C2644 C 0.1318 0.89156 0.74607 0.0
H2645 H 0.10535 0.87973 0.77916 0.0
C2646 C 0.13133 0.88247 0.72605 0.0
C2647 C 0.1222 0.89068 0.7637 0.0
C2648 C 0.12206 0.90032 0.78342 0.0
C2649 C 0.12171 0.87231 0.72614 0.0
C2650 C 0.1123 0.87128 0.74628 0.0
C2651 C 0.11259 0.88053 0.76391 0.0
C2652 C 0.10255 0.86049 0.75418 0.0
C2653 C 0.12187 0.86259 0.7073 0.0
C2654 C 0.0961 0.85386 0.72031 0.0
C2655 C 0.08737 0.84339 0.72869 0.0
C2656 C 0.085 0.83942 0.77106 0.0
C2657 C 0.09129 0.84625 0.80485 0.0
C2658 C 0.09995 0.85667 0.79648 0.0
H2659 H 0.13021 0.86449 0.69815 0.0
H2660 H 0.1185 0.85574 0.7306 0.0
H2661 H 0.11668 0.85982 0.67812 0.0
H2662 H 0.0979 0.85672 0.68746 0.0
H2663 H 0.08266 0.83834 0.70199 0.0
H2664 H 0.91373 0.41649 0.63327 0.0
H2665 H 0.91064 0.43182 0.64655 0.0
H2666 H 0.91016 0.43667 0.51001 0.0
H2667 H 0.91318 0.42148 0.49653 0.0
H2668 H 0.92442 0.4535 0.61908 0.0
H2669 H 0.88306 0.43717 0.55201 0.0
H2670 H 0.88854 0.42855 0.56672 0.0
H2671 H 0.89197 0.43552 0.51586 0.0
C2672 C 0.9128 0.42074 0.60614 0.0
C2673 C 0.91369 0.41776 0.56385 0.0
C2674 C 0.91106 0.42949 0.61377 0.0
C2675 C 0.91 0.43527 0.57925 0.0
C2676 C 0.91071 0.43218 0.53712 0.0
H2677 H 0.91386 0.49291 0.49658 0.0
H2678 H 0.91124 0.47487 0.51068 0.0
C2679 C 0.91252 0.42353 0.52949 0.0
C2680 C 0.909 0.44506 0.58647 0.0
H2681 H 0.89414 0.45677 0.55521 0.0
C2682 C 0.91768 0.45417 0.60612 0.0
C2683 C 0.90018 0.44589 0.56961 0.0
C2684 C 0.89036 0.43622 0.55026 0.0
C2685 C 0.91817 0.46432 0.60643 0.0
C2686 C 0.90967 0.46529 0.58711 0.0
C2687 C 0.90067 0.45601 0.56983 0.0
C2688 C 0.91058 0.47604 0.57976 0.0
C2689 C 0.92811 0.47407 0.62483 0.0
C2690 C 0.91088 0.48264 0.61399 0.0
C2691 C 0.91238 0.49303 0.60602 0.0
C2692 C 0.9136 0.49696 0.56369 0.0
C2693 C 0.91299 0.49018 0.52958 0.0
C2694 C 0.91147 0.47983 0.53755 0.0
H2695 H 0.93463 0.47222 0.63308 0.0
H2696 H 0.93141 0.48094 0.60165 0.0
H2697 H 0.9258 0.47677 0.65449 0.0
H2698 H 0.91006 0.47979 0.6468 0.0
H2699 H 0.91279 0.49805 0.63296 0.0
H2700 H 0.50517 0.41605 0.62678 0.0
H2701 H 0.52303 0.43245 0.63775 0.0
H2702 H 0.52516 0.43931 0.50211 0.0
H2703 H 0.50747 0.42309 0.49081 0.0
H2704 H 0.54479 0.43977 0.59257 0.0
H2705 H 0.52709 0.46646 0.56687 0.0
H2706 H 0.51893 0.45228 0.5814 0.0
H2707 H 0.5234 0.45606 0.52689 0.0
C2708 C 0.50951 0.42099 0.59927 0.0
C2709 C 0.50485 0.41832 0.55798 0.0
C2710 C 0.5197 0.43033 0.6056 0.0
C2711 C 0.52531 0.43713 0.57079 0.0
C2712 C 0.52088 0.43422 0.52944 0.0
H2713 H 0.57975 0.49558 0.49132 0.0
H2714 H 0.56361 0.47785 0.50266 0.0
C2715 C 0.51076 0.42493 0.52307 0.0
C2716 C 0.53555 0.44757 0.57714 0.0
H2717 H 0.54641 0.4749 0.56247 0.0
C2718 C 0.54517 0.44749 0.58683 0.0
C2719 C 0.53595 0.4576 0.5698 0.0
C2720 C 0.52578 0.45817 0.56103 0.0
C2721 C 0.55531 0.45719 0.58683 0.0
C2722 C 0.55574 0.46713 0.57722 0.0
C2723 C 0.54605 0.46724 0.56961 0.0
C2724 C 0.56615 0.47742 0.57093 0.0
C2725 C 0.56554 0.45671 0.59486 0.0
C2726 C 0.57303 0.483 0.60561 0.0
C2727 C 0.58233 0.49322 0.59925 0.0
C2728 C 0.58484 0.49798 0.55814 0.0
C2729 C 0.57807 0.49218 0.52343 0.0
C2730 C 0.56882 0.48203 0.52981 0.0
H2731 H 0.56391 0.44821 0.59745 0.0
H2732 H 0.57148 0.46089 0.56853 0.0
H2733 H 0.56937 0.46104 0.62522 0.0
H2734 H 0.57103 0.47962 0.6377 0.0
H2735 H 0.58737 0.4975 0.62664 0.0
H2736 H 0.57923 0.08452 0.49228 0.0
H2737 H 0.5631 0.08603 0.50492 0.0
H2738 H 0.57072 0.09119 0.63993 0.0
H2739 H 0.58704 0.08968 0.62759 0.0
H2740 H 0.54597 0.07148 0.5666 0.0
H2741 H 0.56362 0.11577 0.59997 0.0
H2742 H 0.57098 0.11068 0.56944 0.0
H2743 H 0.56932 0.10842 0.62624 0.0
C2744 C 0.57759 0.0861 0.52467 0.0
C2745 C 0.58442 0.08694 0.55898 0.0
C2746 C 0.56835 0.08696 0.53179 0.0
C2747 C 0.56575 0.08875 0.57327 0.0
C2748 C 0.57267 0.08991 0.60759 0.0
H2749 H 0.50511 0.09006 0.62746 0.0
H2750 H 0.52282 0.09125 0.63952 0.0
C2751 C 0.58196 0.08902 0.60049 0.0
C2752 C 0.55536 0.08863 0.58019 0.0
H2753 H 0.54452 0.10517 0.59435 0.0
C2754 C 0.54564 0.07881 0.57333 0.0
C2755 C 0.55498 0.09819 0.58925 0.0
C2756 C 0.56525 0.10892 0.59658 0.0
C2757 C 0.53556 0.07838 0.57352 0.0
C2758 C 0.5352 0.08805 0.58008 0.0
C2759 C 0.54486 0.09778 0.58921 0.0
C2760 C 0.52501 0.0883 0.57311 0.0
C2761 C 0.52536 0.06761 0.56546 0.0
C2762 C 0.52058 0.08654 0.53169 0.0
C2763 C 0.51055 0.08587 0.52472 0.0
C2764 C 0.50473 0.08697 0.55905 0.0
C2765 C 0.50938 0.08916 0.60039 0.0
C2766 C 0.51948 0.08984 0.60734 0.0
H2767 H 0.52663 0.06064 0.57233 0.0
H2768 H 0.51851 0.06681 0.58544 0.0
H2769 H 0.52301 0.06714 0.53119 0.0
H2770 H 0.5248 0.08547 0.50478 0.0
H2771 H 0.50727 0.08426 0.49243 0.0
H2772 H 0.75724 0.58263 0.17387 0.0
H2773 H 0.77249 0.57966 0.16087 0.0
H2774 H 0.76499 0.57558 0.02558 0.0
H2775 H 0.74963 0.57866 0.03829 0.0
H2776 H 0.77291 0.56157 0.12213 0.0
H2777 H 0.79732 0.60026 0.03142 0.0
H2778 H 0.78575 0.59779 0.06379 0.0
H2779 H 0.78371 0.59109 0.01295 0.0
C2780 C 0.75876 0.58106 0.14131 0.0
C2781 C 0.75225 0.58095 0.10705 0.0
C2782 C 0.76748 0.57933 0.13397 0.0
C2783 C 0.76994 0.57752 0.09224 0.0
C2784 C 0.76331 0.57711 0.05797 0.0
H2785 H 0.83172 0.57882 0.03727 0.0
H2786 H 0.81329 0.57582 0.02532 0.0
C2787 C 0.75451 0.57881 0.06532 0.0
C2788 C 0.77967 0.57639 0.08532 0.0
H2789 H 0.80586 0.59024 0.04858 0.0
C2790 C 0.78006 0.56774 0.10544 0.0
C2791 C 0.78896 0.58441 0.06331 0.0
C2792 C 0.78902 0.59397 0.04175 0.0
C2793 C 0.78965 0.56715 0.10574 0.0
C2794 C 0.79913 0.57553 0.08604 0.0
C2795 C 0.79857 0.58383 0.06372 0.0
C2796 C 0.80996 0.57655 0.0927 0.0
C2797 C 0.7896 0.5577 0.12812 0.0
C2798 C 0.8142 0.57801 0.13441 0.0
C2799 C 0.82466 0.57976 0.14128 0.0
C2800 C 0.83117 0.58013 0.10654 0.0
C2801 C 0.82688 0.57852 0.0647 0.0
C2802 C 0.81637 0.57683 0.05782 0.0
H2803 H 0.7813 0.55044 0.1287 0.0
H2804 H 0.79523 0.55548 0.11225 0.0
H2805 H 0.79228 0.56 0.16188 0.0
H2806 H 0.80949 0.57808 0.16171 0.0
H2807 H 0.82771 0.58099 0.1739 0.0
H2808 H 0.42196 0.17639 0.17325 0.0
H2809 H 0.42469 0.19448 0.15929 0.0
H2810 H 0.42666 0.18991 0.02334 0.0
H2811 H 0.42382 0.1716 0.03703 0.0
H2812 H 0.44205 0.21269 0.11638 0.0
H2813 H 0.40205 0.19747 0.03458 0.0
H2814 H 0.40508 0.18866 0.0663 0.0
H2815 H 0.41101 0.193 0.01401 0.0
C2816 C 0.42302 0.17921 0.14032 0.0
C2817 C 0.4226 0.17252 0.1062 0.0
C2818 C 0.42461 0.18959 0.13244 0.0
C2819 C 0.42576 0.19349 0.09029 0.0
C2820 C 0.42565 0.18698 0.05608 0.0
H2821 H 0.42287 0.25314 0.03622 0.0
H2822 H 0.42613 0.23791 0.02331 0.0
C2823 C 0.42408 0.17656 0.06398 0.0
C2824 C 0.42672 0.20426 0.08296 0.0
H2825 H 0.41219 0.21615 0.04944 0.0
C2826 C 0.43561 0.21349 0.10109 0.0
C2827 C 0.41835 0.2053 0.06278 0.0
C2828 C 0.40853 0.1956 0.04344 0.0
C2829 C 0.4361 0.22362 0.10131 0.0
C2830 C 0.4274 0.22449 0.08356 0.0
C2831 C 0.41884 0.21544 0.06308 0.0
C2832 C 0.42635 0.23426 0.09066 0.0
C2833 C 0.4458 0.23322 0.12161 0.0
C2834 C 0.42535 0.23721 0.13269 0.0
C2835 C 0.42345 0.24581 0.14012 0.0
C2836 C 0.42246 0.25165 0.10563 0.0
C2837 C 0.42365 0.24883 0.06345 0.0
C2838 C 0.4255 0.24014 0.05602 0.0
H2839 H 0.45311 0.23227 0.1206 0.0
H2840 H 0.44773 0.24095 0.10531 0.0
H2841 H 0.44397 0.23382 0.15583 0.0
H2842 H 0.42574 0.23264 0.15986 0.0
H2843 H 0.42255 0.24774 0.17299 0.0
H2844 H 0.74976 0.17171 0.03643 0.0
H2845 H 0.7662 0.18949 0.02437 0.0
H2846 H 0.77309 0.19231 0.16009 0.0
H2847 H 0.75684 0.17472 0.17247 0.0
H2848 H 0.77361 0.21161 0.06917 0.0
H2849 H 0.80014 0.1937 0.09493 0.0
H2850 H 0.78596 0.18561 0.08015 0.0
H2851 H 0.78968 0.19005 0.1347 0.0
C2852 C 0.75472 0.17619 0.06371 0.0
C2853 C 0.75205 0.17176 0.10536 0.0
C2854 C 0.76408 0.18633 0.05676 0.0
C2855 C 0.77088 0.19211 0.09132 0.0
C2856 C 0.76798 0.1879 0.13298 0.0
H2857 H 0.82877 0.24638 0.17292 0.0
H2858 H 0.81108 0.2303 0.1601 0.0
C2859 C 0.75868 0.17784 0.13996 0.0
C2860 C 0.78135 0.20229 0.08448 0.0
H2861 H 0.80865 0.21304 0.09927 0.0
C2862 C 0.78131 0.21194 0.07482 0.0
C2863 C 0.79135 0.20264 0.09175 0.0
C2864 C 0.79185 0.19244 0.1006 0.0
C2865 C 0.79104 0.22205 0.07486 0.0
C2866 C 0.80095 0.22242 0.08457 0.0
C2867 C 0.80101 0.21271 0.09201 0.0
C2868 C 0.81122 0.23281 0.09156 0.0
C2869 C 0.79063 0.23232 0.06692 0.0
C2870 C 0.8171 0.23963 0.05718 0.0
C2871 C 0.82731 0.24889 0.06439 0.0
C2872 C 0.83174 0.2514 0.10606 0.0
C2873 C 0.82563 0.24469 0.14041 0.0
C2874 C 0.8155 0.23548 0.13319 0.0
H2875 H 0.78217 0.2307 0.06291 0.0
H2876 H 0.79451 0.23807 0.09407 0.0
H2877 H 0.79532 0.23636 0.03743 0.0
H2878 H 0.81396 0.23762 0.02474 0.0
H2879 H 0.83183 0.25389 0.03726 0.0
H2880 H 0.57972 0.7493 0.96101 0.0
H2881 H 0.57658 0.76462 0.97365 0.0
H2882 H 0.57785 0.77034 0.83718 0.0
H2883 H 0.58092 0.75515 0.82431 0.0
H2884 H 0.59064 0.78647 0.94911 0.0
H2885 H 0.55021 0.77052 0.87357 0.0
H2886 H 0.55553 0.76182 0.88931 0.0
H2887 H 0.55962 0.76914 0.83927 0.0
C2888 C 0.57918 0.75374 0.93372 0.0
C2889 C 0.58055 0.751 0.89166 0.0
C2890 C 0.5774 0.76249 0.941 0.0
C2891 C 0.5768 0.76849 0.9063 0.0
C2892 C 0.57804 0.76566 0.86437 0.0
H2893 H 0.58171 0.8267 0.82505 0.0
H2894 H 0.57897 0.80858 0.83841 0.0
C2895 C 0.57987 0.75701 0.85711 0.0
C2896 C 0.57568 0.77823 0.9133 0.0
H2897 H 0.56119 0.79008 0.87913 0.0
C2898 C 0.58407 0.78721 0.93478 0.0
C2899 C 0.56708 0.77914 0.89467 0.0
C2900 C 0.55754 0.7696 0.87329 0.0
C2901 C 0.58451 0.79733 0.9353 0.0
C2902 C 0.57626 0.79841 0.91427 0.0
C2903 C 0.56753 0.78925 0.89508 0.0
C2904 C 0.57723 0.80919 0.90721 0.0
C2905 C 0.59415 0.80696 0.95583 0.0
C2906 C 0.57696 0.81549 0.94148 0.0
C2907 C 0.57852 0.82592 0.93393 0.0
C2908 C 0.58039 0.83019 0.89199 0.0
C2909 C 0.58035 0.8237 0.85777 0.0
C2910 C 0.57876 0.81331 0.8653 0.0
H2911 H 0.60056 0.80507 0.9656 0.0
H2912 H 0.59778 0.81397 0.93335 0.0
H2913 H 0.59142 0.80946 0.98486 0.0
H2914 H 0.57565 0.81239 0.97402 0.0
H2915 H 0.57848 0.83071 0.96094 0.0
H2916 H 0.17481 0.75428 0.82565 0.0
H2917 H 0.19259 0.7703 0.83774 0.0
H2918 H 0.18902 0.76442 0.97422 0.0
H2919 H 0.17106 0.74822 0.96243 0.0
H2920 H 0.19486 0.7882 0.89386 0.0
H2921 H 0.2209 0.77077 0.94156 0.0
H2922 H 0.20869 0.7631 0.90994 0.0
H2923 H 0.20765 0.76548 0.96579 0.0
C2924 C 0.17782 0.75627 0.85828 0.0
C2925 C 0.17148 0.74999 0.89313 0.0
C2926 C 0.188 0.76544 0.86508 0.0
C2927 C 0.19211 0.76851 0.9068 0.0
C2928 C 0.18601 0.7621 0.94173 0.0
H2929 H 0.25285 0.83015 0.96195 0.0
H2930 H 0.23648 0.81231 0.97374 0.0
C2931 C 0.17576 0.75288 0.93494 0.0
C2932 C 0.20238 0.77892 0.91315 0.0
H2933 H 0.22958 0.78982 0.93263 0.0
C2934 C 0.20243 0.78857 0.90294 0.0
C2935 C 0.21219 0.77936 0.92525 0.0
C2936 C 0.21247 0.76916 0.9362 0.0
C2937 C 0.21211 0.79863 0.90289 0.0
C2938 C 0.22203 0.79901 0.91272 0.0
C2939 C 0.22194 0.78945 0.92501 0.0
C2940 C 0.23255 0.80914 0.90626 0.0
C2941 C 0.21173 0.80875 0.89112 0.0
C2942 C 0.23587 0.81306 0.86445 0.0
C2943 C 0.24514 0.82316 0.85762 0.0
C2944 C 0.25131 0.82957 0.89252 0.0
C2945 C 0.24826 0.82541 0.93442 0.0
C2946 C 0.23893 0.81524 0.94123 0.0
H2947 H 0.2034 0.80754 0.89466 0.0
H2948 H 0.21742 0.81574 0.9114 0.0
H2949 H 0.21425 0.81086 0.8571 0.0
H2950 H 0.2311 0.80841 0.83706 0.0
H2951 H 0.24729 0.82607 0.82493 0.0
H2952 H 0.17005 0.42234 0.96291 0.0
H2953 H 0.18853 0.42544 0.9746 0.0
H2954 H 0.19219 0.42306 0.83819 0.0
H2955 H 0.17393 0.42006 0.82625 0.0
H2956 H 0.19604 0.41113 0.95179 0.0
H2957 H 0.22034 0.45076 0.8702 0.0
H2958 H 0.20641 0.44568 0.88671 0.0
H2959 H 0.20937 0.4411 0.83727 0.0
C2960 C 0.17486 0.42264 0.93541 0.0
C2961 C 0.17053 0.42097 0.89365 0.0
C2962 C 0.1854 0.42439 0.94215 0.0
C2963 C 0.19179 0.42466 0.9072 0.0
C2964 C 0.18751 0.42314 0.86555 0.0
H2965 H 0.24467 0.41871 0.82656 0.0
H2966 H 0.22925 0.42143 0.83932 0.0
C2967 C 0.17701 0.42134 0.85882 0.0
C2968 C 0.20265 0.42574 0.91373 0.0
H2969 H 0.22882 0.43972 0.87711 0.0
C2970 C 0.20329 0.41752 0.93639 0.0
C2971 C 0.21209 0.4341 0.8937 0.0
C2972 C 0.21206 0.44347 0.87098 0.0
C2973 C 0.21293 0.41701 0.93686 0.0
C2974 C 0.22218 0.425 0.91454 0.0
C2975 C 0.22171 0.43357 0.89404 0.0
C2976 C 0.23194 0.42393 0.90777 0.0
C2977 C 0.21297 0.40755 0.95886 0.0
C2978 C 0.2387 0.42461 0.94203 0.0
C2979 C 0.24759 0.42306 0.93482 0.0
C2980 C 0.24983 0.4208 0.89324 0.0
C2981 C 0.24317 0.42038 0.85901 0.0
C2982 C 0.23435 0.42196 0.8662 0.0
H2983 H 0.20471 0.40128 0.96967 0.0
H2984 H 0.2162 0.40367 0.93691 0.0
H2985 H 0.21837 0.41055 0.9874 0.0
H2986 H 0.23705 0.42625 0.97429 0.0
H2987 H 0.25259 0.42346 0.96182 0.0
H2988 H 0.41523 0.91196 0.36973 0.0
H2989 H 0.43045 0.90862 0.35799 0.0
H2990 H 0.43713 0.91193 0.49397 0.0
H2991 H 0.42205 0.9152 0.50594 0.0
H2992 H 0.4525 0.9231 0.37962 0.0
H2993 H 0.43711 0.8838 0.46395 0.0
H2994 H 0.42829 0.88886 0.44682 0.0
H2995 H 0.43592 0.89367 0.49596 0.0
C2996 C 0.41986 0.91182 0.39713 0.0
C2997 C 0.41742 0.91383 0.43877 0.0
C2998 C 0.42855 0.90993 0.39037 0.0
C2999 C 0.43481 0.90985 0.4252 0.0
C3000 C 0.43227 0.91171 0.46674 0.0
H3001 H 0.49348 0.91557 0.50573 0.0
H3002 H 0.47532 0.91277 0.49295 0.0
C3003 C 0.42367 0.91366 0.47348 0.0
C3004 C 0.44451 0.90866 0.41856 0.0
H3005 H 0.45662 0.89468 0.45596 0.0
C3006 C 0.45334 0.91675 0.39538 0.0
C3007 C 0.44556 0.90034 0.43909 0.0
C3008 C 0.43617 0.89111 0.46249 0.0
C3009 C 0.46347 0.9172 0.39488 0.0
C3010 C 0.4647 0.90925 0.41767 0.0
C3011 C 0.45567 0.90079 0.43867 0.0
C3012 C 0.47553 0.9103 0.42448 0.0
C3013 C 0.47296 0.92656 0.37238 0.0
C3014 C 0.48163 0.90965 0.39024 0.0
C3015 C 0.4921 0.91126 0.39745 0.0
C3016 C 0.49659 0.91354 0.43903 0.0
C3017 C 0.49031 0.91388 0.47328 0.0
C3018 C 0.47989 0.91225 0.46607 0.0
H3019 H 0.47102 0.93286 0.36158 0.0
H3020 H 0.48015 0.93043 0.39396 0.0
H3021 H 0.47521 0.92346 0.34376 0.0
H3022 H 0.47834 0.908 0.35796 0.0
H3023 H 0.49672 0.91092 0.37044 0.0
H3024 H 0.09019 0.58646 0.36857 0.0
H3025 H 0.09188 0.57022 0.35651 0.0
H3026 H 0.0881 0.56343 0.49232 0.0
H3027 H 0.08642 0.57948 0.50471 0.0
H3028 H 0.10693 0.56317 0.40123 0.0
H3029 H 0.06257 0.53615 0.42741 0.0
H3030 H 0.06846 0.55029 0.41247 0.0
H3031 H 0.0693 0.54665 0.46704 0.0
C3032 C 0.08986 0.58157 0.39587 0.0
C3033 C 0.08807 0.58421 0.43755 0.0
C3034 C 0.09083 0.57232 0.38892 0.0
C3035 C 0.08999 0.5656 0.42351 0.0
C3036 C 0.08866 0.56848 0.4652 0.0
H3037 H 0.08769 0.50834 0.50498 0.0
H3038 H 0.08924 0.52601 0.49227 0.0
C3039 C 0.08771 0.57767 0.47217 0.0
C3040 C 0.08987 0.55522 0.41666 0.0
H3041 H 0.07361 0.52787 0.43145 0.0
C3042 C 0.09962 0.55541 0.4069 0.0
C3043 C 0.08029 0.54515 0.42398 0.0
C3044 C 0.06952 0.54448 0.43295 0.0
C3045 C 0.10016 0.54577 0.40683 0.0
C3046 C 0.0907 0.53579 0.41657 0.0
C3047 C 0.08085 0.53557 0.42415 0.0
C3048 C 0.09098 0.52561 0.42342 0.0
C3049 C 0.11089 0.54632 0.39869 0.0
C3050 C 0.0916 0.5196 0.38881 0.0
C3051 C 0.09068 0.50941 0.39595 0.0
C3052 C 0.08911 0.50512 0.43779 0.0
C3053 C 0.08886 0.51137 0.47234 0.0
C3054 C 0.08976 0.52149 0.46519 0.0
H3055 H 0.11763 0.5548 0.39371 0.0
H3056 H 0.11297 0.54272 0.42625 0.0
H3057 H 0.11022 0.54145 0.36975 0.0
H3058 H 0.09245 0.52263 0.35628 0.0
H3059 H 0.09088 0.50478 0.36867 0.0
H3060 H 0.49794 0.58596 0.373 0.0
H3061 H 0.48006 0.56967 0.36094 0.0
H3062 H 0.47804 0.56172 0.49552 0.0
H3063 H 0.49574 0.57781 0.50784 0.0
H3064 H 0.47491 0.54466 0.43516 0.0
H3065 H 0.44876 0.5628 0.40083 0.0
H3066 H 0.46158 0.56812 0.37307 0.0
H3067 H 0.46145 0.57019 0.42981 0.0
C3068 C 0.49361 0.58081 0.40006 0.0
C3069 C 0.49828 0.58316 0.44135 0.0
C3070 C 0.4834 0.57153 0.39313 0.0
C3071 C 0.47774 0.56454 0.42741 0.0
C3072 C 0.48228 0.56703 0.46868 0.0
H3073 H 0.42282 0.50707 0.50961 0.0
H3074 H 0.43923 0.5245 0.49678 0.0
C3075 C 0.49242 0.57624 0.47562 0.0
C3076 C 0.46738 0.55422 0.42066 0.0
H3077 H 0.44006 0.54369 0.40576 0.0
C3078 C 0.46732 0.54443 0.42808 0.0
C3079 C 0.45751 0.55397 0.4112 0.0
C3080 C 0.45722 0.5643 0.40339 0.0
C3081 C 0.45757 0.53443 0.42803 0.0
C3082 C 0.44763 0.53421 0.42089 0.0
C3083 C 0.44772 0.54392 0.41127 0.0
C3084 C 0.43711 0.52412 0.42792 0.0
C3085 C 0.45793 0.52416 0.43698 0.0
C3086 C 0.43033 0.51827 0.39341 0.0
C3087 C 0.42088 0.50822 0.40061 0.0
C3088 C 0.4181 0.50394 0.44246 0.0
C3089 C 0.42473 0.51008 0.47696 0.0
C3090 C 0.43413 0.52005 0.46973 0.0
H3091 H 0.46619 0.52532 0.43163 0.0
H3092 H 0.45566 0.52175 0.47099 0.0
H3093 H 0.45203 0.51737 0.41633 0.0
H3094 H 0.43252 0.52132 0.36091 0.0
H3095 H 0.41593 0.50369 0.37339 0.0
loop_
_geom_bond_atom_site_label_1
_geom_bond_atom_site_label_2
_geom_bond_distance
_geom_bond_site_symmetry_2
_ccdc_geom_bond_type
O0 Cd1 2.223 . S
O0 C8 1.315 . S
Cd1 O0 2.223 . S
Cd1 O4 2.297 . S
Cd1 O5 2.439 . S
Cd1 O11 2.240 . S
Cd2 O3 2.240 . S
Cd2 O10 2.223 . S
Cd2 O12 2.297 . S
Cd2 O13 2.439 . S
O3 Cd2 2.240 . S
O3 C8 1.279 . S
O4 Cd1 2.297 . S
O4 C6 1.247 . S
O5 Cd1 2.439 . S
O5 C6 1.208 . S
C6 O4 1.247 . S
C6 O5 1.208 . S
C7 O12 1.247 . S
C7 O13 1.208 . S
C8 O0 1.315 . S
C8 O3 1.279 . S
C9 O10 1.315 . S
C9 O11 1.279 . S
O10 Cd2 2.223 . S
O10 C9 1.315 . S
O11 Cd1 2.240 . S
O11 C9 1.279 . S
O12 Cd2 2.297 . S
O12 C7 1.247 . S
O13 Cd2 2.439 . S
O13 C7 1.208 . S
O14 Cd15 2.223 . S
O14 C22 1.315 . S
Cd15 O14 2.223 . S
Cd15 O18 2.297 . S
Cd15 O19 2.439 . S
Cd15 O25 2.240 . S
Cd16 O17 2.240 . S
Cd16 O24 2.223 . S
Cd16 O26 2.297 . S
Cd16 O27 2.439 . S
O17 Cd16 2.240 . S
O17 C22 1.279 . S
O18 Cd15 2.297 . S
O18 C20 1.247 . S
O19 Cd15 2.439 . S
O19 C20 1.208 . S
C20 O18 1.247 . S
C20 O19 1.208 . S
C21 O26 1.247 . S
C21 O27 1.208 . S
C22 O14 1.315 . S
C22 O17 1.279 . S
C23 O24 1.315 . S
C23 O25 1.279 . S
O24 Cd16 2.223 . S
O24 C23 1.315 . S
O25 Cd15 2.240 . S
O25 C23 1.279 . S
O26 Cd16 2.297 . S
O26 C21 1.247 . S
O27 Cd16 2.439 . S
O27 C21 1.208 . S
O28 Cd29 2.223 . S
O28 C36 1.315 . S
Cd29 O28 2.223 . S
Cd29 O32 2.297 . S
Cd29 O33 2.439 . S
Cd29 O39 2.240 . S
Cd30 O31 2.240 . S
Cd30 O38 2.223 . S
Cd30 O40 2.297 . S
Cd30 O41 2.439 . S
O31 Cd30 2.240 . S
O31 C36 1.279 . S
O32 Cd29 2.297 . S
O32 C34 1.247 . S
O33 Cd29 2.439 . S
O33 C34 1.208 . S
C34 O32 1.247 . S
C34 O33 1.208 . S
C35 O40 1.247 . S
C35 O41 1.208 . S
C36 O28 1.315 . S
C36 O31 1.279 . S
C37 O38 1.315 . S
C37 O39 1.279 . S
O38 Cd30 2.223 . S
O38 C37 1.315 . S
O39 Cd29 2.240 . S
O39 C37 1.279 . S
O40 Cd30 2.297 . S
O40 C35 1.247 . S
O41 Cd30 2.439 . S
O41 C35 1.208 . S
O42 Cd43 2.223 . S
O42 C50 1.315 . S
Cd43 O42 2.223 . S
Cd43 O46 2.297 . S
Cd43 O47 2.439 . S
Cd43 O53 2.240 . S
Cd44 O45 2.240 . S
Cd44 O52 2.223 . S
Cd44 O54 2.297 . S
Cd44 O55 2.439 . S
O45 Cd44 2.240 . S
O45 C50 1.279 . S
O46 Cd43 2.297 . S
O46 C48 1.247 . S
O47 Cd43 2.439 . S
O47 C48 1.208 . S
C48 O46 1.247 . S
C48 O47 1.208 . S
C49 O54 1.247 . S
C49 O55 1.208 . S
C50 O42 1.315 . S
C50 O45 1.279 . S
C51 O52 1.315 . S
C51 O53 1.279 . S
O52 Cd44 2.223 . S
O52 C51 1.315 . S
O53 Cd43 2.240 . S
O53 C51 1.279 . S
O54 Cd44 2.297 . S
O54 C49 1.247 . S
O55 Cd44 2.439 . S
O55 C49 1.208 . S
O56 Cd57 2.223 . S
O56 C64 1.315 . S
Cd57 O56 2.223 . S
Cd57 O60 2.297 . S
Cd57 O61 2.439 . S
Cd57 O67 2.240 . S
Cd58 O59 2.240 . S
Cd58 O66 2.223 . S
Cd58 O68 2.297 . S
Cd58 O69 2.439 . S
O59 Cd58 2.240 . S
O59 C64 1.279 . S
O60 Cd57 2.297 . S
O60 C62 1.247 . S
O61 Cd57 2.439 . S
O61 C62 1.208 . S
C62 O60 1.247 . S
C62 O61 1.208 . S
C63 O68 1.247 . S
C63 O69 1.208 . S
C64 O56 1.315 . S
C64 O59 1.279 . S
C65 O66 1.315 . S
C65 O67 1.279 . S
O66 Cd58 2.223 . S
O66 C65 1.315 . S
O67 Cd57 2.240 . S
O67 C65 1.279 . S
O68 Cd58 2.297 . S
O68 C63 1.247 . S
O69 Cd58 2.439 . S
O69 C63 1.208 . S
O70 Cd71 2.223 . S
O70 C78 1.315 . S
Cd71 O70 2.223 . S
Cd71 O74 2.297 . S
Cd71 O75 2.439 . S
Cd71 O81 2.240 . S
Cd72 O73 2.240 . S
Cd72 O80 2.223 . S
Cd72 O82 2.297 . S
Cd72 O83 2.439 . S
O73 Cd72 2.240 . S
O73 C78 1.279 . S
O74 Cd71 2.297 . S
O74 C76 1.247 . S
O75 Cd71 2.439 . S
O75 C76 1.208 . S
C76 O74 1.247 . S
C76 O75 1.208 . S
C77 O82 1.247 . S
C77 O83 1.208 . S
C78 O70 1.315 . S
C78 O73 1.279 . S
C79 O80 1.315 . S
C79 O81 1.279 . S
O80 Cd72 2.223 . S
O80 C79 1.315 . S
O81 Cd71 2.240 . S
O81 C79 1.279 . S
O82 Cd72 2.297 . S
O82 C77 1.247 . S
O83 Cd72 2.439 . S
O83 C77 1.208 . S
O84 Cd85 2.223 . S
O84 C92 1.315 . S
Cd85 O84 2.223 . S
Cd85 O88 2.297 . S
Cd85 O89 2.439 . S
Cd85 O95 2.240 . S
Cd86 O87 2.240 . S
Cd86 O94 2.223 . S
Cd86 O96 2.297 . S
Cd86 O97 2.439 . S
O87 Cd86 2.240 . S
O87 C92 1.279 . S
O88 Cd85 2.297 . S
O88 C90 1.247 . S
O89 Cd85 2.439 . S
O89 C90 1.208 . S
C90 O88 1.247 . S
C90 O89 1.208 . S
C91 O96 1.247 . S
C91 O97 1.208 . S
C92 O84 1.315 . S
C92 O87 1.279 . S
C93 O94 1.315 . S
C93 O95 1.279 . S
O94 Cd86 2.223 . S
O94 C93 1.315 . S
O95 Cd85 2.240 . S
O95 C93 1.279 . S
O96 Cd86 2.297 . S
O96 C91 1.247 . S
O97 Cd86 2.439 . S
O97 C91 1.208 . S
O98 Cd99 2.223 . S
O98 C106 1.315 . S
Cd99 O98 2.223 . S
Cd99 O102 2.297 . S
Cd99 O103 2.439 . S
Cd99 O109 2.240 . S
Cd100 O101 2.240 . S
Cd100 O108 2.223 . S
Cd100 O110 2.297 . S
Cd100 O111 2.439 . S
O101 Cd100 2.240 . S
O101 C106 1.279 . S
O102 Cd99 2.297 . S
O102 C104 1.247 . S
O103 Cd99 2.439 . S
O103 C104 1.208 . S
C104 O102 1.247 . S
C104 O103 1.208 . S
C105 O110 1.247 . S
C105 O111 1.208 . S
C106 O98 1.315 . S
C106 O101 1.279 . S
C107 O108 1.315 . S
C107 O109 1.279 . S
O108 Cd100 2.223 . S
O108 C107 1.315 . S
O109 Cd99 2.240 . S
O109 C107 1.279 . S
O110 Cd100 2.297 . S
O110 C105 1.247 . S
O111 Cd100 2.439 . S
O111 C105 1.208 . S
O112 Cd113 2.223 . S
O112 C120 1.315 . S
Cd113 O112 2.223 . S
Cd113 O116 2.297 . S
Cd113 O117 2.439 . S
Cd113 O123 2.240 . S
Cd114 O115 2.240 . S
Cd114 O122 2.223 . S
Cd114 O124 2.297 . S
Cd114 O125 2.439 . S
O115 Cd114 2.240 . S
O115 C120 1.279 . S
O116 Cd113 2.297 . S
O116 C118 1.247 . S
O117 Cd113 2.439 . S
O117 C118 1.208 . S
C118 O116 1.247 . S
C118 O117 1.208 . S
C119 O124 1.247 . S
C119 O125 1.208 . S
C120 O112 1.315 . S
C120 O115 1.279 . S
C121 O122 1.315 . S
C121 O123 1.279 . S
O122 Cd114 2.223 . S
O122 C121 1.315 . S
O123 Cd113 2.240 . S
O123 C121 1.279 . S
O124 Cd114 2.297 . S
O124 C119 1.247 . S
O125 Cd114 2.439 . S
O125 C119 1.208 . S
O126 Cd127 2.223 . S
O126 C134 1.315 . S
Cd127 O126 2.223 . S
Cd127 O130 2.297 . S
Cd127 O131 2.439 . S
Cd127 O137 2.240 . S
Cd128 O129 2.240 . S
Cd128 O136 2.223 . S
Cd128 O138 2.297 . S
Cd128 O139 2.439 . S
O129 Cd128 2.240 . S
O129 C134 1.279 . S
O130 Cd127 2.297 . S
O130 C132 1.247 . S
O131 Cd127 2.439 . S
O131 C132 1.208 . S
C132 O130 1.247 . S
C132 O131 1.208 . S
C133 O138 1.247 . S
C133 O139 1.208 . S
C134 O126 1.315 . S
C134 O129 1.279 . S
C135 O136 1.315 . S
C135 O137 1.279 . S
O136 Cd128 2.223 . S
O136 C135 1.315 . S
O137 Cd127 2.240 . S
O137 C135 1.279 . S
O138 Cd128 2.297 . S
O138 C133 1.247 . S
O139 Cd128 2.439 . S
O139 C133 1.208 . S
O140 Cd141 2.223 . S
O140 C148 1.315 . S
Cd141 O140 2.223 . S
Cd141 O144 2.297 . S
Cd141 O145 2.439 . S
Cd141 O151 2.240 . S
Cd142 O143 2.240 . S
Cd142 O150 2.223 . S
Cd142 O152 2.297 . S
Cd142 O153 2.439 . S
O143 Cd142 2.240 . S
O143 C148 1.279 . S
O144 Cd141 2.297 . S
O144 C146 1.247 . S
O145 Cd141 2.439 . S
O145 C146 1.208 . S
C146 O144 1.247 . S
C146 O145 1.208 . S
C147 O152 1.247 . S
C147 O153 1.208 . S
C148 O140 1.315 . S
C148 O143 1.279 . S
C149 O150 1.315 . S
C149 O151 1.279 . S
O150 Cd142 2.223 . S
O150 C149 1.315 . S
O151 Cd141 2.240 . S
O151 C149 1.279 . S
O152 Cd142 2.297 . S
O152 C147 1.247 . S
O153 Cd142 2.439 . S
O153 C147 1.208 . S
O154 Cd155 2.223 . S
O154 C162 1.315 . S
Cd155 O154 2.223 . S
Cd155 O158 2.297 . S
Cd155 O159 2.439 . S
Cd155 O165 2.240 . S
Cd156 O157 2.240 . S
Cd156 O164 2.223 . S
Cd156 O166 2.297 . S
Cd156 O167 2.439 . S
O157 Cd156 2.240 . S
O157 C162 1.279 . S
O158 Cd155 2.297 . S
O158 C160 1.247 . S
O159 Cd155 2.439 . S
O159 C160 1.208 . S
C160 O158 1.247 . S
C160 O159 1.208 . S
C161 O166 1.247 . S
C161 O167 1.208 . S
C162 O154 1.315 . S
C162 O157 1.279 . S
C163 O164 1.315 . S
C163 O165 1.279 . S
O164 Cd156 2.223 . S
O164 C163 1.315 . S
O165 Cd155 2.240 . S
O165 C163 1.279 . S
O166 Cd156 2.297 . S
O166 C161 1.247 . S
O167 Cd156 2.439 . S
O167 C161 1.208 . S
O168 Cd169 2.223 . S
O168 C176 1.315 . S
Cd169 O168 2.223 . S
Cd169 O172 2.297 . S
Cd169 O173 2.439 . S
Cd169 O179 2.240 . S
Cd170 O171 2.240 . S
Cd170 O178 2.223 . S
Cd170 O180 2.297 . S
Cd170 O181 2.439 . S
O171 Cd170 2.240 . S
O171 C176 1.279 . S
O172 Cd169 2.297 . S
O172 C174 1.247 . S
O173 Cd169 2.439 . S
O173 C174 1.208 . S
C174 O172 1.247 . S
C174 O173 1.208 . S
C175 O180 1.247 . S
C175 O181 1.208 . S
C176 O168 1.315 . S
C176 O171 1.279 . S
C177 O178 1.315 . S
C177 O179 1.279 . S
O178 Cd170 2.223 . S
O178 C177 1.315 . S
O179 Cd169 2.240 . S
O179 C177 1.279 . S
O180 Cd170 2.297 . S
O180 C175 1.247 . S
O181 Cd170 2.439 . S
O181 C175 1.208 . S
O182 Cd183 2.223 . S
O182 C190 1.315 . S
Cd183 O182 2.223 . S
Cd183 O186 2.297 . S
Cd183 O187 2.439 . S
Cd183 O193 2.240 . S
Cd184 O185 2.240 . S
Cd184 O192 2.223 . S
Cd184 O194 2.297 . S
Cd184 O195 2.439 . S
O185 Cd184 2.240 . S
O185 C190 1.279 . S
O186 Cd183 2.297 . S
O186 C188 1.247 . S
O187 Cd183 2.439 . S
O187 C188 1.208 . S
C188 O186 1.247 . S
C188 O187 1.208 . S
C189 O194 1.247 . S
C189 O195 1.208 . S
C190 O182 1.315 . S
C190 O185 1.279 . S
C191 O192 1.315 . S
C191 O193 1.279 . S
O192 Cd184 2.223 . S
O192 C191 1.315 . S
O193 Cd183 2.240 . S
O193 C191 1.279 . S
O194 Cd184 2.297 . S
O194 C189 1.247 . S
O195 Cd184 2.439 . S
O195 C189 1.208 . S
O196 Cd197 2.223 . S
O196 C204 1.315 . S
Cd197 O196 2.223 . S
Cd197 O200 2.297 . S
Cd197 O201 2.439 . S
Cd197 O207 2.240 . S
Cd198 O199 2.240 . S
Cd198 O206 2.223 . S
Cd198 O208 2.297 . S
Cd198 O209 2.439 . S
O199 Cd198 2.240 . S
O199 C204 1.279 . S
O200 Cd197 2.297 . S
O200 C202 1.247 . S
O201 Cd197 2.439 . S
O201 C202 1.208 . S
C202 O200 1.247 . S
C202 O201 1.208 . S
C203 O208 1.247 . S
C203 O209 1.208 . S
C204 O196 1.315 . S
C204 O199 1.279 . S
C205 O206 1.315 . S
C205 O207 1.279 . S
O206 Cd198 2.223 . S
O206 C205 1.315 . S
O207 Cd197 2.240 . S
O207 C205 1.279 . S
O208 Cd198 2.297 . S
O208 C203 1.247 . S
O209 Cd198 2.439 . S
O209 C203 1.208 . S
O210 Cd211 2.223 . S
O210 C218 1.315 . S
Cd211 O210 2.223 . S
Cd211 O214 2.297 . S
Cd211 O215 2.439 . S
Cd211 O221 2.240 . S
Cd212 O213 2.240 . S
Cd212 O220 2.223 . S
Cd212 O222 2.297 . S
Cd212 O223 2.439 . S
O213 Cd212 2.240 . S
O213 C218 1.279 . S
O214 Cd211 2.297 . S
O214 C216 1.247 . S
O215 Cd211 2.439 . S
O215 C216 1.208 . S
C216 O214 1.247 . S
C216 O215 1.208 . S
C217 O222 1.247 . S
C217 O223 1.208 . S
C218 O210 1.315 . S
C218 O213 1.279 . S
C219 O220 1.315 . S
C219 O221 1.279 . S
O220 Cd212 2.223 . S
O220 C219 1.315 . S
O221 Cd211 2.240 . S
O221 C219 1.279 . S
O222 Cd212 2.297 . S
O222 C217 1.247 . S
O223 Cd212 2.439 . S
O223 C217 1.208 . S
O224 Cd225 2.223 . S
O224 C232 1.315 . S
Cd225 O224 2.223 . S
Cd225 O228 2.297 . S
Cd225 O229 2.439 . S
Cd225 O235 2.240 . S
Cd226 O227 2.240 . S
Cd226 O234 2.223 . S
Cd226 O236 2.297 . S
Cd226 O237 2.439 . S
O227 Cd226 2.240 . S
O227 C232 1.279 . S
O228 Cd225 2.297 . S
O228 C230 1.247 . S
O229 Cd225 2.439 . S
O229 C230 1.208 . S
C230 O228 1.247 . S
C230 O229 1.208 . S
C231 O236 1.247 . S
C231 O237 1.208 . S
C232 O224 1.315 . S
C232 O227 1.279 . S
C233 O234 1.315 . S
C233 O235 1.279 . S
O234 Cd226 2.223 . S
O234 C233 1.315 . S
O235 Cd225 2.240 . S
O235 C233 1.279 . S
O236 Cd226 2.297 . S
O236 C231 1.247 . S
O237 Cd226 2.439 . S
O237 C231 1.208 . S
O238 Cd239 2.223 . S
O238 C246 1.315 . S
Cd239 O238 2.223 . S
Cd239 O242 2.297 . S
Cd239 O243 2.439 . S
Cd239 O249 2.240 . S
Cd240 O241 2.240 . S
Cd240 O248 2.223 . S
Cd240 O250 2.297 . S
Cd240 O251 2.439 . S
O241 Cd240 2.240 . S
O241 C246 1.279 . S
O242 Cd239 2.297 . S
O242 C244 1.247 . S
O243 Cd239 2.439 . S
O243 C244 1.208 . S
C244 O242 1.247 . S
C244 O243 1.208 . S
C245 O250 1.247 . S
C245 O251 1.208 . S
C246 O238 1.315 . S
C246 O241 1.279 . S
C247 O248 1.315 . S
C247 O249 1.279 . S
O248 Cd240 2.223 . S
O248 C247 1.315 . S
O249 Cd239 2.240 . S
O249 C247 1.279 . S
O250 Cd240 2.297 . S
O250 C245 1.247 . S
O251 Cd240 2.439 . S
O251 C245 1.208 . S
O252 Cd253 2.223 . S
O252 C260 1.315 . S
Cd253 O252 2.223 . S
Cd253 O256 2.297 . S
Cd253 O257 2.439 . S
Cd253 O263 2.240 . S
Cd254 O255 2.240 . S
Cd254 O262 2.223 . S
Cd254 O264 2.297 . S
Cd254 O265 2.439 . S
O255 Cd254 2.240 . S
O255 C260 1.279 . S
O256 Cd253 2.297 . S
O256 C258 1.247 . S
O257 Cd253 2.439 . S
O257 C258 1.208 . S
C258 O256 1.247 . S
C258 O257 1.208 . S
C259 O264 1.247 . S
C259 O265 1.208 . S
C260 O252 1.315 . S
C260 O255 1.279 . S
C261 O262 1.315 . S
C261 O263 1.279 . S
O262 Cd254 2.223 . S
O262 C261 1.315 . S
O263 Cd253 2.240 . S
O263 C261 1.279 . S
O264 Cd254 2.297 . S
O264 C259 1.247 . S
O265 Cd254 2.439 . S
O265 C259 1.208 . S
O266 Cd267 2.223 . S
O266 C274 1.315 . S
Cd267 O266 2.223 . S
Cd267 O270 2.297 . S
Cd267 O271 2.439 . S
Cd267 O277 2.240 . S
Cd268 O269 2.240 . S
Cd268 O276 2.223 . S
Cd268 O278 2.297 . S
Cd268 O279 2.439 . S
O269 Cd268 2.240 . S
O269 C274 1.279 . S
O270 Cd267 2.297 . S
O270 C272 1.247 . S
O271 Cd267 2.439 . S
O271 C272 1.208 . S
C272 O270 1.247 . S
C272 O271 1.208 . S
C273 O278 1.247 . S
C273 O279 1.208 . S
C274 O266 1.315 . S
C274 O269 1.279 . S
C275 O276 1.315 . S
C275 O277 1.279 . S
O276 Cd268 2.223 . S
O276 C275 1.315 . S
O277 Cd267 2.240 . S
O277 C275 1.279 . S
O278 Cd268 2.297 . S
O278 C273 1.247 . S
O279 Cd268 2.439 . S
O279 C273 1.208 . S
O280 Cd281 2.223 . S
O280 C288 1.315 . S
Cd281 O280 2.223 . S
Cd281 O284 2.297 . S
Cd281 O285 2.439 . S
Cd281 O291 2.240 . S
Cd282 O283 2.240 . S
Cd282 O290 2.223 . S
Cd282 O292 2.297 . S
Cd282 O293 2.439 . S
O283 Cd282 2.240 . S
O283 C288 1.279 . S
O284 Cd281 2.297 . S
O284 C286 1.247 . S
O285 Cd281 2.439 . S
O285 C286 1.208 . S
C286 O284 1.247 . S
C286 O285 1.208 . S
C287 O292 1.247 . S
C287 O293 1.208 . S
C288 O280 1.315 . S
C288 O283 1.279 . S
C289 O290 1.315 . S
C289 O291 1.279 . S
O290 Cd282 2.223 . S
O290 C289 1.315 . S
O291 Cd281 2.240 . S
O291 C289 1.279 . S
O292 Cd282 2.297 . S
O292 C287 1.247 . S
O293 Cd282 2.439 . S
O293 C287 1.208 . S
O294 Cd295 2.223 . S
O294 C302 1.315 . S
Cd295 O294 2.223 . S
Cd295 O298 2.297 . S
Cd295 O299 2.439 . S
Cd295 O305 2.240 . S
Cd296 O297 2.240 . S
Cd296 O304 2.223 . S
Cd296 O306 2.297 . S
Cd296 O307 2.439 . S
O297 Cd296 2.240 . S
O297 C302 1.279 . S
O298 Cd295 2.297 . S
O298 C300 1.247 . S
O299 Cd295 2.439 . S
O299 C300 1.208 . S
C300 O298 1.247 . S
C300 O299 1.208 . S
C301 O306 1.247 . S
C301 O307 1.208 . S
C302 O294 1.315 . S
C302 O297 1.279 . S
C303 O304 1.315 . S
C303 O305 1.279 . S
O304 Cd296 2.223 . S
O304 C303 1.315 . S
O305 Cd295 2.240 . S
O305 C303 1.279 . S
O306 Cd296 2.297 . S
O306 C301 1.247 . S
O307 Cd296 2.439 . S
O307 C301 1.208 . S
O308 Cd309 2.223 . S
O308 C316 1.315 . S
Cd309 O308 2.223 . S
Cd309 O312 2.297 . S
Cd309 O313 2.439 . S
Cd309 O319 2.240 . S
Cd310 O311 2.240 . S
Cd310 O318 2.223 . S
Cd310 O320 2.297 . S
Cd310 O321 2.439 . S
O311 Cd310 2.240 . S
O311 C316 1.279 . S
O312 Cd309 2.297 . S
O312 C314 1.247 . S
O313 Cd309 2.439 . S
O313 C314 1.208 . S
C314 O312 1.247 . S
C314 O313 1.208 . S
C315 O320 1.247 . S
C315 O321 1.208 . S
C316 O308 1.315 . S
C316 O311 1.279 . S
C317 O318 1.315 . S
C317 O319 1.279 . S
O318 Cd310 2.223 . S
O318 C317 1.315 . S
O319 Cd309 2.240 . S
O319 C317 1.279 . S
O320 Cd310 2.297 . S
O320 C315 1.247 . S
O321 Cd310 2.439 . S
O321 C315 1.208 . S
O322 Cd323 2.223 . S
O322 C330 1.315 . S
Cd323 O322 2.223 . S
Cd323 O326 2.297 . S
Cd323 O327 2.439 . S
Cd323 O333 2.240 . S
Cd324 O325 2.240 . S
Cd324 O332 2.223 . S
Cd324 O334 2.297 . S
Cd324 O335 2.439 . S
O325 Cd324 2.240 . S
O325 C330 1.279 . S
O326 Cd323 2.297 . S
O326 C328 1.247 . S
O327 Cd323 2.439 . S
O327 C328 1.208 . S
C328 O326 1.247 . S
C328 O327 1.208 . S
C329 O334 1.247 . S
C329 O335 1.208 . S
C330 O322 1.315 . S
C330 O325 1.279 . S
C331 O332 1.315 . S
C331 O333 1.279 . S
O332 Cd324 2.223 . S
O332 C331 1.315 . S
O333 Cd323 2.240 . S
O333 C331 1.279 . S
O334 Cd324 2.297 . S
O334 C329 1.247 . S
O335 Cd324 2.439 . S
O335 C329 1.208 . S
O336 Cd337 2.223 . S
O336 C344 1.315 . S
Cd337 O336 2.223 . S
Cd337 O340 2.297 . S
Cd337 O341 2.439 . S
Cd337 O347 2.240 . S
Cd338 O339 2.240 . S
Cd338 O346 2.223 . S
Cd338 O348 2.297 . S
Cd338 O349 2.439 . S
O339 Cd338 2.240 . S
O339 C344 1.279 . S
O340 Cd337 2.297 . S
O340 C342 1.247 . S
O341 Cd337 2.439 . S
O341 C342 1.208 . S
C342 O340 1.247 . S
C342 O341 1.208 . S
C343 O348 1.247 . S
C343 O349 1.208 . S
C344 O336 1.315 . S
C344 O339 1.279 . S
C345 O346 1.315 . S
C345 O347 1.279 . S
O346 Cd338 2.223 . S
O346 C345 1.315 . S
O347 Cd337 2.240 . S
O347 C345 1.279 . S
O348 Cd338 2.297 . S
O348 C343 1.247 . S
O349 Cd338 2.439 . S
O349 C343 1.208 . S
O350 Cd351 2.223 . S
O350 C358 1.315 . S
Cd351 O350 2.223 . S
Cd351 O354 2.297 . S
Cd351 O355 2.439 . S
Cd351 O361 2.240 . S
Cd352 O353 2.240 . S
Cd352 O360 2.223 . S
Cd352 O362 2.297 . S
Cd352 O363 2.439 . S
O353 Cd352 2.240 . S
O353 C358 1.279 . S
O354 Cd351 2.297 . S
O354 C356 1.247 . S
O355 Cd351 2.439 . S
O355 C356 1.208 . S
C356 O354 1.247 . S
C356 O355 1.208 . S
C357 O362 1.247 . S
C357 O363 1.208 . S
C358 O350 1.315 . S
C358 O353 1.279 . S
C359 O360 1.315 . S
C359 O361 1.279 . S
O360 Cd352 2.223 . S
O360 C359 1.315 . S
O361 Cd351 2.240 . S
O361 C359 1.279 . S
O362 Cd352 2.297 . S
O362 C357 1.247 . S
O363 Cd352 2.439 . S
O363 C357 1.208 . S
O364 Cd365 2.223 . S
O364 C372 1.315 . S
Cd365 O364 2.223 . S
Cd365 O368 2.297 . S
Cd365 O369 2.439 . S
Cd365 O375 2.240 . S
Cd366 O367 2.240 . S
Cd366 O374 2.223 . S
Cd366 O376 2.297 . S
Cd366 O377 2.439 . S
O367 Cd366 2.240 . S
O367 C372 1.279 . S
O368 Cd365 2.297 . S
O368 C370 1.247 . S
O369 Cd365 2.439 . S
O369 C370 1.208 . S
C370 O368 1.247 . S
C370 O369 1.208 . S
C371 O376 1.247 . S
C371 O377 1.208 . S
C372 O364 1.315 . S
C372 O367 1.279 . S
C373 O374 1.315 . S
C373 O375 1.279 . S
O374 Cd366 2.223 . S
O374 C373 1.315 . S
O375 Cd365 2.240 . S
O375 C373 1.279 . S
O376 Cd366 2.297 . S
O376 C371 1.247 . S
O377 Cd366 2.439 . S
O377 C371 1.208 . S
O378 Cd379 2.223 . S
O378 C386 1.315 . S
Cd379 O378 2.223 . S
Cd379 O382 2.297 . S
Cd379 O383 2.439 . S
Cd379 O389 2.240 . S
Cd380 O381 2.240 . S
Cd380 O388 2.223 . S
Cd380 O390 2.297 . S
Cd380 O391 2.439 . S
O381 Cd380 2.240 . S
O381 C386 1.279 . S
O382 Cd379 2.297 . S
O382 C384 1.247 . S
O383 Cd379 2.439 . S
O383 C384 1.208 . S
C384 O382 1.247 . S
C384 O383 1.208 . S
C385 O390 1.247 . S
C385 O391 1.208 . S
C386 O378 1.315 . S
C386 O381 1.279 . S
C387 O388 1.315 . S
C387 O389 1.279 . S
O388 Cd380 2.223 . S
O388 C387 1.315 . S
O389 Cd379 2.240 . S
O389 C387 1.279 . S
O390 Cd380 2.297 . S
O390 C385 1.247 . S
O391 Cd380 2.439 . S
O391 C385 1.208 . S
O392 Cd393 2.223 . S
O392 C400 1.315 . S
Cd393 O392 2.223 . S
Cd393 O396 2.297 . S
Cd393 O397 2.439 . S
Cd393 O403 2.240 . S
Cd394 O395 2.240 . S
Cd394 O402 2.223 . S
Cd394 O404 2.297 . S
Cd394 O405 2.439 . S
O395 Cd394 2.240 . S
O395 C400 1.279 . S
O396 Cd393 2.297 . S
O396 C398 1.247 . S
O397 Cd393 2.439 . S
O397 C398 1.208 . S
C398 O396 1.247 . S
C398 O397 1.208 . S
C399 O404 1.247 . S
C399 O405 1.208 . S
C400 O392 1.315 . S
C400 O395 1.279 . S
C401 O402 1.315 . S
C401 O403 1.279 . S
O402 Cd394 2.223 . S
O402 C401 1.315 . S
O403 Cd393 2.240 . S
O403 C401 1.279 . S
O404 Cd394 2.297 . S
O404 C399 1.247 . S
O405 Cd394 2.439 . S
O405 C399 1.208 . S
O406 Cd407 2.223 . S
O406 C414 1.315 . S
Cd407 O406 2.223 . S
Cd407 O410 2.297 . S
Cd407 O411 2.439 . S
Cd407 O417 2.240 . S
Cd408 O409 2.240 . S
Cd408 O416 2.223 . S
Cd408 O418 2.297 . S
Cd408 O419 2.439 . S
O409 Cd408 2.240 . S
O409 C414 1.279 . S
O410 Cd407 2.297 . S
O410 C412 1.247 . S
O411 Cd407 2.439 . S
O411 C412 1.208 . S
C412 O410 1.247 . S
C412 O411 1.208 . S
C413 O418 1.247 . S
C413 O419 1.208 . S
C414 O406 1.315 . S
C414 O409 1.279 . S
C415 O416 1.315 . S
C415 O417 1.279 . S
O416 Cd408 2.223 . S
O416 C415 1.315 . S
O417 Cd407 2.240 . S
O417 C415 1.279 . S
O418 Cd408 2.297 . S
O418 C413 1.247 . S
O419 Cd408 2.439 . S
O419 C413 1.208 . S
O420 Cd421 2.223 . S
O420 C428 1.315 . S
Cd421 O420 2.223 . S
Cd421 O424 2.297 . S
Cd421 O425 2.439 . S
Cd421 O431 2.240 . S
Cd422 O423 2.240 . S
Cd422 O430 2.223 . S
Cd422 O432 2.297 . S
Cd422 O433 2.439 . S
O423 Cd422 2.240 . S
O423 C428 1.279 . S
O424 Cd421 2.297 . S
O424 C426 1.247 . S
O425 Cd421 2.439 . S
O425 C426 1.208 . S
C426 O424 1.247 . S
C426 O425 1.208 . S
C427 O432 1.247 . S
C427 O433 1.208 . S
C428 O420 1.315 . S
C428 O423 1.279 . S
C429 O430 1.315 . S
C429 O431 1.279 . S
O430 Cd422 2.223 . S
O430 C429 1.315 . S
O431 Cd421 2.240 . S
O431 C429 1.279 . S
O432 Cd422 2.297 . S
O432 C427 1.247 . S
O433 Cd422 2.439 . S
O433 C427 1.208 . S
O434 Cd435 2.223 . S
O434 C442 1.315 . S
Cd435 O434 2.223 . S
Cd435 O438 2.297 . S
Cd435 O439 2.439 . S
Cd435 O445 2.240 . S
Cd436 O437 2.240 . S
Cd436 O444 2.223 . S
Cd436 O446 2.297 . S
Cd436 O447 2.439 . S
O437 Cd436 2.240 . S
O437 C442 1.279 . S
O438 Cd435 2.297 . S
O438 C440 1.247 . S
O439 Cd435 2.439 . S
O439 C440 1.208 . S
C440 O438 1.247 . S
C440 O439 1.208 . S
C441 O446 1.247 . S
C441 O447 1.208 . S
C442 O434 1.315 . S
C442 O437 1.279 . S
C443 O444 1.315 . S
C443 O445 1.279 . S
O444 Cd436 2.223 . S
O444 C443 1.315 . S
O445 Cd435 2.240 . S
O445 C443 1.279 . S
O446 Cd436 2.297 . S
O446 C441 1.247 . S
O447 Cd436 2.439 . S
O447 C441 1.208 . S
O448 Cd449 2.223 . S
O448 C456 1.315 . S
Cd449 O448 2.223 . S
Cd449 O452 2.297 . S
Cd449 O453 2.439 . S
Cd449 O459 2.240 . S
Cd450 O451 2.240 . S
Cd450 O458 2.223 . S
Cd450 O460 2.297 . S
Cd450 O461 2.439 . S
O451 Cd450 2.240 . S
O451 C456 1.279 . S
O452 Cd449 2.297 . S
O452 C454 1.247 . S
O453 Cd449 2.439 . S
O453 C454 1.208 . S
C454 O452 1.247 . S
C454 O453 1.208 . S
C455 O460 1.247 . S
C455 O461 1.208 . S
C456 O448 1.315 . S
C456 O451 1.279 . S
C457 O458 1.315 . S
C457 O459 1.279 . S
O458 Cd450 2.223 . S
O458 C457 1.315 . S
O459 Cd449 2.240 . S
O459 C457 1.279 . S
O460 Cd450 2.297 . S
O460 C455 1.247 . S
O461 Cd450 2.439 . S
O461 C455 1.208 . S
O462 Cd463 2.223 . S
O462 C470 1.315 . S
Cd463 O462 2.223 . S
Cd463 O466 2.297 . S
Cd463 O467 2.439 . S
Cd463 O473 2.240 . S
Cd464 O465 2.240 . S
Cd464 O472 2.223 . S
Cd464 O474 2.297 . S
Cd464 O475 2.439 . S
O465 Cd464 2.240 . S
O465 C470 1.279 . S
O466 Cd463 2.297 . S
O466 C468 1.247 . S
O467 Cd463 2.439 . S
O467 C468 1.208 . S
C468 O466 1.247 . S
C468 O467 1.208 . S
C469 O474 1.247 . S
C469 O475 1.208 . S
C470 O462 1.315 . S
C470 O465 1.279 . S
C471 O472 1.315 . S
C471 O473 1.279 . S
O472 Cd464 2.223 . S
O472 C471 1.315 . S
O473 Cd463 2.240 . S
O473 C471 1.279 . S
O474 Cd464 2.297 . S
O474 C469 1.247 . S
O475 Cd464 2.439 . S
O475 C469 1.208 . S
O476 Cd477 2.223 . S
O476 C484 1.315 . S
Cd477 O476 2.223 . S
Cd477 O480 2.297 . S
Cd477 O481 2.439 . S
Cd477 O487 2.240 . S
Cd478 O479 2.240 . S
Cd478 O486 2.223 . S
Cd478 O488 2.297 . S
Cd478 O489 2.439 . S
O479 Cd478 2.240 . S
O479 C484 1.279 . S
O480 Cd477 2.297 . S
O480 C482 1.247 . S
O481 Cd477 2.439 . S
O481 C482 1.208 . S
C482 O480 1.247 . S
C482 O481 1.208 . S
C483 O488 1.247 . S
C483 O489 1.208 . S
C484 O476 1.315 . S
C484 O479 1.279 . S
C485 O486 1.315 . S
C485 O487 1.279 . S
O486 Cd478 2.223 . S
O486 C485 1.315 . S
O487 Cd477 2.240 . S
O487 C485 1.279 . S
O488 Cd478 2.297 . S
O488 C483 1.247 . S
O489 Cd478 2.439 . S
O489 C483 1.208 . S
O490 Cd491 2.223 . S
O490 C498 1.315 . S
Cd491 O490 2.223 . S
Cd491 O494 2.297 . S
Cd491 O495 2.439 . S
Cd491 O501 2.240 . S
Cd492 O493 2.240 . S
Cd492 O500 2.223 . S
Cd492 O502 2.297 . S
Cd492 O503 2.439 . S
O493 Cd492 2.240 . S
O493 C498 1.279 . S
O494 Cd491 2.297 . S
O494 C496 1.247 . S
O495 Cd491 2.439 . S
O495 C496 1.208 . S
C496 O494 1.247 . S
C496 O495 1.208 . S
C497 O502 1.247 . S
C497 O503 1.208 . S
C498 O490 1.315 . S
C498 O493 1.279 . S
C499 O500 1.315 . S
C499 O501 1.279 . S
O500 Cd492 2.223 . S
O500 C499 1.315 . S
O501 Cd491 2.240 . S
O501 C499 1.279 . S
O502 Cd492 2.297 . S
O502 C497 1.247 . S
O503 Cd492 2.439 . S
O503 C497 1.208 . S
H504 C512 0.929 . S
H505 C514 0.930 . S
H506 C516 0.930 . S
H507 C519 0.929 . S
H508 C522 0.930 . S
H509 C524 0.893 1_545 S
H510 C524 0.993 . S
H511 C524 0.960 . S
C512 H504 0.929 . S
C512 C513 1.377 . S
C512 C514 1.384 . S
C513 C512 1.377 . S
C513 C519 1.390 . S
C514 H505 0.930 . S
C514 C512 1.384 . S
C514 C515 1.372 . S
C515 C514 1.372 . S
C515 C516 1.400 . S
C515 C520 1.490 . S
C516 H506 0.930 . S
C516 C515 1.400 . S
C516 C519 1.386 . S
H517 C533 0.930 . S
H518 C534 0.931 . S
C519 H507 0.929 . S
C519 C513 1.390 . S
C519 C516 1.386 . S
C520 C515 1.490 . S
C520 C522 1.395 . S
C520 C523 1.403 . S
H521 C527 0.930 . S
C522 H508 0.930 . S
C522 C520 1.395 . S
C522 C525 1.403 1_565 S
C523 C520 1.403 . S
C523 C524 1.524 . S
C523 C527 1.400 1_565 S
C524 H509 0.893 1_565 S
C524 H510 0.993 . S
C524 H511 0.960 . S
C524 C523 1.524 . S
C525 C522 1.403 1_545 S
C525 C526 1.392 . S
C525 C529 1.495 . S
C526 C525 1.392 . S
C526 C527 1.385 . S
C526 C528 1.478 . S
C527 H521 0.930 . S
C527 C523 1.400 1_545 S
C527 C526 1.385 . S
C528 C526 1.478 . S
C528 C530 1.381 . S
C528 C534 1.383 . S
C529 C525 1.495 . S
C529 H535 1.005 . S
C529 H536 0.961 . S
C529 H537 0.960 . S
C530 C528 1.381 . S
C530 C531 1.394 . S
C530 H538 0.930 . S
C531 C530 1.394 . S
C531 C532 1.383 . S
C531 H539 0.929 . S
C532 C531 1.383 . S
C532 C533 1.377 . S
C533 H517 0.930 . S
C533 C532 1.377 . S
C533 C534 1.379 . S
C534 H518 0.931 . S
C534 C528 1.383 . S
C534 C533 1.379 . S
H535 C529 1.005 . S
H536 C529 0.961 . S
H537 C529 0.960 . S
H538 C530 0.930 . S
H539 C531 0.929 . S
H540 C548 0.929 . S
H541 C550 0.930 . S
H542 C552 0.930 . S
H543 C555 0.929 . S
H544 C558 0.930 . S
H545 C560 0.960 . S
H546 C560 0.960 . S
H547 C560 0.960 . S
C548 H540 0.929 . S
C548 C549 1.377 . S
C548 C550 1.384 . S
C549 C548 1.377 . S
C549 C555 1.390 . S
C550 H541 0.930 . S
C550 C548 1.384 . S
C550 C551 1.372 . S
C551 C550 1.372 . S
C551 C552 1.400 . S
C551 C556 1.490 . S
C552 H542 0.930 . S
C552 C551 1.400 . S
C552 C555 1.386 . S
H553 C569 0.930 . S
H554 C570 0.931 . S
C555 H543 0.929 . S
C555 C549 1.390 . S
C555 C552 1.386 . S
C556 C551 1.490 . S
C556 C558 1.395 1_455 S
C556 C559 1.403 . S
H557 C563 0.895 . S
C558 H544 0.930 . S
C558 C556 1.395 1_655 S
C558 C561 1.403 . S
C559 C556 1.403 . S
C559 C560 1.524 . S
C559 C563 1.395 . S
C560 H545 0.960 . S
C560 H546 0.960 . S
C560 H547 0.960 . S
C560 C559 1.524 . S
C561 C558 1.403 . S
C561 C562 1.392 . S
C561 C565 1.495 . S
C562 C561 1.392 . S
C562 C563 1.394 1_655 S
C562 C564 1.478 . S
C563 H557 0.895 . S
C563 C559 1.395 . S
C563 C562 1.394 1_455 S
C564 C562 1.478 . S
C564 C566 1.381 . S
C564 C570 1.383 . S
C565 C561 1.495 . S
C565 H571 0.959 . S
C565 H572 0.961 . S
C565 H573 0.960 . S
C566 C564 1.381 . S
C566 C567 1.394 . S
C566 H574 0.930 . S
C567 C566 1.394 . S
C567 C568 1.383 . S
C567 H575 0.929 . S
C568 C567 1.383 . S
C568 C569 1.377 . S
C569 H553 0.930 . S
C569 C568 1.377 . S
C569 C570 1.379 . S
C570 H554 0.931 . S
C570 C564 1.383 . S
C570 C569 1.379 . S
H571 C565 0.959 . S
H572 C565 0.961 . S
H573 C565 0.960 . S
H574 C566 0.930 . S
H575 C567 0.929 . S
H576 C584 0.929 . S
H577 C586 0.930 . S
H578 C588 0.930 . S
H579 C591 0.929 . S
H580 C594 0.930 . S
H581 C596 0.960 . S
H582 C596 0.960 . S
H583 C596 0.960 . S
C584 H576 0.929 . S
C584 C585 1.377 . S
C584 C586 1.384 . S
C585 C584 1.377 . S
C585 C591 1.390 . S
C586 H577 0.930 . S
C586 C584 1.384 . S
C586 C587 1.372 . S
C587 C586 1.372 . S
C587 C588 1.400 . S
C587 C592 1.490 . S
C588 H578 0.930 . S
C588 C587 1.400 . S
C588 C591 1.386 . S
H589 C605 0.930 . S
H590 C606 0.931 . S
C591 H579 0.929 . S
C591 C585 1.390 . S
C591 C588 1.386 . S
C592 C587 1.490 . S
C592 C594 1.395 . S
C592 C595 1.403 . S
H593 C599 0.930 . S
C594 H580 0.930 . S
C594 C592 1.395 . S
C594 C597 1.403 . S
C595 C592 1.403 . S
C595 C596 1.524 . S
C595 C599 1.400 . S
C596 H581 0.960 . S
C596 H582 0.960 . S
C596 H583 0.960 . S
C596 C595 1.524 . S
C597 C594 1.403 . S
C597 C598 1.392 . S
C597 C601 1.495 . S
C598 C597 1.392 . S
C598 C599 1.385 . S
C598 C600 1.478 . S
C599 H593 0.930 . S
C599 C595 1.400 . S
C599 C598 1.385 . S
C600 C598 1.478 . S
C600 C602 1.381 . S
C600 C606 1.383 . S
C601 C597 1.495 . S
C601 H607 0.959 . S
C601 H608 0.961 . S
C601 H609 0.960 . S
C602 C600 1.381 . S
C602 C603 1.394 . S
C602 H610 0.930 . S
C603 C602 1.394 . S
C603 C604 1.383 . S
C603 H611 0.929 . S
C604 C603 1.383 . S
C604 C605 1.377 . S
C605 H589 0.930 . S
C605 C604 1.377 . S
C605 C606 1.379 . S
C606 H590 0.931 . S
C606 C600 1.383 . S
C606 C605 1.379 . S
H607 C601 0.959 . S
H608 C601 0.961 . S
H609 C601 0.960 . S
H610 C602 0.930 . S
H611 C603 0.929 . S
H612 C620 0.929 . S
H613 C622 0.930 . S
H614 C624 0.930 . S
H615 C627 0.929 . S
H616 C630 0.930 . S
H617 C632 0.960 . S
H618 C632 0.960 . S
H619 C632 0.960 . S
C620 H612 0.929 . S
C620 C621 1.377 . S
C620 C622 1.384 . S
C621 C620 1.377 . S
C621 C627 1.390 . S
C622 H613 0.930 . S
C622 C620 1.384 . S
C622 C623 1.372 . S
C623 C622 1.372 . S
C623 C624 1.400 . S
C623 C628 1.490 . S
C624 H614 0.930 . S
C624 C623 1.400 . S
C624 C627 1.386 . S
H625 C641 0.930 . S
H626 C642 0.931 . S
C627 H615 0.929 . S
C627 C621 1.390 . S
C627 C624 1.386 . S
C628 C623 1.490 . S
C628 C630 1.395 . S
C628 C631 1.403 1_565 S
H629 C635 0.930 . S
C630 H616 0.930 . S
C630 C628 1.395 . S
C630 C633 1.403 . S
C631 C628 1.403 1_545 S
C631 C632 1.524 . S
C631 C635 1.400 . S
C632 H617 0.960 . S
C632 H618 0.960 . S
C632 H619 0.960 . S
C632 C631 1.524 . S
C633 C630 1.403 . S
C633 C634 1.392 1_565 S
C633 C637 1.495 . S
C634 C633 1.392 1_545 S
C634 C635 1.385 . S
C634 C636 1.478 . S
C635 H629 0.930 . S
C635 C631 1.400 . S
C635 C634 1.385 . S
C636 C634 1.478 . S
C636 C638 1.381 . S
C636 C642 1.383 . S
C637 C633 1.495 . S
C637 H643 0.959 . S
C637 H644 0.961 . S
C637 H645 0.960 . S
C638 C636 1.381 . S
C638 C639 1.394 . S
C638 H646 0.930 . S
C639 C638 1.394 . S
C639 C640 1.383 . S
C639 H647 0.929 . S
C640 C639 1.383 . S
C640 C641 1.377 . S
C641 H625 0.930 . S
C641 C640 1.377 . S
C641 C642 1.379 . S
C642 H626 0.931 . S
C642 C636 1.383 . S
C642 C641 1.379 . S
H643 C637 0.959 . S
H644 C637 0.961 . S
H645 C637 0.960 . S
H646 C638 0.930 . S
H647 C639 0.929 . S
H648 C656 0.929 . S
H649 C658 0.930 . S
H650 C660 0.930 . S
H651 C663 0.929 . S
H652 C666 0.930 . S
H653 C668 0.960 . S
H654 C668 0.960 . S
H655 C668 0.960 . S
C656 H648 0.929 . S
C656 C657 1.377 . S
C656 C658 1.384 . S
C657 C656 1.377 . S
C657 C663 1.390 . S
C658 H649 0.930 . S
C658 C656 1.384 . S
C658 C659 1.372 . S
C659 C658 1.372 . S
C659 C660 1.400 . S
C659 C664 1.490 . S
C660 H650 0.930 . S
C660 C659 1.400 . S
C660 C663 1.386 . S
H661 C677 0.930 . S
H662 C678 0.931 . S
C663 H651 0.929 . S
C663 C657 1.390 . S
C663 C660 1.386 . S
C664 C659 1.490 . S
C664 C666 1.395 1_455 S
C664 C667 1.403 . S
H665 C671 0.930 . S
C666 H652 0.930 . S
C666 C664 1.395 1_655 S
C666 C669 1.403 . S
C667 C664 1.403 . S
C667 C668 1.524 . S
C667 C671 1.400 . S
C668 H653 0.960 . S
C668 H654 0.960 . S
C668 H655 0.960 . S
C668 C667 1.524 . S
C669 C666 1.403 . S
C669 C670 1.392 . S
C669 C673 1.495 . S
C670 C669 1.392 . S
C670 C671 1.385 1_655 S
C670 C672 1.478 . S
C671 H665 0.930 . S
C671 C667 1.400 . S
C671 C670 1.385 1_455 S
C672 C670 1.478 . S
C672 C674 1.381 . S
C672 C678 1.383 . S
C673 C669 1.495 . S
C673 H679 0.959 . S
C673 H680 0.961 . S
C673 H681 0.960 . S
C674 C672 1.381 . S
C674 C675 1.394 . S
C674 H682 0.930 . S
C675 C674 1.394 . S
C675 C676 1.383 . S
C675 H683 0.929 . S
C676 C675 1.383 . S
C676 C677 1.377 . S
C677 H661 0.930 . S
C677 C676 1.377 . S
C677 C678 1.379 . S
C678 H662 0.931 . S
C678 C672 1.383 . S
C678 C677 1.379 . S
H679 C673 0.959 . S
H680 C673 0.961 . S
H681 C673 0.960 . S
H682 C674 0.930 . S
H683 C675 0.929 . S
H684 C692 0.929 . S
H685 C694 0.930 . S
H686 C696 0.930 . S
H687 C699 0.929 . S
H688 C702 0.930 . S
H689 C704 0.960 . S
H690 C704 0.960 . S
H691 C704 0.960 . S
C692 H684 0.929 . S
C692 C693 1.377 . S
C692 C694 1.384 . S
C693 C692 1.377 . S
C693 C699 1.390 . S
C694 H685 0.930 . S
C694 C692 1.384 . S
C694 C695 1.372 . S
C695 C694 1.372 . S
C695 C696 1.400 . S
C695 C700 1.490 . S
C696 H686 0.930 . S
C696 C695 1.400 . S
C696 C699 1.386 . S
H697 C713 0.930 . S
H698 C714 0.931 . S
C699 H687 0.929 . S
C699 C693 1.390 . S
C699 C696 1.386 . S
C700 C695 1.490 . S
C700 C702 1.395 . S
C700 C703 1.403 . S
H701 C707 0.930 . S
C702 H688 0.930 . S
C702 C700 1.395 . S
C702 C705 1.403 . S
C703 C700 1.403 . S
C703 C704 1.524 . S
C703 C707 1.400 . S
C704 H689 0.960 . S
C704 H690 0.960 . S
C704 H691 0.960 . S
C704 C703 1.524 . S
C705 C702 1.403 . S
C705 C706 1.392 . S
C705 C709 1.495 . S
C706 C705 1.392 . S
C706 C707 1.385 . S
C706 C708 1.478 . S
C707 H701 0.930 . S
C707 C703 1.400 . S
C707 C706 1.385 . S
C708 C706 1.478 . S
C708 C710 1.381 . S
C708 C714 1.383 . S
C709 C705 1.495 . S
C709 H715 0.959 . S
C709 H716 0.961 . S
C709 H717 0.960 . S
C710 C708 1.381 . S
C710 C711 1.394 . S
C710 H718 0.930 . S
C711 C710 1.394 . S
C711 C712 1.383 . S
C711 H719 0.929 . S
C712 C711 1.383 . S
C712 C713 1.377 . S
C713 H697 0.930 . S
C713 C712 1.377 . S
C713 C714 1.379 . S
C714 H698 0.931 . S
C714 C708 1.383 . S
C714 C713 1.379 . S
H715 C709 0.959 . S
H716 C709 0.961 . S
H717 C709 0.960 . S
H718 C710 0.930 . S
H719 C711 0.929 . S
H720 C728 0.929 . S
H721 C730 0.930 . S
H722 C732 0.930 . S
H723 C735 0.929 . S
H724 C738 0.930 . S
H725 C740 0.960 . S
H726 C740 0.960 . S
H727 C740 0.960 . S
C728 H720 0.929 . S
C728 C729 1.377 . S
C728 C730 1.384 . S
C729 C728 1.377 . S
C729 C735 1.390 . S
C730 H721 0.930 . S
C730 C728 1.384 . S
C730 C731 1.372 . S
C731 C730 1.372 . S
C731 C732 1.400 . S
C731 C736 1.490 . S
C732 H722 0.930 . S
C732 C731 1.400 . S
C732 C735 1.386 . S
H733 C749 0.930 . S
H734 C750 0.931 . S
C735 H723 0.929 . S
C735 C729 1.390 . S
C735 C732 1.386 . S
C736 C731 1.490 . S
C736 C738 1.395 . S
C736 C739 1.403 . S
H737 C743 0.930 . S
C738 H724 0.930 . S
C738 C736 1.395 . S
C738 C741 1.403 . S
C739 C736 1.403 . S
C739 C740 1.524 . S
C739 C743 1.400 . S
C740 H725 0.960 . S
C740 H726 0.960 . S
C740 H727 0.960 . S
C740 C739 1.524 . S
C741 C738 1.403 . S
C741 C742 1.392 . S
C741 C745 1.495 . S
C742 C741 1.392 . S
C742 C743 1.385 . S
C742 C744 1.478 . S
C743 H737 0.930 . S
C743 C739 1.400 . S
C743 C742 1.385 . S
C744 C742 1.478 . S
C744 C746 1.381 . S
C744 C750 1.383 . S
C745 C741 1.495 . S
C745 H751 0.959 . S
C745 H752 0.961 . S
C745 H753 0.960 . S
C746 C744 1.381 . S
C746 C747 1.394 . S
C746 H754 0.930 . S
C747 C746 1.394 . S
C747 C748 1.383 . S
C747 H755 0.929 1_556 S
C748 C747 1.383 . S
C748 C749 1.377 . S
C749 H733 0.930 . S
C749 C748 1.377 . S
C749 C750 1.379 . S
C750 H734 0.931 . S
C750 C744 1.383 . S
C750 C749 1.379 . S
H751 C745 0.959 . S
H752 C745 0.961 . S
H753 C745 0.960 . S
H754 C746 0.930 . S
H755 C747 0.929 1_554 S
H756 C764 0.929 . S
H757 C766 0.930 . S
H758 C768 0.930 . S
H759 C771 0.929 . S
H760 C774 0.930 . S
H761 C776 0.960 . S
H762 C776 0.960 . S
H763 C776 0.960 . S
C764 H756 0.929 . S
C764 C765 1.377 . S
C764 C766 1.384 . S
C765 C764 1.377 . S
C765 C771 1.390 . S
C766 H757 0.930 . S
C766 C764 1.384 . S
C766 C767 1.372 . S
C767 C766 1.372 . S
C767 C768 1.400 . S
C767 C772 1.490 . S
C768 H758 0.930 . S
C768 C767 1.400 . S
C768 C771 1.386 . S
H769 C785 0.930 . S
H770 C786 0.931 . S
C771 H759 0.929 . S
C771 C765 1.390 . S
C771 C768 1.386 . S
C772 C767 1.490 . S
C772 C774 1.395 . S
C772 C775 1.403 . S
H773 C779 0.930 . S
C774 H760 0.930 . S
C774 C772 1.395 . S
C774 C777 1.403 . S
C775 C772 1.403 . S
C775 C776 1.524 . S
C775 C779 1.400 . S
C776 H761 0.960 . S
C776 H762 0.960 . S
C776 H763 0.960 . S
C776 C775 1.524 . S
C777 C774 1.403 . S
C777 C778 1.392 . S
C777 C781 1.495 . S
C778 C777 1.392 . S
C778 C779 1.385 . S
C778 C780 1.478 . S
C779 H773 0.930 . S
C779 C775 1.400 . S
C779 C778 1.385 . S
C780 C778 1.478 . S
C780 C782 1.381 . S
C780 C786 1.383 . S
C781 C777 1.495 . S
C781 H787 0.959 . S
C781 H788 0.961 . S
C781 H789 0.960 . S
C782 C780 1.381 . S
C782 C783 1.394 . S
C782 H790 0.930 . S
C783 C782 1.394 . S
C783 C784 1.383 . S
C783 H791 0.929 . S
C784 C783 1.383 . S
C784 C785 1.377 . S
C785 H769 0.930 . S
C785 C784 1.377 . S
C785 C786 1.379 . S
C786 H770 0.931 . S
C786 C780 1.383 . S
C786 C785 1.379 . S
H787 C781 0.959 . S
H788 C781 0.961 . S
H789 C781 0.960 . S
H790 C782 0.930 . S
H791 C783 0.929 . S
H792 C800 0.929 . S
H793 C802 0.930 . S
H794 C804 0.930 . S
H795 C807 0.929 . S
H796 C810 0.930 . S
H797 C812 0.960 . S
H798 C812 0.960 . S
H799 C812 0.960 . S
C800 H792 0.929 . S
C800 C801 1.377 . S
C800 C802 1.384 . S
C801 C800 1.377 . S
C801 C807 1.390 . S
C802 H793 0.930 . S
C802 C800 1.384 . S
C802 C803 1.372 . S
C803 C802 1.372 . S
C803 C804 1.400 . S
C803 C808 1.490 . S
C804 H794 0.930 . S
C804 C803 1.400 . S
C804 C807 1.386 . S
H805 C821 0.930 1_554 S
H806 C822 0.931 . S
C807 H795 0.929 . S
C807 C801 1.390 . S
C807 C804 1.386 . S
C808 C803 1.490 . S
C808 C810 1.395 . S
C808 C811 1.403 . S
H809 C815 0.930 . S
C810 H796 0.930 . S
C810 C808 1.395 . S
C810 C813 1.403 . S
C811 C808 1.403 . S
C811 C812 1.524 . S
C811 C815 1.400 . S
C812 H797 0.960 . S
C812 H798 0.960 . S
C812 H799 0.960 . S
C812 C811 1.524 . S
C813 C810 1.403 . S
C813 C814 1.392 . S
C813 C817 1.495 . S
C814 C813 1.392 . S
C814 C815 1.385 . S
C814 C816 1.478 . S
C815 H809 0.930 . S
C815 C811 1.400 . S
C815 C814 1.385 . S
C816 C814 1.478 . S
C816 C818 1.381 . S
C816 C822 1.383 . S
C817 C813 1.495 . S
C817 H823 0.959 . S
C817 H824 0.961 . S
C817 H825 0.960 . S
C818 C816 1.381 . S
C818 C819 1.394 . S
C818 H826 0.930 . S
C819 C818 1.394 . S
C819 C820 1.383 . S
C819 H827 0.929 . S
C820 C819 1.383 . S
C820 C821 1.377 . S
C821 H805 0.930 1_556 S
C821 C820 1.377 . S
C821 C822 1.379 . S
C822 H806 0.931 . S
C822 C816 1.383 . S
C822 C821 1.379 . S
H823 C817 0.959 . S
H824 C817 0.961 . S
H825 C817 0.960 . S
H826 C818 0.930 . S
H827 C819 0.929 . S
H828 C836 0.929 . S
H829 C838 0.930 . S
H830 C840 0.930 . S
H831 C843 0.929 . S
H832 C846 0.930 . S
H833 C848 0.960 . S
H834 C848 0.960 . S
H835 C848 0.960 . S
C836 H828 0.929 . S
C836 C837 1.377 . S
C836 C838 1.384 . S
C837 C836 1.377 . S
C837 C843 1.390 . S
C838 H829 0.930 . S
C838 C836 1.384 . S
C838 C839 1.372 . S
C839 C838 1.372 . S
C839 C840 1.400 . S
C839 C844 1.490 . S
C840 H830 0.930 . S
C840 C839 1.400 . S
C840 C843 1.386 . S
H841 C857 0.930 . S
H842 C858 0.931 . S
C843 H831 0.929 . S
C843 C837 1.390 . S
C843 C840 1.386 . S
C844 C839 1.490 . S
C844 C846 1.395 . S
C844 C847 1.403 . S
H845 C851 0.930 . S
C846 H832 0.930 . S
C846 C844 1.395 . S
C846 C849 1.403 . S
C847 C844 1.403 . S
C847 C848 1.524 . S
C847 C851 1.400 . S
C848 H833 0.960 . S
C848 H834 0.960 . S
C848 H835 0.960 . S
C848 C847 1.524 . S
C849 C846 1.403 . S
C849 C850 1.392 . S
C849 C853 1.495 . S
C850 C849 1.392 . S
C850 C851 1.385 . S
C850 C852 1.478 . S
C851 H845 0.930 . S
C851 C847 1.400 . S
C851 C850 1.385 . S
C852 C850 1.478 . S
C852 C854 1.381 . S
C852 C858 1.383 . S
C853 C849 1.495 . S
C853 H859 0.959 . S
C853 H860 0.961 . S
C853 H861 0.960 . S
C854 C852 1.381 . S
C854 C855 1.394 . S
C854 H862 0.930 . S
C855 C854 1.394 . S
C855 C856 1.383 . S
C855 H863 0.929 . S
C856 C855 1.383 . S
C856 C857 1.377 . S
C857 H841 0.930 . S
C857 C856 1.377 . S
C857 C858 1.379 . S
C858 H842 0.931 . S
C858 C852 1.383 . S
C858 C857 1.379 . S
H859 C853 0.959 . S
H860 C853 0.961 . S
H861 C853 0.960 . S
H862 C854 0.930 . S
H863 C855 0.929 . S
H864 C872 0.929 1_554 S
H865 C874 0.930 . S
H866 C876 0.930 . S
H867 C879 0.929 . S
H868 C882 0.930 . S
H869 C884 0.960 . S
H870 C884 0.960 . S
H871 C884 0.960 . S
C872 H864 0.929 1_556 S
C872 C873 1.377 . S
C872 C874 1.384 . S
C873 C872 1.377 . S
C873 C879 1.390 . S
C874 H865 0.930 . S
C874 C872 1.384 . S
C874 C875 1.372 . S
C875 C874 1.372 . S
C875 C876 1.400 . S
C875 C880 1.490 . S
C876 H866 0.930 . S
C876 C875 1.400 . S
C876 C879 1.386 . S
H877 C893 0.930 . S
H878 C894 0.931 . S
C879 H867 0.929 . S
C879 C873 1.390 . S
C879 C876 1.386 . S
C880 C875 1.490 . S
C880 C882 1.395 . S
C880 C883 1.403 . S
H881 C887 0.930 . S
C882 H868 0.930 . S
C882 C880 1.395 . S
C882 C885 1.403 . S
C883 C880 1.403 . S
C883 C884 1.524 . S
C883 C887 1.400 . S
C884 H869 0.960 . S
C884 H870 0.960 . S
C884 H871 0.960 . S
C884 C883 1.524 . S
C885 C882 1.403 . S
C885 C886 1.392 . S
C885 C889 1.495 . S
C886 C885 1.392 . S
C886 C887 1.385 . S
C886 C888 1.478 . S
C887 H881 0.930 . S
C887 C883 1.400 . S
C887 C886 1.385 . S
C888 C886 1.478 . S
C888 C890 1.381 . S
C888 C894 1.383 . S
C889 C885 1.495 . S
C889 H895 0.959 . S
C889 H896 0.961 . S
C889 H897 0.960 . S
C890 C888 1.381 . S
C890 C891 1.394 . S
C890 H898 0.930 . S
C891 C890 1.394 . S
C891 C892 1.383 . S
C891 H899 0.929 . S
C892 C891 1.383 . S
C892 C893 1.377 . S
C893 H877 0.930 . S
C893 C892 1.377 . S
C893 C894 1.379 . S
C894 H878 0.931 . S
C894 C888 1.383 . S
C894 C893 1.379 . S
H895 C889 0.959 . S
H896 C889 0.961 . S
H897 C889 0.960 . S
H898 C890 0.930 . S
H899 C891 0.929 . S
H900 C908 0.929 . S
H901 C910 0.930 . S
H902 C912 0.930 . S
H903 C915 0.929 . S
H904 C918 0.930 . S
H905 C920 0.960 . S
H906 C920 0.960 . S
H907 C920 0.960 . S
C908 H900 0.929 . S
C908 C909 1.377 . S
C908 C910 1.384 . S
C909 C908 1.377 . S
C909 C915 1.390 . S
C910 H901 0.930 . S
C910 C908 1.384 . S
C910 C911 1.372 . S
C911 C910 1.372 . S
C911 C912 1.400 . S
C911 C916 1.490 . S
C912 H902 0.930 . S
C912 C911 1.400 . S
C912 C915 1.386 . S
H913 C929 0.930 1_554 S
H914 C930 0.931 . S
C915 H903 0.929 . S
C915 C909 1.390 . S
C915 C912 1.386 . S
C916 C911 1.490 . S
C916 C918 1.395 . S
C916 C919 1.403 . S
H917 C923 0.930 . S
C918 H904 0.930 . S
C918 C916 1.395 . S
C918 C921 1.403 . S
C919 C916 1.403 . S
C919 C920 1.524 . S
C919 C923 1.400 . S
C920 H905 0.960 . S
C920 H906 0.960 . S
C920 H907 0.960 . S
C920 C919 1.524 . S
C921 C918 1.403 . S
C921 C922 1.392 . S
C921 C925 1.495 . S
C922 C921 1.392 . S
C922 C923 1.385 . S
C922 C924 1.478 . S
C923 H917 0.930 . S
C923 C919 1.400 . S
C923 C922 1.385 . S
C924 C922 1.478 . S
C924 C926 1.381 . S
C924 C930 1.383 . S
C925 C921 1.495 . S
C925 H931 0.959 . S
C925 H932 0.961 . S
C925 H933 0.960 . S
C926 C924 1.381 . S
C926 C927 1.394 . S
C926 H934 0.930 . S
C927 C926 1.394 . S
C927 C928 1.383 . S
C927 H935 0.929 . S
C928 C927 1.383 . S
C928 C929 1.377 . S
C929 H913 0.930 1_556 S
C929 C928 1.377 . S
C929 C930 1.379 . S
C930 H914 0.931 . S
C930 C924 1.383 . S
C930 C929 1.379 . S
H931 C925 0.959 . S
H932 C925 0.961 . S
H933 C925 0.960 . S
H934 C926 0.930 . S
H935 C927 0.929 . S
H936 C944 0.929 . S
H937 C946 0.930 . S
H938 C948 0.930 . S
H939 C951 0.929 . S
H940 C954 0.930 . S
H941 C956 0.960 . S
H942 C956 0.960 . S
H943 C956 0.960 . S
C944 H936 0.929 . S
C944 C945 1.377 . S
C944 C946 1.384 . S
C945 C944 1.377 . S
C945 C951 1.390 . S
C946 H937 0.930 . S
C946 C944 1.384 . S
C946 C947 1.372 . S
C947 C946 1.372 . S
C947 C948 1.400 . S
C947 C952 1.490 . S
C948 H938 0.930 . S
C948 C947 1.400 . S
C948 C951 1.386 . S
H949 C965 0.930 1_556 S
H950 C966 0.931 . S
C951 H939 0.929 . S
C951 C945 1.390 . S
C951 C948 1.386 . S
C952 C947 1.490 . S
C952 C954 1.395 . S
C952 C955 1.403 . S
H953 C959 0.930 . S
C954 H940 0.930 . S
C954 C952 1.395 . S
C954 C957 1.403 . S
C955 C952 1.403 . S
C955 C956 1.524 . S
C955 C959 1.400 . S
C956 H941 0.960 . S
C956 H942 0.960 . S
C956 H943 0.960 . S
C956 C955 1.524 . S
C957 C954 1.403 . S
C957 C958 1.392 . S
C957 C961 1.495 . S
C958 C957 1.392 . S
C958 C959 1.385 . S
C958 C960 1.478 . S
C959 H953 0.930 . S
C959 C955 1.400 . S
C959 C958 1.385 . S
C960 C958 1.478 . S
C960 C962 1.381 . S
C960 C966 1.383 . S
C961 C957 1.495 . S
C961 H967 0.959 . S
C961 H968 0.961 . S
C961 H969 0.960 . S
C962 C960 1.381 . S
C962 C963 1.394 . S
C962 H970 0.930 . S
C963 C962 1.394 . S
C963 C964 1.383 . S
C963 H971 0.929 . S
C964 C963 1.383 . S
C964 C965 1.377 . S
C965 H949 0.930 1_554 S
C965 C964 1.377 . S
C965 C966 1.379 . S
C966 H950 0.931 . S
C966 C960 1.383 . S
C966 C965 1.379 . S
H967 C961 0.959 . S
H968 C961 0.961 . S
H969 C961 0.960 . S
H970 C962 0.930 . S
H971 C963 0.929 . S
H972 C980 0.929 . S
H973 C982 0.930 . S
H974 C984 0.930 . S
H975 C987 0.929 . S
H976 C990 0.930 . S
H977 C992 0.960 . S
H978 C992 0.960 . S
H979 C992 0.960 . S
C980 H972 0.929 . S
C980 C981 1.377 . S
C980 C982 1.384 . S
C981 C980 1.377 . S
C981 C987 1.390 . S
C982 H973 0.930 . S
C982 C980 1.384 . S
C982 C983 1.372 . S
C983 C982 1.372 . S
C983 C984 1.400 . S
C983 C988 1.490 . S
C984 H974 0.930 . S
C984 C983 1.400 . S
C984 C987 1.386 . S
H985 C1001 0.930 . S
H986 C1002 0.931 . S
C987 H975 0.929 . S
C987 C981 1.390 . S
C987 C984 1.386 . S
C988 C983 1.490 . S
C988 C990 1.395 . S
C988 C991 1.403 . S
H989 C995 0.930 . S
C990 H976 0.930 . S
C990 C988 1.395 . S
C990 C993 1.403 . S
C991 C988 1.403 . S
C991 C992 1.524 . S
C991 C995 1.400 . S
C992 H977 0.960 . S
C992 H978 0.960 . S
C992 H979 0.960 . S
C992 C991 1.524 . S
C993 C990 1.403 . S
C993 C994 1.392 . S
C993 C997 1.495 . S
C994 C993 1.392 . S
C994 C995 1.385 . S
C994 C996 1.478 . S
C995 H989 0.930 . S
C995 C991 1.400 . S
C995 C994 1.385 . S
C996 C994 1.478 . S
C996 C998 1.381 . S
C996 C1002 1.383 . S
C997 C993 1.495 . S
C997 H1003 0.959 . S
C997 H1004 0.961 . S
C997 H1005 0.960 . S
C998 C996 1.381 . S
C998 C999 1.394 . S
C998 H1006 0.930 . S
C999 C998 1.394 . S
C999 C1000 1.383 . S
C999 H1007 0.929 1_554 S
C1000 C999 1.383 . S
C1000 C1001 1.377 . S
C1001 H985 0.930 . S
C1001 C1000 1.377 . S
C1001 C1002 1.379 . S
C1002 H986 0.931 . S
C1002 C996 1.383 . S
C1002 C1001 1.379 . S
H1003 C997 0.959 . S
H1004 C997 0.961 . S
H1005 C997 0.960 . S
H1006 C998 0.930 . S
H1007 C999 0.929 1_556 S
H1008 C1016 0.929 . S
H1009 C1018 0.930 . S
H1010 C1020 0.930 . S
H1011 C1023 0.929 . S
H1012 C1026 0.930 . S
H1013 C1028 0.960 . S
H1014 C1028 0.960 . S
H1015 C1028 0.960 . S
C1016 H1008 0.929 . S
C1016 C1017 1.377 . S
C1016 C1018 1.384 . S
C1017 C1016 1.377 . S
C1017 C1023 1.390 . S
C1018 H1009 0.930 . S
C1018 C1016 1.384 . S
C1018 C1019 1.372 . S
C1019 C1018 1.372 . S
C1019 C1020 1.400 . S
C1019 C1024 1.490 . S
C1020 H1010 0.930 . S
C1020 C1019 1.400 . S
C1020 C1023 1.386 . S
H1021 C1037 0.930 . S
H1022 C1038 0.931 . S
C1023 H1011 0.929 . S
C1023 C1017 1.390 . S
C1023 C1020 1.386 . S
C1024 C1019 1.490 . S
C1024 C1026 1.395 . S
C1024 C1027 1.403 . S
H1025 C1031 0.930 . S
C1026 H1012 0.930 . S
C1026 C1024 1.395 . S
C1026 C1029 1.403 . S
C1027 C1024 1.403 . S
C1027 C1028 1.524 . S
C1027 C1031 1.400 . S
C1028 H1013 0.960 . S
C1028 H1014 0.960 . S
C1028 H1015 0.960 . S
C1028 C1027 1.524 . S
C1029 C1026 1.403 . S
C1029 C1030 1.392 . S
C1029 C1033 1.495 . S
C1030 C1029 1.392 . S
C1030 C1031 1.385 . S
C1030 C1032 1.478 . S
C1031 H1025 0.930 . S
C1031 C1027 1.400 . S
C1031 C1030 1.385 . S
C1032 C1030 1.478 . S
C1032 C1034 1.381 . S
C1032 C1038 1.383 . S
C1033 C1029 1.495 . S
C1033 H1039 0.959 . S
C1033 H1040 0.961 . S
C1033 H1041 0.960 . S
C1034 C1032 1.381 . S
C1034 C1035 1.394 . S
C1034 H1042 0.930 . S
C1035 C1034 1.394 . S
C1035 C1036 1.383 . S
C1035 H1043 0.929 . S
C1036 C1035 1.383 . S
C1036 C1037 1.377 . S
C1037 H1021 0.930 . S
C1037 C1036 1.377 . S
C1037 C1038 1.379 . S
C1038 H1022 0.931 . S
C1038 C1032 1.383 . S
C1038 C1037 1.379 . S
H1039 C1033 0.959 . S
H1040 C1033 0.961 . S
H1041 C1033 0.960 . S
H1042 C1034 0.930 . S
H1043 C1035 0.929 . S
H1044 C1052 0.929 . S
H1045 C1054 0.930 . S
H1046 C1056 0.930 . S
H1047 C1059 0.929 . S
H1048 C1062 0.930 . S
H1049 C1064 0.960 . S
H1050 C1064 0.960 . S
H1051 C1064 0.960 . S
C1052 H1044 0.929 . S
C1052 C1053 1.377 . S
C1052 C1054 1.384 . S
C1053 C1052 1.377 . S
C1053 C1059 1.390 . S
C1054 H1045 0.930 . S
C1054 C1052 1.384 . S
C1054 C1055 1.372 . S
C1055 C1054 1.372 . S
C1055 C1056 1.400 . S
C1055 C1060 1.490 . S
C1056 H1046 0.930 . S
C1056 C1055 1.400 . S
C1056 C1059 1.386 . S
H1057 C1073 0.930 . S
H1058 C1074 0.931 . S
C1059 H1047 0.929 . S
C1059 C1053 1.390 . S
C1059 C1056 1.386 . S
C1060 C1055 1.490 . S
C1060 C1062 1.395 . S
C1060 C1063 1.403 . S
H1061 C1067 0.930 . S
C1062 H1048 0.930 . S
C1062 C1060 1.395 . S
C1062 C1065 1.403 . S
C1063 C1060 1.403 . S
C1063 C1064 1.524 . S
C1063 C1067 1.400 . S
C1064 H1049 0.960 . S
C1064 H1050 0.960 . S
C1064 H1051 0.960 . S
C1064 C1063 1.524 . S
C1065 C1062 1.403 . S
C1065 C1066 1.392 . S
C1065 C1069 1.495 . S
C1066 C1065 1.392 . S
C1066 C1067 1.385 . S
C1066 C1068 1.478 . S
C1067 H1061 0.930 . S
C1067 C1063 1.400 . S
C1067 C1066 1.385 . S
C1068 C1066 1.478 . S
C1068 C1070 1.381 . S
C1068 C1074 1.383 . S
C1069 C1065 1.495 . S
C1069 H1075 0.959 . S
C1069 H1076 0.961 . S
C1069 H1077 0.960 . S
C1070 C1068 1.381 . S
C1070 C1071 1.394 . S
C1070 H1078 0.930 . S
C1071 C1070 1.394 . S
C1071 C1072 1.383 . S
C1071 H1079 0.929 . S
C1072 C1071 1.383 . S
C1072 C1073 1.377 . S
C1073 H1057 0.930 . S
C1073 C1072 1.377 . S
C1073 C1074 1.379 . S
C1074 H1058 0.931 . S
C1074 C1068 1.383 . S
C1074 C1073 1.379 . S
H1075 C1069 0.959 . S
H1076 C1069 0.961 . S
H1077 C1069 0.960 . S
H1078 C1070 0.930 . S
H1079 C1071 0.929 . S
H1080 C1088 0.929 . S
H1081 C1090 0.930 . S
H1082 C1092 0.930 . S
H1083 C1095 0.929 . S
H1084 C1098 0.930 . S
H1085 C1100 0.960 . S
H1086 C1100 0.960 . S
H1087 C1100 0.960 . S
C1088 H1080 0.929 . S
C1088 C1089 1.377 . S
C1088 C1090 1.384 . S
C1089 C1088 1.377 . S
C1089 C1095 1.390 . S
C1090 H1081 0.930 . S
C1090 C1088 1.384 . S
C1090 C1091 1.372 . S
C1091 C1090 1.372 . S
C1091 C1092 1.400 . S
C1091 C1096 1.490 . S
C1092 H1082 0.930 . S
C1092 C1091 1.400 . S
C1092 C1095 1.386 . S
H1093 C1109 0.930 1_556 S
H1094 C1110 0.931 . S
C1095 H1083 0.929 . S
C1095 C1089 1.390 . S
C1095 C1092 1.386 . S
C1096 C1091 1.490 . S
C1096 C1098 1.395 . S
C1096 C1099 1.403 . S
H1097 C1103 0.930 . S
C1098 H1084 0.930 . S
C1098 C1096 1.395 . S
C1098 C1101 1.403 . S
C1099 C1096 1.403 . S
C1099 C1100 1.524 . S
C1099 C1103 1.400 . S
C1100 H1085 0.960 . S
C1100 H1086 0.960 . S
C1100 H1087 0.960 . S
C1100 C1099 1.524 . S
C1101 C1098 1.403 . S
C1101 C1102 1.392 . S
C1101 C1105 1.495 . S
C1102 C1101 1.392 . S
C1102 C1103 1.385 . S
C1102 C1104 1.478 . S
C1103 H1097 0.930 . S
C1103 C1099 1.400 . S
C1103 C1102 1.385 . S
C1104 C1102 1.478 . S
C1104 C1106 1.381 . S
C1104 C1110 1.383 . S
C1105 C1101 1.495 . S
C1105 H1111 0.959 . S
C1105 H1112 0.961 . S
C1105 H1113 0.960 . S
C1106 C1104 1.381 . S
C1106 C1107 1.394 . S
C1106 H1114 0.930 . S
C1107 C1106 1.394 . S
C1107 C1108 1.383 . S
C1107 H1115 0.929 . S
C1108 C1107 1.383 . S
C1108 C1109 1.377 . S
C1109 H1093 0.930 1_554 S
C1109 C1108 1.377 . S
C1109 C1110 1.379 . S
C1110 H1094 0.931 . S
C1110 C1104 1.383 . S
C1110 C1109 1.379 . S
H1111 C1105 0.959 . S
H1112 C1105 0.961 . S
H1113 C1105 0.960 . S
H1114 C1106 0.930 . S
H1115 C1107 0.929 . S
H1116 C1124 0.929 . S
H1117 C1126 0.930 . S
H1118 C1128 0.930 . S
H1119 C1131 0.929 . S
H1120 C1134 0.930 . S
H1121 C1136 0.960 . S
H1122 C1136 0.960 . S
H1123 C1136 0.960 . S
C1124 H1116 0.929 . S
C1124 C1125 1.377 . S
C1124 C1126 1.384 . S
C1125 C1124 1.377 . S
C1125 C1131 1.390 . S
C1126 H1117 0.930 . S
C1126 C1124 1.384 . S
C1126 C1127 1.372 . S
C1127 C1126 1.372 . S
C1127 C1128 1.400 . S
C1127 C1132 1.490 . S
C1128 H1118 0.930 . S
C1128 C1127 1.400 . S
C1128 C1131 1.386 . S
H1129 C1145 0.930 . S
H1130 C1146 0.931 . S
C1131 H1119 0.929 . S
C1131 C1125 1.390 . S
C1131 C1128 1.386 . S
C1132 C1127 1.490 . S
C1132 C1134 1.395 . S
C1132 C1135 1.403 . S
H1133 C1139 0.930 . S
C1134 H1120 0.930 . S
C1134 C1132 1.395 . S
C1134 C1137 1.403 . S
C1135 C1132 1.403 . S
C1135 C1136 1.524 . S
C1135 C1139 1.400 . S
C1136 H1121 0.960 . S
C1136 H1122 0.960 . S
C1136 H1123 0.960 . S
C1136 C1135 1.524 . S
C1137 C1134 1.403 . S
C1137 C1138 1.392 . S
C1137 C1141 1.495 . S
C1138 C1137 1.392 . S
C1138 C1139 1.385 . S
C1138 C1140 1.478 . S
C1139 H1133 0.930 . S
C1139 C1135 1.400 . S
C1139 C1138 1.385 . S
C1140 C1138 1.478 . S
C1140 C1142 1.381 . S
C1140 C1146 1.383 . S
C1141 C1137 1.495 . S
C1141 H1147 0.959 . S
C1141 H1148 0.961 . S
C1141 H1149 0.960 . S
C1142 C1140 1.381 . S
C1142 C1143 1.394 . S
C1142 H1150 0.930 . S
C1143 C1142 1.394 . S
C1143 C1144 1.383 . S
C1143 H1151 0.929 1_554 S
C1144 C1143 1.383 . S
C1144 C1145 1.377 . S
C1145 H1129 0.930 . S
C1145 C1144 1.377 . S
C1145 C1146 1.379 . S
C1146 H1130 0.931 . S
C1146 C1140 1.383 . S
C1146 C1145 1.379 . S
H1147 C1141 0.959 . S
H1148 C1141 0.961 . S
H1149 C1141 0.960 . S
H1150 C1142 0.930 . S
H1151 C1143 0.929 1_556 S
H1152 C1160 0.929 . S
H1153 C1162 0.930 . S
H1154 C1164 0.930 . S
H1155 C1167 0.929 . S
H1156 C1170 0.930 . S
H1157 C1172 0.960 . S
H1158 C1172 0.960 . S
H1159 C1172 0.960 1_556 S
C1160 H1152 0.929 . S
C1160 C1161 1.377 . S
C1160 C1162 1.384 . S
C1161 C1160 1.377 . S
C1161 C1167 1.390 . S
C1162 H1153 0.930 . S
C1162 C1160 1.384 . S
C1162 C1163 1.372 . S
C1163 C1162 1.372 . S
C1163 C1164 1.400 . S
C1163 C1168 1.490 . S
C1164 H1154 0.930 . S
C1164 C1163 1.400 . S
C1164 C1167 1.386 . S
H1165 C1181 0.930 . S
H1166 C1182 0.931 . S
C1167 H1155 0.929 . S
C1167 C1161 1.390 . S
C1167 C1164 1.386 . S
C1168 C1163 1.490 . S
C1168 C1170 1.395 1_565 S
C1168 C1171 1.403 1_556 S
H1169 C1175 0.930 . S
C1170 H1156 0.930 . S
C1170 C1168 1.395 1_545 S
C1170 C1173 1.403 . S
C1171 C1168 1.403 1_554 S
C1171 C1172 1.524 . S
C1171 C1175 1.400 . S
C1172 H1157 0.960 . S
C1172 H1158 0.960 . S
C1172 H1159 0.960 1_554 S
C1172 C1171 1.524 . S
C1173 C1170 1.403 . S
C1173 C1174 1.392 1_556 S
C1173 C1177 1.495 . S
C1174 C1173 1.392 1_554 S
C1174 C1175 1.385 1_545 S
C1174 C1176 1.478 . S
C1175 H1169 0.930 . S
C1175 C1171 1.400 . S
C1175 C1174 1.385 1_565 S
C1176 C1174 1.478 . S
C1176 C1178 1.381 . S
C1176 C1182 1.383 . S
C1177 C1173 1.495 . S
C1177 H1183 0.959 . S
C1177 H1184 0.961 . S
C1177 H1185 0.960 1_556 S
C1178 C1176 1.381 . S
C1178 C1179 1.394 . S
C1178 H1186 0.930 . S
C1179 C1178 1.394 . S
C1179 C1180 1.383 . S
C1179 H1187 0.929 . S
C1180 C1179 1.383 . S
C1180 C1181 1.377 . S
C1181 H1165 0.930 . S
C1181 C1180 1.377 . S
C1181 C1182 1.379 . S
C1182 H1166 0.931 . S
C1182 C1176 1.383 . S
C1182 C1181 1.379 . S
H1183 C1177 0.959 . S
H1184 C1177 0.961 . S
H1185 C1177 0.960 1_554 S
H1186 C1178 0.930 . S
H1187 C1179 0.929 . S
H1188 C1196 0.929 . S
H1189 C1198 0.930 . S
H1190 C1200 0.930 . S
H1191 C1203 0.929 . S
H1192 C1206 0.930 . S
H1193 C1208 0.960 . S
H1194 C1208 0.960 1_655 S
H1195 C1208 0.960 . S
C1196 H1188 0.929 . S
C1196 C1197 1.377 . S
C1196 C1198 1.384 . S
C1197 C1196 1.377 . S
C1197 C1203 1.390 . S
C1198 H1189 0.930 . S
C1198 C1196 1.384 . S
C1198 C1199 1.372 . S
C1199 C1198 1.372 . S
C1199 C1200 1.400 . S
C1199 C1204 1.490 . S
C1200 H1190 0.930 . S
C1200 C1199 1.400 . S
C1200 C1203 1.386 . S
H1201 C1217 0.930 . S
H1202 C1218 0.931 . S
C1203 H1191 0.929 . S
C1203 C1197 1.390 . S
C1203 C1200 1.386 . S
C1204 C1199 1.490 . S
C1204 C1206 1.395 1_554 S
C1204 C1207 1.403 1_655 S
H1205 C1211 0.930 . S
C1206 H1192 0.930 . S
C1206 C1204 1.395 1_556 S
C1206 C1209 1.403 . S
C1207 C1204 1.403 1_455 S
C1207 C1208 1.524 . S
C1207 C1211 1.400 1_554 S
C1208 H1193 0.960 . S
C1208 H1194 0.960 1_455 S
C1208 H1195 0.960 . S
C1208 C1207 1.524 . S
C1209 C1206 1.403 . S
C1209 C1210 1.392 1_655 S
C1209 C1213 1.495 . S
C1210 C1209 1.392 1_455 S
C1210 C1211 1.385 . S
C1210 C1212 1.478 . S
C1211 H1205 0.930 . S
C1211 C1207 1.400 1_556 S
C1211 C1210 1.385 . S
C1212 C1210 1.478 . S
C1212 C1214 1.381 . S
C1212 C1218 1.383 . S
C1213 C1209 1.495 . S
C1213 H1219 0.959 . S
C1213 H1220 0.968 . S
C1213 H1221 0.960 . S
C1214 C1212 1.381 . S
C1214 C1215 1.394 . S
C1214 H1222 0.930 . S
C1215 C1214 1.394 . S
C1215 C1216 1.383 . S
C1215 H1223 0.929 . S
C1216 C1215 1.383 . S
C1216 C1217 1.377 . S
C1217 H1201 0.930 . S
C1217 C1216 1.377 . S
C1217 C1218 1.379 . S
C1218 H1202 0.931 . S
C1218 C1212 1.383 . S
C1218 C1217 1.379 . S
H1219 C1213 0.959 . S
H1220 C1213 0.968 . S
H1221 C1213 0.960 . S
H1222 C1214 0.930 . S
H1223 C1215 0.929 . S
H1224 C1232 0.929 . S
H1225 C1234 0.930 . S
H1226 C1236 0.930 . S
H1227 C1239 0.929 . S
H1228 C1242 0.930 . S
H1229 C1244 0.960 . S
H1230 C1244 0.960 . S
H1231 C1244 0.960 . S
C1232 H1224 0.929 . S
C1232 C1233 1.377 . S
C1232 C1234 1.384 . S
C1233 C1232 1.377 . S
C1233 C1239 1.390 . S
C1234 H1225 0.930 . S
C1234 C1232 1.384 . S
C1234 C1235 1.372 . S
C1235 C1234 1.372 . S
C1235 C1236 1.400 . S
C1235 C1240 1.490 . S
C1236 H1226 0.930 . S
C1236 C1235 1.400 . S
C1236 C1239 1.386 . S
H1237 C1253 0.930 . S
H1238 C1254 0.931 . S
C1239 H1227 0.929 . S
C1239 C1233 1.390 . S
C1239 C1236 1.386 . S
C1240 C1235 1.490 . S
C1240 C1242 1.395 . S
C1240 C1243 1.403 . S
H1241 C1247 0.930 . S
C1242 H1228 0.930 . S
C1242 C1240 1.395 . S
C1242 C1245 1.403 1_556 S
C1243 C1240 1.403 . S
C1243 C1244 1.524 . S
C1243 C1247 1.400 1_556 S
C1244 H1229 0.960 . S
C1244 H1230 0.960 . S
C1244 H1231 0.960 . S
C1244 C1243 1.524 . S
C1245 C1242 1.403 1_554 S
C1245 C1246 1.392 . S
C1245 C1249 1.495 . S
C1246 C1245 1.392 . S
C1246 C1247 1.385 . S
C1246 C1248 1.478 . S
C1247 H1241 0.930 . S
C1247 C1243 1.400 1_554 S
C1247 C1246 1.385 . S
C1248 C1246 1.478 . S
C1248 C1250 1.381 . S
C1248 C1254 1.383 . S
C1249 C1245 1.495 . S
C1249 H1255 0.959 . S
C1249 H1256 0.961 . S
C1249 H1257 0.960 . S
C1250 C1248 1.381 . S
C1250 C1251 1.394 . S
C1250 H1258 0.930 . S
C1251 C1250 1.394 . S
C1251 C1252 1.383 . S
C1251 H1259 0.929 . S
C1252 C1251 1.383 . S
C1252 C1253 1.377 . S
C1253 H1237 0.930 . S
C1253 C1252 1.377 . S
C1253 C1254 1.379 . S
C1254 H1238 0.931 . S
C1254 C1248 1.383 . S
C1254 C1253 1.379 . S
H1255 C1249 0.959 . S
H1256 C1249 0.961 . S
H1257 C1249 0.960 . S
H1258 C1250 0.930 . S
H1259 C1251 0.929 . S
H1260 C1268 0.929 . S
H1261 C1270 0.930 . S
H1262 C1272 0.930 . S
H1263 C1275 0.929 . S
H1264 C1278 0.930 . S
H1265 C1280 0.960 . S
H1266 C1280 0.960 . S
H1267 C1280 0.960 1_565 S
C1268 H1260 0.929 . S
C1268 C1269 1.377 . S
C1268 C1270 1.384 . S
C1269 C1268 1.377 . S
C1269 C1275 1.390 . S
C1270 H1261 0.930 . S
C1270 C1268 1.384 . S
C1270 C1271 1.372 . S
C1271 C1270 1.372 . S
C1271 C1272 1.400 . S
C1271 C1276 1.490 . S
C1272 H1262 0.930 . S
C1272 C1271 1.400 . S
C1272 C1275 1.386 . S
H1273 C1289 0.930 . S
H1274 C1290 0.931 . S
C1275 H1263 0.929 . S
C1275 C1269 1.390 . S
C1275 C1272 1.386 . S
C1276 C1271 1.490 . S
C1276 C1278 1.395 . S
C1276 C1279 1.382 1_565 S
H1277 C1283 0.930 . S
C1278 H1264 0.930 . S
C1278 C1276 1.395 . S
C1278 C1281 1.403 1_556 S
C1279 C1276 1.382 1_545 S
C1279 C1280 1.501 . S
C1279 C1283 1.458 1_556 S
C1280 H1265 0.960 . S
C1280 H1266 0.960 . S
C1280 H1267 0.960 1_545 S
C1280 C1279 1.501 . S
C1281 C1278 1.403 1_554 S
C1281 C1282 1.392 1_565 S
C1281 C1285 1.495 . S
C1282 C1281 1.392 1_545 S
C1282 C1283 1.385 . S
C1282 C1284 1.478 . S
C1283 H1277 0.930 . S
C1283 C1279 1.458 1_554 S
C1283 C1282 1.385 . S
C1284 C1282 1.478 . S
C1284 C1286 1.381 . S
C1284 C1290 1.383 . S
C1285 C1281 1.495 . S
C1285 H1291 0.959 . S
C1285 H1292 0.961 . S
C1285 H1293 0.960 1_565 S
C1286 C1284 1.381 . S
C1286 C1287 1.394 . S
C1286 H1294 0.930 . S
C1287 C1286 1.394 . S
C1287 C1288 1.383 . S
C1287 H1295 0.929 . S
C1288 C1287 1.383 . S
C1288 C1289 1.377 . S
C1289 H1273 0.930 . S
C1289 C1288 1.377 . S
C1289 C1290 1.379 . S
C1290 H1274 0.931 . S
C1290 C1284 1.383 . S
C1290 C1289 1.379 . S
H1291 C1285 0.959 . S
H1292 C1285 0.961 . S
H1293 C1285 0.960 1_545 S
H1294 C1286 0.930 . S
H1295 C1287 0.929 . S
H1296 C1304 0.929 . S
H1297 C1306 0.930 . S
H1298 C1308 0.930 . S
H1299 C1311 0.929 . S
H1300 C1314 0.930 . S
H1301 C1316 0.960 1_655 S
H1302 C1316 0.948 1_655 S
H1303 C1316 0.960 . S
C1304 H1296 0.929 . S
C1304 C1305 1.377 . S
C1304 C1306 1.384 . S
C1305 C1304 1.377 . S
C1305 C1311 1.390 . S
C1306 H1297 0.930 . S
C1306 C1304 1.384 . S
C1306 C1307 1.372 . S
C1307 C1306 1.372 . S
C1307 C1308 1.400 . S
C1307 C1312 1.490 . S
C1308 H1298 0.930 . S
C1308 C1307 1.400 . S
C1308 C1311 1.386 . S
H1309 C1325 0.930 . S
H1310 C1326 0.931 . S
C1311 H1299 0.929 . S
C1311 C1305 1.390 . S
C1311 C1308 1.386 . S
C1312 C1307 1.490 . S
C1312 C1314 1.395 . S
C1312 C1315 1.403 . S
H1313 C1319 0.930 . S
C1314 H1300 0.930 . S
C1314 C1312 1.395 . S
C1314 C1317 1.403 1_456 S
C1315 C1312 1.403 . S
C1315 C1316 1.524 . S
C1315 C1319 1.400 1_456 S
C1316 H1301 0.960 1_455 S
C1316 H1302 0.948 1_455 S
C1316 H1303 0.960 . S
C1316 C1315 1.524 . S
C1317 C1314 1.403 1_654 S
C1317 C1318 1.392 . S
C1317 C1321 1.495 . S
C1318 C1317 1.392 . S
C1318 C1319 1.385 . S
C1318 C1320 1.478 . S
C1319 H1313 0.930 . S
C1319 C1315 1.400 1_654 S
C1319 C1318 1.385 . S
C1320 C1318 1.478 . S
C1320 C1322 1.381 . S
C1320 C1326 1.383 . S
C1321 C1317 1.495 . S
C1321 H1327 0.959 1_655 S
C1321 H1328 0.980 . S
C1321 H1329 0.960 . S
C1322 C1320 1.381 . S
C1322 C1323 1.394 . S
C1322 H1330 0.930 . S
C1323 C1322 1.394 . S
C1323 C1324 1.383 . S
C1323 H1331 0.929 . S
C1324 C1323 1.383 . S
C1324 C1325 1.377 . S
C1325 H1309 0.930 . S
C1325 C1324 1.377 . S
C1325 C1326 1.379 . S
C1326 H1310 0.931 . S
C1326 C1320 1.383 . S
C1326 C1325 1.379 . S
H1327 C1321 0.959 1_455 S
H1328 C1321 0.980 . S
H1329 C1321 0.960 . S
H1330 C1322 0.930 . S
H1331 C1323 0.929 . S
H1332 C1340 0.929 . S
H1333 C1342 0.930 . S
H1334 C1344 0.930 . S
H1335 C1347 0.929 . S
H1336 C1350 0.930 . S
H1337 C1352 0.960 . S
H1338 C1352 0.960 1_554 S
H1339 C1352 0.960 . S
C1340 H1332 0.929 . S
C1340 C1341 1.377 . S
C1340 C1342 1.384 . S
C1341 C1340 1.377 . S
C1341 C1347 1.390 . S
C1342 H1333 0.930 . S
C1342 C1340 1.384 . S
C1342 C1343 1.372 . S
C1343 C1342 1.372 . S
C1343 C1344 1.400 . S
C1343 C1348 1.490 . S
C1344 H1334 0.930 . S
C1344 C1343 1.400 . S
C1344 C1347 1.386 . S
H1345 C1361 0.930 . S
H1346 C1362 0.931 . S
C1347 H1335 0.929 . S
C1347 C1341 1.390 . S
C1347 C1344 1.386 . S
C1348 C1343 1.490 . S
C1348 C1350 1.395 . S
C1348 C1351 1.403 1_554 S
H1349 C1355 0.930 . S
C1350 H1336 0.930 . S
C1350 C1348 1.395 . S
C1350 C1353 1.403 . S
C1351 C1348 1.403 1_556 S
C1351 C1352 1.524 . S
C1351 C1355 1.400 . S
C1352 H1337 0.960 . S
C1352 H1338 0.960 1_556 S
C1352 H1339 0.960 . S
C1352 C1351 1.524 . S
C1353 C1350 1.403 . S
C1353 C1354 1.392 1_554 S
C1353 C1357 1.495 . S
C1354 C1353 1.392 1_556 S
C1354 C1355 1.385 . S
C1354 C1356 1.478 . S
C1355 H1349 0.930 . S
C1355 C1351 1.400 . S
C1355 C1354 1.385 . S
C1356 C1354 1.478 . S
C1356 C1358 1.381 . S
C1356 C1362 1.383 . S
C1357 C1353 1.495 . S
C1357 H1363 0.959 . S
C1357 H1364 0.961 . S
C1357 H1365 0.960 . S
C1358 C1356 1.381 . S
C1358 C1359 1.394 . S
C1358 H1366 0.930 . S
C1359 C1358 1.394 . S
C1359 C1360 1.383 . S
C1359 H1367 0.929 . S
C1360 C1359 1.383 . S
C1360 C1361 1.377 . S
C1361 H1345 0.930 . S
C1361 C1360 1.377 . S
C1361 C1362 1.379 . S
C1362 H1346 0.931 . S
C1362 C1356 1.383 . S
C1362 C1361 1.379 . S
H1363 C1357 0.959 . S
H1364 C1357 0.961 . S
H1365 C1357 0.960 . S
H1366 C1358 0.930 . S
H1367 C1359 0.929 . S
H1368 C1376 0.929 . S
H1369 C1378 0.930 . S
H1370 C1380 0.930 . S
H1371 C1383 0.929 . S
H1372 C1386 0.930 . S
H1373 C1388 0.960 . S
H1374 C1388 0.960 . S
H1375 C1388 0.960 . S
C1376 H1368 0.929 . S
C1376 C1377 1.377 . S
C1376 C1378 1.384 . S
C1377 C1376 1.377 . S
C1377 C1383 1.390 . S
C1378 H1369 0.930 . S
C1378 C1376 1.384 . S
C1378 C1379 1.372 . S
C1379 C1378 1.372 . S
C1379 C1380 1.400 . S
C1379 C1384 1.490 . S
C1380 H1370 0.930 . S
C1380 C1379 1.400 . S
C1380 C1383 1.386 . S
H1381 C1397 0.930 . S
H1382 C1398 0.931 . S
C1383 H1371 0.929 . S
C1383 C1377 1.390 . S
C1383 C1380 1.386 . S
C1384 C1379 1.490 . S
C1384 C1386 1.395 . S
C1384 C1387 1.403 . S
H1385 C1391 0.930 . S
C1386 H1372 0.930 . S
C1386 C1384 1.395 . S
C1386 C1389 1.403 . S
C1387 C1384 1.403 . S
C1387 C1388 1.524 . S
C1387 C1391 1.400 . S
C1388 H1373 0.960 . S
C1388 H1374 0.960 . S
C1388 H1375 0.960 . S
C1388 C1387 1.524 . S
C1389 C1386 1.403 . S
C1389 C1390 1.392 . S
C1389 C1393 1.495 . S
C1390 C1389 1.392 . S
C1390 C1391 1.385 . S
C1390 C1392 1.478 . S
C1391 H1385 0.930 . S
C1391 C1387 1.400 . S
C1391 C1390 1.385 . S
C1392 C1390 1.478 . S
C1392 C1394 1.381 . S
C1392 C1398 1.383 . S
C1393 C1389 1.495 . S
C1393 H1399 0.959 . S
C1393 H1400 0.961 . S
C1393 H1401 0.960 . S
C1394 C1392 1.381 . S
C1394 C1395 1.394 . S
C1394 H1402 0.930 . S
C1395 C1394 1.394 . S
C1395 C1396 1.383 . S
C1395 H1403 0.929 . S
C1396 C1395 1.383 . S
C1396 C1397 1.377 . S
C1397 H1381 0.930 . S
C1397 C1396 1.377 . S
C1397 C1398 1.379 . S
C1398 H1382 0.931 . S
C1398 C1392 1.383 . S
C1398 C1397 1.379 . S
H1399 C1393 0.959 . S
H1400 C1393 0.961 . S
H1401 C1393 0.960 . S
H1402 C1394 0.930 . S
H1403 C1395 0.929 . S
H1404 C1412 0.929 . S
H1405 C1414 0.930 . S
H1406 C1416 0.930 . S
H1407 C1419 0.929 . S
H1408 C1422 0.930 . S
H1409 C1424 0.960 . S
H1410 C1424 0.960 . S
H1411 C1424 0.960 . S
C1412 H1404 0.929 . S
C1412 C1413 1.377 . S
C1412 C1414 1.384 . S
C1413 C1412 1.377 . S
C1413 C1419 1.390 . S
C1414 H1405 0.930 . S
C1414 C1412 1.384 . S
C1414 C1415 1.372 . S
C1415 C1414 1.372 . S
C1415 C1416 1.400 . S
C1415 C1420 1.490 . S
C1416 H1406 0.930 . S
C1416 C1415 1.400 . S
C1416 C1419 1.386 . S
H1417 C1433 0.930 . S
H1418 C1434 0.931 . S
C1419 H1407 0.929 . S
C1419 C1413 1.390 . S
C1419 C1416 1.386 . S
C1420 C1415 1.490 . S
C1420 C1422 1.395 . S
C1420 C1423 1.403 . S
H1421 C1427 0.930 . S
C1422 H1408 0.930 . S
C1422 C1420 1.395 . S
C1422 C1425 1.403 . S
C1423 C1420 1.403 . S
C1423 C1424 1.524 . S
C1423 C1427 1.400 . S
C1424 H1409 0.960 . S
C1424 H1410 0.960 . S
C1424 H1411 0.960 . S
C1424 C1423 1.524 . S
C1425 C1422 1.403 . S
C1425 C1426 1.392 . S
C1425 C1429 1.495 . S
C1426 C1425 1.392 . S
C1426 C1427 1.385 . S
C1426 C1428 1.478 . S
C1427 H1421 0.930 . S
C1427 C1423 1.400 . S
C1427 C1426 1.385 . S
C1428 C1426 1.478 . S
C1428 C1430 1.381 . S
C1428 C1434 1.383 . S
C1429 C1425 1.495 . S
C1429 H1435 0.959 . S
C1429 H1436 0.961 . S
C1429 H1437 0.960 . S
C1430 C1428 1.381 . S
C1430 C1431 1.394 . S
C1430 H1438 0.930 . S
C1431 C1430 1.394 . S
C1431 C1432 1.383 . S
C1431 H1439 0.929 . S
C1432 C1431 1.383 . S
C1432 C1433 1.377 . S
C1433 H1417 0.930 . S
C1433 C1432 1.377 . S
C1433 C1434 1.379 . S
C1434 H1418 0.931 . S
C1434 C1428 1.383 . S
C1434 C1433 1.379 . S
H1435 C1429 0.959 . S
H1436 C1429 0.961 . S
H1437 C1429 0.960 . S
H1438 C1430 0.930 . S
H1439 C1431 0.929 . S
H1440 C1448 0.929 . S
H1441 C1450 0.930 . S
H1442 C1452 0.930 . S
H1443 C1455 0.929 . S
H1444 C1458 0.930 . S
H1445 C1460 0.960 . S
H1446 C1460 0.960 . S
H1447 C1460 0.960 . S
C1448 H1440 0.929 . S
C1448 C1449 1.377 . S
C1448 C1450 1.384 . S
C1449 C1448 1.377 . S
C1449 C1455 1.390 . S
C1450 H1441 0.930 . S
C1450 C1448 1.384 . S
C1450 C1451 1.372 . S
C1451 C1450 1.372 . S
C1451 C1452 1.400 . S
C1451 C1456 1.490 . S
C1452 H1442 0.930 . S
C1452 C1451 1.400 . S
C1452 C1455 1.386 . S
H1453 C1469 0.930 . S
H1454 C1470 0.931 . S
C1455 H1443 0.929 . S
C1455 C1449 1.390 . S
C1455 C1452 1.386 . S
C1456 C1451 1.490 . S
C1456 C1458 1.395 . S
C1456 C1459 1.403 . S
H1457 C1463 0.930 . S
C1458 H1444 0.930 . S
C1458 C1456 1.395 . S
C1458 C1461 1.403 . S
C1459 C1456 1.403 . S
C1459 C1460 1.524 . S
C1459 C1463 1.400 . S
C1460 H1445 0.960 . S
C1460 H1446 0.960 . S
C1460 H1447 0.960 . S
C1460 C1459 1.524 . S
C1461 C1458 1.403 . S
C1461 C1462 1.392 . S
C1461 C1465 1.495 . S
C1462 C1461 1.392 . S
C1462 C1463 1.385 . S
C1462 C1464 1.478 . S
C1463 H1457 0.930 . S
C1463 C1459 1.400 . S
C1463 C1462 1.385 . S
C1464 C1462 1.478 . S
C1464 C1466 1.381 . S
C1464 C1470 1.383 . S
C1465 C1461 1.495 . S
C1465 H1471 0.959 . S
C1465 H1472 0.961 . S
C1465 H1473 0.960 . S
C1466 C1464 1.381 . S
C1466 C1467 1.394 . S
C1466 H1474 0.930 . S
C1467 C1466 1.394 . S
C1467 C1468 1.383 . S
C1467 H1475 0.929 . S
C1468 C1467 1.383 . S
C1468 C1469 1.377 . S
C1469 H1453 0.930 . S
C1469 C1468 1.377 . S
C1469 C1470 1.379 . S
C1470 H1454 0.931 . S
C1470 C1464 1.383 . S
C1470 C1469 1.379 . S
H1471 C1465 0.959 . S
H1472 C1465 0.961 . S
H1473 C1465 0.960 . S
H1474 C1466 0.930 . S
H1475 C1467 0.929 . S
H1476 C1484 0.929 . S
H1477 C1486 0.930 . S
H1478 C1488 0.930 . S
H1479 C1491 0.929 . S
H1480 C1494 0.930 . S
H1481 C1496 0.960 . S
H1482 C1496 0.960 . S
H1483 C1496 0.960 . S
C1484 H1476 0.929 . S
C1484 C1485 1.377 . S
C1484 C1486 1.384 . S
C1485 C1484 1.377 . S
C1485 C1491 1.390 . S
C1486 H1477 0.930 . S
C1486 C1484 1.384 . S
C1486 C1487 1.372 . S
C1487 C1486 1.372 . S
C1487 C1488 1.400 . S
C1487 C1492 1.490 . S
C1488 H1478 0.930 . S
C1488 C1487 1.400 . S
C1488 C1491 1.386 . S
H1489 C1505 0.930 . S
H1490 C1506 0.931 . S
C1491 H1479 0.929 . S
C1491 C1485 1.390 . S
C1491 C1488 1.386 . S
C1492 C1487 1.490 . S
C1492 C1494 1.395 . S
C1492 C1495 1.403 . S
H1493 C1499 0.930 . S
C1494 H1480 0.930 . S
C1494 C1492 1.395 . S
C1494 C1497 1.403 . S
C1495 C1492 1.403 . S
C1495 C1496 1.524 . S
C1495 C1499 1.400 . S
C1496 H1481 0.960 . S
C1496 H1482 0.960 . S
C1496 H1483 0.960 . S
C1496 C1495 1.524 . S
C1497 C1494 1.403 . S
C1497 C1498 1.392 . S
C1497 C1501 1.495 . S
C1498 C1497 1.392 . S
C1498 C1499 1.385 . S
C1498 C1500 1.478 . S
C1499 H1493 0.930 . S
C1499 C1495 1.400 . S
C1499 C1498 1.385 . S
C1500 C1498 1.478 . S
C1500 C1502 1.381 . S
C1500 C1506 1.383 . S
C1501 C1497 1.495 . S
C1501 H1507 0.959 . S
C1501 H1508 0.961 . S
C1501 H1509 0.960 . S
C1502 C1500 1.381 . S
C1502 C1503 1.394 . S
C1502 H1510 0.930 . S
C1503 C1502 1.394 . S
C1503 C1504 1.383 . S
C1503 H1511 0.929 . S
C1504 C1503 1.383 . S
C1504 C1505 1.377 . S
C1505 H1489 0.930 . S
C1505 C1504 1.377 . S
C1505 C1506 1.379 . S
C1506 H1490 0.931 . S
C1506 C1500 1.383 . S
C1506 C1505 1.379 . S
H1507 C1501 0.959 . S
H1508 C1501 0.961 . S
H1509 C1501 0.960 . S
H1510 C1502 0.930 . S
H1511 C1503 0.929 . S
H1512 C1520 0.929 . S
H1513 C1522 0.930 . S
H1514 C1524 0.930 . S
H1515 C1527 0.929 . S
H1516 C1530 0.930 . S
H1517 C1532 0.960 . S
H1518 C1532 0.960 . S
H1519 C1532 0.960 . S
C1520 H1512 0.929 . S
C1520 C1521 1.377 . S
C1520 C1522 1.384 . S
C1521 C1520 1.377 . S
C1521 C1527 1.390 . S
C1522 H1513 0.930 . S
C1522 C1520 1.384 . S
C1522 C1523 1.372 . S
C1523 C1522 1.372 . S
C1523 C1524 1.400 . S
C1523 C1528 1.490 . S
C1524 H1514 0.930 . S
C1524 C1523 1.400 . S
C1524 C1527 1.386 . S
H1525 C1541 0.930 . S
H1526 C1542 0.931 . S
C1527 H1515 0.929 . S
C1527 C1521 1.390 . S
C1527 C1524 1.386 . S
C1528 C1523 1.490 . S
C1528 C1530 1.395 . S
C1528 C1531 1.403 . S
H1529 C1535 0.930 . S
C1530 H1516 0.930 . S
C1530 C1528 1.395 . S
C1530 C1533 1.403 . S
C1531 C1528 1.403 . S
C1531 C1532 1.524 . S
C1531 C1535 1.400 . S
C1532 H1517 0.960 . S
C1532 H1518 0.960 . S
C1532 H1519 0.960 . S
C1532 C1531 1.524 . S
C1533 C1530 1.403 . S
C1533 C1534 1.392 . S
C1533 C1537 1.495 . S
C1534 C1533 1.392 . S
C1534 C1535 1.385 . S
C1534 C1536 1.478 . S
C1535 H1529 0.930 . S
C1535 C1531 1.400 . S
C1535 C1534 1.385 . S
C1536 C1534 1.478 . S
C1536 C1538 1.381 . S
C1536 C1542 1.383 . S
C1537 C1533 1.495 . S
C1537 H1543 0.959 . S
C1537 H1544 0.961 . S
C1537 H1545 0.960 . S
C1538 C1536 1.381 . S
C1538 C1539 1.394 . S
C1538 H1546 0.930 . S
C1539 C1538 1.394 . S
C1539 C1540 1.383 . S
C1539 H1547 0.929 . S
C1540 C1539 1.383 . S
C1540 C1541 1.377 . S
C1541 H1525 0.930 . S
C1541 C1540 1.377 . S
C1541 C1542 1.379 . S
C1542 H1526 0.931 . S
C1542 C1536 1.383 . S
C1542 C1541 1.379 . S
H1543 C1537 0.959 . S
H1544 C1537 0.961 . S
H1545 C1537 0.960 . S
H1546 C1538 0.930 . S
H1547 C1539 0.929 . S
H1548 C1556 0.929 . S
H1549 C1558 0.930 . S
H1550 C1560 0.930 . S
H1551 C1563 0.929 . S
H1552 C1566 0.930 . S
H1553 C1568 0.960 . S
H1554 C1568 0.960 . S
H1555 C1568 0.960 . S
C1556 H1548 0.929 . S
C1556 C1557 1.377 . S
C1556 C1558 1.384 . S
C1557 C1556 1.377 . S
C1557 C1563 1.390 . S
C1558 H1549 0.930 . S
C1558 C1556 1.384 . S
C1558 C1559 1.372 . S
C1559 C1558 1.372 . S
C1559 C1560 1.400 . S
C1559 C1564 1.490 . S
C1560 H1550 0.930 . S
C1560 C1559 1.400 . S
C1560 C1563 1.386 . S
H1561 C1577 0.930 . S
H1562 C1578 0.931 . S
C1563 H1551 0.929 . S
C1563 C1557 1.390 . S
C1563 C1560 1.386 . S
C1564 C1559 1.490 . S
C1564 C1566 1.395 . S
C1564 C1567 1.403 . S
H1565 C1571 0.930 . S
C1566 H1552 0.930 . S
C1566 C1564 1.395 . S
C1566 C1569 1.403 . S
C1567 C1564 1.403 . S
C1567 C1568 1.524 . S
C1567 C1571 1.400 . S
C1568 H1553 0.960 . S
C1568 H1554 0.960 . S
C1568 H1555 0.960 . S
C1568 C1567 1.524 . S
C1569 C1566 1.403 . S
C1569 C1570 1.392 . S
C1569 C1573 1.495 . S
C1570 C1569 1.392 . S
C1570 C1571 1.385 . S
C1570 C1572 1.478 . S
C1571 H1565 0.930 . S
C1571 C1567 1.400 . S
C1571 C1570 1.385 . S
C1572 C1570 1.478 . S
C1572 C1574 1.381 . S
C1572 C1578 1.383 . S
C1573 C1569 1.495 . S
C1573 H1579 0.959 . S
C1573 H1580 0.961 . S
C1573 H1581 0.960 . S
C1574 C1572 1.381 . S
C1574 C1575 1.394 . S
C1574 H1582 0.930 . S
C1575 C1574 1.394 . S
C1575 C1576 1.383 . S
C1575 H1583 0.929 . S
C1576 C1575 1.383 . S
C1576 C1577 1.377 . S
C1577 H1561 0.930 . S
C1577 C1576 1.377 . S
C1577 C1578 1.379 . S
C1578 H1562 0.931 . S
C1578 C1572 1.383 . S
C1578 C1577 1.379 . S
H1579 C1573 0.959 . S
H1580 C1573 0.961 . S
H1581 C1573 0.960 . S
H1582 C1574 0.930 . S
H1583 C1575 0.929 . S
H1584 C1592 0.929 . S
H1585 C1594 0.930 . S
H1586 C1596 0.930 . S
H1587 C1599 0.929 . S
H1588 C1602 0.930 . S
H1589 C1604 0.960 . S
H1590 C1604 0.960 . S
H1591 C1604 0.960 . S
C1592 H1584 0.929 . S
C1592 C1593 1.377 . S
C1592 C1594 1.384 . S
C1593 C1592 1.377 . S
C1593 C1599 1.390 . S
C1594 H1585 0.930 . S
C1594 C1592 1.384 . S
C1594 C1595 1.372 . S
C1595 C1594 1.372 . S
C1595 C1596 1.400 . S
C1595 C1600 1.490 . S
C1596 H1586 0.930 . S
C1596 C1595 1.400 . S
C1596 C1599 1.386 . S
H1597 C1613 0.930 . S
H1598 C1614 0.931 . S
C1599 H1587 0.929 . S
C1599 C1593 1.390 . S
C1599 C1596 1.386 . S
C1600 C1595 1.490 . S
C1600 C1602 1.395 . S
C1600 C1603 1.403 . S
H1601 C1607 0.930 . S
C1602 H1588 0.930 . S
C1602 C1600 1.395 . S
C1602 C1605 1.403 . S
C1603 C1600 1.403 . S
C1603 C1604 1.524 . S
C1603 C1607 1.400 . S
C1604 H1589 0.960 . S
C1604 H1590 0.960 . S
C1604 H1591 0.960 . S
C1604 C1603 1.524 . S
C1605 C1602 1.403 . S
C1605 C1606 1.392 . S
C1605 C1609 1.495 . S
C1606 C1605 1.392 . S
C1606 C1607 1.385 . S
C1606 C1608 1.478 . S
C1607 H1601 0.930 . S
C1607 C1603 1.400 . S
C1607 C1606 1.385 . S
C1608 C1606 1.478 . S
C1608 C1610 1.381 . S
C1608 C1614 1.383 . S
C1609 C1605 1.495 . S
C1609 H1615 0.959 . S
C1609 H1616 0.961 . S
C1609 H1617 0.960 . S
C1610 C1608 1.381 . S
C1610 C1611 1.394 . S
C1610 H1618 0.930 . S
C1611 C1610 1.394 . S
C1611 C1612 1.383 . S
C1611 H1619 0.929 . S
C1612 C1611 1.383 . S
C1612 C1613 1.377 . S
C1613 H1597 0.930 . S
C1613 C1612 1.377 . S
C1613 C1614 1.379 . S
C1614 H1598 0.931 . S
C1614 C1608 1.383 . S
C1614 C1613 1.379 . S
H1615 C1609 0.959 . S
H1616 C1609 0.961 . S
H1617 C1609 0.960 . S
H1618 C1610 0.930 . S
H1619 C1611 0.929 . S
H1620 C1628 0.929 . S
H1621 C1630 0.930 . S
H1622 C1632 0.930 . S
H1623 C1635 0.929 . S
H1624 C1638 0.930 . S
H1625 C1640 0.960 . S
H1626 C1640 0.960 . S
H1627 C1640 0.960 . S
C1628 H1620 0.929 . S
C1628 C1629 1.377 . S
C1628 C1630 1.384 . S
C1629 C1628 1.377 . S
C1629 C1635 1.390 . S
C1630 H1621 0.930 . S
C1630 C1628 1.384 . S
C1630 C1631 1.372 . S
C1631 C1630 1.372 . S
C1631 C1632 1.400 . S
C1631 C1636 1.490 . S
C1632 H1622 0.930 . S
C1632 C1631 1.400 . S
C1632 C1635 1.386 . S
H1633 C1649 0.930 . S
H1634 C1650 0.931 . S
C1635 H1623 0.929 . S
C1635 C1629 1.390 . S
C1635 C1632 1.386 . S
C1636 C1631 1.490 . S
C1636 C1638 1.395 . S
C1636 C1639 1.403 . S
H1637 C1643 0.930 . S
C1638 H1624 0.930 . S
C1638 C1636 1.395 . S
C1638 C1641 1.403 . S
C1639 C1636 1.403 . S
C1639 C1640 1.524 . S
C1639 C1643 1.400 . S
C1640 H1625 0.960 . S
C1640 H1626 0.960 . S
C1640 H1627 0.960 . S
C1640 C1639 1.524 . S
C1641 C1638 1.403 . S
C1641 C1642 1.392 . S
C1641 C1645 1.495 . S
C1642 C1641 1.392 . S
C1642 C1643 1.385 . S
C1642 C1644 1.478 . S
C1643 H1637 0.930 . S
C1643 C1639 1.400 . S
C1643 C1642 1.385 . S
C1644 C1642 1.478 . S
C1644 C1646 1.381 . S
C1644 C1650 1.383 . S
C1645 C1641 1.495 . S
C1645 H1651 0.959 . S
C1645 H1652 0.961 . S
C1645 H1653 0.960 . S
C1646 C1644 1.381 . S
C1646 C1647 1.394 . S
C1646 H1654 0.930 . S
C1647 C1646 1.394 . S
C1647 C1648 1.383 . S
C1647 H1655 0.929 . S
C1648 C1647 1.383 . S
C1648 C1649 1.377 . S
C1649 H1633 0.930 . S
C1649 C1648 1.377 . S
C1649 C1650 1.379 . S
C1650 H1634 0.931 . S
C1650 C1644 1.383 . S
C1650 C1649 1.379 . S
H1651 C1645 0.959 . S
H1652 C1645 0.961 . S
H1653 C1645 0.960 . S
H1654 C1646 0.930 . S
H1655 C1647 0.929 . S
H1656 C1664 0.929 . S
H1657 C1666 0.930 . S
H1658 C1668 0.930 . S
H1659 C1671 0.929 . S
H1660 C1674 0.930 . S
H1661 C1676 0.960 . S
H1662 C1676 0.960 . S
H1663 C1676 0.960 . S
C1664 H1656 0.929 . S
C1664 C1665 1.377 . S
C1664 C1666 1.384 . S
C1665 C1664 1.377 . S
C1665 C1671 1.390 . S
C1666 H1657 0.930 . S
C1666 C1664 1.384 . S
C1666 C1667 1.372 . S
C1667 C1666 1.372 . S
C1667 C1668 1.400 . S
C1667 C1672 1.490 . S
C1668 H1658 0.930 . S
C1668 C1667 1.400 . S
C1668 C1671 1.386 . S
H1669 C1685 0.930 . S
H1670 C1686 0.931 . S
C1671 H1659 0.929 . S
C1671 C1665 1.390 . S
C1671 C1668 1.386 . S
C1672 C1667 1.490 . S
C1672 C1674 1.395 . S
C1672 C1675 1.403 . S
H1673 C1679 0.930 . S
C1674 H1660 0.930 . S
C1674 C1672 1.395 . S
C1674 C1677 1.403 . S
C1675 C1672 1.403 . S
C1675 C1676 1.524 . S
C1675 C1679 1.400 . S
C1676 H1661 0.960 . S
C1676 H1662 0.960 . S
C1676 H1663 0.960 . S
C1676 C1675 1.524 . S
C1677 C1674 1.403 . S
C1677 C1678 1.392 . S
C1677 C1681 1.495 . S
C1678 C1677 1.392 . S
C1678 C1679 1.385 . S
C1678 C1680 1.478 . S
C1679 H1673 0.930 . S
C1679 C1675 1.400 . S
C1679 C1678 1.385 . S
C1680 C1678 1.478 . S
C1680 C1682 1.381 . S
C1680 C1686 1.383 . S
C1681 C1677 1.495 . S
C1681 H1687 0.959 . S
C1681 H1688 0.961 . S
C1681 H1689 0.960 . S
C1682 C1680 1.381 . S
C1682 C1683 1.394 . S
C1682 H1690 0.930 . S
C1683 C1682 1.394 . S
C1683 C1684 1.383 . S
C1683 H1691 0.929 . S
C1684 C1683 1.383 . S
C1684 C1685 1.377 . S
C1685 H1669 0.930 . S
C1685 C1684 1.377 . S
C1685 C1686 1.379 . S
C1686 H1670 0.931 . S
C1686 C1680 1.383 . S
C1686 C1685 1.379 . S
H1687 C1681 0.959 . S
H1688 C1681 0.961 . S
H1689 C1681 0.960 . S
H1690 C1682 0.930 . S
H1691 C1683 0.929 . S
H1692 C1700 0.929 . S
H1693 C1702 0.930 . S
H1694 C1704 0.930 . S
H1695 C1707 0.929 . S
H1696 C1710 0.930 . S
H1697 C1712 0.960 . S
H1698 C1712 0.960 . S
H1699 C1712 0.960 . S
C1700 H1692 0.929 . S
C1700 C1701 1.377 . S
C1700 C1702 1.384 . S
C1701 C1700 1.377 . S
C1701 C1707 1.390 . S
C1702 H1693 0.930 . S
C1702 C1700 1.384 . S
C1702 C1703 1.372 . S
C1703 C1702 1.372 . S
C1703 C1704 1.400 . S
C1703 C1708 1.490 . S
C1704 H1694 0.930 . S
C1704 C1703 1.400 . S
C1704 C1707 1.386 . S
H1705 C1721 0.930 . S
H1706 C1722 0.931 . S
C1707 H1695 0.929 . S
C1707 C1701 1.390 . S
C1707 C1704 1.386 . S
C1708 C1703 1.490 . S
C1708 C1710 1.395 . S
C1708 C1711 1.403 . S
H1709 C1715 0.930 . S
C1710 H1696 0.930 . S
C1710 C1708 1.395 . S
C1710 C1713 1.403 . S
C1711 C1708 1.403 . S
C1711 C1712 1.524 . S
C1711 C1715 1.400 . S
C1712 H1697 0.960 . S
C1712 H1698 0.960 . S
C1712 H1699 0.960 . S
C1712 C1711 1.524 . S
C1713 C1710 1.403 . S
C1713 C1714 1.392 . S
C1713 C1717 1.495 . S
C1714 C1713 1.392 . S
C1714 C1715 1.385 . S
C1714 C1716 1.478 . S
C1715 H1709 0.930 . S
C1715 C1711 1.400 . S
C1715 C1714 1.385 . S
C1716 C1714 1.478 . S
C1716 C1718 1.381 . S
C1716 C1722 1.383 . S
C1717 C1713 1.495 . S
C1717 H1723 0.959 . S
C1717 H1724 0.961 . S
C1717 H1725 0.960 . S
C1718 C1716 1.381 . S
C1718 C1719 1.394 . S
C1718 H1726 0.930 . S
C1719 C1718 1.394 . S
C1719 C1720 1.383 . S
C1719 H1727 0.929 . S
C1720 C1719 1.383 . S
C1720 C1721 1.377 . S
C1721 H1705 0.930 . S
C1721 C1720 1.377 . S
C1721 C1722 1.379 . S
C1722 H1706 0.931 . S
C1722 C1716 1.383 . S
C1722 C1721 1.379 . S
H1723 C1717 0.959 . S
H1724 C1717 0.961 . S
H1725 C1717 0.960 . S
H1726 C1718 0.930 . S
H1727 C1719 0.929 . S
H1728 C1736 0.929 . S
H1729 C1738 0.930 . S
H1730 C1740 0.930 . S
H1731 C1743 0.929 . S
H1732 C1746 0.930 . S
H1733 C1748 0.960 . S
H1734 C1748 0.960 . S
H1735 C1748 0.960 . S
C1736 H1728 0.929 . S
C1736 C1737 1.377 . S
C1736 C1738 1.384 . S
C1737 C1736 1.377 . S
C1737 C1743 1.390 . S
C1738 H1729 0.930 . S
C1738 C1736 1.384 . S
C1738 C1739 1.372 . S
C1739 C1738 1.372 . S
C1739 C1740 1.400 . S
C1739 C1744 1.490 . S
C1740 H1730 0.930 . S
C1740 C1739 1.400 . S
C1740 C1743 1.386 . S
H1741 C1757 0.930 . S
H1742 C1758 0.931 . S
C1743 H1731 0.929 . S
C1743 C1737 1.390 . S
C1743 C1740 1.386 . S
C1744 C1739 1.490 . S
C1744 C1746 1.395 . S
C1744 C1747 1.403 . S
H1745 C1751 0.930 . S
C1746 H1732 0.930 . S
C1746 C1744 1.395 . S
C1746 C1749 1.403 . S
C1747 C1744 1.403 . S
C1747 C1748 1.524 . S
C1747 C1751 1.400 . S
C1748 H1733 0.960 . S
C1748 H1734 0.960 . S
C1748 H1735 0.960 . S
C1748 C1747 1.524 . S
C1749 C1746 1.403 . S
C1749 C1750 1.392 . S
C1749 C1753 1.495 . S
C1750 C1749 1.392 . S
C1750 C1751 1.385 . S
C1750 C1752 1.478 . S
C1751 H1745 0.930 . S
C1751 C1747 1.400 . S
C1751 C1750 1.385 . S
C1752 C1750 1.478 . S
C1752 C1754 1.381 . S
C1752 C1758 1.383 . S
C1753 C1749 1.495 . S
C1753 H1759 0.959 . S
C1753 H1760 0.961 . S
C1753 H1761 0.960 . S
C1754 C1752 1.381 . S
C1754 C1755 1.394 . S
C1754 H1762 0.930 . S
C1755 C1754 1.394 . S
C1755 C1756 1.383 . S
C1755 H1763 0.929 . S
C1756 C1755 1.383 . S
C1756 C1757 1.377 . S
C1757 H1741 0.930 . S
C1757 C1756 1.377 . S
C1757 C1758 1.379 . S
C1758 H1742 0.931 . S
C1758 C1752 1.383 . S
C1758 C1757 1.379 . S
H1759 C1753 0.959 . S
H1760 C1753 0.961 . S
H1761 C1753 0.960 . S
H1762 C1754 0.930 . S
H1763 C1755 0.929 . S
H1764 C1772 0.929 . S
H1765 C1774 0.930 . S
H1766 C1776 0.930 . S
H1767 C1779 0.929 . S
H1768 C1782 0.930 . S
H1769 C1784 0.960 . S
H1770 C1784 0.960 . S
H1771 C1784 0.960 . S
C1772 H1764 0.929 . S
C1772 C1773 1.377 . S
C1772 C1774 1.384 . S
C1773 C1772 1.377 . S
C1773 C1779 1.390 . S
C1774 H1765 0.930 . S
C1774 C1772 1.384 . S
C1774 C1775 1.372 . S
C1775 C1774 1.372 . S
C1775 C1776 1.400 . S
C1775 C1780 1.490 . S
C1776 H1766 0.930 . S
C1776 C1775 1.400 . S
C1776 C1779 1.386 . S
H1777 C1793 0.930 . S
H1778 C1794 0.931 . S
C1779 H1767 0.929 . S
C1779 C1773 1.390 . S
C1779 C1776 1.386 . S
C1780 C1775 1.490 . S
C1780 C1782 1.395 . S
C1780 C1783 1.403 . S
H1781 C1787 0.930 . S
C1782 H1768 0.930 . S
C1782 C1780 1.395 . S
C1782 C1785 1.403 . S
C1783 C1780 1.403 . S
C1783 C1784 1.524 . S
C1783 C1787 1.400 . S
C1784 H1769 0.960 . S
C1784 H1770 0.960 . S
C1784 H1771 0.960 . S
C1784 C1783 1.524 . S
C1785 C1782 1.403 . S
C1785 C1786 1.392 . S
C1785 C1789 1.495 . S
C1786 C1785 1.392 . S
C1786 C1787 1.385 . S
C1786 C1788 1.478 . S
C1787 H1781 0.930 . S
C1787 C1783 1.400 . S
C1787 C1786 1.385 . S
C1788 C1786 1.478 . S
C1788 C1790 1.381 . S
C1788 C1794 1.383 . S
C1789 C1785 1.495 . S
C1789 H1795 0.959 . S
C1789 H1796 0.961 . S
C1789 H1797 0.960 . S
C1790 C1788 1.381 . S
C1790 C1791 1.394 . S
C1790 H1798 0.930 . S
C1791 C1790 1.394 . S
C1791 C1792 1.383 . S
C1791 H1799 0.929 . S
C1792 C1791 1.383 . S
C1792 C1793 1.377 . S
C1793 H1777 0.930 . S
C1793 C1792 1.377 . S
C1793 C1794 1.379 . S
C1794 H1778 0.931 . S
C1794 C1788 1.383 . S
C1794 C1793 1.379 . S
H1795 C1789 0.959 . S
H1796 C1789 0.961 . S
H1797 C1789 0.960 . S
H1798 C1790 0.930 . S
H1799 C1791 0.929 . S
H1800 C1808 0.929 . S
H1801 C1810 0.930 . S
H1802 C1812 0.930 . S
H1803 C1815 0.929 . S
H1804 C1818 0.930 . S
H1805 C1820 0.960 . S
H1806 C1820 0.960 . S
H1807 C1820 0.960 . S
C1808 H1800 0.929 . S
C1808 C1809 1.377 . S
C1808 C1810 1.384 . S
C1809 C1808 1.377 . S
C1809 C1815 1.390 . S
C1810 H1801 0.930 . S
C1810 C1808 1.384 . S
C1810 C1811 1.372 . S
C1811 C1810 1.372 . S
C1811 C1812 1.400 . S
C1811 C1816 1.490 . S
C1812 H1802 0.930 . S
C1812 C1811 1.400 . S
C1812 C1815 1.386 . S
H1813 C1829 0.930 . S
H1814 C1830 0.931 . S
C1815 H1803 0.929 . S
C1815 C1809 1.390 . S
C1815 C1812 1.386 . S
C1816 C1811 1.490 . S
C1816 C1818 1.395 . S
C1816 C1819 1.403 . S
H1817 C1823 0.930 . S
C1818 H1804 0.930 . S
C1818 C1816 1.395 . S
C1818 C1821 1.403 . S
C1819 C1816 1.403 . S
C1819 C1820 1.524 . S
C1819 C1823 1.400 . S
C1820 H1805 0.960 . S
C1820 H1806 0.960 . S
C1820 H1807 0.960 . S
C1820 C1819 1.524 . S
C1821 C1818 1.403 . S
C1821 C1822 1.392 . S
C1821 C1825 1.495 . S
C1822 C1821 1.392 . S
C1822 C1823 1.385 . S
C1822 C1824 1.478 . S
C1823 H1817 0.930 . S
C1823 C1819 1.400 . S
C1823 C1822 1.385 . S
C1824 C1822 1.478 . S
C1824 C1826 1.381 . S
C1824 C1830 1.383 . S
C1825 C1821 1.495 . S
C1825 H1831 0.959 . S
C1825 H1832 0.961 . S
C1825 H1833 0.960 . S
C1826 C1824 1.381 . S
C1826 C1827 1.394 . S
C1826 H1834 0.930 . S
C1827 C1826 1.394 . S
C1827 C1828 1.383 . S
C1827 H1835 0.929 . S
C1828 C1827 1.383 . S
C1828 C1829 1.377 . S
C1829 H1813 0.930 . S
C1829 C1828 1.377 . S
C1829 C1830 1.379 . S
C1830 H1814 0.931 . S
C1830 C1824 1.383 . S
C1830 C1829 1.379 . S
H1831 C1825 0.959 . S
H1832 C1825 0.961 . S
H1833 C1825 0.960 . S
H1834 C1826 0.930 . S
H1835 C1827 0.929 . S
H1836 C1844 0.929 . S
H1837 C1846 0.930 . S
H1838 C1848 0.930 . S
H1839 C1851 0.929 . S
H1840 C1854 0.930 . S
H1841 C1856 0.960 . S
H1842 C1856 0.960 . S
H1843 C1856 0.960 . S
C1844 H1836 0.929 . S
C1844 C1845 1.377 . S
C1844 C1846 1.384 . S
C1845 C1844 1.377 . S
C1845 C1851 1.390 . S
C1846 H1837 0.930 . S
C1846 C1844 1.384 . S
C1846 C1847 1.372 . S
C1847 C1846 1.372 . S
C1847 C1848 1.400 . S
C1847 C1852 1.490 . S
C1848 H1838 0.930 . S
C1848 C1847 1.400 . S
C1848 C1851 1.386 . S
H1849 C1865 0.930 . S
H1850 C1866 0.931 . S
C1851 H1839 0.929 . S
C1851 C1845 1.390 . S
C1851 C1848 1.386 . S
C1852 C1847 1.490 . S
C1852 C1854 1.395 . S
C1852 C1855 1.403 . S
H1853 C1859 0.930 . S
C1854 H1840 0.930 . S
C1854 C1852 1.395 . S
C1854 C1857 1.403 . S
C1855 C1852 1.403 . S
C1855 C1856 1.524 . S
C1855 C1859 1.400 . S
C1856 H1841 0.960 . S
C1856 H1842 0.960 . S
C1856 H1843 0.960 . S
C1856 C1855 1.524 . S
C1857 C1854 1.403 . S
C1857 C1858 1.392 . S
C1857 C1861 1.495 . S
C1858 C1857 1.392 . S
C1858 C1859 1.385 . S
C1858 C1860 1.478 . S
C1859 H1853 0.930 . S
C1859 C1855 1.400 . S
C1859 C1858 1.385 . S
C1860 C1858 1.478 . S
C1860 C1862 1.381 . S
C1860 C1866 1.383 . S
C1861 C1857 1.495 . S
C1861 H1867 0.959 . S
C1861 H1868 0.961 . S
C1861 H1869 0.960 . S
C1862 C1860 1.381 . S
C1862 C1863 1.394 . S
C1862 H1870 0.930 . S
C1863 C1862 1.394 . S
C1863 C1864 1.383 . S
C1863 H1871 0.929 . S
C1864 C1863 1.383 . S
C1864 C1865 1.377 . S
C1865 H1849 0.930 . S
C1865 C1864 1.377 . S
C1865 C1866 1.379 . S
C1866 H1850 0.931 . S
C1866 C1860 1.383 . S
C1866 C1865 1.379 . S
H1867 C1861 0.959 . S
H1868 C1861 0.961 . S
H1869 C1861 0.960 . S
H1870 C1862 0.930 . S
H1871 C1863 0.929 . S
H1872 C1880 0.929 . S
H1873 C1882 0.930 . S
H1874 C1884 0.930 . S
H1875 C1887 0.929 . S
H1876 C1890 0.930 . S
H1877 C1892 0.960 . S
H1878 C1892 0.960 . S
H1879 C1892 0.960 . S
C1880 H1872 0.929 . S
C1880 C1881 1.377 . S
C1880 C1882 1.384 . S
C1881 C1880 1.377 . S
C1881 C1887 1.390 . S
C1882 H1873 0.930 . S
C1882 C1880 1.384 . S
C1882 C1883 1.372 . S
C1883 C1882 1.372 . S
C1883 C1884 1.400 . S
C1883 C1888 1.490 . S
C1884 H1874 0.930 . S
C1884 C1883 1.400 . S
C1884 C1887 1.386 . S
H1885 C1901 0.930 . S
H1886 C1902 0.931 . S
C1887 H1875 0.929 . S
C1887 C1881 1.390 . S
C1887 C1884 1.386 . S
C1888 C1883 1.490 . S
C1888 C1890 1.395 . S
C1888 C1891 1.403 . S
H1889 C1895 0.930 . S
C1890 H1876 0.930 . S
C1890 C1888 1.395 . S
C1890 C1893 1.403 . S
C1891 C1888 1.403 . S
C1891 C1892 1.524 . S
C1891 C1895 1.400 . S
C1892 H1877 0.960 . S
C1892 H1878 0.960 . S
C1892 H1879 0.960 . S
C1892 C1891 1.524 . S
C1893 C1890 1.403 . S
C1893 C1894 1.392 . S
C1893 C1897 1.495 . S
C1894 C1893 1.392 . S
C1894 C1895 1.385 . S
C1894 C1896 1.478 . S
C1895 H1889 0.930 . S
C1895 C1891 1.400 . S
C1895 C1894 1.385 . S
C1896 C1894 1.478 . S
C1896 C1898 1.381 . S
C1896 C1902 1.383 . S
C1897 C1893 1.495 . S
C1897 H1903 0.959 . S
C1897 H1904 0.961 . S
C1897 H1905 0.960 . S
C1898 C1896 1.381 . S
C1898 C1899 1.394 . S
C1898 H1906 0.930 . S
C1899 C1898 1.394 . S
C1899 C1900 1.383 . S
C1899 H1907 0.929 . S
C1900 C1899 1.383 . S
C1900 C1901 1.377 . S
C1901 H1885 0.930 . S
C1901 C1900 1.377 . S
C1901 C1902 1.379 . S
C1902 H1886 0.931 . S
C1902 C1896 1.383 . S
C1902 C1901 1.379 . S
H1903 C1897 0.959 . S
H1904 C1897 0.961 . S
H1905 C1897 0.960 . S
H1906 C1898 0.930 . S
H1907 C1899 0.929 . S
H1908 C1916 0.929 . S
H1909 C1918 0.930 . S
H1910 C1920 0.930 . S
H1911 C1923 0.929 . S
H1912 C1926 0.930 . S
H1913 C1928 0.960 . S
H1914 C1928 0.960 . S
H1915 C1928 0.960 . S
C1916 H1908 0.929 . S
C1916 C1917 1.377 . S
C1916 C1918 1.384 . S
C1917 C1916 1.377 . S
C1917 C1923 1.390 . S
C1918 H1909 0.930 . S
C1918 C1916 1.384 . S
C1918 C1919 1.372 . S
C1919 C1918 1.372 . S
C1919 C1920 1.400 . S
C1919 C1924 1.490 . S
C1920 H1910 0.930 . S
C1920 C1919 1.400 . S
C1920 C1923 1.386 . S
H1921 C1937 0.930 . S
H1922 C1938 0.931 . S
C1923 H1911 0.929 . S
C1923 C1917 1.390 . S
C1923 C1920 1.386 . S
C1924 C1919 1.490 . S
C1924 C1926 1.395 . S
C1924 C1927 1.403 . S
H1925 C1931 0.930 . S
C1926 H1912 0.930 . S
C1926 C1924 1.395 . S
C1926 C1929 1.403 . S
C1927 C1924 1.403 . S
C1927 C1928 1.524 . S
C1927 C1931 1.400 . S
C1928 H1913 0.960 . S
C1928 H1914 0.960 . S
C1928 H1915 0.960 . S
C1928 C1927 1.524 . S
C1929 C1926 1.403 . S
C1929 C1930 1.392 . S
C1929 C1933 1.495 . S
C1930 C1929 1.392 . S
C1930 C1931 1.385 . S
C1930 C1932 1.478 . S
C1931 H1925 0.930 . S
C1931 C1927 1.400 . S
C1931 C1930 1.385 . S
C1932 C1930 1.478 . S
C1932 C1934 1.381 . S
C1932 C1938 1.383 . S
C1933 C1929 1.495 . S
C1933 H1939 0.959 . S
C1933 H1940 0.961 . S
C1933 H1941 0.960 . S
C1934 C1932 1.381 . S
C1934 C1935 1.394 . S
C1934 H1942 0.930 . S
C1935 C1934 1.394 . S
C1935 C1936 1.383 . S
C1935 H1943 0.929 . S
C1936 C1935 1.383 . S
C1936 C1937 1.377 . S
C1937 H1921 0.930 . S
C1937 C1936 1.377 . S
C1937 C1938 1.379 . S
C1938 H1922 0.931 . S
C1938 C1932 1.383 . S
C1938 C1937 1.379 . S
H1939 C1933 0.959 . S
H1940 C1933 0.961 . S
H1941 C1933 0.960 . S
H1942 C1934 0.930 . S
H1943 C1935 0.929 . S
H1944 C1952 0.929 . S
H1945 C1954 0.930 . S
H1946 C1956 0.930 . S
H1947 C1959 0.929 . S
H1948 C1962 0.930 . S
H1949 C1964 0.960 . S
H1950 C1964 0.960 . S
H1951 C1964 0.960 . S
C1952 H1944 0.929 . S
C1952 C1953 1.377 . S
C1952 C1954 1.384 . S
C1953 C1952 1.377 . S
C1953 C1959 1.390 . S
C1954 H1945 0.930 . S
C1954 C1952 1.384 . S
C1954 C1955 1.372 . S
C1955 C1954 1.372 . S
C1955 C1956 1.400 . S
C1955 C1960 1.490 . S
C1956 H1946 0.930 . S
C1956 C1955 1.400 . S
C1956 C1959 1.386 . S
H1957 C1973 0.930 . S
H1958 C1974 0.931 . S
C1959 H1947 0.929 . S
C1959 C1953 1.390 . S
C1959 C1956 1.386 . S
C1960 C1955 1.490 . S
C1960 C1962 1.395 . S
C1960 C1963 1.403 . S
H1961 C1967 0.930 . S
C1962 H1948 0.930 . S
C1962 C1960 1.395 . S
C1962 C1965 1.403 . S
C1963 C1960 1.403 . S
C1963 C1964 1.524 . S
C1963 C1967 1.400 . S
C1964 H1949 0.960 . S
C1964 H1950 0.960 . S
C1964 H1951 0.960 . S
C1964 C1963 1.524 . S
C1965 C1962 1.403 . S
C1965 C1966 1.392 . S
C1965 C1969 1.495 . S
C1966 C1965 1.392 . S
C1966 C1967 1.385 . S
C1966 C1968 1.478 . S
C1967 H1961 0.930 . S
C1967 C1963 1.400 . S
C1967 C1966 1.385 . S
C1968 C1966 1.478 . S
C1968 C1970 1.381 . S
C1968 C1974 1.383 . S
C1969 C1965 1.495 . S
C1969 H1975 0.959 . S
C1969 H1976 0.961 . S
C1969 H1977 0.960 . S
C1970 C1968 1.381 . S
C1970 C1971 1.394 . S
C1970 H1978 0.930 . S
C1971 C1970 1.394 . S
C1971 C1972 1.383 . S
C1971 H1979 0.929 . S
C1972 C1971 1.383 . S
C1972 C1973 1.377 . S
C1973 H1957 0.930 . S
C1973 C1972 1.377 . S
C1973 C1974 1.379 . S
C1974 H1958 0.931 . S
C1974 C1968 1.383 . S
C1974 C1973 1.379 . S
H1975 C1969 0.959 . S
H1976 C1969 0.961 . S
H1977 C1969 0.960 . S
H1978 C1970 0.930 . S
H1979 C1971 0.929 . S
H1980 C1988 0.929 . S
H1981 C1990 0.930 . S
H1982 C1992 0.930 . S
H1983 C1995 0.929 . S
H1984 C1998 0.930 . S
H1985 C2000 0.960 . S
H1986 C2000 0.960 . S
H1987 C2000 0.960 . S
C1988 H1980 0.929 . S
C1988 C1989 1.377 . S
C1988 C1990 1.384 . S
C1989 C1988 1.377 . S
C1989 C1995 1.390 . S
C1990 H1981 0.930 . S
C1990 C1988 1.384 . S
C1990 C1991 1.372 . S
C1991 C1990 1.372 . S
C1991 C1992 1.400 . S
C1991 C1996 1.490 . S
C1992 H1982 0.930 . S
C1992 C1991 1.400 . S
C1992 C1995 1.386 . S
H1993 C2009 0.930 . S
H1994 C2010 0.931 . S
C1995 H1983 0.929 . S
C1995 C1989 1.390 . S
C1995 C1992 1.386 . S
C1996 C1991 1.490 . S
C1996 C1998 1.395 . S
C1996 C1999 1.403 . S
H1997 C2003 0.930 . S
C1998 H1984 0.930 . S
C1998 C1996 1.395 . S
C1998 C2001 1.403 . S
C1999 C1996 1.403 . S
C1999 C2000 1.524 . S
C1999 C2003 1.400 . S
C2000 H1985 0.960 . S
C2000 H1986 0.960 . S
C2000 H1987 0.960 . S
C2000 C1999 1.524 . S
C2001 C1998 1.403 . S
C2001 C2002 1.392 . S
C2001 C2005 1.495 . S
C2002 C2001 1.392 . S
C2002 C2003 1.385 . S
C2002 C2004 1.478 . S
C2003 H1997 0.930 . S
C2003 C1999 1.400 . S
C2003 C2002 1.385 . S
C2004 C2002 1.478 . S
C2004 C2006 1.381 . S
C2004 C2010 1.383 . S
C2005 C2001 1.495 . S
C2005 H2011 0.959 . S
C2005 H2012 0.961 . S
C2005 H2013 0.960 . S
C2006 C2004 1.381 . S
C2006 C2007 1.394 . S
C2006 H2014 0.930 . S
C2007 C2006 1.394 . S
C2007 C2008 1.383 . S
C2007 H2015 0.929 . S
C2008 C2007 1.383 . S
C2008 C2009 1.377 . S
C2009 H1993 0.930 . S
C2009 C2008 1.377 . S
C2009 C2010 1.379 . S
C2010 H1994 0.931 . S
C2010 C2004 1.383 . S
C2010 C2009 1.379 . S
H2011 C2005 0.959 . S
H2012 C2005 0.961 . S
H2013 C2005 0.960 . S
H2014 C2006 0.930 . S
H2015 C2007 0.929 . S
H2016 C2024 0.929 . S
H2017 C2026 0.930 . S
H2018 C2028 0.930 . S
H2019 C2031 0.929 . S
H2020 C2034 0.930 . S
H2021 C2036 0.960 . S
H2022 C2036 0.960 . S
H2023 C2036 0.960 . S
C2024 H2016 0.929 . S
C2024 C2025 1.377 . S
C2024 C2026 1.384 . S
C2025 C2024 1.377 . S
C2025 C2031 1.390 . S
C2026 H2017 0.930 . S
C2026 C2024 1.384 . S
C2026 C2027 1.372 . S
C2027 C2026 1.372 . S
C2027 C2028 1.400 . S
C2027 C2032 1.490 . S
C2028 H2018 0.930 . S
C2028 C2027 1.400 . S
C2028 C2031 1.386 . S
H2029 C2045 0.930 . S
H2030 C2046 0.931 . S
C2031 H2019 0.929 . S
C2031 C2025 1.390 . S
C2031 C2028 1.386 . S
C2032 C2027 1.490 . S
C2032 C2034 1.395 . S
C2032 C2035 1.403 . S
H2033 C2039 0.930 . S
C2034 H2020 0.930 . S
C2034 C2032 1.395 . S
C2034 C2037 1.403 . S
C2035 C2032 1.403 . S
C2035 C2036 1.524 . S
C2035 C2039 1.400 . S
C2036 H2021 0.960 . S
C2036 H2022 0.960 . S
C2036 H2023 0.960 . S
C2036 C2035 1.524 . S
C2037 C2034 1.403 . S
C2037 C2038 1.392 . S
C2037 C2041 1.495 . S
C2038 C2037 1.392 . S
C2038 C2039 1.385 . S
C2038 C2040 1.478 . S
C2039 H2033 0.930 . S
C2039 C2035 1.400 . S
C2039 C2038 1.385 . S
C2040 C2038 1.478 . S
C2040 C2042 1.381 . S
C2040 C2046 1.383 . S
C2041 C2037 1.495 . S
C2041 H2047 0.959 . S
C2041 H2048 0.961 . S
C2041 H2049 0.960 . S
C2042 C2040 1.381 . S
C2042 C2043 1.394 . S
C2042 H2050 0.930 . S
C2043 C2042 1.394 . S
C2043 C2044 1.383 . S
C2043 H2051 0.929 . S
C2044 C2043 1.383 . S
C2044 C2045 1.377 . S
C2045 H2029 0.930 . S
C2045 C2044 1.377 . S
C2045 C2046 1.379 . S
C2046 H2030 0.931 . S
C2046 C2040 1.383 . S
C2046 C2045 1.379 . S
H2047 C2041 0.959 . S
H2048 C2041 0.961 . S
H2049 C2041 0.960 . S
H2050 C2042 0.930 . S
H2051 C2043 0.929 . S
H2052 C2060 0.929 . S
H2053 C2062 0.930 . S
H2054 C2064 0.930 . S
H2055 C2067 0.929 . S
H2056 C2070 0.930 . S
H2057 C2072 0.960 . S
H2058 C2072 0.960 . S
H2059 C2072 0.960 . S
C2060 H2052 0.929 . S
C2060 C2061 1.377 . S
C2060 C2062 1.384 . S
C2061 C2060 1.377 . S
C2061 C2067 1.390 . S
C2062 H2053 0.930 . S
C2062 C2060 1.384 . S
C2062 C2063 1.372 . S
C2063 C2062 1.372 . S
C2063 C2064 1.400 . S
C2063 C2068 1.490 . S
C2064 H2054 0.930 . S
C2064 C2063 1.400 . S
C2064 C2067 1.386 . S
H2065 C2081 0.930 . S
H2066 C2082 0.931 . S
C2067 H2055 0.929 . S
C2067 C2061 1.390 . S
C2067 C2064 1.386 . S
C2068 C2063 1.490 . S
C2068 C2070 1.395 . S
C2068 C2071 1.403 . S
H2069 C2075 0.930 . S
C2070 H2056 0.930 . S
C2070 C2068 1.395 . S
C2070 C2073 1.403 . S
C2071 C2068 1.403 . S
C2071 C2072 1.524 . S
C2071 C2075 1.400 . S
C2072 H2057 0.960 . S
C2072 H2058 0.960 . S
C2072 H2059 0.960 . S
C2072 C2071 1.524 . S
C2073 C2070 1.403 . S
C2073 C2074 1.392 . S
C2073 C2077 1.495 . S
C2074 C2073 1.392 . S
C2074 C2075 1.385 . S
C2074 C2076 1.478 . S
C2075 H2069 0.930 . S
C2075 C2071 1.400 . S
C2075 C2074 1.385 . S
C2076 C2074 1.478 . S
C2076 C2078 1.381 . S
C2076 C2082 1.383 . S
C2077 C2073 1.495 . S
C2077 H2083 0.959 . S
C2077 H2084 0.961 . S
C2077 H2085 0.960 . S
C2078 C2076 1.381 . S
C2078 C2079 1.394 . S
C2078 H2086 0.930 . S
C2079 C2078 1.394 . S
C2079 C2080 1.383 . S
C2079 H2087 0.929 . S
C2080 C2079 1.383 . S
C2080 C2081 1.377 . S
C2081 H2065 0.930 . S
C2081 C2080 1.377 . S
C2081 C2082 1.379 . S
C2082 H2066 0.931 . S
C2082 C2076 1.383 . S
C2082 C2081 1.379 . S
H2083 C2077 0.959 . S
H2084 C2077 0.961 . S
H2085 C2077 0.960 . S
H2086 C2078 0.930 . S
H2087 C2079 0.929 . S
H2088 C2096 0.929 . S
H2089 C2098 0.930 . S
H2090 C2100 0.930 . S
H2091 C2103 0.929 . S
H2092 C2106 0.930 . S
H2093 C2108 0.960 . S
H2094 C2108 0.960 . S
H2095 C2108 0.960 . S
C2096 H2088 0.929 . S
C2096 C2097 1.377 . S
C2096 C2098 1.384 . S
C2097 C2096 1.377 . S
C2097 C2103 1.390 . S
C2098 H2089 0.930 . S
C2098 C2096 1.384 . S
C2098 C2099 1.372 . S
C2099 C2098 1.372 . S
C2099 C2100 1.400 . S
C2099 C2104 1.490 . S
C2100 H2090 0.930 . S
C2100 C2099 1.400 . S
C2100 C2103 1.386 . S
H2101 C2117 0.930 . S
H2102 C2118 0.931 . S
C2103 H2091 0.929 . S
C2103 C2097 1.390 . S
C2103 C2100 1.386 . S
C2104 C2099 1.490 . S
C2104 C2106 1.395 . S
C2104 C2107 1.403 . S
H2105 C2111 0.930 . S
C2106 H2092 0.930 . S
C2106 C2104 1.395 . S
C2106 C2109 1.403 . S
C2107 C2104 1.403 . S
C2107 C2108 1.524 . S
C2107 C2111 1.400 . S
C2108 H2093 0.960 . S
C2108 H2094 0.960 . S
C2108 H2095 0.960 . S
C2108 C2107 1.524 . S
C2109 C2106 1.403 . S
C2109 C2110 1.392 . S
C2109 C2113 1.495 . S
C2110 C2109 1.392 . S
C2110 C2111 1.385 . S
C2110 C2112 1.478 . S
C2111 H2105 0.930 . S
C2111 C2107 1.400 . S
C2111 C2110 1.385 . S
C2112 C2110 1.478 . S
C2112 C2114 1.381 . S
C2112 C2118 1.383 . S
C2113 C2109 1.495 . S
C2113 H2119 0.959 . S
C2113 H2120 0.961 . S
C2113 H2121 0.960 . S
C2114 C2112 1.381 . S
C2114 C2115 1.394 . S
C2114 H2122 0.930 . S
C2115 C2114 1.394 . S
C2115 C2116 1.383 . S
C2115 H2123 0.929 . S
C2116 C2115 1.383 . S
C2116 C2117 1.377 . S
C2117 H2101 0.930 . S
C2117 C2116 1.377 . S
C2117 C2118 1.379 . S
C2118 H2102 0.931 . S
C2118 C2112 1.383 . S
C2118 C2117 1.379 . S
H2119 C2113 0.959 . S
H2120 C2113 0.961 . S
H2121 C2113 0.960 . S
H2122 C2114 0.930 . S
H2123 C2115 0.929 . S
H2124 C2132 0.929 . S
H2125 C2134 0.930 . S
H2126 C2136 0.930 . S
H2127 C2139 0.929 . S
H2128 C2142 0.930 . S
H2129 C2144 0.960 . S
H2130 C2144 0.960 . S
H2131 C2144 0.960 . S
C2132 H2124 0.929 . S
C2132 C2133 1.377 . S
C2132 C2134 1.384 . S
C2133 C2132 1.377 . S
C2133 C2139 1.390 . S
C2134 H2125 0.930 . S
C2134 C2132 1.384 . S
C2134 C2135 1.372 . S
C2135 C2134 1.372 . S
C2135 C2136 1.400 . S
C2135 C2140 1.490 . S
C2136 H2126 0.930 . S
C2136 C2135 1.400 . S
C2136 C2139 1.386 . S
H2137 C2153 0.930 . S
H2138 C2154 0.931 . S
C2139 H2127 0.929 . S
C2139 C2133 1.390 . S
C2139 C2136 1.386 . S
C2140 C2135 1.490 . S
C2140 C2142 1.395 . S
C2140 C2143 1.403 . S
H2141 C2147 0.930 . S
C2142 H2128 0.930 . S
C2142 C2140 1.395 . S
C2142 C2145 1.403 . S
C2143 C2140 1.403 . S
C2143 C2144 1.524 . S
C2143 C2147 1.400 . S
C2144 H2129 0.960 . S
C2144 H2130 0.960 . S
C2144 H2131 0.960 . S
C2144 C2143 1.524 . S
C2145 C2142 1.403 . S
C2145 C2146 1.392 . S
C2145 C2149 1.495 . S
C2146 C2145 1.392 . S
C2146 C2147 1.385 . S
C2146 C2148 1.478 . S
C2147 H2141 0.930 . S
C2147 C2143 1.400 . S
C2147 C2146 1.385 . S
C2148 C2146 1.478 . S
C2148 C2150 1.381 . S
C2148 C2154 1.383 . S
C2149 C2145 1.495 . S
C2149 H2155 0.959 . S
C2149 H2156 0.961 . S
C2149 H2157 0.960 . S
C2150 C2148 1.381 . S
C2150 C2151 1.394 . S
C2150 H2158 0.930 . S
C2151 C2150 1.394 . S
C2151 C2152 1.383 . S
C2151 H2159 0.929 . S
C2152 C2151 1.383 . S
C2152 C2153 1.377 . S
C2153 H2137 0.930 . S
C2153 C2152 1.377 . S
C2153 C2154 1.379 . S
C2154 H2138 0.931 . S
C2154 C2148 1.383 . S
C2154 C2153 1.379 . S
H2155 C2149 0.959 . S
H2156 C2149 0.961 . S
H2157 C2149 0.960 . S
H2158 C2150 0.930 . S
H2159 C2151 0.929 . S
H2160 C2168 0.929 . S
H2161 C2170 0.930 . S
H2162 C2172 0.930 . S
H2163 C2175 0.929 . S
H2164 C2178 0.930 . S
H2165 C2180 0.960 . S
H2166 C2180 0.960 . S
H2167 C2180 0.960 . S
C2168 H2160 0.929 . S
C2168 C2169 1.377 . S
C2168 C2170 1.384 . S
C2169 C2168 1.377 . S
C2169 C2175 1.390 . S
C2170 H2161 0.930 . S
C2170 C2168 1.384 . S
C2170 C2171 1.372 . S
C2171 C2170 1.372 . S
C2171 C2172 1.400 . S
C2171 C2176 1.490 . S
C2172 H2162 0.930 . S
C2172 C2171 1.400 . S
C2172 C2175 1.386 . S
H2173 C2189 0.930 . S
H2174 C2190 0.931 . S
C2175 H2163 0.929 . S
C2175 C2169 1.390 . S
C2175 C2172 1.386 . S
C2176 C2171 1.490 . S
C2176 C2178 1.395 . S
C2176 C2179 1.403 . S
H2177 C2183 0.930 . S
C2178 H2164 0.930 . S
C2178 C2176 1.395 . S
C2178 C2181 1.403 . S
C2179 C2176 1.403 . S
C2179 C2180 1.524 . S
C2179 C2183 1.400 . S
C2180 H2165 0.960 . S
C2180 H2166 0.960 . S
C2180 H2167 0.960 . S
C2180 C2179 1.524 . S
C2181 C2178 1.403 . S
C2181 C2182 1.392 . S
C2181 C2185 1.495 . S
C2182 C2181 1.392 . S
C2182 C2183 1.385 . S
C2182 C2184 1.478 . S
C2183 H2177 0.930 . S
C2183 C2179 1.400 . S
C2183 C2182 1.385 . S
C2184 C2182 1.478 . S
C2184 C2186 1.381 . S
C2184 C2190 1.383 . S
C2185 C2181 1.495 . S
C2185 H2191 0.959 . S
C2185 H2192 0.961 . S
C2185 H2193 0.960 . S
C2186 C2184 1.381 . S
C2186 C2187 1.394 . S
C2186 H2194 0.930 . S
C2187 C2186 1.394 . S
C2187 C2188 1.383 . S
C2187 H2195 0.929 . S
C2188 C2187 1.383 . S
C2188 C2189 1.377 . S
C2189 H2173 0.930 . S
C2189 C2188 1.377 . S
C2189 C2190 1.379 . S
C2190 H2174 0.931 . S
C2190 C2184 1.383 . S
C2190 C2189 1.379 . S
H2191 C2185 0.959 . S
H2192 C2185 0.961 . S
H2193 C2185 0.960 . S
H2194 C2186 0.930 . S
H2195 C2187 0.929 . S
H2196 C2204 0.929 . S
H2197 C2206 0.930 . S
H2198 C2208 0.930 . S
H2199 C2211 0.929 . S
H2200 C2214 0.930 . S
H2201 C2216 0.960 . S
H2202 C2216 0.960 . S
H2203 C2216 0.960 . S
C2204 H2196 0.929 . S
C2204 C2205 1.377 . S
C2204 C2206 1.384 . S
C2205 C2204 1.377 . S
C2205 C2211 1.390 . S
C2206 H2197 0.930 . S
C2206 C2204 1.384 . S
C2206 C2207 1.372 . S
C2207 C2206 1.372 . S
C2207 C2208 1.400 . S
C2207 C2212 1.490 . S
C2208 H2198 0.930 . S
C2208 C2207 1.400 . S
C2208 C2211 1.386 . S
H2209 C2225 0.930 . S
H2210 C2226 0.931 . S
C2211 H2199 0.929 . S
C2211 C2205 1.390 . S
C2211 C2208 1.386 . S
C2212 C2207 1.490 . S
C2212 C2214 1.395 . S
C2212 C2215 1.403 . S
H2213 C2219 0.930 . S
C2214 H2200 0.930 . S
C2214 C2212 1.395 . S
C2214 C2217 1.403 . S
C2215 C2212 1.403 . S
C2215 C2216 1.524 . S
C2215 C2219 1.400 . S
C2216 H2201 0.960 . S
C2216 H2202 0.960 . S
C2216 H2203 0.960 . S
C2216 C2215 1.524 . S
C2217 C2214 1.403 . S
C2217 C2218 1.392 . S
C2217 C2221 1.495 . S
C2218 C2217 1.392 . S
C2218 C2219 1.385 . S
C2218 C2220 1.478 . S
C2219 H2213 0.930 . S
C2219 C2215 1.400 . S
C2219 C2218 1.385 . S
C2220 C2218 1.478 . S
C2220 C2222 1.381 . S
C2220 C2226 1.383 . S
C2221 C2217 1.495 . S
C2221 H2227 0.959 . S
C2221 H2228 0.961 . S
C2221 H2229 0.960 . S
C2222 C2220 1.381 . S
C2222 C2223 1.394 . S
C2222 H2230 0.930 . S
C2223 C2222 1.394 . S
C2223 C2224 1.383 . S
C2223 H2231 0.929 . S
C2224 C2223 1.383 . S
C2224 C2225 1.377 . S
C2225 H2209 0.930 . S
C2225 C2224 1.377 . S
C2225 C2226 1.379 . S
C2226 H2210 0.931 . S
C2226 C2220 1.383 . S
C2226 C2225 1.379 . S
H2227 C2221 0.959 . S
H2228 C2221 0.961 . S
H2229 C2221 0.960 . S
H2230 C2222 0.930 . S
H2231 C2223 0.929 . S
H2232 C2240 0.929 . S
H2233 C2242 0.930 . S
H2234 C2244 0.930 . S
H2235 C2247 0.929 . S
H2236 C2250 0.930 . S
H2237 C2252 0.960 . S
H2238 C2252 0.960 . S
H2239 C2252 0.960 . S
C2240 H2232 0.929 . S
C2240 C2241 1.377 . S
C2240 C2242 1.384 . S
C2241 C2240 1.377 . S
C2241 C2247 1.390 . S
C2242 H2233 0.930 . S
C2242 C2240 1.384 . S
C2242 C2243 1.372 . S
C2243 C2242 1.372 . S
C2243 C2244 1.400 . S
C2243 C2248 1.490 . S
C2244 H2234 0.930 . S
C2244 C2243 1.400 . S
C2244 C2247 1.386 . S
H2245 C2261 0.930 . S
H2246 C2262 0.931 . S
C2247 H2235 0.929 . S
C2247 C2241 1.390 . S
C2247 C2244 1.386 . S
C2248 C2243 1.490 . S
C2248 C2250 1.395 . S
C2248 C2251 1.403 . S
H2249 C2255 0.930 . S
C2250 H2236 0.930 . S
C2250 C2248 1.395 . S
C2250 C2253 1.403 1_455 S
C2251 C2248 1.403 . S
C2251 C2252 1.524 . S
C2251 C2255 1.400 1_455 S
C2252 H2237 0.960 . S
C2252 H2238 0.960 . S
C2252 H2239 0.960 . S
C2252 C2251 1.524 . S
C2253 C2250 1.403 1_655 S
C2253 C2254 1.392 . S
C2253 C2257 1.495 . S
C2254 C2253 1.392 . S
C2254 C2255 1.385 . S
C2254 C2256 1.478 . S
C2255 H2249 0.930 . S
C2255 C2251 1.400 1_655 S
C2255 C2254 1.385 . S
C2256 C2254 1.478 . S
C2256 C2258 1.381 . S
C2256 C2262 1.383 . S
C2257 C2253 1.495 . S
C2257 H2263 0.959 . S
C2257 H2264 0.961 . S
C2257 H2265 0.960 . S
C2258 C2256 1.381 . S
C2258 C2259 1.394 . S
C2258 H2266 0.930 . S
C2259 C2258 1.394 . S
C2259 C2260 1.383 . S
C2259 H2267 0.929 . S
C2260 C2259 1.383 . S
C2260 C2261 1.377 . S
C2261 H2245 0.930 . S
C2261 C2260 1.377 . S
C2261 C2262 1.379 . S
C2262 H2246 0.931 . S
C2262 C2256 1.383 . S
C2262 C2261 1.379 . S
H2263 C2257 0.959 . S
H2264 C2257 0.961 . S
H2265 C2257 0.960 . S
H2266 C2258 0.930 . S
H2267 C2259 0.929 . S
H2268 C2276 0.929 . S
H2269 C2278 0.930 . S
H2270 C2280 0.930 . S
H2271 C2283 0.929 . S
H2272 C2286 0.930 . S
H2273 C2288 0.960 . S
H2274 C2288 0.960 . S
H2275 C2288 0.960 . S
C2276 H2268 0.929 . S
C2276 C2277 1.377 . S
C2276 C2278 1.384 . S
C2277 C2276 1.377 . S
C2277 C2283 1.390 . S
C2278 H2269 0.930 . S
C2278 C2276 1.384 . S
C2278 C2279 1.372 . S
C2279 C2278 1.372 . S
C2279 C2280 1.400 . S
C2279 C2284 1.490 . S
C2280 H2270 0.930 . S
C2280 C2279 1.400 . S
C2280 C2283 1.386 . S
H2281 C2297 0.930 . S
H2282 C2298 0.931 . S
C2283 H2271 0.929 . S
C2283 C2277 1.390 . S
C2283 C2280 1.386 . S
C2284 C2279 1.490 . S
C2284 C2286 1.395 . S
C2284 C2287 1.403 . S
H2285 C2291 0.930 . S
C2286 H2272 0.930 . S
C2286 C2284 1.395 . S
C2286 C2289 1.403 . S
C2287 C2284 1.403 . S
C2287 C2288 1.524 . S
C2287 C2291 1.400 . S
C2288 H2273 0.960 . S
C2288 H2274 0.960 . S
C2288 H2275 0.960 . S
C2288 C2287 1.524 . S
C2289 C2286 1.403 . S
C2289 C2290 1.392 . S
C2289 C2293 1.495 . S
C2290 C2289 1.392 . S
C2290 C2291 1.385 . S
C2290 C2292 1.478 . S
C2291 H2285 0.930 . S
C2291 C2287 1.400 . S
C2291 C2290 1.385 . S
C2292 C2290 1.478 . S
C2292 C2294 1.381 . S
C2292 C2298 1.383 . S
C2293 C2289 1.495 . S
C2293 H2299 0.959 . S
C2293 H2300 0.961 . S
C2293 H2301 0.960 . S
C2294 C2292 1.381 . S
C2294 C2295 1.394 . S
C2294 H2302 0.930 . S
C2295 C2294 1.394 . S
C2295 C2296 1.383 . S
C2295 H2303 0.929 . S
C2296 C2295 1.383 . S
C2296 C2297 1.377 . S
C2297 H2281 0.930 . S
C2297 C2296 1.377 . S
C2297 C2298 1.379 . S
C2298 H2282 0.931 . S
C2298 C2292 1.383 . S
C2298 C2297 1.379 . S
H2299 C2293 0.959 . S
H2300 C2293 0.961 . S
H2301 C2293 0.960 . S
H2302 C2294 0.930 . S
H2303 C2295 0.929 . S
H2304 C2312 0.929 . S
H2305 C2314 0.930 . S
H2306 C2316 0.930 . S
H2307 C2319 0.929 . S
H2308 C2322 0.930 . S
H2309 C2324 0.958 . S
H2310 C2324 0.960 . S
H2311 C2324 0.960 . S
C2312 H2304 0.929 . S
C2312 C2313 1.377 . S
C2312 C2314 1.384 . S
C2313 C2312 1.377 . S
C2313 C2319 1.390 . S
C2314 H2305 0.930 . S
C2314 C2312 1.384 . S
C2314 C2315 1.372 . S
C2315 C2314 1.372 . S
C2315 C2316 1.400 . S
C2315 C2320 1.490 . S
C2316 H2306 0.930 . S
C2316 C2315 1.400 . S
C2316 C2319 1.386 . S
H2317 C2333 0.930 . S
H2318 C2334 0.931 . S
C2319 H2307 0.929 . S
C2319 C2313 1.390 . S
C2319 C2316 1.386 . S
C2320 C2315 1.490 . S
C2320 C2322 1.395 . S
C2320 C2323 1.403 . S
H2321 C2327 0.930 . S
C2322 H2308 0.930 . S
C2322 C2320 1.395 . S
C2322 C2325 1.403 1_545 S
C2323 C2320 1.403 . S
C2323 C2324 1.524 . S
C2323 C2327 1.400 1_545 S
C2324 H2309 0.958 . S
C2324 H2310 0.960 . S
C2324 H2311 0.960 . S
C2324 C2323 1.524 . S
C2325 C2322 1.403 1_565 S
C2325 C2326 1.392 . S
C2325 C2329 1.495 . S
C2326 C2325 1.392 . S
C2326 C2327 1.385 . S
C2326 C2328 1.478 . S
C2327 H2321 0.930 . S
C2327 C2323 1.400 1_565 S
C2327 C2326 1.385 . S
C2328 C2326 1.478 . S
C2328 C2330 1.381 . S
C2328 C2334 1.383 . S
C2329 C2325 1.495 . S
C2329 H2335 0.986 . S
C2329 H2336 0.961 . S
C2329 H2337 0.960 . S
C2330 C2328 1.381 . S
C2330 C2331 1.394 . S
C2330 H2338 0.930 . S
C2331 C2330 1.394 . S
C2331 C2332 1.383 . S
C2331 H2339 0.929 . S
C2332 C2331 1.383 . S
C2332 C2333 1.377 . S
C2333 H2317 0.930 . S
C2333 C2332 1.377 . S
C2333 C2334 1.379 . S
C2334 H2318 0.931 . S
C2334 C2328 1.383 . S
C2334 C2333 1.379 . S
H2335 C2329 0.986 . S
H2336 C2329 0.961 . S
H2337 C2329 0.960 . S
H2338 C2330 0.930 . S
H2339 C2331 0.929 . S
H2340 C2348 0.929 . S
H2341 C2350 0.930 . S
H2342 C2352 0.930 . S
H2343 C2355 0.929 . S
H2344 C2358 0.930 . S
H2345 C2360 0.893 1_565 S
H2346 C2360 0.960 . S
H2347 C2360 0.960 . S
C2348 H2340 0.929 . S
C2348 C2349 1.377 . S
C2348 C2350 1.384 . S
C2349 C2348 1.377 . S
C2349 C2355 1.390 . S
C2350 H2341 0.930 . S
C2350 C2348 1.384 . S
C2350 C2351 1.372 . S
C2351 C2350 1.372 . S
C2351 C2352 1.400 . S
C2351 C2356 1.490 . S
C2352 H2342 0.930 . S
C2352 C2351 1.400 . S
C2352 C2355 1.386 . S
H2353 C2369 0.930 . S
H2354 C2370 0.931 . S
C2355 H2343 0.929 . S
C2355 C2349 1.390 . S
C2355 C2352 1.386 . S
C2356 C2351 1.490 . S
C2356 C2358 1.395 . S
C2356 C2359 1.403 . S
H2357 C2363 0.930 . S
C2358 H2344 0.930 . S
C2358 C2356 1.395 . S
C2358 C2361 1.403 1_545 S
C2359 C2356 1.403 . S
C2359 C2360 1.524 . S
C2359 C2363 1.400 1_545 S
C2360 H2345 0.893 1_545 S
C2360 H2346 0.960 . S
C2360 H2347 0.960 . S
C2360 C2359 1.524 . S
C2361 C2358 1.403 1_565 S
C2361 C2362 1.392 . S
C2361 C2365 1.495 . S
C2362 C2361 1.392 . S
C2362 C2363 1.385 . S
C2362 C2364 1.478 . S
C2363 H2357 0.930 . S
C2363 C2359 1.400 1_565 S
C2363 C2362 1.385 . S
C2364 C2362 1.478 . S
C2364 C2366 1.381 . S
C2364 C2370 1.383 . S
C2365 C2361 1.495 . S
C2365 H2371 0.903 1_565 S
C2365 H2372 0.961 . S
C2365 H2373 0.960 . S
C2366 C2364 1.381 . S
C2366 C2367 1.394 . S
C2366 H2374 0.930 . S
C2367 C2366 1.394 . S
C2367 C2368 1.383 . S
C2367 H2375 0.929 . S
C2368 C2367 1.383 . S
C2368 C2369 1.377 . S
C2369 H2353 0.930 . S
C2369 C2368 1.377 . S
C2369 C2370 1.379 . S
C2370 H2354 0.931 . S
C2370 C2364 1.383 . S
C2370 C2369 1.379 . S
H2371 C2365 0.903 1_545 S
H2372 C2365 0.961 . S
H2373 C2365 0.960 . S
H2374 C2366 0.930 . S
H2375 C2367 0.929 . S
H2376 C2384 0.929 . S
H2377 C2386 0.930 . S
H2378 C2388 0.930 . S
H2379 C2391 0.929 . S
H2380 C2394 0.930 . S
H2381 C2396 0.960 . S
H2382 C2396 0.960 . S
H2383 C2396 0.960 . S
C2384 H2376 0.929 . S
C2384 C2385 1.377 . S
C2384 C2386 1.384 . S
C2385 C2384 1.377 . S
C2385 C2391 1.390 . S
C2386 H2377 0.930 . S
C2386 C2384 1.384 . S
C2386 C2387 1.372 . S
C2387 C2386 1.372 . S
C2387 C2388 1.400 . S
C2387 C2392 1.490 . S
C2388 H2378 0.930 . S
C2388 C2387 1.400 . S
C2388 C2391 1.386 . S
H2389 C2405 0.930 . S
H2390 C2406 0.931 . S
C2391 H2379 0.929 . S
C2391 C2385 1.390 . S
C2391 C2388 1.386 . S
C2392 C2387 1.490 . S
C2392 C2394 1.395 . S
C2392 C2395 1.403 . S
H2393 C2399 0.930 . S
C2394 H2380 0.930 . S
C2394 C2392 1.395 . S
C2394 C2397 1.403 1_655 S
C2395 C2392 1.403 . S
C2395 C2396 1.524 . S
C2395 C2399 1.400 1_655 S
C2396 H2381 0.960 . S
C2396 H2382 0.960 . S
C2396 H2383 0.960 . S
C2396 C2395 1.524 . S
C2397 C2394 1.403 1_455 S
C2397 C2398 1.392 . S
C2397 C2401 1.495 . S
C2398 C2397 1.392 . S
C2398 C2399 1.385 . S
C2398 C2400 1.478 . S
C2399 H2393 0.930 . S
C2399 C2395 1.400 1_455 S
C2399 C2398 1.385 . S
C2400 C2398 1.478 . S
C2400 C2402 1.381 . S
C2400 C2406 1.383 . S
C2401 C2397 1.495 . S
C2401 H2407 0.959 . S
C2401 H2408 0.961 . S
C2401 H2409 0.960 . S
C2402 C2400 1.381 . S
C2402 C2403 1.394 . S
C2402 H2410 0.930 . S
C2403 C2402 1.394 . S
C2403 C2404 1.383 . S
C2403 H2411 0.929 . S
C2404 C2403 1.383 . S
C2404 C2405 1.377 . S
C2405 H2389 0.930 . S
C2405 C2404 1.377 . S
C2405 C2406 1.379 . S
C2406 H2390 0.931 . S
C2406 C2400 1.383 . S
C2406 C2405 1.379 . S
H2407 C2401 0.959 . S
H2408 C2401 0.961 . S
H2409 C2401 0.960 . S
H2410 C2402 0.930 . S
H2411 C2403 0.929 . S
H2412 C2420 0.929 . S
H2413 C2422 0.930 . S
H2414 C2424 0.930 . S
H2415 C2427 0.929 . S
H2416 C2430 0.930 . S
H2417 C2432 0.960 . S
H2418 C2432 0.960 . S
H2419 C2432 0.960 . S
C2420 H2412 0.929 . S
C2420 C2421 1.377 . S
C2420 C2422 1.384 . S
C2421 C2420 1.377 . S
C2421 C2427 1.390 . S
C2422 H2413 0.930 . S
C2422 C2420 1.384 . S
C2422 C2423 1.372 . S
C2423 C2422 1.372 . S
C2423 C2424 1.400 . S
C2423 C2428 1.490 . S
C2424 H2414 0.930 . S
C2424 C2423 1.400 . S
C2424 C2427 1.386 . S
H2425 C2441 0.930 . S
H2426 C2442 0.931 . S
C2427 H2415 0.929 . S
C2427 C2421 1.390 . S
C2427 C2424 1.386 . S
C2428 C2423 1.490 . S
C2428 C2430 1.395 . S
C2428 C2431 1.403 . S
H2429 C2435 0.930 . S
C2430 H2416 0.930 . S
C2430 C2428 1.395 . S
C2430 C2433 1.403 . S
C2431 C2428 1.403 . S
C2431 C2432 1.524 . S
C2431 C2435 1.400 . S
C2432 H2417 0.960 . S
C2432 H2418 0.960 . S
C2432 H2419 0.960 . S
C2432 C2431 1.524 . S
C2433 C2430 1.403 . S
C2433 C2434 1.392 . S
C2433 C2437 1.495 . S
C2434 C2433 1.392 . S
C2434 C2435 1.385 . S
C2434 C2436 1.478 . S
C2435 H2429 0.930 . S
C2435 C2431 1.400 . S
C2435 C2434 1.385 . S
C2436 C2434 1.478 . S
C2436 C2438 1.381 . S
C2436 C2442 1.383 . S
C2437 C2433 1.495 . S
C2437 H2443 0.959 . S
C2437 H2444 0.961 . S
C2437 H2445 0.960 . S
C2438 C2436 1.381 . S
C2438 C2439 1.394 . S
C2438 H2446 0.930 . S
C2439 C2438 1.394 . S
C2439 C2440 1.383 . S
C2439 H2447 0.929 . S
C2440 C2439 1.383 . S
C2440 C2441 1.377 . S
C2441 H2425 0.930 . S
C2441 C2440 1.377 . S
C2441 C2442 1.379 . S
C2442 H2426 0.931 . S
C2442 C2436 1.383 . S
C2442 C2441 1.379 . S
H2443 C2437 0.959 . S
H2444 C2437 0.961 . S
H2445 C2437 0.960 . S
H2446 C2438 0.930 . S
H2447 C2439 0.929 . S
H2448 C2456 0.929 . S
H2449 C2458 0.930 . S
H2450 C2460 0.930 . S
H2451 C2463 0.929 . S
H2452 C2466 0.930 . S
H2453 C2468 0.960 . S
H2454 C2468 0.960 . S
H2455 C2468 0.960 . S
C2456 H2448 0.929 . S
C2456 C2457 1.377 . S
C2456 C2458 1.384 . S
C2457 C2456 1.377 . S
C2457 C2463 1.390 . S
C2458 H2449 0.930 . S
C2458 C2456 1.384 . S
C2458 C2459 1.372 . S
C2459 C2458 1.372 . S
C2459 C2460 1.400 . S
C2459 C2464 1.490 . S
C2460 H2450 0.930 . S
C2460 C2459 1.400 . S
C2460 C2463 1.386 . S
H2461 C2477 0.930 . S
H2462 C2478 0.931 . S
C2463 H2451 0.929 . S
C2463 C2457 1.390 . S
C2463 C2460 1.386 . S
C2464 C2459 1.490 . S
C2464 C2466 1.395 . S
C2464 C2467 1.403 . S
H2465 C2471 0.930 . S
C2466 H2452 0.930 . S
C2466 C2464 1.395 . S
C2466 C2469 1.403 . S
C2467 C2464 1.403 . S
C2467 C2468 1.524 . S
C2467 C2471 1.400 . S
C2468 H2453 0.960 . S
C2468 H2454 0.960 . S
C2468 H2455 0.960 . S
C2468 C2467 1.524 . S
C2469 C2466 1.403 . S
C2469 C2470 1.392 . S
C2469 C2473 1.495 . S
C2470 C2469 1.392 . S
C2470 C2471 1.385 . S
C2470 C2472 1.478 . S
C2471 H2465 0.930 . S
C2471 C2467 1.400 . S
C2471 C2470 1.385 . S
C2472 C2470 1.478 . S
C2472 C2474 1.381 . S
C2472 C2478 1.383 . S
C2473 C2469 1.495 . S
C2473 H2479 0.959 . S
C2473 H2480 0.961 . S
C2473 H2481 0.960 . S
C2474 C2472 1.381 . S
C2474 C2475 1.394 . S
C2474 H2482 0.930 . S
C2475 C2474 1.394 . S
C2475 C2476 1.383 . S
C2475 H2483 0.929 . S
C2476 C2475 1.383 . S
C2476 C2477 1.377 . S
C2477 H2461 0.930 . S
C2477 C2476 1.377 . S
C2477 C2478 1.379 . S
C2478 H2462 0.931 . S
C2478 C2472 1.383 . S
C2478 C2477 1.379 . S
H2479 C2473 0.959 . S
H2480 C2473 0.961 . S
H2481 C2473 0.960 . S
H2482 C2474 0.930 . S
H2483 C2475 0.929 . S
H2484 C2492 0.929 . S
H2485 C2494 0.930 . S
H2486 C2496 0.930 . S
H2487 C2499 0.929 . S
H2488 C2502 0.930 . S
H2489 C2504 0.960 . S
H2490 C2504 0.960 . S
H2491 C2504 0.960 . S
C2492 H2484 0.929 . S
C2492 C2493 1.377 . S
C2492 C2494 1.384 . S
C2493 C2492 1.377 . S
C2493 C2499 1.390 . S
C2494 H2485 0.930 . S
C2494 C2492 1.384 . S
C2494 C2495 1.372 . S
C2495 C2494 1.372 . S
C2495 C2496 1.400 . S
C2495 C2500 1.490 . S
C2496 H2486 0.930 . S
C2496 C2495 1.400 . S
C2496 C2499 1.386 . S
H2497 C2513 0.930 . S
H2498 C2514 0.931 . S
C2499 H2487 0.929 . S
C2499 C2493 1.390 . S
C2499 C2496 1.386 . S
C2500 C2495 1.490 . S
C2500 C2502 1.395 . S
C2500 C2503 1.403 . S
H2501 C2507 0.930 . S
C2502 H2488 0.930 . S
C2502 C2500 1.395 . S
C2502 C2505 1.403 . S
C2503 C2500 1.403 . S
C2503 C2504 1.524 . S
C2503 C2507 1.400 . S
C2504 H2489 0.960 . S
C2504 H2490 0.960 . S
C2504 H2491 0.960 . S
C2504 C2503 1.524 . S
C2505 C2502 1.403 . S
C2505 C2506 1.392 . S
C2505 C2509 1.495 . S
C2506 C2505 1.392 . S
C2506 C2507 1.385 . S
C2506 C2508 1.478 . S
C2507 H2501 0.930 . S
C2507 C2503 1.400 . S
C2507 C2506 1.385 . S
C2508 C2506 1.478 . S
C2508 C2510 1.381 . S
C2508 C2514 1.383 . S
C2509 C2505 1.495 . S
C2509 H2515 0.959 . S
C2509 H2516 0.961 . S
C2509 H2517 0.960 . S
C2510 C2508 1.381 . S
C2510 C2511 1.394 . S
C2510 H2518 0.930 . S
C2511 C2510 1.394 . S
C2511 C2512 1.383 . S
C2511 H2519 0.929 . S
C2512 C2511 1.383 . S
C2512 C2513 1.377 . S
C2513 H2497 0.930 . S
C2513 C2512 1.377 . S
C2513 C2514 1.379 . S
C2514 H2498 0.931 . S
C2514 C2508 1.383 . S
C2514 C2513 1.379 . S
H2515 C2509 0.959 . S
H2516 C2509 0.961 . S
H2517 C2509 0.960 . S
H2518 C2510 0.930 . S
H2519 C2511 0.929 . S
H2520 C2528 0.929 . S
H2521 C2530 0.930 . S
H2522 C2532 0.930 . S
H2523 C2535 0.929 . S
H2524 C2538 0.930 . S
H2525 C2540 0.960 . S
H2526 C2540 0.960 . S
H2527 C2540 0.960 . S
C2528 H2520 0.929 . S
C2528 C2529 1.377 . S
C2528 C2530 1.384 . S
C2529 C2528 1.377 . S
C2529 C2535 1.390 . S
C2530 H2521 0.930 . S
C2530 C2528 1.384 . S
C2530 C2531 1.372 . S
C2531 C2530 1.372 . S
C2531 C2532 1.400 . S
C2531 C2536 1.490 . S
C2532 H2522 0.930 . S
C2532 C2531 1.400 . S
C2532 C2535 1.386 . S
H2533 C2549 0.930 . S
H2534 C2550 0.931 . S
C2535 H2523 0.929 . S
C2535 C2529 1.390 . S
C2535 C2532 1.386 . S
C2536 C2531 1.490 . S
C2536 C2538 1.395 . S
C2536 C2539 1.403 . S
H2537 C2543 0.930 . S
C2538 H2524 0.930 . S
C2538 C2536 1.395 . S
C2538 C2541 1.403 . S
C2539 C2536 1.403 . S
C2539 C2540 1.524 . S
C2539 C2543 1.400 . S
C2540 H2525 0.960 . S
C2540 H2526 0.960 . S
C2540 H2527 0.960 . S
C2540 C2539 1.524 . S
C2541 C2538 1.403 . S
C2541 C2542 1.392 . S
C2541 C2545 1.495 . S
C2542 C2541 1.392 . S
C2542 C2543 1.385 . S
C2542 C2544 1.478 . S
C2543 H2537 0.930 . S
C2543 C2539 1.400 . S
C2543 C2542 1.385 . S
C2544 C2542 1.478 . S
C2544 C2546 1.381 . S
C2544 C2550 1.383 . S
C2545 C2541 1.495 . S
C2545 H2551 0.959 . S
C2545 H2552 0.961 . S
C2545 H2553 0.960 . S
C2546 C2544 1.381 . S
C2546 C2547 1.394 . S
C2546 H2554 0.930 . S
C2547 C2546 1.394 . S
C2547 C2548 1.383 . S
C2547 H2555 0.929 . S
C2548 C2547 1.383 . S
C2548 C2549 1.377 . S
C2549 H2533 0.930 . S
C2549 C2548 1.377 . S
C2549 C2550 1.379 . S
C2550 H2534 0.931 . S
C2550 C2544 1.383 . S
C2550 C2549 1.379 . S
H2551 C2545 0.959 . S
H2552 C2545 0.961 . S
H2553 C2545 0.960 . S
H2554 C2546 0.930 . S
H2555 C2547 0.929 . S
H2556 C2564 0.929 . S
H2557 C2566 0.930 . S
H2558 C2568 0.930 . S
H2559 C2571 0.929 . S
H2560 C2574 0.930 . S
H2561 C2576 0.960 . S
H2562 C2576 0.960 . S
H2563 C2576 0.960 . S
C2564 H2556 0.929 . S
C2564 C2565 1.377 . S
C2564 C2566 1.384 . S
C2565 C2564 1.377 . S
C2565 C2571 1.390 . S
C2566 H2557 0.930 . S
C2566 C2564 1.384 . S
C2566 C2567 1.372 . S
C2567 C2566 1.372 . S
C2567 C2568 1.400 . S
C2567 C2572 1.490 . S
C2568 H2558 0.930 . S
C2568 C2567 1.400 . S
C2568 C2571 1.386 . S
H2569 C2585 0.930 . S
H2570 C2586 0.931 . S
C2571 H2559 0.929 . S
C2571 C2565 1.390 . S
C2571 C2568 1.386 . S
C2572 C2567 1.490 . S
C2572 C2574 1.395 . S
C2572 C2575 1.403 . S
H2573 C2579 0.930 . S
C2574 H2560 0.930 . S
C2574 C2572 1.395 . S
C2574 C2577 1.403 . S
C2575 C2572 1.403 . S
C2575 C2576 1.524 . S
C2575 C2579 1.400 . S
C2576 H2561 0.960 . S
C2576 H2562 0.960 . S
C2576 H2563 0.960 . S
C2576 C2575 1.524 . S
C2577 C2574 1.403 . S
C2577 C2578 1.392 . S
C2577 C2581 1.495 . S
C2578 C2577 1.392 . S
C2578 C2579 1.385 . S
C2578 C2580 1.478 . S
C2579 H2573 0.930 . S
C2579 C2575 1.400 . S
C2579 C2578 1.385 . S
C2580 C2578 1.478 . S
C2580 C2582 1.381 . S
C2580 C2586 1.383 . S
C2581 C2577 1.495 . S
C2581 H2587 0.959 . S
C2581 H2588 0.961 . S
C2581 H2589 0.960 . S
C2582 C2580 1.381 . S
C2582 C2583 1.394 . S
C2582 H2590 0.930 . S
C2583 C2582 1.394 . S
C2583 C2584 1.383 . S
C2583 H2591 0.929 . S
C2584 C2583 1.383 . S
C2584 C2585 1.377 . S
C2585 H2569 0.930 . S
C2585 C2584 1.377 . S
C2585 C2586 1.379 . S
C2586 H2570 0.931 . S
C2586 C2580 1.383 . S
C2586 C2585 1.379 . S
H2587 C2581 0.959 . S
H2588 C2581 0.961 . S
H2589 C2581 0.960 . S
H2590 C2582 0.930 . S
H2591 C2583 0.929 . S
H2592 C2600 0.929 . S
H2593 C2602 0.930 . S
H2594 C2604 0.930 . S
H2595 C2607 0.929 . S
H2596 C2610 0.930 . S
H2597 C2612 0.960 . S
H2598 C2612 0.960 . S
H2599 C2612 0.960 . S
C2600 H2592 0.929 . S
C2600 C2601 1.377 . S
C2600 C2602 1.384 . S
C2601 C2600 1.377 . S
C2601 C2607 1.390 . S
C2602 H2593 0.930 . S
C2602 C2600 1.384 . S
C2602 C2603 1.372 . S
C2603 C2602 1.372 . S
C2603 C2604 1.400 . S
C2603 C2608 1.490 . S
C2604 H2594 0.930 . S
C2604 C2603 1.400 . S
C2604 C2607 1.386 . S
H2605 C2621 0.930 . S
H2606 C2622 0.931 . S
C2607 H2595 0.929 . S
C2607 C2601 1.390 . S
C2607 C2604 1.386 . S
C2608 C2603 1.490 . S
C2608 C2610 1.395 . S
C2608 C2611 1.403 . S
H2609 C2615 0.930 . S
C2610 H2596 0.930 . S
C2610 C2608 1.395 . S
C2610 C2613 1.403 . S
C2611 C2608 1.403 . S
C2611 C2612 1.524 . S
C2611 C2615 1.400 . S
C2612 H2597 0.960 . S
C2612 H2598 0.960 . S
C2612 H2599 0.960 . S
C2612 C2611 1.524 . S
C2613 C2610 1.403 . S
C2613 C2614 1.392 . S
C2613 C2617 1.495 . S
C2614 C2613 1.392 . S
C2614 C2615 1.385 . S
C2614 C2616 1.478 . S
C2615 H2609 0.930 . S
C2615 C2611 1.400 . S
C2615 C2614 1.385 . S
C2616 C2614 1.478 . S
C2616 C2618 1.381 . S
C2616 C2622 1.383 . S
C2617 C2613 1.495 . S
C2617 H2623 0.959 . S
C2617 H2624 0.961 . S
C2617 H2625 0.960 . S
C2618 C2616 1.381 . S
C2618 C2619 1.394 . S
C2618 H2626 0.930 . S
C2619 C2618 1.394 . S
C2619 C2620 1.383 . S
C2619 H2627 0.929 . S
C2620 C2619 1.383 . S
C2620 C2621 1.377 . S
C2621 H2605 0.930 . S
C2621 C2620 1.377 . S
C2621 C2622 1.379 . S
C2622 H2606 0.931 . S
C2622 C2616 1.383 . S
C2622 C2621 1.379 . S
H2623 C2617 0.959 . S
H2624 C2617 0.961 . S
H2625 C2617 0.960 . S
H2626 C2618 0.930 . S
H2627 C2619 0.929 . S
H2628 C2636 0.929 . S
H2629 C2638 0.930 . S
H2630 C2640 0.930 . S
H2631 C2643 0.929 . S
H2632 C2646 0.930 . S
H2633 C2648 0.960 . S
H2634 C2648 0.960 . S
H2635 C2648 0.960 . S
C2636 H2628 0.929 . S
C2636 C2637 1.377 . S
C2636 C2638 1.384 . S
C2637 C2636 1.377 . S
C2637 C2643 1.390 . S
C2638 H2629 0.930 . S
C2638 C2636 1.384 . S
C2638 C2639 1.372 . S
C2639 C2638 1.372 . S
C2639 C2640 1.400 . S
C2639 C2644 1.490 . S
C2640 H2630 0.930 . S
C2640 C2639 1.400 . S
C2640 C2643 1.386 . S
H2641 C2657 0.930 . S
H2642 C2658 0.931 . S
C2643 H2631 0.929 . S
C2643 C2637 1.390 . S
C2643 C2640 1.386 . S
C2644 C2639 1.490 . S
C2644 C2646 1.395 . S
C2644 C2647 1.403 . S
H2645 C2651 0.930 . S
C2646 H2632 0.930 . S
C2646 C2644 1.395 . S
C2646 C2649 1.403 . S
C2647 C2644 1.403 . S
C2647 C2648 1.524 . S
C2647 C2651 1.400 . S
C2648 H2633 0.960 . S
C2648 H2634 0.960 . S
C2648 H2635 0.960 . S
C2648 C2647 1.524 . S
C2649 C2646 1.403 . S
C2649 C2650 1.392 . S
C2649 C2653 1.495 . S
C2650 C2649 1.392 . S
C2650 C2651 1.385 . S
C2650 C2652 1.478 . S
C2651 H2645 0.930 . S
C2651 C2647 1.400 . S
C2651 C2650 1.385 . S
C2652 C2650 1.478 . S
C2652 C2654 1.381 . S
C2652 C2658 1.383 . S
C2653 C2649 1.495 . S
C2653 H2659 0.959 . S
C2653 H2660 0.961 . S
C2653 H2661 0.960 . S
C2654 C2652 1.381 . S
C2654 C2655 1.394 . S
C2654 H2662 0.930 . S
C2655 C2654 1.394 . S
C2655 C2656 1.383 . S
C2655 H2663 0.929 . S
C2656 C2655 1.383 . S
C2656 C2657 1.377 . S
C2657 H2641 0.930 . S
C2657 C2656 1.377 . S
C2657 C2658 1.379 . S
C2658 H2642 0.931 . S
C2658 C2652 1.383 . S
C2658 C2657 1.379 . S
H2659 C2653 0.959 . S
H2660 C2653 0.961 . S
H2661 C2653 0.960 . S
H2662 C2654 0.930 . S
H2663 C2655 0.929 . S
H2664 C2672 0.929 . S
H2665 C2674 0.930 . S
H2666 C2676 0.930 . S
H2667 C2679 0.929 . S
H2668 C2682 0.930 . S
H2669 C2684 0.960 . S
H2670 C2684 0.960 . S
H2671 C2684 0.960 . S
C2672 H2664 0.929 . S
C2672 C2673 1.377 . S
C2672 C2674 1.384 . S
C2673 C2672 1.377 . S
C2673 C2679 1.390 . S
C2674 H2665 0.930 . S
C2674 C2672 1.384 . S
C2674 C2675 1.372 . S
C2675 C2674 1.372 . S
C2675 C2676 1.400 . S
C2675 C2680 1.490 . S
C2676 H2666 0.930 . S
C2676 C2675 1.400 . S
C2676 C2679 1.386 . S
H2677 C2693 0.930 . S
H2678 C2694 0.931 . S
C2679 H2667 0.929 . S
C2679 C2673 1.390 . S
C2679 C2676 1.386 . S
C2680 C2675 1.490 . S
C2680 C2682 1.395 . S
C2680 C2683 1.403 . S
H2681 C2687 0.930 . S
C2682 H2668 0.930 . S
C2682 C2680 1.395 . S
C2682 C2685 1.403 . S
C2683 C2680 1.403 . S
C2683 C2684 1.524 . S
C2683 C2687 1.400 . S
C2684 H2669 0.960 . S
C2684 H2670 0.960 . S
C2684 H2671 0.960 . S
C2684 C2683 1.524 . S
C2685 C2682 1.403 . S
C2685 C2686 1.392 . S
C2685 C2689 1.495 . S
C2686 C2685 1.392 . S
C2686 C2687 1.385 . S
C2686 C2688 1.478 . S
C2687 H2681 0.930 . S
C2687 C2683 1.400 . S
C2687 C2686 1.385 . S
C2688 C2686 1.478 . S
C2688 C2690 1.381 . S
C2688 C2694 1.383 . S
C2689 C2685 1.495 . S
C2689 H2695 0.959 . S
C2689 H2696 0.961 . S
C2689 H2697 0.960 . S
C2690 C2688 1.381 . S
C2690 C2691 1.394 . S
C2690 H2698 0.930 . S
C2691 C2690 1.394 . S
C2691 C2692 1.383 . S
C2691 H2699 0.929 . S
C2692 C2691 1.383 . S
C2692 C2693 1.377 . S
C2693 H2677 0.930 . S
C2693 C2692 1.377 . S
C2693 C2694 1.379 . S
C2694 H2678 0.931 . S
C2694 C2688 1.383 . S
C2694 C2693 1.379 . S
H2695 C2689 0.959 . S
H2696 C2689 0.961 . S
H2697 C2689 0.960 . S
H2698 C2690 0.930 . S
H2699 C2691 0.929 . S
H2700 C2708 0.929 . S
H2701 C2710 0.930 . S
H2702 C2712 0.930 . S
H2703 C2715 0.929 . S
H2704 C2718 0.930 . S
H2705 C2720 0.960 . S
H2706 C2720 0.960 . S
H2707 C2720 0.960 . S
C2708 H2700 0.929 . S
C2708 C2709 1.377 . S
C2708 C2710 1.384 . S
C2709 C2708 1.377 . S
C2709 C2715 1.390 . S
C2710 H2701 0.930 . S
C2710 C2708 1.384 . S
C2710 C2711 1.372 . S
C2711 C2710 1.372 . S
C2711 C2712 1.400 . S
C2711 C2716 1.490 . S
C2712 H2702 0.930 . S
C2712 C2711 1.400 . S
C2712 C2715 1.386 . S
H2713 C2729 0.930 . S
H2714 C2730 0.931 . S
C2715 H2703 0.929 . S
C2715 C2709 1.390 . S
C2715 C2712 1.386 . S
C2716 C2711 1.490 . S
C2716 C2718 1.395 . S
C2716 C2719 1.403 . S
H2717 C2723 0.930 . S
C2718 H2704 0.930 . S
C2718 C2716 1.395 . S
C2718 C2721 1.403 . S
C2719 C2716 1.403 . S
C2719 C2720 1.524 . S
C2719 C2723 1.400 . S
C2720 H2705 0.960 . S
C2720 H2706 0.960 . S
C2720 H2707 0.960 . S
C2720 C2719 1.524 . S
C2721 C2718 1.403 . S
C2721 C2722 1.392 . S
C2721 C2725 1.495 . S
C2722 C2721 1.392 . S
C2722 C2723 1.385 . S
C2722 C2724 1.478 . S
C2723 H2717 0.930 . S
C2723 C2719 1.400 . S
C2723 C2722 1.385 . S
C2724 C2722 1.478 . S
C2724 C2726 1.381 . S
C2724 C2730 1.383 . S
C2725 C2721 1.495 . S
C2725 H2731 0.959 . S
C2725 H2732 0.961 . S
C2725 H2733 0.960 . S
C2726 C2724 1.381 . S
C2726 C2727 1.394 . S
C2726 H2734 0.930 . S
C2727 C2726 1.394 . S
C2727 C2728 1.383 . S
C2727 H2735 0.929 . S
C2728 C2727 1.383 . S
C2728 C2729 1.377 . S
C2729 H2713 0.930 . S
C2729 C2728 1.377 . S
C2729 C2730 1.379 . S
C2730 H2714 0.931 . S
C2730 C2724 1.383 . S
C2730 C2729 1.379 . S
H2731 C2725 0.959 . S
H2732 C2725 0.961 . S
H2733 C2725 0.960 . S
H2734 C2726 0.930 . S
H2735 C2727 0.929 . S
H2736 C2744 0.929 . S
H2737 C2746 0.930 . S
H2738 C2748 0.930 . S
H2739 C2751 0.929 . S
H2740 C2754 0.930 . S
H2741 C2756 0.960 . S
H2742 C2756 0.960 . S
H2743 C2756 0.960 . S
C2744 H2736 0.929 . S
C2744 C2745 1.377 . S
C2744 C2746 1.384 . S
C2745 C2744 1.377 . S
C2745 C2751 1.390 . S
C2746 H2737 0.930 . S
C2746 C2744 1.384 . S
C2746 C2747 1.372 . S
C2747 C2746 1.372 . S
C2747 C2748 1.400 . S
C2747 C2752 1.490 . S
C2748 H2738 0.930 . S
C2748 C2747 1.400 . S
C2748 C2751 1.386 . S
H2749 C2765 0.930 . S
H2750 C2766 0.931 . S
C2751 H2739 0.929 . S
C2751 C2745 1.390 . S
C2751 C2748 1.386 . S
C2752 C2747 1.490 . S
C2752 C2754 1.395 . S
C2752 C2755 1.403 . S
H2753 C2759 0.930 . S
C2754 H2740 0.930 . S
C2754 C2752 1.395 . S
C2754 C2757 1.403 . S
C2755 C2752 1.403 . S
C2755 C2756 1.524 . S
C2755 C2759 1.400 . S
C2756 H2741 0.960 . S
C2756 H2742 0.960 . S
C2756 H2743 0.960 . S
C2756 C2755 1.524 . S
C2757 C2754 1.403 . S
C2757 C2758 1.392 . S
C2757 C2761 1.495 . S
C2758 C2757 1.392 . S
C2758 C2759 1.385 . S
C2758 C2760 1.478 . S
C2759 H2753 0.930 . S
C2759 C2755 1.400 . S
C2759 C2758 1.385 . S
C2760 C2758 1.478 . S
C2760 C2762 1.381 . S
C2760 C2766 1.383 . S
C2761 C2757 1.495 . S
C2761 H2767 0.959 . S
C2761 H2768 0.961 . S
C2761 H2769 0.960 . S
C2762 C2760 1.381 . S
C2762 C2763 1.394 . S
C2762 H2770 0.930 . S
C2763 C2762 1.394 . S
C2763 C2764 1.383 . S
C2763 H2771 0.929 . S
C2764 C2763 1.383 . S
C2764 C2765 1.377 . S
C2765 H2749 0.930 . S
C2765 C2764 1.377 . S
C2765 C2766 1.379 . S
C2766 H2750 0.931 . S
C2766 C2760 1.383 . S
C2766 C2765 1.379 . S
H2767 C2761 0.959 . S
H2768 C2761 0.961 . S
H2769 C2761 0.960 . S
H2770 C2762 0.930 . S
H2771 C2763 0.929 . S
H2772 C2780 0.929 . S
H2773 C2782 0.930 . S
H2774 C2784 0.930 . S
H2775 C2787 0.929 . S
H2776 C2790 0.930 . S
H2777 C2792 0.960 . S
H2778 C2792 0.960 . S
H2779 C2792 0.960 . S
C2780 H2772 0.929 . S
C2780 C2781 1.377 . S
C2780 C2782 1.384 . S
C2781 C2780 1.377 . S
C2781 C2787 1.390 . S
C2782 H2773 0.930 . S
C2782 C2780 1.384 . S
C2782 C2783 1.372 . S
C2783 C2782 1.372 . S
C2783 C2784 1.400 . S
C2783 C2788 1.490 . S
C2784 H2774 0.930 . S
C2784 C2783 1.400 . S
C2784 C2787 1.386 . S
H2785 C2801 0.930 . S
H2786 C2802 0.931 . S
C2787 H2775 0.929 . S
C2787 C2781 1.390 . S
C2787 C2784 1.386 . S
C2788 C2783 1.490 . S
C2788 C2790 1.395 . S
C2788 C2791 1.403 . S
H2789 C2795 0.930 . S
C2790 H2776 0.930 . S
C2790 C2788 1.395 . S
C2790 C2793 1.403 . S
C2791 C2788 1.403 . S
C2791 C2792 1.524 1_554 S
C2791 C2795 1.400 . S
C2792 H2777 0.960 . S
C2792 H2778 0.960 . S
C2792 H2779 0.960 . S
C2792 C2791 1.524 1_556 S
C2793 C2790 1.403 . S
C2793 C2794 1.392 . S
C2793 C2797 1.495 . S
C2794 C2793 1.392 . S
C2794 C2795 1.385 . S
C2794 C2796 1.478 . S
C2795 H2789 0.930 . S
C2795 C2791 1.400 . S
C2795 C2794 1.385 . S
C2796 C2794 1.478 . S
C2796 C2798 1.381 . S
C2796 C2802 1.383 . S
C2797 C2793 1.495 . S
C2797 H2803 0.959 . S
C2797 H2804 0.961 . S
C2797 H2805 0.960 . S
C2798 C2796 1.381 . S
C2798 C2799 1.394 . S
C2798 H2806 0.930 . S
C2799 C2798 1.394 . S
C2799 C2800 1.383 . S
C2799 H2807 0.929 . S
C2800 C2799 1.383 . S
C2800 C2801 1.377 . S
C2801 H2785 0.930 . S
C2801 C2800 1.377 . S
C2801 C2802 1.379 . S
C2802 H2786 0.931 . S
C2802 C2796 1.383 . S
C2802 C2801 1.379 . S
H2803 C2797 0.959 . S
H2804 C2797 0.961 . S
H2805 C2797 0.960 . S
H2806 C2798 0.930 . S
H2807 C2799 0.929 . S
H2808 C2816 0.929 . S
H2809 C2818 0.930 . S
H2810 C2820 0.930 . S
H2811 C2823 0.929 . S
H2812 C2826 0.930 . S
H2813 C2828 0.960 . S
H2814 C2828 0.960 . S
H2815 C2828 0.960 . S
C2816 H2808 0.929 . S
C2816 C2817 1.377 . S
C2816 C2818 1.384 . S
C2817 C2816 1.377 . S
C2817 C2823 1.390 . S
C2818 H2809 0.930 . S
C2818 C2816 1.384 . S
C2818 C2819 1.372 . S
C2819 C2818 1.372 . S
C2819 C2820 1.400 . S
C2819 C2824 1.490 . S
C2820 H2810 0.930 . S
C2820 C2819 1.400 . S
C2820 C2823 1.386 . S
H2821 C2837 0.930 . S
H2822 C2838 0.931 . S
C2823 H2811 0.929 . S
C2823 C2817 1.390 . S
C2823 C2820 1.386 . S
C2824 C2819 1.490 . S
C2824 C2826 1.395 . S
C2824 C2827 1.403 . S
H2825 C2831 0.930 . S
C2826 H2812 0.930 . S
C2826 C2824 1.395 . S
C2826 C2829 1.403 . S
C2827 C2824 1.403 . S
C2827 C2828 1.524 . S
C2827 C2831 1.400 . S
C2828 H2813 0.960 . S
C2828 H2814 0.960 . S
C2828 H2815 0.960 . S
C2828 C2827 1.524 . S
C2829 C2826 1.403 . S
C2829 C2830 1.392 . S
C2829 C2833 1.495 . S
C2830 C2829 1.392 . S
C2830 C2831 1.385 . S
C2830 C2832 1.478 . S
C2831 H2825 0.930 . S
C2831 C2827 1.400 . S
C2831 C2830 1.385 . S
C2832 C2830 1.478 . S
C2832 C2834 1.381 . S
C2832 C2838 1.383 . S
C2833 C2829 1.495 . S
C2833 H2839 0.959 . S
C2833 H2840 0.961 . S
C2833 H2841 0.960 . S
C2834 C2832 1.381 . S
C2834 C2835 1.394 . S
C2834 H2842 0.930 . S
C2835 C2834 1.394 . S
C2835 C2836 1.383 . S
C2835 H2843 0.929 . S
C2836 C2835 1.383 . S
C2836 C2837 1.377 . S
C2837 H2821 0.930 . S
C2837 C2836 1.377 . S
C2837 C2838 1.379 . S
C2838 H2822 0.931 . S
C2838 C2832 1.383 . S
C2838 C2837 1.379 . S
H2839 C2833 0.959 . S
H2840 C2833 0.961 . S
H2841 C2833 0.960 . S
H2842 C2834 0.930 . S
H2843 C2835 0.929 . S
H2844 C2852 0.929 . S
H2845 C2854 0.930 . S
H2846 C2856 0.930 . S
H2847 C2859 0.929 . S
H2848 C2862 0.930 . S
H2849 C2864 0.960 . S
H2850 C2864 0.960 . S
H2851 C2864 0.960 . S
C2852 H2844 0.929 . S
C2852 C2853 1.377 . S
C2852 C2854 1.384 . S
C2853 C2852 1.377 . S
C2853 C2859 1.390 . S
C2854 H2845 0.930 . S
C2854 C2852 1.384 . S
C2854 C2855 1.372 . S
C2855 C2854 1.372 . S
C2855 C2856 1.400 . S
C2855 C2860 1.490 . S
C2856 H2846 0.930 . S
C2856 C2855 1.400 . S
C2856 C2859 1.386 . S
H2857 C2873 0.930 . S
H2858 C2874 0.931 . S
C2859 H2847 0.929 . S
C2859 C2853 1.390 . S
C2859 C2856 1.386 . S
C2860 C2855 1.490 . S
C2860 C2862 1.395 . S
C2860 C2863 1.403 . S
H2861 C2867 0.930 . S
C2862 H2848 0.930 . S
C2862 C2860 1.395 . S
C2862 C2865 1.403 . S
C2863 C2860 1.403 . S
C2863 C2864 1.524 . S
C2863 C2867 1.400 . S
C2864 H2849 0.960 . S
C2864 H2850 0.960 . S
C2864 H2851 0.960 . S
C2864 C2863 1.524 . S
C2865 C2862 1.403 . S
C2865 C2866 1.392 . S
C2865 C2869 1.495 . S
C2866 C2865 1.392 . S
C2866 C2867 1.385 . S
C2866 C2868 1.478 . S
C2867 H2861 0.930 . S
C2867 C2863 1.400 . S
C2867 C2866 1.385 . S
C2868 C2866 1.478 . S
C2868 C2870 1.381 . S
C2868 C2874 1.383 . S
C2869 C2865 1.495 . S
C2869 H2875 0.959 . S
C2869 H2876 0.961 . S
C2869 H2877 0.960 . S
C2870 C2868 1.381 . S
C2870 C2871 1.394 . S
C2870 H2878 0.921 1_554 S
C2871 C2870 1.394 . S
C2871 C2872 1.383 . S
C2871 H2879 0.929 . S
C2872 C2871 1.383 . S
C2872 C2873 1.377 . S
C2873 H2857 0.930 . S
C2873 C2872 1.377 . S
C2873 C2874 1.379 . S
C2874 H2858 0.931 . S
C2874 C2868 1.383 . S
C2874 C2873 1.379 . S
H2875 C2869 0.959 . S
H2876 C2869 0.961 . S
H2877 C2869 0.960 . S
H2878 C2870 0.921 1_556 S
H2879 C2871 0.929 . S
H2880 C2888 0.929 . S
H2881 C2890 0.930 . S
H2882 C2892 0.930 . S
H2883 C2895 0.929 . S
H2884 C2898 0.930 . S
H2885 C2900 0.960 . S
H2886 C2900 0.960 . S
H2887 C2900 0.960 . S
C2888 H2880 0.929 . S
C2888 C2889 1.377 . S
C2888 C2890 1.384 . S
C2889 C2888 1.377 . S
C2889 C2895 1.390 . S
C2890 H2881 0.930 . S
C2890 C2888 1.384 . S
C2890 C2891 1.372 . S
C2891 C2890 1.372 . S
C2891 C2892 1.400 . S
C2891 C2896 1.490 . S
C2892 H2882 0.930 . S
C2892 C2891 1.400 . S
C2892 C2895 1.386 . S
H2893 C2909 0.930 . S
H2894 C2910 0.931 . S
C2895 H2883 0.929 . S
C2895 C2889 1.390 . S
C2895 C2892 1.386 . S
C2896 C2891 1.490 . S
C2896 C2898 1.395 . S
C2896 C2899 1.403 . S
H2897 C2903 0.930 . S
C2898 H2884 0.930 . S
C2898 C2896 1.395 . S
C2898 C2901 1.403 . S
C2899 C2896 1.403 . S
C2899 C2900 1.524 . S
C2899 C2903 1.400 . S
C2900 H2885 0.960 . S
C2900 H2886 0.960 . S
C2900 H2887 0.960 . S
C2900 C2899 1.524 . S
C2901 C2898 1.403 . S
C2901 C2902 1.392 . S
C2901 C2905 1.495 . S
C2902 C2901 1.392 . S
C2902 C2903 1.385 . S
C2902 C2904 1.478 . S
C2903 H2897 0.930 . S
C2903 C2899 1.400 . S
C2903 C2902 1.385 . S
C2904 C2902 1.478 . S
C2904 C2906 1.381 . S
C2904 C2910 1.383 . S
C2905 C2901 1.495 . S
C2905 H2911 0.959 . S
C2905 H2912 0.961 . S
C2905 H2913 0.960 . S
C2906 C2904 1.381 . S
C2906 C2907 1.394 . S
C2906 H2914 0.930 . S
C2907 C2906 1.394 . S
C2907 C2908 1.383 . S
C2907 H2915 0.929 . S
C2908 C2907 1.383 . S
C2908 C2909 1.377 . S
C2909 H2893 0.930 . S
C2909 C2908 1.377 . S
C2909 C2910 1.379 . S
C2910 H2894 0.931 . S
C2910 C2904 1.383 . S
C2910 C2909 1.379 . S
H2911 C2905 0.959 . S
H2912 C2905 0.961 . S
H2913 C2905 0.960 . S
H2914 C2906 0.930 . S
H2915 C2907 0.929 . S
H2916 C2924 0.929 . S
H2917 C2926 0.930 . S
H2918 C2928 0.930 . S
H2919 C2931 0.929 . S
H2920 C2934 0.930 . S
H2921 C2936 0.960 . S
H2922 C2936 0.960 . S
H2923 C2936 0.960 . S
C2924 H2916 0.929 . S
C2924 C2925 1.377 . S
C2924 C2926 1.384 . S
C2925 C2924 1.377 . S
C2925 C2931 1.390 . S
C2926 H2917 0.930 . S
C2926 C2924 1.384 . S
C2926 C2927 1.372 . S
C2927 C2926 1.372 . S
C2927 C2928 1.400 . S
C2927 C2932 1.490 . S
C2928 H2918 0.930 . S
C2928 C2927 1.400 . S
C2928 C2931 1.386 . S
H2929 C2945 0.930 . S
H2930 C2946 0.931 . S
C2931 H2919 0.929 . S
C2931 C2925 1.390 . S
C2931 C2928 1.386 . S
C2932 C2927 1.490 . S
C2932 C2934 1.395 . S
C2932 C2935 1.403 . S
H2933 C2939 0.930 . S
C2934 H2920 0.930 . S
C2934 C2932 1.395 . S
C2934 C2937 1.403 . S
C2935 C2932 1.403 . S
C2935 C2936 1.524 . S
C2935 C2939 1.400 . S
C2936 H2921 0.960 . S
C2936 H2922 0.960 . S
C2936 H2923 0.960 . S
C2936 C2935 1.524 . S
C2937 C2934 1.403 . S
C2937 C2938 1.392 . S
C2937 C2941 1.495 . S
C2938 C2937 1.392 . S
C2938 C2939 1.385 . S
C2938 C2940 1.478 . S
C2939 H2933 0.930 . S
C2939 C2935 1.400 . S
C2939 C2938 1.385 . S
C2940 C2938 1.478 . S
C2940 C2942 1.381 . S
C2940 C2946 1.383 . S
C2941 C2937 1.495 . S
C2941 H2947 0.959 . S
C2941 H2948 0.961 . S
C2941 H2949 0.960 . S
C2942 C2940 1.381 . S
C2942 C2943 1.394 . S
C2942 H2950 0.930 . S
C2943 C2942 1.394 . S
C2943 C2944 1.383 . S
C2943 H2951 0.929 . S
C2944 C2943 1.383 . S
C2944 C2945 1.377 . S
C2945 H2929 0.930 . S
C2945 C2944 1.377 . S
C2945 C2946 1.379 . S
C2946 H2930 0.931 . S
C2946 C2940 1.383 . S
C2946 C2945 1.379 . S
H2947 C2941 0.959 . S
H2948 C2941 0.961 . S
H2949 C2941 0.960 . S
H2950 C2942 0.930 . S
H2951 C2943 0.929 . S
H2952 C2960 0.929 . S
H2953 C2962 0.930 . S
H2954 C2964 0.930 . S
H2955 C2967 0.929 . S
H2956 C2970 0.930 . S
H2957 C2972 0.960 . S
H2958 C2972 0.960 . S
H2959 C2972 0.960 . S
C2960 H2952 0.929 . S
C2960 C2961 1.377 . S
C2960 C2962 1.384 . S
C2961 C2960 1.377 . S
C2961 C2967 1.390 . S
C2962 H2953 0.930 . S
C2962 C2960 1.384 . S
C2962 C2963 1.372 . S
C2963 C2962 1.372 . S
C2963 C2964 1.400 . S
C2963 C2968 1.490 . S
C2964 H2954 0.930 . S
C2964 C2963 1.400 . S
C2964 C2967 1.386 . S
H2965 C2981 0.930 . S
H2966 C2982 0.931 . S
C2967 H2955 0.929 . S
C2967 C2961 1.390 . S
C2967 C2964 1.386 . S
C2968 C2963 1.490 . S
C2968 C2970 1.395 . S
C2968 C2971 1.403 . S
H2969 C2975 0.930 . S
C2970 H2956 0.930 . S
C2970 C2968 1.395 . S
C2970 C2973 1.403 . S
C2971 C2968 1.403 . S
C2971 C2972 1.524 . S
C2971 C2975 1.400 . S
C2972 H2957 0.960 . S
C2972 H2958 0.960 . S
C2972 H2959 0.960 . S
C2972 C2971 1.524 . S
C2973 C2970 1.403 . S
C2973 C2974 1.392 . S
C2973 C2977 1.495 1_556 S
C2974 C2973 1.392 . S
C2974 C2975 1.385 . S
C2974 C2976 1.478 . S
C2975 H2969 0.930 . S
C2975 C2971 1.400 . S
C2975 C2974 1.385 . S
C2976 C2974 1.478 . S
C2976 C2978 1.381 . S
C2976 C2982 1.383 . S
C2977 C2973 1.495 1_554 S
C2977 H2983 0.959 . S
C2977 H2984 0.961 . S
C2977 H2985 0.960 . S
C2978 C2976 1.381 . S
C2978 C2979 1.394 . S
C2978 H2986 0.930 . S
C2979 C2978 1.394 . S
C2979 C2980 1.383 . S
C2979 H2987 0.929 . S
C2980 C2979 1.383 . S
C2980 C2981 1.377 . S
C2981 H2965 0.930 . S
C2981 C2980 1.377 . S
C2981 C2982 1.379 . S
C2982 H2966 0.931 . S
C2982 C2976 1.383 . S
C2982 C2981 1.379 . S
H2983 C2977 0.959 . S
H2984 C2977 0.961 . S
H2985 C2977 0.960 . S
H2986 C2978 0.930 . S
H2987 C2979 0.929 . S
H2988 C2996 0.929 . S
H2989 C2998 0.930 . S
H2990 C3000 0.930 . S
H2991 C3003 0.929 . S
H2992 C3006 0.930 . S
H2993 C3008 0.960 . S
H2994 C3008 0.960 . S
H2995 C3008 0.960 . S
C2996 H2988 0.929 . S
C2996 C2997 1.377 . S
C2996 C2998 1.384 . S
C2997 C2996 1.377 . S
C2997 C3003 1.390 . S
C2998 H2989 0.930 . S
C2998 C2996 1.384 . S
C2998 C2999 1.372 . S
C2999 C2998 1.372 . S
C2999 C3000 1.400 . S
C2999 C3004 1.490 . S
C3000 H2990 0.930 . S
C3000 C2999 1.400 . S
C3000 C3003 1.386 . S
H3001 C3017 0.930 . S
H3002 C3018 0.931 . S
C3003 H2991 0.929 . S
C3003 C2997 1.390 . S
C3003 C3000 1.386 . S
C3004 C2999 1.490 . S
C3004 C3006 1.395 . S
C3004 C3007 1.403 . S
H3005 C3011 0.930 . S
C3006 H2992 0.930 . S
C3006 C3004 1.395 . S
C3006 C3009 1.403 . S
C3007 C3004 1.403 . S
C3007 C3008 1.524 . S
C3007 C3011 1.400 . S
C3008 H2993 0.960 . S
C3008 H2994 0.960 . S
C3008 H2995 0.960 . S
C3008 C3007 1.524 . S
C3009 C3006 1.403 . S
C3009 C3010 1.392 . S
C3009 C3013 1.495 . S
C3010 C3009 1.392 . S
C3010 C3011 1.385 . S
C3010 C3012 1.478 . S
C3011 H3005 0.930 . S
C3011 C3007 1.400 . S
C3011 C3010 1.385 . S
C3012 C3010 1.478 . S
C3012 C3014 1.381 . S
C3012 C3018 1.383 . S
C3013 C3009 1.495 . S
C3013 H3019 0.959 . S
C3013 H3020 0.961 . S
C3013 H3021 0.960 . S
C3014 C3012 1.381 . S
C3014 C3015 1.394 . S
C3014 H3022 0.930 . S
C3015 C3014 1.394 . S
C3015 C3016 1.383 . S
C3015 H3023 0.929 . S
C3016 C3015 1.383 . S
C3016 C3017 1.377 . S
C3017 H3001 0.930 . S
C3017 C3016 1.377 . S
C3017 C3018 1.379 . S
C3018 H3002 0.931 . S
C3018 C3012 1.383 . S
C3018 C3017 1.379 . S
H3019 C3013 0.959 . S
H3020 C3013 0.961 . S
H3021 C3013 0.960 . S
H3022 C3014 0.930 . S
H3023 C3015 0.929 . S
H3024 C3032 0.929 . S
H3025 C3034 0.930 . S
H3026 C3036 0.930 . S
H3027 C3039 0.929 . S
H3028 C3042 0.930 . S
H3029 C3044 0.960 . S
H3030 C3044 0.960 . S
H3031 C3044 0.960 . S
C3032 H3024 0.929 . S
C3032 C3033 1.377 . S
C3032 C3034 1.384 . S
C3033 C3032 1.377 . S
C3033 C3039 1.390 . S
C3034 H3025 0.930 . S
C3034 C3032 1.384 . S
C3034 C3035 1.372 . S
C3035 C3034 1.372 . S
C3035 C3036 1.400 . S
C3035 C3040 1.490 . S
C3036 H3026 0.930 . S
C3036 C3035 1.400 . S
C3036 C3039 1.386 . S
H3037 C3053 0.930 . S
H3038 C3054 0.931 . S
C3039 H3027 0.929 . S
C3039 C3033 1.390 . S
C3039 C3036 1.386 . S
C3040 C3035 1.490 . S
C3040 C3042 1.395 . S
C3040 C3043 1.403 . S
H3041 C3047 0.930 . S
C3042 H3028 0.930 . S
C3042 C3040 1.395 . S
C3042 C3045 1.403 . S
C3043 C3040 1.403 . S
C3043 C3044 1.524 . S
C3043 C3047 1.400 . S
C3044 H3029 0.960 . S
C3044 H3030 0.960 . S
C3044 H3031 0.960 . S
C3044 C3043 1.524 . S
C3045 C3042 1.403 . S
C3045 C3046 1.392 . S
C3045 C3049 1.495 . S
C3046 C3045 1.392 . S
C3046 C3047 1.385 . S
C3046 C3048 1.478 . S
C3047 H3041 0.930 . S
C3047 C3043 1.400 . S
C3047 C3046 1.385 . S
C3048 C3046 1.478 . S
C3048 C3050 1.381 . S
C3048 C3054 1.383 . S
C3049 C3045 1.495 . S
C3049 H3055 0.959 . S
C3049 H3056 0.961 . S
C3049 H3057 0.960 . S
C3050 C3048 1.381 . S
C3050 C3051 1.394 . S
C3050 H3058 0.930 . S
C3051 C3050 1.394 . S
C3051 C3052 1.383 . S
C3051 H3059 0.929 . S
C3052 C3051 1.383 . S
C3052 C3053 1.377 . S
C3053 H3037 0.930 . S
C3053 C3052 1.377 . S
C3053 C3054 1.379 . S
C3054 H3038 0.931 . S
C3054 C3048 1.383 . S
C3054 C3053 1.379 . S
H3055 C3049 0.959 . S
H3056 C3049 0.961 . S
H3057 C3049 0.960 . S
H3058 C3050 0.930 . S
H3059 C3051 0.929 . S
H3060 C3068 0.929 . S
H3061 C3070 0.930 . S
H3062 C3072 0.930 . S
H3063 C3075 0.929 . S
H3064 C3078 0.930 . S
H3065 C3080 0.960 . S
H3066 C3080 0.960 . S
H3067 C3080 0.960 . S
C3068 H3060 0.929 . S
C3068 C3069 1.377 . S
C3068 C3070 1.384 . S
C3069 C3068 1.377 . S
C3069 C3075 1.390 . S
C3070 H3061 0.930 . S
C3070 C3068 1.384 . S
C3070 C3071 1.372 . S
C3071 C3070 1.372 . S
C3071 C3072 1.400 . S
C3071 C3076 1.490 . S
C3072 H3062 0.930 . S
C3072 C3071 1.400 . S
C3072 C3075 1.386 . S
H3073 C3089 0.930 . S
H3074 C3090 0.931 . S
C3075 H3063 0.929 . S
C3075 C3069 1.390 . S
C3075 C3072 1.386 . S
C3076 C3071 1.490 . S
C3076 C3078 1.395 . S
C3076 C3079 1.403 . S
H3077 C3083 0.930 . S
C3078 H3064 0.930 . S
C3078 C3076 1.395 . S
C3078 C3081 1.403 . S
C3079 C3076 1.403 . S
C3079 C3080 1.524 . S
C3079 C3083 1.400 . S
C3080 H3065 0.960 . S
C3080 H3066 0.960 . S
C3080 H3067 0.960 . S
C3080 C3079 1.524 . S
C3081 C3078 1.403 . S
C3081 C3082 1.392 . S
C3081 C3085 1.495 . S
C3082 C3081 1.392 . S
C3082 C3083 1.385 . S
C3082 C3084 1.478 . S
C3083 H3077 0.930 . S
C3083 C3079 1.400 . S
C3083 C3082 1.385 . S
C3084 C3082 1.478 . S
C3084 C3086 1.381 . S
C3084 C3090 1.383 . S
C3085 C3081 1.495 . S
C3085 H3091 0.959 . S
C3085 H3092 0.961 . S
C3085 H3093 0.960 . S
C3086 C3084 1.381 . S
C3086 C3087 1.394 . S
C3086 H3094 0.930 . S
C3087 C3086 1.394 . S
C3087 C3088 1.383 . S
C3087 H3095 0.929 . S
C3088 C3087 1.383 . S
C3088 C3089 1.377 . S
C3089 H3073 0.930 . S
C3089 C3088 1.377 . S
C3089 C3090 1.379 . S
C3090 H3074 0.931 . S
C3090 C3084 1.383 . S
C3090 C3089 1.379 . S
H3091 C3085 0.959 . S
H3092 C3085 0.961 . S
H3093 C3085 0.960 . S
H3094 C3086 0.930 . S
H3095 C3087 0.929 . S
C513 C76 1.210 . S
C532 C6 1.175 . S
C549 C48 1.215 . S
C568 C20 1.184 . S
C585 C34 1.214 . S
C604 C62 1.176 . S
C621 C90 1.215 . S
C640 C160 1.200 . S
C657 C104 1.203 . S
C676 C132 1.216 . S
C693 C146 1.203 . S
C712 C118 1.234 . S
C729 C174 1.206 . S
C748 C244 1.238 1_556 S
C765 C188 1.208 . S
C784 C216 1.179 1_556 S
C801 C202 1.215 . S
C820 C230 1.180 1_556 S
C837 C328 1.203 . S
C856 C258 1.210 1_556 S
C873 C272 1.204 1_556 S
C892 C300 1.238 . S
C909 C314 1.206 . S
C928 C286 1.240 1_556 S
C945 C412 1.211 . S
C964 C342 1.174 1_554 S
C981 C384 1.208 . S
C1000 C356 1.239 1_554 S
C1017 C398 1.214 . S
C1036 C370 1.223 1_554 S
C1053 C426 1.205 . S
C1072 C496 1.197 1_554 S
C1089 C440 1.204 . S
C1108 C468 1.238 1_554 S
C1125 C454 1.216 . S
C1144 C482 1.179 1_554 S
C1161 C78 2.138 . S
C1180 C8 2.138 . S
C1197 C22 2.139 . S
C1216 C50 2.125 . S
C1233 C64 2.136 . S
C1252 C36 2.137 . S
C1269 C92 2.136 . S
C1288 C162 2.126 . S
C1305 C106 2.136 . S
C1324 C134 2.127 . S
C1341 C148 2.138 . S
C1360 C120 2.138 . S
C1377 C176 2.138 . S
C1396 C246 2.139 . S
C1413 C218 2.138 . S
C1432 C190 2.125 . S
C1449 C232 2.139 . S
C1468 C204 2.125 . S
C1485 C260 2.137 . S
C1504 C330 2.130 . S
C1521 C274 2.139 . S
C1540 C302 2.141 . S
C1557 C316 2.136 . S
C1576 C288 2.125 . S
C1593 C414 2.138 . S
C1612 C344 2.125 . S
C1629 C358 2.139 . S
C1648 C386 2.126 . S
C1665 C372 2.136 . S
C1684 C400 2.131 . S
C1701 C498 2.136 . S
C1720 C428 2.125 . S
C1737 C470 2.137 . S
C1756 C442 2.128 . S
C1773 C484 2.139 . S
C1792 C456 2.138 . S
C1809 C233 1.598 . S
C1828 C9 1.580 . S
C1845 C247 1.594 . S
C1864 C23 1.603 . S
C1881 C219 1.595 . S
C1900 C37 1.592 . S
C1917 C51 1.599 . S
C1936 C373 1.598 . S
C1953 C65 1.595 . S
C1972 C345 1.604 . S
C1989 C79 1.596 . S
C2008 C359 1.607 . S
C2025 C93 1.596 . S
C2044 C485 1.588 . S
C2061 C107 1.595 . S
C2080 C499 1.607 . S
C2097 C121 1.594 . S
C2116 C471 1.597 . S
C2133 C135 1.594 . S
C2152 C289 1.598 . S
C2169 C261 1.599 . S
C2188 C149 1.580 . S
C2205 C275 1.599 . S
C2224 C163 1.598 . S
C2241 C401 1.596 . S
C2260 C177 1.607 . S
C2277 C191 1.594 . S
C2296 C415 1.595 . S
C2313 C205 1.599 . S
C2332 C387 1.601 . S
C2349 C303 1.595 . S
C2368 C457 1.593 . S
C2385 C317 1.598 . S
C2404 C429 1.581 . S
C2421 C443 1.599 . S
C2440 C331 1.583 . S
C2457 C7 1.426 . S
C2476 C147 1.394 . S
C2493 C161 1.417 . S
C2512 C21 1.439 . S
C2529 C133 1.421 . S
C2548 C35 1.446 . S
C2565 C49 1.424 . S
C2584 C119 1.395 . S
C2601 C63 1.428 . S
C2620 C91 1.417 . S
C2637 C77 1.427 . S
C2656 C105 1.416 . S
C2673 C175 1.427 . S
C2692 C315 1.426 . S
C2709 C329 1.426 . S
C2728 C189 1.429 . S
C2745 C301 1.424 . S
C2764 C203 1.396 . S
C2781 C217 1.425 . S
C2800 C287 1.394 . S
C2817 C231 1.420 . S
C2836 C259 1.407 . S
C2853 C273 1.426 . S
C2872 C245 1.428 . S
C2889 C343 1.427 . S
C2908 C483 1.422 . S
C2925 C497 1.419 . S
C2944 C357 1.410 . S
C2961 C371 1.420 . S
C2980 C469 1.446 . S
C2997 C385 1.420 . S
C3016 C455 1.446 . S
C3033 C427 1.428 . S
C3052 C399 1.415 . S
C3069 C413 1.427 . S
C3088 C441 1.400 . S
