# Generated by pormake.
# Topology unw, (4)-cn, num edge types: 1
# Building blocks:
#     Node 0, Type 0, BuildingBlock: GALJAG_clean_sbu_0, # of connection points: 4
#     Node 1, Type 0, BuildingBlock: GALJAG_clean_sbu_0, # of connection points: 4
#     Node 2, Type 0, BuildingBlock: GALJAG_clean_sbu_0, # of connection points: 4
#     Node 3, Type 0, BuildingBlock: GALJAG_clean_sbu_0, # of connection points: 4
#     Node 4, Type 0, BuildingBlock: GALJAG_clean_sbu_0, # of connection points: 4
#     Node 5, Type 0, BuildingBlock: GALJAG_clean_sbu_0, # of connection points: 4
#     Node 6, Type 0, BuildingBlock: GALJAG_clean_sbu_0, # of connection points: 4
#     Node 7, Type 0, BuildingBlock: GALJAG_clean_sbu_0, # of connection points: 4
#     Node 8, Type 0, BuildingBlock: GALJAG_clean_sbu_0, # of connection points: 4
#     Node 9, Type 0, BuildingBlock: GALJAG_clean_sbu_0, # of connection points: 4
#     Node 10, Type 0, BuildingBlock: GALJAG_clean_sbu_0, # of connection points: 4
#     Node 11, Type 0, BuildingBlock: GALJAG_clean_sbu_0, # of connection points: 4
#     Node 12, Type 0, BuildingBlock: GALJAG_clean_sbu_0, # of connection points: 4
#     Node 13, Type 0, BuildingBlock: GALJAG_clean_sbu_0, # of connection points: 4
#     Node 14, Type 0, BuildingBlock: GALJAG_clean_sbu_0, # of connection points: 4
#     Node 15, Type 0, BuildingBlock: GALJAG_clean_sbu_0, # of connection points: 4
#     Node 16, Type 0, BuildingBlock: GALJAG_clean_sbu_0, # of connection points: 4
#     Node 17, Type 0, BuildingBlock: GALJAG_clean_sbu_0, # of connection points: 4
#     Node 18, Type 0, BuildingBlock: GALJAG_clean_sbu_0, # of connection points: 4
#     Node 19, Type 0, BuildingBlock: GALJAG_clean_sbu_0, # of connection points: 4
#     Node 20, Type 0, BuildingBlock: GALJAG_clean_sbu_0, # of connection points: 4
#     Node 21, Type 0, BuildingBlock: GALJAG_clean_sbu_0, # of connection points: 4
#     Node 22, Type 0, BuildingBlock: GALJAG_clean_sbu_0, # of connection points: 4
#     Node 23, Type 0, BuildingBlock: GALJAG_clean_sbu_0, # of connection points: 4
#     Edge 24, Type (0, 0), BuildingBlock: ZUJKAS_clean_linker_0, # of connection points: 2
#     Edge 25, Type (0, 0), BuildingBlock: ZUJKAS_clean_linker_0, # of connection points: 2
#     Edge 26, Type (0, 0), BuildingBlock: ZUJKAS_clean_linker_0, # of connection points: 2
#     Edge 27, Type (0, 0), BuildingBlock: ZUJKAS_clean_linker_0, # of connection points: 2
#     Edge 28, Type (0, 0), BuildingBlock: ZUJKAS_clean_linker_0, # of connection points: 2
#     Edge 29, Type (0, 0), BuildingBlock: ZUJKAS_clean_linker_0, # of connection points: 2
#     Edge 30, Type (0, 0), BuildingBlock: ZUJKAS_clean_linker_0, # of connection points: 2
#     Edge 31, Type (0, 0), BuildingBlock: ZUJKAS_clean_linker_0, # of connection points: 2
#     Edge 32, Type (0, 0), BuildingBlock: ZUJKAS_clean_linker_0, # of connection points: 2
#     Edge 33, Type (0, 0), BuildingBlock: ZUJKAS_clean_linker_0, # of connection points: 2
#     Edge 34, Type (0, 0), BuildingBlock: ZUJKAS_clean_linker_0, # of connection points: 2
#     Edge 35, Type (0, 0), BuildingBlock: ZUJKAS_clean_linker_0, # of connection points: 2
#     Edge 36, Type (0, 0), BuildingBlock: ZUJKAS_clean_linker_0, # of connection points: 2
#     Edge 37, Type (0, 0), BuildingBlock: ZUJKAS_clean_linker_0, # of connection points: 2
#     Edge 38, Type (0, 0), BuildingBlock: ZUJKAS_clean_linker_0, # of connection points: 2
#     Edge 39, Type (0, 0), BuildingBlock: ZUJKAS_clean_linker_0, # of connection points: 2
#     Edge 40, Type (0, 0), BuildingBlock: ZUJKAS_clean_linker_0, # of connection points: 2
#     Edge 41, Type (0, 0), BuildingBlock: ZUJKAS_clean_linker_0, # of connection points: 2
#     Edge 42, Type (0, 0), BuildingBlock: ZUJKAS_clean_linker_0, # of connection points: 2
#     Edge 43, Type (0, 0), BuildingBlock: ZUJKAS_clean_linker_0, # of connection points: 2
#     Edge 44, Type (0, 0), BuildingBlock: ZUJKAS_clean_linker_0, # of connection points: 2
#     Edge 45, Type (0, 0), BuildingBlock: ZUJKAS_clean_linker_0, # of connection points: 2
#     Edge 46, Type (0, 0), BuildingBlock: ZUJKAS_clean_linker_0, # of connection points: 2
#     Edge 47, Type (0, 0), BuildingBlock: ZUJKAS_clean_linker_0, # of connection points: 2
#     Edge 48, Type (0, 0), BuildingBlock: ZUJKAS_clean_linker_0, # of connection points: 2
#     Edge 49, Type (0, 0), BuildingBlock: ZUJKAS_clean_linker_0, # of connection points: 2
#     Edge 50, Type (0, 0), BuildingBlock: ZUJKAS_clean_linker_0, # of connection points: 2
#     Edge 51, Type (0, 0), BuildingBlock: ZUJKAS_clean_linker_0, # of connection points: 2
#     Edge 52, Type (0, 0), BuildingBlock: ZUJKAS_clean_linker_0, # of connection points: 2
#     Edge 53, Type (0, 0), BuildingBlock: ZUJKAS_clean_linker_0, # of connection points: 2
#     Edge 54, Type (0, 0), BuildingBlock: ZUJKAS_clean_linker_0, # of connection points: 2
#     Edge 55, Type (0, 0), BuildingBlock: ZUJKAS_clean_linker_0, # of connection points: 2
#     Edge 56, Type (0, 0), BuildingBlock: ZUJKAS_clean_linker_0, # of connection points: 2
#     Edge 57, Type (0, 0), BuildingBlock: ZUJKAS_clean_linker_0, # of connection points: 2
#     Edge 58, Type (0, 0), BuildingBlock: ZUJKAS_clean_linker_0, # of connection points: 2
#     Edge 59, Type (0, 0), BuildingBlock: ZUJKAS_clean_linker_0, # of connection points: 2
#     Edge 60, Type (0, 0), BuildingBlock: ZUJKAS_clean_linker_0, # of connection points: 2
#     Edge 61, Type (0, 0), BuildingBlock: ZUJKAS_clean_linker_0, # of connection points: 2
#     Edge 62, Type (0, 0), BuildingBlock: ZUJKAS_clean_linker_0, # of connection points: 2
#     Edge 63, Type (0, 0), BuildingBlock: ZUJKAS_clean_linker_0, # of connection points: 2
#     Edge 64, Type (0, 0), BuildingBlock: ZUJKAS_clean_linker_0, # of connection points: 2
#     Edge 65, Type (0, 0), BuildingBlock: ZUJKAS_clean_linker_0, # of connection points: 2
#     Edge 66, Type (0, 0), BuildingBlock: ZUJKAS_clean_linker_0, # of connection points: 2
#     Edge 67, Type (0, 0), BuildingBlock: ZUJKAS_clean_linker_0, # of connection points: 2
#     Edge 68, Type (0, 0), BuildingBlock: ZUJKAS_clean_linker_0, # of connection points: 2
#     Edge 69, Type (0, 0), BuildingBlock: ZUJKAS_clean_linker_0, # of connection points: 2
#     Edge 70, Type (0, 0), BuildingBlock: ZUJKAS_clean_linker_0, # of connection points: 2
#     Edge 71, Type (0, 0), BuildingBlock: ZUJKAS_clean_linker_0, # of connection points: 2
# Relax obj value: 0.374
# Max RMSD: 0.256
# Mean RMSD: 0.255
data_MOF--net-unw--node1-GALJAG_clean_sbu_0--edge1-ZUJKAS_clean_linker_0
_symmetry_space_group_name_H-M    P1
_symmetry_Int_Tables_number       1
_symmetry_cell_setting            triclinic
loop_
_symmetry_equiv_pos_as_xyz
'x, y, z'
_cell_length_a     61.31104
_cell_length_b     61.311231
_cell_length_c     61.317982
_cell_angle_alpha  90.034728
_cell_angle_beta   90.016841
_cell_angle_gamma 90.065564
loop_
_atom_site_label
_atom_site_type_symbol
_atom_site_fract_x
_atom_site_fract_y
_atom_site_fract_z
_atom_type_partial_charge
In0 In 0.1153 0.38016 0.24824 0.0
O1 O 0.08331 0.3695 0.2325 0.0
O2 O 0.08279 0.38098 0.26541 0.0
C3 C 0.14763 0.37827 0.21897 0.0
C4 C 0.12532 0.34412 0.27086 0.0
C5 C 0.11981 0.42336 0.25247 0.0
O6 O 0.12811 0.37402 0.21354 0.0
O7 O 0.15046 0.38291 0.2388 0.0
O8 O 0.12659 0.41022 0.26692 0.0
O9 O 0.10921 0.41466 0.23703 0.0
C10 C 0.07231 0.37262 0.24973 0.0
O11 O 0.12673 0.36288 0.27949 0.0
O12 O 0.11942 0.34398 0.25116 0.0
In13 In 0.61369 0.12183 0.24325 0.0
O14 O 0.62923 0.13091 0.21035 0.0
O15 O 0.61811 0.15616 0.23153 0.0
C16 C 0.62183 0.0794 0.25003 0.0
C17 C 0.57107 0.12767 0.23523 0.0
C18 C 0.64106 0.13496 0.27473 0.0
O19 O 0.62818 0.08922 0.23302 0.0
O20 O 0.60969 0.09054 0.26244 0.0
O21 O 0.6206 0.13715 0.27676 0.0
O22 O 0.64722 0.12636 0.25711 0.0
C23 C 0.62688 0.15119 0.21363 0.0
O24 O 0.58001 0.13433 0.25262 0.0
O25 O 0.58324 0.11639 0.223 0.0
In26 In 0.88279 0.62428 0.24696 0.0
O27 O 0.87341 0.63978 0.27983 0.0
O28 O 0.87701 0.66002 0.25177 0.0
C29 C 0.87713 0.58104 0.2492 0.0
C30 C 0.92583 0.63225 0.24722 0.0
C31 C 0.84987 0.62771 0.21846 0.0
O32 O 0.87104 0.59369 0.26437 0.0
O33 O 0.8879 0.59011 0.2341 0.0
O34 O 0.86933 0.63192 0.21279 0.0
O35 O 0.8474 0.62237 0.23815 0.0
C36 C 0.87295 0.65887 0.27189 0.0
O37 O 0.91407 0.63623 0.2307 0.0
O38 O 0.91611 0.62274 0.26272 0.0
In39 In 0.38385 0.86822 0.26924 0.0
O40 O 0.35296 0.88712 0.26172 0.0
O41 O 0.37978 0.90473 0.2751 0.0
C42 C 0.36991 0.83777 0.24103 0.0
C43 C 0.36978 0.85627 0.30923 0.0
C44 C 0.42606 0.86895 0.25676 0.0
O45 O 0.36521 0.85771 0.23866 0.0
O46 O 0.38141 0.83344 0.25752 0.0
O47 O 0.41999 0.86098 0.27474 0.0
O48 O 0.41117 0.87848 0.24627 0.0
C49 C 0.35999 0.90499 0.2692 0.0
O50 O 0.37899 0.87437 0.3059 0.0
O51 O 0.36977 0.84369 0.29301 0.0
In52 In 0.12731 0.62691 0.74747 0.0
O53 O 0.13548 0.6395 0.71315 0.0
O54 O 0.12596 0.66213 0.73795 0.0
C55 C 0.13519 0.58389 0.74801 0.0
C56 C 0.08415 0.6331 0.74775 0.0
C57 C 0.16082 0.63663 0.77389 0.0
O58 O 0.1405 0.59574 0.73193 0.0
O59 O 0.12457 0.59355 0.7628 0.0
O60 O 0.14171 0.63413 0.78139 0.0
O61 O 0.16245 0.63488 0.75347 0.0
C62 C 0.13132 0.65912 0.71832 0.0
O63 O 0.09627 0.64003 0.76301 0.0
O64 O 0.09363 0.62119 0.73382 0.0
In65 In 0.38665 0.11519 0.75116 0.0
O66 O 0.37759 0.13322 0.71955 0.0
O67 O 0.35241 0.11955 0.73932 0.0
C68 C 0.42909 0.12169 0.75913 0.0
C69 C 0.38065 0.07299 0.74131 0.0
C70 C 0.37468 0.14279 0.78282 0.0
O71 O 0.41999 0.12856 0.7419 0.0
O72 O 0.41725 0.10964 0.771 0.0
O73 O 0.37003 0.12266 0.78401 0.0
O74 O 0.38498 0.14845 0.76598 0.0
C75 C 0.35735 0.13006 0.72237 0.0
O76 O 0.37422 0.0811 0.75919 0.0
O77 O 0.39172 0.08575 0.72945 0.0
In78 In 0.88504 0.37477 0.75992 0.0
O79 O 0.87167 0.40648 0.74579 0.0
O80 O 0.88785 0.40737 0.77663 0.0
C81 C 0.87854 0.3418 0.73204 0.0
C82 C 0.85211 0.36585 0.78714 0.0
C83 C 0.92836 0.36978 0.7588 0.0
O84 O 0.87512 0.3614 0.72633 0.0
O85 O 0.88476 0.33926 0.75148 0.0
O86 O 0.91702 0.36353 0.77492 0.0
O87 O 0.91797 0.38013 0.74428 0.0
C88 C 0.87675 0.41753 0.76254 0.0
O89 O 0.87178 0.36471 0.79349 0.0
O90 O 0.84958 0.37067 0.76732 0.0
In91 In 0.6199 0.8746 0.74742 0.0
O92 O 0.63167 0.86035 0.71481 0.0
O93 O 0.65501 0.8699 0.73889 0.0
C94 C 0.57697 0.86856 0.75232 0.0
C95 C 0.6272 0.91697 0.73982 0.0
C96 C 0.62855 0.84513 0.77835 0.0
O97 O 0.58721 0.86125 0.73591 0.0
O98 O 0.58806 0.88066 0.76485 0.0
O99 O 0.63162 0.86533 0.78176 0.0
O100 O 0.62166 0.8403 0.75957 0.0
C101 C 0.6516 0.86228 0.72009 0.0
O102 O 0.6331 0.90787 0.75741 0.0
O103 O 0.61594 0.90512 0.72721 0.0
In104 In 0.2349 0.11649 0.37415 0.0
O105 O 0.24659 0.12995 0.40673 0.0
O106 O 0.21559 0.11405 0.40545 0.0
C107 C 0.26474 0.12417 0.34319 0.0
C108 C 0.20721 0.14792 0.36187 0.0
C109 C 0.23884 0.07316 0.37035 0.0
O110 O 0.26847 0.12901 0.36297 0.0
O111 O 0.24628 0.11589 0.33949 0.0
O112 O 0.22237 0.08331 0.36307 0.0
O113 O 0.25216 0.08471 0.38113 0.0
C114 C 0.22912 0.12495 0.4166 0.0
O115 O 0.20227 0.12795 0.35957 0.0
O116 O 0.22581 0.15153 0.36986 0.0
In117 In 0.85805 0.27021 0.37168 0.0
O118 O 0.8691 0.30597 0.37045 0.0
O119 O 0.83884 0.29749 0.35605 0.0
C120 C 0.8592 0.25687 0.41354 0.0
C121 C 0.89369 0.26592 0.34643 0.0
C122 C 0.82267 0.24678 0.36087 0.0
O123 O 0.85213 0.27544 0.40811 0.0
O124 O 0.86742 0.24602 0.39812 0.0
O125 O 0.84169 0.24077 0.35555 0.0
O126 O 0.82173 0.26464 0.37106 0.0
C127 C 0.85316 0.31196 0.35888 0.0
O128 O 0.87465 0.26244 0.33935 0.0
O129 O 0.89481 0.26959 0.36669 0.0
In130 In 0.74972 0.87532 0.37178 0.0
O131 O 0.78535 0.86444 0.36948 0.0
O132 O 0.76377 0.85529 0.344 0.0
C133 C 0.74694 0.917 0.35806 0.0
C134 C 0.75689 0.86468 0.41387 0.0
C135 C 0.71127 0.86043 0.35655 0.0
O136 O 0.7578 0.90272 0.34796 0.0
O137 O 0.7392 0.91068 0.37606 0.0
O138 O 0.728 0.84858 0.35813 0.0
O139 O 0.71341 0.87928 0.36451 0.0
C140 C 0.78259 0.85372 0.35213 0.0
O141 O 0.74284 0.85511 0.40226 0.0
O142 O 0.7659 0.88081 0.4048 0.0
In143 In 0.14412 0.74121 0.35733 0.0
O144 O 0.13555 0.70508 0.3545 0.0
O145 O 0.16198 0.71724 0.33558 0.0
C146 C 0.15482 0.74342 0.39992 0.0
C147 C 0.10446 0.74515 0.33882 0.0
C148 C 0.17079 0.77429 0.34642 0.0
O149 O 0.16442 0.73086 0.38675 0.0
O150 O 0.13846 0.75312 0.39205 0.0
O151 O 0.1533 0.77731 0.35686 0.0
O152 O 0.17391 0.75491 0.34019 0.0
C153 C 0.14954 0.70137 0.33984 0.0
O154 O 0.12176 0.75111 0.32939 0.0
O155 O 0.107 0.7393 0.35841 0.0
In156 In 0.2609 0.86251 0.61571 0.0
O157 O 0.25238 0.8964 0.62881 0.0
O158 O 0.28315 0.89186 0.61333 0.0
C159 C 0.22504 0.83803 0.6202 0.0
C160 C 0.28325 0.84697 0.65 0.0
C161 C 0.26173 0.85441 0.57275 0.0
O162 O 0.2244 0.85851 0.62326 0.0
O163 O 0.24351 0.83046 0.61521 0.0
O164 O 0.27505 0.84559 0.58586 0.0
O165 O 0.24957 0.8688 0.58114 0.0
C166 C 0.27077 0.90445 0.6239 0.0
O167 O 0.29229 0.84922 0.63157 0.0
O168 O 0.26336 0.85199 0.65063 0.0
In169 In 0.13956 0.27004 0.62801 0.0
O170 O 0.15453 0.24039 0.6448 0.0
O171 O 0.17577 0.26401 0.63058 0.0
C172 C 0.10317 0.2661 0.65218 0.0
C173 C 0.13943 0.25589 0.58631 0.0
C174 C 0.14444 0.3119 0.64078 0.0
O175 O 0.12186 0.2614 0.65948 0.0
O176 O 0.10271 0.27098 0.63216 0.0
O177 O 0.12894 0.30597 0.62856 0.0
O178 O 0.15838 0.29729 0.64444 0.0
C179 C 0.17392 0.24614 0.64061 0.0
O180 O 0.14752 0.27405 0.59175 0.0
O181 O 0.12984 0.24594 0.60153 0.0
In182 In 0.75415 0.12549 0.62577 0.0
O183 O 0.72162 0.13943 0.6381 0.0
O184 O 0.74398 0.12507 0.66072 0.0
C185 C 0.76006 0.13378 0.58337 0.0
C186 C 0.74622 0.08278 0.62939 0.0
C187 C 0.78401 0.15505 0.63764 0.0
O188 O 0.74331 0.14037 0.59356 0.0
O189 O 0.77262 0.12149 0.59419 0.0
O190 O 0.78805 0.13478 0.63888 0.0
O191 O 0.76514 0.15984 0.63099 0.0
C192 C 0.72573 0.13404 0.65767 0.0
O193 O 0.76366 0.09131 0.63661 0.0
O194 O 0.7341 0.09549 0.61856 0.0
In195 In 0.88018 0.74887 0.62287 0.0
O196 O 0.87072 0.7377 0.58876 0.0
O197 O 0.88517 0.76923 0.59273 0.0
C198 C 0.87308 0.71816 0.65288 0.0
C199 C 0.84552 0.77363 0.63217 0.0
C200 C 0.92288 0.74685 0.63102 0.0
O201 O 0.86963 0.71427 0.63282 0.0
O202 O 0.87927 0.73728 0.65731 0.0
O203 O 0.91131 0.76271 0.63756 0.0
O204 O 0.91322 0.73352 0.61852 0.0
C205 C 0.87603 0.75572 0.58007 0.0
O206 O 0.86473 0.78036 0.63601 0.0
O207 O 0.84422 0.75464 0.62435 0.0
In208 In 0.35944 0.25128 0.12117 0.0
O209 O 0.34359 0.23877 0.08999 0.0
O210 O 0.36428 0.26674 0.08804 0.0
C211 C 0.34764 0.2244 0.15359 0.0
C212 C 0.33197 0.28406 0.12978 0.0
C213 C 0.40208 0.24324 0.12656 0.0
O214 O 0.34586 0.21872 0.13378 0.0
O215 O 0.35479 0.24345 0.15661 0.0
O216 O 0.39334 0.26069 0.13333 0.0
O217 O 0.38965 0.23097 0.11556 0.0
C218 C 0.35108 0.25414 0.07838 0.0
O219 O 0.35244 0.28663 0.13152 0.0
O220 O 0.3259 0.26516 0.12435 0.0
In221 In 0.37141 0.74551 0.87767 0.0
O222 O 0.3724 0.7807 0.86556 0.0
O223 O 0.3442 0.76186 0.85848 0.0
C224 C 0.35691 0.74364 0.91919 0.0
C225 C 0.41393 0.75069 0.86753 0.0
C226 C 0.35482 0.70799 0.86179 0.0
O227 O 0.34788 0.75523 0.90479 0.0
O228 O 0.37436 0.73457 0.91311 0.0
O229 O 0.35672 0.72505 0.85046 0.0
O230 O 0.36285 0.70935 0.88067 0.0
C231 C 0.35433 0.77957 0.8558 0.0
O232 O 0.40182 0.73701 0.85801 0.0
O233 O 0.4051 0.76018 0.88353 0.0
In234 In 0.2285 0.35914 0.86108 0.0
O235 O 0.21888 0.34693 0.89503 0.0
O236 O 0.24754 0.3662 0.89201 0.0
C237 C 0.19043 0.35251 0.84011 0.0
C238 C 0.25597 0.32685 0.85054 0.0
C239 C 0.23305 0.39921 0.84381 0.0
O240 O 0.19178 0.36526 0.85625 0.0
O241 O 0.20765 0.34218 0.83589 0.0
O242 O 0.2412 0.38245 0.83498 0.0
O243 O 0.22428 0.39587 0.86214 0.0
C244 C 0.23566 0.35467 0.90421 0.0
O245 O 0.26158 0.34669 0.84906 0.0
O246 O 0.23656 0.32366 0.85659 0.0
In247 In 0.62945 0.25317 0.883 0.0
O248 O 0.5959 0.2626 0.87003 0.0
O249 O 0.59929 0.23259 0.88739 0.0
C250 C 0.65906 0.28432 0.87618 0.0
C251 C 0.64205 0.22688 0.85052 0.0
C252 C 0.63594 0.25765 0.92585 0.0
O253 O 0.6391 0.28758 0.8716 0.0
O254 O 0.6636 0.26558 0.88331 0.0
O255 O 0.64307 0.2413 0.91534 0.0
O256 O 0.62353 0.27018 0.9151 0.0
C257 C 0.58716 0.24486 0.87612 0.0
O258 O 0.64304 0.22068 0.87025 0.0
O259 O 0.63535 0.24611 0.84772 0.0
In260 In 0.75164 0.62546 0.87533 0.0
O261 O 0.76464 0.63768 0.90786 0.0
O262 O 0.73432 0.6204 0.90737 0.0
C263 C 0.77974 0.63473 0.84329 0.0
C264 C 0.72345 0.65781 0.86792 0.0
C265 C 0.75571 0.58262 0.86826 0.0
O266 O 0.78539 0.63621 0.86315 0.0
O267 O 0.76014 0.62931 0.8401 0.0
O268 O 0.73912 0.59314 0.86181 0.0
O269 O 0.7689 0.59338 0.87994 0.0
C270 C 0.74793 0.63142 0.91833 0.0
O271 O 0.7181 0.6381 0.86441 0.0
O272 O 0.74278 0.66073 0.87437 0.0
In273 In 0.63053 0.75261 0.12725 0.0
O274 O 0.64639 0.76433 0.09577 0.0
O275 O 0.62583 0.73614 0.09477 0.0
C276 C 0.63843 0.77943 0.16066 0.0
C277 C 0.66042 0.72246 0.13697 0.0
C278 C 0.58783 0.7596 0.13215 0.0
O279 O 0.64127 0.78577 0.14113 0.0
O280 O 0.63264 0.75979 0.16278 0.0
O281 O 0.5968 0.74212 0.13862 0.0
O282 O 0.60003 0.77219 0.12126 0.0
C283 C 0.63903 0.74843 0.08472 0.0
O284 O 0.64019 0.71797 0.13759 0.0
O285 O 0.665 0.74194 0.13208 0.0
In286 In 0.22082 0.63673 0.12724 0.0
O287 O 0.18472 0.62753 0.13046 0.0
O288 O 0.19541 0.65736 0.14437 0.0
C289 C 0.23125 0.63994 0.08454 0.0
C290 C 0.22324 0.59915 0.14969 0.0
C291 C 0.24907 0.66665 0.14218 0.0
O292 O 0.21429 0.6485 0.09243 0.0
O293 O 0.24173 0.6282 0.09775 0.0
O294 O 0.25361 0.64654 0.14184 0.0
O295 O 0.23026 0.67144 0.13536 0.0
C296 C 0.18011 0.64378 0.14222 0.0
O297 O 0.22936 0.61721 0.15749 0.0
O298 O 0.21758 0.59978 0.12985 0.0
In299 In 0.76982 0.36606 0.13048 0.0
O300 O 0.75664 0.39143 0.15434 0.0
O301 O 0.77969 0.40166 0.13043 0.0
C302 C 0.74122 0.33355 0.13583 0.0
C303 C 0.804 0.35392 0.1552 0.0
C304 C 0.76305 0.36463 0.08727 0.0
O305 O 0.73679 0.35282 0.14196 0.0
O306 O 0.76001 0.33096 0.12784 0.0
O307 O 0.77991 0.35647 0.09597 0.0
O308 O 0.75114 0.37549 0.10011 0.0
C309 C 0.76864 0.40659 0.1471 0.0
O310 O 0.80677 0.36446 0.13767 0.0
O311 O 0.78453 0.34876 0.15917 0.0
H312 H 0.20722 0.55941 0.1375 0.0
H313 H 0.19226 0.5313 0.16154 0.0
H314 H 0.21292 0.56816 0.21779 0.0
H315 H 0.22789 0.59641 0.19387 0.0
H316 H 0.21081 0.50591 0.19666 0.0
H317 H 0.14541 0.56268 0.22405 0.0
H318 H 0.16196 0.56802 0.20029 0.0
H319 H 0.17308 0.57193 0.22707 0.0
C320 C 0.20904 0.5613 0.15496 0.0
C321 C 0.21863 0.58017 0.16379 0.0
C322 C 0.20041 0.54527 0.16868 0.0
C323 C 0.20112 0.54791 0.19141 0.0
C324 C 0.2119 0.56604 0.20028 0.0
H325 H 0.15321 0.44224 0.27523 0.0
H326 H 0.17327 0.47515 0.26459 0.0
C327 C 0.22061 0.58204 0.18658 0.0
C328 C 0.18947 0.53224 0.2056 0.0
H329 H 0.14404 0.52668 0.23743 0.0
C330 C 0.1964 0.51047 0.20584 0.0
C331 C 0.17056 0.53832 0.21737 0.0
C332 C 0.16212 0.56145 0.21717 0.0
C333 C 0.18464 0.49443 0.21717 0.0
C334 C 0.16554 0.50041 0.22866 0.0
C335 C 0.15884 0.52227 0.22881 0.0
C336 C 0.15119 0.48365 0.23845 0.0
C337 C 0.19214 0.47101 0.21594 0.0
C338 C 0.13149 0.47835 0.22809 0.0
C339 C 0.12 0.45962 0.23412 0.0
C340 C 0.128 0.44596 0.25069 0.0
C341 C 0.14662 0.45246 0.26244 0.0
C342 C 0.15819 0.47116 0.25629 0.0
H343 H 0.2055 0.46871 0.20392 0.0
H344 H 0.19818 0.4658 0.23219 0.0
H345 H 0.17834 0.46016 0.21142 0.0
H346 H 0.1258 0.48786 0.21433 0.0
H347 H 0.10569 0.45506 0.2248 0.0
H348 H 0.54697 0.16057 0.25307 0.0
H349 H 0.51789 0.18104 0.23515 0.0
H350 H 0.51905 0.13582 0.18125 0.0
H351 H 0.54851 0.11556 0.19885 0.0
H352 H 0.52394 0.17792 0.16807 0.0
H353 H 0.45348 0.17177 0.22447 0.0
H354 H 0.47806 0.18108 0.23738 0.0
H355 H 0.47679 0.15392 0.22635 0.0
C356 C 0.54056 0.15458 0.23773 0.0
C357 C 0.55005 0.13647 0.22736 0.0
C358 C 0.52391 0.16632 0.22749 0.0
C359 C 0.51624 0.15995 0.20686 0.0
C360 C 0.52475 0.14105 0.19714 0.0
H361 H 0.42511 0.20813 0.11215 0.0
H362 H 0.45511 0.18995 0.13102 0.0
C363 C 0.54149 0.1294 0.20729 0.0
C364 C 0.50103 0.1741 0.19445 0.0
H365 H 0.45073 0.1979 0.19595 0.0
C366 C 0.50789 0.1822 0.17413 0.0
C367 C 0.48018 0.17986 0.20247 0.0
C368 C 0.47157 0.17106 0.22377 0.0
C369 C 0.49448 0.19589 0.16162 0.0
C370 C 0.47362 0.2015 0.16957 0.0
C371 C 0.46684 0.19368 0.18999 0.0
C372 C 0.45796 0.21433 0.1564 0.0
C373 C 0.5028 0.20439 0.14009 0.0
C374 C 0.44996 0.23433 0.16412 0.0
C375 C 0.4329 0.24488 0.15324 0.0
C376 C 0.42335 0.23535 0.13468 0.0
C377 C 0.43221 0.21593 0.12633 0.0
C378 C 0.44936 0.20551 0.13711 0.0
H379 H 0.52085 0.2033 0.13896 0.0
H380 H 0.49572 0.1945 0.12667 0.0
H381 H 0.49783 0.22162 0.13759 0.0
H382 H 0.45637 0.24136 0.17902 0.0
H383 H 0.42629 0.25972 0.16018 0.0
H384 H 0.7903 0.44278 0.13316 0.0
H385 H 0.80518 0.47201 0.15594 0.0
H386 H 0.77329 0.44461 0.21226 0.0
H387 H 0.75814 0.41534 0.18953 0.0
H388 H 0.78331 0.50308 0.18902 0.0
H389 H 0.84299 0.44314 0.22224 0.0
H390 H 0.82904 0.43864 0.19669 0.0
H391 H 0.81451 0.43587 0.22188 0.0
C392 C 0.78594 0.44331 0.15027 0.0
C393 C 0.77311 0.42675 0.15957 0.0
C394 C 0.7945 0.45998 0.16326 0.0
C395 C 0.79053 0.46025 0.18577 0.0
C396 C 0.7766 0.44455 0.19491 0.0
H397 H 0.84278 0.56288 0.27101 0.0
H398 H 0.82109 0.53151 0.25894 0.0
C399 C 0.76785 0.42796 0.18187 0.0
C400 C 0.80255 0.47582 0.19976 0.0
H401 H 0.84725 0.47972 0.23287 0.0
C402 C 0.79706 0.49799 0.1989 0.0
C403 C 0.82063 0.46905 0.21239 0.0
C404 C 0.82734 0.44541 0.21341 0.0
C405 C 0.80948 0.51367 0.21011 0.0
C406 C 0.8278 0.50693 0.22241 0.0
C407 C 0.83306 0.48473 0.22357 0.0
C408 C 0.84271 0.52306 0.23241 0.0
C409 C 0.8035 0.53746 0.20807 0.0
C410 C 0.86255 0.52792 0.22213 0.0
C411 C 0.87495 0.5458 0.22894 0.0
C412 C 0.86776 0.55901 0.24624 0.0
C413 C 0.84883 0.55294 0.25771 0.0
C414 C 0.83632 0.53514 0.25075 0.0
H415 H 0.7901 0.54016 0.19617 0.0
H416 H 0.7982 0.54374 0.22419 0.0
H417 H 0.81793 0.54712 0.2029 0.0
H418 H 0.86775 0.5187 0.20798 0.0
H419 H 0.88944 0.55009 0.21977 0.0
H420 H 0.56429 0.79495 0.1191 0.0
H421 H 0.53623 0.81382 0.14029 0.0
H422 H 0.5372 0.76216 0.18791 0.0
H423 H 0.56519 0.74306 0.16675 0.0
H424 H 0.49279 0.79802 0.1597 0.0
H425 H 0.55725 0.82171 0.21926 0.0
H426 H 0.56355 0.81332 0.19172 0.0
H427 H 0.55557 0.7934 0.21159 0.0
C428 C 0.55805 0.78726 0.13372 0.0
C429 C 0.567 0.76756 0.1413 0.0
C430 C 0.54211 0.79813 0.14586 0.0
C431 C 0.53502 0.78955 0.16582 0.0
C432 C 0.5427 0.76911 0.17263 0.0
H433 H 0.456 0.83937 0.27125 0.0
H434 H 0.48399 0.82147 0.24922 0.0
C435 C 0.55852 0.75813 0.16041 0.0
C436 C 0.52085 0.80273 0.1802 0.0
H437 H 0.52134 0.83319 0.22687 0.0
C438 C 0.49897 0.80575 0.17438 0.0
C439 C 0.52908 0.81275 0.19929 0.0
C440 C 0.55267 0.81033 0.2059 0.0
C441 C 0.48491 0.81826 0.18741 0.0
C442 C 0.49317 0.82854 0.20642 0.0
C443 C 0.5151 0.82546 0.21223 0.0
C444 C 0.47899 0.84183 0.22085 0.0
C445 C 0.46118 0.81982 0.18101 0.0
C446 C 0.46787 0.86009 0.21269 0.0
C447 C 0.45181 0.87033 0.22523 0.0
C448 C 0.44681 0.86262 0.24623 0.0
C449 C 0.45946 0.8457 0.25513 0.0
C450 C 0.4754 0.83536 0.24251 0.0
H451 H 0.45641 0.80662 0.16952 0.0
H452 H 0.45044 0.81894 0.19556 0.0
H453 H 0.45827 0.83566 0.17277 0.0
H454 H 0.47085 0.86576 0.19623 0.0
H455 H 0.44244 0.88341 0.21797 0.0
H456 H 0.21505 0.43678 0.85918 0.0
H457 H 0.20212 0.46765 0.8376 0.0
H458 H 0.23006 0.43917 0.77969 0.0
H459 H 0.2429 0.40802 0.80118 0.0
H460 H 0.22243 0.4982 0.80946 0.0
H461 H 0.16425 0.4438 0.76556 0.0
H462 H 0.17838 0.43533 0.78994 0.0
H463 H 0.19255 0.43632 0.76435 0.0
C464 C 0.21888 0.4373 0.84194 0.0
C465 C 0.22984 0.41989 0.83184 0.0
C466 C 0.21143 0.45492 0.82962 0.0
C467 C 0.21472 0.45544 0.80698 0.0
C468 C 0.22699 0.43885 0.79708 0.0
H469 H 0.16756 0.56346 0.72504 0.0
H470 H 0.18763 0.53068 0.73624 0.0
C471 C 0.2345 0.42119 0.80942 0.0
C472 C 0.20405 0.47266 0.79383 0.0
H473 H 0.16253 0.48134 0.75759 0.0
C474 C 0.20957 0.49451 0.79788 0.0
C475 C 0.1871 0.46776 0.77888 0.0
C476 C 0.18002 0.44457 0.77446 0.0
C477 C 0.1983 0.51161 0.78769 0.0
C478 C 0.18109 0.50671 0.77315 0.0
C479 C 0.17588 0.48492 0.76864 0.0
C480 C 0.16718 0.52421 0.76421 0.0
C481 C 0.20421 0.53489 0.79309 0.0
C482 C 0.14868 0.53083 0.77586 0.0
C483 C 0.13725 0.54948 0.76957 0.0
C484 C 0.1441 0.56177 0.75147 0.0
C485 C 0.16181 0.55424 0.73897 0.0
C486 C 0.17334 0.53561 0.74537 0.0
H487 H 0.21848 0.53599 0.80421 0.0
H488 H 0.20798 0.54395 0.77787 0.0
H489 H 0.1901 0.54307 0.80094 0.0
H490 H 0.14375 0.52219 0.79046 0.0
H491 H 0.1237 0.55487 0.77954 0.0
H492 H 0.56406 0.20913 0.88886 0.0
H493 H 0.53617 0.18999 0.86769 0.0
H494 H 0.53654 0.24176 0.82015 0.0
H495 H 0.56452 0.26106 0.84126 0.0
H496 H 0.49355 0.20248 0.85025 0.0
H497 H 0.5558 0.18546 0.78637 0.0
H498 H 0.56305 0.19467 0.8134 0.0
H499 H 0.55204 0.21355 0.79396 0.0
C500 C 0.55778 0.21675 0.87421 0.0
C501 C 0.56657 0.23654 0.86666 0.0
C502 C 0.54191 0.20574 0.86209 0.0
C503 C 0.53469 0.21424 0.84214 0.0
C504 C 0.5422 0.23478 0.83535 0.0
H505 H 0.4523 0.15576 0.74207 0.0
H506 H 0.47919 0.1781 0.76142 0.0
C507 C 0.558 0.2459 0.84756 0.0
C508 C 0.52051 0.20081 0.82788 0.0
H509 H 0.52056 0.17118 0.78063 0.0
C510 C 0.49939 0.19569 0.83499 0.0
C511 C 0.52824 0.19199 0.80799 0.0
C512 C 0.55107 0.1965 0.79994 0.0
C513 C 0.48573 0.182 0.8227 0.0
C514 C 0.49365 0.17272 0.80307 0.0
C515 C 0.51463 0.17816 0.79576 0.0
C516 C 0.4802 0.15743 0.78998 0.0
C517 C 0.46283 0.1778 0.83072 0.0
C518 C 0.4729 0.13773 0.79907 0.0
C519 C 0.45759 0.12491 0.78805 0.0
C520 C 0.44944 0.1315 0.76766 0.0
C521 C 0.45827 0.15021 0.75773 0.0
C522 C 0.47354 0.16309 0.76883 0.0
H523 H 0.45748 0.1904 0.8426 0.0
H524 H 0.45107 0.17746 0.81694 0.0
H525 H 0.46226 0.16173 0.839 0.0
H526 H 0.47828 0.13279 0.81515 0.0
H527 H 0.45118 0.11054 0.79609 0.0
H528 H 0.78839 0.5559 0.88184 0.0
H529 H 0.80534 0.52661 0.86083 0.0
H530 H 0.75541 0.5326 0.81167 0.0
H531 H 0.73833 0.56209 0.83262 0.0
H532 H 0.79021 0.48594 0.84276 0.0
H533 H 0.8136 0.54679 0.77947 0.0
H534 H 0.80405 0.55474 0.80616 0.0
H535 H 0.78509 0.54489 0.78614 0.0
C536 C 0.78065 0.55059 0.86686 0.0
C537 C 0.76212 0.56139 0.85881 0.0
C538 C 0.79041 0.53391 0.85483 0.0
C539 C 0.7819 0.52782 0.83448 0.0
C540 C 0.76242 0.53737 0.82718 0.0
H541 H 0.84253 0.43722 0.74166 0.0
H542 H 0.81864 0.46534 0.75712 0.0
C543 C 0.75255 0.55402 0.83929 0.0
C544 C 0.79445 0.51268 0.82045 0.0
H545 H 0.8264 0.51091 0.77476 0.0
C546 C 0.79794 0.49132 0.82778 0.0
C547 C 0.80456 0.51981 0.80093 0.0
C548 C 0.80184 0.54283 0.79268 0.0
C549 C 0.81156 0.47696 0.81631 0.0
C550 C 0.82226 0.48433 0.79723 0.0
C551 C 0.81823 0.50543 0.78945 0.0
C552 C 0.83842 0.47045 0.78588 0.0
C553 C 0.81461 0.45406 0.82478 0.0
C554 C 0.85801 0.46503 0.79635 0.0
C555 C 0.87171 0.44915 0.78753 0.0
C556 C 0.86605 0.43841 0.76807 0.0
C557 C 0.84738 0.44526 0.75662 0.0
C558 C 0.83364 0.46121 0.7655 0.0
H559 H 0.80154 0.44939 0.83644 0.0
H560 H 0.81479 0.44211 0.81116 0.0
H561 H 0.83049 0.45298 0.83339 0.0
H562 H 0.86212 0.47228 0.81194 0.0
H563 H 0.886 0.44429 0.79671 0.0
H564 H 0.55254 0.88096 0.7873 0.0
H565 H 0.52365 0.85975 0.80473 0.0
H566 H 0.52503 0.81372 0.75156 0.0
H567 H 0.55418 0.83475 0.73408 0.0
H568 H 0.48199 0.84407 0.79232 0.0
H569 H 0.54146 0.77688 0.80548 0.0
H570 H 0.5497 0.80381 0.79693 0.0
H571 H 0.53779 0.78523 0.77763 0.0
C572 C 0.54631 0.86665 0.779 0.0
C573 C 0.5558 0.85941 0.75942 0.0
C574 C 0.52986 0.85449 0.78904 0.0
C575 C 0.52264 0.83487 0.77972 0.0
C576 C 0.53074 0.82858 0.75925 0.0
H577 H 0.43369 0.73628 0.83026 0.0
H578 H 0.46132 0.75578 0.80899 0.0
C579 C 0.54721 0.84076 0.74916 0.0
C580 C 0.50786 0.82039 0.79224 0.0
H581 H 0.50564 0.77119 0.81839 0.0
C582 C 0.48711 0.82812 0.79796 0.0
C583 C 0.51468 0.79961 0.79968 0.0
C584 C 0.53717 0.79088 0.79482 0.0
C585 C 0.47294 0.81558 0.81086 0.0
C586 C 0.47988 0.79495 0.81853 0.0
C587 C 0.50047 0.78705 0.81254 0.0
C588 C 0.46581 0.78144 0.83279 0.0
C589 C 0.45056 0.82441 0.81604 0.0
C590 C 0.46013 0.7888 0.85369 0.0
C591 C 0.44449 0.77762 0.86596 0.0
C592 C 0.43427 0.7589 0.85748 0.0
C593 C 0.44127 0.75064 0.83725 0.0
C594 C 0.45696 0.76181 0.82502 0.0
H595 H 0.44596 0.83801 0.805 0.0
H596 H 0.43803 0.81138 0.81476 0.0
H597 H 0.45042 0.83067 0.83302 0.0
H598 H 0.4671 0.80371 0.86012 0.0
H599 H 0.43948 0.7844 0.88148 0.0
H600 H 0.16953 0.26831 0.55595 0.0
H601 H 0.18435 0.24584 0.52658 0.0
H602 H 0.13679 0.19587 0.54057 0.0
H603 H 0.1223 0.21803 0.5704 0.0
H604 H 0.17732 0.17958 0.54009 0.0
H605 H 0.16534 0.22978 0.46598 0.0
H606 H 0.17936 0.24426 0.48721 0.0
H607 H 0.1516 0.23561 0.49134 0.0
C608 C 0.16179 0.25283 0.55235 0.0
C609 C 0.14474 0.24494 0.56548 0.0
C610 C 0.17028 0.23998 0.53551 0.0
C611 C 0.16163 0.21918 0.53126 0.0
C612 C 0.14375 0.21184 0.54356 0.0
H613 H 0.19394 0.11495 0.4419 0.0
H614 H 0.17891 0.13689 0.47165 0.0
C615 C 0.13539 0.22459 0.56051 0.0
C616 C 0.17248 0.20426 0.51553 0.0
H617 H 0.18998 0.1998 0.46283 0.0
C618 C 0.17991 0.18395 0.52315 0.0
C619 C 0.17599 0.20998 0.49345 0.0
C620 C 0.16746 0.231 0.48394 0.0
C621 C 0.19097 0.16937 0.50939 0.0
C622 C 0.19466 0.17522 0.48744 0.0
C623 C 0.18728 0.19548 0.47977 0.0
C624 C 0.20539 0.16023 0.47184 0.0
C625 C 0.19891 0.14792 0.51843 0.0
C626 C 0.22553 0.16579 0.4625 0.0
C627 C 0.23429 0.15315 0.44565 0.0
C628 C 0.22282 0.13495 0.43763 0.0
C629 C 0.2032 0.1288 0.4478 0.0
C630 C 0.19458 0.14134 0.46478 0.0
H631 H 0.19861 0.14768 0.53654 0.0
H632 H 0.18824 0.13459 0.51239 0.0
H633 H 0.21578 0.14451 0.51279 0.0
H634 H 0.23408 0.18036 0.46773 0.0
H635 H 0.24933 0.15842 0.43802 0.0
H636 H 0.74312 0.16937 0.56267 0.0
H637 H 0.76023 0.19008 0.53308 0.0
H638 H 0.81056 0.14132 0.52786 0.0
H639 H 0.79366 0.12058 0.55745 0.0
H640 H 0.80586 0.20505 0.53767 0.0
H641 H 0.79173 0.15476 0.46346 0.0
H642 H 0.77464 0.15283 0.48739 0.0
H643 H 0.80115 0.14045 0.48727 0.0
C644 C 0.75744 0.16271 0.55477 0.0
C645 C 0.76705 0.14334 0.56238 0.0
C646 C 0.76728 0.17464 0.53799 0.0
C647 C 0.78664 0.16721 0.52834 0.0
C648 C 0.79551 0.14722 0.53498 0.0
H649 H 0.87372 0.21792 0.42929 0.0
H650 H 0.85801 0.19705 0.45943 0.0
C651 C 0.78581 0.13538 0.55187 0.0
C652 C 0.7987 0.18126 0.51283 0.0
H653 H 0.81614 0.18444 0.46014 0.0
C654 C 0.80804 0.20065 0.52067 0.0
C655 C 0.80171 0.17528 0.49081 0.0
C656 C 0.79168 0.15478 0.48158 0.0
C657 C 0.82062 0.21415 0.50707 0.0
C658 C 0.82345 0.20832 0.48492 0.0
C659 C 0.81407 0.18887 0.47714 0.0
C660 C 0.83546 0.22236 0.46924 0.0
C661 C 0.83115 0.23421 0.51672 0.0
C662 C 0.82858 0.24383 0.46521 0.0
C663 C 0.83779 0.25592 0.4482 0.0
C664 C 0.85376 0.24659 0.43466 0.0
C665 C 0.86148 0.22557 0.43948 0.0
C666 C 0.85242 0.21357 0.45661 0.0
H667 H 0.83331 0.2326 0.53464 0.0
H668 H 0.8473 0.23745 0.50921 0.0
H669 H 0.8205 0.24852 0.51373 0.0
H670 H 0.81524 0.25084 0.47441 0.0
H671 H 0.8313 0.27197 0.44473 0.0
H672 H 0.78988 0.88013 0.43948 0.0
H673 H 0.80991 0.85982 0.46735 0.0
H674 H 0.76471 0.80626 0.46103 0.0
H675 H 0.74442 0.82655 0.43328 0.0
H676 H 0.77806 0.81524 0.5047 0.0
H677 H 0.84834 0.80787 0.44809 0.0
H678 H 0.83951 0.83538 0.45291 0.0
H679 H 0.82165 0.81657 0.4392 0.0
C680 C 0.78388 0.86425 0.44439 0.0
C681 C 0.76568 0.85486 0.43405 0.0
C682 C 0.79547 0.85258 0.46015 0.0
C683 C 0.78912 0.83133 0.46577 0.0
C684 C 0.77001 0.82256 0.45671 0.0
H685 H 0.84603 0.73496 0.55434 0.0
H686 H 0.82539 0.75129 0.52427 0.0
C687 C 0.75837 0.83423 0.44095 0.0
C688 C 0.80302 0.81785 0.4802 0.0
H689 H 0.85392 0.79558 0.4844 0.0
C690 C 0.79458 0.81078 0.50024 0.0
C691 C 0.82451 0.81194 0.47418 0.0
C692 C 0.83403 0.81814 0.45234 0.0
C693 C 0.80737 0.79861 0.51481 0.0
C694 C 0.829 0.79305 0.50896 0.0
C695 C 0.83731 0.79981 0.48877 0.0
C696 C 0.84365 0.78151 0.52429 0.0
C697 C 0.7979 0.79243 0.53668 0.0
C698 C 0.86158 0.79256 0.53324 0.0
C699 C 0.87347 0.78323 0.55026 0.0
C700 C 0.86768 0.76265 0.55855 0.0
C701 C 0.8509 0.75083 0.54829 0.0
C702 C 0.83894 0.76022 0.53128 0.0
H703 H 0.78265 0.80151 0.5403 0.0
H704 H 0.79406 0.77474 0.53675 0.0
H705 H 0.80983 0.79562 0.54994 0.0
H706 H 0.86558 0.80893 0.52792 0.0
H707 H 0.88634 0.79272 0.55781 0.0
H708 H 0.14111 0.77558 0.42742 0.0
H709 H 0.16242 0.79289 0.4564 0.0
H710 H 0.21323 0.74513 0.44791 0.0
H711 H 0.1921 0.72773 0.41872 0.0
H712 H 0.1979 0.76014 0.49545 0.0
H713 H 0.22361 0.82435 0.4366 0.0
H714 H 0.19519 0.81685 0.43698 0.0
H715 H 0.21511 0.79746 0.42796 0.0
C716 C 0.15654 0.76837 0.43209 0.0
C717 C 0.16496 0.75032 0.42071 0.0
C718 C 0.16875 0.77838 0.44854 0.0
C719 C 0.18947 0.77043 0.45399 0.0
C720 C 0.19728 0.75153 0.4438 0.0
H721 H 0.27988 0.81825 0.55392 0.0
H722 H 0.26507 0.79764 0.52304 0.0
C723 C 0.18514 0.74155 0.42722 0.0
C724 C 0.20347 0.78277 0.46929 0.0
H725 H 0.23358 0.82949 0.47352 0.0
C726 C 0.20591 0.77518 0.49068 0.0
C727 C 0.21381 0.80236 0.46287 0.0
C728 C 0.21201 0.8108 0.43983 0.0
C729 C 0.21789 0.78713 0.50616 0.0
C730 C 0.22806 0.80693 0.49984 0.0
C731 C 0.2259 0.81427 0.47827 0.0
C732 C 0.23959 0.82094 0.51586 0.0
C733 C 0.21882 0.77894 0.52935 0.0
C734 C 0.23111 0.84153 0.52107 0.0
C735 C 0.23967 0.85345 0.53853 0.0
C736 C 0.2569 0.84498 0.55106 0.0
C737 C 0.26657 0.8252 0.54462 0.0
C738 C 0.25799 0.81329 0.52713 0.0
H739 H 0.20645 0.76606 0.53249 0.0
H740 H 0.23517 0.77191 0.53255 0.0
H741 H 0.21617 0.7925 0.54108 0.0
H742 H 0.21703 0.84783 0.51245 0.0
H743 H 0.23187 0.86864 0.54304 0.0
H744 H 0.61588 0.94026 0.70372 0.0
H745 H 0.63725 0.96911 0.6863 0.0
H746 H 0.68216 0.96885 0.74039 0.0
H747 H 0.66086 0.93996 0.75799 0.0
H748 H 0.65283 0.01207 0.70145 0.0
H749 H 0.71906 0.95223 0.68493 0.0
H750 H 0.69178 0.94392 0.69233 0.0
H751 H 0.70992 0.95453 0.71271 0.0
C752 C 0.62998 0.94673 0.71219 0.0
C753 C 0.63675 0.93776 0.73217 0.0
C754 C 0.64222 0.96314 0.70217 0.0
C755 C 0.6615 0.97073 0.71187 0.0
C756 C 0.66749 0.96293 0.73252 0.0
H757 H 0.76224 0.05808 0.66287 0.0
H758 H 0.74247 0.02951 0.68261 0.0
C759 C 0.65517 0.94659 0.74264 0.0
C760 C 0.67593 0.98577 0.69966 0.0
H761 H 0.72461 0.98823 0.67261 0.0
C762 C 0.66854 0.00692 0.69518 0.0
C763 C 0.69642 0.97893 0.69153 0.0
C764 C 0.70482 0.95613 0.69543 0.0
C765 C 0.68117 0.0215 0.68285 0.0
C766 C 0.70146 0.01452 0.67428 0.0
C767 C 0.709 0.99346 0.67905 0.0
C768 C 0.71501 0.02901 0.66045 0.0
C769 C 0.67281 0.0444 0.6794 0.0
C770 C 0.70673 0.03719 0.64075 0.0
C771 C 0.71798 0.05347 0.62944 0.0
C772 C 0.7378 0.06169 0.63754 0.0
C773 C 0.74703 0.05204 0.65618 0.0
C774 C 0.73569 0.03582 0.66757 0.0
H775 H 0.66019 0.04884 0.69161 0.0
H776 H 0.6863 0.05647 0.68036 0.0
H777 H 0.66532 0.04557 0.66297 0.0
H778 H 0.69106 0.03173 0.63468 0.0
H779 H 0.7105 0.0605 0.61507 0.0
H780 H 0.94991 0.71333 0.62035 0.0
H781 H 0.97728 0.69675 0.64406 0.0
H782 H 0.96954 0.74918 0.69024 0.0
H783 H 0.94198 0.76595 0.66661 0.0
H784 H 0.01641 0.72973 0.6803 0.0
H785 H 0.95112 0.67172 0.70508 0.0
H786 H 0.95423 0.67643 0.67628 0.0
H787 H 0.94529 0.69822 0.69362 0.0
C788 C 0.9545 0.72174 0.6352 0.0
C789 C 0.94364 0.74086 0.64169 0.0
C790 C 0.97005 0.71216 0.64878 0.0
C791 C 0.97505 0.72158 0.66901 0.0
C792 C 0.96574 0.74166 0.6747 0.0
H793 H 0.06576 0.6691 0.76657 0.0
H794 H 0.03668 0.69144 0.75075 0.0
C795 C 0.95012 0.75128 0.66111 0.0
C796 C 0.98831 0.70926 0.68491 0.0
H797 H 0.98708 0.66364 0.71681 0.0
C798 C 0.01 0.71546 0.68856 0.0
C799 C 0.97974 0.69071 0.69562 0.0
C800 C 0.95627 0.68386 0.69266 0.0
C801 C 0.02373 0.70293 0.70196 0.0
C802 C 0.01532 0.68399 0.71221 0.0
C803 C 0.99341 0.67821 0.70904 0.0
C804 C 0.02962 0.66892 0.72451 0.0
C805 C 0.04738 0.70944 0.70421 0.0
C806 C 0.03415 0.64823 0.71587 0.0
C807 C 0.0506 0.63537 0.72495 0.0
C808 C 0.06273 0.64298 0.74287 0.0
C809 C 0.05669 0.66276 0.75279 0.0
C810 C 0.04026 0.67568 0.74363 0.0
H811 H 0.05212 0.72222 0.69227 0.0
H812 H 0.05025 0.71597 0.72085 0.0
H813 H 0.05818 0.6951 0.70193 0.0
H814 H 0.02597 0.64264 0.70123 0.0
H815 H 0.05485 0.62019 0.71697 0.0
H816 H 0.39327 0.05162 0.70439 0.0
H817 H 0.37378 0.02198 0.68601 0.0
H818 H 0.32852 0.01818 0.73965 0.0
H819 H 0.34797 0.04779 0.75825 0.0
H820 H 0.36044 0.9773 0.70126 0.0
H821 H 0.29168 0.03376 0.68312 0.0
H822 H 0.31848 0.04349 0.69061 0.0
H823 H 0.30081 0.03213 0.71098 0.0
C824 C 0.37949 0.04412 0.71254 0.0
C825 C 0.3721 0.0521 0.73273 0.0
C826 C 0.36834 0.02725 0.70198 0.0
C827 C 0.34952 0.01822 0.71132 0.0
C828 C 0.34288 0.02518 0.73208 0.0
H829 H 0.25318 0.9282 0.65735 0.0
H830 H 0.27163 0.95662 0.67863 0.0
C831 C 0.35413 0.04195 0.74275 0.0
C832 C 0.3362 0.00248 0.69869 0.0
H833 H 0.28852 0.99772 0.6702 0.0
C834 C 0.34469 0.98169 0.69451 0.0
C835 C 0.31564 0.00832 0.69 0.0
C836 C 0.30605 0.03067 0.69372 0.0
C837 C 0.33311 0.96649 0.68186 0.0
C838 C 0.31279 0.97251 0.67263 0.0
C839 C 0.30414 0.9932 0.67714 0.0
C840 C 0.3004 0.95747 0.6582 0.0
C841 C 0.3426 0.94398 0.67883 0.0
C842 C 0.30992 0.94941 0.63902 0.0
C843 C 0.29946 0.93319 0.62688 0.0
C844 C 0.27913 0.92494 0.63354 0.0
C845 C 0.26881 0.93429 0.65176 0.0
C846 C 0.27939 0.95042 0.66401 0.0
H847 H 0.35467 0.94004 0.69175 0.0
H848 H 0.32963 0.93132 0.67895 0.0
H849 H 0.35112 0.94321 0.66288 0.0
H850 H 0.32584 0.95509 0.63387 0.0
H851 H 0.30777 0.92641 0.61284 0.0
H852 H 0.06183 0.27772 0.64055 0.0
H853 H 0.03365 0.2927 0.66447 0.0
H854 H 0.07408 0.27985 0.72054 0.0
H855 H 0.10243 0.26488 0.69672 0.0
H856 H 0.0111 0.27597 0.70345 0.0
H857 H 0.06492 0.34754 0.71962 0.0
H858 H 0.06901 0.32971 0.69651 0.0
H859 H 0.07612 0.32069 0.72338 0.0
C860 C 0.06451 0.27756 0.65801 0.0
C861 C 0.0844 0.27025 0.66674 0.0
C862 C 0.04842 0.28618 0.67165 0.0
C863 C 0.052 0.28772 0.69419 0.0
C864 C 0.07118 0.27906 0.70312 0.0
H865 H 0.95037 0.33832 0.78144 0.0
H866 H 0.98268 0.3184 0.76896 0.0
C867 C 0.08727 0.27036 0.6895 0.0
C868 C 0.03635 0.29992 0.70794 0.0
H869 H 0.02967 0.34836 0.73472 0.0
C870 C 0.01519 0.29165 0.71057 0.0
C871 C 0.04175 0.3205 0.71692 0.0
C872 C 0.06411 0.33035 0.71394 0.0
C873 C 0.99914 0.30359 0.7217 0.0
C874 C 0.0045 0.32426 0.73052 0.0
C875 C 0.02574 0.3324 0.72816 0.0
C876 C 0.98761 0.33842 0.74036 0.0
C877 C 0.97632 0.29445 0.72317 0.0
C878 C 0.9805 0.35695 0.72903 0.0
C879 C 0.96212 0.36838 0.73611 0.0
C880 C 0.95064 0.36151 0.75473 0.0
C881 C 0.95889 0.34403 0.76706 0.0
C882 C 0.97723 0.33252 0.75987 0.0
H883 H 0.97409 0.27984 0.71268 0.0
H884 H 0.97286 0.28972 0.74029 0.0
H885 H 0.96417 0.30697 0.71833 0.0
H886 H 0.98839 0.36181 0.71398 0.0
H887 H 0.95617 0.38179 0.72628 0.0
H888 H 0.71903 0.94752 0.37438 0.0
H889 H 0.69952 0.97538 0.35363 0.0
H890 H 0.73756 0.9598 0.29658 0.0
H891 H 0.75695 0.93163 0.31715 0.0
H892 H 0.7114 0.01202 0.32932 0.0
H893 H 0.67478 0.94768 0.27681 0.0
H894 H 0.68934 0.94146 0.30161 0.0
H895 H 0.70407 0.94826 0.2772 0.0
C896 C 0.72363 0.95037 0.35757 0.0
C897 C 0.73938 0.93723 0.34734 0.0
C898 C 0.71238 0.96623 0.3457 0.0
C899 C 0.71668 0.96922 0.32342 0.0
C900 C 0.73362 0.95736 0.31362 0.0
H901 H 0.65332 0.05532 0.22954 0.0
H902 H 0.6761 0.02702 0.24621 0.0
C903 C 0.74486 0.94144 0.32547 0.0
C904 C 0.70256 0.98383 0.31033 0.0
H905 H 0.66522 0.98415 0.26886 0.0
C906 C 0.70136 0.00594 0.31607 0.0
C907 C 0.68938 0.97581 0.2931 0.0
C908 C 0.68924 0.95198 0.28687 0.0
C909 C 0.68736 0.02027 0.30502 0.0
C910 C 0.67404 0.0122 0.28799 0.0
C911 C 0.67547 0.9902 0.28196 0.0
C912 C 0.65828 0.02649 0.27663 0.0
C913 C 0.6869 0.04399 0.31161 0.0
C914 C 0.64011 0.03464 0.28784 0.0
C915 C 0.62698 0.05063 0.27834 0.0
C916 C 0.63187 0.05878 0.25747 0.0
C917 C 0.64911 0.04935 0.24562 0.0
C918 C 0.66221 0.03328 0.25515 0.0
H919 H 0.70114 0.04847 0.32189 0.0
H920 H 0.68668 0.05467 0.29699 0.0
H921 H 0.67184 0.04724 0.3211 0.0
H922 H 0.63668 0.02935 0.30434 0.0
H923 H 0.61382 0.05753 0.28788 0.0
H924 H 0.9553 0.6228 0.27908 0.0
H925 H 0.98741 0.6443 0.28912 0.0
H926 H 0.97759 0.68554 0.23308 0.0
H927 H 0.94547 0.66397 0.22277 0.0
H928 H 0.02773 0.65975 0.2622 0.0
H929 H 0.97046 0.72366 0.29224 0.0
H930 H 0.96206 0.69563 0.28871 0.0
H931 H 0.96635 0.71261 0.26531 0.0
C932 C 0.96032 0.63606 0.26854 0.0
C933 C 0.94781 0.64176 0.25019 0.0
C934 C 0.97864 0.64833 0.27432 0.0
C935 C 0.98466 0.66661 0.26197 0.0
C936 C 0.9731 0.67152 0.24285 0.0
H937 H 0.09807 0.74778 0.29482 0.0
H938 H 0.06836 0.73103 0.274 0.0
C939 C 0.95485 0.6591 0.23692 0.0
C940 C 0.00159 0.68161 0.27041 0.0
H941 H 0.00784 0.72929 0.29861 0.0
C942 C 0.0235 0.67511 0.26989 0.0
C943 C 0.99585 0.70148 0.28063 0.0
C944 C 0.97242 0.70887 0.28195 0.0
C945 C 0.03986 0.68787 0.27967 0.0
C946 C 0.03407 0.70761 0.29017 0.0
C947 C 0.01219 0.71424 0.2904 0.0
C948 C 0.05031 0.72064 0.30245 0.0
C949 C 0.06311 0.67979 0.2794 0.0
C950 C 0.04936 0.72135 0.3253 0.0
C951 C 0.06624 0.73097 0.33726 0.0
C952 C 0.0843 0.74017 0.32652 0.0
C953 C 0.08437 0.74088 0.30358 0.0
C954 C 0.06752 0.73115 0.29164 0.0
H955 H 0.06433 0.66265 0.27363 0.0
H956 H 0.07293 0.6902 0.26832 0.0
H957 H 0.07043 0.68091 0.29594 0.0
H958 H 0.03611 0.71344 0.33393 0.0
H959 H 0.06573 0.73011 0.35489 0.0
H960 H 0.37063 0.94468 0.28654 0.0
H961 H 0.34548 0.97153 0.3021 0.0
H962 H 0.29072 0.93282 0.28084 0.0
H963 H 0.31569 0.90592 0.26519 0.0
H964 H 0.30842 0.99548 0.28286 0.0
H965 H 0.28515 0.93783 0.34908 0.0
H966 H 0.30929 0.93406 0.33264 0.0
H967 H 0.28292 0.92797 0.32153 0.0
C968 C 0.35324 0.94213 0.28475 0.0
C969 C 0.34515 0.92317 0.27469 0.0
C970 C 0.3389 0.95742 0.29372 0.0
C971 C 0.31629 0.95392 0.29292 0.0
C972 C 0.30813 0.93563 0.28186 0.0
H973 H 0.22024 0.04972 0.33729 0.0
H974 H 0.23638 0.01832 0.31855 0.0
C975 C 0.32244 0.92039 0.27277 0.0
C976 C 0.3014 0.96888 0.30462 0.0
H977 H 0.26869 0.97261 0.34961 0.0
C978 C 0.29955 0.99046 0.29732 0.0
C979 C 0.29004 0.96224 0.32358 0.0
C980 C 0.29196 0.93932 0.33236 0.0
C981 C 0.28673 0.00569 0.30862 0.0
C982 C 0.27547 0.9991 0.32765 0.0
C983 C 0.27718 0.97748 0.33488 0.0
C984 C 0.26333 0.01507 0.34106 0.0
C985 C 0.28582 0.02893 0.30056 0.0
C986 C 0.2726 0.02285 0.36047 0.0
C987 C 0.26346 0.04077 0.37118 0.0
C988 C 0.24483 0.05109 0.3627 0.0
C989 C 0.23454 0.04207 0.34427 0.0
C990 C 0.24381 0.02424 0.33346 0.0
H991 H 0.29759 0.032 0.28714 0.0
H992 H 0.26916 0.0325 0.29447 0.0
H993 H 0.28933 0.04044 0.31412 0.0
H994 H 0.28765 0.01593 0.36658 0.0
H995 H 0.27175 0.04735 0.38534 0.0
H996 H 0.04443 0.38099 0.28316 0.0
H997 H 0.01182 0.36022 0.29291 0.0
H998 H 0.01803 0.32224 0.23405 0.0
H999 H 0.05079 0.34303 0.22411 0.0
H1000 H 0.97112 0.35061 0.26963 0.0
H1001 H 0.02281 0.2778 0.28624 0.0
H1002 H 0.03417 0.30487 0.28375 0.0
H1003 H 0.02526 0.29048 0.25988 0.0
C1004 C 0.03857 0.36857 0.27202 0.0
C1005 C 0.05022 0.36355 0.25293 0.0
C1006 C 0.01997 0.3567 0.27764 0.0
C1007 C 0.01279 0.33949 0.26438 0.0
C1008 C 0.02353 0.33531 0.24461 0.0
H1009 H 0.89299 0.26993 0.30204 0.0
H1010 H 0.92181 0.28526 0.27899 0.0
C1011 C 0.0421 0.34732 0.23888 0.0
C1012 C 0.99503 0.32514 0.27225 0.0
H1013 H 0.9856 0.27515 0.29501 0.0
C1014 C 0.97415 0.33401 0.27491 0.0
C1015 C 0.99919 0.30357 0.27929 0.0
C1016 C 0.02157 0.29353 0.27733 0.0
C1017 C 0.95739 0.32208 0.28497 0.0
C1018 C 0.96161 0.30059 0.29233 0.0
C1019 C 0.98238 0.29154 0.28918 0.0
C1020 C 0.94531 0.28816 0.30516 0.0
C1021 C 0.93557 0.33291 0.28825 0.0
C1022 C 0.94937 0.2837 0.32723 0.0
C1023 C 0.93299 0.27489 0.34042 0.0
C1024 C 0.91231 0.27023 0.3317 0.0
C1025 C 0.90879 0.27324 0.30922 0.0
C1026 C 0.92517 0.28217 0.29606 0.0
H1027 H 0.93678 0.35097 0.28721 0.0
H1028 H 0.92434 0.32735 0.27519 0.0
H1029 H 0.92835 0.32855 0.30427 0.0
H1030 H 0.96484 0.28813 0.33455 0.0
H1031 H 0.93619 0.27279 0.35767 0.0
H1032 H 0.76827 0.66434 0.94057 0.0
H1033 H 0.75296 0.68548 0.97082 0.0
H1034 H 0.69817 0.64141 0.97385 0.0
H1035 H 0.71341 0.62015 0.94389 0.0
H1036 H 0.71293 0.7063 0.96725 0.0
H1037 H 0.71261 0.65026 0.03799 0.0
H1038 H 0.72937 0.64563 0.01421 0.0
H1039 H 0.70098 0.63814 0.01401 0.0
C1040 C 0.75336 0.65871 0.94821 0.0
C1041 C 0.74204 0.64057 0.93985 0.0
C1042 C 0.74455 0.67091 0.96537 0.0
C1043 C 0.72445 0.665 0.97462 0.0
C1044 C 0.71386 0.64609 0.96722 0.0
H1045 H 0.62513 0.71589 0.05792 0.0
H1046 H 0.6464 0.69787 0.02948 0.0
C1047 C 0.7226 0.63395 0.95005 0.0
C1048 C 0.71329 0.67973 0.99023 0.0
H1049 H 0.68825 0.68077 0.03989 0.0
C1050 C 0.7078 0.70087 0.98328 0.0
C1051 C 0.70657 0.67257 0.01108 0.0
C1052 C 0.71287 0.65048 0.01987 0.0
C1053 C 0.69497 0.71471 0.99628 0.0
C1054 C 0.68765 0.70724 0.01681 0.0
C1055 C 0.69368 0.68636 0.02401 0.0
C1056 C 0.67341 0.72054 0.03109 0.0
C1057 C 0.68865 0.73686 0.98767 0.0
C1058 C 0.68117 0.7398 0.04079 0.0
C1059 C 0.66894 0.75026 0.05699 0.0
C1060 C 0.64888 0.74147 0.06384 0.0
C1061 C 0.64051 0.72307 0.05299 0.0
C1062 C 0.6527 0.71268 0.03682 0.0
H1063 H 0.69184 0.73839 0.9699 0.0
H1064 H 0.67111 0.74013 0.99076 0.0
H1065 H 0.69828 0.74956 0.99625 0.0
H1066 H 0.69722 0.746 0.03677 0.0
H1067 H 0.67592 0.76428 0.06519 0.0
H1068 H 0.21529 0.67042 0.05622 0.0
H1069 H 0.23522 0.688 0.02641 0.0
H1070 H 0.28923 0.64416 0.03659 0.0
H1071 H 0.26933 0.62634 0.0661 0.0
H1072 H 0.27416 0.70944 0.03295 0.0
H1073 H 0.28464 0.64487 0.97061 0.0
H1074 H 0.26479 0.64284 0.99226 0.0
H1075 H 0.29295 0.63638 0.99734 0.0
C1076 C 0.23112 0.66407 0.05163 0.0
C1077 C 0.24074 0.64699 0.06351 0.0
C1078 C 0.24255 0.67423 0.03469 0.0
C1079 C 0.26369 0.66737 0.02922 0.0
C1080 C 0.2728 0.64951 0.04025 0.0
H1081 H 0.37016 0.71403 0.94964 0.0
H1082 H 0.34765 0.69719 0.97795 0.0
C1083 C 0.2614 0.63934 0.05716 0.0
C1084 C 0.2771 0.68019 0.01367 0.0
H1085 H 0.30787 0.67603 0.96747 0.0
C1086 C 0.28135 0.70221 0.01849 0.0
C1087 C 0.28657 0.6707 0.99491 0.0
C1088 C 0.28186 0.64746 0.98832 0.0
C1089 C 0.29526 0.71483 0.00537 0.0
C1090 C 0.30498 0.70523 0.98681 0.0
C1091 C 0.30054 0.6833 0.98184 0.0
C1092 C 0.31954 0.71764 0.97202 0.0
C1093 C 0.2999 0.73814 0.01175 0.0
C1094 C 0.31141 0.73517 0.95977 0.0
C1095 C 0.32428 0.7449 0.94364 0.0
C1096 C 0.34545 0.73716 0.93941 0.0
C1097 C 0.35397 0.72044 0.95257 0.0
C1098 C 0.34108 0.7107 0.96866 0.0
H1099 H 0.29553 0.7414 0.02903 0.0
H1100 H 0.31739 0.74216 0.00931 0.0
H1101 H 0.29011 0.74921 0.00132 0.0
H1102 H 0.29474 0.74059 0.96189 0.0
H1103 H 0.31719 0.75762 0.93366 0.0
H1104 H 0.21906 0.32162 0.92917 0.0
H1105 H 0.23754 0.30314 0.95932 0.0
H1106 H 0.2891 0.351 0.95724 0.0
H1107 H 0.27089 0.36937 0.92694 0.0
H1108 H 0.30376 0.30822 0.95324 0.0
H1109 H 0.24774 0.31646 0.02396 0.0
H1110 H 0.23526 0.30632 0.99944 0.0
H1111 H 0.2458 0.33367 0.00014 0.0
C1112 C 0.23396 0.32862 0.93561 0.0
C1113 C 0.24354 0.34693 0.92566 0.0
C1114 C 0.24453 0.31801 0.95284 0.0
C1115 C 0.26471 0.32569 0.96053 0.0
C1116 C 0.27357 0.34477 0.95152 0.0
H1117 H 0.36403 0.28666 0.05101 0.0
H1118 H 0.34343 0.30173 0.02047 0.0
C1119 C 0.26307 0.35533 0.93429 0.0
C1120 C 0.27767 0.31275 0.97633 0.0
H1121 H 0.27785 0.29267 0.02824 0.0
C1122 C 0.29812 0.30486 0.96966 0.0
C1123 C 0.27017 0.30817 0.99763 0.0
C1124 C 0.24862 0.31672 0.00586 0.0
C1125 C 0.31131 0.29257 0.98375 0.0
C1126 C 0.304 0.28832 0.00518 0.0
C1127 C 0.28338 0.29587 0.01174 0.0
C1128 C 0.31797 0.27727 0.02154 0.0
C1129 C 0.33288 0.2841 0.97549 0.0
C1130 C 0.31072 0.25828 0.03207 0.0
C1131 C 0.32252 0.24957 0.04955 0.0
C1132 C 0.34164 0.2599 0.05695 0.0
C1133 C 0.34946 0.27823 0.04561 0.0
C1134 C 0.3377 0.28687 0.02812 0.0
H1135 H 0.33314 0.28305 0.9574 0.0
H1136 H 0.34606 0.29543 0.9806 0.0
H1137 H 0.33652 0.26773 0.98232 0.0
H1138 H 0.29551 0.25065 0.02726 0.0
H1139 H 0.31598 0.23554 0.05805 0.0
H1140 H 0.72783 0.38019 0.06506 0.0
H1141 H 0.70771 0.36111 0.03635 0.0
H1142 H 0.75802 0.31216 0.03337 0.0
H1143 H 0.77829 0.33113 0.06212 0.0
H1144 H 0.71882 0.34477 0.99251 0.0
H1145 H 0.70094 0.27957 0.05312 0.0
H1146 H 0.71106 0.30611 0.06098 0.0
H1147 H 0.7292 0.28643 0.04918 0.0
C1148 C 0.73497 0.36574 0.05782 0.0
C1149 C 0.75458 0.35708 0.06597 0.0
C1150 C 0.72339 0.3548 0.04149 0.0
C1151 C 0.73116 0.33499 0.03314 0.0
C1152 C 0.75161 0.32727 0.03989 0.0
H1153 H 0.67044 0.23938 0.94742 0.0
H1154 H 0.69329 0.25735 0.97484 0.0
C1155 C 0.76328 0.33827 0.05615 0.0
C1156 C 0.71699 0.32163 0.01879 0.0
H1157 H 0.68638 0.27499 0.01781 0.0
C1158 C 0.71176 0.3295 0.99798 0.0
C1159 C 0.70779 0.30173 0.02607 0.0
C1160 C 0.71233 0.29294 0.04861 0.0
C1161 C 0.69765 0.31789 0.98414 0.0
C1162 C 0.68813 0.29818 0.99156 0.0
C1163 C 0.69359 0.29016 0.01226 0.0
C1164 C 0.67256 0.28571 0.97785 0.0
C1165 C 0.69328 0.32666 0.96156 0.0
C1166 C 0.6527 0.29511 0.9715 0.0
C1167 C 0.63955 0.28484 0.95595 0.0
C1168 C 0.64603 0.26495 0.94653 0.0
C1169 C 0.66496 0.25465 0.95439 0.0
C1170 C 0.67813 0.26497 0.96995 0.0
H1171 H 0.70576 0.33881 0.95653 0.0
H1172 H 0.69295 0.31326 0.94935 0.0
H1173 H 0.67713 0.33481 0.96136 0.0
H1174 H 0.64787 0.31089 0.9778 0.0
H1175 H 0.62504 0.29317 0.9503 0.0
H1176 H 0.14676 0.3384 0.3098 0.0
H1177 H 0.15629 0.30346 0.32704 0.0
H1178 H 0.12296 0.26891 0.27555 0.0
H1179 H 0.11398 0.30342 0.25808 0.0
H1180 H 0.13107 0.26839 0.34202 0.0
H1181 H 0.18382 0.24311 0.27294 0.0
H1182 H 0.17389 0.27062 0.27597 0.0
H1183 H 0.15647 0.24972 0.26492 0.0
C1184 C 0.14146 0.32332 0.30226 0.0
C1185 C 0.12996 0.32358 0.28246 0.0
C1186 C 0.14686 0.30342 0.3121 0.0
C1187 C 0.14072 0.28362 0.30228 0.0
C1188 C 0.12835 0.28397 0.28308 0.0
H1189 H 0.17335 0.14778 0.33252 0.0
H1190 H 0.15336 0.17988 0.31902 0.0
C1191 C 0.12319 0.30373 0.27316 0.0
C1192 C 0.1477 0.2625 0.31165 0.0
H1193 H 0.17696 0.21658 0.30009 0.0
C1194 C 0.1411 0.25705 0.33288 0.0
C1195 C 0.16076 0.24772 0.29963 0.0
C1196 C 0.16934 0.25313 0.27719 0.0
C1197 C 0.14722 0.23716 0.34241 0.0
C1198 C 0.16032 0.22249 0.3304 0.0
C1199 C 0.16663 0.22777 0.30909 0.0
C1200 C 0.1698 0.20273 0.34038 0.0
C1201 C 0.13973 0.23198 0.36525 0.0
C1202 C 0.18544 0.20504 0.35686 0.0
C1203 C 0.19694 0.18695 0.36431 0.0
C1204 C 0.19296 0.16616 0.35549 0.0
C1205 C 0.17662 0.16363 0.33963 0.0
C1206 C 0.16525 0.18189 0.33194 0.0
H1207 H 0.12529 0.24185 0.36996 0.0
H1208 H 0.13561 0.21441 0.36688 0.0
H1209 H 0.1531 0.23572 0.37687 0.0
H1210 H 0.18945 0.22101 0.36329 0.0
H1211 H 0.20939 0.18936 0.37662 0.0
H1212 H 0.81933 0.20936 0.33669 0.0
H1213 H 0.78592 0.18899 0.32812 0.0
H1214 H 0.74825 0.23465 0.36609 0.0
H1215 H 0.78134 0.25524 0.37437 0.0
H1216 H 0.75444 0.16936 0.35623 0.0
H1217 H 0.71873 0.23599 0.30614 0.0
H1218 H 0.74708 0.23566 0.31404 0.0
H1219 H 0.72652 0.24363 0.33333 0.0
C1220 C 0.80391 0.21504 0.34317 0.0
C1221 C 0.80288 0.23401 0.35596 0.0
C1222 C 0.78489 0.20337 0.33835 0.0
C1223 C 0.76463 0.21053 0.34624 0.0
C1224 C 0.76368 0.22911 0.35952 0.0
H1225 H 0.63477 0.16432 0.30793 0.0
H1226 H 0.6633 0.18146 0.33036 0.0
C1227 C 0.78261 0.24082 0.36424 0.0
C1228 C 0.74441 0.19889 0.34012 0.0
H1229 H 0.69726 0.20459 0.31115 0.0
C1230 C 0.74186 0.17706 0.34648 0.0
C1231 C 0.72798 0.2091 0.32756 0.0
C1232 C 0.73019 0.23232 0.31968 0.0
C1233 C 0.72342 0.165 0.34024 0.0
C1234 C 0.70734 0.175 0.32709 0.0
C1235 C 0.70954 0.19704 0.3214 0.0
C1236 C 0.68963 0.16236 0.31666 0.0
C1237 C 0.72142 0.1416 0.34758 0.0
C1238 C 0.69501 0.14582 0.30184 0.0
C1239 C 0.6789 0.1362 0.28904 0.0
C1240 C 0.65708 0.14297 0.29076 0.0
C1241 C 0.65146 0.15876 0.30637 0.0
C1242 C 0.66771 0.16854 0.31913 0.0
H1243 H 0.73057 0.13874 0.36296 0.0
H1244 H 0.7041 0.13693 0.3501 0.0
H1245 H 0.72843 0.13078 0.33488 0.0
H1246 H 0.71185 0.14114 0.29931 0.0
H1247 H 0.68369 0.12401 0.27717 0.0
H1248 H 0.87469 0.70056 0.25758 0.0
H1249 H 0.86524 0.7336 0.27726 0.0
H1250 H 0.85102 0.69566 0.33477 0.0
H1251 H 0.86033 0.66207 0.31486 0.0
H1252 H 0.81827 0.72387 0.32404 0.0
H1253 H 0.89652 0.76845 0.32384 0.0
H1254 H 0.88976 0.75906 0.29698 0.0
H1255 H 0.89476 0.73955 0.31836 0.0
C1256 C 0.86978 0.69917 0.27449 0.0
C1257 C 0.86818 0.6787 0.28468 0.0
C1258 C 0.86462 0.71815 0.2858 0.0
C1259 C 0.8579 0.71716 0.30761 0.0
C1260 C 0.85647 0.69677 0.318 0.0
H1261 H 0.81944 0.83934 0.37272 0.0
H1262 H 0.84 0.80615 0.36403 0.0
C1263 C 0.86171 0.67763 0.30663 0.0
C1264 C 0.85025 0.73733 0.31845 0.0
H1265 H 0.86382 0.79083 0.32626 0.0
C1266 C 0.82837 0.73838 0.32498 0.0
C1267 C 0.86349 0.75621 0.31993 0.0
C1268 C 0.8875 0.7557 0.31462 0.0
C1269 C 0.81897 0.75816 0.33148 0.0
C1270 C 0.83171 0.77741 0.33105 0.0
C1271 C 0.85398 0.77612 0.32607 0.0
C1272 C 0.82173 0.79904 0.3347 0.0
C1273 C 0.7953 0.7584 0.33823 0.0
C1274 C 0.80552 0.80655 0.32042 0.0
C1275 C 0.79383 0.82543 0.32528 0.0
C1276 C 0.79827 0.8372 0.34443 0.0
C1277 C 0.8157 0.83061 0.35781 0.0
C1278 C 0.82738 0.81162 0.35296 0.0
H1279 H 0.78973 0.742 0.34358 0.0
H1280 H 0.79248 0.7702 0.35168 0.0
H1281 H 0.78513 0.76337 0.32411 0.0
H1282 H 0.80128 0.79726 0.30599 0.0
H1283 H 0.78056 0.83016 0.31461 0.0
H1284 H 0.3538 0.81762 0.32363 0.0
H1285 H 0.31836 0.81282 0.34101 0.0
H1286 H 0.31389 0.88222 0.35149 0.0
H1287 H 0.34946 0.88716 0.334 0.0
H1288 H 0.29389 0.82567 0.37964 0.0
H1289 H 0.26826 0.868 0.30323 0.0
H1290 H 0.29583 0.85853 0.30704 0.0
H1291 H 0.28633 0.8821 0.32156 0.0
C1292 C 0.34577 0.83174 0.33058 0.0
C1293 C 0.3542 0.85276 0.3272 0.0
C1294 C 0.32547 0.829 0.34047 0.0
C1295 C 0.31331 0.84723 0.34702 0.0
C1296 C 0.32294 0.86799 0.34627 0.0
H1297 H 0.17518 0.81135 0.37083 0.0
H1298 H 0.20775 0.83459 0.37345 0.0
C1299 C 0.34338 0.87075 0.33646 0.0
C1300 C 0.28955 0.84451 0.35038 0.0
H1301 H 0.24173 0.84816 0.32201 0.0
C1302 C 0.28229 0.83115 0.36748 0.0
C1303 C 0.27453 0.85158 0.3343 0.0
C1304 C 0.28149 0.86577 0.3154 0.0
C1305 C 0.26068 0.82353 0.36814 0.0
C1306 C 0.24617 0.82934 0.35119 0.0
C1307 C 0.25299 0.84386 0.33495 0.0
C1308 C 0.22536 0.81758 0.34808 0.0
C1309 C 0.25388 0.80803 0.38599 0.0
C1310 C 0.22434 0.80089 0.33247 0.0
C1311 C 0.20593 0.7876 0.33099 0.0
C1312 C 0.18811 0.79095 0.34496 0.0
C1313 C 0.18861 0.80854 0.35971 0.0
C1314 C 0.20721 0.82172 0.36135 0.0
H1315 H 0.2672 0.80497 0.39787 0.0
H1316 H 0.23967 0.81485 0.39487 0.0
H1317 H 0.24872 0.79222 0.37877 0.0
H1318 H 0.23824 0.79751 0.32208 0.0
H1319 H 0.206 0.77414 0.31953 0.0
H1320 H 0.15582 0.66228 0.68104 0.0
H1321 H 0.16247 0.69555 0.65967 0.0
H1322 H 0.11666 0.73063 0.69988 0.0
H1323 H 0.11039 0.69778 0.72151 0.0
H1324 H 0.13531 0.72687 0.63657 0.0
H1325 H 0.17527 0.76176 0.71033 0.0
H1326 H 0.16859 0.7332 0.70805 0.0
H1327 H 0.14762 0.75279 0.71394 0.0
C1328 C 0.14694 0.67702 0.68503 0.0
C1329 C 0.13297 0.67765 0.70314 0.0
C1330 C 0.15069 0.69596 0.67283 0.0
C1331 C 0.14036 0.7156 0.67852 0.0
C1332 C 0.12511 0.71574 0.69553 0.0
H1333 H 0.18774 0.8456 0.64377 0.0
H1334 H 0.16097 0.81802 0.65524 0.0
C1335 C 0.12159 0.69698 0.70785 0.0
C1336 C 0.14717 0.73633 0.66825 0.0
H1337 H 0.17468 0.7835 0.67901 0.0
C1338 C 0.14374 0.73938 0.64584 0.0
C1339 C 0.15801 0.75267 0.68046 0.0
C1340 C 0.16279 0.74998 0.70449 0.0
C1341 C 0.15138 0.75818 0.63519 0.0
C1342 C 0.16302 0.77407 0.64725 0.0
C1343 C 0.16557 0.77141 0.66982 0.0
C1344 C 0.17556 0.79178 0.63664 0.0
C1345 C 0.14719 0.76069 0.61109 0.0
C1346 C 0.19224 0.78629 0.62201 0.0
C1347 C 0.20746 0.80188 0.61559 0.0
C1348 C 0.20639 0.82327 0.62375 0.0
C1349 C 0.18887 0.82923 0.63722 0.0
C1350 C 0.17362 0.81351 0.64376 0.0
H1351 H 0.13189 0.75227 0.60621 0.0
H1352 H 0.14607 0.77813 0.60633 0.0
H1353 H 0.16078 0.75309 0.60187 0.0
H1354 H 0.19443 0.76958 0.6167 0.0
H1355 H 0.22075 0.79686 0.60509 0.0
H1356 H 0.36045 0.16395 0.69328 0.0
H1357 H 0.32982 0.18266 0.67534 0.0
H1358 H 0.28517 0.13529 0.70201 0.0
H1359 H 0.31539 0.11679 0.72004 0.0
H1360 H 0.29356 0.16729 0.64625 0.0
H1361 H 0.26677 0.19567 0.72806 0.0
H1362 H 0.29378 0.18512 0.723 0.0
H1363 H 0.27109 0.16677 0.72585 0.0
C1364 C 0.34415 0.15732 0.69488 0.0
C1365 C 0.34019 0.13915 0.70826 0.0
C1366 C 0.32672 0.168 0.68469 0.0
C1367 C 0.30528 0.16052 0.68776 0.0
C1368 C 0.30158 0.14147 0.69978 0.0
H1369 H 0.17477 0.20783 0.66342 0.0
H1370 H 0.20699 0.18634 0.67336 0.0
C1371 C 0.31886 0.13094 0.71003 0.0
C1372 C 0.28649 0.17341 0.68007 0.0
H1373 H 0.24255 0.20201 0.69866 0.0
C1374 C 0.28245 0.17503 0.65763 0.0
C1375 C 0.2721 0.18342 0.69506 0.0
C1376 C 0.27618 0.18287 0.71934 0.0
C1377 C 0.26396 0.18603 0.64977 0.0
C1378 C 0.24945 0.1958 0.66481 0.0
C1379 C 0.25365 0.19433 0.68722 0.0
C1380 C 0.22999 0.20809 0.65774 0.0
C1381 C 0.2598 0.18669 0.62554 0.0
C1382 C 0.23238 0.22748 0.64589 0.0
C1383 C 0.21409 0.23979 0.64032 0.0
C1384 C 0.19311 0.23295 0.64658 0.0
C1385 C 0.19074 0.21348 0.6584 0.0
C1386 C 0.20908 0.2012 0.66403 0.0
H1387 H 0.26941 0.17413 0.6167 0.0
H1388 H 0.24222 0.18419 0.62194 0.0
H1389 H 0.26458 0.20294 0.61914 0.0
H1390 H 0.24842 0.23329 0.64129 0.0
H1391 H 0.21642 0.25475 0.63121 0.0
H1392 H 0.78124 0.19774 0.62713 0.0
H1393 H 0.80455 0.22748 0.63931 0.0
H1394 H 0.84536 0.18175 0.67376 0.0
H1395 H 0.82183 0.15155 0.66151 0.0
H1396 H 0.82892 0.21668 0.69915 0.0
H1397 H 0.86627 0.2476 0.62294 0.0
H1398 H 0.83731 0.24374 0.62091 0.0
H1399 H 0.85473 0.22055 0.62518 0.0
C1400 C 0.79536 0.19391 0.63705 0.0
C1401 C 0.79968 0.17235 0.64351 0.0
C1402 C 0.80879 0.21093 0.64379 0.0
C1403 C 0.82685 0.20678 0.65713 0.0
C1404 C 0.8316 0.1852 0.66323 0.0
H1405 H 0.89687 0.30194 0.73607 0.0
H1406 H 0.88746 0.26874 0.7162 0.0
C1407 C 0.81819 0.16802 0.65628 0.0
C1408 C 0.83892 0.22538 0.66667 0.0
H1409 H 0.86565 0.27242 0.65334 0.0
C1410 C 0.83735 0.22867 0.68922 0.0
C1411 C 0.84957 0.2411 0.65357 0.0
C1412 C 0.85227 0.23801 0.62932 0.0
C1413 C 0.8453 0.24776 0.69898 0.0
C1414 C 0.8556 0.26373 0.68584 0.0
C1415 C 0.85771 0.26018 0.66334 0.0
C1416 C 0.86375 0.28439 0.69531 0.0
C1417 C 0.84164 0.25111 0.72311 0.0
C1418 C 0.85448 0.30444 0.68921 0.0
C1419 C 0.86009 0.3236 0.70035 0.0
C1420 C 0.8749 0.32279 0.71779 0.0
C1421 C 0.88511 0.30293 0.72291 0.0
C1422 C 0.87973 0.28395 0.71163 0.0
H1423 H 0.82883 0.24005 0.7296 0.0
H1424 H 0.85701 0.24763 0.73201 0.0
H1425 H 0.83683 0.26821 0.72665 0.0
H1426 H 0.84219 0.3051 0.67653 0.0
H1427 H 0.85206 0.33873 0.69609 0.0
H1428 H 0.8055 0.7666 0.61506 0.0
H1429 H 0.77158 0.78528 0.62385 0.0
H1430 H 0.80633 0.82786 0.66788 0.0
H1431 H 0.84068 0.80947 0.65862 0.0
H1432 H 0.75373 0.78554 0.66366 0.0
H1433 H 0.76706 0.8706 0.63617 0.0
H1434 H 0.7843 0.84832 0.6276 0.0
H1435 H 0.78819 0.8608 0.65388 0.0
C1436 C 0.806 0.78015 0.6264 0.0
C1437 C 0.82568 0.78652 0.63631 0.0
C1438 C 0.7866 0.79084 0.63134 0.0
C1439 C 0.78642 0.80806 0.64637 0.0
C1440 C 0.80616 0.8149 0.65587 0.0
H1441 H 0.6943 0.87119 0.72677 0.0
H1442 H 0.72544 0.85886 0.70549 0.0
C1443 C 0.82573 0.80432 0.65071 0.0
C1444 C 0.76528 0.81719 0.65364 0.0
H1445 H 0.73685 0.86455 0.66027 0.0
C1446 C 0.74989 0.80278 0.66261 0.0
C1447 C 0.76033 0.83965 0.65221 0.0
C1448 C 0.77575 0.85572 0.64175 0.0
C1449 C 0.73004 0.81033 0.67102 0.0
C1450 C 0.72537 0.83287 0.67019 0.0
C1451 C 0.74048 0.84725 0.66073 0.0
C1452 C 0.70605 0.84199 0.68131 0.0
C1453 C 0.71467 0.79428 0.68165 0.0
C1454 C 0.68476 0.83693 0.67445 0.0
C1455 C 0.66678 0.84396 0.68667 0.0
C1456 C 0.66997 0.85604 0.70589 0.0
C1457 C 0.6913 0.8617 0.71215 0.0
C1458 C 0.70914 0.8548 0.69995 0.0
H1459 H 0.72228 0.778 0.68394 0.0
H1460 H 0.70923 0.80045 0.69778 0.0
H1461 H 0.7 0.79222 0.67124 0.0
H1462 H 0.6821 0.82721 0.65994 0.0
H1463 H 0.6505 0.83949 0.68143 0.0
H1464 H 0.26644 0.10342 0.3044 0.0
H1465 H 0.28613 0.11482 0.27177 0.0
H1466 H 0.31573 0.1675 0.30795 0.0
H1467 H 0.29639 0.1557 0.34096 0.0
H1468 H 0.27804 0.15392 0.25377 0.0
H1469 H 0.36649 0.14656 0.27085 0.0
H1470 H 0.34602 0.13294 0.2871 0.0
H1471 H 0.35193 0.16136 0.29148 0.0
C1472 C 0.27759 0.11711 0.30553 0.0
C1473 C 0.27982 0.12882 0.3251 0.0
C1474 C 0.28883 0.12357 0.28689 0.0
C1475 C 0.30243 0.14196 0.28741 0.0
C1476 C 0.30565 0.153 0.30727 0.0
H1477 H 0.35207 0.23388 0.19655 0.0
H1478 H 0.34228 0.21127 0.22771 0.0
C1479 C 0.29455 0.14633 0.32609 0.0
C1480 C 0.31063 0.15119 0.26665 0.0
H1481 H 0.3564 0.16882 0.24031 0.0
C1482 C 0.29522 0.15686 0.25068 0.0
C1483 C 0.33301 0.15508 0.26271 0.0
C1484 C 0.35035 0.14848 0.27886 0.0
C1485 C 0.30147 0.16705 0.23122 0.0
C1486 C 0.32378 0.17141 0.22748 0.0
C1487 C 0.33929 0.16533 0.24321 0.0
C1488 C 0.33103 0.18405 0.20828 0.0
C1489 C 0.28404 0.17395 0.21525 0.0
C1490 C 0.32816 0.17609 0.18698 0.0
C1491 C 0.33365 0.18907 0.16901 0.0
C1492 C 0.34212 0.21014 0.17217 0.0
C1493 C 0.34543 0.21777 0.19355 0.0
C1494 C 0.33998 0.20484 0.21141 0.0
H1495 H 0.26743 0.17298 0.22242 0.0
H1496 H 0.28693 0.19092 0.20961 0.0
H1497 H 0.28454 0.1631 0.20077 0.0
H1498 H 0.32148 0.15995 0.18428 0.0
H1499 H 0.3311 0.18273 0.15271 0.0
H1500 H 0.81988 0.331 0.33681 0.0
H1501 H 0.82368 0.34826 0.3012 0.0
H1502 H 0.89341 0.35099 0.30964 0.0
H1503 H 0.88978 0.33343 0.34531 0.0
H1504 H 0.84769 0.38543 0.27932 0.0
H1505 H 0.88008 0.30201 0.26263 0.0
H1506 H 0.86155 0.30668 0.28499 0.0
H1507 H 0.88887 0.31671 0.28646 0.0
C1508 C 0.83593 0.33626 0.33159 0.0
C1509 C 0.85455 0.33051 0.34364 0.0
C1510 C 0.8381 0.34607 0.31119 0.0
C1511 C 0.85887 0.3503 0.30262 0.0
C1512 C 0.87727 0.34753 0.31593 0.0
H1513 H 0.84089 0.37843 0.16221 0.0
H1514 H 0.86247 0.3791 0.19605 0.0
C1515 C 0.87513 0.33769 0.33642 0.0
C1516 C 0.86108 0.35308 0.27876 0.0
H1517 H 0.86799 0.32241 0.23282 0.0
C1518 C 0.85277 0.37199 0.269 0.0
C1519 C 0.86743 0.33528 0.26549 0.0
C1520 C 0.87498 0.31396 0.27525 0.0
C1521 C 0.84916 0.373 0.24638 0.0
C1522 C 0.85436 0.3547 0.23324 0.0
C1523 C 0.86431 0.3365 0.24287 0.0
C1524 C 0.8452 0.35213 0.21097 0.0
C1525 C 0.83802 0.39285 0.23705 0.0
C1526 C 0.82948 0.33584 0.20755 0.0
C1527 C 0.81747 0.33526 0.1883 0.0
C1528 C 0.82093 0.35094 0.172 0.0
C1529 C 0.83799 0.36608 0.1745 0.0
C1530 C 0.8501 0.36667 0.19393 0.0
H1531 H 0.83301 0.40461 0.24989 0.0
H1532 H 0.84936 0.40132 0.22578 0.0
H1533 H 0.82334 0.388 0.22761 0.0
H1534 H 0.82547 0.32437 0.22038 0.0
H1535 H 0.80446 0.32337 0.18677 0.0
H1536 H 0.62965 0.76854 0.20242 0.0
H1537 H 0.63396 0.79061 0.23493 0.0
H1538 H 0.65626 0.84466 0.19577 0.0
H1539 H 0.65217 0.82224 0.16267 0.0
H1540 H 0.68334 0.83587 0.22941 0.0
H1541 H 0.5995 0.83975 0.26146 0.0
H1542 H 0.60641 0.8121 0.25507 0.0
H1543 H 0.60533 0.83214 0.23359 0.0
C1544 C 0.6353 0.78519 0.20058 0.0
C1545 C 0.64071 0.79364 0.17997 0.0
C1546 C 0.63744 0.79791 0.21922 0.0
C1547 C 0.64486 0.81947 0.21776 0.0
C1548 C 0.65015 0.82813 0.19719 0.0
H1549 H 0.68102 0.8879 0.33887 0.0
H1550 H 0.66045 0.8812 0.30525 0.0
C1551 C 0.64794 0.81532 0.17835 0.0
C1552 C 0.64957 0.83155 0.23813 0.0
H1553 H 0.62872 0.84093 0.28898 0.0
C1554 C 0.67125 0.83761 0.24221 0.0
C1555 C 0.63376 0.83399 0.25482 0.0
C1556 C 0.60992 0.82936 0.25089 0.0
C1557 C 0.67789 0.8442 0.26304 0.0
C1558 C 0.66251 0.84451 0.2802 0.0
C1559 C 0.64051 0.84024 0.27581 0.0
C1560 C 0.66979 0.84729 0.30294 0.0
C1561 C 0.7016 0.84964 0.26692 0.0
C1562 C 0.68073 0.83009 0.31325 0.0
C1563 C 0.69249 0.83383 0.33236 0.0
C1564 C 0.69343 0.85485 0.34141 0.0
C1565 C 0.68053 0.87151 0.3323 0.0
C1566 C 0.66884 0.86776 0.31306 0.0
H1567 H 0.71047 0.85266 0.25142 0.0
H1568 H 0.70315 0.86427 0.2775 0.0
H1569 H 0.70957 0.83579 0.27543 0.0
H1570 H 0.68152 0.81416 0.30561 0.0
H1571 H 0.70223 0.82069 0.33903 0.0
H1572 H 0.15666 0.6087 0.1564 0.0
H1573 H 0.13716 0.60677 0.19115 0.0
H1574 H 0.14419 0.6764 0.19874 0.0
H1575 H 0.16341 0.67838 0.16414 0.0
H1576 H 0.15966 0.61618 0.22663 0.0
H1577 H 0.08658 0.66776 0.22808 0.0
H1578 H 0.09815 0.65793 0.2028 0.0
H1579 H 0.10808 0.68274 0.2152 0.0
C1580 C 0.15297 0.62375 0.16491 0.0
C1581 C 0.16165 0.64372 0.15766 0.0
C1582 C 0.14194 0.62259 0.18487 0.0
C1583 C 0.13913 0.64143 0.19761 0.0
C1584 C 0.14569 0.66168 0.1891 0.0
H1585 H 0.18046 0.68663 0.31176 0.0
H1586 H 0.17422 0.66341 0.28013 0.0
C1587 C 0.15681 0.66282 0.16929 0.0
C1588 C 0.1341 0.63979 0.22124 0.0
H1589 H 0.10946 0.669 0.26154 0.0
C1590 C 0.1481 0.62716 0.23429 0.0
C1591 C 0.11874 0.65363 0.23142 0.0
C1592 C 0.1019 0.66606 0.21855 0.0
C1593 C 0.14899 0.63011 0.25696 0.0
C1594 C 0.13581 0.64629 0.26671 0.0
C1595 C 0.11991 0.65687 0.25405 0.0
C1596 C 0.14084 0.65541 0.28856 0.0
C1597 C 0.16499 0.6168 0.27003 0.0
C1598 C 0.12437 0.65822 0.30421 0.0
C1599 C 0.12799 0.67147 0.32246 0.0
C1600 C 0.14801 0.68243 0.32505 0.0
C1601 C 0.16495 0.67828 0.31025 0.0
C1602 C 0.1614 0.66489 0.29219 0.0
H1603 H 0.16694 0.60027 0.26286 0.0
H1604 H 0.18119 0.62488 0.26964 0.0
H1605 H 0.15975 0.61515 0.28729 0.0
H1606 H 0.10832 0.65125 0.30162 0.0
H1607 H 0.11453 0.67459 0.33346 0.0
H1608 H 0.37993 0.81013 0.8361 0.0
H1609 H 0.37197 0.82909 0.80185 0.0
H1610 H 0.30673 0.80277 0.8024 0.0
H1611 H 0.31462 0.78354 0.83641 0.0
H1612 H 0.35879 0.80247 0.76424 0.0
H1613 H 0.29962 0.86808 0.78337 0.0
H1614 H 0.31831 0.85713 0.80337 0.0
H1615 H 0.2939 0.84245 0.7964 0.0
C1616 C 0.36364 0.809 0.82932 0.0
C1617 C 0.34787 0.79533 0.83886 0.0
C1618 C 0.35919 0.81975 0.80971 0.0
C1619 C 0.33878 0.81734 0.7997 0.0
C1620 C 0.3225 0.80502 0.81005 0.0
H1621 H 0.26543 0.82881 0.68583 0.0
H1622 H 0.28253 0.82313 0.72122 0.0
C1623 C 0.32703 0.79404 0.82946 0.0
C1624 C 0.33519 0.82501 0.77715 0.0
H1625 H 0.30049 0.85552 0.74638 0.0
C1626 C 0.34639 0.81442 0.76022 0.0
C1627 C 0.31903 0.84056 0.77213 0.0
C1628 C 0.30712 0.85289 0.78977 0.0
C1629 C 0.34068 0.81781 0.7383 0.0
C1630 C 0.32365 0.83252 0.73332 0.0
C1631 C 0.31345 0.84413 0.75025 0.0
C1632 C 0.31441 0.83441 0.71108 0.0
C1633 C 0.35191 0.80461 0.72083 0.0
C1634 C 0.32685 0.84206 0.69341 0.0
C1635 C 0.31712 0.84498 0.67291 0.0
C1636 C 0.29481 0.8406 0.67005 0.0
C1637 C 0.28266 0.83234 0.68761 0.0
C1638 C 0.29238 0.8292 0.70787 0.0
H1639 H 0.36181 0.79114 0.72779 0.0
H1640 H 0.33979 0.79756 0.70935 0.0
H1641 H 0.36295 0.8154 0.71138 0.0
H1642 H 0.34381 0.84646 0.69562 0.0
H1643 H 0.32673 0.85164 0.65967 0.0
H1644 H 0.16314 0.38648 0.83095 0.0
H1645 H 0.14181 0.39083 0.79733 0.0
H1646 H 0.15746 0.32471 0.77903 0.0
H1647 H 0.17857 0.32036 0.81234 0.0
H1648 H 0.16142 0.389 0.75801 0.0
H1649 H 0.09526 0.32865 0.75869 0.0
H1650 H 0.1091 0.33682 0.78338 0.0
H1651 H 0.11998 0.31526 0.76653 0.0
C1652 C 0.16112 0.37258 0.82021 0.0
C1653 C 0.1724 0.35303 0.82423 0.0
C1654 C 0.14909 0.37515 0.80093 0.0
C1655 C 0.14785 0.35804 0.78572 0.0
C1656 C 0.15771 0.33799 0.79068 0.0
H1657 H 0.1775 0.33132 0.66288 0.0
H1658 H 0.17349 0.3519 0.69653 0.0
C1659 C 0.16986 0.33551 0.80973 0.0
C1660 C 0.13971 0.36177 0.76323 0.0
H1661 H 0.11332 0.33438 0.72278 0.0
C1662 C 0.15025 0.37757 0.75039 0.0
C1663 C 0.12478 0.3473 0.75325 0.0
C1664 C 0.11149 0.33124 0.76631 0.0
C1665 C 0.14822 0.37752 0.72757 0.0
C1666 C 0.13565 0.36104 0.71741 0.0
C1667 C 0.12313 0.34694 0.73044 0.0
C1668 C 0.1384 0.35526 0.69403 0.0
C1669 C 0.16054 0.39435 0.71455 0.0
C1670 C 0.12016 0.35106 0.68078 0.0
C1671 C 0.12248 0.33922 0.66138 0.0
C1672 C 0.14304 0.33115 0.65519 0.0
C1673 C 0.1615 0.33742 0.66721 0.0
C1674 C 0.1592 0.34932 0.68648 0.0
H1675 H 0.16129 0.41009 0.72352 0.0
H1676 H 0.17755 0.38871 0.71209 0.0
H1677 H 0.15293 0.39714 0.69836 0.0
H1678 H 0.10395 0.35537 0.68632 0.0
H1679 H 0.10792 0.33444 0.65257 0.0
H1680 H 0.72426 0.11169 0.69552 0.0
H1681 H 0.70459 0.1214 0.72868 0.0
H1682 H 0.67527 0.17597 0.69535 0.0
H1683 H 0.69457 0.16586 0.66174 0.0
H1684 H 0.71242 0.1592 0.74912 0.0
H1685 H 0.62421 0.15285 0.7306 0.0
H1686 H 0.64485 0.14029 0.71375 0.0
H1687 H 0.63891 0.1689 0.71103 0.0
C1688 C 0.71323 0.12549 0.69512 0.0
C1689 C 0.71103 0.13819 0.67618 0.0
C1690 C 0.70198 0.13098 0.71406 0.0
C1691 C 0.68842 0.14935 0.71449 0.0
C1692 C 0.68532 0.16147 0.69527 0.0
H1693 H 0.63874 0.23751 0.80781 0.0
H1694 H 0.64871 0.21561 0.77626 0.0
C1695 C 0.69642 0.15578 0.67612 0.0
C1696 C 0.67999 0.15733 0.73568 0.0
H1697 H 0.63399 0.17372 0.76231 0.0
C1698 C 0.69522 0.16203 0.75215 0.0
C1699 C 0.65758 0.16101 0.73955 0.0
C1700 C 0.64041 0.1553 0.72287 0.0
C1701 C 0.68877 0.1712 0.77205 0.0
C1702 C 0.66644 0.17553 0.77567 0.0
C1703 C 0.6511 0.17027 0.75947 0.0
C1704 C 0.65908 0.1877 0.79513 0.0
C1705 C 0.70601 0.17719 0.7886 0.0
C1706 C 0.66141 0.17912 0.81625 0.0
C1707 C 0.6558 0.19171 0.83448 0.0
C1708 C 0.64778 0.21299 0.83173 0.0
C1709 C 0.64503 0.22123 0.81051 0.0
C1710 C 0.65059 0.2087 0.79242 0.0
H1711 H 0.72275 0.17612 0.78175 0.0
H1712 H 0.70337 0.19402 0.79477 0.0
H1713 H 0.70494 0.16588 0.80268 0.0
H1714 H 0.66775 0.16281 0.81861 0.0
H1715 H 0.6579 0.18491 0.85064 0.0
H1716 H 0.84149 0.68672 0.65625 0.0
H1717 H 0.83181 0.66669 0.68966 0.0
H1718 H 0.88794 0.69394 0.72225 0.0
H1719 H 0.89724 0.71433 0.68932 0.0
H1720 H 0.85358 0.63747 0.72009 0.0
H1721 H 0.83525 0.71893 0.75562 0.0
H1722 H 0.83981 0.71492 0.72684 0.0
H1723 H 0.8625 0.71578 0.74539 0.0
C1724 C 0.852 0.68791 0.6704 0.0
C1725 C 0.86983 0.70226 0.67047 0.0
C1726 C 0.84649 0.67654 0.68943 0.0
C1727 C 0.85892 0.67929 0.7085 0.0
C1728 C 0.87791 0.69199 0.70783 0.0
H1729 H 0.82093 0.65251 0.84382 0.0
H1730 H 0.84394 0.66076 0.81199 0.0
C1731 C 0.8832 0.70357 0.68904 0.0
C1732 C 0.85075 0.67113 0.72966 0.0
H1733 H 0.8306 0.6886 0.77851 0.0
C1734 C 0.84866 0.64859 0.73293 0.0
C1735 C 0.8444 0.68575 0.74637 0.0
C1736 C 0.8454 0.7102 0.74341 0.0
C1737 C 0.84017 0.64028 0.75252 0.0
C1738 C 0.83338 0.65494 0.769 0.0
C1739 C 0.83605 0.67742 0.76592 0.0
C1740 C 0.82111 0.64764 0.78842 0.0
C1741 C 0.83838 0.6159 0.75535 0.0
C1742 C 0.80074 0.63769 0.78563 0.0
C1743 C 0.78762 0.6332 0.80359 0.0
C1744 C 0.79456 0.63866 0.82476 0.0
C1745 C 0.81521 0.64816 0.82768 0.0
C1746 C 0.82834 0.65279 0.80957 0.0
H1747 H 0.85034 0.60715 0.74493 0.0
H1748 H 0.841 0.6111 0.77261 0.0
H1749 H 0.8218 0.61054 0.75042 0.0
H1750 H 0.7946 0.63409 0.76944 0.0
H1751 H 0.77181 0.62579 0.80081 0.0
H1752 H 0.15216 0.35265 0.18266 0.0
H1753 H 0.18628 0.34559 0.16283 0.0
H1754 H 0.21907 0.39427 0.20171 0.0
H1755 H 0.18537 0.40086 0.22191 0.0
H1756 H 0.21796 0.37065 0.13941 0.0
H1757 H 0.25071 0.33774 0.21741 0.0
H1758 H 0.22223 0.34399 0.21371 0.0
H1759 H 0.24158 0.36552 0.21846 0.0
C1760 C 0.16656 0.36213 0.18659 0.0
C1761 C 0.16635 0.37697 0.20401 0.0
C1762 C 0.186 0.35811 0.1753 0.0
C1763 C 0.20527 0.36907 0.1812 0.0
C1764 C 0.2045 0.3853 0.19727 0.0
H1765 H 0.33763 0.32285 0.15163 0.0
H1766 H 0.30889 0.34896 0.16175 0.0
C1767 C 0.18525 0.38906 0.20875 0.0
C1768 C 0.2265 0.36187 0.17231 0.0
H1769 H 0.27362 0.33615 0.18694 0.0
C1770 C 0.23025 0.36331 0.14979 0.0
C1771 C 0.24254 0.35239 0.18596 0.0
C1772 C 0.23909 0.34961 0.2102 0.0
C1773 C 0.24943 0.35498 0.14047 0.0
C1774 C 0.26502 0.34473 0.15403 0.0
C1775 C 0.26171 0.34421 0.17663 0.0
C1776 C 0.28309 0.3315 0.14506 0.0
C1777 C 0.25264 0.35683 0.11616 0.0
C1778 C 0.27807 0.31321 0.1323 0.0
C1779 C 0.29426 0.29832 0.12677 0.0
C1780 C 0.31583 0.30137 0.13392 0.0
C1781 C 0.32113 0.32016 0.14591 0.0
C1782 C 0.30478 0.33506 0.15163 0.0
H1783 H 0.24385 0.37118 0.10947 0.0
H1784 H 0.2702 0.35821 0.11191 0.0
H1785 H 0.24595 0.34204 0.10814 0.0
H1786 H 0.2614 0.30983 0.12752 0.0
H1787 H 0.28971 0.28404 0.1174 0.0
H1788 H 0.33882 0.69965 0.82127 0.0
H1789 H 0.30671 0.6776 0.81271 0.0
H1790 H 0.30403 0.65517 0.87928 0.0
H1791 H 0.33636 0.67709 0.88798 0.0
H1792 H 0.2933 0.6296 0.82192 0.0
H1793 H 0.24759 0.69472 0.86616 0.0
H1794 H 0.2749 0.69938 0.8562 0.0
H1795 H 0.27056 0.68177 0.87911 0.0
C1796 C 0.33187 0.68943 0.8339 0.0
C1797 C 0.33995 0.69022 0.85532 0.0
C1798 C 0.31353 0.67687 0.829 0.0
C1799 C 0.30293 0.66506 0.84546 0.0
C1800 C 0.31201 0.6643 0.86643 0.0
H1801 H 0.16463 0.63367 0.81856 0.0
H1802 H 0.19851 0.63643 0.84001 0.0
C1803 C 0.33053 0.67672 0.87131 0.0
C1804 C 0.28094 0.65626 0.8411 0.0
H1805 H 0.22738 0.67106 0.84398 0.0
C1806 C 0.27881 0.6383 0.82714 0.0
C1807 C 0.26211 0.66756 0.84814 0.0
C1808 C 0.2637 0.68698 0.8632 0.0
C1809 C 0.25834 0.63212 0.81898 0.0
C1810 C 0.23975 0.64467 0.82444 0.0
C1811 C 0.24168 0.66157 0.83973 0.0
C1812 C 0.21913 0.64266 0.81204 0.0
C1813 C 0.25694 0.61269 0.80393 0.0
C1814 C 0.21946 0.64604 0.78945 0.0
C1815 C 0.20035 0.64458 0.77732 0.0
C1816 C 0.18037 0.63995 0.78753 0.0
C1817 C 0.17982 0.63727 0.8103 0.0
C1818 C 0.19912 0.63869 0.82251 0.0
H1819 H 0.26988 0.60059 0.80772 0.0
H1820 H 0.2408 0.60454 0.80508 0.0
H1821 H 0.25942 0.61818 0.78687 0.0
H1822 H 0.23458 0.64988 0.78114 0.0
H1823 H 0.2013 0.64694 0.75984 0.0
H1824 H 0.29944 0.32848 0.84012 0.0
H1825 H 0.32397 0.29743 0.83407 0.0
H1826 H 0.27068 0.25294 0.84568 0.0
H1827 H 0.24627 0.28368 0.85202 0.0
H1828 H 0.30966 0.24102 0.867 0.0
H1829 H 0.32241 0.25926 0.77901 0.0
H1830 H 0.32877 0.2811 0.79751 0.0
H1831 H 0.30106 0.27192 0.7948 0.0
C1832 C 0.29299 0.31207 0.84131 0.0
C1833 C 0.27092 0.30849 0.84634 0.0
C1834 C 0.30699 0.29439 0.83786 0.0
C1835 C 0.29905 0.27293 0.83927 0.0
C1836 C 0.27711 0.26937 0.84456 0.0
H1837 H 0.3378 0.14233 0.80799 0.0
H1838 H 0.3215 0.17409 0.82611 0.0
C1839 C 0.26317 0.28697 0.84804 0.0
C1840 C 0.31325 0.25404 0.83456 0.0
H1841 H 0.34075 0.2289 0.79335 0.0
C1842 C 0.31663 0.23839 0.85096 0.0
C1843 C 0.32217 0.25067 0.81359 0.0
C1844 C 0.31833 0.26649 0.79512 0.0
C1845 C 0.32868 0.21935 0.84686 0.0
C1846 C 0.33727 0.21585 0.82579 0.0
C1847 C 0.33421 0.2317 0.80955 0.0
C1848 C 0.3488 0.19559 0.8196 0.0
C1849 C 0.33217 0.20321 0.86507 0.0
C1850 C 0.36972 0.19701 0.81052 0.0
C1851 C 0.37884 0.17907 0.8 0.0
C1852 C 0.36725 0.15936 0.79848 0.0
C1853 C 0.34711 0.15732 0.80915 0.0
C1854 C 0.33783 0.17543 0.81952 0.0
H1855 H 0.32994 0.21091 0.88133 0.0
H1856 H 0.3201 0.1898 0.86352 0.0
H1857 H 0.34876 0.19599 0.86425 0.0
H1858 H 0.37845 0.21239 0.81042 0.0
H1859 H 0.39449 0.18098 0.792 0.0
H1860 H 0.66332 0.3145 0.84351 0.0
H1861 H 0.69688 0.33463 0.83444 0.0
H1862 H 0.72733 0.31039 0.89303 0.0
H1863 H 0.69426 0.28994 0.90178 0.0
H1864 H 0.72647 0.36524 0.85678 0.0
H1865 H 0.76259 0.28328 0.84222 0.0
H1866 H 0.73364 0.28741 0.84535 0.0
H1867 H 0.75113 0.28732 0.86887 0.0
C1868 C 0.677 0.31403 0.85468 0.0
C1869 C 0.67648 0.30048 0.8731 0.0
C1870 C 0.69612 0.32546 0.84952 0.0
C1871 C 0.71466 0.32355 0.86287 0.0
C1872 C 0.71331 0.31171 0.88234 0.0
H1873 H 0.85127 0.34926 0.82879 0.0
H1874 H 0.81867 0.34171 0.85097 0.0
C1875 C 0.69444 0.30009 0.88731 0.0
C1876 C 0.73608 0.33152 0.85521 0.0
H1877 H 0.7856 0.3135 0.83734 0.0
C1878 C 0.73947 0.35399 0.85263 0.0
C1879 C 0.75299 0.31673 0.84989 0.0
C1880 C 0.74995 0.29233 0.85152 0.0
C1881 C 0.75937 0.36207 0.84464 0.0
C1882 C 0.77605 0.34722 0.83885 0.0
C1883 C 0.77284 0.32483 0.84202 0.0
C1884 C 0.7959 0.35416 0.82704 0.0
C1885 C 0.76232 0.38638 0.84231 0.0
C1886 C 0.7938 0.36351 0.80632 0.0
C1887 C 0.81219 0.36758 0.79367 0.0
C1888 C 0.83311 0.36231 0.80144 0.0
C1889 C 0.83533 0.35344 0.82243 0.0
C1890 C 0.81678 0.34922 0.83509 0.0
H1891 H 0.75154 0.39546 0.8537 0.0
H1892 H 0.7795 0.39126 0.84538 0.0
H1893 H 0.75796 0.39129 0.82545 0.0
H1894 H 0.77783 0.36694 0.79957 0.0
H1895 H 0.80995 0.37453 0.77759 0.0
H1896 H 0.68727 0.6606 0.84161 0.0
H1897 H 0.66678 0.69399 0.83286 0.0
H1898 H 0.70603 0.73018 0.87873 0.0
H1899 H 0.72673 0.69729 0.88709 0.0
H1900 H 0.64335 0.72644 0.8586 0.0
H1901 H 0.71829 0.75936 0.81949 0.0
H1902 H 0.71542 0.731 0.82679 0.0
H1903 H 0.72165 0.75099 0.84734 0.0
C1904 C 0.69124 0.67564 0.85001 0.0
C1905 C 0.7088 0.67654 0.86467 0.0
C1906 C 0.67955 0.69463 0.84505 0.0
C1907 C 0.68524 0.71457 0.85487 0.0
C1908 C 0.70171 0.71504 0.87068 0.0
H1909 H 0.65342 0.84784 0.81551 0.0
H1910 H 0.6649 0.81727 0.83877 0.0
C1911 C 0.71351 0.69625 0.87541 0.0
C1912 C 0.67542 0.73523 0.84732 0.0
H1913 H 0.68794 0.7827 0.82117 0.0
C1914 C 0.65305 0.7388 0.85048 0.0
C1915 C 0.68822 0.75132 0.83683 0.0
C1916 C 0.71218 0.74798 0.83221 0.0
C1917 C 0.64309 0.75812 0.84326 0.0
C1918 C 0.65584 0.77401 0.83241 0.0
C1919 C 0.67828 0.7706 0.82974 0.0
C1920 C 0.64604 0.79302 0.82128 0.0
C1921 C 0.61903 0.76132 0.84722 0.0
C1922 C 0.63149 0.7895 0.80402 0.0
C1923 C 0.62512 0.80677 0.79075 0.0
C1924 C 0.63323 0.82791 0.79442 0.0
C1925 C 0.64694 0.8317 0.81237 0.0
C1926 C 0.65346 0.8143 0.82563 0.0
H1927 H 0.61338 0.75177 0.86155 0.0
H1928 H 0.61509 0.77879 0.84991 0.0
H1929 H 0.6098 0.75555 0.83275 0.0
H1930 H 0.62596 0.77319 0.80005 0.0
H1931 H 0.61442 0.80338 0.77709 0.0
H1932 H 0.65668 0.68074 0.15316 0.0
H1933 H 0.68675 0.65579 0.16237 0.0
H1934 H 0.73329 0.70356 0.13994 0.0
H1935 H 0.70369 0.72827 0.13068 0.0
H1936 H 0.74258 0.65917 0.12693 0.0
H1937 H 0.72648 0.66921 0.21588 0.0
H1938 H 0.70425 0.66017 0.19897 0.0
H1939 H 0.71484 0.68728 0.19581 0.0
C1940 C 0.67333 0.68577 0.15006 0.0
C1941 C 0.67787 0.70653 0.14148 0.0
C1942 C 0.69044 0.67156 0.15531 0.0
C1943 C 0.7122 0.67796 0.15195 0.0
C1944 C 0.71662 0.69832 0.14261 0.0
H1945 H 0.84482 0.6545 0.1831 0.0
H1946 H 0.81052 0.6623 0.16405 0.0
C1947 C 0.69965 0.71247 0.13748 0.0
C1948 C 0.7307 0.66452 0.15955 0.0
H1949 H 0.75817 0.65074 0.20581 0.0
C1950 C 0.74587 0.65693 0.14416 0.0
C1951 C 0.73491 0.66174 0.18202 0.0
C1952 C 0.7194 0.67009 0.19922 0.0
C1953 C 0.76551 0.64715 0.15072 0.0
C1954 C 0.77021 0.64538 0.17323 0.0
C1955 C 0.75456 0.65211 0.18855 0.0
C1956 C 0.79168 0.63802 0.18155 0.0
C1957 C 0.78108 0.63905 0.13351 0.0
C1958 C 0.79257 0.62169 0.19753 0.0
C1959 C 0.81195 0.6176 0.20866 0.0
C1960 C 0.83087 0.62963 0.20391 0.0
C1961 C 0.83046 0.64493 0.18692 0.0
C1962 C 0.8109 0.64927 0.17596 0.0
H1963 H 0.77232 0.63471 0.11824 0.0
H1964 H 0.7929 0.65217 0.12954 0.0
H1965 H 0.79031 0.62457 0.13924 0.0
H1966 H 0.77798 0.61281 0.20211 0.0
H1967 H 0.81192 0.60556 0.22159 0.0
H1968 H 0.38342 0.79567 0.23944 0.0
H1969 H 0.36749 0.76585 0.21836 0.0
H1970 H 0.32153 0.81063 0.18955 0.0
H1971 H 0.33782 0.84072 0.21022 0.0
H1972 H 0.32605 0.75248 0.22328 0.0
H1973 H 0.34014 0.77521 0.13699 0.0
H1974 H 0.35459 0.78798 0.15928 0.0
H1975 H 0.32737 0.79653 0.15243 0.0
C1976 C 0.37016 0.79923 0.22831 0.0
C1977 C 0.36175 0.82046 0.22651 0.0
C1978 C 0.36112 0.78219 0.21627 0.0
C1979 C 0.34347 0.78605 0.20225 0.0
C1980 C 0.33546 0.80738 0.19989 0.0
H1981 H 0.24303 0.71056 0.14244 0.0
H1982 H 0.26798 0.73853 0.15604 0.0
C1983 C 0.34466 0.82452 0.21182 0.0
C1984 C 0.33201 0.76743 0.19204 0.0
H1985 H 0.3132 0.74754 0.14354 0.0
C1986 C 0.32351 0.75122 0.20581 0.0
C1987 C 0.32871 0.76589 0.16927 0.0
C1988 C 0.33837 0.78222 0.15361 0.0
C1989 C 0.31114 0.7339 0.1975 0.0
C1990 C 0.30737 0.73267 0.17482 0.0
C1991 C 0.31619 0.7486 0.16096 0.0
C1992 C 0.29314 0.71568 0.16542 0.0
C1993 C 0.3015 0.71748 0.21312 0.0
C1994 C 0.29923 0.69364 0.166 0.0
C1995 C 0.28497 0.6776 0.15829 0.0
C1996 C 0.26447 0.68343 0.1499 0.0
C1997 C 0.25866 0.70558 0.14893 0.0
C1998 C 0.27292 0.72157 0.15659 0.0
H1999 H 0.30277 0.72292 0.23036 0.0
H2000 H 0.28407 0.71445 0.20924 0.0
H2001 H 0.31034 0.70178 0.21149 0.0
H2002 H 0.3149 0.68887 0.1726 0.0
H2003 H 0.28991 0.66063 0.15908 0.0
H2004 H 0.74487 0.29402 0.11645 0.0
H2005 H 0.72179 0.26204 0.12168 0.0
H2006 H 0.68041 0.29887 0.16503 0.0
H2007 H 0.70334 0.33124 0.15952 0.0
H2008 H 0.71658 0.24272 0.16127 0.0
H2009 H 0.63616 0.26607 0.12735 0.0
H2010 H 0.66095 0.28071 0.12102 0.0
H2011 H 0.64696 0.28562 0.14632 0.0
C2012 C 0.73069 0.29542 0.1269 0.0
C2013 C 0.72598 0.31504 0.13778 0.0
C2014 C 0.71749 0.27715 0.12977 0.0
C2015 C 0.69931 0.27813 0.14357 0.0
C2016 C 0.69412 0.2979 0.15395 0.0
H2017 H 0.61964 0.19459 0.21682 0.0
H2018 H 0.63622 0.22363 0.19546 0.0
C2019 C 0.7073 0.31632 0.15095 0.0
C2020 C 0.68739 0.25786 0.149 0.0
H2021 H 0.63671 0.23494 0.15107 0.0
C2022 C 0.69918 0.24083 0.15871 0.0
C2023 C 0.66472 0.2555 0.14558 0.0
C2024 C 0.65147 0.27286 0.1343 0.0
C2025 C 0.68873 0.22192 0.16616 0.0
C2026 C 0.66592 0.21985 0.16344 0.0
C2027 C 0.65422 0.23654 0.153 0.0
C2028 C 0.65369 0.20188 0.17387 0.0
C2029 C 0.70202 0.20491 0.178 0.0
C2030 C 0.65749 0.17996 0.16834 0.0
C2031 C 0.6481 0.1632 0.1807 0.0
C2032 C 0.63477 0.16824 0.19863 0.0
C2033 C 0.63003 0.19019 0.20323 0.0
C2034 C 0.63939 0.20683 0.19096 0.0
H2035 H 0.71868 0.21082 0.18202 0.0
H2036 H 0.69382 0.19996 0.19337 0.0
H2037 H 0.70363 0.19023 0.16754 0.0
H2038 H 0.66826 0.17586 0.15496 0.0
H2039 H 0.65188 0.14641 0.17672 0.0
loop_
_geom_bond_atom_site_label_1
_geom_bond_atom_site_label_2
_geom_bond_distance
_geom_bond_site_symmetry_2
_ccdc_geom_bond_type
In0 O1 2.294 . S
In0 O2 2.326 . S
In0 O6 2.266 . S
In0 O7 2.326 . S
In0 O8 2.266 . S
In0 O9 2.326 . S
In0 O11 2.294 . S
In0 O12 2.326 . S
O1 In0 2.294 . S
O1 C10 1.240 . S
O2 In0 2.326 . S
O2 C10 1.252 . S
C3 O6 1.252 . S
C3 O7 1.260 . S
C4 O11 1.240 . S
C4 O12 1.252 . S
C5 O8 1.252 . S
C5 O9 1.260 . S
O6 In0 2.266 . S
O6 C3 1.252 . S
O7 In0 2.326 . S
O7 C3 1.260 . S
O8 In0 2.266 . S
O8 C5 1.252 . S
O9 In0 2.326 . S
O9 C5 1.260 . S
C10 O1 1.240 . S
C10 O2 1.252 . S
O11 In0 2.294 . S
O11 C4 1.240 . S
O12 In0 2.326 . S
O12 C4 1.252 . S
In13 O14 2.294 . S
In13 O15 2.326 . S
In13 O19 2.266 . S
In13 O20 2.326 . S
In13 O21 2.266 . S
In13 O22 2.326 . S
In13 O24 2.294 . S
In13 O25 2.326 . S
O14 In13 2.294 . S
O14 C23 1.240 . S
O15 In13 2.326 . S
O15 C23 1.252 . S
C16 O19 1.252 . S
C16 O20 1.260 . S
C17 O24 1.240 . S
C17 O25 1.252 . S
C18 O21 1.252 . S
C18 O22 1.260 . S
O19 In13 2.266 . S
O19 C16 1.252 . S
O20 In13 2.326 . S
O20 C16 1.260 . S
O21 In13 2.266 . S
O21 C18 1.252 . S
O22 In13 2.326 . S
O22 C18 1.260 . S
C23 O14 1.240 . S
C23 O15 1.252 . S
O24 In13 2.294 . S
O24 C17 1.240 . S
O25 In13 2.326 . S
O25 C17 1.252 . S
In26 O27 2.294 . S
In26 O28 2.326 . S
In26 O32 2.266 . S
In26 O33 2.326 . S
In26 O34 2.266 . S
In26 O35 2.326 . S
In26 O37 2.294 . S
In26 O38 2.326 . S
O27 In26 2.294 . S
O27 C36 1.240 . S
O28 In26 2.326 . S
O28 C36 1.252 . S
C29 O32 1.252 . S
C29 O33 1.260 . S
C30 O37 1.240 . S
C30 O38 1.252 . S
C31 O34 1.252 . S
C31 O35 1.260 . S
O32 In26 2.266 . S
O32 C29 1.252 . S
O33 In26 2.326 . S
O33 C29 1.260 . S
O34 In26 2.266 . S
O34 C31 1.252 . S
O35 In26 2.326 . S
O35 C31 1.260 . S
C36 O27 1.240 . S
C36 O28 1.252 . S
O37 In26 2.294 . S
O37 C30 1.240 . S
O38 In26 2.326 . S
O38 C30 1.252 . S
In39 O40 2.294 . S
In39 O41 2.326 . S
In39 O45 2.266 . S
In39 O46 2.326 . S
In39 O47 2.266 . S
In39 O48 2.326 . S
In39 O50 2.294 . S
In39 O51 2.326 . S
O40 In39 2.294 . S
O40 C49 1.240 . S
O41 In39 2.326 . S
O41 C49 1.252 . S
C42 O45 1.252 . S
C42 O46 1.260 . S
C43 O50 1.240 . S
C43 O51 1.252 . S
C44 O47 1.252 . S
C44 O48 1.260 . S
O45 In39 2.266 . S
O45 C42 1.252 . S
O46 In39 2.326 . S
O46 C42 1.260 . S
O47 In39 2.266 . S
O47 C44 1.252 . S
O48 In39 2.326 . S
O48 C44 1.260 . S
C49 O40 1.240 . S
C49 O41 1.252 . S
O50 In39 2.294 . S
O50 C43 1.240 . S
O51 In39 2.326 . S
O51 C43 1.252 . S
In52 O53 2.294 . S
In52 O54 2.326 . S
In52 O58 2.266 . S
In52 O59 2.326 . S
In52 O60 2.266 . S
In52 O61 2.326 . S
In52 O63 2.294 . S
In52 O64 2.326 . S
O53 In52 2.294 . S
O53 C62 1.240 . S
O54 In52 2.326 . S
O54 C62 1.252 . S
C55 O58 1.252 . S
C55 O59 1.260 . S
C56 O63 1.240 . S
C56 O64 1.252 . S
C57 O60 1.252 . S
C57 O61 1.260 . S
O58 In52 2.266 . S
O58 C55 1.252 . S
O59 In52 2.326 . S
O59 C55 1.260 . S
O60 In52 2.266 . S
O60 C57 1.252 . S
O61 In52 2.326 . S
O61 C57 1.260 . S
C62 O53 1.240 . S
C62 O54 1.252 . S
O63 In52 2.294 . S
O63 C56 1.240 . S
O64 In52 2.326 . S
O64 C56 1.252 . S
In65 O66 2.294 . S
In65 O67 2.326 . S
In65 O71 2.266 . S
In65 O72 2.326 . S
In65 O73 2.266 . S
In65 O74 2.326 . S
In65 O76 2.294 . S
In65 O77 2.326 . S
O66 In65 2.294 . S
O66 C75 1.240 . S
O67 In65 2.326 . S
O67 C75 1.252 . S
C68 O71 1.252 . S
C68 O72 1.260 . S
C69 O76 1.240 . S
C69 O77 1.252 . S
C70 O73 1.252 . S
C70 O74 1.260 . S
O71 In65 2.266 . S
O71 C68 1.252 . S
O72 In65 2.326 . S
O72 C68 1.260 . S
O73 In65 2.266 . S
O73 C70 1.252 . S
O74 In65 2.326 . S
O74 C70 1.260 . S
C75 O66 1.240 . S
C75 O67 1.252 . S
O76 In65 2.294 . S
O76 C69 1.240 . S
O77 In65 2.326 . S
O77 C69 1.252 . S
In78 O79 2.294 . S
In78 O80 2.326 . S
In78 O84 2.266 . S
In78 O85 2.326 . S
In78 O86 2.266 . S
In78 O87 2.326 . S
In78 O89 2.294 . S
In78 O90 2.326 . S
O79 In78 2.294 . S
O79 C88 1.240 . S
O80 In78 2.326 . S
O80 C88 1.252 . S
C81 O84 1.252 . S
C81 O85 1.260 . S
C82 O89 1.240 . S
C82 O90 1.252 . S
C83 O86 1.252 . S
C83 O87 1.260 . S
O84 In78 2.266 . S
O84 C81 1.252 . S
O85 In78 2.326 . S
O85 C81 1.260 . S
O86 In78 2.266 . S
O86 C83 1.252 . S
O87 In78 2.326 . S
O87 C83 1.260 . S
C88 O79 1.240 . S
C88 O80 1.252 . S
O89 In78 2.294 . S
O89 C82 1.240 . S
O90 In78 2.326 . S
O90 C82 1.252 . S
In91 O92 2.294 . S
In91 O93 2.326 . S
In91 O97 2.266 . S
In91 O98 2.326 . S
In91 O99 2.266 . S
In91 O100 2.326 . S
In91 O102 2.294 . S
In91 O103 2.326 . S
O92 In91 2.294 . S
O92 C101 1.240 . S
O93 In91 2.326 . S
O93 C101 1.252 . S
C94 O97 1.252 . S
C94 O98 1.260 . S
C95 O102 1.240 . S
C95 O103 1.252 . S
C96 O99 1.252 . S
C96 O100 1.260 . S
O97 In91 2.266 . S
O97 C94 1.252 . S
O98 In91 2.326 . S
O98 C94 1.260 . S
O99 In91 2.266 . S
O99 C96 1.252 . S
O100 In91 2.326 . S
O100 C96 1.260 . S
C101 O92 1.240 . S
C101 O93 1.252 . S
O102 In91 2.294 . S
O102 C95 1.240 . S
O103 In91 2.326 . S
O103 C95 1.252 . S
In104 O105 2.294 . S
In104 O106 2.326 . S
In104 O110 2.266 . S
In104 O111 2.326 . S
In104 O112 2.266 . S
In104 O113 2.326 . S
In104 O115 2.294 . S
In104 O116 2.326 . S
O105 In104 2.294 . S
O105 C114 1.240 . S
O106 In104 2.326 . S
O106 C114 1.252 . S
C107 O110 1.252 . S
C107 O111 1.260 . S
C108 O115 1.240 . S
C108 O116 1.252 . S
C109 O112 1.252 . S
C109 O113 1.260 . S
O110 In104 2.266 . S
O110 C107 1.252 . S
O111 In104 2.326 . S
O111 C107 1.260 . S
O112 In104 2.266 . S
O112 C109 1.252 . S
O113 In104 2.326 . S
O113 C109 1.260 . S
C114 O105 1.240 . S
C114 O106 1.252 . S
O115 In104 2.294 . S
O115 C108 1.240 . S
O116 In104 2.326 . S
O116 C108 1.252 . S
In117 O118 2.294 . S
In117 O119 2.326 . S
In117 O123 2.266 . S
In117 O124 2.326 . S
In117 O125 2.266 . S
In117 O126 2.326 . S
In117 O128 2.294 . S
In117 O129 2.326 . S
O118 In117 2.294 . S
O118 C127 1.240 . S
O119 In117 2.326 . S
O119 C127 1.252 . S
C120 O123 1.252 . S
C120 O124 1.260 . S
C121 O128 1.240 . S
C121 O129 1.252 . S
C122 O125 1.252 . S
C122 O126 1.260 . S
O123 In117 2.266 . S
O123 C120 1.252 . S
O124 In117 2.326 . S
O124 C120 1.260 . S
O125 In117 2.266 . S
O125 C122 1.252 . S
O126 In117 2.326 . S
O126 C122 1.260 . S
C127 O118 1.240 . S
C127 O119 1.252 . S
O128 In117 2.294 . S
O128 C121 1.240 . S
O129 In117 2.326 . S
O129 C121 1.252 . S
In130 O131 2.294 . S
In130 O132 2.326 . S
In130 O136 2.266 . S
In130 O137 2.326 . S
In130 O138 2.266 . S
In130 O139 2.326 . S
In130 O141 2.294 . S
In130 O142 2.326 . S
O131 In130 2.294 . S
O131 C140 1.240 . S
O132 In130 2.326 . S
O132 C140 1.252 . S
C133 O136 1.252 . S
C133 O137 1.260 . S
C134 O141 1.240 . S
C134 O142 1.252 . S
C135 O138 1.252 . S
C135 O139 1.260 . S
O136 In130 2.266 . S
O136 C133 1.252 . S
O137 In130 2.326 . S
O137 C133 1.260 . S
O138 In130 2.266 . S
O138 C135 1.252 . S
O139 In130 2.326 . S
O139 C135 1.260 . S
C140 O131 1.240 . S
C140 O132 1.252 . S
O141 In130 2.294 . S
O141 C134 1.240 . S
O142 In130 2.326 . S
O142 C134 1.252 . S
In143 O144 2.294 . S
In143 O145 2.326 . S
In143 O149 2.266 . S
In143 O150 2.326 . S
In143 O151 2.266 . S
In143 O152 2.326 . S
In143 O154 2.294 . S
In143 O155 2.326 . S
O144 In143 2.294 . S
O144 C153 1.240 . S
O145 In143 2.326 . S
O145 C153 1.252 . S
C146 O149 1.252 . S
C146 O150 1.260 . S
C147 O154 1.240 . S
C147 O155 1.252 . S
C148 O151 1.252 . S
C148 O152 1.260 . S
O149 In143 2.266 . S
O149 C146 1.252 . S
O150 In143 2.326 . S
O150 C146 1.260 . S
O151 In143 2.266 . S
O151 C148 1.252 . S
O152 In143 2.326 . S
O152 C148 1.260 . S
C153 O144 1.240 . S
C153 O145 1.252 . S
O154 In143 2.294 . S
O154 C147 1.240 . S
O155 In143 2.326 . S
O155 C147 1.252 . S
In156 O157 2.294 . S
In156 O158 2.326 . S
In156 O162 2.266 . S
In156 O163 2.326 . S
In156 O164 2.266 . S
In156 O165 2.326 . S
In156 O167 2.294 . S
In156 O168 2.326 . S
O157 In156 2.294 . S
O157 C166 1.240 . S
O158 In156 2.326 . S
O158 C166 1.252 . S
C159 O162 1.252 . S
C159 O163 1.260 . S
C160 O167 1.240 . S
C160 O168 1.252 . S
C161 O164 1.252 . S
C161 O165 1.260 . S
O162 In156 2.266 . S
O162 C159 1.252 . S
O163 In156 2.326 . S
O163 C159 1.260 . S
O164 In156 2.266 . S
O164 C161 1.252 . S
O165 In156 2.326 . S
O165 C161 1.260 . S
C166 O157 1.240 . S
C166 O158 1.252 . S
O167 In156 2.294 . S
O167 C160 1.240 . S
O168 In156 2.326 . S
O168 C160 1.252 . S
In169 O170 2.294 . S
In169 O171 2.326 . S
In169 O175 2.266 . S
In169 O176 2.326 . S
In169 O177 2.266 . S
In169 O178 2.326 . S
In169 O180 2.294 . S
In169 O181 2.326 . S
O170 In169 2.294 . S
O170 C179 1.240 . S
O171 In169 2.326 . S
O171 C179 1.252 . S
C172 O175 1.252 . S
C172 O176 1.260 . S
C173 O180 1.240 . S
C173 O181 1.252 . S
C174 O177 1.252 . S
C174 O178 1.260 . S
O175 In169 2.266 . S
O175 C172 1.252 . S
O176 In169 2.326 . S
O176 C172 1.260 . S
O177 In169 2.266 . S
O177 C174 1.252 . S
O178 In169 2.326 . S
O178 C174 1.260 . S
C179 O170 1.240 . S
C179 O171 1.252 . S
O180 In169 2.294 . S
O180 C173 1.240 . S
O181 In169 2.326 . S
O181 C173 1.252 . S
In182 O183 2.294 . S
In182 O184 2.326 . S
In182 O188 2.266 . S
In182 O189 2.326 . S
In182 O190 2.266 . S
In182 O191 2.326 . S
In182 O193 2.294 . S
In182 O194 2.326 . S
O183 In182 2.294 . S
O183 C192 1.240 . S
O184 In182 2.326 . S
O184 C192 1.252 . S
C185 O188 1.252 . S
C185 O189 1.260 . S
C186 O193 1.240 . S
C186 O194 1.252 . S
C187 O190 1.252 . S
C187 O191 1.260 . S
O188 In182 2.266 . S
O188 C185 1.252 . S
O189 In182 2.326 . S
O189 C185 1.260 . S
O190 In182 2.266 . S
O190 C187 1.252 . S
O191 In182 2.326 . S
O191 C187 1.260 . S
C192 O183 1.240 . S
C192 O184 1.252 . S
O193 In182 2.294 . S
O193 C186 1.240 . S
O194 In182 2.326 . S
O194 C186 1.252 . S
In195 O196 2.294 . S
In195 O197 2.326 . S
In195 O201 2.266 . S
In195 O202 2.326 . S
In195 O203 2.266 . S
In195 O204 2.326 . S
In195 O206 2.294 . S
In195 O207 2.326 . S
O196 In195 2.294 . S
O196 C205 1.240 . S
O197 In195 2.326 . S
O197 C205 1.252 . S
C198 O201 1.252 . S
C198 O202 1.260 . S
C199 O206 1.240 . S
C199 O207 1.252 . S
C200 O203 1.252 . S
C200 O204 1.260 . S
O201 In195 2.266 . S
O201 C198 1.252 . S
O202 In195 2.326 . S
O202 C198 1.260 . S
O203 In195 2.266 . S
O203 C200 1.252 . S
O204 In195 2.326 . S
O204 C200 1.260 . S
C205 O196 1.240 . S
C205 O197 1.252 . S
O206 In195 2.294 . S
O206 C199 1.240 . S
O207 In195 2.326 . S
O207 C199 1.252 . S
In208 O209 2.294 . S
In208 O210 2.326 . S
In208 O214 2.266 . S
In208 O215 2.326 . S
In208 O216 2.266 . S
In208 O217 2.326 . S
In208 O219 2.294 . S
In208 O220 2.326 . S
O209 In208 2.294 . S
O209 C218 1.240 . S
O210 In208 2.326 . S
O210 C218 1.252 . S
C211 O214 1.252 . S
C211 O215 1.260 . S
C212 O219 1.240 . S
C212 O220 1.252 . S
C213 O216 1.252 . S
C213 O217 1.260 . S
O214 In208 2.266 . S
O214 C211 1.252 . S
O215 In208 2.326 . S
O215 C211 1.260 . S
O216 In208 2.266 . S
O216 C213 1.252 . S
O217 In208 2.326 . S
O217 C213 1.260 . S
C218 O209 1.240 . S
C218 O210 1.252 . S
O219 In208 2.294 . S
O219 C212 1.240 . S
O220 In208 2.326 . S
O220 C212 1.252 . S
In221 O222 2.294 . S
In221 O223 2.326 . S
In221 O227 2.266 . S
In221 O228 2.326 . S
In221 O229 2.266 . S
In221 O230 2.326 . S
In221 O232 2.294 . S
In221 O233 2.326 . S
O222 In221 2.294 . S
O222 C231 1.240 . S
O223 In221 2.326 . S
O223 C231 1.252 . S
C224 O227 1.252 . S
C224 O228 1.260 . S
C225 O232 1.240 . S
C225 O233 1.252 . S
C226 O229 1.252 . S
C226 O230 1.260 . S
O227 In221 2.266 . S
O227 C224 1.252 . S
O228 In221 2.326 . S
O228 C224 1.260 . S
O229 In221 2.266 . S
O229 C226 1.252 . S
O230 In221 2.326 . S
O230 C226 1.260 . S
C231 O222 1.240 . S
C231 O223 1.252 . S
O232 In221 2.294 . S
O232 C225 1.240 . S
O233 In221 2.326 . S
O233 C225 1.252 . S
In234 O235 2.294 . S
In234 O236 2.326 . S
In234 O240 2.266 . S
In234 O241 2.326 . S
In234 O242 2.266 . S
In234 O243 2.326 . S
In234 O245 2.294 . S
In234 O246 2.326 . S
O235 In234 2.294 . S
O235 C244 1.240 . S
O236 In234 2.326 . S
O236 C244 1.252 . S
C237 O240 1.252 . S
C237 O241 1.260 . S
C238 O245 1.240 . S
C238 O246 1.252 . S
C239 O242 1.252 . S
C239 O243 1.260 . S
O240 In234 2.266 . S
O240 C237 1.252 . S
O241 In234 2.326 . S
O241 C237 1.260 . S
O242 In234 2.266 . S
O242 C239 1.252 . S
O243 In234 2.326 . S
O243 C239 1.260 . S
C244 O235 1.240 . S
C244 O236 1.252 . S
O245 In234 2.294 . S
O245 C238 1.240 . S
O246 In234 2.326 . S
O246 C238 1.252 . S
In247 O248 2.294 . S
In247 O249 2.326 . S
In247 O253 2.266 . S
In247 O254 2.326 . S
In247 O255 2.266 . S
In247 O256 2.326 . S
In247 O258 2.294 . S
In247 O259 2.326 . S
O248 In247 2.294 . S
O248 C257 1.240 . S
O249 In247 2.326 . S
O249 C257 1.252 . S
C250 O253 1.252 . S
C250 O254 1.260 . S
C251 O258 1.240 . S
C251 O259 1.252 . S
C252 O255 1.252 . S
C252 O256 1.260 . S
O253 In247 2.266 . S
O253 C250 1.252 . S
O254 In247 2.326 . S
O254 C250 1.260 . S
O255 In247 2.266 . S
O255 C252 1.252 . S
O256 In247 2.326 . S
O256 C252 1.260 . S
C257 O248 1.240 . S
C257 O249 1.252 . S
O258 In247 2.294 . S
O258 C251 1.240 . S
O259 In247 2.326 . S
O259 C251 1.252 . S
In260 O261 2.294 . S
In260 O262 2.326 . S
In260 O266 2.266 . S
In260 O267 2.326 . S
In260 O268 2.266 . S
In260 O269 2.326 . S
In260 O271 2.294 . S
In260 O272 2.326 . S
O261 In260 2.294 . S
O261 C270 1.240 . S
O262 In260 2.326 . S
O262 C270 1.252 . S
C263 O266 1.252 . S
C263 O267 1.260 . S
C264 O271 1.240 . S
C264 O272 1.252 . S
C265 O268 1.252 . S
C265 O269 1.260 . S
O266 In260 2.266 . S
O266 C263 1.252 . S
O267 In260 2.326 . S
O267 C263 1.260 . S
O268 In260 2.266 . S
O268 C265 1.252 . S
O269 In260 2.326 . S
O269 C265 1.260 . S
C270 O261 1.240 . S
C270 O262 1.252 . S
O271 In260 2.294 . S
O271 C264 1.240 . S
O272 In260 2.326 . S
O272 C264 1.252 . S
In273 O274 2.294 . S
In273 O275 2.326 . S
In273 O279 2.266 . S
In273 O280 2.326 . S
In273 O281 2.266 . S
In273 O282 2.326 . S
In273 O284 2.294 . S
In273 O285 2.326 . S
O274 In273 2.294 . S
O274 C283 1.240 . S
O275 In273 2.326 . S
O275 C283 1.252 . S
C276 O279 1.252 . S
C276 O280 1.260 . S
C277 O284 1.240 . S
C277 O285 1.252 . S
C278 O281 1.252 . S
C278 O282 1.260 . S
O279 In273 2.266 . S
O279 C276 1.252 . S
O280 In273 2.326 . S
O280 C276 1.260 . S
O281 In273 2.266 . S
O281 C278 1.252 . S
O282 In273 2.326 . S
O282 C278 1.260 . S
C283 O274 1.240 . S
C283 O275 1.252 . S
O284 In273 2.294 . S
O284 C277 1.240 . S
O285 In273 2.326 . S
O285 C277 1.252 . S
In286 O287 2.294 . S
In286 O288 2.326 . S
In286 O292 2.266 . S
In286 O293 2.326 . S
In286 O294 2.266 . S
In286 O295 2.326 . S
In286 O297 2.294 . S
In286 O298 2.326 . S
O287 In286 2.294 . S
O287 C296 1.240 . S
O288 In286 2.326 . S
O288 C296 1.252 . S
C289 O292 1.252 . S
C289 O293 1.260 . S
C290 O297 1.240 . S
C290 O298 1.252 . S
C291 O294 1.252 . S
C291 O295 1.260 . S
O292 In286 2.266 . S
O292 C289 1.252 . S
O293 In286 2.326 . S
O293 C289 1.260 . S
O294 In286 2.266 . S
O294 C291 1.252 . S
O295 In286 2.326 . S
O295 C291 1.260 . S
C296 O287 1.240 . S
C296 O288 1.252 . S
O297 In286 2.294 . S
O297 C290 1.240 . S
O298 In286 2.326 . S
O298 C290 1.252 . S
In299 O300 2.294 . S
In299 O301 2.326 . S
In299 O305 2.266 . S
In299 O306 2.326 . S
In299 O307 2.266 . S
In299 O308 2.326 . S
In299 O310 2.294 . S
In299 O311 2.326 . S
O300 In299 2.294 . S
O300 C309 1.240 . S
O301 In299 2.326 . S
O301 C309 1.252 . S
C302 O305 1.252 . S
C302 O306 1.260 . S
C303 O310 1.240 . S
C303 O311 1.252 . S
C304 O307 1.252 . S
C304 O308 1.260 . S
O305 In299 2.266 . S
O305 C302 1.252 . S
O306 In299 2.326 . S
O306 C302 1.260 . S
O307 In299 2.266 . S
O307 C304 1.252 . S
O308 In299 2.326 . S
O308 C304 1.260 . S
C309 O300 1.240 . S
C309 O301 1.252 . S
O310 In299 2.294 . S
O310 C303 1.240 . S
O311 In299 2.326 . S
O311 C303 1.252 . S
H312 C320 0.929 . S
H313 C322 0.930 . S
H314 C324 0.930 . S
H315 C327 0.929 . S
H316 C330 0.930 . S
H317 C332 0.960 . S
H318 C332 0.960 . S
H319 C332 0.960 . S
C320 H312 0.929 . S
C320 C321 1.377 . S
C320 C322 1.384 . S
C321 C320 1.377 . S
C321 C327 1.390 . S
C322 H313 0.930 . S
C322 C320 1.384 . S
C322 C323 1.372 . S
C323 C322 1.372 . S
C323 C324 1.400 . S
C323 C328 1.490 . S
C324 H314 0.930 . S
C324 C323 1.400 . S
C324 C327 1.386 . S
H325 C341 0.930 . S
H326 C342 0.931 . S
C327 H315 0.929 . S
C327 C321 1.390 . S
C327 C324 1.386 . S
C328 C323 1.490 . S
C328 C330 1.395 . S
C328 C331 1.403 . S
H329 C335 0.930 . S
C330 H316 0.930 . S
C330 C328 1.395 . S
C330 C333 1.403 . S
C331 C328 1.403 . S
C331 C332 1.524 . S
C331 C335 1.400 . S
C332 H317 0.960 . S
C332 H318 0.960 . S
C332 H319 0.960 . S
C332 C331 1.524 . S
C333 C330 1.403 . S
C333 C334 1.392 . S
C333 C337 1.495 . S
C334 C333 1.392 . S
C334 C335 1.385 . S
C334 C336 1.478 . S
C335 H329 0.930 . S
C335 C331 1.400 . S
C335 C334 1.385 . S
C336 C334 1.478 . S
C336 C338 1.381 . S
C336 C342 1.383 . S
C337 C333 1.495 . S
C337 H343 0.959 . S
C337 H344 0.961 . S
C337 H345 0.960 . S
C338 C336 1.381 . S
C338 C339 1.394 . S
C338 H346 0.930 . S
C339 C338 1.394 . S
C339 C340 1.383 . S
C339 H347 0.929 . S
C340 C339 1.383 . S
C340 C341 1.377 . S
C341 H325 0.930 . S
C341 C340 1.377 . S
C341 C342 1.379 . S
C342 H326 0.931 . S
C342 C336 1.383 . S
C342 C341 1.379 . S
H343 C337 0.959 . S
H344 C337 0.961 . S
H345 C337 0.960 . S
H346 C338 0.930 . S
H347 C339 0.929 . S
H348 C356 0.929 . S
H349 C358 0.930 . S
H350 C360 0.930 . S
H351 C363 0.929 . S
H352 C366 0.930 . S
H353 C368 0.960 . S
H354 C368 0.960 . S
H355 C368 0.960 . S
C356 H348 0.929 . S
C356 C357 1.377 . S
C356 C358 1.384 . S
C357 C356 1.377 . S
C357 C363 1.390 . S
C358 H349 0.930 . S
C358 C356 1.384 . S
C358 C359 1.372 . S
C359 C358 1.372 . S
C359 C360 1.400 . S
C359 C364 1.490 . S
C360 H350 0.930 . S
C360 C359 1.400 . S
C360 C363 1.386 . S
H361 C377 0.930 . S
H362 C378 0.931 . S
C363 H351 0.929 . S
C363 C357 1.390 . S
C363 C360 1.386 . S
C364 C359 1.490 . S
C364 C366 1.395 . S
C364 C367 1.403 . S
H365 C371 0.930 . S
C366 H352 0.930 . S
C366 C364 1.395 . S
C366 C369 1.403 . S
C367 C364 1.403 . S
C367 C368 1.524 . S
C367 C371 1.400 . S
C368 H353 0.960 . S
C368 H354 0.960 . S
C368 H355 0.960 . S
C368 C367 1.524 . S
C369 C366 1.403 . S
C369 C370 1.392 . S
C369 C373 1.495 . S
C370 C369 1.392 . S
C370 C371 1.385 . S
C370 C372 1.478 . S
C371 H365 0.930 . S
C371 C367 1.400 . S
C371 C370 1.385 . S
C372 C370 1.478 . S
C372 C374 1.381 . S
C372 C378 1.383 . S
C373 C369 1.495 . S
C373 H379 0.959 . S
C373 H380 0.961 . S
C373 H381 0.960 . S
C374 C372 1.381 . S
C374 C375 1.394 . S
C374 H382 0.930 . S
C375 C374 1.394 . S
C375 C376 1.383 . S
C375 H383 0.929 . S
C376 C375 1.383 . S
C376 C377 1.377 . S
C377 H361 0.930 . S
C377 C376 1.377 . S
C377 C378 1.379 . S
C378 H362 0.931 . S
C378 C372 1.383 . S
C378 C377 1.379 . S
H379 C373 0.959 . S
H380 C373 0.961 . S
H381 C373 0.960 . S
H382 C374 0.930 . S
H383 C375 0.929 . S
H384 C392 0.929 . S
H385 C394 0.930 . S
H386 C396 0.930 . S
H387 C399 0.929 . S
H388 C402 0.930 . S
H389 C404 0.960 . S
H390 C404 0.960 . S
H391 C404 0.960 . S
C392 H384 0.929 . S
C392 C393 1.377 . S
C392 C394 1.384 . S
C393 C392 1.377 . S
C393 C399 1.390 . S
C394 H385 0.930 . S
C394 C392 1.384 . S
C394 C395 1.372 . S
C395 C394 1.372 . S
C395 C396 1.400 . S
C395 C400 1.490 . S
C396 H386 0.930 . S
C396 C395 1.400 . S
C396 C399 1.386 . S
H397 C413 0.930 . S
H398 C414 0.931 . S
C399 H387 0.929 . S
C399 C393 1.390 . S
C399 C396 1.386 . S
C400 C395 1.490 . S
C400 C402 1.395 . S
C400 C403 1.403 . S
H401 C407 0.930 . S
C402 H388 0.930 . S
C402 C400 1.395 . S
C402 C405 1.403 . S
C403 C400 1.403 . S
C403 C404 1.524 . S
C403 C407 1.400 . S
C404 H389 0.960 . S
C404 H390 0.960 . S
C404 H391 0.960 . S
C404 C403 1.524 . S
C405 C402 1.403 . S
C405 C406 1.392 . S
C405 C409 1.495 . S
C406 C405 1.392 . S
C406 C407 1.385 . S
C406 C408 1.478 . S
C407 H401 0.930 . S
C407 C403 1.400 . S
C407 C406 1.385 . S
C408 C406 1.478 . S
C408 C410 1.381 . S
C408 C414 1.383 . S
C409 C405 1.495 . S
C409 H415 0.959 . S
C409 H416 0.961 . S
C409 H417 0.960 . S
C410 C408 1.381 . S
C410 C411 1.394 . S
C410 H418 0.930 . S
C411 C410 1.394 . S
C411 C412 1.383 . S
C411 H419 0.929 . S
C412 C411 1.383 . S
C412 C413 1.377 . S
C413 H397 0.930 . S
C413 C412 1.377 . S
C413 C414 1.379 . S
C414 H398 0.931 . S
C414 C408 1.383 . S
C414 C413 1.379 . S
H415 C409 0.959 . S
H416 C409 0.961 . S
H417 C409 0.960 . S
H418 C410 0.930 . S
H419 C411 0.929 . S
H420 C428 0.929 . S
H421 C430 0.930 . S
H422 C432 0.930 . S
H423 C435 0.929 . S
H424 C438 0.930 . S
H425 C440 0.960 . S
H426 C440 0.960 . S
H427 C440 0.960 . S
C428 H420 0.929 . S
C428 C429 1.377 . S
C428 C430 1.384 . S
C429 C428 1.377 . S
C429 C435 1.390 . S
C430 H421 0.930 . S
C430 C428 1.384 . S
C430 C431 1.372 . S
C431 C430 1.372 . S
C431 C432 1.400 . S
C431 C436 1.490 . S
C432 H422 0.930 . S
C432 C431 1.400 . S
C432 C435 1.386 . S
H433 C449 0.930 . S
H434 C450 0.931 . S
C435 H423 0.929 . S
C435 C429 1.390 . S
C435 C432 1.386 . S
C436 C431 1.490 . S
C436 C438 1.395 . S
C436 C439 1.403 . S
H437 C443 0.930 . S
C438 H424 0.930 . S
C438 C436 1.395 . S
C438 C441 1.403 . S
C439 C436 1.403 . S
C439 C440 1.524 . S
C439 C443 1.400 . S
C440 H425 0.960 . S
C440 H426 0.960 . S
C440 H427 0.960 . S
C440 C439 1.524 . S
C441 C438 1.403 . S
C441 C442 1.392 . S
C441 C445 1.495 . S
C442 C441 1.392 . S
C442 C443 1.385 . S
C442 C444 1.478 . S
C443 H437 0.930 . S
C443 C439 1.400 . S
C443 C442 1.385 . S
C444 C442 1.478 . S
C444 C446 1.381 . S
C444 C450 1.383 . S
C445 C441 1.495 . S
C445 H451 0.959 . S
C445 H452 0.961 . S
C445 H453 0.960 . S
C446 C444 1.381 . S
C446 C447 1.394 . S
C446 H454 0.930 . S
C447 C446 1.394 . S
C447 C448 1.383 . S
C447 H455 0.929 . S
C448 C447 1.383 . S
C448 C449 1.377 . S
C449 H433 0.930 . S
C449 C448 1.377 . S
C449 C450 1.379 . S
C450 H434 0.931 . S
C450 C444 1.383 . S
C450 C449 1.379 . S
H451 C445 0.959 . S
H452 C445 0.961 . S
H453 C445 0.960 . S
H454 C446 0.930 . S
H455 C447 0.929 . S
H456 C464 0.929 . S
H457 C466 0.930 . S
H458 C468 0.930 . S
H459 C471 0.929 . S
H460 C474 0.930 . S
H461 C476 0.960 . S
H462 C476 0.960 . S
H463 C476 0.960 . S
C464 H456 0.929 . S
C464 C465 1.377 . S
C464 C466 1.384 . S
C465 C464 1.377 . S
C465 C471 1.390 . S
C466 H457 0.930 . S
C466 C464 1.384 . S
C466 C467 1.372 . S
C467 C466 1.372 . S
C467 C468 1.400 . S
C467 C472 1.490 . S
C468 H458 0.930 . S
C468 C467 1.400 . S
C468 C471 1.386 . S
H469 C485 0.930 . S
H470 C486 0.931 . S
C471 H459 0.929 . S
C471 C465 1.390 . S
C471 C468 1.386 . S
C472 C467 1.490 . S
C472 C474 1.395 . S
C472 C475 1.403 . S
H473 C479 0.930 . S
C474 H460 0.930 . S
C474 C472 1.395 . S
C474 C477 1.403 . S
C475 C472 1.403 . S
C475 C476 1.524 . S
C475 C479 1.400 . S
C476 H461 0.960 . S
C476 H462 0.960 . S
C476 H463 0.960 . S
C476 C475 1.524 . S
C477 C474 1.403 . S
C477 C478 1.392 . S
C477 C481 1.495 . S
C478 C477 1.392 . S
C478 C479 1.385 . S
C478 C480 1.478 . S
C479 H473 0.930 . S
C479 C475 1.400 . S
C479 C478 1.385 . S
C480 C478 1.478 . S
C480 C482 1.381 . S
C480 C486 1.383 . S
C481 C477 1.495 . S
C481 H487 0.959 . S
C481 H488 0.961 . S
C481 H489 0.960 . S
C482 C480 1.381 . S
C482 C483 1.394 . S
C482 H490 0.930 . S
C483 C482 1.394 . S
C483 C484 1.383 . S
C483 H491 0.929 . S
C484 C483 1.383 . S
C484 C485 1.377 . S
C485 H469 0.930 . S
C485 C484 1.377 . S
C485 C486 1.379 . S
C486 H470 0.931 . S
C486 C480 1.383 . S
C486 C485 1.379 . S
H487 C481 0.959 . S
H488 C481 0.961 . S
H489 C481 0.960 . S
H490 C482 0.930 . S
H491 C483 0.929 . S
H492 C500 0.929 . S
H493 C502 0.930 . S
H494 C504 0.930 . S
H495 C507 0.929 . S
H496 C510 0.930 . S
H497 C512 0.960 . S
H498 C512 0.960 . S
H499 C512 0.960 . S
C500 H492 0.929 . S
C500 C501 1.377 . S
C500 C502 1.384 . S
C501 C500 1.377 . S
C501 C507 1.390 . S
C502 H493 0.930 . S
C502 C500 1.384 . S
C502 C503 1.372 . S
C503 C502 1.372 . S
C503 C504 1.400 . S
C503 C508 1.490 . S
C504 H494 0.930 . S
C504 C503 1.400 . S
C504 C507 1.386 . S
H505 C521 0.930 . S
H506 C522 0.931 . S
C507 H495 0.929 . S
C507 C501 1.390 . S
C507 C504 1.386 . S
C508 C503 1.490 . S
C508 C510 1.395 . S
C508 C511 1.403 . S
H509 C515 0.930 . S
C510 H496 0.930 . S
C510 C508 1.395 . S
C510 C513 1.403 . S
C511 C508 1.403 . S
C511 C512 1.524 . S
C511 C515 1.400 . S
C512 H497 0.960 . S
C512 H498 0.960 . S
C512 H499 0.960 . S
C512 C511 1.524 . S
C513 C510 1.403 . S
C513 C514 1.392 . S
C513 C517 1.495 . S
C514 C513 1.392 . S
C514 C515 1.385 . S
C514 C516 1.478 . S
C515 H509 0.930 . S
C515 C511 1.400 . S
C515 C514 1.385 . S
C516 C514 1.478 . S
C516 C518 1.381 . S
C516 C522 1.383 . S
C517 C513 1.495 . S
C517 H523 0.959 . S
C517 H524 0.961 . S
C517 H525 0.960 . S
C518 C516 1.381 . S
C518 C519 1.394 . S
C518 H526 0.930 . S
C519 C518 1.394 . S
C519 C520 1.383 . S
C519 H527 0.929 . S
C520 C519 1.383 . S
C520 C521 1.377 . S
C521 H505 0.930 . S
C521 C520 1.377 . S
C521 C522 1.379 . S
C522 H506 0.931 . S
C522 C516 1.383 . S
C522 C521 1.379 . S
H523 C517 0.959 . S
H524 C517 0.961 . S
H525 C517 0.960 . S
H526 C518 0.930 . S
H527 C519 0.929 . S
H528 C536 0.929 . S
H529 C538 0.930 . S
H530 C540 0.930 . S
H531 C543 0.929 . S
H532 C546 0.930 . S
H533 C548 0.960 . S
H534 C548 0.960 . S
H535 C548 0.960 . S
C536 H528 0.929 . S
C536 C537 1.377 . S
C536 C538 1.384 . S
C537 C536 1.377 . S
C537 C543 1.390 . S
C538 H529 0.930 . S
C538 C536 1.384 . S
C538 C539 1.372 . S
C539 C538 1.372 . S
C539 C540 1.400 . S
C539 C544 1.490 . S
C540 H530 0.930 . S
C540 C539 1.400 . S
C540 C543 1.386 . S
H541 C557 0.930 . S
H542 C558 0.931 . S
C543 H531 0.929 . S
C543 C537 1.390 . S
C543 C540 1.386 . S
C544 C539 1.490 . S
C544 C546 1.395 . S
C544 C547 1.403 . S
H545 C551 0.930 . S
C546 H532 0.930 . S
C546 C544 1.395 . S
C546 C549 1.403 . S
C547 C544 1.403 . S
C547 C548 1.524 . S
C547 C551 1.400 . S
C548 H533 0.960 . S
C548 H534 0.960 . S
C548 H535 0.960 . S
C548 C547 1.524 . S
C549 C546 1.403 . S
C549 C550 1.392 . S
C549 C553 1.495 . S
C550 C549 1.392 . S
C550 C551 1.385 . S
C550 C552 1.478 . S
C551 H545 0.930 . S
C551 C547 1.400 . S
C551 C550 1.385 . S
C552 C550 1.478 . S
C552 C554 1.381 . S
C552 C558 1.383 . S
C553 C549 1.495 . S
C553 H559 0.959 . S
C553 H560 0.961 . S
C553 H561 0.960 . S
C554 C552 1.381 . S
C554 C555 1.394 . S
C554 H562 0.930 . S
C555 C554 1.394 . S
C555 C556 1.383 . S
C555 H563 0.929 . S
C556 C555 1.383 . S
C556 C557 1.377 . S
C557 H541 0.930 . S
C557 C556 1.377 . S
C557 C558 1.379 . S
C558 H542 0.931 . S
C558 C552 1.383 . S
C558 C557 1.379 . S
H559 C553 0.959 . S
H560 C553 0.961 . S
H561 C553 0.960 . S
H562 C554 0.930 . S
H563 C555 0.929 . S
H564 C572 0.929 . S
H565 C574 0.930 . S
H566 C576 0.930 . S
H567 C579 0.929 . S
H568 C582 0.930 . S
H569 C584 0.960 . S
H570 C584 0.960 . S
H571 C584 0.960 . S
C572 H564 0.929 . S
C572 C573 1.377 . S
C572 C574 1.384 . S
C573 C572 1.377 . S
C573 C579 1.390 . S
C574 H565 0.930 . S
C574 C572 1.384 . S
C574 C575 1.372 . S
C575 C574 1.372 . S
C575 C576 1.400 . S
C575 C580 1.490 . S
C576 H566 0.930 . S
C576 C575 1.400 . S
C576 C579 1.386 . S
H577 C593 0.930 . S
H578 C594 0.931 . S
C579 H567 0.929 . S
C579 C573 1.390 . S
C579 C576 1.386 . S
C580 C575 1.490 . S
C580 C582 1.395 . S
C580 C583 1.403 . S
H581 C587 0.930 . S
C582 H568 0.930 . S
C582 C580 1.395 . S
C582 C585 1.403 . S
C583 C580 1.403 . S
C583 C584 1.524 . S
C583 C587 1.400 . S
C584 H569 0.960 . S
C584 H570 0.960 . S
C584 H571 0.960 . S
C584 C583 1.524 . S
C585 C582 1.403 . S
C585 C586 1.392 . S
C585 C589 1.495 . S
C586 C585 1.392 . S
C586 C587 1.385 . S
C586 C588 1.478 . S
C587 H581 0.930 . S
C587 C583 1.400 . S
C587 C586 1.385 . S
C588 C586 1.478 . S
C588 C590 1.381 . S
C588 C594 1.383 . S
C589 C585 1.495 . S
C589 H595 0.959 . S
C589 H596 0.961 . S
C589 H597 0.960 . S
C590 C588 1.381 . S
C590 C591 1.394 . S
C590 H598 0.930 . S
C591 C590 1.394 . S
C591 C592 1.383 . S
C591 H599 0.929 . S
C592 C591 1.383 . S
C592 C593 1.377 . S
C593 H577 0.930 . S
C593 C592 1.377 . S
C593 C594 1.379 . S
C594 H578 0.931 . S
C594 C588 1.383 . S
C594 C593 1.379 . S
H595 C589 0.959 . S
H596 C589 0.961 . S
H597 C589 0.960 . S
H598 C590 0.930 . S
H599 C591 0.929 . S
H600 C608 0.929 . S
H601 C610 0.930 . S
H602 C612 0.930 . S
H603 C615 0.929 . S
H604 C618 0.930 . S
H605 C620 0.960 . S
H606 C620 0.960 . S
H607 C620 0.960 . S
C608 H600 0.929 . S
C608 C609 1.377 . S
C608 C610 1.384 . S
C609 C608 1.377 . S
C609 C615 1.390 . S
C610 H601 0.930 . S
C610 C608 1.384 . S
C610 C611 1.372 . S
C611 C610 1.372 . S
C611 C612 1.400 . S
C611 C616 1.490 . S
C612 H602 0.930 . S
C612 C611 1.400 . S
C612 C615 1.386 . S
H613 C629 0.930 . S
H614 C630 0.931 . S
C615 H603 0.929 . S
C615 C609 1.390 . S
C615 C612 1.386 . S
C616 C611 1.490 . S
C616 C618 1.395 . S
C616 C619 1.403 . S
H617 C623 0.930 . S
C618 H604 0.930 . S
C618 C616 1.395 . S
C618 C621 1.403 . S
C619 C616 1.403 . S
C619 C620 1.524 . S
C619 C623 1.400 . S
C620 H605 0.960 . S
C620 H606 0.960 . S
C620 H607 0.960 . S
C620 C619 1.524 . S
C621 C618 1.403 . S
C621 C622 1.392 . S
C621 C625 1.495 . S
C622 C621 1.392 . S
C622 C623 1.385 . S
C622 C624 1.478 . S
C623 H617 0.930 . S
C623 C619 1.400 . S
C623 C622 1.385 . S
C624 C622 1.478 . S
C624 C626 1.381 . S
C624 C630 1.383 . S
C625 C621 1.495 . S
C625 H631 0.959 . S
C625 H632 0.961 . S
C625 H633 0.960 . S
C626 C624 1.381 . S
C626 C627 1.394 . S
C626 H634 0.930 . S
C627 C626 1.394 . S
C627 C628 1.383 . S
C627 H635 0.929 . S
C628 C627 1.383 . S
C628 C629 1.377 . S
C629 H613 0.930 . S
C629 C628 1.377 . S
C629 C630 1.379 . S
C630 H614 0.931 . S
C630 C624 1.383 . S
C630 C629 1.379 . S
H631 C625 0.959 . S
H632 C625 0.961 . S
H633 C625 0.960 . S
H634 C626 0.930 . S
H635 C627 0.929 . S
H636 C644 0.929 . S
H637 C646 0.930 . S
H638 C648 0.930 . S
H639 C651 0.929 . S
H640 C654 0.930 . S
H641 C656 0.960 . S
H642 C656 0.960 . S
H643 C656 0.960 . S
C644 H636 0.929 . S
C644 C645 1.377 . S
C644 C646 1.384 . S
C645 C644 1.377 . S
C645 C651 1.390 . S
C646 H637 0.930 . S
C646 C644 1.384 . S
C646 C647 1.372 . S
C647 C646 1.372 . S
C647 C648 1.400 . S
C647 C652 1.490 . S
C648 H638 0.930 . S
C648 C647 1.400 . S
C648 C651 1.386 . S
H649 C665 0.930 . S
H650 C666 0.931 . S
C651 H639 0.929 . S
C651 C645 1.390 . S
C651 C648 1.386 . S
C652 C647 1.490 . S
C652 C654 1.395 . S
C652 C655 1.403 . S
H653 C659 0.930 . S
C654 H640 0.930 . S
C654 C652 1.395 . S
C654 C657 1.403 . S
C655 C652 1.403 . S
C655 C656 1.524 . S
C655 C659 1.400 . S
C656 H641 0.960 . S
C656 H642 0.960 . S
C656 H643 0.960 . S
C656 C655 1.524 . S
C657 C654 1.403 . S
C657 C658 1.392 . S
C657 C661 1.495 . S
C658 C657 1.392 . S
C658 C659 1.385 . S
C658 C660 1.478 . S
C659 H653 0.930 . S
C659 C655 1.400 . S
C659 C658 1.385 . S
C660 C658 1.478 . S
C660 C662 1.381 . S
C660 C666 1.383 . S
C661 C657 1.495 . S
C661 H667 0.959 . S
C661 H668 0.961 . S
C661 H669 0.960 . S
C662 C660 1.381 . S
C662 C663 1.394 . S
C662 H670 0.930 . S
C663 C662 1.394 . S
C663 C664 1.383 . S
C663 H671 0.929 . S
C664 C663 1.383 . S
C664 C665 1.377 . S
C665 H649 0.930 . S
C665 C664 1.377 . S
C665 C666 1.379 . S
C666 H650 0.931 . S
C666 C660 1.383 . S
C666 C665 1.379 . S
H667 C661 0.959 . S
H668 C661 0.961 . S
H669 C661 0.960 . S
H670 C662 0.930 . S
H671 C663 0.929 . S
H672 C680 0.929 . S
H673 C682 0.930 . S
H674 C684 0.930 . S
H675 C687 0.929 . S
H676 C690 0.930 . S
H677 C692 0.960 . S
H678 C692 0.960 . S
H679 C692 0.960 . S
C680 H672 0.929 . S
C680 C681 1.377 . S
C680 C682 1.384 . S
C681 C680 1.377 . S
C681 C687 1.390 . S
C682 H673 0.930 . S
C682 C680 1.384 . S
C682 C683 1.372 . S
C683 C682 1.372 . S
C683 C684 1.400 . S
C683 C688 1.490 . S
C684 H674 0.930 . S
C684 C683 1.400 . S
C684 C687 1.386 . S
H685 C701 0.930 . S
H686 C702 0.931 . S
C687 H675 0.929 . S
C687 C681 1.390 . S
C687 C684 1.386 . S
C688 C683 1.490 . S
C688 C690 1.395 . S
C688 C691 1.403 . S
H689 C695 0.930 . S
C690 H676 0.930 . S
C690 C688 1.395 . S
C690 C693 1.403 . S
C691 C688 1.403 . S
C691 C692 1.524 . S
C691 C695 1.400 . S
C692 H677 0.960 . S
C692 H678 0.960 . S
C692 H679 0.960 . S
C692 C691 1.524 . S
C693 C690 1.403 . S
C693 C694 1.392 . S
C693 C697 1.495 . S
C694 C693 1.392 . S
C694 C695 1.385 . S
C694 C696 1.478 . S
C695 H689 0.930 . S
C695 C691 1.400 . S
C695 C694 1.385 . S
C696 C694 1.478 . S
C696 C698 1.381 . S
C696 C702 1.383 . S
C697 C693 1.495 . S
C697 H703 0.959 . S
C697 H704 0.961 . S
C697 H705 0.960 . S
C698 C696 1.381 . S
C698 C699 1.394 . S
C698 H706 0.930 . S
C699 C698 1.394 . S
C699 C700 1.383 . S
C699 H707 0.929 . S
C700 C699 1.383 . S
C700 C701 1.377 . S
C701 H685 0.930 . S
C701 C700 1.377 . S
C701 C702 1.379 . S
C702 H686 0.931 . S
C702 C696 1.383 . S
C702 C701 1.379 . S
H703 C697 0.959 . S
H704 C697 0.961 . S
H705 C697 0.960 . S
H706 C698 0.930 . S
H707 C699 0.929 . S
H708 C716 0.929 . S
H709 C718 0.930 . S
H710 C720 0.930 . S
H711 C723 0.929 . S
H712 C726 0.930 . S
H713 C728 0.960 . S
H714 C728 0.960 . S
H715 C728 0.960 . S
C716 H708 0.929 . S
C716 C717 1.377 . S
C716 C718 1.384 . S
C717 C716 1.377 . S
C717 C723 1.390 . S
C718 H709 0.930 . S
C718 C716 1.384 . S
C718 C719 1.372 . S
C719 C718 1.372 . S
C719 C720 1.400 . S
C719 C724 1.490 . S
C720 H710 0.930 . S
C720 C719 1.400 . S
C720 C723 1.386 . S
H721 C737 0.930 . S
H722 C738 0.931 . S
C723 H711 0.929 . S
C723 C717 1.390 . S
C723 C720 1.386 . S
C724 C719 1.490 . S
C724 C726 1.395 . S
C724 C727 1.403 . S
H725 C731 0.930 . S
C726 H712 0.930 . S
C726 C724 1.395 . S
C726 C729 1.403 . S
C727 C724 1.403 . S
C727 C728 1.524 . S
C727 C731 1.400 . S
C728 H713 0.960 . S
C728 H714 0.960 . S
C728 H715 0.960 . S
C728 C727 1.524 . S
C729 C726 1.403 . S
C729 C730 1.392 . S
C729 C733 1.495 . S
C730 C729 1.392 . S
C730 C731 1.385 . S
C730 C732 1.478 . S
C731 H725 0.930 . S
C731 C727 1.400 . S
C731 C730 1.385 . S
C732 C730 1.478 . S
C732 C734 1.381 . S
C732 C738 1.383 . S
C733 C729 1.495 . S
C733 H739 0.959 . S
C733 H740 0.961 . S
C733 H741 0.960 . S
C734 C732 1.381 . S
C734 C735 1.394 . S
C734 H742 0.930 . S
C735 C734 1.394 . S
C735 C736 1.383 . S
C735 H743 0.929 . S
C736 C735 1.383 . S
C736 C737 1.377 . S
C737 H721 0.930 . S
C737 C736 1.377 . S
C737 C738 1.379 . S
C738 H722 0.931 . S
C738 C732 1.383 . S
C738 C737 1.379 . S
H739 C733 0.959 . S
H740 C733 0.961 . S
H741 C733 0.960 . S
H742 C734 0.930 . S
H743 C735 0.929 . S
H744 C752 0.929 . S
H745 C754 0.930 . S
H746 C756 0.930 . S
H747 C759 0.929 . S
H748 C762 0.930 . S
H749 C764 0.960 . S
H750 C764 0.960 . S
H751 C764 0.960 . S
C752 H744 0.929 . S
C752 C753 1.377 . S
C752 C754 1.384 . S
C753 C752 1.377 . S
C753 C759 1.390 . S
C754 H745 0.930 . S
C754 C752 1.384 . S
C754 C755 1.372 . S
C755 C754 1.372 . S
C755 C756 1.400 . S
C755 C760 1.490 . S
C756 H746 0.930 . S
C756 C755 1.400 . S
C756 C759 1.386 . S
H757 C773 0.930 . S
H758 C774 0.931 . S
C759 H747 0.929 . S
C759 C753 1.390 . S
C759 C756 1.386 . S
C760 C755 1.490 . S
C760 C762 1.395 1_565 S
C760 C763 1.403 . S
H761 C767 0.930 1_565 S
C762 H748 0.930 . S
C762 C760 1.395 1_545 S
C762 C765 1.403 . S
C763 C760 1.403 . S
C763 C764 1.524 . S
C763 C767 1.401 1_565 S
C764 H749 0.960 . S
C764 H750 0.960 . S
C764 H751 0.960 . S
C764 C763 1.524 . S
C765 C762 1.403 . S
C765 C766 1.392 . S
C765 C769 1.495 . S
C766 C765 1.392 . S
C766 C767 1.384 . S
C766 C768 1.478 . S
C767 H761 0.930 1_545 S
C767 C763 1.401 1_545 S
C767 C766 1.384 . S
C768 C766 1.478 . S
C768 C770 1.381 . S
C768 C774 1.383 . S
C769 C765 1.495 . S
C769 H775 0.959 . S
C769 H776 0.961 . S
C769 H777 0.960 . S
C770 C768 1.381 . S
C770 C771 1.394 . S
C770 H778 0.930 . S
C771 C770 1.394 . S
C771 C772 1.383 . S
C771 H779 0.929 . S
C772 C771 1.383 . S
C772 C773 1.377 . S
C773 H757 0.930 . S
C773 C772 1.377 . S
C773 C774 1.379 . S
C774 H758 0.931 . S
C774 C768 1.383 . S
C774 C773 1.379 . S
H775 C769 0.959 . S
H776 C769 0.961 . S
H777 C769 0.960 . S
H778 C770 0.930 . S
H779 C771 0.929 . S
H780 C788 0.929 . S
H781 C790 0.930 . S
H782 C792 0.930 . S
H783 C795 0.929 . S
H784 C798 0.930 . S
H785 C800 0.960 . S
H786 C800 0.960 . S
H787 C800 0.960 . S
C788 H780 0.929 . S
C788 C789 1.377 . S
C788 C790 1.384 . S
C789 C788 1.377 . S
C789 C795 1.390 . S
C790 H781 0.930 . S
C790 C788 1.384 . S
C790 C791 1.372 . S
C791 C790 1.372 . S
C791 C792 1.400 . S
C791 C796 1.490 . S
C792 H782 0.930 . S
C792 C791 1.400 . S
C792 C795 1.386 . S
H793 C809 0.930 . S
H794 C810 0.931 . S
C795 H783 0.929 . S
C795 C789 1.390 . S
C795 C792 1.386 . S
C796 C791 1.490 . S
C796 C798 1.395 . S
C796 C799 1.403 . S
H797 C803 0.930 . S
C798 H784 0.930 . S
C798 C796 1.395 . S
C798 C801 1.403 1_655 S
C799 C796 1.403 . S
C799 C800 1.524 . S
C799 C803 1.400 1_655 S
C800 H785 0.960 . S
C800 H786 0.960 . S
C800 H787 0.960 . S
C800 C799 1.524 . S
C801 C798 1.403 1_455 S
C801 C802 1.392 . S
C801 C805 1.495 . S
C802 C801 1.392 . S
C802 C803 1.385 . S
C802 C804 1.478 . S
C803 H797 0.930 . S
C803 C799 1.400 1_455 S
C803 C802 1.385 . S
C804 C802 1.478 . S
C804 C806 1.381 . S
C804 C810 1.383 . S
C805 C801 1.495 . S
C805 H811 0.959 . S
C805 H812 0.961 . S
C805 H813 0.960 . S
C806 C804 1.381 . S
C806 C807 1.394 . S
C806 H814 0.930 . S
C807 C806 1.394 . S
C807 C808 1.383 . S
C807 H815 0.929 . S
C808 C807 1.383 . S
C808 C809 1.377 . S
C809 H793 0.930 . S
C809 C808 1.377 . S
C809 C810 1.379 . S
C810 H794 0.931 . S
C810 C804 1.383 . S
C810 C809 1.379 . S
H811 C805 0.959 . S
H812 C805 0.961 . S
H813 C805 0.960 . S
H814 C806 0.930 . S
H815 C807 0.929 . S
H816 C824 0.929 . S
H817 C826 0.930 . S
H818 C828 0.930 . S
H819 C831 0.929 . S
H820 C834 0.930 . S
H821 C836 0.960 . S
H822 C836 0.960 . S
H823 C836 0.960 . S
C824 H816 0.929 . S
C824 C825 1.377 . S
C824 C826 1.384 . S
C825 C824 1.377 . S
C825 C831 1.390 . S
C826 H817 0.930 . S
C826 C824 1.384 . S
C826 C827 1.372 . S
C827 C826 1.372 . S
C827 C828 1.400 . S
C827 C832 1.490 . S
C828 H818 0.930 . S
C828 C827 1.400 . S
C828 C831 1.386 . S
H829 C845 0.930 . S
H830 C846 0.931 . S
C831 H819 0.929 . S
C831 C825 1.390 . S
C831 C828 1.386 . S
C832 C827 1.490 . S
C832 C834 1.395 1_545 S
C832 C835 1.403 . S
H833 C839 0.929 1_545 S
C834 H820 0.930 . S
C834 C832 1.395 1_565 S
C834 C837 1.403 . S
C835 C832 1.403 . S
C835 C836 1.524 . S
C835 C839 1.385 1_545 S
C836 H821 0.960 . S
C836 H822 0.960 . S
C836 H823 0.960 . S
C836 C835 1.524 . S
C837 C834 1.403 . S
C837 C838 1.392 . S
C837 C841 1.495 . S
C838 C837 1.392 . S
C838 C839 1.401 . S
C838 C840 1.478 . S
C839 H833 0.929 1_565 S
C839 C835 1.385 1_565 S
C839 C838 1.401 . S
C840 C838 1.478 . S
C840 C842 1.381 . S
C840 C846 1.383 . S
C841 C837 1.495 . S
C841 H847 0.959 . S
C841 H848 0.961 . S
C841 H849 0.960 . S
C842 C840 1.381 . S
C842 C843 1.394 . S
C842 H850 0.930 . S
C843 C842 1.394 . S
C843 C844 1.383 . S
C843 H851 0.929 . S
C844 C843 1.383 . S
C844 C845 1.377 . S
C845 H829 0.930 . S
C845 C844 1.377 . S
C845 C846 1.379 . S
C846 H830 0.931 . S
C846 C840 1.383 . S
C846 C845 1.379 . S
H847 C841 0.959 . S
H848 C841 0.961 . S
H849 C841 0.960 . S
H850 C842 0.930 . S
H851 C843 0.929 . S
H852 C860 0.929 . S
H853 C862 0.930 . S
H854 C864 0.930 . S
H855 C867 0.929 . S
H856 C870 0.930 . S
H857 C872 0.960 . S
H858 C872 0.960 . S
H859 C872 0.960 . S
C860 H852 0.929 . S
C860 C861 1.377 . S
C860 C862 1.384 . S
C861 C860 1.377 . S
C861 C867 1.390 . S
C862 H853 0.930 . S
C862 C860 1.384 . S
C862 C863 1.372 . S
C863 C862 1.372 . S
C863 C864 1.400 . S
C863 C868 1.490 . S
C864 H854 0.930 . S
C864 C863 1.400 . S
C864 C867 1.386 . S
H865 C881 0.930 . S
H866 C882 0.931 . S
C867 H855 0.929 . S
C867 C861 1.390 . S
C867 C864 1.386 . S
C868 C863 1.490 . S
C868 C870 1.395 1_455 S
C868 C871 1.403 . S
H869 C875 0.928 1_455 S
C870 H856 0.930 . S
C870 C868 1.395 1_655 S
C870 C873 1.403 . S
C871 C868 1.403 . S
C871 C872 1.524 . S
C871 C875 1.379 1_455 S
C872 H857 0.960 . S
C872 H858 0.960 . S
C872 H859 0.960 . S
C872 C871 1.524 . S
C873 C870 1.403 . S
C873 C874 1.392 . S
C873 C877 1.495 . S
C874 C873 1.392 . S
C874 C875 1.408 . S
C874 C876 1.478 . S
C875 H869 0.928 1_655 S
C875 C871 1.379 1_655 S
C875 C874 1.408 . S
C876 C874 1.478 . S
C876 C878 1.381 . S
C876 C882 1.383 . S
C877 C873 1.495 . S
C877 H883 0.959 . S
C877 H884 0.961 . S
C877 H885 0.960 . S
C878 C876 1.381 . S
C878 C879 1.394 . S
C878 H886 0.930 . S
C879 C878 1.394 . S
C879 C880 1.383 . S
C879 H887 0.929 . S
C880 C879 1.383 . S
C880 C881 1.377 . S
C881 H865 0.930 . S
C881 C880 1.377 . S
C881 C882 1.379 . S
C882 H866 0.931 . S
C882 C876 1.383 . S
C882 C881 1.379 . S
H883 C877 0.959 . S
H884 C877 0.961 . S
H885 C877 0.960 . S
H886 C878 0.930 . S
H887 C879 0.929 . S
H888 C896 0.929 . S
H889 C898 0.930 . S
H890 C900 0.930 . S
H891 C903 0.929 . S
H892 C906 0.930 . S
H893 C908 0.960 . S
H894 C908 0.960 . S
H895 C908 0.960 . S
C896 H888 0.929 . S
C896 C897 1.377 . S
C896 C898 1.384 . S
C897 C896 1.377 . S
C897 C903 1.390 . S
C898 H889 0.930 . S
C898 C896 1.384 . S
C898 C899 1.372 . S
C899 C898 1.372 . S
C899 C900 1.400 . S
C899 C904 1.490 . S
C900 H890 0.930 . S
C900 C899 1.400 . S
C900 C903 1.386 . S
H901 C917 0.930 . S
H902 C918 0.931 . S
C903 H891 0.929 . S
C903 C897 1.390 . S
C903 C900 1.386 . S
C904 C899 1.490 . S
C904 C906 1.395 1_565 S
C904 C907 1.403 . S
H905 C911 0.927 1_565 S
C906 H892 0.930 . S
C906 C904 1.395 1_545 S
C906 C909 1.403 . S
C907 C904 1.403 . S
C907 C908 1.524 . S
C907 C911 1.386 1_565 S
C908 H893 0.960 . S
C908 H894 0.960 . S
C908 H895 0.960 . S
C908 C907 1.524 . S
C909 C906 1.403 . S
C909 C910 1.392 . S
C909 C913 1.495 . S
C910 C909 1.392 . S
C910 C911 1.400 . S
C910 C912 1.478 . S
C911 H905 0.927 1_545 S
C911 C907 1.386 1_545 S
C911 C910 1.400 . S
C912 C910 1.478 . S
C912 C914 1.381 . S
C912 C918 1.383 . S
C913 C909 1.495 . S
C913 H919 0.959 . S
C913 H920 0.961 . S
C913 H921 0.960 . S
C914 C912 1.381 . S
C914 C915 1.394 . S
C914 H922 0.930 . S
C915 C914 1.394 . S
C915 C916 1.383 . S
C915 H923 0.929 . S
C916 C915 1.383 . S
C916 C917 1.377 . S
C917 H901 0.930 . S
C917 C916 1.377 . S
C917 C918 1.379 . S
C918 H902 0.931 . S
C918 C912 1.383 . S
C918 C917 1.379 . S
H919 C913 0.959 . S
H920 C913 0.961 . S
H921 C913 0.960 . S
H922 C914 0.930 . S
H923 C915 0.929 . S
H924 C932 0.929 . S
H925 C934 0.930 . S
H926 C936 0.930 . S
H927 C939 0.929 . S
H928 C942 0.930 . S
H929 C944 0.960 . S
H930 C944 0.960 . S
H931 C944 0.960 . S
C932 H924 0.929 . S
C932 C933 1.377 . S
C932 C934 1.384 . S
C933 C932 1.377 . S
C933 C939 1.390 . S
C934 H925 0.930 . S
C934 C932 1.384 . S
C934 C935 1.372 . S
C935 C934 1.372 . S
C935 C936 1.400 . S
C935 C940 1.490 . S
C936 H926 0.930 . S
C936 C935 1.400 . S
C936 C939 1.386 . S
H937 C953 0.930 . S
H938 C954 0.931 . S
C939 H927 0.929 . S
C939 C933 1.390 . S
C939 C936 1.386 . S
C940 C935 1.490 . S
C940 C942 1.395 . S
C940 C943 1.403 . S
H941 C947 0.930 . S
C942 H928 0.930 . S
C942 C940 1.395 . S
C942 C945 1.403 1_655 S
C943 C940 1.403 . S
C943 C944 1.524 . S
C943 C947 1.400 1_655 S
C944 H929 0.960 . S
C944 H930 0.960 . S
C944 H931 0.960 . S
C944 C943 1.524 . S
C945 C942 1.403 1_455 S
C945 C946 1.392 . S
C945 C949 1.495 . S
C946 C945 1.392 . S
C946 C947 1.385 . S
C946 C948 1.478 . S
C947 H941 0.930 . S
C947 C943 1.400 1_455 S
C947 C946 1.385 . S
C948 C946 1.478 . S
C948 C950 1.381 . S
C948 C954 1.383 . S
C949 C945 1.495 . S
C949 H955 0.959 . S
C949 H956 0.961 . S
C949 H957 0.960 . S
C950 C948 1.381 . S
C950 C951 1.394 . S
C950 H958 0.930 . S
C951 C950 1.394 . S
C951 C952 1.383 . S
C951 H959 0.929 . S
C952 C951 1.383 . S
C952 C953 1.377 . S
C953 H937 0.930 . S
C953 C952 1.377 . S
C953 C954 1.379 . S
C954 H938 0.931 . S
C954 C948 1.383 . S
C954 C953 1.379 . S
H955 C949 0.959 . S
H956 C949 0.961 . S
H957 C949 0.960 . S
H958 C950 0.930 . S
H959 C951 0.929 . S
H960 C968 0.929 . S
H961 C970 0.930 . S
H962 C972 0.930 . S
H963 C975 0.929 . S
H964 C978 0.930 . S
H965 C980 0.960 . S
H966 C980 0.960 . S
H967 C980 0.960 . S
C968 H960 0.929 . S
C968 C969 1.377 . S
C968 C970 1.384 . S
C969 C968 1.377 . S
C969 C975 1.390 . S
C970 H961 0.930 . S
C970 C968 1.384 . S
C970 C971 1.372 . S
C971 C970 1.372 . S
C971 C972 1.400 . S
C971 C976 1.490 . S
C972 H962 0.930 . S
C972 C971 1.400 . S
C972 C975 1.386 . S
H973 C989 0.930 . S
H974 C990 0.931 . S
C975 H963 0.929 . S
C975 C969 1.390 . S
C975 C972 1.386 . S
C976 C971 1.490 . S
C976 C978 1.395 . S
C976 C979 1.403 . S
H977 C983 0.930 . S
C978 H964 0.930 . S
C978 C976 1.395 . S
C978 C981 1.403 1_565 S
C979 C976 1.403 . S
C979 C980 1.524 . S
C979 C983 1.400 1_565 S
C980 H965 0.960 . S
C980 H966 0.960 . S
C980 H967 0.960 . S
C980 C979 1.524 . S
C981 C978 1.403 1_545 S
C981 C982 1.392 . S
C981 C985 1.495 . S
C982 C981 1.392 . S
C982 C983 1.385 . S
C982 C984 1.478 . S
C983 H977 0.930 . S
C983 C979 1.400 1_545 S
C983 C982 1.385 . S
C984 C982 1.478 . S
C984 C986 1.381 . S
C984 C990 1.383 . S
C985 C981 1.495 . S
C985 H991 0.959 . S
C985 H992 0.961 . S
C985 H993 0.960 . S
C986 C984 1.381 . S
C986 C987 1.394 . S
C986 H994 0.930 . S
C987 C986 1.394 . S
C987 C988 1.383 . S
C987 H995 0.929 . S
C988 C987 1.383 . S
C988 C989 1.377 . S
C989 H973 0.930 . S
C989 C988 1.377 . S
C989 C990 1.379 . S
C990 H974 0.931 . S
C990 C984 1.383 . S
C990 C989 1.379 . S
H991 C985 0.959 . S
H992 C985 0.961 . S
H993 C985 0.960 . S
H994 C986 0.930 . S
H995 C987 0.929 . S
H996 C1004 0.929 . S
H997 C1006 0.930 . S
H998 C1008 0.930 . S
H999 C1011 0.929 . S
H1000 C1014 0.930 . S
H1001 C1016 0.960 . S
H1002 C1016 0.960 . S
H1003 C1016 0.960 . S
C1004 H996 0.929 . S
C1004 C1005 1.377 . S
C1004 C1006 1.384 . S
C1005 C1004 1.377 . S
C1005 C1011 1.390 . S
C1006 H997 0.930 . S
C1006 C1004 1.384 . S
C1006 C1007 1.372 . S
C1007 C1006 1.372 . S
C1007 C1008 1.400 . S
C1007 C1012 1.490 . S
C1008 H998 0.930 . S
C1008 C1007 1.400 . S
C1008 C1011 1.386 . S
H1009 C1025 0.930 . S
H1010 C1026 0.931 . S
C1011 H999 0.929 . S
C1011 C1005 1.390 . S
C1011 C1008 1.386 . S
C1012 C1007 1.490 . S
C1012 C1014 1.395 . S
C1012 C1015 1.403 . S
H1013 C1019 0.930 . S
C1014 H1000 0.930 . S
C1014 C1012 1.395 . S
C1014 C1017 1.403 1_455 S
C1015 C1012 1.403 . S
C1015 C1016 1.524 . S
C1015 C1019 1.400 1_455 S
C1016 H1001 0.960 . S
C1016 H1002 0.960 . S
C1016 H1003 0.960 . S
C1016 C1015 1.524 . S
C1017 C1014 1.403 1_655 S
C1017 C1018 1.392 . S
C1017 C1021 1.495 . S
C1018 C1017 1.392 . S
C1018 C1019 1.385 . S
C1018 C1020 1.478 . S
C1019 H1013 0.930 . S
C1019 C1015 1.400 1_655 S
C1019 C1018 1.385 . S
C1020 C1018 1.478 . S
C1020 C1022 1.381 . S
C1020 C1026 1.383 . S
C1021 C1017 1.495 . S
C1021 H1027 0.968 . S
C1021 H1028 0.961 . S
C1021 H1029 0.960 . S
C1022 C1020 1.381 . S
C1022 C1023 1.394 . S
C1022 H1030 0.930 . S
C1023 C1022 1.394 . S
C1023 C1024 1.383 . S
C1023 H1031 0.929 . S
C1024 C1023 1.383 . S
C1024 C1025 1.377 . S
C1025 H1009 0.930 . S
C1025 C1024 1.377 . S
C1025 C1026 1.379 . S
C1026 H1010 0.931 . S
C1026 C1020 1.383 . S
C1026 C1025 1.379 . S
H1027 C1021 0.968 . S
H1028 C1021 0.961 . S
H1029 C1021 0.960 . S
H1030 C1022 0.930 . S
H1031 C1023 0.929 . S
H1032 C1040 0.929 . S
H1033 C1042 0.930 . S
H1034 C1044 0.930 . S
H1035 C1047 0.929 . S
H1036 C1050 0.930 . S
H1037 C1052 0.960 . S
H1038 C1052 0.960 . S
H1039 C1052 0.960 1_556 S
C1040 H1032 0.929 . S
C1040 C1041 1.377 . S
C1040 C1042 1.384 . S
C1041 C1040 1.377 . S
C1041 C1047 1.390 . S
C1042 H1033 0.930 . S
C1042 C1040 1.384 . S
C1042 C1043 1.372 . S
C1043 C1042 1.372 . S
C1043 C1044 1.400 . S
C1043 C1048 1.490 . S
C1044 H1034 0.930 . S
C1044 C1043 1.400 . S
C1044 C1047 1.386 . S
H1045 C1061 0.930 . S
H1046 C1062 0.931 . S
C1047 H1035 0.929 . S
C1047 C1041 1.390 . S
C1047 C1044 1.386 . S
C1048 C1043 1.490 . S
C1048 C1050 1.395 . S
C1048 C1051 1.403 1_556 S
H1049 C1055 0.930 . S
C1050 H1036 0.930 . S
C1050 C1048 1.395 . S
C1050 C1053 1.403 . S
C1051 C1048 1.403 1_554 S
C1051 C1052 1.524 . S
C1051 C1055 1.400 . S
C1052 H1037 0.960 . S
C1052 H1038 0.960 . S
C1052 H1039 0.960 1_554 S
C1052 C1051 1.524 . S
C1053 C1050 1.403 . S
C1053 C1054 1.392 1_556 S
C1053 C1057 1.495 . S
C1054 C1053 1.392 1_554 S
C1054 C1055 1.385 . S
C1054 C1056 1.478 . S
C1055 H1049 0.930 . S
C1055 C1051 1.400 . S
C1055 C1054 1.385 . S
C1056 C1054 1.478 . S
C1056 C1058 1.381 . S
C1056 C1062 1.383 . S
C1057 C1053 1.495 . S
C1057 H1063 0.959 . S
C1057 H1064 0.961 . S
C1057 H1065 0.960 1_556 S
C1058 C1056 1.381 . S
C1058 C1059 1.394 . S
C1058 H1066 0.930 . S
C1059 C1058 1.394 . S
C1059 C1060 1.383 . S
C1059 H1067 0.929 . S
C1060 C1059 1.383 . S
C1060 C1061 1.377 . S
C1061 H1045 0.930 . S
C1061 C1060 1.377 . S
C1061 C1062 1.379 . S
C1062 H1046 0.931 . S
C1062 C1056 1.383 . S
C1062 C1061 1.379 . S
H1063 C1057 0.959 . S
H1064 C1057 0.961 . S
H1065 C1057 0.960 1_554 S
H1066 C1058 0.930 . S
H1067 C1059 0.929 . S
H1068 C1076 0.929 . S
H1069 C1078 0.930 . S
H1070 C1080 0.930 . S
H1071 C1083 0.929 . S
H1072 C1086 0.930 . S
H1073 C1088 0.960 1_556 S
H1074 C1088 0.960 . S
H1075 C1088 0.960 . S
C1076 H1068 0.929 . S
C1076 C1077 1.377 . S
C1076 C1078 1.384 . S
C1077 C1076 1.377 . S
C1077 C1083 1.390 . S
C1078 H1069 0.930 . S
C1078 C1076 1.384 . S
C1078 C1079 1.372 . S
C1079 C1078 1.372 . S
C1079 C1080 1.400 . S
C1079 C1084 1.490 . S
C1080 H1070 0.930 . S
C1080 C1079 1.400 . S
C1080 C1083 1.386 . S
H1081 C1097 0.930 . S
H1082 C1098 0.931 . S
C1083 H1071 0.929 . S
C1083 C1077 1.390 . S
C1083 C1080 1.386 . S
C1084 C1079 1.490 . S
C1084 C1086 1.395 . S
C1084 C1087 1.403 . S
H1085 C1091 0.930 . S
C1086 H1072 0.930 . S
C1086 C1084 1.395 . S
C1086 C1089 1.403 1_554 S
C1087 C1084 1.403 . S
C1087 C1088 1.524 . S
C1087 C1091 1.400 1_554 S
C1088 H1073 0.960 1_554 S
C1088 H1074 0.960 . S
C1088 H1075 0.960 . S
C1088 C1087 1.524 . S
C1089 C1086 1.403 1_556 S
C1089 C1090 1.392 . S
C1089 C1093 1.495 . S
C1090 C1089 1.392 . S
C1090 C1091 1.385 . S
C1090 C1092 1.478 . S
C1091 H1085 0.930 . S
C1091 C1087 1.400 1_556 S
C1091 C1090 1.385 . S
C1092 C1090 1.478 . S
C1092 C1094 1.381 . S
C1092 C1098 1.383 . S
C1093 C1089 1.495 . S
C1093 H1099 0.937 1_556 S
C1093 H1100 0.961 . S
C1093 H1101 0.960 . S
C1094 C1092 1.381 . S
C1094 C1095 1.394 . S
C1094 H1102 0.930 . S
C1095 C1094 1.394 . S
C1095 C1096 1.383 . S
C1095 H1103 0.929 . S
C1096 C1095 1.383 . S
C1096 C1097 1.377 . S
C1097 H1081 0.930 . S
C1097 C1096 1.377 . S
C1097 C1098 1.379 . S
C1098 H1082 0.931 . S
C1098 C1092 1.383 . S
C1098 C1097 1.379 . S
H1099 C1093 0.937 1_554 S
H1100 C1093 0.961 . S
H1101 C1093 0.960 . S
H1102 C1094 0.930 . S
H1103 C1095 0.929 . S
H1104 C1112 0.929 . S
H1105 C1114 0.930 . S
H1106 C1116 0.930 . S
H1107 C1119 0.929 . S
H1108 C1122 0.930 . S
H1109 C1124 0.960 . S
H1110 C1124 0.960 1_556 S
H1111 C1124 0.962 . S
C1112 H1104 0.929 . S
C1112 C1113 1.377 . S
C1112 C1114 1.384 . S
C1113 C1112 1.377 . S
C1113 C1119 1.390 . S
C1114 H1105 0.930 . S
C1114 C1112 1.384 . S
C1114 C1115 1.372 . S
C1115 C1114 1.372 . S
C1115 C1116 1.400 . S
C1115 C1120 1.490 . S
C1116 H1106 0.930 . S
C1116 C1115 1.400 . S
C1116 C1119 1.386 . S
H1117 C1133 0.930 . S
H1118 C1134 0.931 . S
C1119 H1107 0.929 . S
C1119 C1113 1.390 . S
C1119 C1116 1.386 . S
C1120 C1115 1.490 . S
C1120 C1122 1.395 . S
C1120 C1123 1.422 . S
H1121 C1127 0.930 . S
C1122 H1108 0.930 . S
C1122 C1120 1.395 . S
C1122 C1125 1.403 . S
C1123 C1120 1.422 . S
C1123 C1124 1.522 1_556 S
C1123 C1127 1.382 1_556 S
C1124 H1109 0.960 . S
C1124 H1110 0.960 1_554 S
C1124 H1111 0.962 . S
C1124 C1123 1.522 1_554 S
C1125 C1122 1.403 . S
C1125 C1126 1.392 1_556 S
C1125 C1129 1.495 . S
C1126 C1125 1.392 1_554 S
C1126 C1127 1.385 . S
C1126 C1128 1.478 . S
C1127 H1121 0.930 . S
C1127 C1123 1.382 1_554 S
C1127 C1126 1.385 . S
C1128 C1126 1.478 . S
C1128 C1130 1.381 . S
C1128 C1134 1.383 . S
C1129 C1125 1.495 . S
C1129 H1135 0.959 . S
C1129 H1136 0.961 1_556 S
C1129 H1137 0.960 . S
C1130 C1128 1.381 . S
C1130 C1131 1.394 . S
C1130 H1138 0.930 . S
C1131 C1130 1.394 . S
C1131 C1132 1.383 . S
C1131 H1139 0.929 . S
C1132 C1131 1.383 . S
C1132 C1133 1.377 . S
C1133 H1117 0.930 . S
C1133 C1132 1.377 . S
C1133 C1134 1.379 . S
C1134 H1118 0.931 . S
C1134 C1128 1.383 . S
C1134 C1133 1.379 . S
H1135 C1129 0.959 . S
H1136 C1129 0.961 1_554 S
H1137 C1129 0.960 . S
H1138 C1130 0.930 . S
H1139 C1131 0.929 . S
H1140 C1148 0.929 . S
H1141 C1150 0.930 . S
H1142 C1152 0.930 . S
H1143 C1155 0.929 . S
H1144 C1158 0.930 . S
H1145 C1160 0.960 . S
H1146 C1160 0.960 . S
H1147 C1160 0.960 . S
C1148 H1140 0.929 . S
C1148 C1149 1.377 . S
C1148 C1150 1.384 . S
C1149 C1148 1.377 . S
C1149 C1155 1.390 . S
C1150 H1141 0.930 . S
C1150 C1148 1.384 . S
C1150 C1151 1.372 . S
C1151 C1150 1.372 . S
C1151 C1152 1.400 . S
C1151 C1156 1.490 . S
C1152 H1142 0.930 . S
C1152 C1151 1.400 . S
C1152 C1155 1.386 . S
H1153 C1169 0.930 . S
H1154 C1170 0.931 . S
C1155 H1143 0.929 . S
C1155 C1149 1.390 . S
C1155 C1152 1.386 . S
C1156 C1151 1.490 . S
C1156 C1158 1.395 . S
C1156 C1159 1.403 . S
H1157 C1163 0.930 . S
C1158 H1144 0.930 . S
C1158 C1156 1.395 . S
C1158 C1161 1.403 1_554 S
C1159 C1156 1.403 . S
C1159 C1160 1.524 . S
C1159 C1163 1.400 1_554 S
C1160 H1145 0.960 . S
C1160 H1146 0.960 . S
C1160 H1147 0.960 . S
C1160 C1159 1.524 . S
C1161 C1158 1.403 1_556 S
C1161 C1162 1.392 . S
C1161 C1165 1.495 . S
C1162 C1161 1.392 . S
C1162 C1163 1.385 . S
C1162 C1164 1.478 . S
C1163 H1157 0.930 . S
C1163 C1159 1.400 1_556 S
C1163 C1162 1.385 . S
C1164 C1162 1.478 . S
C1164 C1166 1.381 . S
C1164 C1170 1.383 . S
C1165 C1161 1.495 . S
C1165 H1171 0.959 . S
C1165 H1172 0.961 . S
C1165 H1173 0.960 . S
C1166 C1164 1.381 . S
C1166 C1167 1.394 . S
C1166 H1174 0.930 . S
C1167 C1166 1.394 . S
C1167 C1168 1.383 . S
C1167 H1175 0.929 . S
C1168 C1167 1.383 . S
C1168 C1169 1.377 . S
C1169 H1153 0.930 . S
C1169 C1168 1.377 . S
C1169 C1170 1.379 . S
C1170 H1154 0.931 . S
C1170 C1164 1.383 . S
C1170 C1169 1.379 . S
H1171 C1165 0.959 . S
H1172 C1165 0.961 . S
H1173 C1165 0.960 . S
H1174 C1166 0.930 . S
H1175 C1167 0.929 . S
H1176 C1184 0.929 . S
H1177 C1186 0.930 . S
H1178 C1188 0.930 . S
H1179 C1191 0.929 . S
H1180 C1194 0.930 . S
H1181 C1196 0.960 . S
H1182 C1196 0.960 . S
H1183 C1196 0.960 . S
C1184 H1176 0.929 . S
C1184 C1185 1.377 . S
C1184 C1186 1.384 . S
C1185 C1184 1.377 . S
C1185 C1191 1.390 . S
C1186 H1177 0.930 . S
C1186 C1184 1.384 . S
C1186 C1187 1.372 . S
C1187 C1186 1.372 . S
C1187 C1188 1.400 . S
C1187 C1192 1.490 . S
C1188 H1178 0.930 . S
C1188 C1187 1.400 . S
C1188 C1191 1.386 . S
H1189 C1205 0.930 . S
H1190 C1206 0.931 . S
C1191 H1179 0.929 . S
C1191 C1185 1.390 . S
C1191 C1188 1.386 . S
C1192 C1187 1.490 . S
C1192 C1194 1.395 . S
C1192 C1195 1.403 . S
H1193 C1199 0.930 . S
C1194 H1180 0.930 . S
C1194 C1192 1.395 . S
C1194 C1197 1.403 . S
C1195 C1192 1.403 . S
C1195 C1196 1.524 . S
C1195 C1199 1.400 . S
C1196 H1181 0.960 . S
C1196 H1182 0.960 . S
C1196 H1183 0.960 . S
C1196 C1195 1.524 . S
C1197 C1194 1.403 . S
C1197 C1198 1.392 . S
C1197 C1201 1.495 . S
C1198 C1197 1.392 . S
C1198 C1199 1.385 . S
C1198 C1200 1.478 . S
C1199 H1193 0.930 . S
C1199 C1195 1.400 . S
C1199 C1198 1.385 . S
C1200 C1198 1.478 . S
C1200 C1202 1.381 . S
C1200 C1206 1.383 . S
C1201 C1197 1.495 . S
C1201 H1207 0.959 . S
C1201 H1208 0.961 . S
C1201 H1209 0.960 . S
C1202 C1200 1.381 . S
C1202 C1203 1.394 . S
C1202 H1210 0.930 . S
C1203 C1202 1.394 . S
C1203 C1204 1.383 . S
C1203 H1211 0.929 . S
C1204 C1203 1.383 . S
C1204 C1205 1.377 . S
C1205 H1189 0.930 . S
C1205 C1204 1.377 . S
C1205 C1206 1.379 . S
C1206 H1190 0.931 . S
C1206 C1200 1.383 . S
C1206 C1205 1.379 . S
H1207 C1201 0.959 . S
H1208 C1201 0.961 . S
H1209 C1201 0.960 . S
H1210 C1202 0.930 . S
H1211 C1203 0.929 . S
H1212 C1220 0.929 . S
H1213 C1222 0.930 . S
H1214 C1224 0.930 . S
H1215 C1227 0.929 . S
H1216 C1230 0.930 . S
H1217 C1232 0.960 . S
H1218 C1232 0.960 . S
H1219 C1232 0.960 . S
C1220 H1212 0.929 . S
C1220 C1221 1.377 . S
C1220 C1222 1.384 . S
C1221 C1220 1.377 . S
C1221 C1227 1.390 . S
C1222 H1213 0.930 . S
C1222 C1220 1.384 . S
C1222 C1223 1.372 . S
C1223 C1222 1.372 . S
C1223 C1224 1.400 . S
C1223 C1228 1.490 . S
C1224 H1214 0.930 . S
C1224 C1223 1.400 . S
C1224 C1227 1.386 . S
H1225 C1241 0.930 . S
H1226 C1242 0.931 . S
C1227 H1215 0.929 . S
C1227 C1221 1.390 . S
C1227 C1224 1.386 . S
C1228 C1223 1.490 . S
C1228 C1230 1.395 . S
C1228 C1231 1.403 . S
H1229 C1235 0.930 . S
C1230 H1216 0.930 . S
C1230 C1228 1.395 . S
C1230 C1233 1.403 . S
C1231 C1228 1.403 . S
C1231 C1232 1.524 . S
C1231 C1235 1.400 . S
C1232 H1217 0.960 . S
C1232 H1218 0.960 . S
C1232 H1219 0.960 . S
C1232 C1231 1.524 . S
C1233 C1230 1.403 . S
C1233 C1234 1.392 . S
C1233 C1237 1.495 . S
C1234 C1233 1.392 . S
C1234 C1235 1.385 . S
C1234 C1236 1.478 . S
C1235 H1229 0.930 . S
C1235 C1231 1.400 . S
C1235 C1234 1.385 . S
C1236 C1234 1.478 . S
C1236 C1238 1.381 . S
C1236 C1242 1.383 . S
C1237 C1233 1.495 . S
C1237 H1243 0.959 . S
C1237 H1244 0.961 . S
C1237 H1245 0.960 . S
C1238 C1236 1.381 . S
C1238 C1239 1.394 . S
C1238 H1246 0.930 . S
C1239 C1238 1.394 . S
C1239 C1240 1.383 . S
C1239 H1247 0.929 . S
C1240 C1239 1.383 . S
C1240 C1241 1.377 . S
C1241 H1225 0.930 . S
C1241 C1240 1.377 . S
C1241 C1242 1.379 . S
C1242 H1226 0.931 . S
C1242 C1236 1.383 . S
C1242 C1241 1.379 . S
H1243 C1237 0.959 . S
H1244 C1237 0.961 . S
H1245 C1237 0.960 . S
H1246 C1238 0.930 . S
H1247 C1239 0.929 . S
H1248 C1256 0.929 . S
H1249 C1258 0.930 . S
H1250 C1260 0.930 . S
H1251 C1263 0.929 . S
H1252 C1266 0.930 . S
H1253 C1268 0.960 . S
H1254 C1268 0.960 . S
H1255 C1268 0.960 . S
C1256 H1248 0.929 . S
C1256 C1257 1.377 . S
C1256 C1258 1.384 . S
C1257 C1256 1.377 . S
C1257 C1263 1.390 . S
C1258 H1249 0.930 . S
C1258 C1256 1.384 . S
C1258 C1259 1.372 . S
C1259 C1258 1.372 . S
C1259 C1260 1.400 . S
C1259 C1264 1.490 . S
C1260 H1250 0.930 . S
C1260 C1259 1.400 . S
C1260 C1263 1.386 . S
H1261 C1277 0.930 . S
H1262 C1278 0.931 . S
C1263 H1251 0.929 . S
C1263 C1257 1.390 . S
C1263 C1260 1.386 . S
C1264 C1259 1.490 . S
C1264 C1266 1.395 . S
C1264 C1267 1.403 . S
H1265 C1271 0.930 . S
C1266 H1252 0.930 . S
C1266 C1264 1.395 . S
C1266 C1269 1.403 . S
C1267 C1264 1.403 . S
C1267 C1268 1.524 . S
C1267 C1271 1.400 . S
C1268 H1253 0.960 . S
C1268 H1254 0.960 . S
C1268 H1255 0.960 . S
C1268 C1267 1.524 . S
C1269 C1266 1.403 . S
C1269 C1270 1.392 . S
C1269 C1273 1.495 . S
C1270 C1269 1.392 . S
C1270 C1271 1.385 . S
C1270 C1272 1.478 . S
C1271 H1265 0.930 . S
C1271 C1267 1.400 . S
C1271 C1270 1.385 . S
C1272 C1270 1.478 . S
C1272 C1274 1.381 . S
C1272 C1278 1.383 . S
C1273 C1269 1.495 . S
C1273 H1279 0.959 . S
C1273 H1280 0.961 . S
C1273 H1281 0.960 . S
C1274 C1272 1.381 . S
C1274 C1275 1.394 . S
C1274 H1282 0.930 . S
C1275 C1274 1.394 . S
C1275 C1276 1.383 . S
C1275 H1283 0.929 . S
C1276 C1275 1.383 . S
C1276 C1277 1.377 . S
C1277 H1261 0.930 . S
C1277 C1276 1.377 . S
C1277 C1278 1.379 . S
C1278 H1262 0.931 . S
C1278 C1272 1.383 . S
C1278 C1277 1.379 . S
H1279 C1273 0.959 . S
H1280 C1273 0.961 . S
H1281 C1273 0.960 . S
H1282 C1274 0.930 . S
H1283 C1275 0.929 . S
H1284 C1292 0.929 . S
H1285 C1294 0.930 . S
H1286 C1296 0.930 . S
H1287 C1299 0.929 . S
H1288 C1302 0.930 . S
H1289 C1304 0.960 . S
H1290 C1304 0.960 . S
H1291 C1304 0.960 . S
C1292 H1284 0.929 . S
C1292 C1293 1.377 . S
C1292 C1294 1.384 . S
C1293 C1292 1.377 . S
C1293 C1299 1.390 . S
C1294 H1285 0.930 . S
C1294 C1292 1.384 . S
C1294 C1295 1.372 . S
C1295 C1294 1.372 . S
C1295 C1296 1.400 . S
C1295 C1300 1.490 . S
C1296 H1286 0.930 . S
C1296 C1295 1.400 . S
C1296 C1299 1.386 . S
H1297 C1313 0.930 . S
H1298 C1314 0.931 . S
C1299 H1287 0.929 . S
C1299 C1293 1.390 . S
C1299 C1296 1.386 . S
C1300 C1295 1.490 . S
C1300 C1302 1.395 . S
C1300 C1303 1.403 . S
H1301 C1307 0.930 . S
C1302 H1288 0.930 . S
C1302 C1300 1.395 . S
C1302 C1305 1.403 . S
C1303 C1300 1.403 . S
C1303 C1304 1.524 . S
C1303 C1307 1.400 . S
C1304 H1289 0.960 . S
C1304 H1290 0.960 . S
C1304 H1291 0.960 . S
C1304 C1303 1.524 . S
C1305 C1302 1.403 . S
C1305 C1306 1.392 . S
C1305 C1309 1.495 . S
C1306 C1305 1.392 . S
C1306 C1307 1.385 . S
C1306 C1308 1.478 . S
C1307 H1301 0.930 . S
C1307 C1303 1.400 . S
C1307 C1306 1.385 . S
C1308 C1306 1.478 . S
C1308 C1310 1.381 . S
C1308 C1314 1.383 . S
C1309 C1305 1.495 . S
C1309 H1315 0.959 . S
C1309 H1316 0.961 . S
C1309 H1317 0.960 . S
C1310 C1308 1.381 . S
C1310 C1311 1.394 . S
C1310 H1318 0.930 . S
C1311 C1310 1.394 . S
C1311 C1312 1.383 . S
C1311 H1319 0.929 . S
C1312 C1311 1.383 . S
C1312 C1313 1.377 . S
C1313 H1297 0.930 . S
C1313 C1312 1.377 . S
C1313 C1314 1.379 . S
C1314 H1298 0.931 . S
C1314 C1308 1.383 . S
C1314 C1313 1.379 . S
H1315 C1309 0.959 . S
H1316 C1309 0.961 . S
H1317 C1309 0.960 . S
H1318 C1310 0.930 . S
H1319 C1311 0.929 . S
H1320 C1328 0.929 . S
H1321 C1330 0.930 . S
H1322 C1332 0.930 . S
H1323 C1335 0.929 . S
H1324 C1338 0.930 . S
H1325 C1340 0.960 . S
H1326 C1340 0.960 . S
H1327 C1340 0.960 . S
C1328 H1320 0.929 . S
C1328 C1329 1.377 . S
C1328 C1330 1.384 . S
C1329 C1328 1.377 . S
C1329 C1335 1.390 . S
C1330 H1321 0.930 . S
C1330 C1328 1.384 . S
C1330 C1331 1.372 . S
C1331 C1330 1.372 . S
C1331 C1332 1.400 . S
C1331 C1336 1.490 . S
C1332 H1322 0.930 . S
C1332 C1331 1.400 . S
C1332 C1335 1.386 . S
H1333 C1349 0.930 . S
H1334 C1350 0.931 . S
C1335 H1323 0.929 . S
C1335 C1329 1.390 . S
C1335 C1332 1.386 . S
C1336 C1331 1.490 . S
C1336 C1338 1.395 . S
C1336 C1339 1.403 . S
H1337 C1343 0.930 . S
C1338 H1324 0.930 . S
C1338 C1336 1.395 . S
C1338 C1341 1.403 . S
C1339 C1336 1.403 . S
C1339 C1340 1.524 . S
C1339 C1343 1.400 . S
C1340 H1325 0.960 . S
C1340 H1326 0.960 . S
C1340 H1327 0.960 . S
C1340 C1339 1.524 . S
C1341 C1338 1.403 . S
C1341 C1342 1.392 . S
C1341 C1345 1.495 . S
C1342 C1341 1.392 . S
C1342 C1343 1.385 . S
C1342 C1344 1.478 . S
C1343 H1337 0.930 . S
C1343 C1339 1.400 . S
C1343 C1342 1.385 . S
C1344 C1342 1.478 . S
C1344 C1346 1.381 . S
C1344 C1350 1.383 . S
C1345 C1341 1.495 . S
C1345 H1351 0.959 . S
C1345 H1352 0.961 . S
C1345 H1353 0.960 . S
C1346 C1344 1.381 . S
C1346 C1347 1.394 . S
C1346 H1354 0.930 . S
C1347 C1346 1.394 . S
C1347 C1348 1.383 . S
C1347 H1355 0.929 . S
C1348 C1347 1.383 . S
C1348 C1349 1.377 . S
C1349 H1333 0.930 . S
C1349 C1348 1.377 . S
C1349 C1350 1.379 . S
C1350 H1334 0.931 . S
C1350 C1344 1.383 . S
C1350 C1349 1.379 . S
H1351 C1345 0.959 . S
H1352 C1345 0.961 . S
H1353 C1345 0.960 . S
H1354 C1346 0.930 . S
H1355 C1347 0.929 . S
H1356 C1364 0.929 . S
H1357 C1366 0.930 . S
H1358 C1368 0.930 . S
H1359 C1371 0.929 . S
H1360 C1374 0.930 . S
H1361 C1376 0.960 . S
H1362 C1376 0.960 . S
H1363 C1376 0.960 . S
C1364 H1356 0.929 . S
C1364 C1365 1.377 . S
C1364 C1366 1.384 . S
C1365 C1364 1.377 . S
C1365 C1371 1.390 . S
C1366 H1357 0.930 . S
C1366 C1364 1.384 . S
C1366 C1367 1.372 . S
C1367 C1366 1.372 . S
C1367 C1368 1.400 . S
C1367 C1372 1.490 . S
C1368 H1358 0.930 . S
C1368 C1367 1.400 . S
C1368 C1371 1.386 . S
H1369 C1385 0.930 . S
H1370 C1386 0.931 . S
C1371 H1359 0.929 . S
C1371 C1365 1.390 . S
C1371 C1368 1.386 . S
C1372 C1367 1.490 . S
C1372 C1374 1.395 . S
C1372 C1375 1.403 . S
H1373 C1379 0.930 . S
C1374 H1360 0.930 . S
C1374 C1372 1.395 . S
C1374 C1377 1.403 . S
C1375 C1372 1.403 . S
C1375 C1376 1.524 . S
C1375 C1379 1.400 . S
C1376 H1361 0.960 . S
C1376 H1362 0.960 . S
C1376 H1363 0.960 . S
C1376 C1375 1.524 . S
C1377 C1374 1.403 . S
C1377 C1378 1.392 . S
C1377 C1381 1.495 . S
C1378 C1377 1.392 . S
C1378 C1379 1.385 . S
C1378 C1380 1.478 . S
C1379 H1373 0.930 . S
C1379 C1375 1.400 . S
C1379 C1378 1.385 . S
C1380 C1378 1.478 . S
C1380 C1382 1.381 . S
C1380 C1386 1.383 . S
C1381 C1377 1.495 . S
C1381 H1387 0.959 . S
C1381 H1388 0.961 . S
C1381 H1389 0.960 . S
C1382 C1380 1.381 . S
C1382 C1383 1.394 . S
C1382 H1390 0.930 . S
C1383 C1382 1.394 . S
C1383 C1384 1.383 . S
C1383 H1391 0.929 . S
C1384 C1383 1.383 . S
C1384 C1385 1.377 . S
C1385 H1369 0.930 . S
C1385 C1384 1.377 . S
C1385 C1386 1.379 . S
C1386 H1370 0.931 . S
C1386 C1380 1.383 . S
C1386 C1385 1.379 . S
H1387 C1381 0.959 . S
H1388 C1381 0.961 . S
H1389 C1381 0.960 . S
H1390 C1382 0.930 . S
H1391 C1383 0.929 . S
H1392 C1400 0.929 . S
H1393 C1402 0.930 . S
H1394 C1404 0.930 . S
H1395 C1407 0.929 . S
H1396 C1410 0.930 . S
H1397 C1412 0.960 . S
H1398 C1412 0.960 . S
H1399 C1412 0.960 . S
C1400 H1392 0.929 . S
C1400 C1401 1.377 . S
C1400 C1402 1.384 . S
C1401 C1400 1.377 . S
C1401 C1407 1.390 . S
C1402 H1393 0.930 . S
C1402 C1400 1.384 . S
C1402 C1403 1.372 . S
C1403 C1402 1.372 . S
C1403 C1404 1.400 . S
C1403 C1408 1.490 . S
C1404 H1394 0.930 . S
C1404 C1403 1.400 . S
C1404 C1407 1.386 . S
H1405 C1421 0.930 . S
H1406 C1422 0.931 . S
C1407 H1395 0.929 . S
C1407 C1401 1.390 . S
C1407 C1404 1.386 . S
C1408 C1403 1.490 . S
C1408 C1410 1.395 . S
C1408 C1411 1.403 . S
H1409 C1415 0.930 . S
C1410 H1396 0.930 . S
C1410 C1408 1.395 . S
C1410 C1413 1.403 . S
C1411 C1408 1.403 . S
C1411 C1412 1.524 . S
C1411 C1415 1.400 . S
C1412 H1397 0.960 . S
C1412 H1398 0.960 . S
C1412 H1399 0.960 . S
C1412 C1411 1.524 . S
C1413 C1410 1.403 . S
C1413 C1414 1.392 . S
C1413 C1417 1.495 . S
C1414 C1413 1.392 . S
C1414 C1415 1.385 . S
C1414 C1416 1.478 . S
C1415 H1409 0.930 . S
C1415 C1411 1.400 . S
C1415 C1414 1.385 . S
C1416 C1414 1.478 . S
C1416 C1418 1.381 . S
C1416 C1422 1.383 . S
C1417 C1413 1.495 . S
C1417 H1423 0.959 . S
C1417 H1424 0.961 . S
C1417 H1425 0.960 . S
C1418 C1416 1.381 . S
C1418 C1419 1.394 . S
C1418 H1426 0.930 . S
C1419 C1418 1.394 . S
C1419 C1420 1.383 . S
C1419 H1427 0.929 . S
C1420 C1419 1.383 . S
C1420 C1421 1.377 . S
C1421 H1405 0.930 . S
C1421 C1420 1.377 . S
C1421 C1422 1.379 . S
C1422 H1406 0.931 . S
C1422 C1416 1.383 . S
C1422 C1421 1.379 . S
H1423 C1417 0.959 . S
H1424 C1417 0.961 . S
H1425 C1417 0.960 . S
H1426 C1418 0.930 . S
H1427 C1419 0.929 . S
H1428 C1436 0.929 . S
H1429 C1438 0.930 . S
H1430 C1440 0.930 . S
H1431 C1443 0.929 . S
H1432 C1446 0.930 . S
H1433 C1448 0.960 . S
H1434 C1448 0.960 . S
H1435 C1448 0.960 . S
C1436 H1428 0.929 . S
C1436 C1437 1.377 . S
C1436 C1438 1.384 . S
C1437 C1436 1.377 . S
C1437 C1443 1.390 . S
C1438 H1429 0.930 . S
C1438 C1436 1.384 . S
C1438 C1439 1.372 . S
C1439 C1438 1.372 . S
C1439 C1440 1.400 . S
C1439 C1444 1.490 . S
C1440 H1430 0.930 . S
C1440 C1439 1.400 . S
C1440 C1443 1.386 . S
H1441 C1457 0.930 . S
H1442 C1458 0.931 . S
C1443 H1431 0.929 . S
C1443 C1437 1.390 . S
C1443 C1440 1.386 . S
C1444 C1439 1.490 . S
C1444 C1446 1.395 . S
C1444 C1447 1.403 . S
H1445 C1451 0.930 . S
C1446 H1432 0.930 . S
C1446 C1444 1.395 . S
C1446 C1449 1.403 . S
C1447 C1444 1.403 . S
C1447 C1448 1.524 . S
C1447 C1451 1.400 . S
C1448 H1433 0.960 . S
C1448 H1434 0.960 . S
C1448 H1435 0.960 . S
C1448 C1447 1.524 . S
C1449 C1446 1.403 . S
C1449 C1450 1.392 . S
C1449 C1453 1.495 . S
C1450 C1449 1.392 . S
C1450 C1451 1.385 . S
C1450 C1452 1.478 . S
C1451 H1445 0.930 . S
C1451 C1447 1.400 . S
C1451 C1450 1.385 . S
C1452 C1450 1.478 . S
C1452 C1454 1.381 . S
C1452 C1458 1.383 . S
C1453 C1449 1.495 . S
C1453 H1459 0.959 . S
C1453 H1460 0.961 . S
C1453 H1461 0.960 . S
C1454 C1452 1.381 . S
C1454 C1455 1.394 . S
C1454 H1462 0.930 . S
C1455 C1454 1.394 . S
C1455 C1456 1.383 . S
C1455 H1463 0.929 . S
C1456 C1455 1.383 . S
C1456 C1457 1.377 . S
C1457 H1441 0.930 . S
C1457 C1456 1.377 . S
C1457 C1458 1.379 . S
C1458 H1442 0.931 . S
C1458 C1452 1.383 . S
C1458 C1457 1.379 . S
H1459 C1453 0.959 . S
H1460 C1453 0.961 . S
H1461 C1453 0.960 . S
H1462 C1454 0.930 . S
H1463 C1455 0.929 . S
H1464 C1472 0.929 . S
H1465 C1474 0.930 . S
H1466 C1476 0.930 . S
H1467 C1479 0.929 . S
H1468 C1482 0.930 . S
H1469 C1484 0.960 . S
H1470 C1484 0.960 . S
H1471 C1484 0.960 . S
C1472 H1464 0.929 . S
C1472 C1473 1.377 . S
C1472 C1474 1.384 . S
C1473 C1472 1.377 . S
C1473 C1479 1.390 . S
C1474 H1465 0.930 . S
C1474 C1472 1.384 . S
C1474 C1475 1.372 . S
C1475 C1474 1.372 . S
C1475 C1476 1.400 . S
C1475 C1480 1.490 . S
C1476 H1466 0.930 . S
C1476 C1475 1.400 . S
C1476 C1479 1.386 . S
H1477 C1493 0.930 . S
H1478 C1494 0.931 . S
C1479 H1467 0.929 . S
C1479 C1473 1.390 . S
C1479 C1476 1.386 . S
C1480 C1475 1.490 . S
C1480 C1482 1.395 . S
C1480 C1483 1.403 . S
H1481 C1487 0.930 . S
C1482 H1468 0.930 . S
C1482 C1480 1.395 . S
C1482 C1485 1.403 . S
C1483 C1480 1.403 . S
C1483 C1484 1.524 . S
C1483 C1487 1.400 . S
C1484 H1469 0.960 . S
C1484 H1470 0.960 . S
C1484 H1471 0.960 . S
C1484 C1483 1.524 . S
C1485 C1482 1.403 . S
C1485 C1486 1.392 . S
C1485 C1489 1.495 . S
C1486 C1485 1.392 . S
C1486 C1487 1.385 . S
C1486 C1488 1.478 . S
C1487 H1481 0.930 . S
C1487 C1483 1.400 . S
C1487 C1486 1.385 . S
C1488 C1486 1.478 . S
C1488 C1490 1.381 . S
C1488 C1494 1.383 . S
C1489 C1485 1.495 . S
C1489 H1495 0.959 . S
C1489 H1496 0.961 . S
C1489 H1497 0.960 . S
C1490 C1488 1.381 . S
C1490 C1491 1.394 . S
C1490 H1498 0.930 . S
C1491 C1490 1.394 . S
C1491 C1492 1.383 . S
C1491 H1499 0.929 . S
C1492 C1491 1.383 . S
C1492 C1493 1.377 . S
C1493 H1477 0.930 . S
C1493 C1492 1.377 . S
C1493 C1494 1.379 . S
C1494 H1478 0.931 . S
C1494 C1488 1.383 . S
C1494 C1493 1.379 . S
H1495 C1489 0.959 . S
H1496 C1489 0.961 . S
H1497 C1489 0.960 . S
H1498 C1490 0.930 . S
H1499 C1491 0.929 . S
H1500 C1508 0.929 . S
H1501 C1510 0.930 . S
H1502 C1512 0.930 . S
H1503 C1515 0.929 . S
H1504 C1518 0.930 . S
H1505 C1520 0.960 . S
H1506 C1520 0.960 . S
H1507 C1520 0.960 . S
C1508 H1500 0.929 . S
C1508 C1509 1.377 . S
C1508 C1510 1.384 . S
C1509 C1508 1.377 . S
C1509 C1515 1.390 . S
C1510 H1501 0.930 . S
C1510 C1508 1.384 . S
C1510 C1511 1.372 . S
C1511 C1510 1.372 . S
C1511 C1512 1.400 . S
C1511 C1516 1.490 . S
C1512 H1502 0.930 . S
C1512 C1511 1.400 . S
C1512 C1515 1.386 . S
H1513 C1529 0.930 . S
H1514 C1530 0.931 . S
C1515 H1503 0.929 . S
C1515 C1509 1.390 . S
C1515 C1512 1.386 . S
C1516 C1511 1.490 . S
C1516 C1518 1.395 . S
C1516 C1519 1.403 . S
H1517 C1523 0.930 . S
C1518 H1504 0.930 . S
C1518 C1516 1.395 . S
C1518 C1521 1.403 . S
C1519 C1516 1.403 . S
C1519 C1520 1.524 . S
C1519 C1523 1.400 . S
C1520 H1505 0.960 . S
C1520 H1506 0.960 . S
C1520 H1507 0.960 . S
C1520 C1519 1.524 . S
C1521 C1518 1.403 . S
C1521 C1522 1.392 . S
C1521 C1525 1.495 . S
C1522 C1521 1.392 . S
C1522 C1523 1.385 . S
C1522 C1524 1.478 . S
C1523 H1517 0.930 . S
C1523 C1519 1.400 . S
C1523 C1522 1.385 . S
C1524 C1522 1.478 . S
C1524 C1526 1.381 . S
C1524 C1530 1.383 . S
C1525 C1521 1.495 . S
C1525 H1531 0.959 . S
C1525 H1532 0.961 . S
C1525 H1533 0.960 . S
C1526 C1524 1.381 . S
C1526 C1527 1.394 . S
C1526 H1534 0.930 . S
C1527 C1526 1.394 . S
C1527 C1528 1.383 . S
C1527 H1535 0.929 . S
C1528 C1527 1.383 . S
C1528 C1529 1.377 . S
C1529 H1513 0.930 . S
C1529 C1528 1.377 . S
C1529 C1530 1.379 . S
C1530 H1514 0.931 . S
C1530 C1524 1.383 . S
C1530 C1529 1.379 . S
H1531 C1525 0.959 . S
H1532 C1525 0.961 . S
H1533 C1525 0.960 . S
H1534 C1526 0.930 . S
H1535 C1527 0.929 . S
H1536 C1544 0.929 . S
H1537 C1546 0.930 . S
H1538 C1548 0.930 . S
H1539 C1551 0.929 . S
H1540 C1554 0.930 . S
H1541 C1556 0.960 . S
H1542 C1556 0.960 . S
H1543 C1556 0.960 . S
C1544 H1536 0.929 . S
C1544 C1545 1.377 . S
C1544 C1546 1.384 . S
C1545 C1544 1.377 . S
C1545 C1551 1.390 . S
C1546 H1537 0.930 . S
C1546 C1544 1.384 . S
C1546 C1547 1.372 . S
C1547 C1546 1.372 . S
C1547 C1548 1.400 . S
C1547 C1552 1.490 . S
C1548 H1538 0.930 . S
C1548 C1547 1.400 . S
C1548 C1551 1.386 . S
H1549 C1565 0.930 . S
H1550 C1566 0.931 . S
C1551 H1539 0.929 . S
C1551 C1545 1.390 . S
C1551 C1548 1.386 . S
C1552 C1547 1.490 . S
C1552 C1554 1.395 . S
C1552 C1555 1.403 . S
H1553 C1559 0.930 . S
C1554 H1540 0.930 . S
C1554 C1552 1.395 . S
C1554 C1557 1.403 . S
C1555 C1552 1.403 . S
C1555 C1556 1.524 . S
C1555 C1559 1.400 . S
C1556 H1541 0.960 . S
C1556 H1542 0.960 . S
C1556 H1543 0.960 . S
C1556 C1555 1.524 . S
C1557 C1554 1.403 . S
C1557 C1558 1.392 . S
C1557 C1561 1.495 . S
C1558 C1557 1.392 . S
C1558 C1559 1.385 . S
C1558 C1560 1.478 . S
C1559 H1553 0.930 . S
C1559 C1555 1.400 . S
C1559 C1558 1.385 . S
C1560 C1558 1.478 . S
C1560 C1562 1.381 . S
C1560 C1566 1.383 . S
C1561 C1557 1.495 . S
C1561 H1567 0.959 . S
C1561 H1568 0.961 . S
C1561 H1569 0.960 . S
C1562 C1560 1.381 . S
C1562 C1563 1.394 . S
C1562 H1570 0.930 . S
C1563 C1562 1.394 . S
C1563 C1564 1.383 . S
C1563 H1571 0.929 . S
C1564 C1563 1.383 . S
C1564 C1565 1.377 . S
C1565 H1549 0.930 . S
C1565 C1564 1.377 . S
C1565 C1566 1.379 . S
C1566 H1550 0.931 . S
C1566 C1560 1.383 . S
C1566 C1565 1.379 . S
H1567 C1561 0.959 . S
H1568 C1561 0.961 . S
H1569 C1561 0.960 . S
H1570 C1562 0.930 . S
H1571 C1563 0.929 . S
H1572 C1580 0.929 . S
H1573 C1582 0.930 . S
H1574 C1584 0.930 . S
H1575 C1587 0.929 . S
H1576 C1590 0.930 . S
H1577 C1592 0.960 . S
H1578 C1592 0.960 . S
H1579 C1592 0.960 . S
C1580 H1572 0.929 . S
C1580 C1581 1.377 . S
C1580 C1582 1.384 . S
C1581 C1580 1.377 . S
C1581 C1587 1.390 . S
C1582 H1573 0.930 . S
C1582 C1580 1.384 . S
C1582 C1583 1.372 . S
C1583 C1582 1.372 . S
C1583 C1584 1.400 . S
C1583 C1588 1.490 . S
C1584 H1574 0.930 . S
C1584 C1583 1.400 . S
C1584 C1587 1.386 . S
H1585 C1601 0.930 . S
H1586 C1602 0.931 . S
C1587 H1575 0.929 . S
C1587 C1581 1.390 . S
C1587 C1584 1.386 . S
C1588 C1583 1.490 . S
C1588 C1590 1.395 . S
C1588 C1591 1.403 . S
H1589 C1595 0.930 . S
C1590 H1576 0.930 . S
C1590 C1588 1.395 . S
C1590 C1593 1.403 . S
C1591 C1588 1.403 . S
C1591 C1592 1.524 . S
C1591 C1595 1.400 . S
C1592 H1577 0.960 . S
C1592 H1578 0.960 . S
C1592 H1579 0.960 . S
C1592 C1591 1.524 . S
C1593 C1590 1.403 . S
C1593 C1594 1.392 . S
C1593 C1597 1.495 . S
C1594 C1593 1.392 . S
C1594 C1595 1.385 . S
C1594 C1596 1.478 . S
C1595 H1589 0.930 . S
C1595 C1591 1.400 . S
C1595 C1594 1.385 . S
C1596 C1594 1.478 . S
C1596 C1598 1.381 . S
C1596 C1602 1.383 . S
C1597 C1593 1.495 . S
C1597 H1603 0.959 . S
C1597 H1604 0.961 . S
C1597 H1605 0.960 . S
C1598 C1596 1.381 . S
C1598 C1599 1.394 . S
C1598 H1606 0.930 . S
C1599 C1598 1.394 . S
C1599 C1600 1.383 . S
C1599 H1607 0.929 . S
C1600 C1599 1.383 . S
C1600 C1601 1.377 . S
C1601 H1585 0.930 . S
C1601 C1600 1.377 . S
C1601 C1602 1.379 . S
C1602 H1586 0.931 . S
C1602 C1596 1.383 . S
C1602 C1601 1.379 . S
H1603 C1597 0.959 . S
H1604 C1597 0.961 . S
H1605 C1597 0.960 . S
H1606 C1598 0.930 . S
H1607 C1599 0.929 . S
H1608 C1616 0.929 . S
H1609 C1618 0.930 . S
H1610 C1620 0.930 . S
H1611 C1623 0.929 . S
H1612 C1626 0.930 . S
H1613 C1628 0.960 . S
H1614 C1628 0.960 . S
H1615 C1628 0.960 . S
C1616 H1608 0.929 . S
C1616 C1617 1.377 . S
C1616 C1618 1.384 . S
C1617 C1616 1.377 . S
C1617 C1623 1.390 . S
C1618 H1609 0.930 . S
C1618 C1616 1.384 . S
C1618 C1619 1.372 . S
C1619 C1618 1.372 . S
C1619 C1620 1.400 . S
C1619 C1624 1.490 . S
C1620 H1610 0.930 . S
C1620 C1619 1.400 . S
C1620 C1623 1.386 . S
H1621 C1637 0.930 . S
H1622 C1638 0.931 . S
C1623 H1611 0.929 . S
C1623 C1617 1.390 . S
C1623 C1620 1.386 . S
C1624 C1619 1.490 . S
C1624 C1626 1.395 . S
C1624 C1627 1.403 . S
H1625 C1631 0.930 . S
C1626 H1612 0.930 . S
C1626 C1624 1.395 . S
C1626 C1629 1.403 . S
C1627 C1624 1.403 . S
C1627 C1628 1.524 . S
C1627 C1631 1.400 . S
C1628 H1613 0.960 . S
C1628 H1614 0.960 . S
C1628 H1615 0.960 . S
C1628 C1627 1.524 . S
C1629 C1626 1.403 . S
C1629 C1630 1.392 . S
C1629 C1633 1.495 . S
C1630 C1629 1.392 . S
C1630 C1631 1.385 . S
C1630 C1632 1.478 . S
C1631 H1625 0.930 . S
C1631 C1627 1.400 . S
C1631 C1630 1.385 . S
C1632 C1630 1.478 . S
C1632 C1634 1.381 . S
C1632 C1638 1.383 . S
C1633 C1629 1.495 . S
C1633 H1639 0.959 . S
C1633 H1640 0.961 . S
C1633 H1641 0.960 . S
C1634 C1632 1.381 . S
C1634 C1635 1.394 . S
C1634 H1642 0.930 . S
C1635 C1634 1.394 . S
C1635 C1636 1.383 . S
C1635 H1643 0.929 . S
C1636 C1635 1.383 . S
C1636 C1637 1.377 . S
C1637 H1621 0.930 . S
C1637 C1636 1.377 . S
C1637 C1638 1.379 . S
C1638 H1622 0.931 . S
C1638 C1632 1.383 . S
C1638 C1637 1.379 . S
H1639 C1633 0.959 . S
H1640 C1633 0.961 . S
H1641 C1633 0.960 . S
H1642 C1634 0.930 . S
H1643 C1635 0.929 . S
H1644 C1652 0.929 . S
H1645 C1654 0.930 . S
H1646 C1656 0.930 . S
H1647 C1659 0.929 . S
H1648 C1662 0.930 . S
H1649 C1664 0.960 . S
H1650 C1664 0.960 . S
H1651 C1664 0.960 . S
C1652 H1644 0.929 . S
C1652 C1653 1.377 . S
C1652 C1654 1.384 . S
C1653 C1652 1.377 . S
C1653 C1659 1.390 . S
C1654 H1645 0.930 . S
C1654 C1652 1.384 . S
C1654 C1655 1.372 . S
C1655 C1654 1.372 . S
C1655 C1656 1.400 . S
C1655 C1660 1.490 . S
C1656 H1646 0.930 . S
C1656 C1655 1.400 . S
C1656 C1659 1.386 . S
H1657 C1673 0.930 . S
H1658 C1674 0.931 . S
C1659 H1647 0.929 . S
C1659 C1653 1.390 . S
C1659 C1656 1.386 . S
C1660 C1655 1.490 . S
C1660 C1662 1.395 . S
C1660 C1663 1.403 . S
H1661 C1667 0.930 . S
C1662 H1648 0.930 . S
C1662 C1660 1.395 . S
C1662 C1665 1.403 . S
C1663 C1660 1.403 . S
C1663 C1664 1.524 . S
C1663 C1667 1.400 . S
C1664 H1649 0.960 . S
C1664 H1650 0.960 . S
C1664 H1651 0.960 . S
C1664 C1663 1.524 . S
C1665 C1662 1.403 . S
C1665 C1666 1.392 . S
C1665 C1669 1.495 . S
C1666 C1665 1.392 . S
C1666 C1667 1.385 . S
C1666 C1668 1.478 . S
C1667 H1661 0.930 . S
C1667 C1663 1.400 . S
C1667 C1666 1.385 . S
C1668 C1666 1.478 . S
C1668 C1670 1.381 . S
C1668 C1674 1.383 . S
C1669 C1665 1.495 . S
C1669 H1675 0.959 . S
C1669 H1676 0.961 . S
C1669 H1677 0.960 . S
C1670 C1668 1.381 . S
C1670 C1671 1.394 . S
C1670 H1678 0.930 . S
C1671 C1670 1.394 . S
C1671 C1672 1.383 . S
C1671 H1679 0.929 . S
C1672 C1671 1.383 . S
C1672 C1673 1.377 . S
C1673 H1657 0.930 . S
C1673 C1672 1.377 . S
C1673 C1674 1.379 . S
C1674 H1658 0.931 . S
C1674 C1668 1.383 . S
C1674 C1673 1.379 . S
H1675 C1669 0.959 . S
H1676 C1669 0.961 . S
H1677 C1669 0.960 . S
H1678 C1670 0.930 . S
H1679 C1671 0.929 . S
H1680 C1688 0.929 . S
H1681 C1690 0.930 . S
H1682 C1692 0.930 . S
H1683 C1695 0.929 . S
H1684 C1698 0.930 . S
H1685 C1700 0.960 . S
H1686 C1700 0.960 . S
H1687 C1700 0.960 . S
C1688 H1680 0.929 . S
C1688 C1689 1.377 . S
C1688 C1690 1.384 . S
C1689 C1688 1.377 . S
C1689 C1695 1.390 . S
C1690 H1681 0.930 . S
C1690 C1688 1.384 . S
C1690 C1691 1.372 . S
C1691 C1690 1.372 . S
C1691 C1692 1.400 . S
C1691 C1696 1.490 . S
C1692 H1682 0.930 . S
C1692 C1691 1.400 . S
C1692 C1695 1.386 . S
H1693 C1709 0.930 . S
H1694 C1710 0.931 . S
C1695 H1683 0.929 . S
C1695 C1689 1.390 . S
C1695 C1692 1.386 . S
C1696 C1691 1.490 . S
C1696 C1698 1.395 . S
C1696 C1699 1.403 . S
H1697 C1703 0.930 . S
C1698 H1684 0.930 . S
C1698 C1696 1.395 . S
C1698 C1701 1.403 . S
C1699 C1696 1.403 . S
C1699 C1700 1.524 . S
C1699 C1703 1.400 . S
C1700 H1685 0.960 . S
C1700 H1686 0.960 . S
C1700 H1687 0.960 . S
C1700 C1699 1.524 . S
C1701 C1698 1.403 . S
C1701 C1702 1.392 . S
C1701 C1705 1.495 . S
C1702 C1701 1.392 . S
C1702 C1703 1.385 . S
C1702 C1704 1.478 . S
C1703 H1697 0.930 . S
C1703 C1699 1.400 . S
C1703 C1702 1.385 . S
C1704 C1702 1.478 . S
C1704 C1706 1.381 . S
C1704 C1710 1.383 . S
C1705 C1701 1.495 . S
C1705 H1711 0.959 . S
C1705 H1712 0.961 . S
C1705 H1713 0.960 . S
C1706 C1704 1.381 . S
C1706 C1707 1.394 . S
C1706 H1714 0.930 . S
C1707 C1706 1.394 . S
C1707 C1708 1.383 . S
C1707 H1715 0.929 . S
C1708 C1707 1.383 . S
C1708 C1709 1.377 . S
C1709 H1693 0.930 . S
C1709 C1708 1.377 . S
C1709 C1710 1.379 . S
C1710 H1694 0.931 . S
C1710 C1704 1.383 . S
C1710 C1709 1.379 . S
H1711 C1705 0.959 . S
H1712 C1705 0.961 . S
H1713 C1705 0.960 . S
H1714 C1706 0.930 . S
H1715 C1707 0.929 . S
H1716 C1724 0.929 . S
H1717 C1726 0.930 . S
H1718 C1728 0.930 . S
H1719 C1731 0.929 . S
H1720 C1734 0.930 . S
H1721 C1736 0.960 . S
H1722 C1736 0.960 . S
H1723 C1736 0.960 . S
C1724 H1716 0.929 . S
C1724 C1725 1.377 . S
C1724 C1726 1.384 . S
C1725 C1724 1.377 . S
C1725 C1731 1.390 . S
C1726 H1717 0.930 . S
C1726 C1724 1.384 . S
C1726 C1727 1.372 . S
C1727 C1726 1.372 . S
C1727 C1728 1.400 . S
C1727 C1732 1.490 . S
C1728 H1718 0.930 . S
C1728 C1727 1.400 . S
C1728 C1731 1.386 . S
H1729 C1745 0.930 . S
H1730 C1746 0.931 . S
C1731 H1719 0.929 . S
C1731 C1725 1.390 . S
C1731 C1728 1.386 . S
C1732 C1727 1.490 . S
C1732 C1734 1.395 . S
C1732 C1735 1.403 . S
H1733 C1739 0.930 . S
C1734 H1720 0.930 . S
C1734 C1732 1.395 . S
C1734 C1737 1.403 . S
C1735 C1732 1.403 . S
C1735 C1736 1.524 . S
C1735 C1739 1.400 . S
C1736 H1721 0.960 . S
C1736 H1722 0.960 . S
C1736 H1723 0.960 . S
C1736 C1735 1.524 . S
C1737 C1734 1.403 . S
C1737 C1738 1.392 . S
C1737 C1741 1.495 . S
C1738 C1737 1.392 . S
C1738 C1739 1.385 . S
C1738 C1740 1.478 . S
C1739 H1733 0.930 . S
C1739 C1735 1.400 . S
C1739 C1738 1.385 . S
C1740 C1738 1.478 . S
C1740 C1742 1.381 . S
C1740 C1746 1.383 . S
C1741 C1737 1.495 . S
C1741 H1747 0.959 . S
C1741 H1748 0.961 . S
C1741 H1749 0.960 . S
C1742 C1740 1.381 . S
C1742 C1743 1.394 . S
C1742 H1750 0.930 . S
C1743 C1742 1.394 . S
C1743 C1744 1.383 . S
C1743 H1751 0.929 . S
C1744 C1743 1.383 . S
C1744 C1745 1.377 . S
C1745 H1729 0.930 . S
C1745 C1744 1.377 . S
C1745 C1746 1.379 . S
C1746 H1730 0.931 . S
C1746 C1740 1.383 . S
C1746 C1745 1.379 . S
H1747 C1741 0.959 . S
H1748 C1741 0.961 . S
H1749 C1741 0.960 . S
H1750 C1742 0.930 . S
H1751 C1743 0.929 . S
H1752 C1760 0.929 . S
H1753 C1762 0.930 . S
H1754 C1764 0.930 . S
H1755 C1767 0.929 . S
H1756 C1770 0.930 . S
H1757 C1772 0.960 . S
H1758 C1772 0.960 . S
H1759 C1772 0.960 . S
C1760 H1752 0.929 . S
C1760 C1761 1.377 . S
C1760 C1762 1.384 . S
C1761 C1760 1.377 . S
C1761 C1767 1.390 . S
C1762 H1753 0.930 . S
C1762 C1760 1.384 . S
C1762 C1763 1.372 . S
C1763 C1762 1.372 . S
C1763 C1764 1.400 . S
C1763 C1768 1.490 . S
C1764 H1754 0.930 . S
C1764 C1763 1.400 . S
C1764 C1767 1.386 . S
H1765 C1781 0.930 . S
H1766 C1782 0.931 . S
C1767 H1755 0.929 . S
C1767 C1761 1.390 . S
C1767 C1764 1.386 . S
C1768 C1763 1.490 . S
C1768 C1770 1.395 . S
C1768 C1771 1.403 . S
H1769 C1775 0.930 . S
C1770 H1756 0.930 . S
C1770 C1768 1.395 . S
C1770 C1773 1.403 . S
C1771 C1768 1.403 . S
C1771 C1772 1.524 . S
C1771 C1775 1.400 . S
C1772 H1757 0.960 . S
C1772 H1758 0.960 . S
C1772 H1759 0.960 . S
C1772 C1771 1.524 . S
C1773 C1770 1.403 . S
C1773 C1774 1.392 . S
C1773 C1777 1.495 . S
C1774 C1773 1.392 . S
C1774 C1775 1.385 . S
C1774 C1776 1.478 . S
C1775 H1769 0.930 . S
C1775 C1771 1.400 . S
C1775 C1774 1.385 . S
C1776 C1774 1.478 . S
C1776 C1778 1.381 . S
C1776 C1782 1.383 . S
C1777 C1773 1.495 . S
C1777 H1783 0.959 . S
C1777 H1784 0.961 . S
C1777 H1785 0.960 . S
C1778 C1776 1.381 . S
C1778 C1779 1.394 . S
C1778 H1786 0.930 . S
C1779 C1778 1.394 . S
C1779 C1780 1.383 . S
C1779 H1787 0.929 . S
C1780 C1779 1.383 . S
C1780 C1781 1.377 . S
C1781 H1765 0.930 . S
C1781 C1780 1.377 . S
C1781 C1782 1.379 . S
C1782 H1766 0.931 . S
C1782 C1776 1.383 . S
C1782 C1781 1.379 . S
H1783 C1777 0.959 . S
H1784 C1777 0.961 . S
H1785 C1777 0.960 . S
H1786 C1778 0.930 . S
H1787 C1779 0.929 . S
H1788 C1796 0.929 . S
H1789 C1798 0.930 . S
H1790 C1800 0.930 . S
H1791 C1803 0.929 . S
H1792 C1806 0.930 . S
H1793 C1808 0.960 . S
H1794 C1808 0.960 . S
H1795 C1808 0.960 . S
C1796 H1788 0.929 . S
C1796 C1797 1.377 . S
C1796 C1798 1.384 . S
C1797 C1796 1.377 . S
C1797 C1803 1.390 . S
C1798 H1789 0.930 . S
C1798 C1796 1.384 . S
C1798 C1799 1.372 . S
C1799 C1798 1.372 . S
C1799 C1800 1.400 . S
C1799 C1804 1.490 . S
C1800 H1790 0.930 . S
C1800 C1799 1.400 . S
C1800 C1803 1.386 . S
H1801 C1817 0.930 . S
H1802 C1818 0.931 . S
C1803 H1791 0.929 . S
C1803 C1797 1.390 . S
C1803 C1800 1.386 . S
C1804 C1799 1.490 . S
C1804 C1806 1.395 . S
C1804 C1807 1.403 . S
H1805 C1811 0.930 . S
C1806 H1792 0.930 . S
C1806 C1804 1.395 . S
C1806 C1809 1.403 . S
C1807 C1804 1.403 . S
C1807 C1808 1.524 . S
C1807 C1811 1.400 . S
C1808 H1793 0.960 . S
C1808 H1794 0.960 . S
C1808 H1795 0.960 . S
C1808 C1807 1.524 . S
C1809 C1806 1.403 . S
C1809 C1810 1.392 . S
C1809 C1813 1.495 . S
C1810 C1809 1.392 . S
C1810 C1811 1.385 . S
C1810 C1812 1.478 . S
C1811 H1805 0.930 . S
C1811 C1807 1.400 . S
C1811 C1810 1.385 . S
C1812 C1810 1.478 . S
C1812 C1814 1.381 . S
C1812 C1818 1.383 . S
C1813 C1809 1.495 . S
C1813 H1819 0.959 . S
C1813 H1820 0.961 . S
C1813 H1821 0.960 . S
C1814 C1812 1.381 . S
C1814 C1815 1.394 . S
C1814 H1822 0.930 . S
C1815 C1814 1.394 . S
C1815 C1816 1.383 . S
C1815 H1823 0.929 . S
C1816 C1815 1.383 . S
C1816 C1817 1.377 . S
C1817 H1801 0.930 . S
C1817 C1816 1.377 . S
C1817 C1818 1.379 . S
C1818 H1802 0.931 . S
C1818 C1812 1.383 . S
C1818 C1817 1.379 . S
H1819 C1813 0.959 . S
H1820 C1813 0.961 . S
H1821 C1813 0.960 . S
H1822 C1814 0.930 . S
H1823 C1815 0.929 . S
H1824 C1832 0.929 . S
H1825 C1834 0.930 . S
H1826 C1836 0.930 . S
H1827 C1839 0.929 . S
H1828 C1842 0.930 . S
H1829 C1844 0.960 . S
H1830 C1844 0.960 . S
H1831 C1844 0.960 . S
C1832 H1824 0.929 . S
C1832 C1833 1.377 . S
C1832 C1834 1.384 . S
C1833 C1832 1.377 . S
C1833 C1839 1.390 . S
C1834 H1825 0.930 . S
C1834 C1832 1.384 . S
C1834 C1835 1.372 . S
C1835 C1834 1.372 . S
C1835 C1836 1.400 . S
C1835 C1840 1.490 . S
C1836 H1826 0.930 . S
C1836 C1835 1.400 . S
C1836 C1839 1.386 . S
H1837 C1853 0.930 . S
H1838 C1854 0.931 . S
C1839 H1827 0.929 . S
C1839 C1833 1.390 . S
C1839 C1836 1.386 . S
C1840 C1835 1.490 . S
C1840 C1842 1.395 . S
C1840 C1843 1.403 . S
H1841 C1847 0.930 . S
C1842 H1828 0.930 . S
C1842 C1840 1.395 . S
C1842 C1845 1.403 . S
C1843 C1840 1.403 . S
C1843 C1844 1.524 . S
C1843 C1847 1.400 . S
C1844 H1829 0.960 . S
C1844 H1830 0.960 . S
C1844 H1831 0.960 . S
C1844 C1843 1.524 . S
C1845 C1842 1.403 . S
C1845 C1846 1.392 . S
C1845 C1849 1.495 . S
C1846 C1845 1.392 . S
C1846 C1847 1.385 . S
C1846 C1848 1.478 . S
C1847 H1841 0.930 . S
C1847 C1843 1.400 . S
C1847 C1846 1.385 . S
C1848 C1846 1.478 . S
C1848 C1850 1.381 . S
C1848 C1854 1.383 . S
C1849 C1845 1.495 . S
C1849 H1855 0.959 . S
C1849 H1856 0.961 . S
C1849 H1857 0.960 . S
C1850 C1848 1.381 . S
C1850 C1851 1.394 . S
C1850 H1858 0.930 . S
C1851 C1850 1.394 . S
C1851 C1852 1.383 . S
C1851 H1859 0.929 . S
C1852 C1851 1.383 . S
C1852 C1853 1.377 . S
C1853 H1837 0.930 . S
C1853 C1852 1.377 . S
C1853 C1854 1.379 . S
C1854 H1838 0.931 . S
C1854 C1848 1.383 . S
C1854 C1853 1.379 . S
H1855 C1849 0.959 . S
H1856 C1849 0.961 . S
H1857 C1849 0.960 . S
H1858 C1850 0.930 . S
H1859 C1851 0.929 . S
H1860 C1868 0.929 . S
H1861 C1870 0.930 . S
H1862 C1872 0.930 . S
H1863 C1875 0.929 . S
H1864 C1878 0.930 . S
H1865 C1880 0.960 . S
H1866 C1880 0.960 . S
H1867 C1880 0.960 . S
C1868 H1860 0.929 . S
C1868 C1869 1.377 . S
C1868 C1870 1.384 . S
C1869 C1868 1.377 . S
C1869 C1875 1.390 . S
C1870 H1861 0.930 . S
C1870 C1868 1.384 . S
C1870 C1871 1.372 . S
C1871 C1870 1.372 . S
C1871 C1872 1.400 . S
C1871 C1876 1.490 . S
C1872 H1862 0.930 . S
C1872 C1871 1.400 . S
C1872 C1875 1.386 . S
H1873 C1889 0.930 . S
H1874 C1890 0.931 . S
C1875 H1863 0.929 . S
C1875 C1869 1.390 . S
C1875 C1872 1.386 . S
C1876 C1871 1.490 . S
C1876 C1878 1.395 . S
C1876 C1879 1.403 . S
H1877 C1883 0.930 . S
C1878 H1864 0.930 . S
C1878 C1876 1.395 . S
C1878 C1881 1.403 . S
C1879 C1876 1.403 . S
C1879 C1880 1.524 . S
C1879 C1883 1.400 . S
C1880 H1865 0.960 . S
C1880 H1866 0.960 . S
C1880 H1867 0.960 . S
C1880 C1879 1.524 . S
C1881 C1878 1.403 . S
C1881 C1882 1.392 . S
C1881 C1885 1.495 . S
C1882 C1881 1.392 . S
C1882 C1883 1.385 . S
C1882 C1884 1.478 . S
C1883 H1877 0.930 . S
C1883 C1879 1.400 . S
C1883 C1882 1.385 . S
C1884 C1882 1.478 . S
C1884 C1886 1.381 . S
C1884 C1890 1.383 . S
C1885 C1881 1.495 . S
C1885 H1891 0.959 . S
C1885 H1892 0.961 . S
C1885 H1893 0.960 . S
C1886 C1884 1.381 . S
C1886 C1887 1.394 . S
C1886 H1894 0.930 . S
C1887 C1886 1.394 . S
C1887 C1888 1.383 . S
C1887 H1895 0.929 . S
C1888 C1887 1.383 . S
C1888 C1889 1.377 . S
C1889 H1873 0.930 . S
C1889 C1888 1.377 . S
C1889 C1890 1.379 . S
C1890 H1874 0.931 . S
C1890 C1884 1.383 . S
C1890 C1889 1.379 . S
H1891 C1885 0.959 . S
H1892 C1885 0.961 . S
H1893 C1885 0.960 . S
H1894 C1886 0.930 . S
H1895 C1887 0.929 . S
H1896 C1904 0.929 . S
H1897 C1906 0.930 . S
H1898 C1908 0.930 . S
H1899 C1911 0.929 . S
H1900 C1914 0.930 . S
H1901 C1916 0.960 . S
H1902 C1916 0.960 . S
H1903 C1916 0.960 . S
C1904 H1896 0.929 . S
C1904 C1905 1.377 . S
C1904 C1906 1.384 . S
C1905 C1904 1.377 . S
C1905 C1911 1.390 . S
C1906 H1897 0.930 . S
C1906 C1904 1.384 . S
C1906 C1907 1.372 . S
C1907 C1906 1.372 . S
C1907 C1908 1.400 . S
C1907 C1912 1.490 . S
C1908 H1898 0.930 . S
C1908 C1907 1.400 . S
C1908 C1911 1.386 . S
H1909 C1925 0.930 . S
H1910 C1926 0.931 . S
C1911 H1899 0.929 . S
C1911 C1905 1.390 . S
C1911 C1908 1.386 . S
C1912 C1907 1.490 . S
C1912 C1914 1.395 . S
C1912 C1915 1.403 . S
H1913 C1919 0.930 . S
C1914 H1900 0.930 . S
C1914 C1912 1.395 . S
C1914 C1917 1.403 . S
C1915 C1912 1.403 . S
C1915 C1916 1.524 . S
C1915 C1919 1.400 . S
C1916 H1901 0.960 . S
C1916 H1902 0.960 . S
C1916 H1903 0.960 . S
C1916 C1915 1.524 . S
C1917 C1914 1.403 . S
C1917 C1918 1.392 . S
C1917 C1921 1.495 . S
C1918 C1917 1.392 . S
C1918 C1919 1.385 . S
C1918 C1920 1.478 . S
C1919 H1913 0.930 . S
C1919 C1915 1.400 . S
C1919 C1918 1.385 . S
C1920 C1918 1.478 . S
C1920 C1922 1.381 . S
C1920 C1926 1.383 . S
C1921 C1917 1.495 . S
C1921 H1927 0.959 . S
C1921 H1928 0.961 . S
C1921 H1929 0.960 . S
C1922 C1920 1.381 . S
C1922 C1923 1.394 . S
C1922 H1930 0.930 . S
C1923 C1922 1.394 . S
C1923 C1924 1.383 . S
C1923 H1931 0.929 . S
C1924 C1923 1.383 . S
C1924 C1925 1.377 . S
C1925 H1909 0.930 . S
C1925 C1924 1.377 . S
C1925 C1926 1.379 . S
C1926 H1910 0.931 . S
C1926 C1920 1.383 . S
C1926 C1925 1.379 . S
H1927 C1921 0.959 . S
H1928 C1921 0.961 . S
H1929 C1921 0.960 . S
H1930 C1922 0.930 . S
H1931 C1923 0.929 . S
H1932 C1940 0.929 . S
H1933 C1942 0.930 . S
H1934 C1944 0.930 . S
H1935 C1947 0.929 . S
H1936 C1950 0.930 . S
H1937 C1952 0.960 . S
H1938 C1952 0.960 . S
H1939 C1952 0.960 . S
C1940 H1932 0.929 . S
C1940 C1941 1.377 . S
C1940 C1942 1.384 . S
C1941 C1940 1.377 . S
C1941 C1947 1.390 . S
C1942 H1933 0.930 . S
C1942 C1940 1.384 . S
C1942 C1943 1.372 . S
C1943 C1942 1.372 . S
C1943 C1944 1.400 . S
C1943 C1948 1.490 . S
C1944 H1934 0.930 . S
C1944 C1943 1.400 . S
C1944 C1947 1.386 . S
H1945 C1961 0.930 . S
H1946 C1962 0.931 . S
C1947 H1935 0.929 . S
C1947 C1941 1.390 . S
C1947 C1944 1.386 . S
C1948 C1943 1.490 . S
C1948 C1950 1.395 . S
C1948 C1951 1.403 . S
H1949 C1955 0.930 . S
C1950 H1936 0.930 . S
C1950 C1948 1.395 . S
C1950 C1953 1.403 . S
C1951 C1948 1.403 . S
C1951 C1952 1.524 . S
C1951 C1955 1.400 . S
C1952 H1937 0.960 . S
C1952 H1938 0.960 . S
C1952 H1939 0.960 . S
C1952 C1951 1.524 . S
C1953 C1950 1.403 . S
C1953 C1954 1.392 . S
C1953 C1957 1.495 . S
C1954 C1953 1.392 . S
C1954 C1955 1.385 . S
C1954 C1956 1.478 . S
C1955 H1949 0.930 . S
C1955 C1951 1.400 . S
C1955 C1954 1.385 . S
C1956 C1954 1.478 . S
C1956 C1958 1.381 . S
C1956 C1962 1.383 . S
C1957 C1953 1.495 . S
C1957 H1963 0.959 . S
C1957 H1964 0.961 . S
C1957 H1965 0.960 . S
C1958 C1956 1.381 . S
C1958 C1959 1.394 . S
C1958 H1966 0.930 . S
C1959 C1958 1.394 . S
C1959 C1960 1.383 . S
C1959 H1967 0.929 . S
C1960 C1959 1.383 . S
C1960 C1961 1.377 . S
C1961 H1945 0.930 . S
C1961 C1960 1.377 . S
C1961 C1962 1.379 . S
C1962 H1946 0.931 . S
C1962 C1956 1.383 . S
C1962 C1961 1.379 . S
H1963 C1957 0.959 . S
H1964 C1957 0.961 . S
H1965 C1957 0.960 . S
H1966 C1958 0.930 . S
H1967 C1959 0.929 . S
H1968 C1976 0.929 . S
H1969 C1978 0.930 . S
H1970 C1980 0.930 . S
H1971 C1983 0.929 . S
H1972 C1986 0.930 . S
H1973 C1988 0.960 . S
H1974 C1988 0.960 . S
H1975 C1988 0.960 . S
C1976 H1968 0.929 . S
C1976 C1977 1.377 . S
C1976 C1978 1.384 . S
C1977 C1976 1.377 . S
C1977 C1983 1.390 . S
C1978 H1969 0.930 . S
C1978 C1976 1.384 . S
C1978 C1979 1.372 . S
C1979 C1978 1.372 . S
C1979 C1980 1.400 . S
C1979 C1984 1.490 . S
C1980 H1970 0.930 . S
C1980 C1979 1.400 . S
C1980 C1983 1.386 . S
H1981 C1997 0.930 . S
H1982 C1998 0.931 . S
C1983 H1971 0.929 . S
C1983 C1977 1.390 . S
C1983 C1980 1.386 . S
C1984 C1979 1.490 . S
C1984 C1986 1.395 . S
C1984 C1987 1.403 . S
H1985 C1991 0.930 . S
C1986 H1972 0.930 . S
C1986 C1984 1.395 . S
C1986 C1989 1.403 . S
C1987 C1984 1.403 . S
C1987 C1988 1.524 . S
C1987 C1991 1.400 . S
C1988 H1973 0.960 . S
C1988 H1974 0.960 . S
C1988 H1975 0.960 . S
C1988 C1987 1.524 . S
C1989 C1986 1.403 . S
C1989 C1990 1.392 . S
C1989 C1993 1.495 . S
C1990 C1989 1.392 . S
C1990 C1991 1.385 . S
C1990 C1992 1.478 . S
C1991 H1985 0.930 . S
C1991 C1987 1.400 . S
C1991 C1990 1.385 . S
C1992 C1990 1.478 . S
C1992 C1994 1.381 . S
C1992 C1998 1.383 . S
C1993 C1989 1.495 . S
C1993 H1999 0.959 . S
C1993 H2000 0.961 . S
C1993 H2001 0.960 . S
C1994 C1992 1.381 . S
C1994 C1995 1.394 . S
C1994 H2002 0.930 . S
C1995 C1994 1.394 . S
C1995 C1996 1.383 . S
C1995 H2003 0.929 . S
C1996 C1995 1.383 . S
C1996 C1997 1.377 . S
C1997 H1981 0.930 . S
C1997 C1996 1.377 . S
C1997 C1998 1.379 . S
C1998 H1982 0.931 . S
C1998 C1992 1.383 . S
C1998 C1997 1.379 . S
H1999 C1993 0.959 . S
H2000 C1993 0.961 . S
H2001 C1993 0.960 . S
H2002 C1994 0.930 . S
H2003 C1995 0.929 . S
H2004 C2012 0.929 . S
H2005 C2014 0.930 . S
H2006 C2016 0.930 . S
H2007 C2019 0.929 . S
H2008 C2022 0.930 . S
H2009 C2024 0.960 . S
H2010 C2024 0.960 . S
H2011 C2024 0.960 . S
C2012 H2004 0.929 . S
C2012 C2013 1.377 . S
C2012 C2014 1.384 . S
C2013 C2012 1.377 . S
C2013 C2019 1.390 . S
C2014 H2005 0.930 . S
C2014 C2012 1.384 . S
C2014 C2015 1.372 . S
C2015 C2014 1.372 . S
C2015 C2016 1.400 . S
C2015 C2020 1.490 . S
C2016 H2006 0.930 . S
C2016 C2015 1.400 . S
C2016 C2019 1.386 . S
H2017 C2033 0.930 . S
H2018 C2034 0.931 . S
C2019 H2007 0.929 . S
C2019 C2013 1.390 . S
C2019 C2016 1.386 . S
C2020 C2015 1.490 . S
C2020 C2022 1.395 . S
C2020 C2023 1.403 . S
H2021 C2027 0.930 . S
C2022 H2008 0.930 . S
C2022 C2020 1.395 . S
C2022 C2025 1.403 . S
C2023 C2020 1.403 . S
C2023 C2024 1.524 . S
C2023 C2027 1.400 . S
C2024 H2009 0.960 . S
C2024 H2010 0.960 . S
C2024 H2011 0.960 . S
C2024 C2023 1.524 . S
C2025 C2022 1.403 . S
C2025 C2026 1.392 . S
C2025 C2029 1.495 . S
C2026 C2025 1.392 . S
C2026 C2027 1.385 . S
C2026 C2028 1.478 . S
C2027 H2021 0.930 . S
C2027 C2023 1.400 . S
C2027 C2026 1.385 . S
C2028 C2026 1.478 . S
C2028 C2030 1.381 . S
C2028 C2034 1.383 . S
C2029 C2025 1.495 . S
C2029 H2035 0.959 . S
C2029 H2036 0.961 . S
C2029 H2037 0.960 . S
C2030 C2028 1.381 . S
C2030 C2031 1.394 . S
C2030 H2038 0.930 . S
C2031 C2030 1.394 . S
C2031 C2032 1.383 . S
C2031 H2039 0.929 . S
C2032 C2031 1.383 . S
C2032 C2033 1.377 . S
C2033 H2017 0.930 . S
C2033 C2032 1.377 . S
C2033 C2034 1.379 . S
C2034 H2018 0.931 . S
C2034 C2028 1.383 . S
C2034 C2033 1.379 . S
H2035 C2029 0.959 . S
H2036 C2029 0.961 . S
H2037 C2029 0.960 . S
H2038 C2030 0.930 . S
H2039 C2031 0.929 . S
C321 C290 1.538 . S
C340 C5 1.521 . S
C357 C17 1.536 . S
C376 C213 1.561 . S
C393 C309 1.540 . S
C412 C29 1.526 . S
C429 C278 1.543 . S
C448 C44 1.521 . S
C465 C239 1.544 . S
C484 C55 1.520 . S
C501 C257 1.536 . S
C520 C68 1.521 . S
C537 C265 1.538 . S
C556 C88 1.525 . S
C573 C94 1.545 . S
C592 C225 1.512 . S
C609 C173 1.540 . S
C628 C114 1.559 . S
C645 C185 1.551 . S
C664 C120 1.546 . S
C681 C134 1.542 . S
C700 C205 1.523 . S
C717 C146 1.548 . S
C736 C161 1.527 . S
C753 C95 1.532 . S
C772 C186 1.507 . S
C789 C200 1.550 . S
C808 C56 1.525 . S
C825 C69 1.531 . S
C844 C166 1.507 . S
C861 C172 1.550 . S
C880 C83 1.526 . S
C897 C133 1.550 . S
C916 C16 1.526 . S
C933 C30 1.529 . S
C952 C147 1.532 . S
C969 C49 1.544 . S
C988 C109 1.540 . S
C1005 C10 1.530 . S
C1024 C121 1.535 . S
C1041 C270 1.537 . S
C1060 C283 1.551 . S
C1077 C289 1.552 . S
C1096 C224 1.552 . S
C1113 C244 1.531 . S
C1132 C218 1.546 . S
C1149 C304 1.544 . S
C1168 C252 1.536 . S
C1185 C4 0.603 . S
C1204 C108 0.652 . S
C1221 C122 0.627 . S
C1240 C18 0.674 . S
C1257 C36 0.586 . S
C1276 C140 0.547 . S
C1293 C43 0.596 . S
C1312 C148 0.561 . S
C1329 C62 0.613 . S
C1348 C159 0.667 . S
C1365 C75 0.591 . S
C1384 C179 0.600 . S
C1401 C187 0.611 . S
C1420 C81 0.563 . S
C1437 C199 0.605 . S
C1456 C101 0.621 . S
C1473 C107 0.626 . S
C1492 C211 0.629 . S
C1509 C127 0.588 . S
C1528 C303 0.557 . S
C1545 C276 0.611 . S
C1564 C135 0.559 . S
C1581 C296 0.613 . S
C1600 C153 0.656 . S
C1617 C231 0.613 . S
C1636 C160 0.656 . S
C1653 C237 0.632 . S
C1672 C174 0.677 . S
C1689 C192 0.613 . S
C1708 C251 0.646 . S
C1725 C198 0.606 . S
C1744 C263 0.595 . S
C1761 C3 0.597 . S
C1780 C212 0.601 . S
C1797 C226 0.616 . S
C1816 C57 0.586 . S
C1833 C238 0.612 . S
C1852 C70 0.670 . S
C1869 C250 0.611 . S
C1888 C82 0.618 . S
C1905 C264 0.599 . S
C1924 C96 0.637 . S
C1941 C277 0.614 . S
C1960 C31 0.670 . S
C1977 C42 0.624 . S
C1996 C291 0.580 . S
C2013 C302 0.611 . S
C2032 C23 0.561 . S
