# Generated by pormake.
# Topology kag, (6)-cn, num edge types: 1
# Building blocks:
#     Node 0, Type 0, BuildingBlock: KUMBUR_clean_sbu_0, # of connection points: 6
#     Node 1, Type 0, BuildingBlock: KUMBUR_clean_sbu_0, # of connection points: 6
#     Node 2, Type 0, BuildingBlock: KUMBUR_clean_sbu_0, # of connection points: 6
#     Edge 3, Type (0, 0), BuildingBlock: FUNLAD_clean_linker_0, # of connection points: 2
#     Edge 4, Type (0, 0), BuildingBlock: FUNLAD_clean_linker_0, # of connection points: 2
#     Edge 5, Type (0, 0), BuildingBlock: FUNLAD_clean_linker_0, # of connection points: 2
#     Edge 6, Type (0, 0), BuildingBlock: FUNLAD_clean_linker_0, # of connection points: 2
#     Edge 7, Type (0, 0), BuildingBlock: FUNLAD_clean_linker_0, # of connection points: 2
#     Edge 8, Type (0, 0), BuildingBlock: FUNLAD_clean_linker_0, # of connection points: 2
#     Edge 9, Type (0, 0), BuildingBlock: FUNLAD_clean_linker_0, # of connection points: 2
#     Edge 10, Type (0, 0), BuildingBlock: FUNLAD_clean_linker_0, # of connection points: 2
#     Edge 11, Type (0, 0), BuildingBlock: FUNLAD_clean_linker_0, # of connection points: 2
# Relax obj value: 0.061
# Max RMSD: 0.179
# Mean RMSD: 0.134
data_MOF--net-kag--node1-KUMBUR_clean_sbu_0--edge1-FUNLAD_clean_linker_0
_symmetry_space_group_name_H-M    P1
_symmetry_Int_Tables_number       1
_symmetry_cell_setting            triclinic
loop_
_symmetry_equiv_pos_as_xyz
'x, y, z'
_cell_length_a     44.781031
_cell_length_b     34.835721
_cell_length_c     17.723574
_cell_angle_alpha  94.245354
_cell_angle_beta   114.56053
_cell_angle_gamma 98.82715
loop_
_atom_site_label
_atom_site_type_symbol
_atom_site_fract_x
_atom_site_fract_y
_atom_site_fract_z
_atom_type_partial_charge
Tb0 Tb 1.00054 0.48373 0.97446 0.0
C1 C 1.00199 0.64717 0.12269 0.0
C2 C 0.94642 0.65741 0.03616 0.0
C3 C 0.97607 0.68949 0.18135 0.0
C4 C 0.97387 0.63964 0.04682 0.0
C5 C 1.00383 0.67292 0.19033 0.0
C6 C 0.94737 0.68168 0.1044 0.0
C7 C 0.06127 0.66644 0.26779 0.0
N8 N 0.02825 0.63064 0.12869 0.0
C9 C 0.05824 0.64115 0.19875 0.0
C10 C 0.03381 0.68201 0.264 0.0
Tb11 Tb 0.02065 0.58934 0.01271 0.0
N12 N 0.97418 0.61647 0.98225 0.0
C13 C 0.94856 0.61206 0.90346 0.0
C14 C 0.91929 0.65108 0.95675 0.0
C15 C 0.92058 0.62874 0.88987 0.0
H16 H 0.07956 0.62919 0.20224 0.0
H17 H 0.90002 0.62428 0.8278 0.0
H18 H 0.9264 0.69532 0.0977 0.0
H19 H 0.08479 0.67394 0.32382 0.0
H20 H 0.94903 0.59482 0.851 0.0
H21 H 0.12112 0.44856 0.15892 0.0
H22 H 0.89765 0.66406 0.94597 0.0
H23 H 0.94158 0.444 0.78486 0.0
H24 H 0.07212 0.47802 0.13596 0.0
H25 H 0.93632 0.3994 0.66305 0.0
H26 H 0.97682 0.70907 0.23285 0.0
H27 H 0.12348 0.40896 0.04051 0.0
H28 H 0.09471 0.37788 0.88865 0.0
H29 H 0.03627 0.7017 0.31745 0.0
H30 H 0.04427 0.36426 0.75354 0.0
N31 N 0.04698 0.45655 0.00465 0.0
C32 C 0.07259 0.46085 0.08342 0.0
C33 C 0.10184 0.42193 0.02985 0.0
C34 C 0.07471 0.4157 0.95045 0.0
C35 C 0.10055 0.44417 0.09686 0.0
C36 C 0.04727 0.43346 0.93996 0.0
H37 H 0.98481 0.37168 0.66913 0.0
N38 N 0.99289 0.44249 0.85831 0.0
C39 C 0.95984 0.40684 0.71908 0.0
C40 C 0.01914 0.42598 0.86413 0.0
C41 C 0.96289 0.43205 0.78826 0.0
C42 C 0.98729 0.39129 0.7227 0.0
C43 C 0.01728 0.40032 0.79634 0.0
O44 O 0.95573 0.44636 0.95597 0.0
O45 O 0.98402 0.53707 0.99398 0.0
O46 O 0.01631 0.57098 0.12306 0.0
O47 O 0.02342 0.5062 0.11106 0.0
O48 O 0.94933 0.49364 0.90481 0.0
O49 O 1.00283 0.44192 0.05576 0.0
O50 O 0.06557 0.62644 0.03108 0.0
O51 O 0.03715 0.53601 0.99329 0.0
O52 O 1.00493 0.50214 0.86418 0.0
O53 O 0.99781 0.56691 0.87612 0.0
O54 O 0.07184 0.57936 0.08254 0.0
O55 O 0.01848 0.63145 0.93205 0.0
C56 C 0.95318 0.52795 0.94393 0.0
C57 C 0.96089 0.38364 0.99229 0.0
C58 C 0.9199 0.32341 0.96892 0.0
C59 C 0.93194 0.36418 -0.00315 0.0
C60 C 0.93762 0.30262 0.93619 0.0
C61 C 0.97853 0.36207 0.96161 0.0
C62 C 0.96682 0.32181 0.93338 0.0
C63 C 0.02167 0.53801 0.15425 0.0
C64 C 0.97088 0.42669 0.01521 0.0
C65 C 0.04504 0.38377 0.80515 0.0
C66 C 0.07375 0.39151 0.88208 0.0
C67 C 0.06798 0.54504 0.0434 0.0
C68 C 0.06076 0.68943 -0.00362 0.0
C69 C 0.09015 0.70873 0.99367 0.0
C70 C 0.10249 0.74938 0.02288 0.0
C71 C 0.08461 0.77022 0.05497 0.0
C72 C 0.04298 0.71108 0.02645 0.0
C73 C 0.05498 0.75121 0.05592 0.0
C74 C 0.99957 0.5351 0.83296 0.0
C75 C 0.05049 0.64643 0.97248 0.0
H76 H 0.91903 0.38102 0.02274 0.0
H77 H 0.92885 0.27154 0.91198 0.0
H78 H 1.00115 0.37624 0.95889 0.0
H79 H 0.98031 0.30544 0.90862 0.0
H80 H 0.10318 0.69185 0.96826 0.0
H81 H 0.09358 0.80119 0.08012 0.0
H82 H 0.02003 0.69704 0.02779 0.0
H83 H 0.04138 0.76763 0.08022 0.0
Tb84 Tb 0.55693 0.04183 0.0489 0.0
C85 C 0.42389 0.07108 0.80525 0.0
C86 C 0.4177 0.1316 0.86792 0.0
C87 C 0.39213 0.11411 0.71603 0.0
C88 C 0.43069 0.09694 0.8757 0.0
C89 C 0.40388 0.0788 0.72456 0.0
C90 C 0.39906 0.14051 0.78766 0.0
C91 C 0.40607 1.01462 0.66778 0.0
N92 N 0.43536 0.03708 0.81639 0.0
C93 C 0.42565 1.0082 0.74919 0.0
C94 C 0.39546 0.05026 0.65526 0.0
Tb95 Tb 0.46815 1.02984 0.95219 0.0
N96 N 0.44837 0.08692 0.95195 0.0
C97 C 0.45189 0.10919 0.02321 0.0
C98 C 0.42291 0.15557 0.94093 0.0
C99 C 0.43966 0.14399 0.01885 0.0
H100 H 0.43379 0.9806 0.75788 0.0
H101 H 0.4433 0.16193 0.0757 0.0
H102 H 0.38913 0.16718 0.78036 0.0
H103 H 0.39917 0.99207 0.61473 0.0
H104 H 0.46491 0.10096 0.08413 0.0
H105 H 0.58001 0.90904 0.92275 0.0
H106 H 0.41342 0.1825 0.93774 0.0
H107 H 0.5917 0.09057 0.24388 0.0
H108 H 0.55869 0.97014 0.91543 0.0
H109 H 0.6266 0.07876 0.38641 0.0
H110 H 0.37697 0.1208 0.65454 0.0
H111 H 0.61083 0.88865 0.06033 0.0
H112 H 0.636 0.90399 0.21779 0.0
H113 H 0.38016 0.05507 0.59217 0.0
H114 H 0.64866 0.95019 0.34427 0.0
N115 N 0.57643 0.98459 0.04801 0.0
C116 C 0.57214 0.96205 0.97623 0.0
C117 C 0.6015 0.91568 0.05765 0.0
C118 C 0.60731 0.93977 0.13106 0.0
C119 C 0.5842 0.92715 0.97994 0.0
C120 C 0.59448 0.97454 0.12397 0.0
H121 H 0.64564 1.01573 0.40774 0.0
N122 N 0.58995 1.03423 0.18432 0.0
C123 C 0.61958 0.05634 0.33305 0.0
C124 C 0.60146 1.00025 0.19479 0.0
C125 C 0.59982 0.06295 0.25193 0.0
C126 C 0.63021 1.02069 0.34487 0.0
C127 C 0.62164 0.99234 0.27517 0.0
O128 O 0.59494 0.09243 0.08554 0.0
O129 O 0.51511 0.07232 -0.00351 0.0
O130 O 0.48614 0.05041 0.86249 0.0
O131 O 0.53615 1.02841 0.91045 0.0
O132 O 0.55495 0.10009 0.10284 0.0
O133 O 0.58995 0.04613 0.99133 0.0
O134 O 0.42989 0.97948 0.91484 0.0
O135 O 0.50995 0.99974 0.00494 0.0
O136 O 0.53902 1.02146 0.13887 0.0
O137 O 0.4889 0.04335 0.09071 0.0
O138 O 0.47033 0.97101 0.90005 0.0
O139 O 0.43527 1.02549 0.01015 0.0
C140 C 0.52646 0.10449 0.04786 0.0
C141 C 0.6444 0.08427 0.0754 0.0
C142 C 0.6987 0.11565 0.08487 0.0
C143 C 0.66344 0.10821 0.04398 0.0
C144 C 0.7147 0.09844 0.15645 0.0
C145 C 0.66092 0.06701 0.14641 0.0
C146 C 0.69584 0.07399 0.18653 0.0
C147 C 0.51139 0.04049 0.85094 0.0
C148 C 0.60764 0.07976 0.03685 0.0
C149 C 0.63337 0.95701 0.28302 0.0
C150 C 0.62618 0.93073 0.21103 0.0
C151 C 0.49892 0.96707 0.95544 0.0
C152 C 0.38064 0.98785 0.92592 0.0
C153 C 0.36154 0.96373 0.95693 0.0
C154 C 0.32629 0.95661 0.91633 0.0
C155 C 0.31036 0.97431 0.84548 0.0
C156 C 0.36421 1.00561 0.85566 0.0
C157 C 0.32928 0.99894 0.81584 0.0
C158 C 0.51374 1.03137 0.15035 0.0
C159 C 0.41737 0.99205 0.96406 0.0
H160 H 0.65093 0.12189 0.98941 0.0
H161 H 0.74182 0.1037 0.18866 0.0
H162 H 0.64702 0.04864 0.1718 0.0
H163 H 0.70833 0.0607 0.24158 0.0
H164 H 0.37399 0.94967 0.01093 0.0
H165 H 0.28324 0.96929 0.8135 0.0
H166 H 0.37818 1.02414 0.83066 0.0
H167 H 0.31685 1.01261 0.76136 0.0
Tb168 Tb 0.46556 0.52125 0.94775 0.0
C169 C 0.58523 0.63527 0.13964 0.0
C170 C 0.58526 0.67929 0.04036 0.0
C171 C 0.60575 0.70571 0.18747 0.0
C172 C 0.57772 0.64112 0.05839 0.0
C173 C 0.60059 0.66739 0.20573 0.0
C174 C 0.59826 0.71164 0.10485 0.0
C175 C 0.61144 0.62114 0.30358 0.0
N176 N 0.5815 0.59768 0.15486 0.0
C177 C 0.59706 0.59044 0.23595 0.0
C178 C 0.61245 0.65988 0.28843 0.0
Tb179 Tb 0.5553 0.54885 0.03849 0.0
N180 N 0.56498 0.60913 -0.00227 0.0
C181 C 0.56173 0.61333 0.91858 0.0
C182 C 0.58025 0.6837 0.95854 0.0
C183 C 0.56896 0.65046 0.89775 0.0
H184 H 0.59809 0.56071 0.24904 0.0
H185 H 0.56585 0.65337 0.83466 0.0
H186 H 0.60355 0.74119 0.09188 0.0
H187 H 0.62236 0.61489 0.36728 0.0
H188 H 0.55414 0.58841 0.87074 0.0
H189 H 0.45861 0.4137 0.14858 0.0
H190 H 0.58573 0.71244 0.94217 0.0
H191 H 0.42066 0.51257 0.73902 0.0
H192 H 0.46972 0.47948 0.11493 0.0
H193 H 0.39356 0.45974 0.61759 0.0
H194 H 0.61704 0.73074 0.23724 0.0
H195 H 0.43634 0.35582 0.03729 0.0
H196 H 0.41531 0.32899 0.88497 0.0
H197 H 0.62431 0.68369 0.34087 0.0
H198 H 0.39924 0.3415 0.73979 0.0
N199 N 0.45609 0.46027 0.9857 0.0
C200 C 0.46098 0.45503 0.06551 0.0
C201 C 0.44154 0.3849 0.02205 0.0
C202 C 0.43487 0.39042 0.93975 0.0
C203 C 0.45417 0.41746 0.08497 0.0
C204 C 0.44216 0.42897 0.92331 0.0
H205 H 0.39082 0.39023 0.63918 0.0
N206 N 0.43732 0.47387 0.82929 0.0
C207 C 0.40514 0.45253 0.68036 0.0
C208 C 0.43337 0.43594 0.84224 0.0
C209 C 0.42095 0.48241 0.7496 0.0
C210 C 0.40371 0.41338 0.69278 0.0
C211 C 0.4167 0.40464 0.7746 0.0
O212 O 0.4178 0.53497 0.88237 0.0
O213 O 0.50842 0.57192 0.00286 0.0
O214 O 0.54171 0.54043 0.1423 0.0
O215 O 0.48536 0.54381 0.08172 0.0
O216 O 0.46596 0.5774 0.90024 0.0
O217 O 0.43432 0.52602 0.00957 0.0
O218 O 0.6038 0.53813 0.10873 0.0
O219 O 0.51245 0.49854 0.98237 0.0
O220 O 0.47896 0.52723 0.84287 0.0
O221 O 0.53599 0.52681 0.90443 0.0
O222 O 0.55461 0.49168 0.08311 0.0
O223 O 0.58699 0.54185 0.97885 0.0
C224 C 0.49518 0.59646 0.95394 0.0
C225 C 0.37538 0.50824 0.92325 0.0
C226 C 0.31956 0.49955 0.92426 0.0
C227 C 0.35213 0.5227 0.9479 0.0
C228 C 0.31143 0.46172 0.8783 0.0
C229 C 0.36571 0.47053 0.87662 0.0
C230 C 0.33424 0.44747 0.85495 0.0
C231 C 0.51375 0.54396 0.14767 0.0
C232 C 0.40929 0.53223 0.94385 0.0
C233 C 0.41154 0.36593 0.79082 0.0
C234 C 0.4205 0.35884 0.87337 0.0
C235 C 0.52529 0.47311 0.02887 0.0
C236 C 0.64569 0.56341 0.06499 0.0
C237 C 0.6692 0.54913 0.04112 0.0
C238 C 0.70124 0.5731 0.06236 0.0
C239 C 0.70852 0.61152 0.105 0.0
C240 C 0.65454 0.60172 0.10849 0.0
C241 C 0.68545 0.62557 0.12761 0.0
C242 C 0.50731 0.52513 0.83814 0.0
C243 C 0.61239 0.5386 0.04711 0.0
H244 H 0.35904 0.55191 0.98336 0.0
H245 H 0.28725 0.44279 0.86056 0.0
H246 H 0.38235 0.45881 0.85604 0.0
H247 H 0.3274 0.41834 0.81926 0.0
H248 H 0.66293 0.51945 0.00824 0.0
H249 H 0.73226 0.63104 0.12076 0.0
H250 H 0.63771 0.61329 0.12871 0.0
H251 H 0.69167 0.65515 0.16084 0.0
C252 C 1.00815 0.50758 0.71045 0.0
C253 C 0.99911 0.53757 0.74918 0.0
C254 C 0.01099 0.51104 0.63558 0.0
C255 C 1.00463 0.54462 0.5967 0.0
C256 C 0.9951 0.57434 0.63484 0.0
C257 C 0.99237 0.57091 0.71009 0.0
C258 C 1.00892 0.55075 0.51886 0.0
C259 C 0.01226 0.52233 0.46828 0.0
C260 C 0.01656 0.52847 0.39046 0.0
C261 C 0.02603 0.49871 0.35224 0.0
C262 C 0.02878 0.50215 0.27701 0.0
C263 C 0.02212 0.53553 0.23802 0.0
H264 H 1.00213 0.58547 0.37672 0.0
C265 C 0.01314 0.56555 0.27683 0.0
C266 C 0.01028 0.56209 0.35168 0.0
H267 H 1.00714 0.59138 0.24808 0.0
H268 H 0.01422 0.48179 0.73929 0.0
H269 H 0.0192 0.4877 0.6106 0.0
H270 H 0.99013 0.60065 0.60682 0.0
H271 H 0.98553 0.5947 0.73825 0.0
H272 H 1.00942 0.58033 0.50368 0.0
H273 H 0.01176 0.49276 0.48346 0.0
H274 H 0.03094 0.47237 0.38017 0.0
H275 H 0.03556 0.47833 0.24878 0.0
C276 C 0.49248 0.04752 0.25737 0.0
C277 C 0.51366 1.02905 0.23344 0.0
C278 C 0.49332 0.04595 0.337 0.0
C279 C 0.51545 1.02585 0.39448 0.0
C280 C 0.53597 1.00668 0.36948 0.0
C281 C 0.53516 1.0083 0.29018 0.0
C282 C 0.51737 1.02307 0.47988 0.0
C283 C 0.5078 0.0489 0.52146 0.0
C284 C 0.50972 0.04612 0.60686 0.0
C285 C 0.48923 0.06532 0.63193 0.0
C286 C 0.49004 0.06369 0.71121 0.0
C287 C 0.51149 0.04287 0.76788 0.0
H288 H 0.54889 1.01188 0.64891 0.0
C289 C 0.53265 1.02439 0.74392 0.0
C290 C 0.53182 1.02598 0.6643 0.0
H291 H 0.54973 1.00846 0.7864 0.0
H292 H 0.47537 0.0634 0.21484 0.0
H293 H 0.47624 0.06003 0.35237 0.0
H294 H 0.55294 0.99056 0.41174 0.0
H295 H 0.55134 0.99303 0.27334 0.0
H296 H 0.52763 0.99896 0.50962 0.0
H297 H 0.49754 0.07301 0.49172 0.0
H298 H 0.47228 0.08149 0.58971 0.0
H299 H 0.4739 0.079 0.72811 0.0
C300 C 0.4831 0.53361 0.68582 0.0
C301 C 0.50784 0.52187 0.75477 0.0
C302 C 0.4855 0.53362 0.60944 0.0
C303 C 0.51278 0.5219 0.60051 0.0
C304 C 0.5368 0.50895 0.66866 0.0
C305 C 0.53453 0.50919 0.74495 0.0
C306 C 0.51696 0.52211 0.52133 0.0
C307 C 0.50394 0.54575 0.4643 0.0
C308 C 0.50815 0.54611 0.38515 0.0
C309 C 0.48453 0.55995 0.31777 0.0
C310 C 0.48684 0.56003 0.24156 0.0
C311 C 0.51317 0.54673 0.23101 0.0
H312 H 0.55444 0.52399 0.42652 0.0
C313 C 0.53748 0.534 0.29916 0.0
C314 C 0.53507 0.53373 0.37548 0.0
H315 H 0.55795 0.52332 0.29304 0.0
H316 H 0.46234 0.54378 0.69136 0.0
H317 H 0.46584 0.54263 0.55775 0.0
H318 H 0.55785 0.49933 0.66347 0.0
H319 H 0.55395 0.49973 0.79658 0.0
H320 H 0.53206 0.50255 0.51124 0.0
H321 H 0.48889 0.56533 0.47459 0.0
H322 H 0.46376 0.57009 0.32349 0.0
H323 H 0.46774 0.57024 0.19058 0.0
C324 C 0.12947 0.54566 0.08871 0.0
C325 C 0.09618 0.53486 0.02602 0.0
C326 C 0.15674 0.54013 0.0717 0.0
C327 C 0.15153 0.52379 0.99088 0.0
C328 C 0.11814 0.51251 0.92876 0.0
C329 C 0.09101 0.51836 0.94566 0.0
C330 C 0.17954 0.51749 0.96778 0.0
C331 C 0.21275 0.5335 0.01359 0.0
C332 C 0.24013 0.52712 0.98786 0.0
C333 C 0.274 0.53645 0.04812 0.0
C334 C 0.30014 0.52959 0.02733 0.0
C335 C 0.29319 0.5132 0.9454 0.0
H336 H 0.20834 0.50635 0.85509 0.0
C337 C 0.25954 0.50571 0.88432 0.0
C338 C 0.23353 0.51258 0.90491 0.0
H339 H 0.25315 0.49378 0.82008 0.0
H340 H 0.13447 0.55884 0.15117 0.0
H341 H 0.18172 0.54869 0.12228 0.0
H342 H 0.11293 0.49972 0.86587 0.0
H343 H 0.06608 0.51056 0.895 0.0
H344 H 0.17184 0.49873 0.9086 0.0
H345 H 0.22068 0.55187 0.07337 0.0
H346 H 0.28026 0.54824 0.11235 0.0
H347 H 0.32561 0.53561 0.07619 0.0
C348 C 0.74279 0.17446 0.10803 0.0
C349 C 0.71922 0.14152 0.05423 0.0
C350 C 0.7647 0.19681 0.08276 0.0
C351 C 0.76375 0.18623 0.00351 0.0
C352 C 0.73977 0.15362 0.94925 0.0
C353 C 0.71735 0.13174 0.97394 0.0
C354 C 0.78958 0.20636 0.9799 0.0
C355 C 0.80343 0.24491 0.0048 0.0
C356 C 0.83218 0.26375 0.99012 0.0
C357 C 0.83478 0.30274 0.97477 0.0
C358 C 0.86272 0.3218 0.96577 0.0
C359 C 0.88925 0.30262 0.97449 0.0
H360 H 0.85741 0.21449 0.01167 0.0
C361 C 0.88652 0.2635 0.99033 0.0
C362 C 0.85824 0.24423 -0.0026 0.0
H363 H 0.90661 0.24791 -0.00036 0.0
H364 H 0.74473 0.18238 0.17042 0.0
H365 H 0.78337 0.2212 0.12687 0.0
H366 H 0.73876 0.14469 0.88822 0.0
H367 H 0.69953 0.10621 0.9318 0.0
H368 H 0.79749 0.18879 0.94101 0.0
H369 H 0.79333 0.26339 0.03647 0.0
H370 H 0.81507 0.31846 0.96934 0.0
H371 H 0.86339 0.35156 0.95186 0.0
C372 C 0.4948 0.89529 0.9037 0.0
C373 C 0.50572 0.92591 0.97215 0.0
C374 C 0.49743 0.85576 0.91484 0.0
C375 C 0.51089 0.84446 -0.0044 0.0
C376 C 0.52193 0.87528 0.06427 0.0
C377 C 0.51931 0.91497 0.05297 0.0
C378 C 0.51285 0.80147 0.01109 0.0
C379 C 0.50532 0.76959 0.95088 0.0
C380 C 0.50569 0.72586 0.96047 0.0
C381 C 0.49734 0.699 0.88757 0.0
C382 C 0.49557 0.65822 0.88837 0.0
C383 C 0.50287 0.64147 0.96248 0.0
H384 H 0.51893 0.7282 0.09359 0.0
C385 C 0.511 0.66789 0.03638 0.0
C386 C 0.51268 0.70937 0.0356 0.0
H387 H 0.51546 0.65647 0.09446 0.0
H388 H 0.48367 0.9019 0.84026 0.0
H389 H 0.48811 0.83419 0.85911 0.0
H390 H 0.53235 0.86857 0.1277 0.0
H391 H 0.5273 0.93691 0.10773 0.0
H392 H 0.52089 0.7962 0.07553 0.0
H393 H 0.49803 0.77549 0.88716 0.0
H394 H 0.49149 0.70955 0.82806 0.0
H395 H 0.48812 0.63936 0.82948 0.0
C396 C 0.89165 0.52713 0.89892 0.0
C397 C 0.92498 0.53813 0.96138 0.0
C398 C 0.86442 0.53268 0.91606 0.0
C399 C 0.8697 0.54927 -0.00322 0.0
C400 C 0.90312 0.56074 0.05866 0.0
C401 C 0.93021 0.55484 0.04165 0.0
C402 C 0.84172 0.55574 0.01989 0.0
C403 C 0.80859 0.53915 0.97497 0.0
C404 C 0.78117 0.54568 0.0005 0.0
C405 C 0.74723 0.53476 0.94099 0.0
C406 C 0.72099 0.54163 0.9614 0.0
C407 C 0.72792 0.55965 0.04219 0.0
H408 H 0.81306 0.5695 0.13189 0.0
C409 C 0.76169 0.56882 0.10268 0.0
C410 C 0.7878 0.56192 0.08249 0.0
H411 H 0.76808 0.58205 0.16611 0.0
H412 H 0.8866 0.51379 0.83653 0.0
H413 H 0.83941 0.524 0.86565 0.0
H414 H 0.90837 0.57372 0.12146 0.0
H415 H 0.95517 0.56279 0.09217 0.0
H416 H 0.84943 0.57507 0.07834 0.0
H417 H 0.80075 0.52006 0.91608 0.0
H418 H 0.74095 0.52167 0.87755 0.0
H419 H 0.69543 0.53429 0.91299 0.0
C420 C 0.13694 0.80931 0.00469 0.0
C421 C 0.13361 0.77 0.01922 0.0
C422 C 0.16562 0.82842 -0.0008 0.0
C423 C 0.19152 0.80854 0.00678 0.0
C424 C 0.18835 0.76938 0.02094 0.0
C425 C 0.15999 0.75049 0.02838 0.0
C426 C 0.22064 0.8272 0.99334 0.0
C427 C 0.23479 0.86565 0.0191 0.0
C428 C 0.26086 0.88572 -0.00383 0.0
C429 C 0.28493 0.91813 0.05098 0.0
C430 C 0.30749 0.94008 0.02681 0.0
C431 C 0.30569 0.93057 0.9465 0.0
H432 H 0.24128 0.85114 0.87242 0.0
C433 C 0.28205 0.89779 0.89219 0.0
C434 C 0.26 0.87537 0.91694 0.0
H435 H 0.28016 0.89009 0.82977 0.0
H436 H 0.11701 0.82519 -0.00488 0.0
H437 H 0.16689 0.8583 0.98582 0.0
H438 H 0.20793 0.7534 0.02658 0.0
H439 H 0.15888 0.72056 0.04137 0.0
H440 H 0.23071 0.80868 0.96163 0.0
H441 H 0.22688 0.88321 0.05801 0.0
H442 H 0.28587 0.92689 0.11201 0.0
H443 H 0.32536 0.96548 0.06934 0.0
C444 C 0.52611 0.40712 0.08186 0.0
C445 C 0.51788 0.42799 0.01275 0.0
C446 C 0.52327 0.36568 0.07256 0.0
C447 C 0.51273 0.34267 0.99326 0.0
C448 C 0.50508 0.36377 0.92408 0.0
C449 C 0.50785 0.40541 0.93354 0.0
C450 C 0.51028 0.29755 0.98005 0.0
C451 C 0.51662 0.27376 0.04137 0.0
C452 C 0.51617 0.22912 0.03451 0.0
C453 C 0.52675 0.2127 0.10965 0.0
C454 C 0.52852 0.17264 0.1113 0.0
C455 C 0.51924 0.14595 0.03777 0.0
H456 H 0.4979 0.21306 0.89982 0.0
C457 C 0.50794 0.16163 0.96129 0.0
C458 C 0.5064 0.20248 0.95963 0.0
H459 H 0.50112 0.14264 0.90302 0.0
H460 H 0.53495 0.42315 0.14442 0.0
H461 H 0.52994 0.35221 0.12871 0.0
H462 H 0.49716 0.34796 0.86179 0.0
H463 H 0.50251 0.41996 0.87881 0.0
H464 H 0.50328 0.28365 0.91659 0.0
H465 H 0.5235 0.28805 0.10432 0.0
H466 H 0.53446 0.23131 0.16896 0.0
H467 H 0.53773 0.16246 0.17165 0.0
loop_
_geom_bond_atom_site_label_1
_geom_bond_atom_site_label_2
_geom_bond_distance
_geom_bond_site_symmetry_2
_ccdc_geom_bond_type
Tb0 N31 2.660 1_656 S
Tb0 N38 2.600 . S
Tb0 O44 2.546 . S
Tb0 O45 2.610 . S
Tb0 O47 2.319 1_556 S
Tb0 O48 2.552 . S
Tb0 O49 2.413 1_556 S
Tb0 O51 2.362 1_656 S
Tb0 O52 2.421 . S
Tb0 C64 2.833 . S
C1 C4 1.432 . S
C1 C5 1.414 . S
C1 N8 1.359 1_655 S
C2 C4 1.417 1_556 S
C2 C6 1.432 1_556 S
C2 C14 1.410 . S
C3 C5 1.444 . S
C3 C6 1.317 . S
C3 H26 0.929 . S
C4 C1 1.432 . S
C4 C2 1.417 1_554 S
C4 N12 1.360 1_554 S
C5 C1 1.414 . S
C5 C3 1.444 . S
C5 C10 1.385 1_655 S
C6 C2 1.432 1_554 S
C6 C3 1.317 . S
C6 H18 0.930 1_554 S
C7 C9 1.392 . S
C7 C10 1.370 . S
C7 H19 0.931 . S
N8 C1 1.359 1_455 S
N8 C9 1.327 . S
N8 Tb11 2.600 . S
C9 C7 1.392 . S
C9 N8 1.327 . S
C9 H16 0.930 . S
C10 C5 1.385 1_455 S
C10 C7 1.370 . S
C10 H29 0.930 . S
Tb11 N8 2.600 . S
Tb11 N12 2.660 1_454 S
Tb11 O45 2.362 1_454 S
Tb11 O46 2.421 . S
Tb11 O50 2.546 . S
Tb11 O51 2.610 . S
Tb11 O53 2.320 1_554 S
Tb11 O54 2.552 . S
Tb11 O55 2.413 1_554 S
Tb11 C75 2.833 . S
N12 C4 1.360 1_556 S
N12 Tb11 2.660 1_656 S
N12 C13 1.305 . S
C13 N12 1.305 . S
C13 C15 1.407 . S
C13 H20 0.930 . S
C14 C2 1.410 . S
C14 C15 1.345 . S
C14 H22 0.930 . S
C15 C13 1.407 . S
C15 C14 1.345 . S
C15 H17 0.930 . S
H16 C9 0.930 . S
H17 C15 0.930 . S
H18 C6 0.930 1_556 S
H19 C7 0.931 . S
H20 C13 0.930 . S
H21 C35 0.930 . S
H22 C14 0.930 . S
H23 C41 0.930 . S
H24 C32 0.930 . S
H25 C39 0.931 . S
H26 C3 0.929 . S
H27 C33 0.930 . S
H28 C66 0.930 1_554 S
H29 C10 0.930 . S
H30 C65 0.929 . S
N31 Tb0 2.660 1_454 S
N31 C32 1.305 . S
N31 C36 1.360 1_554 S
C32 H24 0.930 . S
C32 N31 1.305 . S
C32 C35 1.407 . S
C33 H27 0.930 . S
C33 C34 1.410 . S
C33 C35 1.345 . S
C34 C33 1.410 . S
C34 C36 1.417 1_554 S
C34 C66 1.432 1_554 S
C35 H21 0.930 . S
C35 C32 1.407 . S
C35 C33 1.345 . S
C36 N31 1.360 1_556 S
C36 C34 1.417 1_556 S
C36 C40 1.432 . S
H37 C42 0.930 . S
N38 Tb0 2.600 . S
N38 C40 1.359 1_655 S
N38 C41 1.327 . S
C39 H25 0.931 . S
C39 C41 1.392 . S
C39 C42 1.370 . S
C40 C36 1.432 . S
C40 N38 1.359 1_455 S
C40 C43 1.414 . S
C41 H23 0.930 . S
C41 N38 1.327 . S
C41 C39 1.392 . S
C42 H37 0.930 . S
C42 C39 1.370 . S
C42 C43 1.385 1_655 S
C43 C40 1.414 . S
C43 C42 1.385 1_455 S
C43 C65 1.444 . S
O44 Tb0 2.546 . S
O44 C64 1.251 . S
O45 Tb0 2.610 . S
O45 Tb11 2.362 1_656 S
O45 C56 1.283 . S
O46 Tb11 2.421 . S
O46 C63 1.262 . S
O47 Tb0 2.319 1_554 S
O47 C63 1.261 1_655 S
O48 Tb0 2.552 . S
O48 C56 1.243 . S
O49 Tb0 2.413 1_554 S
O49 C64 1.256 1_554 S
O50 Tb11 2.546 . S
O50 C75 1.251 . S
O51 Tb0 2.362 1_454 S
O51 Tb11 2.610 . S
O51 C67 1.283 . S
O52 Tb0 2.421 . S
O52 C74 1.262 . S
O53 Tb11 2.320 1_556 S
O53 C74 1.260 1_455 S
O54 Tb11 2.552 . S
O54 C67 1.243 . S
O55 Tb11 2.413 1_556 S
O55 C75 1.256 1_556 S
C56 O45 1.283 . S
C56 O48 1.243 . S
C57 C59 1.382 . S
C57 C61 1.393 . S
C57 C64 1.500 . S
C58 C59 1.400 . S
C58 C60 1.384 . S
C59 C57 1.382 . S
C59 C58 1.400 . S
C59 H76 0.930 1_556 S
C60 C58 1.384 . S
C60 C62 1.392 . S
C60 H77 0.931 . S
C61 C57 1.393 . S
C61 C62 1.401 . S
C61 H78 0.930 . S
C62 C60 1.392 . S
C62 C61 1.401 . S
C62 H79 0.930 . S
C63 O46 1.262 . S
C63 O47 1.261 1_455 S
C64 Tb0 2.833 . S
C64 O44 1.251 . S
C64 O49 1.256 1_556 S
C64 C57 1.500 . S
C65 H30 0.929 . S
C65 C43 1.444 . S
C65 C66 1.317 . S
C66 H28 0.930 1_556 S
C66 C34 1.432 1_556 S
C66 C65 1.317 . S
C67 O51 1.283 . S
C67 O54 1.243 . S
C68 C69 1.382 . S
C68 C72 1.393 . S
C68 C75 1.500 . S
C69 C68 1.382 . S
C69 C70 1.400 . S
C69 H80 0.930 1_554 S
C70 C69 1.400 . S
C70 C71 1.384 . S
C71 C70 1.384 . S
C71 C73 1.392 . S
C71 H81 0.931 . S
C72 C68 1.393 . S
C72 C73 1.401 . S
C72 H82 0.930 . S
C73 C71 1.392 . S
C73 C72 1.401 . S
C73 H83 0.930 . S
C74 O52 1.262 . S
C74 O53 1.260 1_655 S
C75 Tb11 2.833 . S
C75 O50 1.251 . S
C75 O55 1.256 1_554 S
C75 C68 1.500 . S
H76 C59 0.930 1_554 S
H77 C60 0.931 . S
H78 C61 0.930 . S
H79 C62 0.930 . S
H80 C69 0.930 1_556 S
H81 C71 0.931 . S
H82 C72 0.930 . S
H83 C73 0.930 . S
Tb84 N115 2.660 1_545 S
Tb84 N122 2.600 1_545 S
Tb84 O128 2.546 . S
Tb84 O129 2.610 1_554 S
Tb84 O131 2.320 1_554 S
Tb84 O132 2.552 . S
Tb84 O133 2.413 . S
Tb84 O135 2.362 1_545 S
Tb84 O136 2.421 . S
Tb84 C148 2.833 . S
C85 C88 1.432 . S
C85 C89 1.414 . S
C85 N92 1.359 . S
C86 C88 1.417 . S
C86 C90 1.432 . S
C86 C98 1.410 1_556 S
C87 C89 1.444 . S
C87 C90 1.317 . S
C87 H110 0.929 . S
C88 C85 1.432 . S
C88 C86 1.417 . S
C88 N96 1.360 . S
C89 C85 1.414 . S
C89 C87 1.444 . S
C89 C94 1.385 . S
C90 C86 1.432 . S
C90 C87 1.317 . S
C90 H102 0.930 . S
C91 C93 1.392 . S
C91 C94 1.370 1_565 S
C91 H103 0.931 . S
N92 C85 1.359 . S
N92 C93 1.327 1_545 S
N92 Tb95 2.600 1_545 S
C93 C91 1.392 . S
C93 N92 1.327 1_565 S
C93 H100 0.930 . S
C94 C89 1.385 . S
C94 C91 1.370 1_545 S
C94 H113 0.930 . S
Tb95 N92 2.600 1_565 S
Tb95 N96 2.660 1_565 S
Tb95 O129 2.362 1_565 S
Tb95 O130 2.421 . S
Tb95 O134 2.546 . S
Tb95 O135 2.610 1_556 S
Tb95 O137 2.320 1_556 S
Tb95 O138 2.552 . S
Tb95 O139 2.413 . S
Tb95 C159 2.833 . S
N96 C88 1.360 . S
N96 Tb95 2.660 1_545 S
N96 C97 1.305 1_556 S
C97 N96 1.305 1_554 S
C97 C99 1.407 . S
C97 H104 0.930 . S
C98 C86 1.410 1_554 S
C98 C99 1.345 . S
C98 H106 0.930 . S
C99 C97 1.407 . S
C99 C98 1.345 . S
C99 H101 0.930 . S
H100 C93 0.930 . S
H101 C99 0.930 . S
H102 C90 0.930 . S
H103 C91 0.931 . S
H104 C97 0.930 . S
H105 C119 0.930 . S
H106 C98 0.930 . S
H107 C125 0.930 . S
H108 C116 0.930 . S
H109 C123 0.931 . S
H110 C87 0.929 . S
H111 C117 0.930 . S
H112 C150 0.930 . S
H113 C94 0.930 . S
H114 C149 0.929 . S
N115 Tb84 2.660 1_565 S
N115 C116 1.305 1_554 S
N115 C120 1.360 . S
C116 H108 0.930 . S
C116 N115 1.305 1_556 S
C116 C119 1.407 . S
C117 H111 0.930 . S
C117 C118 1.410 1_556 S
C117 C119 1.345 . S
C118 C117 1.410 1_554 S
C118 C120 1.417 . S
C118 C150 1.432 . S
C119 H105 0.930 . S
C119 C116 1.407 . S
C119 C117 1.345 . S
C120 N115 1.360 . S
C120 C118 1.417 . S
C120 C124 1.432 . S
H121 C126 0.930 . S
N122 Tb84 2.600 1_565 S
N122 C124 1.359 . S
N122 C125 1.327 1_565 S
C123 H109 0.931 . S
C123 C125 1.392 . S
C123 C126 1.370 1_545 S
C124 C120 1.432 . S
C124 N122 1.359 . S
C124 C127 1.414 . S
C125 H107 0.930 . S
C125 N122 1.327 1_545 S
C125 C123 1.392 . S
C126 H121 0.930 . S
C126 C123 1.370 1_565 S
C126 C127 1.385 . S
C127 C124 1.414 . S
C127 C126 1.385 . S
C127 C149 1.444 . S
O128 Tb84 2.546 . S
O128 C148 1.251 . S
O129 Tb84 2.610 1_556 S
O129 Tb95 2.362 1_545 S
O129 C140 1.283 . S
O130 Tb95 2.421 . S
O130 C147 1.253 1_565 S
O131 Tb84 2.320 1_556 S
O131 C147 1.258 . S
O132 Tb84 2.552 . S
O132 C140 1.243 1_554 S
O133 Tb84 2.413 . S
O133 C148 1.256 . S
O134 Tb95 2.546 . S
O134 C159 1.251 . S
O135 Tb84 2.362 1_565 S
O135 Tb95 2.610 1_554 S
O135 C151 1.283 . S
O136 Tb84 2.421 . S
O136 C158 1.263 . S
O137 Tb95 2.320 1_554 S
O137 C158 1.260 1_565 S
O138 Tb95 2.552 . S
O138 C151 1.243 1_556 S
O139 Tb95 2.413 . S
O139 C159 1.256 . S
C140 O129 1.283 . S
C140 O132 1.243 1_556 S
C141 C143 1.382 . S
C141 C145 1.393 . S
C141 C148 1.500 . S
C142 C143 1.400 . S
C142 C144 1.384 . S
C143 C141 1.382 . S
C143 C142 1.400 . S
C143 H160 0.930 1_554 S
C144 C142 1.384 . S
C144 C146 1.392 . S
C144 H161 0.931 . S
C145 C141 1.393 . S
C145 C146 1.401 . S
C145 H162 0.930 . S
C146 C144 1.392 . S
C146 C145 1.401 . S
C146 H163 0.930 . S
C147 O130 1.253 1_545 S
C147 O131 1.258 . S
C148 Tb84 2.833 . S
C148 O128 1.251 . S
C148 O133 1.256 . S
C148 C141 1.500 . S
C149 H114 0.929 . S
C149 C127 1.444 . S
C149 C150 1.317 . S
C150 H112 0.930 . S
C150 C118 1.432 . S
C150 C149 1.317 . S
C151 O135 1.283 . S
C151 O138 1.243 1_554 S
C152 C153 1.382 . S
C152 C156 1.393 . S
C152 C159 1.500 . S
C153 C152 1.382 . S
C153 C154 1.400 . S
C153 H164 0.930 1_556 S
C154 C153 1.400 . S
C154 C155 1.384 . S
C155 C154 1.384 . S
C155 C157 1.392 . S
C155 H165 0.931 . S
C156 C152 1.393 . S
C156 C157 1.401 . S
C156 H166 0.930 . S
C157 C155 1.392 . S
C157 C156 1.401 . S
C157 H167 0.930 . S
C158 O136 1.263 . S
C158 O137 1.260 1_545 S
C159 Tb95 2.833 . S
C159 O134 1.251 . S
C159 O139 1.256 . S
C159 C152 1.500 . S
H160 C143 0.930 1_556 S
H161 C144 0.931 . S
H162 C145 0.930 . S
H163 C146 0.930 . S
H164 C153 0.930 1_554 S
H165 C155 0.931 . S
H166 C156 0.930 . S
H167 C157 0.930 . S
Tb168 N199 2.660 . S
Tb168 N206 2.600 . S
Tb168 O212 2.546 . S
Tb168 O213 2.610 1_556 S
Tb168 O215 2.320 1_556 S
Tb168 O216 2.552 . S
Tb168 O217 2.413 . S
Tb168 O219 2.362 . S
Tb168 O220 2.421 . S
Tb168 C232 2.833 . S
C169 C172 1.432 . S
C169 C173 1.414 . S
C169 N176 1.359 . S
C170 C172 1.417 . S
C170 C174 1.432 . S
C170 C182 1.410 1_554 S
C171 C173 1.444 . S
C171 C174 1.317 . S
C171 H194 0.929 . S
C172 C169 1.432 . S
C172 C170 1.417 . S
C172 N180 1.360 . S
C173 C169 1.414 . S
C173 C171 1.444 . S
C173 C178 1.385 . S
C174 C170 1.432 . S
C174 C171 1.317 . S
C174 H186 0.930 . S
C175 C177 1.392 . S
C175 C178 1.370 . S
C175 H187 0.931 . S
N176 C169 1.359 . S
N176 C177 1.327 . S
N176 Tb179 2.600 . S
C177 C175 1.392 . S
C177 N176 1.327 . S
C177 H184 0.930 . S
C178 C173 1.385 . S
C178 C175 1.370 . S
C178 H197 0.930 . S
Tb179 N176 2.600 . S
Tb179 N180 2.660 . S
Tb179 O213 2.362 . S
Tb179 O214 2.421 . S
Tb179 O218 2.546 . S
Tb179 O219 2.610 1_554 S
Tb179 O221 2.320 1_554 S
Tb179 O222 2.552 . S
Tb179 O223 2.413 . S
Tb179 C243 2.833 . S
N180 C172 1.360 . S
N180 Tb179 2.660 . S
N180 C181 1.305 1_554 S
C181 N180 1.305 1_556 S
C181 C183 1.407 . S
C181 H188 0.930 . S
C182 C170 1.410 1_556 S
C182 C183 1.345 . S
C182 H190 0.930 . S
C183 C181 1.407 . S
C183 C182 1.345 . S
C183 H185 0.930 . S
H184 C177 0.930 . S
H185 C183 0.930 . S
H186 C174 0.930 . S
H187 C175 0.931 . S
H188 C181 0.930 . S
H189 C203 0.930 . S
H190 C182 0.930 . S
H191 C209 0.930 . S
H192 C200 0.930 . S
H193 C207 0.931 . S
H194 C171 0.929 . S
H195 C201 0.930 . S
H196 C234 0.930 . S
H197 C178 0.930 . S
H198 C233 0.929 . S
N199 Tb168 2.660 . S
N199 C200 1.305 1_556 S
N199 C204 1.360 . S
C200 H192 0.930 . S
C200 N199 1.305 1_554 S
C200 C203 1.407 . S
C201 H195 0.930 . S
C201 C202 1.410 1_554 S
C201 C203 1.345 . S
C202 C201 1.410 1_556 S
C202 C204 1.417 . S
C202 C234 1.432 . S
C203 H189 0.930 . S
C203 C200 1.407 . S
C203 C201 1.345 . S
C204 N199 1.360 . S
C204 C202 1.417 . S
C204 C208 1.432 . S
H205 C210 0.930 . S
N206 Tb168 2.600 . S
N206 C208 1.359 . S
N206 C209 1.327 . S
C207 H193 0.931 . S
C207 C209 1.392 . S
C207 C210 1.370 . S
C208 C204 1.432 . S
C208 N206 1.359 . S
C208 C211 1.414 . S
C209 H191 0.930 . S
C209 N206 1.327 . S
C209 C207 1.392 . S
C210 H205 0.930 . S
C210 C207 1.370 . S
C210 C211 1.385 . S
C211 C208 1.414 . S
C211 C210 1.385 . S
C211 C233 1.444 . S
O212 Tb168 2.546 . S
O212 C232 1.251 . S
O213 Tb168 2.610 1_554 S
O213 Tb179 2.362 . S
O213 C224 1.283 . S
O214 Tb179 2.421 . S
O214 C231 1.262 . S
O215 Tb168 2.320 1_554 S
O215 C231 1.260 . S
O216 Tb168 2.552 . S
O216 C224 1.243 1_556 S
O217 Tb168 2.413 . S
O217 C232 1.256 . S
O218 Tb179 2.546 . S
O218 C243 1.251 . S
O219 Tb168 2.362 . S
O219 Tb179 2.610 1_556 S
O219 C235 1.283 . S
O220 Tb168 2.421 . S
O220 C242 1.262 . S
O221 Tb179 2.320 1_556 S
O221 C242 1.260 . S
O222 Tb179 2.552 . S
O222 C235 1.243 1_554 S
O223 Tb179 2.413 . S
O223 C243 1.256 . S
C224 O213 1.283 . S
C224 O216 1.243 1_554 S
C225 C227 1.382 . S
C225 C229 1.393 . S
C225 C232 1.500 . S
C226 C227 1.400 . S
C226 C228 1.384 . S
C227 C225 1.382 . S
C227 C226 1.400 . S
C227 H244 0.930 1_556 S
C228 C226 1.384 . S
C228 C230 1.392 . S
C228 H245 0.931 . S
C229 C225 1.393 . S
C229 C230 1.401 . S
C229 H246 0.930 . S
C230 C228 1.392 . S
C230 C229 1.401 . S
C230 H247 0.930 . S
C231 O214 1.262 . S
C231 O215 1.260 . S
C232 Tb168 2.833 . S
C232 O212 1.251 . S
C232 O217 1.256 . S
C232 C225 1.500 . S
C233 H198 0.929 . S
C233 C211 1.444 . S
C233 C234 1.317 . S
C234 H196 0.930 . S
C234 C202 1.432 . S
C234 C233 1.317 . S
C235 O219 1.283 . S
C235 O222 1.243 1_556 S
C236 C237 1.382 . S
C236 C240 1.393 . S
C236 C243 1.500 . S
C237 C236 1.382 . S
C237 C238 1.400 . S
C237 H248 0.930 1_554 S
C238 C237 1.400 . S
C238 C239 1.384 . S
C239 C238 1.384 . S
C239 C241 1.392 . S
C239 H249 0.931 . S
C240 C236 1.393 . S
C240 C241 1.401 . S
C240 H250 0.930 . S
C241 C239 1.392 . S
C241 C240 1.401 . S
C241 H251 0.930 . S
C242 O220 1.262 . S
C242 O221 1.260 . S
C243 Tb179 2.833 . S
C243 O218 1.251 . S
C243 O223 1.256 . S
C243 C236 1.500 . S
H244 C227 0.930 1_554 S
H245 C228 0.931 . S
H246 C229 0.930 . S
H247 C230 0.930 . S
H248 C237 0.930 1_556 S
H249 C239 0.931 . S
H250 C240 0.930 . S
H251 C241 0.930 . S
C252 C253 1.386 1_455 S
C252 C254 1.383 . S
C252 H268 0.951 . S
C253 C252 1.386 1_655 S
C253 C257 1.383 . S
C254 C252 1.383 . S
C254 C255 1.402 1_455 S
C254 H269 0.951 . S
C255 C254 1.402 1_655 S
C255 C256 1.375 . S
C255 C258 1.481 . S
C256 C255 1.375 . S
C256 C257 1.367 . S
C256 H270 0.951 . S
C257 C253 1.383 . S
C257 C256 1.367 . S
C257 H271 0.950 . S
C258 C255 1.481 . S
C258 C259 1.297 . S
C258 H272 0.950 . S
C259 C258 1.297 . S
C259 C260 1.479 . S
C259 H273 0.950 . S
C260 C259 1.479 . S
C260 C261 1.375 1_655 S
C260 C266 1.404 . S
C261 C260 1.375 1_455 S
C261 C262 1.369 . S
C261 H274 0.950 . S
C262 C261 1.369 . S
C262 C263 1.392 1_455 S
C262 H275 0.951 . S
C263 C262 1.392 1_655 S
C263 C265 1.384 . S
H264 C266 0.949 . S
C265 C263 1.384 . S
C265 C266 1.385 . S
C265 H267 0.950 . S
C266 C260 1.404 . S
C266 H264 0.949 . S
C266 C265 1.385 . S
H267 C265 0.950 . S
H268 C252 0.951 . S
H269 C254 0.951 . S
H270 C256 0.951 . S
H271 C257 0.950 . S
H272 C258 0.950 . S
H273 C259 0.950 . S
H274 C261 0.950 . S
H275 C262 0.951 . S
C276 C277 1.386 . S
C276 C278 1.383 . S
C276 H292 0.951 1_565 S
C277 C276 1.386 . S
C277 C281 1.383 . S
C278 C276 1.383 . S
C278 C279 1.402 . S
C278 H293 0.951 . S
C279 C278 1.402 . S
C279 C280 1.375 . S
C279 C282 1.481 . S
C280 C279 1.375 . S
C280 C281 1.367 . S
C280 H294 0.951 . S
C281 C277 1.383 . S
C281 C280 1.367 . S
C281 H295 0.950 . S
C282 C279 1.481 . S
C282 C283 1.297 . S
C282 H296 0.950 . S
C283 C282 1.297 . S
C283 C284 1.479 . S
C283 H297 0.950 . S
C284 C283 1.479 . S
C284 C285 1.375 1_565 S
C284 C290 1.404 . S
C285 C284 1.375 1_545 S
C285 C286 1.369 . S
C285 H298 0.950 . S
C286 C285 1.369 . S
C286 C287 1.392 . S
C286 H299 0.951 . S
C287 C286 1.392 . S
C287 C289 1.384 1_545 S
H288 C290 0.949 . S
C289 C287 1.384 1_565 S
C289 C290 1.385 . S
C289 H291 0.950 . S
C290 C284 1.404 . S
C290 H288 0.949 . S
C290 C289 1.385 . S
H291 C289 0.950 . S
H292 C276 0.951 1_545 S
H293 C278 0.951 . S
H294 C280 0.951 . S
H295 C281 0.950 . S
H296 C282 0.950 . S
H297 C283 0.950 . S
H298 C285 0.950 . S
H299 C286 0.951 . S
C300 C301 1.386 . S
C300 C302 1.383 . S
C300 H316 0.951 . S
C301 C300 1.386 . S
C301 C305 1.383 . S
C302 C300 1.383 . S
C302 C303 1.402 . S
C302 H317 0.951 . S
C303 C302 1.402 . S
C303 C304 1.375 . S
C303 C306 1.481 . S
C304 C303 1.375 . S
C304 C305 1.367 . S
C304 H318 0.951 . S
C305 C301 1.383 . S
C305 C304 1.367 . S
C305 H319 0.950 . S
C306 C303 1.481 . S
C306 C307 1.297 . S
C306 H320 0.950 . S
C307 C306 1.297 . S
C307 C308 1.479 . S
C307 H321 0.950 . S
C308 C307 1.479 . S
C308 C309 1.375 . S
C308 C314 1.404 . S
C309 C308 1.375 . S
C309 C310 1.369 . S
C309 H322 0.950 . S
C310 C309 1.369 . S
C310 C311 1.392 . S
C310 H323 0.951 . S
C311 C310 1.392 . S
C311 C313 1.384 . S
H312 C314 0.949 . S
C313 C311 1.384 . S
C313 C314 1.385 . S
C313 H315 0.950 . S
C314 C308 1.404 . S
C314 H312 0.949 . S
C314 C313 1.385 . S
H315 C313 0.950 . S
H316 C300 0.951 . S
H317 C302 0.951 . S
H318 C304 0.951 . S
H319 C305 0.950 . S
H320 C306 0.950 . S
H321 C307 0.950 . S
H322 C309 0.950 . S
H323 C310 0.951 . S
C324 C325 1.386 . S
C324 C326 1.383 . S
C324 H340 0.951 . S
C325 C324 1.386 . S
C325 C329 1.383 1_554 S
C326 C324 1.383 . S
C326 C327 1.402 1_554 S
C326 H341 0.951 . S
C327 C326 1.402 1_556 S
C327 C328 1.375 . S
C327 C330 1.481 . S
C328 C327 1.375 . S
C328 C329 1.367 . S
C328 H342 0.951 . S
C329 C325 1.383 1_556 S
C329 C328 1.367 . S
C329 H343 0.950 . S
C330 C327 1.481 . S
C330 C331 1.297 . S
C330 H344 0.950 . S
C331 C330 1.297 . S
C331 C332 1.479 . S
C331 H345 0.950 . S
C332 C331 1.479 . S
C332 C333 1.375 1_556 S
C332 C338 1.404 . S
C333 C332 1.375 1_554 S
C333 C334 1.369 . S
C333 H346 0.950 . S
C334 C333 1.369 . S
C334 C335 1.392 1_554 S
C334 H347 0.951 . S
C335 C334 1.392 1_556 S
C335 C337 1.384 . S
H336 C338 0.949 . S
C337 C335 1.384 . S
C337 C338 1.385 . S
C337 H339 0.950 . S
C338 C332 1.404 . S
C338 H336 0.949 . S
C338 C337 1.385 . S
H339 C337 0.950 . S
H340 C324 0.951 . S
H341 C326 0.951 . S
H342 C328 0.951 . S
H343 C329 0.950 . S
H344 C330 0.950 . S
H345 C331 0.950 . S
H346 C333 0.950 . S
H347 C334 0.951 . S
C348 C349 1.386 . S
C348 C350 1.383 . S
C348 H364 0.951 . S
C349 C348 1.386 . S
C349 C353 1.383 1_554 S
C350 C348 1.383 . S
C350 C351 1.402 . S
C350 H365 0.951 . S
C351 C350 1.402 . S
C351 C352 1.375 1_554 S
C351 C354 1.481 . S
C352 C351 1.375 1_556 S
C352 C353 1.367 . S
C352 H366 0.951 . S
C353 C349 1.383 1_556 S
C353 C352 1.367 . S
C353 H367 0.950 . S
C354 C351 1.481 . S
C354 C355 1.297 . S
C354 H368 0.950 1_554 S
C355 C354 1.297 . S
C355 C356 1.479 . S
C355 H369 0.950 . S
C356 C355 1.479 . S
C356 C357 1.375 . S
C356 C362 1.404 . S
C357 C356 1.375 . S
C357 C358 1.369 . S
C357 H370 0.950 . S
C358 C357 1.369 . S
C358 C359 1.392 . S
C358 H371 0.951 . S
C359 C358 1.392 . S
C359 C361 1.384 . S
H360 C362 0.949 1_556 S
C361 C359 1.384 . S
C361 C362 1.385 . S
C361 H363 0.950 1_554 S
C362 C356 1.404 . S
C362 H360 0.949 1_554 S
C362 C361 1.385 . S
H363 C361 0.950 1_556 S
H364 C348 0.951 . S
H365 C350 0.951 . S
H366 C352 0.951 . S
H367 C353 0.950 . S
H368 C354 0.950 1_556 S
H369 C355 0.950 . S
H370 C357 0.950 . S
H371 C358 0.951 . S
C372 C373 1.386 . S
C372 C374 1.383 . S
C372 H388 0.951 1_554 S
C373 C372 1.386 . S
C373 C377 1.383 . S
C374 C372 1.383 . S
C374 C375 1.402 . S
C374 H389 0.951 . S
C375 C374 1.402 . S
C375 C376 1.375 . S
C375 C378 1.481 . S
C376 C375 1.375 . S
C376 C377 1.367 . S
C376 H390 0.951 . S
C377 C373 1.383 . S
C377 C376 1.367 . S
C377 H391 0.950 . S
C378 C375 1.481 . S
C378 C379 1.297 . S
C378 H392 0.950 . S
C379 C378 1.297 . S
C379 C380 1.479 . S
C379 H393 0.950 . S
C380 C379 1.479 . S
C380 C381 1.375 . S
C380 C386 1.404 . S
C381 C380 1.375 . S
C381 C382 1.369 . S
C381 H394 0.950 . S
C382 C381 1.369 . S
C382 C383 1.392 . S
C382 H395 0.943 1_554 S
C383 C382 1.392 . S
C383 C385 1.384 . S
H384 C386 0.949 . S
C385 C383 1.384 . S
C385 C386 1.385 . S
C385 H387 0.950 . S
C386 C380 1.404 . S
C386 H384 0.949 . S
C386 C385 1.385 . S
H387 C385 0.950 . S
H388 C372 0.951 1_556 S
H389 C374 0.951 . S
H390 C376 0.951 . S
H391 C377 0.950 . S
H392 C378 0.950 . S
H393 C379 0.950 . S
H394 C381 0.950 . S
H395 C382 0.943 1_556 S
C396 C397 1.386 . S
C396 C398 1.383 . S
C396 H412 0.951 . S
C397 C396 1.386 . S
C397 C401 1.383 1_556 S
C398 C396 1.383 . S
C398 C399 1.402 1_556 S
C398 H413 0.951 . S
C399 C398 1.402 1_554 S
C399 C400 1.375 . S
C399 C402 1.481 . S
C400 C399 1.375 . S
C400 C401 1.367 . S
C400 H414 0.951 . S
C401 C397 1.383 1_554 S
C401 C400 1.367 . S
C401 H415 0.950 . S
C402 C399 1.481 . S
C402 C403 1.297 1_554 S
C402 H416 0.950 . S
C403 C402 1.297 1_556 S
C403 C404 1.479 . S
C403 H417 0.950 . S
C404 C403 1.479 . S
C404 C405 1.375 . S
C404 C410 1.404 1_556 S
C405 C404 1.375 . S
C405 C406 1.369 . S
C405 H418 0.950 . S
C406 C405 1.369 . S
C406 C407 1.392 1_556 S
C406 H419 0.951 . S
C407 C406 1.392 1_554 S
C407 C409 1.384 . S
H408 C410 0.949 . S
C409 C407 1.384 . S
C409 C410 1.385 . S
C409 H411 0.950 . S
C410 C404 1.404 1_554 S
C410 H408 0.949 . S
C410 C409 1.385 . S
H411 C409 0.950 . S
H412 C396 0.951 . S
H413 C398 0.951 . S
H414 C400 0.951 . S
H415 C401 0.950 . S
H416 C402 0.950 . S
H417 C403 0.950 . S
H418 C405 0.950 . S
H419 C406 0.951 . S
C420 C421 1.386 1_554 S
C420 C422 1.383 . S
C420 H436 0.951 . S
C421 C420 1.386 1_556 S
C421 C425 1.383 . S
C422 C420 1.383 . S
C422 C423 1.402 1_554 S
C422 H437 0.951 . S
C423 C422 1.402 1_556 S
C423 C424 1.375 . S
C423 C426 1.481 . S
C424 C423 1.375 . S
C424 C425 1.367 . S
C424 H438 0.951 . S
C425 C421 1.383 . S
C425 C424 1.367 . S
C425 H439 0.950 . S
C426 C423 1.481 . S
C426 C427 1.297 1_556 S
C426 H440 0.950 . S
C427 C426 1.297 1_554 S
C427 C428 1.479 . S
C427 H441 0.950 . S
C428 C427 1.479 . S
C428 C429 1.375 . S
C428 C434 1.400 1_554 S
C429 C428 1.375 . S
C429 C430 1.369 . S
C429 H442 0.950 . S
C430 C429 1.369 . S
C430 C431 1.393 1_554 S
C430 H443 0.951 . S
C431 C430 1.393 1_556 S
C431 C433 1.384 . S
H432 C434 0.949 . S
C433 C431 1.384 . S
C433 C434 1.388 . S
C433 H435 0.950 . S
C434 C428 1.400 1_556 S
C434 H432 0.949 . S
C434 C433 1.388 . S
H435 C433 0.950 . S
H436 C420 0.951 . S
H437 C422 0.951 . S
H438 C424 0.951 . S
H439 C425 0.950 . S
H440 C426 0.950 . S
H441 C427 0.950 . S
H442 C429 0.950 . S
H443 C430 0.951 . S
C444 C445 1.386 . S
C444 C446 1.383 . S
C444 H460 0.951 1_556 S
C445 C444 1.386 . S
C445 C449 1.383 . S
C446 C444 1.383 . S
C446 C447 1.402 . S
C446 H461 0.949 1_556 S
C447 C446 1.402 . S
C447 C448 1.375 . S
C447 C450 1.481 . S
C448 C447 1.375 . S
C448 C449 1.367 . S
C448 H462 0.951 . S
C449 C445 1.383 . S
C449 C448 1.367 . S
C449 H463 0.950 . S
C450 C447 1.481 . S
C450 C451 1.297 . S
C450 H464 0.950 . S
C451 C450 1.297 . S
C451 C452 1.479 . S
C451 H465 0.950 . S
C452 C451 1.479 . S
C452 C453 1.375 . S
C452 C458 1.404 . S
C453 C452 1.375 . S
C453 C454 1.369 . S
C453 H466 0.950 1_556 S
C454 C453 1.369 . S
C454 C455 1.392 . S
C454 H467 0.951 1_556 S
C455 C454 1.392 . S
C455 C457 1.384 . S
H456 C458 0.949 . S
C457 C455 1.384 . S
C457 C458 1.385 . S
C457 H459 0.950 . S
C458 C452 1.404 . S
C458 H456 0.949 . S
C458 C457 1.385 . S
H459 C457 0.950 . S
H460 C444 0.951 1_554 S
H461 C446 0.949 1_554 S
H462 C448 0.951 . S
H463 C449 0.950 . S
H464 C450 0.950 . S
H465 C451 0.950 . S
H466 C453 0.950 1_554 S
H467 C454 0.951 1_554 S
C253 C74 1.467 . S
C263 C63 1.503 1_655 S
C277 C158 1.499 1_565 S
C287 C147 1.425 . S
C301 C242 1.507 . S
C311 C231 1.491 . S
C325 C67 1.530 . S
C335 C226 1.356 . S
C349 C142 0.741 . S
C359 C58 0.859 1_554 S
C373 C151 2.299 . S
C383 C224 2.364 . S
C397 C56 1.531 . S
C407 C238 1.476 . S
C421 C70 0.792 1_556 S
C431 C154 0.920 . S
C445 C235 2.355 . S
C455 C140 2.323 . S
