# Generated by pormake.
# Topology bto, (3)-cn, num edge types: 1
# Building blocks:
#     Node 0, Type 0, BuildingBlock: WUSLED_clean_sbu_0, # of connection points: 3
#     Node 1, Type 0, BuildingBlock: WUSLED_clean_sbu_0, # of connection points: 3
#     Node 2, Type 0, BuildingBlock: WUSLED_clean_sbu_0, # of connection points: 3
#     Node 3, Type 0, BuildingBlock: WUSLED_clean_sbu_0, # of connection points: 3
#     Node 4, Type 0, BuildingBlock: WUSLED_clean_sbu_0, # of connection points: 3
#     Node 5, Type 0, BuildingBlock: WUSLED_clean_sbu_0, # of connection points: 3
#     Edge 6, Type (0, 0), BuildingBlock: EZIPEK_clean_linker_0, # of connection points: 2
#     Edge 7, Type (0, 0), BuildingBlock: EZIPEK_clean_linker_0, # of connection points: 2
#     Edge 8, Type (0, 0), BuildingBlock: EZIPEK_clean_linker_0, # of connection points: 2
#     Edge 9, Type (0, 0), BuildingBlock: EZIPEK_clean_linker_0, # of connection points: 2
#     Edge 10, Type (0, 0), BuildingBlock: EZIPEK_clean_linker_0, # of connection points: 2
#     Edge 11, Type (0, 0), BuildingBlock: EZIPEK_clean_linker_0, # of connection points: 2
#     Edge 12, Type (0, 0), BuildingBlock: EZIPEK_clean_linker_0, # of connection points: 2
#     Edge 13, Type (0, 0), BuildingBlock: EZIPEK_clean_linker_0, # of connection points: 2
#     Edge 14, Type (0, 0), BuildingBlock: EZIPEK_clean_linker_0, # of connection points: 2
# Relax obj value: 0.000
# Max RMSD: 0.002
# Mean RMSD: 0.002
data_MOF--net-bto--node1-WUSLED_clean_sbu_0--edge1-EZIPEK_clean_linker_0
_symmetry_space_group_name_H-M    P1
_symmetry_Int_Tables_number       1
_symmetry_cell_setting            triclinic
loop_
_symmetry_equiv_pos_as_xyz
'x, y, z'
_cell_length_a     33.162852
_cell_length_b     33.224967
_cell_length_c     82.864471
_cell_angle_alpha  88.835929
_cell_angle_beta   90.668417
_cell_angle_gamma 120.1602
loop_
_atom_site_label
_atom_site_type_symbol
_atom_site_fract_x
_atom_site_fract_y
_atom_site_fract_z
_atom_type_partial_charge
C0 C 0.96955 0.55199 0.05263 0.0
C1 C 0.92721 0.52375 0.06079 0.0
C2 C 0.88702 0.54989 0.04232 0.0
C3 C 0.88623 0.52263 0.05562 0.0
C4 C 0.92937 0.57861 0.03434 0.0
C5 C 0.97024 0.57956 0.03944 0.0
U6 U 0.05694 0.55157 0.08378 0.0
O7 O 0.09565 0.51381 0.08359 0.0
O8 O 0.13391 0.59021 0.08324 0.0
C9 C 0.13646 0.5521 0.08225 0.0
C10 C 1.01299 0.55225 0.05723 0.0
C11 C 0.16945 0.55264 0.07017 0.0
C12 C 0.18808 0.51772 0.04794 0.0
C13 C 0.15522 0.51845 0.05826 0.0
C14 C 0.24974 0.58575 0.06099 0.0
C15 C 0.23562 0.55114 0.04933 0.0
C16 C 0.21698 0.5864 0.07133 0.0
C17 C 1.03236 0.54965 0.12923 0.0
C18 C 0.07945 0.54214 0.15051 0.0
C19 C 1.01362 0.5511 0.15746 0.0
C20 C 1.00437 0.55329 0.14103 0.0
C21 C 0.05105 0.54526 0.1623 0.0
C22 C 0.07018 0.54435 0.13407 0.0
C23 C 1.02088 0.55054 0.11203 0.0
O24 O 0.04565 0.59036 0.064 0.0
O25 O 1.00813 0.51399 0.06407 0.0
O26 O 1.00998 0.51272 0.10397 0.0
O27 O 0.04856 0.58901 0.10394 0.0
H28 H 0.92569 0.50226 0.07103 0.0
H29 H 0.85386 0.50035 0.06194 0.0
H30 H 0.93064 0.5999 1.02407 0.0
H31 H 1.00242 0.60154 0.03297 0.0
H32 H 0.17655 0.49078 0.039 0.0
H33 H 0.1189 0.49186 0.05707 0.0
H34 H 0.28624 0.61181 0.06224 0.0
H35 H 0.22893 0.61288 0.08047 0.0
H36 H 0.10841 0.53749 0.15406 0.0
H37 H 0.99132 0.55344 0.16638 0.0
H38 H 0.97504 0.5574 0.13753 0.0
H39 H 0.09217 0.54148 0.12513 0.0
C40 C 0.63816 0.14432 0.38286 0.0
C41 C 0.66351 0.18043 0.39376 0.0
C42 C 0.7196 0.22612 0.37272 0.0
C43 C 0.70391 0.22112 0.38871 0.0
C44 C 0.69436 0.18994 0.36186 0.0
C45 C 0.65393 0.14938 0.36689 0.0
U46 U 0.5571 0.05941 0.41545 0.0
O47 O 0.48038 1.01945 0.4167 0.0
O48 O 0.51984 0.98273 0.41635 0.0
C49 C 0.47846 0.97901 0.41612 0.0
C50 C 0.59557 0.1011 0.38789 0.0
C51 C 0.44419 0.94495 0.40479 0.0
C52 C 0.41396 0.9203 0.37764 0.0
C53 C 0.44719 0.95356 0.38804 0.0
C54 C 0.37455 0.86965 0.40058 0.0
C55 C 0.3774 0.87808 0.38385 0.0
C56 C 0.40766 0.90282 0.41094 0.0
C57 C 0.59517 0.09177 0.46014 0.0
C58 C 0.55058 0.05394 0.48451 0.0
C59 C 0.63236 0.11262 0.48649 0.0
C60 C 0.6347 0.11817 0.46971 0.0
C61 C 0.59039 0.08053 0.49403 0.0
C62 C 0.55295 0.05951 0.46762 0.0
C63 C 0.59958 0.09919 0.44249 0.0
O64 O 0.60235 0.06897 0.39474 0.0
O65 O 0.56372 0.10647 0.39526 0.0
O66 O 0.56896 0.10746 0.43523 0.0
O67 O 0.60883 0.07117 0.43441 0.0
H68 H 0.65206 0.17712 0.40616 0.0
H69 H 0.72302 0.24864 0.39726 0.0
H70 H 0.70597 0.19316 0.34949 0.0
H71 H 0.63497 0.12189 0.35832 0.0
H72 H 0.41676 0.92737 0.36476 0.0
H73 H 0.47517 0.98586 0.38306 0.0
H74 H 0.34667 0.83734 0.40559 0.0
H75 H 0.40475 0.89553 0.42382 0.0
H76 H 0.51793 0.02891 0.49014 0.0
H77 H 0.66343 0.1333 0.49362 0.0
H78 H 0.66755 0.1432 0.46418 0.0
H79 H 0.52206 0.03875 0.46043 0.0
C80 C 0.54924 0.63513 0.71741 0.0
C81 C 0.51559 0.64499 0.72338 0.0
C82 C 0.54776 0.71587 0.70686 0.0
C83 C 0.51484 0.68499 0.71811 0.0
C84 C 0.58159 0.70636 0.70102 0.0
C85 C 0.58222 0.6663 0.70621 0.0
U86 U 0.55341 0.55023 0.74903 0.0
O87 O 0.51767 0.47369 0.74952 0.0
O88 O 0.59411 0.51428 0.74868 0.0
C89 C 0.55665 0.47275 0.74806 0.0
C90 C 0.55001 0.59223 0.72221 0.0
C91 C 0.55713 0.44023 0.73614 0.0
C92 C 0.52179 0.38578 0.71403 0.0
C93 C 0.52228 0.41917 0.72426 0.0
C94 C 0.59135 0.39453 0.72711 0.0
C95 C 0.55613 0.37298 0.71548 0.0
C96 C 0.59176 0.42774 0.73736 0.0
C97 C 0.55906 0.58074 0.79427 0.0
C98 C 0.57943 0.54615 0.81675 0.0
C99 C 0.55907 0.60475 0.82174 0.0
C100 C 0.55096 0.60723 0.80525 0.0
C101 C 0.57838 0.57783 0.82778 0.0
C102 C 0.57146 0.54869 0.80018 0.0
C103 C 0.55535 0.58814 0.77683 0.0
O104 O 0.58916 0.59852 0.72863 0.0
O105 O 0.51272 0.55888 0.72947 0.0
O106 O 0.51646 0.5581 0.76964 0.0
O107 O 0.59275 0.59948 0.76824 0.0
H108 H 0.48971 0.62174 0.73202 0.0
H109 H 0.4885 0.69183 0.72276 0.0
H110 H 0.60727 0.72978 0.69234 0.0
H111 H 0.60839 0.65948 0.70138 0.0
H112 H 0.49436 0.36955 0.7051 0.0
H113 H 0.49503 0.42794 0.72301 0.0
H114 H 0.61813 0.38512 0.7284 0.0
H115 H 0.61881 0.44316 0.74647 0.0
H116 H 0.58559 0.51853 0.82053 0.0
H117 H 0.55004 0.62449 0.82963 0.0
H118 H 0.53882 0.63042 0.80105 0.0
H119 H 0.57517 0.52576 0.79199 0.0
C120 C 0.54401 0.9624 0.67378 0.0
C121 C 0.56067 0.9408 0.66353 0.0
C122 C 0.54446 0.88108 0.68409 0.0
C123 C 0.56098 0.90046 0.66866 0.0
C124 C 0.52732 0.9024 0.69423 0.0
C125 C 0.52715 0.94275 0.68912 0.0
U126 U 0.55077 0.0512 0.64182 0.0
O127 O 0.5137 0.09081 0.64055 0.0
O128 O 0.59005 0.12774 0.64225 0.0
C129 C 0.55222 0.13115 0.64212 0.0
C130 C 0.54482 1.00582 0.66891 0.0
C131 C 0.55081 0.16365 0.65373 0.0
C132 C 0.56901 0.20133 0.67987 0.0
C133 C 0.56859 0.16821 0.6695 0.0
C134 C 0.53315 0.22502 0.65897 0.0
C135 C 0.55156 0.2302 0.67463 0.0
C136 C 0.53283 0.19208 0.64863 0.0
C137 C 0.56126 0.02836 0.59691 0.0
C138 C 0.57146 0.08128 0.57459 0.0
C139 C 0.57254 1.01078 0.56961 0.0
C140 C 0.56417 0.99849 0.58598 0.0
C141 C 0.58113 0.05474 0.56369 0.0
C142 C 0.56324 0.06907 0.59104 0.0
C143 C 0.55614 1.01611 0.61426 0.0
O144 O 0.58441 0.03912 0.66292 0.0
O145 O 0.50817 1.0008 0.66091 0.0
O146 O 0.51642 1.00631 0.62096 0.0
O147 O 0.59255 0.04237 0.62329 0.0
H148 H 0.57375 0.95535 0.65163 0.0
H149 H 0.57431 0.88449 0.66067 0.0
H150 H 0.5144 0.88795 0.70615 0.0
H151 H 0.51415 0.95885 0.6972 0.0
H152 H 0.58334 0.2048 0.69191 0.0
H153 H 0.58261 0.14663 0.67371 0.0
H154 H 0.51951 0.2469 0.65471 0.0
H155 H 0.51903 0.1892 0.63652 0.0
H156 H 0.56902 0.11113 0.5708 0.0
H157 H 0.57199 0.98506 0.56171 0.0
H158 H 0.56015 0.96551 0.59011 0.0
H159 H 0.55829 0.09139 0.59916 0.0
C160 C 0.63529 0.54183 1.00887 0.0
C161 C 0.67175 0.55303 0.99797 0.0
C162 C 0.71745 0.54368 1.01942 0.0
C163 C 0.7126 0.554 1.00322 0.0
C164 C 0.6808 0.5321 0.03024 0.0
C165 C 0.64007 0.53121 1.025 0.0
U166 U 0.55414 0.54605 0.97625 0.0
O167 O 0.47725 0.50809 0.97493 0.0
O168 O 0.516 0.58437 0.97577 0.0
C169 C 0.47485 0.54626 0.97595 0.0
C170 C 0.59249 0.54179 1.00374 0.0
C171 C 0.44048 0.54485 0.98749 0.0
C172 C 0.42003 0.56166 1.01366 0.0
C173 C 0.45302 0.56122 1.00331 0.0
C174 C 0.36149 0.52858 0.99263 0.0
C175 C 0.37409 0.54561 1.00835 0.0
C176 C 0.39441 0.52825 0.9823 0.0
C177 C 0.59236 0.5554 0.93143 0.0
C178 C 0.54668 0.53835 0.90662 0.0
C179 C 0.63104 0.58349 0.9055 0.0
C180 C 0.63325 0.57985 0.92227 0.0
C181 C 0.58785 0.56269 0.89753 0.0
C182 C 0.54889 0.53473 0.92351 0.0
C183 C 0.59684 0.55123 0.94906 0.0
O184 O 0.59871 0.58087 0.9972 0.0
O185 O 0.56146 0.50472 0.99602 0.0
O186 O 0.56671 0.51163 0.95608 0.0
O187 O 0.60586 0.58786 0.95753 0.0
H188 H 0.66871 0.56129 0.98546 0.0
H189 H 0.7405 0.563 0.9947 0.0
H190 H 0.68388 0.524 0.04276 0.0
H191 H 0.61234 0.52248 0.03358 0.0
H192 H 0.43039 0.5749 1.02575 0.0
H193 H 0.48835 0.57413 1.00758 0.0
H194 H 0.32625 0.51602 0.98832 0.0
H195 H 0.38403 0.51552 0.97015 0.0
H196 H 0.51303 0.5222 0.90067 0.0
H197 H 0.66314 0.6025 0.89869 0.0
H198 H 0.66709 0.59595 0.92811 0.0
H199 H 0.51685 0.51571 0.93033 0.0
C200 C 0.97012 0.47503 0.34152 0.0
C201 C 0.93612 0.44779 0.33007 0.0
C202 C 0.88771 0.39371 0.3513 0.0
C203 C 0.89512 0.40742 0.33494 0.0
C204 C 0.92176 0.42094 0.36271 0.0
C205 C 0.96262 0.46129 0.35785 0.0
U206 U 0.058 0.55622 0.30958 0.0
O207 O 0.09852 0.63278 0.3081 0.0
O208 O 0.13486 0.59302 0.31006 0.0
C209 C 0.13882 0.63441 0.30968 0.0
C210 C 1.01374 0.51747 0.33671 0.0
C211 C 0.1724 0.66859 0.32116 0.0
C212 C 0.19222 0.70599 0.34733 0.0
C213 C 0.15951 0.67229 0.33692 0.0
C214 C 0.25098 0.73225 0.32642 0.0
C215 C 0.23818 0.73628 0.34213 0.0
C216 C 0.21836 0.69872 0.31604 0.0
C217 C 1.03282 0.52184 0.26474 0.0
C218 C 0.08037 0.56828 0.24202 0.0
C219 C 1.01697 0.4904 0.23774 0.0
C220 C 1.00595 0.48583 0.25415 0.0
C221 C 0.05678 0.53036 0.23135 0.0
C222 C 0.06942 0.56358 0.25852 0.0
C223 C 1.02132 0.51504 0.28209 0.0
O224 O 0.04634 0.51061 0.33079 0.0
O225 O 1.00895 0.54926 0.3286 0.0
O226 O 1.01209 0.54517 0.28868 0.0
O227 O 0.0478 0.50494 0.29122 0.0
H228 H 0.94135 0.45771 0.3174 0.0
H229 H 0.86926 0.38677 0.32597 0.0
H230 H 0.91667 0.41089 0.37537 0.0
H231 H 0.98847 0.48176 0.36685 0.0
H232 H 0.18174 0.70853 0.35943 0.0
H233 H 0.12423 0.64933 0.34111 0.0
H234 H 0.28623 0.75523 0.3222 0.0
H235 H 0.229 0.69644 0.30394 0.0
H236 H 0.10662 0.60244 0.23803 0.0
H237 H 0.99328 0.46219 0.23012 0.0
H238 H 0.97607 0.45397 0.25857 0.0
H239 H 0.0893 0.59277 0.2664 0.0
C240 C 0.09034 0.58066 0.1887 0.0
C241 C 0.05956 0.54072 0.17975 0.0
C242 C 0.04798 0.49223 0.20388 0.0
C243 C 0.06905 0.53281 0.21345 0.0
N244 N 0.14099 0.60606 0.21188 0.0
N245 N 1.01035 0.45718 0.17866 0.0
C246 C 0.0992 0.57524 0.20519 0.0
C247 C 1.03917 0.49599 0.18724 0.0
N248 N 0.1112 0.62379 0.18154 0.0
N249 N 0.04202 0.45137 0.21022 0.0
H250 H 1.00386 0.45832 0.16636 0.0
H251 H 0.99054 0.42436 0.18404 0.0
H252 H 0.05414 0.4496 0.22175 0.0
H253 H 1.03086 0.42147 0.20346 0.0
H254 H 0.13037 0.65422 0.18808 0.0
H255 H 0.10675 0.62914 0.16936 0.0
H256 H 0.16599 0.636 0.20585 0.0
H257 H 0.1536 0.59702 0.2221 0.0
C258 C 0.59508 0.10817 0.53858 0.0
C259 C 0.59528 0.06937 0.54602 0.0
C260 C 0.60105 0.04289 0.51908 0.0
C261 C 0.58951 0.07496 0.51194 0.0
N262 N 0.57458 0.13837 0.51506 0.0
N263 N 0.63591 0.02718 0.54229 0.0
C264 C 0.58603 0.10756 0.52175 0.0
C265 C 0.60882 0.04388 0.53602 0.0
N266 N 0.61321 0.14913 0.54656 0.0
N267 N 0.60447 1.0113 0.50976 0.0
H268 H 0.64891 0.03457 0.55406 0.0
H269 H 0.65066 1.01216 0.53532 0.0
H270 H 0.60004 1.0101 0.49726 0.0
H271 H 0.60805 0.98411 0.51466 0.0
H272 H 0.61737 0.1797 0.54125 0.0
H273 H 0.63171 0.15426 0.55733 0.0
H274 H 0.56769 0.16001 0.52204 0.0
H275 H 0.56831 0.1395 0.50273 0.0
C276 C 0.58717 0.60676 0.87261 0.0
C277 C 0.58688 0.56734 0.87963 0.0
C278 C 0.60341 0.54804 0.85302 0.0
C279 C 0.59257 0.5804 0.8456 0.0
N280 N 0.6129 0.65996 0.84978 0.0
N281 N 0.59398 0.49915 0.87633 0.0
C282 C 0.59519 0.61569 0.85575 0.0
C283 C 0.59456 0.53745 0.86976 0.0
N284 N 0.57963 0.63569 0.88197 0.0
N285 N 0.63107 0.5353 0.84518 0.0
H286 H 0.58833 0.49054 0.8886 0.0
H287 H 0.59534 0.47421 0.86928 0.0
H288 H 0.64858 0.55243 0.8346 0.0
H289 H 0.64318 0.51467 0.85052 0.0
H290 H 0.57476 0.66214 0.87711 0.0
H291 H 0.57454 0.63089 0.89442 0.0
H292 H 0.61984 0.6882 0.85692 0.0
H293 H 0.62681 0.66924 0.83816 0.0
C294 C 0.28689 0.51792 0.04255 0.0
C295 C 0.27095 0.54951 0.03879 0.0
C296 C 0.32614 0.58168 1.01617 0.0
C297 C 0.33915 0.54742 1.01907 0.0
N298 N 0.32727 0.47855 0.03348 0.0
N299 N 0.27014 0.60692 1.02078 0.0
C300 C 0.31828 0.51434 0.03187 0.0
C301 C 0.28914 0.58015 1.02524 0.0
N302 N 0.27301 0.49226 0.05659 0.0
N303 N 0.35023 0.6166 1.00509 0.0
H304 H 0.24341 0.60712 1.02723 0.0
H305 H 0.27813 0.62607 1.01001 0.0
H306 H 0.37752 0.61891 0.99823 0.0
H307 H 0.34593 0.64542 1.00363 0.0
H308 H 0.28739 0.47261 0.06095 0.0
H309 H 0.24958 0.49342 0.06459 0.0
H310 H 0.30927 0.45041 0.04139 0.0
H311 H 0.35027 0.47496 1.02598 0.0
C312 C 0.7606 0.30963 0.36286 0.0
C313 C 0.76271 0.26922 0.36729 0.0
C314 C 0.8456 0.30908 0.35979 0.0
C315 C 0.84437 0.35059 0.35657 0.0
N316 N 0.80285 0.39279 0.35708 0.0
N317 N 0.80808 0.23189 0.37218 0.0
C318 C 0.8024 0.35152 0.35865 0.0
C319 C 0.8055 0.26934 0.36636 0.0
N320 N 0.71837 0.30757 0.36224 0.0
N321 N 0.88477 0.30729 0.35613 0.0
H322 H 0.77934 0.20197 0.37687 0.0
H323 H 0.83923 0.23172 0.37355 0.0
H324 H 0.91492 0.33579 0.35147 0.0
H325 H 0.88631 0.27675 0.35648 0.0
H326 H 0.71362 0.33403 0.35738 0.0
H327 H 0.68719 0.2778 0.3655 0.0
H328 H 0.77489 0.39699 0.36021 0.0
H329 H 0.83256 0.42397 0.35377 0.0
C330 C 0.51259 0.79431 0.68373 0.0
C331 C 0.54557 0.83869 0.68976 0.0
C332 C 0.57721 0.80196 0.70801 0.0
C333 C 0.54671 0.75815 0.70106 0.0
N334 N 0.49011 0.71313 0.68072 0.0
N335 N 0.61411 0.88607 0.70573 0.0
C336 C 0.51571 0.75447 0.68846 0.0
C337 C 0.57923 0.84287 0.7014 0.0
N338 N 0.47726 0.79 0.6739 0.0
N339 N 0.60343 0.80429 0.72119 0.0
H340 H 0.61678 0.9168 0.70115 0.0
H341 H 0.64258 0.89166 0.71279 0.0
H342 H 0.60342 0.77522 0.72619 0.0
H343 H 0.62236 0.83422 0.72795 0.0
H344 H 0.44917 0.75809 0.67052 0.0
H345 H 0.47393 0.81833 0.67012 0.0
H346 H 0.47095 0.70945 0.67026 0.0
H347 H 0.49081 0.68303 0.68404 0.0
C348 C 0.83309 0.5827 0.04134 0.0
C349 C 0.84335 0.54805 0.03654 0.0
C350 C 0.7696 0.50877 1.02141 0.0
C351 C 0.76114 0.5454 1.02516 0.0
N352 N 0.78784 0.62086 0.03658 0.0
N353 N 0.82528 0.48178 1.02024 0.0
C354 C 0.79373 0.58338 0.03457 0.0
C355 C 0.81266 0.51208 1.02607 0.0
N356 N 0.86039 0.61431 0.05267 0.0
N357 N 0.73578 0.47006 1.01386 0.0
H358 H 0.85604 0.48251 1.02363 0.0
H359 H 0.80717 0.4582 1.01114 0.0
H360 H 0.70399 0.46651 1.01017 0.0
H361 H 0.73755 0.43996 1.01238 0.0
H362 H 0.85192 0.63714 0.05805 0.0
H363 H 0.88991 0.61535 0.05768 0.0
H364 H 0.81282 0.6518 0.04179 0.0
H365 H 0.75946 0.62259 0.03184 0.0
C366 C 0.34461 0.80188 0.36942 0.0
C367 C 0.34207 0.84222 0.37291 0.0
C368 C 0.27293 0.81442 0.35546 0.0
C369 C 0.27328 0.77239 0.35306 0.0
N370 N 0.30492 0.72274 0.3596 0.0
N371 N 0.30027 0.88415 0.37129 0.0
C372 C 0.30791 0.76519 0.36056 0.0
C373 C 0.30523 0.84776 0.36648 0.0
N374 N 0.38288 0.79928 0.37417 0.0
N375 N 0.24265 0.82311 0.34683 0.0
H376 H 0.32351 0.90954 0.37916 0.0
H377 H 0.27128 0.88732 0.36851 0.0
H378 H 0.21811 0.79934 0.33884 0.0
H379 H 0.24413 0.85517 0.34663 0.0
H380 H 0.38938 0.77328 0.37051 0.0
H381 H 0.41032 0.82534 0.38072 0.0
H382 H 0.32598 0.71349 0.36623 0.0
H383 H 0.27872 0.69516 0.35315 0.0
C384 C 0.58659 0.31425 0.68237 0.0
C385 C 0.55328 0.26663 0.68536 0.0
C386 C 0.52435 0.28854 0.70886 0.0
C387 C 0.55485 0.33631 0.705 0.0
N388 N 0.61039 0.39519 0.68686 0.0
N389 N 0.48595 0.20852 0.69994 0.0
C390 C 0.58472 0.34932 0.6914 0.0
C391 C 0.52094 0.25377 0.69822 0.0
N392 N 0.62097 0.32586 0.67122 0.0
N393 N 0.49956 0.27638 0.72294 0.0
H394 H 0.48253 0.18206 0.69248 0.0
H395 H 0.4582 0.19773 0.7079 0.0
H396 H 0.50061 0.3008 0.73091 0.0
H397 H 0.48084 0.24231 0.72737 0.0
H398 H 0.64924 0.35939 0.66968 0.0
H399 H 0.6235 0.3012 0.66438 0.0
H400 H 0.62881 0.4066 0.67606 0.0
H401 H 0.61034 0.42184 0.69329 0.0
loop_
_geom_bond_atom_site_label_1
_geom_bond_atom_site_label_2
_geom_bond_distance
_geom_bond_site_symmetry_2
_ccdc_geom_bond_type
C0 C1 1.264 . S
C0 C5 1.479 . S
C0 C10 1.465 . S
C1 C0 1.264 . S
C1 C3 1.339 . S
C1 H28 0.931 . S
C2 C3 1.395 . S
C2 C4 1.320 . S
C3 C1 1.339 . S
C3 C2 1.395 . S
C3 H29 0.929 . S
C4 C2 1.320 . S
C4 C5 1.405 . S
C4 H30 0.930 1_554 S
C5 C0 1.479 . S
C5 C4 1.405 . S
C5 H31 0.931 . S
U6 O7 2.454 . S
U6 O8 2.458 . S
U6 C9 2.984 . S
U6 C10 2.847 1_455 S
U6 C23 2.882 . S
U6 O24 2.441 1_455 S
U6 O25 2.420 1_455 S
U6 O26 2.455 . S
U6 O27 2.449 1_455 S
O7 U6 2.454 . S
O7 C9 1.353 . S
O8 U6 2.458 . S
O8 C9 1.286 . S
C9 U6 2.984 . S
C9 O7 1.353 . S
C9 O8 1.286 . S
C9 C11 1.363 . S
C10 C0 1.465 . S
C10 U6 2.847 1_655 S
C10 O24 1.249 . S
C10 O25 1.202 . S
C11 C9 1.363 . S
C11 C13 1.408 . S
C11 C16 1.342 . S
C12 C13 1.310 . S
C12 C15 1.461 . S
C12 H32 0.932 1_554 S
C13 C11 1.408 . S
C13 C12 1.310 . S
C13 H33 0.930 . S
C14 C15 1.474 . S
C14 C16 1.285 . S
C14 H34 0.929 . S
C15 C12 1.461 . S
C15 C14 1.474 . S
C16 C11 1.342 . S
C16 C14 1.285 . S
C16 H35 0.930 . S
C17 C20 1.424 1_455 S
C17 C22 1.245 . S
C17 C23 1.428 . S
C18 C21 1.260 . S
C18 C22 1.477 . S
C18 H36 0.932 . S
C19 C20 1.384 . S
C19 C21 1.479 1_655 S
C19 H37 0.929 . S
C20 C17 1.424 1_655 S
C20 C19 1.384 . S
C20 H38 0.928 . S
C21 C18 1.260 . S
C21 C19 1.479 1_455 S
C22 C17 1.245 . S
C22 C18 1.477 . S
C22 H39 0.932 . S
C23 U6 2.882 . S
C23 C17 1.428 . S
C23 O26 1.301 . S
C23 O27 1.282 1_455 S
O24 U6 2.441 1_655 S
O24 C10 1.249 . S
O25 U6 2.420 1_655 S
O25 C10 1.202 . S
O26 U6 2.455 . S
O26 C23 1.301 . S
O27 U6 2.449 1_655 S
O27 C23 1.282 1_655 S
H28 C1 0.931 . S
H29 C3 0.929 . S
H30 C4 0.930 1_556 S
H31 C5 0.931 . S
H32 C12 0.932 1_556 S
H33 C13 0.930 . S
H34 C14 0.929 . S
H35 C16 0.930 . S
H36 C18 0.932 . S
H37 C19 0.929 . S
H38 C20 0.928 . S
H39 C22 0.932 . S
C40 C41 1.264 . S
C40 C45 1.479 . S
C40 C50 1.465 . S
C41 C40 1.264 . S
C41 C43 1.339 . S
C41 H68 0.931 . S
C42 C43 1.395 . S
C42 C44 1.320 . S
C43 C41 1.339 . S
C43 C42 1.395 . S
C43 H69 0.929 . S
C44 C42 1.320 . S
C44 C45 1.405 . S
C44 H70 0.930 . S
C45 C40 1.479 . S
C45 C44 1.405 . S
C45 H71 0.931 . S
U46 O47 2.454 1_545 S
U46 O48 2.458 1_545 S
U46 C49 2.984 1_545 S
U46 C50 2.847 . S
U46 C63 2.882 . S
U46 O64 2.441 . S
U46 O65 2.420 . S
U46 O66 2.455 . S
U46 O67 2.449 . S
O47 U46 2.454 1_565 S
O47 C49 1.353 . S
O48 U46 2.458 1_565 S
O48 C49 1.286 . S
C49 U46 2.984 1_565 S
C49 O47 1.353 . S
C49 O48 1.286 . S
C49 C51 1.363 . S
C50 C40 1.465 . S
C50 U46 2.847 . S
C50 O64 1.249 . S
C50 O65 1.202 . S
C51 C49 1.363 . S
C51 C53 1.408 . S
C51 C56 1.342 . S
C52 C53 1.310 . S
C52 C55 1.461 . S
C52 H72 0.932 . S
C53 C51 1.408 . S
C53 C52 1.310 . S
C53 H73 0.930 . S
C54 C55 1.474 . S
C54 C56 1.285 . S
C54 H74 0.929 . S
C55 C52 1.461 . S
C55 C54 1.474 . S
C56 C51 1.342 . S
C56 C54 1.285 . S
C56 H75 0.930 . S
C57 C60 1.424 . S
C57 C62 1.245 . S
C57 C63 1.428 . S
C58 C61 1.260 . S
C58 C62 1.477 . S
C58 H76 0.932 1_545 S
C59 C60 1.384 . S
C59 C61 1.479 . S
C59 H77 0.929 . S
C60 C57 1.424 . S
C60 C59 1.384 . S
C60 H78 0.928 . S
C61 C58 1.260 . S
C61 C59 1.479 . S
C62 C57 1.245 . S
C62 C58 1.477 . S
C62 H79 0.932 1_545 S
C63 U46 2.882 . S
C63 C57 1.428 . S
C63 O66 1.301 . S
C63 O67 1.282 . S
O64 U46 2.441 . S
O64 C50 1.249 . S
O65 U46 2.420 . S
O65 C50 1.202 . S
O66 U46 2.455 . S
O66 C63 1.301 . S
O67 U46 2.449 . S
O67 C63 1.282 . S
H68 C41 0.931 . S
H69 C43 0.929 . S
H70 C44 0.930 . S
H71 C45 0.931 . S
H72 C52 0.932 . S
H73 C53 0.930 . S
H74 C54 0.929 . S
H75 C56 0.930 . S
H76 C58 0.932 1_565 S
H77 C59 0.929 . S
H78 C60 0.928 . S
H79 C62 0.932 1_565 S
C80 C81 1.264 . S
C80 C85 1.479 . S
C80 C90 1.465 . S
C81 C80 1.264 . S
C81 C83 1.339 . S
C81 H108 0.931 . S
C82 C83 1.395 . S
C82 C84 1.320 . S
C83 C81 1.339 . S
C83 C82 1.395 . S
C83 H109 0.929 . S
C84 C82 1.320 . S
C84 C85 1.405 . S
C84 H110 0.930 . S
C85 C80 1.479 . S
C85 C84 1.405 . S
C85 H111 0.931 . S
U86 O87 2.454 . S
U86 O88 2.458 . S
U86 C89 2.984 . S
U86 C90 2.847 . S
U86 C103 2.882 . S
U86 O104 2.441 . S
U86 O105 2.420 . S
U86 O106 2.455 . S
U86 O107 2.449 . S
O87 U86 2.454 . S
O87 C89 1.353 . S
O88 U86 2.458 . S
O88 C89 1.286 . S
C89 U86 2.984 . S
C89 O87 1.353 . S
C89 O88 1.286 . S
C89 C91 1.363 . S
C90 C80 1.465 . S
C90 U86 2.847 . S
C90 O104 1.249 . S
C90 O105 1.202 . S
C91 C89 1.363 . S
C91 C93 1.408 . S
C91 C96 1.342 . S
C92 C93 1.310 . S
C92 C95 1.461 . S
C92 H112 0.932 . S
C93 C91 1.408 . S
C93 C92 1.310 . S
C93 H113 0.930 . S
C94 C95 1.474 . S
C94 C96 1.285 . S
C94 H114 0.929 . S
C95 C92 1.461 . S
C95 C94 1.474 . S
C96 C91 1.342 . S
C96 C94 1.285 . S
C96 H115 0.930 . S
C97 C100 1.424 . S
C97 C102 1.245 . S
C97 C103 1.428 . S
C98 C101 1.260 . S
C98 C102 1.477 . S
C98 H116 0.932 . S
C99 C100 1.384 . S
C99 C101 1.479 . S
C99 H117 0.929 . S
C100 C97 1.424 . S
C100 C99 1.384 . S
C100 H118 0.928 . S
C101 C98 1.260 . S
C101 C99 1.479 . S
C102 C97 1.245 . S
C102 C98 1.477 . S
C102 H119 0.932 . S
C103 U86 2.882 . S
C103 C97 1.428 . S
C103 O106 1.301 . S
C103 O107 1.282 . S
O104 U86 2.441 . S
O104 C90 1.249 . S
O105 U86 2.420 . S
O105 C90 1.202 . S
O106 U86 2.455 . S
O106 C103 1.301 . S
O107 U86 2.449 . S
O107 C103 1.282 . S
H108 C81 0.931 . S
H109 C83 0.929 . S
H110 C84 0.930 . S
H111 C85 0.931 . S
H112 C92 0.932 . S
H113 C93 0.930 . S
H114 C94 0.929 . S
H115 C96 0.930 . S
H116 C98 0.932 . S
H117 C99 0.929 . S
H118 C100 0.928 . S
H119 C102 0.932 . S
C120 C121 1.264 . S
C120 C125 1.479 . S
C120 C130 1.465 . S
C121 C120 1.264 . S
C121 C123 1.339 . S
C121 H148 0.931 . S
C122 C123 1.395 . S
C122 C124 1.320 . S
C123 C121 1.339 . S
C123 C122 1.395 . S
C123 H149 0.929 . S
C124 C122 1.320 . S
C124 C125 1.405 . S
C124 H150 0.930 . S
C125 C120 1.479 . S
C125 C124 1.405 . S
C125 H151 0.931 . S
U126 O127 2.454 . S
U126 O128 2.458 . S
U126 C129 2.984 . S
U126 C130 2.847 1_545 S
U126 C143 2.882 . S
U126 O144 2.441 1_545 S
U126 O145 2.420 1_545 S
U126 O146 2.455 . S
U126 O147 2.449 1_545 S
O127 U126 2.454 . S
O127 C129 1.353 . S
O128 U126 2.458 . S
O128 C129 1.286 . S
C129 U126 2.984 . S
C129 O127 1.353 . S
C129 O128 1.286 . S
C129 C131 1.363 . S
C130 C120 1.465 . S
C130 U126 2.847 1_565 S
C130 O144 1.249 . S
C130 O145 1.202 . S
C131 C129 1.363 . S
C131 C133 1.408 . S
C131 C136 1.342 . S
C132 C133 1.310 . S
C132 C135 1.461 . S
C132 H152 0.932 . S
C133 C131 1.408 . S
C133 C132 1.310 . S
C133 H153 0.930 . S
C134 C135 1.474 . S
C134 C136 1.285 . S
C134 H154 0.929 . S
C135 C132 1.461 . S
C135 C134 1.474 . S
C136 C131 1.342 . S
C136 C134 1.285 . S
C136 H155 0.930 . S
C137 C140 1.424 1_545 S
C137 C142 1.245 . S
C137 C143 1.428 . S
C138 C141 1.260 . S
C138 C142 1.477 . S
C138 H156 0.932 . S
C139 C140 1.384 . S
C139 C141 1.479 1_565 S
C139 H157 0.929 . S
C140 C137 1.424 1_565 S
C140 C139 1.384 . S
C140 H158 0.928 . S
C141 C138 1.260 . S
C141 C139 1.479 1_545 S
C142 C137 1.245 . S
C142 C138 1.477 . S
C142 H159 0.932 . S
C143 U126 2.882 . S
C143 C137 1.428 . S
C143 O146 1.301 . S
C143 O147 1.282 1_545 S
O144 U126 2.441 1_565 S
O144 C130 1.249 . S
O145 U126 2.420 1_565 S
O145 C130 1.202 . S
O146 U126 2.455 . S
O146 C143 1.301 . S
O147 U126 2.449 1_565 S
O147 C143 1.282 1_565 S
H148 C121 0.931 . S
H149 C123 0.929 . S
H150 C124 0.930 . S
H151 C125 0.931 . S
H152 C132 0.932 . S
H153 C133 0.930 . S
H154 C134 0.929 . S
H155 C136 0.930 . S
H156 C138 0.932 . S
H157 C139 0.929 . S
H158 C140 0.928 . S
H159 C142 0.932 . S
C160 C161 1.264 . S
C160 C165 1.479 . S
C160 C170 1.465 . S
C161 C160 1.264 . S
C161 C163 1.339 . S
C161 H188 0.931 . S
C162 C163 1.395 . S
C162 C164 1.320 . S
C163 C161 1.339 . S
C163 C162 1.395 . S
C163 H189 0.929 . S
C164 C162 1.320 . S
C164 C165 1.405 . S
C164 H190 0.930 1_556 S
C165 C160 1.479 . S
C165 C164 1.405 . S
C165 H191 0.931 . S
U166 O167 2.454 . S
U166 O168 2.458 . S
U166 C169 2.984 . S
U166 C170 2.847 . S
U166 C183 2.882 . S
U166 O184 2.441 . S
U166 O185 2.420 . S
U166 O186 2.455 . S
U166 O187 2.449 . S
O167 U166 2.454 . S
O167 C169 1.353 . S
O168 U166 2.458 . S
O168 C169 1.286 . S
C169 U166 2.984 . S
C169 O167 1.353 . S
C169 O168 1.286 . S
C169 C171 1.363 . S
C170 C160 1.465 . S
C170 U166 2.847 . S
C170 O184 1.249 . S
C170 O185 1.202 . S
C171 C169 1.363 . S
C171 C173 1.408 . S
C171 C176 1.342 . S
C172 C173 1.310 . S
C172 C175 1.461 . S
C172 H192 0.932 1_556 S
C173 C171 1.408 . S
C173 C172 1.310 . S
C173 H193 0.930 . S
C174 C175 1.474 . S
C174 C176 1.285 . S
C174 H194 0.929 . S
C175 C172 1.461 . S
C175 C174 1.474 . S
C176 C171 1.342 . S
C176 C174 1.285 . S
C176 H195 0.930 . S
C177 C180 1.424 . S
C177 C182 1.245 . S
C177 C183 1.428 . S
C178 C181 1.260 . S
C178 C182 1.477 . S
C178 H196 0.932 . S
C179 C180 1.384 . S
C179 C181 1.479 . S
C179 H197 0.929 . S
C180 C177 1.424 . S
C180 C179 1.384 . S
C180 H198 0.928 . S
C181 C178 1.260 . S
C181 C179 1.479 . S
C182 C177 1.245 . S
C182 C178 1.477 . S
C182 H199 0.932 . S
C183 U166 2.882 . S
C183 C177 1.428 . S
C183 O186 1.301 . S
C183 O187 1.282 . S
O184 U166 2.441 . S
O184 C170 1.249 . S
O185 U166 2.420 . S
O185 C170 1.202 . S
O186 U166 2.455 . S
O186 C183 1.301 . S
O187 U166 2.449 . S
O187 C183 1.282 . S
H188 C161 0.931 . S
H189 C163 0.929 . S
H190 C164 0.930 1_554 S
H191 C165 0.931 . S
H192 C172 0.932 1_554 S
H193 C173 0.930 . S
H194 C174 0.929 . S
H195 C176 0.930 . S
H196 C178 0.932 . S
H197 C179 0.929 . S
H198 C180 0.928 . S
H199 C182 0.932 . S
C200 C201 1.264 . S
C200 C205 1.479 . S
C200 C210 1.465 . S
C201 C200 1.264 . S
C201 C203 1.339 . S
C201 H228 0.931 . S
C202 C203 1.395 . S
C202 C204 1.320 . S
C203 C201 1.339 . S
C203 C202 1.395 . S
C203 H229 0.929 . S
C204 C202 1.320 . S
C204 C205 1.405 . S
C204 H230 0.930 . S
C205 C200 1.479 . S
C205 C204 1.405 . S
C205 H231 0.931 . S
U206 O207 2.454 . S
U206 O208 2.458 . S
U206 C209 2.984 . S
U206 C210 2.847 1_455 S
U206 C223 2.882 . S
U206 O224 2.441 1_455 S
U206 O225 2.420 1_455 S
U206 O226 2.455 . S
U206 O227 2.449 1_455 S
O207 U206 2.454 . S
O207 C209 1.353 . S
O208 U206 2.458 . S
O208 C209 1.286 . S
C209 U206 2.984 . S
C209 O207 1.353 . S
C209 O208 1.286 . S
C209 C211 1.363 . S
C210 C200 1.465 . S
C210 U206 2.847 1_655 S
C210 O224 1.249 . S
C210 O225 1.202 . S
C211 C209 1.363 . S
C211 C213 1.408 . S
C211 C216 1.342 . S
C212 C213 1.310 . S
C212 C215 1.461 . S
C212 H232 0.932 . S
C213 C211 1.408 . S
C213 C212 1.310 . S
C213 H233 0.930 . S
C214 C215 1.474 . S
C214 C216 1.285 . S
C214 H234 0.929 . S
C215 C212 1.461 . S
C215 C214 1.474 . S
C216 C211 1.342 . S
C216 C214 1.285 . S
C216 H235 0.930 . S
C217 C220 1.424 1_455 S
C217 C222 1.245 . S
C217 C223 1.428 . S
C218 C221 1.260 . S
C218 C222 1.477 . S
C218 H236 0.932 . S
C219 C220 1.384 . S
C219 C221 1.479 1_655 S
C219 H237 0.929 . S
C220 C217 1.424 1_655 S
C220 C219 1.384 . S
C220 H238 0.928 . S
C221 C218 1.260 . S
C221 C219 1.479 1_455 S
C222 C217 1.245 . S
C222 C218 1.477 . S
C222 H239 0.932 . S
C223 U206 2.882 . S
C223 C217 1.428 . S
C223 O226 1.301 . S
C223 O227 1.282 1_455 S
O224 U206 2.441 1_655 S
O224 C210 1.249 . S
O225 U206 2.420 1_655 S
O225 C210 1.202 . S
O226 U206 2.455 . S
O226 C223 1.301 . S
O227 U206 2.449 1_655 S
O227 C223 1.282 1_655 S
H228 C201 0.931 . S
H229 C203 0.929 . S
H230 C204 0.930 . S
H231 C205 0.931 . S
H232 C212 0.932 . S
H233 C213 0.930 . S
H234 C214 0.929 . S
H235 C216 0.930 . S
H236 C218 0.932 . S
H237 C219 0.929 . S
H238 C220 0.928 . S
H239 C222 0.932 . S
C240 C241 1.363 . S
C240 C246 1.379 . S
C240 N248 1.356 . S
C241 C240 1.363 . S
C241 C247 1.363 1_455 S
C242 C243 1.363 1_655 S
C242 C247 1.379 . S
C242 N249 1.356 . S
C243 C242 1.363 1_455 S
C243 C246 1.363 . S
N244 C246 1.356 . S
N244 H256 0.984 . S
N244 H257 0.985 . S
N245 C247 1.356 . S
N245 H250 0.984 . S
N245 H251 0.985 . S
C246 C240 1.379 . S
C246 C243 1.363 . S
C246 N244 1.356 . S
C247 C241 1.363 1_655 S
C247 C242 1.379 . S
C247 N245 1.356 . S
N248 C240 1.356 . S
N248 H254 0.984 . S
N248 H255 0.984 . S
N249 C242 1.356 . S
N249 H252 0.984 . S
N249 H253 0.985 . S
H250 N245 0.984 . S
H251 N245 0.985 . S
H252 N249 0.984 . S
H253 N249 0.985 . S
H254 N248 0.984 . S
H255 N248 0.984 . S
H256 N244 0.984 . S
H257 N244 0.985 . S
C258 C259 1.363 . S
C258 C264 1.379 . S
C258 N266 1.356 . S
C259 C258 1.363 . S
C259 C265 1.363 . S
C260 C261 1.363 . S
C260 C265 1.379 . S
C260 N267 1.356 1_545 S
C261 C260 1.363 . S
C261 C264 1.363 . S
N262 C264 1.356 . S
N262 H274 0.984 . S
N262 H275 0.985 . S
N263 C265 1.356 1_565 S
N263 H268 0.984 . S
N263 H269 0.985 . S
C264 C258 1.379 . S
C264 C261 1.363 . S
C264 N262 1.356 . S
C265 C259 1.363 . S
C265 C260 1.379 . S
C265 N263 1.356 1_545 S
N266 C258 1.356 . S
N266 H272 0.984 . S
N266 H273 0.984 . S
N267 C260 1.356 1_565 S
N267 H270 0.984 . S
N267 H271 0.985 . S
H268 N263 0.984 . S
H269 N263 0.985 . S
H270 N267 0.984 . S
H271 N267 0.985 . S
H272 N266 0.984 . S
H273 N266 0.984 . S
H274 N262 0.984 . S
H275 N262 0.985 . S
C276 C277 1.363 . S
C276 C282 1.379 . S
C276 N284 1.356 . S
C277 C276 1.363 . S
C277 C283 1.363 . S
C278 C279 1.363 . S
C278 C283 1.379 . S
C278 N285 1.356 . S
C279 C278 1.363 . S
C279 C282 1.363 . S
N280 C282 1.356 . S
N280 H292 0.984 . S
N280 H293 0.985 . S
N281 C283 1.356 . S
N281 H286 0.984 . S
N281 H287 0.985 . S
C282 C276 1.379 . S
C282 C279 1.363 . S
C282 N280 1.356 . S
C283 C277 1.363 . S
C283 C278 1.379 . S
C283 N281 1.356 . S
N284 C276 1.356 . S
N284 H290 0.984 . S
N284 H291 0.984 . S
N285 C278 1.356 . S
N285 H288 0.984 . S
N285 H289 0.985 . S
H286 N281 0.984 . S
H287 N281 0.985 . S
H288 N285 0.984 . S
H289 N285 0.985 . S
H290 N284 0.984 . S
H291 N284 0.984 . S
H292 N280 0.984 . S
H293 N280 0.985 . S
C294 C295 1.363 . S
C294 C300 1.379 . S
C294 N302 1.356 . S
C295 C294 1.363 . S
C295 C301 1.363 1_554 S
C296 C297 1.363 . S
C296 C301 1.379 . S
C296 N303 1.356 . S
C297 C296 1.363 . S
C297 C300 1.363 1_556 S
N298 C300 1.356 . S
N298 H310 0.984 . S
N298 H311 0.985 1_554 S
N299 C301 1.356 . S
N299 H304 0.984 1_556 S
N299 H305 0.985 . S
C300 C294 1.379 . S
C300 C297 1.363 1_554 S
C300 N298 1.356 . S
C301 C295 1.363 1_556 S
C301 C296 1.379 . S
C301 N299 1.356 . S
N302 C294 1.356 . S
N302 H308 0.984 . S
N302 H309 0.984 . S
N303 C296 1.356 . S
N303 H306 0.984 . S
N303 H307 0.985 . S
H304 N299 0.984 1_554 S
H305 N299 0.985 . S
H306 N303 0.984 . S
H307 N303 0.985 . S
H308 N302 0.984 . S
H309 N302 0.984 . S
H310 N298 0.984 . S
H311 N298 0.985 1_556 S
C312 C313 1.363 . S
C312 C318 1.379 . S
C312 N320 1.356 . S
C313 C312 1.363 . S
C313 C319 1.363 . S
C314 C315 1.363 . S
C314 C319 1.379 . S
C314 N321 1.356 . S
C315 C314 1.363 . S
C315 C318 1.363 . S
N316 C318 1.356 . S
N316 H328 0.984 . S
N316 H329 0.985 . S
N317 C319 1.356 . S
N317 H322 0.984 . S
N317 H323 0.985 . S
C318 C312 1.379 . S
C318 C315 1.363 . S
C318 N316 1.356 . S
C319 C313 1.363 . S
C319 C314 1.379 . S
C319 N317 1.356 . S
N320 C312 1.356 . S
N320 H326 0.984 . S
N320 H327 0.984 . S
N321 C314 1.356 . S
N321 H324 0.984 . S
N321 H325 0.985 . S
H322 N317 0.984 . S
H323 N317 0.985 . S
H324 N321 0.984 . S
H325 N321 0.985 . S
H326 N320 0.984 . S
H327 N320 0.984 . S
H328 N316 0.984 . S
H329 N316 0.985 . S
C330 C331 1.363 . S
C330 C336 1.379 . S
C330 N338 1.356 . S
C331 C330 1.363 . S
C331 C337 1.363 . S
C332 C333 1.363 . S
C332 C337 1.379 . S
C332 N339 1.356 . S
C333 C332 1.363 . S
C333 C336 1.363 . S
N334 C336 1.356 . S
N334 H346 0.984 . S
N334 H347 0.985 . S
N335 C337 1.356 . S
N335 H340 0.984 . S
N335 H341 0.985 . S
C336 C330 1.379 . S
C336 C333 1.363 . S
C336 N334 1.356 . S
C337 C331 1.363 . S
C337 C332 1.379 . S
C337 N335 1.356 . S
N338 C330 1.356 . S
N338 H344 0.984 . S
N338 H345 0.984 . S
N339 C332 1.356 . S
N339 H342 0.984 . S
N339 H343 0.985 . S
H340 N335 0.984 . S
H341 N335 0.985 . S
H342 N339 0.984 . S
H343 N339 0.985 . S
H344 N338 0.984 . S
H345 N338 0.984 . S
H346 N334 0.984 . S
H347 N334 0.985 . S
C348 C349 1.363 . S
C348 C354 1.379 . S
C348 N356 1.356 . S
C349 C348 1.363 . S
C349 C355 1.363 1_554 S
C350 C351 1.363 . S
C350 C355 1.379 . S
C350 N357 1.356 . S
C351 C350 1.363 . S
C351 C354 1.363 1_556 S
N352 C354 1.356 . S
N352 H364 0.984 . S
N352 H365 0.985 1_554 S
N353 C355 1.356 . S
N353 H358 0.984 1_556 S
N353 H359 0.985 . S
C354 C348 1.379 . S
C354 C351 1.363 1_554 S
C354 N352 1.356 . S
C355 C349 1.363 1_556 S
C355 C350 1.379 . S
C355 N353 1.356 . S
N356 C348 1.356 . S
N356 H362 0.984 . S
N356 H363 0.984 . S
N357 C350 1.356 . S
N357 H360 0.984 . S
N357 H361 0.985 . S
H358 N353 0.984 1_554 S
H359 N353 0.985 . S
H360 N357 0.984 . S
H361 N357 0.985 . S
H362 N356 0.984 . S
H363 N356 0.984 . S
H364 N352 0.984 . S
H365 N352 0.985 1_556 S
C366 C367 1.363 . S
C366 C372 1.379 . S
C366 N374 1.356 . S
C367 C366 1.363 . S
C367 C373 1.363 . S
C368 C369 1.363 . S
C368 C373 1.379 . S
C368 N375 1.356 . S
C369 C368 1.363 . S
C369 C372 1.363 . S
N370 C372 1.356 . S
N370 H382 0.984 . S
N370 H383 0.985 . S
N371 C373 1.356 . S
N371 H376 0.984 . S
N371 H377 0.985 . S
C372 C366 1.379 . S
C372 C369 1.363 . S
C372 N370 1.356 . S
C373 C367 1.363 . S
C373 C368 1.379 . S
C373 N371 1.356 . S
N374 C366 1.356 . S
N374 H380 0.984 . S
N374 H381 0.984 . S
N375 C368 1.356 . S
N375 H378 0.984 . S
N375 H379 0.985 . S
H376 N371 0.984 . S
H377 N371 0.985 . S
H378 N375 0.984 . S
H379 N375 0.985 . S
H380 N374 0.984 . S
H381 N374 0.984 . S
H382 N370 0.984 . S
H383 N370 0.985 . S
C384 C385 1.363 . S
C384 C390 1.379 . S
C384 N392 1.356 . S
C385 C384 1.363 . S
C385 C391 1.363 . S
C386 C387 1.363 . S
C386 C391 1.379 . S
C386 N393 1.356 . S
C387 C386 1.363 . S
C387 C390 1.363 . S
N388 C390 1.356 . S
N388 H400 0.984 . S
N388 H401 0.985 . S
N389 C391 1.356 . S
N389 H394 0.984 . S
N389 H395 0.985 . S
C390 C384 1.379 . S
C390 C387 1.363 . S
C390 N388 1.356 . S
C391 C385 1.363 . S
C391 C386 1.379 . S
C391 N389 1.356 . S
N392 C384 1.356 . S
N392 H398 0.984 . S
N392 H399 0.984 . S
N393 C386 1.356 . S
N393 H396 0.984 . S
N393 H397 0.985 . S
H394 N389 0.984 . S
H395 N389 0.985 . S
H396 N393 0.984 . S
H397 N393 0.985 . S
H398 N392 0.984 . S
H399 N392 0.984 . S
H400 N388 0.984 . S
H401 N388 0.985 . S
C241 C21 1.495 . S
C243 C221 1.495 . S
C259 C141 1.488 . S
C261 C61 1.488 . S
C277 C181 1.488 . S
C279 C101 1.489 . S
C295 C15 1.502 . S
C297 C175 1.501 . S
C313 C42 1.486 . S
C315 C202 1.491 . S
C331 C122 1.486 . S
C333 C82 1.488 . S
C349 C2 1.493 . S
C351 C162 1.485 . S
C367 C55 1.500 . S
C369 C215 1.501 . S
C385 C135 1.500 . S
C387 C95 1.500 . S
