# Generated by pormake.
# Topology wjt, (5)-cn, num edge types: 1
# Building blocks:
#     Node 0, Type 0, BuildingBlock: XOMCOT_clean_sbu_0, # of connection points: 5
#     Node 1, Type 0, BuildingBlock: XOMCOT_clean_sbu_0, # of connection points: 5
#     Node 2, Type 0, BuildingBlock: XOMCOT_clean_sbu_0, # of connection points: 5
#     Node 3, Type 0, BuildingBlock: XOMCOT_clean_sbu_0, # of connection points: 5
#     Node 4, Type 0, BuildingBlock: XOMCOT_clean_sbu_0, # of connection points: 5
#     Node 5, Type 0, BuildingBlock: XOMCOT_clean_sbu_0, # of connection points: 5
#     Node 6, Type 0, BuildingBlock: XOMCOT_clean_sbu_0, # of connection points: 5
#     Node 7, Type 0, BuildingBlock: XOMCOT_clean_sbu_0, # of connection points: 5
#     Node 8, Type 0, BuildingBlock: XOMCOT_clean_sbu_0, # of connection points: 5
#     Node 9, Type 0, BuildingBlock: XOMCOT_clean_sbu_0, # of connection points: 5
#     Node 10, Type 0, BuildingBlock: XOMCOT_clean_sbu_0, # of connection points: 5
#     Node 11, Type 0, BuildingBlock: XOMCOT_clean_sbu_0, # of connection points: 5
#     Edge 12, Type (0, 0), BuildingBlock: TEMPAE_clean_linker_10, # of connection points: 2
#     Edge 13, Type (0, 0), BuildingBlock: TEMPAE_clean_linker_10, # of connection points: 2
#     Edge 14, Type (0, 0), BuildingBlock: TEMPAE_clean_linker_10, # of connection points: 2
#     Edge 15, Type (0, 0), BuildingBlock: TEMPAE_clean_linker_10, # of connection points: 2
#     Edge 16, Type (0, 0), BuildingBlock: TEMPAE_clean_linker_10, # of connection points: 2
#     Edge 17, Type (0, 0), BuildingBlock: TEMPAE_clean_linker_10, # of connection points: 2
#     Edge 18, Type (0, 0), BuildingBlock: TEMPAE_clean_linker_10, # of connection points: 2
#     Edge 19, Type (0, 0), BuildingBlock: TEMPAE_clean_linker_10, # of connection points: 2
#     Edge 20, Type (0, 0), BuildingBlock: TEMPAE_clean_linker_10, # of connection points: 2
#     Edge 21, Type (0, 0), BuildingBlock: TEMPAE_clean_linker_10, # of connection points: 2
#     Edge 22, Type (0, 0), BuildingBlock: TEMPAE_clean_linker_10, # of connection points: 2
#     Edge 23, Type (0, 0), BuildingBlock: TEMPAE_clean_linker_10, # of connection points: 2
#     Edge 24, Type (0, 0), BuildingBlock: TEMPAE_clean_linker_10, # of connection points: 2
#     Edge 25, Type (0, 0), BuildingBlock: TEMPAE_clean_linker_10, # of connection points: 2
#     Edge 26, Type (0, 0), BuildingBlock: TEMPAE_clean_linker_10, # of connection points: 2
#     Edge 27, Type (0, 0), BuildingBlock: TEMPAE_clean_linker_10, # of connection points: 2
#     Edge 28, Type (0, 0), BuildingBlock: TEMPAE_clean_linker_10, # of connection points: 2
#     Edge 29, Type (0, 0), BuildingBlock: TEMPAE_clean_linker_10, # of connection points: 2
#     Edge 30, Type (0, 0), BuildingBlock: TEMPAE_clean_linker_10, # of connection points: 2
#     Edge 31, Type (0, 0), BuildingBlock: TEMPAE_clean_linker_10, # of connection points: 2
#     Edge 32, Type (0, 0), BuildingBlock: TEMPAE_clean_linker_10, # of connection points: 2
#     Edge 33, Type (0, 0), BuildingBlock: TEMPAE_clean_linker_10, # of connection points: 2
#     Edge 34, Type (0, 0), BuildingBlock: TEMPAE_clean_linker_10, # of connection points: 2
#     Edge 35, Type (0, 0), BuildingBlock: TEMPAE_clean_linker_10, # of connection points: 2
#     Edge 36, Type (0, 0), BuildingBlock: TEMPAE_clean_linker_10, # of connection points: 2
#     Edge 37, Type (0, 0), BuildingBlock: TEMPAE_clean_linker_10, # of connection points: 2
#     Edge 38, Type (0, 0), BuildingBlock: TEMPAE_clean_linker_10, # of connection points: 2
#     Edge 39, Type (0, 0), BuildingBlock: TEMPAE_clean_linker_10, # of connection points: 2
#     Edge 40, Type (0, 0), BuildingBlock: TEMPAE_clean_linker_10, # of connection points: 2
#     Edge 41, Type (0, 0), BuildingBlock: TEMPAE_clean_linker_10, # of connection points: 2
# Relax obj value: 0.231
# Max RMSD: 0.184
# Mean RMSD: 0.184
data_MOF--net-wjt--node1-XOMCOT_clean_sbu_0--edge1-TEMPAE_clean_linker_10
_symmetry_space_group_name_H-M    P1
_symmetry_Int_Tables_number       1
_symmetry_cell_setting            triclinic
loop_
_symmetry_equiv_pos_as_xyz
'x, y, z'
_cell_length_a     68.350102
_cell_length_b     68.352421
_cell_length_c     17.481764
_cell_angle_alpha  89.983486
_cell_angle_beta   90.021713
_cell_angle_gamma 119.993
loop_
_atom_site_label
_atom_site_type_symbol
_atom_site_fract_x
_atom_site_fract_y
_atom_site_fract_z
_atom_type_partial_charge
Co0 Co 0.31256 0.43052 0.22989 0.0
C1 C 0.30522 0.42472 0.39754 0.0
C2 C 0.27477 0.41797 0.34089 0.0
C3 C 0.27056 0.41477 0.41841 0.0
N4 N 0.29682 0.42507 0.32782 0.0
N5 N 0.28979 0.41898 0.45358 0.0
H6 H 0.32232 0.42838 0.40774 0.0
H7 H 0.26216 0.41439 0.29765 0.0
C8 C 0.27666 0.44114 0.17771 0.0
O9 O 0.28242 0.45607 0.23296 0.0
N10 N 0.32757 0.43489 0.13289 0.0
C11 C 0.3496 0.44829 0.11612 0.0
C12 C 0.35222 0.44797 0.03787 0.0
C13 C 0.31722 0.42625 0.06572 0.0
N14 N 0.33178 0.43411 0.00656 0.0
C15 C 0.33915 0.47238 0.30877 0.0
C16 C 0.3422 0.50092 0.19178 0.0
C17 C 0.35412 0.51028 0.25993 0.0
C18 C 0.35221 0.49562 0.31893 0.0
C19 C 0.32887 0.47737 0.18442 0.0
N20 N 0.32726 0.46332 0.24302 0.0
H21 H 0.33985 0.46179 0.3526 0.0
H22 H 0.32049 0.47042 0.13056 0.0
H23 H 0.36263 0.45824 0.1574 0.0
H24 H 0.29918 0.41523 0.05987 0.0
O25 O 0.33545 0.42617 0.27766 0.0
O26 O 0.30396 0.39873 0.22658 0.0
O27 O 0.28605 0.42904 0.17259 0.0
C28 C 0.3229 0.40481 0.26244 0.0
H29 H 0.25448 0.40908 0.44641 0.0
H30 H 0.36783 0.45753 0.00641 0.0
H31 H 0.34357 0.51165 0.14409 0.0
H32 H 0.36189 0.50198 0.3712 0.0
Co33 Co 0.88258 0.30749 0.5797 0.0
C34 C 0.88114 0.29985 0.7472 0.0
C35 C 0.85628 0.26997 0.6906 0.0
C36 C 0.85511 0.26569 0.76811 0.0
N37 N 0.8721 0.29175 0.67753 0.0
N38 N 0.87084 0.28456 0.80327 0.0
H39 H 0.89519 0.31661 0.75735 0.0
H40 H 0.84667 0.25759 0.64739 0.0
C41 C 0.83524 0.27309 0.52794 0.0
O42 O 0.82652 0.27913 0.58382 0.0
N43 N 0.89329 0.32247 0.4827 0.0
C44 C 0.90238 0.34456 0.46585 0.0
C45 C 0.90524 0.34709 0.38754 0.0
C46 C 0.89123 0.31201 0.41555 0.0
N47 N 0.89816 0.32655 0.35629 0.0
C48 C 0.87098 0.33654 0.66004 0.0
C49 C 0.84473 0.34062 0.54798 0.0
C50 C 0.85008 0.35396 0.614 0.0
C51 C 0.863 0.35147 0.67078 0.0
C52 C 0.85321 0.32578 0.53926 0.0
N53 N 0.86605 0.3237 0.59548 0.0
H54 H 0.88248 0.33667 0.70191 0.0
H55 H 0.85035 0.3168 0.48582 0.0
H56 H 0.90586 0.35769 0.50713 0.0
H57 H 0.88384 0.29392 0.40986 0.0
O58 O 0.91048 0.32937 0.62651 0.0
O59 O 0.90465 0.29739 0.57396 0.0
O60 O 0.85666 0.2818 0.52261 0.0
C61 C 0.91832 0.31608 0.60981 0.0
H62 H 0.84403 0.24979 0.79613 0.0
H63 H 0.91162 0.36275 0.35603 0.0
H64 H 0.83524 0.34257 0.50195 0.0
H65 H 0.86787 0.36185 0.72184 0.0
Co66 Co 0.5766 0.88517 0.89536 0.0
C67 C 0.56866 0.87196 0.05775 0.0
C68 C 0.59847 0.87284 0.01536 0.0
C69 C 0.59763 0.86989 0.09325 0.0
N70 N 0.58003 0.87361 0.99267 0.0
N71 N 0.57889 0.86943 0.12025 0.0
H72 H 0.55405 0.87412 0.05947 0.0
H73 H 0.6123 0.8756 0.97833 0.0
C74 C 0.57577 0.84109 0.85127 0.0
O75 O 0.57728 0.83564 0.922 0.0
N76 N 0.57383 0.89746 0.79795 0.0
C77 C 0.58038 0.91915 0.78059 0.0
C78 C 0.578 0.92086 0.7031 0.0
C79 C 0.56713 0.8863 0.73069 0.0
N80 N 0.56979 0.90019 0.67193 0.0
C81 C 0.53427 0.88276 0.90025 0.0
C82 C 0.50869 0.83894 0.95298 0.0
C83 C 0.4989 0.8528 0.95006 0.0
C84 C 0.51182 0.87459 0.91964 0.0
C85 C 0.53132 0.84767 0.93046 0.0
N86 N 0.54397 0.86963 0.9072 0.0
H87 H 0.54422 0.90018 0.88268 0.0
H88 H 0.53901 0.83729 0.93672 0.0
H89 H 0.58703 0.93306 0.82056 0.0
H90 H 0.56143 0.86856 0.72363 0.0
O91 O 0.58333 0.91247 0.94819 0.0
O92 O 0.6091 0.90637 0.89392 0.0
O93 O 0.5751 0.859 0.83549 0.0
C94 C 0.6045 0.91975 0.9337 0.0
H95 H 0.61078 0.86988 0.12762 0.0
H96 H 0.58255 0.93622 0.67184 0.0
H97 H 0.4994 0.82196 0.97575 0.0
H98 H 0.50491 0.88571 0.91313 0.0
Co99 Co 0.69122 0.57426 0.23246 0.0
C100 C 0.69767 0.57214 0.39966 0.0
C101 C 0.72863 0.5942 0.34184 0.0
C102 C 0.73269 0.59617 0.41947 0.0
N103 N 0.70667 0.57896 0.32939 0.0
N104 N 0.71316 0.58219 0.4553 0.0
H105 H 0.67995 0.56157 0.41132 0.0
H106 H 0.74059 0.6041 0.29765 0.0
C107 C 0.72868 0.56443 0.19529 0.0
O108 O 0.72458 0.55291 0.25924 0.0
N109 N 0.67652 0.57034 0.13537 0.0
C110 C 0.65427 0.55911 0.11915 0.0
C111 C 0.65173 0.55875 0.04061 0.0
C112 C 0.68714 0.57681 0.0676 0.0
N113 N 0.67248 0.5697 0.0088 0.0
C114 C 0.65669 0.53328 0.29811 0.0
C115 C 0.66216 0.5031 0.20861 0.0
C116 C 0.64476 0.49487 0.26291 0.0
C117 C 0.64219 0.51028 0.3078 0.0
C118 C 0.67638 0.52656 0.20021 0.0
N119 N 0.67413 0.54142 0.24692 0.0
H120 H 0.65297 0.54446 0.33005 0.0
H121 H 0.68837 0.53257 0.15382 0.0
H122 H 0.64093 0.55106 0.16109 0.0
H123 H 0.7053 0.58617 0.06112 0.0
O124 O 0.67003 0.58125 0.27941 0.0
O125 O 0.70225 0.60674 0.22744 0.0
O126 O 0.71698 0.57363 0.17771 0.0
C127 C 0.68377 0.60228 0.26351 0.0
H128 H 0.74851 0.60754 0.44746 0.0
H129 H 0.63597 0.5502 0.0093 0.0
H130 H 0.66406 0.49161 0.17081 0.0
H131 H 0.62852 0.50456 0.34883 0.0
Co132 Co 0.12214 0.69474 0.59491 0.0
C133 C 0.1242 0.70197 0.76266 0.0
C134 C 0.14819 0.73225 0.70586 0.0
C135 C 0.14937 0.73647 0.7834 0.0
N136 N 0.13292 0.71029 0.69286 0.0
N137 N 0.13417 0.71736 0.81864 0.0
H138 H 0.11045 0.68505 0.77291 0.0
H139 H 0.15727 0.74481 0.66252 0.0
C140 C 0.16927 0.7295 0.5438 0.0
O141 O 0.17794 0.72332 0.59951 0.0
N142 N 0.1111 0.67991 0.49788 0.0
C143 C 0.1018 0.6578 0.4811 0.0
C144 C 0.09886 0.65525 0.40285 0.0
C145 C 0.1132 0.69039 0.43072 0.0
N146 N 0.10609 0.67581 0.37156 0.0
C147 C 0.13418 0.66546 0.67194 0.0
C148 C 0.15992 0.66191 0.55685 0.0
C149 C 0.15473 0.64814 0.62171 0.0
C150 C 0.14209 0.65039 0.68012 0.0
C151 C 0.1515 0.67686 0.5507 0.0
N152 N 0.13886 0.67863 0.60827 0.0
H153 H 0.12288 0.66517 0.71494 0.0
H154 H 0.15419 0.68613 0.49798 0.0
H155 H 0.0983 0.64465 0.52237 0.0
H156 H 0.12079 0.7085 0.42486 0.0
O157 O 0.09447 0.67269 0.64247 0.0
O158 O 0.09997 0.70473 0.59137 0.0
O159 O 0.14785 0.72063 0.53784 0.0
C160 C 0.08651 0.68597 0.62724 0.0
H161 H 0.15997 0.75252 0.81135 0.0
H162 H 0.09235 0.63958 0.37137 0.0
H163 H 0.16921 0.66019 0.50964 0.0
H164 H 0.13738 0.63971 0.73042 0.0
Co165 Co 0.42903 0.12152 0.92717 0.0
C166 C 0.42984 0.12898 0.09472 0.0
C167 C 0.40802 0.13809 0.03646 0.0
C168 C 0.40578 0.13994 0.11415 0.0
N169 N 0.4234 0.13153 0.02424 0.0
N170 N 0.41967 0.13429 0.15021 0.0
H171 H 0.44017 0.1216 0.1067 0.0
H172 H 0.39828 0.14033 0.99208 0.0
C173 C 0.43648 0.16793 0.88947 0.0
O174 O 0.44811 0.17578 0.95301 0.0
N175 N 0.43381 0.11138 0.8301 0.0
C176 C 0.44574 0.10105 0.81415 0.0
C177 C 0.44616 0.09882 0.73563 0.0
C178 C 0.42703 0.11509 0.76221 0.0
N179 N 0.43455 0.1079 0.70364 0.0
C180 C 0.47103 0.13172 0.9955 0.0
C181 C 0.4995 0.1668 0.90086 0.0
C182 C 0.5088 0.16032 0.96052 0.0
C183 C 0.49419 0.14244 0.00759 0.0
C184 C 0.4759 0.15585 0.89191 0.0
N185 N 0.46185 0.13912 0.94132 0.0
H186 H 0.4607 0.11663 0.02779 0.0
H187 H 0.46911 0.16026 0.8434 0.0
H188 H 0.45414 0.09622 0.85626 0.0
H189 H 0.41706 0.12325 0.75538 0.0
O190 O 0.42387 0.09392 0.9745 0.0
O191 O 0.39704 0.09859 0.92202 0.0
O192 O 0.42791 0.14705 0.87237 0.0
C193 C 0.40264 0.08544 0.95838 0.0
H194 H 0.39441 0.1444 0.14194 0.0
H195 H 0.45513 0.09205 0.70443 0.0
H196 H 0.51033 0.17988 0.86094 0.0
H197 H 0.5007 0.13591 0.05116 0.0
Co198 Co 0.57837 0.69579 0.40622 0.0
C199 C 0.57675 0.70315 0.23982 0.0
C200 C 0.6033 0.73215 0.29587 0.0
C201 C 0.60559 0.73582 0.21808 0.0
N202 N 0.5851 0.71168 0.30953 0.0
N203 N 0.58886 0.7175 0.18325 0.0
H204 H 0.56332 0.68618 0.22934 0.0
H205 H 0.61478 0.74315 0.33939 0.0
C206 C 0.57251 0.73644 0.43733 0.0
O207 O 0.5681 0.73793 0.3652 0.0
N208 N 0.57245 0.68044 0.5028 0.0
C209 C 0.56049 0.65814 0.51793 0.0
C210 C 0.55946 0.65527 0.59641 0.0
C211 C 0.57868 0.69074 0.57113 0.0
N212 N 0.57076 0.67586 0.62933 0.0
C213 C 0.53854 0.66028 0.33801 0.0
C214 C 0.50706 0.66795 0.40994 0.0
C215 C 0.49961 0.64884 0.36331 0.0
C216 C 0.51571 0.64537 0.32637 0.0
C217 C 0.53037 0.68262 0.4205 0.0
N218 N 0.54591 0.67886 0.38386 0.0
H219 H 0.55023 0.6563 0.3107 0.0
H220 H 0.53557 0.6962 0.46096 0.0
H221 H 0.55265 0.645 0.47527 0.0
H222 H 0.58872 0.70886 0.57821 0.0
O223 O 0.58645 0.6751 0.36174 0.0
O224 O 0.6107 0.70675 0.42003 0.0
O225 O 0.57633 0.72091 0.46032 0.0
C226 C 0.60705 0.68874 0.38261 0.0
H227 H 0.619 0.75039 0.18934 0.0
H228 H 0.55045 0.63939 0.62681 0.0
H229 H 0.49503 0.67092 0.44073 0.0
H230 H 0.51066 0.63078 0.28995 0.0
Co231 Co 0.88599 0.57381 0.77102 0.0
C232 C 0.87833 0.57312 0.60336 0.0
C233 C 0.87021 0.59559 0.66222 0.0
C234 C 0.86821 0.59787 0.58464 0.0
N235 N 0.87633 0.57987 0.67397 0.0
N236 N 0.87323 0.58358 0.54822 0.0
H237 H 0.885 0.56219 0.59096 0.0
H238 H 0.8683 0.60545 0.7069 0.0
C239 C 0.83896 0.56506 0.80566 0.0
O240 O 0.83175 0.55405 0.74071 0.0
N241 N 0.89567 0.56861 0.86826 0.0
C242 C 0.90587 0.55659 0.88467 0.0
C243 C 0.90779 0.55601 0.9633 0.0
C244 C 0.89174 0.57529 0.93594 0.0
N245 N 0.89865 0.56762 0.99489 0.0
C246 C 0.87791 0.53285 0.70014 0.0
C247 C 0.84097 0.50284 0.78502 0.0
C248 C 0.84862 0.49457 0.72555 0.0
C249 C 0.86755 0.50994 0.68393 0.0
C250 C 0.85174 0.52625 0.79857 0.0
N251 N 0.8693 0.54111 0.75336 0.0
H252 H 0.89343 0.54379 0.67077 0.0
H253 H 0.84635 0.53219 0.84685 0.0
H254 H 0.91087 0.54829 0.84277 0.0
H255 H 0.88365 0.58535 0.9422 0.0
O256 O 0.9142 0.58019 0.72562 0.0
O257 O 0.90823 0.60597 0.77967 0.0
O258 O 0.85971 0.57372 0.82459 0.0
C259 C 0.92203 0.60119 0.7437 0.0
H260 H 0.86402 0.60949 0.55714 0.0
H261 H 0.91446 0.54699 0.99479 0.0
H262 H 0.82701 0.49138 0.821 0.0
H263 H 0.87496 0.50422 0.64085 0.0
Co264 Co 0.31402 0.8849 0.10921 0.0
C265 C 0.30735 0.87669 0.94208 0.0
C266 C 0.27683 0.86967 -0.0007 0.0
C267 C 0.27282 0.86757 0.92162 0.0
N268 N 0.29845 0.87516 0.01211 0.0
N269 N 0.29208 0.87195 0.88613 0.0
H270 H 0.32494 0.88281 0.93083 0.0
H271 H 0.26507 0.86828 0.04328 0.0
C272 C 0.27487 0.83824 0.14333 0.0
O273 O 0.27821 0.83091 0.07788 0.0
N274 N 0.32894 0.89474 0.20632 0.0
C275 C 0.35123 0.90531 0.22194 0.0
C276 C 0.35396 0.90715 0.30046 0.0
C277 C 0.3185 0.89048 0.27443 0.0
N278 N 0.33329 0.89757 0.3328 0.0
C279 C 0.34743 0.87693 0.04234 0.0
C280 C 0.33922 0.83925 0.12545 0.0
C281 C 0.3563 0.84755 0.06966 0.0
C282 C 0.36047 0.86692 0.02915 0.0
C283 C 0.32643 0.84997 0.13709 0.0
N284 N 0.32985 0.86796 0.09286 0.0
H285 H 0.3522 0.89248 0.01284 0.0
H286 H 0.31442 0.84415 0.1834 0.0
H287 H 0.36444 0.91061 0.17953 0.0
H288 H 0.30038 0.88206 0.28148 0.0
O289 O 0.33596 0.91299 0.06315 0.0
O290 O 0.30427 0.90731 0.1167 0.0
O291 O 0.28763 0.85884 0.16293 0.0
C292 C 0.32285 0.92094 0.08045 0.0
H293 H 0.25722 0.86381 0.89339 0.0
H294 H 0.36977 0.91406 0.33134 0.0
H295 H 0.33592 0.82484 0.16038 0.0
H296 H 0.37437 0.87496 0.98907 0.0
Co297 Co 0.42916 0.31028 0.42644 0.0
C298 C 0.42207 0.30255 0.25909 0.0
C299 C 0.4162 0.27234 0.31544 0.0
C300 C 0.4128 0.26809 0.23798 0.0
N301 N 0.42289 0.29429 0.32863 0.0
N302 N 0.4165 0.28717 0.20294 0.0
H303 H 0.42556 0.31959 0.24901 0.0
H304 H 0.41319 0.25985 0.3585 0.0
C305 C 0.43961 0.27426 0.47905 0.0
O306 O 0.45439 0.27974 0.42346 0.0
N307 N 0.43429 0.32548 0.52345 0.0
C308 C 0.44811 0.34744 0.54027 0.0
C309 C 0.44791 0.35007 0.61859 0.0
C310 C 0.42553 0.31522 0.59062 0.0
N311 N 0.43369 0.32973 0.64987 0.0
C312 C 0.47039 0.3359 0.34377 0.0
C313 C 0.49985 0.3393 0.45795 0.0
C314 C 0.50865 0.35056 0.38835 0.0
C315 C 0.49352 0.3485 0.33088 0.0
C316 C 0.47634 0.32635 0.46802 0.0
N317 N 0.46183 0.32453 0.41071 0.0
H318 H 0.45954 0.33656 0.30097 0.0
H319 H 0.46982 0.31839 0.52278 0.0
H320 H 0.4582 0.36039 0.49897 0.0
H321 H 0.41411 0.29725 0.59634 0.0
O322 O 0.42506 0.3334 0.37935 0.0
O323 O 0.39752 0.30226 0.43192 0.0
O324 O 0.42755 0.2837 0.48372 0.0
C325 C 0.40376 0.32122 0.39587 0.0
H326 H 0.40751 0.2521 0.20989 0.0
H327 H 0.45774 0.36563 0.65006 0.0
H328 H 0.51099 0.34089 0.50457 0.0
H329 H 0.49948 0.35774 0.27762 0.0
Co330 Co 0.11971 0.42661 0.74261 0.0
C331 C 0.12745 0.42754 0.5751 0.0
C332 C 0.13512 0.40464 0.63329 0.0
C333 C 0.13725 0.40259 0.55567 0.0
N334 N 0.12923 0.42051 0.64546 0.0
N335 N 0.1325 0.41714 0.51964 0.0
H336 H 0.12101 0.43869 0.56313 0.0
H337 H 0.13685 0.39458 0.67769 0.0
C338 C 0.16659 0.43472 0.77623 0.0
O339 O 0.17375 0.44554 0.71094 0.0
N340 N 0.11012 0.43191 0.83985 0.0
C341 C 0.09958 0.44363 0.85567 0.0
C342 C 0.09776 0.44447 0.93423 0.0
C343 C 0.1144 0.42568 0.90785 0.0
N344 N 0.10734 0.43334 0.96635 0.0
C345 C 0.12794 0.46782 0.67309 0.0
C346 C 0.16467 0.49744 0.75964 0.0
C347 C 0.15681 0.50606 0.70187 0.0
C348 C 0.13805 0.49084 0.65913 0.0
C349 C 0.15414 0.47396 0.77104 0.0
N350 N 0.13659 0.45932 0.72536 0.0
H351 H 0.11248 0.45698 0.64321 0.0
H352 H 0.15961 0.46779 0.8185 0.0
H353 H 0.09424 0.45155 0.81337 0.0
H354 H 0.12278 0.41592 0.91472 0.0
O355 O 0.09153 0.42043 0.69731 0.0
O356 O 0.09732 0.39451 0.75126 0.0
O357 O 0.14593 0.42646 0.79586 0.0
C358 C 0.08357 0.39942 0.71552 0.0
H359 H 0.14137 0.39096 0.52789 0.0
H360 H 0.09085 0.45334 0.96529 0.0
H361 H 0.17854 0.50871 0.79631 0.0
H362 H 0.13047 0.49674 0.61726 0.0
Co363 Co 0.69257 0.11892 0.08479 0.0
C364 C 0.69906 0.12735 0.91762 0.0
C365 C 0.73 0.13604 0.97521 0.0
C366 C 0.73403 0.13822 0.89753 0.0
N367 N 0.70808 0.12943 0.98781 0.0
N368 N 0.7145 0.13279 0.86182 0.0
H369 H 0.68135 0.1203 0.90609 0.0
H370 H 0.74197 0.13806 0.01931 0.0
C371 C 0.73053 0.16611 0.12148 0.0
O372 O 0.72681 0.17361 0.05701 0.0
N373 N 0.67777 0.10834 0.18183 0.0
C374 C 0.65548 0.09717 0.19759 0.0
C375 C 0.65281 0.09507 0.27612 0.0
C376 C 0.68827 0.11267 0.24988 0.0
N377 N 0.67352 0.10508 0.30834 0.0
C378 C 0.65816 0.12549 0.01872 0.0
C379 C 0.66359 0.16107 0.10852 0.0
C380 C 0.64595 0.15172 0.05501 0.0
C381 C 0.64355 0.13389 0.00948 0.0
C382 C 0.67801 0.15202 0.11612 0.0
N383 N 0.67567 0.13483 0.06963 0.0
H384 H 0.6544 0.11057 0.98687 0.0
H385 H 0.69016 0.15813 0.16205 0.0
H386 H 0.6422 0.09168 0.15533 0.0
H387 H 0.70641 0.12157 0.25685 0.0
O388 O 0.67131 0.09071 0.03795 0.0
O389 O 0.70339 0.09732 0.09099 0.0
O390 O 0.71841 0.14528 0.13941 0.0
C391 C 0.68494 0.08334 0.05474 0.0
H392 H 0.74984 0.14271 0.86947 0.0
H393 H 0.637 0.08774 0.30712 0.0
H394 H 0.66549 0.1744 0.14665 0.0
H395 H 0.62988 0.12588 0.96848 0.0
C396 C 0.25162 0.45404 0.11792 0.0
C397 C 0.26003 0.43905 0.11862 0.0
C398 C 0.2367 0.45294 0.06046 0.0
C399 C 0.22986 0.43637 0.00222 0.0
C400 C 0.23821 0.42113 0.00267 0.0
C401 C 0.25319 0.42266 0.0607 0.0
C402 C 0.22834 0.46963 0.06179 0.0
C403 C 0.23132 0.40317 0.94187 0.0
C404 C 0.17501 0.42144 0.89926 0.0
C405 C 0.18284 0.43405 0.83145 0.0
C406 C 0.19009 0.42169 0.95445 0.0
C407 C 0.21367 0.43485 0.94181 0.0
C408 C 0.22171 0.44722 0.87275 0.0
C409 C 0.20622 0.44664 0.81841 0.0
C410 C 0.18072 0.4078 0.02631 0.0
C411 C 0.24671 0.46151 0.85704 0.0
H412 H 0.25688 0.46687 0.16191 0.0
H413 H 0.25958 0.411 0.06046 0.0
H414 H 0.23369 0.47994 0.00878 0.0
H415 H 0.20961 0.46053 0.06317 0.0
H416 H 0.23482 0.48116 0.11186 0.0
H417 H 0.23966 0.39291 0.94939 0.0
H418 H 0.21275 0.39175 0.94333 0.0
H419 H 0.23565 0.41107 0.88434 0.0
H420 H 0.15701 0.41143 0.9097 0.0
H421 H 0.21248 0.45645 0.76632 0.0
H422 H 0.18906 0.41811 0.07779 0.0
H423 H 0.18427 0.39364 0.02565 0.0
H424 H 0.16219 0.40069 0.03176 0.0
H425 H 0.25023 0.46935 0.79932 0.0
H426 H 0.25497 0.45112 0.86177 0.0
H427 H 0.2546 0.47512 0.90046 0.0
C428 C 0.75199 0.17385 0.2448 0.0
C429 C 0.74735 0.18207 0.17761 0.0
C430 C 0.76683 0.18858 0.30063 0.0
C431 C 0.77746 0.21223 0.28925 0.0
C432 C 0.77326 0.22068 0.22088 0.0
C433 C 0.75828 0.20552 0.16592 0.0
C434 C 0.77118 0.17877 0.37174 0.0
C435 C 0.78429 0.24576 0.20638 0.0
C436 C 0.7971 0.24928 0.46758 0.0
C437 C 0.82038 0.25706 0.46799 0.0
C438 C 0.78304 0.23491 0.40939 0.0
C439 C 0.79241 0.22804 0.35003 0.0
C440 C 0.81589 0.23582 0.35004 0.0
C441 C 0.82956 0.25019 0.40891 0.0
C442 C 0.75813 0.22717 0.4112 0.0
C443 C 0.8266 0.22892 0.288 0.0
H444 H 0.74393 0.1558 0.2542 0.0
H445 H 0.75487 0.21209 0.1143 0.0
H446 H 0.78876 0.18196 0.37052 0.0
H447 H 0.76945 0.18705 0.42381 0.0
H448 H 0.75948 0.16026 0.37655 0.0
H449 H 0.77989 0.24963 0.14932 0.0
H450 H 0.77895 0.25369 0.25092 0.0
H451 H 0.80293 0.2537 0.21022 0.0
H452 H 0.78982 0.25458 0.51244 0.0
H453 H 0.84751 0.25609 0.4084 0.0
H454 H 0.74809 0.20845 0.41044 0.0
H455 H 0.75346 0.23328 0.35935 0.0
H456 H 0.75331 0.23338 0.46253 0.0
H457 H 0.81953 0.21036 0.28971 0.0
H458 H 0.84526 0.23733 0.29406 0.0
H459 H 0.82262 0.23311 0.23089 0.0
C460 C 0.58349 0.77548 0.48061 0.0
C461 C 0.57196 0.75217 0.49417 0.0
C462 C 0.58424 0.79066 0.53657 0.0
C463 C 0.57239 0.78219 0.60641 0.0
C464 C 0.56004 0.75853 0.61891 0.0
C465 C 0.56037 0.74385 0.56333 0.0
C466 C 0.59842 0.81573 0.52214 0.0
C467 C 0.54611 0.74866 0.69038 0.0
C468 C 0.58979 0.81773 0.78803 0.0
C469 C 0.575 0.82631 0.78819 0.0
C470 C 0.58963 0.80402 0.72782 0.0
C471 C 0.57365 0.798 0.66783 0.0
C472 C 0.55852 0.80652 0.66821 0.0
C473 C 0.55965 0.8209 0.72775 0.0
C474 C 0.60664 0.79607 0.72817 0.0
C475 C 0.54083 0.80007 0.60668 0.0
H476 H 0.59264 0.78189 0.42737 0.0
H477 H 0.55126 0.72578 0.57345 0.0
H478 H 0.58845 0.82422 0.53237 0.0
H479 H 0.61282 0.82314 0.56279 0.0
H480 H 0.60519 0.81956 0.46291 0.0
H481 H 0.53963 0.73022 0.69551 0.0
H482 H 0.55607 0.75715 0.74229 0.0
H483 H 0.5315 0.75152 0.68914 0.0
H484 H 0.60184 0.82215 0.83433 0.0
H485 H 0.54808 0.82741 0.72822 0.0
H486 H 0.61698 0.80185 0.67528 0.0
H487 H 0.59783 0.77736 0.72839 0.0
H488 H 0.61809 0.80243 0.77846 0.0
H489 H 0.54897 0.80528 0.54974 0.0
H490 H 0.5302 0.80796 0.61569 0.0
H491 H 0.52973 0.78144 0.60546 0.0
C492 C 0.83063 0.57969 0.92573 0.0
C493 C 0.82273 0.56556 0.86126 0.0
C494 C 0.81561 0.57976 0.98053 0.0
C495 C 0.79205 0.56527 0.97112 0.0
C496 C 0.78396 0.55098 0.90616 0.0
C497 C 0.79937 0.55137 0.85191 0.0
C498 C 0.82501 0.59556 0.04809 0.0
C499 C 0.75902 0.53502 0.8945 0.0
C500 C 0.75456 0.55082 0.1479 0.0
C501 C 0.74537 0.56502 0.13926 0.0
C502 C 0.76965 0.55064 0.0935 0.0
C503 C 0.77588 0.56513 0.02906 0.0
C504 C 0.76676 0.5796 0.02026 0.0
C505 C 0.75163 0.57934 0.07526 0.0
C506 C 0.77872 0.53473 0.10454 0.0
C507 C 0.77316 0.59556 0.95317 0.0
H508 H 0.84863 0.5908 0.93345 0.0
H509 H 0.79308 0.54024 0.80276 0.0
H510 H 0.82066 0.6091 0.0423 0.0
H511 H 0.81737 0.58647 0.10224 0.0
H512 H 0.84367 0.60354 0.05246 0.0
H513 H 0.75251 0.5222 0.9408 0.0
H514 H 0.74963 0.54433 0.89784 0.0
H515 H 0.75532 0.52614 0.83858 0.0
H516 H 0.74973 0.53957 0.1967 0.0
H517 H 0.74474 0.59047 0.06806 0.0
H518 H 0.79744 0.54418 0.10223 0.0
H519 H 0.77273 0.5222 0.05737 0.0
H520 H 0.77334 0.52552 0.15982 0.0
H521 H 0.79108 0.60904 0.9589 0.0
H522 H 0.76253 0.60361 0.94946 0.0
H523 H 0.7716 0.58657 0.89871 0.0
C524 C 0.20751 0.75369 0.48481 0.0
C525 C 0.18423 0.74592 0.48498 0.0
C526 C 0.22168 0.76844 0.42761 0.0
C527 C 0.21243 0.77575 0.36915 0.0
C528 C 0.18896 0.76804 0.36909 0.0
C529 C 0.17517 0.75323 0.42683 0.0
C530 C 0.24658 0.77611 0.42948 0.0
C531 C 0.17841 0.77546 0.30806 0.0
C532 C 0.25341 0.83025 0.26665 0.0
C533 C 0.25786 0.82221 0.19872 0.0
C534 C 0.2384 0.81537 0.32182 0.0
C535 C 0.22747 0.79176 0.30903 0.0
C536 C 0.2315 0.78351 0.23994 0.0
C537 C 0.2466 0.79882 0.1856 0.0
C538 C 0.23422 0.82496 0.39376 0.0
C539 C 0.22023 0.75848 0.2241 0.0
H540 H 0.21469 0.74806 0.52901 0.0
H541 H 0.15721 0.74735 0.4262 0.0
H542 H 0.25141 0.7707 0.37635 0.0
H543 H 0.25663 0.79482 0.4316 0.0
H544 H 0.25122 0.76921 0.4794 0.0
H545 H 0.15984 0.76764 0.3153 0.0
H546 H 0.18609 0.7941 0.30953 0.0
H547 H 0.18182 0.77094 0.25062 0.0
H548 H 0.26176 0.84827 0.27713 0.0
H549 H 0.24989 0.79239 0.13343 0.0
H550 H 0.23604 0.81649 0.44518 0.0
H551 H 0.21663 0.82178 0.39333 0.0
H552 H 0.24594 0.84344 0.39915 0.0
H553 H 0.22541 0.75023 0.26801 0.0
H554 H 0.22459 0.75479 0.1667 0.0
H555 H 0.20161 0.7507 0.22787 0.0
C556 C 0.45306 0.24997 0.54118 0.0
C557 C 0.43782 0.25806 0.53943 0.0
C558 C 0.45235 0.2356 0.60003 0.0
C559 C 0.43594 0.22901 0.6587 0.0
C560 C 0.42044 0.23705 0.65723 0.0
C561 C 0.42157 0.25146 0.59775 0.0
C562 C 0.46939 0.22768 0.59991 0.0
C563 C 0.40267 0.23046 0.71852 0.0
C564 C 0.42214 0.17514 0.76643 0.0
C565 C 0.43515 0.18361 0.83322 0.0
C566 C 0.42186 0.18969 0.71012 0.0
C567 C 0.43485 0.21338 0.72062 0.0
C568 C 0.44754 0.22206 0.78879 0.0
C569 C 0.44753 0.2071 0.8442 0.0
C570 C 0.40765 0.17963 0.6393 0.0
C571 C 0.46157 0.24719 0.80241 0.0
H572 H 0.46582 0.25509 0.497 0.0
H573 H 0.40973 0.25763 0.59722 0.0
H574 H 0.48054 0.23459 0.65067 0.0
H575 H 0.46069 0.20901 0.60411 0.0
H576 H 0.48007 0.23305 0.54766 0.0
H577 H 0.39249 0.23888 0.71096 0.0
H578 H 0.39115 0.2119 0.71762 0.0
H579 H 0.4107 0.23488 0.77584 0.0
H580 H 0.41227 0.15706 0.75758 0.0
H581 H 0.45761 0.21387 0.89551 0.0
H582 H 0.41755 0.18786 0.58698 0.0
H583 H 0.39315 0.18267 0.64052 0.0
H584 H 0.40098 0.16114 0.63497 0.0
H585 H 0.47523 0.25486 0.75909 0.0
H586 H 0.46933 0.25124 0.86026 0.0
H587 H 0.45104 0.25525 0.79577 0.0
C588 C 0.46905 0.60874 0.37024 0.0
C589 C 0.47545 0.63135 0.3562 0.0
C590 C 0.44719 0.59125 0.35386 0.0
C591 C 0.4312 0.59642 0.32249 0.0
C592 C 0.43723 0.61931 0.31138 0.0
C593 C 0.45937 0.63659 0.32858 0.0
C594 C 0.4415 0.56713 0.3676 0.0
C595 C 0.42063 0.62549 0.27845 0.0
C596 C 0.38702 0.54613 0.2114 0.0
C597 C 0.37065 0.5348 0.26801 0.0
C598 C 0.40602 0.56738 0.22602 0.0
C599 C 0.40865 0.57751 0.29889 0.0
C600 C 0.39109 0.56713 0.35343 0.0
C601 C 0.37231 0.54588 0.33737 0.0
C602 C 0.42427 0.57793 0.16601 0.0
C603 C 0.39303 0.57742 0.43141 0.0
H604 H 0.48145 0.60472 0.39234 0.0
H605 H 0.46437 0.65408 0.31737 0.0
H606 H 0.42636 0.55834 0.40467 0.0
H607 H 0.43744 0.55788 0.31243 0.0
H608 H 0.4556 0.56607 0.39507 0.0
H609 H 0.42696 0.64393 0.28194 0.0
H610 H 0.41743 0.62031 0.21751 0.0
H611 H 0.40421 0.61634 0.30879 0.0
H612 H 0.38591 0.53765 0.15782 0.0
H613 H 0.35951 0.53732 0.38091 0.0
H614 H 0.43882 0.57593 0.18315 0.0
H615 H 0.43047 0.59628 0.16092 0.0
H616 H 0.41826 0.56994 0.10904 0.0
H617 H 0.40507 0.5749 0.46682 0.0
H618 H 0.37651 0.56958 0.46155 0.0
H619 H 0.3997 0.59587 0.42686 0.0
C620 C 0.83686 0.45521 0.76837 0.0
C621 C 0.83888 0.47009 0.70974 0.0
C622 C 0.83374 0.43373 0.75119 0.0
C623 C 0.83268 0.42711 0.67371 0.0
C624 C 0.83233 0.44117 0.61495 0.0
C625 C 0.8354 0.46247 0.63372 0.0
C626 C 0.83385 0.4191 0.81566 0.0
C627 C 0.83111 0.43481 0.53169 0.0
C628 C 0.86286 0.39461 0.63034 0.0
C629 C 0.84493 0.37249 0.6214 0.0
C630 C 0.85896 0.41244 0.64608 0.0
C631 C 0.83649 0.40806 0.65377 0.0
C632 C 0.81822 0.3858 0.64286 0.0
C633 C 0.82267 0.3682 0.62639 0.0
C634 C 0.87899 0.43594 0.65598 0.0
C635 C 0.79408 0.38048 0.65092 0.0
H636 H 0.83955 0.46102 0.82718 0.0
H637 H 0.83665 0.47386 0.58831 0.0
H638 H 0.82092 0.40115 0.80602 0.0
H639 H 0.85058 0.42015 0.81799 0.0
H640 H 0.83066 0.42455 0.87189 0.0
H641 H 0.82696 0.44541 0.49444 0.0
H642 H 0.8477 0.43715 0.5135 0.0
H643 H 0.8183 0.4168 0.5226 0.0
H644 H 0.88007 0.39786 0.62616 0.0
H645 H 0.80884 0.35102 0.62009 0.0
H646 H 0.87908 0.4421 0.71475 0.0
H647 H 0.87774 0.44779 0.61558 0.0
H648 H 0.89534 0.43653 0.64607 0.0
H649 H 0.79083 0.38313 0.71115 0.0
H650 H 0.78182 0.36279 0.63451 0.0
H651 H 0.79102 0.39208 0.61503 0.0
C652 C 0.45778 0.82345 0.97232 0.0
C653 C 0.4759 0.84558 0.98112 0.0
C654 C 0.43572 0.81771 0.99461 0.0
C655 C 0.43162 0.83468 0.02395 0.0
C656 C 0.45006 0.85666 0.03685 0.0
C657 C 0.4719 0.86162 0.01715 0.0
C658 C 0.4168 0.79376 0.98338 0.0
C659 C 0.44666 0.87548 0.06716 0.0
C660 C 0.37929 0.83803 0.98219 0.0
C661 C 0.3713 0.83783 0.05635 0.0
C662 C 0.39789 0.83505 0.96981 0.0
C663 C 0.40824 0.83081 0.03283 0.0
C664 C 0.39826 0.8274 0.10628 0.0
C665 C 0.3801 0.83132 0.11756 0.0
C666 C 0.40782 0.83879 0.89037 0.0
C667 C 0.40786 0.82135 0.17402 0.0
H668 H 0.46062 0.81078 0.94555 0.0
H669 H 0.48586 0.87848 0.02784 0.0
H670 H 0.40312 0.78903 0.026 0.0
H671 H 0.40948 0.79202 0.92546 0.0
H672 H 0.42312 0.78166 0.98762 0.0
H673 H 0.46281 0.89167 0.07339 0.0
H674 H 0.43552 0.87827 0.02784 0.0
H675 H 0.43824 0.8708 0.12374 0.0
H676 H 0.37198 0.84213 0.93406 0.0
H677 H 0.37389 0.83076 0.17501 0.0
H678 H 0.41039 0.82461 0.87369 0.0
H679 H 0.42459 0.85445 0.88968 0.0
H680 H 0.39691 0.84047 0.8468 0.0
H681 H 0.41354 0.80932 0.15714 0.0
H682 H 0.39527 0.81375 0.22087 0.0
H683 H 0.42273 0.8368 0.19652 0.0
C684 C 0.6336 0.45505 0.29824 0.0
C685 C 0.62776 0.47061 0.26988 0.0
C686 C 0.61675 0.43299 0.31833 0.0
C687 C 0.59367 0.42656 0.30959 0.0
C688 C 0.58787 0.44198 0.27709 0.0
C689 C 0.60498 0.46379 0.25788 0.0
C690 C 0.6236 0.41703 0.35235 0.0
C691 C 0.56353 0.43583 0.26581 0.0
C692 C 0.54335 0.36737 0.30662 0.0
C693 C 0.53312 0.36671 0.37693 0.0
C694 C 0.56431 0.38594 0.2864 0.0
C695 C 0.57525 0.40432 0.33768 0.0
C696 C 0.56607 0.40271 0.41169 0.0
C697 C 0.54509 0.38388 0.4305 0.0
C698 C 0.57361 0.38677 0.20743 0.0
C699 C 0.57729 0.42183 0.4684 0.0
H700 H 0.65125 0.46046 0.30819 0.0
H701 H 0.60054 0.47591 0.23591 0.0
H702 H 0.61962 0.41497 0.41436 0.0
H703 H 0.61395 0.40007 0.32568 0.0
H704 H 0.64195 0.42332 0.34524 0.0
H705 H 0.56196 0.44938 0.23632 0.0
H706 H 0.55443 0.4201 0.23169 0.0
H707 H 0.55498 0.43261 0.32213 0.0
H708 H 0.53427 0.35395 0.26541 0.0
H709 H 0.53725 0.38353 0.48478 0.0
H710 H 0.59214 0.39372 0.20948 0.0
H711 H 0.5704 0.39811 0.17062 0.0
H712 H 0.56557 0.36981 0.18031 0.0
H713 H 0.59571 0.42818 0.47118 0.0
H714 H 0.57005 0.41665 0.52671 0.0
H715 H 0.57498 0.43606 0.44957 0.0
C716 C 0.16868 0.53912 0.61489 0.0
C717 C 0.16606 0.53067 0.68966 0.0
C718 C 0.17147 0.56057 0.60073 0.0
C719 C 0.17184 0.57399 0.66294 0.0
C720 C 0.17163 0.56653 0.7388 0.0
C721 C 0.16868 0.54488 0.75132 0.0
C722 C 0.17171 0.56781 0.51898 0.0
C723 C 0.17234 0.58047 0.80677 0.0
C724 C 0.18192 0.63347 0.62642 0.0
C725 C 0.15971 0.62943 0.62593 0.0
C726 C 0.18633 0.61562 0.63826 0.0
C727 C 0.16804 0.59335 0.64877 0.0
C728 C 0.14558 0.58925 0.64586 0.0
C729 C 0.14174 0.60733 0.6349 0.0
C730 C 0.21046 0.62065 0.64158 0.0
C731 C 0.12552 0.56576 0.6554 0.0
H732 H 0.16705 0.52831 0.56703 0.0
H733 H 0.16666 0.53847 0.80923 0.0
H734 H 0.15497 0.56581 0.50479 0.0
H735 H 0.18452 0.58587 0.51098 0.0
H736 H 0.17523 0.55753 0.47801 0.0
H737 H 0.17615 0.57441 0.86066 0.0
H738 H 0.18521 0.5985 0.79832 0.0
H739 H 0.1557 0.57943 0.81316 0.0
H740 H 0.1958 0.65063 0.61999 0.0
H741 H 0.12456 0.60425 0.63402 0.0
H742 H 0.21301 0.60957 0.60139 0.0
H743 H 0.21423 0.61701 0.69988 0.0
H744 H 0.22269 0.63855 0.62747 0.0
H745 H 0.12613 0.55423 0.61202 0.0
H746 H 0.10917 0.56541 0.64958 0.0
H747 H 0.12607 0.55901 0.71259 0.0
C748 C 0.60572 0.14196 0.05282 0.0
C749 C 0.62858 0.15864 0.04978 0.0
C750 C 0.58866 0.14711 0.03828 0.0
C751 C 0.59453 0.1696 0.02035 0.0
C752 C 0.61759 0.18678 0.02031 0.0
C753 C 0.63442 0.18108 0.0352 0.0
C754 C 0.56432 0.12825 0.04001 0.0
C755 C 0.62449 0.21094 0.00195 0.0
C756 C 0.5464 0.16857 0.91024 0.0
C757 C 0.53347 0.16976 0.97027 0.0
C758 C 0.5677 0.17086 0.92443 0.0
C759 C 0.57618 0.17448 0.00029 0.0
C760 C 0.56426 0.17822 0.05931 0.0
C761 C 0.54299 0.17572 0.04362 0.0
C762 C 0.57994 0.16696 0.85966 0.0
C763 C 0.57276 0.18245 0.14071 0.0
H764 H 0.60118 0.12464 0.06507 0.0
H765 H 0.6521 0.19397 0.03253 0.0
H766 H 0.55452 0.13233 0.08112 0.0
H767 H 0.55656 0.12636 0.98275 0.0
H768 H 0.56265 0.11179 0.0566 0.0
H769 H 0.64272 0.22265 0.01322 0.0
H770 H 0.62108 0.2123 0.94071 0.0
H771 H 0.61441 0.21646 0.03597 0.0
H772 H 0.53905 0.16387 0.85356 0.0
H773 H 0.53306 0.17684 0.09001 0.0
H774 H 0.57771 0.14977 0.86492 0.0
H775 H 0.59832 0.17924 0.86219 0.0
H776 H 0.57338 0.16833 0.80294 0.0
H777 H 0.56958 0.1663 0.16669 0.0
H778 H 0.56409 0.18934 0.17609 0.0
H779 H 0.59123 0.19437 0.14268 0.0
C780 C 0.34635 0.39479 0.34441 0.0
C781 C 0.33019 0.38863 0.28624 0.0
C782 C 0.35526 0.38093 0.36422 0.0
C783 C 0.34809 0.36044 0.3242 0.0
C784 C 0.33103 0.35362 0.26757 0.0
C785 C 0.32215 0.36776 0.24954 0.0
C786 C 0.37317 0.38879 0.42566 0.0
C787 C 0.32299 0.33196 0.22342 0.0
C788 C 0.39398 0.34482 0.31392 0.0
C789 C 0.38783 0.32891 0.37295 0.0
C790 C 0.38047 0.35418 0.29474 0.0
C791 C 0.36037 0.34774 0.33625 0.0
C792 C 0.35354 0.33095 0.39386 0.0
C793 C 0.36731 0.32159 0.41125 0.0
C794 C 0.38833 0.37178 0.23225 0.0
C795 C 0.33228 0.32368 0.43957 0.0
H796 H 0.35238 0.41075 0.37387 0.0
H797 H 0.30962 0.36291 0.20463 0.0
H798 H 0.36895 0.3751 0.46778 0.0
H799 H 0.38963 0.3931 0.39945 0.0
H800 H 0.37518 0.40388 0.4566 0.0
H801 H 0.30786 0.3277 0.18809 0.0
H802 H 0.33668 0.33365 0.18504 0.0
H803 H 0.31891 0.31773 0.26296 0.0
H804 H 0.40966 0.35029 0.28326 0.0
H805 H 0.36249 0.30927 0.45684 0.0
H806 H 0.39314 0.38847 0.25758 0.0
H807 H 0.37446 0.36762 0.19093 0.0
H808 H 0.4031 0.37327 0.20053 0.0
H809 H 0.33459 0.33775 0.47723 0.0
H810 H 0.32791 0.30869 0.47579 0.0
H811 H 0.31786 0.3197 0.40102 0.0
C812 C 0.04857 0.38793 0.6407 0.0
C813 C 0.05992 0.3825 0.69617 0.0
C814 C 0.02554 0.37361 0.62592 0.0
C815 C 0.01336 0.35334 0.66809 0.0
C816 C 0.02494 0.34717 0.72162 0.0
C817 C 0.04818 0.36182 0.73487 0.0
C818 C 0.01402 0.38084 0.56784 0.0
C819 C 0.01256 0.3257 0.76767 0.0
C820 C 0.95232 0.33812 0.69062 0.0
C821 C 0.94173 0.32252 0.63128 0.0
C822 C 0.9753 0.34699 0.70675 0.0
C823 C 0.98821 0.34034 0.66181 0.0
C824 C 0.97732 0.32356 0.60468 0.0
C825 C 0.9541 0.31473 0.59028 0.0
C826 C 0.98605 0.36461 0.76882 0.0
C827 C 0.99046 0.31598 0.55564 0.0
H828 H 0.05762 0.40374 0.60972 0.0
H829 H 0.0569 0.35754 0.77769 0.0
H830 H 0.00405 0.36693 0.52703 0.0
H831 H 1.0021 0.38487 0.59744 0.0
H832 H 0.02625 0.39597 0.53492 0.0
H833 H 0.02435 0.32171 0.79853 0.0
H834 H 1.00155 0.32752 0.81034 0.0
H835 H 1.00149 0.31126 0.73015 0.0
H836 H 0.94272 0.34392 0.72339 0.0
H837 H 0.94595 0.30262 0.54448 0.0
H838 H 0.9973 0.38133 0.74248 0.0
H839 H 0.99659 0.36062 0.8068 0.0
H840 H 0.97328 0.36594 0.8043 0.0
H841 H 1.00115 0.32963 0.51486 0.0
H842 H 0.97916 0.30053 0.52239 0.0
H843 H 1.00189 0.31262 0.59134 0.0
C844 C 0.66272 0.04893 0.97609 0.0
C845 C 0.67903 0.06007 0.03308 0.0
C846 C 0.6545 0.02609 0.95951 0.0
C847 C 0.66263 0.01387 0.00135 0.0
C848 C 0.68004 0.02532 0.05611 0.0
C849 C 0.68813 0.04839 0.07122 0.0
C850 C 0.6361 0.01473 0.90016 0.0
C851 C 0.68921 0.01293 0.10165 0.0
C852 C 0.61671 0.9528 0.01929 0.0
C853 C 0.6218 0.94264 0.95877 0.0
C854 C 0.6309 0.97561 0.0376 0.0
C855 C 0.65066 0.98877 0.99382 0.0
C856 C 0.65672 0.97823 0.93592 0.0
C857 C 0.64221 0.95518 0.91917 0.0
C858 C 0.62382 0.98598 0.10032 0.0
C859 C 0.67767 0.99161 0.88821 0.0
H860 H 0.65587 0.05796 0.94548 0.0
H861 H 0.70079 0.05696 0.11516 0.0
H862 H 0.64042 0.00511 0.85907 0.0
H863 H 0.62005 0.00252 0.92859 0.0
H864 H 0.6332 0.02703 0.86768 0.0
H865 H 0.70499 0.02473 0.13249 0.0
H866 H 0.67644 0.00186 0.14434 0.0
H867 H 0.69262 0.00194 0.06385 0.0
H868 H 0.60111 0.94307 0.05089 0.0
H869 H 0.64622 0.94737 0.87241 0.0
H870 H 0.61844 0.99739 0.07464 0.0
H871 H 0.6382 0.99628 0.1391 0.0
H872 H 0.60958 0.973 0.13481 0.0
H873 H 0.67479 0.00227 0.847 0.0
H874 H 0.68214 0.98047 0.85546 0.0
H875 H 0.69222 0.00308 0.92473 0.0
C876 C 0.62265 0.67212 0.29281 0.0
C877 C 0.62494 0.68364 0.36146 0.0
C878 C 0.63664 0.66319 0.27584 0.0
C879 C 0.65319 0.66551 0.32949 0.0
C880 C 0.65674 0.67866 0.39639 0.0
C881 C 0.64259 0.68773 0.4115 0.0
C882 C 0.63234 0.64958 0.20338 0.0
C883 C 0.67427 0.68165 0.45478 0.0
C884 C 0.65898 0.61333 0.33235 0.0
C885 C 0.67799 0.6197 0.28604 0.0
C886 C 0.65159 0.62854 0.35028 0.0
C887 C 0.6635 0.65086 0.32137 0.0
C888 C 0.6834 0.65782 0.27773 0.0
C889 C 0.69043 0.64211 0.26041 0.0
C890 C 0.63028 0.62028 0.39698 0.0
C891 C 0.69667 0.68152 0.24655 0.0
H892 H 0.6092 0.66927 0.25343 0.0
H893 H 0.64438 0.69667 0.46459 0.0
H894 H 0.64845 0.6543 0.17379 0.0
H895 H 0.62419 0.63137 0.21795 0.0
H896 H 0.62113 0.65199 0.16312 0.0
H897 H 0.67793 0.69558 0.49536 0.0
H898 H 0.66804 0.6658 0.48803 0.0
H899 H 0.69022 0.68514 0.42642 0.0
H900 H 0.64939 0.59614 0.35338 0.0
H901 H 0.70523 0.64719 0.22508 0.0
H902 H 0.61679 0.61998 0.36078 0.0
H903 H 0.63324 0.63191 0.44543 0.0
H904 H 0.62404 0.60302 0.42019 0.0
H905 H 0.68712 0.68362 0.19902 0.0
H906 H 0.71347 0.68534 0.22457 0.0
H907 H 0.6991 0.69404 0.29131 0.0
C908 C 0.05329 0.66431 0.71149 0.0
C909 C 0.06325 0.67949 0.65065 0.0
C910 C 0.0304 0.65527 0.72946 0.0
C911 C 0.01694 0.66131 0.68481 0.0
C912 C 0.02721 0.67772 0.62619 0.0
C913 C 0.05036 0.68675 0.61001 0.0
C914 C 0.02033 0.63809 0.7931 0.0
C915 C 0.01348 0.68463 0.57738 0.0
C916 C 0.95689 0.61281 0.66803 0.0
C917 C 0.94554 0.61825 0.72342 0.0
C918 C 0.97978 0.62735 0.65197 0.0
C919 C 0.99185 0.64791 0.6927 0.0
C920 C 0.98027 0.65407 0.7462 0.0
C921 C 0.95715 0.63916 0.76079 0.0
C922 C 0.99131 0.62011 0.59399 0.0
C923 C 0.99253 0.67584 0.7907 0.0
H924 H 0.06331 0.65894 0.74397 0.0
H925 H 0.05804 0.69853 0.56306 0.0
H926 H 0.00975 0.64203 0.83105 0.0
H927 H 0.00925 0.6211 0.76828 0.0
H928 H 0.03351 0.63739 0.82832 0.0
H929 H 0.02437 0.69997 0.54297 0.0
H930 H 0.00275 0.67067 0.53766 0.0
H931 H 1.00205 0.6879 0.61338 0.0
H932 H 0.94794 0.59681 0.63803 0.0
H933 H 0.94844 0.64348 0.8035 0.0
H934 H 0.00365 0.61665 0.62345 0.0
H935 H 1.00082 0.63382 0.552 0.0
H936 H 0.97914 0.60465 0.56242 0.0
H937 H 0.00394 0.67457 0.83304 0.0
H938 H 0.98067 0.67969 0.82179 0.0
H939 H 0.00317 0.69015 0.75205 0.0
C940 C 0.36564 0.04917 0.94276 0.0
C941 C 0.38622 0.06196 0.98119 0.0
C942 C 0.35159 0.02601 0.95916 0.0
C943 C 0.35824 0.01561 0.01577 0.0
C944 C 0.37833 0.02891 0.05783 0.0
C945 C 0.39208 0.05181 0.03972 0.0
C946 C 0.33033 0.01244 0.91299 0.0
C947 C 0.38603 0.01868 0.1192 0.0
C948 C 0.32075 0.95648 0.09715 0.0
C949 C 0.32927 0.94435 0.0586 0.0
C950 C 0.32911 0.97956 0.08117 0.0
C951 C 0.34614 0.99053 0.02487 0.0
C952 C 0.35371 0.97788 0.98282 0.0
C953 C 0.3453 0.95506 0.00049 0.0
C954 C 0.32062 0.99244 0.12729 0.0
C955 C 0.37165 0.98873 0.92178 0.0
H956 H 0.36102 0.05697 0.89758 0.0
H957 H 0.40781 0.0617 0.07051 0.0
H958 H 0.33281 1.00133 0.87265 0.0
H959 H 0.31597 1.00137 0.95082 0.0
H960 H 0.3258 0.02341 0.87947 0.0
H961 H 0.40068 0.03172 0.15204 0.0
H962 H 0.37205 0.0086 0.15969 0.0
H963 H 0.39099 0.00707 0.09254 0.0
H964 H 0.30832 0.94825 0.14197 0.0
H965 H 0.3517 0.94567 0.96959 0.0
H966 H 0.31671 0.00307 0.0894 0.0
H967 H 0.33399 0.00393 0.16761 0.0
H968 H 0.30528 0.98101 0.16081 0.0
H969 H 0.36722 0.99836 0.88107 0.0
H970 H 0.37399 0.97611 0.88911 0.0
H971 H 0.388 1.00086 0.94868 0.0
C972 C 0.28334 0.42543 0.58769 0.0
C973 C 0.29367 0.41823 0.53418 0.0
C974 C 0.28883 0.42699 0.66575 0.0
C975 C 0.30484 0.42097 0.69066 0.0
C976 C 0.31461 0.41281 0.63721 0.0
C977 C 0.30898 0.41164 0.55959 0.0
C978 C 0.27813 0.43587 0.72106 0.0
C979 C 0.33143 0.40582 0.6617 0.0
C980 C 0.33773 0.44754 0.87298 0.0
C981 C 0.32588 0.43037 0.92667 0.0
C982 C 0.33103 0.44469 0.79599 0.0
C983 C 0.31214 0.4241 0.77204 0.0
C984 C 0.30034 0.40655 0.8257 0.0
C985 C 0.30732 0.40994 0.9024 0.0
C986 C 0.34391 0.46388 0.74052 0.0
C987 C 0.28026 0.38428 0.80224 0.0
H988 H 0.27164 0.43069 0.56801 0.0
H989 H 0.31669 0.40571 0.51844 0.0
H990 H 0.27007 0.42385 0.76906 0.0
H991 H 0.29134 0.45205 0.74609 0.0
H992 H 0.26519 0.43879 0.69319 0.0
H993 H 0.33646 0.39862 0.6137 0.0
H994 H 0.34682 0.42065 0.6848 0.0
H995 H 0.3242 0.39309 0.70816 0.0
H996 H 0.35184 0.46347 0.89162 0.0
H997 H 0.29824 0.39654 0.94358 0.0
H998 H 0.33238 0.46911 0.7149 0.0
H999 H 0.35068 0.45823 0.69304 0.0
H1000 H 0.3582 0.47881 0.76829 0.0
H1001 H 0.26665 0.38708 0.77992 0.0
H1002 H 0.27337 0.37212 0.85052 0.0
H1003 H 0.2851 0.37658 0.75541 0.0
C1004 C 0.897 0.30159 0.25239 0.0
C1005 C 0.89586 0.32059 0.27642 0.0
C1006 C 0.89325 0.29459 0.17574 0.0
C1007 C 0.88815 0.30682 0.12181 0.0
C1008 C 0.8872 0.32615 0.14548 0.0
C1009 C 0.89116 0.33285 0.22247 0.0
C1010 C 0.8946 0.27401 0.15261 0.0
C1011 C 0.88162 0.33953 0.0897 0.0
C1012 C 0.89743 0.30305 0.90968 0.0
C1013 C 0.87541 0.28834 0.88396 0.0
C1014 C 0.90191 0.3087 0.98729 0.0
C1015 C 0.88389 0.29953 0.04044 0.0
C1016 C 0.86169 0.28409 0.01525 0.0
C1017 C 0.85774 0.27859 0.93721 0.0
C1018 C 0.92586 0.32491 0.01208 0.0
C1019 C 0.84201 0.27402 0.07025 0.0
H1020 H 0.90086 0.2922 0.29371 0.0
H1021 H 0.8899 0.34731 0.24088 0.0
H1022 H 0.87802 0.26081 0.13013 0.0
H1023 H 0.90713 0.27841 0.106 0.0
H1024 H 0.89942 0.26678 0.20111 0.0
H1025 H 0.88154 0.35413 0.11724 0.0
H1026 H 0.89409 0.3459 0.04235 0.0
H1027 H 0.86476 0.32845 0.06392 0.0
H1028 H 0.91118 0.3103 0.8688 0.0
H1029 H 0.84069 0.26737 0.91733 0.0
H1030 H 0.93091 0.31733 0.05876 0.0
H1031 H 0.92698 0.34057 0.03499 0.0
H1032 H 0.93812 0.32955 0.9643 0.0
H1033 H 0.84553 0.26574 0.11868 0.0
H1034 H 0.82603 0.2614 0.04228 0.0
H1035 H 0.83957 0.28763 0.09468 0.0
C1036 C 0.55924 0.87852 0.22156 0.0
C1037 C 0.57335 0.86999 0.19982 0.0
C1038 C 0.55576 0.88137 0.29892 0.0
C1039 C 0.56693 0.87594 0.35605 0.0
C1040 C 0.58024 0.86627 0.33498 0.0
C1041 C 0.58308 0.8632 0.25729 0.0
C1042 C 0.54097 0.8912 0.31932 0.0
C1043 C 0.59247 0.86027 0.39425 0.0
C1044 C 0.58319 0.91014 0.53928 0.0
C1045 C 0.56782 0.89459 0.59186 0.0
C1046 C 0.58288 0.9043 0.46229 0.0
C1047 C 0.56657 0.88244 0.43696 0.0
C1048 C 0.55058 0.86683 0.48928 0.0
C1049 C 0.55152 0.87305 0.56636 0.0
C1050 C 0.60049 0.92131 0.40857 0.0
C1051 C 0.53274 0.84349 0.46422 0.0
H1052 H 0.55154 0.88386 0.17852 0.0
H1053 H 0.59343 0.85596 0.2417 0.0
H1054 H 0.52901 0.8812 0.36561 0.0
H1055 H 0.55162 0.90868 0.34096 0.0
H1056 H 0.53115 0.8917 0.26942 0.0
H1057 H 0.60062 0.8512 0.36908 0.0
H1058 H 0.60571 0.87593 0.42203 0.0
H1059 H 0.58064 0.84957 0.43969 0.0
H1060 H 0.59606 0.92665 0.55897 0.0
H1061 H 0.53954 0.86104 0.60687 0.0
H1062 H 0.5922 0.92458 0.3596 0.0
H1063 H 0.61089 0.91442 0.38494 0.0
H1064 H 0.61188 0.93763 0.43726 0.0
H1065 H 0.52031 0.83418 0.51026 0.0
H1066 H 0.54083 0.83356 0.44728 0.0
H1067 H 0.52358 0.84458 0.41343 0.0
C1068 C 0.66544 0.57471 0.87389 0.0
C1069 C 0.67825 0.57129 0.92914 0.0
C1070 C 0.6714 0.57683 0.79621 0.0
C1071 C 0.69035 0.57502 0.77358 0.0
C1072 C 0.70309 0.57119 0.82917 0.0
C1073 C 0.69699 0.56955 0.90632 0.0
C1074 C 0.65758 0.58117 0.73846 0.0
C1075 C 0.72315 0.56875 0.80728 0.0
C1076 C 0.69294 0.55937 0.56735 0.0
C1077 C 0.70857 0.5803 0.53595 0.0
C1078 C 0.68702 0.55736 0.64485 0.0
C1079 C 0.69673 0.57686 0.69165 0.0
C1080 C 0.71268 0.59805 0.66036 0.0
C1081 C 0.71856 0.59948 0.58282 0.0
C1082 C 0.67036 0.5344 0.67658 0.0
C1083 C 0.72319 0.61924 0.70841 0.0
H1084 H 0.65105 0.57618 0.89177 0.0
H1085 H 0.7067 0.56653 0.94894 0.0
H1086 H 0.66859 0.59704 0.70686 0.0
H1087 H 0.65025 0.56731 0.69581 0.0
H1088 H 0.64363 0.58256 0.76559 0.0
H1089 H 0.73018 0.56422 0.857 0.0
H1090 H 0.71826 0.55556 0.76272 0.0
H1091 H 0.73664 0.58486 0.78284 0.0
H1092 H 0.68538 0.54455 0.53098 0.0
H1093 H 0.7304 0.6157 0.55816 0.0
H1094 H 0.65529 0.53458 0.69914 0.0
H1095 H 0.67809 0.53017 0.72502 0.0
H1096 H 0.66474 0.52086 0.63281 0.0
H1097 H 0.70977 0.6221 0.73215 0.0
H1098 H 0.73518 0.63441 0.67519 0.0
H1099 H 0.73235 0.6173 0.75757 0.0
C1100 C 0.11339 0.66953 0.2382 0.0
C1101 C 0.10847 0.68173 0.29168 0.0
C1102 C 0.11745 0.6762 0.16122 0.0
C1103 C 0.11634 0.6954 0.13705 0.0
C1104 C 0.11099 0.70756 0.19049 0.0
C1105 C 0.1072 0.70062 0.26722 0.0
C1106 C 0.12333 0.66293 0.10599 0.0
C1107 C 0.10941 0.72797 0.16675 0.0
C1108 C 0.14698 0.72363 0.95285 0.0
C1109 C 0.12945 0.71361 0.8992 0.0
C1110 C 0.1429 0.71823 0.03092 0.0
C1111 C 0.1207 0.70264 0.05567 0.0
C1112 C 0.1028 0.69321 0.00205 0.0
C1113 C 0.10742 0.69874 0.92443 0.0
C1114 C 0.16246 0.72855 0.08642 0.0
C1115 C 0.07884 0.67686 0.02636 0.0
H1116 H 0.11475 0.65516 0.25703 0.0
H1117 H 0.10319 0.70996 0.30826 0.0
H1118 H 0.11092 0.65639 0.05843 0.0
H1119 H 0.14018 0.67413 0.08046 0.0
H1120 H 0.12355 0.64844 0.13395 0.0
H1121 H 0.10439 0.73513 0.21488 0.0
H1122 H 0.12596 0.74128 0.14447 0.0
H1123 H 0.09693 0.72339 0.11983 0.0
H1124 H 0.16403 0.73499 0.93327 0.0
H1125 H 0.09378 0.69129 0.88316 0.0
H1126 H 0.16498 0.71508 0.11167 0.0
H1127 H 0.15874 0.73686 0.13424 0.0
H1128 H 0.17846 0.74119 0.05864 0.0
H1129 H 0.07783 0.66128 0.04964 0.0
H1130 H 0.06667 0.67209 0.97822 0.0
H1131 H 0.0736 0.68437 0.07264 0.0
C1132 C 0.43453 0.1323 0.60062 0.0
C1133 C 0.43268 0.11182 0.62397 0.0
C1134 C 0.43257 0.13651 0.52344 0.0
C1135 C 0.42808 0.11958 0.46853 0.0
C1136 C 0.42612 0.0988 0.49178 0.0
C1137 C 0.42872 0.09527 0.56939 0.0
C1138 C 0.43529 0.15906 0.50089 0.0
C1139 C 0.42112 0.08029 0.43478 0.0
C1140 C 0.40289 0.12311 0.27883 0.0
C1141 C 0.42182 0.13184 0.2309 0.0
C1142 C 0.40463 0.11889 0.35643 0.0
C1143 C 0.42586 0.12384 0.38659 0.0
C1144 C 0.44512 0.1332 0.33872 0.0
C1145 C 0.44282 0.13695 0.26133 0.0
C1146 C 0.38372 0.10877 0.4058 0.0
C1147 C 0.46815 0.13928 0.36924 0.0
H1148 H 0.43789 0.14521 0.64286 0.0
H1149 H 0.42717 0.07942 0.58782 0.0
H1150 H 0.44703 0.16637 0.45174 0.0
H1151 H 0.41872 0.15679 0.48286 0.0
H1152 H 0.44183 0.17135 0.54879 0.0
H1153 H 0.4196 0.06495 0.4624 0.0
H1154 H 0.40513 0.07557 0.40416 0.0
H1155 H 0.43472 0.08642 0.39123 0.0
H1156 H 0.38662 0.11892 0.25501 0.0
H1157 H 0.45748 0.14393 0.22425 0.0
H1158 H 0.3861 0.12025 0.45418 0.0
H1159 H 0.38076 0.09257 0.43063 0.0
H1160 H 0.36843 0.10559 0.37329 0.0
H1161 H 0.47284 0.15155 0.4169 0.0
H1162 H 0.48147 0.14675 0.32458 0.0
H1163 H 0.4678 0.12401 0.39259 0.0
C1164 C 0.60513 0.71967 0.05563 0.0
C1165 C 0.58618 0.7124 0.10286 0.0
C1166 C 0.6027 0.71335 0.97835 0.0
C1167 C 0.58079 0.69964 0.94764 0.0
C1168 C 0.56159 0.69256 0.99482 0.0
C1169 C 0.56454 0.69895 0.072 0.0
C1170 C 0.62355 0.72121 0.92966 0.0
C1171 C 0.53796 0.67823 0.96381 0.0
C1172 C 0.57361 0.70137 0.73341 0.0
C1173 C 0.57274 0.68137 0.70943 0.0
C1174 C 0.57625 0.7075 0.81072 0.0
C1175 C 0.57793 0.69322 0.86558 0.0
C1176 C 0.57685 0.67287 0.842 0.0
C1177 C 0.57417 0.66713 0.76403 0.0
C1178 C 0.57705 0.72919 0.83359 0.0
C1179 C 0.57877 0.65732 0.89902 0.0
H1180 H 0.62187 0.72977 0.07967 0.0
H1181 H 0.5499 0.69349 0.10847 0.0
H1182 H 0.62389 0.70642 0.90504 0.0
H1183 H 0.62318 0.73147 0.88111 0.0
H1184 H 0.63937 0.73148 0.9626 0.0
H1185 H 0.52484 0.67407 0.00825 0.0
H1186 H 0.53503 0.68723 0.91629 0.0
H1187 H 0.53588 0.66225 0.94014 0.0
H1188 H 0.57198 0.71217 0.69162 0.0
H1189 H 0.57365 0.65175 0.7455 0.0
H1190 H 0.59184 0.73951 0.87082 0.0
H1191 H 0.56166 0.72524 0.86673 0.0
H1192 H 0.57802 0.73949 0.78318 0.0
H1193 H 0.59513 0.6665 0.92977 0.0
H1194 H 0.5776 0.64213 0.8714 0.0
H1195 H 0.56519 0.65175 0.94248 0.0
C1196 C 0.91086 0.57275 0.12961 0.0
C1197 C 0.89471 0.56962 0.07445 0.0
C1198 C 0.90733 0.57546 0.20711 0.0
C1199 C 0.88697 0.57455 0.22966 0.0
C1200 C 0.87046 0.57099 0.17418 0.0
C1201 C 0.87462 0.56877 0.09717 0.0
C1202 C 0.92542 0.57948 0.26473 0.0
C1203 C 0.84836 0.56948 0.19601 0.0
C1204 C 0.86912 0.56005 0.43663 0.0
C1205 C 0.8753 0.58129 0.46741 0.0
C1206 C 0.87255 0.55758 0.35909 0.0
C1207 C 0.88273 0.5769 0.3115 0.0
C1208 C 0.88875 0.59839 0.34205 0.0
C1209 C 0.88478 0.60029 0.41975 0.0
C1210 C 0.86538 0.53431 0.32821 0.0
C1211 C 0.89985 0.61938 0.29311 0.0
H1212 H 0.92642 0.57355 0.11176 0.0
H1213 H 0.86197 0.56601 0.05459 0.0
H1214 H 0.9308 0.59556 0.29559 0.0
H1215 H 0.9186 0.56577 0.30799 0.0
H1216 H 0.94049 0.58024 0.23761 0.0
H1217 H 0.83991 0.55676 0.24192 0.0
H1218 H 0.85157 0.58598 0.21866 0.0
H1219 H 0.83666 0.56481 0.14666 0.0
H1220 H 0.86159 0.54536 0.4736 0.0
H1221 H 0.88981 0.61674 0.44391 0.0
H1222 H 0.88029 0.5338 0.30569 0.0
H1223 H 0.85344 0.53034 0.27989 0.0
H1224 H 0.85713 0.52096 0.37246 0.0
H1225 H 0.91592 0.62168 0.26933 0.0
H1226 H 0.90351 0.63481 0.32565 0.0
H1227 H 0.8888 0.61759 0.24397 0.0
C1228 C 0.30893 0.87296 0.43552 0.0
C1229 C 0.32765 0.89341 0.41249 0.0
C1230 C 0.30279 0.86861 0.51267 0.0
C1231 C 0.31539 0.88537 0.56791 0.0
C1232 C 0.33439 0.90605 0.54506 0.0
C1233 C 0.34045 0.90973 0.46745 0.0
C1234 C 0.2827 0.84617 0.53472 0.0
C1235 C 0.34811 0.92437 0.60244 0.0
C1236 C 0.28688 0.88296 0.75675 0.0
C1237 C 0.2967 0.87399 0.80545 0.0
C1238 C 0.29281 0.88677 0.67911 0.0
C1239 C 0.30872 0.8812 0.64966 0.0
C1240 C 0.31822 0.87158 0.69822 0.0
C1241 C 0.31217 0.8682 0.77567 0.0
C1242 C 0.28242 0.89715 0.62895 0.0
C1243 C 0.33479 0.8649 0.66843 0.0
H1244 H 0.29922 0.86019 0.39302 0.0
H1245 H 0.35482 0.92556 0.44931 0.0
H1246 H 0.28676 0.83878 0.58454 0.0
H1247 H 0.26845 0.84868 0.55149 0.0
H1248 H 0.27704 0.83385 0.48689 0.0
H1249 H 0.36226 0.93954 0.57524 0.0
H1250 H 0.33709 0.9295 0.63253 0.0
H1251 H 0.35514 0.91788 0.64636 0.0
H1252 H 0.27514 0.88769 0.77997 0.0
H1253 H 0.31954 0.86101 0.81325 0.0
H1254 H 0.27332 0.8857 0.5805 0.0
H1255 H 0.2959 0.91323 0.60424 0.0
H1256 H 0.27042 0.90061 0.66081 0.0
H1257 H 0.32705 0.85264 0.62082 0.0
H1258 H 0.34027 0.8572 0.71348 0.0
H1259 H 0.34995 0.87994 0.64518 0.0
C1260 C 0.44676 0.33553 0.78398 0.0
C1261 C 0.42971 0.32382 0.72977 0.0
C1262 C 0.44364 0.3288 0.861 0.0
C1263 C 0.42289 0.31002 0.88443 0.0
C1264 C 0.40547 0.29837 0.83025 0.0
C1265 C 0.40911 0.30539 0.75359 0.0
C1266 C 0.4627 0.34155 0.91705 0.0
C1267 C 0.38306 0.27838 0.85309 0.0
C1268 C 0.42336 0.28085 0.06905 0.0
C1269 C 0.41602 0.29115 0.12223 0.0
C1270 C 0.42526 0.28649 0.99105 0.0
C1271 C 0.41948 0.30265 0.96579 0.0
C1272 C 0.41121 0.31241 0.01884 0.0
C1273 C 0.40965 0.3066 0.09642 0.0
C1274 C 0.43422 0.27576 0.93617 0.0
C1275 C 0.40449 0.3294 0.99399 0.0
H1276 H 0.46282 0.34955 0.76576 0.0
H1277 H 0.39578 0.29644 0.71211 0.0
H1278 H 0.45698 0.34831 0.96434 0.0
H1279 H 0.46778 0.32992 0.94287 0.0
H1280 H 0.47774 0.35581 0.88973 0.0
H1281 H 0.37101 0.27162 0.80445 0.0
H1282 H 0.38566 0.26468 0.87558 0.0
H1283 H 0.37531 0.28327 0.89964 0.0
H1284 H 0.42847 0.26907 0.08895 0.0
H1285 H 0.40361 0.31429 0.13723 0.0
H1286 H 0.45056 0.28893 0.91197 0.0
H1287 H 0.42238 0.26789 0.88757 0.0
H1288 H 0.43687 0.26267 0.96416 0.0
H1289 H 0.41946 0.34473 0.97127 0.0
H1290 H 0.39725 0.33451 0.0417 0.0
H1291 H 0.39187 0.3223 0.94716 0.0
C1292 C 0.13632 0.44096 0.4091 0.0
C1293 C 0.13063 0.41973 0.43886 0.0
C1294 C 0.133 0.44365 0.33163 0.0
C1295 C 0.12352 0.42456 0.28298 0.0
C1296 C 0.11811 0.40312 0.31236 0.0
C1297 C 0.12186 0.40098 0.39008 0.0
C1298 C 0.13954 0.46688 0.30193 0.0
C1299 C 0.10791 0.38239 0.26208 0.0
C1300 C 0.09502 0.42792 0.10087 0.0
C1301 C 0.11144 0.43169 0.046 0.0
C1302 C 0.09864 0.42535 0.17838 0.0
C1303 C 0.11936 0.4271 0.20124 0.0
C1304 C 0.13619 0.43148 0.1461 0.0
C1305 C 0.13191 0.43345 0.06901 0.0
C1306 C 0.08024 0.42051 0.23567 0.0
C1307 C 0.15868 0.43392 0.16817 0.0
H1308 H 0.14337 0.45549 0.44678 0.0
H1309 H 0.11724 0.38453 0.4133 0.0
H1310 H 0.15182 0.47149 0.25435 0.0
H1311 H 0.12445 0.46692 0.2787 0.0
H1312 H 0.14718 0.48005 0.34704 0.0
H1313 H 0.10457 0.36694 0.29386 0.0
H1314 H 0.09178 0.37966 0.23732 0.0
H1315 H 0.11941 0.38487 0.21367 0.0
H1316 H 0.07918 0.42644 0.08272 0.0
H1317 H 0.14473 0.43667 0.02656 0.0
H1318 H 0.08659 0.43399 0.27971 0.0
H1319 H 0.07524 0.40437 0.26563 0.0
H1320 H 0.06502 0.41937 0.20843 0.0
H1321 H 0.16593 0.44519 0.21848 0.0
H1322 H 0.17106 0.44085 0.1206 0.0
H1323 H 0.15628 0.41716 0.18415 0.0
C1324 C 0.69737 0.13019 0.41106 0.0
C1325 C 0.67916 0.10936 0.38803 0.0
C1326 C 0.70343 0.13472 0.48823 0.0
C1327 C 0.69132 0.11781 0.54352 0.0
C1328 C 0.67288 0.09672 0.52065 0.0
C1329 C 0.66685 0.09284 0.44301 0.0
C1330 C 0.72287 0.15758 0.51032 0.0
C1331 C 0.65971 0.07821 0.57806 0.0
C1332 C 0.72037 0.12199 0.73295 0.0
C1333 C 0.70986 0.13035 0.78111 0.0
C1334 C 0.71446 0.11776 0.65535 0.0
C1335 C 0.69786 0.12228 0.62537 0.0
C1336 C 0.68764 0.13127 0.6734 0.0
C1337 C 0.69368 0.13507 0.75082 0.0
C1338 C 0.72563 0.10807 0.60581 0.0
C1339 C 0.67031 0.13685 0.64305 0.0
H1340 H 0.70669 0.14309 0.36854 0.0
H1341 H 0.65288 0.07672 0.42488 0.0
H1342 H 0.71821 0.1647 0.55942 0.0
H1343 H 0.73749 0.15582 0.52825 0.0
H1344 H 0.72826 0.16978 0.46219 0.0
H1345 H 0.64603 0.0627 0.55082 0.0
H1346 H 0.67124 0.07383 0.6086 0.0
H1347 H 0.65209 0.08418 0.62163 0.0
H1348 H 0.73267 0.11808 0.75658 0.0
H1349 H 0.68576 0.14177 0.788 0.0
H1350 H 0.73445 0.1196 0.55725 0.0
H1351 H 0.71264 0.0917 0.58122 0.0
H1352 H 0.73805 0.10532 0.6381 0.0
H1353 H 0.67763 0.1491 0.59524 0.0
H1354 H 0.66427 0.14413 0.68774 0.0
H1355 H 0.65556 0.12139 0.61993 0.0
loop_
_geom_bond_atom_site_label_1
_geom_bond_atom_site_label_2
_geom_bond_distance
_geom_bond_site_symmetry_2
_ccdc_geom_bond_type
Co0 N4 2.148 . S
Co0 N10 2.128 . S
Co0 N20 2.194 . S
Co0 O25 2.351 . S
Co0 O26 2.155 . S
Co0 O27 2.096 . S
C1 N4 1.301 . S
C1 N5 1.328 . S
C1 H6 0.930 . S
C2 C3 1.333 . S
C2 N4 1.317 . S
C2 H7 0.930 . S
C3 C2 1.333 . S
C3 N5 1.350 . S
C3 H29 0.931 . S
N4 Co0 2.148 . S
N4 C1 1.301 . S
N4 C2 1.317 . S
N5 C1 1.328 . S
N5 C3 1.350 . S
H6 C1 0.930 . S
H7 C2 0.930 . S
C8 O9 1.224 . S
C8 O27 1.247 . S
O9 C8 1.224 . S
N10 Co0 2.128 . S
N10 C11 1.355 . S
N10 C13 1.311 . S
C11 N10 1.355 . S
C11 C12 1.363 . S
C11 H23 0.929 . S
C12 C11 1.363 . S
C12 N14 1.375 . S
C12 H30 0.931 . S
C13 N10 1.311 . S
C13 N14 1.347 . S
C13 H24 0.929 . S
N14 C12 1.375 . S
N14 C13 1.347 . S
C15 C18 1.365 . S
C15 N20 1.328 . S
C15 H21 0.929 . S
C16 C17 1.362 . S
C16 C19 1.378 . S
C16 H31 0.929 . S
C17 C16 1.362 . S
C17 C18 1.366 . S
C18 C15 1.365 . S
C18 C17 1.366 . S
C18 H32 0.930 . S
C19 C16 1.378 . S
C19 N20 1.315 . S
C19 H22 0.930 . S
N20 Co0 2.194 . S
N20 C15 1.328 . S
N20 C19 1.315 . S
H21 C15 0.929 . S
H22 C19 0.930 . S
H23 C11 0.929 . S
H24 C13 0.929 . S
O25 Co0 2.351 . S
O25 C28 1.244 . S
O26 Co0 2.155 . S
O26 C28 1.240 . S
O27 Co0 2.096 . S
O27 C8 1.247 . S
C28 O25 1.244 . S
C28 O26 1.240 . S
H29 C3 0.931 . S
H30 C12 0.931 . S
H31 C16 0.929 . S
H32 C18 0.930 . S
Co33 N37 2.148 . S
Co33 N43 2.128 . S
Co33 N53 2.194 . S
Co33 O58 2.351 . S
Co33 O59 2.155 . S
Co33 O60 2.096 . S
C34 N37 1.301 . S
C34 N38 1.328 . S
C34 H39 0.930 . S
C35 C36 1.333 . S
C35 N37 1.317 . S
C35 H40 0.930 . S
C36 C35 1.333 . S
C36 N38 1.350 . S
C36 H62 0.931 . S
N37 Co33 2.148 . S
N37 C34 1.301 . S
N37 C35 1.317 . S
N38 C34 1.328 . S
N38 C36 1.350 . S
H39 C34 0.930 . S
H40 C35 0.930 . S
C41 O42 1.224 . S
C41 O60 1.247 . S
O42 C41 1.224 . S
N43 Co33 2.128 . S
N43 C44 1.355 . S
N43 C46 1.311 . S
C44 N43 1.355 . S
C44 C45 1.363 . S
C44 H56 0.929 . S
C45 C44 1.363 . S
C45 N47 1.375 . S
C45 H63 0.931 . S
C46 N43 1.311 . S
C46 N47 1.347 . S
C46 H57 0.929 . S
N47 C45 1.375 . S
N47 C46 1.347 . S
C48 C51 1.365 . S
C48 N53 1.328 . S
C48 H54 0.929 . S
C49 C50 1.362 . S
C49 C52 1.378 . S
C49 H64 0.929 . S
C50 C49 1.362 . S
C50 C51 1.366 . S
C51 C48 1.365 . S
C51 C50 1.366 . S
C51 H65 0.930 . S
C52 C49 1.378 . S
C52 N53 1.315 . S
C52 H55 0.930 . S
N53 Co33 2.194 . S
N53 C48 1.328 . S
N53 C52 1.315 . S
H54 C48 0.929 . S
H55 C52 0.930 . S
H56 C44 0.929 . S
H57 C46 0.929 . S
O58 Co33 2.351 . S
O58 C61 1.244 . S
O59 Co33 2.155 . S
O59 C61 1.240 . S
O60 Co33 2.096 . S
O60 C41 1.247 . S
C61 O58 1.244 . S
C61 O59 1.240 . S
H62 C36 0.931 . S
H63 C45 0.931 . S
H64 C49 0.929 . S
H65 C51 0.930 . S
Co66 N70 2.148 1_556 S
Co66 N76 2.128 . S
Co66 N86 2.194 . S
Co66 O91 2.351 . S
Co66 O92 2.155 . S
Co66 O93 2.096 . S
C67 N70 1.301 . S
C67 N71 1.328 . S
C67 H72 0.930 . S
C68 C69 1.333 . S
C68 N70 1.317 . S
C68 H73 0.930 . S
C69 C68 1.333 . S
C69 N71 1.350 . S
C69 H95 0.931 . S
N70 Co66 2.148 1_554 S
N70 C67 1.301 . S
N70 C68 1.317 . S
N71 C67 1.328 . S
N71 C69 1.350 . S
H72 C67 0.930 . S
H73 C68 0.930 . S
C74 O75 1.224 . S
C74 O93 1.247 . S
O75 C74 1.224 . S
N76 Co66 2.128 . S
N76 C77 1.355 . S
N76 C79 1.311 . S
C77 N76 1.355 . S
C77 C78 1.363 . S
C77 H89 0.929 . S
C78 C77 1.363 . S
C78 N80 1.375 . S
C78 H96 0.931 . S
C79 N76 1.311 . S
C79 N80 1.347 . S
C79 H90 0.929 . S
N80 C78 1.375 . S
N80 C79 1.347 . S
C81 C84 1.365 . S
C81 N86 1.328 . S
C81 H87 0.929 . S
C82 C83 1.362 . S
C82 C85 1.378 . S
C82 H97 0.929 . S
C83 C82 1.362 . S
C83 C84 1.366 . S
C84 C81 1.365 . S
C84 C83 1.366 . S
C84 H98 0.930 . S
C85 C82 1.378 . S
C85 N86 1.315 . S
C85 H88 0.930 . S
N86 Co66 2.194 . S
N86 C81 1.328 . S
N86 C85 1.315 . S
H87 C81 0.929 . S
H88 C85 0.930 . S
H89 C77 0.929 . S
H90 C79 0.929 . S
O91 Co66 2.351 . S
O91 C94 1.244 . S
O92 Co66 2.155 . S
O92 C94 1.240 . S
O93 Co66 2.096 . S
O93 C74 1.247 . S
C94 O91 1.244 . S
C94 O92 1.240 . S
H95 C69 0.931 . S
H96 C78 0.931 . S
H97 C82 0.929 . S
H98 C84 0.930 . S
Co99 N103 2.148 . S
Co99 N109 2.128 . S
Co99 N119 2.194 . S
Co99 O124 2.351 . S
Co99 O125 2.155 . S
Co99 O126 2.096 . S
C100 N103 1.301 . S
C100 N104 1.328 . S
C100 H105 0.930 . S
C101 C102 1.333 . S
C101 N103 1.317 . S
C101 H106 0.930 . S
C102 C101 1.333 . S
C102 N104 1.350 . S
C102 H128 0.931 . S
N103 Co99 2.148 . S
N103 C100 1.301 . S
N103 C101 1.317 . S
N104 C100 1.328 . S
N104 C102 1.350 . S
H105 C100 0.930 . S
H106 C101 0.930 . S
C107 O108 1.224 . S
C107 O126 1.247 . S
O108 C107 1.224 . S
N109 Co99 2.128 . S
N109 C110 1.355 . S
N109 C112 1.311 . S
C110 N109 1.355 . S
C110 C111 1.363 . S
C110 H122 0.929 . S
C111 C110 1.363 . S
C111 N113 1.375 . S
C111 H129 0.931 . S
C112 N109 1.311 . S
C112 N113 1.347 . S
C112 H123 0.929 . S
N113 C111 1.375 . S
N113 C112 1.347 . S
C114 C117 1.365 . S
C114 N119 1.328 . S
C114 H120 0.929 . S
C115 C116 1.362 . S
C115 C118 1.378 . S
C115 H130 0.929 . S
C116 C115 1.362 . S
C116 C117 1.366 . S
C117 C114 1.365 . S
C117 C116 1.366 . S
C117 H131 0.930 . S
C118 C115 1.378 . S
C118 N119 1.315 . S
C118 H121 0.930 . S
N119 Co99 2.194 . S
N119 C114 1.328 . S
N119 C118 1.315 . S
H120 C114 0.929 . S
H121 C118 0.930 . S
H122 C110 0.929 . S
H123 C112 0.929 . S
O124 Co99 2.351 . S
O124 C127 1.244 . S
O125 Co99 2.155 . S
O125 C127 1.240 . S
O126 Co99 2.096 . S
O126 C107 1.247 . S
C127 O124 1.244 . S
C127 O125 1.240 . S
H128 C102 0.931 . S
H129 C111 0.931 . S
H130 C115 0.929 . S
H131 C117 0.930 . S
Co132 N136 2.148 . S
Co132 N142 2.128 . S
Co132 N152 2.194 . S
Co132 O157 2.351 . S
Co132 O158 2.155 . S
Co132 O159 2.096 . S
C133 N136 1.301 . S
C133 N137 1.328 . S
C133 H138 0.930 . S
C134 C135 1.333 . S
C134 N136 1.317 . S
C134 H139 0.930 . S
C135 C134 1.333 . S
C135 N137 1.350 . S
C135 H161 0.931 . S
N136 Co132 2.148 . S
N136 C133 1.301 . S
N136 C134 1.317 . S
N137 C133 1.328 . S
N137 C135 1.350 . S
H138 C133 0.930 . S
H139 C134 0.930 . S
C140 O141 1.224 . S
C140 O159 1.247 . S
O141 C140 1.224 . S
N142 Co132 2.128 . S
N142 C143 1.355 . S
N142 C145 1.311 . S
C143 N142 1.355 . S
C143 C144 1.363 . S
C143 H155 0.929 . S
C144 C143 1.363 . S
C144 N146 1.375 . S
C144 H162 0.931 . S
C145 N142 1.311 . S
C145 N146 1.347 . S
C145 H156 0.929 . S
N146 C144 1.375 . S
N146 C145 1.347 . S
C147 C150 1.365 . S
C147 N152 1.328 . S
C147 H153 0.929 . S
C148 C149 1.362 . S
C148 C151 1.378 . S
C148 H163 0.929 . S
C149 C148 1.362 . S
C149 C150 1.366 . S
C150 C147 1.365 . S
C150 C149 1.366 . S
C150 H164 0.930 . S
C151 C148 1.378 . S
C151 N152 1.315 . S
C151 H154 0.930 . S
N152 Co132 2.194 . S
N152 C147 1.328 . S
N152 C151 1.315 . S
H153 C147 0.929 . S
H154 C151 0.930 . S
H155 C143 0.929 . S
H156 C145 0.929 . S
O157 Co132 2.351 . S
O157 C160 1.244 . S
O158 Co132 2.155 . S
O158 C160 1.240 . S
O159 Co132 2.096 . S
O159 C140 1.247 . S
C160 O157 1.244 . S
C160 O158 1.240 . S
H161 C135 0.931 . S
H162 C144 0.931 . S
H163 C148 0.929 . S
H164 C150 0.930 . S
Co165 N169 2.148 1_556 S
Co165 N175 2.128 . S
Co165 N185 2.194 . S
Co165 O190 2.351 . S
Co165 O191 2.155 . S
Co165 O192 2.096 . S
C166 N169 1.301 . S
C166 N170 1.328 . S
C166 H171 0.930 . S
C167 C168 1.333 . S
C167 N169 1.317 . S
C167 H172 0.930 . S
C168 C167 1.333 . S
C168 N170 1.350 . S
C168 H194 0.931 . S
N169 Co165 2.148 1_554 S
N169 C166 1.301 . S
N169 C167 1.317 . S
N170 C166 1.328 . S
N170 C168 1.350 . S
H171 C166 0.930 . S
H172 C167 0.930 . S
C173 O174 1.224 . S
C173 O192 1.247 . S
O174 C173 1.224 . S
N175 Co165 2.128 . S
N175 C176 1.355 . S
N175 C178 1.311 . S
C176 N175 1.355 . S
C176 C177 1.363 . S
C176 H188 0.929 . S
C177 C176 1.363 . S
C177 N179 1.375 . S
C177 H195 0.931 . S
C178 N175 1.311 . S
C178 N179 1.347 . S
C178 H189 0.929 . S
N179 C177 1.375 . S
N179 C178 1.347 . S
C180 C183 1.365 . S
C180 N185 1.328 . S
C180 H186 0.929 . S
C181 C182 1.362 . S
C181 C184 1.378 . S
C181 H196 0.929 . S
C182 C181 1.362 . S
C182 C183 1.366 . S
C183 C180 1.365 . S
C183 C182 1.366 . S
C183 H197 0.930 . S
C184 C181 1.378 . S
C184 N185 1.315 . S
C184 H187 0.930 . S
N185 Co165 2.194 . S
N185 C180 1.328 . S
N185 C184 1.315 . S
H186 C180 0.929 . S
H187 C184 0.930 . S
H188 C176 0.929 . S
H189 C178 0.929 . S
O190 Co165 2.351 . S
O190 C193 1.244 . S
O191 Co165 2.155 . S
O191 C193 1.240 . S
O192 Co165 2.096 . S
O192 C173 1.247 . S
C193 O190 1.244 . S
C193 O191 1.240 . S
H194 C168 0.931 . S
H195 C177 0.931 . S
H196 C181 0.929 . S
H197 C183 0.930 . S
Co198 N202 2.148 . S
Co198 N208 2.128 . S
Co198 N218 2.194 . S
Co198 O223 2.351 . S
Co198 O224 2.155 . S
Co198 O225 2.096 . S
C199 N202 1.301 . S
C199 N203 1.328 . S
C199 H204 0.930 . S
C200 C201 1.333 . S
C200 N202 1.317 . S
C200 H205 0.930 . S
C201 C200 1.333 . S
C201 N203 1.350 . S
C201 H227 0.931 . S
N202 Co198 2.148 . S
N202 C199 1.301 . S
N202 C200 1.317 . S
N203 C199 1.328 . S
N203 C201 1.350 . S
H204 C199 0.930 . S
H205 C200 0.930 . S
C206 O207 1.224 . S
C206 O225 1.247 . S
O207 C206 1.224 . S
N208 Co198 2.128 . S
N208 C209 1.355 . S
N208 C211 1.311 . S
C209 N208 1.355 . S
C209 C210 1.363 . S
C209 H221 0.929 . S
C210 C209 1.363 . S
C210 N212 1.375 . S
C210 H228 0.931 . S
C211 N208 1.311 . S
C211 N212 1.347 . S
C211 H222 0.929 . S
N212 C210 1.375 . S
N212 C211 1.347 . S
C213 C216 1.365 . S
C213 N218 1.328 . S
C213 H219 0.929 . S
C214 C215 1.362 . S
C214 C217 1.378 . S
C214 H229 0.929 . S
C215 C214 1.362 . S
C215 C216 1.366 . S
C216 C213 1.365 . S
C216 C215 1.366 . S
C216 H230 0.930 . S
C217 C214 1.378 . S
C217 N218 1.315 . S
C217 H220 0.930 . S
N218 Co198 2.194 . S
N218 C213 1.328 . S
N218 C217 1.315 . S
H219 C213 0.929 . S
H220 C217 0.930 . S
H221 C209 0.929 . S
H222 C211 0.929 . S
O223 Co198 2.351 . S
O223 C226 1.244 . S
O224 Co198 2.155 . S
O224 C226 1.240 . S
O225 Co198 2.096 . S
O225 C206 1.247 . S
C226 O223 1.244 . S
C226 O224 1.240 . S
H227 C201 0.931 . S
H228 C210 0.931 . S
H229 C214 0.929 . S
H230 C216 0.930 . S
Co231 N235 2.148 . S
Co231 N241 2.128 . S
Co231 N251 2.194 . S
Co231 O256 2.351 . S
Co231 O257 2.155 . S
Co231 O258 2.096 . S
C232 N235 1.301 . S
C232 N236 1.328 . S
C232 H237 0.930 . S
C233 C234 1.333 . S
C233 N235 1.317 . S
C233 H238 0.930 . S
C234 C233 1.333 . S
C234 N236 1.350 . S
C234 H260 0.931 . S
N235 Co231 2.148 . S
N235 C232 1.301 . S
N235 C233 1.317 . S
N236 C232 1.328 . S
N236 C234 1.350 . S
H237 C232 0.930 . S
H238 C233 0.930 . S
C239 O240 1.224 . S
C239 O258 1.247 . S
O240 C239 1.224 . S
N241 Co231 2.128 . S
N241 C242 1.355 . S
N241 C244 1.311 . S
C242 N241 1.355 . S
C242 C243 1.363 . S
C242 H254 0.929 . S
C243 C242 1.363 . S
C243 N245 1.375 . S
C243 H261 0.931 . S
C244 N241 1.311 . S
C244 N245 1.347 . S
C244 H255 0.929 . S
N245 C243 1.375 . S
N245 C244 1.347 . S
C246 C249 1.365 . S
C246 N251 1.328 . S
C246 H252 0.929 . S
C247 C248 1.362 . S
C247 C250 1.378 . S
C247 H262 0.929 . S
C248 C247 1.362 . S
C248 C249 1.366 . S
C249 C246 1.365 . S
C249 C248 1.366 . S
C249 H263 0.930 . S
C250 C247 1.378 . S
C250 N251 1.315 . S
C250 H253 0.930 . S
N251 Co231 2.194 . S
N251 C246 1.328 . S
N251 C250 1.315 . S
H252 C246 0.929 . S
H253 C250 0.930 . S
H254 C242 0.929 . S
H255 C244 0.929 . S
O256 Co231 2.351 . S
O256 C259 1.244 . S
O257 Co231 2.155 . S
O257 C259 1.240 . S
O258 Co231 2.096 . S
O258 C239 1.247 . S
C259 O256 1.244 . S
C259 O257 1.240 . S
H260 C234 0.931 . S
H261 C243 0.931 . S
H262 C247 0.929 . S
H263 C249 0.930 . S
Co264 N268 2.148 1_554 S
Co264 N274 2.128 . S
Co264 N284 2.194 . S
Co264 O289 2.351 . S
Co264 O290 2.155 . S
Co264 O291 2.096 . S
C265 N268 1.301 . S
C265 N269 1.328 . S
C265 H270 0.930 . S
C266 C267 1.333 . S
C266 N268 1.317 . S
C266 H271 0.930 . S
C267 C266 1.333 . S
C267 N269 1.350 . S
C267 H293 0.931 . S
N268 Co264 2.148 1_556 S
N268 C265 1.301 . S
N268 C266 1.317 . S
N269 C265 1.328 . S
N269 C267 1.350 . S
H270 C265 0.930 . S
H271 C266 0.930 . S
C272 O273 1.224 . S
C272 O291 1.247 . S
O273 C272 1.224 . S
N274 Co264 2.128 . S
N274 C275 1.355 . S
N274 C277 1.311 . S
C275 N274 1.355 . S
C275 C276 1.363 . S
C275 H287 0.929 . S
C276 C275 1.363 . S
C276 N278 1.375 . S
C276 H294 0.931 . S
C277 N274 1.311 . S
C277 N278 1.347 . S
C277 H288 0.929 . S
N278 C276 1.375 . S
N278 C277 1.347 . S
C279 C282 1.365 . S
C279 N284 1.328 . S
C279 H285 0.929 . S
C280 C281 1.362 . S
C280 C283 1.378 . S
C280 H295 0.929 . S
C281 C280 1.362 . S
C281 C282 1.366 . S
C282 C279 1.365 . S
C282 C281 1.366 . S
C282 H296 0.930 . S
C283 C280 1.378 . S
C283 N284 1.315 . S
C283 H286 0.930 . S
N284 Co264 2.194 . S
N284 C279 1.328 . S
N284 C283 1.315 . S
H285 C279 0.929 . S
H286 C283 0.930 . S
H287 C275 0.929 . S
H288 C277 0.929 . S
O289 Co264 2.351 . S
O289 C292 1.244 . S
O290 Co264 2.155 . S
O290 C292 1.240 . S
O291 Co264 2.096 . S
O291 C272 1.247 . S
C292 O289 1.244 . S
C292 O290 1.240 . S
H293 C267 0.931 . S
H294 C276 0.931 . S
H295 C280 0.929 . S
H296 C282 0.930 . S
Co297 N301 2.148 . S
Co297 N307 2.128 . S
Co297 N317 2.194 . S
Co297 O322 2.351 . S
Co297 O323 2.155 . S
Co297 O324 2.096 . S
C298 N301 1.301 . S
C298 N302 1.328 . S
C298 H303 0.930 . S
C299 C300 1.333 . S
C299 N301 1.317 . S
C299 H304 0.930 . S
C300 C299 1.333 . S
C300 N302 1.350 . S
C300 H326 0.931 . S
N301 Co297 2.148 . S
N301 C298 1.301 . S
N301 C299 1.317 . S
N302 C298 1.328 . S
N302 C300 1.350 . S
H303 C298 0.930 . S
H304 C299 0.930 . S
C305 O306 1.224 . S
C305 O324 1.247 . S
O306 C305 1.224 . S
N307 Co297 2.128 . S
N307 C308 1.355 . S
N307 C310 1.311 . S
C308 N307 1.355 . S
C308 C309 1.363 . S
C308 H320 0.929 . S
C309 C308 1.363 . S
C309 N311 1.375 . S
C309 H327 0.931 . S
C310 N307 1.311 . S
C310 N311 1.347 . S
C310 H321 0.929 . S
N311 C309 1.375 . S
N311 C310 1.347 . S
C312 C315 1.365 . S
C312 N317 1.328 . S
C312 H318 0.929 . S
C313 C314 1.362 . S
C313 C316 1.378 . S
C313 H328 0.929 . S
C314 C313 1.362 . S
C314 C315 1.366 . S
C315 C312 1.365 . S
C315 C314 1.366 . S
C315 H329 0.930 . S
C316 C313 1.378 . S
C316 N317 1.315 . S
C316 H319 0.930 . S
N317 Co297 2.194 . S
N317 C312 1.328 . S
N317 C316 1.315 . S
H318 C312 0.929 . S
H319 C316 0.930 . S
H320 C308 0.929 . S
H321 C310 0.929 . S
O322 Co297 2.351 . S
O322 C325 1.244 . S
O323 Co297 2.155 . S
O323 C325 1.240 . S
O324 Co297 2.096 . S
O324 C305 1.247 . S
C325 O322 1.244 . S
C325 O323 1.240 . S
H326 C300 0.931 . S
H327 C309 0.931 . S
H328 C313 0.929 . S
H329 C315 0.930 . S
Co330 N334 2.148 . S
Co330 N340 2.128 . S
Co330 N350 2.194 . S
Co330 O355 2.351 . S
Co330 O356 2.155 . S
Co330 O357 2.096 . S
C331 N334 1.301 . S
C331 N335 1.328 . S
C331 H336 0.930 . S
C332 C333 1.333 . S
C332 N334 1.317 . S
C332 H337 0.930 . S
C333 C332 1.333 . S
C333 N335 1.350 . S
C333 H359 0.931 . S
N334 Co330 2.148 . S
N334 C331 1.301 . S
N334 C332 1.317 . S
N335 C331 1.328 . S
N335 C333 1.350 . S
H336 C331 0.930 . S
H337 C332 0.930 . S
C338 O339 1.224 . S
C338 O357 1.247 . S
O339 C338 1.224 . S
N340 Co330 2.128 . S
N340 C341 1.355 . S
N340 C343 1.311 . S
C341 N340 1.355 . S
C341 C342 1.363 . S
C341 H353 0.929 . S
C342 C341 1.363 . S
C342 N344 1.375 . S
C342 H360 0.931 . S
C343 N340 1.311 . S
C343 N344 1.347 . S
C343 H354 0.929 . S
N344 C342 1.375 . S
N344 C343 1.347 . S
C345 C348 1.365 . S
C345 N350 1.328 . S
C345 H351 0.929 . S
C346 C347 1.362 . S
C346 C349 1.378 . S
C346 H361 0.929 . S
C347 C346 1.362 . S
C347 C348 1.366 . S
C348 C345 1.365 . S
C348 C347 1.366 . S
C348 H362 0.930 . S
C349 C346 1.378 . S
C349 N350 1.315 . S
C349 H352 0.930 . S
N350 Co330 2.194 . S
N350 C345 1.328 . S
N350 C349 1.315 . S
H351 C345 0.929 . S
H352 C349 0.930 . S
H353 C341 0.929 . S
H354 C343 0.929 . S
O355 Co330 2.351 . S
O355 C358 1.244 . S
O356 Co330 2.155 . S
O356 C358 1.240 . S
O357 Co330 2.096 . S
O357 C338 1.247 . S
C358 O355 1.244 . S
C358 O356 1.240 . S
H359 C333 0.931 . S
H360 C342 0.931 . S
H361 C346 0.929 . S
H362 C348 0.930 . S
Co363 N367 2.148 1_554 S
Co363 N373 2.128 . S
Co363 N383 2.194 . S
Co363 O388 2.351 . S
Co363 O389 2.155 . S
Co363 O390 2.096 . S
C364 N367 1.301 . S
C364 N368 1.328 . S
C364 H369 0.930 . S
C365 C366 1.333 . S
C365 N367 1.317 . S
C365 H370 0.930 . S
C366 C365 1.333 . S
C366 N368 1.350 . S
C366 H392 0.931 . S
N367 Co363 2.148 1_556 S
N367 C364 1.301 . S
N367 C365 1.317 . S
N368 C364 1.328 . S
N368 C366 1.350 . S
H369 C364 0.930 . S
H370 C365 0.930 . S
C371 O372 1.224 . S
C371 O390 1.247 . S
O372 C371 1.224 . S
N373 Co363 2.128 . S
N373 C374 1.355 . S
N373 C376 1.311 . S
C374 N373 1.355 . S
C374 C375 1.363 . S
C374 H386 0.929 . S
C375 C374 1.363 . S
C375 N377 1.375 . S
C375 H393 0.931 . S
C376 N373 1.311 . S
C376 N377 1.347 . S
C376 H387 0.929 . S
N377 C375 1.375 . S
N377 C376 1.347 . S
C378 C381 1.365 . S
C378 N383 1.328 . S
C378 H384 0.929 . S
C379 C380 1.362 . S
C379 C382 1.378 . S
C379 H394 0.929 . S
C380 C379 1.362 . S
C380 C381 1.366 . S
C381 C378 1.365 . S
C381 C380 1.366 . S
C381 H395 0.930 . S
C382 C379 1.378 . S
C382 N383 1.315 . S
C382 H385 0.930 . S
N383 Co363 2.194 . S
N383 C378 1.328 . S
N383 C382 1.315 . S
H384 C378 0.929 . S
H385 C382 0.930 . S
H386 C374 0.929 . S
H387 C376 0.929 . S
O388 Co363 2.351 . S
O388 C391 1.244 . S
O389 Co363 2.155 . S
O389 C391 1.240 . S
O390 Co363 2.096 . S
O390 C371 1.247 . S
C391 O388 1.244 . S
C391 O389 1.240 . S
H392 C366 0.931 . S
H393 C375 0.931 . S
H394 C379 0.929 . S
H395 C381 0.930 . S
C396 C397 1.391 . S
C396 C398 1.394 . S
C396 H412 0.931 . S
C397 C396 1.391 . S
C397 C401 1.376 . S
C398 C396 1.394 . S
C398 C399 1.369 . S
C398 C402 1.531 . S
C399 C398 1.369 . S
C399 C400 1.410 . S
C399 C407 1.503 1_554 S
C400 C399 1.410 . S
C400 C401 1.392 . S
C400 C403 1.511 . S
C401 C397 1.376 . S
C401 C400 1.392 . S
C401 H413 0.929 . S
C402 C398 1.531 . S
C402 H414 0.960 1_554 S
C402 H415 0.962 . S
C402 H416 0.960 . S
C403 C400 1.511 . S
C403 H417 0.961 . S
C403 H418 0.961 1_554 S
C403 H419 0.961 1_554 S
C404 C405 1.370 . S
C404 C406 1.363 . S
C404 H420 0.931 . S
C405 C404 1.370 . S
C405 C409 1.408 . S
C406 C404 1.363 . S
C406 C407 1.370 . S
C406 C410 1.524 1_556 S
C407 C399 1.503 1_556 S
C407 C406 1.370 . S
C407 C408 1.403 . S
C408 C407 1.403 . S
C408 C409 1.404 . S
C408 C411 1.539 . S
C409 C405 1.408 . S
C409 C408 1.404 . S
C409 H421 0.930 . S
C410 C406 1.524 1_554 S
C410 H422 0.956 . S
C410 H423 0.961 . S
C410 H424 0.961 . S
C411 C408 1.539 . S
C411 H425 0.958 . S
C411 H426 0.961 . S
C411 H427 0.960 . S
H412 C396 0.931 . S
H413 C401 0.929 . S
H414 C402 0.960 1_556 S
H415 C402 0.962 . S
H416 C402 0.960 . S
H417 C403 0.961 . S
H418 C403 0.961 1_556 S
H419 C403 0.961 1_556 S
H420 C404 0.931 . S
H421 C409 0.930 . S
H422 C410 0.956 . S
H423 C410 0.961 . S
H424 C410 0.961 . S
H425 C411 0.958 . S
H426 C411 0.961 . S
H427 C411 0.960 . S
C428 C429 1.391 . S
C428 C430 1.394 . S
C428 H444 0.931 . S
C429 C428 1.391 . S
C429 C433 1.376 . S
C430 C428 1.394 . S
C430 C431 1.369 . S
C430 C434 1.531 . S
C431 C430 1.369 . S
C431 C432 1.410 . S
C431 C439 1.503 . S
C432 C431 1.410 . S
C432 C433 1.392 . S
C432 C435 1.511 . S
C433 C429 1.376 . S
C433 C432 1.392 . S
C433 H445 0.929 . S
C434 C430 1.531 . S
C434 H446 0.960 . S
C434 H447 0.962 . S
C434 H448 0.960 . S
C435 C432 1.511 . S
C435 H449 0.961 . S
C435 H450 0.961 . S
C435 H451 0.961 . S
C436 C437 1.370 . S
C436 C438 1.363 . S
C436 H452 0.931 . S
C437 C436 1.370 . S
C437 C441 1.408 . S
C438 C436 1.363 . S
C438 C439 1.370 . S
C438 C442 1.524 . S
C439 C431 1.503 . S
C439 C438 1.370 . S
C439 C440 1.403 . S
C440 C439 1.403 . S
C440 C441 1.404 . S
C440 C443 1.539 . S
C441 C437 1.408 . S
C441 C440 1.404 . S
C441 H453 0.930 . S
C442 C438 1.524 . S
C442 H454 0.956 . S
C442 H455 0.961 . S
C442 H456 0.961 . S
C443 C440 1.539 . S
C443 H457 0.958 . S
C443 H458 0.961 . S
C443 H459 0.960 . S
H444 C428 0.931 . S
H445 C433 0.929 . S
H446 C434 0.960 . S
H447 C434 0.962 . S
H448 C434 0.960 . S
H449 C435 0.961 . S
H450 C435 0.961 . S
H451 C435 0.961 . S
H452 C436 0.931 . S
H453 C441 0.930 . S
H454 C442 0.956 . S
H455 C442 0.961 . S
H456 C442 0.961 . S
H457 C443 0.958 . S
H458 C443 0.961 . S
H459 C443 0.960 . S
C460 C461 1.391 . S
C460 C462 1.394 . S
C460 H476 0.931 . S
C461 C460 1.391 . S
C461 C465 1.376 . S
C462 C460 1.394 . S
C462 C463 1.369 . S
C462 C466 1.531 . S
C463 C462 1.369 . S
C463 C464 1.410 . S
C463 C471 1.503 . S
C464 C463 1.410 . S
C464 C465 1.392 . S
C464 C467 1.511 . S
C465 C461 1.376 . S
C465 C464 1.392 . S
C465 H477 0.929 . S
C466 C462 1.531 . S
C466 H478 0.960 . S
C466 H479 0.962 . S
C466 H480 0.960 . S
C467 C464 1.511 . S
C467 H481 0.961 . S
C467 H482 0.961 . S
C467 H483 0.961 . S
C468 C469 1.370 . S
C468 C470 1.363 . S
C468 H484 0.931 . S
C469 C468 1.370 . S
C469 C473 1.408 . S
C470 C468 1.363 . S
C470 C471 1.370 . S
C470 C474 1.524 . S
C471 C463 1.503 . S
C471 C470 1.370 . S
C471 C472 1.403 . S
C472 C471 1.403 . S
C472 C473 1.404 . S
C472 C475 1.539 . S
C473 C469 1.408 . S
C473 C472 1.404 . S
C473 H485 0.930 . S
C474 C470 1.524 . S
C474 H486 0.956 . S
C474 H487 0.961 . S
C474 H488 0.961 . S
C475 C472 1.539 . S
C475 H489 0.958 . S
C475 H490 0.961 . S
C475 H491 0.960 . S
H476 C460 0.931 . S
H477 C465 0.929 . S
H478 C466 0.960 . S
H479 C466 0.962 . S
H480 C466 0.960 . S
H481 C467 0.961 . S
H482 C467 0.961 . S
H483 C467 0.961 . S
H484 C468 0.931 . S
H485 C473 0.930 . S
H486 C474 0.956 . S
H487 C474 0.961 . S
H488 C474 0.961 . S
H489 C475 0.958 . S
H490 C475 0.961 . S
H491 C475 0.960 . S
C492 C493 1.391 . S
C492 C494 1.394 . S
C492 H508 0.931 . S
C493 C492 1.391 . S
C493 C497 1.376 . S
C494 C492 1.394 . S
C494 C495 1.369 . S
C494 C498 1.531 . S
C495 C494 1.369 . S
C495 C496 1.410 . S
C495 C503 1.503 1_556 S
C496 C495 1.410 . S
C496 C497 1.392 . S
C496 C499 1.511 . S
C497 C493 1.376 . S
C497 C496 1.392 . S
C497 H509 0.929 . S
C498 C494 1.531 . S
C498 H510 0.960 1_556 S
C498 H511 0.962 1_556 S
C498 H512 0.960 . S
C499 C496 1.511 . S
C499 H513 0.961 . S
C499 H514 0.961 . S
C499 H515 0.961 . S
C500 C501 1.370 . S
C500 C502 1.363 . S
C500 H516 0.931 . S
C501 C500 1.370 . S
C501 C505 1.408 . S
C502 C500 1.363 . S
C502 C503 1.370 . S
C502 C506 1.524 . S
C503 C495 1.503 1_554 S
C503 C502 1.370 . S
C503 C504 1.403 . S
C504 C503 1.403 . S
C504 C505 1.404 . S
C504 C507 1.539 1_554 S
C505 C501 1.408 . S
C505 C504 1.404 . S
C505 H517 0.930 . S
C506 C502 1.524 . S
C506 H518 0.956 . S
C506 H519 0.961 . S
C506 H520 0.961 . S
C507 C504 1.539 1_556 S
C507 H521 0.958 . S
C507 H522 0.961 . S
C507 H523 0.960 . S
H508 C492 0.931 . S
H509 C497 0.929 . S
H510 C498 0.960 1_554 S
H511 C498 0.962 1_554 S
H512 C498 0.960 . S
H513 C499 0.961 . S
H514 C499 0.961 . S
H515 C499 0.961 . S
H516 C500 0.931 . S
H517 C505 0.930 . S
H518 C506 0.956 . S
H519 C506 0.961 . S
H520 C506 0.961 . S
H521 C507 0.958 . S
H522 C507 0.961 . S
H523 C507 0.960 . S
C524 C525 1.391 . S
C524 C526 1.394 . S
C524 H540 0.931 . S
C525 C524 1.391 . S
C525 C529 1.376 . S
C526 C524 1.394 . S
C526 C527 1.369 . S
C526 C530 1.531 . S
C527 C526 1.369 . S
C527 C528 1.410 . S
C527 C535 1.503 . S
C528 C527 1.410 . S
C528 C529 1.392 . S
C528 C531 1.511 . S
C529 C525 1.376 . S
C529 C528 1.392 . S
C529 H541 0.929 . S
C530 C526 1.531 . S
C530 H542 0.960 . S
C530 H543 0.962 . S
C530 H544 0.960 . S
C531 C528 1.511 . S
C531 H545 0.961 . S
C531 H546 0.961 . S
C531 H547 0.961 . S
C532 C533 1.370 . S
C532 C534 1.363 . S
C532 H548 0.931 . S
C533 C532 1.370 . S
C533 C537 1.408 . S
C534 C532 1.363 . S
C534 C535 1.370 . S
C534 C538 1.524 . S
C535 C527 1.503 . S
C535 C534 1.370 . S
C535 C536 1.403 . S
C536 C535 1.403 . S
C536 C537 1.404 . S
C536 C539 1.539 . S
C537 C533 1.408 . S
C537 C536 1.404 . S
C537 H549 0.930 . S
C538 C534 1.524 . S
C538 H550 0.956 . S
C538 H551 0.961 . S
C538 H552 0.961 . S
C539 C536 1.539 . S
C539 H553 0.958 . S
C539 H554 0.961 . S
C539 H555 0.960 . S
H540 C524 0.931 . S
H541 C529 0.929 . S
H542 C530 0.960 . S
H543 C530 0.962 . S
H544 C530 0.960 . S
H545 C531 0.961 . S
H546 C531 0.961 . S
H547 C531 0.961 . S
H548 C532 0.931 . S
H549 C537 0.930 . S
H550 C538 0.956 . S
H551 C538 0.961 . S
H552 C538 0.961 . S
H553 C539 0.958 . S
H554 C539 0.961 . S
H555 C539 0.960 . S
C556 C557 1.391 . S
C556 C558 1.394 . S
C556 H572 0.931 . S
C557 C556 1.391 . S
C557 C561 1.376 . S
C558 C556 1.394 . S
C558 C559 1.369 . S
C558 C562 1.531 . S
C559 C558 1.369 . S
C559 C560 1.410 . S
C559 C567 1.503 . S
C560 C559 1.410 . S
C560 C561 1.392 . S
C560 C563 1.511 . S
C561 C557 1.376 . S
C561 C560 1.392 . S
C561 H573 0.929 . S
C562 C558 1.531 . S
C562 H574 0.960 . S
C562 H575 0.962 . S
C562 H576 0.960 . S
C563 C560 1.511 . S
C563 H577 0.961 . S
C563 H578 0.961 . S
C563 H579 0.961 . S
C564 C565 1.370 . S
C564 C566 1.363 . S
C564 H580 0.931 . S
C565 C564 1.370 . S
C565 C569 1.408 . S
C566 C564 1.363 . S
C566 C567 1.370 . S
C566 C570 1.524 . S
C567 C559 1.503 . S
C567 C566 1.370 . S
C567 C568 1.403 . S
C568 C567 1.403 . S
C568 C569 1.404 . S
C568 C571 1.539 . S
C569 C565 1.408 . S
C569 C568 1.404 . S
C569 H581 0.930 . S
C570 C566 1.524 . S
C570 H582 0.956 . S
C570 H583 0.961 . S
C570 H584 0.961 . S
C571 C568 1.539 . S
C571 H585 0.958 . S
C571 H586 0.961 . S
C571 H587 0.960 . S
H572 C556 0.931 . S
H573 C561 0.929 . S
H574 C562 0.960 . S
H575 C562 0.962 . S
H576 C562 0.960 . S
H577 C563 0.961 . S
H578 C563 0.961 . S
H579 C563 0.961 . S
H580 C564 0.931 . S
H581 C569 0.930 . S
H582 C570 0.956 . S
H583 C570 0.961 . S
H584 C570 0.961 . S
H585 C571 0.958 . S
H586 C571 0.961 . S
H587 C571 0.960 . S
C588 C589 1.391 . S
C588 C590 1.394 . S
C588 H604 0.931 . S
C589 C588 1.391 . S
C589 C593 1.376 . S
C590 C588 1.394 . S
C590 C591 1.369 . S
C590 C594 1.531 . S
C591 C590 1.369 . S
C591 C592 1.410 . S
C591 C599 1.503 . S
C592 C591 1.410 . S
C592 C593 1.392 . S
C592 C595 1.511 . S
C593 C589 1.376 . S
C593 C592 1.392 . S
C593 H605 0.929 . S
C594 C590 1.531 . S
C594 H606 0.960 . S
C594 H607 0.962 . S
C594 H608 0.960 . S
C595 C592 1.511 . S
C595 H609 0.961 . S
C595 H610 0.961 . S
C595 H611 0.961 . S
C596 C597 1.370 . S
C596 C598 1.363 . S
C596 H612 0.931 . S
C597 C596 1.370 . S
C597 C601 1.408 . S
C598 C596 1.363 . S
C598 C599 1.370 . S
C598 C602 1.524 . S
C599 C591 1.503 . S
C599 C598 1.370 . S
C599 C600 1.403 . S
C600 C599 1.403 . S
C600 C601 1.404 . S
C600 C603 1.539 . S
C601 C597 1.408 . S
C601 C600 1.404 . S
C601 H613 0.930 . S
C602 C598 1.524 . S
C602 H614 0.956 . S
C602 H615 0.961 . S
C602 H616 0.961 . S
C603 C600 1.539 . S
C603 H617 0.958 . S
C603 H618 0.961 . S
C603 H619 0.960 . S
H604 C588 0.931 . S
H605 C593 0.929 . S
H606 C594 0.960 . S
H607 C594 0.962 . S
H608 C594 0.960 . S
H609 C595 0.961 . S
H610 C595 0.961 . S
H611 C595 0.961 . S
H612 C596 0.931 . S
H613 C601 0.930 . S
H614 C602 0.956 . S
H615 C602 0.961 . S
H616 C602 0.961 . S
H617 C603 0.958 . S
H618 C603 0.961 . S
H619 C603 0.960 . S
C620 C621 1.391 . S
C620 C622 1.394 . S
C620 H636 0.931 . S
C621 C620 1.391 . S
C621 C625 1.376 . S
C622 C620 1.394 . S
C622 C623 1.369 . S
C622 C626 1.531 . S
C623 C622 1.369 . S
C623 C624 1.410 . S
C623 C631 1.503 . S
C624 C623 1.410 . S
C624 C625 1.392 . S
C624 C627 1.511 . S
C625 C621 1.376 . S
C625 C624 1.392 . S
C625 H637 0.929 . S
C626 C622 1.531 . S
C626 H638 0.960 . S
C626 H639 0.962 . S
C626 H640 0.960 . S
C627 C624 1.511 . S
C627 H641 0.961 . S
C627 H642 0.961 . S
C627 H643 0.961 . S
C628 C629 1.370 . S
C628 C630 1.363 . S
C628 H644 0.931 . S
C629 C628 1.370 . S
C629 C633 1.408 . S
C630 C628 1.363 . S
C630 C631 1.370 . S
C630 C634 1.524 . S
C631 C623 1.503 . S
C631 C630 1.370 . S
C631 C632 1.403 . S
C632 C631 1.403 . S
C632 C633 1.404 . S
C632 C635 1.539 . S
C633 C629 1.408 . S
C633 C632 1.404 . S
C633 H645 0.930 . S
C634 C630 1.524 . S
C634 H646 0.956 . S
C634 H647 0.961 . S
C634 H648 0.961 . S
C635 C632 1.539 . S
C635 H649 0.958 . S
C635 H650 0.961 . S
C635 H651 0.960 . S
H636 C620 0.931 . S
H637 C625 0.929 . S
H638 C626 0.960 . S
H639 C626 0.962 . S
H640 C626 0.960 . S
H641 C627 0.961 . S
H642 C627 0.961 . S
H643 C627 0.961 . S
H644 C628 0.931 . S
H645 C633 0.930 . S
H646 C634 0.956 . S
H647 C634 0.961 . S
H648 C634 0.961 . S
H649 C635 0.958 . S
H650 C635 0.961 . S
H651 C635 0.960 . S
C652 C653 1.391 . S
C652 C654 1.394 . S
C652 H668 0.931 . S
C653 C652 1.391 . S
C653 C657 1.376 1_556 S
C654 C652 1.394 . S
C654 C655 1.369 1_556 S
C654 C658 1.531 . S
C655 C654 1.369 1_554 S
C655 C656 1.410 . S
C655 C663 1.503 . S
C656 C655 1.410 . S
C656 C657 1.392 . S
C656 C659 1.511 . S
C657 C653 1.376 1_554 S
C657 C656 1.392 . S
C657 H669 0.929 . S
C658 C654 1.531 . S
C658 H670 0.960 . S
C658 H671 0.962 . S
C658 H672 0.960 . S
C659 C656 1.511 . S
C659 H673 0.961 . S
C659 H674 0.961 . S
C659 H675 0.961 . S
C660 C661 1.370 1_556 S
C660 C662 1.363 . S
C660 H676 0.931 . S
C661 C660 1.370 1_554 S
C661 C665 1.408 . S
C662 C660 1.363 . S
C662 C663 1.370 1_556 S
C662 C666 1.524 . S
C663 C655 1.503 . S
C663 C662 1.370 1_554 S
C663 C664 1.403 . S
C664 C663 1.403 . S
C664 C665 1.404 . S
C664 C667 1.539 . S
C665 C661 1.408 . S
C665 C664 1.404 . S
C665 H677 0.930 . S
C666 C662 1.524 . S
C666 H678 0.956 . S
C666 H679 0.961 . S
C666 H680 0.961 . S
C667 C664 1.539 . S
C667 H681 0.958 . S
C667 H682 0.961 . S
C667 H683 0.960 . S
H668 C652 0.931 . S
H669 C657 0.929 . S
H670 C658 0.960 . S
H671 C658 0.962 . S
H672 C658 0.960 . S
H673 C659 0.961 . S
H674 C659 0.961 . S
H675 C659 0.961 . S
H676 C660 0.931 . S
H677 C665 0.930 . S
H678 C666 0.956 . S
H679 C666 0.961 . S
H680 C666 0.961 . S
H681 C667 0.958 . S
H682 C667 0.961 . S
H683 C667 0.960 . S
C684 C685 1.391 . S
C684 C686 1.394 . S
C684 H700 0.931 . S
C685 C684 1.391 . S
C685 C689 1.376 . S
C686 C684 1.394 . S
C686 C687 1.369 . S
C686 C690 1.531 . S
C687 C686 1.369 . S
C687 C688 1.410 . S
C687 C695 1.503 . S
C688 C687 1.410 . S
C688 C689 1.392 . S
C688 C691 1.511 . S
C689 C685 1.376 . S
C689 C688 1.392 . S
C689 H701 0.929 . S
C690 C686 1.531 . S
C690 H702 0.960 . S
C690 H703 0.962 . S
C690 H704 0.960 . S
C691 C688 1.511 . S
C691 H705 0.961 . S
C691 H706 0.961 . S
C691 H707 0.961 . S
C692 C693 1.370 . S
C692 C694 1.363 . S
C692 H708 0.931 . S
C693 C692 1.370 . S
C693 C697 1.408 . S
C694 C692 1.363 . S
C694 C695 1.370 . S
C694 C698 1.524 . S
C695 C687 1.503 . S
C695 C694 1.370 . S
C695 C696 1.403 . S
C696 C695 1.403 . S
C696 C697 1.404 . S
C696 C699 1.539 . S
C697 C693 1.408 . S
C697 C696 1.404 . S
C697 H709 0.930 . S
C698 C694 1.524 . S
C698 H710 0.956 . S
C698 H711 0.961 . S
C698 H712 0.961 . S
C699 C696 1.539 . S
C699 H713 0.958 . S
C699 H714 0.961 . S
C699 H715 0.960 . S
H700 C684 0.931 . S
H701 C689 0.929 . S
H702 C690 0.960 . S
H703 C690 0.962 . S
H704 C690 0.960 . S
H705 C691 0.961 . S
H706 C691 0.961 . S
H707 C691 0.961 . S
H708 C692 0.931 . S
H709 C697 0.930 . S
H710 C698 0.956 . S
H711 C698 0.961 . S
H712 C698 0.961 . S
H713 C699 0.958 . S
H714 C699 0.961 . S
H715 C699 0.960 . S
C716 C717 1.391 . S
C716 C718 1.394 . S
C716 H732 0.931 . S
C717 C716 1.391 . S
C717 C721 1.376 . S
C718 C716 1.394 . S
C718 C719 1.369 . S
C718 C722 1.531 . S
C719 C718 1.369 . S
C719 C720 1.410 . S
C719 C727 1.503 . S
C720 C719 1.410 . S
C720 C721 1.392 . S
C720 C723 1.511 . S
C721 C717 1.376 . S
C721 C720 1.392 . S
C721 H733 0.929 . S
C722 C718 1.531 . S
C722 H734 0.960 . S
C722 H735 0.962 . S
C722 H736 0.960 . S
C723 C720 1.511 . S
C723 H737 0.961 . S
C723 H738 0.961 . S
C723 H739 0.961 . S
C724 C725 1.370 . S
C724 C726 1.363 . S
C724 H740 0.931 . S
C725 C724 1.370 . S
C725 C729 1.408 . S
C726 C724 1.363 . S
C726 C727 1.370 . S
C726 C730 1.524 . S
C727 C719 1.503 . S
C727 C726 1.370 . S
C727 C728 1.403 . S
C728 C727 1.403 . S
C728 C729 1.404 . S
C728 C731 1.539 . S
C729 C725 1.408 . S
C729 C728 1.404 . S
C729 H741 0.930 . S
C730 C726 1.524 . S
C730 H742 0.956 . S
C730 H743 0.961 . S
C730 H744 0.961 . S
C731 C728 1.539 . S
C731 H745 0.958 . S
C731 H746 0.961 . S
C731 H747 0.960 . S
H732 C716 0.931 . S
H733 C721 0.929 . S
H734 C722 0.960 . S
H735 C722 0.962 . S
H736 C722 0.960 . S
H737 C723 0.961 . S
H738 C723 0.961 . S
H739 C723 0.961 . S
H740 C724 0.931 . S
H741 C729 0.930 . S
H742 C730 0.956 . S
H743 C730 0.961 . S
H744 C730 0.961 . S
H745 C731 0.958 . S
H746 C731 0.961 . S
H747 C731 0.960 . S
C748 C749 1.391 . S
C748 C750 1.394 . S
C748 H764 0.931 . S
C749 C748 1.391 . S
C749 C753 1.369 1_554 S
C750 C748 1.394 . S
C750 C751 1.369 . S
C750 C754 1.531 . S
C751 C750 1.369 . S
C751 C752 1.410 1_554 S
C751 C759 1.503 . S
C752 C751 1.410 1_556 S
C752 C753 1.394 . S
C752 C755 1.511 . S
C753 C749 1.369 1_556 S
C753 C752 1.394 . S
C753 H765 0.934 . S
C754 C750 1.531 . S
C754 H766 0.960 . S
C754 H767 0.962 . S
C754 H768 0.960 . S
C755 C752 1.511 . S
C755 H769 0.961 . S
C755 H770 0.961 . S
C755 H771 0.961 . S
C756 C757 1.370 . S
C756 C758 1.363 . S
C756 H772 0.931 . S
C757 C756 1.370 . S
C757 C761 1.408 1_556 S
C758 C756 1.363 . S
C758 C759 1.370 1_556 S
C758 C762 1.524 . S
C759 C751 1.503 . S
C759 C758 1.370 1_554 S
C759 C760 1.403 . S
C760 C759 1.403 . S
C760 C761 1.404 . S
C760 C763 1.539 . S
C761 C757 1.408 1_554 S
C761 C760 1.404 . S
C761 H773 0.930 . S
C762 C758 1.524 . S
C762 H774 0.956 . S
C762 H775 0.961 . S
C762 H776 0.961 . S
C763 C760 1.539 . S
C763 H777 0.958 . S
C763 H778 0.961 . S
C763 H779 0.960 . S
H764 C748 0.931 . S
H765 C753 0.934 . S
H766 C754 0.960 . S
H767 C754 0.962 . S
H768 C754 0.960 . S
H769 C755 0.961 . S
H770 C755 0.961 . S
H771 C755 0.961 . S
H772 C756 0.931 . S
H773 C761 0.930 . S
H774 C762 0.956 . S
H775 C762 0.961 . S
H776 C762 0.961 . S
H777 C763 0.958 . S
H778 C763 0.961 . S
H779 C763 0.960 . S
C780 C781 1.391 . S
C780 C782 1.394 . S
C780 H796 0.931 . S
C781 C780 1.391 . S
C781 C785 1.376 . S
C782 C780 1.394 . S
C782 C783 1.369 . S
C782 C786 1.531 . S
C783 C782 1.369 . S
C783 C784 1.410 . S
C783 C791 1.503 . S
C784 C783 1.410 . S
C784 C785 1.392 . S
C784 C787 1.511 . S
C785 C781 1.376 . S
C785 C784 1.392 . S
C785 H797 0.929 . S
C786 C782 1.531 . S
C786 H798 0.960 . S
C786 H799 0.962 . S
C786 H800 0.960 . S
C787 C784 1.511 . S
C787 H801 0.961 . S
C787 H802 0.961 . S
C787 H803 0.961 . S
C788 C789 1.370 . S
C788 C790 1.363 . S
C788 H804 0.931 . S
C789 C788 1.370 . S
C789 C793 1.408 . S
C790 C788 1.363 . S
C790 C791 1.370 . S
C790 C794 1.524 . S
C791 C783 1.503 . S
C791 C790 1.370 . S
C791 C792 1.403 . S
C792 C791 1.403 . S
C792 C793 1.404 . S
C792 C795 1.539 . S
C793 C789 1.408 . S
C793 C792 1.404 . S
C793 H805 0.930 . S
C794 C790 1.524 . S
C794 H806 0.956 . S
C794 H807 0.961 . S
C794 H808 0.961 . S
C795 C792 1.539 . S
C795 H809 0.958 . S
C795 H810 0.961 . S
C795 H811 0.960 . S
H796 C780 0.931 . S
H797 C785 0.929 . S
H798 C786 0.960 . S
H799 C786 0.962 . S
H800 C786 0.960 . S
H801 C787 0.961 . S
H802 C787 0.961 . S
H803 C787 0.961 . S
H804 C788 0.931 . S
H805 C793 0.930 . S
H806 C794 0.956 . S
H807 C794 0.961 . S
H808 C794 0.961 . S
H809 C795 0.958 . S
H810 C795 0.961 . S
H811 C795 0.960 . S
C812 C813 1.391 . S
C812 C814 1.394 . S
C812 H828 0.931 . S
C813 C812 1.391 . S
C813 C817 1.376 . S
C814 C812 1.394 . S
C814 C815 1.369 . S
C814 C818 1.531 . S
C815 C814 1.369 . S
C815 C816 1.410 . S
C815 C823 1.503 1_455 S
C816 C815 1.410 . S
C816 C817 1.392 . S
C816 C819 1.511 . S
C817 C813 1.376 . S
C817 C816 1.392 . S
C817 H829 0.929 . S
C818 C814 1.531 . S
C818 H830 0.960 . S
C818 H831 0.962 . S
C818 H832 0.960 . S
C819 C816 1.511 . S
C819 H833 0.961 . S
C819 H834 0.961 1_455 S
C819 H835 0.961 . S
C820 C821 1.370 . S
C820 C822 1.363 . S
C820 H836 0.931 . S
C821 C820 1.370 . S
C821 C825 1.408 . S
C822 C820 1.363 . S
C822 C823 1.370 . S
C822 C826 1.524 . S
C823 C815 1.503 1_655 S
C823 C822 1.370 . S
C823 C824 1.403 . S
C824 C823 1.403 . S
C824 C825 1.404 . S
C824 C827 1.539 . S
C825 C821 1.408 . S
C825 C824 1.404 . S
C825 H837 0.930 . S
C826 C822 1.524 . S
C826 H838 0.956 . S
C826 H839 0.961 . S
C826 H840 0.961 . S
C827 C824 1.539 . S
C827 H841 0.958 . S
C827 H842 0.961 . S
C827 H843 0.960 1_655 S
H828 C812 0.931 . S
H829 C817 0.929 . S
H830 C818 0.960 . S
H831 C818 0.962 . S
H832 C818 0.960 . S
H833 C819 0.961 . S
H834 C819 0.961 1_655 S
H835 C819 0.961 . S
H836 C820 0.931 . S
H837 C825 0.930 . S
H838 C826 0.956 . S
H839 C826 0.961 . S
H840 C826 0.961 . S
H841 C827 0.958 . S
H842 C827 0.961 . S
H843 C827 0.960 1_455 S
C844 C845 1.391 1_556 S
C844 C846 1.394 . S
C844 H860 0.931 . S
C845 C844 1.391 1_554 S
C845 C849 1.376 . S
C846 C844 1.394 . S
C846 C847 1.373 . S
C846 C850 1.531 . S
C847 C846 1.373 . S
C847 C848 1.404 1_556 S
C847 C855 1.504 1_545 S
C848 C847 1.404 1_554 S
C848 C849 1.392 . S
C848 C851 1.511 . S
C849 C845 1.376 . S
C849 C848 1.392 . S
C849 H861 0.929 . S
C850 C846 1.531 . S
C850 H862 0.960 . S
C850 H863 0.962 . S
C850 H864 0.960 . S
C851 C848 1.511 . S
C851 H865 0.961 . S
C851 H866 0.961 1_545 S
C851 H867 0.961 . S
C852 C853 1.370 . S
C852 C854 1.363 1_556 S
C852 H868 0.931 1_556 S
C853 C852 1.370 . S
C853 C857 1.408 . S
C854 C852 1.363 1_554 S
C854 C855 1.370 1_554 S
C854 C858 1.524 . S
C855 C847 1.504 1_565 S
C855 C854 1.370 1_556 S
C855 C856 1.403 . S
C856 C855 1.403 . S
C856 C857 1.404 . S
C856 C859 1.539 . S
C857 C853 1.408 . S
C857 C856 1.404 . S
C857 H869 0.930 . S
C858 C854 1.524 . S
C858 H870 0.956 . S
C858 H871 0.961 . S
C858 H872 0.961 . S
C859 C856 1.539 . S
C859 H873 0.958 . S
C859 H874 0.961 . S
C859 H875 0.960 1_565 S
H860 C844 0.931 . S
H861 C849 0.929 . S
H862 C850 0.960 . S
H863 C850 0.962 . S
H864 C850 0.960 . S
H865 C851 0.961 . S
H866 C851 0.961 1_565 S
H867 C851 0.961 . S
H868 C852 0.931 1_554 S
H869 C857 0.930 . S
H870 C858 0.956 . S
H871 C858 0.961 . S
H872 C858 0.961 . S
H873 C859 0.958 . S
H874 C859 0.961 . S
H875 C859 0.960 1_545 S
C876 C877 1.391 . S
C876 C878 1.394 . S
C876 H892 0.931 . S
C877 C876 1.391 . S
C877 C881 1.376 . S
C878 C876 1.394 . S
C878 C879 1.369 . S
C878 C882 1.531 . S
C879 C878 1.369 . S
C879 C880 1.410 . S
C879 C887 1.503 . S
C880 C879 1.410 . S
C880 C881 1.392 . S
C880 C883 1.511 . S
C881 C877 1.376 . S
C881 C880 1.392 . S
C881 H893 0.929 . S
C882 C878 1.531 . S
C882 H894 0.960 . S
C882 H895 0.962 . S
C882 H896 0.960 . S
C883 C880 1.511 . S
C883 H897 0.961 . S
C883 H898 0.961 . S
C883 H899 0.961 . S
C884 C885 1.370 . S
C884 C886 1.363 . S
C884 H900 0.931 . S
C885 C884 1.370 . S
C885 C889 1.408 . S
C886 C884 1.363 . S
C886 C887 1.370 . S
C886 C890 1.524 . S
C887 C879 1.503 . S
C887 C886 1.370 . S
C887 C888 1.403 . S
C888 C887 1.403 . S
C888 C889 1.404 . S
C888 C891 1.539 . S
C889 C885 1.408 . S
C889 C888 1.404 . S
C889 H901 0.930 . S
C890 C886 1.524 . S
C890 H902 0.956 . S
C890 H903 0.961 . S
C890 H904 0.961 . S
C891 C888 1.539 . S
C891 H905 0.958 . S
C891 H906 0.961 . S
C891 H907 0.960 . S
H892 C876 0.931 . S
H893 C881 0.929 . S
H894 C882 0.960 . S
H895 C882 0.962 . S
H896 C882 0.960 . S
H897 C883 0.961 . S
H898 C883 0.961 . S
H899 C883 0.961 . S
H900 C884 0.931 . S
H901 C889 0.930 . S
H902 C890 0.956 . S
H903 C890 0.961 . S
H904 C890 0.961 . S
H905 C891 0.958 . S
H906 C891 0.961 . S
H907 C891 0.960 . S
C908 C909 1.391 . S
C908 C910 1.394 . S
C908 H924 0.931 . S
C909 C908 1.391 . S
C909 C913 1.376 . S
C910 C908 1.394 . S
C910 C911 1.369 . S
C910 C914 1.531 . S
C911 C910 1.369 . S
C911 C912 1.410 . S
C911 C919 1.503 1_455 S
C912 C911 1.410 . S
C912 C913 1.392 . S
C912 C915 1.511 . S
C913 C909 1.376 . S
C913 C912 1.392 . S
C913 H925 0.929 . S
C914 C910 1.531 . S
C914 H926 0.960 . S
C914 H927 0.962 . S
C914 H928 0.960 . S
C915 C912 1.511 . S
C915 H929 0.961 . S
C915 H930 0.961 1_455 S
C915 H931 0.961 . S
C916 C917 1.370 . S
C916 C918 1.363 . S
C916 H932 0.931 . S
C917 C916 1.370 . S
C917 C921 1.408 . S
C918 C916 1.363 . S
C918 C919 1.370 . S
C918 C922 1.524 . S
C919 C911 1.503 1_655 S
C919 C918 1.370 . S
C919 C920 1.403 . S
C920 C919 1.403 . S
C920 C921 1.404 . S
C920 C923 1.539 . S
C921 C917 1.408 . S
C921 C920 1.404 . S
C921 H933 0.930 . S
C922 C918 1.524 . S
C922 H934 0.956 1_655 S
C922 H935 0.961 1_655 S
C922 H936 0.961 . S
C923 C920 1.539 . S
C923 H937 0.958 . S
C923 H938 0.961 . S
C923 H939 0.960 . S
H924 C908 0.931 . S
H925 C913 0.929 . S
H926 C914 0.960 . S
H927 C914 0.962 . S
H928 C914 0.960 . S
H929 C915 0.961 . S
H930 C915 0.961 1_655 S
H931 C915 0.961 . S
H932 C916 0.931 . S
H933 C921 0.930 . S
H934 C922 0.956 1_455 S
H935 C922 0.961 1_455 S
H936 C922 0.961 . S
H937 C923 0.958 . S
H938 C923 0.961 . S
H939 C923 0.960 . S
C940 C941 1.391 . S
C940 C942 1.394 . S
C940 H956 0.931 . S
C941 C940 1.391 . S
C941 C945 1.376 1_556 S
C942 C940 1.394 . S
C942 C943 1.369 . S
C942 C946 1.531 . S
C943 C942 1.369 . S
C943 C944 1.410 1_556 S
C943 C951 1.503 1_546 S
C944 C943 1.410 1_554 S
C944 C945 1.392 . S
C944 C947 1.511 . S
C945 C941 1.376 1_554 S
C945 C944 1.392 . S
C945 H957 0.929 . S
C946 C942 1.531 . S
C946 H958 0.960 1_545 S
C946 H959 0.950 . S
C946 H960 0.960 . S
C947 C944 1.511 . S
C947 H961 0.961 . S
C947 H962 0.961 . S
C947 H963 0.961 . S
C948 C949 1.370 . S
C948 C950 1.363 . S
C948 H964 0.931 . S
C949 C948 1.370 . S
C949 C953 1.408 . S
C950 C948 1.363 . S
C950 C951 1.370 . S
C950 C954 1.524 . S
C951 C943 1.503 1_564 S
C951 C950 1.370 . S
C951 C952 1.403 1_554 S
C952 C951 1.403 1_556 S
C952 C953 1.404 1_556 S
C952 C955 1.539 . S
C953 C949 1.408 . S
C953 C952 1.404 1_554 S
C953 H965 0.930 1_554 S
C954 C950 1.524 . S
C954 H966 0.956 1_554 S
C954 H967 0.961 1_565 S
C954 H968 0.961 . S
C955 C952 1.539 . S
C955 H969 0.958 . S
C955 H970 0.961 . S
C955 H971 0.960 . S
H956 C940 0.931 . S
H957 C945 0.929 . S
H958 C946 0.960 1_565 S
H959 C946 0.950 . S
H960 C946 0.960 . S
H961 C947 0.961 . S
H962 C947 0.961 . S
H963 C947 0.961 . S
H964 C948 0.931 . S
H965 C953 0.930 1_556 S
H966 C954 0.956 1_556 S
H967 C954 0.961 1_545 S
H968 C954 0.961 . S
H969 C955 0.958 . S
H970 C955 0.961 . S
H971 C955 0.960 . S
C972 C973 1.391 . S
C972 C974 1.394 . S
C972 H988 0.931 . S
C973 C972 1.391 . S
C973 C977 1.376 . S
C974 C972 1.394 . S
C974 C975 1.369 . S
C974 C978 1.531 . S
C975 C974 1.369 . S
C975 C976 1.410 . S
C975 C983 1.503 . S
C976 C975 1.410 . S
C976 C977 1.392 . S
C976 C979 1.511 . S
C977 C973 1.376 . S
C977 C976 1.392 . S
C977 H989 0.929 . S
C978 C974 1.531 . S
C978 H990 0.960 . S
C978 H991 0.962 . S
C978 H992 0.960 . S
C979 C976 1.511 . S
C979 H993 0.961 . S
C979 H994 0.961 . S
C979 H995 0.961 . S
C980 C981 1.370 . S
C980 C982 1.363 . S
C980 H996 0.931 . S
C981 C980 1.370 . S
C981 C985 1.408 . S
C982 C980 1.363 . S
C982 C983 1.370 . S
C982 C986 1.524 . S
C983 C975 1.503 . S
C983 C982 1.370 . S
C983 C984 1.403 . S
C984 C983 1.403 . S
C984 C985 1.404 . S
C984 C987 1.539 . S
C985 C981 1.408 . S
C985 C984 1.404 . S
C985 H997 0.930 . S
C986 C982 1.524 . S
C986 H998 0.956 . S
C986 H999 0.961 . S
C986 H1000 0.961 . S
C987 C984 1.539 . S
C987 H1001 0.958 . S
C987 H1002 0.961 . S
C987 H1003 0.960 . S
H988 C972 0.931 . S
H989 C977 0.929 . S
H990 C978 0.960 . S
H991 C978 0.962 . S
H992 C978 0.960 . S
H993 C979 0.961 . S
H994 C979 0.961 . S
H995 C979 0.961 . S
H996 C980 0.931 . S
H997 C985 0.930 . S
H998 C986 0.956 . S
H999 C986 0.961 . S
H1000 C986 0.961 . S
H1001 C987 0.958 . S
H1002 C987 0.961 . S
H1003 C987 0.960 . S
C1004 C1005 1.391 . S
C1004 C1006 1.394 . S
C1004 H1020 0.931 . S
C1005 C1004 1.391 . S
C1005 C1009 1.376 . S
C1006 C1004 1.394 . S
C1006 C1007 1.369 . S
C1006 C1010 1.531 . S
C1007 C1006 1.369 . S
C1007 C1008 1.410 . S
C1007 C1015 1.503 . S
C1008 C1007 1.410 . S
C1008 C1009 1.392 . S
C1008 C1011 1.511 . S
C1009 C1005 1.376 . S
C1009 C1008 1.392 . S
C1009 H1021 0.929 . S
C1010 C1006 1.531 . S
C1010 H1022 0.960 . S
C1010 H1023 0.962 . S
C1010 H1024 0.960 . S
C1011 C1008 1.511 . S
C1011 H1025 0.961 . S
C1011 H1026 0.961 . S
C1011 H1027 0.961 . S
C1012 C1013 1.370 . S
C1012 C1014 1.377 . S
C1012 H1028 0.931 . S
C1013 C1012 1.370 . S
C1013 C1017 1.408 . S
C1014 C1012 1.377 . S
C1014 C1015 1.363 1_556 S
C1014 C1018 1.518 1_556 S
C1015 C1007 1.503 . S
C1015 C1014 1.363 1_554 S
C1015 C1016 1.403 . S
C1016 C1015 1.403 . S
C1016 C1017 1.404 1_554 S
C1016 C1019 1.539 . S
C1017 C1013 1.408 . S
C1017 C1016 1.404 1_556 S
C1017 H1029 0.930 . S
C1018 C1014 1.518 1_554 S
C1018 H1030 0.956 . S
C1018 H1031 0.961 . S
C1018 H1032 0.961 1_554 S
C1019 C1016 1.539 . S
C1019 H1033 0.958 . S
C1019 H1034 0.961 . S
C1019 H1035 0.960 . S
H1020 C1004 0.931 . S
H1021 C1009 0.929 . S
H1022 C1010 0.960 . S
H1023 C1010 0.962 . S
H1024 C1010 0.960 . S
H1025 C1011 0.961 . S
H1026 C1011 0.961 . S
H1027 C1011 0.961 . S
H1028 C1012 0.931 . S
H1029 C1017 0.930 . S
H1030 C1018 0.956 . S
H1031 C1018 0.961 . S
H1032 C1018 0.961 1_556 S
H1033 C1019 0.958 . S
H1034 C1019 0.961 . S
H1035 C1019 0.960 . S
C1036 C1037 1.391 . S
C1036 C1038 1.394 . S
C1036 H1052 0.931 . S
C1037 C1036 1.391 . S
C1037 C1041 1.376 . S
C1038 C1036 1.394 . S
C1038 C1039 1.369 . S
C1038 C1042 1.531 . S
C1039 C1038 1.369 . S
C1039 C1040 1.410 . S
C1039 C1047 1.503 . S
C1040 C1039 1.410 . S
C1040 C1041 1.392 . S
C1040 C1043 1.511 . S
C1041 C1037 1.376 . S
C1041 C1040 1.392 . S
C1041 H1053 0.929 . S
C1042 C1038 1.531 . S
C1042 H1054 0.960 . S
C1042 H1055 0.962 . S
C1042 H1056 0.960 . S
C1043 C1040 1.511 . S
C1043 H1057 0.961 . S
C1043 H1058 0.961 . S
C1043 H1059 0.961 . S
C1044 C1045 1.370 . S
C1044 C1046 1.363 . S
C1044 H1060 0.931 . S
C1045 C1044 1.370 . S
C1045 C1049 1.408 . S
C1046 C1044 1.363 . S
C1046 C1047 1.370 . S
C1046 C1050 1.524 . S
C1047 C1039 1.503 . S
C1047 C1046 1.370 . S
C1047 C1048 1.403 . S
C1048 C1047 1.403 . S
C1048 C1049 1.404 . S
C1048 C1051 1.539 . S
C1049 C1045 1.408 . S
C1049 C1048 1.404 . S
C1049 H1061 0.930 . S
C1050 C1046 1.524 . S
C1050 H1062 0.956 . S
C1050 H1063 0.961 . S
C1050 H1064 0.961 . S
C1051 C1048 1.539 . S
C1051 H1065 0.958 . S
C1051 H1066 0.961 . S
C1051 H1067 0.960 . S
H1052 C1036 0.931 . S
H1053 C1041 0.929 . S
H1054 C1042 0.960 . S
H1055 C1042 0.962 . S
H1056 C1042 0.960 . S
H1057 C1043 0.961 . S
H1058 C1043 0.961 . S
H1059 C1043 0.961 . S
H1060 C1044 0.931 . S
H1061 C1049 0.930 . S
H1062 C1050 0.956 . S
H1063 C1050 0.961 . S
H1064 C1050 0.961 . S
H1065 C1051 0.958 . S
H1066 C1051 0.961 . S
H1067 C1051 0.960 . S
C1068 C1069 1.391 . S
C1068 C1070 1.394 . S
C1068 H1084 0.931 . S
C1069 C1068 1.391 . S
C1069 C1073 1.376 . S
C1070 C1068 1.394 . S
C1070 C1071 1.369 . S
C1070 C1074 1.531 . S
C1071 C1070 1.369 . S
C1071 C1072 1.410 . S
C1071 C1079 1.503 . S
C1072 C1071 1.410 . S
C1072 C1073 1.392 . S
C1072 C1075 1.511 . S
C1073 C1069 1.376 . S
C1073 C1072 1.392 . S
C1073 H1085 0.929 . S
C1074 C1070 1.531 . S
C1074 H1086 0.960 . S
C1074 H1087 0.962 . S
C1074 H1088 0.960 . S
C1075 C1072 1.511 . S
C1075 H1089 0.961 . S
C1075 H1090 0.961 . S
C1075 H1091 0.961 . S
C1076 C1077 1.370 . S
C1076 C1078 1.363 . S
C1076 H1092 0.931 . S
C1077 C1076 1.370 . S
C1077 C1081 1.408 . S
C1078 C1076 1.363 . S
C1078 C1079 1.370 . S
C1078 C1082 1.524 . S
C1079 C1071 1.503 . S
C1079 C1078 1.370 . S
C1079 C1080 1.403 . S
C1080 C1079 1.403 . S
C1080 C1081 1.404 . S
C1080 C1083 1.539 . S
C1081 C1077 1.408 . S
C1081 C1080 1.404 . S
C1081 H1093 0.930 . S
C1082 C1078 1.524 . S
C1082 H1094 0.956 . S
C1082 H1095 0.961 . S
C1082 H1096 0.961 . S
C1083 C1080 1.539 . S
C1083 H1097 0.958 . S
C1083 H1098 0.961 . S
C1083 H1099 0.960 . S
H1084 C1068 0.931 . S
H1085 C1073 0.929 . S
H1086 C1074 0.960 . S
H1087 C1074 0.962 . S
H1088 C1074 0.960 . S
H1089 C1075 0.961 . S
H1090 C1075 0.961 . S
H1091 C1075 0.961 . S
H1092 C1076 0.931 . S
H1093 C1081 0.930 . S
H1094 C1082 0.956 . S
H1095 C1082 0.961 . S
H1096 C1082 0.961 . S
H1097 C1083 0.958 . S
H1098 C1083 0.961 . S
H1099 C1083 0.960 . S
C1100 C1101 1.391 . S
C1100 C1102 1.394 . S
C1100 H1116 0.931 . S
C1101 C1100 1.391 . S
C1101 C1105 1.376 . S
C1102 C1100 1.394 . S
C1102 C1103 1.369 . S
C1102 C1106 1.531 . S
C1103 C1102 1.369 . S
C1103 C1104 1.410 . S
C1103 C1111 1.503 . S
C1104 C1103 1.410 . S
C1104 C1105 1.392 . S
C1104 C1107 1.511 . S
C1105 C1101 1.376 . S
C1105 C1104 1.392 . S
C1105 H1117 0.929 . S
C1106 C1102 1.531 . S
C1106 H1118 0.960 . S
C1106 H1119 0.962 . S
C1106 H1120 0.960 . S
C1107 C1104 1.511 . S
C1107 H1121 0.961 . S
C1107 H1122 0.961 . S
C1107 H1123 0.961 . S
C1108 C1109 1.370 . S
C1108 C1110 1.363 1_556 S
C1108 H1124 0.931 . S
C1109 C1108 1.370 . S
C1109 C1113 1.408 . S
C1110 C1108 1.363 1_554 S
C1110 C1111 1.370 . S
C1110 C1114 1.524 . S
C1111 C1103 1.503 . S
C1111 C1110 1.370 . S
C1111 C1112 1.403 1_554 S
C1112 C1111 1.403 1_556 S
C1112 C1113 1.404 . S
C1112 C1115 1.539 1_556 S
C1113 C1109 1.408 . S
C1113 C1112 1.404 . S
C1113 H1125 0.930 . S
C1114 C1110 1.524 . S
C1114 H1126 0.956 . S
C1114 H1127 0.961 . S
C1114 H1128 0.961 . S
C1115 C1112 1.539 1_554 S
C1115 H1129 0.958 . S
C1115 H1130 0.961 1_554 S
C1115 H1131 0.960 . S
H1116 C1100 0.931 . S
H1117 C1105 0.929 . S
H1118 C1106 0.960 . S
H1119 C1106 0.962 . S
H1120 C1106 0.960 . S
H1121 C1107 0.961 . S
H1122 C1107 0.961 . S
H1123 C1107 0.961 . S
H1124 C1108 0.931 . S
H1125 C1113 0.930 . S
H1126 C1114 0.956 . S
H1127 C1114 0.961 . S
H1128 C1114 0.961 . S
H1129 C1115 0.958 . S
H1130 C1115 0.961 1_556 S
H1131 C1115 0.960 . S
C1132 C1133 1.391 . S
C1132 C1134 1.394 . S
C1132 H1148 0.931 . S
C1133 C1132 1.391 . S
C1133 C1137 1.376 . S
C1134 C1132 1.394 . S
C1134 C1135 1.369 . S
C1134 C1138 1.531 . S
C1135 C1134 1.369 . S
C1135 C1136 1.410 . S
C1135 C1143 1.503 . S
C1136 C1135 1.410 . S
C1136 C1137 1.392 . S
C1136 C1139 1.511 . S
C1137 C1133 1.376 . S
C1137 C1136 1.392 . S
C1137 H1149 0.929 . S
C1138 C1134 1.531 . S
C1138 H1150 0.960 . S
C1138 H1151 0.962 . S
C1138 H1152 0.960 . S
C1139 C1136 1.511 . S
C1139 H1153 0.961 . S
C1139 H1154 0.961 . S
C1139 H1155 0.961 . S
C1140 C1141 1.370 . S
C1140 C1142 1.363 . S
C1140 H1156 0.931 . S
C1141 C1140 1.370 . S
C1141 C1145 1.408 . S
C1142 C1140 1.363 . S
C1142 C1143 1.370 . S
C1142 C1146 1.524 . S
C1143 C1135 1.503 . S
C1143 C1142 1.370 . S
C1143 C1144 1.403 . S
C1144 C1143 1.403 . S
C1144 C1145 1.404 . S
C1144 C1147 1.539 . S
C1145 C1141 1.408 . S
C1145 C1144 1.404 . S
C1145 H1157 0.930 . S
C1146 C1142 1.524 . S
C1146 H1158 0.956 . S
C1146 H1159 0.961 . S
C1146 H1160 0.961 . S
C1147 C1144 1.539 . S
C1147 H1161 0.958 . S
C1147 H1162 0.961 . S
C1147 H1163 0.960 . S
H1148 C1132 0.931 . S
H1149 C1137 0.929 . S
H1150 C1138 0.960 . S
H1151 C1138 0.962 . S
H1152 C1138 0.960 . S
H1153 C1139 0.961 . S
H1154 C1139 0.961 . S
H1155 C1139 0.961 . S
H1156 C1140 0.931 . S
H1157 C1145 0.930 . S
H1158 C1146 0.956 . S
H1159 C1146 0.961 . S
H1160 C1146 0.961 . S
H1161 C1147 0.958 . S
H1162 C1147 0.961 . S
H1163 C1147 0.960 . S
C1164 C1165 1.391 . S
C1164 C1166 1.394 1_554 S
C1164 H1180 0.931 . S
C1165 C1164 1.391 . S
C1165 C1169 1.376 . S
C1166 C1164 1.394 1_556 S
C1166 C1167 1.369 . S
C1166 C1170 1.531 . S
C1167 C1166 1.369 . S
C1167 C1168 1.410 1_556 S
C1167 C1175 1.503 . S
C1168 C1167 1.410 1_554 S
C1168 C1169 1.392 . S
C1168 C1171 1.511 1_554 S
C1169 C1165 1.376 . S
C1169 C1168 1.392 . S
C1169 H1181 0.929 . S
C1170 C1166 1.531 . S
C1170 H1182 0.960 . S
C1170 H1183 0.962 . S
C1170 H1184 0.960 . S
C1171 C1168 1.511 1_556 S
C1171 H1185 0.969 . S
C1171 H1186 0.961 . S
C1171 H1187 0.961 . S
C1172 C1173 1.370 . S
C1172 C1174 1.363 . S
C1172 H1188 0.931 . S
C1173 C1172 1.370 . S
C1173 C1177 1.408 . S
C1174 C1172 1.363 . S
C1174 C1175 1.370 . S
C1174 C1178 1.524 . S
C1175 C1167 1.503 . S
C1175 C1174 1.370 . S
C1175 C1176 1.403 . S
C1176 C1175 1.403 . S
C1176 C1177 1.404 . S
C1176 C1179 1.539 . S
C1177 C1173 1.408 . S
C1177 C1176 1.404 . S
C1177 H1189 0.930 . S
C1178 C1174 1.524 . S
C1178 H1190 0.956 . S
C1178 H1191 0.961 . S
C1178 H1192 0.961 . S
C1179 C1176 1.539 . S
C1179 H1193 0.958 . S
C1179 H1194 0.961 . S
C1179 H1195 0.960 . S
H1180 C1164 0.931 . S
H1181 C1169 0.929 . S
H1182 C1170 0.960 . S
H1183 C1170 0.962 . S
H1184 C1170 0.960 . S
H1185 C1171 0.969 . S
H1186 C1171 0.961 . S
H1187 C1171 0.961 . S
H1188 C1172 0.931 . S
H1189 C1177 0.930 . S
H1190 C1178 0.956 . S
H1191 C1178 0.961 . S
H1192 C1178 0.961 . S
H1193 C1179 0.958 . S
H1194 C1179 0.961 . S
H1195 C1179 0.960 . S
C1196 C1197 1.391 . S
C1196 C1198 1.394 . S
C1196 H1212 0.931 . S
C1197 C1196 1.391 . S
C1197 C1201 1.376 . S
C1198 C1196 1.394 . S
C1198 C1199 1.369 . S
C1198 C1202 1.531 . S
C1199 C1198 1.369 . S
C1199 C1200 1.410 . S
C1199 C1207 1.503 . S
C1200 C1199 1.410 . S
C1200 C1201 1.392 . S
C1200 C1203 1.511 . S
C1201 C1197 1.376 . S
C1201 C1200 1.392 . S
C1201 H1213 0.929 . S
C1202 C1198 1.531 . S
C1202 H1214 0.960 . S
C1202 H1215 0.962 . S
C1202 H1216 0.960 . S
C1203 C1200 1.511 . S
C1203 H1217 0.961 . S
C1203 H1218 0.961 . S
C1203 H1219 0.961 . S
C1204 C1205 1.370 . S
C1204 C1206 1.363 . S
C1204 H1220 0.931 . S
C1205 C1204 1.370 . S
C1205 C1209 1.408 . S
C1206 C1204 1.363 . S
C1206 C1207 1.370 . S
C1206 C1210 1.524 . S
C1207 C1199 1.503 . S
C1207 C1206 1.370 . S
C1207 C1208 1.403 . S
C1208 C1207 1.403 . S
C1208 C1209 1.404 . S
C1208 C1211 1.539 . S
C1209 C1205 1.408 . S
C1209 C1208 1.404 . S
C1209 H1221 0.930 . S
C1210 C1206 1.524 . S
C1210 H1222 0.956 . S
C1210 H1223 0.961 . S
C1210 H1224 0.961 . S
C1211 C1208 1.539 . S
C1211 H1225 0.958 . S
C1211 H1226 0.961 . S
C1211 H1227 0.960 . S
H1212 C1196 0.931 . S
H1213 C1201 0.929 . S
H1214 C1202 0.960 . S
H1215 C1202 0.962 . S
H1216 C1202 0.960 . S
H1217 C1203 0.961 . S
H1218 C1203 0.961 . S
H1219 C1203 0.961 . S
H1220 C1204 0.931 . S
H1221 C1209 0.930 . S
H1222 C1210 0.956 . S
H1223 C1210 0.961 . S
H1224 C1210 0.961 . S
H1225 C1211 0.958 . S
H1226 C1211 0.961 . S
H1227 C1211 0.960 . S
C1228 C1229 1.391 . S
C1228 C1230 1.394 . S
C1228 H1244 0.931 . S
C1229 C1228 1.391 . S
C1229 C1233 1.376 . S
C1230 C1228 1.394 . S
C1230 C1231 1.369 . S
C1230 C1234 1.531 . S
C1231 C1230 1.369 . S
C1231 C1232 1.410 . S
C1231 C1239 1.503 . S
C1232 C1231 1.410 . S
C1232 C1233 1.392 . S
C1232 C1235 1.511 . S
C1233 C1229 1.376 . S
C1233 C1232 1.392 . S
C1233 H1245 0.929 . S
C1234 C1230 1.531 . S
C1234 H1246 0.960 . S
C1234 H1247 0.962 . S
C1234 H1248 0.960 . S
C1235 C1232 1.511 . S
C1235 H1249 0.961 . S
C1235 H1250 0.961 . S
C1235 H1251 0.961 . S
C1236 C1237 1.370 . S
C1236 C1238 1.363 . S
C1236 H1252 0.931 . S
C1237 C1236 1.370 . S
C1237 C1241 1.408 . S
C1238 C1236 1.363 . S
C1238 C1239 1.370 . S
C1238 C1242 1.524 . S
C1239 C1231 1.503 . S
C1239 C1238 1.370 . S
C1239 C1240 1.403 . S
C1240 C1239 1.403 . S
C1240 C1241 1.404 . S
C1240 C1243 1.539 . S
C1241 C1237 1.408 . S
C1241 C1240 1.404 . S
C1241 H1253 0.930 . S
C1242 C1238 1.524 . S
C1242 H1254 0.956 . S
C1242 H1255 0.961 . S
C1242 H1256 0.961 . S
C1243 C1240 1.539 . S
C1243 H1257 0.958 . S
C1243 H1258 0.961 . S
C1243 H1259 0.960 . S
H1244 C1228 0.931 . S
H1245 C1233 0.929 . S
H1246 C1234 0.960 . S
H1247 C1234 0.962 . S
H1248 C1234 0.960 . S
H1249 C1235 0.961 . S
H1250 C1235 0.961 . S
H1251 C1235 0.961 . S
H1252 C1236 0.931 . S
H1253 C1241 0.930 . S
H1254 C1242 0.956 . S
H1255 C1242 0.961 . S
H1256 C1242 0.961 . S
H1257 C1243 0.958 . S
H1258 C1243 0.961 . S
H1259 C1243 0.960 . S
C1260 C1261 1.391 . S
C1260 C1262 1.394 . S
C1260 H1276 0.931 . S
C1261 C1260 1.391 . S
C1261 C1265 1.376 . S
C1262 C1260 1.394 . S
C1262 C1263 1.369 . S
C1262 C1266 1.531 . S
C1263 C1262 1.369 . S
C1263 C1264 1.410 . S
C1263 C1271 1.503 . S
C1264 C1263 1.410 . S
C1264 C1265 1.392 . S
C1264 C1267 1.511 . S
C1265 C1261 1.376 . S
C1265 C1264 1.392 . S
C1265 H1277 0.929 . S
C1266 C1262 1.531 . S
C1266 H1278 0.960 . S
C1266 H1279 0.962 . S
C1266 H1280 0.960 . S
C1267 C1264 1.511 . S
C1267 H1281 0.961 . S
C1267 H1282 0.961 . S
C1267 H1283 0.961 . S
C1268 C1269 1.370 . S
C1268 C1270 1.363 1_554 S
C1268 H1284 0.931 . S
C1269 C1268 1.370 . S
C1269 C1273 1.408 . S
C1270 C1268 1.363 1_556 S
C1270 C1271 1.370 . S
C1270 C1274 1.524 . S
C1271 C1263 1.503 . S
C1271 C1270 1.370 . S
C1271 C1272 1.403 1_556 S
C1272 C1271 1.403 1_554 S
C1272 C1273 1.404 . S
C1272 C1275 1.539 1_554 S
C1273 C1269 1.408 . S
C1273 C1272 1.404 . S
C1273 H1285 0.930 . S
C1274 C1270 1.524 . S
C1274 H1286 0.956 . S
C1274 H1287 0.961 . S
C1274 H1288 0.961 . S
C1275 C1272 1.539 1_556 S
C1275 H1289 0.958 . S
C1275 H1290 0.961 1_556 S
C1275 H1291 0.960 . S
H1276 C1260 0.931 . S
H1277 C1265 0.929 . S
H1278 C1266 0.960 . S
H1279 C1266 0.962 . S
H1280 C1266 0.960 . S
H1281 C1267 0.961 . S
H1282 C1267 0.961 . S
H1283 C1267 0.961 . S
H1284 C1268 0.931 . S
H1285 C1273 0.930 . S
H1286 C1274 0.956 . S
H1287 C1274 0.961 . S
H1288 C1274 0.961 . S
H1289 C1275 0.958 . S
H1290 C1275 0.961 1_554 S
H1291 C1275 0.960 . S
C1292 C1293 1.391 . S
C1292 C1294 1.394 . S
C1292 H1308 0.931 . S
C1293 C1292 1.391 . S
C1293 C1297 1.376 . S
C1294 C1292 1.394 . S
C1294 C1295 1.369 . S
C1294 C1298 1.531 . S
C1295 C1294 1.369 . S
C1295 C1296 1.410 . S
C1295 C1303 1.503 . S
C1296 C1295 1.410 . S
C1296 C1297 1.392 . S
C1296 C1299 1.511 . S
C1297 C1293 1.376 . S
C1297 C1296 1.392 . S
C1297 H1309 0.929 . S
C1298 C1294 1.531 . S
C1298 H1310 0.960 . S
C1298 H1311 0.962 . S
C1298 H1312 0.960 . S
C1299 C1296 1.511 . S
C1299 H1313 0.961 . S
C1299 H1314 0.961 . S
C1299 H1315 0.961 . S
C1300 C1301 1.370 . S
C1300 C1302 1.363 . S
C1300 H1316 0.931 . S
C1301 C1300 1.370 . S
C1301 C1305 1.408 . S
C1302 C1300 1.363 . S
C1302 C1303 1.370 . S
C1302 C1306 1.524 . S
C1303 C1295 1.503 . S
C1303 C1302 1.370 . S
C1303 C1304 1.403 . S
C1304 C1303 1.403 . S
C1304 C1305 1.404 . S
C1304 C1307 1.539 . S
C1305 C1301 1.408 . S
C1305 C1304 1.404 . S
C1305 H1317 0.930 . S
C1306 C1302 1.524 . S
C1306 H1318 0.956 . S
C1306 H1319 0.961 . S
C1306 H1320 0.961 . S
C1307 C1304 1.539 . S
C1307 H1321 0.958 . S
C1307 H1322 0.961 . S
C1307 H1323 0.960 . S
H1308 C1292 0.931 . S
H1309 C1297 0.929 . S
H1310 C1298 0.960 . S
H1311 C1298 0.962 . S
H1312 C1298 0.960 . S
H1313 C1299 0.961 . S
H1314 C1299 0.961 . S
H1315 C1299 0.961 . S
H1316 C1300 0.931 . S
H1317 C1305 0.930 . S
H1318 C1306 0.956 . S
H1319 C1306 0.961 . S
H1320 C1306 0.961 . S
H1321 C1307 0.958 . S
H1322 C1307 0.961 . S
H1323 C1307 0.960 . S
C1324 C1325 1.391 . S
C1324 C1326 1.394 . S
C1324 H1340 0.931 . S
C1325 C1324 1.391 . S
C1325 C1329 1.376 . S
C1326 C1324 1.394 . S
C1326 C1327 1.369 . S
C1326 C1330 1.531 . S
C1327 C1326 1.369 . S
C1327 C1328 1.410 . S
C1327 C1335 1.503 . S
C1328 C1327 1.410 . S
C1328 C1329 1.392 . S
C1328 C1331 1.511 . S
C1329 C1325 1.376 . S
C1329 C1328 1.392 . S
C1329 H1341 0.929 . S
C1330 C1326 1.531 . S
C1330 H1342 0.960 . S
C1330 H1343 0.962 . S
C1330 H1344 0.960 . S
C1331 C1328 1.511 . S
C1331 H1345 0.961 . S
C1331 H1346 0.961 . S
C1331 H1347 0.961 . S
C1332 C1333 1.370 . S
C1332 C1334 1.363 . S
C1332 H1348 0.931 . S
C1333 C1332 1.370 . S
C1333 C1337 1.408 . S
C1334 C1332 1.363 . S
C1334 C1335 1.370 . S
C1334 C1338 1.524 . S
C1335 C1327 1.503 . S
C1335 C1334 1.370 . S
C1335 C1336 1.403 . S
C1336 C1335 1.403 . S
C1336 C1337 1.404 . S
C1336 C1339 1.539 . S
C1337 C1333 1.408 . S
C1337 C1336 1.404 . S
C1337 H1349 0.930 . S
C1338 C1334 1.524 . S
C1338 H1350 0.956 . S
C1338 H1351 0.961 . S
C1338 H1352 0.961 . S
C1339 C1336 1.539 . S
C1339 H1353 0.958 . S
C1339 H1354 0.961 . S
C1339 H1355 0.960 . S
H1340 C1324 0.931 . S
H1341 C1329 0.929 . S
H1342 C1330 0.960 . S
H1343 C1330 0.962 . S
H1344 C1330 0.960 . S
H1345 C1331 0.961 . S
H1346 C1331 0.961 . S
H1347 C1331 0.961 . S
H1348 C1332 0.931 . S
H1349 C1337 0.930 . S
H1350 C1338 0.956 . S
H1351 C1338 0.961 . S
H1352 C1338 0.961 . S
H1353 C1339 0.958 . S
H1354 C1339 0.961 . S
H1355 C1339 0.960 . S
C397 C8 1.261 . S
C405 C338 1.320 . S
C429 C371 1.337 . S
C437 C41 1.288 . S
C461 C206 1.330 . S
C469 C74 1.288 . S
C493 C239 1.341 . S
C501 C107 1.290 . S
C525 C140 1.267 . S
C533 C272 1.321 . S
C557 C305 1.261 . S
C565 C173 1.317 . S
C589 C215 1.636 . S
C597 C17 1.624 . S
C621 C248 1.633 . S
C629 C50 1.629 . S
C653 C83 1.621 . S
C661 C281 1.631 . S
C685 C116 1.607 . S
C693 C314 1.627 . S
C717 C347 1.606 . S
C725 C149 1.622 . S
C749 C380 1.636 . S
C757 C182 1.625 . S
C781 C28 1.415 . S
C789 C325 1.408 . S
C813 C358 1.412 . S
C821 C61 1.407 . S
C845 C391 1.424 . S
C853 C94 1.414 . S
C877 C226 1.414 . S
C885 C127 1.414 . S
C909 C160 1.413 . S
C917 C259 1.414 . S
C941 C193 1.383 . S
C949 C292 1.399 . S
C973 N5 1.079 . S
C981 N14 1.073 1_556 S
C1005 N47 1.087 . S
C1013 N38 1.070 . S
C1037 N71 1.059 . S
C1045 N80 1.081 . S
C1069 N113 1.078 1_556 S
C1077 N104 1.074 . S
C1101 N146 1.060 . S
C1109 N137 1.081 . S
C1133 N179 1.074 . S
C1141 N170 1.074 . S
C1165 N203 1.086 . S
C1173 N212 1.068 . S
C1197 N245 1.070 1_554 S
C1205 N236 1.077 . S
C1229 N278 1.068 . S
C1237 N269 1.076 . S
C1261 N311 1.059 . S
C1269 N302 1.081 . S
C1293 N335 1.061 . S
C1301 N344 1.080 1_554 S
C1325 N377 1.068 . S
C1333 N368 1.076 . S
