# Generated by pormake.
# Topology mer, (4)-cn, num edge types: 1
# Building blocks:
#     Node 0, Type 0, BuildingBlock: QUQFOY_clean_sbu_3, # of connection points: 4
#     Node 1, Type 0, BuildingBlock: QUQFOY_clean_sbu_3, # of connection points: 4
#     Node 2, Type 0, BuildingBlock: QUQFOY_clean_sbu_3, # of connection points: 4
#     Node 3, Type 0, BuildingBlock: QUQFOY_clean_sbu_3, # of connection points: 4
#     Node 4, Type 0, BuildingBlock: QUQFOY_clean_sbu_3, # of connection points: 4
#     Node 5, Type 0, BuildingBlock: QUQFOY_clean_sbu_3, # of connection points: 4
#     Node 6, Type 0, BuildingBlock: QUQFOY_clean_sbu_3, # of connection points: 4
#     Node 7, Type 0, BuildingBlock: QUQFOY_clean_sbu_3, # of connection points: 4
#     Node 8, Type 0, BuildingBlock: QUQFOY_clean_sbu_3, # of connection points: 4
#     Node 9, Type 0, BuildingBlock: QUQFOY_clean_sbu_3, # of connection points: 4
#     Node 10, Type 0, BuildingBlock: QUQFOY_clean_sbu_3, # of connection points: 4
#     Node 11, Type 0, BuildingBlock: QUQFOY_clean_sbu_3, # of connection points: 4
#     Node 12, Type 0, BuildingBlock: QUQFOY_clean_sbu_3, # of connection points: 4
#     Node 13, Type 0, BuildingBlock: QUQFOY_clean_sbu_3, # of connection points: 4
#     Node 14, Type 0, BuildingBlock: QUQFOY_clean_sbu_3, # of connection points: 4
#     Node 15, Type 0, BuildingBlock: QUQFOY_clean_sbu_3, # of connection points: 4
#     Node 16, Type 0, BuildingBlock: QUQFOY_clean_sbu_3, # of connection points: 4
#     Node 17, Type 0, BuildingBlock: QUQFOY_clean_sbu_3, # of connection points: 4
#     Node 18, Type 0, BuildingBlock: QUQFOY_clean_sbu_3, # of connection points: 4
#     Node 19, Type 0, BuildingBlock: QUQFOY_clean_sbu_3, # of connection points: 4
#     Node 20, Type 0, BuildingBlock: QUQFOY_clean_sbu_3, # of connection points: 4
#     Node 21, Type 0, BuildingBlock: QUQFOY_clean_sbu_3, # of connection points: 4
#     Node 22, Type 0, BuildingBlock: QUQFOY_clean_sbu_3, # of connection points: 4
#     Node 23, Type 0, BuildingBlock: QUQFOY_clean_sbu_3, # of connection points: 4
#     Node 24, Type 0, BuildingBlock: QUQFOY_clean_sbu_3, # of connection points: 4
#     Node 25, Type 0, BuildingBlock: QUQFOY_clean_sbu_3, # of connection points: 4
#     Node 26, Type 0, BuildingBlock: QUQFOY_clean_sbu_3, # of connection points: 4
#     Node 27, Type 0, BuildingBlock: QUQFOY_clean_sbu_3, # of connection points: 4
#     Node 28, Type 0, BuildingBlock: QUQFOY_clean_sbu_3, # of connection points: 4
#     Node 29, Type 0, BuildingBlock: QUQFOY_clean_sbu_3, # of connection points: 4
#     Node 30, Type 0, BuildingBlock: QUQFOY_clean_sbu_3, # of connection points: 4
#     Node 31, Type 0, BuildingBlock: QUQFOY_clean_sbu_3, # of connection points: 4
#     Edge 32, Type (0, 0), BuildingBlock: ZUJKAS_clean_linker_0, # of connection points: 2
#     Edge 33, Type (0, 0), BuildingBlock: ZUJKAS_clean_linker_0, # of connection points: 2
#     Edge 34, Type (0, 0), BuildingBlock: ZUJKAS_clean_linker_0, # of connection points: 2
#     Edge 35, Type (0, 0), BuildingBlock: ZUJKAS_clean_linker_0, # of connection points: 2
#     Edge 36, Type (0, 0), BuildingBlock: ZUJKAS_clean_linker_0, # of connection points: 2
#     Edge 37, Type (0, 0), BuildingBlock: ZUJKAS_clean_linker_0, # of connection points: 2
#     Edge 38, Type (0, 0), BuildingBlock: ZUJKAS_clean_linker_0, # of connection points: 2
#     Edge 39, Type (0, 0), BuildingBlock: ZUJKAS_clean_linker_0, # of connection points: 2
#     Edge 40, Type (0, 0), BuildingBlock: ZUJKAS_clean_linker_0, # of connection points: 2
#     Edge 41, Type (0, 0), BuildingBlock: ZUJKAS_clean_linker_0, # of connection points: 2
#     Edge 42, Type (0, 0), BuildingBlock: ZUJKAS_clean_linker_0, # of connection points: 2
#     Edge 43, Type (0, 0), BuildingBlock: ZUJKAS_clean_linker_0, # of connection points: 2
#     Edge 44, Type (0, 0), BuildingBlock: ZUJKAS_clean_linker_0, # of connection points: 2
#     Edge 45, Type (0, 0), BuildingBlock: ZUJKAS_clean_linker_0, # of connection points: 2
#     Edge 46, Type (0, 0), BuildingBlock: ZUJKAS_clean_linker_0, # of connection points: 2
#     Edge 47, Type (0, 0), BuildingBlock: ZUJKAS_clean_linker_0, # of connection points: 2
#     Edge 48, Type (0, 0), BuildingBlock: ZUJKAS_clean_linker_0, # of connection points: 2
#     Edge 49, Type (0, 0), BuildingBlock: ZUJKAS_clean_linker_0, # of connection points: 2
#     Edge 50, Type (0, 0), BuildingBlock: ZUJKAS_clean_linker_0, # of connection points: 2
#     Edge 51, Type (0, 0), BuildingBlock: ZUJKAS_clean_linker_0, # of connection points: 2
#     Edge 52, Type (0, 0), BuildingBlock: ZUJKAS_clean_linker_0, # of connection points: 2
#     Edge 53, Type (0, 0), BuildingBlock: ZUJKAS_clean_linker_0, # of connection points: 2
#     Edge 54, Type (0, 0), BuildingBlock: ZUJKAS_clean_linker_0, # of connection points: 2
#     Edge 55, Type (0, 0), BuildingBlock: ZUJKAS_clean_linker_0, # of connection points: 2
#     Edge 56, Type (0, 0), BuildingBlock: ZUJKAS_clean_linker_0, # of connection points: 2
#     Edge 57, Type (0, 0), BuildingBlock: ZUJKAS_clean_linker_0, # of connection points: 2
#     Edge 58, Type (0, 0), BuildingBlock: ZUJKAS_clean_linker_0, # of connection points: 2
#     Edge 59, Type (0, 0), BuildingBlock: ZUJKAS_clean_linker_0, # of connection points: 2
#     Edge 60, Type (0, 0), BuildingBlock: ZUJKAS_clean_linker_0, # of connection points: 2
#     Edge 61, Type (0, 0), BuildingBlock: ZUJKAS_clean_linker_0, # of connection points: 2
#     Edge 62, Type (0, 0), BuildingBlock: ZUJKAS_clean_linker_0, # of connection points: 2
#     Edge 63, Type (0, 0), BuildingBlock: ZUJKAS_clean_linker_0, # of connection points: 2
#     Edge 64, Type (0, 0), BuildingBlock: ZUJKAS_clean_linker_0, # of connection points: 2
#     Edge 65, Type (0, 0), BuildingBlock: ZUJKAS_clean_linker_0, # of connection points: 2
#     Edge 66, Type (0, 0), BuildingBlock: ZUJKAS_clean_linker_0, # of connection points: 2
#     Edge 67, Type (0, 0), BuildingBlock: ZUJKAS_clean_linker_0, # of connection points: 2
#     Edge 68, Type (0, 0), BuildingBlock: ZUJKAS_clean_linker_0, # of connection points: 2
#     Edge 69, Type (0, 0), BuildingBlock: ZUJKAS_clean_linker_0, # of connection points: 2
#     Edge 70, Type (0, 0), BuildingBlock: ZUJKAS_clean_linker_0, # of connection points: 2
#     Edge 71, Type (0, 0), BuildingBlock: ZUJKAS_clean_linker_0, # of connection points: 2
#     Edge 72, Type (0, 0), BuildingBlock: ZUJKAS_clean_linker_0, # of connection points: 2
#     Edge 73, Type (0, 0), BuildingBlock: ZUJKAS_clean_linker_0, # of connection points: 2
#     Edge 74, Type (0, 0), BuildingBlock: ZUJKAS_clean_linker_0, # of connection points: 2
#     Edge 75, Type (0, 0), BuildingBlock: ZUJKAS_clean_linker_0, # of connection points: 2
#     Edge 76, Type (0, 0), BuildingBlock: ZUJKAS_clean_linker_0, # of connection points: 2
#     Edge 77, Type (0, 0), BuildingBlock: ZUJKAS_clean_linker_0, # of connection points: 2
#     Edge 78, Type (0, 0), BuildingBlock: ZUJKAS_clean_linker_0, # of connection points: 2
#     Edge 79, Type (0, 0), BuildingBlock: ZUJKAS_clean_linker_0, # of connection points: 2
#     Edge 80, Type (0, 0), BuildingBlock: ZUJKAS_clean_linker_0, # of connection points: 2
#     Edge 81, Type (0, 0), BuildingBlock: ZUJKAS_clean_linker_0, # of connection points: 2
#     Edge 82, Type (0, 0), BuildingBlock: ZUJKAS_clean_linker_0, # of connection points: 2
#     Edge 83, Type (0, 0), BuildingBlock: ZUJKAS_clean_linker_0, # of connection points: 2
#     Edge 84, Type (0, 0), BuildingBlock: ZUJKAS_clean_linker_0, # of connection points: 2
#     Edge 85, Type (0, 0), BuildingBlock: ZUJKAS_clean_linker_0, # of connection points: 2
#     Edge 86, Type (0, 0), BuildingBlock: ZUJKAS_clean_linker_0, # of connection points: 2
#     Edge 87, Type (0, 0), BuildingBlock: ZUJKAS_clean_linker_0, # of connection points: 2
#     Edge 88, Type (0, 0), BuildingBlock: ZUJKAS_clean_linker_0, # of connection points: 2
#     Edge 89, Type (0, 0), BuildingBlock: ZUJKAS_clean_linker_0, # of connection points: 2
#     Edge 90, Type (0, 0), BuildingBlock: ZUJKAS_clean_linker_0, # of connection points: 2
#     Edge 91, Type (0, 0), BuildingBlock: ZUJKAS_clean_linker_0, # of connection points: 2
#     Edge 92, Type (0, 0), BuildingBlock: ZUJKAS_clean_linker_0, # of connection points: 2
#     Edge 93, Type (0, 0), BuildingBlock: ZUJKAS_clean_linker_0, # of connection points: 2
#     Edge 94, Type (0, 0), BuildingBlock: ZUJKAS_clean_linker_0, # of connection points: 2
#     Edge 95, Type (0, 0), BuildingBlock: ZUJKAS_clean_linker_0, # of connection points: 2
# Relax obj value: 0.063
# Max RMSD: 0.126
# Mean RMSD: 0.118
data_MOF--net-mer--node1-QUQFOY_clean_sbu_3--edge1-ZUJKAS_clean_linker_0
_symmetry_space_group_name_H-M    P1
_symmetry_Int_Tables_number       1
_symmetry_cell_setting            triclinic
loop_
_symmetry_equiv_pos_as_xyz
'x, y, z'
_cell_length_a     82.599703
_cell_length_b     84.313391
_cell_length_c     72.059161
_cell_angle_alpha  89.899667
_cell_angle_beta   89.998578
_cell_angle_gamma 90.067939
loop_
_atom_site_label
_atom_site_type_symbol
_atom_site_fract_x
_atom_site_fract_y
_atom_site_fract_z
_atom_type_partial_charge
C0 C 0.12564 0.31499 0.32572 0.0
O1 O 0.13633 0.31893 0.33751 0.0
Cd2 Cd 0.13899 0.3058 0.36707 0.0
O3 O 0.11547 0.3041 0.32947 0.0
Cd4 Cd 0.10816 0.28621 0.35515 0.0
C5 C 0.14427 0.26727 0.35305 0.0
O6 O 0.11258 0.30471 0.38104 0.0
O7 O 0.10746 0.28029 0.38804 0.0
O8 O 0.08009 0.29137 0.34698 0.0
C9 C 0.10984 0.29438 0.39348 0.0
O10 O 0.15029 0.27957 0.36064 0.0
C11 C 0.07603 0.27689 0.34573 0.0
O12 O 0.12936 0.26684 0.34861 0.0
O13 O 0.08702 0.26666 0.34869 0.0
C14 C 0.66661 0.11747 0.32584 0.0
O15 O 0.66235 0.12585 0.33961 0.0
Cd16 Cd 0.67705 0.12549 0.36848 0.0
O17 O 0.67859 0.10805 0.32716 0.0
Cd18 Cd 0.69873 0.09896 0.34996 0.0
C19 C 0.71452 0.13596 0.35204 0.0
O20 O 0.68145 0.09835 0.37768 0.0
O21 O 0.70717 0.09539 0.38187 0.0
O22 O 0.69506 0.07265 0.33696 0.0
C23 C 0.69305 0.0955 0.38875 0.0
O24 O 0.70219 0.13974 0.36169 0.0
C25 C 0.71002 0.06994 0.33444 0.0
O26 O 0.71586 0.12209 0.34527 0.0
O27 O 0.71984 0.08086 0.33902 0.0
C28 C 0.85656 0.66752 0.32487 0.0
O29 O 0.84638 0.66341 0.33719 0.0
Cd30 Cd 0.84457 0.67639 0.36686 0.0
O31 O 0.86669 0.67856 0.32809 0.0
Cd32 Cd 0.87459 0.69654 0.35338 0.0
C33 C 0.83818 0.71491 0.35317 0.0
O34 O 0.87137 0.67807 0.37962 0.0
O35 O 0.87613 0.70263 0.38615 0.0
O36 O 0.90249 0.69174 0.34428 0.0
C37 C 0.87424 0.68853 0.39183 0.0
O38 O 0.83274 0.70251 0.36115 0.0
C39 C 0.90636 0.70627 0.34295 0.0
O40 O 0.85285 0.7156 0.34778 0.0
O41 O 0.89531 0.71636 0.34616 0.0
C42 C 0.31811 0.86054 0.32762 0.0
O43 O 0.32206 0.85192 0.34135 0.0
Cd44 Cd 0.30712 0.85219 0.37006 0.0
O45 O 0.3063 0.87016 0.32891 0.0
Cd46 Cd 0.28619 0.87905 0.35186 0.0
C47 C 0.2697 0.84234 0.3533 0.0
O48 O 0.30309 0.87919 0.37997 0.0
O49 O 0.27728 0.88181 0.38366 0.0
O50 O 0.28977 0.9059 0.34015 0.0
C51 C 0.29129 0.88186 0.39081 0.0
O52 O 0.28183 0.83826 0.36311 0.0
C53 C 0.27482 0.90847 0.33736 0.0
O54 O 0.26872 0.85627 0.34658 0.0
O55 O 0.26511 0.89721 0.34106 0.0
C56 C 0.12447 0.67012 0.64373 0.0
O57 O 0.13423 0.66622 0.63091 0.0
Cd58 Cd 0.13531 0.67982 0.60159 0.0
O59 O 0.1142 0.68114 0.6411 0.0
Cd60 Cd 0.10521 0.69919 0.61618 0.0
C61 C 0.14121 0.71822 0.61631 0.0
O62 O 0.10825 0.68107 0.58968 0.0
O63 O 0.10312 0.70562 0.58347 0.0
O64 O 0.07797 0.69296 0.62649 0.0
C65 C 0.10503 0.69159 0.57762 0.0
O66 O 0.14669 0.70602 0.60803 0.0
C67 C 0.07314 0.70723 0.6272 0.0
O68 O 0.12658 0.71867 0.62186 0.0
O69 O 0.08341 0.71793 0.62322 0.0
C70 C 0.31791 0.11801 0.64175 0.0
O71 O 0.32142 0.12586 0.62724 0.0
Cd72 Cd 0.30553 0.12422 0.59918 0.0
O73 O 0.306 0.10843 0.64173 0.0
Cd74 Cd 0.28496 0.09853 0.62066 0.0
C75 C 0.26893 0.13518 0.61715 0.0
O76 O 0.30087 0.09682 0.592 0.0
O77 O 0.27494 0.09445 0.58936 0.0
O78 O 0.28895 0.07243 0.63416 0.0
C79 C 0.28875 0.09392 0.58172 0.0
O80 O 0.28021 0.13828 0.60564 0.0
C81 C 0.27409 0.0699 0.63762 0.0
O82 O 0.26851 0.12201 0.62581 0.0
O83 O 0.26421 0.08089 0.63349 0.0
C84 C 0.85677 0.31062 0.6453 0.0
O85 O 0.84639 0.31474 0.63324 0.0
Cd86 Cd 0.84357 0.30072 0.60434 0.0
O87 O 0.86654 0.29933 0.64194 0.0
Cd88 Cd 0.87356 0.28106 0.61656 0.0
C89 C 0.83749 0.2626 0.61984 0.0
O90 O 0.86957 0.29868 0.58954 0.0
O91 O 0.87289 0.27367 0.58423 0.0
O92 O 0.90151 0.28706 0.62404 0.0
C93 C 0.87155 0.28761 0.57783 0.0
O94 O 0.83183 0.27485 0.61176 0.0
C95 C 0.90617 0.27274 0.62499 0.0
O96 O 0.85236 0.26194 0.62441 0.0
O97 O 0.8955 0.26211 0.62241 0.0
C98 C 0.66134 0.86318 0.64302 0.0
O99 O 0.6571 0.85506 0.62901 0.0
Cd100 Cd 0.67313 0.85432 0.6011 0.0
O101 O 0.67386 0.87197 0.64228 0.0
Cd102 Cd 0.69509 0.88035 0.62043 0.0
C103 C 0.70962 0.84293 0.6197 0.0
O104 O 0.6792 0.88106 0.59166 0.0
O105 O 0.70518 0.88287 0.58906 0.0
O106 O 0.6918 0.90695 0.63263 0.0
C107 C 0.69144 0.88311 0.58126 0.0
O108 O 0.69751 0.83942 0.60955 0.0
C109 C 0.70672 0.90925 0.63591 0.0
O110 O 0.71121 0.85683 0.62633 0.0
O111 O 0.71634 0.89796 0.63213 0.0
C112 C 0.90192 0.72881 0.6247 0.0
O113 O 0.89564 0.74088 0.61699 0.0
Cd114 Cd 0.86741 0.74185 0.60905 0.0
O115 O 0.89317 0.71697 0.62918 0.0
Cd116 Cd 0.8646 0.70832 0.62898 0.0
C117 C 0.86449 0.7079 0.58242 0.0
O118 O 0.8525 0.73399 0.63596 0.0
O119 O 0.83607 0.71572 0.62677 0.0
O120 O 0.8703 0.69866 0.65991 0.0
C121 C 0.83804 0.72965 0.63295 0.0
O122 O 0.8638 0.72296 0.58365 0.0
C123 C 0.86344 0.6853 0.6579 0.0
O124 O 0.86605 0.69932 0.59688 0.0
O125 O 0.85737 0.68235 0.64207 0.0
C126 C 0.30711 0.85997 0.64959 0.0
O127 O 0.31131 0.85182 0.63559 0.0
Cd128 Cd 0.29679 0.85242 0.60679 0.0
O129 O 0.29508 0.86937 0.6486 0.0
Cd130 Cd 0.27505 0.87914 0.62578 0.0
C131 C 0.25841 0.84265 0.62203 0.0
O132 O 0.29337 0.87985 0.59917 0.0
O133 O 0.26811 0.88392 0.59331 0.0
O134 O 0.28027 0.90461 0.63993 0.0
C135 C 0.28254 0.88332 0.58739 0.0
O136 O 0.27109 0.83898 0.61293 0.0
C137 C 0.26555 0.90859 0.6418 0.0
O138 O 0.25692 0.85638 0.62918 0.0
O139 O 0.25497 0.89867 0.63639 0.0
C140 C 0.07771 0.25099 0.61999 0.0
O141 O 0.08418 0.23942 0.6115 0.0
Cd142 Cd 0.11283 0.23768 0.60564 0.0
O143 O 0.08639 0.26224 0.62634 0.0
Cd144 Cd 0.11499 0.27041 0.62888 0.0
C145 C 0.11857 0.27295 0.58222 0.0
O146 O 0.12571 0.24389 0.6343 0.0
O147 O 0.14345 0.2625 0.63119 0.0
O148 O 0.10761 0.2793 0.65973 0.0
C149 C 0.14046 0.24799 0.63423 0.0
O150 O 0.11866 0.25784 0.58228 0.0
C151 C 0.11467 0.29264 0.65856 0.0
O152 O 0.11636 0.28073 0.59714 0.0
O153 O 0.12154 0.29591 0.64324 0.0
C154 C 0.67294 0.11818 0.64865 0.0
O155 O 0.66863 0.12674 0.63501 0.0
Cd156 Cd 0.68357 0.12748 0.60647 0.0
O157 O 0.68518 0.10909 0.64731 0.0
Cd158 Cd 0.70545 0.1006 0.62415 0.0
C159 C 0.72155 0.13738 0.62268 0.0
O160 O 0.68752 0.10049 0.59711 0.0
O161 O 0.71302 0.0974 0.59167 0.0
O162 O 0.70036 0.07441 0.63642 0.0
C163 C 0.69867 0.09769 0.58547 0.0
O164 O 0.7089 0.14122 0.61363 0.0
C165 C 0.71508 0.0706 0.63867 0.0
O166 O 0.72323 0.12339 0.62907 0.0
O167 O 0.72563 0.08095 0.63436 0.0
C168 C 0.9061 0.25046 0.34063 0.0
O169 O 0.89969 0.23809 0.34754 0.0
Cd170 Cd 0.87164 0.2365 0.35594 0.0
O171 O 0.8975 0.26262 0.33702 0.0
Cd172 Cd 0.86891 0.27131 0.33826 0.0
C173 C 0.86922 0.26906 0.38491 0.0
O174 O 0.8565 0.24605 0.33006 0.0
O175 O 0.84033 0.26395 0.34058 0.0
O176 O 0.87298 0.28287 0.30779 0.0
C177 C 0.84212 0.25022 0.33376 0.0
O178 O 0.86855 0.25408 0.38266 0.0
C179 C 0.86706 0.29634 0.31174 0.0
O180 O 0.87053 0.27835 0.37104 0.0
O181 O 0.8623 0.29836 0.32833 0.0
C182 C 0.67478 0.86022 0.32127 0.0
O183 O 0.67053 0.85202 0.33524 0.0
Cd184 Cd 0.68521 0.85206 0.36396 0.0
O185 O 0.68702 0.86939 0.32218 0.0
Cd186 Cd 0.70748 0.87847 0.34482 0.0
C187 C 0.72327 0.84166 0.34824 0.0
O188 O 0.68981 0.87917 0.37203 0.0
O189 O 0.71537 0.88222 0.37708 0.0
O190 O 0.70242 0.90446 0.33201 0.0
C191 C 0.70109 0.88195 0.38351 0.0
O192 O 0.71059 0.83831 0.35752 0.0
C193 C 0.71714 0.90823 0.32957 0.0
O194 O 0.72506 0.85533 0.34092 0.0
O195 O 0.72768 0.89789 0.33392 0.0
C196 C 0.07627 0.73107 0.34302 0.0
O197 O 0.08287 0.74308 0.35048 0.0
Cd198 Cd 0.11103 0.74371 0.35868 0.0
O199 O 0.08469 0.71893 0.33888 0.0
Cd200 Cd 0.11307 0.70967 0.3396 0.0
C201 C 0.11299 0.71014 0.3862 0.0
O202 O 0.12575 0.73501 0.33209 0.0
O203 O 0.14178 0.71657 0.34167 0.0
O204 O 0.10742 0.69932 0.30897 0.0
C205 C 0.14011 0.73049 0.33528 0.0
O206 O 0.11406 0.72516 0.38458 0.0
C207 C 0.114 0.68591 0.31158 0.0
O208 O 0.11129 0.70136 0.37198 0.0
O209 O 0.11987 0.68328 0.32759 0.0
C210 C 0.30292 0.11898 0.32227 0.0
O211 O 0.30761 0.127 0.33616 0.0
Cd212 Cd 0.29311 0.12692 0.36499 0.0
O213 O 0.29058 0.10997 0.32353 0.0
Cd214 Cd 0.2706 0.10068 0.34665 0.0
C215 C 0.25495 0.1375 0.34964 0.0
O216 O 0.28891 0.09973 0.37331 0.0
O217 O 0.26347 0.0967 0.37915 0.0
O218 O 0.27607 0.07523 0.33278 0.0
C219 C 0.27791 0.09674 0.38508 0.0
O220 O 0.26779 0.14086 0.35863 0.0
C221 C 0.26144 0.07081 0.3314 0.0
O222 O 0.25294 0.12375 0.3427 0.0
O223 O 0.2507 0.08054 0.33684 0.0
C224 C 0.62618 0.81223 0.82495 0.0
O225 O 0.63663 0.8161 0.83704 0.0
Cd226 Cd 0.63861 0.80247 0.86641 0.0
O227 O 0.61612 0.80115 0.82827 0.0
Cd228 Cd 0.60882 0.78276 0.85338 0.0
C229 C 0.645 0.76417 0.85242 0.0
O230 O 0.61212 0.80066 0.8802 0.0
O231 O 0.60809 0.77578 0.88585 0.0
O232 O 0.58077 0.78782 0.84516 0.0
C233 C 0.60957 0.78976 0.89204 0.0
O234 O 0.65052 0.77643 0.86056 0.0
C235 C 0.57685 0.77335 0.84338 0.0
O236 O 0.63033 0.76367 0.84702 0.0
O237 O 0.58793 0.76315 0.84599 0.0
C238 C 0.16307 0.61979 0.8263 0.0
O239 O 0.15935 0.62847 0.84003 0.0
Cd240 Cd 0.17554 0.62859 0.86789 0.0
O241 O 0.17501 0.61032 0.82737 0.0
Cd242 Cd 0.19574 0.60128 0.84939 0.0
C243 C 0.21246 0.63781 0.84885 0.0
O244 O 0.18029 0.60189 0.87855 0.0
O245 O 0.20628 0.5994 0.88055 0.0
O246 O 0.19058 0.57442 0.8389 0.0
C247 C 0.19268 0.59961 0.88867 0.0
O248 O 0.20065 0.64206 0.85906 0.0
C249 C 0.20521 0.57124 0.83498 0.0
O250 O 0.21323 0.62375 0.84248 0.0
O251 O 0.21555 0.58218 0.8376 0.0
C252 C 0.35673 0.16985 0.82274 0.0
O253 O 0.34653 0.16547 0.8349 0.0
Cd254 Cd 0.34413 0.17889 0.86423 0.0
O255 O 0.36657 0.18108 0.8262 0.0
Cd256 Cd 0.37407 0.19886 0.85188 0.0
C257 C 0.33795 0.21732 0.84989 0.0
O258 O 0.37043 0.18062 0.87837 0.0
O259 O 0.37417 0.20543 0.88449 0.0
O260 O 0.40185 0.19298 0.84355 0.0
C261 C 0.37273 0.19135 0.89043 0.0
O262 O 0.33237 0.2049 0.8577 0.0
C263 C 0.40653 0.2073 0.84275 0.0
O264 O 0.35277 0.21811 0.8451 0.0
O265 O 0.39595 0.2179 0.84585 0.0
C266 C 0.81911 0.36021 0.82709 0.0
O267 O 0.82313 0.35207 0.8412 0.0
Cd268 Cd 0.8066 0.35137 0.86871 0.0
O269 O 0.80672 0.36915 0.82766 0.0
Cd270 Cd 0.78553 0.37792 0.84937 0.0
C271 C 0.77025 0.34079 0.84906 0.0
O272 O 0.80092 0.37805 0.87855 0.0
O273 O 0.7749 0.3799 0.88057 0.0
O274 O 0.78964 0.40467 0.8377 0.0
C275 C 0.78851 0.38003 0.88869 0.0
O276 O 0.78212 0.33695 0.85943 0.0
C277 C 0.77482 0.40731 0.83416 0.0
O278 O 0.769 0.35481 0.84265 0.0
O279 O 0.7649 0.39615 0.83756 0.0
C280 C 0.62749 0.168 0.14352 0.0
O281 O 0.63755 0.16562 0.13048 0.0
Cd282 Cd 0.63761 0.18048 0.10187 0.0
O283 O 0.61642 0.17839 0.1418 0.0
Cd284 Cd 0.60611 0.19774 0.11907 0.0
C285 C 0.6416 0.21818 0.1196 0.0
O286 O 0.61021 0.18159 0.09114 0.0
O287 O 0.60171 0.20559 0.08715 0.0
O288 O 0.57933 0.1901 0.12978 0.0
C289 C 0.6056 0.1924 0.08008 0.0
O290 O 0.64757 0.2067 0.11041 0.0
C291 C 0.5743 0.20417 0.13224 0.0
O292 O 0.62701 0.21772 0.12531 0.0
O293 O 0.58426 0.21532 0.12898 0.0
C294 C 0.81511 0.61923 0.14319 0.0
O295 O 0.81964 0.62668 0.12877 0.0
Cd296 Cd 0.80398 0.62614 0.10063 0.0
O297 O 0.80256 0.61046 0.14274 0.0
Cd298 Cd 0.78173 0.601 0.12095 0.0
C299 C 0.7671 0.63825 0.11761 0.0
O300 O 0.79846 0.59891 0.09296 0.0
O301 O 0.77258 0.59689 0.08936 0.0
O302 O 0.78532 0.57509 0.13499 0.0
C303 C 0.78659 0.59618 0.08225 0.0
O304 O 0.77946 0.64134 0.10765 0.0
C305 C 0.77038 0.5725 0.13783 0.0
O306 O 0.7653 0.62462 0.12495 0.0
O307 O 0.76058 0.58336 0.13305 0.0
C308 C 0.35443 0.811 0.14443 0.0
O309 O 0.34441 0.8143 0.13164 0.0
Cd310 Cd 0.34342 0.80004 0.10276 0.0
O311 O 0.36484 0.80005 0.14214 0.0
Cd312 Cd 0.37334 0.78104 0.1181 0.0
C313 C 0.33713 0.76227 0.11904 0.0
O314 O 0.3704 0.79809 0.0905 0.0
O315 O 0.375 0.7732 0.08588 0.0
O316 O 0.40106 0.78664 0.12742 0.0
C317 C 0.37333 0.78698 0.07913 0.0
O318 O 0.33171 0.77417 0.11009 0.0
C319 C 0.40512 0.77223 0.12952 0.0
O320 O 0.35173 0.76202 0.12472 0.0
O321 O 0.39425 0.76185 0.12664 0.0
C322 C 0.16466 0.36232 0.14329 0.0
O323 O 0.1601 0.35488 0.1289 0.0
Cd324 Cd 0.17583 0.35531 0.10077 0.0
O325 O 0.17729 0.37098 0.14283 0.0
Cd326 Cd 0.19834 0.38034 0.12128 0.0
C327 C 0.21259 0.34293 0.11797 0.0
O328 O 0.18177 0.38248 0.0932 0.0
O329 O 0.20766 0.38459 0.08975 0.0
O330 O 0.19487 0.40616 0.13545 0.0
C331 C 0.19369 0.38516 0.08252 0.0
O332 O 0.20024 0.33997 0.10795 0.0
C333 C 0.2098 0.40858 0.13852 0.0
O334 O 0.21448 0.35652 0.12534 0.0
O335 O 0.21956 0.3977 0.13371 0.0
C336 C 0.40372 0.22622 0.12928 0.0
O337 O 0.39807 0.23872 0.12189 0.0
Cd338 Cd 0.37041 0.24061 0.11177 0.0
O339 O 0.39456 0.21435 0.13234 0.0
Cd340 Cd 0.36598 0.2062 0.12945 0.0
C341 C 0.36852 0.20792 0.08294 0.0
O342 O 0.35346 0.23169 0.13656 0.0
O343 O 0.33771 0.21367 0.12529 0.0
O344 O 0.36873 0.19553 0.16044 0.0
C345 C 0.33925 0.22746 0.13207 0.0
O346 O 0.36816 0.22292 0.08507 0.0
C347 C 0.36293 0.18195 0.15677 0.0
O348 O 0.36894 0.19866 0.09692 0.0
O349 O 0.35877 0.17941 0.14006 0.0
C350 C 0.80462 0.36177 0.1492 0.0
O351 O 0.80843 0.35331 0.13531 0.0
Cd352 Cd 0.79345 0.35343 0.10681 0.0
O353 O 0.79274 0.37135 0.14826 0.0
Cd354 Cd 0.77243 0.38083 0.12555 0.0
C355 C 0.75535 0.34446 0.12355 0.0
O356 O 0.78988 0.38059 0.09815 0.0
O357 O 0.76442 0.38431 0.09321 0.0
O358 O 0.77805 0.40697 0.13773 0.0
C359 C 0.77864 0.38354 0.08668 0.0
O360 O 0.76774 0.34048 0.11413 0.0
C361 C 0.7634 0.41086 0.14039 0.0
O362 O 0.75418 0.35834 0.13038 0.0
O363 O 0.7527 0.40059 0.13636 0.0
C364 C 0.5754 0.75023 0.12902 0.0
O365 O 0.58213 0.73809 0.12206 0.0
Cd366 Cd 0.61017 0.73764 0.1133 0.0
O367 O 0.58365 0.76265 0.13251 0.0
Cd368 Cd 0.61193 0.77225 0.13111 0.0
C369 C 0.61141 0.77047 0.08451 0.0
O370 O 0.62535 0.74739 0.13906 0.0
O371 O 0.64072 0.76602 0.12849 0.0
O372 O 0.60757 0.7834 0.16167 0.0
C373 C 0.63953 0.75218 0.13527 0.0
O374 O 0.61253 0.75549 0.08663 0.0
C375 C 0.61302 0.79709 0.15781 0.0
O376 O 0.60991 0.77959 0.09847 0.0
O377 O 0.61769 0.79941 0.14122 0.0
C378 C 0.17404 0.61838 0.14644 0.0
O379 O 0.17036 0.6258 0.13168 0.0
Cd380 Cd 0.18589 0.6246 0.1037 0.0
O381 O 0.18615 0.60904 0.14679 0.0
Cd382 Cd 0.20701 0.59843 0.1254 0.0
C383 C 0.22348 0.63495 0.12108 0.0
O384 O 0.19005 0.5971 0.09776 0.0
O385 O 0.21559 0.59345 0.09344 0.0
O386 O 0.20161 0.57286 0.13936 0.0
C387 C 0.20144 0.5938 0.08665 0.0
O388 O 0.21124 0.63824 0.11103 0.0
C389 C 0.21629 0.56928 0.14238 0.0
O390 O 0.22475 0.62145 0.12892 0.0
O391 O 0.22688 0.57952 0.13784 0.0
C392 C 0.40688 0.74807 0.84135 0.0
O393 O 0.40035 0.73575 0.84824 0.0
Cd394 Cd 0.37226 0.73457 0.85657 0.0
O395 O 0.3984 0.76033 0.83783 0.0
Cd396 Cd 0.36991 0.76925 0.83924 0.0
C397 C 0.37011 0.76687 0.88586 0.0
O398 O 0.35727 0.74419 0.83055 0.0
O399 O 0.34124 0.76216 0.84124 0.0
O400 O 0.37407 0.78077 0.8088 0.0
C401 C 0.34291 0.74855 0.83404 0.0
O402 O 0.36928 0.75191 0.88352 0.0
C403 C 0.36831 0.7943 0.81273 0.0
O404 O 0.37153 0.7762 0.87204 0.0
O405 O 0.36364 0.79641 0.82935 0.0
C406 C 0.17263 0.35755 0.82652 0.0
O407 O 0.16928 0.35019 0.84143 0.0
Cd408 Cd 0.18508 0.35255 0.86911 0.0
O409 O 0.18441 0.36732 0.82595 0.0
Cd410 Cd 0.20498 0.37892 0.84703 0.0
C411 C 0.22285 0.34314 0.8517 0.0
O412 O 0.18791 0.38035 0.87463 0.0
O413 O 0.21334 0.38484 0.87882 0.0
O414 O 0.19848 0.40389 0.83217 0.0
C415 C 0.19917 0.38446 0.88555 0.0
O416 O 0.21079 0.33956 0.86191 0.0
C417 C 0.21301 0.40827 0.82958 0.0
O418 O 0.22361 0.35659 0.84367 0.0
O419 O 0.22403 0.3987 0.83466 0.0
C420 C 0.57796 0.22952 0.84156 0.0
O421 O 0.58479 0.24186 0.84795 0.0
Cd422 Cd 0.61339 0.24317 0.85437 0.0
O423 O 0.58626 0.21722 0.83779 0.0
Cd424 Cd 0.61454 0.20797 0.83821 0.0
C425 C 0.61655 0.21163 0.88455 0.0
O426 O 0.62734 0.23261 0.82823 0.0
O427 O 0.64331 0.21469 0.83919 0.0
O428 O 0.60925 0.19592 0.80838 0.0
C429 C 0.6417 0.22818 0.83162 0.0
O430 O 0.61822 0.22644 0.88156 0.0
C431 C 0.61495 0.18239 0.81248 0.0
O432 O 0.61345 0.20203 0.87139 0.0
O433 O 0.62012 0.18053 0.82895 0.0
C434 C 0.80557 0.61948 0.82596 0.0
O435 O 0.80969 0.62651 0.8408 0.0
Cd436 Cd 0.79491 0.62418 0.86925 0.0
O437 O 0.79351 0.61005 0.82583 0.0
Cd438 Cd 0.77343 0.5986 0.8476 0.0
C439 C 0.75672 0.63471 0.85383 0.0
O440 O 0.79122 0.59648 0.87453 0.0
O441 O 0.7658 0.59254 0.87957 0.0
O442 O 0.77939 0.57371 0.83258 0.0
C443 C 0.78014 0.5926 0.88582 0.0
O444 O 0.76925 0.63772 0.86352 0.0
C445 C 0.7648 0.56947 0.83018 0.0
O446 O 0.75527 0.62148 0.84545 0.0
O447 O 0.75391 0.57912 0.83541 0.0
H448 H 0.25644 0.16841 0.36065 0.0
H449 H 0.23576 0.18881 0.35735 0.0
H450 H 0.20431 0.15536 0.33001 0.0
H451 H 0.22498 0.13468 0.33333 0.0
H452 H 0.22086 0.19996 0.32346 0.0
H453 H 0.17675 0.17383 0.37345 0.0
H454 H 0.19777 0.16797 0.37298 0.0
H455 H 0.18418 0.16118 0.35526 0.0
C456 C 0.24514 0.16531 0.35394 0.0
C457 C 0.24236 0.14985 0.34732 0.0
C458 C 0.23335 0.17702 0.35204 0.0
C459 C 0.21849 0.17354 0.34359 0.0
C460 C 0.21565 0.1582 0.33678 0.0
H461 H 0.13559 0.23855 0.33816 0.0
H462 H 0.15289 0.21534 0.33334 0.0
C463 C 0.2275 0.14644 0.33863 0.0
C464 C 0.2061 0.18613 0.34206 0.0
H465 H 0.17007 0.19843 0.36017 0.0
C466 C 0.20967 0.19958 0.33132 0.0
C467 C 0.19149 0.18551 0.35226 0.0
C468 C 0.18726 0.17142 0.36426 0.0
C469 C 0.19919 0.21264 0.33088 0.0
C470 C 0.18494 0.21235 0.34177 0.0
C471 C 0.18103 0.19863 0.35189 0.0
C472 C 0.17457 0.22655 0.3439 0.0
C473 C 0.20353 0.2267 0.31888 0.0
C474 C 0.18102 0.24046 0.3516 0.0
C475 C 0.17121 0.25371 0.35437 0.0
C476 C 0.1547 0.25329 0.34962 0.0
C477 C 0.14826 0.23931 0.34192 0.0
C478 C 0.15811 0.22603 0.33916 0.0
H479 H 0.21169 0.22322 0.30732 0.0
H480 H 0.19254 0.23235 0.31296 0.0
H481 H 0.20998 0.23563 0.32743 0.0
H482 H 0.19361 0.24099 0.35575 0.0
H483 H 0.17657 0.26423 0.36042 0.0
H484 H 0.71481 0.16722 0.36221 0.0
H485 H 0.73625 0.18669 0.35682 0.0
H486 H 0.76474 0.15121 0.32885 0.0
H487 H 0.74343 0.13158 0.33422 0.0
H488 H 0.78139 0.1689 0.35696 0.0
H489 H 0.74914 0.20785 0.30689 0.0
H490 H 0.73824 0.20347 0.32788 0.0
H491 H 0.7427 0.1878 0.31183 0.0
C492 C 0.7256 0.16354 0.35484 0.0
C493 C 0.72739 0.14783 0.34862 0.0
C494 C 0.73778 0.17472 0.35167 0.0
C495 C 0.75194 0.17041 0.34222 0.0
C496 C 0.75383 0.15476 0.33606 0.0
H497 H 0.84266 0.21991 0.3205 0.0
H498 H 0.82071 0.20041 0.32135 0.0
C499 C 0.74163 0.14358 0.33915 0.0
C500 C 0.76509 0.18207 0.33948 0.0
H501 H 0.77421 0.21732 0.3186 0.0
C502 C 0.7799 0.17944 0.34846 0.0
C503 C 0.763 0.1958 0.32846 0.0
C504 C 0.74747 0.1989 0.31806 0.0
C505 C 0.79262 0.1904 0.3471 0.0
C506 C 0.79054 0.20416 0.33609 0.0
C507 C 0.77575 0.20674 0.32699 0.0
C508 C 0.80346 0.21623 0.33428 0.0
C509 C 0.80797 0.18739 0.35791 0.0
C510 C 0.80079 0.23174 0.34055 0.0
C511 C 0.81325 0.24295 0.33992 0.0
C512 C 0.82857 0.2388 0.33298 0.0
C513 C 0.83102 0.22341 0.32608 0.0
C514 C 0.81854 0.21223 0.32665 0.0
H515 H 0.80609 0.17855 0.36916 0.0
H516 H 0.81736 0.18268 0.34841 0.0
H517 H 0.81263 0.19853 0.36415 0.0
H518 H 0.78919 0.23507 0.34638 0.0
H519 H 0.81096 0.25473 0.34526 0.0
H520 H 0.84519 0.74339 0.33642 0.0
H521 H 0.82753 0.76665 0.33378 0.0
H522 H 0.78928 0.74108 0.36148 0.0
H523 H 0.80672 0.71788 0.36426 0.0
H524 H 0.79532 0.76926 0.31707 0.0
H525 H 0.79584 0.78219 0.39254 0.0
H526 H 0.81072 0.76962 0.38158 0.0
H527 H 0.79094 0.76198 0.38697 0.0
C528 C 0.833 0.7427 0.34191 0.0
C529 C 0.82741 0.7288 0.35068 0.0
C530 C 0.82295 0.75599 0.34036 0.0
C531 C 0.80722 0.75561 0.34769 0.0
C532 C 0.80148 0.74166 0.35601 0.0
H533 H 0.72273 0.81124 0.36113 0.0
H534 H 0.74419 0.7915 0.35952 0.0
C535 C 0.81147 0.72839 0.35752 0.0
C536 C 0.79672 0.76978 0.34688 0.0
H537 H 0.77568 0.79528 0.37452 0.0
C538 C 0.79117 0.77513 0.32957 0.0
C539 C 0.79145 0.77742 0.36325 0.0
C540 C 0.79765 0.77263 0.38214 0.0
C541 C 0.77976 0.78744 0.32827 0.0
C542 C 0.774 0.79463 0.34471 0.0
C543 C 0.78006 0.78967 0.36195 0.0
C544 C 0.7609 0.80659 0.34456 0.0
C545 C 0.7734 0.79219 0.30944 0.0
C546 C 0.76319 0.82163 0.3366 0.0
C547 C 0.75089 0.83301 0.33747 0.0
C548 C 0.73614 0.82954 0.34641 0.0
C549 C 0.73391 0.81437 0.35416 0.0
C550 C 0.74616 0.80305 0.35327 0.0
H551 H 0.77695 0.78362 0.29847 0.0
H552 H 0.75999 0.79312 0.3097 0.0
H553 H 0.77834 0.804 0.30566 0.0
H554 H 0.77459 0.82466 0.33005 0.0
H555 H 0.75303 0.84459 0.33142 0.0
H556 H 0.1399 0.76107 0.32275 0.0
H557 H 0.1624 0.77996 0.32283 0.0
H558 H 0.19378 0.74409 0.34579 0.0
H559 H 0.17147 0.72505 0.34543 0.0
H560 H 0.1788 0.7901 0.35357 0.0
H561 H 0.22135 0.76201 0.30407 0.0
H562 H 0.20034 0.75626 0.30574 0.0
H563 H 0.21485 0.74888 0.32224 0.0
C564 C 0.15165 0.75714 0.32758 0.0
C565 C 0.15392 0.74158 0.33409 0.0
C566 C 0.16448 0.76795 0.32762 0.0
C567 C 0.1798 0.76337 0.33409 0.0
C568 C 0.18216 0.74777 0.34034 0.0
H569 H 0.26839 0.81112 0.36373 0.0
H570 H 0.24638 0.79226 0.35832 0.0
C571 C 0.16936 0.73694 0.34024 0.0
C572 C 0.19298 0.7752 0.33559 0.0
H573 H 0.23207 0.7828 0.32295 0.0
C574 C 0.19039 0.7886 0.34672 0.0
C575 C 0.20809 0.77315 0.32667 0.0
C576 C 0.21131 0.75938 0.31387 0.0
C577 C 0.20266 0.79983 0.34958 0.0
C578 C 0.21783 0.79766 0.34089 0.0
C579 C 0.2204 0.78436 0.32961 0.0
C580 C 0.23125 0.809 0.34361 0.0
C581 C 0.19946 0.8137 0.36226 0.0
C582 C 0.23005 0.82457 0.33689 0.0
C583 C 0.24259 0.83538 0.33993 0.0
C584 C 0.25655 0.83079 0.34974 0.0
C585 C 0.25778 0.81508 0.3562 0.0
C586 C 0.24525 0.80427 0.35309 0.0
H587 H 0.18841 0.8119 0.37081 0.0
H588 H 0.20991 0.81574 0.37166 0.0
H589 H 0.19774 0.82457 0.35378 0.0
H590 H 0.2194 0.82835 0.32932 0.0
H591 H 0.24127 0.84736 0.33469 0.0
H592 H 0.13398 0.74664 0.63295 0.0
H593 H 0.1521 0.76933 0.6376 0.0
H594 H 0.19089 0.74371 0.61116 0.0
H595 H 0.17304 0.72099 0.60663 0.0
H596 H 0.19957 0.7586 0.64504 0.0
H597 H 0.16816 0.7999 0.59658 0.0
H598 H 0.15594 0.7908 0.61431 0.0
H599 H 0.16459 0.77877 0.59634 0.0
C600 C 0.14637 0.74584 0.62812 0.0
C601 C 0.15204 0.732 0.61935 0.0
C602 C 0.15667 0.75884 0.63071 0.0
C603 C 0.17276 0.75823 0.62453 0.0
C604 C 0.17849 0.74441 0.61599 0.0
H605 H 0.25876 0.81169 0.61103 0.0
H606 H 0.2372 0.7921 0.61401 0.0
C607 C 0.16824 0.73144 0.61338 0.0
C608 C 0.18385 0.77188 0.62695 0.0
H609 H 0.19168 0.80936 0.6113 0.0
C610 C 0.19778 0.76976 0.6378 0.0
C611 C 0.1814 0.78644 0.61758 0.0
C612 C 0.16679 0.78918 0.60543 0.0
C613 C 0.20958 0.78167 0.63915 0.0
C614 C 0.20748 0.79595 0.62913 0.0
C615 C 0.19323 0.79836 0.61892 0.0
C616 C 0.22054 0.80793 0.62785 0.0
C617 C 0.22429 0.77879 0.65108 0.0
C618 C 0.21817 0.82344 0.63432 0.0
C619 C 0.23051 0.83475 0.63261 0.0
C620 C 0.24533 0.83074 0.6242 0.0
C621 C 0.24755 0.8152 0.61764 0.0
C622 C 0.23527 0.80393 0.61942 0.0
H623 H 0.22191 0.76963 0.66185 0.0
H624 H 0.23436 0.77451 0.64222 0.0
H625 H 0.22828 0.78988 0.65802 0.0
H626 H 0.20681 0.82676 0.64073 0.0
H627 H 0.22838 0.84663 0.63775 0.0
H628 H 0.25641 0.15639 0.59258 0.0
H629 H 0.23493 0.17572 0.59812 0.0
H630 H 0.23203 0.16064 0.65533 0.0
H631 H 0.25275 0.14055 0.64944 0.0
H632 H 0.20353 0.16441 0.6434 0.0
H633 H 0.23763 0.21759 0.6218 0.0
H634 H 0.23681 0.20369 0.60309 0.0
H635 H 0.2472 0.19852 0.62428 0.0
C636 C 0.2512 0.15727 0.60634 0.0
C637 C 0.25624 0.14706 0.62061 0.0
C638 C 0.23904 0.16842 0.60956 0.0
C639 C 0.23215 0.16999 0.62729 0.0
C640 C 0.2372 0.15974 0.64156 0.0
H641 H 0.17086 0.25255 0.6477 0.0
H642 H 0.193 0.2333 0.64876 0.0
C643 C 0.24904 0.14828 0.6382 0.0
C644 C 0.21919 0.18182 0.63075 0.0
H645 H 0.20866 0.22037 0.62299 0.0
C646 C 0.20475 0.17671 0.63917 0.0
C647 C 0.22085 0.19798 0.62569 0.0
C648 C 0.23654 0.20478 0.61842 0.0
C649 C 0.19179 0.18713 0.64211 0.0
C650 C 0.19297 0.20295 0.6356 0.0
C651 C 0.20759 0.20819 0.62773 0.0
C652 C 0.17915 0.2142 0.63637 0.0
C653 C 0.17714 0.18107 0.65247 0.0
C654 C 0.16395 0.20991 0.62915 0.0
C655 C 0.15119 0.22075 0.62909 0.0
C656 C 0.15356 0.23625 0.63559 0.0
C657 C 0.16876 0.24064 0.64261 0.0
C658 C 0.1814 0.22966 0.64318 0.0
H659 H 0.1805 0.17143 0.66227 0.0
H660 H 0.17111 0.19065 0.66043 0.0
H661 H 0.16836 0.17604 0.64241 0.0
H662 H 0.16203 0.1983 0.62315 0.0
H663 H 0.13963 0.21718 0.62331 0.0
H664 H 0.75164 0.13311 0.63813 0.0
H665 H 0.77293 0.1531 0.64223 0.0
H666 H 0.74192 0.18857 0.61789 0.0
H667 H 0.72063 0.16885 0.61379 0.0
H668 H 0.78754 0.17179 0.61365 0.0
H669 H 0.75757 0.20926 0.66653 0.0
H670 H 0.7513 0.18914 0.66177 0.0
H671 H 0.74495 0.20509 0.64685 0.0
C672 C 0.74931 0.1452 0.63378 0.0
C673 C 0.7344 0.14938 0.62567 0.0
C674 C 0.76148 0.15658 0.63613 0.0
C675 C 0.75888 0.17234 0.63063 0.0
C676 C 0.74404 0.17654 0.62257 0.0
H677 H 0.80523 0.26022 0.61206 0.0
H678 H 0.78755 0.23739 0.61674 0.0
C679 C 0.73192 0.1652 0.62013 0.0
C680 C 0.77184 0.18436 0.63236 0.0
H681 H 0.77961 0.22116 0.64988 0.0
C682 C 0.78599 0.18247 0.62182 0.0
C683 C 0.76974 0.19823 0.64307 0.0
C684 C 0.75514 0.20052 0.65535 0.0
C685 C 0.79769 0.19454 0.62084 0.0
C686 C 0.79523 0.20872 0.63093 0.0
C687 C 0.78142 0.21029 0.64211 0.0
C688 C 0.80612 0.22257 0.62886 0.0
C689 C 0.81213 0.19239 0.60828 0.0
C690 C 0.82239 0.22186 0.63439 0.0
C691 C 0.8326 0.23492 0.63169 0.0
C692 C 0.82666 0.24892 0.62348 0.0
C693 C 0.81024 0.24964 0.61836 0.0
C694 C 0.80009 0.23661 0.62105 0.0
H695 H 0.8107 0.18203 0.5989 0.0
H696 H 0.81414 0.20317 0.59969 0.0
H697 H 0.82312 0.19047 0.61685 0.0
H698 H 0.8272 0.2112 0.64073 0.0
H699 H 0.84515 0.234 0.63589 0.0
H700 H 0.80661 0.72477 0.62265 0.0
H701 H 0.78454 0.74408 0.62274 0.0
H702 H 0.81642 0.77906 0.64669 0.0
H703 H 0.83866 0.75993 0.64628 0.0
H704 H 0.77019 0.76125 0.6512 0.0
H705 H 0.79989 0.80115 0.60005 0.0
H706 H 0.80696 0.78127 0.60454 0.0
H707 H 0.8119 0.79709 0.62026 0.0
C708 C 0.80891 0.73656 0.628 0.0
C709 C 0.82441 0.7409 0.63426 0.0
C710 C 0.79629 0.74756 0.62806 0.0
C711 C 0.79895 0.76306 0.6344 0.0
C712 C 0.81423 0.76725 0.64135 0.0
H713 H 0.73834 0.84695 0.638 0.0
H714 H 0.7596 0.82726 0.64299 0.0
C715 C 0.82689 0.75629 0.64119 0.0
C716 C 0.78581 0.77492 0.63334 0.0
H717 H 0.77557 0.81034 0.6136 0.0
C718 C 0.77134 0.77198 0.64298 0.0
C719 C 0.78735 0.78887 0.62252 0.0
C720 C 0.80229 0.79226 0.61111 0.0
C721 C 0.7584 0.78275 0.64224 0.0
C722 C 0.75999 0.79667 0.63146 0.0
C723 C 0.77447 0.79966 0.62192 0.0
C724 C 0.74665 0.8082 0.62949 0.0
C725 C 0.74321 0.77925 0.65313 0.0
C726 C 0.73239 0.80394 0.6202 0.0
C727 C 0.72023 0.81517 0.61723 0.0
C728 C 0.72217 0.83085 0.62349 0.0
C729 C 0.73643 0.83499 0.63302 0.0
C730 C 0.7486 0.82377 0.63589 0.0
H731 H 0.74526 0.77004 0.66393 0.0
H732 H 0.73858 0.79016 0.65991 0.0
H733 H 0.73371 0.77485 0.64353 0.0
H734 H 0.73081 0.79203 0.61488 0.0
H735 H 0.70941 0.81159 0.60984 0.0
H736 H 0.67615 0.76049 0.86438 0.0
H737 H 0.69301 0.73681 0.86234 0.0
H738 H 0.65483 0.71226 0.83339 0.0
H739 H 0.63776 0.73596 0.83532 0.0
H740 H 0.68308 0.70577 0.87726 0.0
H741 H 0.69704 0.705 0.80159 0.0
H742 H 0.69078 0.72285 0.81342 0.0
H743 H 0.67625 0.70761 0.80849 0.0
C744 C 0.67134 0.75013 0.8574 0.0
C745 C 0.65557 0.75013 0.85003 0.0
C746 C 0.68101 0.73661 0.85628 0.0
C747 C 0.67518 0.72287 0.84763 0.0
C748 C 0.65959 0.72284 0.83994 0.0
H749 H 0.72782 0.63285 0.83496 0.0
H750 H 0.70656 0.65311 0.83323 0.0
C751 C 0.64985 0.73637 0.84111 0.0
C752 C 0.68523 0.70837 0.84764 0.0
H753 H 0.70848 0.68477 0.81995 0.0
C754 C 0.68855 0.70109 0.86472 0.0
C755 C 0.69216 0.70224 0.83122 0.0
C756 C 0.68901 0.70981 0.81259 0.0
C757 C 0.69897 0.68802 0.86591 0.0
C758 C 0.70652 0.68233 0.84961 0.0
C759 C 0.70271 0.68922 0.83241 0.0
C760 C 0.71928 0.67004 0.85042 0.0
C761 C 0.70187 0.68048 0.88462 0.0
C762 C 0.73354 0.67299 0.86038 0.0
C763 C 0.74564 0.66151 0.86143 0.0
C764 C 0.74381 0.64684 0.8524 0.0
C765 C 0.7296 0.64399 0.84214 0.0
C766 C 0.71745 0.65554 0.84111 0.0
H767 H 0.69172 0.68288 0.89434 0.0
H768 H 0.70345 0.66745 0.88338 0.0
H769 H 0.71305 0.68554 0.89078 0.0
H770 H 0.73535 0.68424 0.86733 0.0
H771 H 0.75645 0.66419 0.86934 0.0
H772 H 0.24031 0.63254 0.82918 0.0
H773 H 0.26238 0.65126 0.82336 0.0
H774 H 0.23649 0.68756 0.85313 0.0
H775 H 0.21429 0.66902 0.85895 0.0
H776 H 0.25078 0.69734 0.81799 0.0
H777 H 0.29399 0.66624 0.86481 0.0
H778 H 0.28434 0.65421 0.84745 0.0
H779 H 0.27242 0.6628 0.86567 0.0
C780 C 0.23926 0.64451 0.83445 0.0
C781 C 0.22557 0.64925 0.84466 0.0
C782 C 0.25191 0.65516 0.83115 0.0
C783 C 0.2511 0.67069 0.83801 0.0
C784 C 0.23731 0.67559 0.84778 0.0
H785 H 0.31145 0.75368 0.84397 0.0
H786 H 0.28906 0.73475 0.84289 0.0
C787 C 0.22468 0.66496 0.85113 0.0
C788 C 0.26478 0.68177 0.83542 0.0
H789 H 0.30384 0.68849 0.84856 0.0
C790 C 0.26242 0.69542 0.8246 0.0
C791 C 0.2799 0.67914 0.84406 0.0
C792 C 0.28287 0.66488 0.85628 0.0
C793 C 0.27487 0.70657 0.82217 0.0
C794 C 0.2899 0.70411 0.83111 0.0
C795 C 0.29231 0.69032 0.84169 0.0
C796 C 0.30312 0.71594 0.83039 0.0
C797 C 0.27186 0.7208 0.80992 0.0
C798 C 0.31851 0.71157 0.82394 0.0
C799 C 0.33138 0.7223 0.82472 0.0
C800 C 0.32908 0.73758 0.83205 0.0
C801 C 0.31359 0.74202 0.83818 0.0
C802 C 0.30074 0.73126 0.83744 0.0
H803 H 0.2619 0.71855 0.79988 0.0
H804 H 0.26827 0.73101 0.81868 0.0
H805 H 0.28293 0.72414 0.80208 0.0
H806 H 0.32061 0.69976 0.81855 0.0
H807 H 0.34318 0.71854 0.81989 0.0
H808 H 0.3058 0.2195 0.85831 0.0
H809 H 0.28804 0.24229 0.85433 0.0
H810 H 0.3274 0.26907 0.83047 0.0
H811 H 0.34546 0.24629 0.83462 0.0
H812 H 0.31062 0.28549 0.85779 0.0
H813 H 0.26791 0.25973 0.80693 0.0
H814 H 0.27053 0.24725 0.82689 0.0
H815 H 0.28744 0.25104 0.81175 0.0
C816 C 0.31071 0.23017 0.85207 0.0
C817 C 0.32707 0.23103 0.84674 0.0
C818 C 0.30048 0.24316 0.84969 0.0
C819 C 0.30633 0.25727 0.84179 0.0
C820 C 0.32263 0.25823 0.83644 0.0
H821 H 0.25169 0.34697 0.83319 0.0
H822 H 0.27312 0.32718 0.82894 0.0
C823 C 0.33292 0.2452 0.83882 0.0
C824 C 0.29549 0.27118 0.84014 0.0
H825 H 0.2584 0.28242 0.82396 0.0
C826 C 0.29934 0.28497 0.85011 0.0
C827 C 0.28083 0.27048 0.83002 0.0
C828 C 0.2765 0.25638 0.81814 0.0
C829 C 0.28844 0.29771 0.85114 0.0
C830 C 0.27343 0.29662 0.84183 0.0
C831 C 0.2699 0.28315 0.83118 0.0
C832 C 0.26067 0.30872 0.84419 0.0
C833 C 0.29266 0.31191 0.86291 0.0
C834 C 0.24657 0.30479 0.85399 0.0
C835 C 0.23436 0.316 0.85647 0.0
C836 C 0.23596 0.33138 0.84906 0.0
C837 C 0.25009 0.33525 0.83911 0.0
C838 C 0.26236 0.324 0.83671 0.0
H839 H 0.30389 0.31002 0.87111 0.0
H840 H 0.29447 0.3224 0.85382 0.0
H841 H 0.28258 0.31465 0.87258 0.0
H842 H 0.24505 0.29303 0.85983 0.0
H843 H 0.22364 0.31257 0.86415 0.0
H844 H 0.67291 0.22342 0.84278 0.0
H845 H 0.69505 0.2427 0.84266 0.0
H846 H 0.66401 0.27699 0.81605 0.0
H847 H 0.64169 0.25789 0.81645 0.0
H848 H 0.71039 0.25958 0.81424 0.0
H849 H 0.6786 0.29984 0.86314 0.0
H850 H 0.67188 0.27981 0.85882 0.0
H851 H 0.66744 0.29531 0.84243 0.0
C852 C 0.67082 0.23503 0.83679 0.0
C853 C 0.6555 0.23922 0.82984 0.0
C854 C 0.68348 0.24601 0.83671 0.0
C855 C 0.68105 0.26134 0.82967 0.0
C856 C 0.66601 0.26532 0.82192 0.0
H857 H 0.74217 0.34532 0.82962 0.0
H858 H 0.72094 0.32585 0.82329 0.0
C859 C 0.65331 0.25437 0.82208 0.0
C860 C 0.69409 0.27331 0.8311 0.0
H861 H 0.70359 0.30878 0.8511 0.0
C862 C 0.70892 0.27036 0.82227 0.0
C863 C 0.69211 0.28731 0.84166 0.0
C864 C 0.67672 0.29074 0.8522 0.0
C865 C 0.72184 0.28112 0.82363 0.0
C866 C 0.71986 0.29506 0.83425 0.0
C867 C 0.70499 0.29809 0.8429 0.0
C868 C 0.73321 0.30648 0.83707 0.0
C869 C 0.73745 0.27758 0.81359 0.0
C870 C 0.74708 0.30201 0.84699 0.0
C871 C 0.75921 0.3131 0.85071 0.0
C872 C 0.75766 0.32889 0.84461 0.0
C873 C 0.74378 0.33326 0.83451 0.0
C874 C 0.73163 0.32217 0.83086 0.0
H875 H 0.73572 0.26857 0.80253 0.0
H876 H 0.74256 0.28852 0.80727 0.0
H877 H 0.74642 0.27289 0.82365 0.0
H878 H 0.74835 0.29001 0.85219 0.0
H879 H 0.76972 0.30933 0.85855 0.0
H880 H 0.67371 0.22189 0.1119 0.0
H881 H 0.69066 0.245 0.11768 0.0
H882 H 0.65005 0.26944 0.14195 0.0
H883 H 0.6328 0.24626 0.13611 0.0
H884 H 0.66762 0.28733 0.11514 0.0
H885 H 0.7085 0.2609 0.16756 0.0
H886 H 0.70647 0.2488 0.14723 0.0
H887 H 0.68911 0.25232 0.16174 0.0
C888 C 0.66833 0.23211 0.11857 0.0
C889 C 0.65188 0.23219 0.12359 0.0
C890 C 0.6781 0.24528 0.12198 0.0
C891 C 0.67167 0.2588 0.13053 0.0
C892 C 0.65525 0.25903 0.13549 0.0
H893 H 0.72601 0.34885 0.14083 0.0
H894 H 0.70433 0.32925 0.14497 0.0
C895 C 0.64543 0.24578 0.13215 0.0
C896 C 0.6821 0.27287 0.13332 0.0
H897 H 0.71849 0.284 0.15154 0.0
C898 C 0.67857 0.28678 0.12341 0.0
C899 C 0.69633 0.27209 0.1442 0.0
C900 C 0.70026 0.25777 0.15594 0.0
C901 C 0.6895 0.29956 0.12307 0.0
C902 C 0.70417 0.29838 0.13308 0.0
C903 C 0.70726 0.28481 0.1438 0.0
C904 C 0.71718 0.31032 0.13113 0.0
C905 C 0.68574 0.31383 0.11118 0.0
C906 C 0.73163 0.30605 0.12227 0.0
C907 C 0.744 0.31713 0.1199 0.0
C908 C 0.74221 0.33274 0.12645 0.0
C909 C 0.72776 0.33695 0.13557 0.0
C910 C 0.71534 0.3258 0.13789 0.0
H911 H 0.67488 0.31196 0.10234 0.0
H912 H 0.68349 0.32423 0.12023 0.0
H913 H 0.69621 0.31672 0.1021 0.0
H914 H 0.73327 0.29413 0.11698 0.0
H915 H 0.75495 0.31344 0.11287 0.0
H916 H 0.7379 0.63512 0.13519 0.0
H917 H 0.71711 0.6554 0.13936 0.0
H918 H 0.74741 0.68963 0.11147 0.0
H919 H 0.76817 0.66939 0.10689 0.0
H920 H 0.71849 0.68438 0.15751 0.0
H921 H 0.70514 0.69248 0.08255 0.0
H922 H 0.71682 0.67598 0.09124 0.0
H923 H 0.72607 0.69516 0.08851 0.0
C924 C 0.74016 0.64695 0.1299 0.0
C925 C 0.75465 0.6506 0.12056 0.0
C926 C 0.72826 0.65853 0.13234 0.0
C927 C 0.73063 0.67393 0.12547 0.0
C928 C 0.74521 0.67771 0.11652 0.0
H929 H 0.6705 0.75828 0.12406 0.0
H930 H 0.69324 0.73972 0.12314 0.0
C931 C 0.75709 0.66614 0.11399 0.0
C932 C 0.7178 0.68601 0.12768 0.0
H933 H 0.69252 0.71034 0.10332 0.0
C934 C 0.71278 0.69005 0.14568 0.0
C935 C 0.71039 0.69335 0.1122 0.0
C936 C 0.71475 0.68894 0.09253 0.0
C937 C 0.70061 0.70137 0.1486 0.0
C938 C 0.69322 0.70868 0.13312 0.0
C939 C 0.69831 0.70473 0.11515 0.0
C940 C 0.67986 0.72018 0.13515 0.0
C941 C 0.69587 0.70557 0.1682 0.0
C942 C 0.66485 0.71529 0.14228 0.0
C943 C 0.65182 0.72583 0.14277 0.0
C944 C 0.65359 0.74141 0.13608 0.0
C945 C 0.66875 0.74635 0.12933 0.0
C946 C 0.68175 0.73579 0.12878 0.0
H947 H 0.70518 0.70179 0.17841 0.0
H948 H 0.69392 0.71855 0.1696 0.0
H949 H 0.68434 0.6995 0.17174 0.0
H950 H 0.6631 0.7032 0.14698 0.0
H951 H 0.64029 0.72167 0.14802 0.0
H952 H 0.22355 0.66546 0.10838 0.0
H953 H 0.24463 0.68545 0.1122 0.0
H954 H 0.27348 0.65221 0.14342 0.0
H955 H 0.2524 0.63196 0.13961 0.0
H956 H 0.25795 0.69719 0.14689 0.0
H957 H 0.3039 0.66872 0.10117 0.0
H958 H 0.28271 0.66346 0.10024 0.0
H959 H 0.29501 0.65676 0.1192 0.0
C960 C 0.23436 0.66233 0.11604 0.0
C961 C 0.2363 0.64706 0.12363 0.0
C962 C 0.24638 0.6738 0.11824 0.0
C963 C 0.26063 0.67024 0.12795 0.0
C964 C 0.26262 0.6551 0.13569 0.0
H965 H 0.34462 0.73404 0.13607 0.0
H966 H 0.32672 0.71121 0.14096 0.0
C967 C 0.25055 0.64358 0.13355 0.0
C968 C 0.27326 0.68257 0.12986 0.0
H969 H 0.31048 0.69359 0.11377 0.0
C970 C 0.26952 0.69636 0.13982 0.0
C971 C 0.28836 0.68134 0.12073 0.0
C972 C 0.29281 0.66684 0.10962 0.0
C973 C 0.28031 0.70919 0.14047 0.0
C974 C 0.29506 0.7083 0.13057 0.0
C975 C 0.29913 0.69423 0.1213 0.0
C976 C 0.30578 0.72226 0.12841 0.0
C977 C 0.27574 0.72366 0.15158 0.0
C978 C 0.29996 0.73594 0.11956 0.0
C979 C 0.3101 0.74896 0.11673 0.0
C980 C 0.32634 0.74854 0.12258 0.0
C981 C 0.33216 0.73479 0.13145 0.0
C982 C 0.32197 0.72173 0.13426 0.0
H983 H 0.26696 0.72067 0.16274 0.0
H984 H 0.28656 0.72927 0.15795 0.0
H985 H 0.26992 0.73246 0.14226 0.0
H986 H 0.28761 0.73646 0.11456 0.0
H987 H 0.30522 0.7593 0.10978 0.0
H988 H 0.21177 0.3121 0.10621 0.0
H989 H 0.23248 0.29175 0.11061 0.0
H990 H 0.2622 0.32527 0.14031 0.0
H991 H 0.24148 0.34562 0.13629 0.0
H992 H 0.26395 0.2926 0.09821 0.0
H993 H 0.26235 0.28704 0.17492 0.0
H994 H 0.24659 0.29687 0.16191 0.0
H995 H 0.26527 0.307 0.16687 0.0
C996 C 0.22265 0.31513 0.11381 0.0
C997 C 0.22495 0.33049 0.12094 0.0
C998 C 0.23446 0.30348 0.11631 0.0
C999 C 0.24874 0.30694 0.12603 0.0
C1000 C 0.25109 0.32225 0.13315 0.0
H1001 H 0.33926 0.25804 0.14458 0.0
H1002 H 0.31684 0.27702 0.14354 0.0
C1003 C 0.23927 0.3339 0.13071 0.0
C1004 C 0.26154 0.29479 0.12785 0.0
H1005 H 0.28433 0.27442 0.15942 0.0
C1006 C 0.26832 0.28853 0.11158 0.0
C1007 C 0.26723 0.28955 0.14534 0.0
C1008 C 0.25989 0.29534 0.16326 0.0
C1009 C 0.28088 0.27738 0.11232 0.0
C1010 C 0.28665 0.27225 0.12979 0.0
C1011 C 0.27986 0.27844 0.14607 0.0
C1012 C 0.29984 0.26052 0.13136 0.0
C1013 C 0.28815 0.27143 0.09442 0.0
C1014 C 0.29752 0.24491 0.12522 0.0
C1015 C 0.31026 0.23406 0.12581 0.0
C1016 C 0.32552 0.23865 0.13258 0.0
C1017 C 0.32766 0.25418 0.13922 0.0
C1018 C 0.31489 0.26502 0.13866 0.0
H1019 H 0.28475 0.27901 0.0824 0.0
H1020 H 0.30156 0.27098 0.09539 0.0
H1021 H 0.2837 0.25923 0.0917 0.0
H1022 H 0.28589 0.24119 0.11979 0.0
H1023 H 0.3082 0.22216 0.12069 0.0
H1024 H 0.9242 0.27574 0.32897 0.0
H1025 H 0.95357 0.27725 0.32609 0.0
H1026 H 0.95751 0.22806 0.34197 0.0
H1027 H 0.92809 0.22649 0.34527 0.0
H1028 H 0.97729 0.24713 0.36206 0.0
H1029 H 0.98468 0.26064 0.28735 0.0
H1030 H 0.97097 0.27402 0.29859 0.0
H1031 H 0.96591 0.25329 0.29695 0.0
C1032 C 0.93127 0.26516 0.33162 0.0
C1033 C 0.92378 0.251 0.3374 0.0
C1034 C 0.94807 0.26602 0.32981 0.0
C1035 C 0.9577 0.25269 0.33351 0.0
C1036 C 0.95027 0.23844 0.33892 0.0
H1037 H 0.0633 0.24693 0.34499 0.0
H1038 H 0.03488 0.23949 0.34055 0.0
C1039 C 0.93346 0.23758 0.34081 0.0
C1040 C 0.97557 0.25408 0.33335 0.0
H1041 H 0.00756 0.26629 0.30692 0.0
C1042 C 0.98396 0.25106 0.34992 0.0
C1043 C 0.98421 0.25922 0.31749 0.0
C1044 C 0.97599 0.26182 0.29904 0.0
C1045 C 0.00067 0.25372 0.3513 0.0
C1046 C 0.0092 0.25938 0.33563 0.0
C1047 C 0.00092 0.26198 0.3189 0.0
C1048 C 0.02652 0.26358 0.33675 0.0
C1049 C 0.00896 0.25111 0.36972 0.0
C1050 C 0.03121 0.27953 0.33555 0.0
C1051 C 0.04738 0.28382 0.33808 0.0
C1052 C 0.05915 0.2722 0.34174 0.0
C1053 C 0.05449 0.25615 0.34227 0.0
C1054 C 0.03829 0.25188 0.33979 0.0
H1055 H 0.00017 0.24933 0.3812 0.0
H1056 H 0.01673 0.2404 0.36884 0.0
H1057 H 0.01686 0.26136 0.37317 0.0
H1058 H 0.02227 0.28871 0.33318 0.0
H1059 H 0.0506 0.29627 0.3375 0.0
H1060 H 0.74112 0.05878 0.33295 0.0
H1061 H 0.74984 0.03194 0.32452 0.0
H1062 H 0.70038 0.01938 0.3121 0.0
H1063 H 0.69162 0.04603 0.32036 0.0
H1064 H 0.73899 0.00538 0.34325 0.0
H1065 H 0.72485 -0.00032 0.26871 0.0
H1066 H 0.72697 0.01869 0.28002 0.0
H1067 H 0.70815 0.00793 0.28132 0.0
C1068 C 0.73217 0.05038 0.32805 0.0
C1069 C 0.71567 0.05447 0.3274 0.0
C1070 C 0.73717 0.03509 0.32322 0.0
C1071 C 0.7258 0.02377 0.3174 0.0
C1072 C 0.70942 0.02804 0.3161 0.0
H1073 H 0.6968 0.93146 0.31784 0.0
H1074 H 0.70336 0.95913 0.31175 0.0
C1075 C 0.70441 0.04324 0.32102 0.0
C1076 C 0.73041 0.00693 0.31511 0.0
H1077 H 0.7241 0.97519 0.28675 0.0
C1078 C 0.73623 -0.00121 0.33073 0.0
C1079 C 0.72686 -0.00157 0.29873 0.0
C1080 C 0.72153 0.00668 0.28119 0.0
C1081 C 0.73707 0.98217 0.33101 0.0
C1082 C 0.73224 0.97358 0.31509 0.0
C1083 C 0.72772 0.98181 0.29896 0.0
C1084 C 0.72913 0.95631 0.31602 0.0
C1085 C 0.7418 0.97395 0.34883 0.0
C1086 C 0.74154 0.94542 0.31984 0.0
C1087 C 0.7378 0.9295 0.32347 0.0
C1088 C 0.7216 0.92432 0.32324 0.0
C1089 C 0.70938 0.9351 0.31828 0.0
C1090 C 0.71311 0.95092 0.3147 0.0
H1091 H 0.74314 0.98237 0.36057 0.0
H1092 H 0.7326 0.9649 0.35267 0.0
H1093 H 0.75353 0.96779 0.34686 0.0
H1094 H 0.75401 0.94932 0.32064 0.0
H1095 H 0.74748 0.92144 0.32713 0.0
H1096 H 0.0579 0.70655 0.32995 0.0
H1097 H 0.02859 0.70576 0.32609 0.0
H1098 H 0.02526 0.7544 0.34409 0.0
H1099 H 0.05463 0.75524 0.34839 0.0
H1100 H 0.00442 0.73515 0.36241 0.0
H1101 H -0.0009 0.72436 0.28695 0.0
H1102 H 0.01217 0.71027 0.29807 0.0
H1103 H 0.01772 0.73093 0.29761 0.0
C1104 C 0.05099 0.71716 0.3329 0.0
C1105 C 0.05862 0.73096 0.33952 0.0
C1106 C 0.03423 0.71672 0.33052 0.0
C1107 C 0.02478 0.73011 0.33447 0.0
C1108 C 0.03236 0.74398 0.34081 0.0
H1109 H 0.91889 0.73632 0.34272 0.0
H1110 H 0.94735 0.74394 0.33894 0.0
C1111 C 0.04914 0.74442 0.34328 0.0
C1112 C 0.00691 0.72912 0.33353 0.0
H1113 H 0.97557 0.7182 0.30538 0.0
C1114 C -0.00193 0.73173 0.34987 0.0
C1115 C -0.00133 0.72465 0.31713 0.0
C1116 C 0.0074 0.72255 0.2989 0.0
C1117 C 0.98129 0.72925 0.35049 0.0
C1118 C 0.97317 0.72418 0.33428 0.0
C1119 C 0.9819 0.72205 0.31778 0.0
C1120 C 0.95582 0.71997 0.33464 0.0
C1121 C 0.97248 0.73135 0.36867 0.0
C1122 C 0.9512 0.70404 0.33288 0.0
C1123 C 0.93501 0.69965 0.33503 0.0
C1124 C 0.92317 0.71114 0.33888 0.0
C1125 C 0.92775 0.72719 0.33984 0.0
C1126 C 0.94398 0.73157 0.33774 0.0
H1127 H 0.98095 0.7328 0.38053 0.0
H1128 H 0.96473 0.74206 0.36788 0.0
H1129 H 0.96451 0.721 0.37148 0.0
H1130 H 0.96021 0.69494 0.33045 0.0
H1131 H 0.93186 0.6872 0.33412 0.0
H1132 H 0.29303 0.93376 0.32634 0.0
H1133 H 0.28364 0.96052 0.31915 0.0
H1134 H 0.23417 0.94559 0.32704 0.0
H1135 H 0.24346 0.91867 0.33434 0.0
H1136 H 0.25971 0.97239 0.29171 0.0
H1137 H 0.24249 0.98184 0.36575 0.0
H1138 H 0.2557 0.96587 0.35884 0.0
H1139 H 0.23445 0.96479 0.3539 0.0
C1140 C 0.28013 0.93609 0.32635 0.0
C1141 C 0.26899 0.92415 0.33109 0.0
C1142 C 0.27479 0.95137 0.32216 0.0
C1143 C 0.25824 0.95501 0.32273 0.0
C1144 C 0.247 0.94299 0.32668 0.0
H1145 H 0.23223 0.05537 0.33348 0.0
H1146 H 0.22718 0.02716 0.32742 0.0
C1147 C 0.25234 0.92764 0.33081 0.0
C1148 C 0.25313 0.9717 0.32061 0.0
H1149 H 0.24274 0.00403 0.34632 0.0
C1150 C 0.25567 0.97929 0.30353 0.0
C1151 C 0.24771 0.98058 0.33602 0.0
C1152 C 0.24496 0.97296 0.35473 0.0
C1153 C 0.25379 -0.00425 0.30171 0.0
C1154 C 0.24962 0.00482 0.3175 0.0
C1155 C 0.24594 -0.00294 0.33423 0.0
C1156 C 0.25152 0.02229 0.31792 0.0
C1157 C 0.25678 0.00333 0.28305 0.0
C1158 C 0.26679 0.02892 0.31435 0.0
C1159 C 0.26971 0.04491 0.31783 0.0
C1160 C 0.25744 0.05461 0.3251 0.0
C1161 C 0.24191 0.04818 0.32784 0.0
C1162 C 0.239 0.03209 0.32439 0.0
H1163 H 0.2536 -0.00493 0.27162 0.0
H1164 H 0.2497 0.01443 0.28136 0.0
H1165 H 0.26984 0.00621 0.28171 0.0
H1166 H 0.27676 0.02153 0.30983 0.0
H1167 H 0.2818 0.04951 0.31556 0.0
H1168 H 0.04975 0.68716 0.63992 0.0
H1169 H 0.02078 0.69247 0.64264 0.0
H1170 H 0.0287 0.74091 0.62557 0.0
H1171 H 0.05783 0.73579 0.62317 0.0
H1172 H 0.00554 0.73755 0.65427 0.0
H1173 H -0.00653 0.69677 0.59546 0.0
H1174 H 0.00442 0.68774 0.61421 0.0
H1175 H 0.01356 0.70362 0.60118 0.0
C1176 C 0.04537 0.699 0.63696 0.0
C1177 C 0.05603 0.71101 0.6311 0.0
C1178 C 0.02882 0.70199 0.63845 0.0
C1179 C 0.02261 0.71697 0.63389 0.0
C1180 C 0.03329 0.72924 0.62902 0.0
H1181 H 0.92451 0.75192 0.6176 0.0
H1182 H 0.95392 0.74998 0.62123 0.0
C1183 C 0.0499 0.72629 0.62766 0.0
C1184 C 0.00491 0.71951 0.63316 0.0
H1185 H 0.97058 0.70643 0.61173 0.0
C1186 C -0.00213 0.73082 0.64494 0.0
C1187 C -0.00499 0.71079 0.62081 0.0
C1188 C 0.00199 0.69916 0.60706 0.0
C1189 C 0.98105 0.7333 0.64504 0.0
C1190 C 0.97117 0.72432 0.63297 0.0
C1191 C 0.97824 0.71318 0.62106 0.0
C1192 C 0.9534 0.72616 0.63241 0.0
C1193 C 0.97391 0.74522 0.65829 0.0
C1194 C 0.94346 0.71338 0.63745 0.0
C1195 C 0.92671 0.71441 0.63536 0.0
C1196 C 0.91959 0.72821 0.62801 0.0
C1197 C 0.9296 0.74112 0.6233 0.0
C1198 C 0.94638 0.74009 0.62547 0.0
H1199 H 0.98275 0.74895 0.66906 0.0
H1200 H 0.97009 0.7559 0.65042 0.0
H1201 H 0.96303 0.74024 0.66524 0.0
H1202 H 0.94871 0.70249 0.64273 0.0
H1203 H 0.91939 0.70424 0.63915 0.0
H1204 H 0.28574 0.9306 0.65673 0.0
H1205 H 0.27963 0.95812 0.6639 0.0
H1206 H 0.2295 0.95035 0.64972 0.0
H1207 H 0.23561 0.92263 0.64221 0.0
H1208 H 0.24272 0.97467 0.63068 0.0
H1209 H 0.2574 0.98246 0.70466 0.0
H1210 H 0.27356 0.97235 0.69307 0.0
H1211 H 0.25388 0.96315 0.69456 0.0
C1212 C 0.27333 0.93462 0.6555 0.0
C1213 C 0.26118 0.92448 0.64877 0.0
C1214 C 0.26981 0.95034 0.65983 0.0
C1215 C 0.25405 0.95624 0.65765 0.0
C1216 C 0.24171 0.94598 0.65169 0.0
H1217 H 0.24289 0.05967 0.64265 0.0
H1218 H 0.23401 0.0328 0.65096 0.0
C1219 C 0.24522 0.93017 0.64739 0.0
C1220 C 0.25131 0.97356 0.65886 0.0
H1221 H 0.26165 0.00581 0.68485 0.0
C1222 C 0.24634 0.98152 0.64272 0.0
C1223 C 0.25598 0.98246 0.6746 0.0
C1224 C 0.26033 0.97462 0.69275 0.0
C1225 C 0.24742 -0.00193 0.64129 0.0
C1226 C 0.25344 0.00685 0.65651 0.0
C1227 C 0.25715 -0.00099 0.67316 0.0
C1228 C 0.25828 0.02363 0.65436 0.0
C1229 C 0.2434 0.00591 0.62301 0.0
C1230 C 0.2748 0.02744 0.65425 0.0
C1231 C 0.2799 0.04269 0.64954 0.0
C1232 C 0.26854 0.05444 0.64491 0.0
C1233 C 0.25193 0.05084 0.64605 0.0
C1234 C 0.24683 0.03551 0.65075 0.0
H1235 H 0.24068 -0.00285 0.61194 0.0
H1236 H 0.23264 0.01363 0.62478 0.0
H1237 H 0.25362 0.0135 0.61834 0.0
H1238 H 0.28382 0.01841 0.657 0.0
H1239 H 0.29277 0.04512 0.64891 0.0
H1240 H 0.05522 0.2286 0.61002 0.0
H1241 H 0.02569 0.23054 0.6126 0.0
H1242 H 0.03046 0.27674 0.63752 0.0
H1243 H 0.05988 0.27499 0.63507 0.0
H1244 H 0.00556 0.23791 0.64708 0.0
H1245 H 0.001 0.28176 0.58954 0.0
H1246 H 0.01826 0.26884 0.59238 0.0
H1247 H 0.01594 0.28588 0.60704 0.0
C1248 C 0.04999 0.23915 0.61612 0.0
C1249 C 0.05991 0.25169 0.62222 0.0
C1250 C 0.03315 0.2402 0.61763 0.0
C1251 C 0.02599 0.25383 0.6251 0.0
C1252 C 0.03582 0.26619 0.63158 0.0
H1253 H 0.93051 0.29287 0.63473 0.0
H1254 H 0.95943 0.28709 0.63627 0.0
C1255 C 0.05263 0.26514 0.63017 0.0
C1256 C 0.00822 0.25548 0.6256 0.0
H1257 H 0.97723 0.27677 0.60681 0.0
C1258 C -0.00071 0.24631 0.63824 0.0
C1259 C 0.0002 0.26647 0.61401 0.0
C1260 C 0.00927 0.27625 0.59985 0.0
C1261 C 0.98246 0.24822 0.63998 0.0
C1262 C 0.97445 0.25936 0.6285 0.0
C1263 C 0.98342 0.26831 0.61566 0.0
C1264 C 0.95679 0.2622 0.6296 0.0
C1265 C 0.9735 0.23867 0.65443 0.0
C1266 C 0.9457 0.25006 0.62561 0.0
C1267 C 0.92911 0.25331 0.62485 0.0
C1268 C 0.92341 0.2688 0.62783 0.0
C1269 C 0.93453 0.28083 0.63231 0.0
C1270 C 0.95106 0.27755 0.63319 0.0
H1271 H 0.98182 0.23386 0.66515 0.0
H1272 H 0.96411 0.24597 0.66138 0.0
H1273 H 0.96738 0.22852 0.64761 0.0
H1274 H 0.94989 0.23821 0.62242 0.0
H1275 H 0.92083 0.24383 0.62125 0.0
H1276 H 0.74542 0.05747 0.64129 0.0
H1277 H 0.75198 0.02967 0.64817 0.0
H1278 H 0.70128 0.01968 0.6566 0.0
H1279 H 0.69469 0.04726 0.65012 0.0
H1280 H 0.72185 0.00424 0.68228 0.0
H1281 H 0.74167 -0.00416 0.60891 0.0
H1282 H 0.75183 0.01072 0.62245 0.0
H1283 H 0.73097 0.01338 0.6162 0.0
C1284 C 0.73573 0.04938 0.6449 0.0
C1285 C 0.71952 0.05449 0.64492 0.0
C1286 C 0.73949 0.03352 0.64876 0.0
C1287 C 0.72708 0.02261 0.65262 0.0
C1288 C 0.71103 0.02792 0.65364 0.0
H1289 H 0.68863 0.93364 0.64921 0.0
H1290 H 0.69785 0.96022 0.65726 0.0
C1291 C 0.70728 0.04368 0.64982 0.0
C1292 C 0.73024 0.00538 0.654 0.0
H1293 H 0.73703 0.97312 0.62661 0.0
C1294 C 0.72555 -0.00258 0.67027 0.0
C1295 C 0.73519 -0.00348 0.63834 0.0
C1296 C 0.74014 0.00446 0.62042 0.0
C1297 C 0.72456 0.98082 0.67084 0.0
C1298 C 0.72816 0.97205 0.65466 0.0
C1299 C 0.73422 0.97992 0.63896 0.0
C1300 C 0.72325 0.95528 0.65261 0.0
C1301 C 0.71897 0.97285 0.68846 0.0
C1302 C 0.73447 0.94367 0.64726 0.0
C1303 C 0.7292 0.92842 0.64258 0.0
C1304 C 0.71261 0.92466 0.64289 0.0
C1305 C 0.70149 0.93618 0.64882 0.0
C1306 C 0.70676 0.95134 0.65361 0.0
H1307 H 0.72223 0.98002 0.70083 0.0
H1308 H 0.70558 0.97169 0.68817 0.0
H1309 H 0.72429 0.96083 0.68993 0.0
H1310 H 0.74722 0.94656 0.64619 0.0
H1311 H 0.73804 0.91978 0.63803 0.0
H1312 H 0.55135 0.79272 0.83553 0.0
H1313 H 0.52299 0.78514 0.83155 0.0
H1314 H 0.53576 0.73589 0.83815 0.0
H1315 H 0.56423 0.74334 0.84222 0.0
H1316 H 0.50784 0.76277 0.8054 0.0
H1317 H 0.50181 0.74564 0.87981 0.0
H1318 H 0.51832 0.75774 0.87144 0.0
H1319 H 0.51815 0.73682 0.86697 0.0
C1320 C 0.54816 0.78026 0.83598 0.0
C1321 C 0.55999 0.76863 0.83935 0.0
C1322 C 0.53198 0.77596 0.83365 0.0
C1323 C 0.52733 0.76 0.83476 0.0
C1324 C 0.53915 0.74829 0.83745 0.0
H1325 H 0.42864 0.72385 0.8457 0.0
H1326 H 0.45802 0.72504 0.84178 0.0
C1327 C 0.55538 0.75257 0.83972 0.0
C1328 C 0.50999 0.75581 0.83404 0.0
H1329 H 0.47851 0.74381 0.86131 0.0
C1330 C 0.50141 0.75848 0.81754 0.0
C1331 C 0.50173 0.75019 0.84993 0.0
C1332 C 0.51038 0.74749 0.86812 0.0
C1333 C 0.48465 0.75587 0.81657 0.0
C1334 C 0.47628 0.75081 0.83266 0.0
C1335 C 0.48497 0.74768 0.84899 0.0
C1336 C 0.45841 0.74967 0.83332 0.0
C1337 C 0.47608 0.75857 0.79835 0.0
C1338 C 0.4489 0.76313 0.82987 0.0
C1339 C 0.43212 0.76249 0.83203 0.0
C1340 C 0.42454 0.74842 0.83793 0.0
C1341 C 0.43408 0.73488 0.84116 0.0
C1342 C 0.45087 0.73552 0.8389 0.0
H1343 H 0.48451 0.75727 0.78643 0.0
H1344 H 0.46584 0.75018 0.79654 0.0
H1345 H 0.47122 0.77084 0.79802 0.0
H1346 H 0.45449 0.77429 0.82602 0.0
H1347 H 0.42516 0.77316 0.82952 0.0
H1348 H 0.19174 0.42998 0.816 0.0
H1349 H 0.19689 0.45784 0.80944 0.0
H1350 H 0.24768 0.45108 0.82089 0.0
H1351 H 0.24255 0.42303 0.8278 0.0
H1352 H 0.23457 0.47448 0.84147 0.0
H1353 H 0.21703 0.48383 0.76847 0.0
H1354 H 0.20154 0.47314 0.78064 0.0
H1355 H 0.22127 0.46436 0.77779 0.0
C1356 C 0.20408 0.4343 0.81671 0.0
C1357 C 0.21673 0.42433 0.82254 0.0
C1358 C 0.20704 0.45023 0.81276 0.0
C1359 C 0.22271 0.45651 0.81441 0.0
C1360 C 0.23552 0.44642 0.81937 0.0
H1361 H 0.23584 0.55981 0.8292 0.0
H1362 H 0.24348 0.53254 0.82127 0.0
C1363 C 0.23257 0.43042 0.82331 0.0
C1364 C 0.22501 0.47392 0.81367 0.0
H1365 H 0.2138 0.50669 0.78897 0.0
C1366 C 0.2305 0.48156 0.82979 0.0
C1367 C 0.21972 0.48312 0.79841 0.0
C1368 C 0.21473 0.47565 0.78029 0.0
C1369 C 0.22952 0.49808 0.83165 0.0
C1370 C 0.22307 0.50716 0.8169 0.0
C1371 C 0.21865 0.49965 0.80029 0.0
C1372 C 0.21882 0.52403 0.81945 0.0
C1373 C 0.23427 0.50559 0.84987 0.0
C1374 C 0.20245 0.52831 0.82049 0.0
C1375 C 0.19805 0.54378 0.82502 0.0
C1376 C 0.20997 0.5553 0.82852 0.0
C1377 C 0.22639 0.55117 0.82667 0.0
C1378 C 0.23078 0.53562 0.82218 0.0
H1379 H 0.23723 0.49662 0.86065 0.0
H1380 H 0.24506 0.51323 0.84774 0.0
H1381 H 0.22431 0.51321 0.85511 0.0
H1382 H 0.19305 0.5195 0.81844 0.0
H1383 H 0.18531 0.54661 0.82622 0.0
H1384 H 0.4307 0.1872 0.83253 0.0
H1385 H 0.45958 0.19307 0.83023 0.0
H1386 H 0.45028 0.24205 0.84361 0.0
H1387 H 0.42121 0.23634 0.84565 0.0
H1388 H 0.4737 0.2376 0.81506 0.0
H1389 H 0.48659 0.20078 0.8772 0.0
H1390 H 0.47573 0.19038 0.8594 0.0
H1391 H 0.46637 0.20688 0.87097 0.0
C1392 C 0.43475 0.19926 0.83482 0.0
C1393 C 0.42371 0.21128 0.83948 0.0
C1394 C 0.45126 0.20257 0.83357 0.0
C1395 C 0.45705 0.2179 0.83715 0.0
C1396 C 0.44602 0.23011 0.84094 0.0
H1397 H 0.55609 0.25338 0.84791 0.0
H1398 H 0.52653 0.25178 0.84583 0.0
C1399 C 0.42944 0.22683 0.8421 0.0
C1400 C 0.47468 0.22093 0.8377 0.0
H1401 H 0.50933 0.20935 0.8596 0.0
C1402 C 0.48151 0.23155 0.82487 0.0
C1403 C 0.48476 0.21309 0.85065 0.0
C1404 C 0.478 0.20226 0.86546 0.0
C1405 C 0.49832 0.23407 0.82422 0.0
C1406 C 0.50839 0.22585 0.83681 0.0
C1407 C 0.50152 0.21552 0.84988 0.0
C1408 C 0.5262 0.22742 0.8365 0.0
C1409 C 0.50526 0.24512 0.80978 0.0
C1410 C 0.53571 0.21424 0.83196 0.0
C1411 C 0.55254 0.21507 0.83316 0.0
C1412 C 0.56018 0.2291 0.83909 0.0
C1413 C 0.5506 0.24241 0.84329 0.0
C1414 C 0.53372 0.24156 0.84202 0.0
H1415 H 0.49614 0.2485 0.79915 0.0
H1416 H 0.50963 0.25609 0.81665 0.0
H1417 H 0.51576 0.23953 0.80275 0.0
H1418 H 0.53007 0.2032 0.82776 0.0
H1419 H 0.55952 0.2046 0.82979 0.0
H1420 H 0.74375 0.41834 0.83133 0.0
H1421 H 0.73519 0.44529 0.82305 0.0
H1422 H 0.785 0.4584 0.81353 0.0
H1423 H 0.79362 0.43164 0.82175 0.0
H1424 H 0.74565 0.47187 0.84298 0.0
H1425 H 0.76157 0.47813 0.76885 0.0
H1426 H 0.75896 0.45905 0.77996 0.0
H1427 H 0.77776 0.4697 0.7822 0.0
C1428 C 0.75284 0.4269 0.82712 0.0
C1429 C 0.76937 0.42292 0.82727 0.0
C1430 C 0.74792 0.44225 0.82237 0.0
C1431 C 0.75944 0.45374 0.8174 0.0
C1432 C 0.77588 0.44961 0.81691 0.0
H1433 H 0.78595 0.54728 0.81763 0.0
H1434 H 0.78044 0.51944 0.8113 0.0
C1435 C 0.7808 0.43435 0.82179 0.0
C1436 C 0.75476 0.47055 0.81506 0.0
H1437 H 0.76088 0.50246 0.78677 0.0
C1438 C 0.74852 0.47855 0.83053 0.0
C1439 C 0.75849 0.47916 0.79877 0.0
C1440 C 0.76441 0.47103 0.78144 0.0
C1441 C 0.74731 0.49514 0.83075 0.0
C1442 C 0.75216 0.50387 0.81489 0.0
C1443 C 0.75721 0.49575 0.79892 0.0
C1444 C 0.7546 0.52125 0.81573 0.0
C1445 C 0.74214 0.50321 0.84848 0.0
C1446 C 0.74178 0.53166 0.81962 0.0
C1447 C 0.74492 0.54766 0.82341 0.0
C1448 C 0.76091 0.55343 0.82324 0.0
C1449 C 0.77352 0.54318 0.81804 0.0
C1450 C 0.77038 0.52726 0.81434 0.0
H1451 H 0.74117 0.49477 0.86029 0.0
H1452 H 0.75087 0.51269 0.8523 0.0
H1453 H 0.73012 0.50879 0.84641 0.0
H1454 H 0.72947 0.5273 0.82042 0.0
H1455 H 0.73495 0.55531 0.82724 0.0
H1456 H 0.42728 0.2487 0.12377 0.0
H1457 H 0.45648 0.24568 0.12852 0.0
H1458 H 0.44889 0.1983 0.14938 0.0
H1459 H 0.41976 0.20111 0.14467 0.0
H1460 H 0.47538 0.23606 0.16232 0.0
H1461 H 0.47933 0.19425 0.10281 0.0
H1462 H 0.46229 0.20733 0.10616 0.0
H1463 H 0.46425 0.18973 0.12002 0.0
C1464 C 0.43179 0.23769 0.12954 0.0
C1465 C 0.42119 0.22508 0.13364 0.0
C1466 C 0.44846 0.23602 0.13229 0.0
C1467 C 0.45476 0.22172 0.1391 0.0
C1468 C 0.4442 0.20937 0.14393 0.0
H1469 H 0.55139 0.18275 0.14301 0.0
H1470 H 0.52249 0.1875 0.1475 0.0
C1471 C 0.42757 0.21101 0.14122 0.0
C1472 C 0.47243 0.21931 0.14006 0.0
H1473 H 0.50314 0.19849 0.12005 0.0
C1474 C 0.48151 0.22786 0.15311 0.0
C1475 C 0.48029 0.2086 0.128 0.0
C1476 C 0.47111 0.19951 0.11333 0.0
C1477 C 0.49833 0.22578 0.1546 0.0
C1478 C 0.5062 0.2151 0.14246 0.0
C1479 C 0.49706 0.20658 0.12943 0.0
C1480 C 0.52396 0.21278 0.1425 0.0
C1481 C 0.50747 0.23479 0.16934 0.0
C1482 C 0.53442 0.22547 0.13853 0.0
C1483 C 0.55098 0.2228 0.13608 0.0
C1484 C 0.55729 0.20736 0.13729 0.0
C1485 C 0.54688 0.19477 0.14193 0.0
C1486 C 0.53037 0.19746 0.14451 0.0
H1487 H 0.49933 0.23868 0.18073 0.0
H1488 H 0.51734 0.22747 0.17534 0.0
H1489 H 0.51295 0.24554 0.16304 0.0
H1490 H 0.52969 0.23732 0.13651 0.0
H1491 H 0.55869 0.23273 0.13243 0.0
H1492 H 0.73925 0.56137 0.13987 0.0
H1493 H 0.73061 0.53446 0.14828 0.0
H1494 H 0.78016 0.52201 0.16033 0.0
H1495 H 0.78882 0.54873 0.15213 0.0
H1496 H 0.74115 0.50843 0.12915 0.0
H1497 H 0.75632 0.50112 0.20319 0.0
H1498 H 0.75422 0.52039 0.19242 0.0
H1499 H 0.77297 0.5096 0.19065 0.0
C1500 C 0.74823 0.55298 0.14474 0.0
C1501 C 0.76473 0.55711 0.14524 0.0
C1502 C 0.74327 0.53764 0.14956 0.0
C1503 C 0.7547 0.52631 0.1552 0.0
C1504 C 0.77107 0.53066 0.15647 0.0
H1505 H 0.78409 0.43414 0.15127 0.0
H1506 H 0.77766 0.46172 0.158 0.0
C1507 C 0.77603 0.54591 0.15159 0.0
C1508 C 0.75019 0.5094 0.15714 0.0
H1509 H 0.75725 0.47704 0.1844 0.0
C1510 C 0.74417 0.50157 0.14142 0.0
C1511 C 0.75407 0.50053 0.17319 0.0
C1512 C 0.75959 0.5084 0.19087 0.0
C1513 C 0.74345 0.48497 0.14067 0.0
C1514 C 0.74864 0.47604 0.15621 0.0
C1515 C 0.75337 0.48392 0.17248 0.0
C1516 C 0.75179 0.45883 0.15471 0.0
C1517 C 0.73845 0.47711 0.12274 0.0
C1518 C 0.7393 0.44795 0.15116 0.0
C1519 C 0.74296 0.4321 0.14719 0.0
C1520 C 0.75915 0.42697 0.14677 0.0
C1521 C 0.77151 0.43774 0.15133 0.0
C1522 C 0.76785 0.4535 0.15528 0.0
H1523 H 0.73675 0.48581 0.1113 0.0
H1524 H 0.74768 0.4683 0.11839 0.0
H1525 H 0.72684 0.47073 0.12485 0.0
H1526 H 0.7268 0.45181 0.15091 0.0
H1527 H 0.73317 0.42404 0.14384 0.0
H1528 H 0.4184 0.74253 0.12985 0.0
H1529 H 0.44696 0.73565 0.13416 0.0
H1530 H 0.45842 0.78493 0.14326 0.0
H1531 H 0.42997 0.79193 0.139 0.0
H1532 H 0.47188 0.74834 0.11115 0.0
H1533 H 0.48274 0.76165 0.18547 0.0
H1534 H 0.46273 0.75834 0.17609 0.0
H1535 H 0.47257 0.77718 0.17299 0.0
C1536 C 0.42696 0.75187 0.13309 0.0
C1537 C 0.42196 0.76778 0.13404 0.0
C1538 C 0.44325 0.74791 0.13554 0.0
C1539 C 0.45472 0.75976 0.13923 0.0
C1540 C 0.44969 0.77558 0.14076 0.0
H1541 H 0.55652 0.77518 0.1397 0.0
H1542 H 0.52714 0.77564 0.14326 0.0
C1543 C 0.43344 0.77957 0.1382 0.0
C1544 C 0.47217 0.75593 0.13964 0.0
H1545 H 0.50619 0.75909 0.16623 0.0
C1546 C 0.47938 0.75042 0.12326 0.0
C1547 C 0.48185 0.75878 0.15545 0.0
C1548 C 0.47458 0.76418 0.17357 0.0
C1549 C 0.49619 0.7484 0.12197 0.0
C1550 C 0.50596 0.7516 0.13766 0.0
C1551 C 0.49866 0.75664 0.15424 0.0
C1552 C 0.52384 0.75081 0.13675 0.0
C1553 C 0.50339 0.74361 0.10355 0.0
C1554 C 0.53174 0.73659 0.13231 0.0
C1555 C 0.54855 0.73631 0.13009 0.0
C1556 C 0.55774 0.75021 0.13249 0.0
C1557 C 0.54981 0.76428 0.13767 0.0
C1558 C 0.53302 0.76456 0.13976 0.0
H1559 H 0.49468 0.7452 0.09195 0.0
H1560 H 0.51445 0.75064 0.10046 0.0
H1561 H 0.50682 0.7309 0.10409 0.0
H1562 H 0.52489 0.72577 0.13033 0.0
H1563 H 0.5543 0.72524 0.12629 0.0
H1564 H 0.24099 0.41946 0.14111 0.0
H1565 H 0.24976 0.44612 0.15028 0.0
H1566 H 0.20021 0.45866 0.16213 0.0
H1567 H 0.19142 0.43219 0.15317 0.0
H1568 H 0.23952 0.47254 0.13163 0.0
H1569 H 0.22386 0.47864 0.20564 0.0
H1570 H 0.22596 0.45955 0.19451 0.0
H1571 H 0.20726 0.47044 0.19281 0.0
C1572 C 0.23203 0.4278 0.14609 0.0
C1573 C 0.2155 0.42378 0.14631 0.0
C1574 C 0.23707 0.443 0.15135 0.0
C1575 C 0.22568 0.45429 0.15716 0.0
C1576 C 0.20927 0.45003 0.15815 0.0
H1577 H 0.19588 0.54601 0.15407 0.0
H1578 H 0.20263 0.51855 0.16117 0.0
C1579 C 0.20423 0.43493 0.15282 0.0
C1580 C 0.23028 0.47113 0.15951 0.0
H1581 H 0.22298 0.50305 0.18727 0.0
C1582 C 0.23642 0.47921 0.14399 0.0
C1583 C 0.22629 0.47974 0.17568 0.0
C1584 C 0.22064 0.47159 0.19316 0.0
C1585 C 0.23711 0.49582 0.14353 0.0
C1586 C 0.23178 0.50451 0.15917 0.0
C1587 C 0.22698 0.49636 0.17527 0.0
C1588 C 0.22847 0.52171 0.15787 0.0
C1589 C 0.2422 0.50394 0.12576 0.0
C1590 C 0.24084 0.53273 0.15429 0.0
C1591 C 0.237 0.5485 0.15008 0.0
C1592 C 0.22074 0.55342 0.14947 0.0
C1593 C 0.20851 0.54256 0.15426 0.0
C1594 C 0.21235 0.52687 0.15842 0.0
H1595 H 0.24397 0.49542 0.1142 0.0
H1596 H 0.23298 0.51279 0.12147 0.0
H1597 H 0.25378 0.51031 0.12805 0.0
H1598 H 0.25338 0.529 0.15407 0.0
H1599 H 0.24669 0.55664 0.14658 0.0
H1600 H 0.09882 0.27615 0.42187 0.0
H1601 H 0.10066 0.2815 0.45503 0.0
H1602 H 0.12357 0.32647 0.44366 0.0
H1603 H 0.12166 0.32122 0.41017 0.0
H1604 H 0.1403 0.30591 0.46959 0.0
H1605 H 0.07581 0.31363 0.48813 0.0
H1606 H 0.0791 0.29675 0.47346 0.0
H1607 H 0.08332 0.31635 0.46477 0.0
C1608 C 0.10409 0.28727 0.42637 0.0
C1609 C 0.11012 0.29826 0.41344 0.0
C1610 C 0.10501 0.29036 0.44532 0.0
C1611 C 0.11202 0.30447 0.45174 0.0
C1612 C 0.11795 0.31559 0.43891 0.0
H1613 H 0.11027 0.30367 0.57385 0.0
H1614 H 0.11064 0.31629 0.5431 0.0
C1615 C 0.11685 0.31258 0.41984 0.0
C1616 C 0.1143 0.30665 0.47191 0.0
H1617 H 0.0934 0.30387 0.51256 0.0
C1618 C 0.13008 0.30594 0.47905 0.0
C1619 C 0.10098 0.30695 0.4842 0.0
C1620 C 0.08385 0.30863 0.47726 0.0
C1621 C 0.13279 0.30394 0.49813 0.0
C1622 C 0.11937 0.30249 0.5102 0.0
C1623 C 0.10368 0.30481 0.50325 0.0
C1624 C 0.1211 0.29603 0.52918 0.0
C1625 C 0.14994 0.30255 0.50509 0.0
C1626 C 0.12687 0.28052 0.53146 0.0
C1627 C 0.12651 0.27326 0.54883 0.0
C1628 C 0.12038 0.28137 0.56432 0.0
C1629 C 0.11513 0.29714 0.56218 0.0
C1630 C 0.11533 0.30437 0.54466 0.0
H1631 H 0.15848 0.30913 0.49598 0.0
H1632 H 0.15108 0.30711 0.51948 0.0
H1633 H 0.15358 0.28988 0.50503 0.0
H1634 H 0.13104 0.27376 0.51962 0.0
H1635 H 0.1307 0.26113 0.55002 0.0
H1636 H 0.72024 0.09132 0.55786 0.0
H1637 H 0.71478 0.08893 0.52467 0.0
H1638 H 0.66398 0.09705 0.53458 0.0
H1639 H 0.66934 0.09961 0.56791 0.0
H1640 H 0.69313 0.06747 0.50595 0.0
H1641 H 0.6769 0.131 0.49547 0.0
H1642 H 0.68745 0.12415 0.5159 0.0
H1643 H 0.66618 0.12039 0.51333 0.0
C1644 C 0.7079 0.09259 0.55301 0.0
C1645 C 0.69523 0.09575 0.56548 0.0
C1646 C 0.7048 0.09118 0.53406 0.0
C1647 C 0.68902 0.09298 0.52721 0.0
C1648 C 0.67628 0.09585 0.53961 0.0
H1649 H 0.66484 0.09877 0.40844 0.0
H1650 H 0.66133 0.09648 0.44217 0.0
C1651 C 0.67936 0.09724 0.55862 0.0
C1652 C 0.68614 0.09205 0.50699 0.0
H1653 H 0.67749 0.11476 0.46903 0.0
C1654 C 0.68953 0.07775 0.49787 0.0
C1655 C 0.68132 0.10546 0.49657 0.0
C1656 C 0.67783 0.12118 0.50571 0.0
C1657 C 0.68873 0.07664 0.47849 0.0
C1658 C 0.68473 0.09026 0.46799 0.0
C1659 C 0.68057 0.10435 0.47716 0.0
C1660 C 0.68639 0.09061 0.44756 0.0
C1661 C 0.69244 0.06096 0.46939 0.0
C1662 C 0.70164 0.08818 0.43952 0.0
C1663 C 0.70368 0.08952 0.42038 0.0
C1664 C 0.69052 0.0934 0.40889 0.0
C1665 C 0.67519 0.0957 0.41694 0.0
C1666 C 0.67316 0.09441 0.43617 0.0
H1667 H 0.69015 0.05088 0.47899 0.0
H1668 H 0.68509 0.05925 0.45664 0.0
H1669 H 0.70543 0.06066 0.46545 0.0
H1670 H 0.71207 0.08559 0.44811 0.0
H1671 H 0.71565 0.08772 0.41463 0.0
H1672 H 0.88575 0.70707 0.4196 0.0
H1673 H 0.88441 0.70212 0.45291 0.0
H1674 H 0.86154 0.65693 0.44289 0.0
H1675 H 0.86295 0.66176 0.40926 0.0
H1676 H 0.84495 0.67791 0.46837 0.0
H1677 H 0.9096 0.67055 0.48658 0.0
H1678 H 0.90606 0.68723 0.4716 0.0
H1679 H 0.90194 0.6675 0.46335 0.0
C1680 C 0.88062 0.69598 0.42444 0.0
C1681 C 0.87443 0.68481 0.41185 0.0
C1682 C 0.87997 0.69311 0.44346 0.0
C1683 C 0.87309 0.67907 0.4503 0.0
C1684 C 0.86706 0.66776 0.43781 0.0
H1685 H 0.8732 0.67761 0.5727 0.0
H1686 H 0.87383 0.66628 0.54133 0.0
C1687 C 0.86788 0.67054 0.41867 0.0
C1688 C 0.87095 0.67718 0.47053 0.0
H1689 H 0.89203 0.68 0.51107 0.0
C1690 C 0.8552 0.67792 0.47777 0.0
C1691 C 0.88433 0.67699 0.48274 0.0
C1692 C 0.90144 0.67536 0.47569 0.0
C1693 C 0.85258 0.67992 0.49685 0.0
C1694 C 0.86605 0.68129 0.50884 0.0
C1695 C 0.88172 0.6791 0.5018 0.0
C1696 C 0.86431 0.68728 0.52799 0.0
C1697 C 0.83547 0.68132 0.50393 0.0
C1698 C 0.85882 0.70283 0.53076 0.0
C1699 C 0.85861 0.70937 0.5485 0.0
C1700 C 0.86386 0.70047 0.56386 0.0
C1701 C 0.86902 0.68474 0.56113 0.0
C1702 C 0.86939 0.67824 0.54327 0.0
H1703 H 0.82677 0.67524 0.49457 0.0
H1704 H 0.83431 0.67624 0.5181 0.0
H1705 H 0.83207 0.69404 0.50454 0.0
H1706 H 0.85514 0.71009 0.51908 0.0
H1707 H 0.85453 0.72149 0.55011 0.0
H1708 H 0.26157 0.89017 0.55929 0.0
H1709 H 0.26755 0.89196 0.52615 0.0
H1710 H 0.31798 0.88273 0.53721 0.0
H1711 H 0.31208 0.88073 0.57047 0.0
H1712 H 0.28964 0.91229 0.50695 0.0
H1713 H 0.30501 0.84832 0.49916 0.0
H1714 H 0.29453 0.85588 0.51926 0.0
H1715 H 0.31588 0.85916 0.51666 0.0
C1716 C 0.27395 0.88855 0.5547 0.0
C1717 C 0.28634 0.88519 0.56747 0.0
C1718 C 0.27734 0.88962 0.53577 0.0
C1719 C 0.29316 0.88729 0.52926 0.0
C1720 C 0.30565 0.88432 0.54197 0.0
H1721 H 0.3192 0.8789 0.41117 0.0
H1722 H 0.32217 0.88178 0.44492 0.0
C1723 C 0.30227 0.88325 0.56095 0.0
C1724 C 0.29633 0.88768 0.50907 0.0
H1725 H 0.30529 0.86395 0.47215 0.0
C1726 C 0.29324 0.90178 0.49934 0.0
C1727 C 0.30112 0.87395 0.49924 0.0
C1728 C 0.30425 0.85841 0.50902 0.0
C1729 C 0.29434 0.9024 0.47994 0.0
C1730 C 0.29837 0.88848 0.47005 0.0
C1731 C 0.30221 0.87458 0.47982 0.0
C1732 C 0.29701 0.88766 0.44962 0.0
C1733 C 0.29091 0.91787 0.47016 0.0
C1734 C 0.28188 0.88987 0.44121 0.0
C1735 C 0.28013 0.88817 0.42208 0.0
C1736 C 0.29349 0.88416 0.41097 0.0
C1737 C 0.3087 0.88205 0.41938 0.0
C1738 C 0.31042 0.88369 0.43861 0.0
H1739 H 0.29303 0.92817 0.47945 0.0
H1740 H 0.29856 0.91923 0.45758 0.0
H1741 H 0.27802 0.91811 0.46581 0.0
H1742 H 0.27131 0.89259 0.44952 0.0
H1743 H 0.26825 0.88984 0.41604 0.0
H1744 H 0.12308 0.72411 0.4182 0.0
H1745 H 0.12243 0.71313 0.44949 0.0
H1746 H 0.1031 0.66922 0.4283 0.0
H1747 H 0.10378 0.68013 0.39667 0.0
H1748 H 0.08531 0.68366 0.45866 0.0
H1749 H 0.15073 0.67804 0.47403 0.0
H1750 H 0.14555 0.69677 0.46373 0.0
H1751 H 0.14285 0.67882 0.45063 0.0
C1752 C 0.11883 0.71206 0.42011 0.0
C1753 C 0.11344 0.703 0.40495 0.0
C1754 C 0.11859 0.70576 0.43799 0.0
C1755 C 0.11293 0.69031 0.44112 0.0
C1756 C 0.10767 0.68113 0.42607 0.0
H1757 H 0.11579 0.66487 0.55986 0.0
H1758 H 0.11658 0.66019 0.52621 0.0
C1759 C 0.10807 0.68737 0.40806 0.0
C1760 C 0.11134 0.68453 0.46039 0.0
H1761 H 0.13297 0.68095 0.50047 0.0
C1762 C 0.09573 0.68263 0.46775 0.0
C1763 C 0.12495 0.68299 0.47213 0.0
C1764 C 0.14198 0.6841 0.4647 0.0
C1765 C 0.09336 0.68063 0.48688 0.0
C1766 C 0.10693 0.68062 0.49883 0.0
C1767 C 0.12258 0.6811 0.49128 0.0
C1768 C 0.10514 0.68245 0.5191 0.0
C1769 C 0.07633 0.67927 0.49427 0.0
C1770 C 0.09852 0.69652 0.52612 0.0
C1771 C 0.09822 0.69929 0.54518 0.0
C1772 C 0.10451 0.68802 0.55759 0.0
C1773 C 0.11081 0.67374 0.55059 0.0
C1774 C 0.11126 0.67104 0.53143 0.0
H1775 H 0.06793 0.67457 0.48357 0.0
H1776 H 0.07586 0.67144 0.50667 0.0
H1777 H 0.07199 0.69122 0.49837 0.0
H1778 H 0.09402 0.7056 0.5168 0.0
H1779 H 0.09327 0.71039 0.55015 0.0
H1780 H 0.25659 0.0905 0.41304 0.0
H1781 H 0.26246 0.08777 0.44611 0.0
H1782 H 0.31331 0.09485 0.43525 0.0
H1783 H 0.30753 0.09778 0.40206 0.0
H1784 H 0.28351 0.06593 0.46456 0.0
H1785 H 0.30209 0.12889 0.47446 0.0
H1786 H 0.29121 0.12232 0.45415 0.0
H1787 H 0.31239 0.11804 0.45655 0.0
C1788 C 0.26904 0.09146 0.41766 0.0
C1789 C 0.28159 0.09447 0.40497 0.0
C1790 C 0.27237 0.08985 0.43654 0.0
C1791 C 0.28828 0.09128 0.4431 0.0
C1792 C 0.30091 0.09394 0.43046 0.0
H1793 H 0.31625 0.09606 0.56058 0.0
H1794 H 0.31833 0.09361 0.52674 0.0
C1795 C 0.2976 0.09555 0.41152 0.0
C1796 C 0.29144 0.09025 0.46325 0.0
H1797 H 0.30188 0.11254 0.50088 0.0
C1798 C 0.28768 0.07606 0.47251 0.0
C1799 C 0.29697 0.10347 0.47351 0.0
C1800 C 0.30082 0.1191 0.46426 0.0
C1801 C 0.28891 0.07486 0.49187 0.0
C1802 C 0.29375 0.0883 0.5022 0.0
C1803 C 0.29818 0.10227 0.49288 0.0
C1804 C 0.29288 0.08859 0.52269 0.0
C1805 C 0.28483 0.0593 0.50111 0.0
C1806 C 0.27788 0.08664 0.53153 0.0
C1807 C 0.27665 0.08807 0.55075 0.0
C1808 C 0.29038 0.09156 0.5615 0.0
C1809 C 0.30546 0.09332 0.55266 0.0
C1810 C 0.30667 0.09193 0.53336 0.0
H1811 H 0.28636 0.04918 0.49141 0.0
H1812 H 0.29253 0.05725 0.51352 0.0
H1813 H 0.27199 0.0595 0.50562 0.0
H1814 H 0.26703 0.08441 0.5235 0.0
H1815 H 0.26486 0.08669 0.55714 0.0
H1816 H 0.87502 0.29968 0.39615 0.0
H1817 H 0.87497 0.30985 0.42807 0.0
H1818 H 0.86202 0.26343 0.44841 0.0
H1819 H 0.86206 0.25315 0.41681 0.0
H1820 H 0.84339 0.292 0.46297 0.0
H1821 H 0.91074 0.29524 0.46784 0.0
H1822 H 0.90058 0.30362 0.44798 0.0
H1823 H 0.90091 0.28254 0.45112 0.0
C1824 C 0.87208 0.29167 0.40742 0.0
C1825 C 0.86864 0.27558 0.40395 0.0
C1826 C 0.87207 0.2975 0.4256 0.0
C1827 C 0.86853 0.28734 0.44049 0.0
C1828 C 0.86476 0.27142 0.43704 0.0
H1829 H 0.87976 0.26671 0.55084 0.0
H1830 H 0.8792 0.2708 0.51735 0.0
C1831 C 0.86486 0.26557 0.41897 0.0
C1832 C 0.86929 0.29287 0.45989 0.0
H1833 H 0.89599 0.29768 0.49555 0.0
C1834 C 0.85484 0.2937 0.47007 0.0
C1835 C 0.88429 0.29497 0.46898 0.0
C1836 C 0.90008 0.29404 0.45854 0.0
C1837 C 0.85506 0.29568 0.48939 0.0
C1838 C 0.8701 0.29681 0.49862 0.0
C1839 C 0.8845 0.29691 0.48832 0.0
C1840 C 0.87118 0.29516 0.51896 0.0
C1841 C 0.83933 0.29543 0.50001 0.0
C1842 C 0.86698 0.30762 0.5309 0.0
C1843 C 0.86734 0.30534 0.55016 0.0
C1844 C 0.87178 0.29054 0.55762 0.0
C1845 C 0.8762 0.27822 0.54554 0.0
C1846 C 0.87595 0.28054 0.5264 0.0
H1847 H 0.82866 0.29416 0.49074 0.0
H1848 H 0.83936 0.28543 0.51007 0.0
H1849 H 0.83805 0.30658 0.50805 0.0
H1850 H 0.86329 0.31899 0.52532 0.0
H1851 H 0.86388 0.31503 0.55916 0.0
H1852 H 0.71585 0.8875 0.55648 0.0
H1853 H 0.71408 0.88784 0.5227 0.0
H1854 H 0.66235 0.88139 0.52593 0.0
H1855 H 0.66398 0.88114 0.55995 0.0
H1856 H 0.7012 0.86219 0.50114 0.0
H1857 H 0.66874 0.91917 0.48906 0.0
H1858 H 0.67906 0.91486 0.51059 0.0
H1859 H 0.66003 0.90555 0.50555 0.0
C1860 C 0.70405 0.88629 0.55006 0.0
C1861 C 0.69004 0.88426 0.56087 0.0
C1862 C 0.70308 0.88649 0.53075 0.0
C1863 C 0.68809 0.88475 0.52188 0.0
C1864 C 0.674 0.88298 0.53257 0.0
H1865 H 0.67197 0.88005 0.40156 0.0
H1866 H 0.66732 0.8804 0.43519 0.0
C1867 C 0.67496 0.88277 0.55197 0.0
C1868 C 0.68756 0.88393 0.50141 0.0
H1869 H 0.67615 0.90439 0.46264 0.0
C1870 C 0.69563 0.87135 0.49271 0.0
C1871 C 0.68016 0.89585 0.49052 0.0
C1872 C 0.67156 0.90971 0.49931 0.0
C1873 C 0.69684 0.87055 0.47336 0.0
C1874 C 0.69003 0.8828 0.46247 0.0
C1875 C 0.68141 0.89508 0.4711 0.0
C1876 C 0.69259 0.88344 0.4422 0.0
C1877 C 0.70553 0.85667 0.4647 0.0
C1878 C 0.70827 0.8854 0.43512 0.0
C1879 C 0.71097 0.88522 0.41602 0.0
C1880 C 0.698 0.88311 0.40365 0.0
C1881 C 0.68221 0.88162 0.41076 0.0
C1882 C 0.67952 0.88184 0.42993 0.0
H1883 H 0.70619 0.8464 0.47435 0.0
H1884 H 0.69942 0.85284 0.45173 0.0
H1885 H 0.71809 0.86026 0.46117 0.0
H1886 H 0.71847 0.88691 0.44442 0.0
H1887 H 0.72326 0.88651 0.41098 0.0
H1888 H 0.60528 0.80115 0.07365 0.0
H1889 H 0.60522 0.81171 0.04187 0.0
H1890 H 0.6184 0.76565 0.02091 0.0
H1891 H 0.61847 0.75498 0.05236 0.0
H1892 H 0.63693 0.79434 0.00678 0.0
H1893 H 0.5696 0.79768 0.00185 0.0
H1894 H 0.57978 0.80589 0.02179 0.0
H1895 H 0.57937 0.78483 0.01849 0.0
C1896 C 0.60823 0.79329 0.06227 0.0
C1897 C 0.61179 0.77719 0.06553 0.0
C1898 C 0.60818 0.79935 0.04417 0.0
C1899 C 0.61177 0.78942 0.02915 0.0
C1900 C 0.61562 0.77348 0.03239 0.0
H1901 H 0.60002 0.7694 0.91909 0.0
H1902 H 0.60026 0.77368 0.95253 0.0
C1903 C 0.61558 0.7674 0.05038 0.0
C1904 C 0.61104 0.79519 0.00983 0.0
H1905 H 0.58438 0.8003 0.97418 0.0
C1906 C 0.62549 0.79611 -0.00032 0.0
C1907 C 0.59606 0.79739 0.00073 0.0
C1908 C 0.58025 0.79639 0.01115 0.0
C1909 C 0.6253 0.79822 0.98036 0.0
C1910 C 0.61027 0.79941 0.97112 0.0
C1911 C 0.59586 0.79947 0.98142 0.0
C1912 C 0.60919 0.79776 0.95078 0.0
C1913 C 0.64106 0.79798 0.96977 0.0
C1914 C 0.61397 0.81001 0.93876 0.0
C1915 C 0.6138 0.80761 0.91952 0.0
C1916 C 0.60897 0.7929 0.91217 0.0
C1917 C 0.6039 0.78083 0.92432 0.0
C1918 C 0.60396 0.78327 0.94342 0.0
H1919 H 0.65169 0.79639 0.97903 0.0
H1920 H 0.64091 0.78822 0.95945 0.0
H1921 H 0.64253 0.80929 0.96205 0.0
H1922 H 0.61801 0.82128 0.94426 0.0
H1923 H 0.61776 0.81712 0.91047 0.0
H1924 H 0.16558 0.60143 0.91063 0.0
H1925 H 0.16447 0.60029 0.94468 0.0
H1926 H 0.21619 0.59356 0.94661 0.0
H1927 H 0.21745 0.59477 0.91284 0.0
H1928 H 0.17566 0.57559 0.96963 0.0
H1929 H 0.20794 0.63262 0.97994 0.0
H1930 H 0.19891 0.62711 0.95805 0.0
H1931 H 0.21827 0.61919 0.96468 0.0
C1932 C 0.17669 0.59968 0.91834 0.0
C1933 C 0.19161 0.59832 0.90908 0.0
C1934 C 0.17603 0.59902 0.93774 0.0
C1935 C 0.19029 0.59711 0.94809 0.0
C1936 C 0.2051 0.59535 0.93885 0.0
H1937 H 0.22399 0.58914 0.05956 0.0
H1938 H 0.21972 0.58936 0.026 0.0
C1939 C 0.20577 0.59599 0.91954 0.0
C1940 C 0.18991 0.59697 0.96859 0.0
H1941 H 0.20571 0.61571 0.00639 0.0
C1942 C 0.18203 0.58445 0.97774 0.0
C1943 C 0.1982 0.6086 0.97904 0.0
C1944 C 0.20618 0.62273 0.96996 0.0
C1945 C 0.18287 0.58286 -0.00287 0.0
C1946 C 0.19167 0.59419 0.00748 0.0
C1947 C 0.1991 0.60697 -0.00165 0.0
C1948 C 0.19382 0.59284 0.02777 0.0
C1949 C 0.1749 0.5688 0.00634 0.0
C1950 C 0.18063 0.59463 0.03983 0.0
C1951 C 0.18303 0.59453 0.05904 0.0
C1952 C 0.19868 0.59271 0.06644 0.0
C1953 C 0.2118 0.59058 0.05429 0.0
C1954 C 0.20939 0.59071 0.03513 0.0
H1955 H 0.17116 0.55965 -0.00388 0.0
H1956 H 0.18321 0.5633 0.01661 0.0
H1957 H 0.16394 0.57284 0.01389 0.0
H1958 H 0.16856 0.59652 0.03439 0.0
H1959 H 0.17269 0.59624 0.06805 0.0
H1960 H 0.37372 0.17708 0.07206 0.0
H1961 H 0.37433 0.1668 0.04016 0.0
H1962 H 0.36378 0.21355 0.01915 0.0
H1963 H 0.36321 0.22393 0.05067 0.0
H1964 H 0.3442 0.18457 0.00472 0.0
H1965 H 0.41156 0.18113 0.00078 0.0
H1966 H 0.40095 0.17357 0.02082 0.0
H1967 H 0.4018 0.19452 0.01677 0.0
C1968 C 0.37147 0.18515 0.06064 0.0
C1969 C 0.3685 0.20135 0.0639 0.0
C1970 C 0.37183 0.17925 0.04248 0.0
C1971 C 0.36912 0.18946 0.02743 0.0
C1972 C 0.36588 0.20552 0.03066 0.0
H1973 H 0.3816 0.2114 0.91803 0.0
H1974 H 0.38105 0.20654 0.95138 0.0
C1975 C 0.36562 0.21143 0.04869 0.0
C1976 C 0.37006 0.18384 0.00809 0.0
H1977 H 0.39712 0.17959 0.97271 0.0
C1978 C 0.35571 0.18298 -0.00227 0.0
C1979 C 0.38514 0.1819 -0.00084 0.0
C1980 C 0.40082 0.18281 0.00984 0.0
C1981 C 0.35612 0.18121 0.97839 0.0
C1982 C 0.37125 0.18033 0.96931 0.0
C1983 C 0.38556 0.18018 0.9798 0.0
C1984 C 0.37251 0.18237 0.94902 0.0
C1985 C 0.34047 0.18151 0.96759 0.0
C1986 C 0.36805 0.17027 0.9367 0.0
C1987 C 0.36839 0.173 0.91752 0.0
C1988 C 0.37309 0.18791 0.91052 0.0
C1989 C 0.37784 0.19983 0.92298 0.0
C1990 C 0.3776 0.19706 0.94203 0.0
H1991 H 0.32973 0.18278 0.97675 0.0
H1992 H 0.34061 0.19151 0.95754 0.0
H1993 H 0.33921 0.17037 0.95954 0.0
H1994 H 0.36412 0.15884 0.94192 0.0
H1995 H 0.36469 0.16359 0.90822 0.0
H1996 H 0.80764 0.38078 0.06858 0.0
H1997 H 0.81222 0.38053 0.03497 0.0
H1998 H 0.76118 0.38768 0.02567 0.0
H1999 H 0.75646 0.38787 0.05914 0.0
H2000 H 0.77567 0.36152 0.00598 0.0
H2001 H 0.80985 0.41803 -0.00285 0.0
H2002 H 0.81681 0.4046 0.01487 0.0
H2003 H 0.79749 0.41405 0.01732 0.0
C2004 C 0.79742 0.38245 0.05937 0.0
C2005 C 0.78168 0.38433 0.0665 0.0
C2006 C 0.80008 0.38237 0.0402 0.0
C2007 C 0.78705 0.38421 0.02791 0.0
C2008 C 0.77138 0.38629 0.03498 0.0
H2009 H 0.76368 0.38416 0.91298 0.0
H2010 H 0.76495 0.38472 0.94678 0.0
C2011 C 0.76872 0.3864 0.0541 0.0
C2012 C 0.78947 0.38315 0.00763 0.0
H2013 H 0.80533 0.4027 0.97027 0.0
C2014 C 0.78222 0.37047 -0.00183 0.0
C2015 C 0.79818 0.39477 -0.00243 0.0
C2016 C 0.80597 0.40872 0.00715 0.0
C2017 C 0.78316 0.36926 0.97882 0.0
C2018 C 0.79131 0.38121 0.96867 0.0
C2019 C 0.79906 0.3936 0.97815 0.0
C2020 C 0.79091 0.38153 0.94816 0.0
C2021 C 0.77535 0.35524 0.96939 0.0
C2022 C 0.80518 0.38006 0.93775 0.0
C2023 C 0.80452 0.37978 0.91834 0.0
C2024 C 0.78956 0.38108 0.90912 0.0
C2025 C 0.77538 0.383 0.91965 0.0
C2026 C 0.77606 0.38326 0.93897 0.0
H2027 H 0.77375 0.34511 0.9791 0.0
H2028 H 0.7632 0.35873 0.96425 0.0
H2029 H 0.78265 0.35122 0.95734 0.0
H2030 H 0.81677 0.37882 0.94465 0.0
H2031 H 0.81565 0.37835 0.91058 0.0
H2032 H 0.62641 0.17422 0.05975 0.0
H2033 H 0.62961 0.17443 0.02586 0.0
H2034 H 0.58855 0.20578 0.02106 0.0
H2035 H 0.58593 0.2063 0.05482 0.0
H2036 H 0.61215 0.16704 -0.00399 0.0
H2037 H 0.62274 0.23178 -0.00353 0.0
H2038 H 0.62162 0.22029 0.01753 0.0
H2039 H 0.60339 0.22702 0.00624 0.0
C2040 C 0.618 0.18101 0.05138 0.0
C2041 C 0.6061 0.19045 0.0598 0.0
C2042 C 0.61983 0.18113 0.03207 0.0
C2043 C 0.60962 0.19052 0.02098 0.0
C2044 C 0.59693 0.19892 0.02938 0.0
H2045 H 0.59763 0.18944 0.90154 0.0
H2046 H 0.59736 0.1827 0.93461 0.0
C2047 C 0.59537 0.19913 0.04863 0.0
C2048 C 0.61266 0.19225 0.0008 0.0
H2049 H 0.61733 0.22017 0.96699 0.0
C2050 C 0.61345 0.17864 -0.01036 0.0
C2051 C 0.61483 0.20736 -0.00744 0.0
C2052 C 0.61579 0.22241 0.00386 0.0
C2053 C 0.61581 0.17977 0.97035 0.0
C2054 C 0.61681 0.19496 0.96198 0.0
C2055 C 0.61643 0.20851 0.97328 0.0
C2056 C 0.61806 0.19736 0.94159 0.0
C2057 C 0.61748 0.16468 0.9593 0.0
C2058 C 0.6296 0.20801 0.93444 0.0
C2059 C 0.62933 0.21233 0.91575 0.0
C2060 C 0.61778 0.20577 0.90373 0.0
C2061 C 0.60676 0.1945 0.91056 0.0
C2062 C 0.60671 0.19054 0.92943 0.0
H2063 H 0.62228 0.15488 0.96803 0.0
H2064 H 0.60537 0.16099 0.95422 0.0
H2065 H 0.62562 0.1663 0.94719 0.0
H2066 H 0.63852 0.21342 0.94347 0.0
H2067 H 0.638 0.22099 0.91074 0.0
H2068 H 0.81488 0.59635 0.06235 0.0
H2069 H 0.81798 0.59282 0.02874 0.0
H2070 H 0.7664 0.58632 0.02337 0.0
H2071 H 0.76319 0.58965 0.05679 0.0
H2072 H 0.78572 0.56405 0.00307 0.0
H2073 H 0.80374 0.62688 -0.00949 0.0
H2074 H 0.81532 0.61596 0.00737 0.0
H2075 H 0.79448 0.6205 0.01196 0.0
C2076 C 0.80422 0.59409 0.054 0.0
C2077 C 0.78877 0.59339 0.06218 0.0
C2078 C 0.80601 0.59214 0.03483 0.0
C2079 C 0.79239 0.58949 0.02362 0.0
C2080 C 0.77705 0.58838 0.03182 0.0
H2081 H 0.7586 0.58473 0.91299 0.0
H2082 H 0.76383 0.58219 0.9462 0.0
C2083 C 0.77524 0.59034 0.05091 0.0
C2084 C 0.79384 0.58833 0.00323 0.0
H2085 H 0.80065 0.61057 0.96441 0.0
C2086 C 0.78917 0.57415 -0.00541 0.0
C2087 C 0.79841 0.60152 -0.00773 0.0
C2088 C 0.80319 0.61714 0.0009 0.0
C2089 C 0.7885 0.57294 0.97519 0.0
C2090 C 0.79233 0.58636 0.96425 0.0
C2091 C 0.7977 0.60031 0.97288 0.0
C2092 C 0.78957 0.58665 0.94398 0.0
C2093 C 0.78351 0.55737 0.96661 0.0
C2094 C 0.80228 0.59023 0.93175 0.0
C2095 C 0.7993 0.5918 0.91274 0.0
C2096 C 0.78353 0.58997 0.90571 0.0
C2097 C 0.77088 0.58617 0.91798 0.0
C2098 C 0.77387 0.58459 0.93694 0.0
H2099 H 0.78602 0.54726 0.97608 0.0
H2100 H 0.7703 0.55757 0.96385 0.0
H2101 H 0.7899 0.55532 0.95327 0.0
H2102 H 0.81445 0.592 0.93696 0.0
H2103 H 0.80929 0.59476 0.90363 0.0
H2104 H 0.37618 0.7974 0.89726 0.0
H2105 H 0.37639 0.80742 0.92923 0.0
H2106 H 0.36318 0.76101 0.94939 0.0
H2107 H 0.36295 0.75088 0.91772 0.0
H2108 H 0.34492 0.78923 0.96442 0.0
H2109 H 0.41228 0.79287 0.96848 0.0
H2110 H 0.40198 0.80154 0.94889 0.0
H2111 H 0.4023 0.78041 0.95163 0.0
C2112 C 0.37324 0.78935 0.9085 0.0
C2113 C 0.36965 0.77331 0.90495 0.0
C2114 C 0.37339 0.7951 0.92672 0.0
C2115 C 0.36986 0.78491 0.94157 0.0
C2116 C 0.36592 0.76904 0.93805 0.0
H2117 H 0.38322 0.76615 0.05278 0.0
H2118 H 0.38264 0.76956 0.01917 0.0
C2119 C 0.36586 0.76327 0.91994 0.0
C2120 C 0.37077 0.79036 0.961 0.0
H2121 H 0.39776 0.79574 -0.00372 0.0
C2122 C 0.35642 0.79108 0.97136 0.0
C2123 C 0.38584 0.79264 0.9699 0.0
C2124 C 0.40155 0.79181 0.95928 0.0
C2125 C 0.3568 0.79319 -0.00934 0.0
C2126 C 0.37191 0.79461 -0.0003 0.0
C2127 C 0.38621 0.79474 -0.01079 0.0
C2128 C 0.37319 0.79346 0.02008 0.0
C2129 C 0.34115 0.79283 0.00146 0.0
C2130 C 0.36826 0.8059 0.03167 0.0
C2131 C 0.36862 0.804 0.05099 0.0
C2132 C 0.37382 0.7896 0.05887 0.0
C2133 C 0.37907 0.77735 0.04714 0.0
C2134 C 0.37881 0.77929 0.02794 0.0
H2135 H 0.33048 0.79073 -0.0076 0.0
H2136 H 0.34162 0.78336 0.01217 0.0
H2137 H 0.33948 0.8043 0.00873 0.0
H2138 H 0.36394 0.81694 0.02578 0.0
H2139 H 0.36452 0.81365 0.0597 0.0
H2140 H 0.17041 0.38225 0.90414 0.0
H2141 H 0.16583 0.38549 0.9375 0.0
H2142 H 0.21655 0.39566 0.94533 0.0
H2143 H 0.22121 0.39264 0.91205 0.0
H2144 H 0.18013 0.36758 0.9653 0.0
H2145 H 0.19465 0.43122 0.97438 0.0
H2146 H 0.19048 0.42259 0.95195 0.0
H2147 H 0.21022 0.4206 0.96227 0.0
C2148 C 0.18055 0.38536 0.91294 0.0
C2149 C 0.19617 0.3872 0.90549 0.0
C2150 C 0.1779 0.38721 0.93197 0.0
C2151 C 0.1908 0.39105 0.94381 0.0
C2152 C 0.20637 0.39306 0.93637 0.0
H2153 H 0.21721 0.39135 0.05706 0.0
H2154 H 0.21422 0.39375 0.02347 0.0
C2155 C 0.20903 0.3912 0.91737 0.0
C2156 C 0.18833 0.39181 0.96412 0.0
H2157 H 0.19496 0.41518 0.00198 0.0
C2158 C 0.18308 0.37806 0.97334 0.0
C2159 C 0.19217 0.40552 0.97449 0.0
C2160 C 0.19704 0.42087 0.96525 0.0
C2161 C 0.18244 0.37737 -0.00723 0.0
C2162 C 0.18694 0.39088 0.00317 0.0
C2163 C 0.19156 0.40483 -0.00607 0.0
C2164 C 0.18826 0.39033 0.02361 0.0
C2165 C 0.17777 0.36197 0.00205 0.0
C2166 C 0.17458 0.38789 0.0348 0.0
C2167 C 0.17625 0.38648 0.05406 0.0
C2168 C 0.19162 0.38752 0.06235 0.0
C2169 C 0.20521 0.39041 0.05109 0.0
C2170 C 0.20353 0.39183 0.03191 0.0
H2171 H 0.1774 0.35192 -0.00791 0.0
H2172 H 0.18641 0.35902 0.01334 0.0
H2173 H 0.16557 0.36321 0.00832 0.0
H2174 H 0.16266 0.38693 0.02864 0.0
H2175 H 0.16555 0.38434 0.06239 0.0
H2176 H 0.17289 0.37447 0.17707 0.0
H2177 H 0.16087 0.36822 0.20707 0.0
H2178 H 0.12476 0.33929 0.18015 0.0
H2179 H 0.13699 0.34516 0.14994 0.0
H2180 H 0.13038 0.37176 0.22254 0.0
H2181 H 0.14691 0.30809 0.21509 0.0
H2182 H 0.15441 0.32318 0.19953 0.0
H2183 H 0.13405 0.3159 0.19719 0.0
C2184 C 0.1623 0.36688 0.17744 0.0
C2185 C 0.15605 0.3601 0.16111 0.0
C2186 C 0.15541 0.36337 0.19463 0.0
C2187 C 0.14213 0.35306 0.19584 0.0
C2188 C 0.13524 0.34701 0.17952 0.0
H2189 H 0.10549 0.30818 0.29671 0.0
H2190 H 0.10677 0.31872 0.26515 0.0
C2191 C 0.1422 0.35043 0.16227 0.0
C2192 C 0.13635 0.34792 0.21433 0.0
H2193 H 0.13455 0.3157 0.24297 0.0
C2194 C 0.13113 0.35948 0.22698 0.0
C2195 C 0.13741 0.33189 0.22007 0.0
C2196 C 0.14362 0.31904 0.20736 0.0
C2197 C 0.12721 0.35548 0.24535 0.0
C2198 C 0.12872 0.33954 0.25118 0.0
C2199 C 0.13338 0.32791 0.23838 0.0
C2200 C 0.12664 0.33473 0.27076 0.0
C2201 C 0.12164 0.36832 0.25842 0.0
C2202 C 0.13735 0.34034 0.28437 0.0
C2203 C 0.13673 0.33429 0.30242 0.0
C2204 C 0.12542 0.32247 0.30713 0.0
C2205 C 0.11438 0.31725 0.29356 0.0
C2206 C 0.11505 0.32327 0.27552 0.0
H2207 H 0.11685 0.37875 0.25076 0.0
H2208 H 0.11213 0.36382 0.26797 0.0
H2209 H 0.13207 0.37234 0.26692 0.0
H2210 H 0.14659 0.34896 0.28086 0.0
H2211 H 0.1454 0.33857 0.31252 0.0
H2212 H 0.6521 0.14834 0.15442 0.0
H2213 H 0.65603 0.13639 0.18505 0.0
H2214 H 0.6108 0.15635 0.20356 0.0
H2215 H 0.6067 0.1683 0.17303 0.0
H2216 H 0.65769 0.1553 0.21787 0.0
H2217 H 0.60921 0.10964 0.22215 0.0
H2218 H 0.61638 0.11761 0.20034 0.0
H2219 H 0.60278 0.12895 0.2145 0.0
C2220 C 0.64285 0.14997 0.16489 0.0
C2221 C 0.62913 0.15935 0.1613 0.0
C2222 C 0.64512 0.14313 0.18237 0.0
C2223 C 0.63363 0.14538 0.19646 0.0
C2224 C 0.61967 0.15426 0.19276 0.0
H2225 H 0.64502 0.14051 0.31556 0.0
H2226 H 0.6354 0.1463 0.28411 0.0
C2227 C 0.61742 0.16118 0.17533 0.0
C2228 C 0.63703 0.13983 0.21552 0.0
H2229 H 0.62333 0.11554 0.25013 0.0
C2230 C 0.65023 0.14655 0.22489 0.0
C2231 C 0.62722 0.12845 0.22459 0.0
C2232 C 0.61317 0.12061 0.21488 0.0
C2233 C 0.65379 0.14232 0.24324 0.0
C2234 C 0.64388 0.13112 0.25238 0.0
C2235 C 0.63077 0.12424 0.24302 0.0
C2236 C 0.64744 0.12624 0.27159 0.0
C2237 C 0.66812 0.14981 0.25282 0.0
C2238 C 0.65702 0.11284 0.27484 0.0
C2239 C 0.66262 0.10955 0.29271 0.0
C2240 C 0.65868 0.11961 0.3076 0.0
C2241 C 0.64829 0.13254 0.30441 0.0
C2242 C 0.64277 0.13586 0.28649 0.0
H2243 H 0.67521 0.15761 0.24338 0.0
H2244 H 0.66384 0.157 0.26475 0.0
H2245 H 0.67624 0.14046 0.25839 0.0
H2246 H 0.66076 0.10535 0.26342 0.0
H2247 H 0.67052 0.09944 0.29471 0.0
H2248 H 0.80691 0.60716 0.17708 0.0
H2249 H 0.81889 0.61358 0.20704 0.0
H2250 H 0.85481 0.64263 0.17987 0.0
H2251 H 0.84265 0.63657 0.14972 0.0
H2252 H 0.84956 0.61027 0.22245 0.0
H2253 H 0.83238 0.67375 0.21466 0.0
H2254 H 0.82494 0.65855 0.19929 0.0
H2255 H 0.84519 0.66605 0.19668 0.0
C2256 C 0.81745 0.61481 0.1774 0.0
C2257 C 0.82367 0.62156 0.16101 0.0
C2258 C 0.82431 0.61842 0.19456 0.0
C2259 C 0.83753 0.62881 0.19568 0.0
C2260 C 0.84439 0.63485 0.1793 0.0
H2261 H 0.87576 0.67437 0.29501 0.0
H2262 H 0.87362 0.66369 0.26362 0.0
C2263 C 0.83746 0.63132 0.16209 0.0
C2264 C 0.84333 0.63404 0.2141 0.0
H2265 H 0.84532 0.66641 0.24236 0.0
C2266 C 0.84878 0.62256 0.22678 0.0
C2267 C 0.84221 0.65008 0.2197 0.0
C2268 C 0.83574 0.66283 0.20697 0.0
C2269 C 0.85296 0.62668 0.24503 0.0
C2270 C 0.85146 0.64264 0.2507 0.0
C2271 C 0.84649 0.65418 0.23789 0.0
C2272 C 0.85402 0.64761 0.27014 0.0
C2273 C 0.85883 0.61395 0.2581 0.0
C2274 C 0.84373 0.642 0.2842 0.0
C2275 C 0.84485 0.64812 0.30216 0.0
C2276 C 0.85624 0.66001 0.30633 0.0
C2277 C 0.86683 0.66525 0.29229 0.0
C2278 C 0.86567 0.65915 0.27435 0.0
H2279 H 0.86351 0.60347 0.25046 0.0
H2280 H 0.86853 0.61853 0.26733 0.0
H2281 H 0.8486 0.60995 0.26693 0.0
H2282 H 0.83444 0.63332 0.28113 0.0
H2283 H 0.83651 0.64383 0.31263 0.0
H2284 H 0.33128 0.8319 0.15617 0.0
H2285 H 0.32831 0.84328 0.18718 0.0
H2286 H 0.37213 0.81991 0.20472 0.0
H2287 H 0.37527 0.8085 0.17378 0.0
H2288 H 0.32565 0.82352 0.21956 0.0
H2289 H 0.37686 0.86619 0.22446 0.0
H2290 H 0.36895 0.85929 0.20252 0.0
H2291 H 0.38186 0.84671 0.21611 0.0
C2292 C 0.34044 0.82938 0.16652 0.0
C2293 C 0.35347 0.81922 0.16252 0.0
C2294 C 0.33872 0.83589 0.18421 0.0
C2295 C 0.35008 0.83253 0.19813 0.0
C2296 C 0.36338 0.82284 0.19406 0.0
H2297 H 0.3396 0.83737 0.31754 0.0
H2298 H 0.3492 0.83146 0.28614 0.0
C2299 C 0.36508 0.81625 0.1764 0.0
C2300 C 0.34715 0.83786 0.21736 0.0
H2301 H 0.36219 0.86101 0.25222 0.0
C2302 C 0.33359 0.83176 0.22668 0.0
C2303 C 0.3576 0.84856 0.22656 0.0
C2304 C 0.37209 0.8557 0.21691 0.0
C2305 C 0.33027 0.83598 0.24506 0.0
C2306 C 0.34076 0.84658 0.2543 0.0
C2307 C 0.35428 0.85279 0.24503 0.0
C2308 C 0.33734 0.85158 0.27348 0.0
C2309 C 0.31556 0.82916 0.2546 0.0
C2310 C 0.32788 0.86507 0.27664 0.0
C2311 C 0.32229 0.86844 0.29448 0.0
C2312 C 0.32612 0.85837 0.30944 0.0
C2313 C 0.33643 0.84536 0.30634 0.0
C2314 C 0.34194 0.84196 0.28844 0.0
H2315 H 0.30833 0.82143 0.24526 0.0
H2316 H 0.3194 0.82208 0.26683 0.0
H2317 H 0.30771 0.8389 0.2597 0.0
H2318 H 0.32419 0.87256 0.26516 0.0
H2319 H 0.31446 0.87861 0.2964 0.0
H2320 H 0.16699 0.60203 0.79501 0.0
H2321 H 0.15692 0.60797 0.76394 0.0
H2322 H 0.13043 0.64796 0.78536 0.0
H2323 H 0.14043 0.64214 0.81666 0.0
H2324 H 0.11433 0.62707 0.75539 0.0
H2325 H 0.176 0.65006 0.73935 0.0
H2326 H 0.1749 0.63062 0.74961 0.0
H2327 H 0.16876 0.64761 0.76282 0.0
C2328 C 0.15879 0.61194 0.79324 0.0
C2329 C 0.1547 0.62176 0.80829 0.0
C2330 C 0.15305 0.61528 0.77546 0.0
C2331 C 0.14313 0.62849 0.77242 0.0
C2332 C 0.13811 0.63772 0.78752 0.0
H2333 H 0.10773 0.67765 0.67524 0.0
H2334 H 0.11103 0.66625 0.70615 0.0
C2335 C 0.14385 0.63438 0.80537 0.0
C2336 C 0.13946 0.63357 0.75328 0.0
H2337 H 0.15718 0.64966 0.71489 0.0
C2338 C 0.12364 0.63201 0.74647 0.0
C2339 C 0.1517 0.64 0.7418 0.0
C2340 C 0.16879 0.64231 0.74872 0.0
C2341 C 0.11978 0.63654 0.72822 0.0
C2342 C 0.13203 0.64305 0.71676 0.0
C2343 C 0.14784 0.64458 0.72366 0.0
C2344 C 0.12879 0.64884 0.69772 0.0
C2345 C 0.10274 0.63406 0.72129 0.0
C2346 C 0.13782 0.64296 0.68274 0.0
C2347 C 0.13614 0.6496 0.66508 0.0
C2348 C 0.12541 0.66228 0.66208 0.0
C2349 C 0.11607 0.66786 0.67704 0.0
C2350 C 0.11783 0.66127 0.69471 0.0
H2351 H 0.09627 0.62489 0.72955 0.0
H2352 H 0.09592 0.64533 0.72257 0.0
H2353 H 0.10267 0.63046 0.70647 0.0
H2354 H 0.14643 0.63343 0.68481 0.0
H2355 H 0.14348 0.64499 0.65387 0.0
H2356 H 0.31159 0.10515 0.67576 0.0
H2357 H 0.32341 0.11264 0.70544 0.0
H2358 H 0.35614 0.14464 0.67751 0.0
H2359 H 0.34406 0.13752 0.64761 0.0
H2360 H 0.3541 0.11209 0.72053 0.0
H2361 H 0.33165 0.17393 0.71239 0.0
H2362 H 0.32546 0.15812 0.69714 0.0
H2363 H 0.34501 0.16722 0.6944 0.0
C2364 C 0.32142 0.11367 0.67583 0.0
C2365 C 0.32671 0.12093 0.65932 0.0
C2366 C 0.32819 0.1179 0.69284 0.0
C2367 C 0.34041 0.12942 0.6937 0.0
C2368 C 0.34645 0.13598 0.67716 0.0
H2369 H 0.37542 0.17788 0.79287 0.0
H2370 H 0.37399 0.16708 0.76147 0.0
C2371 C 0.33959 0.13183 0.6601 0.0
C2372 C 0.34589 0.13523 0.71202 0.0
H2373 H 0.34523 0.16779 0.74008 0.0
C2374 C 0.35231 0.1243 0.72477 0.0
C2375 C 0.34345 0.15116 0.71752 0.0
C2376 C 0.3359 0.16329 0.70475 0.0
C2377 C 0.35611 0.12882 0.74299 0.0
C2378 C 0.3533 0.14463 0.74857 0.0
C2379 C 0.34739 0.15568 0.73568 0.0
C2380 C 0.35542 0.14986 0.76798 0.0
C2381 C 0.36299 0.11666 0.75618 0.0
C2382 C 0.34546 0.14368 0.78202 0.0
C2383 C 0.34616 0.14987 0.79998 0.0
C2384 C 0.35681 0.16239 0.80416 0.0
C2385 C 0.36707 0.16825 0.79013 0.0
C2386 C 0.36631 0.16209 0.77219 0.0
H2387 H 0.36836 0.10646 0.74863 0.0
H2388 H 0.37238 0.12202 0.76524 0.0
H2389 H 0.35313 0.11206 0.76517 0.0
H2390 H 0.33675 0.13443 0.77894 0.0
H2391 H 0.33809 0.1451 0.81044 0.0
H2392 H 0.83771 0.33499 0.65769 0.0
H2393 H 0.83658 0.34588 0.68909 0.0
H2394 H 0.87519 0.31466 0.70602 0.0
H2395 H 0.87639 0.30362 0.67473 0.0
H2396 H 0.84704 0.31284 0.72789 0.0
H2397 H 0.86713 0.37518 0.71886 0.0
H2398 H 0.85182 0.36894 0.70272 0.0
H2399 H 0.87148 0.35986 0.70208 0.0
C2400 C 0.84614 0.3306 0.668 0.0
C2401 C 0.85707 0.31837 0.66371 0.0
C2402 C 0.84556 0.33692 0.6859 0.0
C2403 C 0.85594 0.33119 0.69978 0.0
C2404 C 0.86716 0.31931 0.69543 0.0
H2405 H 0.84635 0.34253 0.82032 0.0
H2406 H 0.85823 0.33643 0.79003 0.0
C2407 C 0.86779 0.31301 0.67755 0.0
C2408 C 0.85386 0.33635 0.71923 0.0
H2409 H 0.85357 0.36891 0.74728 0.0
C2410 C 0.84871 0.32504 0.73224 0.0
C2411 C 0.85599 0.35229 0.72475 0.0
C2412 C 0.86205 0.36476 0.71143 0.0
C2413 C 0.84487 0.32937 0.75049 0.0
C2414 C 0.84666 0.34539 0.75595 0.0
C2415 C 0.85229 0.35663 0.74306 0.0
C2416 C 0.84135 0.35088 0.77448 0.0
C2417 C 0.83814 0.31689 0.76342 0.0
C2418 C 0.82854 0.36171 0.77581 0.0
C2419 C 0.82187 0.36537 0.79306 0.0
C2420 C 0.82784 0.3582 0.80932 0.0
C2421 C 0.84134 0.3481 0.80805 0.0
C2422 C 0.8481 0.34454 0.79075 0.0
H2423 H 0.83421 0.30608 0.75585 0.0
H2424 H 0.84763 0.31334 0.77349 0.0
H2425 H 0.82765 0.32156 0.77134 0.0
H2426 H 0.82322 0.3668 0.76341 0.0
H2427 H 0.81156 0.37329 0.79352 0.0
H2428 H 0.63486 0.84461 0.6506 0.0
H2429 H 0.62326 0.83888 0.68113 0.0
H2430 H 0.65705 0.87139 0.70634 0.0
H2431 H 0.66843 0.87746 0.676 0.0
H2432 H 0.6406 0.82519 0.70829 0.0
H2433 H 0.61628 0.88202 0.7343 0.0
H2434 H 0.62103 0.87886 0.71012 0.0
H2435 H 0.63675 0.88404 0.72635 0.0
C2436 C 0.63955 0.85083 0.66258 0.0
C2437 C 0.65265 0.8614 0.66087 0.0
C2438 C 0.6329 0.84755 0.68001 0.0
C2439 C 0.63917 0.85484 0.69598 0.0
C2440 C 0.65175 0.86592 0.69418 0.0
H2441 H 0.64679 0.8352 0.81187 0.0
H2442 H 0.64779 0.84622 0.78043 0.0
C2443 C 0.65835 0.86925 0.6768 0.0
C2444 C 0.63419 0.84934 0.71466 0.0
H2445 H 0.62257 0.86225 0.75754 0.0
C2446 C 0.63635 0.83324 0.71896 0.0
C2447 C 0.62876 0.85988 0.72858 0.0
C2448 C 0.62542 0.87713 0.72455 0.0
C2449 C 0.63391 0.82752 0.737 0.0
C2450 C 0.62901 0.83816 0.75105 0.0
C2451 C 0.62641 0.85417 0.7467 0.0
C2452 C 0.62721 0.83284 0.77047 0.0
C2453 C 0.63725 0.81025 0.74109 0.0
C2454 C 0.61505 0.822 0.77529 0.0
C2455 C 0.61446 0.81564 0.79317 0.0
C2456 C 0.62602 0.82007 0.80656 0.0
C2457 C 0.63777 0.83148 0.80187 0.0
C2458 C 0.63833 0.83783 0.78395 0.0
H2459 H 0.64377 0.80434 0.72953 0.0
H2460 H 0.64455 0.80901 0.75395 0.0
H2461 H 0.62561 0.80395 0.74328 0.0
H2462 H 0.60626 0.81816 0.76507 0.0
H2463 H 0.60515 0.80699 0.79634 0.0
H2464 H 0.8436 0.65936 0.66045 0.0
H2465 H 0.83672 0.64464 0.68876 0.0
H2466 H 0.8717 0.67204 0.71948 0.0
H2467 H 0.87848 0.68694 0.69144 0.0
H2468 H 0.85521 0.62709 0.71702 0.0
H2469 H 0.82697 0.68264 0.74288 0.0
H2470 H 0.83259 0.67991 0.7189 0.0
H2471 H 0.84776 0.68458 0.73592 0.0
C2472 C 0.85005 0.66202 0.67316 0.0
C2473 C 0.86138 0.67447 0.67383 0.0
C2474 C 0.84612 0.65359 0.68928 0.0
C2475 C 0.85351 0.65749 0.7062 0.0
C2476 C 0.86571 0.66906 0.70658 0.0
H2477 H 0.83206 0.63853 0.82119 0.0
H2478 H 0.84506 0.6459 0.792 0.0
C2479 C 0.86956 0.67754 0.69055 0.0
C2480 C 0.84737 0.65073 0.72375 0.0
H2481 H 0.82805 0.66109 0.76374 0.0
C2482 C 0.84926 0.63446 0.72727 0.0
C2483 C 0.8395 0.66042 0.73695 0.0
C2484 C 0.83642 0.67783 0.73347 0.0
C2485 C 0.84378 0.62769 0.74397 0.0
C2486 C 0.83608 0.63746 0.75723 0.0
C2487 C 0.83411 0.65368 0.75359 0.0
C2488 C 0.82959 0.63123 0.77492 0.0
C2489 C 0.84649 0.61025 0.74744 0.0
C2490 C 0.81669 0.62041 0.77496 0.0
C2491 C 0.8092 0.61617 0.79163 0.0
C2492 C 0.81441 0.62279 0.80852 0.0
C2493 C 0.82769 0.63325 0.80845 0.0
C2494 C 0.83517 0.63745 0.79179 0.0
H2495 H 0.85599 0.60534 0.73817 0.0
H2496 H 0.85005 0.60808 0.76209 0.0
H2497 H 0.83507 0.60371 0.74476 0.0
H2498 H 0.812 0.61573 0.76204 0.0
H2499 H 0.799 0.60809 0.79119 0.0
H2500 H 0.35383 0.82338 0.81609 0.0
H2501 H 0.34615 0.84136 0.7908 0.0
H2502 H 0.36914 0.8103 0.75131 0.0
H2503 H 0.37707 0.79248 0.77638 0.0
H2504 H 0.37345 0.84308 0.74347 0.0
H2505 H 0.30897 0.82704 0.75671 0.0
H2506 H 0.31998 0.83554 0.77576 0.0
H2507 H 0.32552 0.81632 0.76715 0.0
C2508 C 0.3575 0.82055 0.80205 0.0
C2509 C 0.36584 0.8064 0.79817 0.0
C2510 C 0.35306 0.83079 0.78764 0.0
C2511 C 0.35683 0.82697 0.76919 0.0
C2512 C 0.36607 0.81342 0.76546 0.0
H2513 H 0.33285 0.8406 0.65704 0.0
H2514 H 0.3459 0.83611 0.68695 0.0
C2515 C 0.37054 0.80321 0.77981 0.0
C2516 C 0.34995 0.83607 0.75351 0.0
H2517 H 0.3145 0.84226 0.73034 0.0
C2518 C 0.36054 0.84314 0.74071 0.0
C2519 C 0.33309 0.83612 0.75 0.0
C2520 C 0.32118 0.82828 0.76301 0.0
C2521 C 0.35476 0.8498 0.72413 0.0
C2522 C 0.33801 0.84908 0.72018 0.0
C2523 C 0.32734 0.84277 0.73343 0.0
C2524 C 0.33137 0.8533 0.70176 0.0
C2525 C 0.36666 0.85726 0.71084 0.0
C2526 C 0.31875 0.86432 0.7002 0.0
C2527 C 0.31113 0.86681 0.68313 0.0
C2528 C 0.31593 0.8582 0.66735 0.0
C2529 C 0.32886 0.84744 0.66889 0.0
C2530 C 0.33645 0.84497 0.68595 0.0
H2531 H 0.37761 0.86159 0.71822 0.0
H2532 H 0.37061 0.84823 0.70061 0.0
H2533 H 0.36111 0.86731 0.70318 0.0
H2534 H 0.31456 0.87075 0.71228 0.0
H2535 H 0.30124 0.87521 0.68243 0.0
H2536 H 0.13373 0.31898 0.66237 0.0
H2537 H 0.13974 0.33318 0.69118 0.0
H2538 H 0.10501 0.3042 0.72038 0.0
H2539 H 0.09912 0.28977 0.69177 0.0
H2540 H 0.12081 0.34975 0.71902 0.0
H2541 H 0.1491 0.29416 0.745 0.0
H2542 H 0.14377 0.29701 0.72095 0.0
H2543 H 0.12841 0.29221 0.73771 0.0
C2544 C 0.12715 0.31583 0.67484 0.0
C2545 C 0.11615 0.30309 0.6749 0.0
C2546 C 0.13058 0.32398 0.69127 0.0
C2547 C 0.12303 0.31951 0.7079 0.0
C2548 C 0.11115 0.30762 0.7077 0.0
H2549 H 0.1462 0.33824 0.82292 0.0
H2550 H 0.13234 0.33077 0.79431 0.0
C2551 C 0.10779 0.29941 0.69134 0.0
C2552 C 0.12873 0.32611 0.72572 0.0
H2553 H 0.14819 0.31571 0.76566 0.0
C2554 C 0.12676 0.34235 0.72928 0.0
C2555 C 0.13659 0.31638 0.73895 0.0
C2556 C 0.13975 0.299 0.73547 0.0
C2557 C 0.13228 0.3491 0.74594 0.0
C2558 C 0.14013 0.33935 0.75914 0.0
C2559 C 0.14203 0.32312 0.75556 0.0
C2560 C 0.14706 0.34565 0.77656 0.0
C2561 C 0.12952 0.36653 0.74937 0.0
C2562 C 0.15983 0.35662 0.77605 0.0
C2563 C 0.1678 0.36093 0.79238 0.0
C2564 C 0.16323 0.35421 0.80949 0.0
C2565 C 0.15008 0.3436 0.80999 0.0
C2566 C 0.14211 0.33934 0.79366 0.0
H2567 H 0.11964 0.37129 0.7405 0.0
H2568 H 0.12646 0.36876 0.76415 0.0
H2569 H 0.14076 0.37316 0.74604 0.0
H2570 H 0.16406 0.36137 0.76294 0.0
H2571 H 0.17788 0.36912 0.7915 0.0
H2572 H 0.67915 0.10198 0.68082 0.0
H2573 H 0.66613 0.10554 0.71099 0.0
H2574 H 0.63412 0.14045 0.68717 0.0
H2575 H 0.64688 0.13686 0.65695 0.0
H2576 H 0.66647 0.13366 0.72954 0.0
H2577 H 0.60316 0.11445 0.71892 0.0
H2578 H 0.61932 0.10899 0.7033 0.0
H2579 H 0.60971 0.12807 0.7013 0.0
C2580 C 0.66915 0.11022 0.68191 0.0
C2581 C 0.66411 0.11921 0.66648 0.0
C2582 C 0.6617 0.1122 0.69916 0.0
C2583 C 0.64901 0.12307 0.70125 0.0
C2584 C 0.64363 0.1317 0.68577 0.0
H2585 H 0.60512 0.18372 0.77647 0.0
H2586 H 0.61228 0.16554 0.75154 0.0
C2587 C 0.65105 0.12974 0.66852 0.0
C2588 C 0.64275 0.12697 0.71993 0.0
H2589 H 0.60778 0.13288 0.74415 0.0
C2590 C 0.65369 0.13313 0.73296 0.0
C2591 C 0.62609 0.12624 0.72431 0.0
C2592 C 0.61392 0.11892 0.71127 0.0
C2593 C 0.64828 0.13969 0.7497 0.0
C2594 C 0.63149 0.13979 0.75363 0.0
C2595 C 0.62064 0.13278 0.74108 0.0
C2596 C 0.62493 0.149 0.76936 0.0
C2597 C 0.66047 0.14745 0.76241 0.0
C2598 C 0.62911 0.14537 0.78776 0.0
C2599 C 0.62513 0.15584 0.80209 0.0
C2600 C 0.61683 0.17001 0.79817 0.0
C2601 C 0.61165 0.17298 0.77992 0.0
C2602 C 0.61567 0.16256 0.76565 0.0
H2603 H 0.67257 0.14863 0.75582 0.0
H2604 H 0.65628 0.15943 0.76661 0.0
H2605 H 0.66185 0.14017 0.77515 0.0
H2606 H 0.63603 0.1348 0.79092 0.0
H2607 H 0.62916 0.15317 0.81605 0.0
H2608 H 0.82907 0.34098 0.15702 0.0
H2609 H 0.84205 0.33635 0.18698 0.0
H2610 H 0.81381 0.37395 0.21125 0.0
H2611 H 0.80052 0.37855 0.18138 0.0
H2612 H 0.85975 0.35632 0.21166 0.0
H2613 H 0.80181 0.33465 0.24223 0.0
H2614 H 0.80441 0.33742 0.21758 0.0
H2615 H 0.80157 0.35426 0.23244 0.0
C2616 C 0.82569 0.34837 0.16867 0.0
C2617 C 0.81359 0.35999 0.16686 0.0
C2618 C 0.83317 0.34574 0.18576 0.0
C2619 C 0.82871 0.35466 0.20134 0.0
C2620 C 0.81721 0.36678 0.19943 0.0
H2621 H 0.85121 0.32471 0.31483 0.0
H2622 H 0.84379 0.34276 0.28954 0.0
C2623 C 0.80966 0.36939 0.18234 0.0
C2624 C 0.83537 0.35043 0.21974 0.0
H2625 H 0.825 0.33283 0.2607 0.0
C2626 C 0.85216 0.35138 0.22252 0.0
C2627 C 0.82539 0.34409 0.23388 0.0
C2628 C 0.80731 0.3424 0.23145 0.0
C2629 C 0.85931 0.34561 0.23885 0.0
C2630 C 0.84941 0.3385 0.25255 0.0
C2631 C 0.83255 0.33833 0.25018 0.0
C2632 C 0.85624 0.32941 0.26828 0.0
C2633 C 0.87741 0.34691 0.24112 0.0
C2634 C 0.8659 0.31608 0.26473 0.0
C2635 C 0.87011 0.30577 0.27908 0.0
C2636 C 0.86464 0.30852 0.29725 0.0
C2637 C 0.85561 0.32228 0.30097 0.0
C2638 C 0.85137 0.3326 0.28656 0.0
H2639 H 0.88232 0.35716 0.2332 0.0
H2640 H 0.88084 0.34822 0.25594 0.0
H2641 H 0.88319 0.33601 0.23564 0.0
H2642 H 0.86947 0.31317 0.25068 0.0
H2643 H 0.87708 0.29527 0.27577 0.0
H2644 H 0.6028 0.79551 0.19367 0.0
H2645 H 0.6101 0.81323 0.21899 0.0
H2646 H 0.63546 0.84367 0.18055 0.0
H2647 H 0.62833 0.82581 0.15503 0.0
H2648 H 0.65437 0.83332 0.20916 0.0
H2649 H 0.59704 0.8569 0.23727 0.0
H2650 H 0.59623 0.83579 0.23438 0.0
H2651 H 0.59852 0.84839 0.21433 0.0
C2652 C 0.60961 0.80616 0.1905 0.0
C2653 C 0.61511 0.8092 0.17239 0.0
C2654 C 0.61364 0.81638 0.20498 0.0
C2655 C 0.62315 0.82987 0.20161 0.0
C2656 C 0.62799 0.83338 0.18339 0.0
H2657 H 0.67908 0.87741 0.28937 0.0
H2658 H 0.66575 0.87337 0.25943 0.0
C2659 C 0.62392 0.82316 0.16885 0.0
C2660 C 0.62997 0.83876 0.21748 0.0
H2661 H 0.61965 0.85576 0.25875 0.0
C2662 C 0.64683 0.8386 0.21981 0.0
C2663 C 0.62008 0.84557 0.23134 0.0
C2664 C 0.60197 0.84682 0.22912 0.0
C2665 C 0.65401 0.84405 0.23623 0.0
C2666 C 0.64404 0.85009 0.25052 0.0
C2667 C 0.62724 0.85105 0.24778 0.0
C2668 C 0.65071 0.85399 0.26899 0.0
C2669 C 0.67209 0.84233 0.23861 0.0
C2670 C 0.64617 0.84484 0.28442 0.0
C2671 C 0.65367 0.84717 0.30156 0.0
C2672 C 0.66586 0.85869 0.30356 0.0
C2673 C 0.66987 0.8683 0.28824 0.0
C2674 C 0.6623 0.86601 0.27112 0.0
H2675 H 0.67755 0.83473 0.2277 0.0
H2676 H 0.67785 0.85421 0.23777 0.0
H2677 H 0.675 0.83716 0.25239 0.0
H2678 H 0.63722 0.83551 0.28303 0.0
H2679 H 0.65022 0.83962 0.31308 0.0
H2680 H 0.13358 0.65977 0.31023 0.0
H2681 H 0.14064 0.64439 0.28255 0.0
H2682 H 0.10612 0.67121 0.25044 0.0
H2683 H 0.09919 0.68678 0.27786 0.0
H2684 H 0.12253 0.6263 0.25441 0.0
H2685 H 0.15123 0.68145 0.22766 0.0
H2686 H 0.14524 0.67911 0.25159 0.0
H2687 H 0.13035 0.68351 0.23415 0.0
C2688 C 0.12725 0.66216 0.29736 0.0
C2689 C 0.11604 0.67465 0.29611 0.0
C2690 C 0.13128 0.65335 0.2816 0.0
C2691 C 0.12409 0.6569 0.26446 0.0
C2692 C 0.11196 0.66849 0.26352 0.0
H2693 H 0.14697 0.63666 0.15043 0.0
H2694 H 0.13341 0.64392 0.17926 0.0
C2695 C 0.10803 0.67736 0.2792 0.0
C2696 C 0.13047 0.64984 0.24721 0.0
H2697 H 0.15035 0.6596 0.20732 0.0
C2698 C 0.12863 0.63352 0.24408 0.0
C2699 C 0.13855 0.65934 0.23391 0.0
C2700 C 0.14163 0.6768 0.237 0.0
C2701 C 0.13434 0.62649 0.22765 0.0
C2702 C 0.1422 0.63607 0.21427 0.0
C2703 C 0.14415 0.65234 0.21755 0.0
C2704 C 0.14885 0.62962 0.19681 0.0
C2705 C 0.1317 0.609 0.22458 0.0
C2706 C 0.16189 0.61898 0.19714 0.0
C2707 C 0.16971 0.6148 0.18066 0.0
C2708 C 0.16469 0.62132 0.16361 0.0
C2709 C 0.15121 0.63149 0.16331 0.0
C2710 C 0.1434 0.63562 0.17976 0.0
H2711 H 0.1222 0.60415 0.23393 0.0
H2712 H 0.12818 0.60662 0.20997 0.0
H2713 H 0.14315 0.60257 0.22742 0.0
H2714 H 0.16647 0.61446 0.2102 0.0
H2715 H 0.18005 0.60694 0.18139 0.0
H2716 H 0.29629 0.10345 0.28981 0.0
H2717 H 0.30914 0.10746 0.2596 0.0
H2718 H 0.34139 0.14201 0.28371 0.0
H2719 H 0.32882 0.13796 0.31399 0.0
H2720 H 0.30913 0.13563 0.24107 0.0
H2721 H 0.37221 0.11594 0.25211 0.0
H2722 H 0.35593 0.11059 0.26766 0.0
H2723 H 0.36571 0.12961 0.26964 0.0
C2724 C 0.30629 0.11174 0.28877 0.0
C2725 C 0.31149 0.12045 0.30431 0.0
C2726 C 0.31363 0.11396 0.2715 0.0
C2727 C 0.32638 0.12483 0.26948 0.0
C2728 C 0.33185 0.13326 0.28505 0.0
H2729 H 0.37151 0.18441 0.1931 0.0
H2730 H 0.36348 0.16706 0.21859 0.0
C2731 C 0.32453 0.13104 0.30232 0.0
C2732 C 0.33274 0.12878 0.25084 0.0
H2733 H 0.36784 0.13423 0.22669 0.0
C2734 C 0.32191 0.13499 0.23772 0.0
C2735 C 0.34941 0.12788 0.24654 0.0
C2736 C 0.36145 0.12048 0.25968 0.0
C2737 C 0.32745 0.14138 0.22091 0.0
C2738 C 0.34424 0.14129 0.21704 0.0
C2739 C 0.35498 0.13429 0.22973 0.0
C2740 C 0.35096 0.15019 0.20112 0.0
C2741 C 0.31541 0.14912 0.20799 0.0
C2742 C 0.34703 0.14613 0.18278 0.0
C2743 C 0.35154 0.1561 0.16813 0.0
C2744 C 0.36008 0.17022 0.17165 0.0
C2745 C 0.36482 0.17369 0.18993 0.0
C2746 C 0.36031 0.16376 0.20452 0.0
H2747 H 0.30327 0.15041 0.21447 0.0
H2748 H 0.31973 0.16104 0.20367 0.0
H2749 H 0.31406 0.14177 0.19533 0.0
H2750 H 0.34002 0.13556 0.17989 0.0
H2751 H 0.34782 0.15306 0.15416 0.0
loop_
_geom_bond_atom_site_label_1
_geom_bond_atom_site_label_2
_geom_bond_distance
_geom_bond_site_symmetry_2
_ccdc_geom_bond_type
C0 O1 1.306 . S
C0 O3 1.160 . S
O1 C0 1.306 . S
O1 Cd2 2.228 . S
Cd2 O1 2.228 . S
Cd2 O6 2.273 . S
Cd2 O10 2.277 . S
O3 C0 1.160 . S
O3 Cd4 2.203 . S
Cd4 O3 2.203 . S
Cd4 O6 2.411 . S
Cd4 O7 2.333 . S
Cd4 O8 2.352 . S
Cd4 O12 2.277 . S
Cd4 O13 2.356 . S
C5 O10 1.209 . S
C5 O12 1.226 . S
O6 Cd2 2.273 . S
O6 Cd4 2.411 . S
O6 C9 1.320 . S
O7 Cd4 2.333 . S
O7 C9 1.214 . S
O8 Cd4 2.352 . S
O8 C11 1.258 . S
C9 O6 1.320 . S
C9 O7 1.214 . S
O10 Cd2 2.277 . S
O10 C5 1.209 . S
C11 O8 1.258 . S
C11 O13 1.282 . S
O12 Cd4 2.277 . S
O12 C5 1.226 . S
O13 Cd4 2.356 . S
O13 C11 1.282 . S
C14 O15 1.306 . S
C14 O17 1.160 . S
O15 C14 1.306 . S
O15 Cd16 2.228 . S
Cd16 O15 2.228 . S
Cd16 O20 2.273 . S
Cd16 O24 2.277 . S
O17 C14 1.160 . S
O17 Cd18 2.203 . S
Cd18 O17 2.203 . S
Cd18 O20 2.411 . S
Cd18 O21 2.333 . S
Cd18 O22 2.352 . S
Cd18 O26 2.277 . S
Cd18 O27 2.356 . S
C19 O24 1.209 . S
C19 O26 1.226 . S
O20 Cd16 2.273 . S
O20 Cd18 2.411 . S
O20 C23 1.320 . S
O21 Cd18 2.333 . S
O21 C23 1.214 . S
O22 Cd18 2.352 . S
O22 C25 1.258 . S
C23 O20 1.320 . S
C23 O21 1.214 . S
O24 Cd16 2.277 . S
O24 C19 1.209 . S
C25 O22 1.258 . S
C25 O27 1.282 . S
O26 Cd18 2.277 . S
O26 C19 1.226 . S
O27 Cd18 2.356 . S
O27 C25 1.282 . S
C28 O29 1.306 . S
C28 O31 1.160 . S
O29 C28 1.306 . S
O29 Cd30 2.228 . S
Cd30 O29 2.228 . S
Cd30 O34 2.273 . S
Cd30 O38 2.277 . S
O31 C28 1.160 . S
O31 Cd32 2.203 . S
Cd32 O31 2.203 . S
Cd32 O34 2.411 . S
Cd32 O35 2.333 . S
Cd32 O36 2.352 . S
Cd32 O40 2.277 . S
Cd32 O41 2.356 . S
C33 O38 1.209 . S
C33 O40 1.226 . S
O34 Cd30 2.273 . S
O34 Cd32 2.411 . S
O34 C37 1.320 . S
O35 Cd32 2.333 . S
O35 C37 1.214 . S
O36 Cd32 2.352 . S
O36 C39 1.258 . S
C37 O34 1.320 . S
C37 O35 1.214 . S
O38 Cd30 2.277 . S
O38 C33 1.209 . S
C39 O36 1.258 . S
C39 O41 1.282 . S
O40 Cd32 2.277 . S
O40 C33 1.226 . S
O41 Cd32 2.356 . S
O41 C39 1.282 . S
C42 O43 1.306 . S
C42 O45 1.160 . S
O43 C42 1.306 . S
O43 Cd44 2.228 . S
Cd44 O43 2.228 . S
Cd44 O48 2.273 . S
Cd44 O52 2.277 . S
O45 C42 1.160 . S
O45 Cd46 2.203 . S
Cd46 O45 2.203 . S
Cd46 O48 2.411 . S
Cd46 O49 2.333 . S
Cd46 O50 2.352 . S
Cd46 O54 2.277 . S
Cd46 O55 2.356 . S
C47 O52 1.209 . S
C47 O54 1.226 . S
O48 Cd44 2.273 . S
O48 Cd46 2.411 . S
O48 C51 1.320 . S
O49 Cd46 2.333 . S
O49 C51 1.214 . S
O50 Cd46 2.352 . S
O50 C53 1.258 . S
C51 O48 1.320 . S
C51 O49 1.214 . S
O52 Cd44 2.277 . S
O52 C47 1.209 . S
C53 O50 1.258 . S
C53 O55 1.282 . S
O54 Cd46 2.277 . S
O54 C47 1.226 . S
O55 Cd46 2.356 . S
O55 C53 1.282 . S
C56 O57 1.306 . S
C56 O59 1.160 . S
O57 C56 1.306 . S
O57 Cd58 2.228 . S
Cd58 O57 2.228 . S
Cd58 O62 2.273 . S
Cd58 O66 2.277 . S
O59 C56 1.160 . S
O59 Cd60 2.203 . S
Cd60 O59 2.203 . S
Cd60 O62 2.411 . S
Cd60 O63 2.333 . S
Cd60 O64 2.352 . S
Cd60 O68 2.277 . S
Cd60 O69 2.356 . S
C61 O66 1.209 . S
C61 O68 1.226 . S
O62 Cd58 2.273 . S
O62 Cd60 2.411 . S
O62 C65 1.320 . S
O63 Cd60 2.333 . S
O63 C65 1.214 . S
O64 Cd60 2.352 . S
O64 C67 1.258 . S
C65 O62 1.320 . S
C65 O63 1.214 . S
O66 Cd58 2.277 . S
O66 C61 1.209 . S
C67 O64 1.258 . S
C67 O69 1.282 . S
O68 Cd60 2.277 . S
O68 C61 1.226 . S
O69 Cd60 2.356 . S
O69 C67 1.282 . S
C70 O71 1.306 . S
C70 O73 1.160 . S
O71 C70 1.306 . S
O71 Cd72 2.228 . S
Cd72 O71 2.228 . S
Cd72 O76 2.273 . S
Cd72 O80 2.277 . S
O73 C70 1.160 . S
O73 Cd74 2.203 . S
Cd74 O73 2.203 . S
Cd74 O76 2.411 . S
Cd74 O77 2.333 . S
Cd74 O78 2.352 . S
Cd74 O82 2.277 . S
Cd74 O83 2.356 . S
C75 O80 1.209 . S
C75 O82 1.226 . S
O76 Cd72 2.273 . S
O76 Cd74 2.411 . S
O76 C79 1.320 . S
O77 Cd74 2.333 . S
O77 C79 1.214 . S
O78 Cd74 2.352 . S
O78 C81 1.258 . S
C79 O76 1.320 . S
C79 O77 1.214 . S
O80 Cd72 2.277 . S
O80 C75 1.209 . S
C81 O78 1.258 . S
C81 O83 1.282 . S
O82 Cd74 2.277 . S
O82 C75 1.226 . S
O83 Cd74 2.356 . S
O83 C81 1.282 . S
C84 O85 1.306 . S
C84 O87 1.160 . S
O85 C84 1.306 . S
O85 Cd86 2.228 . S
Cd86 O85 2.228 . S
Cd86 O90 2.273 . S
Cd86 O94 2.277 . S
O87 C84 1.160 . S
O87 Cd88 2.203 . S
Cd88 O87 2.203 . S
Cd88 O90 2.411 . S
Cd88 O91 2.333 . S
Cd88 O92 2.352 . S
Cd88 O96 2.277 . S
Cd88 O97 2.356 . S
C89 O94 1.209 . S
C89 O96 1.226 . S
O90 Cd86 2.273 . S
O90 Cd88 2.411 . S
O90 C93 1.320 . S
O91 Cd88 2.333 . S
O91 C93 1.214 . S
O92 Cd88 2.352 . S
O92 C95 1.258 . S
C93 O90 1.320 . S
C93 O91 1.214 . S
O94 Cd86 2.277 . S
O94 C89 1.209 . S
C95 O92 1.258 . S
C95 O97 1.282 . S
O96 Cd88 2.277 . S
O96 C89 1.226 . S
O97 Cd88 2.356 . S
O97 C95 1.282 . S
C98 O99 1.306 . S
C98 O101 1.160 . S
O99 C98 1.306 . S
O99 Cd100 2.228 . S
Cd100 O99 2.228 . S
Cd100 O104 2.273 . S
Cd100 O108 2.277 . S
O101 C98 1.160 . S
O101 Cd102 2.203 . S
Cd102 O101 2.203 . S
Cd102 O104 2.411 . S
Cd102 O105 2.333 . S
Cd102 O106 2.352 . S
Cd102 O110 2.277 . S
Cd102 O111 2.356 . S
C103 O108 1.209 . S
C103 O110 1.226 . S
O104 Cd100 2.273 . S
O104 Cd102 2.411 . S
O104 C107 1.320 . S
O105 Cd102 2.333 . S
O105 C107 1.214 . S
O106 Cd102 2.352 . S
O106 C109 1.258 . S
C107 O104 1.320 . S
C107 O105 1.214 . S
O108 Cd100 2.277 . S
O108 C103 1.209 . S
C109 O106 1.258 . S
C109 O111 1.282 . S
O110 Cd102 2.277 . S
O110 C103 1.226 . S
O111 Cd102 2.356 . S
O111 C109 1.282 . S
C112 O113 1.306 . S
C112 O115 1.160 . S
O113 C112 1.306 . S
O113 Cd114 2.228 . S
Cd114 O113 2.228 . S
Cd114 O118 2.273 . S
Cd114 O122 2.277 . S
O115 C112 1.160 . S
O115 Cd116 2.203 . S
Cd116 O115 2.203 . S
Cd116 O118 2.411 . S
Cd116 O119 2.333 . S
Cd116 O120 2.352 . S
Cd116 O124 2.277 . S
Cd116 O125 2.356 . S
C117 O122 1.209 . S
C117 O124 1.226 . S
O118 Cd114 2.273 . S
O118 Cd116 2.411 . S
O118 C121 1.320 . S
O119 Cd116 2.333 . S
O119 C121 1.214 . S
O120 Cd116 2.352 . S
O120 C123 1.258 . S
C121 O118 1.320 . S
C121 O119 1.214 . S
O122 Cd114 2.277 . S
O122 C117 1.209 . S
C123 O120 1.258 . S
C123 O125 1.282 . S
O124 Cd116 2.277 . S
O124 C117 1.226 . S
O125 Cd116 2.356 . S
O125 C123 1.282 . S
C126 O127 1.306 . S
C126 O129 1.160 . S
O127 C126 1.306 . S
O127 Cd128 2.228 . S
Cd128 O127 2.228 . S
Cd128 O132 2.273 . S
Cd128 O136 2.277 . S
O129 C126 1.160 . S
O129 Cd130 2.203 . S
Cd130 O129 2.203 . S
Cd130 O132 2.411 . S
Cd130 O133 2.333 . S
Cd130 O134 2.352 . S
Cd130 O138 2.277 . S
Cd130 O139 2.356 . S
C131 O136 1.209 . S
C131 O138 1.226 . S
O132 Cd128 2.273 . S
O132 Cd130 2.411 . S
O132 C135 1.320 . S
O133 Cd130 2.333 . S
O133 C135 1.214 . S
O134 Cd130 2.352 . S
O134 C137 1.258 . S
C135 O132 1.320 . S
C135 O133 1.214 . S
O136 Cd128 2.277 . S
O136 C131 1.209 . S
C137 O134 1.258 . S
C137 O139 1.282 . S
O138 Cd130 2.277 . S
O138 C131 1.226 . S
O139 Cd130 2.356 . S
O139 C137 1.282 . S
C140 O141 1.306 . S
C140 O143 1.160 . S
O141 C140 1.306 . S
O141 Cd142 2.228 . S
Cd142 O141 2.228 . S
Cd142 O146 2.273 . S
Cd142 O150 2.277 . S
O143 C140 1.160 . S
O143 Cd144 2.203 . S
Cd144 O143 2.203 . S
Cd144 O146 2.411 . S
Cd144 O147 2.333 . S
Cd144 O148 2.352 . S
Cd144 O152 2.277 . S
Cd144 O153 2.356 . S
C145 O150 1.209 . S
C145 O152 1.226 . S
O146 Cd142 2.273 . S
O146 Cd144 2.411 . S
O146 C149 1.320 . S
O147 Cd144 2.333 . S
O147 C149 1.214 . S
O148 Cd144 2.352 . S
O148 C151 1.258 . S
C149 O146 1.320 . S
C149 O147 1.214 . S
O150 Cd142 2.277 . S
O150 C145 1.209 . S
C151 O148 1.258 . S
C151 O153 1.282 . S
O152 Cd144 2.277 . S
O152 C145 1.226 . S
O153 Cd144 2.356 . S
O153 C151 1.282 . S
C154 O155 1.306 . S
C154 O157 1.160 . S
O155 C154 1.306 . S
O155 Cd156 2.228 . S
Cd156 O155 2.228 . S
Cd156 O160 2.273 . S
Cd156 O164 2.277 . S
O157 C154 1.160 . S
O157 Cd158 2.203 . S
Cd158 O157 2.203 . S
Cd158 O160 2.411 . S
Cd158 O161 2.333 . S
Cd158 O162 2.352 . S
Cd158 O166 2.277 . S
Cd158 O167 2.356 . S
C159 O164 1.209 . S
C159 O166 1.226 . S
O160 Cd156 2.273 . S
O160 Cd158 2.411 . S
O160 C163 1.320 . S
O161 Cd158 2.333 . S
O161 C163 1.214 . S
O162 Cd158 2.352 . S
O162 C165 1.258 . S
C163 O160 1.320 . S
C163 O161 1.214 . S
O164 Cd156 2.277 . S
O164 C159 1.209 . S
C165 O162 1.258 . S
C165 O167 1.282 . S
O166 Cd158 2.277 . S
O166 C159 1.226 . S
O167 Cd158 2.356 . S
O167 C165 1.282 . S
C168 O169 1.306 . S
C168 O171 1.160 . S
O169 C168 1.306 . S
O169 Cd170 2.228 . S
Cd170 O169 2.228 . S
Cd170 O174 2.273 . S
Cd170 O178 2.277 . S
O171 C168 1.160 . S
O171 Cd172 2.203 . S
Cd172 O171 2.203 . S
Cd172 O174 2.411 . S
Cd172 O175 2.333 . S
Cd172 O176 2.352 . S
Cd172 O180 2.277 . S
Cd172 O181 2.356 . S
C173 O178 1.209 . S
C173 O180 1.226 . S
O174 Cd170 2.273 . S
O174 Cd172 2.411 . S
O174 C177 1.320 . S
O175 Cd172 2.333 . S
O175 C177 1.214 . S
O176 Cd172 2.352 . S
O176 C179 1.258 . S
C177 O174 1.320 . S
C177 O175 1.214 . S
O178 Cd170 2.277 . S
O178 C173 1.209 . S
C179 O176 1.258 . S
C179 O181 1.282 . S
O180 Cd172 2.277 . S
O180 C173 1.226 . S
O181 Cd172 2.356 . S
O181 C179 1.282 . S
C182 O183 1.306 . S
C182 O185 1.160 . S
O183 C182 1.306 . S
O183 Cd184 2.228 . S
Cd184 O183 2.228 . S
Cd184 O188 2.273 . S
Cd184 O192 2.277 . S
O185 C182 1.160 . S
O185 Cd186 2.203 . S
Cd186 O185 2.203 . S
Cd186 O188 2.411 . S
Cd186 O189 2.333 . S
Cd186 O190 2.352 . S
Cd186 O194 2.277 . S
Cd186 O195 2.356 . S
C187 O192 1.209 . S
C187 O194 1.226 . S
O188 Cd184 2.273 . S
O188 Cd186 2.411 . S
O188 C191 1.320 . S
O189 Cd186 2.333 . S
O189 C191 1.214 . S
O190 Cd186 2.352 . S
O190 C193 1.258 . S
C191 O188 1.320 . S
C191 O189 1.214 . S
O192 Cd184 2.277 . S
O192 C187 1.209 . S
C193 O190 1.258 . S
C193 O195 1.282 . S
O194 Cd186 2.277 . S
O194 C187 1.226 . S
O195 Cd186 2.356 . S
O195 C193 1.282 . S
C196 O197 1.306 . S
C196 O199 1.160 . S
O197 C196 1.306 . S
O197 Cd198 2.228 . S
Cd198 O197 2.228 . S
Cd198 O202 2.273 . S
Cd198 O206 2.277 . S
O199 C196 1.160 . S
O199 Cd200 2.203 . S
Cd200 O199 2.203 . S
Cd200 O202 2.411 . S
Cd200 O203 2.333 . S
Cd200 O204 2.352 . S
Cd200 O208 2.277 . S
Cd200 O209 2.356 . S
C201 O206 1.209 . S
C201 O208 1.226 . S
O202 Cd198 2.273 . S
O202 Cd200 2.411 . S
O202 C205 1.320 . S
O203 Cd200 2.333 . S
O203 C205 1.214 . S
O204 Cd200 2.352 . S
O204 C207 1.258 . S
C205 O202 1.320 . S
C205 O203 1.214 . S
O206 Cd198 2.277 . S
O206 C201 1.209 . S
C207 O204 1.258 . S
C207 O209 1.282 . S
O208 Cd200 2.277 . S
O208 C201 1.226 . S
O209 Cd200 2.356 . S
O209 C207 1.282 . S
C210 O211 1.306 . S
C210 O213 1.160 . S
O211 C210 1.306 . S
O211 Cd212 2.228 . S
Cd212 O211 2.228 . S
Cd212 O216 2.273 . S
Cd212 O220 2.277 . S
O213 C210 1.160 . S
O213 Cd214 2.203 . S
Cd214 O213 2.203 . S
Cd214 O216 2.411 . S
Cd214 O217 2.333 . S
Cd214 O218 2.352 . S
Cd214 O222 2.277 . S
Cd214 O223 2.356 . S
C215 O220 1.209 . S
C215 O222 1.226 . S
O216 Cd212 2.273 . S
O216 Cd214 2.411 . S
O216 C219 1.320 . S
O217 Cd214 2.333 . S
O217 C219 1.214 . S
O218 Cd214 2.352 . S
O218 C221 1.258 . S
C219 O216 1.320 . S
C219 O217 1.214 . S
O220 Cd212 2.277 . S
O220 C215 1.209 . S
C221 O218 1.258 . S
C221 O223 1.282 . S
O222 Cd214 2.277 . S
O222 C215 1.226 . S
O223 Cd214 2.356 . S
O223 C221 1.282 . S
C224 O225 1.306 . S
C224 O227 1.160 . S
O225 C224 1.306 . S
O225 Cd226 2.228 . S
Cd226 O225 2.228 . S
Cd226 O230 2.273 . S
Cd226 O234 2.277 . S
O227 C224 1.160 . S
O227 Cd228 2.203 . S
Cd228 O227 2.203 . S
Cd228 O230 2.411 . S
Cd228 O231 2.333 . S
Cd228 O232 2.352 . S
Cd228 O236 2.277 . S
Cd228 O237 2.356 . S
C229 O234 1.209 . S
C229 O236 1.226 . S
O230 Cd226 2.273 . S
O230 Cd228 2.411 . S
O230 C233 1.320 . S
O231 Cd228 2.333 . S
O231 C233 1.214 . S
O232 Cd228 2.352 . S
O232 C235 1.258 . S
C233 O230 1.320 . S
C233 O231 1.214 . S
O234 Cd226 2.277 . S
O234 C229 1.209 . S
C235 O232 1.258 . S
C235 O237 1.282 . S
O236 Cd228 2.277 . S
O236 C229 1.226 . S
O237 Cd228 2.356 . S
O237 C235 1.282 . S
C238 O239 1.306 . S
C238 O241 1.160 . S
O239 C238 1.306 . S
O239 Cd240 2.228 . S
Cd240 O239 2.228 . S
Cd240 O244 2.273 . S
Cd240 O248 2.277 . S
O241 C238 1.160 . S
O241 Cd242 2.203 . S
Cd242 O241 2.203 . S
Cd242 O244 2.411 . S
Cd242 O245 2.333 . S
Cd242 O246 2.352 . S
Cd242 O250 2.277 . S
Cd242 O251 2.356 . S
C243 O248 1.209 . S
C243 O250 1.226 . S
O244 Cd240 2.273 . S
O244 Cd242 2.411 . S
O244 C247 1.320 . S
O245 Cd242 2.333 . S
O245 C247 1.214 . S
O246 Cd242 2.352 . S
O246 C249 1.258 . S
C247 O244 1.320 . S
C247 O245 1.214 . S
O248 Cd240 2.277 . S
O248 C243 1.209 . S
C249 O246 1.258 . S
C249 O251 1.282 . S
O250 Cd242 2.277 . S
O250 C243 1.226 . S
O251 Cd242 2.356 . S
O251 C249 1.282 . S
C252 O253 1.306 . S
C252 O255 1.160 . S
O253 C252 1.306 . S
O253 Cd254 2.228 . S
Cd254 O253 2.228 . S
Cd254 O258 2.273 . S
Cd254 O262 2.277 . S
O255 C252 1.160 . S
O255 Cd256 2.203 . S
Cd256 O255 2.203 . S
Cd256 O258 2.411 . S
Cd256 O259 2.333 . S
Cd256 O260 2.352 . S
Cd256 O264 2.277 . S
Cd256 O265 2.356 . S
C257 O262 1.209 . S
C257 O264 1.226 . S
O258 Cd254 2.273 . S
O258 Cd256 2.411 . S
O258 C261 1.320 . S
O259 Cd256 2.333 . S
O259 C261 1.214 . S
O260 Cd256 2.352 . S
O260 C263 1.258 . S
C261 O258 1.320 . S
C261 O259 1.214 . S
O262 Cd254 2.277 . S
O262 C257 1.209 . S
C263 O260 1.258 . S
C263 O265 1.282 . S
O264 Cd256 2.277 . S
O264 C257 1.226 . S
O265 Cd256 2.356 . S
O265 C263 1.282 . S
C266 O267 1.306 . S
C266 O269 1.160 . S
O267 C266 1.306 . S
O267 Cd268 2.228 . S
Cd268 O267 2.228 . S
Cd268 O272 2.273 . S
Cd268 O276 2.277 . S
O269 C266 1.160 . S
O269 Cd270 2.203 . S
Cd270 O269 2.203 . S
Cd270 O272 2.411 . S
Cd270 O273 2.333 . S
Cd270 O274 2.352 . S
Cd270 O278 2.277 . S
Cd270 O279 2.356 . S
C271 O276 1.209 . S
C271 O278 1.226 . S
O272 Cd268 2.273 . S
O272 Cd270 2.411 . S
O272 C275 1.320 . S
O273 Cd270 2.333 . S
O273 C275 1.214 . S
O274 Cd270 2.352 . S
O274 C277 1.258 . S
C275 O272 1.320 . S
C275 O273 1.214 . S
O276 Cd268 2.277 . S
O276 C271 1.209 . S
C277 O274 1.258 . S
C277 O279 1.282 . S
O278 Cd270 2.277 . S
O278 C271 1.226 . S
O279 Cd270 2.356 . S
O279 C277 1.282 . S
C280 O281 1.306 . S
C280 O283 1.160 . S
O281 C280 1.306 . S
O281 Cd282 2.228 . S
Cd282 O281 2.228 . S
Cd282 O286 2.273 . S
Cd282 O290 2.277 . S
O283 C280 1.160 . S
O283 Cd284 2.203 . S
Cd284 O283 2.203 . S
Cd284 O286 2.411 . S
Cd284 O287 2.333 . S
Cd284 O288 2.352 . S
Cd284 O292 2.277 . S
Cd284 O293 2.356 . S
C285 O290 1.209 . S
C285 O292 1.226 . S
O286 Cd282 2.273 . S
O286 Cd284 2.411 . S
O286 C289 1.320 . S
O287 Cd284 2.333 . S
O287 C289 1.214 . S
O288 Cd284 2.352 . S
O288 C291 1.258 . S
C289 O286 1.320 . S
C289 O287 1.214 . S
O290 Cd282 2.277 . S
O290 C285 1.209 . S
C291 O288 1.258 . S
C291 O293 1.282 . S
O292 Cd284 2.277 . S
O292 C285 1.226 . S
O293 Cd284 2.356 . S
O293 C291 1.282 . S
C294 O295 1.306 . S
C294 O297 1.160 . S
O295 C294 1.306 . S
O295 Cd296 2.228 . S
Cd296 O295 2.228 . S
Cd296 O300 2.273 . S
Cd296 O304 2.277 . S
O297 C294 1.160 . S
O297 Cd298 2.203 . S
Cd298 O297 2.203 . S
Cd298 O300 2.411 . S
Cd298 O301 2.333 . S
Cd298 O302 2.352 . S
Cd298 O306 2.277 . S
Cd298 O307 2.356 . S
C299 O304 1.209 . S
C299 O306 1.226 . S
O300 Cd296 2.273 . S
O300 Cd298 2.411 . S
O300 C303 1.320 . S
O301 Cd298 2.333 . S
O301 C303 1.214 . S
O302 Cd298 2.352 . S
O302 C305 1.258 . S
C303 O300 1.320 . S
C303 O301 1.214 . S
O304 Cd296 2.277 . S
O304 C299 1.209 . S
C305 O302 1.258 . S
C305 O307 1.282 . S
O306 Cd298 2.277 . S
O306 C299 1.226 . S
O307 Cd298 2.356 . S
O307 C305 1.282 . S
C308 O309 1.306 . S
C308 O311 1.160 . S
O309 C308 1.306 . S
O309 Cd310 2.228 . S
Cd310 O309 2.228 . S
Cd310 O314 2.273 . S
Cd310 O318 2.277 . S
O311 C308 1.160 . S
O311 Cd312 2.203 . S
Cd312 O311 2.203 . S
Cd312 O314 2.411 . S
Cd312 O315 2.333 . S
Cd312 O316 2.352 . S
Cd312 O320 2.277 . S
Cd312 O321 2.356 . S
C313 O318 1.209 . S
C313 O320 1.226 . S
O314 Cd310 2.273 . S
O314 Cd312 2.411 . S
O314 C317 1.320 . S
O315 Cd312 2.333 . S
O315 C317 1.214 . S
O316 Cd312 2.352 . S
O316 C319 1.258 . S
C317 O314 1.320 . S
C317 O315 1.214 . S
O318 Cd310 2.277 . S
O318 C313 1.209 . S
C319 O316 1.258 . S
C319 O321 1.282 . S
O320 Cd312 2.277 . S
O320 C313 1.226 . S
O321 Cd312 2.356 . S
O321 C319 1.282 . S
C322 O323 1.306 . S
C322 O325 1.160 . S
O323 C322 1.306 . S
O323 Cd324 2.228 . S
Cd324 O323 2.228 . S
Cd324 O328 2.273 . S
Cd324 O332 2.277 . S
O325 C322 1.160 . S
O325 Cd326 2.203 . S
Cd326 O325 2.203 . S
Cd326 O328 2.411 . S
Cd326 O329 2.333 . S
Cd326 O330 2.352 . S
Cd326 O334 2.277 . S
Cd326 O335 2.356 . S
C327 O332 1.209 . S
C327 O334 1.226 . S
O328 Cd324 2.273 . S
O328 Cd326 2.411 . S
O328 C331 1.320 . S
O329 Cd326 2.333 . S
O329 C331 1.214 . S
O330 Cd326 2.352 . S
O330 C333 1.258 . S
C331 O328 1.320 . S
C331 O329 1.214 . S
O332 Cd324 2.277 . S
O332 C327 1.209 . S
C333 O330 1.258 . S
C333 O335 1.282 . S
O334 Cd326 2.277 . S
O334 C327 1.226 . S
O335 Cd326 2.356 . S
O335 C333 1.282 . S
C336 O337 1.306 . S
C336 O339 1.160 . S
O337 C336 1.306 . S
O337 Cd338 2.228 . S
Cd338 O337 2.228 . S
Cd338 O342 2.273 . S
Cd338 O346 2.277 . S
O339 C336 1.160 . S
O339 Cd340 2.203 . S
Cd340 O339 2.203 . S
Cd340 O342 2.411 . S
Cd340 O343 2.333 . S
Cd340 O344 2.352 . S
Cd340 O348 2.277 . S
Cd340 O349 2.356 . S
C341 O346 1.209 . S
C341 O348 1.226 . S
O342 Cd338 2.273 . S
O342 Cd340 2.411 . S
O342 C345 1.320 . S
O343 Cd340 2.333 . S
O343 C345 1.214 . S
O344 Cd340 2.352 . S
O344 C347 1.258 . S
C345 O342 1.320 . S
C345 O343 1.214 . S
O346 Cd338 2.277 . S
O346 C341 1.209 . S
C347 O344 1.258 . S
C347 O349 1.282 . S
O348 Cd340 2.277 . S
O348 C341 1.226 . S
O349 Cd340 2.356 . S
O349 C347 1.282 . S
C350 O351 1.306 . S
C350 O353 1.160 . S
O351 C350 1.306 . S
O351 Cd352 2.228 . S
Cd352 O351 2.228 . S
Cd352 O356 2.273 . S
Cd352 O360 2.277 . S
O353 C350 1.160 . S
O353 Cd354 2.203 . S
Cd354 O353 2.203 . S
Cd354 O356 2.411 . S
Cd354 O357 2.333 . S
Cd354 O358 2.352 . S
Cd354 O362 2.277 . S
Cd354 O363 2.356 . S
C355 O360 1.209 . S
C355 O362 1.226 . S
O356 Cd352 2.273 . S
O356 Cd354 2.411 . S
O356 C359 1.320 . S
O357 Cd354 2.333 . S
O357 C359 1.214 . S
O358 Cd354 2.352 . S
O358 C361 1.258 . S
C359 O356 1.320 . S
C359 O357 1.214 . S
O360 Cd352 2.277 . S
O360 C355 1.209 . S
C361 O358 1.258 . S
C361 O363 1.282 . S
O362 Cd354 2.277 . S
O362 C355 1.226 . S
O363 Cd354 2.356 . S
O363 C361 1.282 . S
C364 O365 1.306 . S
C364 O367 1.160 . S
O365 C364 1.306 . S
O365 Cd366 2.228 . S
Cd366 O365 2.228 . S
Cd366 O370 2.273 . S
Cd366 O374 2.277 . S
O367 C364 1.160 . S
O367 Cd368 2.203 . S
Cd368 O367 2.203 . S
Cd368 O370 2.411 . S
Cd368 O371 2.333 . S
Cd368 O372 2.352 . S
Cd368 O376 2.277 . S
Cd368 O377 2.356 . S
C369 O374 1.209 . S
C369 O376 1.226 . S
O370 Cd366 2.273 . S
O370 Cd368 2.411 . S
O370 C373 1.320 . S
O371 Cd368 2.333 . S
O371 C373 1.214 . S
O372 Cd368 2.352 . S
O372 C375 1.258 . S
C373 O370 1.320 . S
C373 O371 1.214 . S
O374 Cd366 2.277 . S
O374 C369 1.209 . S
C375 O372 1.258 . S
C375 O377 1.282 . S
O376 Cd368 2.277 . S
O376 C369 1.226 . S
O377 Cd368 2.356 . S
O377 C375 1.282 . S
C378 O379 1.306 . S
C378 O381 1.160 . S
O379 C378 1.306 . S
O379 Cd380 2.228 . S
Cd380 O379 2.228 . S
Cd380 O384 2.273 . S
Cd380 O388 2.277 . S
O381 C378 1.160 . S
O381 Cd382 2.203 . S
Cd382 O381 2.203 . S
Cd382 O384 2.411 . S
Cd382 O385 2.333 . S
Cd382 O386 2.352 . S
Cd382 O390 2.277 . S
Cd382 O391 2.356 . S
C383 O388 1.209 . S
C383 O390 1.226 . S
O384 Cd380 2.273 . S
O384 Cd382 2.411 . S
O384 C387 1.320 . S
O385 Cd382 2.333 . S
O385 C387 1.214 . S
O386 Cd382 2.352 . S
O386 C389 1.258 . S
C387 O384 1.320 . S
C387 O385 1.214 . S
O388 Cd380 2.277 . S
O388 C383 1.209 . S
C389 O386 1.258 . S
C389 O391 1.282 . S
O390 Cd382 2.277 . S
O390 C383 1.226 . S
O391 Cd382 2.356 . S
O391 C389 1.282 . S
C392 O393 1.306 . S
C392 O395 1.160 . S
O393 C392 1.306 . S
O393 Cd394 2.228 . S
Cd394 O393 2.228 . S
Cd394 O398 2.273 . S
Cd394 O402 2.277 . S
O395 C392 1.160 . S
O395 Cd396 2.203 . S
Cd396 O395 2.203 . S
Cd396 O398 2.411 . S
Cd396 O399 2.333 . S
Cd396 O400 2.352 . S
Cd396 O404 2.277 . S
Cd396 O405 2.356 . S
C397 O402 1.209 . S
C397 O404 1.226 . S
O398 Cd394 2.273 . S
O398 Cd396 2.411 . S
O398 C401 1.320 . S
O399 Cd396 2.333 . S
O399 C401 1.214 . S
O400 Cd396 2.352 . S
O400 C403 1.258 . S
C401 O398 1.320 . S
C401 O399 1.214 . S
O402 Cd394 2.277 . S
O402 C397 1.209 . S
C403 O400 1.258 . S
C403 O405 1.282 . S
O404 Cd396 2.277 . S
O404 C397 1.226 . S
O405 Cd396 2.356 . S
O405 C403 1.282 . S
C406 O407 1.306 . S
C406 O409 1.160 . S
O407 C406 1.306 . S
O407 Cd408 2.228 . S
Cd408 O407 2.228 . S
Cd408 O412 2.273 . S
Cd408 O416 2.277 . S
O409 C406 1.160 . S
O409 Cd410 2.203 . S
Cd410 O409 2.203 . S
Cd410 O412 2.411 . S
Cd410 O413 2.333 . S
Cd410 O414 2.352 . S
Cd410 O418 2.277 . S
Cd410 O419 2.356 . S
C411 O416 1.209 . S
C411 O418 1.226 . S
O412 Cd408 2.273 . S
O412 Cd410 2.411 . S
O412 C415 1.320 . S
O413 Cd410 2.333 . S
O413 C415 1.214 . S
O414 Cd410 2.352 . S
O414 C417 1.258 . S
C415 O412 1.320 . S
C415 O413 1.214 . S
O416 Cd408 2.277 . S
O416 C411 1.209 . S
C417 O414 1.258 . S
C417 O419 1.282 . S
O418 Cd410 2.277 . S
O418 C411 1.226 . S
O419 Cd410 2.356 . S
O419 C417 1.282 . S
C420 O421 1.306 . S
C420 O423 1.160 . S
O421 C420 1.306 . S
O421 Cd422 2.228 . S
Cd422 O421 2.228 . S
Cd422 O426 2.273 . S
Cd422 O430 2.277 . S
O423 C420 1.160 . S
O423 Cd424 2.203 . S
Cd424 O423 2.203 . S
Cd424 O426 2.411 . S
Cd424 O427 2.333 . S
Cd424 O428 2.352 . S
Cd424 O432 2.277 . S
Cd424 O433 2.356 . S
C425 O430 1.209 . S
C425 O432 1.226 . S
O426 Cd422 2.273 . S
O426 Cd424 2.411 . S
O426 C429 1.320 . S
O427 Cd424 2.333 . S
O427 C429 1.214 . S
O428 Cd424 2.352 . S
O428 C431 1.258 . S
C429 O426 1.320 . S
C429 O427 1.214 . S
O430 Cd422 2.277 . S
O430 C425 1.209 . S
C431 O428 1.258 . S
C431 O433 1.282 . S
O432 Cd424 2.277 . S
O432 C425 1.226 . S
O433 Cd424 2.356 . S
O433 C431 1.282 . S
C434 O435 1.306 . S
C434 O437 1.160 . S
O435 C434 1.306 . S
O435 Cd436 2.228 . S
Cd436 O435 2.228 . S
Cd436 O440 2.273 . S
Cd436 O444 2.277 . S
O437 C434 1.160 . S
O437 Cd438 2.203 . S
Cd438 O437 2.203 . S
Cd438 O440 2.411 . S
Cd438 O441 2.333 . S
Cd438 O442 2.352 . S
Cd438 O446 2.277 . S
Cd438 O447 2.356 . S
C439 O444 1.209 . S
C439 O446 1.226 . S
O440 Cd436 2.273 . S
O440 Cd438 2.411 . S
O440 C443 1.320 . S
O441 Cd438 2.333 . S
O441 C443 1.214 . S
O442 Cd438 2.352 . S
O442 C445 1.258 . S
C443 O440 1.320 . S
C443 O441 1.214 . S
O444 Cd436 2.277 . S
O444 C439 1.209 . S
C445 O442 1.258 . S
C445 O447 1.282 . S
O446 Cd438 2.277 . S
O446 C439 1.226 . S
O447 Cd438 2.356 . S
O447 C445 1.282 . S
H448 C456 0.929 . S
H449 C458 0.930 . S
H450 C460 0.930 . S
H451 C463 0.929 . S
H452 C466 0.930 . S
H453 C468 0.960 . S
H454 C468 0.960 . S
H455 C468 0.960 . S
C456 H448 0.929 . S
C456 C457 1.377 . S
C456 C458 1.384 . S
C457 C456 1.377 . S
C457 C463 1.390 . S
C458 H449 0.930 . S
C458 C456 1.384 . S
C458 C459 1.372 . S
C459 C458 1.372 . S
C459 C460 1.400 . S
C459 C464 1.490 . S
C460 H450 0.930 . S
C460 C459 1.400 . S
C460 C463 1.386 . S
H461 C477 0.930 . S
H462 C478 0.931 . S
C463 H451 0.929 . S
C463 C457 1.390 . S
C463 C460 1.386 . S
C464 C459 1.490 . S
C464 C466 1.395 . S
C464 C467 1.403 . S
H465 C471 0.930 . S
C466 H452 0.930 . S
C466 C464 1.395 . S
C466 C469 1.403 . S
C467 C464 1.403 . S
C467 C468 1.524 . S
C467 C471 1.400 . S
C468 H453 0.960 . S
C468 H454 0.960 . S
C468 H455 0.960 . S
C468 C467 1.524 . S
C469 C466 1.403 . S
C469 C470 1.392 . S
C469 C473 1.495 . S
C470 C469 1.392 . S
C470 C471 1.385 . S
C470 C472 1.478 . S
C471 H465 0.930 . S
C471 C467 1.400 . S
C471 C470 1.385 . S
C472 C470 1.478 . S
C472 C474 1.381 . S
C472 C478 1.383 . S
C473 C469 1.495 . S
C473 H479 0.959 . S
C473 H480 0.961 . S
C473 H481 0.960 . S
C474 C472 1.381 . S
C474 C475 1.394 . S
C474 H482 0.930 . S
C475 C474 1.394 . S
C475 C476 1.383 . S
C475 H483 0.929 . S
C476 C475 1.383 . S
C476 C477 1.377 . S
C477 H461 0.930 . S
C477 C476 1.377 . S
C477 C478 1.379 . S
C478 H462 0.931 . S
C478 C472 1.383 . S
C478 C477 1.379 . S
H479 C473 0.959 . S
H480 C473 0.961 . S
H481 C473 0.960 . S
H482 C474 0.930 . S
H483 C475 0.929 . S
H484 C492 0.929 . S
H485 C494 0.930 . S
H486 C496 0.930 . S
H487 C499 0.929 . S
H488 C502 0.930 . S
H489 C504 0.960 . S
H490 C504 0.960 . S
H491 C504 0.960 . S
C492 H484 0.929 . S
C492 C493 1.377 . S
C492 C494 1.384 . S
C493 C492 1.377 . S
C493 C499 1.390 . S
C494 H485 0.930 . S
C494 C492 1.384 . S
C494 C495 1.372 . S
C495 C494 1.372 . S
C495 C496 1.400 . S
C495 C500 1.490 . S
C496 H486 0.930 . S
C496 C495 1.400 . S
C496 C499 1.386 . S
H497 C513 0.930 . S
H498 C514 0.931 . S
C499 H487 0.929 . S
C499 C493 1.390 . S
C499 C496 1.386 . S
C500 C495 1.490 . S
C500 C502 1.395 . S
C500 C503 1.403 . S
H501 C507 0.930 . S
C502 H488 0.930 . S
C502 C500 1.395 . S
C502 C505 1.403 . S
C503 C500 1.403 . S
C503 C504 1.524 . S
C503 C507 1.400 . S
C504 H489 0.960 . S
C504 H490 0.960 . S
C504 H491 0.960 . S
C504 C503 1.524 . S
C505 C502 1.403 . S
C505 C506 1.392 . S
C505 C509 1.495 . S
C506 C505 1.392 . S
C506 C507 1.385 . S
C506 C508 1.478 . S
C507 H501 0.930 . S
C507 C503 1.400 . S
C507 C506 1.385 . S
C508 C506 1.478 . S
C508 C510 1.381 . S
C508 C514 1.383 . S
C509 C505 1.495 . S
C509 H515 0.959 . S
C509 H516 0.961 . S
C509 H517 0.960 . S
C510 C508 1.381 . S
C510 C511 1.394 . S
C510 H518 0.930 . S
C511 C510 1.394 . S
C511 C512 1.383 . S
C511 H519 0.929 . S
C512 C511 1.383 . S
C512 C513 1.377 . S
C513 H497 0.930 . S
C513 C512 1.377 . S
C513 C514 1.379 . S
C514 H498 0.931 . S
C514 C508 1.383 . S
C514 C513 1.379 . S
H515 C509 0.959 . S
H516 C509 0.961 . S
H517 C509 0.960 . S
H518 C510 0.930 . S
H519 C511 0.929 . S
H520 C528 0.929 . S
H521 C530 0.930 . S
H522 C532 0.930 . S
H523 C535 0.929 . S
H524 C538 0.930 . S
H525 C540 0.960 . S
H526 C540 0.960 . S
H527 C540 0.960 . S
C528 H520 0.929 . S
C528 C529 1.377 . S
C528 C530 1.384 . S
C529 C528 1.377 . S
C529 C535 1.390 . S
C530 H521 0.930 . S
C530 C528 1.384 . S
C530 C531 1.372 . S
C531 C530 1.372 . S
C531 C532 1.400 . S
C531 C536 1.490 . S
C532 H522 0.930 . S
C532 C531 1.400 . S
C532 C535 1.386 . S
H533 C549 0.930 . S
H534 C550 0.931 . S
C535 H523 0.929 . S
C535 C529 1.390 . S
C535 C532 1.386 . S
C536 C531 1.490 . S
C536 C538 1.395 . S
C536 C539 1.403 . S
H537 C543 0.930 . S
C538 H524 0.930 . S
C538 C536 1.395 . S
C538 C541 1.403 . S
C539 C536 1.403 . S
C539 C540 1.524 . S
C539 C543 1.400 . S
C540 H525 0.960 . S
C540 H526 0.960 . S
C540 H527 0.960 . S
C540 C539 1.524 . S
C541 C538 1.403 . S
C541 C542 1.392 . S
C541 C545 1.495 . S
C542 C541 1.392 . S
C542 C543 1.385 . S
C542 C544 1.478 . S
C543 H537 0.930 . S
C543 C539 1.400 . S
C543 C542 1.385 . S
C544 C542 1.478 . S
C544 C546 1.381 . S
C544 C550 1.383 . S
C545 C541 1.495 . S
C545 H551 0.959 . S
C545 H552 0.961 . S
C545 H553 0.960 . S
C546 C544 1.381 . S
C546 C547 1.394 . S
C546 H554 0.930 . S
C547 C546 1.394 . S
C547 C548 1.383 . S
C547 H555 0.929 . S
C548 C547 1.383 . S
C548 C549 1.377 . S
C549 H533 0.930 . S
C549 C548 1.377 . S
C549 C550 1.379 . S
C550 H534 0.931 . S
C550 C544 1.383 . S
C550 C549 1.379 . S
H551 C545 0.959 . S
H552 C545 0.961 . S
H553 C545 0.960 . S
H554 C546 0.930 . S
H555 C547 0.929 . S
H556 C564 0.929 . S
H557 C566 0.930 . S
H558 C568 0.930 . S
H559 C571 0.929 . S
H560 C574 0.930 . S
H561 C576 0.960 . S
H562 C576 0.960 . S
H563 C576 0.960 . S
C564 H556 0.929 . S
C564 C565 1.377 . S
C564 C566 1.384 . S
C565 C564 1.377 . S
C565 C571 1.390 . S
C566 H557 0.930 . S
C566 C564 1.384 . S
C566 C567 1.372 . S
C567 C566 1.372 . S
C567 C568 1.400 . S
C567 C572 1.490 . S
C568 H558 0.930 . S
C568 C567 1.400 . S
C568 C571 1.386 . S
H569 C585 0.930 . S
H570 C586 0.931 . S
C571 H559 0.929 . S
C571 C565 1.390 . S
C571 C568 1.386 . S
C572 C567 1.490 . S
C572 C574 1.395 . S
C572 C575 1.403 . S
H573 C579 0.930 . S
C574 H560 0.930 . S
C574 C572 1.395 . S
C574 C577 1.403 . S
C575 C572 1.403 . S
C575 C576 1.524 . S
C575 C579 1.400 . S
C576 H561 0.960 . S
C576 H562 0.960 . S
C576 H563 0.960 . S
C576 C575 1.524 . S
C577 C574 1.403 . S
C577 C578 1.392 . S
C577 C581 1.495 . S
C578 C577 1.392 . S
C578 C579 1.385 . S
C578 C580 1.478 . S
C579 H573 0.930 . S
C579 C575 1.400 . S
C579 C578 1.385 . S
C580 C578 1.478 . S
C580 C582 1.381 . S
C580 C586 1.383 . S
C581 C577 1.495 . S
C581 H587 0.959 . S
C581 H588 0.961 . S
C581 H589 0.960 . S
C582 C580 1.381 . S
C582 C583 1.394 . S
C582 H590 0.930 . S
C583 C582 1.394 . S
C583 C584 1.383 . S
C583 H591 0.929 . S
C584 C583 1.383 . S
C584 C585 1.377 . S
C585 H569 0.930 . S
C585 C584 1.377 . S
C585 C586 1.379 . S
C586 H570 0.931 . S
C586 C580 1.383 . S
C586 C585 1.379 . S
H587 C581 0.959 . S
H588 C581 0.961 . S
H589 C581 0.960 . S
H590 C582 0.930 . S
H591 C583 0.929 . S
H592 C600 0.929 . S
H593 C602 0.930 . S
H594 C604 0.930 . S
H595 C607 0.929 . S
H596 C610 0.930 . S
H597 C612 0.960 . S
H598 C612 0.960 . S
H599 C612 0.960 . S
C600 H592 0.929 . S
C600 C601 1.377 . S
C600 C602 1.384 . S
C601 C600 1.377 . S
C601 C607 1.390 . S
C602 H593 0.930 . S
C602 C600 1.384 . S
C602 C603 1.372 . S
C603 C602 1.372 . S
C603 C604 1.400 . S
C603 C608 1.490 . S
C604 H594 0.930 . S
C604 C603 1.400 . S
C604 C607 1.386 . S
H605 C621 0.930 . S
H606 C622 0.931 . S
C607 H595 0.929 . S
C607 C601 1.390 . S
C607 C604 1.386 . S
C608 C603 1.490 . S
C608 C610 1.395 . S
C608 C611 1.403 . S
H609 C615 0.930 . S
C610 H596 0.930 . S
C610 C608 1.395 . S
C610 C613 1.403 . S
C611 C608 1.403 . S
C611 C612 1.524 . S
C611 C615 1.400 . S
C612 H597 0.960 . S
C612 H598 0.960 . S
C612 H599 0.960 . S
C612 C611 1.524 . S
C613 C610 1.403 . S
C613 C614 1.392 . S
C613 C617 1.495 . S
C614 C613 1.392 . S
C614 C615 1.385 . S
C614 C616 1.478 . S
C615 H609 0.930 . S
C615 C611 1.400 . S
C615 C614 1.385 . S
C616 C614 1.478 . S
C616 C618 1.381 . S
C616 C622 1.383 . S
C617 C613 1.495 . S
C617 H623 0.959 . S
C617 H624 0.961 . S
C617 H625 0.960 . S
C618 C616 1.381 . S
C618 C619 1.394 . S
C618 H626 0.930 . S
C619 C618 1.394 . S
C619 C620 1.383 . S
C619 H627 0.929 . S
C620 C619 1.383 . S
C620 C621 1.377 . S
C621 H605 0.930 . S
C621 C620 1.377 . S
C621 C622 1.379 . S
C622 H606 0.931 . S
C622 C616 1.383 . S
C622 C621 1.379 . S
H623 C617 0.959 . S
H624 C617 0.961 . S
H625 C617 0.960 . S
H626 C618 0.930 . S
H627 C619 0.929 . S
H628 C636 0.929 . S
H629 C638 0.930 . S
H630 C640 0.930 . S
H631 C643 0.929 . S
H632 C646 0.930 . S
H633 C648 0.960 . S
H634 C648 0.960 . S
H635 C648 0.960 . S
C636 H628 0.929 . S
C636 C637 1.377 . S
C636 C638 1.384 . S
C637 C636 1.377 . S
C637 C643 1.390 . S
C638 H629 0.930 . S
C638 C636 1.384 . S
C638 C639 1.372 . S
C639 C638 1.372 . S
C639 C640 1.400 . S
C639 C644 1.490 . S
C640 H630 0.930 . S
C640 C639 1.400 . S
C640 C643 1.386 . S
H641 C657 0.930 . S
H642 C658 0.931 . S
C643 H631 0.929 . S
C643 C637 1.390 . S
C643 C640 1.386 . S
C644 C639 1.490 . S
C644 C646 1.395 . S
C644 C647 1.403 . S
H645 C651 0.930 . S
C646 H632 0.930 . S
C646 C644 1.395 . S
C646 C649 1.403 . S
C647 C644 1.403 . S
C647 C648 1.524 . S
C647 C651 1.400 . S
C648 H633 0.960 . S
C648 H634 0.960 . S
C648 H635 0.960 . S
C648 C647 1.524 . S
C649 C646 1.403 . S
C649 C650 1.392 . S
C649 C653 1.495 . S
C650 C649 1.392 . S
C650 C651 1.385 . S
C650 C652 1.478 . S
C651 H645 0.930 . S
C651 C647 1.400 . S
C651 C650 1.385 . S
C652 C650 1.478 . S
C652 C654 1.381 . S
C652 C658 1.383 . S
C653 C649 1.495 . S
C653 H659 0.959 . S
C653 H660 0.961 . S
C653 H661 0.960 . S
C654 C652 1.381 . S
C654 C655 1.394 . S
C654 H662 0.930 . S
C655 C654 1.394 . S
C655 C656 1.383 . S
C655 H663 0.929 . S
C656 C655 1.383 . S
C656 C657 1.377 . S
C657 H641 0.930 . S
C657 C656 1.377 . S
C657 C658 1.379 . S
C658 H642 0.931 . S
C658 C652 1.383 . S
C658 C657 1.379 . S
H659 C653 0.959 . S
H660 C653 0.961 . S
H661 C653 0.960 . S
H662 C654 0.930 . S
H663 C655 0.929 . S
H664 C672 0.929 . S
H665 C674 0.930 . S
H666 C676 0.930 . S
H667 C679 0.929 . S
H668 C682 0.930 . S
H669 C684 0.960 . S
H670 C684 0.960 . S
H671 C684 0.960 . S
C672 H664 0.929 . S
C672 C673 1.377 . S
C672 C674 1.384 . S
C673 C672 1.377 . S
C673 C679 1.390 . S
C674 H665 0.930 . S
C674 C672 1.384 . S
C674 C675 1.372 . S
C675 C674 1.372 . S
C675 C676 1.400 . S
C675 C680 1.490 . S
C676 H666 0.930 . S
C676 C675 1.400 . S
C676 C679 1.386 . S
H677 C693 0.930 . S
H678 C694 0.931 . S
C679 H667 0.929 . S
C679 C673 1.390 . S
C679 C676 1.386 . S
C680 C675 1.490 . S
C680 C682 1.395 . S
C680 C683 1.403 . S
H681 C687 0.930 . S
C682 H668 0.930 . S
C682 C680 1.395 . S
C682 C685 1.403 . S
C683 C680 1.403 . S
C683 C684 1.524 . S
C683 C687 1.400 . S
C684 H669 0.960 . S
C684 H670 0.960 . S
C684 H671 0.960 . S
C684 C683 1.524 . S
C685 C682 1.403 . S
C685 C686 1.392 . S
C685 C689 1.495 . S
C686 C685 1.392 . S
C686 C687 1.385 . S
C686 C688 1.478 . S
C687 H681 0.930 . S
C687 C683 1.400 . S
C687 C686 1.385 . S
C688 C686 1.478 . S
C688 C690 1.381 . S
C688 C694 1.383 . S
C689 C685 1.495 . S
C689 H695 0.959 . S
C689 H696 0.961 . S
C689 H697 0.960 . S
C690 C688 1.381 . S
C690 C691 1.394 . S
C690 H698 0.930 . S
C691 C690 1.394 . S
C691 C692 1.383 . S
C691 H699 0.929 . S
C692 C691 1.383 . S
C692 C693 1.377 . S
C693 H677 0.930 . S
C693 C692 1.377 . S
C693 C694 1.379 . S
C694 H678 0.931 . S
C694 C688 1.383 . S
C694 C693 1.379 . S
H695 C689 0.959 . S
H696 C689 0.961 . S
H697 C689 0.960 . S
H698 C690 0.930 . S
H699 C691 0.929 . S
H700 C708 0.929 . S
H701 C710 0.930 . S
H702 C712 0.930 . S
H703 C715 0.929 . S
H704 C718 0.930 . S
H705 C720 0.960 . S
H706 C720 0.960 . S
H707 C720 0.960 . S
C708 H700 0.929 . S
C708 C709 1.377 . S
C708 C710 1.384 . S
C709 C708 1.377 . S
C709 C715 1.390 . S
C710 H701 0.930 . S
C710 C708 1.384 . S
C710 C711 1.372 . S
C711 C710 1.372 . S
C711 C712 1.400 . S
C711 C716 1.490 . S
C712 H702 0.930 . S
C712 C711 1.400 . S
C712 C715 1.386 . S
H713 C729 0.930 . S
H714 C730 0.931 . S
C715 H703 0.929 . S
C715 C709 1.390 . S
C715 C712 1.386 . S
C716 C711 1.490 . S
C716 C718 1.395 . S
C716 C719 1.403 . S
H717 C723 0.930 . S
C718 H704 0.930 . S
C718 C716 1.395 . S
C718 C721 1.403 . S
C719 C716 1.403 . S
C719 C720 1.524 . S
C719 C723 1.400 . S
C720 H705 0.960 . S
C720 H706 0.960 . S
C720 H707 0.960 . S
C720 C719 1.524 . S
C721 C718 1.403 . S
C721 C722 1.392 . S
C721 C725 1.495 . S
C722 C721 1.392 . S
C722 C723 1.385 . S
C722 C724 1.478 . S
C723 H717 0.930 . S
C723 C719 1.400 . S
C723 C722 1.385 . S
C724 C722 1.478 . S
C724 C726 1.381 . S
C724 C730 1.383 . S
C725 C721 1.495 . S
C725 H731 0.959 . S
C725 H732 0.961 . S
C725 H733 0.960 . S
C726 C724 1.381 . S
C726 C727 1.394 . S
C726 H734 0.930 . S
C727 C726 1.394 . S
C727 C728 1.383 . S
C727 H735 0.929 . S
C728 C727 1.383 . S
C728 C729 1.377 . S
C729 H713 0.930 . S
C729 C728 1.377 . S
C729 C730 1.379 . S
C730 H714 0.931 . S
C730 C724 1.383 . S
C730 C729 1.379 . S
H731 C725 0.959 . S
H732 C725 0.961 . S
H733 C725 0.960 . S
H734 C726 0.930 . S
H735 C727 0.929 . S
H736 C744 0.929 . S
H737 C746 0.930 . S
H738 C748 0.930 . S
H739 C751 0.929 . S
H740 C754 0.930 . S
H741 C756 0.960 . S
H742 C756 0.960 . S
H743 C756 0.960 . S
C744 H736 0.929 . S
C744 C745 1.377 . S
C744 C746 1.384 . S
C745 C744 1.377 . S
C745 C751 1.390 . S
C746 H737 0.930 . S
C746 C744 1.384 . S
C746 C747 1.372 . S
C747 C746 1.372 . S
C747 C748 1.400 . S
C747 C752 1.490 . S
C748 H738 0.930 . S
C748 C747 1.400 . S
C748 C751 1.386 . S
H749 C765 0.930 . S
H750 C766 0.931 . S
C751 H739 0.929 . S
C751 C745 1.390 . S
C751 C748 1.386 . S
C752 C747 1.490 . S
C752 C754 1.395 . S
C752 C755 1.403 . S
H753 C759 0.930 . S
C754 H740 0.930 . S
C754 C752 1.395 . S
C754 C757 1.403 . S
C755 C752 1.403 . S
C755 C756 1.524 . S
C755 C759 1.400 . S
C756 H741 0.960 . S
C756 H742 0.960 . S
C756 H743 0.960 . S
C756 C755 1.524 . S
C757 C754 1.403 . S
C757 C758 1.392 . S
C757 C761 1.495 . S
C758 C757 1.392 . S
C758 C759 1.385 . S
C758 C760 1.478 . S
C759 H753 0.930 . S
C759 C755 1.400 . S
C759 C758 1.385 . S
C760 C758 1.478 . S
C760 C762 1.381 . S
C760 C766 1.383 . S
C761 C757 1.495 . S
C761 H767 0.959 . S
C761 H768 0.961 . S
C761 H769 0.960 . S
C762 C760 1.381 . S
C762 C763 1.394 . S
C762 H770 0.930 . S
C763 C762 1.394 . S
C763 C764 1.383 . S
C763 H771 0.929 . S
C764 C763 1.383 . S
C764 C765 1.377 . S
C765 H749 0.930 . S
C765 C764 1.377 . S
C765 C766 1.379 . S
C766 H750 0.931 . S
C766 C760 1.383 . S
C766 C765 1.379 . S
H767 C761 0.959 . S
H768 C761 0.961 . S
H769 C761 0.960 . S
H770 C762 0.930 . S
H771 C763 0.929 . S
H772 C780 0.929 . S
H773 C782 0.930 . S
H774 C784 0.930 . S
H775 C787 0.929 . S
H776 C790 0.930 . S
H777 C792 0.960 . S
H778 C792 0.960 . S
H779 C792 0.960 . S
C780 H772 0.929 . S
C780 C781 1.377 . S
C780 C782 1.384 . S
C781 C780 1.377 . S
C781 C787 1.390 . S
C782 H773 0.930 . S
C782 C780 1.384 . S
C782 C783 1.372 . S
C783 C782 1.372 . S
C783 C784 1.400 . S
C783 C788 1.490 . S
C784 H774 0.930 . S
C784 C783 1.400 . S
C784 C787 1.386 . S
H785 C801 0.930 . S
H786 C802 0.931 . S
C787 H775 0.929 . S
C787 C781 1.390 . S
C787 C784 1.386 . S
C788 C783 1.490 . S
C788 C790 1.395 . S
C788 C791 1.403 . S
H789 C795 0.930 . S
C790 H776 0.930 . S
C790 C788 1.395 . S
C790 C793 1.403 . S
C791 C788 1.403 . S
C791 C792 1.524 . S
C791 C795 1.400 . S
C792 H777 0.960 . S
C792 H778 0.960 . S
C792 H779 0.960 . S
C792 C791 1.524 . S
C793 C790 1.403 . S
C793 C794 1.392 . S
C793 C797 1.495 . S
C794 C793 1.392 . S
C794 C795 1.385 . S
C794 C796 1.478 . S
C795 H789 0.930 . S
C795 C791 1.400 . S
C795 C794 1.385 . S
C796 C794 1.478 . S
C796 C798 1.381 . S
C796 C802 1.383 . S
C797 C793 1.495 . S
C797 H803 0.959 . S
C797 H804 0.961 . S
C797 H805 0.960 . S
C798 C796 1.381 . S
C798 C799 1.394 . S
C798 H806 0.930 . S
C799 C798 1.394 . S
C799 C800 1.383 . S
C799 H807 0.929 . S
C800 C799 1.383 . S
C800 C801 1.377 . S
C801 H785 0.930 . S
C801 C800 1.377 . S
C801 C802 1.379 . S
C802 H786 0.931 . S
C802 C796 1.383 . S
C802 C801 1.379 . S
H803 C797 0.959 . S
H804 C797 0.961 . S
H805 C797 0.960 . S
H806 C798 0.930 . S
H807 C799 0.929 . S
H808 C816 0.929 . S
H809 C818 0.930 . S
H810 C820 0.930 . S
H811 C823 0.929 . S
H812 C826 0.930 . S
H813 C828 0.960 . S
H814 C828 0.960 . S
H815 C828 0.960 . S
C816 H808 0.929 . S
C816 C817 1.377 . S
C816 C818 1.384 . S
C817 C816 1.377 . S
C817 C823 1.390 . S
C818 H809 0.930 . S
C818 C816 1.384 . S
C818 C819 1.372 . S
C819 C818 1.372 . S
C819 C820 1.400 . S
C819 C824 1.490 . S
C820 H810 0.930 . S
C820 C819 1.400 . S
C820 C823 1.386 . S
H821 C837 0.930 . S
H822 C838 0.931 . S
C823 H811 0.929 . S
C823 C817 1.390 . S
C823 C820 1.386 . S
C824 C819 1.490 . S
C824 C826 1.395 . S
C824 C827 1.403 . S
H825 C831 0.930 . S
C826 H812 0.930 . S
C826 C824 1.395 . S
C826 C829 1.403 . S
C827 C824 1.403 . S
C827 C828 1.524 . S
C827 C831 1.400 . S
C828 H813 0.960 . S
C828 H814 0.960 . S
C828 H815 0.960 . S
C828 C827 1.524 . S
C829 C826 1.403 . S
C829 C830 1.392 . S
C829 C833 1.495 . S
C830 C829 1.392 . S
C830 C831 1.385 . S
C830 C832 1.478 . S
C831 H825 0.930 . S
C831 C827 1.400 . S
C831 C830 1.385 . S
C832 C830 1.478 . S
C832 C834 1.381 . S
C832 C838 1.383 . S
C833 C829 1.495 . S
C833 H839 0.959 . S
C833 H840 0.961 . S
C833 H841 0.960 . S
C834 C832 1.381 . S
C834 C835 1.394 . S
C834 H842 0.930 . S
C835 C834 1.394 . S
C835 C836 1.383 . S
C835 H843 0.929 . S
C836 C835 1.383 . S
C836 C837 1.377 . S
C837 H821 0.930 . S
C837 C836 1.377 . S
C837 C838 1.379 . S
C838 H822 0.931 . S
C838 C832 1.383 . S
C838 C837 1.379 . S
H839 C833 0.959 . S
H840 C833 0.961 . S
H841 C833 0.960 . S
H842 C834 0.930 . S
H843 C835 0.929 . S
H844 C852 0.929 . S
H845 C854 0.930 . S
H846 C856 0.930 . S
H847 C859 0.929 . S
H848 C862 0.930 . S
H849 C864 0.960 . S
H850 C864 0.960 . S
H851 C864 0.960 . S
C852 H844 0.929 . S
C852 C853 1.377 . S
C852 C854 1.384 . S
C853 C852 1.377 . S
C853 C859 1.390 . S
C854 H845 0.930 . S
C854 C852 1.384 . S
C854 C855 1.372 . S
C855 C854 1.372 . S
C855 C856 1.400 . S
C855 C860 1.490 . S
C856 H846 0.930 . S
C856 C855 1.400 . S
C856 C859 1.386 . S
H857 C873 0.930 . S
H858 C874 0.931 . S
C859 H847 0.929 . S
C859 C853 1.390 . S
C859 C856 1.386 . S
C860 C855 1.490 . S
C860 C862 1.395 . S
C860 C863 1.403 . S
H861 C867 0.930 . S
C862 H848 0.930 . S
C862 C860 1.395 . S
C862 C865 1.403 . S
C863 C860 1.403 . S
C863 C864 1.524 . S
C863 C867 1.400 . S
C864 H849 0.960 . S
C864 H850 0.960 . S
C864 H851 0.960 . S
C864 C863 1.524 . S
C865 C862 1.403 . S
C865 C866 1.392 . S
C865 C869 1.495 . S
C866 C865 1.392 . S
C866 C867 1.385 . S
C866 C868 1.478 . S
C867 H861 0.930 . S
C867 C863 1.400 . S
C867 C866 1.385 . S
C868 C866 1.478 . S
C868 C870 1.381 . S
C868 C874 1.383 . S
C869 C865 1.495 . S
C869 H875 0.959 . S
C869 H876 0.961 . S
C869 H877 0.960 . S
C870 C868 1.381 . S
C870 C871 1.394 . S
C870 H878 0.930 . S
C871 C870 1.394 . S
C871 C872 1.383 . S
C871 H879 0.929 . S
C872 C871 1.383 . S
C872 C873 1.377 . S
C873 H857 0.930 . S
C873 C872 1.377 . S
C873 C874 1.379 . S
C874 H858 0.931 . S
C874 C868 1.383 . S
C874 C873 1.379 . S
H875 C869 0.959 . S
H876 C869 0.961 . S
H877 C869 0.960 . S
H878 C870 0.930 . S
H879 C871 0.929 . S
H880 C888 0.929 . S
H881 C890 0.930 . S
H882 C892 0.930 . S
H883 C895 0.929 . S
H884 C898 0.930 . S
H885 C900 0.960 . S
H886 C900 0.960 . S
H887 C900 0.960 . S
C888 H880 0.929 . S
C888 C889 1.377 . S
C888 C890 1.384 . S
C889 C888 1.377 . S
C889 C895 1.390 . S
C890 H881 0.930 . S
C890 C888 1.384 . S
C890 C891 1.372 . S
C891 C890 1.372 . S
C891 C892 1.400 . S
C891 C896 1.490 . S
C892 H882 0.930 . S
C892 C891 1.400 . S
C892 C895 1.386 . S
H893 C909 0.930 . S
H894 C910 0.931 . S
C895 H883 0.929 . S
C895 C889 1.390 . S
C895 C892 1.386 . S
C896 C891 1.490 . S
C896 C898 1.395 . S
C896 C899 1.403 . S
H897 C903 0.930 . S
C898 H884 0.930 . S
C898 C896 1.395 . S
C898 C901 1.403 . S
C899 C896 1.403 . S
C899 C900 1.524 . S
C899 C903 1.400 . S
C900 H885 0.960 . S
C900 H886 0.960 . S
C900 H887 0.960 . S
C900 C899 1.524 . S
C901 C898 1.403 . S
C901 C902 1.392 . S
C901 C905 1.495 . S
C902 C901 1.392 . S
C902 C903 1.385 . S
C902 C904 1.478 . S
C903 H897 0.930 . S
C903 C899 1.400 . S
C903 C902 1.385 . S
C904 C902 1.478 . S
C904 C906 1.381 . S
C904 C910 1.383 . S
C905 C901 1.495 . S
C905 H911 0.959 . S
C905 H912 0.961 . S
C905 H913 0.960 . S
C906 C904 1.381 . S
C906 C907 1.394 . S
C906 H914 0.930 . S
C907 C906 1.394 . S
C907 C908 1.383 . S
C907 H915 0.929 . S
C908 C907 1.383 . S
C908 C909 1.377 . S
C909 H893 0.930 . S
C909 C908 1.377 . S
C909 C910 1.379 . S
C910 H894 0.931 . S
C910 C904 1.383 . S
C910 C909 1.379 . S
H911 C905 0.959 . S
H912 C905 0.961 . S
H913 C905 0.960 . S
H914 C906 0.930 . S
H915 C907 0.929 . S
H916 C924 0.929 . S
H917 C926 0.930 . S
H918 C928 0.930 . S
H919 C931 0.929 . S
H920 C934 0.930 . S
H921 C936 0.960 . S
H922 C936 0.960 . S
H923 C936 0.960 . S
C924 H916 0.929 . S
C924 C925 1.377 . S
C924 C926 1.384 . S
C925 C924 1.377 . S
C925 C931 1.390 . S
C926 H917 0.930 . S
C926 C924 1.384 . S
C926 C927 1.372 . S
C927 C926 1.372 . S
C927 C928 1.400 . S
C927 C932 1.490 . S
C928 H918 0.930 . S
C928 C927 1.400 . S
C928 C931 1.386 . S
H929 C945 0.930 . S
H930 C946 0.931 . S
C931 H919 0.929 . S
C931 C925 1.390 . S
C931 C928 1.386 . S
C932 C927 1.490 . S
C932 C934 1.395 . S
C932 C935 1.403 . S
H933 C939 0.930 . S
C934 H920 0.930 . S
C934 C932 1.395 . S
C934 C937 1.403 . S
C935 C932 1.403 . S
C935 C936 1.524 . S
C935 C939 1.400 . S
C936 H921 0.960 . S
C936 H922 0.960 . S
C936 H923 0.960 . S
C936 C935 1.524 . S
C937 C934 1.403 . S
C937 C938 1.392 . S
C937 C941 1.495 . S
C938 C937 1.392 . S
C938 C939 1.385 . S
C938 C940 1.478 . S
C939 H933 0.930 . S
C939 C935 1.400 . S
C939 C938 1.385 . S
C940 C938 1.478 . S
C940 C942 1.381 . S
C940 C946 1.383 . S
C941 C937 1.495 . S
C941 H947 0.959 . S
C941 H948 0.961 . S
C941 H949 0.960 . S
C942 C940 1.381 . S
C942 C943 1.394 . S
C942 H950 0.930 . S
C943 C942 1.394 . S
C943 C944 1.383 . S
C943 H951 0.929 . S
C944 C943 1.383 . S
C944 C945 1.377 . S
C945 H929 0.930 . S
C945 C944 1.377 . S
C945 C946 1.379 . S
C946 H930 0.931 . S
C946 C940 1.383 . S
C946 C945 1.379 . S
H947 C941 0.959 . S
H948 C941 0.961 . S
H949 C941 0.960 . S
H950 C942 0.930 . S
H951 C943 0.929 . S
H952 C960 0.929 . S
H953 C962 0.930 . S
H954 C964 0.930 . S
H955 C967 0.929 . S
H956 C970 0.930 . S
H957 C972 0.960 . S
H958 C972 0.960 . S
H959 C972 0.960 . S
C960 H952 0.929 . S
C960 C961 1.377 . S
C960 C962 1.384 . S
C961 C960 1.377 . S
C961 C967 1.390 . S
C962 H953 0.930 . S
C962 C960 1.384 . S
C962 C963 1.372 . S
C963 C962 1.372 . S
C963 C964 1.400 . S
C963 C968 1.490 . S
C964 H954 0.930 . S
C964 C963 1.400 . S
C964 C967 1.386 . S
H965 C981 0.930 . S
H966 C982 0.931 . S
C967 H955 0.929 . S
C967 C961 1.390 . S
C967 C964 1.386 . S
C968 C963 1.490 . S
C968 C970 1.395 . S
C968 C971 1.403 . S
H969 C975 0.930 . S
C970 H956 0.930 . S
C970 C968 1.395 . S
C970 C973 1.403 . S
C971 C968 1.403 . S
C971 C972 1.524 . S
C971 C975 1.400 . S
C972 H957 0.960 . S
C972 H958 0.960 . S
C972 H959 0.960 . S
C972 C971 1.524 . S
C973 C970 1.403 . S
C973 C974 1.392 . S
C973 C977 1.495 . S
C974 C973 1.392 . S
C974 C975 1.385 . S
C974 C976 1.478 . S
C975 H969 0.930 . S
C975 C971 1.400 . S
C975 C974 1.385 . S
C976 C974 1.478 . S
C976 C978 1.381 . S
C976 C982 1.383 . S
C977 C973 1.495 . S
C977 H983 0.959 . S
C977 H984 0.961 . S
C977 H985 0.960 . S
C978 C976 1.381 . S
C978 C979 1.394 . S
C978 H986 0.930 . S
C979 C978 1.394 . S
C979 C980 1.383 . S
C979 H987 0.929 . S
C980 C979 1.383 . S
C980 C981 1.377 . S
C981 H965 0.930 . S
C981 C980 1.377 . S
C981 C982 1.379 . S
C982 H966 0.931 . S
C982 C976 1.383 . S
C982 C981 1.379 . S
H983 C977 0.959 . S
H984 C977 0.961 . S
H985 C977 0.960 . S
H986 C978 0.930 . S
H987 C979 0.929 . S
H988 C996 0.929 . S
H989 C998 0.930 . S
H990 C1000 0.930 . S
H991 C1003 0.929 . S
H992 C1006 0.930 . S
H993 C1008 0.960 . S
H994 C1008 0.960 . S
H995 C1008 0.960 . S
C996 H988 0.929 . S
C996 C997 1.377 . S
C996 C998 1.384 . S
C997 C996 1.377 . S
C997 C1003 1.390 . S
C998 H989 0.930 . S
C998 C996 1.384 . S
C998 C999 1.372 . S
C999 C998 1.372 . S
C999 C1000 1.400 . S
C999 C1004 1.490 . S
C1000 H990 0.930 . S
C1000 C999 1.400 . S
C1000 C1003 1.386 . S
H1001 C1017 0.930 . S
H1002 C1018 0.931 . S
C1003 H991 0.929 . S
C1003 C997 1.390 . S
C1003 C1000 1.386 . S
C1004 C999 1.490 . S
C1004 C1006 1.395 . S
C1004 C1007 1.403 . S
H1005 C1011 0.930 . S
C1006 H992 0.930 . S
C1006 C1004 1.395 . S
C1006 C1009 1.403 . S
C1007 C1004 1.403 . S
C1007 C1008 1.524 . S
C1007 C1011 1.400 . S
C1008 H993 0.960 . S
C1008 H994 0.960 . S
C1008 H995 0.960 . S
C1008 C1007 1.524 . S
C1009 C1006 1.403 . S
C1009 C1010 1.392 . S
C1009 C1013 1.495 . S
C1010 C1009 1.392 . S
C1010 C1011 1.385 . S
C1010 C1012 1.478 . S
C1011 H1005 0.930 . S
C1011 C1007 1.400 . S
C1011 C1010 1.385 . S
C1012 C1010 1.478 . S
C1012 C1014 1.381 . S
C1012 C1018 1.383 . S
C1013 C1009 1.495 . S
C1013 H1019 0.959 . S
C1013 H1020 0.961 . S
C1013 H1021 0.960 . S
C1014 C1012 1.381 . S
C1014 C1015 1.394 . S
C1014 H1022 0.930 . S
C1015 C1014 1.394 . S
C1015 C1016 1.383 . S
C1015 H1023 0.929 . S
C1016 C1015 1.383 . S
C1016 C1017 1.377 . S
C1017 H1001 0.930 . S
C1017 C1016 1.377 . S
C1017 C1018 1.379 . S
C1018 H1002 0.931 . S
C1018 C1012 1.383 . S
C1018 C1017 1.379 . S
H1019 C1013 0.959 . S
H1020 C1013 0.961 . S
H1021 C1013 0.960 . S
H1022 C1014 0.930 . S
H1023 C1015 0.929 . S
H1024 C1032 0.929 . S
H1025 C1034 0.930 . S
H1026 C1036 0.930 . S
H1027 C1039 0.929 . S
H1028 C1042 0.930 . S
H1029 C1044 0.960 . S
H1030 C1044 0.960 . S
H1031 C1044 0.960 . S
C1032 H1024 0.929 . S
C1032 C1033 1.377 . S
C1032 C1034 1.384 . S
C1033 C1032 1.377 . S
C1033 C1039 1.390 . S
C1034 H1025 0.930 . S
C1034 C1032 1.384 . S
C1034 C1035 1.372 . S
C1035 C1034 1.372 . S
C1035 C1036 1.400 . S
C1035 C1040 1.490 . S
C1036 H1026 0.930 . S
C1036 C1035 1.400 . S
C1036 C1039 1.386 . S
H1037 C1053 0.930 . S
H1038 C1054 0.931 . S
C1039 H1027 0.929 . S
C1039 C1033 1.390 . S
C1039 C1036 1.386 . S
C1040 C1035 1.490 . S
C1040 C1042 1.395 . S
C1040 C1043 1.403 . S
H1041 C1047 0.930 . S
C1042 H1028 0.930 . S
C1042 C1040 1.395 . S
C1042 C1045 1.403 1_655 S
C1043 C1040 1.403 . S
C1043 C1044 1.524 . S
C1043 C1047 1.400 1_655 S
C1044 H1029 0.960 . S
C1044 H1030 0.960 . S
C1044 H1031 0.960 . S
C1044 C1043 1.524 . S
C1045 C1042 1.403 1_455 S
C1045 C1046 1.392 . S
C1045 C1049 1.495 . S
C1046 C1045 1.392 . S
C1046 C1047 1.385 . S
C1046 C1048 1.478 . S
C1047 H1041 0.930 . S
C1047 C1043 1.400 1_455 S
C1047 C1046 1.385 . S
C1048 C1046 1.478 . S
C1048 C1050 1.381 . S
C1048 C1054 1.383 . S
C1049 C1045 1.495 . S
C1049 H1055 0.959 . S
C1049 H1056 0.961 . S
C1049 H1057 0.960 . S
C1050 C1048 1.381 . S
C1050 C1051 1.394 . S
C1050 H1058 0.930 . S
C1051 C1050 1.394 . S
C1051 C1052 1.383 . S
C1051 H1059 0.929 . S
C1052 C1051 1.383 . S
C1052 C1053 1.377 . S
C1053 H1037 0.930 . S
C1053 C1052 1.377 . S
C1053 C1054 1.379 . S
C1054 H1038 0.931 . S
C1054 C1048 1.383 . S
C1054 C1053 1.379 . S
H1055 C1049 0.959 . S
H1056 C1049 0.961 . S
H1057 C1049 0.960 . S
H1058 C1050 0.930 . S
H1059 C1051 0.929 . S
H1060 C1068 0.929 . S
H1061 C1070 0.930 . S
H1062 C1072 0.930 . S
H1063 C1075 0.929 . S
H1064 C1078 0.930 . S
H1065 C1080 0.960 . S
H1066 C1080 0.960 . S
H1067 C1080 0.960 . S
C1068 H1060 0.929 . S
C1068 C1069 1.377 . S
C1068 C1070 1.384 . S
C1069 C1068 1.377 . S
C1069 C1075 1.390 . S
C1070 H1061 0.930 . S
C1070 C1068 1.384 . S
C1070 C1071 1.372 . S
C1071 C1070 1.372 . S
C1071 C1072 1.400 . S
C1071 C1076 1.490 . S
C1072 H1062 0.930 . S
C1072 C1071 1.400 . S
C1072 C1075 1.386 . S
H1073 C1089 0.930 . S
H1074 C1090 0.931 . S
C1075 H1063 0.929 . S
C1075 C1069 1.390 . S
C1075 C1072 1.386 . S
C1076 C1071 1.490 . S
C1076 C1078 1.395 . S
C1076 C1079 1.403 . S
H1077 C1083 0.930 . S
C1078 H1064 0.930 . S
C1078 C1076 1.395 . S
C1078 C1081 1.403 1_545 S
C1079 C1076 1.403 . S
C1079 C1080 1.524 . S
C1079 C1083 1.400 1_545 S
C1080 H1065 0.960 . S
C1080 H1066 0.960 . S
C1080 H1067 0.960 . S
C1080 C1079 1.524 . S
C1081 C1078 1.403 1_565 S
C1081 C1082 1.392 . S
C1081 C1085 1.495 . S
C1082 C1081 1.392 . S
C1082 C1083 1.385 . S
C1082 C1084 1.478 . S
C1083 H1077 0.930 . S
C1083 C1079 1.400 1_565 S
C1083 C1082 1.385 . S
C1084 C1082 1.478 . S
C1084 C1086 1.381 . S
C1084 C1090 1.383 . S
C1085 C1081 1.495 . S
C1085 H1091 0.959 . S
C1085 H1092 0.961 . S
C1085 H1093 0.960 . S
C1086 C1084 1.381 . S
C1086 C1087 1.394 . S
C1086 H1094 0.930 . S
C1087 C1086 1.394 . S
C1087 C1088 1.383 . S
C1087 H1095 0.929 . S
C1088 C1087 1.383 . S
C1088 C1089 1.377 . S
C1089 H1073 0.930 . S
C1089 C1088 1.377 . S
C1089 C1090 1.379 . S
C1090 H1074 0.931 . S
C1090 C1084 1.383 . S
C1090 C1089 1.379 . S
H1091 C1085 0.959 . S
H1092 C1085 0.961 . S
H1093 C1085 0.960 . S
H1094 C1086 0.930 . S
H1095 C1087 0.929 . S
H1096 C1104 0.929 . S
H1097 C1106 0.930 . S
H1098 C1108 0.930 . S
H1099 C1111 0.929 . S
H1100 C1114 0.930 . S
H1101 C1116 0.960 . S
H1102 C1116 0.960 . S
H1103 C1116 0.960 . S
C1104 H1096 0.929 . S
C1104 C1105 1.377 . S
C1104 C1106 1.384 . S
C1105 C1104 1.377 . S
C1105 C1111 1.390 . S
C1106 H1097 0.930 . S
C1106 C1104 1.384 . S
C1106 C1107 1.372 . S
C1107 C1106 1.372 . S
C1107 C1108 1.400 . S
C1107 C1112 1.490 . S
C1108 H1098 0.930 . S
C1108 C1107 1.400 . S
C1108 C1111 1.386 . S
H1109 C1125 0.930 . S
H1110 C1126 0.931 . S
C1111 H1099 0.929 . S
C1111 C1105 1.390 . S
C1111 C1108 1.386 . S
C1112 C1107 1.490 . S
C1112 C1114 1.395 . S
C1112 C1115 1.403 . S
H1113 C1119 0.930 . S
C1114 H1100 0.930 . S
C1114 C1112 1.395 . S
C1114 C1117 1.403 1_455 S
C1115 C1112 1.403 . S
C1115 C1116 1.524 . S
C1115 C1119 1.400 1_455 S
C1116 H1101 0.960 . S
C1116 H1102 0.960 . S
C1116 H1103 0.960 . S
C1116 C1115 1.524 . S
C1117 C1114 1.403 1_655 S
C1117 C1118 1.392 . S
C1117 C1121 1.495 . S
C1118 C1117 1.392 . S
C1118 C1119 1.385 . S
C1118 C1120 1.478 . S
C1119 H1113 0.930 . S
C1119 C1115 1.400 1_655 S
C1119 C1118 1.385 . S
C1120 C1118 1.478 . S
C1120 C1122 1.381 . S
C1120 C1126 1.383 . S
C1121 C1117 1.495 . S
C1121 H1127 0.959 . S
C1121 H1128 0.961 . S
C1121 H1129 0.960 . S
C1122 C1120 1.381 . S
C1122 C1123 1.394 . S
C1122 H1130 0.930 . S
C1123 C1122 1.394 . S
C1123 C1124 1.383 . S
C1123 H1131 0.929 . S
C1124 C1123 1.383 . S
C1124 C1125 1.377 . S
C1125 H1109 0.930 . S
C1125 C1124 1.377 . S
C1125 C1126 1.379 . S
C1126 H1110 0.931 . S
C1126 C1120 1.383 . S
C1126 C1125 1.379 . S
H1127 C1121 0.959 . S
H1128 C1121 0.961 . S
H1129 C1121 0.960 . S
H1130 C1122 0.930 . S
H1131 C1123 0.929 . S
H1132 C1140 0.929 . S
H1133 C1142 0.930 . S
H1134 C1144 0.930 . S
H1135 C1147 0.929 . S
H1136 C1150 0.930 . S
H1137 C1152 0.960 . S
H1138 C1152 0.960 . S
H1139 C1152 0.960 . S
C1140 H1132 0.929 . S
C1140 C1141 1.377 . S
C1140 C1142 1.384 . S
C1141 C1140 1.377 . S
C1141 C1147 1.390 . S
C1142 H1133 0.930 . S
C1142 C1140 1.384 . S
C1142 C1143 1.372 . S
C1143 C1142 1.372 . S
C1143 C1144 1.400 . S
C1143 C1148 1.490 . S
C1144 H1134 0.930 . S
C1144 C1143 1.400 . S
C1144 C1147 1.386 . S
H1145 C1161 0.930 . S
H1146 C1162 0.931 . S
C1147 H1135 0.929 . S
C1147 C1141 1.390 . S
C1147 C1144 1.386 . S
C1148 C1143 1.490 . S
C1148 C1150 1.395 . S
C1148 C1151 1.403 . S
H1149 C1155 0.930 . S
C1150 H1136 0.930 . S
C1150 C1148 1.395 . S
C1150 C1153 1.403 1_565 S
C1151 C1148 1.403 . S
C1151 C1152 1.524 . S
C1151 C1155 1.400 1_565 S
C1152 H1137 0.960 . S
C1152 H1138 0.960 . S
C1152 H1139 0.960 . S
C1152 C1151 1.524 . S
C1153 C1150 1.403 1_545 S
C1153 C1154 1.392 . S
C1153 C1157 1.495 . S
C1154 C1153 1.392 . S
C1154 C1155 1.385 . S
C1154 C1156 1.478 . S
C1155 H1149 0.930 . S
C1155 C1151 1.400 1_545 S
C1155 C1154 1.385 . S
C1156 C1154 1.478 . S
C1156 C1158 1.381 . S
C1156 C1162 1.383 . S
C1157 C1153 1.495 . S
C1157 H1163 0.959 . S
C1157 H1164 0.961 . S
C1157 H1165 0.960 . S
C1158 C1156 1.381 . S
C1158 C1159 1.394 . S
C1158 H1166 0.930 . S
C1159 C1158 1.394 . S
C1159 C1160 1.383 . S
C1159 H1167 0.929 . S
C1160 C1159 1.383 . S
C1160 C1161 1.377 . S
C1161 H1145 0.930 . S
C1161 C1160 1.377 . S
C1161 C1162 1.379 . S
C1162 H1146 0.931 . S
C1162 C1156 1.383 . S
C1162 C1161 1.379 . S
H1163 C1157 0.959 . S
H1164 C1157 0.961 . S
H1165 C1157 0.960 . S
H1166 C1158 0.930 . S
H1167 C1159 0.929 . S
H1168 C1176 0.929 . S
H1169 C1178 0.930 . S
H1170 C1180 0.930 . S
H1171 C1183 0.929 . S
H1172 C1186 0.930 . S
H1173 C1188 0.960 . S
H1174 C1188 0.960 . S
H1175 C1188 0.960 . S
C1176 H1168 0.929 . S
C1176 C1177 1.377 . S
C1176 C1178 1.384 . S
C1177 C1176 1.377 . S
C1177 C1183 1.390 . S
C1178 H1169 0.930 . S
C1178 C1176 1.384 . S
C1178 C1179 1.372 . S
C1179 C1178 1.372 . S
C1179 C1180 1.400 . S
C1179 C1184 1.490 . S
C1180 H1170 0.930 . S
C1180 C1179 1.400 . S
C1180 C1183 1.386 . S
H1181 C1197 0.930 . S
H1182 C1198 0.931 . S
C1183 H1171 0.929 . S
C1183 C1177 1.390 . S
C1183 C1180 1.386 . S
C1184 C1179 1.490 . S
C1184 C1186 1.395 . S
C1184 C1187 1.403 . S
H1185 C1191 0.930 . S
C1186 H1172 0.930 . S
C1186 C1184 1.395 . S
C1186 C1189 1.403 1_455 S
C1187 C1184 1.403 . S
C1187 C1188 1.524 . S
C1187 C1191 1.400 1_455 S
C1188 H1173 0.960 . S
C1188 H1174 0.960 . S
C1188 H1175 0.960 . S
C1188 C1187 1.524 . S
C1189 C1186 1.403 1_655 S
C1189 C1190 1.392 . S
C1189 C1193 1.495 . S
C1190 C1189 1.392 . S
C1190 C1191 1.385 . S
C1190 C1192 1.478 . S
C1191 H1185 0.930 . S
C1191 C1187 1.400 1_655 S
C1191 C1190 1.385 . S
C1192 C1190 1.478 . S
C1192 C1194 1.381 . S
C1192 C1198 1.383 . S
C1193 C1189 1.495 . S
C1193 H1199 0.959 . S
C1193 H1200 0.961 . S
C1193 H1201 0.960 . S
C1194 C1192 1.381 . S
C1194 C1195 1.394 . S
C1194 H1202 0.930 . S
C1195 C1194 1.394 . S
C1195 C1196 1.383 . S
C1195 H1203 0.929 . S
C1196 C1195 1.383 . S
C1196 C1197 1.377 . S
C1197 H1181 0.930 . S
C1197 C1196 1.377 . S
C1197 C1198 1.379 . S
C1198 H1182 0.931 . S
C1198 C1192 1.383 . S
C1198 C1197 1.379 . S
H1199 C1193 0.959 . S
H1200 C1193 0.961 . S
H1201 C1193 0.960 . S
H1202 C1194 0.930 . S
H1203 C1195 0.929 . S
H1204 C1212 0.929 . S
H1205 C1214 0.930 . S
H1206 C1216 0.930 . S
H1207 C1219 0.929 . S
H1208 C1222 0.930 . S
H1209 C1224 0.960 . S
H1210 C1224 0.960 . S
H1211 C1224 0.960 . S
C1212 H1204 0.929 . S
C1212 C1213 1.377 . S
C1212 C1214 1.384 . S
C1213 C1212 1.377 . S
C1213 C1219 1.390 . S
C1214 H1205 0.930 . S
C1214 C1212 1.384 . S
C1214 C1215 1.372 . S
C1215 C1214 1.372 . S
C1215 C1216 1.400 . S
C1215 C1220 1.490 . S
C1216 H1206 0.930 . S
C1216 C1215 1.400 . S
C1216 C1219 1.386 . S
H1217 C1233 0.930 . S
H1218 C1234 0.931 . S
C1219 H1207 0.929 . S
C1219 C1213 1.390 . S
C1219 C1216 1.386 . S
C1220 C1215 1.490 . S
C1220 C1222 1.395 . S
C1220 C1223 1.403 . S
H1221 C1227 0.930 . S
C1222 H1208 0.930 . S
C1222 C1220 1.395 . S
C1222 C1225 1.403 1_565 S
C1223 C1220 1.403 . S
C1223 C1224 1.524 . S
C1223 C1227 1.400 1_565 S
C1224 H1209 0.960 . S
C1224 H1210 0.960 . S
C1224 H1211 0.960 . S
C1224 C1223 1.524 . S
C1225 C1222 1.403 1_545 S
C1225 C1226 1.392 . S
C1225 C1229 1.495 . S
C1226 C1225 1.392 . S
C1226 C1227 1.385 . S
C1226 C1228 1.478 . S
C1227 H1221 0.930 . S
C1227 C1223 1.400 1_545 S
C1227 C1226 1.385 . S
C1228 C1226 1.478 . S
C1228 C1230 1.381 . S
C1228 C1234 1.383 . S
C1229 C1225 1.495 . S
C1229 H1235 0.959 . S
C1229 H1236 0.961 . S
C1229 H1237 0.960 . S
C1230 C1228 1.381 . S
C1230 C1231 1.394 . S
C1230 H1238 0.930 . S
C1231 C1230 1.394 . S
C1231 C1232 1.383 . S
C1231 H1239 0.929 . S
C1232 C1231 1.383 . S
C1232 C1233 1.377 . S
C1233 H1217 0.930 . S
C1233 C1232 1.377 . S
C1233 C1234 1.379 . S
C1234 H1218 0.931 . S
C1234 C1228 1.383 . S
C1234 C1233 1.379 . S
H1235 C1229 0.959 . S
H1236 C1229 0.961 . S
H1237 C1229 0.960 . S
H1238 C1230 0.930 . S
H1239 C1231 0.929 . S
H1240 C1248 0.929 . S
H1241 C1250 0.930 . S
H1242 C1252 0.930 . S
H1243 C1255 0.929 . S
H1244 C1258 0.930 . S
H1245 C1260 0.960 . S
H1246 C1260 0.960 . S
H1247 C1260 0.960 . S
C1248 H1240 0.929 . S
C1248 C1249 1.377 . S
C1248 C1250 1.384 . S
C1249 C1248 1.377 . S
C1249 C1255 1.390 . S
C1250 H1241 0.930 . S
C1250 C1248 1.384 . S
C1250 C1251 1.372 . S
C1251 C1250 1.372 . S
C1251 C1252 1.400 . S
C1251 C1256 1.490 . S
C1252 H1242 0.930 . S
C1252 C1251 1.400 . S
C1252 C1255 1.386 . S
H1253 C1269 0.930 . S
H1254 C1270 0.931 . S
C1255 H1243 0.929 . S
C1255 C1249 1.390 . S
C1255 C1252 1.386 . S
C1256 C1251 1.490 . S
C1256 C1258 1.395 . S
C1256 C1259 1.403 . S
H1257 C1263 0.930 . S
C1258 H1244 0.930 . S
C1258 C1256 1.395 . S
C1258 C1261 1.403 1_455 S
C1259 C1256 1.403 . S
C1259 C1260 1.524 . S
C1259 C1263 1.400 1_455 S
C1260 H1245 0.960 . S
C1260 H1246 0.960 . S
C1260 H1247 0.960 . S
C1260 C1259 1.524 . S
C1261 C1258 1.403 1_655 S
C1261 C1262 1.392 . S
C1261 C1265 1.495 . S
C1262 C1261 1.392 . S
C1262 C1263 1.385 . S
C1262 C1264 1.478 . S
C1263 H1257 0.930 . S
C1263 C1259 1.400 1_655 S
C1263 C1262 1.385 . S
C1264 C1262 1.478 . S
C1264 C1266 1.381 . S
C1264 C1270 1.383 . S
C1265 C1261 1.495 . S
C1265 H1271 1.013 . S
C1265 H1272 0.961 . S
C1265 H1273 0.960 . S
C1266 C1264 1.381 . S
C1266 C1267 1.394 . S
C1266 H1274 0.930 . S
C1267 C1266 1.394 . S
C1267 C1268 1.383 . S
C1267 H1275 0.929 . S
C1268 C1267 1.383 . S
C1268 C1269 1.377 . S
C1269 H1253 0.930 . S
C1269 C1268 1.377 . S
C1269 C1270 1.379 . S
C1270 H1254 0.931 . S
C1270 C1264 1.383 . S
C1270 C1269 1.379 . S
H1271 C1265 1.013 . S
H1272 C1265 0.961 . S
H1273 C1265 0.960 . S
H1274 C1266 0.930 . S
H1275 C1267 0.929 . S
H1276 C1284 0.929 . S
H1277 C1286 0.930 . S
H1278 C1288 0.930 . S
H1279 C1291 0.929 . S
H1280 C1294 0.930 . S
H1281 C1296 0.960 . S
H1282 C1296 0.960 . S
H1283 C1296 0.960 . S
C1284 H1276 0.929 . S
C1284 C1285 1.377 . S
C1284 C1286 1.384 . S
C1285 C1284 1.377 . S
C1285 C1291 1.390 . S
C1286 H1277 0.930 . S
C1286 C1284 1.384 . S
C1286 C1287 1.372 . S
C1287 C1286 1.372 . S
C1287 C1288 1.400 . S
C1287 C1292 1.490 . S
C1288 H1278 0.930 . S
C1288 C1287 1.400 . S
C1288 C1291 1.386 . S
H1289 C1305 0.930 . S
H1290 C1306 0.931 . S
C1291 H1279 0.929 . S
C1291 C1285 1.390 . S
C1291 C1288 1.386 . S
C1292 C1287 1.490 . S
C1292 C1294 1.395 . S
C1292 C1295 1.403 . S
H1293 C1299 0.930 . S
C1294 H1280 0.930 . S
C1294 C1292 1.395 . S
C1294 C1297 1.403 1_545 S
C1295 C1292 1.403 . S
C1295 C1296 1.524 . S
C1295 C1299 1.400 1_545 S
C1296 H1281 0.960 . S
C1296 H1282 0.960 . S
C1296 H1283 0.960 . S
C1296 C1295 1.524 . S
C1297 C1294 1.403 1_565 S
C1297 C1298 1.392 . S
C1297 C1301 1.495 . S
C1298 C1297 1.392 . S
C1298 C1299 1.385 . S
C1298 C1300 1.478 . S
C1299 H1293 0.930 . S
C1299 C1295 1.400 1_565 S
C1299 C1298 1.385 . S
C1300 C1298 1.478 . S
C1300 C1302 1.381 . S
C1300 C1306 1.383 . S
C1301 C1297 1.495 . S
C1301 H1307 0.959 . S
C1301 H1308 0.961 . S
C1301 H1309 0.960 . S
C1302 C1300 1.381 . S
C1302 C1303 1.394 . S
C1302 H1310 0.930 . S
C1303 C1302 1.394 . S
C1303 C1304 1.383 . S
C1303 H1311 0.929 . S
C1304 C1303 1.383 . S
C1304 C1305 1.377 . S
C1305 H1289 0.930 . S
C1305 C1304 1.377 . S
C1305 C1306 1.379 . S
C1306 H1290 0.931 . S
C1306 C1300 1.383 . S
C1306 C1305 1.379 . S
H1307 C1301 0.959 . S
H1308 C1301 0.961 . S
H1309 C1301 0.960 . S
H1310 C1302 0.930 . S
H1311 C1303 0.929 . S
H1312 C1320 0.929 . S
H1313 C1322 0.930 . S
H1314 C1324 0.930 . S
H1315 C1327 0.929 . S
H1316 C1330 0.930 . S
H1317 C1332 0.960 . S
H1318 C1332 0.960 . S
H1319 C1332 0.960 . S
C1320 H1312 0.929 . S
C1320 C1321 1.377 . S
C1320 C1322 1.384 . S
C1321 C1320 1.377 . S
C1321 C1327 1.390 . S
C1322 H1313 0.930 . S
C1322 C1320 1.384 . S
C1322 C1323 1.372 . S
C1323 C1322 1.372 . S
C1323 C1324 1.400 . S
C1323 C1328 1.490 . S
C1324 H1314 0.930 . S
C1324 C1323 1.400 . S
C1324 C1327 1.386 . S
H1325 C1341 0.930 . S
H1326 C1342 0.931 . S
C1327 H1315 0.929 . S
C1327 C1321 1.390 . S
C1327 C1324 1.386 . S
C1328 C1323 1.490 . S
C1328 C1330 1.395 . S
C1328 C1331 1.403 . S
H1329 C1335 0.930 . S
C1330 H1316 0.930 . S
C1330 C1328 1.395 . S
C1330 C1333 1.403 . S
C1331 C1328 1.403 . S
C1331 C1332 1.524 . S
C1331 C1335 1.400 . S
C1332 H1317 0.960 . S
C1332 H1318 0.960 . S
C1332 H1319 0.960 . S
C1332 C1331 1.524 . S
C1333 C1330 1.403 . S
C1333 C1334 1.392 . S
C1333 C1337 1.495 . S
C1334 C1333 1.392 . S
C1334 C1335 1.385 . S
C1334 C1336 1.478 . S
C1335 H1329 0.930 . S
C1335 C1331 1.400 . S
C1335 C1334 1.385 . S
C1336 C1334 1.478 . S
C1336 C1338 1.381 . S
C1336 C1342 1.383 . S
C1337 C1333 1.495 . S
C1337 H1343 0.959 . S
C1337 H1344 0.961 . S
C1337 H1345 0.960 . S
C1338 C1336 1.381 . S
C1338 C1339 1.394 . S
C1338 H1346 0.930 . S
C1339 C1338 1.394 . S
C1339 C1340 1.383 . S
C1339 H1347 0.929 . S
C1340 C1339 1.383 . S
C1340 C1341 1.377 . S
C1341 H1325 0.930 . S
C1341 C1340 1.377 . S
C1341 C1342 1.379 . S
C1342 H1326 0.931 . S
C1342 C1336 1.383 . S
C1342 C1341 1.379 . S
H1343 C1337 0.959 . S
H1344 C1337 0.961 . S
H1345 C1337 0.960 . S
H1346 C1338 0.930 . S
H1347 C1339 0.929 . S
H1348 C1356 0.929 . S
H1349 C1358 0.930 . S
H1350 C1360 0.930 . S
H1351 C1363 0.929 . S
H1352 C1366 0.930 . S
H1353 C1368 0.960 . S
H1354 C1368 0.960 . S
H1355 C1368 0.960 . S
C1356 H1348 0.929 . S
C1356 C1357 1.377 . S
C1356 C1358 1.384 . S
C1357 C1356 1.377 . S
C1357 C1363 1.390 . S
C1358 H1349 0.930 . S
C1358 C1356 1.384 . S
C1358 C1359 1.372 . S
C1359 C1358 1.372 . S
C1359 C1360 1.400 . S
C1359 C1364 1.490 . S
C1360 H1350 0.930 . S
C1360 C1359 1.400 . S
C1360 C1363 1.386 . S
H1361 C1377 0.930 . S
H1362 C1378 0.931 . S
C1363 H1351 0.929 . S
C1363 C1357 1.390 . S
C1363 C1360 1.386 . S
C1364 C1359 1.490 . S
C1364 C1366 1.395 . S
C1364 C1367 1.403 . S
H1365 C1371 0.930 . S
C1366 H1352 0.930 . S
C1366 C1364 1.395 . S
C1366 C1369 1.403 . S
C1367 C1364 1.403 . S
C1367 C1368 1.524 . S
C1367 C1371 1.400 . S
C1368 H1353 0.960 . S
C1368 H1354 0.960 . S
C1368 H1355 0.960 . S
C1368 C1367 1.524 . S
C1369 C1366 1.403 . S
C1369 C1370 1.392 . S
C1369 C1373 1.495 . S
C1370 C1369 1.392 . S
C1370 C1371 1.385 . S
C1370 C1372 1.478 . S
C1371 H1365 0.930 . S
C1371 C1367 1.400 . S
C1371 C1370 1.385 . S
C1372 C1370 1.478 . S
C1372 C1374 1.381 . S
C1372 C1378 1.383 . S
C1373 C1369 1.495 . S
C1373 H1379 0.959 . S
C1373 H1380 0.961 . S
C1373 H1381 0.960 . S
C1374 C1372 1.381 . S
C1374 C1375 1.394 . S
C1374 H1382 0.930 . S
C1375 C1374 1.394 . S
C1375 C1376 1.383 . S
C1375 H1383 0.929 . S
C1376 C1375 1.383 . S
C1376 C1377 1.377 . S
C1377 H1361 0.930 . S
C1377 C1376 1.377 . S
C1377 C1378 1.379 . S
C1378 H1362 0.931 . S
C1378 C1372 1.383 . S
C1378 C1377 1.379 . S
H1379 C1373 0.959 . S
H1380 C1373 0.961 . S
H1381 C1373 0.960 . S
H1382 C1374 0.930 . S
H1383 C1375 0.929 . S
H1384 C1392 0.929 . S
H1385 C1394 0.930 . S
H1386 C1396 0.930 . S
H1387 C1399 0.929 . S
H1388 C1402 0.930 . S
H1389 C1404 0.960 . S
H1390 C1404 0.960 . S
H1391 C1404 0.960 . S
C1392 H1384 0.929 . S
C1392 C1393 1.377 . S
C1392 C1394 1.384 . S
C1393 C1392 1.377 . S
C1393 C1399 1.390 . S
C1394 H1385 0.930 . S
C1394 C1392 1.384 . S
C1394 C1395 1.372 . S
C1395 C1394 1.372 . S
C1395 C1396 1.400 . S
C1395 C1400 1.490 . S
C1396 H1386 0.930 . S
C1396 C1395 1.400 . S
C1396 C1399 1.386 . S
H1397 C1413 0.930 . S
H1398 C1414 0.931 . S
C1399 H1387 0.929 . S
C1399 C1393 1.390 . S
C1399 C1396 1.386 . S
C1400 C1395 1.490 . S
C1400 C1402 1.395 . S
C1400 C1403 1.403 . S
H1401 C1407 0.930 . S
C1402 H1388 0.930 . S
C1402 C1400 1.395 . S
C1402 C1405 1.403 . S
C1403 C1400 1.403 . S
C1403 C1404 1.524 . S
C1403 C1407 1.400 . S
C1404 H1389 0.960 . S
C1404 H1390 0.960 . S
C1404 H1391 0.960 . S
C1404 C1403 1.524 . S
C1405 C1402 1.403 . S
C1405 C1406 1.392 . S
C1405 C1409 1.495 . S
C1406 C1405 1.392 . S
C1406 C1407 1.385 . S
C1406 C1408 1.478 . S
C1407 H1401 0.930 . S
C1407 C1403 1.400 . S
C1407 C1406 1.385 . S
C1408 C1406 1.478 . S
C1408 C1410 1.381 . S
C1408 C1414 1.383 . S
C1409 C1405 1.495 . S
C1409 H1415 0.959 . S
C1409 H1416 0.961 . S
C1409 H1417 0.960 . S
C1410 C1408 1.381 . S
C1410 C1411 1.394 . S
C1410 H1418 0.930 . S
C1411 C1410 1.394 . S
C1411 C1412 1.383 . S
C1411 H1419 0.929 . S
C1412 C1411 1.383 . S
C1412 C1413 1.377 . S
C1413 H1397 0.930 . S
C1413 C1412 1.377 . S
C1413 C1414 1.379 . S
C1414 H1398 0.931 . S
C1414 C1408 1.383 . S
C1414 C1413 1.379 . S
H1415 C1409 0.959 . S
H1416 C1409 0.961 . S
H1417 C1409 0.960 . S
H1418 C1410 0.930 . S
H1419 C1411 0.929 . S
H1420 C1428 0.929 . S
H1421 C1430 0.930 . S
H1422 C1432 0.930 . S
H1423 C1435 0.929 . S
H1424 C1438 0.930 . S
H1425 C1440 0.960 . S
H1426 C1440 0.960 . S
H1427 C1440 0.960 . S
C1428 H1420 0.929 . S
C1428 C1429 1.377 . S
C1428 C1430 1.384 . S
C1429 C1428 1.377 . S
C1429 C1435 1.390 . S
C1430 H1421 0.930 . S
C1430 C1428 1.384 . S
C1430 C1431 1.372 . S
C1431 C1430 1.372 . S
C1431 C1432 1.400 . S
C1431 C1436 1.490 . S
C1432 H1422 0.930 . S
C1432 C1431 1.400 . S
C1432 C1435 1.386 . S
H1433 C1449 0.930 . S
H1434 C1450 0.931 . S
C1435 H1423 0.929 . S
C1435 C1429 1.390 . S
C1435 C1432 1.386 . S
C1436 C1431 1.490 . S
C1436 C1438 1.395 . S
C1436 C1439 1.403 . S
H1437 C1443 0.930 . S
C1438 H1424 0.930 . S
C1438 C1436 1.395 . S
C1438 C1441 1.403 . S
C1439 C1436 1.403 . S
C1439 C1440 1.524 . S
C1439 C1443 1.400 . S
C1440 H1425 0.960 . S
C1440 H1426 0.960 . S
C1440 H1427 0.960 . S
C1440 C1439 1.524 . S
C1441 C1438 1.403 . S
C1441 C1442 1.392 . S
C1441 C1445 1.495 . S
C1442 C1441 1.392 . S
C1442 C1443 1.385 . S
C1442 C1444 1.478 . S
C1443 H1437 0.930 . S
C1443 C1439 1.400 . S
C1443 C1442 1.385 . S
C1444 C1442 1.478 . S
C1444 C1446 1.381 . S
C1444 C1450 1.383 . S
C1445 C1441 1.495 . S
C1445 H1451 0.959 . S
C1445 H1452 0.961 . S
C1445 H1453 0.960 . S
C1446 C1444 1.381 . S
C1446 C1447 1.394 . S
C1446 H1454 0.930 . S
C1447 C1446 1.394 . S
C1447 C1448 1.383 . S
C1447 H1455 0.929 . S
C1448 C1447 1.383 . S
C1448 C1449 1.377 . S
C1449 H1433 0.930 . S
C1449 C1448 1.377 . S
C1449 C1450 1.379 . S
C1450 H1434 0.931 . S
C1450 C1444 1.383 . S
C1450 C1449 1.379 . S
H1451 C1445 0.959 . S
H1452 C1445 0.961 . S
H1453 C1445 0.960 . S
H1454 C1446 0.930 . S
H1455 C1447 0.929 . S
H1456 C1464 0.929 . S
H1457 C1466 0.930 . S
H1458 C1468 0.930 . S
H1459 C1471 0.929 . S
H1460 C1474 0.930 . S
H1461 C1476 0.960 . S
H1462 C1476 0.960 . S
H1463 C1476 0.960 . S
C1464 H1456 0.929 . S
C1464 C1465 1.377 . S
C1464 C1466 1.384 . S
C1465 C1464 1.377 . S
C1465 C1471 1.390 . S
C1466 H1457 0.930 . S
C1466 C1464 1.384 . S
C1466 C1467 1.372 . S
C1467 C1466 1.372 . S
C1467 C1468 1.400 . S
C1467 C1472 1.490 . S
C1468 H1458 0.930 . S
C1468 C1467 1.400 . S
C1468 C1471 1.386 . S
H1469 C1485 0.930 . S
H1470 C1486 0.931 . S
C1471 H1459 0.929 . S
C1471 C1465 1.390 . S
C1471 C1468 1.386 . S
C1472 C1467 1.490 . S
C1472 C1474 1.395 . S
C1472 C1475 1.403 . S
H1473 C1479 0.930 . S
C1474 H1460 0.930 . S
C1474 C1472 1.395 . S
C1474 C1477 1.403 . S
C1475 C1472 1.403 . S
C1475 C1476 1.524 . S
C1475 C1479 1.400 . S
C1476 H1461 0.960 . S
C1476 H1462 0.960 . S
C1476 H1463 0.960 . S
C1476 C1475 1.524 . S
C1477 C1474 1.403 . S
C1477 C1478 1.392 . S
C1477 C1481 1.495 . S
C1478 C1477 1.392 . S
C1478 C1479 1.385 . S
C1478 C1480 1.478 . S
C1479 H1473 0.930 . S
C1479 C1475 1.400 . S
C1479 C1478 1.385 . S
C1480 C1478 1.478 . S
C1480 C1482 1.381 . S
C1480 C1486 1.383 . S
C1481 C1477 1.495 . S
C1481 H1487 0.959 . S
C1481 H1488 0.961 . S
C1481 H1489 0.960 . S
C1482 C1480 1.381 . S
C1482 C1483 1.394 . S
C1482 H1490 0.930 . S
C1483 C1482 1.394 . S
C1483 C1484 1.383 . S
C1483 H1491 0.929 . S
C1484 C1483 1.383 . S
C1484 C1485 1.377 . S
C1485 H1469 0.930 . S
C1485 C1484 1.377 . S
C1485 C1486 1.379 . S
C1486 H1470 0.931 . S
C1486 C1480 1.383 . S
C1486 C1485 1.379 . S
H1487 C1481 0.959 . S
H1488 C1481 0.961 . S
H1489 C1481 0.960 . S
H1490 C1482 0.930 . S
H1491 C1483 0.929 . S
H1492 C1500 0.929 . S
H1493 C1502 0.930 . S
H1494 C1504 0.930 . S
H1495 C1507 0.929 . S
H1496 C1510 0.930 . S
H1497 C1512 0.960 . S
H1498 C1512 0.960 . S
H1499 C1512 0.960 . S
C1500 H1492 0.929 . S
C1500 C1501 1.377 . S
C1500 C1502 1.384 . S
C1501 C1500 1.377 . S
C1501 C1507 1.390 . S
C1502 H1493 0.930 . S
C1502 C1500 1.384 . S
C1502 C1503 1.372 . S
C1503 C1502 1.372 . S
C1503 C1504 1.400 . S
C1503 C1508 1.490 . S
C1504 H1494 0.930 . S
C1504 C1503 1.400 . S
C1504 C1507 1.386 . S
H1505 C1521 0.930 . S
H1506 C1522 0.931 . S
C1507 H1495 0.929 . S
C1507 C1501 1.390 . S
C1507 C1504 1.386 . S
C1508 C1503 1.490 . S
C1508 C1510 1.395 . S
C1508 C1511 1.403 . S
H1509 C1515 0.930 . S
C1510 H1496 0.930 . S
C1510 C1508 1.395 . S
C1510 C1513 1.403 . S
C1511 C1508 1.403 . S
C1511 C1512 1.524 . S
C1511 C1515 1.400 . S
C1512 H1497 0.960 . S
C1512 H1498 0.960 . S
C1512 H1499 0.960 . S
C1512 C1511 1.524 . S
C1513 C1510 1.403 . S
C1513 C1514 1.392 . S
C1513 C1517 1.495 . S
C1514 C1513 1.392 . S
C1514 C1515 1.385 . S
C1514 C1516 1.478 . S
C1515 H1509 0.930 . S
C1515 C1511 1.400 . S
C1515 C1514 1.385 . S
C1516 C1514 1.478 . S
C1516 C1518 1.381 . S
C1516 C1522 1.383 . S
C1517 C1513 1.495 . S
C1517 H1523 0.959 . S
C1517 H1524 0.961 . S
C1517 H1525 0.960 . S
C1518 C1516 1.381 . S
C1518 C1519 1.394 . S
C1518 H1526 0.930 . S
C1519 C1518 1.394 . S
C1519 C1520 1.383 . S
C1519 H1527 0.929 . S
C1520 C1519 1.383 . S
C1520 C1521 1.377 . S
C1521 H1505 0.930 . S
C1521 C1520 1.377 . S
C1521 C1522 1.379 . S
C1522 H1506 0.931 . S
C1522 C1516 1.383 . S
C1522 C1521 1.379 . S
H1523 C1517 0.959 . S
H1524 C1517 0.961 . S
H1525 C1517 0.960 . S
H1526 C1518 0.930 . S
H1527 C1519 0.929 . S
H1528 C1536 0.929 . S
H1529 C1538 0.930 . S
H1530 C1540 0.930 . S
H1531 C1543 0.929 . S
H1532 C1546 0.930 . S
H1533 C1548 0.960 . S
H1534 C1548 0.960 . S
H1535 C1548 0.960 . S
C1536 H1528 0.929 . S
C1536 C1537 1.377 . S
C1536 C1538 1.384 . S
C1537 C1536 1.377 . S
C1537 C1543 1.390 . S
C1538 H1529 0.930 . S
C1538 C1536 1.384 . S
C1538 C1539 1.372 . S
C1539 C1538 1.372 . S
C1539 C1540 1.400 . S
C1539 C1544 1.490 . S
C1540 H1530 0.930 . S
C1540 C1539 1.400 . S
C1540 C1543 1.386 . S
H1541 C1557 0.930 . S
H1542 C1558 0.931 . S
C1543 H1531 0.929 . S
C1543 C1537 1.390 . S
C1543 C1540 1.386 . S
C1544 C1539 1.490 . S
C1544 C1546 1.395 . S
C1544 C1547 1.403 . S
H1545 C1551 0.930 . S
C1546 H1532 0.930 . S
C1546 C1544 1.395 . S
C1546 C1549 1.403 . S
C1547 C1544 1.403 . S
C1547 C1548 1.524 . S
C1547 C1551 1.400 . S
C1548 H1533 0.960 . S
C1548 H1534 0.960 . S
C1548 H1535 0.960 . S
C1548 C1547 1.524 . S
C1549 C1546 1.403 . S
C1549 C1550 1.392 . S
C1549 C1553 1.495 . S
C1550 C1549 1.392 . S
C1550 C1551 1.385 . S
C1550 C1552 1.478 . S
C1551 H1545 0.930 . S
C1551 C1547 1.400 . S
C1551 C1550 1.385 . S
C1552 C1550 1.478 . S
C1552 C1554 1.381 . S
C1552 C1558 1.383 . S
C1553 C1549 1.495 . S
C1553 H1559 0.959 . S
C1553 H1560 0.961 . S
C1553 H1561 0.960 . S
C1554 C1552 1.381 . S
C1554 C1555 1.394 . S
C1554 H1562 0.930 . S
C1555 C1554 1.394 . S
C1555 C1556 1.383 . S
C1555 H1563 0.929 . S
C1556 C1555 1.383 . S
C1556 C1557 1.377 . S
C1557 H1541 0.930 . S
C1557 C1556 1.377 . S
C1557 C1558 1.379 . S
C1558 H1542 0.931 . S
C1558 C1552 1.383 . S
C1558 C1557 1.379 . S
H1559 C1553 0.959 . S
H1560 C1553 0.961 . S
H1561 C1553 0.960 . S
H1562 C1554 0.930 . S
H1563 C1555 0.929 . S
H1564 C1572 0.929 . S
H1565 C1574 0.930 . S
H1566 C1576 0.930 . S
H1567 C1579 0.929 . S
H1568 C1582 0.930 . S
H1569 C1584 0.960 . S
H1570 C1584 0.960 . S
H1571 C1584 0.960 . S
C1572 H1564 0.929 . S
C1572 C1573 1.377 . S
C1572 C1574 1.384 . S
C1573 C1572 1.377 . S
C1573 C1579 1.390 . S
C1574 H1565 0.930 . S
C1574 C1572 1.384 . S
C1574 C1575 1.372 . S
C1575 C1574 1.372 . S
C1575 C1576 1.400 . S
C1575 C1580 1.490 . S
C1576 H1566 0.930 . S
C1576 C1575 1.400 . S
C1576 C1579 1.386 . S
H1577 C1593 0.930 . S
H1578 C1594 0.931 . S
C1579 H1567 0.929 . S
C1579 C1573 1.390 . S
C1579 C1576 1.386 . S
C1580 C1575 1.490 . S
C1580 C1582 1.395 . S
C1580 C1583 1.403 . S
H1581 C1587 0.930 . S
C1582 H1568 0.930 . S
C1582 C1580 1.395 . S
C1582 C1585 1.403 . S
C1583 C1580 1.403 . S
C1583 C1584 1.524 . S
C1583 C1587 1.400 . S
C1584 H1569 0.960 . S
C1584 H1570 0.960 . S
C1584 H1571 0.960 . S
C1584 C1583 1.524 . S
C1585 C1582 1.403 . S
C1585 C1586 1.392 . S
C1585 C1589 1.495 . S
C1586 C1585 1.392 . S
C1586 C1587 1.385 . S
C1586 C1588 1.478 . S
C1587 H1581 0.930 . S
C1587 C1583 1.400 . S
C1587 C1586 1.385 . S
C1588 C1586 1.478 . S
C1588 C1590 1.381 . S
C1588 C1594 1.383 . S
C1589 C1585 1.495 . S
C1589 H1595 0.959 . S
C1589 H1596 0.961 . S
C1589 H1597 0.960 . S
C1590 C1588 1.381 . S
C1590 C1591 1.394 . S
C1590 H1598 0.930 . S
C1591 C1590 1.394 . S
C1591 C1592 1.383 . S
C1591 H1599 0.929 . S
C1592 C1591 1.383 . S
C1592 C1593 1.377 . S
C1593 H1577 0.930 . S
C1593 C1592 1.377 . S
C1593 C1594 1.379 . S
C1594 H1578 0.931 . S
C1594 C1588 1.383 . S
C1594 C1593 1.379 . S
H1595 C1589 0.959 . S
H1596 C1589 0.961 . S
H1597 C1589 0.960 . S
H1598 C1590 0.930 . S
H1599 C1591 0.929 . S
H1600 C1608 0.929 . S
H1601 C1610 0.930 . S
H1602 C1612 0.930 . S
H1603 C1615 0.929 . S
H1604 C1618 0.930 . S
H1605 C1620 0.960 . S
H1606 C1620 0.960 . S
H1607 C1620 0.960 . S
C1608 H1600 0.929 . S
C1608 C1609 1.377 . S
C1608 C1610 1.384 . S
C1609 C1608 1.377 . S
C1609 C1615 1.390 . S
C1610 H1601 0.930 . S
C1610 C1608 1.384 . S
C1610 C1611 1.372 . S
C1611 C1610 1.372 . S
C1611 C1612 1.400 . S
C1611 C1616 1.490 . S
C1612 H1602 0.930 . S
C1612 C1611 1.400 . S
C1612 C1615 1.386 . S
H1613 C1629 0.930 . S
H1614 C1630 0.931 . S
C1615 H1603 0.929 . S
C1615 C1609 1.390 . S
C1615 C1612 1.386 . S
C1616 C1611 1.490 . S
C1616 C1618 1.395 . S
C1616 C1619 1.403 . S
H1617 C1623 0.930 . S
C1618 H1604 0.930 . S
C1618 C1616 1.395 . S
C1618 C1621 1.403 . S
C1619 C1616 1.403 . S
C1619 C1620 1.524 . S
C1619 C1623 1.400 . S
C1620 H1605 0.960 . S
C1620 H1606 0.960 . S
C1620 H1607 0.960 . S
C1620 C1619 1.524 . S
C1621 C1618 1.403 . S
C1621 C1622 1.392 . S
C1621 C1625 1.495 . S
C1622 C1621 1.392 . S
C1622 C1623 1.385 . S
C1622 C1624 1.478 . S
C1623 H1617 0.930 . S
C1623 C1619 1.400 . S
C1623 C1622 1.385 . S
C1624 C1622 1.478 . S
C1624 C1626 1.381 . S
C1624 C1630 1.383 . S
C1625 C1621 1.495 . S
C1625 H1631 0.959 . S
C1625 H1632 0.961 . S
C1625 H1633 0.960 . S
C1626 C1624 1.381 . S
C1626 C1627 1.394 . S
C1626 H1634 0.930 . S
C1627 C1626 1.394 . S
C1627 C1628 1.383 . S
C1627 H1635 0.929 . S
C1628 C1627 1.383 . S
C1628 C1629 1.377 . S
C1629 H1613 0.930 . S
C1629 C1628 1.377 . S
C1629 C1630 1.379 . S
C1630 H1614 0.931 . S
C1630 C1624 1.383 . S
C1630 C1629 1.379 . S
H1631 C1625 0.959 . S
H1632 C1625 0.961 . S
H1633 C1625 0.960 . S
H1634 C1626 0.930 . S
H1635 C1627 0.929 . S
H1636 C1644 0.929 . S
H1637 C1646 0.930 . S
H1638 C1648 0.930 . S
H1639 C1651 0.929 . S
H1640 C1654 0.930 . S
H1641 C1656 0.960 . S
H1642 C1656 0.960 . S
H1643 C1656 0.960 . S
C1644 H1636 0.929 . S
C1644 C1645 1.377 . S
C1644 C1646 1.384 . S
C1645 C1644 1.377 . S
C1645 C1651 1.390 . S
C1646 H1637 0.930 . S
C1646 C1644 1.384 . S
C1646 C1647 1.372 . S
C1647 C1646 1.372 . S
C1647 C1648 1.400 . S
C1647 C1652 1.490 . S
C1648 H1638 0.930 . S
C1648 C1647 1.400 . S
C1648 C1651 1.386 . S
H1649 C1665 0.930 . S
H1650 C1666 0.931 . S
C1651 H1639 0.929 . S
C1651 C1645 1.390 . S
C1651 C1648 1.386 . S
C1652 C1647 1.490 . S
C1652 C1654 1.395 . S
C1652 C1655 1.403 . S
H1653 C1659 0.930 . S
C1654 H1640 0.930 . S
C1654 C1652 1.395 . S
C1654 C1657 1.403 . S
C1655 C1652 1.403 . S
C1655 C1656 1.524 . S
C1655 C1659 1.400 . S
C1656 H1641 0.960 . S
C1656 H1642 0.960 . S
C1656 H1643 0.960 . S
C1656 C1655 1.524 . S
C1657 C1654 1.403 . S
C1657 C1658 1.392 . S
C1657 C1661 1.495 . S
C1658 C1657 1.392 . S
C1658 C1659 1.385 . S
C1658 C1660 1.478 . S
C1659 H1653 0.930 . S
C1659 C1655 1.400 . S
C1659 C1658 1.385 . S
C1660 C1658 1.478 . S
C1660 C1662 1.381 . S
C1660 C1666 1.383 . S
C1661 C1657 1.495 . S
C1661 H1667 0.959 . S
C1661 H1668 0.961 . S
C1661 H1669 0.960 . S
C1662 C1660 1.381 . S
C1662 C1663 1.394 . S
C1662 H1670 0.930 . S
C1663 C1662 1.394 . S
C1663 C1664 1.383 . S
C1663 H1671 0.929 . S
C1664 C1663 1.383 . S
C1664 C1665 1.377 . S
C1665 H1649 0.930 . S
C1665 C1664 1.377 . S
C1665 C1666 1.379 . S
C1666 H1650 0.931 . S
C1666 C1660 1.383 . S
C1666 C1665 1.379 . S
H1667 C1661 0.959 . S
H1668 C1661 0.961 . S
H1669 C1661 0.960 . S
H1670 C1662 0.930 . S
H1671 C1663 0.929 . S
H1672 C1680 0.929 . S
H1673 C1682 0.930 . S
H1674 C1684 0.930 . S
H1675 C1687 0.929 . S
H1676 C1690 0.930 . S
H1677 C1692 0.960 . S
H1678 C1692 0.960 . S
H1679 C1692 0.960 . S
C1680 H1672 0.929 . S
C1680 C1681 1.377 . S
C1680 C1682 1.384 . S
C1681 C1680 1.377 . S
C1681 C1687 1.390 . S
C1682 H1673 0.930 . S
C1682 C1680 1.384 . S
C1682 C1683 1.372 . S
C1683 C1682 1.372 . S
C1683 C1684 1.400 . S
C1683 C1688 1.490 . S
C1684 H1674 0.930 . S
C1684 C1683 1.400 . S
C1684 C1687 1.386 . S
H1685 C1701 0.930 . S
H1686 C1702 0.931 . S
C1687 H1675 0.929 . S
C1687 C1681 1.390 . S
C1687 C1684 1.386 . S
C1688 C1683 1.490 . S
C1688 C1690 1.395 . S
C1688 C1691 1.403 . S
H1689 C1695 0.930 . S
C1690 H1676 0.930 . S
C1690 C1688 1.395 . S
C1690 C1693 1.403 . S
C1691 C1688 1.403 . S
C1691 C1692 1.524 . S
C1691 C1695 1.400 . S
C1692 H1677 0.960 . S
C1692 H1678 0.960 . S
C1692 H1679 0.960 . S
C1692 C1691 1.524 . S
C1693 C1690 1.403 . S
C1693 C1694 1.392 . S
C1693 C1697 1.495 . S
C1694 C1693 1.392 . S
C1694 C1695 1.385 . S
C1694 C1696 1.478 . S
C1695 H1689 0.930 . S
C1695 C1691 1.400 . S
C1695 C1694 1.385 . S
C1696 C1694 1.478 . S
C1696 C1698 1.381 . S
C1696 C1702 1.383 . S
C1697 C1693 1.495 . S
C1697 H1703 0.959 . S
C1697 H1704 0.961 . S
C1697 H1705 0.960 . S
C1698 C1696 1.381 . S
C1698 C1699 1.394 . S
C1698 H1706 0.930 . S
C1699 C1698 1.394 . S
C1699 C1700 1.383 . S
C1699 H1707 0.929 . S
C1700 C1699 1.383 . S
C1700 C1701 1.377 . S
C1701 H1685 0.930 . S
C1701 C1700 1.377 . S
C1701 C1702 1.379 . S
C1702 H1686 0.931 . S
C1702 C1696 1.383 . S
C1702 C1701 1.379 . S
H1703 C1697 0.959 . S
H1704 C1697 0.961 . S
H1705 C1697 0.960 . S
H1706 C1698 0.930 . S
H1707 C1699 0.929 . S
H1708 C1716 0.929 . S
H1709 C1718 0.930 . S
H1710 C1720 0.930 . S
H1711 C1723 0.929 . S
H1712 C1726 0.930 . S
H1713 C1728 0.960 . S
H1714 C1728 0.960 . S
H1715 C1728 0.960 . S
C1716 H1708 0.929 . S
C1716 C1717 1.377 . S
C1716 C1718 1.384 . S
C1717 C1716 1.377 . S
C1717 C1723 1.390 . S
C1718 H1709 0.930 . S
C1718 C1716 1.384 . S
C1718 C1719 1.372 . S
C1719 C1718 1.372 . S
C1719 C1720 1.400 . S
C1719 C1724 1.490 . S
C1720 H1710 0.930 . S
C1720 C1719 1.400 . S
C1720 C1723 1.386 . S
H1721 C1737 0.930 . S
H1722 C1738 0.931 . S
C1723 H1711 0.929 . S
C1723 C1717 1.390 . S
C1723 C1720 1.386 . S
C1724 C1719 1.490 . S
C1724 C1726 1.395 . S
C1724 C1727 1.403 . S
H1725 C1731 0.930 . S
C1726 H1712 0.930 . S
C1726 C1724 1.395 . S
C1726 C1729 1.403 . S
C1727 C1724 1.403 . S
C1727 C1728 1.524 . S
C1727 C1731 1.400 . S
C1728 H1713 0.960 . S
C1728 H1714 0.960 . S
C1728 H1715 0.960 . S
C1728 C1727 1.524 . S
C1729 C1726 1.403 . S
C1729 C1730 1.392 . S
C1729 C1733 1.495 . S
C1730 C1729 1.392 . S
C1730 C1731 1.385 . S
C1730 C1732 1.478 . S
C1731 H1725 0.930 . S
C1731 C1727 1.400 . S
C1731 C1730 1.385 . S
C1732 C1730 1.478 . S
C1732 C1734 1.381 . S
C1732 C1738 1.383 . S
C1733 C1729 1.495 . S
C1733 H1739 0.959 . S
C1733 H1740 0.961 . S
C1733 H1741 0.960 . S
C1734 C1732 1.381 . S
C1734 C1735 1.394 . S
C1734 H1742 0.930 . S
C1735 C1734 1.394 . S
C1735 C1736 1.383 . S
C1735 H1743 0.929 . S
C1736 C1735 1.383 . S
C1736 C1737 1.377 . S
C1737 H1721 0.930 . S
C1737 C1736 1.377 . S
C1737 C1738 1.379 . S
C1738 H1722 0.931 . S
C1738 C1732 1.383 . S
C1738 C1737 1.379 . S
H1739 C1733 0.959 . S
H1740 C1733 0.961 . S
H1741 C1733 0.960 . S
H1742 C1734 0.930 . S
H1743 C1735 0.929 . S
H1744 C1752 0.929 . S
H1745 C1754 0.930 . S
H1746 C1756 0.930 . S
H1747 C1759 0.929 . S
H1748 C1762 0.930 . S
H1749 C1764 0.960 . S
H1750 C1764 0.960 . S
H1751 C1764 0.960 . S
C1752 H1744 0.929 . S
C1752 C1753 1.377 . S
C1752 C1754 1.384 . S
C1753 C1752 1.377 . S
C1753 C1759 1.390 . S
C1754 H1745 0.930 . S
C1754 C1752 1.384 . S
C1754 C1755 1.372 . S
C1755 C1754 1.372 . S
C1755 C1756 1.400 . S
C1755 C1760 1.490 . S
C1756 H1746 0.930 . S
C1756 C1755 1.400 . S
C1756 C1759 1.386 . S
H1757 C1773 0.930 . S
H1758 C1774 0.931 . S
C1759 H1747 0.929 . S
C1759 C1753 1.390 . S
C1759 C1756 1.386 . S
C1760 C1755 1.490 . S
C1760 C1762 1.395 . S
C1760 C1763 1.403 . S
H1761 C1767 0.930 . S
C1762 H1748 0.930 . S
C1762 C1760 1.395 . S
C1762 C1765 1.403 . S
C1763 C1760 1.403 . S
C1763 C1764 1.524 . S
C1763 C1767 1.400 . S
C1764 H1749 0.960 . S
C1764 H1750 0.960 . S
C1764 H1751 0.960 . S
C1764 C1763 1.524 . S
C1765 C1762 1.403 . S
C1765 C1766 1.392 . S
C1765 C1769 1.495 . S
C1766 C1765 1.392 . S
C1766 C1767 1.385 . S
C1766 C1768 1.478 . S
C1767 H1761 0.930 . S
C1767 C1763 1.400 . S
C1767 C1766 1.385 . S
C1768 C1766 1.478 . S
C1768 C1770 1.381 . S
C1768 C1774 1.383 . S
C1769 C1765 1.495 . S
C1769 H1775 0.959 . S
C1769 H1776 0.961 . S
C1769 H1777 0.960 . S
C1770 C1768 1.381 . S
C1770 C1771 1.394 . S
C1770 H1778 0.930 . S
C1771 C1770 1.394 . S
C1771 C1772 1.383 . S
C1771 H1779 0.929 . S
C1772 C1771 1.383 . S
C1772 C1773 1.377 . S
C1773 H1757 0.930 . S
C1773 C1772 1.377 . S
C1773 C1774 1.379 . S
C1774 H1758 0.931 . S
C1774 C1768 1.383 . S
C1774 C1773 1.379 . S
H1775 C1769 0.959 . S
H1776 C1769 0.961 . S
H1777 C1769 0.960 . S
H1778 C1770 0.930 . S
H1779 C1771 0.929 . S
H1780 C1788 0.929 . S
H1781 C1790 0.930 . S
H1782 C1792 0.930 . S
H1783 C1795 0.929 . S
H1784 C1798 0.930 . S
H1785 C1800 0.960 . S
H1786 C1800 0.960 . S
H1787 C1800 0.960 . S
C1788 H1780 0.929 . S
C1788 C1789 1.377 . S
C1788 C1790 1.384 . S
C1789 C1788 1.377 . S
C1789 C1795 1.390 . S
C1790 H1781 0.930 . S
C1790 C1788 1.384 . S
C1790 C1791 1.372 . S
C1791 C1790 1.372 . S
C1791 C1792 1.400 . S
C1791 C1796 1.490 . S
C1792 H1782 0.930 . S
C1792 C1791 1.400 . S
C1792 C1795 1.386 . S
H1793 C1809 0.930 . S
H1794 C1810 0.931 . S
C1795 H1783 0.929 . S
C1795 C1789 1.390 . S
C1795 C1792 1.386 . S
C1796 C1791 1.490 . S
C1796 C1798 1.395 . S
C1796 C1799 1.403 . S
H1797 C1803 0.930 . S
C1798 H1784 0.930 . S
C1798 C1796 1.395 . S
C1798 C1801 1.403 . S
C1799 C1796 1.403 . S
C1799 C1800 1.524 . S
C1799 C1803 1.400 . S
C1800 H1785 0.960 . S
C1800 H1786 0.960 . S
C1800 H1787 0.960 . S
C1800 C1799 1.524 . S
C1801 C1798 1.403 . S
C1801 C1802 1.392 . S
C1801 C1805 1.495 . S
C1802 C1801 1.392 . S
C1802 C1803 1.385 . S
C1802 C1804 1.478 . S
C1803 H1797 0.930 . S
C1803 C1799 1.400 . S
C1803 C1802 1.385 . S
C1804 C1802 1.478 . S
C1804 C1806 1.381 . S
C1804 C1810 1.383 . S
C1805 C1801 1.495 . S
C1805 H1811 0.959 . S
C1805 H1812 0.961 . S
C1805 H1813 0.960 . S
C1806 C1804 1.381 . S
C1806 C1807 1.394 . S
C1806 H1814 0.930 . S
C1807 C1806 1.394 . S
C1807 C1808 1.383 . S
C1807 H1815 0.929 . S
C1808 C1807 1.383 . S
C1808 C1809 1.377 . S
C1809 H1793 0.930 . S
C1809 C1808 1.377 . S
C1809 C1810 1.379 . S
C1810 H1794 0.931 . S
C1810 C1804 1.383 . S
C1810 C1809 1.379 . S
H1811 C1805 0.959 . S
H1812 C1805 0.961 . S
H1813 C1805 0.960 . S
H1814 C1806 0.930 . S
H1815 C1807 0.929 . S
H1816 C1824 0.929 . S
H1817 C1826 0.930 . S
H1818 C1828 0.930 . S
H1819 C1831 0.929 . S
H1820 C1834 0.930 . S
H1821 C1836 0.960 . S
H1822 C1836 0.960 . S
H1823 C1836 0.960 . S
C1824 H1816 0.929 . S
C1824 C1825 1.377 . S
C1824 C1826 1.384 . S
C1825 C1824 1.377 . S
C1825 C1831 1.390 . S
C1826 H1817 0.930 . S
C1826 C1824 1.384 . S
C1826 C1827 1.372 . S
C1827 C1826 1.372 . S
C1827 C1828 1.400 . S
C1827 C1832 1.490 . S
C1828 H1818 0.930 . S
C1828 C1827 1.400 . S
C1828 C1831 1.386 . S
H1829 C1845 0.930 . S
H1830 C1846 0.931 . S
C1831 H1819 0.929 . S
C1831 C1825 1.390 . S
C1831 C1828 1.386 . S
C1832 C1827 1.490 . S
C1832 C1834 1.395 . S
C1832 C1835 1.403 . S
H1833 C1839 0.930 . S
C1834 H1820 0.930 . S
C1834 C1832 1.395 . S
C1834 C1837 1.403 . S
C1835 C1832 1.403 . S
C1835 C1836 1.524 . S
C1835 C1839 1.400 . S
C1836 H1821 0.960 . S
C1836 H1822 0.960 . S
C1836 H1823 0.960 . S
C1836 C1835 1.524 . S
C1837 C1834 1.403 . S
C1837 C1838 1.392 . S
C1837 C1841 1.495 . S
C1838 C1837 1.392 . S
C1838 C1839 1.385 . S
C1838 C1840 1.478 . S
C1839 H1833 0.930 . S
C1839 C1835 1.400 . S
C1839 C1838 1.385 . S
C1840 C1838 1.478 . S
C1840 C1842 1.381 . S
C1840 C1846 1.383 . S
C1841 C1837 1.495 . S
C1841 H1847 0.959 . S
C1841 H1848 0.961 . S
C1841 H1849 0.960 . S
C1842 C1840 1.381 . S
C1842 C1843 1.394 . S
C1842 H1850 0.930 . S
C1843 C1842 1.394 . S
C1843 C1844 1.383 . S
C1843 H1851 0.929 . S
C1844 C1843 1.383 . S
C1844 C1845 1.377 . S
C1845 H1829 0.930 . S
C1845 C1844 1.377 . S
C1845 C1846 1.379 . S
C1846 H1830 0.931 . S
C1846 C1840 1.383 . S
C1846 C1845 1.379 . S
H1847 C1841 0.959 . S
H1848 C1841 0.961 . S
H1849 C1841 0.960 . S
H1850 C1842 0.930 . S
H1851 C1843 0.929 . S
H1852 C1860 0.929 . S
H1853 C1862 0.930 . S
H1854 C1864 0.930 . S
H1855 C1867 0.929 . S
H1856 C1870 0.930 . S
H1857 C1872 0.960 . S
H1858 C1872 0.960 . S
H1859 C1872 0.960 . S
C1860 H1852 0.929 . S
C1860 C1861 1.377 . S
C1860 C1862 1.384 . S
C1861 C1860 1.377 . S
C1861 C1867 1.390 . S
C1862 H1853 0.930 . S
C1862 C1860 1.384 . S
C1862 C1863 1.372 . S
C1863 C1862 1.372 . S
C1863 C1864 1.400 . S
C1863 C1868 1.490 . S
C1864 H1854 0.930 . S
C1864 C1863 1.400 . S
C1864 C1867 1.386 . S
H1865 C1881 0.930 . S
H1866 C1882 0.931 . S
C1867 H1855 0.929 . S
C1867 C1861 1.390 . S
C1867 C1864 1.386 . S
C1868 C1863 1.490 . S
C1868 C1870 1.395 . S
C1868 C1871 1.403 . S
H1869 C1875 0.930 . S
C1870 H1856 0.930 . S
C1870 C1868 1.395 . S
C1870 C1873 1.403 . S
C1871 C1868 1.403 . S
C1871 C1872 1.524 . S
C1871 C1875 1.400 . S
C1872 H1857 0.960 . S
C1872 H1858 0.960 . S
C1872 H1859 0.960 . S
C1872 C1871 1.524 . S
C1873 C1870 1.403 . S
C1873 C1874 1.392 . S
C1873 C1877 1.495 . S
C1874 C1873 1.392 . S
C1874 C1875 1.385 . S
C1874 C1876 1.478 . S
C1875 H1869 0.930 . S
C1875 C1871 1.400 . S
C1875 C1874 1.385 . S
C1876 C1874 1.478 . S
C1876 C1878 1.381 . S
C1876 C1882 1.383 . S
C1877 C1873 1.495 . S
C1877 H1883 0.959 . S
C1877 H1884 0.961 . S
C1877 H1885 0.960 . S
C1878 C1876 1.381 . S
C1878 C1879 1.394 . S
C1878 H1886 0.930 . S
C1879 C1878 1.394 . S
C1879 C1880 1.383 . S
C1879 H1887 0.929 . S
C1880 C1879 1.383 . S
C1880 C1881 1.377 . S
C1881 H1865 0.930 . S
C1881 C1880 1.377 . S
C1881 C1882 1.379 . S
C1882 H1866 0.931 . S
C1882 C1876 1.383 . S
C1882 C1881 1.379 . S
H1883 C1877 0.959 . S
H1884 C1877 0.961 . S
H1885 C1877 0.960 . S
H1886 C1878 0.930 . S
H1887 C1879 0.929 . S
H1888 C1896 0.929 . S
H1889 C1898 0.930 . S
H1890 C1900 0.930 . S
H1891 C1903 0.929 . S
H1892 C1906 0.930 . S
H1893 C1908 0.960 . S
H1894 C1908 0.960 . S
H1895 C1908 0.960 . S
C1896 H1888 0.929 . S
C1896 C1897 1.377 . S
C1896 C1898 1.384 . S
C1897 C1896 1.377 . S
C1897 C1903 1.390 . S
C1898 H1889 0.930 . S
C1898 C1896 1.384 . S
C1898 C1899 1.372 . S
C1899 C1898 1.372 . S
C1899 C1900 1.400 . S
C1899 C1904 1.490 . S
C1900 H1890 0.930 . S
C1900 C1899 1.400 . S
C1900 C1903 1.386 . S
H1901 C1917 0.930 . S
H1902 C1918 0.931 . S
C1903 H1891 0.929 . S
C1903 C1897 1.390 . S
C1903 C1900 1.386 . S
C1904 C1899 1.490 . S
C1904 C1906 1.395 . S
C1904 C1907 1.403 . S
H1905 C1911 0.930 . S
C1906 H1892 0.930 . S
C1906 C1904 1.395 . S
C1906 C1909 1.403 1_554 S
C1907 C1904 1.403 . S
C1907 C1908 1.524 . S
C1907 C1911 1.400 1_554 S
C1908 H1893 0.960 . S
C1908 H1894 0.960 . S
C1908 H1895 0.960 . S
C1908 C1907 1.524 . S
C1909 C1906 1.403 1_556 S
C1909 C1910 1.392 . S
C1909 C1913 1.495 . S
C1910 C1909 1.392 . S
C1910 C1911 1.385 . S
C1910 C1912 1.478 . S
C1911 H1905 0.930 . S
C1911 C1907 1.400 1_556 S
C1911 C1910 1.385 . S
C1912 C1910 1.478 . S
C1912 C1914 1.381 . S
C1912 C1918 1.383 . S
C1913 C1909 1.495 . S
C1913 H1919 0.959 . S
C1913 H1920 0.961 . S
C1913 H1921 0.960 . S
C1914 C1912 1.381 . S
C1914 C1915 1.394 . S
C1914 H1922 0.930 . S
C1915 C1914 1.394 . S
C1915 C1916 1.383 . S
C1915 H1923 0.929 . S
C1916 C1915 1.383 . S
C1916 C1917 1.377 . S
C1917 H1901 0.930 . S
C1917 C1916 1.377 . S
C1917 C1918 1.379 . S
C1918 H1902 0.931 . S
C1918 C1912 1.383 . S
C1918 C1917 1.379 . S
H1919 C1913 0.959 . S
H1920 C1913 0.961 . S
H1921 C1913 0.960 . S
H1922 C1914 0.930 . S
H1923 C1915 0.929 . S
H1924 C1932 0.929 . S
H1925 C1934 0.930 . S
H1926 C1936 0.930 . S
H1927 C1939 0.929 . S
H1928 C1942 0.930 . S
H1929 C1944 0.960 . S
H1930 C1944 0.960 . S
H1931 C1944 0.960 . S
C1932 H1924 0.929 . S
C1932 C1933 1.377 . S
C1932 C1934 1.384 . S
C1933 C1932 1.377 . S
C1933 C1939 1.390 . S
C1934 H1925 0.930 . S
C1934 C1932 1.384 . S
C1934 C1935 1.372 . S
C1935 C1934 1.372 . S
C1935 C1936 1.400 . S
C1935 C1940 1.490 . S
C1936 H1926 0.930 . S
C1936 C1935 1.400 . S
C1936 C1939 1.386 . S
H1937 C1953 0.930 . S
H1938 C1954 0.931 . S
C1939 H1927 0.929 . S
C1939 C1933 1.390 . S
C1939 C1936 1.386 . S
C1940 C1935 1.490 . S
C1940 C1942 1.395 . S
C1940 C1943 1.403 . S
H1941 C1947 0.930 . S
C1942 H1928 0.930 . S
C1942 C1940 1.395 . S
C1942 C1945 1.403 1_556 S
C1943 C1940 1.403 . S
C1943 C1944 1.524 . S
C1943 C1947 1.400 1_556 S
C1944 H1929 0.960 . S
C1944 H1930 0.960 . S
C1944 H1931 0.960 . S
C1944 C1943 1.524 . S
C1945 C1942 1.403 1_554 S
C1945 C1946 1.392 . S
C1945 C1949 1.495 . S
C1946 C1945 1.392 . S
C1946 C1947 1.385 . S
C1946 C1948 1.478 . S
C1947 H1941 0.930 . S
C1947 C1943 1.400 1_554 S
C1947 C1946 1.385 . S
C1948 C1946 1.478 . S
C1948 C1950 1.381 . S
C1948 C1954 1.383 . S
C1949 C1945 1.495 . S
C1949 H1955 0.959 . S
C1949 H1956 0.961 . S
C1949 H1957 0.960 . S
C1950 C1948 1.381 . S
C1950 C1951 1.394 . S
C1950 H1958 0.930 . S
C1951 C1950 1.394 . S
C1951 C1952 1.383 . S
C1951 H1959 0.929 . S
C1952 C1951 1.383 . S
C1952 C1953 1.377 . S
C1953 H1937 0.930 . S
C1953 C1952 1.377 . S
C1953 C1954 1.379 . S
C1954 H1938 0.931 . S
C1954 C1948 1.383 . S
C1954 C1953 1.379 . S
H1955 C1949 0.959 . S
H1956 C1949 0.961 . S
H1957 C1949 0.960 . S
H1958 C1950 0.930 . S
H1959 C1951 0.929 . S
H1960 C1968 0.929 . S
H1961 C1970 0.930 . S
H1962 C1972 0.930 . S
H1963 C1975 0.929 . S
H1964 C1978 0.930 . S
H1965 C1980 0.960 . S
H1966 C1980 0.960 . S
H1967 C1980 0.960 . S
C1968 H1960 0.929 . S
C1968 C1969 1.377 . S
C1968 C1970 1.384 . S
C1969 C1968 1.377 . S
C1969 C1975 1.390 . S
C1970 H1961 0.930 . S
C1970 C1968 1.384 . S
C1970 C1971 1.372 . S
C1971 C1970 1.372 . S
C1971 C1972 1.400 . S
C1971 C1976 1.490 . S
C1972 H1962 0.930 . S
C1972 C1971 1.400 . S
C1972 C1975 1.386 . S
H1973 C1989 0.930 . S
H1974 C1990 0.931 . S
C1975 H1963 0.929 . S
C1975 C1969 1.390 . S
C1975 C1972 1.386 . S
C1976 C1971 1.490 . S
C1976 C1978 1.395 . S
C1976 C1979 1.403 . S
H1977 C1983 0.930 . S
C1978 H1964 0.930 . S
C1978 C1976 1.395 . S
C1978 C1981 1.403 1_554 S
C1979 C1976 1.403 . S
C1979 C1980 1.524 . S
C1979 C1983 1.400 1_554 S
C1980 H1965 0.960 . S
C1980 H1966 0.960 . S
C1980 H1967 0.960 . S
C1980 C1979 1.524 . S
C1981 C1978 1.403 1_556 S
C1981 C1982 1.392 . S
C1981 C1985 1.495 . S
C1982 C1981 1.392 . S
C1982 C1983 1.385 . S
C1982 C1984 1.478 . S
C1983 H1977 0.930 . S
C1983 C1979 1.400 1_556 S
C1983 C1982 1.385 . S
C1984 C1982 1.478 . S
C1984 C1986 1.381 . S
C1984 C1990 1.383 . S
C1985 C1981 1.495 . S
C1985 H1991 0.959 . S
C1985 H1992 0.961 . S
C1985 H1993 0.960 . S
C1986 C1984 1.381 . S
C1986 C1987 1.394 . S
C1986 H1994 0.930 . S
C1987 C1986 1.394 . S
C1987 C1988 1.383 . S
C1987 H1995 0.929 . S
C1988 C1987 1.383 . S
C1988 C1989 1.377 . S
C1989 H1973 0.930 . S
C1989 C1988 1.377 . S
C1989 C1990 1.379 . S
C1990 H1974 0.931 . S
C1990 C1984 1.383 . S
C1990 C1989 1.379 . S
H1991 C1985 0.959 . S
H1992 C1985 0.961 . S
H1993 C1985 0.960 . S
H1994 C1986 0.930 . S
H1995 C1987 0.929 . S
H1996 C2004 0.929 . S
H1997 C2006 0.930 . S
H1998 C2008 0.930 . S
H1999 C2011 0.929 . S
H2000 C2014 0.930 . S
H2001 C2016 0.960 . S
H2002 C2016 0.960 . S
H2003 C2016 0.960 . S
C2004 H1996 0.929 . S
C2004 C2005 1.377 . S
C2004 C2006 1.384 . S
C2005 C2004 1.377 . S
C2005 C2011 1.390 . S
C2006 H1997 0.930 . S
C2006 C2004 1.384 . S
C2006 C2007 1.372 . S
C2007 C2006 1.372 . S
C2007 C2008 1.400 . S
C2007 C2012 1.490 . S
C2008 H1998 0.930 . S
C2008 C2007 1.400 . S
C2008 C2011 1.386 . S
H2009 C2025 0.930 . S
H2010 C2026 0.931 . S
C2011 H1999 0.929 . S
C2011 C2005 1.390 . S
C2011 C2008 1.386 . S
C2012 C2007 1.490 . S
C2012 C2014 1.395 . S
C2012 C2015 1.403 . S
H2013 C2019 0.930 . S
C2014 H2000 0.930 . S
C2014 C2012 1.395 . S
C2014 C2017 1.403 1_554 S
C2015 C2012 1.403 . S
C2015 C2016 1.524 . S
C2015 C2019 1.400 1_554 S
C2016 H2001 0.960 . S
C2016 H2002 0.960 . S
C2016 H2003 0.960 . S
C2016 C2015 1.524 . S
C2017 C2014 1.403 1_556 S
C2017 C2018 1.392 . S
C2017 C2021 1.495 . S
C2018 C2017 1.392 . S
C2018 C2019 1.385 . S
C2018 C2020 1.478 . S
C2019 H2013 0.930 . S
C2019 C2015 1.400 1_556 S
C2019 C2018 1.385 . S
C2020 C2018 1.478 . S
C2020 C2022 1.381 . S
C2020 C2026 1.383 . S
C2021 C2017 1.495 . S
C2021 H2027 0.959 . S
C2021 H2028 0.961 . S
C2021 H2029 0.960 . S
C2022 C2020 1.381 . S
C2022 C2023 1.394 . S
C2022 H2030 0.930 . S
C2023 C2022 1.394 . S
C2023 C2024 1.383 . S
C2023 H2031 0.929 . S
C2024 C2023 1.383 . S
C2024 C2025 1.377 . S
C2025 H2009 0.930 . S
C2025 C2024 1.377 . S
C2025 C2026 1.379 . S
C2026 H2010 0.931 . S
C2026 C2020 1.383 . S
C2026 C2025 1.379 . S
H2027 C2021 0.959 . S
H2028 C2021 0.961 . S
H2029 C2021 0.960 . S
H2030 C2022 0.930 . S
H2031 C2023 0.929 . S
H2032 C2040 0.929 . S
H2033 C2042 0.930 . S
H2034 C2044 0.930 . S
H2035 C2047 0.929 . S
H2036 C2050 0.930 . S
H2037 C2052 0.960 . S
H2038 C2052 0.960 . S
H2039 C2052 0.960 . S
C2040 H2032 0.929 . S
C2040 C2041 1.377 . S
C2040 C2042 1.384 . S
C2041 C2040 1.377 . S
C2041 C2047 1.390 . S
C2042 H2033 0.930 . S
C2042 C2040 1.384 . S
C2042 C2043 1.372 . S
C2043 C2042 1.372 . S
C2043 C2044 1.400 . S
C2043 C2048 1.490 . S
C2044 H2034 0.930 . S
C2044 C2043 1.400 . S
C2044 C2047 1.386 . S
H2045 C2061 0.930 . S
H2046 C2062 0.931 . S
C2047 H2035 0.929 . S
C2047 C2041 1.390 . S
C2047 C2044 1.386 . S
C2048 C2043 1.490 . S
C2048 C2050 1.395 . S
C2048 C2051 1.403 . S
H2049 C2055 0.930 . S
C2050 H2036 0.930 . S
C2050 C2048 1.395 . S
C2050 C2053 1.403 1_554 S
C2051 C2048 1.403 . S
C2051 C2052 1.524 . S
C2051 C2055 1.400 1_554 S
C2052 H2037 0.960 . S
C2052 H2038 0.960 . S
C2052 H2039 0.960 . S
C2052 C2051 1.524 . S
C2053 C2050 1.403 1_556 S
C2053 C2054 1.392 . S
C2053 C2057 1.495 . S
C2054 C2053 1.392 . S
C2054 C2055 1.385 . S
C2054 C2056 1.478 . S
C2055 H2049 0.930 . S
C2055 C2051 1.400 1_556 S
C2055 C2054 1.385 . S
C2056 C2054 1.478 . S
C2056 C2058 1.381 . S
C2056 C2062 1.383 . S
C2057 C2053 1.495 . S
C2057 H2063 0.959 . S
C2057 H2064 0.961 . S
C2057 H2065 0.960 . S
C2058 C2056 1.381 . S
C2058 C2059 1.394 . S
C2058 H2066 0.930 . S
C2059 C2058 1.394 . S
C2059 C2060 1.383 . S
C2059 H2067 0.929 . S
C2060 C2059 1.383 . S
C2060 C2061 1.377 . S
C2061 H2045 0.930 . S
C2061 C2060 1.377 . S
C2061 C2062 1.379 . S
C2062 H2046 0.931 . S
C2062 C2056 1.383 . S
C2062 C2061 1.379 . S
H2063 C2057 0.959 . S
H2064 C2057 0.961 . S
H2065 C2057 0.960 . S
H2066 C2058 0.930 . S
H2067 C2059 0.929 . S
H2068 C2076 0.929 . S
H2069 C2078 0.930 . S
H2070 C2080 0.930 . S
H2071 C2083 0.929 . S
H2072 C2086 0.930 . S
H2073 C2088 0.960 . S
H2074 C2088 0.960 . S
H2075 C2088 0.960 . S
C2076 H2068 0.929 . S
C2076 C2077 1.377 . S
C2076 C2078 1.384 . S
C2077 C2076 1.377 . S
C2077 C2083 1.390 . S
C2078 H2069 0.930 . S
C2078 C2076 1.384 . S
C2078 C2079 1.372 . S
C2079 C2078 1.372 . S
C2079 C2080 1.400 . S
C2079 C2084 1.490 . S
C2080 H2070 0.930 . S
C2080 C2079 1.400 . S
C2080 C2083 1.386 . S
H2081 C2097 0.930 . S
H2082 C2098 0.931 . S
C2083 H2071 0.929 . S
C2083 C2077 1.390 . S
C2083 C2080 1.386 . S
C2084 C2079 1.490 . S
C2084 C2086 1.395 . S
C2084 C2087 1.403 . S
H2085 C2091 0.930 . S
C2086 H2072 0.930 . S
C2086 C2084 1.395 . S
C2086 C2089 1.403 1_554 S
C2087 C2084 1.403 . S
C2087 C2088 1.524 . S
C2087 C2091 1.400 1_554 S
C2088 H2073 0.960 . S
C2088 H2074 0.960 . S
C2088 H2075 0.960 . S
C2088 C2087 1.524 . S
C2089 C2086 1.403 1_556 S
C2089 C2090 1.392 . S
C2089 C2093 1.495 . S
C2090 C2089 1.392 . S
C2090 C2091 1.385 . S
C2090 C2092 1.478 . S
C2091 H2085 0.930 . S
C2091 C2087 1.400 1_556 S
C2091 C2090 1.385 . S
C2092 C2090 1.478 . S
C2092 C2094 1.381 . S
C2092 C2098 1.383 . S
C2093 C2089 1.495 . S
C2093 H2099 0.959 . S
C2093 H2100 0.961 . S
C2093 H2101 0.960 . S
C2094 C2092 1.381 . S
C2094 C2095 1.394 . S
C2094 H2102 0.930 . S
C2095 C2094 1.394 . S
C2095 C2096 1.383 . S
C2095 H2103 0.929 . S
C2096 C2095 1.383 . S
C2096 C2097 1.377 . S
C2097 H2081 0.930 . S
C2097 C2096 1.377 . S
C2097 C2098 1.379 . S
C2098 H2082 0.931 . S
C2098 C2092 1.383 . S
C2098 C2097 1.379 . S
H2099 C2093 0.959 . S
H2100 C2093 0.961 . S
H2101 C2093 0.960 . S
H2102 C2094 0.930 . S
H2103 C2095 0.929 . S
H2104 C2112 0.929 . S
H2105 C2114 0.930 . S
H2106 C2116 0.930 . S
H2107 C2119 0.929 . S
H2108 C2122 0.930 . S
H2109 C2124 0.960 . S
H2110 C2124 0.960 . S
H2111 C2124 0.960 . S
C2112 H2104 0.929 . S
C2112 C2113 1.377 . S
C2112 C2114 1.384 . S
C2113 C2112 1.377 . S
C2113 C2119 1.390 . S
C2114 H2105 0.930 . S
C2114 C2112 1.384 . S
C2114 C2115 1.372 . S
C2115 C2114 1.372 . S
C2115 C2116 1.400 . S
C2115 C2120 1.490 . S
C2116 H2106 0.930 . S
C2116 C2115 1.400 . S
C2116 C2119 1.386 . S
H2117 C2133 0.930 . S
H2118 C2134 0.931 . S
C2119 H2107 0.929 . S
C2119 C2113 1.390 . S
C2119 C2116 1.386 . S
C2120 C2115 1.490 . S
C2120 C2122 1.395 . S
C2120 C2123 1.403 . S
H2121 C2127 0.930 . S
C2122 H2108 0.930 . S
C2122 C2120 1.395 . S
C2122 C2125 1.403 1_556 S
C2123 C2120 1.403 . S
C2123 C2124 1.524 . S
C2123 C2127 1.400 1_556 S
C2124 H2109 0.960 . S
C2124 H2110 0.960 . S
C2124 H2111 0.960 . S
C2124 C2123 1.524 . S
C2125 C2122 1.403 1_554 S
C2125 C2126 1.392 . S
C2125 C2129 1.495 . S
C2126 C2125 1.392 . S
C2126 C2127 1.385 . S
C2126 C2128 1.478 . S
C2127 H2121 0.930 . S
C2127 C2123 1.400 1_554 S
C2127 C2126 1.385 . S
C2128 C2126 1.478 . S
C2128 C2130 1.381 . S
C2128 C2134 1.383 . S
C2129 C2125 1.495 . S
C2129 H2135 0.959 . S
C2129 H2136 0.961 . S
C2129 H2137 0.960 . S
C2130 C2128 1.381 . S
C2130 C2131 1.394 . S
C2130 H2138 0.930 . S
C2131 C2130 1.394 . S
C2131 C2132 1.383 . S
C2131 H2139 0.929 . S
C2132 C2131 1.383 . S
C2132 C2133 1.377 . S
C2133 H2117 0.930 . S
C2133 C2132 1.377 . S
C2133 C2134 1.379 . S
C2134 H2118 0.931 . S
C2134 C2128 1.383 . S
C2134 C2133 1.379 . S
H2135 C2129 0.959 . S
H2136 C2129 0.961 . S
H2137 C2129 0.960 . S
H2138 C2130 0.930 . S
H2139 C2131 0.929 . S
H2140 C2148 0.929 . S
H2141 C2150 0.930 . S
H2142 C2152 0.930 . S
H2143 C2155 0.929 . S
H2144 C2158 0.930 . S
H2145 C2160 0.960 . S
H2146 C2160 0.960 . S
H2147 C2160 0.960 . S
C2148 H2140 0.929 . S
C2148 C2149 1.377 . S
C2148 C2150 1.384 . S
C2149 C2148 1.377 . S
C2149 C2155 1.390 . S
C2150 H2141 0.930 . S
C2150 C2148 1.384 . S
C2150 C2151 1.372 . S
C2151 C2150 1.372 . S
C2151 C2152 1.400 . S
C2151 C2156 1.490 . S
C2152 H2142 0.930 . S
C2152 C2151 1.400 . S
C2152 C2155 1.386 . S
H2153 C2169 0.930 . S
H2154 C2170 0.931 . S
C2155 H2143 0.929 . S
C2155 C2149 1.390 . S
C2155 C2152 1.386 . S
C2156 C2151 1.490 . S
C2156 C2158 1.395 . S
C2156 C2159 1.403 . S
H2157 C2163 0.930 . S
C2158 H2144 0.930 . S
C2158 C2156 1.395 . S
C2158 C2161 1.403 1_556 S
C2159 C2156 1.403 . S
C2159 C2160 1.524 . S
C2159 C2163 1.400 1_556 S
C2160 H2145 0.960 . S
C2160 H2146 0.960 . S
C2160 H2147 0.960 . S
C2160 C2159 1.524 . S
C2161 C2158 1.403 1_554 S
C2161 C2162 1.392 . S
C2161 C2165 1.495 . S
C2162 C2161 1.392 . S
C2162 C2163 1.385 . S
C2162 C2164 1.478 . S
C2163 H2157 0.930 . S
C2163 C2159 1.400 1_554 S
C2163 C2162 1.385 . S
C2164 C2162 1.478 . S
C2164 C2166 1.381 . S
C2164 C2170 1.383 . S
C2165 C2161 1.495 . S
C2165 H2171 0.959 . S
C2165 H2172 0.961 . S
C2165 H2173 0.960 . S
C2166 C2164 1.381 . S
C2166 C2167 1.394 . S
C2166 H2174 0.930 . S
C2167 C2166 1.394 . S
C2167 C2168 1.383 . S
C2167 H2175 0.929 . S
C2168 C2167 1.383 . S
C2168 C2169 1.377 . S
C2169 H2153 0.930 . S
C2169 C2168 1.377 . S
C2169 C2170 1.379 . S
C2170 H2154 0.931 . S
C2170 C2164 1.383 . S
C2170 C2169 1.379 . S
H2171 C2165 0.959 . S
H2172 C2165 0.961 . S
H2173 C2165 0.960 . S
H2174 C2166 0.930 . S
H2175 C2167 0.929 . S
H2176 C2184 0.929 . S
H2177 C2186 0.930 . S
H2178 C2188 0.930 . S
H2179 C2191 0.929 . S
H2180 C2194 0.930 . S
H2181 C2196 0.960 . S
H2182 C2196 0.960 . S
H2183 C2196 0.960 . S
C2184 H2176 0.929 . S
C2184 C2185 1.377 . S
C2184 C2186 1.384 . S
C2185 C2184 1.377 . S
C2185 C2191 1.390 . S
C2186 H2177 0.930 . S
C2186 C2184 1.384 . S
C2186 C2187 1.372 . S
C2187 C2186 1.372 . S
C2187 C2188 1.400 . S
C2187 C2192 1.490 . S
C2188 H2178 0.930 . S
C2188 C2187 1.400 . S
C2188 C2191 1.386 . S
H2189 C2205 0.930 . S
H2190 C2206 0.931 . S
C2191 H2179 0.929 . S
C2191 C2185 1.390 . S
C2191 C2188 1.386 . S
C2192 C2187 1.490 . S
C2192 C2194 1.395 . S
C2192 C2195 1.403 . S
H2193 C2199 0.930 . S
C2194 H2180 0.930 . S
C2194 C2192 1.395 . S
C2194 C2197 1.403 . S
C2195 C2192 1.403 . S
C2195 C2196 1.524 . S
C2195 C2199 1.400 . S
C2196 H2181 0.960 . S
C2196 H2182 0.960 . S
C2196 H2183 0.960 . S
C2196 C2195 1.524 . S
C2197 C2194 1.403 . S
C2197 C2198 1.392 . S
C2197 C2201 1.495 . S
C2198 C2197 1.392 . S
C2198 C2199 1.385 . S
C2198 C2200 1.478 . S
C2199 H2193 0.930 . S
C2199 C2195 1.400 . S
C2199 C2198 1.385 . S
C2200 C2198 1.478 . S
C2200 C2202 1.381 . S
C2200 C2206 1.383 . S
C2201 C2197 1.495 . S
C2201 H2207 0.959 . S
C2201 H2208 0.961 . S
C2201 H2209 0.960 . S
C2202 C2200 1.381 . S
C2202 C2203 1.394 . S
C2202 H2210 0.930 . S
C2203 C2202 1.394 . S
C2203 C2204 1.383 . S
C2203 H2211 0.929 . S
C2204 C2203 1.383 . S
C2204 C2205 1.377 . S
C2205 H2189 0.930 . S
C2205 C2204 1.377 . S
C2205 C2206 1.379 . S
C2206 H2190 0.931 . S
C2206 C2200 1.383 . S
C2206 C2205 1.379 . S
H2207 C2201 0.959 . S
H2208 C2201 0.961 . S
H2209 C2201 0.960 . S
H2210 C2202 0.930 . S
H2211 C2203 0.929 . S
H2212 C2220 0.929 . S
H2213 C2222 0.930 . S
H2214 C2224 0.930 . S
H2215 C2227 0.929 . S
H2216 C2230 0.930 . S
H2217 C2232 0.960 . S
H2218 C2232 0.960 . S
H2219 C2232 0.960 . S
C2220 H2212 0.929 . S
C2220 C2221 1.377 . S
C2220 C2222 1.384 . S
C2221 C2220 1.377 . S
C2221 C2227 1.390 . S
C2222 H2213 0.930 . S
C2222 C2220 1.384 . S
C2222 C2223 1.372 . S
C2223 C2222 1.372 . S
C2223 C2224 1.400 . S
C2223 C2228 1.490 . S
C2224 H2214 0.930 . S
C2224 C2223 1.400 . S
C2224 C2227 1.386 . S
H2225 C2241 0.930 . S
H2226 C2242 0.931 . S
C2227 H2215 0.929 . S
C2227 C2221 1.390 . S
C2227 C2224 1.386 . S
C2228 C2223 1.490 . S
C2228 C2230 1.395 . S
C2228 C2231 1.403 . S
H2229 C2235 0.930 . S
C2230 H2216 0.930 . S
C2230 C2228 1.395 . S
C2230 C2233 1.403 . S
C2231 C2228 1.403 . S
C2231 C2232 1.524 . S
C2231 C2235 1.400 . S
C2232 H2217 0.960 . S
C2232 H2218 0.960 . S
C2232 H2219 0.960 . S
C2232 C2231 1.524 . S
C2233 C2230 1.403 . S
C2233 C2234 1.392 . S
C2233 C2237 1.495 . S
C2234 C2233 1.392 . S
C2234 C2235 1.385 . S
C2234 C2236 1.478 . S
C2235 H2229 0.930 . S
C2235 C2231 1.400 . S
C2235 C2234 1.385 . S
C2236 C2234 1.478 . S
C2236 C2238 1.381 . S
C2236 C2242 1.383 . S
C2237 C2233 1.495 . S
C2237 H2243 0.959 . S
C2237 H2244 0.961 . S
C2237 H2245 0.960 . S
C2238 C2236 1.381 . S
C2238 C2239 1.394 . S
C2238 H2246 0.930 . S
C2239 C2238 1.394 . S
C2239 C2240 1.383 . S
C2239 H2247 0.929 . S
C2240 C2239 1.383 . S
C2240 C2241 1.377 . S
C2241 H2225 0.930 . S
C2241 C2240 1.377 . S
C2241 C2242 1.379 . S
C2242 H2226 0.931 . S
C2242 C2236 1.383 . S
C2242 C2241 1.379 . S
H2243 C2237 0.959 . S
H2244 C2237 0.961 . S
H2245 C2237 0.960 . S
H2246 C2238 0.930 . S
H2247 C2239 0.929 . S
H2248 C2256 0.929 . S
H2249 C2258 0.930 . S
H2250 C2260 0.930 . S
H2251 C2263 0.929 . S
H2252 C2266 0.930 . S
H2253 C2268 0.960 . S
H2254 C2268 0.960 . S
H2255 C2268 0.960 . S
C2256 H2248 0.929 . S
C2256 C2257 1.377 . S
C2256 C2258 1.384 . S
C2257 C2256 1.377 . S
C2257 C2263 1.390 . S
C2258 H2249 0.930 . S
C2258 C2256 1.384 . S
C2258 C2259 1.372 . S
C2259 C2258 1.372 . S
C2259 C2260 1.400 . S
C2259 C2264 1.490 . S
C2260 H2250 0.930 . S
C2260 C2259 1.400 . S
C2260 C2263 1.386 . S
H2261 C2277 0.930 . S
H2262 C2278 0.931 . S
C2263 H2251 0.929 . S
C2263 C2257 1.390 . S
C2263 C2260 1.386 . S
C2264 C2259 1.490 . S
C2264 C2266 1.395 . S
C2264 C2267 1.403 . S
H2265 C2271 0.930 . S
C2266 H2252 0.930 . S
C2266 C2264 1.395 . S
C2266 C2269 1.403 . S
C2267 C2264 1.403 . S
C2267 C2268 1.524 . S
C2267 C2271 1.400 . S
C2268 H2253 0.960 . S
C2268 H2254 0.960 . S
C2268 H2255 0.960 . S
C2268 C2267 1.524 . S
C2269 C2266 1.403 . S
C2269 C2270 1.392 . S
C2269 C2273 1.495 . S
C2270 C2269 1.392 . S
C2270 C2271 1.385 . S
C2270 C2272 1.478 . S
C2271 H2265 0.930 . S
C2271 C2267 1.400 . S
C2271 C2270 1.385 . S
C2272 C2270 1.478 . S
C2272 C2274 1.381 . S
C2272 C2278 1.383 . S
C2273 C2269 1.495 . S
C2273 H2279 0.959 . S
C2273 H2280 0.961 . S
C2273 H2281 0.960 . S
C2274 C2272 1.381 . S
C2274 C2275 1.394 . S
C2274 H2282 0.930 . S
C2275 C2274 1.394 . S
C2275 C2276 1.383 . S
C2275 H2283 0.929 . S
C2276 C2275 1.383 . S
C2276 C2277 1.377 . S
C2277 H2261 0.930 . S
C2277 C2276 1.377 . S
C2277 C2278 1.379 . S
C2278 H2262 0.931 . S
C2278 C2272 1.383 . S
C2278 C2277 1.379 . S
H2279 C2273 0.959 . S
H2280 C2273 0.961 . S
H2281 C2273 0.960 . S
H2282 C2274 0.930 . S
H2283 C2275 0.929 . S
H2284 C2292 0.929 . S
H2285 C2294 0.930 . S
H2286 C2296 0.930 . S
H2287 C2299 0.929 . S
H2288 C2302 0.930 . S
H2289 C2304 0.960 . S
H2290 C2304 0.960 . S
H2291 C2304 0.960 . S
C2292 H2284 0.929 . S
C2292 C2293 1.377 . S
C2292 C2294 1.384 . S
C2293 C2292 1.377 . S
C2293 C2299 1.390 . S
C2294 H2285 0.930 . S
C2294 C2292 1.384 . S
C2294 C2295 1.372 . S
C2295 C2294 1.372 . S
C2295 C2296 1.400 . S
C2295 C2300 1.490 . S
C2296 H2286 0.930 . S
C2296 C2295 1.400 . S
C2296 C2299 1.386 . S
H2297 C2313 0.930 . S
H2298 C2314 0.931 . S
C2299 H2287 0.929 . S
C2299 C2293 1.390 . S
C2299 C2296 1.386 . S
C2300 C2295 1.490 . S
C2300 C2302 1.395 . S
C2300 C2303 1.403 . S
H2301 C2307 0.930 . S
C2302 H2288 0.930 . S
C2302 C2300 1.395 . S
C2302 C2305 1.403 . S
C2303 C2300 1.403 . S
C2303 C2304 1.524 . S
C2303 C2307 1.400 . S
C2304 H2289 0.960 . S
C2304 H2290 0.960 . S
C2304 H2291 0.960 . S
C2304 C2303 1.524 . S
C2305 C2302 1.403 . S
C2305 C2306 1.392 . S
C2305 C2309 1.495 . S
C2306 C2305 1.392 . S
C2306 C2307 1.385 . S
C2306 C2308 1.478 . S
C2307 H2301 0.930 . S
C2307 C2303 1.400 . S
C2307 C2306 1.385 . S
C2308 C2306 1.478 . S
C2308 C2310 1.381 . S
C2308 C2314 1.383 . S
C2309 C2305 1.495 . S
C2309 H2315 0.959 . S
C2309 H2316 0.961 . S
C2309 H2317 0.960 . S
C2310 C2308 1.381 . S
C2310 C2311 1.394 . S
C2310 H2318 0.930 . S
C2311 C2310 1.394 . S
C2311 C2312 1.383 . S
C2311 H2319 0.929 . S
C2312 C2311 1.383 . S
C2312 C2313 1.377 . S
C2313 H2297 0.930 . S
C2313 C2312 1.377 . S
C2313 C2314 1.379 . S
C2314 H2298 0.931 . S
C2314 C2308 1.383 . S
C2314 C2313 1.379 . S
H2315 C2309 0.959 . S
H2316 C2309 0.961 . S
H2317 C2309 0.960 . S
H2318 C2310 0.930 . S
H2319 C2311 0.929 . S
H2320 C2328 0.929 . S
H2321 C2330 0.930 . S
H2322 C2332 0.930 . S
H2323 C2335 0.929 . S
H2324 C2338 0.930 . S
H2325 C2340 0.960 . S
H2326 C2340 0.960 . S
H2327 C2340 0.960 . S
C2328 H2320 0.929 . S
C2328 C2329 1.377 . S
C2328 C2330 1.384 . S
C2329 C2328 1.377 . S
C2329 C2335 1.390 . S
C2330 H2321 0.930 . S
C2330 C2328 1.384 . S
C2330 C2331 1.372 . S
C2331 C2330 1.372 . S
C2331 C2332 1.400 . S
C2331 C2336 1.490 . S
C2332 H2322 0.930 . S
C2332 C2331 1.400 . S
C2332 C2335 1.386 . S
H2333 C2349 0.930 . S
H2334 C2350 0.931 . S
C2335 H2323 0.929 . S
C2335 C2329 1.390 . S
C2335 C2332 1.386 . S
C2336 C2331 1.490 . S
C2336 C2338 1.395 . S
C2336 C2339 1.403 . S
H2337 C2343 0.930 . S
C2338 H2324 0.930 . S
C2338 C2336 1.395 . S
C2338 C2341 1.403 . S
C2339 C2336 1.403 . S
C2339 C2340 1.524 . S
C2339 C2343 1.400 . S
C2340 H2325 0.960 . S
C2340 H2326 0.960 . S
C2340 H2327 0.960 . S
C2340 C2339 1.524 . S
C2341 C2338 1.403 . S
C2341 C2342 1.392 . S
C2341 C2345 1.495 . S
C2342 C2341 1.392 . S
C2342 C2343 1.385 . S
C2342 C2344 1.478 . S
C2343 H2337 0.930 . S
C2343 C2339 1.400 . S
C2343 C2342 1.385 . S
C2344 C2342 1.478 . S
C2344 C2346 1.381 . S
C2344 C2350 1.383 . S
C2345 C2341 1.495 . S
C2345 H2351 0.959 . S
C2345 H2352 0.961 . S
C2345 H2353 0.960 . S
C2346 C2344 1.381 . S
C2346 C2347 1.394 . S
C2346 H2354 0.930 . S
C2347 C2346 1.394 . S
C2347 C2348 1.383 . S
C2347 H2355 0.929 . S
C2348 C2347 1.383 . S
C2348 C2349 1.377 . S
C2349 H2333 0.930 . S
C2349 C2348 1.377 . S
C2349 C2350 1.379 . S
C2350 H2334 0.931 . S
C2350 C2344 1.383 . S
C2350 C2349 1.379 . S
H2351 C2345 0.959 . S
H2352 C2345 0.961 . S
H2353 C2345 0.960 . S
H2354 C2346 0.930 . S
H2355 C2347 0.929 . S
H2356 C2364 0.929 . S
H2357 C2366 0.930 . S
H2358 C2368 0.930 . S
H2359 C2371 0.929 . S
H2360 C2374 0.930 . S
H2361 C2376 0.960 . S
H2362 C2376 0.960 . S
H2363 C2376 0.960 . S
C2364 H2356 0.929 . S
C2364 C2365 1.377 . S
C2364 C2366 1.384 . S
C2365 C2364 1.377 . S
C2365 C2371 1.390 . S
C2366 H2357 0.930 . S
C2366 C2364 1.384 . S
C2366 C2367 1.372 . S
C2367 C2366 1.372 . S
C2367 C2368 1.400 . S
C2367 C2372 1.490 . S
C2368 H2358 0.930 . S
C2368 C2367 1.400 . S
C2368 C2371 1.386 . S
H2369 C2385 0.930 . S
H2370 C2386 0.931 . S
C2371 H2359 0.929 . S
C2371 C2365 1.390 . S
C2371 C2368 1.386 . S
C2372 C2367 1.490 . S
C2372 C2374 1.395 . S
C2372 C2375 1.403 . S
H2373 C2379 0.930 . S
C2374 H2360 0.930 . S
C2374 C2372 1.395 . S
C2374 C2377 1.403 . S
C2375 C2372 1.403 . S
C2375 C2376 1.524 . S
C2375 C2379 1.400 . S
C2376 H2361 0.960 . S
C2376 H2362 0.960 . S
C2376 H2363 0.960 . S
C2376 C2375 1.524 . S
C2377 C2374 1.403 . S
C2377 C2378 1.392 . S
C2377 C2381 1.495 . S
C2378 C2377 1.392 . S
C2378 C2379 1.385 . S
C2378 C2380 1.478 . S
C2379 H2373 0.930 . S
C2379 C2375 1.400 . S
C2379 C2378 1.385 . S
C2380 C2378 1.478 . S
C2380 C2382 1.381 . S
C2380 C2386 1.383 . S
C2381 C2377 1.495 . S
C2381 H2387 0.959 . S
C2381 H2388 0.961 . S
C2381 H2389 0.960 . S
C2382 C2380 1.381 . S
C2382 C2383 1.394 . S
C2382 H2390 0.930 . S
C2383 C2382 1.394 . S
C2383 C2384 1.383 . S
C2383 H2391 0.929 . S
C2384 C2383 1.383 . S
C2384 C2385 1.377 . S
C2385 H2369 0.930 . S
C2385 C2384 1.377 . S
C2385 C2386 1.379 . S
C2386 H2370 0.931 . S
C2386 C2380 1.383 . S
C2386 C2385 1.379 . S
H2387 C2381 0.959 . S
H2388 C2381 0.961 . S
H2389 C2381 0.960 . S
H2390 C2382 0.930 . S
H2391 C2383 0.929 . S
H2392 C2400 0.929 . S
H2393 C2402 0.930 . S
H2394 C2404 0.930 . S
H2395 C2407 0.929 . S
H2396 C2410 0.930 . S
H2397 C2412 0.960 . S
H2398 C2412 0.960 . S
H2399 C2412 0.960 . S
C2400 H2392 0.929 . S
C2400 C2401 1.377 . S
C2400 C2402 1.384 . S
C2401 C2400 1.377 . S
C2401 C2407 1.390 . S
C2402 H2393 0.930 . S
C2402 C2400 1.384 . S
C2402 C2403 1.372 . S
C2403 C2402 1.372 . S
C2403 C2404 1.400 . S
C2403 C2408 1.490 . S
C2404 H2394 0.930 . S
C2404 C2403 1.400 . S
C2404 C2407 1.386 . S
H2405 C2421 0.930 . S
H2406 C2422 0.931 . S
C2407 H2395 0.929 . S
C2407 C2401 1.390 . S
C2407 C2404 1.386 . S
C2408 C2403 1.490 . S
C2408 C2410 1.395 . S
C2408 C2411 1.403 . S
H2409 C2415 0.930 . S
C2410 H2396 0.930 . S
C2410 C2408 1.395 . S
C2410 C2413 1.403 . S
C2411 C2408 1.403 . S
C2411 C2412 1.524 . S
C2411 C2415 1.400 . S
C2412 H2397 0.960 . S
C2412 H2398 0.960 . S
C2412 H2399 0.960 . S
C2412 C2411 1.524 . S
C2413 C2410 1.403 . S
C2413 C2414 1.392 . S
C2413 C2417 1.495 . S
C2414 C2413 1.392 . S
C2414 C2415 1.385 . S
C2414 C2416 1.478 . S
C2415 H2409 0.930 . S
C2415 C2411 1.400 . S
C2415 C2414 1.385 . S
C2416 C2414 1.478 . S
C2416 C2418 1.381 . S
C2416 C2422 1.383 . S
C2417 C2413 1.495 . S
C2417 H2423 0.959 . S
C2417 H2424 0.961 . S
C2417 H2425 0.960 . S
C2418 C2416 1.381 . S
C2418 C2419 1.394 . S
C2418 H2426 0.930 . S
C2419 C2418 1.394 . S
C2419 C2420 1.383 . S
C2419 H2427 0.929 . S
C2420 C2419 1.383 . S
C2420 C2421 1.377 . S
C2421 H2405 0.930 . S
C2421 C2420 1.377 . S
C2421 C2422 1.379 . S
C2422 H2406 0.931 . S
C2422 C2416 1.383 . S
C2422 C2421 1.379 . S
H2423 C2417 0.959 . S
H2424 C2417 0.961 . S
H2425 C2417 0.960 . S
H2426 C2418 0.930 . S
H2427 C2419 0.929 . S
H2428 C2436 0.929 . S
H2429 C2438 0.930 . S
H2430 C2440 0.930 . S
H2431 C2443 0.929 . S
H2432 C2446 0.930 . S
H2433 C2448 0.960 . S
H2434 C2448 0.960 . S
H2435 C2448 0.960 . S
C2436 H2428 0.929 . S
C2436 C2437 1.377 . S
C2436 C2438 1.384 . S
C2437 C2436 1.377 . S
C2437 C2443 1.390 . S
C2438 H2429 0.930 . S
C2438 C2436 1.384 . S
C2438 C2439 1.372 . S
C2439 C2438 1.372 . S
C2439 C2440 1.400 . S
C2439 C2444 1.490 . S
C2440 H2430 0.930 . S
C2440 C2439 1.400 . S
C2440 C2443 1.386 . S
H2441 C2457 0.930 . S
H2442 C2458 0.931 . S
C2443 H2431 0.929 . S
C2443 C2437 1.390 . S
C2443 C2440 1.386 . S
C2444 C2439 1.490 . S
C2444 C2446 1.395 . S
C2444 C2447 1.403 . S
H2445 C2451 0.930 . S
C2446 H2432 0.930 . S
C2446 C2444 1.395 . S
C2446 C2449 1.403 . S
C2447 C2444 1.403 . S
C2447 C2448 1.524 . S
C2447 C2451 1.400 . S
C2448 H2433 0.960 . S
C2448 H2434 0.960 . S
C2448 H2435 0.960 . S
C2448 C2447 1.524 . S
C2449 C2446 1.403 . S
C2449 C2450 1.392 . S
C2449 C2453 1.495 . S
C2450 C2449 1.392 . S
C2450 C2451 1.385 . S
C2450 C2452 1.478 . S
C2451 H2445 0.930 . S
C2451 C2447 1.400 . S
C2451 C2450 1.385 . S
C2452 C2450 1.478 . S
C2452 C2454 1.381 . S
C2452 C2458 1.383 . S
C2453 C2449 1.495 . S
C2453 H2459 0.959 . S
C2453 H2460 0.961 . S
C2453 H2461 0.960 . S
C2454 C2452 1.381 . S
C2454 C2455 1.394 . S
C2454 H2462 0.930 . S
C2455 C2454 1.394 . S
C2455 C2456 1.383 . S
C2455 H2463 0.929 . S
C2456 C2455 1.383 . S
C2456 C2457 1.377 . S
C2457 H2441 0.930 . S
C2457 C2456 1.377 . S
C2457 C2458 1.379 . S
C2458 H2442 0.931 . S
C2458 C2452 1.383 . S
C2458 C2457 1.379 . S
H2459 C2453 0.959 . S
H2460 C2453 0.961 . S
H2461 C2453 0.960 . S
H2462 C2454 0.930 . S
H2463 C2455 0.929 . S
H2464 C2472 0.929 . S
H2465 C2474 0.930 . S
H2466 C2476 0.930 . S
H2467 C2479 0.929 . S
H2468 C2482 0.930 . S
H2469 C2484 0.960 . S
H2470 C2484 0.960 . S
H2471 C2484 0.960 . S
C2472 H2464 0.929 . S
C2472 C2473 1.377 . S
C2472 C2474 1.384 . S
C2473 C2472 1.377 . S
C2473 C2479 1.390 . S
C2474 H2465 0.930 . S
C2474 C2472 1.384 . S
C2474 C2475 1.372 . S
C2475 C2474 1.372 . S
C2475 C2476 1.400 . S
C2475 C2480 1.490 . S
C2476 H2466 0.930 . S
C2476 C2475 1.400 . S
C2476 C2479 1.386 . S
H2477 C2493 0.930 . S
H2478 C2494 0.931 . S
C2479 H2467 0.929 . S
C2479 C2473 1.390 . S
C2479 C2476 1.386 . S
C2480 C2475 1.490 . S
C2480 C2482 1.395 . S
C2480 C2483 1.403 . S
H2481 C2487 0.930 . S
C2482 H2468 0.930 . S
C2482 C2480 1.395 . S
C2482 C2485 1.403 . S
C2483 C2480 1.403 . S
C2483 C2484 1.524 . S
C2483 C2487 1.400 . S
C2484 H2469 0.960 . S
C2484 H2470 0.960 . S
C2484 H2471 0.960 . S
C2484 C2483 1.524 . S
C2485 C2482 1.403 . S
C2485 C2486 1.392 . S
C2485 C2489 1.495 . S
C2486 C2485 1.392 . S
C2486 C2487 1.385 . S
C2486 C2488 1.478 . S
C2487 H2481 0.930 . S
C2487 C2483 1.400 . S
C2487 C2486 1.385 . S
C2488 C2486 1.478 . S
C2488 C2490 1.381 . S
C2488 C2494 1.383 . S
C2489 C2485 1.495 . S
C2489 H2495 0.959 . S
C2489 H2496 0.961 . S
C2489 H2497 0.960 . S
C2490 C2488 1.381 . S
C2490 C2491 1.394 . S
C2490 H2498 0.930 . S
C2491 C2490 1.394 . S
C2491 C2492 1.383 . S
C2491 H2499 0.929 . S
C2492 C2491 1.383 . S
C2492 C2493 1.377 . S
C2493 H2477 0.930 . S
C2493 C2492 1.377 . S
C2493 C2494 1.379 . S
C2494 H2478 0.931 . S
C2494 C2488 1.383 . S
C2494 C2493 1.379 . S
H2495 C2489 0.959 . S
H2496 C2489 0.961 . S
H2497 C2489 0.960 . S
H2498 C2490 0.930 . S
H2499 C2491 0.929 . S
H2500 C2508 0.929 . S
H2501 C2510 0.930 . S
H2502 C2512 0.930 . S
H2503 C2515 0.929 . S
H2504 C2518 0.930 . S
H2505 C2520 0.960 . S
H2506 C2520 0.960 . S
H2507 C2520 0.960 . S
C2508 H2500 0.929 . S
C2508 C2509 1.377 . S
C2508 C2510 1.384 . S
C2509 C2508 1.377 . S
C2509 C2515 1.390 . S
C2510 H2501 0.930 . S
C2510 C2508 1.384 . S
C2510 C2511 1.372 . S
C2511 C2510 1.372 . S
C2511 C2512 1.400 . S
C2511 C2516 1.490 . S
C2512 H2502 0.930 . S
C2512 C2511 1.400 . S
C2512 C2515 1.386 . S
H2513 C2529 0.930 . S
H2514 C2530 0.931 . S
C2515 H2503 0.929 . S
C2515 C2509 1.390 . S
C2515 C2512 1.386 . S
C2516 C2511 1.490 . S
C2516 C2518 1.395 . S
C2516 C2519 1.403 . S
H2517 C2523 0.930 . S
C2518 H2504 0.930 . S
C2518 C2516 1.395 . S
C2518 C2521 1.403 . S
C2519 C2516 1.403 . S
C2519 C2520 1.524 . S
C2519 C2523 1.400 . S
C2520 H2505 0.960 . S
C2520 H2506 0.960 . S
C2520 H2507 0.960 . S
C2520 C2519 1.524 . S
C2521 C2518 1.403 . S
C2521 C2522 1.392 . S
C2521 C2525 1.495 . S
C2522 C2521 1.392 . S
C2522 C2523 1.385 . S
C2522 C2524 1.478 . S
C2523 H2517 0.930 . S
C2523 C2519 1.400 . S
C2523 C2522 1.385 . S
C2524 C2522 1.478 . S
C2524 C2526 1.381 . S
C2524 C2530 1.383 . S
C2525 C2521 1.495 . S
C2525 H2531 0.959 . S
C2525 H2532 0.961 . S
C2525 H2533 0.960 . S
C2526 C2524 1.381 . S
C2526 C2527 1.394 . S
C2526 H2534 0.930 . S
C2527 C2526 1.394 . S
C2527 C2528 1.383 . S
C2527 H2535 0.929 . S
C2528 C2527 1.383 . S
C2528 C2529 1.377 . S
C2529 H2513 0.930 . S
C2529 C2528 1.377 . S
C2529 C2530 1.379 . S
C2530 H2514 0.931 . S
C2530 C2524 1.383 . S
C2530 C2529 1.379 . S
H2531 C2525 0.959 . S
H2532 C2525 0.961 . S
H2533 C2525 0.960 . S
H2534 C2526 0.930 . S
H2535 C2527 0.929 . S
H2536 C2544 0.929 . S
H2537 C2546 0.930 . S
H2538 C2548 0.930 . S
H2539 C2551 0.929 . S
H2540 C2554 0.930 . S
H2541 C2556 0.960 . S
H2542 C2556 0.960 . S
H2543 C2556 0.960 . S
C2544 H2536 0.929 . S
C2544 C2545 1.377 . S
C2544 C2546 1.384 . S
C2545 C2544 1.377 . S
C2545 C2551 1.390 . S
C2546 H2537 0.930 . S
C2546 C2544 1.384 . S
C2546 C2547 1.372 . S
C2547 C2546 1.372 . S
C2547 C2548 1.400 . S
C2547 C2552 1.490 . S
C2548 H2538 0.930 . S
C2548 C2547 1.400 . S
C2548 C2551 1.386 . S
H2549 C2565 0.930 . S
H2550 C2566 0.931 . S
C2551 H2539 0.929 . S
C2551 C2545 1.390 . S
C2551 C2548 1.386 . S
C2552 C2547 1.490 . S
C2552 C2554 1.395 . S
C2552 C2555 1.403 . S
H2553 C2559 0.930 . S
C2554 H2540 0.930 . S
C2554 C2552 1.395 . S
C2554 C2557 1.403 . S
C2555 C2552 1.403 . S
C2555 C2556 1.524 . S
C2555 C2559 1.400 . S
C2556 H2541 0.960 . S
C2556 H2542 0.960 . S
C2556 H2543 0.960 . S
C2556 C2555 1.524 . S
C2557 C2554 1.403 . S
C2557 C2558 1.392 . S
C2557 C2561 1.495 . S
C2558 C2557 1.392 . S
C2558 C2559 1.385 . S
C2558 C2560 1.478 . S
C2559 H2553 0.930 . S
C2559 C2555 1.400 . S
C2559 C2558 1.385 . S
C2560 C2558 1.478 . S
C2560 C2562 1.381 . S
C2560 C2566 1.383 . S
C2561 C2557 1.495 . S
C2561 H2567 0.959 . S
C2561 H2568 0.961 . S
C2561 H2569 0.960 . S
C2562 C2560 1.381 . S
C2562 C2563 1.394 . S
C2562 H2570 0.930 . S
C2563 C2562 1.394 . S
C2563 C2564 1.383 . S
C2563 H2571 0.929 . S
C2564 C2563 1.383 . S
C2564 C2565 1.377 . S
C2565 H2549 0.930 . S
C2565 C2564 1.377 . S
C2565 C2566 1.379 . S
C2566 H2550 0.931 . S
C2566 C2560 1.383 . S
C2566 C2565 1.379 . S
H2567 C2561 0.959 . S
H2568 C2561 0.961 . S
H2569 C2561 0.960 . S
H2570 C2562 0.930 . S
H2571 C2563 0.929 . S
H2572 C2580 0.929 . S
H2573 C2582 0.930 . S
H2574 C2584 0.930 . S
H2575 C2587 0.929 . S
H2576 C2590 0.930 . S
H2577 C2592 0.960 . S
H2578 C2592 0.960 . S
H2579 C2592 0.960 . S
C2580 H2572 0.929 . S
C2580 C2581 1.377 . S
C2580 C2582 1.384 . S
C2581 C2580 1.377 . S
C2581 C2587 1.390 . S
C2582 H2573 0.930 . S
C2582 C2580 1.384 . S
C2582 C2583 1.372 . S
C2583 C2582 1.372 . S
C2583 C2584 1.400 . S
C2583 C2588 1.490 . S
C2584 H2574 0.930 . S
C2584 C2583 1.400 . S
C2584 C2587 1.386 . S
H2585 C2601 0.930 . S
H2586 C2602 0.931 . S
C2587 H2575 0.929 . S
C2587 C2581 1.390 . S
C2587 C2584 1.386 . S
C2588 C2583 1.490 . S
C2588 C2590 1.395 . S
C2588 C2591 1.403 . S
H2589 C2595 0.930 . S
C2590 H2576 0.930 . S
C2590 C2588 1.395 . S
C2590 C2593 1.403 . S
C2591 C2588 1.403 . S
C2591 C2592 1.524 . S
C2591 C2595 1.400 . S
C2592 H2577 0.960 . S
C2592 H2578 0.960 . S
C2592 H2579 0.960 . S
C2592 C2591 1.524 . S
C2593 C2590 1.403 . S
C2593 C2594 1.392 . S
C2593 C2597 1.495 . S
C2594 C2593 1.392 . S
C2594 C2595 1.385 . S
C2594 C2596 1.478 . S
C2595 H2589 0.930 . S
C2595 C2591 1.400 . S
C2595 C2594 1.385 . S
C2596 C2594 1.478 . S
C2596 C2598 1.381 . S
C2596 C2602 1.383 . S
C2597 C2593 1.495 . S
C2597 H2603 0.959 . S
C2597 H2604 0.961 . S
C2597 H2605 0.960 . S
C2598 C2596 1.381 . S
C2598 C2599 1.394 . S
C2598 H2606 0.930 . S
C2599 C2598 1.394 . S
C2599 C2600 1.383 . S
C2599 H2607 0.929 . S
C2600 C2599 1.383 . S
C2600 C2601 1.377 . S
C2601 H2585 0.930 . S
C2601 C2600 1.377 . S
C2601 C2602 1.379 . S
C2602 H2586 0.931 . S
C2602 C2596 1.383 . S
C2602 C2601 1.379 . S
H2603 C2597 0.959 . S
H2604 C2597 0.961 . S
H2605 C2597 0.960 . S
H2606 C2598 0.930 . S
H2607 C2599 0.929 . S
H2608 C2616 0.929 . S
H2609 C2618 0.930 . S
H2610 C2620 0.930 . S
H2611 C2623 0.929 . S
H2612 C2626 0.930 . S
H2613 C2628 0.960 . S
H2614 C2628 0.960 . S
H2615 C2628 0.960 . S
C2616 H2608 0.929 . S
C2616 C2617 1.377 . S
C2616 C2618 1.384 . S
C2617 C2616 1.377 . S
C2617 C2623 1.390 . S
C2618 H2609 0.930 . S
C2618 C2616 1.384 . S
C2618 C2619 1.372 . S
C2619 C2618 1.372 . S
C2619 C2620 1.400 . S
C2619 C2624 1.490 . S
C2620 H2610 0.930 . S
C2620 C2619 1.400 . S
C2620 C2623 1.386 . S
H2621 C2637 0.930 . S
H2622 C2638 0.931 . S
C2623 H2611 0.929 . S
C2623 C2617 1.390 . S
C2623 C2620 1.386 . S
C2624 C2619 1.490 . S
C2624 C2626 1.395 . S
C2624 C2627 1.403 . S
H2625 C2631 0.930 . S
C2626 H2612 0.930 . S
C2626 C2624 1.395 . S
C2626 C2629 1.403 . S
C2627 C2624 1.403 . S
C2627 C2628 1.524 . S
C2627 C2631 1.400 . S
C2628 H2613 0.960 . S
C2628 H2614 0.960 . S
C2628 H2615 0.960 . S
C2628 C2627 1.524 . S
C2629 C2626 1.403 . S
C2629 C2630 1.392 . S
C2629 C2633 1.495 . S
C2630 C2629 1.392 . S
C2630 C2631 1.385 . S
C2630 C2632 1.478 . S
C2631 H2625 0.930 . S
C2631 C2627 1.400 . S
C2631 C2630 1.385 . S
C2632 C2630 1.478 . S
C2632 C2634 1.381 . S
C2632 C2638 1.383 . S
C2633 C2629 1.495 . S
C2633 H2639 0.959 . S
C2633 H2640 0.961 . S
C2633 H2641 0.960 . S
C2634 C2632 1.381 . S
C2634 C2635 1.394 . S
C2634 H2642 0.930 . S
C2635 C2634 1.394 . S
C2635 C2636 1.383 . S
C2635 H2643 0.929 . S
C2636 C2635 1.383 . S
C2636 C2637 1.377 . S
C2637 H2621 0.930 . S
C2637 C2636 1.377 . S
C2637 C2638 1.379 . S
C2638 H2622 0.931 . S
C2638 C2632 1.383 . S
C2638 C2637 1.379 . S
H2639 C2633 0.959 . S
H2640 C2633 0.961 . S
H2641 C2633 0.960 . S
H2642 C2634 0.930 . S
H2643 C2635 0.929 . S
H2644 C2652 0.929 . S
H2645 C2654 0.930 . S
H2646 C2656 0.930 . S
H2647 C2659 0.929 . S
H2648 C2662 0.930 . S
H2649 C2664 0.960 . S
H2650 C2664 0.960 . S
H2651 C2664 0.960 . S
C2652 H2644 0.929 . S
C2652 C2653 1.377 . S
C2652 C2654 1.384 . S
C2653 C2652 1.377 . S
C2653 C2659 1.390 . S
C2654 H2645 0.930 . S
C2654 C2652 1.384 . S
C2654 C2655 1.372 . S
C2655 C2654 1.372 . S
C2655 C2656 1.400 . S
C2655 C2660 1.490 . S
C2656 H2646 0.930 . S
C2656 C2655 1.400 . S
C2656 C2659 1.386 . S
H2657 C2673 0.930 . S
H2658 C2674 0.931 . S
C2659 H2647 0.929 . S
C2659 C2653 1.390 . S
C2659 C2656 1.386 . S
C2660 C2655 1.490 . S
C2660 C2662 1.395 . S
C2660 C2663 1.403 . S
H2661 C2667 0.930 . S
C2662 H2648 0.930 . S
C2662 C2660 1.395 . S
C2662 C2665 1.403 . S
C2663 C2660 1.403 . S
C2663 C2664 1.524 . S
C2663 C2667 1.400 . S
C2664 H2649 0.960 . S
C2664 H2650 0.960 . S
C2664 H2651 0.960 . S
C2664 C2663 1.524 . S
C2665 C2662 1.403 . S
C2665 C2666 1.392 . S
C2665 C2669 1.495 . S
C2666 C2665 1.392 . S
C2666 C2667 1.385 . S
C2666 C2668 1.478 . S
C2667 H2661 0.930 . S
C2667 C2663 1.400 . S
C2667 C2666 1.385 . S
C2668 C2666 1.478 . S
C2668 C2670 1.381 . S
C2668 C2674 1.383 . S
C2669 C2665 1.495 . S
C2669 H2675 0.959 . S
C2669 H2676 0.961 . S
C2669 H2677 0.960 . S
C2670 C2668 1.381 . S
C2670 C2671 1.394 . S
C2670 H2678 0.930 . S
C2671 C2670 1.394 . S
C2671 C2672 1.383 . S
C2671 H2679 0.929 . S
C2672 C2671 1.383 . S
C2672 C2673 1.377 . S
C2673 H2657 0.930 . S
C2673 C2672 1.377 . S
C2673 C2674 1.379 . S
C2674 H2658 0.931 . S
C2674 C2668 1.383 . S
C2674 C2673 1.379 . S
H2675 C2669 0.959 . S
H2676 C2669 0.961 . S
H2677 C2669 0.960 . S
H2678 C2670 0.930 . S
H2679 C2671 0.929 . S
H2680 C2688 0.929 . S
H2681 C2690 0.930 . S
H2682 C2692 0.930 . S
H2683 C2695 0.929 . S
H2684 C2698 0.930 . S
H2685 C2700 0.960 . S
H2686 C2700 0.960 . S
H2687 C2700 0.960 . S
C2688 H2680 0.929 . S
C2688 C2689 1.377 . S
C2688 C2690 1.384 . S
C2689 C2688 1.377 . S
C2689 C2695 1.390 . S
C2690 H2681 0.930 . S
C2690 C2688 1.384 . S
C2690 C2691 1.372 . S
C2691 C2690 1.372 . S
C2691 C2692 1.400 . S
C2691 C2696 1.490 . S
C2692 H2682 0.930 . S
C2692 C2691 1.400 . S
C2692 C2695 1.386 . S
H2693 C2709 0.930 . S
H2694 C2710 0.931 . S
C2695 H2683 0.929 . S
C2695 C2689 1.390 . S
C2695 C2692 1.386 . S
C2696 C2691 1.490 . S
C2696 C2698 1.395 . S
C2696 C2699 1.403 . S
H2697 C2703 0.930 . S
C2698 H2684 0.930 . S
C2698 C2696 1.395 . S
C2698 C2701 1.403 . S
C2699 C2696 1.403 . S
C2699 C2700 1.524 . S
C2699 C2703 1.400 . S
C2700 H2685 0.960 . S
C2700 H2686 0.960 . S
C2700 H2687 0.960 . S
C2700 C2699 1.524 . S
C2701 C2698 1.403 . S
C2701 C2702 1.392 . S
C2701 C2705 1.495 . S
C2702 C2701 1.392 . S
C2702 C2703 1.385 . S
C2702 C2704 1.478 . S
C2703 H2697 0.930 . S
C2703 C2699 1.400 . S
C2703 C2702 1.385 . S
C2704 C2702 1.478 . S
C2704 C2706 1.381 . S
C2704 C2710 1.383 . S
C2705 C2701 1.495 . S
C2705 H2711 0.959 . S
C2705 H2712 0.961 . S
C2705 H2713 0.960 . S
C2706 C2704 1.381 . S
C2706 C2707 1.394 . S
C2706 H2714 0.930 . S
C2707 C2706 1.394 . S
C2707 C2708 1.383 . S
C2707 H2715 0.929 . S
C2708 C2707 1.383 . S
C2708 C2709 1.377 . S
C2709 H2693 0.930 . S
C2709 C2708 1.377 . S
C2709 C2710 1.379 . S
C2710 H2694 0.931 . S
C2710 C2704 1.383 . S
C2710 C2709 1.379 . S
H2711 C2705 0.959 . S
H2712 C2705 0.961 . S
H2713 C2705 0.960 . S
H2714 C2706 0.930 . S
H2715 C2707 0.929 . S
H2716 C2724 0.929 . S
H2717 C2726 0.930 . S
H2718 C2728 0.930 . S
H2719 C2731 0.929 . S
H2720 C2734 0.930 . S
H2721 C2736 0.960 . S
H2722 C2736 0.960 . S
H2723 C2736 0.960 . S
C2724 H2716 0.929 . S
C2724 C2725 1.377 . S
C2724 C2726 1.384 . S
C2725 C2724 1.377 . S
C2725 C2731 1.390 . S
C2726 H2717 0.930 . S
C2726 C2724 1.384 . S
C2726 C2727 1.372 . S
C2727 C2726 1.372 . S
C2727 C2728 1.400 . S
C2727 C2732 1.490 . S
C2728 H2718 0.930 . S
C2728 C2727 1.400 . S
C2728 C2731 1.386 . S
H2729 C2745 0.930 . S
H2730 C2746 0.931 . S
C2731 H2719 0.929 . S
C2731 C2725 1.390 . S
C2731 C2728 1.386 . S
C2732 C2727 1.490 . S
C2732 C2734 1.395 . S
C2732 C2735 1.403 . S
H2733 C2739 0.930 . S
C2734 H2720 0.930 . S
C2734 C2732 1.395 . S
C2734 C2737 1.403 . S
C2735 C2732 1.403 . S
C2735 C2736 1.524 . S
C2735 C2739 1.400 . S
C2736 H2721 0.960 . S
C2736 H2722 0.960 . S
C2736 H2723 0.960 . S
C2736 C2735 1.524 . S
C2737 C2734 1.403 . S
C2737 C2738 1.392 . S
C2737 C2741 1.495 . S
C2738 C2737 1.392 . S
C2738 C2739 1.385 . S
C2738 C2740 1.478 . S
C2739 H2733 0.930 . S
C2739 C2735 1.400 . S
C2739 C2738 1.385 . S
C2740 C2738 1.478 . S
C2740 C2742 1.381 . S
C2740 C2746 1.383 . S
C2741 C2737 1.495 . S
C2741 H2747 0.959 . S
C2741 H2748 0.961 . S
C2741 H2749 0.960 . S
C2742 C2740 1.381 . S
C2742 C2743 1.394 . S
C2742 H2750 0.930 . S
C2743 C2742 1.394 . S
C2743 C2744 1.383 . S
C2743 H2751 0.929 . S
C2744 C2743 1.383 . S
C2744 C2745 1.377 . S
C2745 H2729 0.930 . S
C2745 C2744 1.377 . S
C2745 C2746 1.379 . S
C2746 H2730 0.931 . S
C2746 C2740 1.383 . S
C2746 C2745 1.379 . S
H2747 C2741 0.959 . S
H2748 C2741 0.961 . S
H2749 C2741 0.960 . S
H2750 C2742 0.930 . S
H2751 C2743 0.929 . S
C457 C215 1.449 . S
C476 C5 1.447 . S
C493 C19 1.445 . S
C512 C177 1.449 . S
C529 C33 1.448 . S
C548 C187 1.453 . S
C565 C205 1.439 . S
C584 C47 1.449 . S
C601 C61 1.450 . S
C620 C131 1.446 . S
C637 C75 1.445 . S
C656 C149 1.449 . S
C673 C159 1.449 . S
C692 C89 1.452 . S
C709 C121 1.441 . S
C728 C103 1.442 . S
C745 C229 1.450 . S
C764 C439 1.441 . S
C781 C243 1.447 . S
C800 C401 1.432 . S
C817 C257 1.448 . S
C836 C411 1.452 . S
C853 C429 1.441 . S
C872 C271 1.440 . S
C889 C285 1.448 . S
C908 C355 1.450 . S
C925 C299 1.446 . S
C944 C373 1.442 . S
C961 C383 1.450 . S
C980 C313 1.441 . S
C997 C327 1.447 . S
C1016 C345 1.429 . S
C1033 C168 1.344 . S
C1052 C11 1.332 . S
C1069 C25 1.349 . S
C1088 C193 1.343 . S
C1105 C196 1.342 . S
C1124 C39 1.331 . S
C1141 C53 1.352 . S
C1160 C221 1.352 . S
C1177 C67 1.347 . S
C1196 C112 1.344 . S
C1213 C137 1.353 . S
C1232 C81 1.336 . S
C1249 C140 1.339 . S
C1268 C95 1.341 . S
C1285 C165 1.350 . S
C1304 C109 1.359 . S
C1321 C235 1.344 . S
C1340 C392 1.352 . S
C1357 C417 1.354 . S
C1376 C249 1.341 . S
C1393 C263 1.348 . S
C1412 C420 1.338 . S
C1429 C277 1.348 . S
C1448 C445 1.347 . S
C1465 C336 1.339 . S
C1484 C291 1.353 . S
C1501 C305 1.352 . S
C1520 C361 1.340 . S
C1537 C319 1.345 . S
C1556 C364 1.328 . S
C1573 C333 1.351 . S
C1592 C389 1.338 . S
C1609 C9 1.245 . S
C1628 C145 1.264 . S
C1645 C163 1.229 . S
C1664 C23 1.227 . S
C1681 C37 1.246 . S
C1700 C117 1.265 . S
C1717 C135 1.228 . S
C1736 C51 1.230 . S
C1753 C201 1.252 . S
C1772 C65 1.235 . S
C1789 C219 1.230 . S
C1808 C79 1.217 . S
C1825 C173 1.253 . S
C1844 C93 1.264 . S
C1861 C107 1.227 . S
C1880 C191 1.227 . S
C1897 C369 1.257 . S
C1916 C233 1.249 . S
C1933 C247 1.235 . S
C1952 C387 1.218 . S
C1969 C341 1.257 . S
C1988 C261 1.241 . S
C2005 C359 1.237 . S
C2024 C275 1.220 . S
C2041 C289 1.247 . S
C2060 C425 1.266 . S
C2077 C303 1.235 . S
C2096 C443 1.214 . S
C2113 C397 1.255 . S
C2132 C317 1.262 . S
C2149 C415 1.234 . S
C2168 C331 1.241 . S
C2185 C322 1.191 . S
C2204 C0 1.202 . S
C2221 C280 1.197 . S
C2240 C14 1.175 . S
C2257 C294 1.191 . S
C2276 C28 1.198 . S
C2293 C308 1.196 . S
C2312 C42 1.175 . S
C2329 C238 1.196 . S
C2348 C56 1.201 . S
C2365 C70 1.191 . S
C2384 C252 1.197 . S
C2401 C84 1.194 . S
C2420 C266 1.181 . S
C2437 C98 1.197 . S
C2456 C224 1.193 . S
C2473 C123 1.054 . S
C2492 C434 1.047 . S
C2509 C403 1.054 . S
C2528 C126 1.060 . S
C2545 C151 1.054 . S
C2564 C406 1.051 . S
C2581 C154 1.054 . S
C2600 C431 1.041 . S
C2617 C350 1.051 . S
C2636 C179 1.067 . S
C2653 C375 1.056 . S
C2672 C182 1.034 . S
C2689 C207 1.054 . S
C2708 C378 1.056 . S
C2725 C210 1.054 . S
C2744 C347 1.041 . S
