# Generated by pormake.
# Topology ume, (4)-cn, num edge types: 1
# Building blocks:
#     Node 0, Type 0, BuildingBlock: KUFVIS_clean_sbu_0, # of connection points: 4
#     Node 1, Type 0, BuildingBlock: KUFVIS_clean_sbu_0, # of connection points: 4
#     Node 2, Type 0, BuildingBlock: KUFVIS_clean_sbu_0, # of connection points: 4
#     Node 3, Type 0, BuildingBlock: KUFVIS_clean_sbu_0, # of connection points: 4
#     Node 4, Type 0, BuildingBlock: KUFVIS_clean_sbu_0, # of connection points: 4
#     Node 5, Type 0, BuildingBlock: KUFVIS_clean_sbu_0, # of connection points: 4
#     Node 6, Type 0, BuildingBlock: KUFVIS_clean_sbu_0, # of connection points: 4
#     Node 7, Type 0, BuildingBlock: KUFVIS_clean_sbu_0, # of connection points: 4
#     Node 8, Type 0, BuildingBlock: KUFVIS_clean_sbu_0, # of connection points: 4
#     Node 9, Type 0, BuildingBlock: KUFVIS_clean_sbu_0, # of connection points: 4
#     Node 10, Type 0, BuildingBlock: KUFVIS_clean_sbu_0, # of connection points: 4
#     Node 11, Type 0, BuildingBlock: KUFVIS_clean_sbu_0, # of connection points: 4
#     Node 12, Type 0, BuildingBlock: KUFVIS_clean_sbu_0, # of connection points: 4
#     Node 13, Type 0, BuildingBlock: KUFVIS_clean_sbu_0, # of connection points: 4
#     Node 14, Type 0, BuildingBlock: KUFVIS_clean_sbu_0, # of connection points: 4
#     Node 15, Type 0, BuildingBlock: KUFVIS_clean_sbu_0, # of connection points: 4
#     Edge 16, Type (0, 0), BuildingBlock: TEMPAE_clean_linker_10, # of connection points: 2
#     Edge 17, Type (0, 0), BuildingBlock: TEMPAE_clean_linker_10, # of connection points: 2
#     Edge 18, Type (0, 0), BuildingBlock: TEMPAE_clean_linker_10, # of connection points: 2
#     Edge 19, Type (0, 0), BuildingBlock: TEMPAE_clean_linker_10, # of connection points: 2
#     Edge 20, Type (0, 0), BuildingBlock: TEMPAE_clean_linker_10, # of connection points: 2
#     Edge 21, Type (0, 0), BuildingBlock: TEMPAE_clean_linker_10, # of connection points: 2
#     Edge 22, Type (0, 0), BuildingBlock: TEMPAE_clean_linker_10, # of connection points: 2
#     Edge 23, Type (0, 0), BuildingBlock: TEMPAE_clean_linker_10, # of connection points: 2
#     Edge 24, Type (0, 0), BuildingBlock: TEMPAE_clean_linker_10, # of connection points: 2
#     Edge 25, Type (0, 0), BuildingBlock: TEMPAE_clean_linker_10, # of connection points: 2
#     Edge 26, Type (0, 0), BuildingBlock: TEMPAE_clean_linker_10, # of connection points: 2
#     Edge 27, Type (0, 0), BuildingBlock: TEMPAE_clean_linker_10, # of connection points: 2
#     Edge 28, Type (0, 0), BuildingBlock: TEMPAE_clean_linker_10, # of connection points: 2
#     Edge 29, Type (0, 0), BuildingBlock: TEMPAE_clean_linker_10, # of connection points: 2
#     Edge 30, Type (0, 0), BuildingBlock: TEMPAE_clean_linker_10, # of connection points: 2
#     Edge 31, Type (0, 0), BuildingBlock: TEMPAE_clean_linker_10, # of connection points: 2
#     Edge 32, Type (0, 0), BuildingBlock: TEMPAE_clean_linker_10, # of connection points: 2
#     Edge 33, Type (0, 0), BuildingBlock: TEMPAE_clean_linker_10, # of connection points: 2
#     Edge 34, Type (0, 0), BuildingBlock: TEMPAE_clean_linker_10, # of connection points: 2
#     Edge 35, Type (0, 0), BuildingBlock: TEMPAE_clean_linker_10, # of connection points: 2
#     Edge 36, Type (0, 0), BuildingBlock: TEMPAE_clean_linker_10, # of connection points: 2
#     Edge 37, Type (0, 0), BuildingBlock: TEMPAE_clean_linker_10, # of connection points: 2
#     Edge 38, Type (0, 0), BuildingBlock: TEMPAE_clean_linker_10, # of connection points: 2
#     Edge 39, Type (0, 0), BuildingBlock: TEMPAE_clean_linker_10, # of connection points: 2
#     Edge 40, Type (0, 0), BuildingBlock: TEMPAE_clean_linker_10, # of connection points: 2
#     Edge 41, Type (0, 0), BuildingBlock: TEMPAE_clean_linker_10, # of connection points: 2
#     Edge 42, Type (0, 0), BuildingBlock: TEMPAE_clean_linker_10, # of connection points: 2
#     Edge 43, Type (0, 0), BuildingBlock: TEMPAE_clean_linker_10, # of connection points: 2
#     Edge 44, Type (0, 0), BuildingBlock: TEMPAE_clean_linker_10, # of connection points: 2
#     Edge 45, Type (0, 0), BuildingBlock: TEMPAE_clean_linker_10, # of connection points: 2
#     Edge 46, Type (0, 0), BuildingBlock: TEMPAE_clean_linker_10, # of connection points: 2
#     Edge 47, Type (0, 0), BuildingBlock: TEMPAE_clean_linker_10, # of connection points: 2
# Relax obj value: 0.107
# Max RMSD: 0.163
# Mean RMSD: 0.163
data_MOF--net-ume--node1-KUFVIS_clean_sbu_0--edge1-TEMPAE_clean_linker_10
_symmetry_space_group_name_H-M    P1
_symmetry_Int_Tables_number       1
_symmetry_cell_setting            triclinic
loop_
_symmetry_equiv_pos_as_xyz
'x, y, z'
_cell_length_a     26.388454
_cell_length_b     26.37832
_cell_length_c     116.27386
_cell_angle_alpha  90.016224
_cell_angle_beta   90.02757
_cell_angle_gamma 90.024668
loop_
_atom_site_label
_atom_site_type_symbol
_atom_site_fract_x
_atom_site_fract_y
_atom_site_fract_z
_atom_type_partial_charge
Mn0 Mn 0.27007 0.11709 0.31459 0.0
Mn1 Mn 0.26094 0.01216 0.33083 0.0
C2 C 0.34249 0.0807 0.32214 0.0
C3 C 0.2725 0.1488 0.29587 0.0
C4 C 0.23459 0.11821 0.33932 0.0
O5 O 0.19803 0.09203 0.31178 0.0
O6 O 0.20395 0.01478 0.31989 0.0
C7 C 0.2763 0.9337 0.31293 0.0
N8 N 0.28897 0.95437 0.32327 0.0
C9 C 0.34782 0.88698 0.32717 0.0
C10 C 0.33473 0.86439 0.31666 0.0
C11 C 0.29924 0.8882 0.30945 0.0
C12 C 0.32433 0.93276 0.33008 0.0
H13 H 0.24909 0.95196 0.30739 0.0
C14 C 0.1817 0.04716 0.31346 0.0
O15 O 0.25786 0.17728 0.30439 0.0
O16 O 0.28649 0.10307 0.29834 0.0
N17 N 0.31476 0.00396 0.34171 0.0
C18 C 0.32688 0.03312 0.351 0.0
C19 C 0.3641 0.01623 0.35873 0.0
C20 C 0.38731 0.96894 0.35705 0.0
C21 C 0.37413 0.93955 0.34746 0.0
C22 C 0.33776 0.95887 0.33989 0.0
H23 H 0.30829 0.0689 0.35252 0.0
O24 O 0.34379 0.1268 0.31825 0.0
O25 O 0.29989 0.05708 0.321 0.0
O26 O 0.251 0.14326 0.33067 0.0
O27 O 0.23222 0.06975 0.33956 0.0
C28 C 0.3957 0.89184 0.3451 0.0
C29 C 0.38331 0.86599 0.33486 0.0
H30 H 0.3521 0.82911 0.31398 0.0
H31 H 0.28937 0.87135 0.30126 0.0
H32 H 0.37456 0.0393 0.36604 0.0
H33 H 0.41554 0.95578 0.36312 0.0
H34 H 0.42245 0.87502 0.35104 0.0
H35 H 0.40141 0.8301 0.33297 0.0
Mn36 Mn 0.86773 0.76054 0.56195 0.0
Mn37 Mn 0.973 0.75168 0.57817 0.0
C38 C 0.90269 0.83276 0.57 0.0
C39 C 0.83491 0.76527 0.54334 0.0
C40 C 0.86741 0.72303 0.5866 0.0
O41 O 0.89394 0.68929 0.55862 0.0
O42 O 0.97014 0.69492 0.56721 0.0
C43 C 0.05056 0.76772 0.56012 0.0
N44 N 0.03033 0.7801 0.57052 0.0
C45 C 0.09824 0.83837 0.57444 0.0
C46 C 0.12025 0.82578 0.56385 0.0
C47 C 0.09598 0.7907 0.5566 0.0
C48 C 0.0524 0.81503 0.57737 0.0
H49 H 0.0321 0.74057 0.55458 0.0
C50 C 0.93854 0.67285 0.56056 0.0
O51 O 0.80737 0.74857 0.55182 0.0
O52 O 0.88059 0.77964 0.54578 0.0
N53 N 0.98185 0.80491 0.58917 0.0
C54 C 0.95372 0.81576 0.59868 0.0
C55 C 0.97181 0.85147 0.60665 0.0
C56 C 0.01917 0.87449 0.60493 0.0
C57 C 0.04734 0.86287 0.59506 0.0
C58 C 0.02699 0.82778 0.58732 0.0
H59 H 0.918 0.79708 0.60023 0.0
O60 O 0.85652 0.83342 0.56615 0.0
O61 O 0.92741 0.79094 0.56852 0.0
O62 O 0.84219 0.73861 0.5779 0.0
O63 O 0.9159 0.72259 0.58696 0.0
C64 C 0.09499 0.88446 0.59264 0.0
C65 C 0.11997 0.87302 0.58223 0.0
H66 H 0.15555 0.84305 0.56116 0.0
H67 H 0.11249 0.78108 0.54836 0.0
H68 H 0.94977 0.86073 0.6142 0.0
H69 H 0.03334 0.90135 0.61121 0.0
H70 H 0.1126 0.91023 0.59868 0.0
H71 H 0.15593 0.89096 0.58033 0.0
Mn72 Mn 0.25221 0.36547 0.81547 0.0
Mn73 Mn 0.2709 0.46442 0.83342 0.0
C74 C 0.18403 0.40958 0.82271 0.0
C75 C 0.24796 0.33694 0.79652 0.0
C76 C 0.27852 0.35418 0.84089 0.0
O77 O 0.32695 0.3813 0.81349 0.0
O78 O 0.33256 0.45205 0.82431 0.0
C79 C 0.28007 0.54551 0.81595 0.0
N80 N 0.25726 0.52639 0.82552 0.0
C81 C 0.20393 0.59991 0.82725 0.0
C82 C 0.22701 0.62056 0.81746 0.0
C83 C 0.26506 0.5931 0.81175 0.0
C84 C 0.22001 0.55206 0.83095 0.0
H85 H 0.30948 0.52458 0.81157 0.0
C86 C 0.35105 0.4195 0.81735 0.0
O87 O 0.25784 0.30578 0.80489 0.0
O88 O 0.24036 0.38395 0.79922 0.0
N89 N 0.21406 0.48141 0.84286 0.0
C90 C 0.19484 0.45563 0.85203 0.0
C91 C 0.15636 0.47781 0.85868 0.0
C92 C 0.13875 0.52658 0.85596 0.0
C93 C 0.15943 0.55257 0.84655 0.0
C94 C 0.19762 0.52854 0.84024 0.0
H95 H 0.20876 0.41845 0.85425 0.0
O96 O 0.17766 0.36466 0.81839 0.0
O97 O 0.2295 0.42795 0.82228 0.0
O98 O 0.26493 0.33357 0.83141 0.0
O99 O 0.28408 0.40201 0.8422 0.0
C100 C 0.14395 0.60154 0.84324 0.0
C101 C 0.16564 0.62491 0.83351 0.0
H102 H 0.21572 0.65738 0.81422 0.0
H103 H 0.28294 0.6087 0.80416 0.0
H104 H 0.1405 0.45758 0.86592 0.0
H105 H 0.1094 0.5437 0.86118 0.0
H106 H 0.11535 0.62157 0.84812 0.0
H107 H 0.15277 0.66221 0.83093 0.0
Mn108 Mn 0.62095 0.75412 0.06388 0.0
Mn109 Mn 0.52364 0.77233 0.08229 0.0
C110 C 0.5783 0.68566 0.07147 0.0
C111 C 0.64719 0.74959 0.04472 0.0
C112 C 0.63443 0.78149 0.08921 0.0
O113 O 0.60425 0.82871 0.06188 0.0
O114 O 0.53444 0.83377 0.07301 0.0
C115 C 0.44075 0.77986 0.06522 0.0
N116 N 0.46104 0.75772 0.07474 0.0
C117 C 0.38792 0.70428 0.0771 0.0
C118 C 0.36607 0.72665 0.06735 0.0
C119 C 0.39275 0.7644 0.06134 0.0
C120 C 0.43615 0.72072 0.08045 0.0
H121 H 0.46107 0.80909 0.06063 0.0
C122 C 0.56619 0.85246 0.0659 0.0
O123 O 0.67927 0.76001 0.05288 0.0
O124 O 0.60068 0.74159 0.04774 0.0
N125 N 0.50821 0.71572 0.09195 0.0
C126 C 0.53513 0.69716 0.10102 0.0
C127 C 0.51384 0.65907 0.10793 0.0
C128 C 0.46477 0.64126 0.1056 0.0
C129 C 0.43762 0.66122 0.09627 0.0
C130 C 0.46084 0.69898 0.08966 0.0
H131 H 0.57251 0.71134 0.10298 0.0
O132 O 0.62275 0.67961 0.0669 0.0
O133 O 0.55947 0.73093 0.07106 0.0
O134 O 0.65437 0.7677 0.07967 0.0
O135 O 0.58669 0.78657 0.09071 0.0
C136 C 0.38827 0.64549 0.09333 0.0
C137 C 0.36372 0.66643 0.08365 0.0
H138 H 0.32891 0.71507 0.06438 0.0
H139 H 0.37622 0.78174 0.05379 0.0
H140 H 0.53498 0.64375 0.1151 0.0
H141 H 0.44829 0.61231 0.11104 0.0
H142 H 0.36883 0.61728 0.09845 0.0
H143 H 0.32613 0.65335 0.08136 0.0
Mn144 Mn 0.24044 0.37375 0.94384 0.0
Mn145 Mn 0.2222 0.4703 0.92521 0.0
C146 C 0.30884 0.41633 0.93622 0.0
C147 C 0.24467 0.34788 0.963 0.0
C148 C 0.21381 0.35914 0.91851 0.0
O149 O 0.16582 0.39028 0.94576 0.0
O150 O 0.16057 0.45941 0.93441 0.0
C151 C 0.21363 0.55368 0.94214 0.0
N152 N 0.23618 0.53325 0.93268 0.0
C153 C 0.28937 0.60657 0.93033 0.0
C154 C 0.26656 0.62857 0.94001 0.0
C155 C 0.22873 0.60187 0.94598 0.0
C156 C 0.27326 0.55817 0.92701 0.0
H157 H 0.18435 0.53335 0.9467 0.0
C158 C 0.14192 0.42797 0.9416 0.0
O159 O 0.23443 0.31564 0.95485 0.0
O160 O 0.25267 0.39441 0.95995 0.0
N161 N 0.27896 0.48585 0.91562 0.0
C162 C 0.2979 0.45881 0.90661 0.0
C163 C 0.33604 0.48015 0.89972 0.0
C164 C 0.35356 0.52936 0.90203 0.0
C165 C 0.33325 0.55661 0.9113 0.0
C166 C 0.2954 0.53337 0.91787 0.0
H167 H 0.28396 0.4213 0.90469 0.0
O168 O 0.31493 0.37203 0.94087 0.0
O169 O 0.26354 0.43511 0.93657 0.0
O170 O 0.22724 0.33973 0.92813 0.0
O171 O 0.20865 0.40681 0.91687 0.0
C172 C 0.34871 0.60609 0.91421 0.0
C173 C 0.32736 0.63077 0.92382 0.0
H174 H 0.27788 0.66586 0.94295 0.0
H175 H 0.21106 0.61851 0.95348 0.0
H176 H 0.35165 0.45895 0.89259 0.0
H177 H 0.38254 0.54587 0.8966 0.0
H178 H 0.37704 0.62552 0.90913 0.0
H179 H 0.34021 0.66848 0.92609 0.0
Mn180 Mn 0.62849 0.75373 0.19306 0.0
Mn181 Mn 0.52891 0.73473 0.1753 0.0
C182 C 0.58459 0.82181 0.18568 0.0
C183 C 0.65744 0.75907 0.21201 0.0
C184 C 0.63877 0.72586 0.16767 0.0
O185 O 0.61224 0.67912 0.19527 0.0
O186 O 0.54121 0.67346 0.18454 0.0
C187 C 0.44828 0.72694 0.1929 0.0
N188 N 0.46726 0.74914 0.18324 0.0
C189 C 0.39379 0.80241 0.18137 0.0
C190 C 0.37328 0.77998 0.19127 0.0
C191 C 0.40079 0.74228 0.19709 0.0
C192 C 0.44156 0.78608 0.1777 0.0
H193 H 0.46924 0.69776 0.19735 0.0
C194 C 0.57386 0.65508 0.19148 0.0
O195 O 0.68831 0.74833 0.20364 0.0
O196 O 0.61048 0.76677 0.20931 0.0
N197 N 0.512 0.79118 0.16572 0.0
C198 C 0.53766 0.80977 0.15646 0.0
C199 C 0.51542 0.84785 0.1497 0.0
C200 C 0.4667 0.86564 0.15238 0.0
C201 C 0.44084 0.8456 0.16189 0.0
C202 C 0.46496 0.80785 0.16832 0.0
H203 H 0.57476 0.79564 0.15425 0.0
O204 O 0.62966 0.82814 0.18992 0.0
O205 O 0.56599 0.77647 0.18627 0.0
O206 O 0.65985 0.7398 0.17708 0.0
O207 O 0.59087 0.72069 0.16647 0.0
C208 C 0.39191 0.86126 0.16516 0.0
C209 C 0.36869 0.84025 0.175 0.0
H210 H 0.33652 0.79149 0.19448 0.0
H211 H 0.3853 0.72489 0.20475 0.0
H212 H 0.53557 0.86318 0.14239 0.0
H213 H 0.44951 0.89462 0.14707 0.0
H214 H 0.37178 0.88947 0.16018 0.0
H215 H 0.33142 0.85327 0.17754 0.0
Mn216 Mn 0.21236 0.11633 0.44569 0.0
Mn217 Mn 0.22355 0.0115 0.42943 0.0
C218 C 0.14074 0.07916 0.43789 0.0
C219 C 0.20844 0.14826 0.4644 0.0
C220 C 0.24847 0.11793 0.42097 0.0
O221 O 0.2847 0.09245 0.44865 0.0
O222 O 0.28037 0.01545 0.44037 0.0
C223 C 0.20941 0.93324 0.44741 0.0
N224 N 0.1965 0.95337 0.43703 0.0
C225 C 0.13918 0.88461 0.43315 0.0
C226 C 0.15242 0.86264 0.44371 0.0
C227 C 0.18728 0.88738 0.45093 0.0
C228 C 0.16175 0.93083 0.43021 0.0
H229 H 0.23625 0.95215 0.45294 0.0
C230 C 0.30202 0.04806 0.44684 0.0
O231 O 0.22334 0.17672 0.45591 0.0
O232 O 0.19523 0.10229 0.46191 0.0
N233 N 0.17029 0.0018 0.41847 0.0
C234 C 0.15841 0.03007 0.40903 0.0
C235 C 0.12237 0.01177 0.40117 0.0
C236 C 0.10015 0.96403 0.40289 0.0
C237 C 0.11293 0.93564 0.41266 0.0
C238 C 0.14822 0.95625 0.42032 0.0
H239 H 0.1764 0.06614 0.40747 0.0
O240 O 0.13877 0.12517 0.44184 0.0
O241 O 0.18348 0.05589 0.43916 0.0
O242 O 0.23185 0.14272 0.42964 0.0
O243 O 0.25125 0.0695 0.42068 0.0
C244 C 0.09215 0.88762 0.41508 0.0
C245 C 0.10449 0.86254 0.42542 0.0
H246 H 0.13575 0.82705 0.44641 0.0
H247 H 0.19735 0.87095 0.45915 0.0
H248 H 0.11214 0.03406 0.39373 0.0
H249 H 0.07298 0.94974 0.3967 0.0
H250 H 0.06624 0.86984 0.40909 0.0
H251 H 0.08711 0.82631 0.42733 0.0
Mn252 Mn 0.87587 0.73364 0.69217 0.0
Mn253 Mn 0.97429 0.75323 0.67414 0.0
C254 C 0.92095 0.66588 0.68508 0.0
C255 C 0.84827 0.73019 0.71125 0.0
C256 C 0.864 0.75876 0.6667 0.0
O257 O 0.89042 0.80878 0.69392 0.0
O258 O 0.96146 0.81496 0.68323 0.0
C259 C 0.05557 0.76358 0.69153 0.0
N260 N 0.03647 0.74029 0.68202 0.0
C261 C 0.11003 0.68696 0.68041 0.0
C262 C 0.13066 0.71054 0.69015 0.0
C263 C 0.10318 0.74885 0.69577 0.0
C264 C 0.06219 0.70285 0.67666 0.0
H265 H 0.03459 0.79313 0.69585 0.0
C266 C 0.92848 0.83324 0.69011 0.0
O267 O 0.81653 0.73889 0.70291 0.0
O268 O 0.89519 0.72318 0.70843 0.0
N269 N 0.99159 0.69627 0.66474 0.0
C270 C 0.96592 0.67666 0.65558 0.0
C271 C 0.9881 0.63776 0.64906 0.0
C272 C 0.03676 0.62017 0.65186 0.0
C273 C 0.06274 0.64141 0.66121 0.0
C274 C 0.03871 0.67999 0.66742 0.0
H275 H 0.92879 0.69049 0.65328 0.0
O276 O 0.87633 0.65891 0.68949 0.0
O277 O 0.93847 0.71171 0.68535 0.0
O278 O 0.8436 0.74474 0.67617 0.0
O279 O 0.91164 0.76562 0.6654 0.0
C280 C 0.11165 0.62604 0.66459 0.0
C281 C 0.13501 0.64829 0.67427 0.0
H282 H 0.16747 0.69943 0.69342 0.0
H283 H 0.11875 0.76711 0.70332 0.0
H284 H 0.96786 0.62147 0.64186 0.0
H285 H 0.05382 0.59038 0.64675 0.0
H286 H 0.13163 0.59708 0.6598 0.0
H287 H 0.17227 0.63553 0.67689 0.0
Mn288 Mn 0.78059 0.61328 0.81262 0.0
Mn289 Mn 0.77146 0.50865 0.829 0.0
C290 C 0.85291 0.578 0.82053 0.0
C291 C 0.78417 0.64509 0.79388 0.0
C292 C 0.74353 0.61458 0.83727 0.0
O293 O 0.70896 0.58736 0.80958 0.0
O294 O 0.71496 0.51068 0.81795 0.0
C295 C 0.78794 0.42974 0.81127 0.0
N296 N 0.8002 0.45088 0.82159 0.0
C297 C 0.85873 0.38359 0.8258 0.0
C298 C 0.84628 0.36065 0.81529 0.0
C299 C 0.81113 0.38415 0.80793 0.0
C300 C 0.83516 0.42953 0.82854 0.0
H301 H 0.76074 0.4476 0.80565 0.0
C302 C 0.69271 0.54256 0.81141 0.0
O303 O 0.76835 0.67322 0.80235 0.0
O304 O 0.79848 0.5995 0.79641 0.0
N305 N 0.8246 0.50092 0.84007 0.0
C306 C 0.83551 0.53002 0.84944 0.0
C307 C 0.87163 0.51303 0.85742 0.0
C308 C 0.895 0.46572 0.85588 0.0
C309 C 0.88316 0.43645 0.84618 0.0
C310 C 0.84776 0.45582 0.83838 0.0
H311 H 0.81664 0.56572 0.85087 0.0
O312 O 0.85386 0.62399 0.81656 0.0
O313 O 0.81073 0.5537 0.81924 0.0
O314 O 0.76001 0.63956 0.82862 0.0
O315 O 0.74188 0.56612 0.8376 0.0
C316 C 0.90491 0.38869 0.84396 0.0
C317 C 0.8935 0.36271 0.83367 0.0
H318 H 0.86374 0.32523 0.81274 0.0
H319 H 0.80162 0.36692 0.79976 0.0
H320 H 0.88097 0.53597 0.86484 0.0
H321 H 0.92228 0.45242 0.86216 0.0
H322 H 0.93088 0.3718 0.85006 0.0
H323 H 0.91163 0.32671 0.83191 0.0
Mn324 Mn 0.37139 0.28266 0.06368 0.0
Mn325 Mn 0.47777 0.27274 0.07942 0.0
C326 C 0.40863 0.3548 0.0712 0.0
C327 C 0.33733 0.28586 0.04518 0.0
C328 C 0.37248 0.24652 0.08836 0.0
O329 O 0.39587 0.21056 0.06064 0.0
O330 O 0.47374 0.21593 0.06846 0.0
C331 C 0.55457 0.28802 0.06118 0.0
N332 N 0.53495 0.30064 0.07162 0.0
C333 C 0.60317 0.35889 0.07528 0.0
C334 C 0.62463 0.34593 0.06465 0.0
C335 C 0.59989 0.31076 0.05751 0.0
C336 C 0.55747 0.33568 0.07837 0.0
H337 H 0.53565 0.26097 0.0557 0.0
C338 C 0.4407 0.19388 0.06217 0.0
O339 O 0.31004 0.27081 0.05385 0.0
O340 O 0.38342 0.29966 0.04736 0.0
N341 N 0.48741 0.3262 0.09034 0.0
C342 C 0.45945 0.33794 0.09983 0.0
C343 C 0.47758 0.37449 0.10759 0.0
C344 C 0.52487 0.39742 0.10572 0.0
C345 C 0.55297 0.3847 0.0959 0.0
C346 C 0.53249 0.34893 0.08834 0.0
H347 H 0.42374 0.31949 0.10151 0.0
O348 O 0.3622 0.35625 0.06752 0.0
O349 O 0.43214 0.31222 0.06985 0.0
O350 O 0.34678 0.26313 0.07984 0.0
O351 O 0.42093 0.24409 0.08841 0.0
C352 C 0.60057 0.40606 0.09334 0.0
C353 C 0.62522 0.39393 0.08293 0.0
H354 H 0.65981 0.36309 0.06184 0.0
H355 H 0.61591 0.30093 0.04924 0.0
H356 H 0.45552 0.38459 0.11508 0.0
H357 H 0.53902 0.42507 0.11181 0.0
H358 H 0.61829 0.43234 0.09926 0.0
H359 H 0.66108 0.41181 0.0809 0.0
Mn360 Mn 0.74124 0.86828 0.31347 0.0
Mn361 Mn 0.75974 0.96684 0.33158 0.0
C362 C 0.67295 0.91127 0.32103 0.0
C363 C 0.7363 0.84011 0.29445 0.0
C364 C 0.76893 0.85649 0.33883 0.0
O365 O 0.81581 0.88492 0.31134 0.0
O366 O 0.82095 0.95519 0.32233 0.0
C367 C 0.76729 0.04849 0.31421 0.0
N368 N 0.74529 0.02898 0.32384 0.0
C369 C 0.69282 0.10282 0.3261 0.0
C370 C 0.71503 0.12388 0.31624 0.0
C371 C 0.75221 0.09644 0.31023 0.0
C372 C 0.70877 0.05456 0.32954 0.0
H373 H 0.79614 0.02762 0.30963 0.0
C374 C 0.83964 0.9231 0.3153 0.0
O375 O 0.74716 0.809 0.30277 0.0
O376 O 0.72818 0.88695 0.29724 0.0
N377 N 0.70348 0.98323 0.34125 0.0
C378 C 0.68529 0.95718 0.35049 0.0
C379 C 0.64806 0.97944 0.35748 0.0
C380 C 0.63078 0.0286 0.35505 0.0
C381 C 0.65028 0.05481 0.34554 0.0
C382 C 0.68719 0.03066 0.33887 0.0
H383 H 0.6992 0.91979 0.35253 0.0
O384 O 0.66685 0.86651 0.3166 0.0
O385 O 0.71812 0.93028 0.32048 0.0
O386 O 0.75522 0.83601 0.32934 0.0
O387 O 0.77386 0.90433 0.34021 0.0
C388 C 0.63504 0.10421 0.3425 0.0
C389 C 0.65568 0.12789 0.33268 0.0
H390 H 0.7038 0.16102 0.3132 0.0
H391 H 0.76944 0.11237 0.3026 0.0
H392 H 0.63309 0.95903 0.36479 0.0
H393 H 0.60267 0.04591 0.36058 0.0
H394 H 0.60748 0.12436 0.34766 0.0
H395 H 0.64301 0.16553 0.33033 0.0
Mn396 Mn 0.11427 0.23269 0.56608 0.0
Mn397 Mn 0.01572 0.25081 0.58414 0.0
C398 C 0.07002 0.16425 0.57312 0.0
C399 C 0.14201 0.2301 0.54702 0.0
C400 C 0.12599 0.25776 0.59154 0.0
O401 O 0.09875 0.30762 0.56439 0.0
O402 O 0.02759 0.31276 0.57507 0.0
C403 C 0.93406 0.26017 0.56681 0.0
N404 N 0.95357 0.23712 0.57631 0.0
C405 C 0.88042 0.18326 0.57805 0.0
C406 C 0.85936 0.20659 0.56833 0.0
C407 C 0.88643 0.24503 0.56265 0.0
C408 C 0.92827 0.19953 0.58172 0.0
H409 H 0.9547 0.28985 0.56246 0.0
C410 C 0.06034 0.3315 0.56819 0.0
O411 O 0.17357 0.23903 0.55538 0.0
O412 O 0.09516 0.22225 0.5498 0.0
N413 N -0.00071 0.19355 0.59352 0.0
C414 C 0.0255 0.17399 0.6026 0.0
C415 C 0.00384 0.13488 0.60915 0.0
C416 C 0.95512 0.11706 0.60646 0.0
C417 C 0.92863 0.13817 0.59717 0.0
C418 C 0.9522 0.1769 0.59092 0.0
H419 H 0.06266 0.18804 0.60482 0.0
O420 O 0.11472 0.15791 0.56869 0.0
O421 O 0.05194 0.20985 0.57288 0.0
O422 O 0.14646 0.24396 0.58206 0.0
O423 O 0.07829 0.26405 0.59285 0.0
C424 C 0.87966 0.12252 0.5939 0.0
C425 C 0.85586 0.14452 0.58425 0.0
H426 H 0.82252 0.19518 0.56512 0.0
H427 H 0.87052 0.26309 0.55511 0.0
H428 H 0.02451 0.11861 0.61628 0.0
H429 H 0.93843 0.08717 0.6116 0.0
H430 H 0.85999 0.09351 0.59873 0.0
H431 H 0.81857 0.1315 0.5817 0.0
Mn432 Mn 0.74075 0.86763 0.44251 0.0
Mn433 Mn 0.72412 0.96668 0.4245 0.0
C434 C 0.80982 0.91002 0.43516 0.0
C435 C 0.74478 0.83921 0.46148 0.0
C436 C 0.71322 0.85657 0.41715 0.0
O437 O 0.66652 0.88549 0.44459 0.0
O438 O 0.66246 0.95626 0.43373 0.0
C439 C 0.7177 0.04865 0.44183 0.0
N440 N 0.73965 0.02858 0.43226 0.0
C441 C 0.79427 0.101 0.43017 0.0
C442 C 0.7721 0.12263 0.43997 0.0
C443 C 0.73384 0.09619 0.44586 0.0
C444 C 0.7771 0.05324 0.42666 0.0
H445 H 0.68808 0.02854 0.44633 0.0
C446 C 0.64337 0.92431 0.44075 0.0
O447 O 0.73382 0.80825 0.45314 0.0
O448 O 0.75358 0.88597 0.45875 0.0
N449 N 0.78115 0.98177 0.41495 0.0
C450 C 0.79976 0.95489 0.40587 0.0
C451 C 0.83859 0.97582 0.39912 0.0
C452 C 0.8571 0.0245 0.40161 0.0
C453 C 0.83707 0.05161 0.41094 0.0
C454 C 0.79864 0.02873 0.4174 0.0
H455 H 0.78511 0.9178 0.40381 0.0
O456 O 0.81519 0.86498 0.43948 0.0
O457 O 0.76483 0.92944 0.43564 0.0
O458 O 0.72672 0.83577 0.42661 0.0
O459 O 0.70887 0.9045 0.41582 0.0
C460 C 0.85348 0.10057 0.41403 0.0
C461 C 0.83267 0.12495 0.42374 0.0
H462 H 0.78424 0.15942 0.44306 0.0
H463 H 0.71666 0.11254 0.45345 0.0
H464 H 0.85398 0.95469 0.39196 0.0
H465 H 0.8867 0.04067 0.39631 0.0
H466 H 0.88218 0.1198 0.40902 0.0
H467 H 0.84631 0.16219 0.42616 0.0
Mn468 Mn 0.12151 0.26188 0.69617 0.0
Mn469 Mn 0.0163 0.25422 0.67989 0.0
C470 C 0.08766 0.33447 0.68806 0.0
C471 C 0.15451 0.2663 0.71474 0.0
C472 C 0.12157 0.22409 0.67154 0.0
O473 O 0.09421 0.19107 0.69953 0.0
O474 O 0.01828 0.19746 0.69085 0.0
C475 C 0.93863 0.27116 0.69786 0.0
N476 N 0.95921 0.28332 0.68749 0.0
C477 C 0.89196 0.34215 0.68348 0.0
C478 C 0.8696 0.32984 0.69405 0.0
C479 C 0.89336 0.29459 0.70134 0.0
C480 C 0.93763 0.31839 0.6806 0.0
H481 H 0.95665 0.24382 0.70343 0.0
C482 C 0.04945 0.17511 0.69755 0.0
O483 O 0.18168 0.24906 0.70627 0.0
O484 O 0.10904 0.28139 0.71233 0.0
N485 N 0.00828 0.30749 0.66888 0.0
C486 C 0.03671 0.318 0.65939 0.0
C487 C 0.01912 0.35378 0.65139 0.0
C488 C 0.97195 0.37722 0.65305 0.0
C489 C 0.94348 0.36598 0.6629 0.0
C490 C 0.96335 0.3308 0.67068 0.0
H491 H 0.07227 0.29897 0.65789 0.0
O492 O 0.13383 0.33452 0.69191 0.0
O493 O 0.0623 0.29301 0.68956 0.0
O494 O 0.14685 0.23938 0.68026 0.0
O495 O 0.0731 0.22437 0.67113 0.0
C496 C 0.89599 0.388 0.66527 0.0
C497 C 0.8707 0.3769 0.67565 0.0
H498 H 0.83441 0.34745 0.6967 0.0
H499 H 0.87658 0.28516 0.70955 0.0
H500 H 0.0414 0.36277 0.64386 0.0
H501 H 0.95816 0.40413 0.64675 0.0
H502 H 0.87873 0.41383 0.65919 0.0
H503 H 0.83488 0.39516 0.67751 0.0
Mn504 Mn 0.71206 0.62229 0.9439 0.0
Mn505 Mn 0.72174 0.51555 0.92826 0.0
C506 C 0.63992 0.58532 0.93631 0.0
C507 C 0.70856 0.65648 0.96242 0.0
C508 C 0.74893 0.6205 0.91925 0.0
O509 O 0.78391 0.59738 0.94705 0.0
O510 O 0.77825 0.51938 0.9393 0.0
C511 C 0.70561 0.43896 0.94651 0.0
N512 N 0.69326 0.45864 0.93606 0.0
C513 C 0.63472 0.39072 0.93236 0.0
C514 C 0.64732 0.36923 0.94301 0.0
C515 C 0.68252 0.39379 0.95018 0.0
C516 C 0.65825 0.43627 0.92928 0.0
H517 H 0.73276 0.45769 0.95201 0.0
C518 C 0.80035 0.5524 0.94558 0.0
O519 O 0.72399 0.68366 0.95377 0.0
O520 O 0.69456 0.61047 0.96021 0.0
N521 N 0.66854 0.50612 0.91727 0.0
C522 C 0.65733 0.534 0.90773 0.0
C523 C 0.62091 0.516 0.89992 0.0
C524 C 0.59755 0.46891 0.90181 0.0
C525 C 0.60978 0.44086 0.91167 0.0
C526 C 0.64544 0.46123 0.91928 0.0
H527 H 0.67612 0.56954 0.90604 0.0
O528 O 0.63863 0.63182 0.93995 0.0
O529 O 0.68232 0.56162 0.93773 0.0
O530 O 0.7322 0.64654 0.92771 0.0
O531 O 0.75104 0.57203 0.91927 0.0
C532 C 0.58809 0.39339 0.91423 0.0
C533 C 0.59977 0.36878 0.92467 0.0
H534 H 0.62991 0.33416 0.94582 0.0
H535 H 0.69211 0.37773 0.95846 0.0
H536 H 0.6113 0.53801 0.89239 0.0
H537 H 0.57 0.45485 0.89568 0.0
H538 H 0.56189 0.37575 0.90828 0.0
H539 H 0.58166 0.33303 0.92669 0.0
Mn540 Mn 0.3782 0.22487 0.19483 0.0
Mn541 Mn 0.48264 0.23431 0.17846 0.0
C542 C 0.41454 0.15239 0.18726 0.0
C543 C 0.3468 0.22284 0.21357 0.0
C544 C 0.37627 0.25997 0.17009 0.0
O545 O 0.40282 0.29722 0.19749 0.0
O546 O 0.47999 0.29142 0.18937 0.0
C547 C 0.56155 0.21949 0.19627 0.0
N548 N 0.54074 0.20665 0.18595 0.0
C549 C 0.6086 0.14852 0.18194 0.0
C550 C 0.63129 0.16171 0.19244 0.0
C551 C 0.60733 0.19692 0.19969 0.0
C552 C 0.5625 0.17155 0.1791 0.0
H553 H 0.54323 0.24658 0.20183 0.0
C554 C 0.44752 0.31379 0.19574 0.0
O555 O 0.31817 0.23711 0.20505 0.0
O556 O 0.39256 0.20895 0.2111 0.0
N557 N 0.49099 0.1806 0.16755 0.0
C558 C 0.46192 0.1686 0.15825 0.0
C559 C 0.47924 0.13202 0.15041 0.0
C560 C 0.52683 0.10936 0.15201 0.0
C561 C 0.55604 0.12227 0.16164 0.0
C562 C 0.53636 0.15806 0.16931 0.0
H563 H 0.42597 0.18688 0.15677 0.0
O564 O 0.36865 0.15104 0.19127 0.0
O565 O 0.43816 0.19508 0.18835 0.0
O566 O 0.35157 0.24344 0.17877 0.0
O567 O 0.4247 0.26269 0.16978 0.0
C568 C 0.60399 0.10111 0.16394 0.0
C569 C 0.62983 0.11345 0.17419 0.0
H570 H 0.66682 0.14469 0.19505 0.0
H571 H 0.6243 0.20692 0.20786 0.0
H572 H 0.4563 0.12171 0.14306 0.0
H573 H 0.54035 0.08173 0.14584 0.0
H574 H 0.62109 0.07485 0.15793 0.0
H575 H 0.66596 0.09573 0.17602 0.0
C576 C 0.90485 0.9381 0.30026 0.0
C577 C 0.89197 0.93208 0.31185 0.0
C578 C 0.95273 0.95703 0.29718 0.0
C579 C 0.98777 0.96955 0.30597 0.0
C580 C 0.97534 0.96094 0.31766 0.0
C581 C 0.92739 0.94262 0.32044 0.0
C582 C 0.96456 0.96605 0.28466 0.0
C583 C 0.012 0.97264 0.32731 0.0
C584 C 0.12801 0.97918 0.30532 0.0
C585 C 0.13423 0.03061 0.30803 0.0
C586 C 0.08019 0.95939 0.30286 0.0
C587 C 0.03776 0.99185 0.30331 0.0
C588 C 0.04473 0.0449 0.30445 0.0
C589 C 0.09332 0.06388 0.3068 0.0
C590 C 0.07451 0.90281 0.30136 0.0
C591 C 0.00024 0.08076 0.30463 0.0
H592 H 0.87668 0.93069 0.29367 0.0
H593 H 0.91684 0.93794 0.32939 0.0
H594 H 0.95976 0.00695 0.28271 0.0
H595 H 0.00432 0.95581 0.28262 0.0
H596 H 0.93881 0.94422 0.27894 0.0
H597 H -0.00339 0.96225 0.33588 0.0
H598 H 0.04803 0.95177 0.326 0.0
H599 H 0.021 0.01373 0.32737 0.0
H600 H 0.15997 0.95357 0.30591 0.0
H601 H 0.09833 0.10384 0.30868 0.0
H602 H 0.04496 0.89378 0.29489 0.0
H603 H 0.06266 0.88576 0.30967 0.0
H604 H 0.11072 0.88484 0.2987 0.0
H605 H 0.97189 0.06999 0.29802 0.0
H606 H 0.01226 0.12059 0.30314 0.0
H607 H 0.98145 0.07868 0.31316 0.0
C608 C 0.00723 0.61704 0.55365 0.0
C609 C 0.95529 0.62454 0.55555 0.0
C610 C 0.02694 0.56834 0.5523 0.0
C611 C 0.99373 0.52647 0.55289 0.0
C612 C 0.94061 0.53437 0.55305 0.0
C613 C 0.92179 0.58375 0.55442 0.0
C614 C 0.08375 0.56164 0.5519 0.0
C615 C 0.90406 0.49041 0.55324 0.0
C616 C 0.04847 0.3934 0.55234 0.0
C617 C 0.05059 0.38293 0.56413 0.0
C618 C 0.03003 0.4402 0.54841 0.0
C619 C 0.01438 0.47695 0.55653 0.0
C620 C 0.01876 0.46697 0.56847 0.0
C621 C 0.03626 0.41975 0.5721 0.0
C622 C 0.02498 0.44913 0.53564 0.0
C623 C 0.00384 0.50568 0.57745 0.0
H624 H 0.03311 0.64886 0.55418 0.0
H625 H 0.88151 0.58966 0.55568 0.0
H626 H 0.09766 0.55168 0.56063 0.0
H627 H 0.0945 0.53041 0.54601 0.0
H628 H 0.10322 0.59691 0.54911 0.0
H629 H 0.86512 0.50243 0.55084 0.0
H630 H 0.91661 0.46003 0.54729 0.0
H631 H 0.90279 0.47417 0.56204 0.0
H632 H 0.05867 0.36411 0.54621 0.0
H633 H 0.03787 0.4111 0.58122 0.0
H634 H 0.03644 0.48823 0.53329 0.0
H635 H 0.98469 0.44444 0.53312 0.0
H636 H 0.04802 0.42181 0.53058 0.0
H637 H 0.02479 0.54162 0.57604 0.0
H638 H 0.01168 0.49239 0.58634 0.0
H639 H 0.96279 0.51418 0.57674 0.0
C640 C 0.63755 0.47404 0.80407 0.0
C641 C 0.6446 0.52583 0.80629 0.0
C642 C 0.58909 0.45416 0.8024 0.0
C643 C 0.54698 0.487 0.80305 0.0
C644 C 0.55451 0.54015 0.80359 0.0
C645 C 0.60366 0.55916 0.80524 0.0
C646 C 0.58278 0.39738 0.80157 0.0
C647 C 0.51032 0.57636 0.8039 0.0
C648 C 0.41383 0.43255 0.80172 0.0
C649 C 0.40277 0.42888 0.81346 0.0
C650 C 0.46099 0.45118 0.79805 0.0
C651 C 0.49737 0.46556 0.80639 0.0
C652 C 0.4868 0.45948 0.81826 0.0
C653 C 0.43933 0.44169 0.82163 0.0
C654 C 0.47063 0.45788 0.78535 0.0
C655 C 0.52504 0.47309 0.82745 0.0
H656 H 0.66949 0.44834 0.80454 0.0
H657 H 0.60923 0.59934 0.80675 0.0
H658 H 0.57243 0.38218 0.81015 0.0
H659 H 0.55196 0.38725 0.7955 0.0
H660 H 0.61832 0.37856 0.79874 0.0
H661 H 0.52222 0.61574 0.80186 0.0
H662 H 0.48046 0.56448 0.79775 0.0
H663 H 0.49345 0.5762 0.81265 0.0
H664 H 0.38476 0.42349 0.79545 0.0
H665 H 0.43021 0.43887 0.83071 0.0
H666 H 0.5099 0.44689 0.78305 0.0
H667 H 0.46589 0.49846 0.78309 0.0
H668 H 0.44371 0.43535 0.78007 0.0
H669 H 0.56097 0.45224 0.826 0.0
H670 H 0.51124 0.4641 0.83625 0.0
H671 H 0.5337 0.51421 0.82706 0.0
C672 C 0.50724 0.13927 0.05382 0.0
C673 C 0.45627 0.14582 0.05687 0.0
C674 C 0.52691 0.09102 0.05177 0.0
C675 C 0.49477 0.04857 0.05295 0.0
C676 C 0.44191 0.05557 0.05442 0.0
C677 C 0.42306 0.10455 0.05638 0.0
C678 C 0.58325 0.08526 0.04993 0.0
C679 C 0.40633 0.01101 0.05537 0.0
C680 C 0.5486 0.91548 0.05055 0.0
C681 C 0.5564 0.90432 0.06218 0.0
C682 C 0.52896 0.96276 0.04726 0.0
C683 C 0.51768 -0.00091 0.05585 0.0
C684 C 0.52807 0.98843 0.06756 0.0
C685 C 0.54685 0.94089 0.07058 0.0
C686 C 0.51784 0.97259 0.03473 0.0
C687 C 0.51781 0.02658 0.07699 0.0
H688 H 0.53273 0.17146 0.05388 0.0
H689 H 0.38346 0.10977 0.05856 0.0
H690 H 0.6015 0.07506 0.05822 0.0
H691 H 0.59149 0.05453 0.0437 0.0
H692 H 0.60069 0.121 0.04678 0.0
H693 H 0.36624 0.02254 0.05408 0.0
H694 H 0.41615 0.98135 0.04899 0.0
H695 H 0.40988 0.99399 0.06407 0.0
H696 H 0.55517 0.88638 0.04413 0.0
H697 H 0.55281 0.93162 0.07957 0.0
H698 H 0.52805 0.01191 0.03226 0.0
H699 H 0.47661 0.96789 0.03319 0.0
H700 H 0.53841 0.94573 0.02904 0.0
H701 H 0.5381 0.06254 0.07518 0.0
H702 H 0.52987 0.01267 0.08559 0.0
H703 H 0.4767 0.03525 0.07735 0.0
C704 C 0.07877 0.44454 0.95698 0.0
C705 C 0.09009 0.43788 0.94532 0.0
C706 C 0.03149 0.46393 0.96034 0.0
C707 C 0.9953 0.47608 0.95178 0.0
C708 C 0.00613 0.46691 0.94003 0.0
C709 C 0.05367 0.44838 0.93695 0.0
C710 C 0.02153 0.47384 0.97292 0.0
C711 C 0.96811 0.47809 0.93062 0.0
C712 C 0.85512 0.48551 0.95375 0.0
C713 C 0.84834 0.5367 0.9509 0.0
C714 C 0.90343 0.46594 0.95576 0.0
C715 C 0.94569 0.49845 0.95477 0.0
C716 C 0.93841 0.5514 0.95353 0.0
C717 C 0.88939 0.57012 0.95159 0.0
C718 C 0.90949 0.40945 0.95734 0.0
C719 C 0.98276 0.58734 0.95281 0.0
H720 H 0.10774 0.43724 0.96339 0.0
H721 H 0.06302 0.44327 0.92794 0.0
H722 H 0.02621 0.51493 0.97466 0.0
H723 H 0.98219 0.46341 0.97531 0.0
H724 H 0.04831 0.45271 0.97852 0.0
H725 H 0.98213 0.46691 0.92198 0.0
H726 H 0.93215 0.45758 0.9323 0.0
H727 H 0.95941 0.51923 0.93047 0.0
H728 H 0.82309 0.45982 0.95355 0.0
H729 H 0.884 0.60989 0.94958 0.0
H730 H 0.94012 0.4008 0.96357 0.0
H731 H 0.91998 0.39204 0.94898 0.0
H732 H 0.8738 0.39149 0.96036 0.0
H733 H 0.01238 0.57701 0.95916 0.0
H734 H 0.97097 0.62723 0.95431 0.0
H735 H -0.0001 0.58482 0.94411 0.0
C736 C 0.43081 0.40357 0.20124 0.0
C737 C 0.46361 0.362 0.20089 0.0
C738 C 0.4501 0.45249 0.20307 0.0
C739 C 0.50301 0.45911 0.20458 0.0
C740 C 0.53475 0.41644 0.20587 0.0
C741 C 0.51465 0.36826 0.20392 0.0
C742 C 0.41495 0.4973 0.20197 0.0
C743 C 0.59111 0.42182 0.20777 0.0
C744 C 0.55578 0.5663 0.1869 0.0
C745 C 0.56482 0.60318 0.19526 0.0
C746 C 0.53711 0.51874 0.18996 0.0
C747 C 0.52635 0.50838 0.20166 0.0
C748 C 0.53731 0.54497 0.21022 0.0
C749 C 0.55679 0.59228 0.20689 0.0
C750 C 0.52716 0.48032 0.18056 0.0
C751 C 0.5259 0.53541 0.22275 0.0
H752 H 0.39117 0.39857 0.19906 0.0
H753 H 0.53981 0.33584 0.20397 0.0
H754 H 0.42478 0.5271 0.20832 0.0
H755 H 0.419 0.51398 0.19325 0.0
H756 H 0.3747 0.48614 0.20319 0.0
H757 H 0.60816 0.38608 0.21102 0.0
H758 H 0.6096 0.43151 0.19948 0.0
H759 H 0.5995 0.45276 0.21394 0.0
H760 H 0.56187 0.57539 0.17791 0.0
H761 H 0.56296 0.62162 0.21328 0.0
H762 H 0.48606 0.47165 0.18013 0.0
H763 H 0.54735 0.4444 0.18246 0.0
H764 H 0.53955 0.49398 0.17197 0.0
H765 H 0.48462 0.53997 0.22422 0.0
H766 H 0.54625 0.56249 0.22843 0.0
H767 H 0.53618 0.49619 0.22527 0.0
C768 C 0.39127 0.06646 0.45257 0.0
C769 C 0.35054 0.03262 0.45194 0.0
C770 C 0.44069 0.04812 0.45417 0.0
C771 C 0.44868 0.99515 0.4551 0.0
C772 C 0.40689 0.96208 0.45616 0.0
C773 C 0.35817 0.98129 0.45452 0.0
C774 C 0.48456 0.08463 0.45341 0.0
C775 C 0.4137 0.9055 0.4574 0.0
C776 C 0.55519 0.94695 0.43655 0.0
C777 C 0.59206 0.93503 0.44471 0.0
C778 C 0.50806 0.9656 0.43992 0.0
C779 C 0.49822 0.97357 0.45177 0.0
C780 C 0.53504 0.9604 0.4601 0.0
C781 C 0.5818 0.94079 0.45645 0.0
C782 C 0.46932 0.97787 0.43074 0.0
C783 C 0.52622 0.96927 0.47276 0.0
H784 H 0.38523 0.10632 0.45076 0.0
H785 H 0.32641 0.95527 0.45437 0.0
H786 H 0.51502 0.07389 0.45952 0.0
H787 H 0.5007 0.08335 0.4446 0.0
H788 H 0.4725 0.12418 0.45522 0.0
H789 H 0.37847 0.88679 0.46046 0.0
H790 H 0.42375 0.88913 0.44891 0.0
H791 H 0.4449 0.89654 0.46346 0.0
H792 H 0.56376 0.9426 0.42748 0.0
H793 H 0.61117 0.93249 0.46269 0.0
H794 H 0.46067 0.01902 0.43086 0.0
H795 H 0.43347 0.95723 0.43246 0.0
H796 H 0.48262 0.96761 0.42198 0.0
H797 H 0.53053 0.01029 0.47464 0.0
H798 H 0.55378 0.94808 0.47815 0.0
H799 H 0.48726 0.95818 0.4753 0.0
C800 C 0.97993 0.11973 0.70426 0.0
C801 C 0.03204 0.127 0.70255 0.0
C802 C 0.95992 0.07115 0.70566 0.0
C803 C 0.99301 0.02916 0.70529 0.0
C804 C 0.04616 0.0369 0.70532 0.0
C805 C 0.06528 0.08615 0.70391 0.0
C806 C 0.90307 0.06463 0.70586 0.0
C807 C 0.08255 0.99283 0.70537 0.0
C808 C 0.93856 0.89589 0.7059 0.0
C809 C 0.93743 0.88492 0.69412 0.0
C810 C 0.95637 0.94301 0.70981 0.0
C811 C 0.97247 0.97952 0.70168 0.0
C812 C 0.96898 0.96906 0.68974 0.0
C813 C 0.95201 0.92159 0.68613 0.0
C814 C 0.96036 0.95249 0.72258 0.0
C815 C 0.98441 0.00748 0.68074 0.0
H816 H 0.95421 0.1516 0.70356 0.0
H817 H 0.10567 0.09187 0.7028 0.0
H818 H 0.88972 0.05444 0.6971 0.0
H819 H 0.8918 0.03362 0.71177 0.0
H820 H 0.88356 0.10005 0.70853 0.0
H821 H 0.12138 0.00486 0.70787 0.0
H822 H 0.06948 0.9628 0.71135 0.0
H823 H 0.08432 0.97613 0.69662 0.0
H824 H 0.92812 0.86678 0.71205 0.0
H825 H 0.9511 0.9126 0.67703 0.0
H826 H 0.94885 0.99173 0.72479 0.0
H827 H 0.0004 0.94777 0.72528 0.0
H828 H 0.93678 0.92546 0.72758 0.0
H829 H 0.96327 0.0434 0.68201 0.0
H830 H 0.97724 0.99383 0.67185 0.0
H831 H 0.02539 0.01616 0.68158 0.0
C832 C 0.61769 0.986 0.31872 0.0
C833 C 0.629 0.94102 0.32451 0.0
C834 C 0.57226 0.01165 0.32088 0.0
C835 C 0.53749 0.99129 0.32893 0.0
C836 C 0.55113 0.94805 0.33544 0.0
C837 C 0.59615 0.92245 0.33289 0.0
C838 C 0.56014 0.05867 0.31402 0.0
C839 C 0.51774 0.92651 0.34468 0.0
C840 C 0.42208 0.07456 0.3334 0.0
C841 C 0.38928 0.0544 0.32517 0.0
C842 C 0.46922 0.05191 0.33548 0.0
C843 C 0.48434 0.00963 0.3288 0.0
C844 C 0.45001 0.988 0.32082 0.0
C845 C 0.403 0.01105 0.31902 0.0
C846 C 0.50314 0.07491 0.34446 0.0
C847 C 0.46376 0.94183 0.31381 0.0
H848 H 0.64346 -6e-05 0.31218 0.0
H849 H 0.60553 0.88771 0.33741 0.0
H850 H 0.52855 0.05051 0.30799 0.0
H851 H 0.54761 0.08955 0.31984 0.0
H852 H 0.59323 0.07227 0.30898 0.0
H853 H 0.48814 0.9535 0.34751 0.0
H854 H 0.49996 0.89139 0.34133 0.0
H855 H 0.54089 0.91561 0.35227 0.0
H856 H 0.41103 0.10824 0.33812 0.0
H857 H 0.37756 -0.00382 0.31252 0.0
H858 H 0.48059 0.09225 0.3515 0.0
H859 H 0.52577 0.10542 0.3404 0.0
H860 H 0.52903 0.04633 0.3482 0.0
H861 H 0.49641 0.95069 0.30814 0.0
H862 H 0.43178 0.92847 0.30837 0.0
H863 H 0.47534 0.91046 0.3196 0.0
C864 C 0.97129 0.89539 0.56781 0.0
C865 C 0.92754 0.87974 0.57355 0.0
C866 C 0.99318 0.94252 0.57017 0.0
C867 C 0.96988 0.97511 0.57828 0.0
C868 C 0.92687 0.95824 0.58448 0.0
C869 C 0.90555 0.91093 0.58186 0.0
C870 C 0.0401 0.95821 0.56364 0.0
C871 C 0.90184 0.99045 0.5935 0.0
C872 C 0.05616 0.0859 0.58427 0.0
C873 C 0.03913 0.12032 0.57605 0.0
C874 C 0.02997 0.04059 0.58617 0.0
C875 C 0.98789 0.02827 0.57915 0.0
C876 C 0.96889 0.06465 0.57129 0.0
C877 C 0.99501 0.11038 0.5698 0.0
C878 C 0.04974 0.00561 0.59531 0.0
C879 C 0.92307 0.05395 0.56392 0.0
H880 H 0.9875 0.87133 0.56121 0.0
H881 H 0.87148 0.89847 0.58625 0.0
H882 H 0.03161 0.9918 0.55823 0.0
H883 H 0.07046 0.9691 0.56977 0.0
H884 H 0.05466 0.92745 0.55801 0.0
H885 H 0.88357 0.96657 0.60019 0.0
H886 H 0.92929 0.01622 0.59773 0.0
H887 H 0.87176 0.01336 0.58935 0.0
H888 H 0.09023 0.09421 0.58915 0.0
H889 H 0.98225 0.13741 0.5634 0.0
H890 H 0.05741 0.02724 0.60332 0.0
H891 H 0.08643 0.98991 0.59236 0.0
H892 H 0.02303 0.97455 0.59732 0.0
H893 H 0.93235 0.02386 0.55758 0.0
H894 H 0.91012 0.08815 0.55918 0.0
H895 H 0.89137 0.03992 0.56931 0.0
C896 C 0.10607 0.42314 0.83403 0.0
C897 C 0.14012 0.44031 0.82574 0.0
C898 C 0.06082 0.44921 0.83605 0.0
C899 C 0.04816 0.49141 0.82909 0.0
C900 C 0.08415 0.5105 0.82116 0.0
C901 C 0.12981 0.48446 0.81954 0.0
C902 C 0.02623 0.42921 0.84524 0.0
C903 C 0.07309 0.55641 0.81384 0.0
C904 C 0.91477 0.50885 0.81817 0.0
C905 C 0.8998 0.55272 0.82395 0.0
C906 C 0.96184 0.4866 0.82039 0.0
C907 C 0.99504 0.50963 0.82842 0.0
C908 C 0.9788 0.5527 0.83469 0.0
C909 C 0.93156 0.57442 0.8322 0.0
C910 C 0.97682 0.43963 0.81379 0.0
C911 C 0.01164 0.57744 0.84364 0.0
H912 H 0.11465 0.38904 0.83887 0.0
H913 H 0.15651 0.49732 0.81308 0.0
H914 H 0.01018 0.3927 0.84224 0.0
H915 H 0.04823 0.42111 0.85317 0.0
H916 H 0.99539 0.45596 0.8474 0.0
H917 H 0.10698 0.56931 0.80898 0.0
H918 H 0.04253 0.54725 0.80761 0.0
H919 H 0.05957 0.58813 0.8193 0.0
H920 H 0.89024 0.49285 0.81162 0.0
H921 H 0.91963 0.60856 0.83664 0.0
H922 H 0.98784 0.40914 0.81987 0.0
H923 H 0.01015 0.44797 0.80828 0.0
H924 H 0.94566 0.4253 0.80824 0.0
H925 H 0.03756 0.54982 0.84774 0.0
H926 H 0.98823 0.59558 0.85044 0.0
H927 H 0.03434 0.6076 0.83946 0.0
C928 C 0.56693 0.60787 0.083 0.0
C929 C 0.54837 0.64156 0.07478 0.0
C930 C 0.54136 0.56256 0.08531 0.0
C931 C 0.49811 0.54952 0.07872 0.0
C932 C 0.47774 0.58512 0.07086 0.0
C933 C 0.50338 0.6308 0.06894 0.0
C934 C 0.56292 0.52827 0.09437 0.0
C935 C 0.4307 0.57367 0.06394 0.0
C936 C 0.47813 0.41579 0.06823 0.0
C937 C 0.43498 0.40145 0.07437 0.0
C938 C 0.50115 0.46273 0.07021 0.0
C939 C 0.47967 0.49639 0.07835 0.0
C940 C 0.4375 0.48068 0.08499 0.0
C941 C 0.41493 0.43361 0.08274 0.0
C942 C 0.54717 0.47713 0.06322 0.0
C943 C 0.41448 0.51391 0.09409 0.0
H944 H 0.60169 0.61679 0.08756 0.0
H945 H 0.48945 0.65721 0.06253 0.0
H946 H 0.5984 0.51142 0.091 0.0
H947 H 0.57318 0.55062 0.10213 0.0
H948 H 0.53623 0.49796 0.09695 0.0
H949 H 0.41712 0.60726 0.05907 0.0
H950 H 0.4388 0.54266 0.05776 0.0
H951 H 0.39984 0.56058 0.0697 0.0
H952 H 0.49287 0.3909 0.06161 0.0
H953 H 0.38137 0.42212 0.08745 0.0
H954 H 0.5786 0.48835 0.06903 0.0
H955 H 0.53818 0.51021 0.05768 0.0
H956 H 0.56048 0.44559 0.05765 0.0
H957 H 0.44274 0.54026 0.09782 0.0
H958 H 0.39796 0.49075 0.10114 0.0
H959 H 0.38331 0.53609 0.09016 0.0
C960 C 0.38664 0.42726 0.92469 0.0
C961 C 0.35292 0.44616 0.93285 0.0
C962 C 0.43196 0.45273 0.92234 0.0
C963 C 0.44499 0.49622 0.92885 0.0
C964 C 0.40936 0.51693 0.93665 0.0
C965 C 0.36366 0.4914 0.9386 0.0
C966 C 0.46626 0.43078 0.91333 0.0
C967 C 0.42083 0.5642 0.94349 0.0
C968 C 0.57865 0.51615 0.93936 0.0
C969 C 0.59319 0.55906 0.93316 0.0
C970 C 0.53166 0.49321 0.93741 0.0
C971 C 0.49815 0.51455 0.92922 0.0
C972 C 0.51404 0.55647 0.92252 0.0
C973 C 0.56117 0.57896 0.92474 0.0
C974 C 0.51707 0.44744 0.94447 0.0
C975 C 0.48094 0.57927 0.91336 0.0
H976 H 0.37774 0.3923 0.9202 0.0
H977 H 0.33723 0.50559 0.94498 0.0
H978 H 0.48305 0.3954 0.91677 0.0
H979 H 0.44395 0.42024 0.90558 0.0
H980 H 0.49661 0.45736 0.91071 0.0
H981 H 0.38722 0.57803 0.94831 0.0
H982 H 0.45173 0.55625 0.94971 0.0
H983 H 0.43407 0.59484 0.93769 0.0
H984 H 0.60343 0.50151 0.94602 0.0
H985 H 0.5728 0.61234 0.91998 0.0
H986 H 0.5059 0.41582 0.9387 0.0
H987 H 0.48393 0.45668 0.94996 0.0
H988 H 0.54848 0.43426 0.95009 0.0
H989 H 0.45493 0.55079 0.9096 0.0
H990 H 0.50416 0.59596 0.90634 0.0
H991 H 0.45839 0.61027 0.91725 0.0
C992 C 0.50988 0.87627 0.18881 0.0
C993 C 0.55394 0.86574 0.18261 0.0
C994 C 0.4838 0.92186 0.18712 0.0
C995 C 0.50276 0.95757 0.1791 0.0
C996 C 0.54492 0.94472 0.17216 0.0
C997 C 0.57102 0.89952 0.17425 0.0
C998 C 0.43789 0.9331 0.19442 0.0
C999 C 0.56482 0.97904 0.16291 0.0
C1000 C 0.41894 0.07342 0.17573 0.0
C1001 C 0.44034 0.10568 0.18392 0.0
C1002 C 0.44108 0.0263 0.17334 0.0
C1003 C 0.48426 0.01065 0.17964 0.0
C1004 C 0.50702 0.04438 0.1876 0.0
C1005 C 0.48437 0.09136 0.18973 0.0
C1006 C 0.41659 0.99295 0.16444 0.0
C1007 C 0.55409 0.03003 0.19423 0.0
H1008 H 0.4971 0.84979 0.19533 0.0
H1009 H 0.60504 0.89077 0.1694 0.0
H1010 H 0.44693 0.96406 0.20055 0.0
H1011 H 0.4061 0.94616 0.18893 0.0
H1012 H 0.42519 0.89941 0.19938 0.0
H1013 H 0.53781 0.0095 0.16063 0.0
H1014 H 0.60105 0.99565 0.16592 0.0
H1015 H 0.57337 0.95674 0.15504 0.0
H1016 H 0.38468 0.08487 0.17128 0.0
H1017 H 0.50016 0.11629 0.19622 0.0
H1018 H 0.38623 0.9706 0.16865 0.0
H1019 H 0.44426 0.96671 0.16047 0.0
H1020 H 0.39875 0.016 0.15755 0.0
H1021 H 0.54597 -0.00306 0.19983 0.0
H1022 H 0.56826 0.06158 0.19969 0.0
H1023 H 0.5846 0.01884 0.18817 0.0
C1024 C 0.86486 0.98431 0.43833 0.0
C1025 C 0.8544 0.93997 0.43221 0.0
C1026 C 0.91084 0.00986 0.43678 0.0
C1027 C 0.94707 0.99004 0.429 0.0
C1028 C 0.93445 0.94749 0.42214 0.0
C1029 C 0.88877 0.922 0.42408 0.0
C1030 C 0.92185 0.05619 0.44398 0.0
C1031 C 0.9695 0.92661 0.41315 0.0
C1032 C 0.06308 0.07379 0.42596 0.0
C1033 C 0.09451 0.05296 0.43437 0.0
C1034 C 0.01635 0.05128 0.42335 0.0
C1035 C 0.00016 0.00838 0.42968 0.0
C1036 C 0.03314 0.98612 0.43786 0.0
C1037 C 0.0798 0.00908 0.44019 0.0
C1038 C 0.98397 0.07517 0.4142 0.0
C1039 C 0.01823 0.93933 0.44453 0.0
H1040 H 0.83794 -0.00223 0.44468 0.0
H1041 H 0.88011 0.88773 0.4193 0.0
H1042 H 0.95243 0.04745 0.45023 0.0
H1043 H 0.93533 0.08762 0.43842 0.0
H1044 H 0.88796 0.06932 0.4488 0.0
H1045 H -0.00017 0.95364 0.41079 0.0
H1046 H 0.98628 0.89102 0.41648 0.0
H1047 H 0.94785 0.91671 0.40526 0.0
H1048 H 0.07487 0.10789 0.42148 0.0
H1049 H 0.10415 0.99368 0.44684 0.0
H1050 H 0.96205 0.10652 0.41813 0.0
H1051 H 0.95744 0.0475 0.41031 0.0
H1052 H 0.00781 0.0917 0.40727 0.0
H1053 H 0.98476 0.94774 0.44999 0.0
H1054 H 0.04935 0.9254 0.45014 0.0
H1055 H 0.00745 0.90854 0.43851 0.0
C1056 C 0.01967 0.39771 0.69022 0.0
C1057 C 0.06346 0.38182 0.68454 0.0
C1058 C -0.00173 0.44505 0.68788 0.0
C1059 C 0.02215 0.47765 0.67986 0.0
C1060 C 0.06532 0.46066 0.67375 0.0
C1061 C 0.0861 0.41308 0.67632 0.0
C1062 C 0.95118 0.46089 0.69432 0.0
C1063 C 0.09101 0.49303 0.66484 0.0
C1064 C 0.93597 0.58817 0.67378 0.0
C1065 C 0.95234 0.62239 0.68211 0.0
C1066 C 0.96255 0.54315 0.67184 0.0
C1067 C 0.0043 0.53083 0.67897 0.0
C1068 C 0.02272 0.56708 0.68693 0.0
C1069 C -0.00374 0.61258 0.68844 0.0
C1070 C 0.94354 0.50846 0.66256 0.0
C1071 C 0.06819 0.5564 0.69441 0.0
H1072 H 0.00301 0.37364 0.69677 0.0
H1073 H 0.12023 0.40047 0.67199 0.0
H1074 H 0.95963 0.49439 0.69978 0.0
H1075 H 0.92112 0.47198 0.68814 0.0
H1076 H 0.93623 0.43016 0.69991 0.0
H1077 H 0.06375 0.51849 0.66047 0.0
H1078 H 0.1204 0.51635 0.66914 0.0
H1079 H 0.11018 0.4693 0.65825 0.0
H1080 H 0.90208 0.59641 0.66883 0.0
H1081 H 0.00853 0.63948 0.69493 0.0
H1082 H 0.97005 0.47705 0.66071 0.0
H1083 H 0.9373 0.53027 0.65451 0.0
H1084 H 0.90622 0.49328 0.66523 0.0
H1085 H 0.05854 0.52641 0.70074 0.0
H1086 H 0.08098 0.59064 0.69917 0.0
H1087 H 0.10011 0.54227 0.6891 0.0
C1088 C 0.25703 0.18427 0.35396 0.0
C1089 C 0.22562 0.1442 0.35043 0.0
C1090 C 0.26123 0.19719 0.36568 0.0
C1091 C 0.23367 0.16911 0.37398 0.0
C1092 C 0.19751 0.13293 0.37025 0.0
C1093 C 0.19385 0.12109 0.35854 0.0
C1094 C 0.29883 0.23731 0.36923 0.0
C1095 C 0.16686 0.10223 0.37871 0.0
C1096 C 0.28927 0.12147 0.40176 0.0
C1097 C 0.25723 0.14415 0.40988 0.0
C1098 C 0.28552 0.13336 0.39005 0.0
C1099 C 0.249 0.16916 0.38634 0.0
C1100 C 0.22113 0.19686 0.39465 0.0
C1101 C 0.22542 0.18389 0.40637 0.0
C1102 C 0.31653 0.10308 0.38158 0.0
C1103 C 0.18311 0.23657 0.39112 0.0
H1104 H 0.28173 0.20239 0.34775 0.0
H1105 H 0.16905 0.09052 0.35583 0.0
H1106 H 0.28543 0.25843 0.3769 0.0
H1107 H 0.33536 0.219 0.37147 0.0
H1108 H 0.30596 0.26459 0.36213 0.0
H1109 H 0.1362 0.08037 0.37443 0.0
H1110 H 0.19219 0.07508 0.38321 0.0
H1111 H 0.1496 0.12709 0.38532 0.0
H1112 H 0.31438 0.09116 0.40446 0.0
H1113 H 0.2005 0.20167 0.41258 0.0
H1114 H 0.33362 0.12824 0.375 0.0
H1115 H 0.29151 0.07576 0.37704 0.0
H1116 H 0.34736 0.08146 0.38586 0.0
H1117 H 0.19634 0.25794 0.38347 0.0
H1118 H 0.17562 0.26368 0.39823 0.0
H1119 H 0.1468 0.21785 0.38885 0.0
C1120 C 0.7959 0.7379 0.60047 0.0
C1121 C 0.84113 0.71278 0.59764 0.0
C1122 C 0.78034 0.74234 0.61202 0.0
C1123 C 0.81126 0.72201 0.62085 0.0
C1124 C 0.85321 0.69119 0.61786 0.0
C1125 C 0.86723 0.68657 0.6063 0.0
C1126 C 0.73372 0.77302 0.61477 0.0
C1127 C 0.88744 0.66842 0.6269 0.0
C1128 C 0.84907 0.79416 0.64732 0.0
C1129 C 0.8338 0.76067 0.65599 0.0
C1130 C 0.83684 0.78502 0.63579 0.0
C1131 C 0.80798 0.74157 0.63287 0.0
C1132 C 0.78621 0.71193 0.64176 0.0
C1133 C 0.79975 0.72159 0.65328 0.0
C1134 C 0.86066 0.81811 0.62668 0.0
C1135 C 0.75304 0.66692 0.63908 0.0
H1136 H 0.77502 0.75783 0.59383 0.0
H1137 H 0.9016 0.66612 0.60415 0.0
H1138 H 0.71523 0.75953 0.62277 0.0
H1139 H 0.74455 0.81329 0.61601 0.0
H1140 H 0.70591 0.77133 0.6076 0.0
H1141 H 0.91444 0.64057 0.62319 0.0
H1142 H 0.90964 0.69909 0.63108 0.0
H1143 H 0.865 0.64921 0.63367 0.0
H1144 H 0.87488 0.82482 0.64943 0.0
H1145 H 0.78764 0.69561 0.65997 0.0
H1146 H 0.83213 0.82964 0.62019 0.0
H1147 H 0.89054 0.79624 0.62216 0.0
H1148 H 0.87814 0.85284 0.63036 0.0
H1149 H 0.73047 0.67328 0.63116 0.0
H1150 H 0.72691 0.65863 0.64633 0.0
H1151 H 0.77715 0.63302 0.63771 0.0
C1152 C 0.24765 0.28316 0.85345 0.0
C1153 C 0.28112 0.32368 0.85157 0.0
C1154 C 0.2367 0.26687 0.86473 0.0
C1155 C 0.25866 0.29277 0.87418 0.0
C1156 C 0.29783 0.32843 0.87215 0.0
C1157 C 0.30896 0.34289 0.86086 0.0
C1158 C 0.19783 0.22571 0.86647 0.0
C1159 C 0.32293 0.35706 0.88185 0.0
C1160 C 0.18315 0.34543 0.89864 0.0
C1161 C 0.21092 0.32725 0.90805 0.0
C1162 C 0.19421 0.32959 0.88744 0.0
C1163 C 0.23318 0.29351 0.88563 0.0
C1164 C 0.255 0.26865 0.89523 0.0
C1165 C 0.24416 0.28636 0.9064 0.0
C1166 C 0.16928 0.35719 0.87757 0.0
C1167 C 0.29363 0.22711 0.89374 0.0
H1168 H 0.22656 0.26736 0.8463 0.0
H1169 H 0.33592 0.37326 0.8594 0.0
H1170 H 0.20313 0.2061 0.87483 0.0
H1171 H 0.15931 0.24251 0.86632 0.0
H1172 H 0.19986 0.19737 0.85942 0.0
H1173 H 0.35616 0.37936 0.87888 0.0
H1174 H 0.29506 0.3836 0.88568 0.0
H1175 H 0.33567 0.33083 0.8887 0.0
H1176 H 0.15635 0.3761 0.89992 0.0
H1177 H 0.26519 0.27136 0.91366 0.0
H1178 H 0.15633 0.3302 0.87089 0.0
H1179 H 0.19731 0.38308 0.87357 0.0
H1180 H 0.13622 0.38006 0.8804 0.0
H1181 H 0.28821 0.20653 0.8855 0.0
H1182 H 0.29144 0.19963 0.90096 0.0
H1183 H 0.33225 0.24373 0.89379 0.0
C1184 C 0.70609 0.7518 0.10174 0.0
C1185 C 0.66564 0.78521 0.09977 0.0
C1186 C 0.72306 0.74212 0.11303 0.0
C1187 C 0.69792 0.76533 0.12244 0.0
C1188 C 0.66204 0.80414 0.12028 0.0
C1189 C 0.64698 0.81404 0.10897 0.0
C1190 C 0.76415 0.70331 0.11489 0.0
C1191 C 0.63403 0.83032 0.12993 0.0
C1192 C 0.64893 0.69323 0.14785 0.0
C1193 C 0.66871 0.72207 0.15693 0.0
C1194 C 0.6628 0.70299 0.13646 0.0
C1195 C 0.69857 0.7417 0.1341 0.0
C1196 C 0.72483 0.76489 0.14335 0.0
C1197 C 0.70907 0.75532 0.15473 0.0
C1198 C 0.63364 0.67683 0.12698 0.0
C1199 C 0.76585 0.80356 0.14125 0.0
H1200 H 0.72133 0.72984 0.09466 0.0
H1201 H 0.61656 0.84087 0.10744 0.0
H1202 H 0.78495 0.71018 0.12304 0.0
H1203 H 0.74703 0.66493 0.11528 0.0
H1204 H 0.7915 0.70361 0.10763 0.0
H1205 H 0.61123 0.86297 0.12682 0.0
H1206 H 0.60802 0.80282 0.13409 0.0
H1207 H 0.66076 0.84418 0.13657 0.0
H1208 H 0.61858 0.66651 0.14955 0.0
H1209 H 0.72519 0.77727 0.16172 0.0
H1210 H 0.65954 0.66303 0.12017 0.0
H1211 H 0.60714 0.70434 0.12299 0.0
H1212 H 0.61123 0.64415 0.13021 0.0
H1213 H 0.78577 0.79649 0.133 0.0
H1214 H 0.79394 0.8033 0.14837 0.0
H1215 H 0.74883 0.84197 0.14091 0.0
C1216 C 0.70107 0.61777 0.8563 0.0
C1217 C 0.7335 0.64078 0.84831 0.0
C1218 C 0.70348 0.63006 0.86801 0.0
C1219 C 0.73912 0.66653 0.87185 0.0
C1220 C 0.76754 0.69429 0.86365 0.0
C1221 C 0.7645 0.68099 0.85193 0.0
C1222 C 0.67191 0.59974 0.87637 0.0
C1223 C 0.8048 0.73451 0.86732 0.0
C1224 C 0.72729 0.68452 0.90412 0.0
C1225 C 0.7587 0.6452 0.90802 0.0
C1226 C 0.72412 0.6961 0.8923 0.0
C1227 C 0.75284 0.66749 0.88431 0.0
C1228 C 0.78885 0.632 0.88841 0.0
C1229 C 0.79138 0.62142 0.90021 0.0
C1230 C 0.68644 0.73535 0.88835 0.0
C1231 C 0.82074 0.60085 0.88027 0.0
H1232 H 0.67664 0.58704 0.85352 0.0
H1233 H 0.78978 0.69895 0.84581 0.0
H1234 H 0.69674 0.57301 0.88113 0.0
H1235 H 0.65374 0.62498 0.88278 0.0
H1236 H 0.64188 0.57745 0.87197 0.0
H1237 H 0.81317 0.76121 0.86018 0.0
H1238 H 0.79035 0.75629 0.87479 0.0
H1239 H 0.84086 0.7162 0.86993 0.0
H1240 H 0.70182 0.70306 0.9101 0.0
H1241 H 0.81612 0.59137 0.9032 0.0
H1242 H 0.65057 0.71626 0.88588 0.0
H1243 H 0.70066 0.7562 0.88072 0.0
H1244 H 0.67779 0.76296 0.89529 0.0
H1245 H 0.79619 0.57317 0.87571 0.0
H1246 H 0.851 0.57956 0.88483 0.0
H1247 H 0.83863 0.62537 0.87368 0.0
C1248 C 0.37245 0.30065 0.15087 0.0
C1249 C 0.34992 0.26866 0.15902 0.0
C1250 C 0.36016 0.29693 0.13918 0.0
C1251 C 0.32419 0.26042 0.13553 0.0
C1252 C 0.29675 0.23251 0.14387 0.0
C1253 C 0.31005 0.23685 0.15557 0.0
C1254 C 0.39014 0.32799 0.13066 0.0
C1255 C 0.25697 0.19442 0.1404 0.0
C1256 C 0.30738 0.26869 0.1032 0.0
C1257 C 0.34733 0.23745 0.09956 0.0
C1258 C 0.29511 0.27278 0.11496 0.0
C1259 C 0.32369 0.24522 0.12316 0.0
C1260 C 0.35977 0.20921 0.11934 0.0
C1261 C 0.37101 0.20572 0.10759 0.0
C1262 C 0.25517 0.3103 0.11863 0.0
C1263 C 0.3909 0.17851 0.12771 0.0
H1264 H 0.40287 0.32574 0.15352 0.0
H1265 H 0.29241 0.21195 0.16181 0.0
H1266 H 0.41733 0.30299 0.12609 0.0
H1267 H 0.36478 0.34504 0.12412 0.0
H1268 H 0.41187 0.35886 0.1349 0.0
H1269 H 0.23013 0.18683 0.14756 0.0
H1270 H 0.23533 0.20763 0.13279 0.0
H1271 H 0.27566 0.15814 0.13809 0.0
H1272 H 0.28883 0.29336 0.09705 0.0
H1273 H 0.40148 0.18104 0.1048 0.0
H1274 H 0.27361 0.34675 0.1209 0.0
H1275 H 0.23431 0.29664 0.12631 0.0
H1276 H 0.22766 0.31768 0.11159 0.0
H1277 H 0.4182 0.20383 0.13217 0.0
H1278 H 0.4126 0.14795 0.12336 0.0
H1279 H 0.36635 0.1611 0.13436 0.0
C1280 C 0.80147 0.84479 0.3586 0.0
C1281 C 0.77264 0.82575 0.34945 0.0
C1282 C 0.79154 0.83016 0.36994 0.0
C1283 C 0.7526 0.79446 0.37215 0.0
C1284 C 0.72942 0.7689 0.3628 0.0
C1285 C 0.73922 0.78535 0.35149 0.0
C1286 C 0.81775 0.85855 0.37953 0.0
C1287 C 0.69046 0.728 0.36473 0.0
C1288 C 0.74202 0.78522 0.40444 0.0
C1289 C 0.70917 0.82605 0.4065 0.0
C1290 C 0.75159 0.7687 0.39312 0.0
C1291 C 0.72875 0.79459 0.38378 0.0
C1292 C 0.69031 0.83079 0.38601 0.0
C1293 C 0.68062 0.84553 0.39735 0.0
C1294 C 0.79 0.72732 0.39118 0.0
C1295 C 0.66446 0.85951 0.37643 0.0
H1296 H 0.8283 0.87516 0.35702 0.0
H1297 H 0.71727 0.76982 0.34443 0.0
H1298 H 0.79044 0.88521 0.38354 0.0
H1299 H 0.83105 0.83216 0.38629 0.0
H1300 H 0.85077 0.88074 0.3764 0.0
H1301 H 0.69064 0.70034 0.35752 0.0
H1302 H 0.69725 0.7075 0.37292 0.0
H1303 H 0.65218 0.74527 0.3651 0.0
H1304 H 0.76374 0.76935 0.41149 0.0
H1305 H 0.65422 0.87625 0.39895 0.0
H1306 H 0.82851 0.74412 0.39079 0.0
H1307 H 0.78288 0.7069 0.38298 0.0
H1308 H 0.78951 0.69967 0.39838 0.0
H1309 H 0.69212 0.88582 0.37243 0.0
H1310 H 0.63173 0.88209 0.37956 0.0
H1311 H 0.65081 0.83329 0.36966 0.0
C1312 C 0.19347 0.23803 0.65775 0.0
C1313 C 0.14795 0.21336 0.66055 0.0
C1314 C 0.20928 0.24214 0.64621 0.0
C1315 C 0.17835 0.2219 0.63737 0.0
C1316 C 0.1361 0.19143 0.64034 0.0
C1317 C 0.12178 0.18718 0.65189 0.0
C1318 C 0.25619 0.27247 0.64348 0.0
C1319 C 0.10189 0.1687 0.63129 0.0
C1320 C 0.14109 0.29371 0.61085 0.0
C1321 C 0.15625 0.25998 0.60222 0.0
C1322 C 0.1533 0.28481 0.62239 0.0
C1323 C 0.18194 0.2413 0.62535 0.0
C1324 C 0.20363 0.21141 0.6165 0.0
C1325 C 0.19018 0.22088 0.60496 0.0
C1326 C 0.12961 0.31819 0.63146 0.0
C1327 C 0.23652 0.16629 0.61922 0.0
H1328 H 0.2144 0.25791 0.66439 0.0
H1329 H 0.08718 0.16707 0.65402 0.0
H1330 H 0.27474 0.25868 0.63551 0.0
H1331 H 0.24566 0.31277 0.64218 0.0
H1332 H 0.28383 0.27077 0.65068 0.0
H1333 H 0.07463 0.14108 0.635 0.0
H1334 H 0.07997 0.19941 0.62707 0.0
H1335 H 0.12433 0.14923 0.62456 0.0
H1336 H 0.11535 0.32436 0.60871 0.0
H1337 H 0.20218 0.19471 0.59831 0.0
H1338 H 0.15808 0.32947 0.63799 0.0
H1339 H 0.09936 0.29664 0.63594 0.0
H1340 H 0.11261 0.35306 0.62775 0.0
H1341 H 0.259 0.17262 0.62716 0.0
H1342 H 0.26273 0.1578 0.612 0.0
H1343 H 0.21221 0.1325 0.62059 0.0
C1344 C 0.2719 0.21792 0.28095 0.0
C1345 C 0.27314 0.16629 0.28379 0.0
C1346 C 0.27736 0.2338 0.26945 0.0
C1347 C 0.28376 0.19708 0.26066 0.0
C1348 C 0.28206 0.14491 0.26346 0.0
C1349 C 0.27701 0.13024 0.27496 0.0
C1350 C 0.27892 0.28974 0.26679 0.0
C1351 C 0.28832 0.10441 0.25437 0.0
C1352 C 0.27775 0.22308 0.22849 0.0
C1353 C 0.32938 0.22247 0.22566 0.0
C1354 C 0.26194 0.21777 0.24 0.0
C1355 C 0.29871 0.2122 0.2488 0.0
C1356 C 0.35083 0.21464 0.24601 0.0
C1357 C 0.36546 0.21948 0.23449 0.0
C1358 C 0.20603 0.21536 0.24265 0.0
C1359 C 0.39137 0.2093 0.25511 0.0
H1360 H 0.26862 0.2459 0.28774 0.0
H1361 H 0.27714 0.0902 0.27707 0.0
H1362 H 0.31829 0.3009 0.26459 0.0
H1363 H 0.25484 0.29854 0.25923 0.0
H1364 H 0.26613 0.31308 0.27419 0.0
H1365 H 0.28111 0.06576 0.2578 0.0
H1366 H 0.2621 0.11135 0.24708 0.0
H1367 H 0.3275 0.10562 0.25093 0.0
H1368 H 0.24975 0.22568 0.22169 0.0
H1369 H 0.40548 0.21985 0.23239 0.0
H1370 H 0.19682 0.23941 0.25019 0.0
H1371 H 0.19549 0.17583 0.24486 0.0
H1372 H 0.18253 0.2277 0.23523 0.0
H1373 H 0.38387 0.23546 0.26238 0.0
H1374 H 0.42987 0.21725 0.25169 0.0
H1375 H 0.39093 0.17012 0.25858 0.0
C1376 C 0.75224 0.77133 0.47655 0.0
C1377 C 0.74824 0.82273 0.47362 0.0
C1378 C 0.76072 0.75648 0.48802 0.0
C1379 C 0.76483 0.79395 0.49671 0.0
C1380 C 0.75797 0.84564 0.49385 0.0
C1381 C 0.75001 0.85936 0.48236 0.0
C1382 C 0.76792 0.70101 0.49073 0.0
C1383 C 0.76166 0.88682 0.50285 0.0
C1384 C 0.76442 0.76417 0.52877 0.0
C1385 C 0.81619 0.76797 0.53136 0.0
C1386 C 0.74697 0.7705 0.51741 0.0
C1387 C 0.78223 0.78037 0.5085 0.0
C1388 C 0.83465 0.78196 0.51103 0.0
C1389 C 0.8509 0.77599 0.52241 0.0
C1390 C 0.69078 0.76871 0.51504 0.0
C1391 C 0.87362 0.79199 0.50179 0.0
H1392 H 0.75073 0.74286 0.46983 0.0
H1393 H 0.74625 0.89915 0.48018 0.0
H1394 H 0.80827 0.69389 0.49288 0.0
H1395 H 0.74506 0.69004 0.49833 0.0
H1396 H 0.75726 0.67631 0.48337 0.0
H1397 H 0.75036 0.92449 0.49944 0.0
H1398 H 0.73727 0.87763 0.51033 0.0
H1399 H 0.80125 0.88944 0.50602 0.0
H1400 H 0.73746 0.75781 0.53565 0.0
H1401 H 0.89105 0.77831 0.52432 0.0
H1402 H 0.6827 0.74337 0.50764 0.0
H1403 H 0.67724 0.80714 0.51268 0.0
H1404 H 0.66885 0.75536 0.52261 0.0
H1405 H 0.86822 0.76547 0.49448 0.0
H1406 H 0.91304 0.78799 0.50502 0.0
H1407 H 0.86879 0.83103 0.49841 0.0
C1408 C 0.22492 0.26194 0.7293 0.0
C1409 C 0.17345 0.26874 0.72671 0.0
C1410 C 0.2428 0.26751 0.74064 0.0
C1411 C 0.20827 0.27979 0.74954 0.0
C1412 C 0.15604 0.28462 0.74702 0.0
C1413 C 0.13937 0.27924 0.73565 0.0
C1414 C 0.29876 0.26221 0.74301 0.0
C1415 C 0.11784 0.29737 0.75625 0.0
C1416 C 0.23725 0.26934 0.7815 0.0
C1417 C 0.24431 0.32045 0.78439 0.0
C1418 C 0.22812 0.25486 0.77003 0.0
C1419 C 0.22653 0.29239 0.76132 0.0
C1420 C 0.23665 0.34358 0.76414 0.0
C1421 C 0.24514 0.35698 0.77563 0.0
C1422 C 0.2174 0.19992 0.76735 0.0
C1423 C 0.23578 0.38476 0.75511 0.0
H1424 H 0.25139 0.25363 0.72242 0.0
H1425 H 0.09942 0.28395 0.73375 0.0
H1426 H 0.31473 0.29971 0.74537 0.0
H1427 H 0.30522 0.23642 0.7504 0.0
H1428 H 0.3198 0.24749 0.73544 0.0
H1429 H 0.07823 0.29598 0.75302 0.0
H1430 H 0.12144 0.27065 0.76357 0.0
H1431 H 0.12531 0.33605 0.75961 0.0
H1432 H 0.23673 0.24097 0.78824 0.0
H1433 H 0.2513 0.39649 0.77779 0.0
H1434 H 0.23943 0.18744 0.75974 0.0
H1435 H 0.17666 0.19531 0.76523 0.0
H1436 H 0.22656 0.17469 0.77472 0.0
H1437 H 0.25948 0.37384 0.74764 0.0
H1438 H 0.24963 0.42164 0.7585 0.0
H1439 H 0.19646 0.38999 0.75194 0.0
C1440 C 0.71253 0.72751 0.97688 0.0
C1441 C 0.70725 0.67575 0.97439 0.0
C1442 C 0.70813 0.74541 0.98826 0.0
C1443 C 0.69864 0.71062 0.9973 0.0
C1444 C 0.69539 0.65817 0.99484 0.0
C1445 C 0.69952 0.64149 0.98345 0.0
C1446 C 0.71171 0.80159 0.99054 0.0
C1447 C 0.68563 0.61966 0.00421 0.0
C1448 C 0.71287 0.7406 0.02917 0.0
C1449 C 0.66203 0.7459 0.03246 0.0
C1450 C 0.72591 0.73177 0.0176 0.0
C1451 C 0.6872 0.7286 0.00917 0.0
C1452 C 0.63616 0.73683 0.01239 0.0
C1453 C 0.62423 0.74514 0.02398 0.0
C1454 C 0.78075 0.72314 0.0145 0.0
C1455 C 0.59368 0.73418 1.00369 0.0
H1456 H 0.71872 0.75414 0.96992 0.0
H1457 H 0.69604 0.60133 0.98163 0.0
H1458 H 0.67405 0.81618 0.9932 0.0
H1459 H 0.73839 0.80917 0.99772 0.0
H1460 H 0.7244 0.82303 0.98284 0.0
H1461 H 0.68801 0.58007 1.00099 0.0
H1462 H 0.71336 0.62444 0.0113 0.0
H1463 H 0.64729 0.62569 0.00788 0.0
H1464 H 0.74225 0.74135 0.03569 0.0
H1465 H 0.58488 0.74991 0.02643 0.0
H1466 H 0.79121 0.74557 0.00679 0.0
H1467 H 0.78657 0.68257 0.01236 0.0
H1468 H 0.80671 0.73335 0.02167 0.0
H1469 H 0.60249 0.75823 0.99613 0.0
H1470 H 0.55684 0.74656 0.00736 0.0
H1471 H 0.58954 0.69463 1.00058 0.0
C1472 C 0.26612 0.2828 0.03079 0.0
C1473 C 0.31799 0.28703 0.03323 0.0
C1474 C 0.24816 0.28733 0.01943 0.0
C1475 C 0.28301 0.29587 0.01036 0.0
C1476 C 0.33554 0.29795 0.01276 0.0
C1477 C 0.35229 0.29372 0.02415 0.0
C1478 C 0.19188 0.28501 0.01719 0.0
C1479 C 0.37408 0.30664 1.00336 0.0
C1480 C 0.25235 0.28215 0.97854 0.0
C1481 C 0.2482 0.3331 0.97525 0.0
C1482 C 0.26095 0.26896 0.99011 0.0
C1483 C 0.2651 0.30766 0.99852 0.0
C1484 C 0.25804 0.35889 0.99529 0.0
C1485 C 0.24988 0.37095 0.98371 0.0
C1486 C 0.26828 0.21392 0.99322 0.0
C1487 C 0.26182 0.40135 0.00398 0.0
H1488 H 0.23948 0.27742 0.03778 0.0
H1489 H 0.39253 0.29635 0.02594 0.0
H1490 H 0.17809 0.32302 0.01458 0.0
H1491 H 0.18358 0.25857 0.01001 0.0
H1492 H 0.17033 0.27271 0.02491 0.0
H1493 H 0.41365 0.30331 0.00654 0.0
H1494 H 0.3685 0.27895 0.99629 0.0
H1495 H 0.36895 0.34509 0.99967 0.0
H1496 H 0.25086 0.25274 0.97204 0.0
H1497 H 0.24599 0.4104 0.98125 0.0
H1498 H 0.24579 0.20407 1.00096 0.0
H1499 H 0.30873 0.2071 0.99532 0.0
H1500 H 0.25726 0.18816 0.98608 0.0
H1501 H 0.23768 0.39316 0.01156 0.0
H1502 H 0.25028 0.43848 1.00031 0.0
H1503 H 0.30149 0.40457 0.00706 0.0
C1504 C 0.73297 0.77219 0.27928 0.0
C1505 C 0.73251 0.82368 0.28229 0.0
C1506 C 0.72574 0.7569 0.2678 0.0
C1507 C 0.71812 0.79402 0.25916 0.0
C1508 C 0.71972 0.84605 0.26211 0.0
C1509 C 0.72674 0.86018 0.27362 0.0
C1510 C 0.72423 0.70107 0.26498 0.0
C1511 C 0.71198 0.8869 0.25317 0.0
C1512 C 0.72563 0.76539 0.22708 0.0
C1513 C 0.67412 0.76327 0.22415 0.0
C1514 C 0.74085 0.77338 0.23855 0.0
C1515 C 0.70364 0.77904 0.24724 0.0
C1516 C 0.6517 0.77477 0.24436 0.0
C1517 C 0.63764 0.7671 0.23287 0.0
C1518 C 0.79658 0.77779 0.24128 0.0
C1519 C 0.61076 0.78028 0.25336 0.0
H1520 H 0.73758 0.7438 0.28594 0.0
H1521 H 0.72685 0.9001 0.27584 0.0
H1522 H 0.68519 0.6902 0.26242 0.0
H1523 H 0.74942 0.69262 0.25759 0.0
H1524 H 0.73583 0.67722 0.2724 0.0
H1525 H 0.71831 0.92553 0.25671 0.0
H1526 H 0.73808 0.88105 0.24582 0.0
H1527 H 0.67273 0.88483 0.24978 0.0
H1528 H 0.754 0.76232 0.22037 0.0
H1529 H 0.59773 0.76496 0.23071 0.0
H1530 H 0.80654 0.753 0.24865 0.0
H1531 H 0.80544 0.81733 0.24385 0.0
H1532 H 0.82078 0.76752 0.23383 0.0
H1533 H 0.61809 0.75435 0.26068 0.0
H1534 H 0.57242 0.77209 0.24987 0.0
H1535 H 0.61094 0.81954 0.25679 0.0
C1536 C 0.19909 0.13067 0.4853 0.0
C1537 C 0.20675 0.16609 0.47648 0.0
C1538 C 0.19437 0.14594 0.49678 0.0
C1539 C 0.19701 0.19809 0.49956 0.0
C1540 C 0.20656 0.23405 0.49077 0.0
C1541 C 0.21149 0.21757 0.47929 0.0
C1542 C 0.1845 0.10624 0.50588 0.0
C1543 C 0.2096 0.28996 0.49341 0.0
C1544 C 0.12053 0.22838 0.52619 0.0
C1545 C 0.15773 0.22815 0.5348 0.0
C1546 C 0.13333 0.22186 0.51459 0.0
C1547 C 0.18466 0.21452 0.5115 0.0
C1548 C 0.22276 0.2168 0.52008 0.0
C1549 C 0.20884 0.22377 0.53167 0.0
C1550 C 0.09147 0.22006 0.50573 0.0
C1551 C 0.27789 0.20917 0.51712 0.0
H1552 H 0.19604 0.09072 0.48323 0.0
H1553 H 0.21765 0.24508 0.47251 0.0
H1554 H 0.21183 0.11041 0.51307 0.0
H1555 H 0.14592 0.11147 0.50948 0.0
H1556 H 0.18742 0.06706 0.50244 0.0
H1557 H 0.22279 0.31237 0.48589 0.0
H1558 H 0.17163 0.30401 0.49598 0.0
H1559 H 0.23562 0.29686 0.50074 0.0
H1560 H 0.08098 0.23251 0.52852 0.0
H1561 H 0.23776 0.22382 0.53829 0.0
H1562 H 0.08788 0.18092 0.50232 0.0
H1563 H 0.10057 0.2452 0.49837 0.0
H1564 H 0.05428 0.23163 0.50935 0.0
H1565 H 0.28433 0.16894 0.51475 0.0
H1566 H 0.30326 0.21883 0.52443 0.0
H1567 H 0.28857 0.23262 0.50958 0.0
C1568 C 0.7818 0.72129 0.72662 0.0
C1569 C 0.8327 0.72742 0.72347 0.0
C1570 C 0.76823 0.71344 0.73821 0.0
C1571 C 0.80647 0.7121 0.74677 0.0
C1572 C 0.85752 0.72114 0.74366 0.0
C1573 C 0.86997 0.72847 0.73207 0.0
C1574 C 0.7134 0.70395 0.74118 0.0
C1575 C 0.8995 0.72042 0.7525 0.0
C1576 C 0.77947 0.71425 0.77898 0.0
C1577 C 0.78568 0.66293 0.7818 0.0
C1578 C 0.78404 0.73088 0.76751 0.0
C1579 C 0.7947 0.69525 0.75871 0.0
C1580 C 0.79891 0.6432 0.76149 0.0
C1581 C 0.79454 0.62778 0.77297 0.0
C1582 C 0.77938 0.78669 0.76488 0.0
C1583 C 0.80997 0.60383 0.75239 0.0
H1584 H 0.75282 0.72065 0.72002 0.0
H1585 H 0.90935 0.73391 0.72972 0.0
H1586 H 0.7083 0.66352 0.74355 0.0
H1587 H 0.702 0.72701 0.74873 0.0
H1588 H 0.68768 0.71276 0.73388 0.0
H1589 H 0.93631 0.73314 0.74887 0.0
H1590 H 0.88976 0.74517 0.75989 0.0
H1591 H 0.90424 0.68135 0.75587 0.0
H1592 H 0.77239 0.74156 0.78576 0.0
H1593 H 0.79877 0.58794 0.77504 0.0
H1594 H 0.75297 0.79281 0.75759 0.0
H1595 H 0.81687 0.80181 0.76225 0.0
H1596 H 0.76577 0.80872 0.77241 0.0
H1597 H 0.78255 0.60716 0.7452 0.0
H1598 H 0.80823 0.56458 0.75583 0.0
H1599 H 0.84838 0.61025 0.74879 0.0
loop_
_geom_bond_atom_site_label_1
_geom_bond_atom_site_label_2
_geom_bond_distance
_geom_bond_site_symmetry_2
_ccdc_geom_bond_type
Mn0 O5 2.095 . S
Mn0 O15 2.162 . S
Mn0 O16 2.297 . S
Mn0 O24 2.385 . S
Mn0 O25 2.209 . S
Mn0 O26 2.094 . S
Mn1 O6 2.121 . S
Mn1 N8 2.257 1_545 S
Mn1 N17 2.282 . S
Mn1 O25 2.215 . S
Mn1 O27 2.117 . S
C2 O24 1.234 . S
C2 O25 1.283 . S
C3 O15 1.281 . S
C3 O16 1.236 . S
C4 O26 1.240 . S
C4 O27 1.264 . S
O5 Mn0 2.095 . S
O5 C14 1.250 . S
O6 Mn1 2.121 . S
O6 C14 1.258 . S
C7 N8 1.326 . S
C7 C11 1.460 . S
C7 H13 0.929 . S
N8 Mn1 2.257 1_565 S
N8 C7 1.326 . S
N8 C12 1.362 . S
C9 C10 1.258 . S
C9 C12 1.431 . S
C9 C29 1.449 . S
C10 C9 1.258 . S
C10 C11 1.477 . S
C10 H30 0.931 . S
C11 C7 1.460 . S
C11 C10 1.477 . S
C11 H31 0.930 . S
C12 N8 1.362 . S
C12 C9 1.431 . S
C12 C22 1.476 . S
H13 C7 0.929 . S
C14 O5 1.250 . S
C14 O6 1.258 . S
O15 Mn0 2.162 . S
O15 C3 1.281 . S
O16 Mn0 2.297 . S
O16 C3 1.236 . S
N17 Mn1 2.282 . S
N17 C18 1.328 . S
N17 C22 1.318 1_545 S
C18 N17 1.328 . S
C18 C19 1.457 . S
C18 H23 0.929 . S
C19 C18 1.457 . S
C19 C20 1.291 . S
C19 H32 0.931 . S
C20 C19 1.291 . S
C20 C21 1.373 1_545 S
C20 H33 0.934 . S
C21 C20 1.373 1_565 S
C21 C22 1.396 . S
C21 C28 1.403 . S
C22 C12 1.476 . S
C22 N17 1.318 1_565 S
C22 C21 1.396 . S
H23 C18 0.929 . S
O24 Mn0 2.385 . S
O24 C2 1.234 . S
O25 Mn0 2.209 . S
O25 Mn1 2.215 . S
O25 C2 1.283 . S
O26 Mn0 2.094 . S
O26 C4 1.240 . S
O27 Mn1 2.117 . S
O27 C4 1.264 . S
C28 C21 1.403 . S
C28 C29 1.399 . S
C28 H34 0.929 . S
C29 C9 1.449 . S
C29 C28 1.399 . S
C29 H35 0.930 . S
H30 C10 0.931 . S
H31 C11 0.930 . S
H32 C19 0.931 . S
H33 C20 0.934 . S
H34 C28 0.929 . S
H35 C29 0.930 . S
Mn36 O41 2.095 . S
Mn36 O51 2.162 . S
Mn36 O52 2.297 . S
Mn36 O60 2.385 . S
Mn36 O61 2.209 . S
Mn36 O62 2.094 . S
Mn37 O42 2.121 . S
Mn37 N44 2.257 1_655 S
Mn37 N53 2.282 . S
Mn37 O61 2.215 . S
Mn37 O63 2.117 . S
C38 O60 1.234 . S
C38 O61 1.283 . S
C39 O51 1.281 . S
C39 O52 1.236 . S
C40 O62 1.240 . S
C40 O63 1.264 . S
O41 Mn36 2.095 . S
O41 C50 1.250 . S
O42 Mn37 2.121 . S
O42 C50 1.258 . S
C43 N44 1.326 . S
C43 C47 1.460 . S
C43 H49 0.929 . S
N44 Mn37 2.257 1_455 S
N44 C43 1.326 . S
N44 C48 1.362 . S
C45 C46 1.258 . S
C45 C48 1.431 . S
C45 C65 1.449 . S
C46 C45 1.258 . S
C46 C47 1.477 . S
C46 H66 0.931 . S
C47 C43 1.460 . S
C47 C46 1.477 . S
C47 H67 0.930 . S
C48 N44 1.362 . S
C48 C45 1.431 . S
C48 C58 1.476 . S
H49 C43 0.929 . S
C50 O41 1.250 . S
C50 O42 1.258 . S
O51 Mn36 2.162 . S
O51 C39 1.281 . S
O52 Mn36 2.297 . S
O52 C39 1.236 . S
N53 Mn37 2.282 . S
N53 C54 1.328 . S
N53 C58 1.318 1_655 S
C54 N53 1.328 . S
C54 C55 1.457 . S
C54 H59 0.929 . S
C55 C54 1.457 . S
C55 C56 1.291 . S
C55 H68 0.931 . S
C56 C55 1.291 . S
C56 C57 1.373 1_655 S
C56 H69 0.934 . S
C57 C56 1.373 1_455 S
C57 C58 1.396 . S
C57 C64 1.403 . S
C58 C48 1.476 . S
C58 N53 1.318 1_455 S
C58 C57 1.396 . S
H59 C54 0.929 . S
O60 Mn36 2.385 . S
O60 C38 1.234 . S
O61 Mn36 2.209 . S
O61 Mn37 2.215 . S
O61 C38 1.283 . S
O62 Mn36 2.094 . S
O62 C40 1.240 . S
O63 Mn37 2.117 . S
O63 C40 1.264 . S
C64 C57 1.403 . S
C64 C65 1.399 . S
C64 H70 0.929 . S
C65 C45 1.449 . S
C65 C64 1.399 . S
C65 H71 0.930 . S
H66 C46 0.931 . S
H67 C47 0.930 . S
H68 C55 0.931 . S
H69 C56 0.934 . S
H70 C64 0.929 . S
H71 C65 0.930 . S
Mn72 O77 2.095 . S
Mn72 O87 2.162 . S
Mn72 O88 2.297 . S
Mn72 O96 2.385 . S
Mn72 O97 2.209 . S
Mn72 O98 2.094 . S
Mn73 O78 2.121 . S
Mn73 N80 2.257 . S
Mn73 N89 2.282 . S
Mn73 O97 2.215 . S
Mn73 O99 2.117 . S
C74 O96 1.234 . S
C74 O97 1.283 . S
C75 O87 1.281 . S
C75 O88 1.236 . S
C76 O98 1.240 . S
C76 O99 1.264 . S
O77 Mn72 2.095 . S
O77 C86 1.250 . S
O78 Mn73 2.121 . S
O78 C86 1.258 . S
C79 N80 1.326 . S
C79 C83 1.460 . S
C79 H85 0.929 . S
N80 Mn73 2.257 . S
N80 C79 1.326 . S
N80 C84 1.362 . S
C81 C82 1.258 . S
C81 C84 1.431 . S
C81 C101 1.449 . S
C82 C81 1.258 . S
C82 C83 1.477 . S
C82 H102 0.931 . S
C83 C79 1.460 . S
C83 C82 1.477 . S
C83 H103 0.930 . S
C84 N80 1.362 . S
C84 C81 1.431 . S
C84 C94 1.476 . S
H85 C79 0.929 . S
C86 O77 1.250 . S
C86 O78 1.258 . S
O87 Mn72 2.162 . S
O87 C75 1.281 . S
O88 Mn72 2.297 . S
O88 C75 1.236 . S
N89 Mn73 2.282 . S
N89 C90 1.328 . S
N89 C94 1.318 . S
C90 N89 1.328 . S
C90 C91 1.457 . S
C90 H95 0.929 . S
C91 C90 1.457 . S
C91 C92 1.291 . S
C91 H104 0.931 . S
C92 C91 1.291 . S
C92 C93 1.373 . S
C92 H105 0.929 . S
C93 C92 1.373 . S
C93 C94 1.396 . S
C93 C100 1.403 . S
C94 C84 1.476 . S
C94 N89 1.318 . S
C94 C93 1.396 . S
H95 C90 0.929 . S
O96 Mn72 2.385 . S
O96 C74 1.234 . S
O97 Mn72 2.209 . S
O97 Mn73 2.215 . S
O97 C74 1.283 . S
O98 Mn72 2.094 . S
O98 C76 1.240 . S
O99 Mn73 2.117 . S
O99 C76 1.264 . S
C100 C93 1.403 . S
C100 C101 1.399 . S
C100 H106 0.929 . S
C101 C81 1.449 . S
C101 C100 1.399 . S
C101 H107 0.930 . S
H102 C82 0.931 . S
H103 C83 0.930 . S
H104 C91 0.931 . S
H105 C92 0.929 . S
H106 C100 0.929 . S
H107 C101 0.930 . S
Mn108 O113 2.095 . S
Mn108 O123 2.162 . S
Mn108 O124 2.297 . S
Mn108 O132 2.385 . S
Mn108 O133 2.209 . S
Mn108 O134 2.094 . S
Mn109 O114 2.121 . S
Mn109 N116 2.257 . S
Mn109 N125 2.282 . S
Mn109 O133 2.215 . S
Mn109 O135 2.117 . S
C110 O132 1.234 . S
C110 O133 1.283 . S
C111 O123 1.281 . S
C111 O124 1.236 . S
C112 O134 1.240 . S
C112 O135 1.264 . S
O113 Mn108 2.095 . S
O113 C122 1.250 . S
O114 Mn109 2.121 . S
O114 C122 1.258 . S
C115 N116 1.326 . S
C115 C119 1.460 . S
C115 H121 0.929 . S
N116 Mn109 2.257 . S
N116 C115 1.326 . S
N116 C120 1.362 . S
C117 C118 1.258 . S
C117 C120 1.431 . S
C117 C137 1.449 . S
C118 C117 1.258 . S
C118 C119 1.477 . S
C118 H138 0.931 . S
C119 C115 1.460 . S
C119 C118 1.477 . S
C119 H139 0.930 . S
C120 N116 1.362 . S
C120 C117 1.431 . S
C120 C130 1.476 . S
H121 C115 0.929 . S
C122 O113 1.250 . S
C122 O114 1.258 . S
O123 Mn108 2.162 . S
O123 C111 1.281 . S
O124 Mn108 2.297 . S
O124 C111 1.236 . S
N125 Mn109 2.282 . S
N125 C126 1.328 . S
N125 C130 1.318 . S
C126 N125 1.328 . S
C126 C127 1.457 . S
C126 H131 0.929 . S
C127 C126 1.457 . S
C127 C128 1.291 . S
C127 H140 0.931 . S
C128 C127 1.291 . S
C128 C129 1.373 . S
C128 H141 0.929 . S
C129 C128 1.373 . S
C129 C130 1.396 . S
C129 C136 1.403 . S
C130 C120 1.476 . S
C130 N125 1.318 . S
C130 C129 1.396 . S
H131 C126 0.929 . S
O132 Mn108 2.385 . S
O132 C110 1.234 . S
O133 Mn108 2.209 . S
O133 Mn109 2.215 . S
O133 C110 1.283 . S
O134 Mn108 2.094 . S
O134 C112 1.240 . S
O135 Mn109 2.117 . S
O135 C112 1.264 . S
C136 C129 1.403 . S
C136 C137 1.399 . S
C136 H142 0.929 . S
C137 C117 1.449 . S
C137 C136 1.399 . S
C137 H143 0.930 . S
H138 C118 0.931 . S
H139 C119 0.930 . S
H140 C127 0.931 . S
H141 C128 0.929 . S
H142 C136 0.929 . S
H143 C137 0.930 . S
Mn144 O149 2.095 . S
Mn144 O159 2.162 . S
Mn144 O160 2.297 . S
Mn144 O168 2.385 . S
Mn144 O169 2.209 . S
Mn144 O170 2.094 . S
Mn145 O150 2.121 . S
Mn145 N152 2.257 . S
Mn145 N161 2.282 . S
Mn145 O169 2.215 . S
Mn145 O171 2.117 . S
C146 O168 1.234 . S
C146 O169 1.283 . S
C147 O159 1.281 . S
C147 O160 1.236 . S
C148 O170 1.240 . S
C148 O171 1.264 . S
O149 Mn144 2.095 . S
O149 C158 1.250 . S
O150 Mn145 2.121 . S
O150 C158 1.258 . S
C151 N152 1.326 . S
C151 C155 1.460 . S
C151 H157 0.929 . S
N152 Mn145 2.257 . S
N152 C151 1.326 . S
N152 C156 1.362 . S
C153 C154 1.258 . S
C153 C156 1.431 . S
C153 C173 1.449 . S
C154 C153 1.258 . S
C154 C155 1.477 . S
C154 H174 0.931 . S
C155 C151 1.460 . S
C155 C154 1.477 . S
C155 H175 0.930 . S
C156 N152 1.362 . S
C156 C153 1.431 . S
C156 C166 1.476 . S
H157 C151 0.929 . S
C158 O149 1.250 . S
C158 O150 1.258 . S
O159 Mn144 2.162 . S
O159 C147 1.281 . S
O160 Mn144 2.297 . S
O160 C147 1.236 . S
N161 Mn145 2.282 . S
N161 C162 1.328 . S
N161 C166 1.318 . S
C162 N161 1.328 . S
C162 C163 1.457 . S
C162 H167 0.929 . S
C163 C162 1.457 . S
C163 C164 1.291 . S
C163 H176 0.931 . S
C164 C163 1.291 . S
C164 C165 1.373 . S
C164 H177 0.929 . S
C165 C164 1.373 . S
C165 C166 1.396 . S
C165 C172 1.403 . S
C166 C156 1.476 . S
C166 N161 1.318 . S
C166 C165 1.396 . S
H167 C162 0.929 . S
O168 Mn144 2.385 . S
O168 C146 1.234 . S
O169 Mn144 2.209 . S
O169 Mn145 2.215 . S
O169 C146 1.283 . S
O170 Mn144 2.094 . S
O170 C148 1.240 . S
O171 Mn145 2.117 . S
O171 C148 1.264 . S
C172 C165 1.403 . S
C172 C173 1.399 . S
C172 H178 0.929 . S
C173 C153 1.449 . S
C173 C172 1.399 . S
C173 H179 0.930 . S
H174 C154 0.931 . S
H175 C155 0.930 . S
H176 C163 0.931 . S
H177 C164 0.929 . S
H178 C172 0.929 . S
H179 C173 0.930 . S
Mn180 O185 2.095 . S
Mn180 O195 2.162 . S
Mn180 O196 2.297 . S
Mn180 O204 2.385 . S
Mn180 O205 2.209 . S
Mn180 O206 2.094 . S
Mn181 O186 2.121 . S
Mn181 N188 2.257 . S
Mn181 N197 2.282 . S
Mn181 O205 2.215 . S
Mn181 O207 2.117 . S
C182 O204 1.234 . S
C182 O205 1.283 . S
C183 O195 1.281 . S
C183 O196 1.236 . S
C184 O206 1.240 . S
C184 O207 1.264 . S
O185 Mn180 2.095 . S
O185 C194 1.250 . S
O186 Mn181 2.121 . S
O186 C194 1.258 . S
C187 N188 1.326 . S
C187 C191 1.460 . S
C187 H193 0.929 . S
N188 Mn181 2.257 . S
N188 C187 1.326 . S
N188 C192 1.362 . S
C189 C190 1.258 . S
C189 C192 1.431 . S
C189 C209 1.449 . S
C190 C189 1.258 . S
C190 C191 1.477 . S
C190 H210 0.931 . S
C191 C187 1.460 . S
C191 C190 1.477 . S
C191 H211 0.930 . S
C192 N188 1.362 . S
C192 C189 1.431 . S
C192 C202 1.476 . S
H193 C187 0.929 . S
C194 O185 1.250 . S
C194 O186 1.258 . S
O195 Mn180 2.162 . S
O195 C183 1.281 . S
O196 Mn180 2.297 . S
O196 C183 1.236 . S
N197 Mn181 2.282 . S
N197 C198 1.328 . S
N197 C202 1.318 . S
C198 N197 1.328 . S
C198 C199 1.457 . S
C198 H203 0.929 . S
C199 C198 1.457 . S
C199 C200 1.291 . S
C199 H212 0.931 . S
C200 C199 1.291 . S
C200 C201 1.373 . S
C200 H213 0.929 . S
C201 C200 1.373 . S
C201 C202 1.396 . S
C201 C208 1.403 . S
C202 C192 1.476 . S
C202 N197 1.318 . S
C202 C201 1.396 . S
H203 C198 0.929 . S
O204 Mn180 2.385 . S
O204 C182 1.234 . S
O205 Mn180 2.209 . S
O205 Mn181 2.215 . S
O205 C182 1.283 . S
O206 Mn180 2.094 . S
O206 C184 1.240 . S
O207 Mn181 2.117 . S
O207 C184 1.264 . S
C208 C201 1.403 . S
C208 C209 1.399 . S
C208 H214 0.929 . S
C209 C189 1.449 . S
C209 C208 1.399 . S
C209 H215 0.930 . S
H210 C190 0.931 . S
H211 C191 0.930 . S
H212 C199 0.931 . S
H213 C200 0.929 . S
H214 C208 0.929 . S
H215 C209 0.930 . S
Mn216 O221 2.095 . S
Mn216 O231 2.162 . S
Mn216 O232 2.297 . S
Mn216 O240 2.385 . S
Mn216 O241 2.209 . S
Mn216 O242 2.094 . S
Mn217 O222 2.121 . S
Mn217 N224 2.257 1_545 S
Mn217 N233 2.282 . S
Mn217 O241 2.215 . S
Mn217 O243 2.117 . S
C218 O240 1.234 . S
C218 O241 1.283 . S
C219 O231 1.281 . S
C219 O232 1.236 . S
C220 O242 1.240 . S
C220 O243 1.264 . S
O221 Mn216 2.095 . S
O221 C230 1.250 . S
O222 Mn217 2.121 . S
O222 C230 1.258 . S
C223 N224 1.326 . S
C223 C227 1.460 . S
C223 H229 0.929 . S
N224 Mn217 2.257 1_565 S
N224 C223 1.326 . S
N224 C228 1.362 . S
C225 C226 1.258 . S
C225 C228 1.431 . S
C225 C245 1.449 . S
C226 C225 1.258 . S
C226 C227 1.477 . S
C226 H246 0.931 . S
C227 C223 1.460 . S
C227 C226 1.477 . S
C227 H247 0.930 . S
C228 N224 1.362 . S
C228 C225 1.431 . S
C228 C238 1.476 . S
H229 C223 0.929 . S
C230 O221 1.250 . S
C230 O222 1.258 . S
O231 Mn216 2.162 . S
O231 C219 1.281 . S
O232 Mn216 2.297 . S
O232 C219 1.236 . S
N233 Mn217 2.282 . S
N233 C234 1.328 . S
N233 C238 1.318 1_545 S
C234 N233 1.328 . S
C234 C235 1.457 . S
C234 H239 0.929 . S
C235 C234 1.457 . S
C235 C236 1.291 . S
C235 H248 0.931 . S
C236 C235 1.291 . S
C236 C237 1.373 1_545 S
C236 H249 0.934 . S
C237 C236 1.373 1_565 S
C237 C238 1.396 . S
C237 C244 1.403 . S
C238 C228 1.476 . S
C238 N233 1.318 1_565 S
C238 C237 1.396 . S
H239 C234 0.929 . S
O240 Mn216 2.385 . S
O240 C218 1.234 . S
O241 Mn216 2.209 . S
O241 Mn217 2.215 . S
O241 C218 1.283 . S
O242 Mn216 2.094 . S
O242 C220 1.240 . S
O243 Mn217 2.117 . S
O243 C220 1.264 . S
C244 C237 1.403 . S
C244 C245 1.399 . S
C244 H250 0.929 . S
C245 C225 1.449 . S
C245 C244 1.399 . S
C245 H251 0.930 . S
H246 C226 0.931 . S
H247 C227 0.930 . S
H248 C235 0.931 . S
H249 C236 0.934 . S
H250 C244 0.929 . S
H251 C245 0.930 . S
Mn252 O257 2.095 . S
Mn252 O267 2.162 . S
Mn252 O268 2.297 . S
Mn252 O276 2.385 . S
Mn252 O277 2.209 . S
Mn252 O278 2.094 . S
Mn253 O258 2.121 . S
Mn253 N260 2.257 1_655 S
Mn253 N269 2.282 . S
Mn253 O277 2.215 . S
Mn253 O279 2.117 . S
C254 O276 1.234 . S
C254 O277 1.283 . S
C255 O267 1.281 . S
C255 O268 1.236 . S
C256 O278 1.240 . S
C256 O279 1.264 . S
O257 Mn252 2.095 . S
O257 C266 1.250 . S
O258 Mn253 2.121 . S
O258 C266 1.258 . S
C259 N260 1.326 . S
C259 C263 1.460 . S
C259 H265 0.929 . S
N260 Mn253 2.257 1_455 S
N260 C259 1.326 . S
N260 C264 1.362 . S
C261 C262 1.258 . S
C261 C264 1.431 . S
C261 C281 1.449 . S
C262 C261 1.258 . S
C262 C263 1.477 . S
C262 H282 0.931 . S
C263 C259 1.460 . S
C263 C262 1.477 . S
C263 H283 0.930 . S
C264 N260 1.362 . S
C264 C261 1.431 . S
C264 C274 1.476 . S
H265 C259 0.929 . S
C266 O257 1.250 . S
C266 O258 1.258 . S
O267 Mn252 2.162 . S
O267 C255 1.281 . S
O268 Mn252 2.297 . S
O268 C255 1.236 . S
N269 Mn253 2.282 . S
N269 C270 1.328 . S
N269 C274 1.318 1_655 S
C270 N269 1.328 . S
C270 C271 1.457 . S
C270 H275 0.929 . S
C271 C270 1.457 . S
C271 C272 1.291 . S
C271 H284 0.931 . S
C272 C271 1.291 . S
C272 C273 1.373 1_655 S
C272 H285 0.934 . S
C273 C272 1.373 1_455 S
C273 C274 1.396 . S
C273 C280 1.403 . S
C274 C264 1.476 . S
C274 N269 1.318 1_455 S
C274 C273 1.396 . S
H275 C270 0.929 . S
O276 Mn252 2.385 . S
O276 C254 1.234 . S
O277 Mn252 2.209 . S
O277 Mn253 2.215 . S
O277 C254 1.283 . S
O278 Mn252 2.094 . S
O278 C256 1.240 . S
O279 Mn253 2.117 . S
O279 C256 1.264 . S
C280 C273 1.403 . S
C280 C281 1.399 . S
C280 H286 0.929 . S
C281 C261 1.449 . S
C281 C280 1.399 . S
C281 H287 0.930 . S
H282 C262 0.931 . S
H283 C263 0.930 . S
H284 C271 0.931 . S
H285 C272 0.934 . S
H286 C280 0.929 . S
H287 C281 0.930 . S
Mn288 O293 2.095 . S
Mn288 O303 2.162 . S
Mn288 O304 2.297 . S
Mn288 O312 2.385 . S
Mn288 O313 2.209 . S
Mn288 O314 2.094 . S
Mn289 O294 2.121 . S
Mn289 N296 2.257 . S
Mn289 N305 2.282 . S
Mn289 O313 2.215 . S
Mn289 O315 2.117 . S
C290 O312 1.234 . S
C290 O313 1.283 . S
C291 O303 1.281 . S
C291 O304 1.236 . S
C292 O314 1.240 . S
C292 O315 1.264 . S
O293 Mn288 2.095 . S
O293 C302 1.250 . S
O294 Mn289 2.121 . S
O294 C302 1.258 . S
C295 N296 1.326 . S
C295 C299 1.460 . S
C295 H301 0.929 . S
N296 Mn289 2.257 . S
N296 C295 1.326 . S
N296 C300 1.362 . S
C297 C298 1.258 . S
C297 C300 1.431 . S
C297 C317 1.449 . S
C298 C297 1.258 . S
C298 C299 1.477 . S
C298 H318 0.931 . S
C299 C295 1.460 . S
C299 C298 1.477 . S
C299 H319 0.930 . S
C300 N296 1.362 . S
C300 C297 1.431 . S
C300 C310 1.476 . S
H301 C295 0.929 . S
C302 O293 1.250 . S
C302 O294 1.258 . S
O303 Mn288 2.162 . S
O303 C291 1.281 . S
O304 Mn288 2.297 . S
O304 C291 1.236 . S
N305 Mn289 2.282 . S
N305 C306 1.328 . S
N305 C310 1.318 . S
C306 N305 1.328 . S
C306 C307 1.457 . S
C306 H311 0.929 . S
C307 C306 1.457 . S
C307 C308 1.291 . S
C307 H320 0.931 . S
C308 C307 1.291 . S
C308 C309 1.373 . S
C308 H321 0.929 . S
C309 C308 1.373 . S
C309 C310 1.396 . S
C309 C316 1.403 . S
C310 C300 1.476 . S
C310 N305 1.318 . S
C310 C309 1.396 . S
H311 C306 0.929 . S
O312 Mn288 2.385 . S
O312 C290 1.234 . S
O313 Mn288 2.209 . S
O313 Mn289 2.215 . S
O313 C290 1.283 . S
O314 Mn288 2.094 . S
O314 C292 1.240 . S
O315 Mn289 2.117 . S
O315 C292 1.264 . S
C316 C309 1.403 . S
C316 C317 1.399 . S
C316 H322 0.929 . S
C317 C297 1.449 . S
C317 C316 1.399 . S
C317 H323 0.930 . S
H318 C298 0.931 . S
H319 C299 0.930 . S
H320 C307 0.931 . S
H321 C308 0.929 . S
H322 C316 0.929 . S
H323 C317 0.930 . S
Mn324 O329 2.095 . S
Mn324 O339 2.162 . S
Mn324 O340 2.297 . S
Mn324 O348 2.385 . S
Mn324 O349 2.209 . S
Mn324 O350 2.094 . S
Mn325 O330 2.121 . S
Mn325 N332 2.257 . S
Mn325 N341 2.282 . S
Mn325 O349 2.215 . S
Mn325 O351 2.117 . S
C326 O348 1.234 . S
C326 O349 1.283 . S
C327 O339 1.281 . S
C327 O340 1.236 . S
C328 O350 1.240 . S
C328 O351 1.264 . S
O329 Mn324 2.095 . S
O329 C338 1.250 . S
O330 Mn325 2.121 . S
O330 C338 1.258 . S
C331 N332 1.326 . S
C331 C335 1.460 . S
C331 H337 0.929 . S
N332 Mn325 2.257 . S
N332 C331 1.326 . S
N332 C336 1.362 . S
C333 C334 1.258 . S
C333 C336 1.431 . S
C333 C353 1.449 . S
C334 C333 1.258 . S
C334 C335 1.477 . S
C334 H354 0.931 . S
C335 C331 1.460 . S
C335 C334 1.477 . S
C335 H355 0.930 . S
C336 N332 1.362 . S
C336 C333 1.431 . S
C336 C346 1.476 . S
H337 C331 0.929 . S
C338 O329 1.250 . S
C338 O330 1.258 . S
O339 Mn324 2.162 . S
O339 C327 1.281 . S
O340 Mn324 2.297 . S
O340 C327 1.236 . S
N341 Mn325 2.282 . S
N341 C342 1.328 . S
N341 C346 1.318 . S
C342 N341 1.328 . S
C342 C343 1.457 . S
C342 H347 0.929 . S
C343 C342 1.457 . S
C343 C344 1.291 . S
C343 H356 0.931 . S
C344 C343 1.291 . S
C344 C345 1.373 . S
C344 H357 0.929 . S
C345 C344 1.373 . S
C345 C346 1.396 . S
C345 C352 1.403 . S
C346 C336 1.476 . S
C346 N341 1.318 . S
C346 C345 1.396 . S
H347 C342 0.929 . S
O348 Mn324 2.385 . S
O348 C326 1.234 . S
O349 Mn324 2.209 . S
O349 Mn325 2.215 . S
O349 C326 1.283 . S
O350 Mn324 2.094 . S
O350 C328 1.240 . S
O351 Mn325 2.117 . S
O351 C328 1.264 . S
C352 C345 1.403 . S
C352 C353 1.399 . S
C352 H358 0.929 . S
C353 C333 1.449 . S
C353 C352 1.399 . S
C353 H359 0.930 . S
H354 C334 0.931 . S
H355 C335 0.930 . S
H356 C343 0.931 . S
H357 C344 0.929 . S
H358 C352 0.929 . S
H359 C353 0.930 . S
Mn360 O365 2.095 . S
Mn360 O375 2.162 . S
Mn360 O376 2.297 . S
Mn360 O384 2.385 . S
Mn360 O385 2.209 . S
Mn360 O386 2.094 . S
Mn361 O366 2.121 . S
Mn361 N368 2.257 1_565 S
Mn361 N377 2.282 . S
Mn361 O385 2.215 . S
Mn361 O387 2.117 . S
C362 O384 1.234 . S
C362 O385 1.283 . S
C363 O375 1.281 . S
C363 O376 1.236 . S
C364 O386 1.240 . S
C364 O387 1.264 . S
O365 Mn360 2.095 . S
O365 C374 1.250 . S
O366 Mn361 2.121 . S
O366 C374 1.258 . S
C367 N368 1.326 . S
C367 C371 1.460 . S
C367 H373 0.929 . S
N368 Mn361 2.257 1_545 S
N368 C367 1.326 . S
N368 C372 1.362 . S
C369 C370 1.258 . S
C369 C372 1.431 . S
C369 C389 1.449 . S
C370 C369 1.258 . S
C370 C371 1.477 . S
C370 H390 0.931 . S
C371 C367 1.460 . S
C371 C370 1.477 . S
C371 H391 0.930 . S
C372 N368 1.362 . S
C372 C369 1.431 . S
C372 C382 1.476 . S
H373 C367 0.929 . S
C374 O365 1.250 . S
C374 O366 1.258 . S
O375 Mn360 2.162 . S
O375 C363 1.281 . S
O376 Mn360 2.297 . S
O376 C363 1.236 . S
N377 Mn361 2.282 . S
N377 C378 1.328 . S
N377 C382 1.318 1_565 S
C378 N377 1.328 . S
C378 C379 1.457 . S
C378 H383 0.929 . S
C379 C378 1.457 . S
C379 C380 1.291 . S
C379 H392 0.931 . S
C380 C379 1.291 . S
C380 C381 1.373 1_565 S
C380 H393 0.934 . S
C381 C380 1.373 1_545 S
C381 C382 1.396 . S
C381 C388 1.403 . S
C382 C372 1.476 . S
C382 N377 1.318 1_545 S
C382 C381 1.396 . S
H383 C378 0.929 . S
O384 Mn360 2.385 . S
O384 C362 1.234 . S
O385 Mn360 2.209 . S
O385 Mn361 2.215 . S
O385 C362 1.283 . S
O386 Mn360 2.094 . S
O386 C364 1.240 . S
O387 Mn361 2.117 . S
O387 C364 1.264 . S
C388 C381 1.403 . S
C388 C389 1.399 . S
C388 H394 0.929 . S
C389 C369 1.449 . S
C389 C388 1.399 . S
C389 H395 0.930 . S
H390 C370 0.931 . S
H391 C371 0.930 . S
H392 C379 0.931 . S
H393 C380 0.934 . S
H394 C388 0.929 . S
H395 C389 0.930 . S
Mn396 O401 2.095 . S
Mn396 O411 2.162 . S
Mn396 O412 2.297 . S
Mn396 O420 2.385 . S
Mn396 O421 2.209 . S
Mn396 O422 2.094 . S
Mn397 O402 2.121 . S
Mn397 N404 2.257 1_455 S
Mn397 N413 2.282 . S
Mn397 O421 2.215 . S
Mn397 O423 2.117 . S
C398 O420 1.234 . S
C398 O421 1.283 . S
C399 O411 1.281 . S
C399 O412 1.236 . S
C400 O422 1.240 . S
C400 O423 1.264 . S
O401 Mn396 2.095 . S
O401 C410 1.250 . S
O402 Mn397 2.121 . S
O402 C410 1.258 . S
C403 N404 1.326 . S
C403 C407 1.460 . S
C403 H409 0.929 . S
N404 Mn397 2.257 1_655 S
N404 C403 1.326 . S
N404 C408 1.362 . S
C405 C406 1.258 . S
C405 C408 1.431 . S
C405 C425 1.449 . S
C406 C405 1.258 . S
C406 C407 1.477 . S
C406 H426 0.931 . S
C407 C403 1.460 . S
C407 C406 1.477 . S
C407 H427 0.930 . S
C408 N404 1.362 . S
C408 C405 1.431 . S
C408 C418 1.476 . S
H409 C403 0.929 . S
C410 O401 1.250 . S
C410 O402 1.258 . S
O411 Mn396 2.162 . S
O411 C399 1.281 . S
O412 Mn396 2.297 . S
O412 C399 1.236 . S
N413 Mn397 2.282 . S
N413 C414 1.328 . S
N413 C418 1.318 1_455 S
C414 N413 1.328 . S
C414 C415 1.457 . S
C414 H419 0.929 . S
C415 C414 1.457 . S
C415 C416 1.291 . S
C415 H428 0.931 . S
C416 C415 1.291 . S
C416 C417 1.373 1_455 S
C416 H429 0.934 . S
C417 C416 1.373 1_655 S
C417 C418 1.396 . S
C417 C424 1.403 . S
C418 C408 1.476 . S
C418 N413 1.318 1_655 S
C418 C417 1.396 . S
H419 C414 0.929 . S
O420 Mn396 2.385 . S
O420 C398 1.234 . S
O421 Mn396 2.209 . S
O421 Mn397 2.215 . S
O421 C398 1.283 . S
O422 Mn396 2.094 . S
O422 C400 1.240 . S
O423 Mn397 2.117 . S
O423 C400 1.264 . S
C424 C417 1.403 . S
C424 C425 1.399 . S
C424 H430 0.929 . S
C425 C405 1.449 . S
C425 C424 1.399 . S
C425 H431 0.930 . S
H426 C406 0.931 . S
H427 C407 0.930 . S
H428 C415 0.931 . S
H429 C416 0.934 . S
H430 C424 0.929 . S
H431 C425 0.930 . S
Mn432 O437 2.095 . S
Mn432 O447 2.162 . S
Mn432 O448 2.297 . S
Mn432 O456 2.385 . S
Mn432 O457 2.209 . S
Mn432 O458 2.094 . S
Mn433 O438 2.121 . S
Mn433 N440 2.257 1_565 S
Mn433 N449 2.282 . S
Mn433 O457 2.215 . S
Mn433 O459 2.117 . S
C434 O456 1.234 . S
C434 O457 1.283 . S
C435 O447 1.281 . S
C435 O448 1.236 . S
C436 O458 1.240 . S
C436 O459 1.264 . S
O437 Mn432 2.095 . S
O437 C446 1.250 . S
O438 Mn433 2.121 . S
O438 C446 1.258 . S
C439 N440 1.326 . S
C439 C443 1.460 . S
C439 H445 0.929 . S
N440 Mn433 2.257 1_545 S
N440 C439 1.326 . S
N440 C444 1.362 . S
C441 C442 1.258 . S
C441 C444 1.431 . S
C441 C461 1.449 . S
C442 C441 1.258 . S
C442 C443 1.477 . S
C442 H462 0.931 . S
C443 C439 1.460 . S
C443 C442 1.477 . S
C443 H463 0.930 . S
C444 N440 1.362 . S
C444 C441 1.431 . S
C444 C454 1.476 . S
H445 C439 0.929 . S
C446 O437 1.250 . S
C446 O438 1.258 . S
O447 Mn432 2.162 . S
O447 C435 1.281 . S
O448 Mn432 2.297 . S
O448 C435 1.236 . S
N449 Mn433 2.282 . S
N449 C450 1.328 . S
N449 C454 1.318 1_565 S
C450 N449 1.328 . S
C450 C451 1.457 . S
C450 H455 0.929 . S
C451 C450 1.457 . S
C451 C452 1.291 . S
C451 H464 0.931 . S
C452 C451 1.291 . S
C452 C453 1.373 1_565 S
C452 H465 0.934 . S
C453 C452 1.373 1_545 S
C453 C454 1.396 . S
C453 C460 1.403 . S
C454 C444 1.476 . S
C454 N449 1.318 1_545 S
C454 C453 1.396 . S
H455 C450 0.929 . S
O456 Mn432 2.385 . S
O456 C434 1.234 . S
O457 Mn432 2.209 . S
O457 Mn433 2.215 . S
O457 C434 1.283 . S
O458 Mn432 2.094 . S
O458 C436 1.240 . S
O459 Mn433 2.117 . S
O459 C436 1.264 . S
C460 C453 1.403 . S
C460 C461 1.399 . S
C460 H466 0.929 . S
C461 C441 1.449 . S
C461 C460 1.399 . S
C461 H467 0.930 . S
H462 C442 0.931 . S
H463 C443 0.930 . S
H464 C451 0.931 . S
H465 C452 0.934 . S
H466 C460 0.929 . S
H467 C461 0.930 . S
Mn468 O473 2.095 . S
Mn468 O483 2.162 . S
Mn468 O484 2.297 . S
Mn468 O492 2.385 . S
Mn468 O493 2.209 . S
Mn468 O494 2.094 . S
Mn469 O474 2.121 . S
Mn469 N476 2.257 1_455 S
Mn469 N485 2.282 . S
Mn469 O493 2.215 . S
Mn469 O495 2.117 . S
C470 O492 1.234 . S
C470 O493 1.283 . S
C471 O483 1.281 . S
C471 O484 1.236 . S
C472 O494 1.240 . S
C472 O495 1.264 . S
O473 Mn468 2.095 . S
O473 C482 1.250 . S
O474 Mn469 2.121 . S
O474 C482 1.258 . S
C475 N476 1.326 . S
C475 C479 1.460 . S
C475 H481 0.929 . S
N476 Mn469 2.257 1_655 S
N476 C475 1.326 . S
N476 C480 1.362 . S
C477 C478 1.258 . S
C477 C480 1.431 . S
C477 C497 1.449 . S
C478 C477 1.258 . S
C478 C479 1.477 . S
C478 H498 0.931 . S
C479 C475 1.460 . S
C479 C478 1.477 . S
C479 H499 0.930 . S
C480 N476 1.362 . S
C480 C477 1.431 . S
C480 C490 1.476 . S
H481 C475 0.929 . S
C482 O473 1.250 . S
C482 O474 1.258 . S
O483 Mn468 2.162 . S
O483 C471 1.281 . S
O484 Mn468 2.297 . S
O484 C471 1.236 . S
N485 Mn469 2.282 . S
N485 C486 1.328 . S
N485 C490 1.318 1_455 S
C486 N485 1.328 . S
C486 C487 1.457 . S
C486 H491 0.929 . S
C487 C486 1.457 . S
C487 C488 1.291 . S
C487 H500 0.931 . S
C488 C487 1.291 . S
C488 C489 1.373 1_455 S
C488 H501 0.934 . S
C489 C488 1.373 1_655 S
C489 C490 1.396 . S
C489 C496 1.403 . S
C490 C480 1.476 . S
C490 N485 1.318 1_655 S
C490 C489 1.396 . S
H491 C486 0.929 . S
O492 Mn468 2.385 . S
O492 C470 1.234 . S
O493 Mn468 2.209 . S
O493 Mn469 2.215 . S
O493 C470 1.283 . S
O494 Mn468 2.094 . S
O494 C472 1.240 . S
O495 Mn469 2.117 . S
O495 C472 1.264 . S
C496 C489 1.403 . S
C496 C497 1.399 . S
C496 H502 0.929 . S
C497 C477 1.449 . S
C497 C496 1.399 . S
C497 H503 0.930 . S
H498 C478 0.931 . S
H499 C479 0.930 . S
H500 C487 0.931 . S
H501 C488 0.934 . S
H502 C496 0.929 . S
H503 C497 0.930 . S
Mn504 O509 2.095 . S
Mn504 O519 2.162 . S
Mn504 O520 2.297 . S
Mn504 O528 2.385 . S
Mn504 O529 2.209 . S
Mn504 O530 2.094 . S
Mn505 O510 2.121 . S
Mn505 N512 2.257 . S
Mn505 N521 2.282 . S
Mn505 O529 2.215 . S
Mn505 O531 2.117 . S
C506 O528 1.234 . S
C506 O529 1.283 . S
C507 O519 1.281 . S
C507 O520 1.236 . S
C508 O530 1.240 . S
C508 O531 1.264 . S
O509 Mn504 2.095 . S
O509 C518 1.250 . S
O510 Mn505 2.121 . S
O510 C518 1.258 . S
C511 N512 1.326 . S
C511 C515 1.460 . S
C511 H517 0.929 . S
N512 Mn505 2.257 . S
N512 C511 1.326 . S
N512 C516 1.362 . S
C513 C514 1.258 . S
C513 C516 1.431 . S
C513 C533 1.449 . S
C514 C513 1.258 . S
C514 C515 1.477 . S
C514 H534 0.931 . S
C515 C511 1.460 . S
C515 C514 1.477 . S
C515 H535 0.930 . S
C516 N512 1.362 . S
C516 C513 1.431 . S
C516 C526 1.476 . S
H517 C511 0.929 . S
C518 O509 1.250 . S
C518 O510 1.258 . S
O519 Mn504 2.162 . S
O519 C507 1.281 . S
O520 Mn504 2.297 . S
O520 C507 1.236 . S
N521 Mn505 2.282 . S
N521 C522 1.328 . S
N521 C526 1.318 . S
C522 N521 1.328 . S
C522 C523 1.457 . S
C522 H527 0.929 . S
C523 C522 1.457 . S
C523 C524 1.291 . S
C523 H536 0.931 . S
C524 C523 1.291 . S
C524 C525 1.373 . S
C524 H537 0.929 . S
C525 C524 1.373 . S
C525 C526 1.396 . S
C525 C532 1.403 . S
C526 C516 1.476 . S
C526 N521 1.318 . S
C526 C525 1.396 . S
H527 C522 0.929 . S
O528 Mn504 2.385 . S
O528 C506 1.234 . S
O529 Mn504 2.209 . S
O529 Mn505 2.215 . S
O529 C506 1.283 . S
O530 Mn504 2.094 . S
O530 C508 1.240 . S
O531 Mn505 2.117 . S
O531 C508 1.264 . S
C532 C525 1.403 . S
C532 C533 1.399 . S
C532 H538 0.929 . S
C533 C513 1.449 . S
C533 C532 1.399 . S
C533 H539 0.930 . S
H534 C514 0.931 . S
H535 C515 0.930 . S
H536 C523 0.931 . S
H537 C524 0.929 . S
H538 C532 0.929 . S
H539 C533 0.930 . S
Mn540 O545 2.095 . S
Mn540 O555 2.162 . S
Mn540 O556 2.297 . S
Mn540 O564 2.385 . S
Mn540 O565 2.209 . S
Mn540 O566 2.094 . S
Mn541 O546 2.121 . S
Mn541 N548 2.257 . S
Mn541 N557 2.282 . S
Mn541 O565 2.215 . S
Mn541 O567 2.117 . S
C542 O564 1.234 . S
C542 O565 1.283 . S
C543 O555 1.281 . S
C543 O556 1.236 . S
C544 O566 1.240 . S
C544 O567 1.264 . S
O545 Mn540 2.095 . S
O545 C554 1.250 . S
O546 Mn541 2.121 . S
O546 C554 1.258 . S
C547 N548 1.326 . S
C547 C551 1.460 . S
C547 H553 0.929 . S
N548 Mn541 2.257 . S
N548 C547 1.326 . S
N548 C552 1.362 . S
C549 C550 1.258 . S
C549 C552 1.431 . S
C549 C569 1.449 . S
C550 C549 1.258 . S
C550 C551 1.477 . S
C550 H570 0.931 . S
C551 C547 1.460 . S
C551 C550 1.477 . S
C551 H571 0.930 . S
C552 N548 1.362 . S
C552 C549 1.431 . S
C552 C562 1.476 . S
H553 C547 0.929 . S
C554 O545 1.250 . S
C554 O546 1.258 . S
O555 Mn540 2.162 . S
O555 C543 1.281 . S
O556 Mn540 2.297 . S
O556 C543 1.236 . S
N557 Mn541 2.282 . S
N557 C558 1.328 . S
N557 C562 1.318 . S
C558 N557 1.328 . S
C558 C559 1.457 . S
C558 H563 0.929 . S
C559 C558 1.457 . S
C559 C560 1.291 . S
C559 H572 0.931 . S
C560 C559 1.291 . S
C560 C561 1.373 . S
C560 H573 0.929 . S
C561 C560 1.373 . S
C561 C562 1.396 . S
C561 C568 1.403 . S
C562 C552 1.476 . S
C562 N557 1.318 . S
C562 C561 1.396 . S
H563 C558 0.929 . S
O564 Mn540 2.385 . S
O564 C542 1.234 . S
O565 Mn540 2.209 . S
O565 Mn541 2.215 . S
O565 C542 1.283 . S
O566 Mn540 2.094 . S
O566 C544 1.240 . S
O567 Mn541 2.117 . S
O567 C544 1.264 . S
C568 C561 1.403 . S
C568 C569 1.399 . S
C568 H574 0.929 . S
C569 C549 1.449 . S
C569 C568 1.399 . S
C569 H575 0.930 . S
H570 C550 0.931 . S
H571 C551 0.930 . S
H572 C559 0.931 . S
H573 C560 0.929 . S
H574 C568 0.929 . S
H575 C569 0.930 . S
C576 C577 1.391 . S
C576 C578 1.394 . S
C576 H592 0.931 . S
C577 C576 1.391 . S
C577 C581 1.376 . S
C578 C576 1.394 . S
C578 C579 1.369 . S
C578 C582 1.531 1_655 S
C579 C578 1.369 . S
C579 C580 1.410 1_565 S
C579 C587 1.503 1_665 S
C580 C579 1.410 1_545 S
C580 C581 1.392 1_545 S
C580 C583 1.511 . S
C581 C577 1.376 . S
C581 C580 1.392 1_565 S
C581 H593 0.929 . S
C582 C578 1.531 1_455 S
C582 H594 0.960 . S
C582 H595 0.962 . S
C582 H596 0.960 1_455 S
C583 C580 1.511 . S
C583 H597 0.961 . S
C583 H598 0.961 . S
C583 H599 0.961 . S
C584 C585 1.370 . S
C584 C586 1.363 . S
C584 H600 0.931 . S
C585 C584 1.370 . S
C585 C589 1.408 . S
C586 C584 1.363 . S
C586 C587 1.370 . S
C586 C590 1.524 1_545 S
C587 C579 1.503 1_445 S
C587 C586 1.370 . S
C587 C588 1.403 . S
C588 C587 1.403 . S
C588 C589 1.404 . S
C588 C591 1.539 1_455 S
C589 C585 1.408 . S
C589 C588 1.404 . S
C589 H601 0.930 . S
C590 C586 1.524 1_565 S
C590 H602 0.956 . S
C590 H603 0.961 . S
C590 H604 0.961 . S
C591 C588 1.539 1_655 S
C591 H605 0.958 . S
C591 H606 0.961 . S
C591 H607 0.960 . S
H592 C576 0.931 . S
H593 C581 0.929 . S
H594 C582 0.960 . S
H595 C582 0.962 . S
H596 C582 0.960 1_655 S
H597 C583 0.961 . S
H598 C583 0.961 . S
H599 C583 0.961 . S
H600 C584 0.931 . S
H601 C589 0.930 . S
H602 C590 0.956 . S
H603 C590 0.961 . S
H604 C590 0.961 . S
H605 C591 0.958 . S
H606 C591 0.961 . S
H607 C591 0.960 . S
C608 C609 1.391 . S
C608 C610 1.394 . S
C608 H624 0.931 . S
C609 C608 1.391 . S
C609 C613 1.376 . S
C610 C608 1.394 . S
C610 C611 1.369 . S
C610 C614 1.531 1_655 S
C611 C610 1.369 . S
C611 C612 1.410 . S
C611 C619 1.503 1_655 S
C612 C611 1.410 . S
C612 C613 1.392 . S
C612 C615 1.511 . S
C613 C609 1.376 . S
C613 C612 1.392 . S
C613 H625 0.929 . S
C614 C610 1.531 1_455 S
C614 H626 0.960 . S
C614 H627 0.962 . S
C614 H628 0.960 . S
C615 C612 1.511 . S
C615 H629 0.961 . S
C615 H630 0.961 . S
C615 H631 0.961 . S
C616 C617 1.370 . S
C616 C618 1.363 . S
C616 H632 0.931 . S
C617 C616 1.370 . S
C617 C621 1.408 . S
C618 C616 1.363 . S
C618 C619 1.370 . S
C618 C622 1.524 . S
C619 C611 1.503 1_455 S
C619 C618 1.370 . S
C619 C620 1.400 1_455 S
C620 C619 1.400 1_655 S
C620 C621 1.395 1_655 S
C620 C623 1.552 . S
C621 C617 1.408 . S
C621 C620 1.395 1_455 S
C621 H633 0.930 . S
C622 C618 1.524 . S
C622 H634 0.956 . S
C622 H635 0.961 . S
C622 H636 0.961 . S
C623 C620 1.552 . S
C623 H637 0.958 . S
C623 H638 0.961 . S
C623 H639 0.960 . S
H624 C608 0.931 . S
H625 C613 0.929 . S
H626 C614 0.960 . S
H627 C614 0.962 . S
H628 C614 0.960 . S
H629 C615 0.961 . S
H630 C615 0.961 . S
H631 C615 0.961 . S
H632 C616 0.931 . S
H633 C621 0.930 . S
H634 C622 0.956 . S
H635 C622 0.961 . S
H636 C622 0.961 . S
H637 C623 0.958 . S
H638 C623 0.961 . S
H639 C623 0.960 . S
C640 C641 1.391 . S
C640 C642 1.394 . S
C640 H656 0.931 . S
C641 C640 1.391 . S
C641 C645 1.376 . S
C642 C640 1.394 . S
C642 C643 1.369 . S
C642 C646 1.531 . S
C643 C642 1.369 . S
C643 C644 1.410 . S
C643 C651 1.503 . S
C644 C643 1.410 . S
C644 C645 1.392 . S
C644 C647 1.511 . S
C645 C641 1.376 . S
C645 C644 1.392 . S
C645 H657 0.929 . S
C646 C642 1.531 . S
C646 H658 0.960 . S
C646 H659 0.962 . S
C646 H660 0.960 . S
C647 C644 1.511 . S
C647 H661 0.961 . S
C647 H662 0.961 . S
C647 H663 0.961 . S
C648 C649 1.370 . S
C648 C650 1.363 . S
C648 H664 0.931 . S
C649 C648 1.370 . S
C649 C653 1.408 . S
C650 C648 1.363 . S
C650 C651 1.370 . S
C650 C654 1.524 . S
C651 C643 1.503 . S
C651 C650 1.370 . S
C651 C652 1.403 . S
C652 C651 1.403 . S
C652 C653 1.404 . S
C652 C655 1.539 . S
C653 C649 1.408 . S
C653 C652 1.404 . S
C653 H665 0.930 . S
C654 C650 1.524 . S
C654 H666 0.956 . S
C654 H667 0.961 . S
C654 H668 0.961 . S
C655 C652 1.539 . S
C655 H669 0.958 . S
C655 H670 0.961 . S
C655 H671 0.960 . S
H656 C640 0.931 . S
H657 C645 0.929 . S
H658 C646 0.960 . S
H659 C646 0.962 . S
H660 C646 0.960 . S
H661 C647 0.961 . S
H662 C647 0.961 . S
H663 C647 0.961 . S
H664 C648 0.931 . S
H665 C653 0.930 . S
H666 C654 0.956 . S
H667 C654 0.961 . S
H668 C654 0.961 . S
H669 C655 0.958 . S
H670 C655 0.961 . S
H671 C655 0.960 . S
C672 C673 1.391 . S
C672 C674 1.394 . S
C672 H688 0.931 . S
C673 C672 1.391 . S
C673 C677 1.376 . S
C674 C672 1.394 . S
C674 C675 1.369 . S
C674 C678 1.531 . S
C675 C674 1.369 . S
C675 C676 1.410 . S
C675 C683 1.503 1_545 S
C676 C675 1.410 . S
C676 C677 1.392 . S
C676 C679 1.511 1_545 S
C677 C673 1.376 . S
C677 C676 1.392 . S
C677 H689 0.929 . S
C678 C674 1.531 . S
C678 H690 0.960 . S
C678 H691 0.962 . S
C678 H692 0.960 . S
C679 C676 1.511 1_565 S
C679 H693 0.961 . S
C679 H694 0.961 . S
C679 H695 0.961 . S
C680 C681 1.370 . S
C680 C682 1.363 . S
C680 H696 0.931 . S
C681 C680 1.370 . S
C681 C685 1.408 . S
C682 C680 1.363 . S
C682 C683 1.370 . S
C682 C686 1.524 . S
C683 C675 1.503 1_565 S
C683 C682 1.370 . S
C683 C684 1.403 . S
C684 C683 1.403 . S
C684 C685 1.404 . S
C684 C687 1.539 . S
C685 C681 1.408 . S
C685 C684 1.404 . S
C685 H697 0.930 . S
C686 C682 1.524 . S
C686 H698 0.956 1_565 S
C686 H699 0.961 . S
C686 H700 0.961 . S
C687 C684 1.539 . S
C687 H701 0.955 1_565 S
C687 H702 0.961 . S
C687 H703 0.960 . S
H688 C672 0.931 . S
H689 C677 0.929 . S
H690 C678 0.960 . S
H691 C678 0.962 . S
H692 C678 0.960 . S
H693 C679 0.961 . S
H694 C679 0.961 . S
H695 C679 0.961 . S
H696 C680 0.931 . S
H697 C685 0.930 . S
H698 C686 0.956 1_545 S
H699 C686 0.961 . S
H700 C686 0.961 . S
H701 C687 0.955 1_545 S
H702 C687 0.961 . S
H703 C687 0.960 . S
C704 C705 1.391 . S
C704 C706 1.394 . S
C704 H720 0.931 . S
C705 C704 1.391 . S
C705 C709 1.376 . S
C706 C704 1.394 . S
C706 C707 1.369 . S
C706 C710 1.531 . S
C707 C706 1.369 . S
C707 C708 1.410 . S
C707 C715 1.503 1_455 S
C708 C707 1.410 . S
C708 C709 1.392 . S
C708 C711 1.511 . S
C709 C705 1.376 . S
C709 C708 1.392 . S
C709 H721 0.929 . S
C710 C706 1.531 . S
C710 H722 0.960 . S
C710 H723 0.962 . S
C710 H724 0.960 . S
C711 C708 1.511 . S
C711 H725 0.961 . S
C711 H726 0.961 1_455 S
C711 H727 0.961 . S
C712 C713 1.370 . S
C712 C714 1.363 . S
C712 H728 0.931 . S
C713 C712 1.370 . S
C713 C717 1.408 . S
C714 C712 1.363 . S
C714 C715 1.370 . S
C714 C718 1.524 . S
C715 C707 1.503 1_655 S
C715 C714 1.370 . S
C715 C716 1.403 . S
C716 C715 1.403 . S
C716 C717 1.404 . S
C716 C719 1.539 1_655 S
C717 C713 1.408 . S
C717 C716 1.404 . S
C717 H729 0.930 . S
C718 C714 1.524 . S
C718 H730 0.956 . S
C718 H731 0.961 . S
C718 H732 0.961 . S
C719 C716 1.539 1_455 S
C719 H733 0.958 . S
C719 H734 0.961 . S
C719 H735 0.960 . S
H720 C704 0.931 . S
H721 C709 0.929 . S
H722 C710 0.960 . S
H723 C710 0.962 . S
H724 C710 0.960 . S
H725 C711 0.961 . S
H726 C711 0.961 1_655 S
H727 C711 0.961 . S
H728 C712 0.931 . S
H729 C717 0.930 . S
H730 C718 0.956 . S
H731 C718 0.961 . S
H732 C718 0.961 . S
H733 C719 0.958 . S
H734 C719 0.961 . S
H735 C719 0.960 . S
C736 C737 1.391 . S
C736 C738 1.394 . S
C736 H752 0.931 . S
C737 C736 1.391 . S
C737 C741 1.376 . S
C738 C736 1.394 . S
C738 C739 1.369 . S
C738 C742 1.531 . S
C739 C738 1.369 . S
C739 C740 1.410 . S
C739 C747 1.503 . S
C740 C739 1.410 . S
C740 C741 1.392 . S
C740 C743 1.511 . S
C741 C737 1.376 . S
C741 C740 1.392 . S
C741 H753 0.929 . S
C742 C738 1.531 . S
C742 H754 0.960 . S
C742 H755 0.962 . S
C742 H756 0.960 . S
C743 C740 1.511 . S
C743 H757 0.961 . S
C743 H758 0.961 . S
C743 H759 0.961 . S
C744 C745 1.370 . S
C744 C746 1.363 . S
C744 H760 0.931 . S
C745 C744 1.370 . S
C745 C749 1.408 . S
C746 C744 1.363 . S
C746 C747 1.370 . S
C746 C750 1.524 . S
C747 C739 1.503 . S
C747 C746 1.370 . S
C747 C748 1.403 . S
C748 C747 1.403 . S
C748 C749 1.404 . S
C748 C751 1.539 . S
C749 C745 1.408 . S
C749 C748 1.404 . S
C749 H761 0.930 . S
C750 C746 1.524 . S
C750 H762 0.956 . S
C750 H763 0.961 . S
C750 H764 0.961 . S
C751 C748 1.539 . S
C751 H765 0.958 . S
C751 H766 0.961 . S
C751 H767 0.960 . S
H752 C736 0.931 . S
H753 C741 0.929 . S
H754 C742 0.960 . S
H755 C742 0.962 . S
H756 C742 0.960 . S
H757 C743 0.961 . S
H758 C743 0.961 . S
H759 C743 0.961 . S
H760 C744 0.931 . S
H761 C749 0.930 . S
H762 C750 0.956 . S
H763 C750 0.961 . S
H764 C750 0.961 . S
H765 C751 0.958 . S
H766 C751 0.961 . S
H767 C751 0.960 . S
C768 C769 1.391 . S
C768 C770 1.394 . S
C768 H784 0.931 . S
C769 C768 1.391 . S
C769 C773 1.376 . S
C770 C768 1.394 . S
C770 C771 1.369 . S
C770 C774 1.531 . S
C771 C770 1.369 . S
C771 C772 1.410 1_545 S
C771 C779 1.503 1_545 S
C772 C771 1.410 1_565 S
C772 C773 1.392 1_565 S
C772 C775 1.511 . S
C773 C769 1.376 . S
C773 C772 1.392 1_545 S
C773 H785 0.929 . S
C774 C770 1.531 . S
C774 H786 0.960 . S
C774 H787 0.962 . S
C774 H788 0.960 . S
C775 C772 1.511 . S
C775 H789 0.961 . S
C775 H790 0.961 . S
C775 H791 0.961 . S
C776 C777 1.370 . S
C776 C778 1.363 . S
C776 H792 0.931 . S
C777 C776 1.370 . S
C777 C781 1.408 . S
C778 C776 1.363 . S
C778 C779 1.370 . S
C778 C782 1.524 . S
C779 C771 1.503 1_565 S
C779 C778 1.370 . S
C779 C780 1.403 . S
C780 C779 1.403 . S
C780 C781 1.404 . S
C780 C783 1.539 . S
C781 C777 1.408 . S
C781 C780 1.404 . S
C781 H793 0.930 . S
C782 C778 1.524 . S
C782 H794 0.956 1_565 S
C782 H795 0.961 . S
C782 H796 0.961 . S
C783 C780 1.539 . S
C783 H797 0.958 1_565 S
C783 H798 0.961 . S
C783 H799 0.960 1_565 S
H784 C768 0.931 . S
H785 C773 0.929 . S
H786 C774 0.960 . S
H787 C774 0.962 . S
H788 C774 0.960 . S
H789 C775 0.961 . S
H790 C775 0.961 . S
H791 C775 0.961 . S
H792 C776 0.931 . S
H793 C781 0.930 . S
H794 C782 0.956 1_545 S
H795 C782 0.961 . S
H796 C782 0.961 . S
H797 C783 0.958 1_545 S
H798 C783 0.961 . S
H799 C783 0.960 1_545 S
C800 C801 1.391 . S
C800 C802 1.394 . S
C800 H816 0.931 . S
C801 C800 1.391 . S
C801 C805 1.376 . S
C802 C800 1.394 . S
C802 C803 1.369 . S
C802 C806 1.531 1_455 S
C803 C802 1.369 . S
C803 C804 1.410 . S
C803 C811 1.503 1_445 S
C804 C803 1.410 . S
C804 C805 1.392 . S
C804 C807 1.511 1_545 S
C805 C801 1.376 . S
C805 C804 1.392 . S
C805 H817 0.929 . S
C806 C802 1.531 1_655 S
C806 H818 0.960 . S
C806 H819 0.962 . S
C806 H820 0.960 . S
C807 C804 1.511 1_565 S
C807 H821 0.961 . S
C807 H822 0.961 . S
C807 H823 0.961 . S
C808 C809 1.370 . S
C808 C810 1.363 . S
C808 H824 0.931 . S
C809 C808 1.370 . S
C809 C813 1.408 . S
C810 C808 1.363 . S
C810 C811 1.370 . S
C810 C814 1.524 1_565 S
C811 C803 1.503 1_665 S
C811 C810 1.370 . S
C811 C812 1.403 . S
C812 C811 1.403 . S
C812 C813 1.404 . S
C812 C815 1.539 1_655 S
C813 C809 1.408 . S
C813 C812 1.404 . S
C813 H825 0.930 . S
C814 C810 1.524 1_545 S
C814 H826 0.956 . S
C814 H827 0.961 . S
C814 H828 0.961 1_545 S
C815 C812 1.539 1_455 S
C815 H829 0.958 . S
C815 H830 0.961 . S
C815 H831 0.960 . S
H816 C800 0.931 . S
H817 C805 0.929 . S
H818 C806 0.960 . S
H819 C806 0.962 . S
H820 C806 0.960 . S
H821 C807 0.961 . S
H822 C807 0.961 . S
H823 C807 0.961 . S
H824 C808 0.931 . S
H825 C813 0.930 . S
H826 C814 0.956 . S
H827 C814 0.961 . S
H828 C814 0.961 1_565 S
H829 C815 0.958 . S
H830 C815 0.961 . S
H831 C815 0.960 . S
C832 C833 1.391 . S
C832 C834 1.394 1_565 S
C832 H848 0.931 . S
C833 C832 1.391 . S
C833 C837 1.376 . S
C834 C832 1.394 1_545 S
C834 C835 1.369 1_545 S
C834 C838 1.531 . S
C835 C834 1.369 1_565 S
C835 C836 1.410 . S
C835 C843 1.503 1_565 S
C836 C835 1.410 . S
C836 C837 1.392 . S
C836 C839 1.511 . S
C837 C833 1.376 . S
C837 C836 1.392 . S
C837 H849 0.929 . S
C838 C834 1.531 . S
C838 H850 0.960 . S
C838 H851 0.962 . S
C838 H852 0.960 . S
C839 C836 1.511 . S
C839 H853 0.961 . S
C839 H854 0.961 . S
C839 H855 0.961 . S
C840 C841 1.370 . S
C840 C842 1.363 . S
C840 H856 0.931 . S
C841 C840 1.370 . S
C841 C845 1.408 . S
C842 C840 1.363 . S
C842 C843 1.370 . S
C842 C846 1.524 1_545 S
C843 C835 1.503 1_545 S
C843 C842 1.370 . S
C843 C844 1.403 . S
C844 C843 1.403 . S
C844 C845 1.404 . S
C844 C847 1.539 . S
C845 C841 1.408 . S
C845 C844 1.404 . S
C845 H857 0.930 . S
C846 C842 1.524 1_565 S
C846 H858 0.956 . S
C846 H859 0.961 . S
C846 H860 0.961 . S
C847 C844 1.539 . S
C847 H861 0.958 . S
C847 H862 0.961 . S
C847 H863 0.960 . S
H848 C832 0.931 . S
H849 C837 0.929 . S
H850 C838 0.960 . S
H851 C838 0.962 . S
H852 C838 0.960 . S
H853 C839 0.961 . S
H854 C839 0.961 . S
H855 C839 0.961 . S
H856 C840 0.931 . S
H857 C845 0.930 . S
H858 C846 0.956 . S
H859 C846 0.961 . S
H860 C846 0.961 . S
H861 C847 0.958 . S
H862 C847 0.961 . S
H863 C847 0.960 . S
C864 C865 1.391 . S
C864 C866 1.394 . S
C864 H880 0.931 . S
C865 C864 1.391 . S
C865 C869 1.376 . S
C866 C864 1.394 . S
C866 C867 1.369 . S
C866 C870 1.531 1_655 S
C867 C866 1.369 . S
C867 C868 1.410 . S
C867 C875 1.503 1_665 S
C868 C867 1.410 . S
C868 C869 1.392 . S
C868 C871 1.511 1_565 S
C869 C865 1.376 . S
C869 C868 1.392 . S
C869 H881 0.929 . S
C870 C866 1.531 1_455 S
C870 H882 0.960 . S
C870 H883 0.962 . S
C870 H884 0.961 . S
C871 C868 1.511 1_545 S
C871 H885 0.961 1_545 S
C871 H886 0.961 . S
C871 H887 0.961 . S
C872 C873 1.370 . S
C872 C874 1.363 . S
C872 H888 0.931 . S
C873 C872 1.370 . S
C873 C877 1.408 . S
C874 C872 1.363 . S
C874 C875 1.370 . S
C874 C878 1.524 1_545 S
C875 C867 1.503 1_445 S
C875 C874 1.370 . S
C875 C876 1.403 1_455 S
C876 C875 1.403 1_655 S
C876 C877 1.404 1_655 S
C876 C879 1.539 . S
C877 C873 1.408 . S
C877 C876 1.404 1_455 S
C877 H889 0.930 . S
C878 C874 1.524 1_565 S
C878 H890 0.956 . S
C878 H891 0.961 . S
C878 H892 0.961 . S
C879 C876 1.539 . S
C879 H893 0.958 . S
C879 H894 0.961 . S
C879 H895 0.960 . S
H880 C864 0.931 . S
H881 C869 0.929 . S
H882 C870 0.960 . S
H883 C870 0.962 . S
H884 C870 0.961 . S
H885 C871 0.961 1_565 S
H886 C871 0.961 . S
H887 C871 0.961 . S
H888 C872 0.931 . S
H889 C877 0.930 . S
H890 C878 0.956 . S
H891 C878 0.961 . S
H892 C878 0.961 . S
H893 C879 0.958 . S
H894 C879 0.961 . S
H895 C879 0.960 . S
C896 C897 1.391 . S
C896 C898 1.394 . S
C896 H912 0.931 . S
C897 C896 1.391 . S
C897 C901 1.376 . S
C898 C896 1.394 . S
C898 C899 1.369 . S
C898 C902 1.531 1_455 S
C899 C898 1.369 . S
C899 C900 1.410 . S
C899 C907 1.503 1_455 S
C900 C899 1.410 . S
C900 C901 1.392 . S
C900 C903 1.511 . S
C901 C897 1.376 . S
C901 C900 1.392 . S
C901 H913 0.929 . S
C902 C898 1.531 1_655 S
C902 H914 0.960 . S
C902 H915 0.962 . S
C902 H916 0.960 . S
C903 C900 1.511 . S
C903 H917 0.961 . S
C903 H918 0.961 . S
C903 H919 0.961 . S
C904 C905 1.370 . S
C904 C906 1.363 . S
C904 H920 0.931 . S
C905 C904 1.370 . S
C905 C909 1.408 . S
C906 C904 1.363 . S
C906 C907 1.370 . S
C906 C910 1.524 . S
C907 C899 1.503 1_655 S
C907 C906 1.370 . S
C907 C908 1.403 . S
C908 C907 1.403 . S
C908 C909 1.404 . S
C908 C911 1.539 . S
C909 C905 1.408 . S
C909 C908 1.404 . S
C909 H921 0.930 . S
C910 C906 1.524 . S
C910 H922 0.956 . S
C910 H923 0.961 1_655 S
C910 H924 0.961 . S
C911 C908 1.539 . S
C911 H925 0.958 . S
C911 H926 0.961 . S
C911 H927 0.960 1_655 S
H912 C896 0.931 . S
H913 C901 0.929 . S
H914 C902 0.960 . S
H915 C902 0.962 . S
H916 C902 0.960 . S
H917 C903 0.961 . S
H918 C903 0.961 . S
H919 C903 0.961 . S
H920 C904 0.931 . S
H921 C909 0.930 . S
H922 C910 0.956 . S
H923 C910 0.961 1_455 S
H924 C910 0.961 . S
H925 C911 0.958 . S
H926 C911 0.961 . S
H927 C911 0.960 1_455 S
C928 C929 1.391 . S
C928 C930 1.394 . S
C928 H944 0.931 . S
C929 C928 1.391 . S
C929 C933 1.376 . S
C930 C928 1.394 . S
C930 C931 1.369 . S
C930 C934 1.531 . S
C931 C930 1.369 . S
C931 C932 1.410 . S
C931 C939 1.503 . S
C932 C931 1.410 . S
C932 C933 1.392 . S
C932 C935 1.511 . S
C933 C929 1.376 . S
C933 C932 1.392 . S
C933 H945 0.929 . S
C934 C930 1.531 . S
C934 H946 0.960 . S
C934 H947 0.962 . S
C934 H948 0.960 . S
C935 C932 1.511 . S
C935 H949 0.961 . S
C935 H950 0.961 . S
C935 H951 0.961 . S
C936 C937 1.370 . S
C936 C938 1.363 . S
C936 H952 0.931 . S
C937 C936 1.370 . S
C937 C941 1.408 . S
C938 C936 1.363 . S
C938 C939 1.370 . S
C938 C942 1.524 . S
C939 C931 1.503 . S
C939 C938 1.370 . S
C939 C940 1.403 . S
C940 C939 1.403 . S
C940 C941 1.404 . S
C940 C943 1.539 . S
C941 C937 1.408 . S
C941 C940 1.404 . S
C941 H953 0.930 . S
C942 C938 1.524 . S
C942 H954 0.956 . S
C942 H955 0.961 . S
C942 H956 0.961 . S
C943 C940 1.539 . S
C943 H957 0.958 . S
C943 H958 0.961 . S
C943 H959 0.960 . S
H944 C928 0.931 . S
H945 C933 0.929 . S
H946 C934 0.960 . S
H947 C934 0.962 . S
H948 C934 0.960 . S
H949 C935 0.961 . S
H950 C935 0.961 . S
H951 C935 0.961 . S
H952 C936 0.931 . S
H953 C941 0.930 . S
H954 C942 0.956 . S
H955 C942 0.961 . S
H956 C942 0.961 . S
H957 C943 0.958 . S
H958 C943 0.961 . S
H959 C943 0.960 . S
C960 C961 1.391 . S
C960 C962 1.394 . S
C960 H976 0.931 . S
C961 C960 1.391 . S
C961 C965 1.376 . S
C962 C960 1.394 . S
C962 C963 1.369 . S
C962 C966 1.531 . S
C963 C962 1.369 . S
C963 C964 1.410 . S
C963 C971 1.503 . S
C964 C963 1.410 . S
C964 C965 1.392 . S
C964 C967 1.511 . S
C965 C961 1.376 . S
C965 C964 1.392 . S
C965 H977 0.929 . S
C966 C962 1.531 . S
C966 H978 0.960 . S
C966 H979 0.962 . S
C966 H980 0.960 . S
C967 C964 1.511 . S
C967 H981 0.961 . S
C967 H982 0.961 . S
C967 H983 0.961 . S
C968 C969 1.370 . S
C968 C970 1.363 . S
C968 H984 0.931 . S
C969 C968 1.370 . S
C969 C973 1.408 . S
C970 C968 1.363 . S
C970 C971 1.370 . S
C970 C974 1.524 . S
C971 C963 1.503 . S
C971 C970 1.370 . S
C971 C972 1.403 . S
C972 C971 1.403 . S
C972 C973 1.404 . S
C972 C975 1.539 . S
C973 C969 1.408 . S
C973 C972 1.404 . S
C973 H985 0.930 . S
C974 C970 1.524 . S
C974 H986 0.956 . S
C974 H987 0.961 . S
C974 H988 0.961 . S
C975 C972 1.539 . S
C975 H989 0.958 . S
C975 H990 0.961 . S
C975 H991 0.960 . S
H976 C960 0.931 . S
H977 C965 0.929 . S
H978 C966 0.960 . S
H979 C966 0.962 . S
H980 C966 0.960 . S
H981 C967 0.961 . S
H982 C967 0.961 . S
H983 C967 0.961 . S
H984 C968 0.931 . S
H985 C973 0.930 . S
H986 C974 0.956 . S
H987 C974 0.961 . S
H988 C974 0.961 . S
H989 C975 0.958 . S
H990 C975 0.961 . S
H991 C975 0.960 . S
C992 C993 1.391 . S
C992 C994 1.394 . S
C992 H1008 0.931 . S
C993 C992 1.391 . S
C993 C997 1.376 . S
C994 C992 1.394 . S
C994 C995 1.369 . S
C994 C998 1.531 . S
C995 C994 1.369 . S
C995 C996 1.410 . S
C995 C1003 1.503 1_565 S
C996 C995 1.410 . S
C996 C997 1.392 . S
C996 C999 1.511 1_565 S
C997 C993 1.376 . S
C997 C996 1.392 . S
C997 H1009 0.929 . S
C998 C994 1.531 . S
C998 H1010 0.960 . S
C998 H1011 0.962 . S
C998 H1012 0.960 . S
C999 C996 1.511 1_545 S
C999 H1013 0.961 . S
C999 H1014 0.961 . S
C999 H1015 0.961 . S
C1000 C1001 1.370 . S
C1000 C1002 1.363 . S
C1000 H1016 0.931 . S
C1001 C1000 1.370 . S
C1001 C1005 1.408 . S
C1002 C1000 1.363 . S
C1002 C1003 1.370 . S
C1002 C1006 1.524 . S
C1003 C995 1.503 1_545 S
C1003 C1002 1.370 . S
C1003 C1004 1.403 . S
C1004 C1003 1.403 . S
C1004 C1005 1.404 . S
C1004 C1007 1.539 . S
C1005 C1001 1.408 . S
C1005 C1004 1.404 . S
C1005 H1017 0.930 . S
C1006 C1002 1.524 . S
C1006 H1018 0.956 1_545 S
C1006 H1019 0.960 1_545 S
C1006 H1020 0.961 . S
C1007 C1004 1.539 . S
C1007 H1021 0.958 . S
C1007 H1022 0.961 . S
C1007 H1023 0.960 . S
H1008 C992 0.931 . S
H1009 C997 0.929 . S
H1010 C998 0.960 . S
H1011 C998 0.962 . S
H1012 C998 0.960 . S
H1013 C999 0.961 . S
H1014 C999 0.961 . S
H1015 C999 0.961 . S
H1016 C1000 0.931 . S
H1017 C1005 0.930 . S
H1018 C1006 0.956 1_565 S
H1019 C1006 0.960 1_565 S
H1020 C1006 0.961 . S
H1021 C1007 0.958 . S
H1022 C1007 0.961 . S
H1023 C1007 0.960 . S
C1024 C1025 1.391 . S
C1024 C1026 1.394 1_565 S
C1024 H1040 0.931 . S
C1025 C1024 1.391 . S
C1025 C1029 1.376 . S
C1026 C1024 1.394 1_545 S
C1026 C1027 1.369 1_545 S
C1026 C1030 1.531 . S
C1027 C1026 1.369 1_565 S
C1027 C1028 1.410 . S
C1027 C1035 1.503 1_665 S
C1028 C1027 1.410 . S
C1028 C1029 1.392 . S
C1028 C1031 1.511 1_655 S
C1029 C1025 1.376 . S
C1029 C1028 1.392 . S
C1029 H1041 0.929 . S
C1030 C1026 1.531 . S
C1030 H1042 0.960 . S
C1030 H1043 0.962 . S
C1030 H1044 0.960 . S
C1031 C1028 1.511 1_455 S
C1031 H1045 0.961 . S
C1031 H1046 0.961 . S
C1031 H1047 0.961 . S
C1032 C1033 1.370 . S
C1032 C1034 1.363 . S
C1032 H1048 0.931 . S
C1033 C1032 1.370 . S
C1033 C1037 1.408 . S
C1034 C1032 1.363 . S
C1034 C1035 1.370 . S
C1034 C1038 1.524 1_455 S
C1035 C1027 1.503 1_445 S
C1035 C1034 1.370 . S
C1035 C1036 1.403 . S
C1036 C1035 1.403 . S
C1036 C1037 1.404 . S
C1036 C1039 1.539 1_545 S
C1037 C1033 1.408 . S
C1037 C1036 1.404 . S
C1037 H1049 0.930 . S
C1038 C1034 1.524 1_655 S
C1038 H1050 0.956 . S
C1038 H1051 0.961 . S
C1038 H1052 0.961 1_655 S
C1039 C1036 1.539 1_565 S
C1039 H1053 0.958 . S
C1039 H1054 0.961 . S
C1039 H1055 0.960 . S
H1040 C1024 0.931 . S
H1041 C1029 0.929 . S
H1042 C1030 0.960 . S
H1043 C1030 0.962 . S
H1044 C1030 0.960 . S
H1045 C1031 0.961 . S
H1046 C1031 0.961 . S
H1047 C1031 0.961 . S
H1048 C1032 0.931 . S
H1049 C1037 0.930 . S
H1050 C1038 0.956 . S
H1051 C1038 0.961 . S
H1052 C1038 0.961 1_455 S
H1053 C1039 0.958 . S
H1054 C1039 0.961 . S
H1055 C1039 0.960 . S
C1056 C1057 1.391 . S
C1056 C1058 1.394 1_455 S
C1056 H1072 0.931 . S
C1057 C1056 1.391 . S
C1057 C1061 1.376 . S
C1058 C1056 1.394 1_655 S
C1058 C1059 1.369 1_655 S
C1058 C1062 1.531 . S
C1059 C1058 1.369 1_455 S
C1059 C1060 1.410 . S
C1059 C1067 1.503 1_455 S
C1060 C1059 1.410 . S
C1060 C1061 1.392 . S
C1060 C1063 1.511 . S
C1061 C1057 1.376 . S
C1061 C1060 1.392 . S
C1061 H1073 0.929 . S
C1062 C1058 1.531 . S
C1062 H1074 0.960 . S
C1062 H1075 0.962 . S
C1062 H1076 0.960 . S
C1063 C1060 1.511 . S
C1063 H1077 0.961 . S
C1063 H1078 0.961 . S
C1063 H1079 0.961 . S
C1064 C1065 1.370 . S
C1064 C1066 1.363 . S
C1064 H1080 0.931 . S
C1065 C1064 1.370 . S
C1065 C1069 1.408 . S
C1066 C1064 1.363 . S
C1066 C1067 1.370 . S
C1066 C1070 1.524 . S
C1067 C1059 1.503 1_655 S
C1067 C1066 1.370 . S
C1067 C1068 1.403 . S
C1068 C1067 1.403 . S
C1068 C1069 1.404 . S
C1068 C1071 1.539 1_655 S
C1069 C1065 1.408 . S
C1069 C1068 1.404 . S
C1069 H1081 0.930 . S
C1070 C1066 1.524 . S
C1070 H1082 0.956 . S
C1070 H1083 0.961 . S
C1070 H1084 0.961 . S
C1071 C1068 1.539 1_455 S
C1071 H1085 0.958 . S
C1071 H1086 0.961 . S
C1071 H1087 0.960 . S
H1072 C1056 0.931 . S
H1073 C1061 0.929 . S
H1074 C1062 0.960 . S
H1075 C1062 0.962 . S
H1076 C1062 0.960 . S
H1077 C1063 0.961 . S
H1078 C1063 0.961 . S
H1079 C1063 0.961 . S
H1080 C1064 0.931 . S
H1081 C1069 0.930 . S
H1082 C1070 0.956 . S
H1083 C1070 0.961 . S
H1084 C1070 0.961 . S
H1085 C1071 0.958 . S
H1086 C1071 0.961 . S
H1087 C1071 0.960 . S
C1088 C1089 1.391 . S
C1088 C1090 1.394 . S
C1088 H1104 0.931 . S
C1089 C1088 1.391 . S
C1089 C1093 1.376 . S
C1090 C1088 1.394 . S
C1090 C1091 1.369 . S
C1090 C1094 1.531 . S
C1091 C1090 1.369 . S
C1091 C1092 1.410 . S
C1091 C1099 1.503 . S
C1092 C1091 1.410 . S
C1092 C1093 1.392 . S
C1092 C1095 1.511 . S
C1093 C1089 1.376 . S
C1093 C1092 1.392 . S
C1093 H1105 0.929 . S
C1094 C1090 1.531 . S
C1094 H1106 0.960 . S
C1094 H1107 0.962 . S
C1094 H1108 0.960 . S
C1095 C1092 1.511 . S
C1095 H1109 0.961 . S
C1095 H1110 0.961 . S
C1095 H1111 0.961 . S
C1096 C1097 1.370 . S
C1096 C1098 1.363 . S
C1096 H1112 0.931 . S
C1097 C1096 1.370 . S
C1097 C1101 1.408 . S
C1098 C1096 1.363 . S
C1098 C1099 1.370 . S
C1098 C1102 1.524 . S
C1099 C1091 1.503 . S
C1099 C1098 1.370 . S
C1099 C1100 1.403 . S
C1100 C1099 1.403 . S
C1100 C1101 1.404 . S
C1100 C1103 1.539 . S
C1101 C1097 1.408 . S
C1101 C1100 1.404 . S
C1101 H1113 0.930 . S
C1102 C1098 1.524 . S
C1102 H1114 0.956 . S
C1102 H1115 0.961 . S
C1102 H1116 0.961 . S
C1103 C1100 1.539 . S
C1103 H1117 0.958 . S
C1103 H1118 0.961 . S
C1103 H1119 0.960 . S
H1104 C1088 0.931 . S
H1105 C1093 0.929 . S
H1106 C1094 0.960 . S
H1107 C1094 0.962 . S
H1108 C1094 0.960 . S
H1109 C1095 0.961 . S
H1110 C1095 0.961 . S
H1111 C1095 0.961 . S
H1112 C1096 0.931 . S
H1113 C1101 0.930 . S
H1114 C1102 0.956 . S
H1115 C1102 0.961 . S
H1116 C1102 0.961 . S
H1117 C1103 0.958 . S
H1118 C1103 0.961 . S
H1119 C1103 0.960 . S
C1120 C1121 1.391 . S
C1120 C1122 1.394 . S
C1120 H1136 0.931 . S
C1121 C1120 1.391 . S
C1121 C1125 1.376 . S
C1122 C1120 1.394 . S
C1122 C1123 1.369 . S
C1122 C1126 1.531 . S
C1123 C1122 1.369 . S
C1123 C1124 1.410 . S
C1123 C1131 1.503 . S
C1124 C1123 1.410 . S
C1124 C1125 1.392 . S
C1124 C1127 1.511 . S
C1125 C1121 1.376 . S
C1125 C1124 1.392 . S
C1125 H1137 0.929 . S
C1126 C1122 1.531 . S
C1126 H1138 0.960 . S
C1126 H1139 0.962 . S
C1126 H1140 0.960 . S
C1127 C1124 1.511 . S
C1127 H1141 0.961 . S
C1127 H1142 0.961 . S
C1127 H1143 0.961 . S
C1128 C1129 1.370 . S
C1128 C1130 1.363 . S
C1128 H1144 0.931 . S
C1129 C1128 1.370 . S
C1129 C1133 1.408 . S
C1130 C1128 1.363 . S
C1130 C1131 1.370 . S
C1130 C1134 1.524 . S
C1131 C1123 1.503 . S
C1131 C1130 1.370 . S
C1131 C1132 1.403 . S
C1132 C1131 1.403 . S
C1132 C1133 1.404 . S
C1132 C1135 1.539 . S
C1133 C1129 1.408 . S
C1133 C1132 1.404 . S
C1133 H1145 0.930 . S
C1134 C1130 1.524 . S
C1134 H1146 0.956 . S
C1134 H1147 0.961 . S
C1134 H1148 0.961 . S
C1135 C1132 1.539 . S
C1135 H1149 0.958 . S
C1135 H1150 0.961 . S
C1135 H1151 0.960 . S
H1136 C1120 0.931 . S
H1137 C1125 0.929 . S
H1138 C1126 0.960 . S
H1139 C1126 0.962 . S
H1140 C1126 0.960 . S
H1141 C1127 0.961 . S
H1142 C1127 0.961 . S
H1143 C1127 0.961 . S
H1144 C1128 0.931 . S
H1145 C1133 0.930 . S
H1146 C1134 0.956 . S
H1147 C1134 0.961 . S
H1148 C1134 0.961 . S
H1149 C1135 0.958 . S
H1150 C1135 0.961 . S
H1151 C1135 0.960 . S
C1152 C1153 1.391 . S
C1152 C1154 1.394 . S
C1152 H1168 0.931 . S
C1153 C1152 1.391 . S
C1153 C1157 1.376 . S
C1154 C1152 1.394 . S
C1154 C1155 1.369 . S
C1154 C1158 1.531 . S
C1155 C1154 1.369 . S
C1155 C1156 1.410 . S
C1155 C1163 1.503 . S
C1156 C1155 1.410 . S
C1156 C1157 1.392 . S
C1156 C1159 1.511 . S
C1157 C1153 1.376 . S
C1157 C1156 1.392 . S
C1157 H1169 0.929 . S
C1158 C1154 1.531 . S
C1158 H1170 0.960 . S
C1158 H1171 0.962 . S
C1158 H1172 0.960 . S
C1159 C1156 1.511 . S
C1159 H1173 0.961 . S
C1159 H1174 0.961 . S
C1159 H1175 0.961 . S
C1160 C1161 1.370 . S
C1160 C1162 1.363 . S
C1160 H1176 0.931 . S
C1161 C1160 1.370 . S
C1161 C1165 1.408 . S
C1162 C1160 1.363 . S
C1162 C1163 1.370 . S
C1162 C1166 1.524 . S
C1163 C1155 1.503 . S
C1163 C1162 1.370 . S
C1163 C1164 1.403 . S
C1164 C1163 1.403 . S
C1164 C1165 1.404 . S
C1164 C1167 1.539 . S
C1165 C1161 1.408 . S
C1165 C1164 1.404 . S
C1165 H1177 0.930 . S
C1166 C1162 1.524 . S
C1166 H1178 0.956 . S
C1166 H1179 0.961 . S
C1166 H1180 0.961 . S
C1167 C1164 1.539 . S
C1167 H1181 0.958 . S
C1167 H1182 0.961 . S
C1167 H1183 0.960 . S
H1168 C1152 0.931 . S
H1169 C1157 0.929 . S
H1170 C1158 0.960 . S
H1171 C1158 0.962 . S
H1172 C1158 0.960 . S
H1173 C1159 0.961 . S
H1174 C1159 0.961 . S
H1175 C1159 0.961 . S
H1176 C1160 0.931 . S
H1177 C1165 0.930 . S
H1178 C1166 0.956 . S
H1179 C1166 0.961 . S
H1180 C1166 0.961 . S
H1181 C1167 0.958 . S
H1182 C1167 0.961 . S
H1183 C1167 0.960 . S
C1184 C1185 1.391 . S
C1184 C1186 1.394 . S
C1184 H1200 0.931 . S
C1185 C1184 1.391 . S
C1185 C1189 1.376 . S
C1186 C1184 1.394 . S
C1186 C1187 1.369 . S
C1186 C1190 1.531 . S
C1187 C1186 1.369 . S
C1187 C1188 1.410 . S
C1187 C1195 1.503 . S
C1188 C1187 1.410 . S
C1188 C1189 1.392 . S
C1188 C1191 1.511 . S
C1189 C1185 1.376 . S
C1189 C1188 1.392 . S
C1189 H1201 0.929 . S
C1190 C1186 1.531 . S
C1190 H1202 0.960 . S
C1190 H1203 0.962 . S
C1190 H1204 0.960 . S
C1191 C1188 1.511 . S
C1191 H1205 0.961 . S
C1191 H1206 0.961 . S
C1191 H1207 0.961 . S
C1192 C1193 1.370 . S
C1192 C1194 1.363 . S
C1192 H1208 0.931 . S
C1193 C1192 1.370 . S
C1193 C1197 1.408 . S
C1194 C1192 1.363 . S
C1194 C1195 1.370 . S
C1194 C1198 1.524 . S
C1195 C1187 1.503 . S
C1195 C1194 1.370 . S
C1195 C1196 1.403 . S
C1196 C1195 1.403 . S
C1196 C1197 1.404 . S
C1196 C1199 1.539 . S
C1197 C1193 1.408 . S
C1197 C1196 1.404 . S
C1197 H1209 0.930 . S
C1198 C1194 1.524 . S
C1198 H1210 0.956 . S
C1198 H1211 0.961 . S
C1198 H1212 0.961 . S
C1199 C1196 1.539 . S
C1199 H1213 0.958 . S
C1199 H1214 0.961 . S
C1199 H1215 0.960 . S
H1200 C1184 0.931 . S
H1201 C1189 0.929 . S
H1202 C1190 0.960 . S
H1203 C1190 0.962 . S
H1204 C1190 0.960 . S
H1205 C1191 0.961 . S
H1206 C1191 0.961 . S
H1207 C1191 0.961 . S
H1208 C1192 0.931 . S
H1209 C1197 0.930 . S
H1210 C1198 0.956 . S
H1211 C1198 0.961 . S
H1212 C1198 0.961 . S
H1213 C1199 0.958 . S
H1214 C1199 0.961 . S
H1215 C1199 0.960 . S
C1216 C1217 1.391 . S
C1216 C1218 1.394 . S
C1216 H1232 0.931 . S
C1217 C1216 1.391 . S
C1217 C1221 1.376 . S
C1218 C1216 1.394 . S
C1218 C1219 1.369 . S
C1218 C1222 1.531 . S
C1219 C1218 1.369 . S
C1219 C1220 1.410 . S
C1219 C1227 1.503 . S
C1220 C1219 1.410 . S
C1220 C1221 1.392 . S
C1220 C1223 1.511 . S
C1221 C1217 1.376 . S
C1221 C1220 1.392 . S
C1221 H1233 0.929 . S
C1222 C1218 1.531 . S
C1222 H1234 0.960 . S
C1222 H1235 0.962 . S
C1222 H1236 0.960 . S
C1223 C1220 1.511 . S
C1223 H1237 0.961 . S
C1223 H1238 0.961 . S
C1223 H1239 0.961 . S
C1224 C1225 1.370 . S
C1224 C1226 1.363 . S
C1224 H1240 0.931 . S
C1225 C1224 1.370 . S
C1225 C1229 1.408 . S
C1226 C1224 1.363 . S
C1226 C1227 1.370 . S
C1226 C1230 1.524 . S
C1227 C1219 1.503 . S
C1227 C1226 1.370 . S
C1227 C1228 1.403 . S
C1228 C1227 1.403 . S
C1228 C1229 1.404 . S
C1228 C1231 1.539 . S
C1229 C1225 1.408 . S
C1229 C1228 1.404 . S
C1229 H1241 0.930 . S
C1230 C1226 1.524 . S
C1230 H1242 0.956 . S
C1230 H1243 0.961 . S
C1230 H1244 0.961 . S
C1231 C1228 1.539 . S
C1231 H1245 0.958 . S
C1231 H1246 0.961 . S
C1231 H1247 0.960 . S
H1232 C1216 0.931 . S
H1233 C1221 0.929 . S
H1234 C1222 0.960 . S
H1235 C1222 0.962 . S
H1236 C1222 0.960 . S
H1237 C1223 0.961 . S
H1238 C1223 0.961 . S
H1239 C1223 0.961 . S
H1240 C1224 0.931 . S
H1241 C1229 0.930 . S
H1242 C1230 0.956 . S
H1243 C1230 0.961 . S
H1244 C1230 0.961 . S
H1245 C1231 0.958 . S
H1246 C1231 0.961 . S
H1247 C1231 0.960 . S
C1248 C1249 1.391 . S
C1248 C1250 1.394 . S
C1248 H1264 0.931 . S
C1249 C1248 1.391 . S
C1249 C1253 1.376 . S
C1250 C1248 1.394 . S
C1250 C1251 1.369 . S
C1250 C1254 1.531 . S
C1251 C1250 1.369 . S
C1251 C1252 1.410 . S
C1251 C1259 1.503 . S
C1252 C1251 1.410 . S
C1252 C1253 1.392 . S
C1252 C1255 1.511 . S
C1253 C1249 1.376 . S
C1253 C1252 1.392 . S
C1253 H1265 0.929 . S
C1254 C1250 1.531 . S
C1254 H1266 0.960 . S
C1254 H1267 0.962 . S
C1254 H1268 0.960 . S
C1255 C1252 1.511 . S
C1255 H1269 0.961 . S
C1255 H1270 0.961 . S
C1255 H1271 0.961 . S
C1256 C1257 1.370 . S
C1256 C1258 1.363 . S
C1256 H1272 0.931 . S
C1257 C1256 1.370 . S
C1257 C1261 1.408 . S
C1258 C1256 1.363 . S
C1258 C1259 1.370 . S
C1258 C1262 1.524 . S
C1259 C1251 1.503 . S
C1259 C1258 1.370 . S
C1259 C1260 1.403 . S
C1260 C1259 1.403 . S
C1260 C1261 1.404 . S
C1260 C1263 1.539 . S
C1261 C1257 1.408 . S
C1261 C1260 1.404 . S
C1261 H1273 0.930 . S
C1262 C1258 1.524 . S
C1262 H1274 0.956 . S
C1262 H1275 0.961 . S
C1262 H1276 0.961 . S
C1263 C1260 1.539 . S
C1263 H1277 0.958 . S
C1263 H1278 0.961 . S
C1263 H1279 0.960 . S
H1264 C1248 0.931 . S
H1265 C1253 0.929 . S
H1266 C1254 0.960 . S
H1267 C1254 0.962 . S
H1268 C1254 0.960 . S
H1269 C1255 0.961 . S
H1270 C1255 0.961 . S
H1271 C1255 0.961 . S
H1272 C1256 0.931 . S
H1273 C1261 0.930 . S
H1274 C1262 0.956 . S
H1275 C1262 0.961 . S
H1276 C1262 0.961 . S
H1277 C1263 0.958 . S
H1278 C1263 0.961 . S
H1279 C1263 0.960 . S
C1280 C1281 1.391 . S
C1280 C1282 1.394 . S
C1280 H1296 0.931 . S
C1281 C1280 1.391 . S
C1281 C1285 1.376 . S
C1282 C1280 1.394 . S
C1282 C1283 1.369 . S
C1282 C1286 1.531 . S
C1283 C1282 1.369 . S
C1283 C1284 1.410 . S
C1283 C1291 1.503 . S
C1284 C1283 1.410 . S
C1284 C1285 1.392 . S
C1284 C1287 1.511 . S
C1285 C1281 1.376 . S
C1285 C1284 1.392 . S
C1285 H1297 0.929 . S
C1286 C1282 1.531 . S
C1286 H1298 0.960 . S
C1286 H1299 0.962 . S
C1286 H1300 0.960 . S
C1287 C1284 1.511 . S
C1287 H1301 0.961 . S
C1287 H1302 0.961 . S
C1287 H1303 0.961 . S
C1288 C1289 1.370 . S
C1288 C1290 1.363 . S
C1288 H1304 0.931 . S
C1289 C1288 1.370 . S
C1289 C1293 1.408 . S
C1290 C1288 1.363 . S
C1290 C1291 1.370 . S
C1290 C1294 1.524 . S
C1291 C1283 1.503 . S
C1291 C1290 1.370 . S
C1291 C1292 1.403 . S
C1292 C1291 1.403 . S
C1292 C1293 1.404 . S
C1292 C1295 1.539 . S
C1293 C1289 1.408 . S
C1293 C1292 1.404 . S
C1293 H1305 0.930 . S
C1294 C1290 1.524 . S
C1294 H1306 0.956 . S
C1294 H1307 0.961 . S
C1294 H1308 0.961 . S
C1295 C1292 1.539 . S
C1295 H1309 0.958 . S
C1295 H1310 0.961 . S
C1295 H1311 0.960 . S
H1296 C1280 0.931 . S
H1297 C1285 0.929 . S
H1298 C1286 0.960 . S
H1299 C1286 0.962 . S
H1300 C1286 0.960 . S
H1301 C1287 0.961 . S
H1302 C1287 0.961 . S
H1303 C1287 0.961 . S
H1304 C1288 0.931 . S
H1305 C1293 0.930 . S
H1306 C1294 0.956 . S
H1307 C1294 0.961 . S
H1308 C1294 0.961 . S
H1309 C1295 0.958 . S
H1310 C1295 0.961 . S
H1311 C1295 0.960 . S
C1312 C1313 1.391 . S
C1312 C1314 1.394 . S
C1312 H1328 0.931 . S
C1313 C1312 1.391 . S
C1313 C1317 1.376 . S
C1314 C1312 1.394 . S
C1314 C1315 1.369 . S
C1314 C1318 1.531 . S
C1315 C1314 1.369 . S
C1315 C1316 1.410 . S
C1315 C1323 1.503 . S
C1316 C1315 1.410 . S
C1316 C1317 1.392 . S
C1316 C1319 1.511 . S
C1317 C1313 1.376 . S
C1317 C1316 1.392 . S
C1317 H1329 0.929 . S
C1318 C1314 1.531 . S
C1318 H1330 0.960 . S
C1318 H1331 0.962 . S
C1318 H1332 0.960 . S
C1319 C1316 1.511 . S
C1319 H1333 0.961 . S
C1319 H1334 0.961 . S
C1319 H1335 0.961 . S
C1320 C1321 1.370 . S
C1320 C1322 1.363 . S
C1320 H1336 0.931 . S
C1321 C1320 1.370 . S
C1321 C1325 1.408 . S
C1322 C1320 1.363 . S
C1322 C1323 1.370 . S
C1322 C1326 1.524 . S
C1323 C1315 1.503 . S
C1323 C1322 1.370 . S
C1323 C1324 1.403 . S
C1324 C1323 1.403 . S
C1324 C1325 1.404 . S
C1324 C1327 1.539 . S
C1325 C1321 1.408 . S
C1325 C1324 1.404 . S
C1325 H1337 0.930 . S
C1326 C1322 1.524 . S
C1326 H1338 0.956 . S
C1326 H1339 0.961 . S
C1326 H1340 0.961 . S
C1327 C1324 1.539 . S
C1327 H1341 0.958 . S
C1327 H1342 0.961 . S
C1327 H1343 0.960 . S
H1328 C1312 0.931 . S
H1329 C1317 0.929 . S
H1330 C1318 0.960 . S
H1331 C1318 0.962 . S
H1332 C1318 0.960 . S
H1333 C1319 0.961 . S
H1334 C1319 0.961 . S
H1335 C1319 0.961 . S
H1336 C1320 0.931 . S
H1337 C1325 0.930 . S
H1338 C1326 0.956 . S
H1339 C1326 0.961 . S
H1340 C1326 0.961 . S
H1341 C1327 0.958 . S
H1342 C1327 0.961 . S
H1343 C1327 0.960 . S
C1344 C1345 1.391 . S
C1344 C1346 1.394 . S
C1344 H1360 0.931 . S
C1345 C1344 1.391 . S
C1345 C1349 1.376 . S
C1346 C1344 1.394 . S
C1346 C1347 1.369 . S
C1346 C1350 1.531 . S
C1347 C1346 1.369 . S
C1347 C1348 1.410 . S
C1347 C1355 1.503 . S
C1348 C1347 1.410 . S
C1348 C1349 1.392 . S
C1348 C1351 1.511 . S
C1349 C1345 1.376 . S
C1349 C1348 1.392 . S
C1349 H1361 0.929 . S
C1350 C1346 1.531 . S
C1350 H1362 0.960 . S
C1350 H1363 0.962 . S
C1350 H1364 0.960 . S
C1351 C1348 1.511 . S
C1351 H1365 0.961 . S
C1351 H1366 0.961 . S
C1351 H1367 0.961 . S
C1352 C1353 1.370 . S
C1352 C1354 1.363 . S
C1352 H1368 0.931 . S
C1353 C1352 1.370 . S
C1353 C1357 1.408 . S
C1354 C1352 1.363 . S
C1354 C1355 1.370 . S
C1354 C1358 1.524 . S
C1355 C1347 1.503 . S
C1355 C1354 1.370 . S
C1355 C1356 1.403 . S
C1356 C1355 1.403 . S
C1356 C1357 1.404 . S
C1356 C1359 1.539 . S
C1357 C1353 1.408 . S
C1357 C1356 1.404 . S
C1357 H1369 0.930 . S
C1358 C1354 1.524 . S
C1358 H1370 0.956 . S
C1358 H1371 0.961 . S
C1358 H1372 0.961 . S
C1359 C1356 1.539 . S
C1359 H1373 0.958 . S
C1359 H1374 0.961 . S
C1359 H1375 0.960 . S
H1360 C1344 0.931 . S
H1361 C1349 0.929 . S
H1362 C1350 0.960 . S
H1363 C1350 0.962 . S
H1364 C1350 0.960 . S
H1365 C1351 0.961 . S
H1366 C1351 0.961 . S
H1367 C1351 0.961 . S
H1368 C1352 0.931 . S
H1369 C1357 0.930 . S
H1370 C1358 0.956 . S
H1371 C1358 0.961 . S
H1372 C1358 0.961 . S
H1373 C1359 0.958 . S
H1374 C1359 0.961 . S
H1375 C1359 0.960 . S
C1376 C1377 1.391 . S
C1376 C1378 1.394 . S
C1376 H1392 0.931 . S
C1377 C1376 1.391 . S
C1377 C1381 1.376 . S
C1378 C1376 1.394 . S
C1378 C1379 1.369 . S
C1378 C1382 1.531 . S
C1379 C1378 1.369 . S
C1379 C1380 1.410 . S
C1379 C1387 1.503 . S
C1380 C1379 1.410 . S
C1380 C1381 1.392 . S
C1380 C1383 1.511 . S
C1381 C1377 1.376 . S
C1381 C1380 1.392 . S
C1381 H1393 0.929 . S
C1382 C1378 1.531 . S
C1382 H1394 0.960 . S
C1382 H1395 0.962 . S
C1382 H1396 0.960 . S
C1383 C1380 1.511 . S
C1383 H1397 0.961 . S
C1383 H1398 0.961 . S
C1383 H1399 0.961 . S
C1384 C1385 1.370 . S
C1384 C1386 1.363 . S
C1384 H1400 0.931 . S
C1385 C1384 1.370 . S
C1385 C1389 1.408 . S
C1386 C1384 1.363 . S
C1386 C1387 1.370 . S
C1386 C1390 1.524 . S
C1387 C1379 1.503 . S
C1387 C1386 1.370 . S
C1387 C1388 1.403 . S
C1388 C1387 1.403 . S
C1388 C1389 1.404 . S
C1388 C1391 1.539 . S
C1389 C1385 1.408 . S
C1389 C1388 1.404 . S
C1389 H1401 0.930 . S
C1390 C1386 1.524 . S
C1390 H1402 0.956 . S
C1390 H1403 0.961 . S
C1390 H1404 0.961 . S
C1391 C1388 1.539 . S
C1391 H1405 0.958 . S
C1391 H1406 0.961 . S
C1391 H1407 0.960 . S
H1392 C1376 0.931 . S
H1393 C1381 0.929 . S
H1394 C1382 0.960 . S
H1395 C1382 0.962 . S
H1396 C1382 0.960 . S
H1397 C1383 0.961 . S
H1398 C1383 0.961 . S
H1399 C1383 0.961 . S
H1400 C1384 0.931 . S
H1401 C1389 0.930 . S
H1402 C1390 0.956 . S
H1403 C1390 0.961 . S
H1404 C1390 0.961 . S
H1405 C1391 0.958 . S
H1406 C1391 0.961 . S
H1407 C1391 0.960 . S
C1408 C1409 1.391 . S
C1408 C1410 1.394 . S
C1408 H1424 0.931 . S
C1409 C1408 1.391 . S
C1409 C1413 1.376 . S
C1410 C1408 1.394 . S
C1410 C1411 1.369 . S
C1410 C1414 1.531 . S
C1411 C1410 1.369 . S
C1411 C1412 1.410 . S
C1411 C1419 1.503 . S
C1412 C1411 1.410 . S
C1412 C1413 1.392 . S
C1412 C1415 1.511 . S
C1413 C1409 1.376 . S
C1413 C1412 1.392 . S
C1413 H1425 0.929 . S
C1414 C1410 1.531 . S
C1414 H1426 0.960 . S
C1414 H1427 0.962 . S
C1414 H1428 0.960 . S
C1415 C1412 1.511 . S
C1415 H1429 0.961 . S
C1415 H1430 0.961 . S
C1415 H1431 0.961 . S
C1416 C1417 1.370 . S
C1416 C1418 1.363 . S
C1416 H1432 0.931 . S
C1417 C1416 1.370 . S
C1417 C1421 1.408 . S
C1418 C1416 1.363 . S
C1418 C1419 1.370 . S
C1418 C1422 1.524 . S
C1419 C1411 1.503 . S
C1419 C1418 1.370 . S
C1419 C1420 1.403 . S
C1420 C1419 1.403 . S
C1420 C1421 1.404 . S
C1420 C1423 1.539 . S
C1421 C1417 1.408 . S
C1421 C1420 1.404 . S
C1421 H1433 0.930 . S
C1422 C1418 1.524 . S
C1422 H1434 0.956 . S
C1422 H1435 0.961 . S
C1422 H1436 0.961 . S
C1423 C1420 1.539 . S
C1423 H1437 0.958 . S
C1423 H1438 0.961 . S
C1423 H1439 0.960 . S
H1424 C1408 0.931 . S
H1425 C1413 0.929 . S
H1426 C1414 0.960 . S
H1427 C1414 0.962 . S
H1428 C1414 0.960 . S
H1429 C1415 0.961 . S
H1430 C1415 0.961 . S
H1431 C1415 0.961 . S
H1432 C1416 0.931 . S
H1433 C1421 0.930 . S
H1434 C1422 0.956 . S
H1435 C1422 0.961 . S
H1436 C1422 0.961 . S
H1437 C1423 0.958 . S
H1438 C1423 0.961 . S
H1439 C1423 0.960 . S
C1440 C1441 1.391 . S
C1440 C1442 1.394 . S
C1440 H1456 0.931 . S
C1441 C1440 1.391 . S
C1441 C1445 1.376 . S
C1442 C1440 1.394 . S
C1442 C1443 1.369 . S
C1442 C1446 1.531 . S
C1443 C1442 1.369 . S
C1443 C1444 1.410 . S
C1443 C1451 1.503 1_556 S
C1444 C1443 1.410 . S
C1444 C1445 1.392 . S
C1444 C1447 1.511 . S
C1445 C1441 1.376 . S
C1445 C1444 1.392 . S
C1445 H1457 0.929 . S
C1446 C1442 1.531 . S
C1446 H1458 0.960 1_556 S
C1446 H1459 0.962 . S
C1446 H1460 0.960 . S
C1447 C1444 1.511 . S
C1447 H1461 0.961 . S
C1447 H1462 0.936 1_556 S
C1447 H1463 0.961 . S
C1448 C1449 1.370 . S
C1448 C1450 1.363 . S
C1448 H1464 0.931 . S
C1449 C1448 1.370 . S
C1449 C1453 1.408 . S
C1450 C1448 1.363 . S
C1450 C1451 1.370 . S
C1450 C1454 1.524 . S
C1451 C1443 1.503 1_554 S
C1451 C1450 1.370 . S
C1451 C1452 1.403 . S
C1452 C1451 1.403 . S
C1452 C1453 1.404 . S
C1452 C1455 1.539 . S
C1453 C1449 1.408 . S
C1453 C1452 1.404 . S
C1453 H1465 0.930 . S
C1454 C1450 1.524 . S
C1454 H1466 0.956 . S
C1454 H1467 0.961 . S
C1454 H1468 0.961 . S
C1455 C1452 1.539 . S
C1455 H1469 0.958 . S
C1455 H1470 0.961 . S
C1455 H1471 0.960 1_554 S
H1456 C1440 0.931 . S
H1457 C1445 0.929 . S
H1458 C1446 0.960 1_554 S
H1459 C1446 0.962 . S
H1460 C1446 0.960 . S
H1461 C1447 0.961 . S
H1462 C1447 0.936 1_554 S
H1463 C1447 0.961 . S
H1464 C1448 0.931 . S
H1465 C1453 0.930 . S
H1466 C1454 0.956 . S
H1467 C1454 0.961 . S
H1468 C1454 0.961 . S
H1469 C1455 0.958 . S
H1470 C1455 0.961 . S
H1471 C1455 0.960 1_556 S
C1472 C1473 1.391 . S
C1472 C1474 1.394 . S
C1472 H1488 0.931 . S
C1473 C1472 1.391 . S
C1473 C1477 1.376 . S
C1474 C1472 1.394 . S
C1474 C1475 1.369 . S
C1474 C1478 1.531 . S
C1475 C1474 1.369 . S
C1475 C1476 1.410 . S
C1475 C1483 1.503 1_554 S
C1476 C1475 1.410 . S
C1476 C1477 1.392 . S
C1476 C1479 1.511 . S
C1477 C1473 1.376 . S
C1477 C1476 1.392 . S
C1477 H1489 0.929 . S
C1478 C1474 1.531 . S
C1478 H1490 0.960 . S
C1478 H1491 0.962 . S
C1478 H1492 0.960 . S
C1479 C1476 1.511 . S
C1479 H1493 0.961 . S
C1479 H1494 0.961 1_554 S
C1479 H1495 0.961 . S
C1480 C1481 1.370 . S
C1480 C1482 1.363 . S
C1480 H1496 0.931 . S
C1481 C1480 1.370 . S
C1481 C1485 1.408 . S
C1482 C1480 1.363 . S
C1482 C1483 1.370 . S
C1482 C1486 1.524 . S
C1483 C1475 1.503 1_556 S
C1483 C1482 1.370 . S
C1483 C1484 1.403 . S
C1484 C1483 1.403 . S
C1484 C1485 1.404 . S
C1484 C1487 1.539 . S
C1485 C1481 1.408 . S
C1485 C1484 1.404 . S
C1485 H1497 0.930 . S
C1486 C1482 1.524 . S
C1486 H1498 0.956 . S
C1486 H1499 0.961 . S
C1486 H1500 0.961 . S
C1487 C1484 1.539 . S
C1487 H1501 0.958 . S
C1487 H1502 0.961 . S
C1487 H1503 0.894 1_556 S
H1488 C1472 0.931 . S
H1489 C1477 0.929 . S
H1490 C1478 0.960 . S
H1491 C1478 0.962 . S
H1492 C1478 0.960 . S
H1493 C1479 0.961 . S
H1494 C1479 0.961 1_556 S
H1495 C1479 0.961 . S
H1496 C1480 0.931 . S
H1497 C1485 0.930 . S
H1498 C1486 0.956 . S
H1499 C1486 0.961 . S
H1500 C1486 0.961 . S
H1501 C1487 0.958 . S
H1502 C1487 0.961 . S
H1503 C1487 0.894 1_554 S
C1504 C1505 1.391 . S
C1504 C1506 1.394 . S
C1504 H1520 0.931 . S
C1505 C1504 1.391 . S
C1505 C1509 1.376 . S
C1506 C1504 1.394 . S
C1506 C1507 1.369 . S
C1506 C1510 1.531 . S
C1507 C1506 1.369 . S
C1507 C1508 1.410 . S
C1507 C1515 1.503 . S
C1508 C1507 1.410 . S
C1508 C1509 1.392 . S
C1508 C1511 1.511 . S
C1509 C1505 1.376 . S
C1509 C1508 1.392 . S
C1509 H1521 0.929 . S
C1510 C1506 1.531 . S
C1510 H1522 0.960 . S
C1510 H1523 0.962 . S
C1510 H1524 0.960 . S
C1511 C1508 1.511 . S
C1511 H1525 0.961 . S
C1511 H1526 0.961 . S
C1511 H1527 0.961 . S
C1512 C1513 1.370 . S
C1512 C1514 1.363 . S
C1512 H1528 0.931 . S
C1513 C1512 1.370 . S
C1513 C1517 1.408 . S
C1514 C1512 1.363 . S
C1514 C1515 1.370 . S
C1514 C1518 1.524 . S
C1515 C1507 1.503 . S
C1515 C1514 1.370 . S
C1515 C1516 1.403 . S
C1516 C1515 1.403 . S
C1516 C1517 1.404 . S
C1516 C1519 1.539 . S
C1517 C1513 1.408 . S
C1517 C1516 1.404 . S
C1517 H1529 0.930 . S
C1518 C1514 1.524 . S
C1518 H1530 0.956 . S
C1518 H1531 0.961 . S
C1518 H1532 0.961 . S
C1519 C1516 1.539 . S
C1519 H1533 0.958 . S
C1519 H1534 0.961 . S
C1519 H1535 0.960 . S
H1520 C1504 0.931 . S
H1521 C1509 0.929 . S
H1522 C1510 0.960 . S
H1523 C1510 0.962 . S
H1524 C1510 0.960 . S
H1525 C1511 0.961 . S
H1526 C1511 0.961 . S
H1527 C1511 0.961 . S
H1528 C1512 0.931 . S
H1529 C1517 0.930 . S
H1530 C1518 0.956 . S
H1531 C1518 0.961 . S
H1532 C1518 0.961 . S
H1533 C1519 0.958 . S
H1534 C1519 0.961 . S
H1535 C1519 0.960 . S
C1536 C1537 1.391 . S
C1536 C1538 1.394 . S
C1536 H1552 0.931 . S
C1537 C1536 1.391 . S
C1537 C1541 1.376 . S
C1538 C1536 1.394 . S
C1538 C1539 1.369 . S
C1538 C1542 1.531 . S
C1539 C1538 1.369 . S
C1539 C1540 1.410 . S
C1539 C1547 1.503 . S
C1540 C1539 1.410 . S
C1540 C1541 1.392 . S
C1540 C1543 1.511 . S
C1541 C1537 1.376 . S
C1541 C1540 1.392 . S
C1541 H1553 0.929 . S
C1542 C1538 1.531 . S
C1542 H1554 0.960 . S
C1542 H1555 0.962 . S
C1542 H1556 0.960 . S
C1543 C1540 1.511 . S
C1543 H1557 0.961 . S
C1543 H1558 0.961 . S
C1543 H1559 0.961 . S
C1544 C1545 1.370 . S
C1544 C1546 1.363 . S
C1544 H1560 0.931 . S
C1545 C1544 1.370 . S
C1545 C1549 1.408 . S
C1546 C1544 1.363 . S
C1546 C1547 1.370 . S
C1546 C1550 1.524 . S
C1547 C1539 1.503 . S
C1547 C1546 1.370 . S
C1547 C1548 1.403 . S
C1548 C1547 1.403 . S
C1548 C1549 1.404 . S
C1548 C1551 1.539 . S
C1549 C1545 1.408 . S
C1549 C1548 1.404 . S
C1549 H1561 0.930 . S
C1550 C1546 1.524 . S
C1550 H1562 0.956 . S
C1550 H1563 0.961 . S
C1550 H1564 0.961 . S
C1551 C1548 1.539 . S
C1551 H1565 0.958 . S
C1551 H1566 0.961 . S
C1551 H1567 0.960 . S
H1552 C1536 0.931 . S
H1553 C1541 0.929 . S
H1554 C1542 0.960 . S
H1555 C1542 0.962 . S
H1556 C1542 0.960 . S
H1557 C1543 0.961 . S
H1558 C1543 0.961 . S
H1559 C1543 0.961 . S
H1560 C1544 0.931 . S
H1561 C1549 0.930 . S
H1562 C1550 0.956 . S
H1563 C1550 0.961 . S
H1564 C1550 0.961 . S
H1565 C1551 0.958 . S
H1566 C1551 0.961 . S
H1567 C1551 0.960 . S
C1568 C1569 1.391 . S
C1568 C1570 1.394 . S
C1568 H1584 0.931 . S
C1569 C1568 1.391 . S
C1569 C1573 1.376 . S
C1570 C1568 1.394 . S
C1570 C1571 1.369 . S
C1570 C1574 1.531 . S
C1571 C1570 1.369 . S
C1571 C1572 1.410 . S
C1571 C1579 1.503 . S
C1572 C1571 1.410 . S
C1572 C1573 1.392 . S
C1572 C1575 1.511 . S
C1573 C1569 1.376 . S
C1573 C1572 1.392 . S
C1573 H1585 0.929 . S
C1574 C1570 1.531 . S
C1574 H1586 0.960 . S
C1574 H1587 0.962 . S
C1574 H1588 0.960 . S
C1575 C1572 1.511 . S
C1575 H1589 0.961 . S
C1575 H1590 0.961 . S
C1575 H1591 0.961 . S
C1576 C1577 1.370 . S
C1576 C1578 1.363 . S
C1576 H1592 0.931 . S
C1577 C1576 1.370 . S
C1577 C1581 1.408 . S
C1578 C1576 1.363 . S
C1578 C1579 1.370 . S
C1578 C1582 1.524 . S
C1579 C1571 1.503 . S
C1579 C1578 1.370 . S
C1579 C1580 1.403 . S
C1580 C1579 1.403 . S
C1580 C1581 1.404 . S
C1580 C1583 1.539 . S
C1581 C1577 1.408 . S
C1581 C1580 1.404 . S
C1581 H1593 0.930 . S
C1582 C1578 1.524 . S
C1582 H1594 0.956 . S
C1582 H1595 0.961 . S
C1582 H1596 0.961 . S
C1583 C1580 1.539 . S
C1583 H1597 0.958 . S
C1583 H1598 0.961 . S
C1583 H1599 0.960 . S
H1584 C1568 0.931 . S
H1585 C1573 0.929 . S
H1586 C1574 0.960 . S
H1587 C1574 0.962 . S
H1588 C1574 0.960 . S
H1589 C1575 0.961 . S
H1590 C1575 0.961 . S
H1591 C1575 0.961 . S
H1592 C1576 0.931 . S
H1593 C1581 0.930 . S
H1594 C1582 0.956 . S
H1595 C1582 0.961 . S
H1596 C1582 0.961 . S
H1597 C1583 0.958 . S
H1598 C1583 0.961 . S
H1599 C1583 0.960 . S
C577 C374 1.448 . S
C585 C14 1.458 . S
C609 C50 1.432 . S
C617 C410 1.431 . S
C641 C302 1.420 . S
C649 C86 1.428 . S
C673 C338 1.408 . S
C681 C122 1.432 . S
C705 C158 1.412 . S
C713 C518 1.445 . S
C737 C554 1.472 . S
C745 C194 1.455 . S
C769 C230 1.474 . S
C777 C446 1.457 . S
C801 C482 1.426 . S
C809 C266 1.430 . S
C833 C362 1.529 . S
C841 C2 1.521 . S
C865 C38 1.508 . S
C873 C398 1.528 . S
C897 C74 1.517 . S
C905 C290 1.520 . S
C929 C110 1.520 . S
C937 C326 1.517 . S
C961 C146 1.517 . S
C969 C506 1.518 . S
C993 C182 1.517 . S
C1001 C542 1.525 . S
C1025 C434 1.514 . S
C1033 C218 1.527 . S
C1057 C470 1.514 . S
C1065 C254 1.527 . S
C1089 C4 1.279 . S
C1097 C220 1.258 . S
C1121 C40 1.284 . S
C1129 C256 1.264 . S
C1153 C76 1.280 . S
C1161 C148 1.259 . S
C1185 C112 1.239 . S
C1193 C184 1.239 . S
C1217 C292 1.217 . S
C1225 C508 1.244 . S
C1249 C544 1.222 . S
C1257 C328 1.236 . S
C1281 C364 1.211 . S
C1289 C436 1.239 . S
C1313 C472 1.246 . S
C1321 C400 1.242 . S
C1345 C3 1.288 . S
C1353 C543 1.257 . S
C1377 C435 1.289 . S
C1385 C39 1.258 . S
C1409 C471 1.290 . S
C1417 C75 1.261 . S
C1441 C507 1.290 . S
C1449 C111 1.258 . S
C1473 C327 1.260 . S
C1481 C147 1.256 . S
C1505 C363 1.289 . S
C1513 C183 1.257 . S
C1537 C219 1.235 . S
C1545 C399 1.272 . S
C1569 C255 1.262 . S
C1577 C291 1.256 . S
