# Generated by pormake.
# Topology unj, (4)-cn, num edge types: 1
# Building blocks:
#     Node 0, Type 0, BuildingBlock: GALJAG_clean_sbu_0, # of connection points: 4
#     Node 1, Type 0, BuildingBlock: GALJAG_clean_sbu_0, # of connection points: 4
#     Node 2, Type 0, BuildingBlock: GALJAG_clean_sbu_0, # of connection points: 4
#     Node 3, Type 0, BuildingBlock: GALJAG_clean_sbu_0, # of connection points: 4
#     Node 4, Type 0, BuildingBlock: GALJAG_clean_sbu_0, # of connection points: 4
#     Node 5, Type 0, BuildingBlock: GALJAG_clean_sbu_0, # of connection points: 4
#     Edge 6, Type (0, 0), BuildingBlock: UVAHIK_clean_linker_0, # of connection points: 2
#     Edge 7, Type (0, 0), BuildingBlock: UVAHIK_clean_linker_0, # of connection points: 2
#     Edge 8, Type (0, 0), BuildingBlock: UVAHIK_clean_linker_0, # of connection points: 2
#     Edge 9, Type (0, 0), BuildingBlock: UVAHIK_clean_linker_0, # of connection points: 2
#     Edge 10, Type (0, 0), BuildingBlock: UVAHIK_clean_linker_0, # of connection points: 2
#     Edge 11, Type (0, 0), BuildingBlock: UVAHIK_clean_linker_0, # of connection points: 2
#     Edge 12, Type (0, 0), BuildingBlock: UVAHIK_clean_linker_0, # of connection points: 2
#     Edge 13, Type (0, 0), BuildingBlock: UVAHIK_clean_linker_0, # of connection points: 2
#     Edge 14, Type (0, 0), BuildingBlock: UVAHIK_clean_linker_0, # of connection points: 2
#     Edge 15, Type (0, 0), BuildingBlock: UVAHIK_clean_linker_0, # of connection points: 2
#     Edge 16, Type (0, 0), BuildingBlock: UVAHIK_clean_linker_0, # of connection points: 2
#     Edge 17, Type (0, 0), BuildingBlock: UVAHIK_clean_linker_0, # of connection points: 2
# Relax obj value: 0.013
# Max RMSD: 0.059
# Mean RMSD: 0.059
data_MOF--net-unj--node1-GALJAG_clean_sbu_0--edge1-UVAHIK_clean_linker_0
_symmetry_space_group_name_H-M    P1
_symmetry_Int_Tables_number       1
_symmetry_cell_setting            triclinic
loop_
_symmetry_equiv_pos_as_xyz
'x, y, z'
_cell_length_a     40.094773
_cell_length_b     40.039979
_cell_length_c     52.175174
_cell_angle_alpha  90.051115
_cell_angle_beta   89.987751
_cell_angle_gamma 119.95657
loop_
_atom_site_label
_atom_site_type_symbol
_atom_site_fract_x
_atom_site_fract_y
_atom_site_fract_z
_atom_type_partial_charge
In0 In 0.51272 0.2524 0.58074 0.0
O1 O 0.56412 0.28334 0.55343 0.0
O2 O 0.51277 0.28359 0.5442 0.0
C3 C 0.54949 0.248 0.62284 0.0
C4 C 0.47582 0.18026 0.56154 0.0
C5 C 0.47542 0.28554 0.60266 0.0
O6 O 0.56426 0.27662 0.6079 0.0
O7 O 0.51668 0.22122 0.61617 0.0
O8 O 0.4583 0.25568 0.58892 0.0
O9 O 0.51113 0.29878 0.60499 0.0
C10 C 0.54673 0.29338 0.53783 0.0
O11 O 0.4582 0.19559 0.5718 0.0
O12 O 0.51202 0.20109 0.56139 0.0
In13 In 0.24797 0.50122 0.74601 0.0
O14 O 0.25221 0.4479 0.7367 0.0
O15 O 0.29978 0.50291 0.72703 0.0
C16 C 0.17566 0.46014 0.76486 0.0
C17 C 0.24472 0.5341 0.70171 0.0
C18 C 0.2871 0.5416 0.78803 0.0
O19 O 0.19841 0.447 0.76419 0.0
O20 O 0.1891 0.49343 0.75559 0.0
O21 O 0.26768 0.55147 0.77427 0.0
O22 O 0.28762 0.51209 0.78026 0.0
C23 C 0.28534 0.46672 0.72681 0.0
O24 O 0.26317 0.55379 0.72097 0.0
O25 O 0.22756 0.49809 0.70496 0.0
In26 In 0.74014 0.25056 0.91584 0.0
O27 O 0.71652 0.27723 0.88741 0.0
O28 O 0.70556 0.22053 0.87997 0.0
C29 C 0.74263 0.28733 0.95991 0.0
C30 C 0.81212 0.28284 0.89637 0.0
C31 C 0.70288 0.17856 0.9348 0.0
O32 O 0.72219 0.28588 0.94107 0.0
O33 O 0.7622 0.27104 0.95628 0.0
O34 O 0.73791 0.19514 0.92832 0.0
O35 O 0.68648 0.19818 0.93137 0.0
C36 C 0.70176 0.24842 0.87264 0.0
O37 O 0.79233 0.24737 0.90135 0.0
O38 O 0.79593 0.30205 0.90167 0.0
In39 In 0.47253 0.73801 0.08031 0.0
O40 O 0.42205 0.71326 0.05208 0.0
O41 O 0.46931 0.70492 0.04405 0.0
C42 C 0.43526 0.73971 0.12297 0.0
C43 C 0.51128 0.80896 0.05958 0.0
C44 C 0.51022 0.70536 0.10208 0.0
O45 O 0.42128 0.71128 0.10787 0.0
O46 O 0.46734 0.76746 0.11619 0.0
O47 O 0.52646 0.74101 0.09734 0.0
O48 O 0.47534 0.68631 0.09546 0.0
C49 C 0.43704 0.69984 0.03698 0.0
O50 O 0.52721 0.78929 0.06448 0.0
O51 O 0.4761 0.793 0.06546 0.0
In52 In 0.73738 0.4923 0.24653 0.0
O53 O 0.72964 0.43971 0.22378 0.0
O54 O 0.74665 0.49179 0.20358 0.0
C55 C 0.70137 0.4597 0.29106 0.0
C56 C 0.69853 0.52733 0.23084 0.0
C57 C 0.81179 0.52916 0.26151 0.0
O58 O 0.69684 0.44002 0.27109 0.0
O59 O 0.72332 0.49547 0.28832 0.0
O60 O 0.79398 0.54675 0.25604 0.0
O61 O 0.79237 0.49308 0.25881 0.0
C62 C 0.73818 0.45701 0.20249 0.0
O63 O 0.73432 0.54546 0.23508 0.0
O64 O 0.68214 0.4915 0.23499 0.0
In65 In 0.24538 0.74015 0.41511 0.0
O66 O 0.19614 0.74444 0.39621 0.0
O67 O 0.18755 0.68869 0.40384 0.0
C68 C 0.28232 0.81179 0.43478 0.0
C69 C 0.28444 0.74065 0.37278 0.0
C70 C 0.24293 0.70358 0.45909 0.0
O71 O 0.24665 0.79417 0.43001 0.0
O72 O 0.29943 0.79343 0.42925 0.0
O73 O 0.26179 0.70324 0.4398 0.0
O74 O 0.22499 0.72166 0.45598 0.0
C75 C 0.17404 0.70851 0.39458 0.0
O76 O 0.26883 0.71211 0.3877 0.0
O77 O 0.28116 0.76909 0.37955 0.0
C78 C 0.41537 0.12103 0.54795 0.0
C79 C 0.4557 0.14157 0.54974 0.0
C80 C 0.39648 0.08523 0.53566 0.0
C81 C 0.41335 0.02579 0.48879 0.0
H82 H 0.31709 0.943 0.51536 0.0
C83 C 0.3423 0.86967 0.45044 0.0
C84 C 0.30225 0.85034 0.44678 0.0
C85 C 0.36098 0.90553 0.46264 0.0
C86 C 0.34376 0.96599 0.50758 0.0
H87 H 0.50789 0.14047 0.54059 0.0
H88 H 0.47496 0.07769 0.51962 0.0
H89 H 0.34989 0.00446 0.53804 0.0
H90 H 0.25036 0.85346 0.4528 0.0
H91 H 0.28302 0.91613 0.47413 0.0
H92 H 0.40734 0.98708 0.45847 0.0
C93 C 0.45789 0.08951 0.52722 0.0
C94 C 0.36255 0.00122 0.52055 0.0
C95 C 0.47676 0.12536 0.5394 0.0
C96 C 0.28127 0.86769 0.45536 0.0
C97 C 0.29991 0.90343 0.46771 0.0
C98 C 0.39466 0.9905 0.4759 0.0
C99 C 0.41754 0.06915 0.525 0.0
C100 C 0.39758 0.03156 0.51131 0.0
C101 C 0.33995 0.92266 0.47157 0.0
C102 C 0.35966 0.96023 0.48515 0.0
H103 H 0.39839 0.1329 0.55565 0.0
H104 H 0.36542 0.07056 0.53404 0.0
H105 H 0.43991 0.04875 0.48087 0.0
H106 H 0.35921 0.85697 0.44406 0.0
H107 H 0.39181 0.91949 0.46555 0.0
C108 C 0.47341 0.32955 0.63564 0.0
C109 C 0.45538 0.30337 0.61549 0.0
C110 C 0.45464 0.34638 0.64808 0.0
C111 C 0.35799 0.33653 0.65724 0.0
H112 H 0.41897 0.44178 0.68136 0.0
C113 C 0.3372 0.46901 0.69913 0.0
C114 C 0.30515 0.44787 0.71501 0.0
C115 C 0.35522 0.45103 0.68714 0.0
C116 C 0.40135 0.41253 0.6745 0.0
H117 H 0.40374 0.27436 0.59235 0.0
H118 H 0.37142 0.30494 0.61332 0.0
H119 H 0.45024 0.41173 0.6591 0.0
H120 H 0.26712 0.39156 0.73122 0.0
H121 H 0.29943 0.36037 0.71113 0.0
H122 H 0.30882 0.33807 0.67155 0.0
C123 C 0.39963 0.31171 0.62009 0.0
C124 C 0.41944 0.39499 0.66206 0.0
C125 C 0.41822 0.29437 0.60792 0.0
C126 C 0.29171 0.4085 0.71897 0.0
C127 C 0.31007 0.3906 0.70727 0.0
C128 C 0.3398 0.35428 0.66938 0.0
C129 C 0.41761 0.33796 0.64036 0.0
C130 C 0.39807 0.35669 0.65335 0.0
C131 C 0.34196 0.41158 0.69107 0.0
C132 C 0.36125 0.3925 0.67823 0.0
H133 H 0.50192 0.33669 0.64206 0.0
H134 H 0.46911 0.3657 0.66396 0.0
H135 H 0.34058 0.30685 0.65112 0.0
H136 H 0.34797 0.49935 0.69555 0.0
H137 H 0.37916 0.46802 0.67444 0.0
C138 C 0.86836 0.2783 0.87986 0.0
C139 C 0.85029 0.3002 0.88403 0.0
C140 C 0.90356 0.29429 0.86693 0.0
C141 C 0.96198 0.36972 0.82044 0.0
H142 H 0.04654 0.35789 0.84548 0.0
C143 C 0.11481 0.45719 0.77899 0.0
C144 C 0.13712 0.43926 0.77671 0.0
C145 C 0.07924 0.43855 0.79139 0.0
C146 C 0.02302 0.36095 0.83799 0.0
H147 H 0.85507 0.35607 0.87832 0.0
H148 H 0.91643 0.38389 0.85568 0.0
H149 H 0.98583 0.32867 0.86904 0.0
H150 H 0.13947 0.3875 0.78518 0.0
H151 H 0.07683 0.35448 0.80643 0.0
H152 H -0.00123 0.40165 0.78931 0.0
C153 C 0.90329 0.35433 0.86226 0.0
C154 C 0.98832 0.34432 0.85155 0.0
C155 C 0.86831 0.33849 0.87536 0.0
C156 C 0.12289 0.40203 0.78671 0.0
C157 C 0.08715 0.38326 0.79904 0.0
C158 C -0.00348 0.38609 0.8068 0.0
C159 C 0.92112 0.33231 0.85773 0.0
C160 C 0.9576 0.34889 0.84304 0.0
C161 C 0.06502 0.40143 0.80168 0.0
C162 C 0.02762 0.38226 0.81554 0.0
H163 H 0.85509 0.24869 0.88632 0.0
H164 H 0.91658 0.2766 0.86357 0.0
H165 H 0.93853 0.37312 0.81318 0.0
H166 H 0.12512 0.48599 0.7716 0.0
H167 H 0.0633 0.45369 0.79343 0.0
C168 C 0.5123 0.86744 0.04199 0.0
C169 C 0.53176 0.84721 0.04725 0.0
C170 C 0.53113 0.90305 0.02958 0.0
C171 C 0.62766 0.98451 0.01471 0.0
H172 H 0.57314 0.00628 0.96188 0.0
C173 C 0.70298 0.11971 0.95066 0.0
C174 C 0.683 0.13968 0.94627 0.0
C175 C 0.68462 0.08355 0.96241 0.0
C176 C 0.58862 0.00077 0.97675 0.0
H177 H 0.58625 0.84845 0.04384 0.0
H178 H 0.61915 0.91062 0.02195 0.0
H179 H 0.54117 0.94428 0.98383 0.0
H180 H 0.62808 0.13736 0.95046 0.0
H181 H 0.59605 0.07428 0.97111 0.0
H182 H 0.67509 0.04105 0.00764 0.0
C183 C 0.58943 0.89912 0.02766 0.0
C184 C 0.5703 0.96527 0.98935 0.0
C185 C 0.57056 0.86346 0.04009 0.0
C186 C 0.64418 0.12259 0.95355 0.0
C187 C 0.62579 0.08639 0.96526 0.0
C188 C 0.64599 0.02001 0.0021 0.0
C189 C 0.56984 0.91921 0.02214 0.0
C190 C 0.58956 0.95678 0.00854 0.0
C191 C 0.64588 0.06657 0.96996 0.0
C192 C 0.62663 0.02858 0.98303 0.0
H193 H 0.4824 0.85569 0.04736 0.0
H194 H 0.5154 0.91807 0.02596 0.0
H195 H 0.6431 0.97906 0.02964 0.0
H196 H 0.73292 0.13214 0.94519 0.0
H197 H 0.70072 0.06878 0.96546 0.0
C198 C 0.69798 0.58597 0.21508 0.0
C199 C 0.67801 0.54624 0.22024 0.0
C200 C 0.6793 0.60345 0.20333 0.0
C201 C 0.59645 0.58071 0.16188 0.0
H202 H 0.61523 0.6817 0.18259 0.0
C203 C 0.50978 0.64775 0.12075 0.0
C204 C 0.52994 0.68732 0.1151 0.0
C205 C 0.52785 0.63071 0.1338 0.0
C206 C 0.61004 0.65368 0.17639 0.0
H207 H 0.62261 0.4938 0.21781 0.0
H208 H 0.58985 0.5244 0.19749 0.0
H209 H 0.64607 0.65155 0.20588 0.0
H210 H 0.5849 0.74007 0.11845 0.0
H211 H 0.61671 0.71019 0.14099 0.0
H212 H 0.56063 0.58285 0.13231 0.0
C213 C 0.62009 0.54194 0.2022 0.0
C214 C 0.62764 0.63638 0.18977 0.0
C215 C 0.63877 0.52448 0.21399 0.0
C216 C 0.56864 0.7095 0.12258 0.0
C217 C 0.58675 0.69244 0.13564 0.0
C218 C 0.57891 0.598 0.14849 0.0
C219 C 0.64027 0.58154 0.19647 0.0
C220 C 0.62103 0.5997 0.18266 0.0
C221 C 0.56651 0.65286 0.14146 0.0
C222 C 0.58549 0.63468 0.15559 0.0
H223 H 0.72829 0.60347 0.21963 0.0
H224 H 0.69575 0.63393 0.19895 0.0
H225 H 0.59132 0.55272 0.15562 0.0
H226 H 0.47985 0.62994 0.11533 0.0
H227 H 0.51129 0.60027 0.13828 0.0
C228 C 0.12238 0.71408 0.37141 0.0
C229 C 0.13636 0.69092 0.38154 0.0
C230 C 0.08772 0.69743 0.3578 0.0
C231 C 0.02276 0.61064 0.32076 0.0
H232 H 0.94789 0.64348 0.33214 0.0
C233 C 0.86816 0.52752 0.2805 0.0
C234 C 0.8512 0.54892 0.2721 0.0
C235 C 0.90408 0.54584 0.29253 0.0
C236 C 0.96874 0.63438 0.32844 0.0
H237 H 0.12483 0.63221 0.38573 0.0
H238 H 0.06428 0.60316 0.36208 0.0
H239 H 0.00791 0.6735 0.35638 0.0
H240 H 0.85898 0.60637 0.26893 0.0
H241 H 0.92204 0.63849 0.28954 0.0
H242 H 0.98369 0.57156 0.29281 0.0
C243 C 0.08027 0.63419 0.36442 0.0
C244 C 0.00308 0.65153 0.34238 0.0
C245 C 0.11479 0.6508 0.37812 0.0
C246 C 0.87131 0.58911 0.2753 0.0
C247 C 0.90729 0.60746 0.28728 0.0
C248 C 0.98849 0.5936 0.30674 0.0
C249 C 0.06651 0.65734 0.35394 0.0
C250 C 0.03034 0.63967 0.33881 0.0
C251 C 0.92386 0.58598 0.29636 0.0
C252 C 0.96098 0.60511 0.31052 0.0
H253 H 0.13846 0.74511 0.3737 0.0
H254 H 0.07798 0.71603 0.34978 0.0
H255 H 0.04351 0.60135 0.31728 0.0
H256 H 0.85326 0.49646 0.27838 0.0
H257 H 0.91579 0.52836 0.29954 0.0
C258 C 0.54185 0.32116 0.49607 0.0
C259 C 0.56371 0.31292 0.51328 0.0
C260 C 0.55679 0.3374 0.47215 0.0
C261 C 0.64759 0.39195 0.43622 0.0
H262 H 0.58113 0.35189 0.37667 0.0
C263 C 0.69161 0.46622 0.33766 0.0
C264 C 0.68382 0.4425 0.31604 0.0
C265 C 0.67663 0.45023 0.36161 0.0
C266 C 0.60012 0.36321 0.39308 0.0
H267 H 0.6186 0.31578 0.51914 0.0
H268 H 0.64477 0.34419 0.4773 0.0
H269 H 0.5563 0.32455 0.41889 0.0
H270 H 0.65383 0.38344 0.30247 0.0
H271 H 0.6276 0.35538 0.34443 0.0
H272 H 0.69155 0.43026 0.41038 0.0
C273 C 0.61614 0.3383 0.48237 0.0
C274 C 0.58578 0.34785 0.41731 0.0
C275 C 0.60113 0.32193 0.5063 0.0
C276 C 0.66024 0.40244 0.31878 0.0
C277 C 0.64513 0.38641 0.34278 0.0
C278 C 0.66188 0.4074 0.41201 0.0
C279 C 0.59397 0.34586 0.46492 0.0
C280 C 0.60933 0.3621 0.43917 0.0
C281 C 0.65343 0.41014 0.36451 0.0
C282 C 0.63828 0.39328 0.39017 0.0
H283 H 0.51293 0.3146 0.50093 0.0
H284 H 0.53921 0.34343 0.45932 0.0
H285 H 0.66639 0.40375 0.45269 0.0
H286 H 0.7096 0.49722 0.33616 0.0
H287 H 0.68306 0.46935 0.37787 0.0
C288 C 0.25229 0.65629 0.48498 0.0
C289 C 0.24278 0.68554 0.48374 0.0
C290 C 0.25205 0.63941 0.5085 0.0
C291 C 0.21769 0.63122 0.57624 0.0
H292 H 0.28961 0.59478 0.58821 0.0
C293 C 0.25227 0.58996 0.67573 0.0
C294 C 0.24422 0.5516 0.67697 0.0
C295 C 0.25179 0.60632 0.65216 0.0
C296 C 0.26939 0.60484 0.58501 0.0
H297 H 0.22648 0.72082 0.50601 0.0
H298 H 0.228 0.69308 0.54706 0.0
H299 H 0.29007 0.62396 0.54708 0.0
H300 H 0.23004 0.50046 0.65469 0.0
H301 H 0.23055 0.52965 0.61335 0.0
H302 H 0.19839 0.61338 0.61479 0.0
C303 C 0.23409 0.68177 0.52995 0.0
C304 C 0.26932 0.62126 0.56139 0.0
C305 C 0.23349 0.69796 0.5064 0.0
C306 C 0.23614 0.53004 0.65426 0.0
C307 C 0.23659 0.54669 0.63066 0.0
C308 C 0.21842 0.61561 0.60003 0.0
C309 C 0.24313 0.65205 0.53138 0.0
C310 C 0.24334 0.63455 0.5566 0.0
C311 C 0.24422 0.58486 0.62946 0.0
C312 C 0.24411 0.60215 0.60452 0.0
H313 H 0.25937 0.64607 0.46773 0.0
H314 H 0.25843 0.61615 0.50862 0.0
H315 H 0.19662 0.64019 0.57322 0.0
H316 H 0.25855 0.60715 0.69299 0.0
H317 H 0.25782 0.63588 0.65158 0.0
C318 C 0.68988 0.28267 0.8368 0.0
C319 C 0.68364 0.24808 0.84793 0.0
C320 C 0.6753 0.28258 0.81243 0.0
C321 C 0.60077 0.22223 0.76634 0.0
H322 H 0.67131 0.29138 0.71498 0.0
C323 C 0.55384 0.21262 0.66097 0.0
C324 C 0.56762 0.24719 0.64728 0.0
C325 C 0.56897 0.21235 0.68506 0.0
C326 C 0.651 0.27227 0.72913 0.0
H327 H 0.65639 0.18621 0.84272 0.0
H328 H 0.63008 0.18599 0.80039 0.0
H329 H 0.69426 0.29253 0.75843 0.0
H330 H 0.60822 0.30855 0.64787 0.0
H331 H 0.63371 0.30848 0.69019 0.0
H332 H 0.55716 0.20264 0.73754 0.0
C333 C 0.6465 0.21314 0.81043 0.0
C334 C 0.66426 0.2729 0.75401 0.0
C335 C 0.66163 0.2133 0.83459 0.0
C336 C 0.59727 0.2814 0.65791 0.0
C337 C 0.61199 0.28128 0.68218 0.0
C338 C 0.58732 0.222 0.74159 0.0
C339 C 0.65366 0.24783 0.79898 0.0
C340 C 0.63931 0.24779 0.7728 0.0
C341 C 0.5978 0.24679 0.69621 0.0
C342 C 0.61228 0.24691 0.72258 0.0
H343 H 0.70686 0.30991 0.84662 0.0
H344 H 0.68095 0.30968 0.80408 0.0
H345 H 0.58087 0.2028 0.78057 0.0
H346 H 0.53113 0.18576 0.65315 0.0
H347 H 0.55791 0.18508 0.69493 0.0
C348 C 0.29567 0.58685 0.82379 0.0
C349 C 0.30537 0.56111 0.81231 0.0
C350 C 0.31019 0.60249 0.84795 0.0
C351 C 0.35323 0.58471 0.90574 0.0
H352 H 0.37743 0.68833 0.92401 0.0
C353 C 0.4345 0.66215 -0.00185 0.0
C354 C 0.4195 0.68156 0.01225 0.0
C355 C 0.41955 0.64677 0.97405 0.0
C356 C 0.37044 0.65922 0.91921 0.0
H357 H 0.33909 0.53279 0.81651 0.0
H358 H 0.36562 0.56113 0.85816 0.0
H359 H 0.35548 0.6645 0.88068 0.0
H360 H 0.37697 0.69991 0.01236 0.0
H361 H 0.35108 0.67334 0.96996 0.0
H362 H 0.36918 0.57995 0.94417 0.0
C363 C 0.34582 0.56834 0.84899 0.0
C364 C 0.35779 0.64549 0.8944 0.0
C365 C 0.3309 0.55235 0.825 0.0
C366 C 0.38898 0.68497 0.00192 0.0
C367 C 0.37437 0.67002 0.97763 0.0
C368 C 0.36631 0.59862 0.93042 0.0
C369 C 0.3351 0.59306 0.86102 0.0
C370 C 0.34902 0.60804 0.88733 0.0
C371 C 0.38965 0.65094 0.96343 0.0
C372 C 0.37501 0.63597 0.9374 0.0
H373 H 0.27584 0.59393 0.81449 0.0
H374 H 0.3009 0.62102 0.85668 0.0
H375 H 0.34594 0.55543 0.90123 0.0
H376 H 0.45807 0.65914 0.00563 0.0
H377 H 0.43204 0.63243 0.96343 0.0
C378 C 0.7284 0.33077 0.9866 0.0
C379 C 0.74253 0.30511 0.9847 0.0
C380 C 0.72788 0.34697 0.01027 0.0
C381 C 0.7681 0.36188 0.07672 0.0
H382 H 0.68624 0.38388 0.09159 0.0
C383 C 0.73899 0.40381 0.1776 0.0
C384 C 0.73769 0.43822 0.17803 0.0
C385 C 0.7392 0.38673 0.15422 0.0
C386 C 0.70927 0.3779 0.08762 0.0
H387 H 0.76659 0.27569 0.00602 0.0
H388 H 0.76415 0.30237 0.04736 0.0
H389 H 0.68716 0.35548 0.05042 0.0
H390 H 0.73482 0.48134 0.1545 0.0
H391 H 0.73411 0.45087 0.11374 0.0
H392 H 0.78928 0.3833 0.11445 0.0
C393 C 0.75472 0.31131 0.0306 0.0
C394 C 0.71006 0.36192 0.06395 0.0
C395 C 0.75591 0.29574 0.00688 0.0
C396 C 0.73599 0.45489 0.15473 0.0
C397 C 0.73539 0.43741 0.13143 0.0
C398 C 0.76684 0.37717 0.10057 0.0
C399 C 0.7408 0.33726 0.03267 0.0
C400 C 0.73965 0.35392 0.05806 0.0
C401 C 0.73724 0.40333 0.13095 0.0
C402 C 0.73759 0.38557 0.10614 0.0
H403 H 0.71808 0.33862 0.96975 0.0
H404 H 0.71767 0.36739 0.01089 0.0
H405 H 0.79181 0.35695 0.07284 0.0
H406 H 0.74036 0.39041 0.19529 0.0
H407 H 0.74051 0.36035 0.15429 0.0
C408 C 0.29631 0.70509 0.33779 0.0
C409 C 0.30284 0.74011 0.3484 0.0
C410 C 0.31097 0.70434 0.31361 0.0
C411 C 0.38559 0.76345 0.26712 0.0
H412 H 0.31466 0.69337 0.2162 0.0
C413 C 0.43024 0.77405 0.16142 0.0
C414 C 0.41716 0.73964 0.14761 0.0
C415 C 0.41542 0.77373 0.1857 0.0
C416 C 0.33505 0.71272 0.23024 0.0
H417 H 0.33073 0.80187 0.34251 0.0
H418 H 0.35709 0.80063 0.30051 0.0
H419 H 0.29214 0.69266 0.25974 0.0
H420 H 0.37805 0.67795 0.14815 0.0
H421 H 0.35298 0.67707 0.19087 0.0
H422 H 0.42879 0.78301 0.23806 0.0
C423 C 0.34043 0.77379 0.31081 0.0
C424 C 0.32207 0.71233 0.25517 0.0
C425 C 0.32527 0.77447 0.33478 0.0
C426 C 0.38844 0.70496 0.15831 0.0
C427 C 0.37399 0.70453 0.18278 0.0
C428 C 0.39874 0.76349 0.24232 0.0
C429 C 0.33294 0.73867 0.29984 0.0
C430 C 0.34715 0.7379 0.27377 0.0
C431 C 0.38761 0.73888 0.19693 0.0
C432 C 0.37357 0.73836 0.22346 0.0
H433 H 0.279 0.67815 0.34785 0.0
H434 H 0.30506 0.67693 0.30563 0.0
H435 H 0.4056 0.78318 0.2812 0.0
H436 H 0.45219 0.80126 0.15354 0.0
H437 H 0.42594 0.80088 0.19568 0.0
loop_
_geom_bond_atom_site_label_1
_geom_bond_atom_site_label_2
_geom_bond_distance
_geom_bond_site_symmetry_2
_ccdc_geom_bond_type
In0 O1 2.294 . S
In0 O2 2.326 . S
In0 O6 2.266 . S
In0 O7 2.326 . S
In0 O8 2.266 . S
In0 O9 2.326 . S
In0 O11 2.294 . S
In0 O12 2.326 . S
O1 In0 2.294 . S
O1 C10 1.240 . S
O2 In0 2.326 . S
O2 C10 1.252 . S
C3 O6 1.252 . S
C3 O7 1.260 . S
C4 O11 1.240 . S
C4 O12 1.252 . S
C5 O8 1.252 . S
C5 O9 1.260 . S
O6 In0 2.266 . S
O6 C3 1.252 . S
O7 In0 2.326 . S
O7 C3 1.260 . S
O8 In0 2.266 . S
O8 C5 1.252 . S
O9 In0 2.326 . S
O9 C5 1.260 . S
C10 O1 1.240 . S
C10 O2 1.252 . S
O11 In0 2.294 . S
O11 C4 1.240 . S
O12 In0 2.326 . S
O12 C4 1.252 . S
In13 O14 2.294 . S
In13 O15 2.326 . S
In13 O19 2.266 . S
In13 O20 2.326 . S
In13 O21 2.266 . S
In13 O22 2.326 . S
In13 O24 2.294 . S
In13 O25 2.326 . S
O14 In13 2.294 . S
O14 C23 1.240 . S
O15 In13 2.326 . S
O15 C23 1.252 . S
C16 O19 1.252 . S
C16 O20 1.260 . S
C17 O24 1.240 . S
C17 O25 1.252 . S
C18 O21 1.252 . S
C18 O22 1.260 . S
O19 In13 2.266 . S
O19 C16 1.252 . S
O20 In13 2.326 . S
O20 C16 1.260 . S
O21 In13 2.266 . S
O21 C18 1.252 . S
O22 In13 2.326 . S
O22 C18 1.260 . S
C23 O14 1.240 . S
C23 O15 1.252 . S
O24 In13 2.294 . S
O24 C17 1.240 . S
O25 In13 2.326 . S
O25 C17 1.252 . S
In26 O27 2.294 . S
In26 O28 2.326 . S
In26 O32 2.266 . S
In26 O33 2.326 . S
In26 O34 2.266 . S
In26 O35 2.326 . S
In26 O37 2.294 . S
In26 O38 2.326 . S
O27 In26 2.294 . S
O27 C36 1.240 . S
O28 In26 2.326 . S
O28 C36 1.252 . S
C29 O32 1.252 . S
C29 O33 1.260 . S
C30 O37 1.240 . S
C30 O38 1.252 . S
C31 O34 1.252 . S
C31 O35 1.260 . S
O32 In26 2.266 . S
O32 C29 1.252 . S
O33 In26 2.326 . S
O33 C29 1.260 . S
O34 In26 2.266 . S
O34 C31 1.252 . S
O35 In26 2.326 . S
O35 C31 1.260 . S
C36 O27 1.240 . S
C36 O28 1.252 . S
O37 In26 2.294 . S
O37 C30 1.240 . S
O38 In26 2.326 . S
O38 C30 1.252 . S
In39 O40 2.294 . S
In39 O41 2.326 . S
In39 O45 2.266 . S
In39 O46 2.326 . S
In39 O47 2.266 . S
In39 O48 2.326 . S
In39 O50 2.294 . S
In39 O51 2.326 . S
O40 In39 2.294 . S
O40 C49 1.240 . S
O41 In39 2.326 . S
O41 C49 1.252 . S
C42 O45 1.252 . S
C42 O46 1.260 . S
C43 O50 1.240 . S
C43 O51 1.252 . S
C44 O47 1.252 . S
C44 O48 1.260 . S
O45 In39 2.266 . S
O45 C42 1.252 . S
O46 In39 2.326 . S
O46 C42 1.260 . S
O47 In39 2.266 . S
O47 C44 1.252 . S
O48 In39 2.326 . S
O48 C44 1.260 . S
C49 O40 1.240 . S
C49 O41 1.252 . S
O50 In39 2.294 . S
O50 C43 1.240 . S
O51 In39 2.326 . S
O51 C43 1.252 . S
In52 O53 2.294 . S
In52 O54 2.326 . S
In52 O58 2.266 . S
In52 O59 2.326 . S
In52 O60 2.266 . S
In52 O61 2.326 . S
In52 O63 2.294 . S
In52 O64 2.326 . S
O53 In52 2.294 . S
O53 C62 1.240 . S
O54 In52 2.326 . S
O54 C62 1.252 . S
C55 O58 1.252 . S
C55 O59 1.260 . S
C56 O63 1.240 . S
C56 O64 1.252 . S
C57 O60 1.252 . S
C57 O61 1.260 . S
O58 In52 2.266 . S
O58 C55 1.252 . S
O59 In52 2.326 . S
O59 C55 1.260 . S
O60 In52 2.266 . S
O60 C57 1.252 . S
O61 In52 2.326 . S
O61 C57 1.260 . S
C62 O53 1.240 . S
C62 O54 1.252 . S
O63 In52 2.294 . S
O63 C56 1.240 . S
O64 In52 2.326 . S
O64 C56 1.252 . S
In65 O66 2.294 . S
In65 O67 2.326 . S
In65 O71 2.266 . S
In65 O72 2.326 . S
In65 O73 2.266 . S
In65 O74 2.326 . S
In65 O76 2.294 . S
In65 O77 2.326 . S
O66 In65 2.294 . S
O66 C75 1.240 . S
O67 In65 2.326 . S
O67 C75 1.252 . S
C68 O71 1.252 . S
C68 O72 1.260 . S
C69 O76 1.240 . S
C69 O77 1.252 . S
C70 O73 1.252 . S
C70 O74 1.260 . S
O71 In65 2.266 . S
O71 C68 1.252 . S
O72 In65 2.326 . S
O72 C68 1.260 . S
O73 In65 2.266 . S
O73 C70 1.252 . S
O74 In65 2.326 . S
O74 C70 1.260 . S
C75 O66 1.240 . S
C75 O67 1.252 . S
O76 In65 2.294 . S
O76 C69 1.240 . S
O77 In65 2.326 . S
O77 C69 1.252 . S
C78 C79 1.349 . S
C78 C80 1.327 . S
C78 H103 0.950 . S
C79 C78 1.349 . S
C79 C95 1.349 . S
C80 C78 1.327 . S
C80 C99 1.429 . S
C80 H104 0.950 . S
C81 C98 1.574 1_545 S
C81 C100 1.368 . S
C81 H105 0.949 . S
H82 C86 0.949 . S
C83 C84 1.349 . S
C83 C85 1.327 . S
C83 H106 0.950 . S
C84 C83 1.349 . S
C84 C96 1.349 . S
C85 C83 1.327 . S
C85 C101 1.429 . S
C85 H107 0.950 . S
C86 H82 0.949 . S
C86 C94 1.574 1_565 S
C86 C102 1.368 . S
H87 C95 0.950 . S
H88 C93 0.950 . S
H89 C94 0.949 . S
H90 C96 0.950 . S
H91 C97 0.950 . S
H92 C98 0.949 . S
C93 H88 0.950 . S
C93 C95 1.327 . S
C93 C99 1.429 . S
C94 C86 1.574 1_545 S
C94 H89 0.949 . S
C94 C100 1.368 . S
C95 C79 1.349 . S
C95 H87 0.950 . S
C95 C93 1.327 . S
C96 C84 1.349 . S
C96 H90 0.950 . S
C96 C97 1.327 . S
C97 H91 0.950 . S
C97 C96 1.327 . S
C97 C101 1.429 . S
C98 C81 1.574 1_565 S
C98 H92 0.949 . S
C98 C102 1.368 . S
C99 C80 1.429 . S
C99 C93 1.429 . S
C99 C100 1.523 . S
C100 C81 1.368 . S
C100 C94 1.368 . S
C100 C99 1.523 . S
C101 C85 1.429 . S
C101 C97 1.429 . S
C101 C102 1.523 . S
C102 C86 1.368 . S
C102 C98 1.368 . S
C102 C101 1.523 . S
H103 C78 0.950 . S
H104 C80 0.950 . S
H105 C81 0.949 . S
H106 C83 0.950 . S
H107 C85 0.950 . S
C108 C109 1.349 . S
C108 C110 1.327 . S
C108 H133 0.950 . S
C109 C108 1.349 . S
C109 C125 1.349 . S
C110 C108 1.327 . S
C110 C129 1.429 . S
C110 H134 0.950 . S
C111 C128 1.574 . S
C111 C130 1.368 . S
C111 H135 0.949 . S
H112 C116 0.949 . S
C113 C114 1.349 . S
C113 C115 1.327 . S
C113 H136 0.950 . S
C114 C113 1.349 . S
C114 C126 1.349 . S
C115 C113 1.327 . S
C115 C131 1.429 . S
C115 H137 0.950 . S
C116 H112 0.949 . S
C116 C124 1.574 . S
C116 C132 1.368 . S
H117 C125 0.950 . S
H118 C123 0.950 . S
H119 C124 0.949 . S
H120 C126 0.950 . S
H121 C127 0.950 . S
H122 C128 0.949 . S
C123 H118 0.950 . S
C123 C125 1.327 . S
C123 C129 1.429 . S
C124 C116 1.574 . S
C124 H119 0.949 . S
C124 C130 1.368 . S
C125 C109 1.349 . S
C125 H117 0.950 . S
C125 C123 1.327 . S
C126 C114 1.349 . S
C126 H120 0.950 . S
C126 C127 1.327 . S
C127 H121 0.950 . S
C127 C126 1.327 . S
C127 C131 1.429 . S
C128 C111 1.574 . S
C128 H122 0.949 . S
C128 C132 1.368 . S
C129 C110 1.429 . S
C129 C123 1.429 . S
C129 C130 1.523 . S
C130 C111 1.368 . S
C130 C124 1.368 . S
C130 C129 1.523 . S
C131 C115 1.429 . S
C131 C127 1.429 . S
C131 C132 1.523 . S
C132 C116 1.368 . S
C132 C128 1.368 . S
C132 C131 1.523 . S
H133 C108 0.950 . S
H134 C110 0.950 . S
H135 C111 0.949 . S
H136 C113 0.950 . S
H137 C115 0.950 . S
C138 C139 1.349 . S
C138 C140 1.327 . S
C138 H163 0.950 . S
C139 C138 1.349 . S
C139 C155 1.349 . S
C140 C138 1.327 . S
C140 C159 1.429 . S
C140 H164 0.950 . S
C141 C158 1.574 1_655 S
C141 C160 1.368 . S
C141 H165 0.949 . S
H142 C146 0.949 . S
C143 C144 1.349 . S
C143 C145 1.327 . S
C143 H166 0.950 . S
C144 C143 1.349 . S
C144 C156 1.349 . S
C145 C143 1.327 . S
C145 C161 1.429 . S
C145 H167 0.950 . S
C146 H142 0.949 . S
C146 C154 1.574 1_455 S
C146 C162 1.368 . S
H147 C155 0.950 . S
H148 C153 0.950 . S
H149 C154 0.949 . S
H150 C156 0.950 . S
H151 C157 0.950 . S
H152 C158 0.949 . S
C153 H148 0.950 . S
C153 C155 1.327 . S
C153 C159 1.429 . S
C154 C146 1.574 1_655 S
C154 H149 0.949 . S
C154 C160 1.368 . S
C155 C139 1.349 . S
C155 H147 0.950 . S
C155 C153 1.327 . S
C156 C144 1.349 . S
C156 H150 0.950 . S
C156 C157 1.327 . S
C157 H151 0.950 . S
C157 C156 1.327 . S
C157 C161 1.429 . S
C158 C141 1.574 1_455 S
C158 H152 0.949 . S
C158 C162 1.368 . S
C159 C140 1.429 . S
C159 C153 1.429 . S
C159 C160 1.523 . S
C160 C141 1.368 . S
C160 C154 1.368 . S
C160 C159 1.523 . S
C161 C145 1.429 . S
C161 C157 1.429 . S
C161 C162 1.523 . S
C162 C146 1.368 . S
C162 C158 1.368 . S
C162 C161 1.523 . S
H163 C138 0.950 . S
H164 C140 0.950 . S
H165 C141 0.949 . S
H166 C143 0.950 . S
H167 C145 0.950 . S
C168 C169 1.349 . S
C168 C170 1.327 . S
C168 H193 0.950 . S
C169 C168 1.349 . S
C169 C185 1.349 . S
C170 C168 1.327 . S
C170 C189 1.429 . S
C170 H194 0.950 1_554 S
C171 C188 1.574 1_565 S
C171 C190 1.368 . S
C171 H195 0.949 . S
H172 C176 0.949 . S
C173 C174 1.349 . S
C173 C175 1.327 . S
C173 H196 0.950 . S
C174 C173 1.349 . S
C174 C186 1.349 . S
C175 C173 1.327 . S
C175 C191 1.429 . S
C175 H197 0.950 1_556 S
C176 H172 0.949 . S
C176 C184 1.574 1_545 S
C176 C192 1.368 . S
H177 C185 0.950 . S
H178 C183 0.950 . S
H179 C184 0.949 . S
H180 C186 0.950 . S
H181 C187 0.950 . S
H182 C188 0.949 . S
C183 H178 0.950 . S
C183 C185 1.327 . S
C183 C189 1.429 . S
C184 C176 1.574 1_565 S
C184 H179 0.949 . S
C184 C190 1.368 1_556 S
C185 C169 1.349 . S
C185 H177 0.950 . S
C185 C183 1.327 . S
C186 C174 1.349 . S
C186 H180 0.950 . S
C186 C187 1.327 . S
C187 H181 0.950 . S
C187 C186 1.327 . S
C187 C191 1.429 . S
C188 C171 1.574 1_545 S
C188 H182 0.949 . S
C188 C192 1.368 1_554 S
C189 C170 1.429 . S
C189 C183 1.429 . S
C189 C190 1.523 . S
C190 C171 1.368 . S
C190 C184 1.368 1_554 S
C190 C189 1.523 . S
C191 C175 1.429 . S
C191 C187 1.429 . S
C191 C192 1.523 . S
C192 C176 1.368 . S
C192 C188 1.368 1_556 S
C192 C191 1.523 . S
H193 C168 0.950 . S
H194 C170 0.950 1_556 S
H195 C171 0.949 . S
H196 C173 0.950 . S
H197 C175 0.950 1_554 S
C198 C199 1.349 . S
C198 C200 1.327 . S
C198 H223 0.950 . S
C199 C198 1.349 . S
C199 C215 1.349 . S
C200 C198 1.327 . S
C200 C219 1.429 . S
C200 H224 0.950 . S
C201 C218 1.574 . S
C201 C220 1.368 . S
C201 H225 0.949 . S
H202 C206 0.949 . S
C203 C204 1.349 . S
C203 C205 1.327 . S
C203 H226 0.950 . S
C204 C203 1.349 . S
C204 C216 1.349 . S
C205 C203 1.327 . S
C205 C221 1.429 . S
C205 H227 0.950 . S
C206 H202 0.949 . S
C206 C214 1.574 . S
C206 C222 1.368 . S
H207 C215 0.950 . S
H208 C213 0.950 . S
H209 C214 0.949 . S
H210 C216 0.950 . S
H211 C217 0.950 . S
H212 C218 0.949 . S
C213 H208 0.950 . S
C213 C215 1.327 . S
C213 C219 1.429 . S
C214 C206 1.574 . S
C214 H209 0.949 . S
C214 C220 1.368 . S
C215 C199 1.349 . S
C215 H207 0.950 . S
C215 C213 1.327 . S
C216 C204 1.349 . S
C216 H210 0.950 . S
C216 C217 1.327 . S
C217 H211 0.950 . S
C217 C216 1.327 . S
C217 C221 1.429 . S
C218 C201 1.574 . S
C218 H212 0.949 . S
C218 C222 1.368 . S
C219 C200 1.429 . S
C219 C213 1.429 . S
C219 C220 1.523 . S
C220 C201 1.368 . S
C220 C214 1.368 . S
C220 C219 1.523 . S
C221 C205 1.429 . S
C221 C217 1.429 . S
C221 C222 1.523 . S
C222 C206 1.368 . S
C222 C218 1.368 . S
C222 C221 1.523 . S
H223 C198 0.950 . S
H224 C200 0.950 . S
H225 C201 0.949 . S
H226 C203 0.950 . S
H227 C205 0.950 . S
C228 C229 1.349 . S
C228 C230 1.327 . S
C228 H253 0.950 . S
C229 C228 1.349 . S
C229 C245 1.349 . S
C230 C228 1.327 . S
C230 C249 1.429 . S
C230 H254 0.950 . S
C231 C248 1.574 1_455 S
C231 C250 1.368 . S
C231 H255 0.949 . S
H232 C236 0.949 . S
C233 C234 1.349 . S
C233 C235 1.327 . S
C233 H256 0.950 . S
C234 C233 1.349 . S
C234 C246 1.349 . S
C235 C233 1.327 . S
C235 C251 1.429 . S
C235 H257 0.950 . S
C236 H232 0.949 . S
C236 C244 1.574 1_655 S
C236 C252 1.368 . S
H237 C245 0.950 . S
H238 C243 0.950 . S
H239 C244 0.949 . S
H240 C246 0.950 . S
H241 C247 0.950 . S
H242 C248 0.949 . S
C243 H238 0.950 . S
C243 C245 1.327 . S
C243 C249 1.429 . S
C244 C236 1.574 1_455 S
C244 H239 0.949 . S
C244 C250 1.368 . S
C245 C229 1.349 . S
C245 H237 0.950 . S
C245 C243 1.327 . S
C246 C234 1.349 . S
C246 H240 0.950 . S
C246 C247 1.327 . S
C247 H241 0.950 . S
C247 C246 1.327 . S
C247 C251 1.429 . S
C248 C231 1.574 1_655 S
C248 H242 0.949 . S
C248 C252 1.368 . S
C249 C230 1.429 . S
C249 C243 1.429 . S
C249 C250 1.523 . S
C250 C231 1.368 . S
C250 C244 1.368 . S
C250 C249 1.523 . S
C251 C235 1.429 . S
C251 C247 1.429 . S
C251 C252 1.523 . S
C252 C236 1.368 . S
C252 C248 1.368 . S
C252 C251 1.523 . S
H253 C228 0.950 . S
H254 C230 0.950 . S
H255 C231 0.949 . S
H256 C233 0.950 . S
H257 C235 0.950 . S
C258 C259 1.349 . S
C258 C260 1.327 . S
C258 H283 0.950 . S
C259 C258 1.349 . S
C259 C275 1.349 . S
C260 C258 1.327 . S
C260 C279 1.429 . S
C260 H284 0.950 . S
C261 C278 1.574 . S
C261 C280 1.368 . S
C261 H285 0.949 . S
H262 C266 0.949 . S
C263 C264 1.349 . S
C263 C265 1.327 . S
C263 H286 0.950 . S
C264 C263 1.349 . S
C264 C276 1.349 . S
C265 C263 1.327 . S
C265 C281 1.429 . S
C265 H287 0.950 . S
C266 H262 0.949 . S
C266 C274 1.574 . S
C266 C282 1.368 . S
H267 C275 0.950 . S
H268 C273 0.950 . S
H269 C274 0.949 . S
H270 C276 0.950 . S
H271 C277 0.950 . S
H272 C278 0.949 . S
C273 H268 0.950 . S
C273 C275 1.327 . S
C273 C279 1.429 . S
C274 C266 1.574 . S
C274 H269 0.949 . S
C274 C280 1.368 . S
C275 C259 1.349 . S
C275 H267 0.950 . S
C275 C273 1.327 . S
C276 C264 1.349 . S
C276 H270 0.950 . S
C276 C277 1.327 . S
C277 H271 0.950 . S
C277 C276 1.327 . S
C277 C281 1.429 . S
C278 C261 1.574 . S
C278 H272 0.949 . S
C278 C282 1.368 . S
C279 C260 1.429 . S
C279 C273 1.429 . S
C279 C280 1.523 . S
C280 C261 1.368 . S
C280 C274 1.368 . S
C280 C279 1.523 . S
C281 C265 1.429 . S
C281 C277 1.429 . S
C281 C282 1.523 . S
C282 C266 1.368 . S
C282 C278 1.368 . S
C282 C281 1.523 . S
H283 C258 0.950 . S
H284 C260 0.950 . S
H285 C261 0.949 . S
H286 C263 0.950 . S
H287 C265 0.950 . S
C288 C289 1.349 . S
C288 C290 1.327 . S
C288 H313 0.950 . S
C289 C288 1.349 . S
C289 C305 1.349 . S
C290 C288 1.327 . S
C290 C309 1.429 . S
C290 H314 0.950 . S
C291 C308 1.574 . S
C291 C310 1.368 . S
C291 H315 0.949 . S
H292 C296 0.949 . S
C293 C294 1.349 . S
C293 C295 1.327 . S
C293 H316 0.950 . S
C294 C293 1.349 . S
C294 C306 1.349 . S
C295 C293 1.327 . S
C295 C311 1.429 . S
C295 H317 0.950 . S
C296 H292 0.949 . S
C296 C304 1.574 . S
C296 C312 1.368 . S
H297 C305 0.950 . S
H298 C303 0.950 . S
H299 C304 0.949 . S
H300 C306 0.950 . S
H301 C307 0.950 . S
H302 C308 0.949 . S
C303 H298 0.950 . S
C303 C305 1.327 . S
C303 C309 1.429 . S
C304 C296 1.574 . S
C304 H299 0.949 . S
C304 C310 1.368 . S
C305 C289 1.349 . S
C305 H297 0.950 . S
C305 C303 1.327 . S
C306 C294 1.349 . S
C306 H300 0.950 . S
C306 C307 1.327 . S
C307 H301 0.950 . S
C307 C306 1.327 . S
C307 C311 1.429 . S
C308 C291 1.574 . S
C308 H302 0.949 . S
C308 C312 1.368 . S
C309 C290 1.429 . S
C309 C303 1.429 . S
C309 C310 1.523 . S
C310 C291 1.368 . S
C310 C304 1.368 . S
C310 C309 1.523 . S
C311 C295 1.429 . S
C311 C307 1.429 . S
C311 C312 1.523 . S
C312 C296 1.368 . S
C312 C308 1.368 . S
C312 C311 1.523 . S
H313 C288 0.950 . S
H314 C290 0.950 . S
H315 C291 0.949 . S
H316 C293 0.950 . S
H317 C295 0.950 . S
C318 C319 1.349 . S
C318 C320 1.327 . S
C318 H343 0.950 . S
C319 C318 1.349 . S
C319 C335 1.349 . S
C320 C318 1.327 . S
C320 C339 1.429 . S
C320 H344 0.950 . S
C321 C338 1.574 . S
C321 C340 1.368 . S
C321 H345 0.949 . S
H322 C326 0.949 . S
C323 C324 1.349 . S
C323 C325 1.327 . S
C323 H346 0.950 . S
C324 C323 1.349 . S
C324 C336 1.349 . S
C325 C323 1.327 . S
C325 C341 1.429 . S
C325 H347 0.950 . S
C326 H322 0.949 . S
C326 C334 1.574 . S
C326 C342 1.368 . S
H327 C335 0.950 . S
H328 C333 0.950 . S
H329 C334 0.949 . S
H330 C336 0.950 . S
H331 C337 0.950 . S
H332 C338 0.949 . S
C333 H328 0.950 . S
C333 C335 1.327 . S
C333 C339 1.429 . S
C334 C326 1.574 . S
C334 H329 0.949 . S
C334 C340 1.368 . S
C335 C319 1.349 . S
C335 H327 0.950 . S
C335 C333 1.327 . S
C336 C324 1.349 . S
C336 H330 0.950 . S
C336 C337 1.327 . S
C337 H331 0.950 . S
C337 C336 1.327 . S
C337 C341 1.429 . S
C338 C321 1.574 . S
C338 H332 0.949 . S
C338 C342 1.368 . S
C339 C320 1.429 . S
C339 C333 1.429 . S
C339 C340 1.523 . S
C340 C321 1.368 . S
C340 C334 1.368 . S
C340 C339 1.523 . S
C341 C325 1.429 . S
C341 C337 1.429 . S
C341 C342 1.523 . S
C342 C326 1.368 . S
C342 C338 1.368 . S
C342 C341 1.523 . S
H343 C318 0.950 . S
H344 C320 0.950 . S
H345 C321 0.949 . S
H346 C323 0.950 . S
H347 C325 0.950 . S
C348 C349 1.349 . S
C348 C350 1.327 . S
C348 H373 0.950 . S
C349 C348 1.349 . S
C349 C365 1.349 . S
C350 C348 1.327 . S
C350 C369 1.429 . S
C350 H374 0.950 . S
C351 C368 1.574 . S
C351 C370 1.368 . S
C351 H375 0.949 . S
H352 C356 0.949 . S
C353 C354 1.349 . S
C353 C355 1.327 1_554 S
C353 H376 0.950 . S
C354 C353 1.349 . S
C354 C366 1.349 1_554 S
C355 C353 1.327 1_556 S
C355 C371 1.429 . S
C355 H377 0.950 . S
C356 H352 0.949 . S
C356 C364 1.574 . S
C356 C372 1.368 . S
H357 C365 0.950 . S
H358 C363 0.950 . S
H359 C364 0.949 . S
H360 C366 0.950 1_554 S
H361 C367 0.950 . S
H362 C368 0.949 . S
C363 H358 0.950 . S
C363 C365 1.327 . S
C363 C369 1.429 . S
C364 C356 1.574 . S
C364 H359 0.949 . S
C364 C370 1.368 . S
C365 C349 1.349 . S
C365 H357 0.950 . S
C365 C363 1.327 . S
C366 C354 1.349 1_556 S
C366 H360 0.950 1_556 S
C366 C367 1.327 . S
C367 H361 0.950 . S
C367 C366 1.327 . S
C367 C371 1.429 . S
C368 C351 1.574 . S
C368 H362 0.949 . S
C368 C372 1.368 . S
C369 C350 1.429 . S
C369 C363 1.429 . S
C369 C370 1.523 . S
C370 C351 1.368 . S
C370 C364 1.368 . S
C370 C369 1.523 . S
C371 C355 1.429 . S
C371 C367 1.429 . S
C371 C372 1.523 . S
C372 C356 1.368 . S
C372 C368 1.368 . S
C372 C371 1.523 . S
H373 C348 0.950 . S
H374 C350 0.950 . S
H375 C351 0.949 . S
H376 C353 0.950 . S
H377 C355 0.950 . S
C378 C379 1.349 . S
C378 C380 1.327 1_556 S
C378 H403 0.950 . S
C379 C378 1.349 . S
C379 C395 1.349 1_556 S
C380 C378 1.327 1_554 S
C380 C399 1.429 . S
C380 H404 0.950 . S
C381 C398 1.574 . S
C381 C400 1.368 . S
C381 H405 0.949 . S
H382 C386 0.949 . S
C383 C384 1.349 . S
C383 C385 1.327 . S
C383 H406 0.950 . S
C384 C383 1.349 . S
C384 C396 1.349 . S
C385 C383 1.327 . S
C385 C401 1.429 . S
C385 H407 0.950 . S
C386 H382 0.949 . S
C386 C394 1.574 . S
C386 C402 1.368 . S
H387 C395 0.950 . S
H388 C393 0.950 . S
H389 C394 0.949 . S
H390 C396 0.950 . S
H391 C397 0.950 . S
H392 C398 0.949 . S
C393 H388 0.950 . S
C393 C395 1.327 . S
C393 C399 1.429 . S
C394 C386 1.574 . S
C394 H389 0.949 . S
C394 C400 1.368 . S
C395 C379 1.349 1_554 S
C395 H387 0.950 . S
C395 C393 1.327 . S
C396 C384 1.349 . S
C396 H390 0.950 . S
C396 C397 1.327 . S
C397 H391 0.950 . S
C397 C396 1.327 . S
C397 C401 1.429 . S
C398 C381 1.574 . S
C398 H392 0.949 . S
C398 C402 1.368 . S
C399 C380 1.429 . S
C399 C393 1.429 . S
C399 C400 1.523 . S
C400 C381 1.368 . S
C400 C394 1.368 . S
C400 C399 1.523 . S
C401 C385 1.429 . S
C401 C397 1.429 . S
C401 C402 1.523 . S
C402 C386 1.368 . S
C402 C398 1.368 . S
C402 C401 1.523 . S
H403 C378 0.950 . S
H404 C380 0.950 . S
H405 C381 0.949 . S
H406 C383 0.950 . S
H407 C385 0.950 . S
C408 C409 1.349 . S
C408 C410 1.327 . S
C408 H433 0.950 . S
C409 C408 1.349 . S
C409 C425 1.349 . S
C410 C408 1.327 . S
C410 C429 1.429 . S
C410 H434 0.950 . S
C411 C428 1.574 . S
C411 C430 1.368 . S
C411 H435 0.949 . S
H412 C416 0.949 . S
C413 C414 1.349 . S
C413 C415 1.327 . S
C413 H436 0.950 . S
C414 C413 1.349 . S
C414 C426 1.349 . S
C415 C413 1.327 . S
C415 C431 1.429 . S
C415 H437 0.950 . S
C416 H412 0.949 . S
C416 C424 1.574 . S
C416 C432 1.368 . S
H417 C425 0.950 . S
H418 C423 0.950 . S
H419 C424 0.949 . S
H420 C426 0.950 . S
H421 C427 0.950 . S
H422 C428 0.949 . S
C423 H418 0.950 . S
C423 C425 1.327 . S
C423 C429 1.429 . S
C424 C416 1.574 . S
C424 H419 0.949 . S
C424 C430 1.368 . S
C425 C409 1.349 . S
C425 H417 0.950 . S
C425 C423 1.327 . S
C426 C414 1.349 . S
C426 H420 0.950 . S
C426 C427 1.327 . S
C427 H421 0.950 . S
C427 C426 1.327 . S
C427 C431 1.429 . S
C428 C411 1.574 . S
C428 H422 0.949 . S
C428 C432 1.368 . S
C429 C410 1.429 . S
C429 C423 1.429 . S
C429 C430 1.523 . S
C430 C411 1.368 . S
C430 C424 1.368 . S
C430 C429 1.523 . S
C431 C415 1.429 . S
C431 C427 1.429 . S
C431 C432 1.523 . S
C432 C416 1.368 . S
C432 C428 1.368 . S
C432 C431 1.523 . S
H433 C408 0.950 . S
H434 C410 0.950 . S
H435 C411 0.949 . S
H436 C413 0.950 . S
H437 C415 0.950 . S
C79 C4 1.641 . S
C84 C68 1.643 . S
C109 C5 1.643 . S
C114 C23 1.642 . S
C139 C30 1.642 . S
C144 C16 1.643 . S
C169 C43 1.641 . S
C174 C31 1.643 . S
C199 C56 1.641 . S
C204 C44 1.643 . S
C229 C75 1.642 . S
C234 C57 1.643 . S
C259 C10 1.447 . S
C264 C55 1.447 . S
C289 C70 1.447 . S
C294 C17 1.447 . S
C319 C36 1.446 . S
C324 C3 1.447 . S
C349 C18 1.447 . S
C354 C49 1.446 . S
C379 C29 1.447 . S
C384 C62 1.446 . S
C409 C69 1.446 . S
C414 C42 1.447 . S
