# Generated by pormake.
# Topology uns, (4)-cn, num edge types: 1
# Building blocks:
#     Node 0, Type 0, BuildingBlock: CEKHIL_clean_sbu_0, # of connection points: 4
#     Node 1, Type 0, BuildingBlock: CEKHIL_clean_sbu_0, # of connection points: 4
#     Node 2, Type 0, BuildingBlock: CEKHIL_clean_sbu_0, # of connection points: 4
#     Node 3, Type 0, BuildingBlock: CEKHIL_clean_sbu_0, # of connection points: 4
#     Node 4, Type 0, BuildingBlock: CEKHIL_clean_sbu_0, # of connection points: 4
#     Node 5, Type 0, BuildingBlock: CEKHIL_clean_sbu_0, # of connection points: 4
#     Node 6, Type 0, BuildingBlock: CEKHIL_clean_sbu_0, # of connection points: 4
#     Node 7, Type 0, BuildingBlock: CEKHIL_clean_sbu_0, # of connection points: 4
#     Node 8, Type 0, BuildingBlock: CEKHIL_clean_sbu_0, # of connection points: 4
#     Node 9, Type 0, BuildingBlock: CEKHIL_clean_sbu_0, # of connection points: 4
#     Node 10, Type 0, BuildingBlock: CEKHIL_clean_sbu_0, # of connection points: 4
#     Node 11, Type 0, BuildingBlock: CEKHIL_clean_sbu_0, # of connection points: 4
#     Node 12, Type 0, BuildingBlock: CEKHIL_clean_sbu_0, # of connection points: 4
#     Node 13, Type 0, BuildingBlock: CEKHIL_clean_sbu_0, # of connection points: 4
#     Node 14, Type 0, BuildingBlock: CEKHIL_clean_sbu_0, # of connection points: 4
#     Node 15, Type 0, BuildingBlock: CEKHIL_clean_sbu_0, # of connection points: 4
#     Node 16, Type 0, BuildingBlock: CEKHIL_clean_sbu_0, # of connection points: 4
#     Node 17, Type 0, BuildingBlock: CEKHIL_clean_sbu_0, # of connection points: 4
#     Node 18, Type 0, BuildingBlock: CEKHIL_clean_sbu_0, # of connection points: 4
#     Node 19, Type 0, BuildingBlock: CEKHIL_clean_sbu_0, # of connection points: 4
#     Node 20, Type 0, BuildingBlock: CEKHIL_clean_sbu_0, # of connection points: 4
#     Node 21, Type 0, BuildingBlock: CEKHIL_clean_sbu_0, # of connection points: 4
#     Node 22, Type 0, BuildingBlock: CEKHIL_clean_sbu_0, # of connection points: 4
#     Node 23, Type 0, BuildingBlock: CEKHIL_clean_sbu_0, # of connection points: 4
#     Node 24, Type 0, BuildingBlock: CEKHIL_clean_sbu_0, # of connection points: 4
#     Node 25, Type 0, BuildingBlock: CEKHIL_clean_sbu_0, # of connection points: 4
#     Node 26, Type 0, BuildingBlock: CEKHIL_clean_sbu_0, # of connection points: 4
#     Node 27, Type 0, BuildingBlock: CEKHIL_clean_sbu_0, # of connection points: 4
#     Node 28, Type 0, BuildingBlock: CEKHIL_clean_sbu_0, # of connection points: 4
#     Node 29, Type 0, BuildingBlock: CEKHIL_clean_sbu_0, # of connection points: 4
#     Node 30, Type 0, BuildingBlock: CEKHIL_clean_sbu_0, # of connection points: 4
#     Node 31, Type 0, BuildingBlock: CEKHIL_clean_sbu_0, # of connection points: 4
#     Node 32, Type 0, BuildingBlock: CEKHIL_clean_sbu_0, # of connection points: 4
#     Node 33, Type 0, BuildingBlock: CEKHIL_clean_sbu_0, # of connection points: 4
#     Node 34, Type 0, BuildingBlock: CEKHIL_clean_sbu_0, # of connection points: 4
#     Node 35, Type 0, BuildingBlock: CEKHIL_clean_sbu_0, # of connection points: 4
#     Edge 36, Type (0, 0), None
#     Edge 37, Type (0, 0), None
#     Edge 38, Type (0, 0), None
#     Edge 39, Type (0, 0), None
#     Edge 40, Type (0, 0), None
#     Edge 41, Type (0, 0), None
#     Edge 42, Type (0, 0), None
#     Edge 43, Type (0, 0), None
#     Edge 44, Type (0, 0), None
#     Edge 45, Type (0, 0), None
#     Edge 46, Type (0, 0), None
#     Edge 47, Type (0, 0), None
#     Edge 48, Type (0, 0), None
#     Edge 49, Type (0, 0), None
#     Edge 50, Type (0, 0), None
#     Edge 51, Type (0, 0), None
#     Edge 52, Type (0, 0), None
#     Edge 53, Type (0, 0), None
#     Edge 54, Type (0, 0), None
#     Edge 55, Type (0, 0), None
#     Edge 56, Type (0, 0), None
#     Edge 57, Type (0, 0), None
#     Edge 58, Type (0, 0), None
#     Edge 59, Type (0, 0), None
#     Edge 60, Type (0, 0), None
#     Edge 61, Type (0, 0), None
#     Edge 62, Type (0, 0), None
#     Edge 63, Type (0, 0), None
#     Edge 64, Type (0, 0), None
#     Edge 65, Type (0, 0), None
#     Edge 66, Type (0, 0), None
#     Edge 67, Type (0, 0), None
#     Edge 68, Type (0, 0), None
#     Edge 69, Type (0, 0), None
#     Edge 70, Type (0, 0), None
#     Edge 71, Type (0, 0), None
#     Edge 72, Type (0, 0), None
#     Edge 73, Type (0, 0), None
#     Edge 74, Type (0, 0), None
#     Edge 75, Type (0, 0), None
#     Edge 76, Type (0, 0), None
#     Edge 77, Type (0, 0), None
#     Edge 78, Type (0, 0), None
#     Edge 79, Type (0, 0), None
#     Edge 80, Type (0, 0), None
#     Edge 81, Type (0, 0), None
#     Edge 82, Type (0, 0), None
#     Edge 83, Type (0, 0), None
#     Edge 84, Type (0, 0), None
#     Edge 85, Type (0, 0), None
#     Edge 86, Type (0, 0), None
#     Edge 87, Type (0, 0), None
#     Edge 88, Type (0, 0), None
#     Edge 89, Type (0, 0), None
#     Edge 90, Type (0, 0), None
#     Edge 91, Type (0, 0), None
#     Edge 92, Type (0, 0), None
#     Edge 93, Type (0, 0), None
#     Edge 94, Type (0, 0), None
#     Edge 95, Type (0, 0), None
#     Edge 96, Type (0, 0), None
#     Edge 97, Type (0, 0), None
#     Edge 98, Type (0, 0), None
#     Edge 99, Type (0, 0), None
#     Edge 100, Type (0, 0), None
#     Edge 101, Type (0, 0), None
#     Edge 102, Type (0, 0), None
#     Edge 103, Type (0, 0), None
#     Edge 104, Type (0, 0), None
#     Edge 105, Type (0, 0), None
#     Edge 106, Type (0, 0), None
#     Edge 107, Type (0, 0), None
# Relax obj value: 0.117
# Max RMSD: 0.273
# Mean RMSD: 0.246
data_MOF--net-uns--node1-CEKHIL_clean_sbu_0--edge1-none
_symmetry_space_group_name_H-M    P1
_symmetry_Int_Tables_number       1
_symmetry_cell_setting            triclinic
loop_
_symmetry_equiv_pos_as_xyz
'x, y, z'
_cell_length_a     24.548919
_cell_length_b     23.939677
_cell_length_c     24.360549
_cell_angle_alpha  92.23643
_cell_angle_beta   90.003206
_cell_angle_gamma 120.84713
loop_
_atom_site_label
_atom_site_type_symbol
_atom_site_fract_x
_atom_site_fract_y
_atom_site_fract_z
_atom_type_partial_charge
Co0 Co 0.27589 0.17678 0.06855 0.0
O1 O 0.34408 0.17124 0.10358 0.0
O2 O 0.2804 0.19669 0.14712 0.0
C3 C 0.2294 0.07579 0.0224 0.0
O4 O 0.20586 0.18783 0.04244 0.0
Co5 Co 0.33542 0.21826 1.00318 0.0
O6 O 0.26859 0.23829 0.97389 0.0
C7 C 0.3888 0.3031 0.07381 0.0
C8 C 0.32946 0.18966 0.14908 0.0
C9 C 0.21699 0.22033 0.99934 0.0
O10 O 0.32933 0.27428 0.06815 0.0
O11 O 0.41673 0.2804 0.046 0.0
O12 O 0.22235 0.08579 0.07294 0.0
O13 O 0.26724 0.12573 0.99408 0.0
Co14 Co 0.84674 0.09763 0.06903 0.0
O15 O 0.93222 0.11812 0.05704 0.0
O16 O 0.87093 0.11739 0.99115 0.0
C17 C 0.86417 0.16517 0.14303 0.0
O18 O 0.75631 0.08052 0.07356 0.0
Co19 Co 0.78613 0.0259 0.17537 0.0
O20 O 0.7336 0.06537 0.16373 0.0
C21 C 0.78005 0.94768 0.07625 0.0
C22 C 0.9268 0.12875 1.00638 0.0
C23 C 0.72217 0.07664 0.11573 0.0
O24 O 0.81129 0.00094 0.05073 0.0
O25 O 0.76814 0.94705 0.12753 0.0
O26 O 0.87674 0.18636 0.09395 0.0
O27 O 0.85412 0.10654 0.14747 0.0
Co28 Co 0.8886 0.69884 0.04399 0.0
O29 O 0.85954 0.75949 0.04185 0.0
O30 O 0.86342 0.70524 0.96919 0.0
C31 C 0.82527 0.63941 0.11185 0.0
O32 O 0.91773 0.63305 0.03665 0.0
Co33 Co 0.96582 0.70498 0.14193 0.0
O34 O 0.91905 0.61082 0.12397 0.0
C35 C 0.03341 0.78053 0.04739 0.0
C36 C 0.84623 0.7446 0.99023 0.0
C37 C 0.92674 0.6014 0.07399 0.0
O38 O 0.9791 0.77055 0.03125 0.0
O39 O 0.04017 0.75819 0.09216 0.0
O40 O 0.80565 0.62996 0.06151 0.0
O41 O 0.88136 0.69135 0.12263 0.0
Co42 Co 0.18965 0.3009 0.46976 0.0
O43 O 0.09994 0.24027 0.47189 0.0
O44 O 0.15808 0.29448 0.54456 0.0
C45 C 0.18578 0.36036 0.40191 0.0
O46 O 0.28459 0.36666 0.4771 0.0
Co47 Co 0.26072 0.29476 0.37181 0.0
O48 O 0.30814 0.38892 0.38979 0.0
C49 C 0.25275 0.21919 0.46634 0.0
C50 C 0.10152 0.25514 0.52351 0.0
C51 C 0.32525 0.39832 0.43977 0.0
O52 O 0.20841 0.22917 0.48248 0.0
O53 O 0.28185 0.24154 0.42157 0.0
O54 O 0.17562 0.3698 0.45225 0.0
O55 O 0.1899 0.3084 0.39112 0.0
Co56 Co 0.74899 0.90211 0.44472 0.0
O57 O 0.81399 0.88162 0.45671 0.0
O58 O 0.75343 0.88235 0.5226 0.0
C59 C 0.69887 0.83457 0.37073 0.0
O60 O 0.67568 0.91922 0.44018 0.0
Co61 Co 0.76011 0.97384 0.33837 0.0
O62 O 0.66811 0.93437 0.35002 0.0
C63 C 0.83226 0.05206 0.43749 0.0
C64 C 0.79794 0.87099 0.50737 0.0
C65 C 0.64542 0.9231 0.39802 0.0
O66 O 0.81025 0.9988 0.46302 0.0
O67 O 0.82097 0.05269 0.38622 0.0
O68 O 0.69026 0.81338 0.4198 0.0
O69 O 0.74746 0.8932 0.36628 0.0
Co70 Co 0.09897 0.82293 0.44519 0.0
O71 O 0.1727 0.82848 0.41015 0.0
O72 O 0.08356 0.80301 0.36661 0.0
C73 C 0.15348 0.92392 0.49133 0.0
O74 O 0.01788 0.81187 0.4713 0.0
Co75 Co 0.11702 0.78146 0.51058 0.0
O76 O 0.03016 0.76141 0.53986 0.0
C77 C 0.08558 0.69662 0.43995 0.0
C78 C 0.13966 0.81005 0.36466 0.0
C79 C 0.99652 0.77937 0.5144 0.0
O80 O 0.05492 0.72543 0.4456 0.0
O81 O 0.13621 0.71933 0.46776 0.0
O82 O 0.13642 0.91392 0.4408 0.0
O83 O 0.14138 0.87399 0.51965 0.0
Co84 Co 0.71816 0.80911 0.9318 0.0
O85 O 0.65587 0.82888 0.90779 0.0
O86 O 0.75014 0.86684 0.87107 0.0
C87 C 0.64837 0.70177 0.92458 0.0
O88 O 0.79146 0.79305 0.94969 0.0
Co89 Co 0.69536 0.74044 0.03996 0.0
O90 O 0.7408 0.70415 0.99838 0.0
C91 C 0.75381 0.88402 0.04465 0.0
C92 C 0.69289 0.85756 0.86793 0.0
C93 C 0.78868 0.74305 0.97121 0.0
O94 O 0.7519 0.88264 0.99146 0.0
O95 O 0.73122 0.83222 0.07193 0.0
O96 O 0.67917 0.73231 0.88245 0.0
O97 O 0.65742 0.73716 0.96934 0.0
Co98 Co 0.17661 0.9062 0.97303 0.0
O99 O 0.08569 0.863 0.98163 0.0
O100 O 0.14489 0.82913 0.01794 0.0
C101 C 0.19896 0.00767 1.00167 0.0
O102 O 0.27277 0.94563 0.97092 0.0
Co103 Co 0.22593 0.01002 0.8822 0.0
O104 O 0.3032 0.00609 0.89536 0.0
C105 C 0.19173 0.87404 0.8528 0.0
C106 C 0.08954 0.82423 0.01448 0.0
C107 C 0.31465 0.98073 0.93542 0.0
O108 O 0.17008 0.85458 0.90118 0.0
O109 O 0.21099 0.93172 0.83781 0.0
O110 O 0.18873 0.96409 0.03609 0.0
O111 O 0.18442 0.98572 0.95117 0.0
Co112 Co 0.08486 0.23491 0.9405 0.0
O113 O 0.11802 0.17894 0.95242 0.0
O114 O 0.16833 0.28381 0.97692 0.0
C115 C 0.98666 0.1689 0.97671 0.0
O116 O 0.05905 0.30327 0.93412 0.0
Co117 Co 0.98226 0.18629 0.85469 0.0
O118 O 1.00315 0.27755 0.85488 0.0
C119 C 0.11271 0.26461 0.81943 0.0
C120 C 0.16716 0.22868 0.97524 0.0
C121 C 0.03078 0.3161 0.89611 0.0
O122 O 0.13074 0.26384 0.86847 0.0
O123 O 0.05444 0.2325 0.80404 0.0
O124 O 0.0364 0.20717 1.00643 0.0
O125 O 0.99816 0.16166 0.92548 0.0
Co126 Co 0.84981 0.7648 0.57324 0.0
O127 O 0.93896 0.82076 0.56133 0.0
O128 O 0.88437 0.7159 0.53682 0.0
C129 C 0.81764 0.83083 0.53703 0.0
O130 O 0.75563 0.69645 0.57961 0.0
Co131 Co 0.79585 0.81344 0.65905 0.0
O132 O 0.72546 0.72218 0.65885 0.0
C133 C 0.84793 0.73506 0.69431 0.0
C134 C 0.93834 0.77102 0.5385 0.0
C135 C 0.71454 0.68362 0.61762 0.0
O136 O 0.86674 0.73585 0.64528 0.0
O137 O 0.82178 0.76718 0.70969 0.0
O138 O 0.8291 0.79255 0.50731 0.0
O139 O 0.83638 0.83805 0.58827 0.0
Co140 Co 0.27028 0.09352 0.5407 0.0
O141 O 0.22255 0.1367 0.53209 0.0
O142 O 0.31563 0.17059 0.49579 0.0
C143 C 0.19117 0.99205 0.51206 0.0
O144 O 0.32702 0.05411 0.54281 0.0
Co145 Co 0.21581 0.98971 0.63153 0.0
O146 O 0.29702 0.99367 0.61838 0.0
C147 C 0.31757 0.1257 0.66093 0.0
C148 C 0.26517 0.17549 0.49924 0.0
C149 C 0.33381 0.01901 0.57832 0.0
O150 O 0.31538 0.14515 0.61255 0.0
O151 O 0.27915 0.06802 0.67592 0.0
O152 O 0.22451 0.03562 0.47764 0.0
O153 O 0.19858 0.01399 0.56256 0.0
Co154 Co 0.90895 0.19061 0.58195 0.0
O155 O 0.82688 0.17084 0.60595 0.0
O156 O 0.88319 0.13288 0.64268 0.0
C157 C 0.94649 0.29795 0.58918 0.0
O158 O 0.99831 0.20669 0.56407 0.0
Co159 Co 0.95481 0.2593 0.4738 0.0
O160 O 0.03654 0.29559 0.51538 0.0
C161 C 0.86969 0.11572 0.4691 0.0
C162 C 0.83521 0.14215 0.64581 0.0
C163 C 0.04553 0.25669 0.54254 0.0
O164 O 0.86916 0.1171 0.52229 0.0
O165 O 0.89888 0.16752 0.44182 0.0
O166 O 0.94676 0.26742 0.63131 0.0
O167 O 0.92016 0.26257 0.54441 0.0
Co168 Co 0.94252 0.51004 0.40187 0.0
O169 O 0.01071 0.50451 0.43692 0.0
O170 O 0.94703 0.52999 0.48043 0.0
C171 C 0.89604 0.40904 0.35573 0.0
O172 O 0.8725 0.52111 0.37574 0.0
Co173 Co 1.00205 0.5515 0.33649 0.0
O174 O 0.93524 0.57156 0.30719 0.0
C175 C 0.05545 0.63637 0.40709 0.0
C176 C 0.99609 0.52296 0.48241 0.0
C177 C 0.88364 0.55361 0.33264 0.0
O178 O 0.99598 0.60755 0.40144 0.0
O179 O 0.08337 0.61363 0.37931 0.0
O180 O 0.88898 0.41906 0.40626 0.0
O181 O 0.93387 0.45897 0.32741 0.0
Co182 Co 0.51342 0.43096 0.40235 0.0
O183 O 0.59891 0.45147 0.39037 0.0
O184 O 0.53761 0.45071 0.32447 0.0
C185 C 0.53084 0.49852 0.47634 0.0
O186 O 0.42299 0.41383 0.40688 0.0
Co187 Co 0.4528 0.35926 0.5087 0.0
O188 O 0.40031 0.39876 0.49705 0.0
C189 C 0.44672 0.28102 0.40959 0.0
C190 C 0.59349 0.46209 0.33971 0.0
C191 C 0.38889 0.41002 0.44905 0.0
O192 O 0.478 0.33427 0.38407 0.0
O193 O 0.43479 0.28039 0.46086 0.0
O194 O 0.54341 0.5197 0.42726 0.0
O195 O 0.5208 0.43988 0.48079 0.0
Co196 Co 0.55527 0.03207 0.3773 0.0
O197 O 0.52625 0.09276 0.37522 0.0
O198 O 0.5301 0.03853 0.30252 0.0
C199 C 0.49194 0.97263 0.44516 0.0
O200 O 0.58437 0.96625 0.36992 0.0
Co201 Co 0.63249 0.0381 0.47523 0.0
O202 O 0.58564 0.94393 0.45725 0.0
C203 C 0.7001 0.11374 0.38073 0.0
C204 C 0.51293 0.0779 0.32359 0.0
C205 C 0.59331 0.93455 0.40725 0.0
O206 O 0.64578 0.10376 0.36458 0.0
O207 O 0.70684 0.09136 0.42548 0.0
O208 O 0.47232 0.96321 0.39483 0.0
O209 O 0.54805 0.02455 0.45594 0.0
Co210 Co 0.85627 0.63419 0.80307 0.0
O211 O 0.76656 0.57352 0.8052 0.0
O212 O 0.82469 0.62778 0.87787 0.0
C213 C 0.85235 0.6936 0.7352 0.0
O214 O 0.9512 0.69999 0.81041 0.0
Co215 Co 0.92738 0.62807 0.70514 0.0
O216 O 0.97475 0.72224 0.7231 0.0
C217 C 0.91942 0.55251 0.79968 0.0
C218 C 0.76814 0.58841 0.85682 0.0
C219 C 0.99185 0.73166 0.77309 0.0
O220 O 0.87508 0.56249 0.81582 0.0
O221 O 0.94852 0.57486 0.75491 0.0
O222 O 0.84219 0.70305 0.78554 0.0
O223 O 0.85652 0.64167 0.72442 0.0
Co224 Co 0.41556 0.23538 0.77805 0.0
O225 O 0.48055 0.21488 0.79004 0.0
O226 O 0.42 0.21563 0.85594 0.0
C227 C 0.36542 0.16783 0.70407 0.0
O228 O 0.34225 0.25251 0.77352 0.0
Co229 Co 0.42667 0.30709 0.67171 0.0
O230 O 0.33468 0.26764 0.68336 0.0
C231 C 0.49883 0.38532 0.77082 0.0
C232 C 0.46451 0.20425 0.8407 0.0
C233 C 0.31199 0.25639 0.73136 0.0
O234 O 0.47683 0.33207 0.79635 0.0
O235 O 0.48754 0.38595 0.71955 0.0
O236 O 0.35681 0.14664 0.75315 0.0
O237 O 0.41402 0.22646 0.69962 0.0
Co238 Co 0.7656 0.15627 0.77853 0.0
O239 O 0.83933 0.16182 0.7435 0.0
O240 O 0.75019 0.13636 0.69996 0.0
C241 C 0.82011 0.25725 0.82469 0.0
O242 O 0.68451 0.1452 0.80464 0.0
Co243 Co 0.78363 0.11477 0.84392 0.0
O244 O 0.69676 0.09472 0.87319 0.0
C245 C 0.7522 0.02995 0.77328 0.0
C246 C 0.80629 0.14341 0.69801 0.0
C247 C 0.66313 0.11269 0.84773 0.0
O248 O 0.72154 0.05877 0.77893 0.0
O249 O 0.80282 0.05265 0.8011 0.0
O250 O 0.80305 0.24726 0.77416 0.0
O251 O 0.80801 0.20731 0.853 0.0
Co252 Co 0.38489 0.14245 0.26515 0.0
O253 O 0.32259 0.16221 0.24113 0.0
O254 O 0.41689 0.20018 0.20442 0.0
C255 C 0.3151 0.03511 0.25792 0.0
O256 O 0.45817 0.12637 0.28305 0.0
Co257 Co 0.36203 0.07378 0.37331 0.0
O258 O 0.40751 0.0375 0.33178 0.0
C259 C 0.42049 0.21735 0.378 0.0
C260 C 0.35963 0.19089 0.20129 0.0
C261 C 0.45538 0.07638 0.3046 0.0
O262 O 0.41861 0.21597 0.3248 0.0
O263 O 0.39787 0.16556 0.40528 0.0
O264 O 0.34591 0.06564 0.21579 0.0
O265 O 0.32413 0.07049 0.30268 0.0
Co266 Co 0.84329 0.23946 0.30638 0.0
O267 O 0.75237 0.19623 0.31498 0.0
O268 O 0.81159 0.16239 0.35129 0.0
C269 C 0.8656 0.34091 0.33501 0.0
O270 O 0.93945 0.27891 0.30427 0.0
Co271 Co 0.89257 0.34326 0.21554 0.0
O272 O 0.96985 0.33935 0.2287 0.0
C273 C 0.8584 0.20728 0.18616 0.0
C274 C 0.75622 0.15746 0.34784 0.0
C275 C 0.98132 0.31402 0.26876 0.0
O276 O 0.83677 0.18783 0.23454 0.0
O277 O 0.87764 0.26496 0.17116 0.0
O278 O 0.85539 0.29735 0.36944 0.0
O279 O 0.85107 0.31896 0.28451 0.0
Co280 Co 0.75153 0.56824 0.27381 0.0
O281 O 0.78468 0.51225 0.28571 0.0
O282 O 0.83501 0.61712 0.31022 0.0
C283 C 0.65334 0.50223 0.31003 0.0
O284 O 0.72573 0.63661 0.26745 0.0
Co285 Co 0.64892 0.51964 0.18801 0.0
O286 O 0.66983 0.61091 0.18821 0.0
C287 C 0.77937 0.59796 0.15274 0.0
C288 C 0.83383 0.56198 0.30853 0.0
C289 C 0.69748 0.64946 0.22944 0.0
O290 O 0.7974 0.59717 0.20177 0.0
O291 O 0.72109 0.56587 0.13736 0.0
O292 O 0.70308 0.5405 0.33975 0.0
O293 O 0.66483 0.495 0.25879 0.0
Co294 Co 0.51643 0.09812 0.90658 0.0
O295 O 0.60556 0.15409 0.89463 0.0
O296 O 0.55099 0.04921 0.87016 0.0
C297 C 0.48421 0.1641 0.87037 0.0
O298 O 0.42227 0.02976 0.913 0.0
Co299 Co 0.46249 0.14676 0.99241 0.0
O300 O 0.39223 0.05544 0.99237 0.0
C301 C 0.51469 0.06849 0.02767 0.0
C302 C 0.60495 0.10434 0.87182 0.0
C303 C 0.38127 0.0169 0.95111 0.0
O304 O 0.53343 0.06922 0.97862 0.0
O305 O 0.48854 0.10061 0.04306 0.0
O306 O 0.49566 0.12583 0.84065 0.0
O307 O 0.50298 0.17136 0.9216 0.0
Co308 Co 0.93694 0.42684 0.87405 0.0
O309 O 0.88922 0.47004 0.86544 0.0
O310 O 0.98229 0.5039 0.82914 0.0
C311 C 0.85781 0.32537 0.84542 0.0
O312 O 0.99365 0.38739 0.87618 0.0
Co313 Co 0.88247 0.32304 0.96489 0.0
O314 O 0.96383 0.32724 0.95193 0.0
C315 C 0.98421 0.45903 0.99428 0.0
C316 C 0.93184 0.50881 0.83258 0.0
C317 C 1.00055 0.35249 0.91181 0.0
O318 O 0.98204 0.47848 0.9459 0.0
O319 O 0.94579 0.40135 0.00928 0.0
O320 O 0.89116 0.36895 0.811 0.0
O321 O 0.86522 0.34732 0.89592 0.0
Co322 Co 0.57556 0.52392 0.91526 0.0
O323 O 0.49351 0.50416 0.93928 0.0
O324 O 0.54982 0.4662 0.976 0.0
C325 C 0.61313 0.63125 0.92247 0.0
O326 O 0.66492 0.53997 0.89737 0.0
Co327 Co 0.62141 0.59257 0.80709 0.0
O328 O 0.70315 0.62885 0.84866 0.0
C329 C 0.53627 0.44899 0.80242 0.0
C330 C 0.50185 0.47548 0.97914 0.0
C331 C 0.71214 0.58997 0.87583 0.0
O332 O 0.53576 0.45038 0.85561 0.0
O333 O 0.56547 0.50078 0.77513 0.0
O334 O 0.6134 0.60073 0.9646 0.0
O335 O 0.58677 0.59587 0.87771 0.0
Co336 Co 0.60915 0.84338 0.73519 0.0
O337 O 0.67733 0.83784 0.77024 0.0
O338 O 0.61364 0.86331 0.81376 0.0
C339 C 0.56267 0.74238 0.68904 0.0
O340 O 0.53912 0.85444 0.70906 0.0
Co341 Co 0.66867 0.88485 0.66981 0.0
O342 O 0.60187 0.90492 0.64053 0.0
C343 C 0.72208 0.9697 0.74042 0.0
C344 C 0.66269 0.85627 0.81573 0.0
C345 C 0.55027 0.88695 0.66597 0.0
O346 O 0.6626 0.94088 0.73478 0.0
O347 O 0.74999 0.94697 0.71264 0.0
O348 O 0.5556 0.75239 0.73957 0.0
O349 O 0.60051 0.79232 0.66073 0.0
Co350 Co 0.18005 0.76436 0.73568 0.0
O351 O 0.26555 0.78488 0.7237 0.0
O352 O 0.20424 0.7841 0.6578 0.0
C353 C 0.19746 0.83192 0.80966 0.0
O354 O 0.08961 0.74721 0.7402 0.0
Co355 Co 0.11944 0.69267 0.84203 0.0
O356 O 0.06693 0.73216 0.83038 0.0
C357 C 0.11337 0.61442 0.74293 0.0
C358 C 0.26012 0.79549 0.67304 0.0
C359 C 0.05551 0.74339 0.78237 0.0
O360 O 0.14464 0.66767 0.7174 0.0
O361 O 0.10143 0.6138 0.7942 0.0
O362 O 0.21003 0.8531 0.76058 0.0
O363 O 0.18744 0.77329 0.81412 0.0
Co364 Co 0.22194 0.36545 0.71066 0.0
O365 O 0.19295 0.42617 0.70857 0.0
O366 O 0.19674 0.3719 0.63588 0.0
C367 C 0.15861 0.30606 0.77853 0.0
O368 O 0.25098 0.29959 0.70327 0.0
Co369 Co 0.29917 0.37145 0.80857 0.0
O370 O 0.25226 0.27728 0.7906 0.0
C371 C 0.36677 0.44708 0.71405 0.0
C372 C 0.17961 0.41129 0.65695 0.0
C373 C 0.25991 0.26788 0.7406 0.0
O374 O 0.31246 0.4371 0.6979 0.0
O375 O 0.37352 0.4247 0.75881 0.0
O376 O 0.13898 0.29663 0.7282 0.0
O377 O 0.21474 0.35795 0.78931 0.0
Co378 Co 0.52305 0.96762 0.13642 0.0
O379 O 0.43334 0.90692 0.1385 0.0
O380 O 0.49141 0.96115 0.2112 0.0
C381 C 0.51913 0.02704 0.06856 0.0
O382 O 0.61796 0.03346 0.14381 0.0
Co383 Co 0.59427 0.96162 0.0385 0.0
O384 O 0.64156 0.05579 0.05649 0.0
C385 C 0.58623 0.88597 0.13301 0.0
C386 C 0.43487 0.92178 0.19013 0.0
C387 C 0.6586 0.06517 0.10649 0.0
O388 O 0.54189 0.89595 0.14916 0.0
O389 O 0.61535 0.90835 0.08825 0.0
O390 O 0.50894 0.03647 0.11889 0.0
O391 O 0.52335 0.97514 0.05778 0.0
Co392 Co 0.08224 0.56871 0.1114 0.0
O393 O 0.14722 0.54819 0.12338 0.0
O394 O 0.08669 0.54897 0.18928 0.0
C395 C 0.03208 0.50116 0.03742 0.0
O396 O 0.00896 0.58586 0.10688 0.0
Co397 Co 0.09332 0.64041 1.00505 0.0
O398 O 1.00132 0.60091 0.0167 0.0
C399 C 0.1655 0.71865 0.10415 0.0
C400 C 0.13118 0.53758 0.17405 0.0
C401 C 0.97866 0.58967 0.06471 0.0
O402 O 0.14353 0.6654 0.12968 0.0
O403 O 0.15418 0.71927 0.05288 0.0
O404 O 0.02348 0.47997 0.0865 0.0
O405 O 0.08069 0.55978 0.03296 0.0
Co406 Co 0.4323 0.48967 0.11189 0.0
O407 O 0.50602 0.49521 0.07684 0.0
O408 O 0.41685 0.46973 0.03332 0.0
C409 C 0.48682 0.59066 0.15802 0.0
O410 O 0.35121 0.4786 0.13801 0.0
Co411 Co 0.45035 0.4482 0.17728 0.0
O412 O 0.36348 0.42812 0.20655 0.0
C413 C 0.41892 0.36335 0.10666 0.0
C414 C 0.47295 0.47678 0.03135 0.0
C415 C 0.32984 0.44608 0.1811 0.0
O416 O 0.38825 0.39216 0.1123 0.0
O417 O 0.46956 0.38609 0.13446 0.0
O418 O 0.46974 0.58065 0.1075 0.0
O419 O 0.47473 0.54073 0.18634 0.0
Co420 Co 0.05153 0.47581 0.5985 0.0
O421 O 0.98923 0.49556 0.57447 0.0
O422 O 0.08352 0.53352 0.53776 0.0
C423 C 0.98177 0.36847 0.5913 0.0
O424 O 0.12483 0.45975 0.61641 0.0
Co425 Co 0.0287 0.40718 0.70669 0.0
O426 O 0.07419 0.3709 0.66517 0.0
C427 C 0.08714 0.55075 0.71134 0.0
C428 C 0.02626 0.52422 0.53462 0.0
C429 C 0.12205 0.40977 0.63798 0.0
O430 O 0.08526 0.54935 0.65815 0.0
O431 O 0.06453 0.49896 0.73864 0.0
O432 O 0.01256 0.399 0.54916 0.0
O433 O 0.99079 0.40386 0.63605 0.0
Co434 Co 0.50996 0.5728 0.6397 0.0
O435 O 0.41904 0.52956 0.6483 0.0
O436 O 0.47827 0.49574 0.68462 0.0
C437 C 0.53225 0.67426 0.66832 0.0
O438 O 0.60613 0.6123 0.63756 0.0
Co439 Co 0.55922 0.67659 0.54885 0.0
O440 O 0.63641 0.67244 0.56182 0.0
C441 C 0.52505 0.54062 0.51947 0.0
C442 C 0.4229 0.4908 0.68116 0.0
C443 C 0.64791 0.64721 0.60193 0.0
O444 O 0.50344 0.52117 0.56785 0.0
O445 O 0.54427 0.59829 0.50446 0.0
O446 O 0.52205 0.63069 0.70275 0.0
O447 O 0.51772 0.6523 0.61782 0.0
Co448 Co 0.41817 0.90158 0.60714 0.0
O449 O 0.45129 0.84558 0.61908 0.0
O450 O 0.50165 0.95047 0.64354 0.0
C451 C 0.31996 0.83562 0.64336 0.0
O452 O 0.39239 0.96996 0.60073 0.0
Co453 Co 0.31557 0.85299 0.52132 0.0
O454 O 0.33668 0.94432 0.52136 0.0
C455 C 0.44603 0.9312 0.48605 0.0
C456 C 0.50045 0.89533 0.64188 0.0
C457 C 0.36427 0.98284 0.56262 0.0
O458 O 0.46405 0.93047 0.5351 0.0
O459 O 0.38776 0.89911 0.47066 0.0
O460 O 0.36971 0.87389 0.67307 0.0
O461 O 0.33145 0.82836 0.59213 0.0
Co462 Co 0.18311 0.43146 0.23994 0.0
O463 O 0.27225 0.48745 0.22801 0.0
O464 O 0.2177 0.38257 0.20353 0.0
C465 C 0.15089 0.49744 0.20372 0.0
O466 O 0.08894 0.36309 0.24634 0.0
Co467 Co 0.12913 0.48007 0.32575 0.0
O468 O 0.05888 0.38875 0.3257 0.0
C469 C 0.18132 0.40181 0.36102 0.0
C470 C 0.27165 0.43771 0.2052 0.0
C471 C 0.04795 0.35021 0.28445 0.0
O472 O 0.20009 0.40256 0.31198 0.0
O473 O 0.15515 0.43391 0.37641 0.0
O474 O 0.16235 0.45917 0.17401 0.0
O475 O 0.16964 0.50469 0.25495 0.0
Co476 Co 0.6037 0.76025 0.20736 0.0
O477 O 0.55601 0.80348 0.19875 0.0
O478 O 0.64906 0.83731 0.16244 0.0
C479 C 0.52454 0.65879 0.17874 0.0
O480 O 0.66038 0.72077 0.2095 0.0
Co481 Co 0.5492 0.65647 0.29821 0.0
O482 O 0.63055 0.66064 0.28526 0.0
C483 C 0.65098 0.79246 0.3276 0.0
C484 C 0.59863 0.84225 0.1659 0.0
C485 C 0.66727 0.68587 0.24514 0.0
O486 O 0.64882 0.8119 0.27921 0.0
O487 O 0.61253 0.73478 0.3426 0.0
O488 O 0.55789 0.70235 0.14432 0.0
O489 O 0.53196 0.68075 0.22924 0.0
Co490 Co 0.24228 0.85725 0.24858 0.0
O491 O 0.16023 0.83749 0.2726 0.0
O492 O 0.21656 0.79953 0.30932 0.0
C493 C 0.27986 0.96459 0.2558 0.0
O494 O 0.33165 0.87332 0.23067 0.0
Co495 Co 0.28808 0.9259 0.1404 0.0
O496 O 0.36985 0.96217 0.18192 0.0
C497 C 0.20295 0.78232 0.13574 0.0
C498 C 0.1686 0.80882 0.31245 0.0
C499 C 0.37885 0.9233 0.20911 0.0
O500 O 0.20247 0.78371 0.18893 0.0
O501 O 0.23212 0.83411 0.10845 0.0
O502 O 0.28013 0.93406 0.29793 0.0
O503 O 0.25349 0.9292 0.21104 0.0
loop_
_geom_bond_atom_site_label_1
_geom_bond_atom_site_label_2
_geom_bond_distance
_geom_bond_site_symmetry_2
_ccdc_geom_bond_type
Co0 O1 2.216 . S
Co0 O2 2.091 . S
Co0 O4 2.004 . S
Co0 O10 2.021 . S
Co0 O12 2.137 . S
Co0 O13 2.244 1_554 S
O1 Co0 2.216 . S
O1 C8 1.247 . S
O2 Co0 2.091 . S
O2 C8 1.261 . S
C3 O12 1.247 1_556 S
C3 O13 1.272 . S
O4 Co0 2.004 . S
O4 C9 1.259 . S
Co5 O6 2.061 . S
Co5 O11 2.052 . S
Co5 O13 2.135 . S
O6 Co5 2.061 . S
O6 C9 1.235 1_556 S
C7 O10 1.238 . S
C7 O11 1.241 1_554 S
C8 O1 1.247 . S
C8 O2 1.261 . S
C9 O4 1.259 . S
C9 O6 1.235 1_554 S
O10 Co0 2.021 . S
O10 C7 1.238 . S
O11 Co5 2.052 . S
O11 C7 1.241 1_556 S
O12 Co0 2.137 . S
O12 C3 1.247 1_554 S
O13 Co0 2.244 1_556 S
O13 C3 1.272 . S
O13 Co5 2.135 . S
Co14 O15 2.216 . S
Co14 O16 2.091 1_554 S
Co14 O18 2.004 . S
Co14 O24 2.021 . S
Co14 O26 2.137 . S
Co14 O27 2.244 . S
O15 Co14 2.216 . S
O15 C22 1.247 1_554 S
O16 Co14 2.091 1_556 S
O16 C22 1.261 . S
C17 O26 1.247 . S
C17 O27 1.272 . S
O18 Co14 2.004 . S
O18 C23 1.259 . S
Co19 O20 2.061 . S
Co19 O25 2.052 . S
Co19 O27 2.135 1_565 S
O20 Co19 2.061 . S
O20 C23 1.235 1_565 S
C21 O24 1.238 1_565 S
C21 O25 1.241 . S
C22 O15 1.247 1_556 S
C22 O16 1.261 . S
C23 O18 1.259 . S
C23 O20 1.235 1_545 S
O24 Co14 2.021 . S
O24 C21 1.238 1_545 S
O25 Co19 2.052 . S
O25 C21 1.241 . S
O26 Co14 2.137 . S
O26 C17 1.247 . S
O27 Co14 2.244 . S
O27 C17 1.272 . S
O27 Co19 2.135 1_545 S
Co28 O29 2.216 . S
Co28 O30 2.091 1_554 S
Co28 O32 2.004 . S
Co28 O38 2.021 . S
Co28 O40 2.137 . S
Co28 O41 2.244 . S
O29 Co28 2.216 . S
O29 C36 1.247 . S
O30 Co28 2.091 1_556 S
O30 C36 1.261 1_556 S
C31 O40 1.247 . S
C31 O41 1.272 . S
O32 Co28 2.004 . S
O32 C37 1.259 . S
Co33 O34 2.061 . S
Co33 O39 2.052 . S
Co33 O41 2.135 1_455 S
O34 Co33 2.061 . S
O34 C37 1.235 1_455 S
C35 O38 1.238 1_455 S
C35 O39 1.241 . S
C36 O29 1.247 . S
C36 O30 1.261 1_554 S
C37 O32 1.259 . S
C37 O34 1.235 1_655 S
O38 Co28 2.021 . S
O38 C35 1.238 1_655 S
O39 Co33 2.052 . S
O39 C35 1.241 . S
O40 Co28 2.137 . S
O40 C31 1.247 . S
O41 Co28 2.244 . S
O41 C31 1.272 . S
O41 Co33 2.135 1_655 S
Co42 O43 2.216 . S
Co42 O44 2.091 . S
Co42 O46 2.004 . S
Co42 O52 2.021 . S
Co42 O54 2.137 . S
Co42 O55 2.244 . S
O43 Co42 2.216 . S
O43 C50 1.247 . S
O44 Co42 2.091 . S
O44 C50 1.261 . S
C45 O54 1.247 . S
C45 O55 1.272 . S
O46 Co42 2.004 . S
O46 C51 1.259 . S
Co47 O48 2.061 . S
Co47 O53 2.052 . S
Co47 O55 2.135 . S
O48 Co47 2.061 . S
O48 C51 1.235 . S
C49 O52 1.238 . S
C49 O53 1.241 . S
C50 O43 1.247 . S
C50 O44 1.261 . S
C51 O46 1.259 . S
C51 O48 1.235 . S
O52 Co42 2.021 . S
O52 C49 1.238 . S
O53 Co47 2.052 . S
O53 C49 1.241 . S
O54 Co42 2.137 . S
O54 C45 1.247 . S
O55 Co42 2.244 . S
O55 C45 1.272 . S
O55 Co47 2.135 . S
Co56 O57 2.216 . S
Co56 O58 2.091 . S
Co56 O60 2.004 . S
Co56 O66 2.021 . S
Co56 O68 2.137 . S
Co56 O69 2.244 . S
O57 Co56 2.216 . S
O57 C64 1.247 . S
O58 Co56 2.091 . S
O58 C64 1.261 . S
C59 O68 1.247 . S
C59 O69 1.272 . S
O60 Co56 2.004 . S
O60 C65 1.259 . S
Co61 O62 2.061 . S
Co61 O67 2.052 . S
Co61 O69 2.135 1_545 S
O62 Co61 2.061 . S
O62 C65 1.235 1_545 S
C63 O66 1.238 1_545 S
C63 O67 1.241 . S
C64 O57 1.247 . S
C64 O58 1.261 . S
C65 O60 1.259 . S
C65 O62 1.235 1_565 S
O66 Co56 2.021 . S
O66 C63 1.238 1_565 S
O67 Co61 2.052 . S
O67 C63 1.241 . S
O68 Co56 2.137 . S
O68 C59 1.247 . S
O69 Co56 2.244 . S
O69 C59 1.272 . S
O69 Co61 2.135 1_565 S
Co70 O71 2.216 . S
Co70 O72 2.091 . S
Co70 O74 2.004 . S
Co70 O80 2.021 . S
Co70 O82 2.137 . S
Co70 O83 2.244 . S
O71 Co70 2.216 . S
O71 C78 1.247 . S
O72 Co70 2.091 . S
O72 C78 1.261 . S
C73 O82 1.247 . S
C73 O83 1.272 . S
O74 Co70 2.004 . S
O74 C79 1.259 1_455 S
Co75 O76 2.061 1_455 S
Co75 O81 2.052 . S
Co75 O83 2.135 . S
O76 Co75 2.061 1_655 S
O76 C79 1.235 . S
C77 O80 1.238 . S
C77 O81 1.241 . S
C78 O71 1.247 . S
C78 O72 1.261 . S
C79 O74 1.259 1_655 S
C79 O76 1.235 . S
O80 Co70 2.021 . S
O80 C77 1.238 . S
O81 Co75 2.052 . S
O81 C77 1.241 . S
O82 Co70 2.137 . S
O82 C73 1.247 . S
O83 Co70 2.244 . S
O83 C73 1.272 . S
O83 Co75 2.135 . S
Co84 O85 2.216 . S
Co84 O86 2.091 . S
Co84 O88 2.004 . S
Co84 O94 2.021 . S
Co84 O96 2.137 . S
Co84 O97 2.244 . S
O85 Co84 2.216 . S
O85 C92 1.247 . S
O86 Co84 2.091 . S
O86 C92 1.261 . S
C87 O96 1.247 . S
C87 O97 1.272 . S
O88 Co84 2.004 . S
O88 C93 1.259 . S
Co89 O90 2.061 . S
Co89 O95 2.052 . S
Co89 O97 2.135 1_554 S
O90 Co89 2.061 . S
O90 C93 1.235 1_554 S
C91 O94 1.238 1_554 S
C91 O95 1.241 . S
C92 O85 1.247 . S
C92 O86 1.261 . S
C93 O88 1.259 . S
C93 O90 1.235 1_556 S
O94 Co84 2.021 . S
O94 C91 1.238 1_556 S
O95 Co89 2.052 . S
O95 C91 1.241 . S
O96 Co84 2.137 . S
O96 C87 1.247 . S
O97 Co84 2.244 . S
O97 C87 1.272 . S
O97 Co89 2.135 1_556 S
Co98 O99 2.216 . S
Co98 O100 2.091 1_556 S
Co98 O102 2.004 . S
Co98 O108 2.021 . S
Co98 O110 2.137 1_556 S
Co98 O111 2.244 1_565 S
O99 Co98 2.216 . S
O99 C106 1.247 . S
O100 Co98 2.091 1_554 S
O100 C106 1.261 1_554 S
C101 O110 1.247 1_546 S
C101 O111 1.272 . S
O102 Co98 2.004 . S
O102 C107 1.259 . S
Co103 O104 2.058 1_545 S
Co103 O109 2.052 1_545 S
Co103 O111 2.135 . S
O104 Co103 2.058 1_565 S
O104 C107 1.238 . S
C105 O108 1.238 . S
C105 O109 1.241 . S
C106 O99 1.247 . S
C106 O100 1.261 1_556 S
C107 O102 1.259 . S
C107 O104 1.238 . S
O108 Co98 2.021 . S
O108 C105 1.238 . S
O109 Co103 2.052 1_565 S
O109 C105 1.241 . S
O110 Co98 2.137 1_554 S
O110 C101 1.247 1_564 S
O111 Co98 2.244 1_545 S
O111 C101 1.272 . S
O111 Co103 2.135 . S
Co112 O113 2.216 . S
Co112 O114 2.091 . S
Co112 O116 2.004 . S
Co112 O122 2.021 . S
Co112 O124 2.137 . S
Co112 O125 2.244 1_455 S
O113 Co112 2.216 . S
O113 C120 1.247 . S
O114 Co112 2.091 . S
O114 C120 1.261 . S
C115 O124 1.247 1_655 S
C115 O125 1.272 . S
O116 Co112 2.004 . S
O116 C121 1.259 . S
Co117 O118 2.061 . S
Co117 O123 2.052 1_655 S
Co117 O125 2.135 . S
O118 Co117 2.061 . S
O118 C121 1.235 1_655 S
C119 O122 1.238 . S
C119 O123 1.241 . S
C120 O113 1.247 . S
C120 O114 1.261 . S
C121 O116 1.259 . S
C121 O118 1.235 1_455 S
O122 Co112 2.021 . S
O122 C119 1.238 . S
O123 Co117 2.052 1_455 S
O123 C119 1.241 . S
O124 Co112 2.137 . S
O124 C115 1.247 1_455 S
O125 Co112 2.244 1_655 S
O125 C115 1.272 . S
O125 Co117 2.135 . S
Co126 O127 2.216 . S
Co126 O128 2.091 . S
Co126 O130 2.004 . S
Co126 O136 2.021 . S
Co126 O138 2.137 . S
Co126 O139 2.244 . S
O127 Co126 2.216 . S
O127 C134 1.247 . S
O128 Co126 2.091 . S
O128 C134 1.261 . S
C129 O138 1.247 . S
C129 O139 1.272 . S
O130 Co126 2.004 . S
O130 C135 1.259 . S
Co131 O132 2.061 . S
Co131 O137 2.052 . S
Co131 O139 2.135 . S
O132 Co131 2.061 . S
O132 C135 1.235 . S
C133 O136 1.238 . S
C133 O137 1.241 . S
C134 O127 1.247 . S
C134 O128 1.261 . S
C135 O130 1.259 . S
C135 O132 1.235 . S
O136 Co126 2.021 . S
O136 C133 1.238 . S
O137 Co131 2.052 . S
O137 C133 1.241 . S
O138 Co126 2.137 . S
O138 C129 1.247 . S
O139 Co126 2.244 . S
O139 C129 1.272 . S
O139 Co131 2.135 . S
Co140 O141 2.216 . S
Co140 O142 2.091 . S
Co140 O144 2.004 . S
Co140 O150 2.021 . S
Co140 O152 2.137 . S
Co140 O153 2.244 1_545 S
O141 Co140 2.216 . S
O141 C148 1.247 . S
O142 Co140 2.091 . S
O142 C148 1.261 . S
C143 O152 1.247 1_565 S
C143 O153 1.272 . S
O144 Co140 2.004 . S
O144 C149 1.259 . S
Co145 O146 2.063 1_565 S
Co145 O151 2.052 1_565 S
Co145 O153 2.135 . S
O146 Co145 2.063 1_545 S
O146 C149 1.236 . S
C147 O150 1.238 . S
C147 O151 1.241 . S
C148 O141 1.247 . S
C148 O142 1.261 . S
C149 O144 1.259 . S
C149 O146 1.236 . S
O150 Co140 2.021 . S
O150 C147 1.238 . S
O151 Co145 2.052 1_545 S
O151 C147 1.241 . S
O152 Co140 2.137 . S
O152 C143 1.247 1_545 S
O153 Co140 2.244 1_565 S
O153 C143 1.272 . S
O153 Co145 2.135 . S
Co154 O155 2.216 . S
Co154 O156 2.091 . S
Co154 O158 2.004 1_655 S
Co154 O164 2.021 . S
Co154 O166 2.137 . S
Co154 O167 2.244 . S
O155 Co154 2.216 . S
O155 C162 1.247 . S
O156 Co154 2.091 . S
O156 C162 1.261 . S
C157 O166 1.247 . S
C157 O167 1.272 . S
O158 Co154 2.004 1_455 S
O158 C163 1.259 . S
Co159 O160 2.061 1_655 S
Co159 O165 2.052 . S
Co159 O167 2.135 . S
O160 Co159 2.061 1_455 S
O160 C163 1.235 . S
C161 O164 1.238 . S
C161 O165 1.241 . S
C162 O155 1.247 . S
C162 O156 1.261 . S
C163 O158 1.259 . S
C163 O160 1.235 . S
O164 Co154 2.021 . S
O164 C161 1.238 . S
O165 Co159 2.052 . S
O165 C161 1.241 . S
O166 Co154 2.137 . S
O166 C157 1.247 . S
O167 Co154 2.244 . S
O167 C157 1.272 . S
O167 Co159 2.135 . S
Co168 O169 2.216 . S
Co168 O170 2.091 . S
Co168 O172 2.004 . S
Co168 O178 2.021 . S
Co168 O180 2.137 . S
Co168 O181 2.244 . S
O169 Co168 2.216 . S
O169 C176 1.247 . S
O170 Co168 2.091 . S
O170 C176 1.261 . S
C171 O180 1.247 . S
C171 O181 1.272 . S
O172 Co168 2.004 . S
O172 C177 1.259 . S
Co173 O174 2.061 . S
Co173 O179 2.052 1_655 S
Co173 O181 2.135 . S
O174 Co173 2.061 . S
O174 C177 1.235 . S
C175 O178 1.238 1_455 S
C175 O179 1.241 . S
C176 O169 1.247 . S
C176 O170 1.261 . S
C177 O172 1.259 . S
C177 O174 1.235 . S
O178 Co168 2.021 . S
O178 C175 1.238 1_655 S
O179 Co173 2.052 1_455 S
O179 C175 1.241 . S
O180 Co168 2.137 . S
O180 C171 1.247 . S
O181 Co168 2.244 . S
O181 C171 1.272 . S
O181 Co173 2.135 . S
Co182 O183 2.216 . S
Co182 O184 2.091 . S
Co182 O186 2.004 . S
Co182 O192 2.021 . S
Co182 O194 2.137 . S
Co182 O195 2.244 . S
O183 Co182 2.216 . S
O183 C190 1.247 . S
O184 Co182 2.091 . S
O184 C190 1.261 . S
C185 O194 1.247 . S
C185 O195 1.272 . S
O186 Co182 2.004 . S
O186 C191 1.259 . S
Co187 O188 2.061 . S
Co187 O193 2.052 . S
Co187 O195 2.135 . S
O188 Co187 2.061 . S
O188 C191 1.235 . S
C189 O192 1.238 . S
C189 O193 1.241 . S
C190 O183 1.247 . S
C190 O184 1.261 . S
C191 O186 1.259 . S
C191 O188 1.235 . S
O192 Co182 2.021 . S
O192 C189 1.238 . S
O193 Co187 2.052 . S
O193 C189 1.241 . S
O194 Co182 2.137 . S
O194 C185 1.247 . S
O195 Co182 2.244 . S
O195 C185 1.272 . S
O195 Co187 2.135 . S
Co196 O197 2.216 . S
Co196 O198 2.091 . S
Co196 O200 2.004 1_545 S
Co196 O206 2.021 . S
Co196 O208 2.137 . S
Co196 O209 2.244 . S
O197 Co196 2.216 . S
O197 C204 1.247 . S
O198 Co196 2.091 . S
O198 C204 1.261 . S
C199 O208 1.247 . S
C199 O209 1.272 . S
O200 Co196 2.004 1_565 S
O200 C205 1.259 . S
Co201 O202 2.061 . S
Co201 O207 2.052 . S
Co201 O209 2.135 . S
O202 Co201 2.061 . S
O202 C205 1.235 1_545 S
C203 O206 1.238 . S
C203 O207 1.241 . S
C204 O197 1.247 . S
C204 O198 1.261 . S
C205 O200 1.259 . S
C205 O202 1.235 1_565 S
O206 Co196 2.021 . S
O206 C203 1.238 . S
O207 Co201 2.052 . S
O207 C203 1.241 . S
O208 Co196 2.137 . S
O208 C199 1.247 . S
O209 Co196 2.244 . S
O209 C199 1.272 . S
O209 Co201 2.135 . S
Co210 O211 2.216 . S
Co210 O212 2.091 . S
Co210 O214 2.004 . S
Co210 O220 2.021 . S
Co210 O222 2.137 . S
Co210 O223 2.244 . S
O211 Co210 2.216 . S
O211 C218 1.247 . S
O212 Co210 2.091 . S
O212 C218 1.261 . S
C213 O222 1.247 . S
C213 O223 1.272 . S
O214 Co210 2.004 . S
O214 C219 1.259 . S
Co215 O216 2.061 . S
Co215 O221 2.052 . S
Co215 O223 2.135 . S
O216 Co215 2.061 . S
O216 C219 1.235 . S
C217 O220 1.238 . S
C217 O221 1.241 . S
C218 O211 1.247 . S
C218 O212 1.261 . S
C219 O214 1.259 . S
C219 O216 1.235 . S
O220 Co210 2.021 . S
O220 C217 1.238 . S
O221 Co215 2.052 . S
O221 C217 1.241 . S
O222 Co210 2.137 . S
O222 C213 1.247 . S
O223 Co210 2.244 . S
O223 C213 1.272 . S
O223 Co215 2.135 . S
Co224 O225 2.216 . S
Co224 O226 2.091 . S
Co224 O228 2.004 . S
Co224 O234 2.021 . S
Co224 O236 2.137 . S
Co224 O237 2.244 . S
O225 Co224 2.216 . S
O225 C232 1.247 . S
O226 Co224 2.091 . S
O226 C232 1.261 . S
C227 O236 1.247 . S
C227 O237 1.272 . S
O228 Co224 2.004 . S
O228 C233 1.259 . S
Co229 O230 2.061 . S
Co229 O235 2.052 . S
Co229 O237 2.135 . S
O230 Co229 2.061 . S
O230 C233 1.235 . S
C231 O234 1.238 . S
C231 O235 1.241 . S
C232 O225 1.247 . S
C232 O226 1.261 . S
C233 O228 1.259 . S
C233 O230 1.235 . S
O234 Co224 2.021 . S
O234 C231 1.238 . S
O235 Co229 2.052 . S
O235 C231 1.241 . S
O236 Co224 2.137 . S
O236 C227 1.247 . S
O237 Co224 2.244 . S
O237 C227 1.272 . S
O237 Co229 2.135 . S
Co238 O239 2.216 . S
Co238 O240 2.091 . S
Co238 O242 2.004 . S
Co238 O248 2.021 . S
Co238 O250 2.137 . S
Co238 O251 2.244 . S
O239 Co238 2.216 . S
O239 C246 1.247 . S
O240 Co238 2.091 . S
O240 C246 1.261 . S
C241 O250 1.247 . S
C241 O251 1.272 . S
O242 Co238 2.004 . S
O242 C247 1.259 . S
Co243 O244 2.061 . S
Co243 O249 2.052 . S
Co243 O251 2.135 . S
O244 Co243 2.061 . S
O244 C247 1.235 . S
C245 O248 1.238 . S
C245 O249 1.241 . S
C246 O239 1.247 . S
C246 O240 1.261 . S
C247 O242 1.259 . S
C247 O244 1.235 . S
O248 Co238 2.021 . S
O248 C245 1.238 . S
O249 Co243 2.052 . S
O249 C245 1.241 . S
O250 Co238 2.137 . S
O250 C241 1.247 . S
O251 Co238 2.244 . S
O251 C241 1.272 . S
O251 Co243 2.135 . S
Co252 O253 2.216 . S
Co252 O254 2.091 . S
Co252 O256 2.004 . S
Co252 O262 2.021 . S
Co252 O264 2.137 . S
Co252 O265 2.244 . S
O253 Co252 2.216 . S
O253 C260 1.247 . S
O254 Co252 2.091 . S
O254 C260 1.261 . S
C255 O264 1.247 . S
C255 O265 1.272 . S
O256 Co252 2.004 . S
O256 C261 1.259 . S
Co257 O258 2.061 . S
Co257 O263 2.052 . S
Co257 O265 2.135 . S
O258 Co257 2.061 . S
O258 C261 1.235 . S
C259 O262 1.238 . S
C259 O263 1.241 . S
C260 O253 1.247 . S
C260 O254 1.261 . S
C261 O256 1.259 . S
C261 O258 1.235 . S
O262 Co252 2.021 . S
O262 C259 1.238 . S
O263 Co257 2.052 . S
O263 C259 1.241 . S
O264 Co252 2.137 . S
O264 C255 1.247 . S
O265 Co252 2.244 . S
O265 C255 1.272 . S
O265 Co257 2.135 . S
Co266 O267 2.216 . S
Co266 O268 2.091 . S
Co266 O270 2.004 . S
Co266 O276 2.021 . S
Co266 O278 2.137 . S
Co266 O279 2.244 . S
O267 Co266 2.216 . S
O267 C274 1.247 . S
O268 Co266 2.091 . S
O268 C274 1.261 . S
C269 O278 1.247 . S
C269 O279 1.272 . S
O270 Co266 2.004 . S
O270 C275 1.259 . S
Co271 O272 2.061 . S
Co271 O277 2.052 . S
Co271 O279 2.135 . S
O272 Co271 2.061 . S
O272 C275 1.235 . S
C273 O276 1.238 . S
C273 O277 1.241 . S
C274 O267 1.247 . S
C274 O268 1.261 . S
C275 O270 1.259 . S
C275 O272 1.235 . S
O276 Co266 2.021 . S
O276 C273 1.238 . S
O277 Co271 2.052 . S
O277 C273 1.241 . S
O278 Co266 2.137 . S
O278 C269 1.247 . S
O279 Co266 2.244 . S
O279 C269 1.272 . S
O279 Co271 2.135 . S
Co280 O281 2.216 . S
Co280 O282 2.091 . S
Co280 O284 2.004 . S
Co280 O290 2.021 . S
Co280 O292 2.137 . S
Co280 O293 2.244 . S
O281 Co280 2.216 . S
O281 C288 1.247 . S
O282 Co280 2.091 . S
O282 C288 1.261 . S
C283 O292 1.247 . S
C283 O293 1.272 . S
O284 Co280 2.004 . S
O284 C289 1.259 . S
Co285 O286 2.061 . S
Co285 O291 2.052 . S
Co285 O293 2.135 . S
O286 Co285 2.061 . S
O286 C289 1.235 . S
C287 O290 1.238 . S
C287 O291 1.241 . S
C288 O281 1.247 . S
C288 O282 1.261 . S
C289 O284 1.259 . S
C289 O286 1.235 . S
O290 Co280 2.021 . S
O290 C287 1.238 . S
O291 Co285 2.052 . S
O291 C287 1.241 . S
O292 Co280 2.137 . S
O292 C283 1.247 . S
O293 Co280 2.244 . S
O293 C283 1.272 . S
O293 Co285 2.135 . S
Co294 O295 2.216 . S
Co294 O296 2.091 . S
Co294 O298 2.004 . S
Co294 O304 2.021 . S
Co294 O306 2.137 . S
Co294 O307 2.244 . S
O295 Co294 2.216 . S
O295 C302 1.247 . S
O296 Co294 2.091 . S
O296 C302 1.261 . S
C297 O306 1.247 . S
C297 O307 1.272 . S
O298 Co294 2.004 . S
O298 C303 1.259 1_545 S
Co299 O300 2.070 . S
Co299 O305 2.046 1_556 S
Co299 O307 2.151 . S
O300 Co299 2.070 . S
O300 C303 1.235 1_545 S
C301 O304 1.238 1_554 S
C301 O305 1.241 . S
C302 O295 1.247 . S
C302 O296 1.261 . S
C303 O298 1.259 1_565 S
C303 O300 1.235 1_565 S
O304 Co294 2.021 . S
O304 C301 1.238 1_556 S
O305 Co299 2.046 1_554 S
O305 C301 1.241 . S
O306 Co294 2.137 . S
O306 C297 1.247 . S
O307 Co294 2.244 . S
O307 C297 1.272 . S
O307 Co299 2.151 . S
Co308 O309 2.216 . S
Co308 O310 2.091 . S
Co308 O312 2.004 . S
Co308 O318 2.021 . S
Co308 O320 2.137 . S
Co308 O321 2.244 . S
O309 Co308 2.216 . S
O309 C316 1.247 . S
O310 Co308 2.091 . S
O310 C316 1.261 . S
C311 O320 1.247 . S
C311 O321 1.272 . S
O312 Co308 2.004 . S
O312 C317 1.259 1_655 S
Co313 O314 2.061 . S
Co313 O319 2.052 1_556 S
Co313 O321 2.135 . S
O314 Co313 2.061 . S
O314 C317 1.235 1_655 S
C315 O318 1.238 . S
C315 O319 1.241 1_556 S
C316 O309 1.247 . S
C316 O310 1.261 . S
C317 O312 1.259 1_455 S
C317 O314 1.235 1_455 S
O318 Co308 2.021 . S
O318 C315 1.238 . S
O319 Co313 2.052 1_554 S
O319 C315 1.241 1_554 S
O320 Co308 2.137 . S
O320 C311 1.247 . S
O321 Co308 2.244 . S
O321 C311 1.272 . S
O321 Co313 2.135 . S
Co322 O323 2.216 . S
Co322 O324 2.091 . S
Co322 O326 2.004 . S
Co322 O332 2.021 . S
Co322 O334 2.137 . S
Co322 O335 2.244 . S
O323 Co322 2.216 . S
O323 C330 1.247 . S
O324 Co322 2.091 . S
O324 C330 1.261 . S
C325 O334 1.247 . S
C325 O335 1.272 . S
O326 Co322 2.004 . S
O326 C331 1.259 . S
Co327 O328 2.061 . S
Co327 O333 2.052 . S
Co327 O335 2.135 . S
O328 Co327 2.061 . S
O328 C331 1.235 . S
C329 O332 1.238 . S
C329 O333 1.241 . S
C330 O323 1.247 . S
C330 O324 1.261 . S
C331 O326 1.259 . S
C331 O328 1.235 . S
O332 Co322 2.021 . S
O332 C329 1.238 . S
O333 Co327 2.052 . S
O333 C329 1.241 . S
O334 Co322 2.137 . S
O334 C325 1.247 . S
O335 Co322 2.244 . S
O335 C325 1.272 . S
O335 Co327 2.135 . S
Co336 O337 2.216 . S
Co336 O338 2.091 . S
Co336 O340 2.004 . S
Co336 O346 2.021 . S
Co336 O348 2.137 . S
Co336 O349 2.244 . S
O337 Co336 2.216 . S
O337 C344 1.247 . S
O338 Co336 2.091 . S
O338 C344 1.261 . S
C339 O348 1.247 . S
C339 O349 1.272 . S
O340 Co336 2.004 . S
O340 C345 1.259 . S
Co341 O342 2.061 . S
Co341 O347 2.052 . S
Co341 O349 2.135 . S
O342 Co341 2.061 . S
O342 C345 1.235 . S
C343 O346 1.238 . S
C343 O347 1.241 . S
C344 O337 1.247 . S
C344 O338 1.261 . S
C345 O340 1.259 . S
C345 O342 1.235 . S
O346 Co336 2.021 . S
O346 C343 1.238 . S
O347 Co341 2.052 . S
O347 C343 1.241 . S
O348 Co336 2.137 . S
O348 C339 1.247 . S
O349 Co336 2.244 . S
O349 C339 1.272 . S
O349 Co341 2.135 . S
Co350 O351 2.216 . S
Co350 O352 2.091 . S
Co350 O354 2.004 . S
Co350 O360 2.021 . S
Co350 O362 2.137 . S
Co350 O363 2.244 . S
O351 Co350 2.216 . S
O351 C358 1.247 . S
O352 Co350 2.091 . S
O352 C358 1.261 . S
C353 O362 1.247 . S
C353 O363 1.272 . S
O354 Co350 2.004 . S
O354 C359 1.259 . S
Co355 O356 2.061 . S
Co355 O361 2.052 . S
Co355 O363 2.135 . S
O356 Co355 2.061 . S
O356 C359 1.235 . S
C357 O360 1.238 . S
C357 O361 1.241 . S
C358 O351 1.247 . S
C358 O352 1.261 . S
C359 O354 1.259 . S
C359 O356 1.235 . S
O360 Co350 2.021 . S
O360 C357 1.238 . S
O361 Co355 2.052 . S
O361 C357 1.241 . S
O362 Co350 2.137 . S
O362 C353 1.247 . S
O363 Co350 2.244 . S
O363 C353 1.272 . S
O363 Co355 2.135 . S
Co364 O365 2.216 . S
Co364 O366 2.091 . S
Co364 O368 2.004 . S
Co364 O374 2.021 . S
Co364 O376 2.137 . S
Co364 O377 2.244 . S
O365 Co364 2.216 . S
O365 C372 1.247 . S
O366 Co364 2.091 . S
O366 C372 1.261 . S
C367 O376 1.247 . S
C367 O377 1.272 . S
O368 Co364 2.004 . S
O368 C373 1.259 . S
Co369 O370 2.061 . S
Co369 O375 2.052 . S
Co369 O377 2.135 . S
O370 Co369 2.061 . S
O370 C373 1.235 . S
C371 O374 1.238 . S
C371 O375 1.241 . S
C372 O365 1.247 . S
C372 O366 1.261 . S
C373 O368 1.259 . S
C373 O370 1.235 . S
O374 Co364 2.021 . S
O374 C371 1.238 . S
O375 Co369 2.052 . S
O375 C371 1.241 . S
O376 Co364 2.137 . S
O376 C367 1.247 . S
O377 Co364 2.244 . S
O377 C367 1.272 . S
O377 Co369 2.135 . S
Co378 O379 2.216 . S
Co378 O380 2.091 . S
Co378 O382 2.004 1_565 S
Co378 O388 2.021 . S
Co378 O390 2.137 . S
Co378 O391 2.244 . S
O379 Co378 2.216 . S
O379 C386 1.247 . S
O380 Co378 2.091 . S
O380 C386 1.261 . S
C381 O390 1.247 . S
C381 O391 1.272 . S
O382 Co378 2.004 1_545 S
O382 C387 1.259 . S
Co383 O384 2.061 . S
Co383 O389 2.052 . S
Co383 O391 2.135 . S
O384 Co383 2.061 . S
O384 C387 1.235 1_565 S
C385 O388 1.238 . S
C385 O389 1.241 . S
C386 O379 1.247 . S
C386 O380 1.261 . S
C387 O382 1.259 . S
C387 O384 1.235 1_545 S
O388 Co378 2.021 . S
O388 C385 1.238 . S
O389 Co383 2.052 . S
O389 C385 1.241 . S
O390 Co378 2.137 . S
O390 C381 1.247 . S
O391 Co378 2.244 . S
O391 C381 1.272 . S
O391 Co383 2.135 . S
Co392 O393 2.216 . S
Co392 O394 2.091 . S
Co392 O396 2.004 1_455 S
Co392 O402 2.021 . S
Co392 O404 2.137 . S
Co392 O405 2.244 . S
O393 Co392 2.216 . S
O393 C400 1.247 . S
O394 Co392 2.091 . S
O394 C400 1.261 . S
C395 O404 1.247 . S
C395 O405 1.272 . S
O396 Co392 2.004 1_655 S
O396 C401 1.259 . S
Co397 O398 2.061 . S
Co397 O403 2.052 . S
Co397 O405 2.135 . S
O398 Co397 2.061 . S
O398 C401 1.235 1_455 S
C399 O402 1.238 . S
C399 O403 1.241 . S
C400 O393 1.247 . S
C400 O394 1.261 . S
C401 O396 1.259 . S
C401 O398 1.235 1_655 S
O402 Co392 2.021 . S
O402 C399 1.238 . S
O403 Co397 2.052 . S
O403 C399 1.241 . S
O404 Co392 2.137 . S
O404 C395 1.247 . S
O405 Co392 2.244 . S
O405 C395 1.272 . S
O405 Co397 2.135 . S
Co406 O407 2.216 . S
Co406 O408 2.091 . S
Co406 O410 2.004 . S
Co406 O416 2.021 . S
Co406 O418 2.137 . S
Co406 O419 2.244 . S
O407 Co406 2.216 . S
O407 C414 1.247 . S
O408 Co406 2.091 . S
O408 C414 1.261 . S
C409 O418 1.247 . S
C409 O419 1.272 . S
O410 Co406 2.004 . S
O410 C415 1.259 . S
Co411 O412 2.061 . S
Co411 O417 2.052 . S
Co411 O419 2.135 . S
O412 Co411 2.061 . S
O412 C415 1.235 . S
C413 O416 1.238 . S
C413 O417 1.241 . S
C414 O407 1.247 . S
C414 O408 1.261 . S
C415 O410 1.259 . S
C415 O412 1.235 . S
O416 Co406 2.021 . S
O416 C413 1.238 . S
O417 Co411 2.052 . S
O417 C413 1.241 . S
O418 Co406 2.137 . S
O418 C409 1.247 . S
O419 Co406 2.244 . S
O419 C409 1.272 . S
O419 Co411 2.135 . S
Co420 O421 2.216 . S
Co420 O422 2.091 . S
Co420 O424 2.004 . S
Co420 O430 2.021 . S
Co420 O432 2.137 . S
Co420 O433 2.244 . S
O421 Co420 2.216 . S
O421 C428 1.247 . S
O422 Co420 2.091 . S
O422 C428 1.261 . S
C423 O432 1.247 1_655 S
C423 O433 1.272 1_655 S
O424 Co420 2.004 . S
O424 C429 1.259 . S
Co425 O426 2.061 . S
Co425 O431 2.052 . S
Co425 O433 2.135 . S
O426 Co425 2.061 . S
O426 C429 1.235 . S
C427 O430 1.238 . S
C427 O431 1.241 . S
C428 O421 1.247 . S
C428 O422 1.261 . S
C429 O424 1.259 . S
C429 O426 1.235 . S
O430 Co420 2.021 . S
O430 C427 1.238 . S
O431 Co425 2.052 . S
O431 C427 1.241 . S
O432 Co420 2.137 . S
O432 C423 1.247 1_455 S
O433 Co420 2.244 . S
O433 C423 1.272 1_455 S
O433 Co425 2.135 . S
Co434 O435 2.216 . S
Co434 O436 2.091 . S
Co434 O438 2.004 . S
Co434 O444 2.021 . S
Co434 O446 2.137 . S
Co434 O447 2.244 . S
O435 Co434 2.216 . S
O435 C442 1.247 . S
O436 Co434 2.091 . S
O436 C442 1.261 . S
C437 O446 1.247 . S
C437 O447 1.272 . S
O438 Co434 2.004 . S
O438 C443 1.259 . S
Co439 O440 2.061 . S
Co439 O445 2.052 . S
Co439 O447 2.135 . S
O440 Co439 2.061 . S
O440 C443 1.235 . S
C441 O444 1.238 . S
C441 O445 1.241 . S
C442 O435 1.247 . S
C442 O436 1.261 . S
C443 O438 1.259 . S
C443 O440 1.235 . S
O444 Co434 2.021 . S
O444 C441 1.238 . S
O445 Co439 2.052 . S
O445 C441 1.241 . S
O446 Co434 2.137 . S
O446 C437 1.247 . S
O447 Co434 2.244 . S
O447 C437 1.272 . S
O447 Co439 2.135 . S
Co448 O449 2.216 . S
Co448 O450 2.091 . S
Co448 O452 2.004 . S
Co448 O458 2.021 . S
Co448 O460 2.137 . S
Co448 O461 2.244 . S
O449 Co448 2.216 . S
O449 C456 1.247 . S
O450 Co448 2.091 . S
O450 C456 1.261 . S
C451 O460 1.247 . S
C451 O461 1.272 . S
O452 Co448 2.004 . S
O452 C457 1.259 1_565 S
Co453 O454 2.061 . S
Co453 O459 2.052 . S
Co453 O461 2.135 . S
O454 Co453 2.061 . S
O454 C457 1.235 1_565 S
C455 O458 1.238 . S
C455 O459 1.241 . S
C456 O449 1.247 . S
C456 O450 1.261 . S
C457 O452 1.259 1_545 S
C457 O454 1.235 1_545 S
O458 Co448 2.021 . S
O458 C455 1.238 . S
O459 Co453 2.052 . S
O459 C455 1.241 . S
O460 Co448 2.137 . S
O460 C451 1.247 . S
O461 Co448 2.244 . S
O461 C451 1.272 . S
O461 Co453 2.135 . S
Co462 O463 2.216 . S
Co462 O464 2.091 . S
Co462 O466 2.004 . S
Co462 O472 2.021 . S
Co462 O474 2.137 . S
Co462 O475 2.244 . S
O463 Co462 2.216 . S
O463 C470 1.247 . S
O464 Co462 2.091 . S
O464 C470 1.261 . S
C465 O474 1.247 . S
C465 O475 1.272 . S
O466 Co462 2.004 . S
O466 C471 1.259 . S
Co467 O468 2.061 . S
Co467 O473 2.052 . S
Co467 O475 2.135 . S
O468 Co467 2.061 . S
O468 C471 1.235 . S
C469 O472 1.238 . S
C469 O473 1.241 . S
C470 O463 1.247 . S
C470 O464 1.261 . S
C471 O466 1.259 . S
C471 O468 1.235 . S
O472 Co462 2.021 . S
O472 C469 1.238 . S
O473 Co467 2.052 . S
O473 C469 1.241 . S
O474 Co462 2.137 . S
O474 C465 1.247 . S
O475 Co462 2.244 . S
O475 C465 1.272 . S
O475 Co467 2.135 . S
Co476 O477 2.216 . S
Co476 O478 2.091 . S
Co476 O480 2.004 . S
Co476 O486 2.021 . S
Co476 O488 2.137 . S
Co476 O489 2.244 . S
O477 Co476 2.216 . S
O477 C484 1.247 . S
O478 Co476 2.091 . S
O478 C484 1.261 . S
C479 O488 1.247 . S
C479 O489 1.272 . S
O480 Co476 2.004 . S
O480 C485 1.259 . S
Co481 O482 2.061 . S
Co481 O487 2.052 . S
Co481 O489 2.135 . S
O482 Co481 2.061 . S
O482 C485 1.235 . S
C483 O486 1.238 . S
C483 O487 1.241 . S
C484 O477 1.247 . S
C484 O478 1.261 . S
C485 O480 1.259 . S
C485 O482 1.235 . S
O486 Co476 2.021 . S
O486 C483 1.238 . S
O487 Co481 2.052 . S
O487 C483 1.241 . S
O488 Co476 2.137 . S
O488 C479 1.247 . S
O489 Co476 2.244 . S
O489 C479 1.272 . S
O489 Co481 2.135 . S
Co490 O491 2.216 . S
Co490 O492 2.091 . S
Co490 O494 2.004 . S
Co490 O500 2.021 . S
Co490 O502 2.137 . S
Co490 O503 2.244 . S
O491 Co490 2.216 . S
O491 C498 1.247 . S
O492 Co490 2.091 . S
O492 C498 1.261 . S
C493 O502 1.247 . S
C493 O503 1.272 . S
O494 Co490 2.004 . S
O494 C499 1.259 . S
Co495 O496 2.061 . S
Co495 O501 2.052 . S
Co495 O503 2.135 . S
O496 Co495 2.061 . S
O496 C499 1.235 . S
C497 O500 1.238 . S
C497 O501 1.241 . S
C498 O491 1.247 . S
C498 O492 1.261 . S
C499 O494 1.259 . S
C499 O496 1.235 . S
O500 Co490 2.021 . S
O500 C497 1.238 . S
O501 Co495 2.052 . S
O501 C497 1.241 . S
O502 Co490 2.137 . S
O502 C493 1.247 . S
O503 Co490 2.244 . S
O503 C493 1.272 . S
O503 Co495 2.135 . S
C8 C260 1.856 . S
C17 C273 1.996 . S
C287 C31 2.254 . S
C45 C469 2.254 . S
C483 C59 1.996 . S
C78 C498 1.856 . S
C344 C92 1.856 . S
C105 C353 1.996 . S
C119 C367 2.254 . S
C133 C213 2.254 . S
C227 C147 1.996 . S
C162 C246 1.856 . S
C176 C428 1.856 1_655 S
C185 C441 1.996 . S
C199 C455 2.254 1_545 S
C301 C381 2.254 1_545 S
C315 C395 1.996 1_656 S
C330 C414 1.856 1_556 S
C101 C3 1.683 . S
C115 C22 1.855 . S
C36 C93 1.519 1_554 S
C163 C50 1.520 . S
C129 C64 1.854 . S
C143 C73 1.683 . S
C91 C21 1.586 . S
C106 C35 1.853 1_556 S
C120 C9 1.492 1_556 S
C134 C79 1.492 . S
C49 C148 1.852 . S
C63 C161 1.586 . S
C171 C269 1.683 . S
C190 C283 1.855 . S
C204 C261 1.519 . S
C331 C218 1.520 . S
C232 C297 1.854 . S
C311 C241 1.683 . S
C259 C189 1.586 . S
C203 C274 1.853 . S
C177 C288 1.492 . S
C302 C247 1.492 . S
C316 C217 1.852 . S
C329 C231 1.586 . S
C437 C339 1.683 . S
C358 C451 1.855 . S
C372 C429 1.519 . S
C499 C386 1.520 . S
C465 C400 1.854 . S
C479 C409 1.683 . S
C357 C427 1.586 . S
C371 C442 1.853 . S
C345 C456 1.492 . S
C470 C415 1.492 . S
C385 C484 1.852 . S
C497 C399 1.586 . S
C7 C413 2.008 . S
C387 C23 1.011 . S
C37 C401 1.011 . S
C51 C191 1.011 . S
C205 C65 1.011 . S
C77 C175 2.008 . S
C325 C87 1.307 . S
C107 C303 0.990 . S
C121 C317 0.990 . S
C135 C443 0.990 . S
C149 C457 0.990 . S
C423 C157 1.307 . S
C219 C359 1.011 1_655 S
C373 C233 1.011 . S
C343 C245 2.008 1_565 S
C493 C255 1.307 1_565 S
C275 C471 0.990 1_655 S
C289 C485 0.990 . S
