# Generated by pormake.
# Topology sxb, (6)-cn, num edge types: 1
# Building blocks:
#     Node 0, Type 0, BuildingBlock: KUMBOL_clean_sbu_1, # of connection points: 6
#     Node 1, Type 0, BuildingBlock: KUMBOL_clean_sbu_1, # of connection points: 6
#     Node 2, Type 0, BuildingBlock: KUMBOL_clean_sbu_1, # of connection points: 6
#     Node 3, Type 0, BuildingBlock: KUMBOL_clean_sbu_1, # of connection points: 6
#     Edge 4, Type (0, 0), BuildingBlock: EZIPEK_clean_linker_0, # of connection points: 2
#     Edge 5, Type (0, 0), BuildingBlock: EZIPEK_clean_linker_0, # of connection points: 2
#     Edge 6, Type (0, 0), BuildingBlock: EZIPEK_clean_linker_0, # of connection points: 2
#     Edge 7, Type (0, 0), BuildingBlock: EZIPEK_clean_linker_0, # of connection points: 2
#     Edge 8, Type (0, 0), BuildingBlock: EZIPEK_clean_linker_0, # of connection points: 2
#     Edge 9, Type (0, 0), BuildingBlock: EZIPEK_clean_linker_0, # of connection points: 2
#     Edge 10, Type (0, 0), BuildingBlock: EZIPEK_clean_linker_0, # of connection points: 2
#     Edge 11, Type (0, 0), BuildingBlock: EZIPEK_clean_linker_0, # of connection points: 2
#     Edge 12, Type (0, 0), BuildingBlock: EZIPEK_clean_linker_0, # of connection points: 2
#     Edge 13, Type (0, 0), BuildingBlock: EZIPEK_clean_linker_0, # of connection points: 2
#     Edge 14, Type (0, 0), BuildingBlock: EZIPEK_clean_linker_0, # of connection points: 2
#     Edge 15, Type (0, 0), BuildingBlock: EZIPEK_clean_linker_0, # of connection points: 2
# Relax obj value: 0.022
# Max RMSD: 0.074
# Mean RMSD: 0.074
data_MOF--net-sxb--node1-KUMBOL_clean_sbu_1--edge1-EZIPEK_clean_linker_0
_symmetry_space_group_name_H-M    P1
_symmetry_Int_Tables_number       1
_symmetry_cell_setting            triclinic
loop_
_symmetry_equiv_pos_as_xyz
'x, y, z'
_cell_length_a     11.196472
_cell_length_b     40.550244
_cell_length_c     21.459074
_cell_angle_alpha  114.15377
_cell_angle_beta   90.047871
_cell_angle_gamma 89.930354
loop_
_atom_site_label
_atom_site_type_symbol
_atom_site_fract_x
_atom_site_fract_y
_atom_site_fract_z
_atom_type_partial_charge
C0 C 0.25319 0.1157 0.18257 0.0
C1 C 0.43685 0.12105 0.12682 0.0
C2 C 0.31595 0.11102 0.12339 0.0
C3 C 0.49493 0.13518 0.19039 0.0
C4 C 0.31037 0.13116 0.24665 0.0
C5 C 0.4319 0.1403 0.25006 0.0
N6 N 0.13642 0.10545 0.17757 0.0
C7 C 0.06967 0.11247 0.23497 0.0
C8 C 0.24371 0.13702 0.30546 0.0
C9 C 0.12255 0.12808 0.29961 0.0
Gd10 Gd 0.05354 0.96492 0.97445 0.0
Gd11 Gd 0.06325 0.07731 0.06533 0.0
N12 N 0.25942 0.0956 0.06196 0.0
C13 C 0.49563 0.11622 0.06599 0.0
C14 C 0.31195 0.09433 1.00376 0.0
C15 C 0.43213 0.10374 0.00451 0.0
H16 H 0.26133 0.08523 0.95691 0.0
H17 H 0.47587 0.10117 0.95778 0.0
H18 H 0.86718 0.94538 0.0749 0.0
H19 H 0.97548 0.10612 0.23108 0.0
H20 H 0.66255 0.9206 0.0693 0.0
H21 H 0.58939 0.1224 0.06584 0.0
H22 H 0.58864 0.14221 0.19412 0.0
H23 H 0.14627 0.93852 0.81105 0.0
H24 H 0.28442 0.14888 0.35561 0.0
H25 H 0.06992 0.13312 0.3449 0.0
H26 H 0.54959 0.88382 0.83408 0.0
H27 H 0.47805 0.15138 0.29864 0.0
H28 H 0.84714 0.89197 0.68024 0.0
H29 H 0.05764 0.9123 0.69568 0.0
N30 N 0.98476 0.93575 0.8611 0.0
C31 C 0.87117 0.92291 0.85329 0.0
C32 C 0.05335 0.93059 0.80521 0.0
C33 C 0.88501 0.90394 0.73113 0.0
C34 C 1.00388 0.91537 0.73963 0.0
C35 C 0.81783 0.90688 0.78817 0.0
H36 H 0.65751 0.88157 0.73246 0.0
N37 N 0.86477 0.9395 0.97216 0.0
C38 C 0.80971 0.92443 0.91044 0.0
C39 C 0.63958 0.90927 0.96265 0.0
C40 C 0.69435 0.9096 0.90421 0.0
C41 C 0.81691 0.93629 0.02787 0.0
C42 C 0.70223 0.92198 0.02447 0.0
O43 O 0.23818 0.04395 0.05314 0.0
O44 O 0.2321 0.98725 0.96389 0.0
O45 O 0.11562 0.9357 0.03414 0.0
O46 O 0.13633 0.91218 0.92457 0.0
O47 O 1.03466 0.05163 0.95158 0.0
O48 O 0.11964 0.9947 0.91222 0.0
O49 O 0.87329 0.99324 0.99739 0.0
O50 O 0.87175 0.05649 0.04657 0.0
O51 O 1.02432 0.11475 0.01755 0.0
O52 O 1.00831 0.13226 0.12655 0.0
O53 O 0.08884 0.99936 0.08596 0.0
O54 O 0.97468 0.05021 0.12685 0.0
C55 C 0.29221 0.01483 0.00757 0.0
C56 C 0.06886 0.0213 0.9019 0.0
C57 C 0.10842 0.87178 0.9772 0.0
C58 C 0.14803 0.81775 0.99754 0.0
C59 C 0.96612 0.82219 0.93995 0.0
C60 C 1.00066 0.85627 0.94503 0.0
C61 C 1.03951 0.80292 0.96583 0.0
C62 C 0.18185 0.85242 1.00382 0.0
C63 C 0.14742 0.90723 0.98048 0.0
C64 C 0.63895 0.89491 0.83985 0.0
C65 C 0.70045 0.89363 0.78198 0.0
H66 H 0.55081 0.89817 0.96007 0.0
C67 C 0.81762 0.02468 0.02004 0.0
C68 C 1.01155 0.02028 0.1306 0.0
C69 C 0.89006 0.16372 0.077 0.0
C70 C 0.79974 0.21152 0.05058 0.0
C71 C 0.69902 0.19005 0.12678 0.0
C72 C 0.79164 0.16554 0.11895 0.0
C73 C 0.7027 0.21282 0.09272 0.0
C74 C 0.89342 0.18683 0.04259 0.0
C75 C 0.99515 0.1411 0.07522 0.0
H76 H 0.88288 0.81049 0.91507 0.0
H77 H 0.94401 0.87016 0.92284 0.0
H78 H 1.01225 0.7763 0.96071 0.0
H79 H 0.2659 0.86391 0.02811 0.0
H80 H 0.62432 0.19167 0.15983 0.0
H81 H 0.78719 0.14846 0.14666 0.0
H82 H 0.63039 0.2318 0.09977 0.0
H83 H 0.96984 0.18634 0.01123 0.0
C84 C 0.23363 0.90678 0.34921 0.0
C85 C 0.38005 0.88618 0.4093 0.0
C86 C 0.27247 0.90418 0.40878 0.0
C87 C 0.4486 0.87099 0.34943 0.0
C88 C 0.30194 0.89111 0.28883 0.0
C89 C 0.40972 0.87347 0.28944 0.0
N90 N 0.12988 0.92465 0.35025 0.0
C91 C 0.08431 0.92454 0.29102 0.0
C92 C 0.25982 0.89349 0.22943 0.0
C93 C 0.14975 0.90982 0.23033 0.0
Gd94 Gd 1.03329 0.06081 0.55383 0.0
Gd95 Gd 1.03105 0.94867 0.45648 0.0
N96 N 0.20643 0.92003 0.46674 0.0
C97 C 0.41561 0.88401 0.47011 0.0
C98 C 0.2377 0.91672 0.52534 0.0
C99 C 0.34359 0.89907 0.52819 0.0
H100 H 0.18093 0.92781 0.56983 0.0
H101 H 0.36941 0.89699 0.57506 0.0
H102 H 0.84803 0.08465 0.45657 0.0
H103 H 0.99633 0.93504 0.28946 0.0
H104 H 0.64195 0.10875 0.4643 0.0
H105 H 0.49778 0.87043 0.47255 0.0
H106 H 0.53172 0.85716 0.34893 0.0
H107 H 0.11933 0.07999 0.71688 0.0
H108 H 0.30983 0.88188 0.18213 0.0
H109 H 0.1142 0.9105 0.18393 0.0
H110 H 0.51883 0.13125 0.69281 0.0
H111 H 0.46326 0.86138 0.24356 0.0
H112 H 0.81328 0.12053 0.84486 0.0
H113 H 1.02579 0.10229 0.83076 0.0
N114 N 0.95842 0.08255 0.6658 0.0
C115 C 0.8448 0.09557 0.67335 0.0
C116 C 1.02535 0.08674 0.72191 0.0
C117 C 0.85347 0.11037 0.79454 0.0
C118 C 0.97332 0.09999 0.78677 0.0
C119 C 0.78841 0.10901 0.73781 0.0
H120 H 0.6239 0.13052 0.79245 0.0
N121 N 0.84292 0.08504 0.55592 0.0
C122 C 0.78559 0.09679 0.61705 0.0
C123 C 0.61553 0.11391 0.5674 0.0
C124 C 0.66892 0.1109 0.62397 0.0
C125 C 0.79698 0.09173 0.50308 0.0
C126 C 0.68098 0.10521 0.50732 0.0
O127 O 0.21699 0.97503 0.48292 0.0
O128 O 0.22248 0.03826 0.53734 0.0
O129 O 0.09815 0.09852 0.51145 0.0
O130 O 0.08412 0.11535 0.62027 0.0
O131 O 1.00791 0.97206 0.57037 0.0
O132 O 0.10395 0.02738 0.60873 0.0
O133 O 0.85859 0.03086 0.50783 0.0
O134 O 0.86311 0.97563 0.51421 0.0
O135 O 0.97881 0.90289 0.47834 0.0
O136 O 0.92059 0.90564 0.38465 0.0
O137 O 0.07289 0.03522 0.44243 0.0
O138 O 0.9657 0.98181 0.39941 0.0
C139 C 0.27544 1.00622 0.50979 0.0
C140 C 0.05175 1.00107 0.61952 0.0
C141 C 0.2167 0.14934 0.58337 0.0
C142 C 0.30708 0.20083 0.5694 0.0
C143 C 0.38449 0.1814 0.65439 0.0
C144 C 0.29975 0.1537 0.63538 0.0
C145 C 0.3886 0.20472 0.62148 0.0
C146 C 0.22161 0.17292 0.55002 0.0
C147 C 0.11347 0.12471 0.57133 0.0
C148 C 0.61016 0.1219 0.68706 0.0
C149 C 0.66987 0.1212 0.74386 0.0
H150 H 0.52533 0.12389 0.57004 0.0
C151 C 0.804 1.00344 0.51355 0.0
C152 C 1.01792 1.00927 0.39244 0.0
C153 C 0.94115 0.84716 0.38549 0.0
C154 C 0.90064 0.78652 0.37863 0.0
C155 C 1.02542 0.79446 0.29343 0.0
C156 C 1.01126 0.83198 0.32624 0.0
C157 C 0.97057 0.7718 0.31939 0.0
C158 C 0.88628 0.82423 0.41158 0.0
C159 C 0.92244 0.88657 0.42095 0.0
H160 H 0.44595 0.18537 0.69574 0.0
H161 H 0.29686 0.13645 0.6628 0.0
H162 H 0.45363 0.22638 0.6377 0.0
H163 H 0.15567 0.17074 0.51148 0.0
H164 H 0.07838 0.78276 0.24744 0.0
H165 H 0.05431 0.84901 0.30516 0.0
H166 H 0.98214 0.74281 0.2932 0.0
H167 H 0.83168 0.83565 0.45721 0.0
C168 C 0.71159 0.60602 0.17618 0.0
C169 C 0.87483 0.62642 0.12598 0.0
C170 C 0.76355 0.60915 0.11985 0.0
C171 C 0.9352 0.63951 0.18884 0.0
C172 C 0.77146 0.61967 0.23959 0.0
C173 C 0.88379 0.63609 0.24541 0.0
N174 N 0.6021 0.59028 0.16932 0.0
C175 C 0.54414 0.58993 0.22508 0.0
C176 C 0.71608 0.61681 0.29556 0.0
C177 C 0.60136 0.60228 0.2885 0.0
Gd178 Gd 0.51399 0.4555 0.94773 0.0
Gd179 Gd 0.51888 0.56943 0.05915 0.0
N180 N 0.70386 0.59598 0.05933 0.0
C181 C 0.92095 0.63065 0.069 0.0
C182 C 0.74418 0.6021 0.00501 0.0
C183 C 0.85459 0.61885 0.00854 0.0
H184 H 0.69129 0.59359 0.95892 0.0
H185 H 0.88804 0.62289 0.96488 0.0
H186 H 0.3232 0.43395 0.04477 0.0
H187 H 0.45314 0.58049 0.22122 0.0
H188 H 0.11579 0.41077 0.03598 0.0
H189 H 1.00626 0.64375 0.07166 0.0
H190 H 1.02109 0.65271 0.19445 0.0
H191 H 0.59679 0.44259 0.78727 0.0
H192 H 0.75976 0.62668 0.34485 0.0
H193 H 0.55617 0.60117 0.33219 0.0
H194 H 0.99805 0.3883 0.80648 0.0
H195 H 0.93093 0.6467 0.29376 0.0
H196 H 0.29 0.40445 0.65872 0.0
H197 H 0.50169 0.42337 0.67405 0.0
N198 N 0.43807 0.43679 0.83652 0.0
C199 C 0.32461 0.42358 0.82799 0.0
C200 C 0.50338 0.43523 0.78159 0.0
C201 C 0.33101 0.41298 0.70862 0.0
C202 C 0.45041 0.4238 0.71713 0.0
C203 C 0.2672 0.41213 0.76404 0.0
H204 H 0.10202 0.39196 0.70901 0.0
N205 N 0.32236 0.43226 0.94453 0.0
C206 C 0.26579 0.42083 0.88305 0.0
C207 C 0.09319 0.40471 0.93204 0.0
C208 C 0.14833 0.40739 0.87565 0.0
C209 C 0.27344 0.42676 0.99782 0.0
C210 C 0.15684 0.41368 0.99286 0.0
O211 O 0.69884 0.54119 0.02686 0.0
O212 O 0.70138 0.47783 0.97604 0.0
O213 O 0.55996 0.41203 0.97944 0.0
O214 O 0.57956 0.40415 0.87421 0.0
O215 O 0.49186 0.54731 0.94525 0.0
O216 O 0.58963 0.49229 0.90209 0.0
O217 O 0.33586 0.48539 0.97857 0.0
O218 O 0.33177 0.54793 0.03931 0.0
O219 O 0.45586 0.6093 0.02308 0.0
O220 O 0.443 0.62044 0.13023 0.0
O221 O 0.5401 0.47607 0.06041 0.0
O222 O 0.45086 0.53264 0.10802 0.0
C223 C 0.75467 0.5097 1.0026 0.0
C224 C 0.53445 0.51894 0.89398 0.0
C225 C 0.69623 0.36571 0.90969 0.0
C226 C 0.78788 0.31577 0.92891 0.0
C227 C 0.87302 0.33532 0.84587 0.0
C228 C 0.78473 0.36184 0.86064 0.0
C229 C 0.87518 0.31257 0.88002 0.0
C230 C 0.69856 0.34246 0.94387 0.0
C231 C 0.59236 0.38995 0.91823 0.0
C232 C 0.08954 0.39756 0.81276 0.0
C233 C 0.14869 0.39988 0.7572 0.0
H234 H 1.00214 0.39542 0.92916 0.0
C235 C 0.2789 0.51647 0.00855 0.0
C236 C 0.50364 0.50471 0.11315 0.0
C237 C 0.46771 0.67055 0.10063 0.0
C238 C 0.43763 0.72795 0.09082 0.0
C239 C 0.61276 0.71899 0.14879 0.0
C240 C 0.57359 0.68426 0.13712 0.0
C241 C 0.54552 0.74075 0.12559 0.0
C242 C 0.39927 0.69272 0.07815 0.0
C243 C 0.42863 0.63308 0.08384 0.0
H244 H 0.93952 0.33205 0.80724 0.0
H245 H 0.78429 0.37873 0.83247 0.0
H246 H 0.94376 0.29198 0.86749 0.0
H247 H 0.62903 0.34426 0.98026 0.0
H248 H 0.69556 0.72908 0.17593 0.0
H249 H 0.62611 0.66825 0.15658 0.0
H250 H 0.57683 0.76768 0.13529 0.0
H251 H 0.31687 0.68255 0.05034 0.0
C252 C 0.75169 0.40878 0.33347 0.0
C253 C 0.93605 0.40352 0.38895 0.0
C254 C 0.81505 0.41354 0.39258 0.0
C255 C 0.99357 0.3892 0.32523 0.0
C256 C 0.80826 0.39303 0.26925 0.0
C257 C 0.92984 0.38383 0.26562 0.0
N258 N 0.63482 0.41905 0.33864 0.0
C259 C 0.56735 0.41162 0.28128 0.0
C260 C 0.74087 0.38684 0.21052 0.0
C261 C 0.61961 0.39571 0.21653 0.0
Gd262 Gd 0.55502 0.55903 0.53826 0.0
Gd263 Gd 0.56246 0.4471 0.45113 0.0
N264 N 0.75885 0.42888 0.45413 0.0
C265 C 0.99534 0.40841 0.44971 0.0
C266 C 0.81155 0.42978 0.51202 0.0
C267 C 0.932 0.42057 0.51117 0.0
H268 H 0.76058 0.43818 0.55857 0.0
H269 H 0.97595 0.42294 0.55776 0.0
H270 H 0.37669 0.57651 0.43216 0.0
H271 H 0.47302 0.41784 0.28526 0.0
H272 H 0.17741 0.60397 0.434 0.0
H273 H 0.08926 0.40242 0.44981 0.0
H274 H 0.08729 0.38209 0.32133 0.0
H275 H 0.64201 0.58682 0.70273 0.0
H276 H 0.78108 0.37478 0.16029 0.0
H277 H 0.56641 0.3904 0.1713 0.0
H278 H 0.06178 0.65041 0.67029 0.0
H279 H 0.97544 0.37243 0.21688 0.0
H280 H 0.34853 0.64265 0.83002 0.0
H281 H 0.55358 0.61794 0.81739 0.0
N282 N 0.48511 0.59132 0.65049 0.0
C283 C 0.37444 0.60609 0.65652 0.0
C284 C 0.5511 0.59655 0.70737 0.0
C285 C 0.38611 0.62849 0.77945 0.0
C286 C 0.50187 0.61456 0.77253 0.0
C287 C 0.32168 0.62497 0.72113 0.0
H288 H 0.16514 0.65458 0.77461 0.0
N289 N 0.3702 0.58577 0.53666 0.0
C290 C 0.31539 0.60343 0.59786 0.0
C291 C 0.15165 0.61916 0.54186 0.0
C292 C 0.20334 0.62004 0.60201 0.0
C293 C 0.32586 0.58765 0.47898 0.0
C294 C 0.21436 0.60352 0.48026 0.0
O295 O 0.73693 0.48056 0.46231 0.0
O296 O 0.72966 0.53616 0.55383 0.0
O297 O 0.62793 0.5856 0.47636 0.0
O298 O 0.63901 0.61168 0.58627 0.0
O299 O 0.52981 0.47288 0.56459 0.0
O300 O 0.61336 0.52992 0.60368 0.0
O301 O 0.37237 0.53201 0.51639 0.0
O302 O 0.37161 0.46876 0.47281 0.0
O303 O 0.52739 0.40881 0.4976 0.0
O304 O 0.50591 0.3925 0.38921 0.0
O305 O 0.5876 0.52431 0.42627 0.0
O306 O 0.47189 0.47368 0.38945 0.0
C307 C 0.79077 0.50923 0.50916 0.0
C308 C 0.55957 0.50379 0.61421 0.0
C309 C 0.61632 0.64958 0.52764 0.0
C310 C 0.64898 0.69945 0.49344 0.0
C311 C 0.47383 0.6991 0.55969 0.0
C312 C 0.51096 0.66654 0.561 0.0
C313 C 0.54227 0.7155 0.5261 0.0
C314 C 0.68564 0.66628 0.49398 0.0
C315 C 0.65546 0.61506 0.52914 0.0
C316 C 0.14854 0.6378 0.66604 0.0
C317 C 0.20752 0.64022 0.72546 0.0
H318 H 0.06554 0.63159 0.54283 0.0
C319 C 0.31708 0.50059 0.49703 0.0
C320 C 0.51094 0.5025 0.38239 0.0
C321 C 0.39251 0.36 0.43813 0.0
C322 C 0.30748 0.31023 0.46019 0.0
C323 C 0.1987 0.33489 0.39131 0.0
C324 C 0.29057 0.35962 0.39954 0.0
C325 C 0.2067 0.31046 0.42163 0.0
C326 C 0.40043 0.33515 0.46861 0.0
C327 C 0.49639 0.38291 0.43974 0.0
H328 H 0.39226 0.71183 0.58541 0.0
H329 H 0.45794 0.65496 0.58888 0.0
H330 H 0.51275 0.74096 0.52615 0.0
H331 H 0.76841 0.65389 0.46928 0.0
H332 H 0.12116 0.3344 0.36088 0.0
H333 H 0.28276 0.37802 0.37473 0.0
H334 H 0.13474 0.29139 0.41444 0.0
H335 H 0.47953 0.33455 0.49729 0.0
C336 C 0.29123 0.77883 0.11434 0.0
C337 C 0.36536 0.75155 0.06723 0.0
C338 C 0.30873 0.77111 0.97691 0.0
C339 C 0.22688 0.79617 0.02255 0.0
N340 N 0.1265 0.82052 0.13129 0.0
N341 N 0.4386 0.71926 0.95243 0.0
C342 C 0.21468 0.79921 0.09045 0.0
C343 C 0.37235 0.74699 0.99806 0.0
N344 N 0.29521 0.78563 0.18218 0.0
N345 N 0.32716 0.77094 0.91377 0.0
H346 H 0.491 0.70216 0.96658 0.0
H347 H 0.43645 0.71167 0.89988 0.0
H348 H 0.28054 0.78774 0.89618 0.0
H349 H 0.39432 0.75616 0.88056 0.0
H350 H 0.25628 0.8083 0.22005 0.0
H351 H 0.34463 0.77006 0.20142 0.0
H352 H 0.10371 0.8207 0.17842 0.0
H353 H 0.07043 0.83649 0.11622 0.0
C354 C 0.73009 0.25559 0.9277 0.0
C355 C 0.7879 0.28953 0.96133 0.0
C356 C 0.86038 0.2713 0.0508 0.0
C357 C 0.80314 0.23729 0.0171 0.0
N358 N 0.67624 0.19738 0.92739 0.0
N359 N 0.9214 0.3283 0.04849 0.0
C360 C 0.73656 0.22945 0.95629 0.0
C361 C 0.85644 0.29703 0.0213 0.0
N362 N 0.67276 0.248 0.867 0.0
N363 N 0.91399 0.27952 0.1127 0.0
H364 H 0.91686 0.34842 0.03007 0.0
H365 H 0.98506 0.33362 0.08671 0.0
H366 H 0.92199 0.26106 0.13492 0.0
H367 H 0.94456 0.30516 0.14427 0.0
H368 H 0.63999 0.22266 0.83533 0.0
H369 H 0.6621 0.26693 0.84605 0.0
H370 H 0.61394 0.19139 0.88836 0.0
H371 H 0.68446 0.17686 0.9446 0.0
C372 C 0.23675 0.26021 0.57209 0.0
C373 C 0.3059 0.22831 0.53994 0.0
C374 C 0.37777 0.25017 0.4555 0.0
C375 C 0.3144 0.28302 0.4902 0.0
N376 N 0.19833 0.3219 0.58677 0.0
N377 N 0.45506 0.19463 0.45756 0.0
C378 C 0.24803 0.28875 0.55005 0.0
C379 C 0.38024 0.22379 0.48347 0.0
N380 N 0.15867 0.26292 0.62298 0.0
N381 N 0.43205 0.24371 0.39454 0.0
H382 H 0.45552 0.17401 0.47479 0.0
H383 H 0.52206 0.19199 0.42223 0.0
H384 H 0.43424 0.26263 0.37316 0.0
H385 H 0.46823 0.21883 0.36283 0.0
H386 H 0.09593 0.28352 0.64337 0.0
H387 H 0.15021 0.24304 0.64177 0.0
H388 H 0.15956 0.32916 0.63459 0.0
H389 H 0.2043 0.34335 0.57194 0.0
C390 C 0.89016 0.75774 0.46254 0.0
C391 C 0.84074 0.76227 0.40562 0.0
C392 C 0.68029 0.71964 0.39851 0.0
C393 C 0.72185 0.71837 0.46 0.0
N394 N 0.85803 0.73936 0.55552 0.0
N395 N 0.68143 0.75119 0.32388 0.0
C396 C 0.82516 0.73807 0.49317 0.0
C397 C 0.73415 0.74401 0.37447 0.0
N398 N 1.00032 0.77172 0.48654 0.0
N399 N 0.59013 0.69716 0.36265 0.0
H400 H 0.71821 0.76881 0.30479 0.0
H401 H 0.59671 0.74203 0.30456 0.0
H402 H 0.54747 0.67941 0.37938 0.0
H403 H 0.56495 0.6937 0.31362 0.0
H404 H 0.04708 0.76607 0.523 0.0
H405 H 0.04966 0.78669 0.46599 0.0
H406 H 0.92358 0.75665 0.58606 0.0
H407 H 0.81382 0.72504 0.57933 0.0
C408 C 0.48885 0.02696 0.07099 0.0
C409 C 0.42842 0.01343 0.00733 0.0
C410 C 0.62639 1.00448 0.95093 0.0
C411 C 0.68304 0.02306 0.01555 0.0
N412 N 0.66039 0.0577 0.13719 0.0
N413 N 0.44876 0.97787 0.88506 0.0
C414 C 0.61178 0.03638 0.07542 0.0
C415 C 0.49939 0.99904 0.94652 0.0
N416 N 0.43264 0.02572 0.12618 0.0
N417 N 0.69395 0.9934 0.89292 0.0
H418 H 0.35839 0.97268 0.87677 0.0
H419 H 0.49716 0.96233 0.84157 0.0
H420 H 0.7867 0.99427 0.89372 0.0
H421 H 0.65948 0.98526 0.84385 0.0
H422 H 0.47374 0.03249 0.17342 0.0
H423 H 0.35345 0.01126 0.11993 0.0
H424 H 0.60918 0.07019 0.1812 0.0
H425 H 0.74979 0.06522 0.14386 0.0
C426 C 0.47771 0.98548 0.45021 0.0
C427 C 0.4115 1.00484 0.51143 0.0
C428 C 0.60352 0.01995 0.57476 0.0
C429 C 0.66875 1.00245 0.51322 0.0
N430 N 0.66593 0.95961 0.39593 0.0
N431 N 0.41715 0.04449 0.63204 0.0
C432 C 0.60512 0.98274 0.452 0.0
C433 C 0.47615 0.02313 0.57365 0.0
N434 N 0.41995 0.97172 0.3889 0.0
N435 N 0.66306 0.03131 0.63538 0.0
H436 H 0.32488 0.04629 0.63654 0.0
H437 H 0.45986 0.06215 0.67614 0.0
H438 H 0.75555 0.03008 0.63776 0.0
H439 H 0.62145 0.0391 0.68264 0.0
H440 H 0.46313 0.96237 0.34185 0.0
H441 H 0.3279 0.97205 0.38457 0.0
H442 H 0.62474 0.94064 0.35259 0.0
H443 H 0.75833 0.95685 0.39504 0.0
C444 C 0.9563 0.49494 0.94252 0.0
C445 C 0.88911 0.51079 0.00395 0.0
C446 C 0.07705 0.53198 0.06903 0.0
C447 C 0.14432 0.51563 0.00758 0.0
N448 N 0.14445 0.49111 0.88468 0.0
N449 N 0.88726 0.53933 0.12691 0.0
C450 C 0.08281 0.49949 0.94411 0.0
C451 C 0.95013 0.52833 0.06732 0.0
N452 N 0.90015 0.47478 0.88227 0.0
N453 N 0.13323 0.55221 0.12927 0.0
H454 H 0.79471 0.53851 0.12842 0.0
H455 H 0.926 0.54692 0.17488 0.0
H456 H 0.22528 0.55365 0.13567 0.0
H457 H 0.08877 0.56971 0.17286 0.0
H458 H 0.94496 0.45909 0.83743 0.0
H459 H 0.80812 0.47174 0.87704 0.0
H460 H 0.10422 0.48458 0.83736 0.0
H461 H 0.23664 0.4935 0.88318 0.0
C462 C 0.12522 0.52169 0.56591 0.0
C463 C 0.18232 0.50197 0.50185 0.0
C464 C 0.98812 0.49812 0.44609 0.0
C465 C 0.92697 0.51115 0.50945 0.0
N466 N 0.94445 0.53832 0.63315 0.0
N467 N 0.15898 0.4663 0.38052 0.0
C468 C 0.99742 0.52393 0.57042 0.0
C469 C 0.11074 0.48816 0.442 0.0
N470 N 0.19305 0.53926 0.62286 0.0
N471 N 0.93271 0.49961 0.39087 0.0
H472 H 0.24787 0.45816 0.37433 0.0
H473 H 0.10764 0.45407 0.33647 0.0
H474 H 0.85322 0.51398 0.39692 0.0
H475 H 0.97469 0.49295 0.34392 0.0
H476 H 0.15911 0.55784 0.66904 0.0
H477 H 0.28562 0.53753 0.62302 0.0
H478 H 0.98831 0.54141 0.67802 0.0
H479 H 0.85606 0.5465 0.64148 0.0
C480 C 0.1204 0.01887 0.29716 0.0
C481 C 1.01318 0.01243 0.32569 0.0
C482 C 0.90183 0.01128 0.2258 0.0
C483 C 1.00878 0.01919 0.19919 0.0
N484 N 0.21063 0.04127 0.22079 0.0
N485 N 0.79759 0.01186 0.32535 0.0
C486 C 0.11531 0.0259 0.238 0.0
C487 C 0.90238 0.01107 0.29218 0.0
N488 N 0.22873 0.01755 0.32533 0.0
N489 N 0.8001 1.0036 0.18745 0.0
H490 H 0.79449 0.01383 0.37524 0.0
H491 H 0.71405 0.01442 0.30643 0.0
H492 H 0.79636 1.00467 0.13984 0.0
H493 H 0.72258 0.99367 0.20034 0.0
H494 H 0.30962 0.0164 0.30049 0.0
H495 H 0.23858 0.01527 0.37139 0.0
H496 H 0.28451 0.05157 0.25237 0.0
H497 H 0.20994 0.04732 0.17831 0.0
C498 C 0.9573 0.01871 0.7986 0.0
C499 C 0.06773 0.01912 0.83096 0.0
C500 C 0.17086 1.0042 0.72146 0.0
C501 C 0.05851 1.00178 0.68929 0.0
N502 N 0.84672 0.99182 0.69399 0.0
N503 N 0.28227 0.02001 0.82688 0.0
C504 C 0.95226 1.00451 0.72667 0.0
C505 C 0.17565 0.01358 0.79314 0.0
N506 N 0.85786 0.03398 0.836 0.0
N507 N 0.27184 0.99499 0.68238 0.0
H508 H 0.28771 0.02803 0.87945 0.0
H509 H 0.36443 0.02031 0.80455 0.0
H510 H 0.26969 0.98686 0.62962 0.0
H511 H 0.35605 0.9925 0.70048 0.0
H512 H 0.77866 0.03742 0.8137 0.0
H513 H 0.85781 0.04685 0.88906 0.0
H514 H 0.76941 0.99034 0.71982 0.0
H515 H 0.83956 0.9788 0.64114 0.0
C516 C 0.39792 0.50761 0.28462 0.0
C517 C 0.50693 0.5016 0.31218 0.0
C518 C 0.612 0.49508 0.2072 0.0
C519 C 0.50319 0.50154 0.17995 0.0
N520 N 0.28833 0.50164 0.18306 0.0
N521 N 0.71047 0.4807 0.29285 0.0
C522 C 0.3947 0.5045 0.21605 0.0
C523 C 0.61209 0.49312 0.27168 0.0
N524 N 0.29768 0.5168 0.32424 0.0
N525 N 0.71624 0.49077 0.17166 0.0
H526 H 0.71222 0.47763 0.33846 0.0
H527 H 0.78518 0.46965 0.26265 0.0
H528 H 0.72007 0.48682 0.12074 0.0
H529 H 0.80043 0.49247 0.19339 0.0
H530 H 0.21896 0.52562 0.3101 0.0
H531 H 0.29617 0.51815 0.37373 0.0
H532 H 0.2059 0.50019 0.2042 0.0
H533 H 0.28341 0.49654 0.13142 0.0
C534 C 0.44247 0.50746 0.71694 0.0
C535 C 0.55449 0.50632 0.68548 0.0
C536 C 0.65489 0.51794 0.79447 0.0
C537 C 0.542 0.52039 0.82589 0.0
N538 N 0.33052 0.53091 0.82196 0.0
N539 N 0.76776 0.501 0.68985 0.0
C540 C 0.43638 0.51928 0.78876 0.0
C541 C 0.66115 0.50944 0.72331 0.0
N542 N 0.34251 0.4946 0.67817 0.0
N543 N 0.75569 0.52605 0.83379 0.0
H544 H 0.77437 0.49373 0.63759 0.0
H545 H 0.84735 0.49796 0.71205 0.0
H546 H 0.75318 0.53345 0.88634 0.0
H547 H 0.83998 0.5288 0.81608 0.0
H548 H 0.2613 0.49123 0.69857 0.0
H549 H 0.34363 0.48345 0.62501 0.0
H550 H 0.25324 0.53365 0.79734 0.0
H551 H 0.32327 0.54205 0.87493 0.0
loop_
_geom_bond_atom_site_label_1
_geom_bond_atom_site_label_2
_geom_bond_distance
_geom_bond_site_symmetry_2
_ccdc_geom_bond_type
C0 C2 1.422 . S
C0 C4 1.415 . S
C0 N6 1.369 . S
C1 C2 1.421 . S
C1 C3 1.417 . S
C1 C13 1.405 1_554 S
C2 C0 1.422 . S
C2 C1 1.421 . S
C2 N12 1.359 . S
C3 C1 1.417 . S
C3 C5 1.329 . S
C3 H22 0.930 . S
C4 C0 1.415 . S
C4 C5 1.437 . S
C4 C8 1.413 . S
C5 C3 1.329 . S
C5 C4 1.437 . S
C5 H27 0.929 . S
N6 C0 1.369 . S
N6 C7 1.338 . S
N6 Gd11 2.622 . S
C7 N6 1.338 . S
C7 C9 1.378 . S
C7 H19 0.929 . S
C8 C4 1.413 . S
C8 C9 1.348 . S
C8 H24 0.931 . S
C9 C7 1.378 . S
C9 C8 1.348 . S
C9 H25 0.930 . S
Gd10 N30 2.622 . S
Gd10 N37 2.570 . S
Gd10 O44 2.353 1_655 S
Gd10 O45 2.468 1_655 S
Gd10 O46 2.427 1_655 S
Gd10 O48 2.388 1_655 S
Gd10 O49 2.386 . S
Gd10 O53 2.307 1_556 S
Gd10 C63 2.805 1_655 S
Gd11 N6 2.622 . S
Gd11 N12 2.570 . S
Gd11 O43 2.386 . S
Gd11 O47 2.307 1_554 S
Gd11 O50 2.353 1_455 S
Gd11 O51 2.468 1_455 S
Gd11 O52 2.427 1_455 S
Gd11 O54 2.388 1_455 S
Gd11 C75 2.805 1_455 S
N12 C2 1.359 . S
N12 Gd11 2.570 . S
N12 C14 1.343 1_554 S
C13 C1 1.405 1_556 S
C13 C15 1.331 . S
C13 H21 0.938 . S
C14 N12 1.343 1_556 S
C14 C15 1.390 . S
C14 H16 0.931 . S
C15 C13 1.331 . S
C15 C14 1.390 . S
C15 H17 0.930 . S
H16 C14 0.931 . S
H17 C15 0.930 . S
H18 C41 0.931 . S
H19 C7 0.929 . S
H20 C42 0.930 . S
H21 C13 0.938 . S
H22 C3 0.930 . S
H23 C32 0.929 . S
H24 C8 0.931 . S
H25 C9 0.930 . S
H26 C64 0.930 . S
H27 C5 0.929 . S
H28 C33 0.931 . S
H29 C34 0.930 . S
N30 Gd10 2.622 . S
N30 C31 1.369 . S
N30 C32 1.338 . S
C31 N30 1.369 . S
C31 C35 1.415 . S
C31 C38 1.422 . S
C32 H23 0.929 . S
C32 N30 1.338 . S
C32 C34 1.378 . S
C33 H28 0.931 . S
C33 C34 1.348 . S
C33 C35 1.413 . S
C34 H29 0.930 . S
C34 C32 1.378 . S
C34 C33 1.348 . S
C35 C31 1.415 . S
C35 C33 1.413 . S
C35 C65 1.437 . S
H36 C65 0.929 . S
N37 Gd10 2.570 . S
N37 C38 1.359 . S
N37 C41 1.343 1_556 S
C38 C31 1.422 . S
C38 N37 1.359 . S
C38 C40 1.421 . S
C39 C40 1.422 1_554 S
C39 C42 1.321 . S
C39 H66 0.931 . S
C40 C38 1.421 . S
C40 C39 1.422 1_556 S
C40 C64 1.417 . S
C41 H18 0.931 . S
C41 N37 1.343 1_554 S
C41 C42 1.390 . S
C42 H20 0.930 . S
C42 C39 1.321 . S
C42 C41 1.390 . S
O43 Gd11 2.386 . S
O43 C55 1.265 1_545 S
O44 Gd10 2.353 1_455 S
O44 C55 1.242 1_556 S
O45 Gd10 2.468 1_455 S
O45 C63 1.263 . S
O46 Gd10 2.427 1_455 S
O46 C63 1.252 . S
O47 Gd11 2.307 1_556 S
O47 C56 1.261 1_545 S
O48 Gd10 2.388 1_455 S
O48 C56 1.252 . S
O49 Gd10 2.386 . S
O49 C67 1.265 1_565 S
O50 Gd11 2.353 1_655 S
O50 C67 1.242 1_554 S
O51 Gd11 2.468 1_655 S
O51 C75 1.263 . S
O52 Gd11 2.427 1_655 S
O52 C75 1.252 . S
O53 Gd10 2.307 1_554 S
O53 C68 1.261 1_565 S
O54 Gd11 2.388 1_655 S
O54 C68 1.252 . S
C55 O43 1.265 1_565 S
C55 O44 1.242 1_554 S
C56 O47 1.261 1_565 S
C56 O48 1.252 . S
C57 C60 1.394 . S
C57 C62 1.370 . S
C57 C63 1.500 . S
C58 C61 1.383 . S
C58 C62 1.395 . S
C59 C60 1.396 . S
C59 C61 1.365 . S
C59 H76 0.929 . S
C60 C57 1.394 . S
C60 C59 1.396 . S
C60 H77 0.930 . S
C61 C58 1.383 . S
C61 C59 1.365 . S
C61 H78 0.931 . S
C62 C57 1.370 . S
C62 C58 1.395 . S
C62 H79 0.930 1_556 S
C63 Gd10 2.805 1_455 S
C63 O45 1.263 . S
C63 O46 1.252 . S
C63 C57 1.500 . S
C64 H26 0.930 . S
C64 C40 1.417 . S
C64 C65 1.329 . S
C65 C35 1.437 . S
C65 H36 0.929 . S
C65 C64 1.329 . S
H66 C39 0.931 . S
C67 O49 1.265 1_545 S
C67 O50 1.242 1_556 S
C68 O53 1.261 1_545 S
C68 O54 1.252 . S
C69 C72 1.394 . S
C69 C74 1.370 . S
C69 C75 1.500 . S
C70 C73 1.383 . S
C70 C74 1.395 . S
C71 C72 1.396 . S
C71 C73 1.365 . S
C71 H80 0.929 . S
C72 C69 1.394 . S
C72 C71 1.396 . S
C72 H81 0.930 . S
C73 C70 1.383 . S
C73 C71 1.365 . S
C73 H82 0.931 . S
C74 C69 1.370 . S
C74 C70 1.395 . S
C74 H83 0.930 1_554 S
C75 Gd11 2.805 1_655 S
C75 O51 1.263 . S
C75 O52 1.252 . S
C75 C69 1.500 . S
H76 C59 0.929 . S
H77 C60 0.930 . S
H78 C61 0.931 . S
H79 C62 0.930 1_554 S
H80 C71 0.929 . S
H81 C72 0.930 . S
H82 C73 0.931 . S
H83 C74 0.930 1_556 S
C84 C86 1.422 . S
C84 C88 1.415 . S
C84 N90 1.369 . S
C85 C86 1.421 . S
C85 C87 1.417 . S
C85 C97 1.422 . S
C86 C84 1.422 . S
C86 C85 1.421 . S
C86 N96 1.359 . S
C87 C85 1.417 . S
C87 C89 1.329 . S
C87 H106 0.930 . S
C88 C84 1.415 . S
C88 C89 1.437 . S
C88 C92 1.413 . S
C89 C87 1.329 . S
C89 C88 1.437 . S
C89 H111 0.929 . S
N90 C84 1.369 . S
N90 C91 1.338 . S
N90 Gd95 2.622 . S
C91 N90 1.338 . S
C91 C93 1.378 . S
C91 H103 0.929 . S
C92 C88 1.413 . S
C92 C93 1.348 . S
C92 H108 0.931 . S
C93 C91 1.378 . S
C93 C92 1.348 . S
C93 H109 0.930 . S
Gd94 N114 2.622 . S
Gd94 N121 2.570 . S
Gd94 O128 2.353 1_655 S
Gd94 O129 2.468 1_655 S
Gd94 O130 2.427 1_655 S
Gd94 O132 2.388 1_655 S
Gd94 O133 2.386 . S
Gd94 O137 2.307 . S
Gd94 C147 2.805 1_655 S
Gd95 N90 2.622 . S
Gd95 N96 2.570 . S
Gd95 O127 2.386 . S
Gd95 O131 2.307 . S
Gd95 O134 2.353 1_455 S
Gd95 O135 2.468 1_455 S
Gd95 O136 2.427 1_455 S
Gd95 O138 2.388 1_455 S
Gd95 C159 2.805 1_455 S
N96 C86 1.359 . S
N96 Gd95 2.570 . S
N96 C98 1.343 . S
C97 C85 1.422 . S
C97 C99 1.321 . S
C97 H105 0.931 . S
C98 N96 1.343 . S
C98 C99 1.390 . S
C98 H100 0.931 . S
C99 C97 1.321 . S
C99 C98 1.390 . S
C99 H101 0.930 . S
H100 C98 0.931 . S
H101 C99 0.930 . S
H102 C125 0.931 . S
H103 C91 0.929 . S
H104 C126 0.930 . S
H105 C97 0.931 . S
H106 C87 0.930 . S
H107 C116 0.929 . S
H108 C92 0.931 . S
H109 C93 0.930 . S
H110 C148 0.930 . S
H111 C89 0.929 . S
H112 C117 0.931 . S
H113 C118 0.930 . S
N114 Gd94 2.622 . S
N114 C115 1.369 . S
N114 C116 1.338 . S
C115 N114 1.369 . S
C115 C119 1.415 . S
C115 C122 1.422 . S
C116 H107 0.929 . S
C116 N114 1.338 . S
C116 C118 1.378 . S
C117 H112 0.931 . S
C117 C118 1.348 . S
C117 C119 1.413 . S
C118 H113 0.930 . S
C118 C116 1.378 . S
C118 C117 1.348 . S
C119 C115 1.415 . S
C119 C117 1.413 . S
C119 C149 1.437 . S
H120 C149 0.929 . S
N121 Gd94 2.570 . S
N121 C122 1.359 . S
N121 C125 1.343 . S
C122 C115 1.422 . S
C122 N121 1.359 . S
C122 C124 1.421 . S
C123 C124 1.422 . S
C123 C126 1.321 . S
C123 H150 0.931 . S
C124 C122 1.421 . S
C124 C123 1.422 . S
C124 C148 1.417 . S
C125 H102 0.931 . S
C125 N121 1.343 . S
C125 C126 1.390 . S
C126 H104 0.930 . S
C126 C123 1.321 . S
C126 C125 1.390 . S
O127 Gd95 2.386 . S
O127 C139 1.265 1_565 S
O128 Gd94 2.353 1_455 S
O128 C139 1.242 . S
O129 Gd94 2.468 1_455 S
O129 C147 1.263 . S
O130 Gd94 2.427 1_455 S
O130 C147 1.252 . S
O131 Gd95 2.307 . S
O131 C140 1.261 1_565 S
O132 Gd94 2.388 1_455 S
O132 C140 1.252 . S
O133 Gd94 2.386 . S
O133 C151 1.265 1_545 S
O134 Gd95 2.353 1_655 S
O134 C151 1.242 . S
O135 Gd95 2.468 1_655 S
O135 C159 1.263 . S
O136 Gd95 2.427 1_655 S
O136 C159 1.252 . S
O137 Gd94 2.307 . S
O137 C152 1.261 1_545 S
O138 Gd95 2.388 1_655 S
O138 C152 1.252 . S
C139 O127 1.265 1_545 S
C139 O128 1.242 . S
C140 O131 1.261 1_545 S
C140 O132 1.252 . S
C141 C144 1.394 . S
C141 C146 1.370 . S
C141 C147 1.500 . S
C142 C145 1.383 . S
C142 C146 1.395 . S
C143 C144 1.396 . S
C143 C145 1.365 . S
C143 H160 0.929 . S
C144 C141 1.394 . S
C144 C143 1.396 . S
C144 H161 0.930 . S
C145 C142 1.383 . S
C145 C143 1.365 . S
C145 H162 0.931 . S
C146 C141 1.370 . S
C146 C142 1.395 . S
C146 H163 0.930 . S
C147 Gd94 2.805 1_455 S
C147 O129 1.263 . S
C147 O130 1.252 . S
C147 C141 1.500 . S
C148 H110 0.930 . S
C148 C124 1.417 . S
C148 C149 1.329 . S
C149 C119 1.437 . S
C149 H120 0.929 . S
C149 C148 1.329 . S
H150 C123 0.931 . S
C151 O133 1.265 1_565 S
C151 O134 1.242 . S
C152 O137 1.261 1_565 S
C152 O138 1.252 . S
C153 C156 1.394 . S
C153 C158 1.370 . S
C153 C159 1.500 . S
C154 C157 1.383 . S
C154 C158 1.395 . S
C155 C156 1.396 . S
C155 C157 1.365 . S
C155 H164 0.929 . S
C156 C153 1.394 . S
C156 C155 1.396 . S
C156 H165 0.930 . S
C157 C154 1.383 . S
C157 C155 1.365 . S
C157 H166 0.931 . S
C158 C153 1.370 . S
C158 C154 1.395 . S
C158 H167 0.930 . S
C159 Gd95 2.805 1_655 S
C159 O135 1.263 . S
C159 O136 1.252 . S
C159 C153 1.500 . S
H160 C143 0.929 . S
H161 C144 0.930 . S
H162 C145 0.931 . S
H163 C146 0.930 . S
H164 C155 0.929 . S
H165 C156 0.930 . S
H166 C157 0.931 . S
H167 C158 0.930 . S
C168 C170 1.422 . S
C168 C172 1.415 . S
C168 N174 1.369 . S
C169 C170 1.421 . S
C169 C171 1.417 . S
C169 C181 1.405 1_554 S
C170 C168 1.422 . S
C170 C169 1.421 . S
C170 N180 1.359 . S
C171 C169 1.417 . S
C171 C173 1.329 . S
C171 H190 0.930 . S
C172 C168 1.415 . S
C172 C173 1.437 . S
C172 C176 1.413 . S
C173 C171 1.329 . S
C173 C172 1.437 . S
C173 H195 0.929 . S
N174 C168 1.369 . S
N174 C175 1.338 . S
N174 Gd179 2.622 . S
C175 N174 1.338 . S
C175 C177 1.378 . S
C175 H187 0.929 . S
C176 C172 1.413 . S
C176 C177 1.348 . S
C176 H192 0.931 . S
C177 C175 1.378 . S
C177 C176 1.348 . S
C177 H193 0.930 . S
Gd178 N198 2.622 . S
Gd178 N205 2.570 . S
Gd178 O212 2.353 . S
Gd178 O213 2.468 . S
Gd178 O214 2.427 . S
Gd178 O216 2.388 . S
Gd178 O217 2.386 . S
Gd178 O221 2.307 1_556 S
Gd178 C231 2.805 . S
Gd179 N174 2.622 . S
Gd179 N180 2.570 . S
Gd179 O211 2.386 . S
Gd179 O215 2.307 1_554 S
Gd179 O218 2.353 . S
Gd179 O219 2.468 . S
Gd179 O220 2.427 . S
Gd179 O222 2.388 . S
Gd179 C243 2.805 . S
N180 C170 1.359 . S
N180 Gd179 2.570 . S
N180 C182 1.343 1_554 S
C181 C169 1.405 1_556 S
C181 C183 1.331 . S
C181 H189 0.938 . S
C182 N180 1.343 1_556 S
C182 C183 1.390 . S
C182 H184 0.931 . S
C183 C181 1.331 . S
C183 C182 1.390 . S
C183 H185 0.930 . S
H184 C182 0.931 . S
H185 C183 0.930 . S
H186 C209 0.931 . S
H187 C175 0.929 . S
H188 C210 0.930 . S
H189 C181 0.938 . S
H190 C171 0.930 . S
H191 C200 0.929 . S
H192 C176 0.931 . S
H193 C177 0.930 . S
H194 C232 0.930 . S
H195 C173 0.929 . S
H196 C201 0.931 . S
H197 C202 0.930 . S
N198 Gd178 2.622 . S
N198 C199 1.369 . S
N198 C200 1.338 . S
C199 N198 1.369 . S
C199 C203 1.415 . S
C199 C206 1.422 . S
C200 H191 0.929 . S
C200 N198 1.338 . S
C200 C202 1.378 . S
C201 H196 0.931 . S
C201 C202 1.348 . S
C201 C203 1.413 . S
C202 H197 0.930 . S
C202 C200 1.378 . S
C202 C201 1.348 . S
C203 C199 1.415 . S
C203 C201 1.413 . S
C203 C233 1.437 . S
H204 C233 0.929 . S
N205 Gd178 2.570 . S
N205 C206 1.359 . S
N205 C209 1.343 1_556 S
C206 C199 1.422 . S
C206 N205 1.359 . S
C206 C208 1.421 . S
C207 C208 1.422 1_554 S
C207 C210 1.321 . S
C207 H234 0.931 . S
C208 C206 1.421 . S
C208 C207 1.422 1_556 S
C208 C232 1.417 . S
C209 H186 0.931 . S
C209 N205 1.343 1_554 S
C209 C210 1.390 . S
C210 H188 0.930 . S
C210 C207 1.321 . S
C210 C209 1.390 . S
O211 Gd179 2.386 . S
O211 C223 1.265 . S
O212 Gd178 2.353 . S
O212 C223 1.242 1_556 S
O213 Gd178 2.468 . S
O213 C231 1.263 . S
O214 Gd178 2.427 . S
O214 C231 1.252 . S
O215 Gd179 2.307 1_556 S
O215 C224 1.261 . S
O216 Gd178 2.388 . S
O216 C224 1.252 . S
O217 Gd178 2.386 . S
O217 C235 1.265 . S
O218 Gd179 2.353 . S
O218 C235 1.242 1_554 S
O219 Gd179 2.468 . S
O219 C243 1.263 . S
O220 Gd179 2.427 . S
O220 C243 1.252 . S
O221 Gd178 2.307 1_554 S
O221 C236 1.261 . S
O222 Gd179 2.388 . S
O222 C236 1.252 . S
C223 O211 1.265 . S
C223 O212 1.242 1_554 S
C224 O215 1.261 . S
C224 O216 1.252 . S
C225 C228 1.394 . S
C225 C230 1.370 . S
C225 C231 1.500 . S
C226 C229 1.383 . S
C226 C230 1.395 . S
C227 C228 1.396 . S
C227 C229 1.365 . S
C227 H244 0.929 . S
C228 C225 1.394 . S
C228 C227 1.396 . S
C228 H245 0.930 . S
C229 C226 1.383 . S
C229 C227 1.365 . S
C229 H246 0.931 . S
C230 C225 1.370 . S
C230 C226 1.395 . S
C230 H247 0.930 1_556 S
C231 Gd178 2.805 . S
C231 O213 1.263 . S
C231 O214 1.252 . S
C231 C225 1.500 . S
C232 H194 0.930 . S
C232 C208 1.417 . S
C232 C233 1.329 . S
C233 C203 1.437 . S
C233 H204 0.929 . S
C233 C232 1.329 . S
H234 C207 0.931 . S
C235 O217 1.265 . S
C235 O218 1.242 1_556 S
C236 O221 1.261 . S
C236 O222 1.252 . S
C237 C240 1.394 . S
C237 C242 1.370 . S
C237 C243 1.500 . S
C238 C241 1.383 . S
C238 C242 1.395 . S
C239 C240 1.396 . S
C239 C241 1.365 . S
C239 H248 0.929 . S
C240 C237 1.394 . S
C240 C239 1.396 . S
C240 H249 0.930 . S
C241 C238 1.383 . S
C241 C239 1.365 . S
C241 H250 0.931 . S
C242 C237 1.370 . S
C242 C238 1.395 . S
C242 H251 0.930 1_554 S
C243 Gd179 2.805 . S
C243 O219 1.263 . S
C243 O220 1.252 . S
C243 C237 1.500 . S
H244 C227 0.929 . S
H245 C228 0.930 . S
H246 C229 0.931 . S
H247 C230 0.930 1_554 S
H248 C239 0.929 . S
H249 C240 0.930 . S
H250 C241 0.931 . S
H251 C242 0.930 1_556 S
C252 C254 1.422 . S
C252 C256 1.415 . S
C252 N258 1.369 . S
C253 C254 1.421 . S
C253 C255 1.417 . S
C253 C265 1.422 . S
C254 C252 1.422 . S
C254 C253 1.421 . S
C254 N264 1.359 . S
C255 C253 1.417 . S
C255 C257 1.329 . S
C255 H274 0.930 . S
C256 C252 1.415 . S
C256 C257 1.437 . S
C256 C260 1.413 . S
C257 C255 1.329 . S
C257 C256 1.437 . S
C257 H279 0.929 . S
N258 C252 1.369 . S
N258 C259 1.338 . S
N258 Gd263 2.622 . S
C259 N258 1.338 . S
C259 C261 1.378 . S
C259 H271 0.929 . S
C260 C256 1.413 . S
C260 C261 1.348 . S
C260 H276 0.931 . S
C261 C259 1.378 . S
C261 C260 1.348 . S
C261 H277 0.930 . S
Gd262 N282 2.622 . S
Gd262 N289 2.570 . S
Gd262 O296 2.353 . S
Gd262 O297 2.468 . S
Gd262 O298 2.427 . S
Gd262 O300 2.388 . S
Gd262 O301 2.386 . S
Gd262 O305 2.307 . S
Gd262 C315 2.805 . S
Gd263 N258 2.622 . S
Gd263 N264 2.570 . S
Gd263 O295 2.386 . S
Gd263 O299 2.307 . S
Gd263 O302 2.353 . S
Gd263 O303 2.468 . S
Gd263 O304 2.427 . S
Gd263 O306 2.388 . S
Gd263 C327 2.805 . S
N264 C254 1.359 . S
N264 Gd263 2.570 . S
N264 C266 1.343 . S
C265 C253 1.422 . S
C265 C267 1.321 . S
C265 H273 0.931 . S
C266 N264 1.343 . S
C266 C267 1.390 . S
C266 H268 0.931 . S
C267 C265 1.321 . S
C267 C266 1.390 . S
C267 H269 0.930 . S
H268 C266 0.931 . S
H269 C267 0.930 . S
H270 C293 0.931 . S
H271 C259 0.929 . S
H272 C294 0.930 . S
H273 C265 0.931 . S
H274 C255 0.930 . S
H275 C284 0.929 . S
H276 C260 0.931 . S
H277 C261 0.930 . S
H278 C316 0.930 . S
H279 C257 0.929 . S
H280 C285 0.931 . S
H281 C286 0.930 . S
N282 Gd262 2.622 . S
N282 C283 1.369 . S
N282 C284 1.338 . S
C283 N282 1.369 . S
C283 C287 1.415 . S
C283 C290 1.422 . S
C284 H275 0.929 . S
C284 N282 1.338 . S
C284 C286 1.378 . S
C285 H280 0.931 . S
C285 C286 1.348 . S
C285 C287 1.413 . S
C286 H281 0.930 . S
C286 C284 1.378 . S
C286 C285 1.348 . S
C287 C283 1.415 . S
C287 C285 1.413 . S
C287 C317 1.437 . S
H288 C317 0.929 . S
N289 Gd262 2.570 . S
N289 C290 1.359 . S
N289 C293 1.343 . S
C290 C283 1.422 . S
C290 N289 1.359 . S
C290 C292 1.421 . S
C291 C292 1.422 . S
C291 C294 1.321 . S
C291 H318 0.931 . S
C292 C290 1.421 . S
C292 C291 1.422 . S
C292 C316 1.417 . S
C293 H270 0.931 . S
C293 N289 1.343 . S
C293 C294 1.390 . S
C294 H272 0.930 . S
C294 C291 1.321 . S
C294 C293 1.390 . S
O295 Gd263 2.386 . S
O295 C307 1.265 . S
O296 Gd262 2.353 . S
O296 C307 1.242 . S
O297 Gd262 2.468 . S
O297 C315 1.263 . S
O298 Gd262 2.427 . S
O298 C315 1.252 . S
O299 Gd263 2.307 . S
O299 C308 1.261 . S
O300 Gd262 2.388 . S
O300 C308 1.252 . S
O301 Gd262 2.386 . S
O301 C319 1.265 . S
O302 Gd263 2.353 . S
O302 C319 1.242 . S
O303 Gd263 2.468 . S
O303 C327 1.263 . S
O304 Gd263 2.427 . S
O304 C327 1.252 . S
O305 Gd262 2.307 . S
O305 C320 1.261 . S
O306 Gd263 2.388 . S
O306 C320 1.252 . S
C307 O295 1.265 . S
C307 O296 1.242 . S
C308 O299 1.261 . S
C308 O300 1.252 . S
C309 C312 1.394 . S
C309 C314 1.370 . S
C309 C315 1.500 . S
C310 C313 1.383 . S
C310 C314 1.395 . S
C311 C312 1.396 . S
C311 C313 1.365 . S
C311 H328 0.929 . S
C312 C309 1.394 . S
C312 C311 1.396 . S
C312 H329 0.930 . S
C313 C310 1.383 . S
C313 C311 1.365 . S
C313 H330 0.931 . S
C314 C309 1.370 . S
C314 C310 1.395 . S
C314 H331 0.930 . S
C315 Gd262 2.805 . S
C315 O297 1.263 . S
C315 O298 1.252 . S
C315 C309 1.500 . S
C316 H278 0.930 . S
C316 C292 1.417 . S
C316 C317 1.329 . S
C317 C287 1.437 . S
C317 H288 0.929 . S
C317 C316 1.329 . S
H318 C291 0.931 . S
C319 O301 1.265 . S
C319 O302 1.242 . S
C320 O305 1.261 . S
C320 O306 1.252 . S
C321 C324 1.394 . S
C321 C326 1.370 . S
C321 C327 1.500 . S
C322 C325 1.383 . S
C322 C326 1.395 . S
C323 C324 1.396 . S
C323 C325 1.365 . S
C323 H332 0.929 . S
C324 C321 1.394 . S
C324 C323 1.396 . S
C324 H333 0.930 . S
C325 C322 1.383 . S
C325 C323 1.365 . S
C325 H334 0.931 . S
C326 C321 1.370 . S
C326 C322 1.395 . S
C326 H335 0.930 . S
C327 Gd263 2.805 . S
C327 O303 1.263 . S
C327 O304 1.252 . S
C327 C321 1.500 . S
H328 C311 0.929 . S
H329 C312 0.930 . S
H330 C313 0.931 . S
H331 C314 0.930 . S
H332 C323 0.929 . S
H333 C324 0.930 . S
H334 C325 0.931 . S
H335 C326 0.930 . S
C336 C337 1.363 1_554 S
C336 C342 1.379 . S
C336 N344 1.356 . S
C337 C336 1.363 1_556 S
C337 C343 1.363 . S
C338 C339 1.363 1_556 S
C338 C343 1.379 . S
C338 N345 1.356 . S
C339 C338 1.363 1_554 S
C339 C342 1.363 . S
N340 C342 1.356 . S
N340 H352 0.984 . S
N340 H353 0.985 . S
N341 C343 1.356 . S
N341 H346 0.984 . S
N341 H347 0.985 . S
C342 C336 1.379 . S
C342 C339 1.363 . S
C342 N340 1.356 . S
C343 C337 1.363 . S
C343 C338 1.379 . S
C343 N341 1.356 . S
N344 C336 1.356 . S
N344 H350 0.984 . S
N344 H351 0.984 . S
N345 C338 1.356 . S
N345 H348 0.984 . S
N345 H349 0.985 . S
H346 N341 0.984 . S
H347 N341 0.985 . S
H348 N345 0.984 . S
H349 N345 0.985 . S
H350 N344 0.984 . S
H351 N344 0.984 . S
H352 N340 0.984 . S
H353 N340 0.985 . S
C354 C355 1.363 1_556 S
C354 C360 1.379 . S
C354 N362 1.356 . S
C355 C354 1.363 1_554 S
C355 C361 1.363 . S
C356 C357 1.363 1_554 S
C356 C361 1.379 . S
C356 N363 1.356 . S
C357 C356 1.363 1_556 S
C357 C360 1.363 . S
N358 C360 1.356 . S
N358 H370 0.984 . S
N358 H371 0.985 . S
N359 C361 1.356 . S
N359 H364 0.984 . S
N359 H365 0.985 . S
C360 C354 1.379 . S
C360 C357 1.363 . S
C360 N358 1.356 . S
C361 C355 1.363 . S
C361 C356 1.379 . S
C361 N359 1.356 . S
N362 C354 1.356 . S
N362 H368 0.984 . S
N362 H369 0.984 . S
N363 C356 1.356 . S
N363 H366 0.984 . S
N363 H367 0.985 . S
H364 N359 0.984 . S
H365 N359 0.985 . S
H366 N363 0.984 . S
H367 N363 0.985 . S
H368 N362 0.984 . S
H369 N362 0.984 . S
H370 N358 0.984 . S
H371 N358 0.985 . S
C372 C373 1.363 . S
C372 C378 1.379 . S
C372 N380 1.356 . S
C373 C372 1.363 . S
C373 C379 1.363 . S
C374 C375 1.363 . S
C374 C379 1.379 . S
C374 N381 1.356 . S
C375 C374 1.363 . S
C375 C378 1.363 . S
N376 C378 1.356 . S
N376 H388 0.984 . S
N376 H389 0.985 . S
N377 C379 1.356 . S
N377 H382 0.984 . S
N377 H383 0.985 . S
C378 C372 1.379 . S
C378 C375 1.363 . S
C378 N376 1.356 . S
C379 C373 1.363 . S
C379 C374 1.379 . S
C379 N377 1.356 . S
N380 C372 1.356 . S
N380 H386 0.984 . S
N380 H387 0.984 . S
N381 C374 1.356 . S
N381 H384 0.984 . S
N381 H385 0.985 . S
H382 N377 0.984 . S
H383 N377 0.985 . S
H384 N381 0.984 . S
H385 N381 0.985 . S
H386 N380 0.984 . S
H387 N380 0.984 . S
H388 N376 0.984 . S
H389 N376 0.985 . S
C390 C391 1.363 . S
C390 C396 1.379 . S
C390 N398 1.356 . S
C391 C390 1.363 . S
C391 C397 1.363 . S
C392 C393 1.363 . S
C392 C397 1.379 . S
C392 N399 1.356 . S
C393 C392 1.363 . S
C393 C396 1.363 . S
N394 C396 1.356 . S
N394 H406 0.984 . S
N394 H407 0.985 . S
N395 C397 1.356 . S
N395 H400 0.984 . S
N395 H401 0.985 . S
C396 C390 1.379 . S
C396 C393 1.363 . S
C396 N394 1.356 . S
C397 C391 1.363 . S
C397 C392 1.379 . S
C397 N395 1.356 . S
N398 C390 1.356 . S
N398 H404 0.984 . S
N398 H405 0.984 . S
N399 C392 1.356 . S
N399 H402 0.984 . S
N399 H403 0.985 . S
H400 N395 0.984 . S
H401 N395 0.985 . S
H402 N399 0.984 . S
H403 N399 0.985 . S
H404 N398 0.984 . S
H405 N398 0.984 . S
H406 N394 0.984 . S
H407 N394 0.985 . S
C408 C409 1.358 1_544 S
C408 C414 1.379 . S
C408 N416 1.356 . S
C409 C408 1.358 1_566 S
C409 C415 1.369 . S
C410 C411 1.356 1_566 S
C410 C415 1.379 . S
C410 N417 1.356 . S
C411 C410 1.356 1_544 S
C411 C414 1.371 . S
N412 C414 1.356 . S
N412 H424 0.984 . S
N412 H425 0.985 . S
N413 C415 1.356 . S
N413 H418 0.984 . S
N413 H419 0.985 . S
C414 C408 1.379 . S
C414 C411 1.371 . S
C414 N412 1.356 . S
C415 C409 1.369 . S
C415 C410 1.379 . S
C415 N413 1.356 . S
N416 C408 1.356 . S
N416 H422 0.984 . S
N416 H423 0.984 . S
N417 C410 1.356 . S
N417 H420 0.984 . S
N417 H421 0.985 . S
H418 N413 0.984 . S
H419 N413 0.985 . S
H420 N417 0.984 . S
H421 N417 0.985 . S
H422 N416 0.984 . S
H423 N416 0.984 . S
H424 N412 0.984 . S
H425 N412 0.985 . S
C426 C427 1.363 1_565 S
C426 C432 1.379 . S
C426 N434 1.356 . S
C427 C426 1.363 1_545 S
C427 C433 1.363 . S
C428 C429 1.363 1_545 S
C428 C433 1.379 . S
C428 N435 1.356 . S
C429 C428 1.363 1_565 S
C429 C432 1.363 . S
N430 C432 1.356 . S
N430 H442 0.984 . S
N430 H443 0.985 . S
N431 C433 1.356 . S
N431 H436 0.984 . S
N431 H437 0.985 . S
C432 C426 1.379 . S
C432 C429 1.363 . S
C432 N430 1.356 . S
C433 C427 1.363 . S
C433 C428 1.379 . S
C433 N431 1.356 . S
N434 C426 1.356 . S
N434 H440 0.984 . S
N434 H441 0.984 . S
N435 C428 1.356 . S
N435 H438 0.984 . S
N435 H439 0.985 . S
H436 N431 0.984 . S
H437 N431 0.985 . S
H438 N435 0.984 . S
H439 N435 0.985 . S
H440 N434 0.984 . S
H441 N434 0.984 . S
H442 N430 0.984 . S
H443 N430 0.985 . S
C444 C445 1.364 . S
C444 C450 1.379 1_655 S
C444 N452 1.356 . S
C445 C444 1.364 . S
C445 C451 1.362 1_556 S
C446 C447 1.365 . S
C446 C451 1.379 1_455 S
C446 N453 1.356 . S
C447 C446 1.365 . S
C447 C450 1.362 1_554 S
N448 C450 1.356 . S
N448 H460 0.984 . S
N448 H461 0.985 . S
N449 C451 1.356 . S
N449 H454 0.984 . S
N449 H455 0.985 . S
C450 C444 1.379 1_455 S
C450 C447 1.362 1_556 S
C450 N448 1.356 . S
C451 C445 1.362 1_554 S
C451 C446 1.379 1_655 S
C451 N449 1.356 . S
N452 C444 1.356 . S
N452 H458 0.984 . S
N452 H459 0.984 . S
N453 C446 1.356 . S
N453 H456 0.984 . S
N453 H457 0.985 . S
H454 N449 0.984 . S
H455 N449 0.985 . S
H456 N453 0.984 . S
H457 N453 0.985 . S
H458 N452 0.984 . S
H459 N452 0.984 . S
H460 N448 0.984 . S
H461 N448 0.985 . S
C462 C463 1.363 . S
C462 C468 1.379 1_455 S
C462 N470 1.356 . S
C463 C462 1.363 . S
C463 C469 1.363 . S
C464 C465 1.363 . S
C464 C469 1.379 1_655 S
C464 N471 1.356 . S
C465 C464 1.363 . S
C465 C468 1.363 . S
N466 C468 1.356 . S
N466 H478 0.984 . S
N466 H479 0.985 . S
N467 C469 1.356 . S
N467 H472 0.984 . S
N467 H473 0.985 . S
C468 C462 1.379 1_655 S
C468 C465 1.363 . S
C468 N466 1.356 . S
C469 C463 1.363 . S
C469 C464 1.379 1_455 S
C469 N467 1.356 . S
N470 C462 1.356 . S
N470 H476 0.984 . S
N470 H477 0.984 . S
N471 C464 1.356 . S
N471 H474 0.984 . S
N471 H475 0.985 . S
H472 N467 0.984 . S
H473 N467 0.985 . S
H474 N471 0.984 . S
H475 N471 0.985 . S
H476 N470 0.984 . S
H477 N470 0.984 . S
H478 N466 0.984 . S
H479 N466 0.985 . S
C480 C481 1.354 1_465 S
C480 C486 1.379 . S
C480 N488 1.356 . S
C481 C480 1.354 1_645 S
C481 C487 1.381 . S
C482 C483 1.358 1_545 S
C482 C487 1.379 . S
C482 N489 1.356 . S
C483 C482 1.358 1_565 S
C483 C486 1.374 1_655 S
N484 C486 1.356 . S
N484 H496 0.984 . S
N484 H497 0.985 . S
N485 C487 1.356 . S
N485 H490 0.984 . S
N485 H491 0.985 . S
C486 C480 1.379 . S
C486 C483 1.374 1_455 S
C486 N484 1.356 . S
C487 C481 1.381 . S
C487 C482 1.379 . S
C487 N485 1.356 . S
N488 C480 1.356 . S
N488 H494 0.984 . S
N488 H495 0.984 . S
N489 C482 1.356 . S
N489 H492 0.984 . S
N489 H493 0.985 . S
H490 N485 0.984 . S
H491 N485 0.985 . S
H492 N489 0.984 . S
H493 N489 0.985 . S
H494 N488 0.984 . S
H495 N488 0.984 . S
H496 N484 0.984 . S
H497 N484 0.985 . S
C498 C499 1.382 1_655 S
C498 C504 1.379 . S
C498 N506 1.356 . S
C499 C498 1.382 1_455 S
C499 C505 1.354 1_545 S
C500 C501 1.374 . S
C500 C505 1.379 . S
C500 N507 1.356 . S
C501 C500 1.374 . S
C501 C504 1.357 1_465 S
N502 C504 1.356 . S
N502 H514 0.984 . S
N502 H515 0.985 . S
N503 C505 1.356 . S
N503 H508 0.984 . S
N503 H509 0.985 . S
C504 C498 1.379 . S
C504 C501 1.357 1_645 S
C504 N502 1.356 . S
C505 C499 1.354 1_565 S
C505 C500 1.379 . S
C505 N503 1.356 . S
N506 C498 1.356 . S
N506 H512 0.984 . S
N506 H513 0.984 . S
N507 C500 1.356 . S
N507 H510 0.984 . S
N507 H511 0.985 . S
H508 N503 0.984 . S
H509 N503 0.985 . S
H510 N507 0.984 . S
H511 N507 0.985 . S
H512 N506 0.984 . S
H513 N506 0.984 . S
H514 N502 0.984 . S
H515 N502 0.985 . S
C516 C517 1.363 . S
C516 C522 1.379 . S
C516 N524 1.356 . S
C517 C516 1.363 . S
C517 C523 1.363 . S
C518 C519 1.363 . S
C518 C523 1.379 . S
C518 N525 1.356 . S
C519 C518 1.363 . S
C519 C522 1.363 . S
N520 C522 1.356 . S
N520 H532 0.984 . S
N520 H533 0.985 . S
N521 C523 1.356 . S
N521 H526 0.984 . S
N521 H527 0.985 . S
C522 C516 1.379 . S
C522 C519 1.363 . S
C522 N520 1.356 . S
C523 C517 1.363 . S
C523 C518 1.379 . S
C523 N521 1.356 . S
N524 C516 1.356 . S
N524 H530 0.984 . S
N524 H531 0.984 . S
N525 C518 1.356 . S
N525 H528 0.984 . S
N525 H529 0.985 . S
H526 N521 0.984 . S
H527 N521 0.985 . S
H528 N525 0.984 . S
H529 N525 0.985 . S
H530 N524 0.984 . S
H531 N524 0.984 . S
H532 N520 0.984 . S
H533 N520 0.985 . S
C534 C535 1.363 . S
C534 C540 1.379 . S
C534 N542 1.356 . S
C535 C534 1.363 . S
C535 C541 1.363 . S
C536 C537 1.363 . S
C536 C541 1.379 . S
C536 N543 1.356 . S
C537 C536 1.363 . S
C537 C540 1.363 . S
N538 C540 1.356 . S
N538 H550 0.984 . S
N538 H551 0.985 . S
N539 C541 1.356 . S
N539 H544 0.984 . S
N539 H545 0.985 . S
C540 C534 1.379 . S
C540 C537 1.363 . S
C540 N538 1.356 . S
C541 C535 1.363 . S
C541 C536 1.379 . S
C541 N539 1.356 . S
N542 C534 1.356 . S
N542 H548 0.984 . S
N542 H549 0.984 . S
N543 C536 1.356 . S
N543 H546 0.984 . S
N543 H547 0.985 . S
H544 N539 0.984 . S
H545 N539 0.985 . S
H546 N543 0.984 . S
H547 N543 0.985 . S
H548 N542 0.984 . S
H549 N542 0.984 . S
H550 N538 0.984 . S
H551 N538 0.985 . S
C337 C238 1.474 1_556 S
C339 C58 1.477 1_554 S
C355 C226 1.474 1_554 S
C357 C70 1.471 1_556 S
C373 C142 1.474 . S
C375 C322 1.471 . S
C391 C154 1.474 . S
C393 C310 1.477 . S
C409 C55 2.006 1_556 S
C411 C67 2.006 1_554 S
C427 C139 2.007 . S
C429 C151 2.007 . S
C445 C223 2.006 1_556 S
C447 C235 2.006 1_554 S
C463 C319 2.007 . S
C465 C307 2.007 . S
C481 C152 1.468 1_545 S
C483 C68 1.471 1_565 S
C499 C56 1.468 1_545 S
C501 C140 1.474 1_565 S
C517 C320 1.479 . S
C519 C236 1.477 . S
C535 C308 1.479 . S
C537 C224 1.481 . S
