# Generated by pormake.
# Topology bcg, (8)-cn, num edge types: 1
# Building blocks:
#     Node 0, Type 0, BuildingBlock: LIZSOE_clean_sbu_0, # of connection points: 8
#     Node 1, Type 0, BuildingBlock: LIZSOE_clean_sbu_0, # of connection points: 8
#     Node 2, Type 0, BuildingBlock: LIZSOE_clean_sbu_0, # of connection points: 8
#     Node 3, Type 0, BuildingBlock: LIZSOE_clean_sbu_0, # of connection points: 8
#     Edge 4, Type (0, 0), BuildingBlock: OJICUG_clean_linker_0, # of connection points: 2
#     Edge 5, Type (0, 0), BuildingBlock: OJICUG_clean_linker_0, # of connection points: 2
#     Edge 6, Type (0, 0), BuildingBlock: OJICUG_clean_linker_0, # of connection points: 2
#     Edge 7, Type (0, 0), BuildingBlock: OJICUG_clean_linker_0, # of connection points: 2
#     Edge 8, Type (0, 0), BuildingBlock: OJICUG_clean_linker_0, # of connection points: 2
#     Edge 9, Type (0, 0), BuildingBlock: OJICUG_clean_linker_0, # of connection points: 2
#     Edge 10, Type (0, 0), BuildingBlock: OJICUG_clean_linker_0, # of connection points: 2
#     Edge 11, Type (0, 0), BuildingBlock: OJICUG_clean_linker_0, # of connection points: 2
#     Edge 12, Type (0, 0), BuildingBlock: OJICUG_clean_linker_0, # of connection points: 2
#     Edge 13, Type (0, 0), BuildingBlock: OJICUG_clean_linker_0, # of connection points: 2
#     Edge 14, Type (0, 0), BuildingBlock: OJICUG_clean_linker_0, # of connection points: 2
#     Edge 15, Type (0, 0), BuildingBlock: OJICUG_clean_linker_0, # of connection points: 2
#     Edge 16, Type (0, 0), BuildingBlock: OJICUG_clean_linker_0, # of connection points: 2
#     Edge 17, Type (0, 0), BuildingBlock: OJICUG_clean_linker_0, # of connection points: 2
#     Edge 18, Type (0, 0), BuildingBlock: OJICUG_clean_linker_0, # of connection points: 2
#     Edge 19, Type (0, 0), BuildingBlock: OJICUG_clean_linker_0, # of connection points: 2
# Relax obj value: 0.335
# Max RMSD: 0.347
# Mean RMSD: 0.347
data_MOF--net-bcg--node1-LIZSOE_clean_sbu_0--edge1-OJICUG_clean_linker_0
_symmetry_space_group_name_H-M    P1
_symmetry_Int_Tables_number       1
_symmetry_cell_setting            triclinic
loop_
_symmetry_equiv_pos_as_xyz
'x, y, z'
_cell_length_a     15.989621
_cell_length_b     17.213075
_cell_length_c     15.744197
_cell_angle_alpha  90.266161
_cell_angle_beta   90.597925
_cell_angle_gamma 89.059157
loop_
_atom_site_label
_atom_site_type_symbol
_atom_site_fract_x
_atom_site_fract_y
_atom_site_fract_z
_atom_type_partial_charge
Co0 Co 0.1248 0.29171 0.96718 0.0
N1 N 1.01142 0.27637 0.97751 0.0
C2 C 0.96095 0.29667 0.04225 0.0
N3 N 0.89157 0.21435 0.9617 0.0
C4 C 0.96525 0.2298 0.92755 0.0
C5 C 0.8876 0.25721 0.0334 0.0
Co6 Co 0.47899 0.2008 0.11135 0.0
N7 N 0.58375 0.15849 0.09639 0.0
N8 N 0.68678 0.07445 0.06368 0.0
C9 C 0.71612 0.12945 0.11785 0.0
C10 C 0.6536 0.18157 0.13589 0.0
C11 C 0.60507 0.09261 0.05386 0.0
Co12 Co 0.30794 0.26799 0.03877 0.0
C13 C 0.42264 0.16841 0.16121 0.0
H14 H 0.65885 0.2333 0.17452 0.0
O15 O 0.22995 0.31356 0.94922 0.0
O16 O 0.36452 0.22508 0.93262 0.0
O17 O 0.23702 0.16613 0.04501 0.0
O18 O 0.24421 0.31416 0.13848 0.0
O19 O 0.128 0.27007 0.08459 0.0
O20 O 0.48034 0.20254 0.99686 0.0
O21 O 0.38218 0.23118 0.13303 0.0
O22 O 0.51311 0.30694 0.09845 0.0
O23 O 0.14135 0.18428 0.94326 0.0
O24 O 0.12051 0.3904 0.99873 0.0
O25 O 0.3942 0.35929 0.0353 0.0
O26 O 0.42813 0.10566 0.11577 0.0
C27 C 0.17811 0.13937 0.9961 0.0
C28 C 0.54474 0.04083 1.00706 0.0
H29 H 0.48691 0.06883 0.98383 0.0
H30 H 0.5738 0.01491 0.95064 0.0
H31 H 0.52613 -0.00619 0.05057 0.0
C32 C 0.44137 0.20906 0.92919 0.0
C33 C 0.16815 0.29526 0.14739 0.0
H34 H 0.9792 0.33174 0.09627 0.0
H35 H 0.94304 0.21518 0.79545 0.0
H36 H 0.99098 0.13378 0.84477 0.0
H37 H 1.05245 0.2198 0.82438 0.0
C38 C 0.99101 0.19796 0.84343 0.0
C39 C 0.15994 0.3559 0.93744 0.0
C40 C 0.47274 0.36411 0.06233 0.0
H41 H 0.83942 0.25335 0.08084 0.0
H42 H 0.78062 0.13602 0.13753 0.0
Co43 Co 0.62513 0.79207 0.96584 0.0
N44 N 0.51162 0.77743 0.97578 0.0
C45 C 0.46083 0.79832 0.04004 0.0
N46 N 0.39125 0.71638 0.95915 0.0
C47 C 0.46537 0.73114 0.92559 0.0
C48 C 0.38713 0.75949 0.03068 0.0
Co49 Co 0.97916 0.70072 0.1108 0.0
N50 N 0.08406 0.65858 0.09609 0.0
N51 N 0.18748 0.5752 0.0627 0.0
C52 C 0.21673 0.6303 0.11682 0.0
C53 C 0.15392 0.68197 0.13535 0.0
C54 C 0.10561 0.59288 0.05338 0.0
Co55 Co 0.80812 0.76782 0.03794 0.0
C56 C 0.92272 0.66822 0.16043 0.0
H57 H 0.15902 0.73374 0.17396 0.0
O58 O 0.73044 0.8133 0.94806 0.0
O59 O 0.86479 0.72455 0.93201 0.0
O60 O 0.73687 0.66622 0.04439 0.0
O61 O 0.74432 0.81425 0.13746 0.0
O62 O 0.62781 0.77103 0.08331 0.0
O63 O 0.98082 0.70269 0.99619 0.0
O64 O 0.88216 0.73096 0.13232 0.0
O65 O 1.0132 0.80682 0.09824 0.0
O66 O 0.64109 0.68438 0.94272 0.0
O67 O 0.62137 0.89098 0.99682 0.0
O68 O 0.89456 0.85901 0.03445 0.0
O69 O 0.92844 0.60554 0.11487 0.0
C70 C 0.67778 0.63952 0.99568 0.0
C71 C 1.04544 0.54095 1.00659 0.0
H72 H 0.98797 0.56905 0.9826 0.0
H73 H 0.07488 0.51432 0.95075 0.0
H74 H 1.02612 0.49449 0.05049 0.0
C75 C 0.94176 0.70903 0.92853 0.0
C76 C 0.66807 0.79588 0.14621 0.0
H77 H 0.47901 0.83338 0.09411 0.0
H78 H 0.44405 0.71533 0.79353 0.0
H79 H 0.49149 0.63432 0.84411 0.0
H80 H 0.55331 0.71995 0.82315 0.0
C81 C 0.49166 0.69848 0.84201 0.0
C82 C 0.66084 0.85612 0.93582 0.0
C83 C 0.97296 0.86392 0.06186 0.0
H84 H 0.33857 0.75604 0.07778 0.0
H85 H 0.28132 0.63737 0.13593 0.0
Co86 Co 0.49766 0.74541 0.59551 0.0
N87 N 0.60306 0.701 0.57144 0.0
C88 C 0.64014 0.71464 0.49672 0.0
N89 N 0.68998 0.60213 0.5412 0.0
C90 C 0.64023 0.63497 0.60065 0.0
C91 C 0.68967 0.65269 0.47615 0.0
Co92 Co 0.14203 0.6722 0.49002 0.0
N93 N 1.04283 0.62801 0.51364 0.0
N94 N 0.9469 0.53791 0.49091 0.0
C95 C 0.91545 0.60803 0.46779 0.0
C96 C 0.97333 0.66308 0.48347 0.0
C97 C 1.02458 0.55201 0.51977 0.0
Co98 Co 0.30829 0.74888 0.5426 0.0
C99 C 0.1853 0.65241 0.4222 0.0
H100 H 0.96803 0.72354 0.46569 0.0
O101 O 0.40021 0.79346 0.6209 0.0
O102 O 0.24616 0.72886 0.65171 0.0
O103 O 0.36491 0.63721 0.5438 0.0
O104 O 0.37053 0.78404 0.4378 0.0
O105 O 0.47276 0.71059 0.48011 0.0
O106 O 0.17505 0.63737 0.59858 0.0
O107 O 0.22732 0.71127 0.45591 0.0
O108 O 0.1061 0.77414 0.53217 0.0
O109 O 0.46278 0.651 0.64175 0.0
O110 O 0.51807 0.83437 0.54869 0.0
O111 O 0.22706 0.84391 0.5438 0.0
O112 O 0.19238 0.5825 0.45114 0.0
C113 C 0.42058 0.60678 0.5945 0.0
C114 C 0.08406 0.48946 0.54896 0.0
H115 H 0.14625 0.50892 0.56922 0.0
H116 H 1.05688 0.46244 0.60507 0.0
H117 H 0.09202 0.4462 0.49717 0.0
C118 C 0.18954 0.67992 0.66073 0.0
C119 C 0.43978 0.75061 0.422 0.0
H120 H 0.62595 0.76335 0.45589 0.0
H121 H 0.69134 0.63725 0.72616 0.0
H122 H 0.64472 0.54631 0.69812 0.0
H123 H 0.58159 0.62976 0.72365 0.0
C124 C 0.63834 0.61005 0.69178 0.0
C125 C 0.48098 0.8141 0.61824 0.0
C126 C 0.14464 0.83889 0.54421 0.0
H127 H 0.7214 0.64496 0.41636 0.0
H128 H 0.85418 0.61915 0.44192 0.0
Co129 Co 0.64185 0.17214 0.49043 0.0
N130 N 0.54243 0.12809 0.51356 0.0
C131 C 0.47306 0.16327 0.4832 0.0
N132 N 0.44637 0.03815 0.4905 0.0
C133 C 0.52401 0.05213 0.51958 0.0
C134 C 0.41514 0.10831 0.46728 0.0
Co135 Co 0.99747 0.24579 0.5968 0.0
N136 N 0.10316 0.20197 0.57272 0.0
N137 N 0.18999 0.10319 0.54189 0.0
C138 C 0.18966 0.15402 0.47711 0.0
C139 C 0.14016 0.2159 0.49802 0.0
C140 C 0.14035 0.13582 0.60157 0.0
Co141 Co 0.80813 0.24875 0.54358 0.0
C142 C 0.98035 0.31448 0.61964 0.0
H143 H 0.12578 0.26467 0.45733 0.0
O144 O 0.72739 0.21108 0.45672 0.0
O145 O 0.86506 0.13721 0.54483 0.0
O146 O 0.74586 0.22848 0.6525 0.0
O147 O 0.72681 0.34372 0.54463 0.0
O148 O 0.60586 0.27403 0.53244 0.0
O149 O 0.96303 0.15108 0.64276 0.0
O150 O 0.89974 0.29336 0.62217 0.0
O151 O 0.9729 0.21092 0.48143 0.0
O152 O 0.67427 0.13732 0.59916 0.0
O153 O 0.69228 0.08237 0.45176 0.0
O154 O 0.8705 0.28405 0.43892 0.0
O155 O 1.01741 0.33493 0.55016 0.0
C156 C 0.68905 0.17969 0.6614 0.0
C157 C 0.13872 0.11071 0.69264 0.0
H158 H 0.08215 0.13058 0.72475 0.0
H159 H 0.14492 0.04694 0.69881 0.0
H160 H 0.19196 0.13766 0.72688 0.0
C161 C 0.92089 0.10685 0.59542 0.0
C162 C 0.64438 0.33873 0.54469 0.0
H163 H 0.4679 0.22375 0.46547 0.0
H164 H 0.59172 -0.05346 0.49681 0.0
H165 H 0.55583 -0.03777 0.60454 0.0
H166 H 0.64538 0.00895 0.56966 0.0
C167 C 0.58336 -0.01048 0.54881 0.0
C168 C 0.68543 0.15229 0.42279 0.0
C169 C 0.93984 0.25076 0.42324 0.0
H170 H 0.35398 0.11952 0.44114 0.0
H171 H 0.22122 0.14647 0.41721 0.0
C172 C 0.73001 0.0727 0.91869 0.0
C173 C 0.73838 0.03843 0.99986 0.0
H174 H 0.77068 0.17324 0.85066 0.0
C175 C 0.82071 0.02345 0.02691 0.0
H176 H 0.67098 0.07433 0.88492 0.0
C177 C 0.87841 0.08079 1.00893 0.0
C178 C 0.85471 0.1405 0.95274 0.0
H179 H 0.83161 -0.01064 0.08365 0.0
H180 H 0.93395 0.08611 0.04831 0.0
C181 C 0.78588 0.13091 0.89919 0.0
C182 C 0.2297 0.57433 0.9174 0.0
C183 C 0.23892 0.5398 0.99836 0.0
H184 H 0.26942 0.6752 0.84931 0.0
C185 C 0.32151 0.52518 1.02476 0.0
H186 H 0.17035 0.57584 0.88421 0.0
C187 C 0.37878 0.58278 1.00642 0.0
C188 C 0.35434 0.64253 0.95057 0.0
H189 H 0.33304 0.49106 0.08136 0.0
H190 H 0.43464 0.58822 0.0453 0.0
C191 C 0.28513 0.63282 0.89761 0.0
C192 C 0.79255 0.51547 0.61258 0.0
C193 C 0.73882 0.53164 0.54326 0.0
H194 H 0.91527 0.48127 0.64779 0.0
C195 C 0.75384 0.49258 0.46589 0.0
H196 H 0.78449 0.54229 0.67395 0.0
C197 C 0.83239 0.45886 0.45229 0.0
C198 C 0.89482 0.4746 0.5127 0.0
H199 H 0.71163 0.50011 0.41223 0.0
H200 H 0.84919 0.44547 0.38744 0.0
C201 C 0.86899 0.47849 0.59735 0.0
C202 C 0.2924 0.01586 0.61255 0.0
C203 C 0.23856 0.03252 0.54346 0.0
H204 H 0.41499 -0.01902 0.64727 0.0
C205 C 0.25314 -0.00636 0.46588 0.0
H206 H 0.28464 0.04252 0.67405 0.0
C207 C 0.33147 -0.04047 0.45195 0.0
C208 C 0.39417 -0.02513 0.51219 0.0
H209 H 0.21082 0.00154 0.41238 0.0
H210 H 0.34803 -0.05383 0.38701 0.0
C211 C 0.36858 -0.02144 0.59694 0.0
C212 C 0.58657 0.52765 0.94691 0.0
C213 C 0.6351 0.56267 1.01184 0.0
H214 H 0.49528 0.44199 0.91169 0.0
C215 C 0.6305 0.52979 0.09351 0.0
H216 H 0.59089 0.54832 0.88241 0.0
C217 C 0.57678 0.46689 0.10994 0.0
C218 C 0.52417 0.43561 0.04593 0.0
H219 H 0.66682 0.55383 0.14537 0.0
H220 H 0.57553 0.44322 0.17353 0.0
C221 C 0.53149 0.46621 0.96365 0.0
C222 C 0.55242 0.44834 0.48666 0.0
C223 C 0.58735 0.40831 0.55703 0.0
H224 H 0.47116 0.54133 0.44229 0.0
C225 C 0.5536 0.42519 0.63731 0.0
H226 H 0.57308 0.43391 0.42315 0.0
C227 C 0.49263 0.4847 0.64801 0.0
C228 C 0.46185 0.52869 0.57855 0.0
H229 H 0.57554 0.39327 0.69247 0.0
H230 H 0.47271 0.49923 0.71181 0.0
C231 C 0.49162 0.5083 0.49729 0.0
C232 C 0.13084 0.02941 0.09359 0.0
C233 C 0.13549 0.06246 1.01203 0.0
H234 H 0.07579 -0.05733 0.17332 0.0
C235 C 0.08697 0.02763 0.94696 0.0
H236 H 0.16713 0.05333 0.14555 0.0
C237 C 1.03181 -0.03378 0.9635 0.0
C238 C 1.02447 0.9354 0.04567 0.0
H239 H 0.09133 0.04848 0.88253 0.0
H240 H 0.99557 -0.05781 0.91146 0.0
C241 C 0.07709 -0.03351 0.1098 0.0
C242 C 0.99146 0.00841 0.49778 0.0
C243 C 0.96229 0.02884 0.57926 0.0
H244 H 0.0724 0.93398 0.42308 0.0
C245 C 0.99362 -0.01508 0.64853 0.0
H246 H 0.97055 0.04137 0.44291 0.0
C247 C 1.05455 0.92545 0.63741 0.0
C248 C 0.08765 0.90847 0.55688 0.0
H249 H 0.97415 -0.00054 0.71246 0.0
H250 H 0.07695 0.89363 0.69245 0.0
C251 C 1.05219 -0.05155 0.48674 0.0
C252 C 0.58185 0.23363 0.33087 0.0
C253 C 0.62192 0.16199 0.35001 0.0
H254 H 0.48249 0.29258 0.26151 0.0
C255 C 0.58559 0.09401 0.31668 0.0
H256 H 0.60566 0.28709 0.35743 0.0
C257 C 0.51253 0.0967 0.26763 0.0
C258 C 0.47469 0.16781 0.24407 0.0
H259 H 0.6121 0.03717 0.33078 0.0
H260 H 0.48914 0.04232 0.24284 0.0
C261 C 0.50903 0.23649 0.27856 0.0
C262 C 0.60634 0.71527 0.25738 0.0
C263 C 0.62404 0.79014 0.22835 0.0
H264 H 0.53128 0.64412 0.33634 0.0
C265 C 0.57437 0.85269 0.25846 0.0
H266 H 0.64065 0.66549 0.23277 0.0
C267 C 0.51012 0.84045 0.31775 0.0
C268 C 0.49243 0.76496 0.34602 0.0
H269 H 0.58329 0.91058 0.23381 0.0
H270 H 0.47596 0.89006 0.34271 0.0
C271 C 0.54157 0.70281 0.3146 0.0
C272 C 0.61659 0.83337 0.69922 0.0
C273 C 0.52793 0.84054 0.69688 0.0
H274 H 0.72854 0.82861 0.77618 0.0
C275 C 0.4886 0.87279 0.76776 0.0
H276 H 0.65134 0.81712 0.64345 0.0
C277 C 0.53568 0.88933 0.84124 0.0
C278 C 0.62177 0.86761 0.84828 0.0
H279 H 0.42156 0.88278 0.7676 0.0
H280 H 0.50154 0.91062 0.89569 0.0
C281 C 0.66237 0.84311 0.77474 0.0
C282 C 0.49449 0.14258 0.79617 0.0
C283 C 0.4929 0.2073 0.85071 0.0
H284 H 0.55887 0.0815 0.69681 0.0
C285 C 0.55828 0.26101 0.84458 0.0
H286 H 0.44795 0.09793 0.80201 0.0
C287 C 0.62267 0.25133 0.78519 0.0
C288 C 0.62485 0.18665 0.7305 0.0
H289 H 0.56126 0.30958 0.88835 0.0
H290 H 0.671 0.29458 0.78245 0.0
C291 C 0.5594 0.13256 0.73684 0.0
C292 C 0.08146 0.73357 0.33041 0.0
C293 C 0.12163 0.66199 0.34955 0.0
H294 H 0.98206 0.79238 0.26099 0.0
C295 C 0.08539 0.59395 0.31625 0.0
H296 H 0.10516 0.78706 0.35698 0.0
C297 C 1.01242 0.59655 0.26706 0.0
C298 C 0.97452 0.66761 0.24344 0.0
H299 H 0.11197 0.53715 0.3304 0.0
H300 H 0.98915 0.54214 0.24219 0.0
C301 C 1.00868 0.73633 0.27804 0.0
C302 C 1.04111 0.20258 0.31563 0.0
C303 C 0.99247 0.26498 0.34725 0.0
H304 H 0.13971 0.16478 0.23348 0.0
C305 C 1.01088 0.34043 0.31934 0.0
H306 H 1.03035 0.14392 0.3372 0.0
C307 C 0.07519 0.35239 0.26005 0.0
C308 C 0.12419 0.28956 0.22957 0.0
H309 H 0.97727 0.39022 0.34462 0.0
H310 H 0.08464 0.4103 0.23568 0.0
C311 C 0.10589 0.21474 0.25835 0.0
C312 C 0.16145 0.34381 0.77632 0.0
C313 C 0.12069 0.36765 0.85002 0.0
H314 H 0.15061 0.31842 0.64488 0.0
C315 C 1.03447 0.38888 0.84314 0.0
H316 H 0.22771 0.32969 0.77767 0.0
C317 C 0.98752 0.37259 0.76949 0.0
C318 C 1.02708 0.34097 0.6984 0.0
H319 H 1.00025 0.40971 0.89776 0.0
H320 H 0.92042 0.38224 0.76935 0.0
C321 C 0.11576 0.33423 0.70073 0.0
C322 C 0.06014 0.63245 0.73641 0.0
C323 C 0.12515 0.68693 0.72968 0.0
H324 H 0.94906 0.59736 0.80192 0.0
C325 C 0.12248 0.75188 0.78398 0.0
H326 H 0.06002 0.58115 0.69674 0.0
C327 C 1.05809 0.76141 0.84341 0.0
C328 C 0.99315 0.70728 0.84995 0.0
H329 H 0.1705 0.7954 0.78098 0.0
H330 H 0.06076 0.81019 0.88691 0.0
C331 C 0.99521 0.64232 0.79575 0.0
loop_
_geom_bond_atom_site_label_1
_geom_bond_atom_site_label_2
_geom_bond_distance
_geom_bond_site_symmetry_2
_ccdc_geom_bond_type
Co0 N1 2.034 1_455 S
Co0 O15 2.262 1_554 S
Co0 O19 1.958 . S
Co0 O23 1.950 1_554 S
Co0 O24 2.057 1_554 S
N1 Co0 2.034 1_655 S
N1 C2 1.366 . S
N1 C4 1.332 1_554 S
C2 N1 1.366 . S
C2 C5 1.377 . S
C2 H34 0.931 . S
N3 C4 1.345 1_554 S
N3 C5 1.341 . S
C4 N1 1.332 1_556 S
C4 N3 1.345 1_556 S
C4 C38 1.361 . S
C5 C2 1.377 . S
C5 N3 1.341 . S
C5 H41 0.930 . S
Co6 N7 2.034 1_554 S
Co6 O20 1.950 1_554 S
Co6 O21 2.262 . S
Co6 O22 1.958 . S
Co6 O26 2.057 . S
N7 Co6 2.034 1_556 S
N7 C10 1.366 . S
N7 C11 1.332 . S
N8 C9 1.337 . S
N8 C11 1.346 . S
C9 N8 1.337 . S
C9 C10 1.377 . S
C9 H42 0.930 . S
C10 N7 1.366 . S
C10 C9 1.377 . S
C10 H14 0.931 . S
C11 N7 1.332 . S
C11 N8 1.346 . S
C11 C28 1.361 . S
Co12 O15 2.097 1_554 S
Co12 O16 2.065 1_554 S
Co12 O17 2.065 . S
Co12 O18 2.042 . S
Co12 O21 2.097 . S
Co12 O25 2.042 1_554 S
C13 O21 1.253 . S
C13 O26 1.263 . S
H14 C10 0.931 . S
O15 Co0 2.262 1_556 S
O15 Co12 2.097 1_556 S
O15 C39 1.253 . S
O16 Co12 2.065 1_556 S
O16 C32 1.221 . S
O17 Co12 2.065 . S
O17 C27 1.221 . S
O18 Co12 2.042 . S
O18 C33 1.237 . S
O19 Co0 1.958 . S
O19 C33 1.278 . S
O20 Co6 1.950 1_556 S
O20 C32 1.277 . S
O21 Co6 2.262 . S
O21 Co12 2.097 . S
O21 C13 1.253 . S
O22 Co6 1.958 . S
O22 C40 1.278 . S
O23 Co0 1.950 1_556 S
O23 C27 1.277 1_556 S
O24 Co0 2.057 1_556 S
O24 C39 1.263 . S
O25 Co12 2.042 1_556 S
O25 C40 1.237 1_556 S
O26 Co6 2.057 . S
O26 C13 1.263 . S
C27 O17 1.221 . S
C27 O23 1.277 1_554 S
C28 C11 1.361 . S
C28 H29 0.960 . S
C28 H30 0.961 . S
C28 H31 0.961 1_556 S
H29 C28 0.960 . S
H30 C28 0.961 . S
H31 C28 0.961 1_554 S
C32 O16 1.221 . S
C32 O20 1.277 . S
C33 O18 1.237 . S
C33 O19 1.278 . S
H34 C2 0.931 . S
H35 C38 0.961 . S
H36 C38 0.961 . S
H37 C38 0.960 . S
C38 C4 1.361 . S
C38 H35 0.961 . S
C38 H36 0.961 . S
C38 H37 0.960 . S
C39 O15 1.253 . S
C39 O24 1.263 . S
C40 O22 1.278 . S
C40 O25 1.237 1_554 S
H41 C5 0.930 . S
H42 C9 0.930 . S
Co43 N44 2.034 . S
Co43 O58 2.262 1_554 S
Co43 O62 1.958 . S
Co43 O66 1.950 1_554 S
Co43 O67 2.057 1_554 S
N44 Co43 2.034 . S
N44 C45 1.366 . S
N44 C47 1.332 1_554 S
C45 N44 1.366 . S
C45 C48 1.377 . S
C45 H77 0.931 . S
N46 C47 1.345 1_554 S
N46 C48 1.341 . S
C47 N44 1.332 1_556 S
C47 N46 1.345 1_556 S
C47 C81 1.361 . S
C48 C45 1.377 . S
C48 N46 1.341 . S
C48 H84 0.930 . S
Co49 N50 2.034 1_654 S
Co49 O63 1.950 1_554 S
Co49 O64 2.262 . S
Co49 O65 1.958 . S
Co49 O69 2.057 . S
N50 Co49 2.034 1_456 S
N50 C53 1.366 . S
N50 C54 1.332 . S
N51 C52 1.337 . S
N51 C54 1.346 . S
C52 N51 1.337 . S
C52 C53 1.377 . S
C52 H85 0.930 . S
C53 N50 1.366 . S
C53 C52 1.377 . S
C53 H57 0.931 . S
C54 N50 1.332 . S
C54 N51 1.346 . S
C54 C71 1.361 . S
Co55 O58 2.097 1_554 S
Co55 O59 2.065 1_554 S
Co55 O60 2.065 . S
Co55 O61 2.042 . S
Co55 O64 2.097 . S
Co55 O68 2.042 1_554 S
C56 O64 1.253 . S
C56 O69 1.263 . S
H57 C53 0.931 . S
O58 Co43 2.262 1_556 S
O58 Co55 2.097 1_556 S
O58 C82 1.253 . S
O59 Co55 2.065 1_556 S
O59 C75 1.221 . S
O60 Co55 2.065 . S
O60 C70 1.221 . S
O61 Co55 2.042 . S
O61 C76 1.237 . S
O62 Co43 1.958 . S
O62 C76 1.278 . S
O63 Co49 1.950 1_556 S
O63 C75 1.277 . S
O64 Co49 2.262 . S
O64 Co55 2.097 . S
O64 C56 1.253 . S
O65 Co49 1.958 . S
O65 C83 1.278 . S
O66 Co43 1.950 1_556 S
O66 C70 1.277 1_556 S
O67 Co43 2.057 1_556 S
O67 C82 1.263 . S
O68 Co55 2.042 1_556 S
O68 C83 1.237 1_556 S
O69 Co49 2.057 . S
O69 C56 1.263 . S
C70 O60 1.221 . S
C70 O66 1.277 1_554 S
C71 C54 1.361 . S
C71 H72 0.960 . S
C71 H73 0.961 . S
C71 H74 0.961 1_556 S
H72 C71 0.960 . S
H73 C71 0.961 . S
H74 C71 0.961 1_554 S
C75 O59 1.221 . S
C75 O63 1.277 . S
C76 O61 1.237 . S
C76 O62 1.278 . S
H77 C45 0.931 . S
H78 C81 0.961 . S
H79 C81 0.961 . S
H80 C81 0.960 . S
C81 C47 1.361 . S
C81 H78 0.961 . S
C81 H79 0.961 . S
C81 H80 0.960 . S
C82 O58 1.253 . S
C82 O67 1.263 . S
C83 O65 1.278 . S
C83 O68 1.237 1_554 S
H84 C48 0.930 . S
H85 C52 0.930 . S
Co86 N87 2.034 . S
Co86 O101 2.262 . S
Co86 O105 1.958 . S
Co86 O109 1.950 . S
Co86 O110 2.057 . S
N87 Co86 2.034 . S
N87 C88 1.366 . S
N87 C90 1.332 . S
C88 N87 1.366 . S
C88 C91 1.377 . S
C88 H120 0.931 . S
N89 C90 1.346 . S
N89 C91 1.337 . S
C90 N87 1.332 . S
C90 N89 1.346 . S
C90 C124 1.361 . S
C91 C88 1.377 . S
C91 N89 1.337 . S
C91 H127 0.930 . S
Co92 N93 2.034 1_455 S
Co92 O106 1.950 . S
Co92 O107 2.262 . S
Co92 O108 1.958 . S
Co92 O112 2.057 . S
N93 Co92 2.034 1_655 S
N93 C96 1.366 . S
N93 C97 1.332 . S
N94 C95 1.337 . S
N94 C97 1.346 . S
C95 N94 1.337 . S
C95 C96 1.377 . S
C95 H128 0.930 . S
C96 N93 1.366 . S
C96 C95 1.377 . S
C96 H100 0.931 . S
C97 N93 1.332 . S
C97 N94 1.346 . S
C97 C114 1.361 . S
Co98 O101 2.097 . S
Co98 O102 2.065 . S
Co98 O103 2.065 . S
Co98 O104 2.042 . S
Co98 O107 2.097 . S
Co98 O111 2.042 . S
C99 O107 1.253 . S
C99 O112 1.263 . S
H100 C96 0.931 . S
O101 Co86 2.262 . S
O101 Co98 2.097 . S
O101 C125 1.253 . S
O102 Co98 2.065 . S
O102 C118 1.221 . S
O103 Co98 2.065 . S
O103 C113 1.221 . S
O104 Co98 2.042 . S
O104 C119 1.237 . S
O105 Co86 1.958 . S
O105 C119 1.278 . S
O106 Co92 1.950 . S
O106 C118 1.277 . S
O107 Co92 2.262 . S
O107 Co98 2.097 . S
O107 C99 1.253 . S
O108 Co92 1.958 . S
O108 C126 1.278 . S
O109 Co86 1.950 . S
O109 C113 1.277 . S
O110 Co86 2.057 . S
O110 C125 1.263 . S
O111 Co98 2.042 . S
O111 C126 1.237 . S
O112 Co92 2.057 . S
O112 C99 1.263 . S
C113 O103 1.221 . S
C113 O109 1.277 . S
C114 C97 1.361 . S
C114 H115 0.960 . S
C114 H116 0.961 . S
C114 H117 0.961 . S
H115 C114 0.960 . S
H116 C114 0.961 . S
H117 C114 0.961 . S
C118 O102 1.221 . S
C118 O106 1.277 . S
C119 O104 1.237 . S
C119 O105 1.278 . S
H120 C88 0.931 . S
H121 C124 0.961 . S
H122 C124 0.961 . S
H123 C124 0.960 . S
C124 C90 1.361 . S
C124 H121 0.961 . S
C124 H122 0.961 . S
C124 H123 0.960 . S
C125 O101 1.253 . S
C125 O110 1.263 . S
C126 O108 1.278 . S
C126 O111 1.237 . S
H127 C91 0.930 . S
H128 C95 0.930 . S
Co129 N130 2.034 . S
Co129 O144 2.262 . S
Co129 O148 1.958 . S
Co129 O152 1.950 . S
Co129 O153 2.057 . S
N130 Co129 2.034 . S
N130 C131 1.366 . S
N130 C133 1.332 . S
C131 N130 1.366 . S
C131 C134 1.377 . S
C131 H163 0.931 . S
N132 C133 1.346 . S
N132 C134 1.337 . S
C133 N130 1.332 . S
C133 N132 1.346 . S
C133 C167 1.361 . S
C134 C131 1.377 . S
C134 N132 1.337 . S
C134 H170 0.930 . S
Co135 N136 2.034 1_655 S
Co135 O149 1.950 . S
Co135 O150 2.262 . S
Co135 O151 1.958 . S
Co135 O155 2.057 . S
N136 Co135 2.034 1_455 S
N136 C139 1.366 . S
N136 C140 1.332 . S
N137 C138 1.337 . S
N137 C140 1.346 . S
C138 N137 1.337 . S
C138 C139 1.377 . S
C138 H171 0.930 . S
C139 N136 1.366 . S
C139 C138 1.377 . S
C139 H143 0.931 . S
C140 N136 1.332 . S
C140 N137 1.346 . S
C140 C157 1.361 . S
Co141 O144 2.097 . S
Co141 O145 2.065 . S
Co141 O146 2.065 . S
Co141 O147 2.042 . S
Co141 O150 2.097 . S
Co141 O154 2.042 . S
C142 O150 1.253 . S
C142 O155 1.263 . S
H143 C139 0.931 . S
O144 Co129 2.262 . S
O144 Co141 2.097 . S
O144 C168 1.253 . S
O145 Co141 2.065 . S
O145 C161 1.221 . S
O146 Co141 2.065 . S
O146 C156 1.221 . S
O147 Co141 2.042 . S
O147 C162 1.237 . S
O148 Co129 1.958 . S
O148 C162 1.278 . S
O149 Co135 1.950 . S
O149 C161 1.277 . S
O150 Co135 2.262 . S
O150 Co141 2.097 . S
O150 C142 1.253 . S
O151 Co135 1.958 . S
O151 C169 1.278 . S
O152 Co129 1.950 . S
O152 C156 1.277 . S
O153 Co129 2.057 . S
O153 C168 1.263 . S
O154 Co141 2.042 . S
O154 C169 1.237 . S
O155 Co135 2.057 . S
O155 C142 1.263 . S
C156 O146 1.221 . S
C156 O152 1.277 . S
C157 C140 1.361 . S
C157 H158 0.960 . S
C157 H159 0.961 . S
C157 H160 0.961 . S
H158 C157 0.960 . S
H159 C157 0.961 . S
H160 C157 0.961 . S
C161 O145 1.221 . S
C161 O149 1.277 . S
C162 O147 1.237 . S
C162 O148 1.278 . S
H163 C131 0.931 . S
H164 C167 0.961 . S
H165 C167 0.961 . S
H166 C167 0.960 . S
C167 C133 1.361 . S
C167 H164 0.961 . S
C167 H165 0.961 . S
C167 H166 0.960 . S
C168 O144 1.253 . S
C168 O153 1.263 . S
C169 O151 1.278 . S
C169 O154 1.237 . S
H170 C134 0.930 . S
H171 C138 0.930 . S
C172 C173 1.387 1_556 S
C172 H176 0.950 . S
C172 C181 1.390 . S
C173 C172 1.387 1_554 S
C173 C175 1.387 . S
H174 C181 0.950 . S
C175 C173 1.387 . S
C175 C177 1.390 . S
C175 H179 0.950 . S
H176 C172 0.950 . S
C177 C175 1.390 . S
C177 C178 1.387 1_554 S
C177 H180 0.950 . S
C178 C177 1.387 1_556 S
C178 C181 1.387 . S
H179 C175 0.950 . S
H180 C177 0.950 . S
C181 C172 1.390 . S
C181 H174 0.950 . S
C181 C178 1.387 . S
C182 C183 1.387 1_556 S
C182 H186 0.950 . S
C182 C191 1.390 . S
C183 C182 1.387 1_554 S
C183 C185 1.387 . S
H184 C191 0.950 . S
C185 C183 1.387 . S
C185 C187 1.390 . S
C185 H189 0.950 . S
H186 C182 0.950 . S
C187 C185 1.390 . S
C187 C188 1.387 1_554 S
C187 H190 0.950 . S
C188 C187 1.387 1_556 S
C188 C191 1.387 . S
H189 C185 0.950 . S
H190 C187 0.950 . S
C191 C182 1.390 . S
C191 H184 0.950 . S
C191 C188 1.387 . S
C192 C193 1.387 . S
C192 H196 0.950 . S
C192 C201 1.390 . S
C193 C192 1.387 . S
C193 C195 1.387 . S
H194 C201 0.950 . S
C195 C193 1.387 . S
C195 C197 1.390 . S
C195 H199 0.950 . S
H196 C192 0.950 . S
C197 C195 1.390 . S
C197 C198 1.387 . S
C197 H200 0.950 . S
C198 C197 1.387 . S
C198 C201 1.387 . S
H199 C195 0.950 . S
H200 C197 0.950 . S
C201 C192 1.390 . S
C201 H194 0.950 . S
C201 C198 1.387 . S
C202 C203 1.387 . S
C202 H206 0.950 . S
C202 C211 1.390 . S
C203 C202 1.387 . S
C203 C205 1.387 . S
H204 C211 0.950 . S
C205 C203 1.387 . S
C205 C207 1.390 . S
C205 H209 0.950 . S
H206 C202 0.950 . S
C207 C205 1.390 . S
C207 C208 1.387 . S
C207 H210 0.950 . S
C208 C207 1.387 . S
C208 C211 1.387 . S
H209 C205 0.950 . S
H210 C207 0.950 . S
C211 C202 1.390 . S
C211 H204 0.950 . S
C211 C208 1.387 . S
C212 C213 1.386 1_556 S
C212 H216 0.950 . S
C212 C221 1.390 . S
C213 C212 1.386 1_554 S
C213 C215 1.389 . S
H214 C221 0.950 . S
C215 C213 1.389 . S
C215 C217 1.390 . S
C215 H219 0.950 . S
H216 C212 0.950 . S
C217 C215 1.390 . S
C217 C218 1.387 . S
C217 H220 0.950 . S
C218 C217 1.387 . S
C218 C221 1.387 1_554 S
H219 C215 0.950 . S
H220 C217 0.950 . S
C221 C212 1.390 . S
C221 H214 0.950 . S
C221 C218 1.387 1_556 S
C222 C223 1.387 . S
C222 H226 0.950 . S
C222 C231 1.390 . S
C223 C222 1.387 . S
C223 C225 1.387 . S
H224 C231 0.950 . S
C225 C223 1.387 . S
C225 C227 1.390 . S
C225 H229 0.950 . S
H226 C222 0.950 . S
C227 C225 1.390 . S
C227 C228 1.387 . S
C227 H230 0.950 . S
C228 C227 1.387 . S
C228 C231 1.387 . S
H229 C225 0.950 . S
H230 C227 0.950 . S
C231 C222 1.390 . S
C231 H224 0.950 . S
C231 C228 1.387 . S
C232 C233 1.388 . S
C232 H236 0.950 . S
C232 C241 1.390 1_445 S
C233 C232 1.388 . S
C233 C235 1.387 1_554 S
H234 C241 0.950 . S
C235 C233 1.387 1_556 S
C235 C237 1.390 1_455 S
C235 H239 0.950 . S
H236 C232 0.950 . S
C237 C235 1.390 1_655 S
C237 C238 1.387 1_546 S
C237 H240 0.950 . S
C238 C237 1.387 1_564 S
C238 C241 1.387 . S
H239 C235 0.950 . S
H240 C237 0.950 . S
C241 C232 1.390 1_665 S
C241 H234 0.950 . S
C241 C238 1.387 . S
C242 C243 1.387 . S
C242 H246 0.950 . S
C242 C251 1.390 1_655 S
C243 C242 1.387 . S
C243 C245 1.387 . S
H244 C251 0.950 1_565 S
C245 C243 1.387 . S
C245 C247 1.390 1_655 S
C245 H249 0.950 . S
H246 C242 0.950 . S
C247 C245 1.390 1_455 S
C247 C248 1.387 1_545 S
C247 H250 0.950 . S
C248 C247 1.387 1_565 S
C248 C251 1.387 1_565 S
H249 C245 0.950 . S
H250 C247 0.950 . S
C251 C242 1.390 1_455 S
C251 H244 0.950 1_545 S
C251 C248 1.387 1_545 S
C252 C253 1.387 . S
C252 H256 0.950 . S
C252 C261 1.390 . S
C253 C252 1.387 . S
C253 C255 1.387 . S
H254 C261 0.950 . S
C255 C253 1.387 . S
C255 C257 1.390 . S
C255 H259 0.950 . S
H256 C252 0.950 . S
C257 C255 1.390 . S
C257 C258 1.387 . S
C257 H260 0.950 . S
C258 C257 1.387 . S
C258 C261 1.387 . S
H259 C255 0.950 . S
H260 C257 0.950 . S
C261 C252 1.390 . S
C261 H254 0.950 . S
C261 C258 1.387 . S
C262 C263 1.387 . S
C262 H266 0.950 . S
C262 C271 1.390 . S
C263 C262 1.387 . S
C263 C265 1.387 . S
H264 C271 0.950 . S
C265 C263 1.387 . S
C265 C267 1.390 . S
C265 H269 0.950 . S
H266 C262 0.950 . S
C267 C265 1.390 . S
C267 C268 1.387 . S
C267 H270 0.950 . S
C268 C267 1.387 . S
C268 C271 1.387 . S
H269 C265 0.950 . S
H270 C267 0.950 . S
C271 C262 1.390 . S
C271 H264 0.950 . S
C271 C268 1.387 . S
C272 C273 1.387 . S
C272 H276 0.950 . S
C272 C281 1.390 . S
C273 C272 1.387 . S
C273 C275 1.387 . S
H274 C281 0.950 . S
C275 C273 1.387 . S
C275 C277 1.390 . S
C275 H279 0.950 . S
H276 C272 0.950 . S
C277 C275 1.390 . S
C277 C278 1.387 . S
C277 H280 0.950 . S
C278 C277 1.387 . S
C278 C281 1.387 . S
H279 C275 0.950 . S
H280 C277 0.950 . S
C281 C272 1.390 . S
C281 H274 0.950 . S
C281 C278 1.387 . S
C282 C283 1.387 . S
C282 H286 0.950 . S
C282 C291 1.390 . S
C283 C282 1.387 . S
C283 C285 1.387 . S
H284 C291 0.950 . S
C285 C283 1.387 . S
C285 C287 1.390 . S
C285 H289 0.950 . S
H286 C282 0.950 . S
C287 C285 1.390 . S
C287 C288 1.387 . S
C287 H290 0.950 . S
C288 C287 1.387 . S
C288 C291 1.387 . S
H289 C285 0.950 . S
H290 C287 0.950 . S
C291 C282 1.390 . S
C291 H284 0.950 . S
C291 C288 1.387 . S
C292 C293 1.387 . S
C292 H296 0.950 . S
C292 C301 1.390 1_455 S
C293 C292 1.387 . S
C293 C295 1.387 . S
H294 C301 0.950 . S
C295 C293 1.387 . S
C295 C297 1.390 1_455 S
C295 H299 0.950 . S
H296 C292 0.950 . S
C297 C295 1.390 1_655 S
C297 C298 1.387 . S
C297 H300 0.950 . S
C298 C297 1.387 . S
C298 C301 1.387 . S
H299 C295 0.950 . S
H300 C297 0.950 . S
C301 C292 1.390 1_655 S
C301 H294 0.950 . S
C301 C298 1.387 . S
C302 C303 1.387 . S
C302 H306 0.950 . S
C302 C311 1.390 1_655 S
C303 C302 1.387 . S
C303 C305 1.387 . S
H304 C311 0.950 . S
C305 C303 1.387 . S
C305 C307 1.390 1_655 S
C305 H309 0.950 . S
H306 C302 0.950 . S
C307 C305 1.390 1_455 S
C307 C308 1.387 . S
C307 H310 0.950 . S
C308 C307 1.387 . S
C308 C311 1.387 . S
H309 C305 0.950 . S
H310 C307 0.950 . S
C311 C302 1.390 1_455 S
C311 H304 0.950 . S
C311 C308 1.387 . S
C312 C313 1.387 . S
C312 H316 0.950 . S
C312 C321 1.390 1_455 S
C313 C312 1.387 . S
C313 C315 1.387 . S
H314 C321 0.950 . S
C315 C313 1.387 . S
C315 C317 1.390 1_455 S
C315 H319 0.950 . S
H316 C312 0.950 . S
C317 C315 1.390 1_655 S
C317 C318 1.387 . S
C317 H320 0.950 . S
C318 C317 1.387 . S
C318 C321 1.387 . S
H319 C315 0.950 . S
H320 C317 0.950 . S
C321 C312 1.390 1_655 S
C321 H314 0.950 . S
C321 C318 1.387 . S
C322 C323 1.387 . S
C322 H326 0.950 . S
C322 C331 1.390 1_455 S
C323 C322 1.387 . S
C323 C325 1.387 . S
H324 C331 0.950 . S
C325 C323 1.387 . S
C325 C327 1.390 1_455 S
C325 H329 0.950 . S
H326 C322 0.950 . S
C327 C325 1.390 1_655 S
C327 C328 1.387 . S
C327 H330 0.950 . S
C328 C327 1.387 . S
C328 C331 1.387 . S
H329 C325 0.950 . S
H330 C327 0.950 . S
C331 C322 1.390 1_655 S
C331 H324 0.950 . S
C331 C328 1.387 . S
C173 N8 0.556 1_554 S
C178 N3 0.705 1_556 S
C183 N51 0.556 1_554 S
C188 N46 0.705 1_556 S
C193 N89 0.707 . S
C198 N94 0.555 . S
C203 N137 0.707 . S
C208 N132 0.555 . S
C213 C70 1.709 . S
C218 C40 1.705 . S
C223 C162 1.710 . S
C228 C113 1.714 . S
C233 C27 1.715 . S
C238 C83 1.710 . S
C243 C161 1.714 . S
C248 C126 1.710 . S
C253 C168 1.750 . S
C258 C13 1.750 . S
C263 C76 1.683 . S
C268 C119 1.683 . S
C273 C125 1.638 . S
C278 C82 1.638 . S
C283 C32 1.759 . S
C288 C156 1.759 . S
C293 C99 1.750 . S
C298 C56 1.750 . S
C303 C169 1.683 . S
C308 C33 1.683 . S
C313 C39 1.638 . S
C318 C142 1.638 . S
C323 C118 1.759 . S
C328 C75 1.759 . S
