# Generated by pormake.
# Topology uka, (4)-cn, num edge types: 1
# Building blocks:
#     Node 0, Type 0, BuildingBlock: CEKHIL_clean_sbu_0, # of connection points: 4
#     Node 1, Type 0, BuildingBlock: CEKHIL_clean_sbu_0, # of connection points: 4
#     Node 2, Type 0, BuildingBlock: CEKHIL_clean_sbu_0, # of connection points: 4
#     Node 3, Type 0, BuildingBlock: CEKHIL_clean_sbu_0, # of connection points: 4
#     Node 4, Type 0, BuildingBlock: CEKHIL_clean_sbu_0, # of connection points: 4
#     Node 5, Type 0, BuildingBlock: CEKHIL_clean_sbu_0, # of connection points: 4
#     Node 6, Type 0, BuildingBlock: CEKHIL_clean_sbu_0, # of connection points: 4
#     Node 7, Type 0, BuildingBlock: CEKHIL_clean_sbu_0, # of connection points: 4
#     Node 8, Type 0, BuildingBlock: CEKHIL_clean_sbu_0, # of connection points: 4
#     Node 9, Type 0, BuildingBlock: CEKHIL_clean_sbu_0, # of connection points: 4
#     Node 10, Type 0, BuildingBlock: CEKHIL_clean_sbu_0, # of connection points: 4
#     Node 11, Type 0, BuildingBlock: CEKHIL_clean_sbu_0, # of connection points: 4
#     Node 12, Type 0, BuildingBlock: CEKHIL_clean_sbu_0, # of connection points: 4
#     Node 13, Type 0, BuildingBlock: CEKHIL_clean_sbu_0, # of connection points: 4
#     Node 14, Type 0, BuildingBlock: CEKHIL_clean_sbu_0, # of connection points: 4
#     Node 15, Type 0, BuildingBlock: CEKHIL_clean_sbu_0, # of connection points: 4
#     Node 16, Type 0, BuildingBlock: CEKHIL_clean_sbu_0, # of connection points: 4
#     Node 17, Type 0, BuildingBlock: CEKHIL_clean_sbu_0, # of connection points: 4
#     Node 18, Type 0, BuildingBlock: CEKHIL_clean_sbu_0, # of connection points: 4
#     Node 19, Type 0, BuildingBlock: CEKHIL_clean_sbu_0, # of connection points: 4
#     Node 20, Type 0, BuildingBlock: CEKHIL_clean_sbu_0, # of connection points: 4
#     Node 21, Type 0, BuildingBlock: CEKHIL_clean_sbu_0, # of connection points: 4
#     Node 22, Type 0, BuildingBlock: CEKHIL_clean_sbu_0, # of connection points: 4
#     Node 23, Type 0, BuildingBlock: CEKHIL_clean_sbu_0, # of connection points: 4
#     Node 24, Type 0, BuildingBlock: CEKHIL_clean_sbu_0, # of connection points: 4
#     Node 25, Type 0, BuildingBlock: CEKHIL_clean_sbu_0, # of connection points: 4
#     Node 26, Type 0, BuildingBlock: CEKHIL_clean_sbu_0, # of connection points: 4
#     Node 27, Type 0, BuildingBlock: CEKHIL_clean_sbu_0, # of connection points: 4
#     Node 28, Type 0, BuildingBlock: CEKHIL_clean_sbu_0, # of connection points: 4
#     Node 29, Type 0, BuildingBlock: CEKHIL_clean_sbu_0, # of connection points: 4
#     Node 30, Type 0, BuildingBlock: CEKHIL_clean_sbu_0, # of connection points: 4
#     Node 31, Type 0, BuildingBlock: CEKHIL_clean_sbu_0, # of connection points: 4
#     Edge 32, Type (0, 0), BuildingBlock: TEMPAE_clean_linker_10, # of connection points: 2
#     Edge 33, Type (0, 0), BuildingBlock: TEMPAE_clean_linker_10, # of connection points: 2
#     Edge 34, Type (0, 0), BuildingBlock: TEMPAE_clean_linker_10, # of connection points: 2
#     Edge 35, Type (0, 0), BuildingBlock: TEMPAE_clean_linker_10, # of connection points: 2
#     Edge 36, Type (0, 0), BuildingBlock: TEMPAE_clean_linker_10, # of connection points: 2
#     Edge 37, Type (0, 0), BuildingBlock: TEMPAE_clean_linker_10, # of connection points: 2
#     Edge 38, Type (0, 0), BuildingBlock: TEMPAE_clean_linker_10, # of connection points: 2
#     Edge 39, Type (0, 0), BuildingBlock: TEMPAE_clean_linker_10, # of connection points: 2
#     Edge 40, Type (0, 0), BuildingBlock: TEMPAE_clean_linker_10, # of connection points: 2
#     Edge 41, Type (0, 0), BuildingBlock: TEMPAE_clean_linker_10, # of connection points: 2
#     Edge 42, Type (0, 0), BuildingBlock: TEMPAE_clean_linker_10, # of connection points: 2
#     Edge 43, Type (0, 0), BuildingBlock: TEMPAE_clean_linker_10, # of connection points: 2
#     Edge 44, Type (0, 0), BuildingBlock: TEMPAE_clean_linker_10, # of connection points: 2
#     Edge 45, Type (0, 0), BuildingBlock: TEMPAE_clean_linker_10, # of connection points: 2
#     Edge 46, Type (0, 0), BuildingBlock: TEMPAE_clean_linker_10, # of connection points: 2
#     Edge 47, Type (0, 0), BuildingBlock: TEMPAE_clean_linker_10, # of connection points: 2
#     Edge 48, Type (0, 0), BuildingBlock: TEMPAE_clean_linker_10, # of connection points: 2
#     Edge 49, Type (0, 0), BuildingBlock: TEMPAE_clean_linker_10, # of connection points: 2
#     Edge 50, Type (0, 0), BuildingBlock: TEMPAE_clean_linker_10, # of connection points: 2
#     Edge 51, Type (0, 0), BuildingBlock: TEMPAE_clean_linker_10, # of connection points: 2
#     Edge 52, Type (0, 0), BuildingBlock: TEMPAE_clean_linker_10, # of connection points: 2
#     Edge 53, Type (0, 0), BuildingBlock: TEMPAE_clean_linker_10, # of connection points: 2
#     Edge 54, Type (0, 0), BuildingBlock: TEMPAE_clean_linker_10, # of connection points: 2
#     Edge 55, Type (0, 0), BuildingBlock: TEMPAE_clean_linker_10, # of connection points: 2
#     Edge 56, Type (0, 0), BuildingBlock: TEMPAE_clean_linker_10, # of connection points: 2
#     Edge 57, Type (0, 0), BuildingBlock: TEMPAE_clean_linker_10, # of connection points: 2
#     Edge 58, Type (0, 0), BuildingBlock: TEMPAE_clean_linker_10, # of connection points: 2
#     Edge 59, Type (0, 0), BuildingBlock: TEMPAE_clean_linker_10, # of connection points: 2
#     Edge 60, Type (0, 0), BuildingBlock: TEMPAE_clean_linker_10, # of connection points: 2
#     Edge 61, Type (0, 0), BuildingBlock: TEMPAE_clean_linker_10, # of connection points: 2
#     Edge 62, Type (0, 0), BuildingBlock: TEMPAE_clean_linker_10, # of connection points: 2
#     Edge 63, Type (0, 0), BuildingBlock: TEMPAE_clean_linker_10, # of connection points: 2
#     Edge 64, Type (0, 0), BuildingBlock: TEMPAE_clean_linker_10, # of connection points: 2
#     Edge 65, Type (0, 0), BuildingBlock: TEMPAE_clean_linker_10, # of connection points: 2
#     Edge 66, Type (0, 0), BuildingBlock: TEMPAE_clean_linker_10, # of connection points: 2
#     Edge 67, Type (0, 0), BuildingBlock: TEMPAE_clean_linker_10, # of connection points: 2
#     Edge 68, Type (0, 0), BuildingBlock: TEMPAE_clean_linker_10, # of connection points: 2
#     Edge 69, Type (0, 0), BuildingBlock: TEMPAE_clean_linker_10, # of connection points: 2
#     Edge 70, Type (0, 0), BuildingBlock: TEMPAE_clean_linker_10, # of connection points: 2
#     Edge 71, Type (0, 0), BuildingBlock: TEMPAE_clean_linker_10, # of connection points: 2
#     Edge 72, Type (0, 0), BuildingBlock: TEMPAE_clean_linker_10, # of connection points: 2
#     Edge 73, Type (0, 0), BuildingBlock: TEMPAE_clean_linker_10, # of connection points: 2
#     Edge 74, Type (0, 0), BuildingBlock: TEMPAE_clean_linker_10, # of connection points: 2
#     Edge 75, Type (0, 0), BuildingBlock: TEMPAE_clean_linker_10, # of connection points: 2
#     Edge 76, Type (0, 0), BuildingBlock: TEMPAE_clean_linker_10, # of connection points: 2
#     Edge 77, Type (0, 0), BuildingBlock: TEMPAE_clean_linker_10, # of connection points: 2
#     Edge 78, Type (0, 0), BuildingBlock: TEMPAE_clean_linker_10, # of connection points: 2
#     Edge 79, Type (0, 0), BuildingBlock: TEMPAE_clean_linker_10, # of connection points: 2
#     Edge 80, Type (0, 0), BuildingBlock: TEMPAE_clean_linker_10, # of connection points: 2
#     Edge 81, Type (0, 0), BuildingBlock: TEMPAE_clean_linker_10, # of connection points: 2
#     Edge 82, Type (0, 0), BuildingBlock: TEMPAE_clean_linker_10, # of connection points: 2
#     Edge 83, Type (0, 0), BuildingBlock: TEMPAE_clean_linker_10, # of connection points: 2
#     Edge 84, Type (0, 0), BuildingBlock: TEMPAE_clean_linker_10, # of connection points: 2
#     Edge 85, Type (0, 0), BuildingBlock: TEMPAE_clean_linker_10, # of connection points: 2
#     Edge 86, Type (0, 0), BuildingBlock: TEMPAE_clean_linker_10, # of connection points: 2
#     Edge 87, Type (0, 0), BuildingBlock: TEMPAE_clean_linker_10, # of connection points: 2
#     Edge 88, Type (0, 0), BuildingBlock: TEMPAE_clean_linker_10, # of connection points: 2
#     Edge 89, Type (0, 0), BuildingBlock: TEMPAE_clean_linker_10, # of connection points: 2
#     Edge 90, Type (0, 0), BuildingBlock: TEMPAE_clean_linker_10, # of connection points: 2
#     Edge 91, Type (0, 0), BuildingBlock: TEMPAE_clean_linker_10, # of connection points: 2
#     Edge 92, Type (0, 0), BuildingBlock: TEMPAE_clean_linker_10, # of connection points: 2
#     Edge 93, Type (0, 0), BuildingBlock: TEMPAE_clean_linker_10, # of connection points: 2
#     Edge 94, Type (0, 0), BuildingBlock: TEMPAE_clean_linker_10, # of connection points: 2
#     Edge 95, Type (0, 0), BuildingBlock: TEMPAE_clean_linker_10, # of connection points: 2
# Relax obj value: 0.116
# Max RMSD: 0.170
# Mean RMSD: 0.170
data_MOF--net-uka--node1-CEKHIL_clean_sbu_0--edge1-TEMPAE_clean_linker_10
_symmetry_space_group_name_H-M    P1
_symmetry_Int_Tables_number       1
_symmetry_cell_setting            triclinic
loop_
_symmetry_equiv_pos_as_xyz
'x, y, z'
_cell_length_a     59.567135
_cell_length_b     59.560667
_cell_length_c     41.929996
_cell_angle_alpha  90.01007
_cell_angle_beta   89.980772
_cell_angle_gamma 89.994671
loop_
_atom_site_label
_atom_site_type_symbol
_atom_site_fract_x
_atom_site_fract_y
_atom_site_fract_z
_atom_type_partial_charge
Co0 Co 0.13014 0.25342 0.24972 0.0
O1 O 0.15651 0.24339 0.22703 0.0
O2 O 0.15478 0.27295 0.25923 0.0
C3 C 0.11925 0.22031 0.27032 0.0
O4 O 0.1074 0.26824 0.27877 0.0
Co5 Co 0.08186 0.23721 0.23354 0.0
O6 O 0.07374 0.25152 0.27486 0.0
C7 C 0.10391 0.27111 0.19287 0.0
C8 C 0.16686 0.25955 0.24185 0.0
C9 C 0.08716 0.26518 0.28844 0.0
O10 O 0.12026 0.27292 0.21279 0.0
O11 O 0.08839 0.25634 0.19534 0.0
O12 O 0.13578 0.2314 0.28289 0.0
O13 O 0.11223 0.22785 0.24316 0.0
Co14 Co 0.00693 0.88311 0.50898 0.0
O15 O 0.02066 0.90652 0.48422 0.0
O16 O 0.98729 0.90881 0.50752 0.0
C17 C 0.03741 0.87496 0.53858 0.0
O18 O 0.98797 0.86356 0.53808 0.0
Co19 Co 0.02432 0.83378 0.50838 0.0
O20 O 0.00483 0.83035 0.54647 0.0
C21 C 0.99439 0.85003 0.45661 0.0
C22 C 0.0033 0.91862 0.49172 0.0
C23 C 0.98946 0.8446 0.55261 0.0
O24 O 0.99209 0.86934 0.47017 0.0
O25 O 0.00768 0.83478 0.467 0.0
O26 O 0.02488 0.89206 0.54577 0.0
O27 O 0.0325 0.86498 0.51218 0.0
Co28 Co 0.36699 0.73639 0.78239 0.0
O29 O 0.34214 0.74722 0.75711 0.0
O30 O 0.34077 0.71853 0.79078 0.0
C31 C 0.37872 0.76976 0.80145 0.0
O32 O 0.38788 0.72096 0.81381 0.0
Co33 Co 0.41679 0.75009 0.77031 0.0
O34 O 0.42203 0.7369 0.81308 0.0
C35 C 0.39558 0.71456 0.73096 0.0
C36 C 0.33026 0.73194 0.77146 0.0
C37 C 0.4077 0.72359 0.82539 0.0
O38 O 0.37711 0.71557 0.74692 0.0
O39 O 0.41241 0.72748 0.73564 0.0
O40 O 0.36152 0.75971 0.81402 0.0
O41 O 0.38641 0.76078 0.77563 0.0
Co42 Co 0.50112 0.12797 0.00794 0.0
O43 O 0.48577 0.10589 0.98267 0.0
O44 O 0.5183 0.10054 0.00731 0.0
C45 C 0.47119 0.13908 0.03656 0.0
O46 O 0.52097 0.14591 0.03812 0.0
Co47 Co 0.48841 0.17862 0.00493 0.0
O48 O 0.50552 0.17995 0.04545 0.0
C49 C 0.51736 0.15894 0.95475 0.0
C50 C 0.50176 0.09225 0.99086 0.0
C51 C 0.51953 0.1647 0.05315 0.0
O52 O 0.5179 0.13997 0.96952 0.0
O53 O 0.50532 0.17555 0.96396 0.0
O54 O 0.48181 0.12077 0.04394 0.0
O55 O 0.47725 0.14841 0.01012 0.0
Co56 Co 0.12771 0.74443 0.23722 0.0
O57 O 0.15415 0.7537 0.26033 0.0
O58 O 0.15289 0.72703 0.22332 0.0
C59 C 0.11482 0.77851 0.2231 0.0
O60 O 0.10492 0.73108 0.20681 0.0
Co61 Co 0.07918 0.7568 0.25813 0.0
O62 O 0.07047 0.74515 0.21544 0.0
C63 C 0.10428 0.72171 0.29262 0.0
C64 C 0.16478 0.73933 0.24248 0.0
C65 C 0.08424 0.73363 0.19888 0.0
O66 O 0.11971 0.72161 0.27111 0.0
O67 O 0.08827 0.73603 0.29339 0.0
O68 O 0.13149 0.76939 0.20793 0.0
O69 O 0.10886 0.76834 0.24899 0.0
Co70 Co 0.50008 0.87326 0.4772 0.0
O71 O 0.48976 0.89632 0.50607 0.0
O72 O 0.51952 0.89892 0.47454 0.0
C73 C 0.46674 0.86529 0.4545 0.0
O74 O 0.51519 0.8545 0.44283 0.0
Co75 Co 0.48346 0.82375 0.4795 0.0
O76 O 0.49729 0.82161 0.43659 0.0
C77 C 0.519 0.83912 0.52419 0.0
C78 C 0.50593 0.90855 0.49454 0.0
C79 C 0.51159 0.83614 0.42745 0.0
O80 O 0.51932 0.85888 0.51154 0.0
O81 O 0.50507 0.82381 0.51593 0.0
O82 O 0.47806 0.88286 0.44572 0.0
O83 O 0.47448 0.85491 0.47919 0.0
Co84 Co 0.35852 0.25969 0.71715 0.0
O85 O 0.33309 0.24947 0.7416 0.0
O86 O 0.33328 0.27918 0.70965 0.0
C87 C 0.36845 0.22635 0.69597 0.0
O88 O 0.38065 0.27477 0.68708 0.0
Co89 Co 0.40711 0.24248 0.73035 0.0
O90 O 0.41402 0.25721 0.68904 0.0
C91 C 0.3871 0.27741 0.77173 0.0
C92 C 0.32207 0.26575 0.72817 0.0
C93 C 0.40072 0.27152 0.67665 0.0
O94 O 0.36955 0.27886 0.7539 0.0
O95 O 0.4028 0.26305 0.76758 0.0
O96 O 0.35192 0.23776 0.68399 0.0
O97 O 0.37634 0.23397 0.72255 0.0
Co98 Co 0.00805 0.11042 0.00065 0.0
O99 O 0.02139 0.0849 0.02119 0.0
O100 O 0.98881 0.08468 0.99541 0.0
C101 C 0.03888 0.12218 0.97451 0.0
O102 O 0.98992 0.1327 0.97479 0.0
Co103 Co 0.02454 0.15903 0.01502 0.0
O104 O 0.00618 0.16673 0.97696 0.0
C105 C 0.99313 0.13676 0.05929 0.0
C106 C 0.00447 0.07357 0.01012 0.0
C107 C 0.99156 0.15325 0.96567 0.0
O108 O 0.99133 0.11979 0.04042 0.0
O109 O 0.00707 0.15283 0.05492 0.0
O110 O 0.02717 0.10545 0.96375 0.0
O111 O 0.03342 0.12908 0.0027 0.0
Co112 Co 0.86386 0.75062 0.72028 0.0
O113 O 0.83888 0.76013 0.74635 0.0
O114 O 0.83879 0.73081 0.71372 0.0
C115 C 0.87268 0.78445 0.69958 0.0
O116 O 0.88517 0.73614 0.68848 0.0
Co117 Co 0.91269 0.76846 0.72909 0.0
O118 O 0.91837 0.75399 0.68725 0.0
C119 C 0.89522 0.73212 0.77104 0.0
C120 C 0.82778 0.74386 0.73301 0.0
C121 C 0.90469 0.73952 0.67619 0.0
O122 O 0.87638 0.73124 0.75589 0.0
O123 O 0.91045 0.74672 0.76516 0.0
O124 O 0.85604 0.77294 0.68808 0.0
O125 O 0.88146 0.77651 0.72533 0.0
Co126 Co 0.99865 0.12283 0.47679 0.0
O127 O 0.98895 0.09796 0.50298 0.0
O128 O 0.01952 0.09853 0.47268 0.0
C129 C 0.9656 0.13008 0.45284 0.0
O130 O 0.01361 0.14369 0.44501 0.0
Co131 Co 0.97953 0.1713 0.48176 0.0
O132 O 0.99478 0.17615 0.44025 0.0
C133 C 0.01412 0.15569 0.52778 0.0
C134 C 0.00601 0.08726 0.49094 0.0
C135 C 0.00987 0.16249 0.43094 0.0
O136 O 0.01617 0.13668 0.51328 0.0
O137 O -0.00051 0.17046 0.52 0.0
O138 O 0.97802 0.11346 0.44338 0.0
O139 O 0.97209 0.13978 0.4788 0.0
Co140 Co 0.63155 0.25074 0.24491 0.0
O141 O 0.65813 0.24211 0.26818 0.0
O142 O 0.65491 0.27208 0.23705 0.0
C143 C 0.62355 0.21728 0.22267 0.0
O144 O 0.60844 0.26447 0.21531 0.0
Co145 Co 0.58422 0.23128 0.25851 0.0
O146 O 0.5762 0.24498 0.21685 0.0
C147 C 0.60264 0.2666 0.30063 0.0
C148 C 0.66762 0.25915 0.2542 0.0
C149 C 0.58886 0.25978 0.2043 0.0
O150 O 0.61982 0.26885 0.28221 0.0
O151 O 0.58767 0.25144 0.29649 0.0
O152 O 0.63942 0.22985 0.2113 0.0
O153 O 0.6153 0.22379 0.24974 0.0
Co154 Co 0.4974 0.88842 0.98872 0.0
O155 O 0.50637 0.91469 0.01233 0.0
O156 O 0.47635 0.91224 0.98114 0.0
C157 C 0.5309 0.88023 0.96672 0.0
O158 O 0.4833 0.86528 0.95947 0.0
Co159 Co 0.51725 0.84106 0.00252 0.0
O160 O 0.5015 0.83232 0.96257 0.0
C161 C 0.48252 0.85992 0.045 0.0
C162 C 0.48941 0.92455 -0.00126 0.0
C163 C 0.48676 0.84505 0.94994 0.0
O164 O 0.47926 0.87652 0.02585 0.0
O165 O 0.49835 0.84558 0.04156 0.0
O166 O 0.51845 0.89608 0.95499 0.0
O167 O 0.52417 0.87213 0.99368 0.0
Co168 Co 0.87641 0.24646 0.77035 0.0
O169 O 0.85391 0.23039 0.74669 0.0
O170 O 0.84911 0.26385 0.76894 0.0
C171 C 0.88777 0.21745 0.80067 0.0
O172 O 0.89474 0.26736 0.79844 0.0
Co173 Co 0.92702 0.23336 0.76752 0.0
O174 O 0.92908 0.25266 0.80601 0.0
C175 C 0.90685 0.25994 0.71517 0.0
C176 C 0.84055 0.24692 0.75362 0.0
C177 C 0.91383 0.2669 0.8128 0.0
O178 O 0.88815 0.26166 0.73048 0.0
O179 O 0.92334 0.24796 0.7249 0.0
O180 O 0.86966 0.22845 0.80801 0.0
O181 O 0.89675 0.22267 0.77366 0.0
Co182 Co 0.4948 0.11371 0.5086 0.0
O183 O 0.50895 0.08866 0.48785 0.0
O184 O 0.47668 0.08709 0.51426 0.0
C185 C 0.52566 0.12664 0.53357 0.0
O186 O 0.47607 0.13542 0.53479 0.0
Co187 Co 0.50963 0.16293 0.49401 0.0
O188 O 0.49133 0.16992 0.53243 0.0
C189 C 0.47972 0.13903 0.44935 0.0
C190 C 0.49257 0.07665 0.49903 0.0
C191 C 0.47721 0.15601 0.54397 0.0
O192 O 0.47758 0.12244 0.46885 0.0
O193 O 0.49346 0.15528 0.45359 0.0
O194 O 0.51459 0.10974 0.54521 0.0
O195 O 0.51937 0.13319 0.50565 0.0
Co196 Co 0.63268 0.74672 0.24951 0.0
O197 O 0.66004 0.75594 0.22862 0.0
O198 O 0.6566 0.72703 0.26172 0.0
C199 C 0.62155 0.78039 0.26809 0.0
O200 O 0.60857 0.73277 0.27718 0.0
Co201 Co 0.58544 0.76319 0.22863 0.0
O202 O 0.57536 0.7498 0.26966 0.0
C203 C 0.60839 0.7278 0.19157 0.0
C204 C 0.66953 0.73991 0.24482 0.0
C205 C 0.58797 0.73625 0.28489 0.0
O206 O 0.62409 0.72662 0.21261 0.0
O207 O 0.59283 0.74263 0.19225 0.0
O208 O 0.63738 0.76923 0.28222 0.0
O209 O 0.61542 0.77248 0.24067 0.0
Co210 Co 0.99783 0.87036 0.01563 0.0
O211 O 0.99173 0.89452 0.98604 0.0
O212 O 0.01858 0.89429 0.02269 0.0
C213 C 0.96241 0.86428 0.03243 0.0
O214 O 0.00876 0.85069 0.0518 0.0
Co215 Co 0.97903 0.82187 0.01054 0.0
O216 O 0.98991 0.81817 0.05493 0.0
C217 C 0.01958 0.83491 0.97357 0.0
C218 C 0.00752 0.90529 0.00111 0.0
C219 C 0.00377 0.83235 0.06625 0.0
O220 O 0.01908 0.85507 0.98475 0.0
O221 O 0.00471 0.82005 0.97994 0.0
O222 O 0.97393 0.88117 0.04315 0.0
O223 O 0.9715 0.85349 0.00898 0.0
Co224 Co 0.62355 0.75271 0.76102 0.0
O225 O 0.64584 0.73758 0.73563 0.0
O226 O 0.651 0.76993 0.76077 0.0
C227 C 0.61229 0.72241 0.78902 0.0
O228 O 0.60555 0.77245 0.79129 0.0
Co229 Co 0.57278 0.73995 0.7586 0.0
O230 O 0.57156 0.75702 0.7991 0.0
C231 C 0.59178 0.77127 0.71052 0.0
C232 C 0.65939 0.75362 0.74396 0.0
C233 C 0.58675 0.77118 0.80637 0.0
O234 O 0.61158 0.76994 0.72286 0.0
O235 O 0.57492 0.75993 0.72049 0.0
O236 O 0.63053 0.733 0.7968 0.0
O237 O 0.60304 0.72881 0.76271 0.0
Co238 Co 0.49888 0.365 0.99623 0.0
O239 O 0.51447 0.38701 0.97104 0.0
O240 O 0.48262 0.39296 0.99718 0.0
C241 C 0.52872 0.35234 0.02364 0.0
O242 O 0.47913 0.34728 0.0268 0.0
Co243 Co 0.50946 0.31403 0.99052 0.0
O244 O 0.49375 0.31269 0.0322 0.0
C245 C 0.48071 0.33579 0.94215 0.0
C246 C 0.49909 0.40102 0.98034 0.0
C247 C 0.48062 0.32831 0.0414 0.0
O248 O 0.48092 0.35427 0.95815 0.0
O249 O 0.49236 0.31856 0.94993 0.0
O250 O 0.51903 0.37104 0.03157 0.0
O251 O 0.52203 0.34362 0.99703 0.0
Co252 Co 0.87057 0.25104 0.24193 0.0
O253 O 0.84727 0.26452 0.21677 0.0
O254 O 0.84379 0.23312 0.24489 0.0
C255 C 0.8817 0.28246 0.26715 0.0
O256 O 0.88991 0.23313 0.27243 0.0
Co257 Co 0.92071 0.26481 0.23421 0.0
O258 O 0.92446 0.24816 0.27497 0.0
C259 C 0.90033 0.23288 0.18878 0.0
C260 C 0.83442 0.24865 0.22767 0.0
C261 C 0.90954 0.23453 0.28502 0.0
O262 O 0.88199 0.23242 0.20505 0.0
O263 O 0.91667 0.24618 0.1948 0.0
O264 O 0.86382 0.27182 0.27631 0.0
O265 O 0.89044 0.27551 0.2407 0.0
Co266 Co 0.00103 0.61502 0.49975 0.0
O267 O 0.98832 0.58879 0.47966 0.0
O268 O 0.0195 0.58939 0.50868 0.0
C269 C 0.96953 0.62832 0.52262 0.0
O270 O 0.01871 0.63771 0.52556 0.0
Co271 Co 0.98657 0.66367 0.48221 0.0
O272 O 0.00347 0.67207 0.52133 0.0
C273 C 0.01689 0.63836 0.43945 0.0
C274 C 0.00469 0.57782 0.49301 0.0
C275 C 0.01729 0.65841 0.53406 0.0
O276 O 0.01895 0.62255 0.46021 0.0
O277 O 0.0032 0.65479 0.44262 0.0
O278 O 0.98045 0.61178 0.53547 0.0
O279 O 0.97625 0.63415 0.4945 0.0
Co280 Co 0.63591 0.24429 0.7323 0.0
O281 O 0.66108 0.25387 0.75787 0.0
O282 O 0.6612 0.22512 0.72418 0.0
C283 C 0.62591 0.27809 0.71278 0.0
O284 O 0.61438 0.22993 0.70076 0.0
Co285 Co 0.58686 0.26045 0.74444 0.0
O286 O 0.58092 0.24728 0.70185 0.0
C287 C 0.606 0.22345 0.7831 0.0
C288 C 0.67225 0.23801 0.74361 0.0
C289 C 0.59461 0.23336 0.68943 0.0
O290 O 0.62461 0.22388 0.76745 0.0
O291 O 0.58979 0.23716 0.77852 0.0
O292 O 0.64279 0.26721 0.70076 0.0
O293 O 0.61769 0.2697 0.7387 0.0
Co294 Co 0.99882 0.38927 0.99326 0.0
O295 O 0.98946 0.41575 0.01615 0.0
O296 O 0.01935 0.41334 0.98471 0.0
C297 C 0.96552 0.37985 0.97169 0.0
O298 O 0.01313 0.36609 0.96432 0.0
Co299 Co 0.98042 0.34168 0.00894 0.0
O300 O 0.99536 0.33294 0.96837 0.0
C301 C 0.01501 0.36202 0.05018 0.0
C302 C 0.00616 0.42571 0.00203 0.0
C303 C 0.00962 0.34583 0.95499 0.0
O304 O 0.01751 0.37843 0.0305 0.0
O305 O -0.00035 0.3471 0.04739 0.0
O306 O 0.97745 0.39598 0.95962 0.0
O307 O 0.97245 0.37237 -0.00107 0.0
Co308 Co 0.87114 0.74902 0.2513 0.0
O309 O 0.84948 0.73665 0.28038 0.0
O310 O 0.84432 0.76697 0.25049 0.0
C311 C 0.88047 0.7165 0.22731 0.0
O312 O 0.88834 0.76574 0.21682 0.0
Co313 Co 0.92157 0.73531 0.25195 0.0
O314 O 0.92181 0.74926 0.20907 0.0
C315 C 0.90513 0.77091 0.29555 0.0
C316 C 0.83603 0.75218 0.26997 0.0
C317 C 0.90655 0.76306 0.20077 0.0
O318 O 0.88485 0.76882 0.28535 0.0
O319 O 0.92157 0.7588 0.28605 0.0
O320 O 0.86217 0.72699 0.21962 0.0
O321 O 0.891 0.72447 0.25178 0.0
Co322 Co 0.49545 0.63022 0.49371 0.0
O323 O 0.51275 0.60813 0.51634 0.0
O324 O 0.47956 0.60197 0.49401 0.0
C325 C 0.52347 0.64361 0.46324 0.0
O326 O 0.47378 0.64821 0.46622 0.0
Co327 Co 0.50615 0.68121 0.50003 0.0
O328 O 0.48772 0.6831 0.46077 0.0
C329 C 0.48021 0.65847 0.55065 0.0
C330 C 0.49705 0.594 0.50872 0.0
C331 C 0.47417 0.66758 0.45254 0.0
O332 O 0.47969 0.6402 0.53415 0.0
O333 O 0.4913 0.67588 0.54212 0.0
O334 O 0.5135 0.62496 0.45581 0.0
O335 O 0.51827 0.65182 0.49083 0.0
Co336 Co 0.37093 0.25361 0.25054 0.0
O337 O 0.34666 0.26718 0.27368 0.0
O338 O 0.34461 0.23497 0.24719 0.0
C339 C 0.38223 0.28432 0.22374 0.0
O340 O 0.39171 0.23549 0.22211 0.0
Co341 Co 0.42026 0.2688 0.26188 0.0
O342 O 0.42581 0.25172 0.22196 0.0
C343 C 0.39917 0.23711 0.30672 0.0
C344 C 0.33448 0.25067 0.26321 0.0
C345 C 0.41175 0.23754 0.211 0.0
O346 O 0.38151 0.2362 0.28908 0.0
O347 O 0.41553 0.25056 0.3015 0.0
O348 O 0.36467 0.27315 0.21465 0.0
O349 O 0.39023 0.27862 0.25129 0.0
Co350 Co 0.50916 0.60442 0.99561 0.0
O351 O 0.50038 0.57722 0.01719 0.0
O352 O 0.52916 0.58052 0.98386 0.0
C353 C 0.4751 0.6146 0.97734 0.0
O354 O 0.52269 0.6286 0.96751 0.0
Co355 Co 0.49131 0.65151 0.01555 0.0
O356 O 0.50503 0.66154 0.97473 0.0
C357 C 0.52672 0.62941 0.05357 0.0
C358 C 0.51647 0.56766 0.00121 0.0
C359 C 0.51898 0.64916 0.95978 0.0
O360 O 0.52904 0.6139 0.03238 0.0
O361 O 0.51114 0.64422 0.0527 0.0
O362 O 0.48657 0.59906 0.96303 0.0
O363 O 0.48314 0.62113 0.00442 0.0
Co364 Co 0.12629 0.74432 0.7436 0.0
O365 O 0.14853 0.72771 0.76701 0.0
O366 O 0.15344 0.76186 0.74715 0.0
C367 C 0.11589 0.71629 0.71061 0.0
O368 O 0.10811 0.7659 0.71636 0.0
Co369 Co 0.07582 0.72999 0.74336 0.0
O370 O 0.0742 0.7508 0.70656 0.0
C371 C 0.09373 0.75788 0.79627 0.0
C372 C 0.16193 0.74446 0.76149 0.0
C373 C 0.08917 0.76569 0.70157 0.0
O374 O 0.11353 0.75838 0.78379 0.0
O375 O 0.07747 0.74638 0.7848 0.0
O376 O 0.13404 0.72769 0.70502 0.0
O377 O 0.10639 0.72029 0.73768 0.0
Co378 Co 0.99528 0.37387 0.48922 0.0
O379 O 0.00897 0.39684 0.51491 0.0
O380 O 0.97768 0.40094 0.48676 0.0
C381 C 0.02648 0.36234 0.46384 0.0
O382 O 0.9773 0.35498 0.45796 0.0
Co383 Co 0.00824 0.3234 0.49604 0.0
O384 O 0.99339 0.32095 0.45389 0.0
C385 C 0.97559 0.34355 0.5407 0.0
C386 C 0.99314 0.40993 0.50451 0.0
C387 C 0.97974 0.33587 0.44399 0.0
O388 O 0.97656 0.36258 0.5262 0.0
O389 O 0.98756 0.3265 0.53333 0.0
O390 O 0.01624 0.38055 0.45502 0.0
O391 O 0.01942 0.3536 0.49024 0.0
Co392 Co 0.36821 0.74689 0.24312 0.0
O393 O 0.345 0.73343 0.21781 0.0
O394 O 0.34189 0.76565 0.24406 0.0
C395 C 0.37801 0.71595 0.2706 0.0
O396 O 0.38773 0.76501 0.27329 0.0
Co397 Co 0.41789 0.73146 0.23666 0.0
O398 O 0.42175 0.74883 0.27674 0.0
C399 C 0.39885 0.76255 0.18916 0.0
C400 C 0.33243 0.75001 0.22711 0.0
C401 C 0.40724 0.76312 0.28618 0.0
O402 O 0.38059 0.76404 0.20545 0.0
O403 O 0.41479 0.74896 0.19602 0.0
O404 O 0.36029 0.72735 0.27842 0.0
O405 O 0.38733 0.7218 0.24397 0.0
Co406 Co 0.98971 0.62849 -0.00218 0.0
O407 O 0.00376 0.60643 0.97091 0.0
O408 O 0.97392 0.60042 0.00147 0.0
C409 C 0.02135 0.64159 0.0206 0.0
O410 O 0.97183 0.64612 0.03076 0.0
Co411 Co -0.00061 0.67967 0.99146 0.0
O412 O 0.98637 0.68081 0.03483 0.0
C413 C 0.96515 0.65823 0.95015 0.0
C414 C 0.98924 0.59239 0.9826 0.0
C415 C 0.97379 0.66513 0.04515 0.0
O416 O 0.96888 0.63878 0.9625 0.0
O417 O 0.97604 0.67597 0.9577 0.0
O418 O 0.01239 0.6229 0.03011 0.0
O419 O 0.01262 0.65017 0.99513 0.0
Co420 Co 0.11913 0.24881 0.7576 0.0
O421 O 0.13996 0.26387 0.72978 0.0
O422 O 0.14756 0.23332 0.75805 0.0
C423 C 0.1064 0.27965 0.78289 0.0
O424 O 0.10293 0.22969 0.79065 0.0
Co425 Co 0.06764 0.25801 0.75583 0.0
O426 O 0.06833 0.2437 0.79842 0.0
C427 C 0.08788 0.22538 0.71073 0.0
C428 C 0.15461 0.24914 0.73919 0.0
C429 C 0.08446 0.23089 0.80657 0.0
O430 O 0.10774 0.22891 0.72186 0.0
O431 O 0.07035 0.23581 0.72033 0.0
O432 O 0.12548 0.27072 0.79085 0.0
O433 O 0.09713 0.27138 0.75764 0.0
Co434 Co 0.5115 0.38973 0.51176 0.0
O435 O 0.50152 0.41544 0.48763 0.0
O436 O 0.53006 0.41519 0.52161 0.0
C437 C 0.47768 0.37865 0.52997 0.0
O438 O 0.52607 0.36763 0.5422 0.0
Co439 Co 0.49635 0.34086 0.4963 0.0
O440 O 0.51006 0.33361 0.53828 0.0
C441 C 0.53102 0.36297 0.45676 0.0
C442 C 0.51696 0.42655 0.50283 0.0
C443 C 0.52332 0.34736 0.552 0.0
O444 O 0.53219 0.37975 0.4761 0.0
O445 O 0.51658 0.34716 0.45919 0.0
O446 O 0.48822 0.39519 0.54344 0.0
O447 O 0.48654 0.3713 0.50386 0.0
C448 C 0.02451 0.19074 0.39184 0.0
C449 C 0.02438 0.16871 0.40368 0.0
C450 C 0.03955 0.19713 0.36776 0.0
C451 C 0.05465 0.18105 0.3551 0.0
C452 C 0.05387 0.15858 0.36587 0.0
C453 C 0.0388 0.15269 0.39011 0.0
C454 C 0.03993 0.22131 0.35684 0.0
C455 C 0.06954 0.14094 0.35266 0.0
C456 C 0.08459 0.19743 0.27872 0.0
C457 C 0.10467 0.20633 0.29074 0.0
C458 C 0.06837 0.18835 0.29929 0.0
C459 C 0.07244 0.18819 0.33253 0.0
C460 C 0.09325 0.19588 0.34456 0.0
C461 C 0.10918 0.20473 0.32348 0.0
C462 C 0.04646 0.18 0.28563 0.0
C463 C 0.09823 0.19592 0.37989 0.0
H464 H 0.01335 0.20319 0.40205 0.0
H465 H 0.0386 0.13555 0.39878 0.0
H466 H 0.05607 0.22919 0.36385 0.0
H467 H 0.03878 0.22222 0.33047 0.0
H468 H 0.02599 0.2313 0.36727 0.0
H469 H 0.06535 0.12383 0.36137 0.0
H470 H 0.06896 0.14092 0.32621 0.0
H471 H 0.08705 0.14487 0.35974 0.0
H472 H 0.08108 0.19848 0.2534 0.0
H473 H 0.12469 0.2115 0.33295 0.0
H474 H 0.03267 0.19145 0.29287 0.0
H475 H 0.0424 0.16311 0.29518 0.0
H476 H 0.04684 0.17912 0.25917 0.0
H477 H 0.08656 0.20757 0.39223 0.0
H478 H 0.11572 0.20122 0.38516 0.0
H479 H 0.09551 0.17895 0.39008 0.0
C480 C 0.0643 0.84499 0.55382 0.0
C481 C 0.05125 0.86353 0.56273 0.0
C482 C 0.07355 0.83074 0.57687 0.0
C483 C 0.06956 0.83519 0.60952 0.0
C484 C 0.05799 0.85492 0.61868 0.0
C485 C 0.04899 0.86896 0.59508 0.0
C486 C 0.08601 0.80997 0.56618 0.0
C487 C 0.05349 0.86025 0.6533 0.0
C488 C 0.06355 0.7841 0.66233 0.0
C489 C 0.0843 0.78364 0.67815 0.0
C490 C 0.05854 0.80095 0.64021 0.0
C491 C 0.07472 0.81772 0.63357 0.0
C492 C 0.0957 0.81741 0.64934 0.0
C493 C 0.10025 0.80037 0.67151 0.0
C494 C 0.03592 0.80073 0.6238 0.0
C495 C 0.11334 0.83499 0.64262 0.0
H496 H 0.06628 0.8409 0.52878 0.0
H497 H 0.03896 0.88333 0.60206 0.0
H498 H 0.10161 0.80769 0.58024 0.0
H499 H 0.07533 0.79497 0.57027 0.0
H500 H 0.09044 0.81063 0.54046 0.0
H501 H 0.04735 0.87771 0.6566 0.0
H502 H 0.04056 0.84855 0.66264 0.0
H503 H 0.06888 0.85789 0.66781 0.0
H504 H 0.05112 0.77126 0.6672 0.0
H505 H 0.11634 0.80014 0.68355 0.0
H506 H 0.03822 0.79917 0.59763 0.0
H507 H 0.02699 0.81677 0.62825 0.0
H508 H 0.0251 0.78669 0.63205 0.0
H509 H 0.11814 0.83446 0.61707 0.0
H510 H 0.12867 0.83259 0.6573 0.0
H511 H 0.10647 0.85198 0.6474 0.0
C512 C 0.47325 0.81318 0.91593 0.0
C513 C 0.4721 0.83592 0.9245 0.0
C514 C 0.45806 0.80398 0.89395 0.0
C515 C 0.44141 0.8179 0.88014 0.0
C516 C 0.44074 0.84102 0.88766 0.0
C517 C 0.45607 0.84975 0.90978 0.0
C518 C 0.45933 0.77921 0.88637 0.0
C519 C 0.42339 0.85641 0.8731 0.0
C520 C 0.41215 0.79465 0.80696 0.0
C521 C 0.39279 0.78519 0.82043 0.0
C522 C 0.42782 0.80606 0.82593 0.0
C523 C 0.42401 0.80796 0.85912 0.0
C524 C 0.40395 0.79941 0.87258 0.0
C525 C 0.38851 0.78821 0.85301 0.0
C526 C 0.4489 0.81521 0.81071 0.0
C527 C 0.3993 0.80114 0.90791 0.0
H528 H 0.48564 0.80237 0.92699 0.0
H529 H 0.45514 0.8674 0.91597 0.0
H530 H 0.44383 0.77071 0.89474 0.0
H531 H 0.46039 0.77662 0.86021 0.0
H532 H 0.47403 0.77097 0.89775 0.0
H533 H 0.42617 0.87427 0.87963 0.0
H534 H 0.42361 0.85492 0.84673 0.0
H535 H 0.40639 0.8514 0.88127 0.0
H536 H 0.41548 0.79244 0.78173 0.0
H537 H 0.3736 0.7809 0.86358 0.0
H538 H 0.46367 0.80563 0.81936 0.0
H539 H 0.45146 0.833 0.81763 0.0
H540 H 0.4484 0.8141 0.78427 0.0
H541 H 0.412 0.79129 0.92129 0.0
H542 H 0.38235 0.7948 0.91429 0.0
H543 H 0.40072 0.81884 0.9159 0.0
C544 C 0.40361 0.20758 0.17078 0.0
C545 C 0.41883 0.22279 0.18443 0.0
C546 C 0.41015 0.19343 0.14573 0.0
C547 C 0.43243 0.19449 0.13418 0.0
C548 C 0.44781 0.20995 0.14755 0.0
C549 C 0.44081 0.22395 0.17248 0.0
C550 C 0.39328 0.17725 0.13178 0.0
C551 C 0.47176 0.21153 0.13577 0.0
C552 C 0.45828 0.14443 0.09252 0.0
C553 C 0.45827 0.1516 0.06069 0.0
C554 C 0.4493 0.15799 0.11665 0.0
C555 C 0.4399 0.17906 0.1086 0.0
C556 C 0.43878 0.18586 0.07632 0.0
C557 C 0.44804 0.17203 0.05269 0.0
C558 C 0.45089 0.15027 0.15089 0.0
C559 C 0.42868 0.20816 0.0669 0.0
H560 H 0.38655 0.20665 0.17968 0.0
H561 H 0.45267 0.23571 0.18273 0.0
H562 H 0.39173 0.18002 0.10571 0.0
H563 H 0.39914 0.15974 0.13527 0.0
H564 H 0.37641 0.17902 0.1428 0.0
H565 H 0.48149 0.22475 0.14837 0.0
H566 H 0.48038 0.19519 0.13916 0.0
H567 H 0.47199 0.21528 0.10986 0.0
H568 H 0.46622 0.12867 0.09884 0.0
H569 H 0.44794 0.17757 0.02806 0.0
H570 H 0.4342 0.15115 0.16254 0.0
H571 H 0.4623 0.16159 0.16428 0.0
H572 H 0.45734 0.13283 0.15291 0.0
H573 H 0.41164 0.20996 0.07729 0.0
H574 H 0.42751 0.21014 0.04061 0.0
H575 H 0.4391 0.22203 0.07654 0.0
C576 C 0.07815 0.79872 0.21938 0.0
C577 C 0.09896 0.79315 0.20581 0.0
C578 C 0.06075 0.80745 0.20055 0.0
C579 C 0.06444 0.81083 0.16758 0.0
C580 C 0.086 0.80708 0.15441 0.0
C581 C 0.10304 0.79837 0.17375 0.0
C582 C 0.03806 0.81156 0.21548 0.0
C583 C 0.09068 0.81077 0.11938 0.0
C584 C 0.01879 0.8047 0.10563 0.0
C585 C 0.01609 0.82702 0.09581 0.0
C586 C 0.03351 0.79927 0.13055 0.0
C587 C 0.04558 0.81663 0.14605 0.0
C588 C 0.04154 0.83929 0.13791 0.0
C589 C 0.0269 0.84422 0.11275 0.0
C590 C 0.03729 0.77487 0.13873 0.0
C591 C 0.05378 0.85826 0.15431 0.0
H592 H 0.075 0.79504 0.24429 0.0
H593 H 0.11916 0.79436 0.16317 0.0
H594 H 0.03092 0.82777 0.20727 0.0
H595 H 0.02631 0.7981 0.20802 0.0
H596 H 0.03892 0.81167 0.24195 0.0
H597 H 0.10873 0.80865 0.11344 0.0
H598 H 0.08083 0.7986 0.10503 0.0
H599 H 0.08537 0.82787 0.11211 0.0
H600 H 0.01039 0.79135 0.09272 0.0
H601 H 0.02454 0.86156 0.10562 0.0
H602 H 0.03635 0.77231 0.16489 0.0
H603 H 0.05436 0.76976 0.13094 0.0
H604 H 0.02487 0.76366 0.12703 0.0
H605 H 0.05374 0.85584 0.18055 0.0
H606 H 0.04621 0.87486 0.14877 0.0
H607 H 0.07155 0.85845 0.14639 0.0
C608 C 0.3976 0.79396 0.32445 0.0
C609 C 0.4133 0.77847 0.31259 0.0
C610 C 0.40336 0.80904 0.3488 0.0
C611 C 0.42536 0.80869 0.36143 0.0
C612 C 0.44118 0.79287 0.35002 0.0
C613 C 0.43493 0.7779 0.32583 0.0
C614 C 0.38601 0.82552 0.36072 0.0
C615 C 0.46486 0.79201 0.36297 0.0
C616 C 0.45161 0.85986 0.39966 0.0
C617 C 0.45189 0.85353 0.43185 0.0
C618 C 0.44199 0.84587 0.37653 0.0
C619 C 0.43221 0.82525 0.38597 0.0
C620 C 0.43089 0.81963 0.4187 0.0
C621 C 0.44081 0.83386 0.44129 0.0
C622 C 0.44377 0.85238 0.34182 0.0
C623 C 0.42033 0.79792 0.42967 0.0
H624 H 0.38079 0.79444 0.31458 0.0
H625 H 0.44716 0.76593 0.31703 0.0
H626 H 0.38413 0.82399 0.38696 0.0
H627 H 0.39162 0.84292 0.35569 0.0
H628 H 0.36934 0.82291 0.34944 0.0
H629 H 0.47501 0.77844 0.35188 0.0
H630 H 0.47341 0.80829 0.35865 0.0
H631 H 0.46453 0.7893 0.38913 0.0
H632 H 0.46017 0.87503 0.3922 0.0
H633 H 0.44088 0.82899 0.46621 0.0
H634 H 0.42728 0.85058 0.3298 0.0
H635 H 0.45572 0.84096 0.32959 0.0
H636 H 0.44974 0.86992 0.3387 0.0
H637 H 0.40373 0.79549 0.41821 0.0
H638 H 0.41815 0.79738 0.45597 0.0
H639 H 0.43113 0.7836 0.42246 0.0
C640 C 0.40106 0.20063 0.6883 0.0
C641 C 0.38173 0.21087 0.67595 0.0
C642 C 0.41621 0.18946 0.66821 0.0
C643 C 0.41186 0.18854 0.63506 0.0
C644 C 0.39167 0.19759 0.62278 0.0
C645 C 0.37678 0.2086 0.64343 0.0
C646 C 0.43747 0.17979 0.6822 0.0
C647 C 0.38644 0.1969 0.58756 0.0
C648 C 0.46125 0.1866 0.57815 0.0
C649 C 0.46105 0.16407 0.56832 0.0
C650 C 0.4455 0.19467 0.6002 0.0
C651 C 0.42922 0.17983 0.61287 0.0
C652 C 0.42918 0.15699 0.60365 0.0
C653 C 0.44508 0.14938 0.58144 0.0
C654 C 0.44606 0.21919 0.60952 0.0
C655 C 0.41215 0.14069 0.61688 0.0
H656 H 0.40487 0.20219 0.71348 0.0
H657 H 0.36184 0.21642 0.63374 0.0
H658 H 0.44017 0.1624 0.67355 0.0
H659 H 0.45207 0.18995 0.67432 0.0
H660 H 0.43714 0.17963 0.7087 0.0
H661 H 0.36915 0.20282 0.58226 0.0
H662 H 0.3985 0.20771 0.57448 0.0
H663 H 0.38836 0.17958 0.57821 0.0
H664 H 0.47356 0.19808 0.56834 0.0
H665 H 0.44482 0.13192 0.57417 0.0
H666 H 0.44768 0.22085 0.63578 0.0
H667 H 0.43008 0.22742 0.60258 0.0
H668 H 0.46016 0.22838 0.5981 0.0
H669 H 0.41274 0.14076 0.64333 0.0
H670 H 0.41499 0.12327 0.60834 0.0
H671 H 0.39499 0.14597 0.60981 0.0
C672 C 0.06042 0.21538 0.85016 0.0
C673 C 0.08125 0.21604 0.83452 0.0
C674 C 0.05645 0.20025 0.87507 0.0
C675 C 0.07383 0.18556 0.88482 0.0
C676 C 0.09521 0.18685 0.87026 0.0
C677 C 0.09865 0.20202 0.84513 0.0
C678 C 0.03335 0.19934 0.89 0.0
C679 C 0.11419 0.17167 0.88046 0.0
C680 C 0.06193 0.1563 0.96318 0.0
C681 C 0.05197 0.13635 0.95246 0.0
C682 C 0.07047 0.17204 0.94143 0.0
C683 C 0.06883 0.16767 0.90834 0.0
C684 C 0.06019 0.14689 0.89755 0.0
C685 C 0.052 0.13141 0.91978 0.0
C686 C 0.07991 0.19389 0.9538 0.0
C687 C 0.05808 0.14165 0.86242 0.0
H688 H 0.04691 0.22628 0.84241 0.0
H689 H 0.11489 0.2026 0.83348 0.0
H690 H 0.02544 0.18287 0.8848 0.0
H691 H 0.0346 0.20089 0.9163 0.0
H692 H 0.02213 0.21282 0.881 0.0
H693 H 0.1304 0.17645 0.86924 0.0
H694 H 0.11618 0.17209 0.90676 0.0
H695 H 0.11027 0.15409 0.87371 0.0
H696 H 0.06213 0.1601 0.98846 0.0
H697 H 0.04445 0.11595 0.91134 0.0
H698 H 0.0678 0.20764 0.94903 0.0
H699 H 0.09577 0.19815 0.94131 0.0
H700 H 0.08316 0.19327 0.97987 0.0
H701 H 0.04543 0.15297 0.85151 0.0
H702 H 0.05285 0.12401 0.85806 0.0
H703 H 0.07426 0.14465 0.85005 0.0
C704 C 0.9714 0.81718 0.5899 0.0
C705 C 0.97194 0.83868 0.57625 0.0
C706 C 0.95408 0.8109 0.61071 0.0
C707 C 0.937 0.82657 0.61827 0.0
C708 C 0.93776 0.84848 0.60535 0.0
C709 C 0.95519 0.85426 0.58441 0.0
C710 C 0.95381 0.78733 0.62407 0.0
C711 C 0.91995 0.86566 0.6132 0.0
C712 C 0.88292 0.79954 0.64606 0.0
C713 C 0.88591 0.79969 0.6792 0.0
C714 C 0.89891 0.80935 0.62585 0.0
C715 C 0.91814 0.81969 0.63922 0.0
C716 C 0.92026 0.82148 0.67271 0.0
C717 C 0.90409 0.81143 0.69234 0.0
C718 C 0.89606 0.80715 0.5902 0.0
C719 C 0.9404 0.83259 0.68786 0.0
H720 H 0.98428 0.80504 0.58389 0.0
H721 H 0.95552 0.87097 0.57419 0.0
H722 H 0.95355 0.78787 0.65051 0.0
H723 H 0.93835 0.77851 0.61627 0.0
H724 H 0.96859 0.77732 0.61633 0.0
H725 H 0.92354 0.88229 0.60234 0.0
H726 H 0.90339 0.85975 0.6045 0.0
H727 H 0.91856 0.86775 0.63942 0.0
H728 H 0.86892 0.79045 0.63577 0.0
H729 H 0.90637 0.81169 0.71799 0.0
H730 H 0.90871 0.79518 0.58077 0.0
H731 H 0.89896 0.82353 0.57831 0.0
H732 H 0.87909 0.80097 0.58363 0.0
H733 H 0.95544 0.8219 0.68423 0.0
H734 H 0.93807 0.83522 0.71388 0.0
H735 H 0.94384 0.84905 0.67646 0.0
C736 C 0.93981 0.16164 0.4397 0.0
C737 C 0.95122 0.14221 0.42998 0.0
C738 C 0.93059 0.1764 0.41721 0.0
C739 C 0.93283 0.17151 0.38436 0.0
C740 C 0.94283 0.15109 0.37454 0.0
C741 C 0.95183 0.1366 0.39753 0.0
C742 C 0.91981 0.19792 0.42856 0.0
C743 C 0.94543 0.14527 0.33967 0.0
C744 C 0.89928 0.20356 0.32259 0.0
C745 C 0.91517 0.21917 0.31159 0.0
C746 C 0.90463 0.18822 0.34676 0.0
C747 C 0.92638 0.18847 0.36018 0.0
C748 C 0.94236 0.20448 0.34978 0.0
C749 C 0.93654 0.21968 0.32564 0.0
C750 C 0.88715 0.17148 0.3575 0.0
C751 C 0.96577 0.20526 0.36366 0.0
H752 H 0.93915 0.16595 0.4648 0.0
H753 H 0.96058 0.12158 0.38986 0.0
H754 H 0.93079 0.21234 0.42242 0.0
H755 H 0.90348 0.20061 0.41643 0.0
H756 H 0.91702 0.19795 0.45476 0.0
H757 H 0.95156 0.12783 0.33612 0.0
H758 H 0.9292 0.14723 0.327 0.0
H759 H 0.95758 0.15699 0.32845 0.0
H760 H 0.88267 0.20309 0.31207 0.0
H761 H 0.94888 0.23177 0.31751 0.0
H762 H 0.88485 0.17249 0.38372 0.0
H763 H 0.89289 0.15419 0.35195 0.0
H764 H 0.87065 0.17426 0.34581 0.0
H765 H 0.96494 0.20724 0.38994 0.0
H766 H 0.97595 0.21923 0.35369 0.0
H767 H 0.97458 0.1892 0.35876 0.0
C768 C 0.53569 0.19042 0.09428 0.0
C769 C 0.5349 0.16905 0.08022 0.0
C770 C 0.55051 0.19508 0.11933 0.0
C771 C 0.56476 0.17789 0.1309 0.0
C772 C 0.56363 0.15611 0.11754 0.0
C773 C 0.54878 0.15196 0.09221 0.0
C774 C 0.55134 0.21861 0.13279 0.0
C775 C 0.57839 0.13733 0.12957 0.0
C776 C 0.61737 0.20093 0.16883 0.0
C777 C 0.61094 0.20235 0.20096 0.0
C778 C 0.60298 0.19169 0.14595 0.0
C779 C 0.5818 0.18335 0.15553 0.0
C780 C 0.57608 0.18281 0.18831 0.0
C781 C 0.59076 0.19238 0.21072 0.0
C782 C 0.6097 0.19264 0.11123 0.0
C783 C 0.55379 0.17367 0.19945 0.0
H784 H 0.52497 0.20373 0.08536 0.0
H785 H 0.54811 0.13534 0.08177 0.0
H786 H 0.54867 0.21822 0.15897 0.0
H787 H 0.56817 0.22603 0.12851 0.0
H788 H 0.53851 0.22981 0.12198 0.0
H789 H 0.5742 0.12095 0.1184 0.0
H790 H 0.59623 0.14124 0.12441 0.0
H791 H 0.57675 0.13571 0.15583 0.0
H792 H 0.63306 0.20838 0.16112 0.0
H793 H 0.58582 0.19319 0.23557 0.0
H794 H 0.59926 0.20533 0.09875 0.0
H795 H 0.60669 0.17624 0.09946 0.0
H796 H 0.62764 0.19724 0.1081 0.0
H797 H 0.54027 0.18566 0.19304 0.0
H798 H 0.55343 0.17109 0.22568 0.0
H799 H 0.54998 0.1575 0.18748 0.0
C800 C 0.54749 0.87267 0.91332 0.0
C801 C 0.54623 0.86745 0.94587 0.0
C802 C 0.55738 0.85774 0.89168 0.0
C803 C 0.56644 0.83728 0.90299 0.0
C804 C 0.56709 0.8329 0.93615 0.0
C805 C 0.55693 0.84808 0.95726 0.0
C806 C 0.55637 0.86302 0.85648 0.0
C807 C 0.57693 0.81141 0.94912 0.0
C808 C 0.56068 0.78827 0.84625 0.0
C809 C 0.58211 0.78734 0.83239 0.0
C810 C 0.55557 0.80416 0.86976 0.0
C811 C 0.57237 0.81938 0.87991 0.0
C812 C 0.59422 0.81811 0.86684 0.0
C813 C 0.59882 0.80215 0.84309 0.0
C814 C 0.53199 0.80504 0.8831 0.0
C815 C 0.61257 0.83391 0.87746 0.0
H816 H 0.53942 0.88772 0.90437 0.0
H817 H 0.55626 0.84411 0.98247 0.0
H818 H 0.57288 0.85996 0.84503 0.0
H819 H 0.54398 0.85178 0.84482 0.0
H820 H 0.55133 0.88069 0.85191 0.0
H821 H 0.57952 0.81223 0.97533 0.0
H822 H 0.56537 0.79727 0.94391 0.0
H823 H 0.59321 0.80759 0.93746 0.0
H824 H 0.54766 0.77686 0.8383 0.0
H825 H 0.61548 0.80143 0.83274 0.0
H826 H 0.52422 0.82152 0.87753 0.0
H827 H 0.53239 0.80339 0.90945 0.0
H828 H 0.52106 0.79158 0.87331 0.0
H829 H 0.60821 0.85135 0.87057 0.0
H830 H 0.62909 0.82961 0.86677 0.0
H831 H 0.61418 0.83359 0.90382 0.0
C832 C 0.91995 0.19305 0.81554 0.0
C833 C 0.90054 0.20469 0.82467 0.0
C834 C 0.93421 0.18353 0.83838 0.0
C835 C 0.92892 0.18582 0.87111 0.0
C836 C 0.90888 0.19679 0.88044 0.0
C837 C 0.89485 0.20605 0.85704 0.0
C838 C 0.95535 0.17177 0.82755 0.0
C839 C 0.90277 0.19958 0.91517 0.0
C840 C 0.95833 0.14766 0.93007 0.0
C841 C 0.97557 0.16162 0.94142 0.0
C842 C 0.94295 0.15535 0.90729 0.0
C843 C 0.94485 0.17753 0.89556 0.0
C844 C 0.96218 0.19172 0.90681 0.0
C845 C 0.97735 0.18359 0.92961 0.0
C846 C 0.92472 0.13974 0.89566 0.0
C847 C 0.96475 0.21548 0.8947 0.0
H848 H 0.92436 0.1919 0.7905 0.0
H849 H 0.87991 0.21515 0.8642 0.0
H850 H 0.97028 0.18118 0.836 0.0
H851 H 0.95625 0.1547 0.83808 0.0
H852 H 0.95631 0.17026 0.80118 0.0
H853 H 0.88593 0.20729 0.91837 0.0
H854 H 0.90298 0.18308 0.92743 0.0
H855 H 0.9154 0.21038 0.92711 0.0
H856 H 0.95678 0.13066 0.93902 0.0
H857 H 0.99062 0.1945 0.93812 0.0
H858 H 0.9262 0.13737 0.8695 0.0
H859 H 0.90799 0.14723 0.90032 0.0
H860 H 0.92548 0.12302 0.90735 0.0
H861 H 0.96774 0.21532 0.86858 0.0
H862 H 0.97887 0.22449 0.90636 0.0
H863 H 0.94905 0.22506 0.89891 0.0
C864 C 0.56488 0.22139 0.65084 0.0
C865 C 0.5869 0.21937 0.66237 0.0
C866 C 0.55661 0.2066 0.62766 0.0
C867 C 0.57075 0.18947 0.61563 0.0
C868 C 0.59331 0.18806 0.6259 0.0
C869 C 0.60112 0.20302 0.64919 0.0
C870 C 0.53244 0.20869 0.6171 0.0
C871 C 0.60894 0.17019 0.61323 0.0
C872 C 0.5409 0.13716 0.58684 0.0
C873 C 0.53985 0.14099 0.55392 0.0
C874 C 0.55149 0.15256 0.60712 0.0
C875 C 0.56141 0.17211 0.59405 0.0
C876 C 0.56137 0.1755 0.56067 0.0
C877 C 0.55053 0.15989 0.54097 0.0
C878 C 0.5512 0.1484 0.64266 0.0
C879 C 0.57199 0.19605 0.54592 0.0
H880 H 0.55381 0.23411 0.66059 0.0
H881 H 0.61823 0.20144 0.65768 0.0
H882 H 0.5314 0.20925 0.5907 0.0
H883 H 0.52286 0.19373 0.62511 0.0
H884 H 0.52421 0.22394 0.62689 0.0
H885 H 0.62652 0.17272 0.62131 0.0
H886 H 0.60321 0.15344 0.62146 0.0
H887 H 0.60865 0.17001 0.58678 0.0
H888 H 0.53265 0.12259 0.59697 0.0
H889 H 0.54985 0.16284 0.51548 0.0
H890 H 0.54126 0.16171 0.65465 0.0
H891 H 0.56849 0.14919 0.6524 0.0
H892 H 0.54381 0.13184 0.64882 0.0
H893 H 0.56246 0.21124 0.55311 0.0
H894 H 0.57228 0.19518 0.51945 0.0
H895 H 0.58943 0.19815 0.55467 0.0
C896 C 0.58665 0.80345 0.27418 0.0
C897 C 0.60672 0.79513 0.28707 0.0
C898 C 0.57019 0.81304 0.29395 0.0
C899 C 0.57397 0.8142 0.32724 0.0
C900 C 0.59487 0.80733 0.33996 0.0
C901 C 0.61105 0.79806 0.31967 0.0
C902 C 0.54826 0.82061 0.27948 0.0
C903 C 0.59958 0.80829 0.37534 0.0
C904 C 0.53896 0.84798 0.38538 0.0
C905 C 0.52557 0.83117 0.39913 0.0
C906 C 0.55386 0.84301 0.36046 0.0
C907 C 0.55562 0.82065 0.34936 0.0
C908 C 0.54136 0.80383 0.36204 0.0
C909 C 0.52639 0.80934 0.38662 0.0
C910 C 0.56847 0.86145 0.34706 0.0
C911 C 0.54279 0.77974 0.35092 0.0
H912 H 0.58329 0.80145 0.24894 0.0
H913 H 0.6266 0.79187 0.32979 0.0
H914 H 0.53489 0.80837 0.28558 0.0
H915 H 0.54314 0.83712 0.28933 0.0
H916 H 0.54929 0.82192 0.25309 0.0
H917 H 0.61723 0.80382 0.38108 0.0
H918 H 0.59611 0.82534 0.38476 0.0
H919 H 0.5883 0.79643 0.38802 0.0
H920 H 0.53816 0.86498 0.39454 0.0
H921 H 0.516 0.79627 0.3969 0.0
H922 H 0.56834 0.861 0.3206 0.0
H923 H 0.58607 0.85888 0.35487 0.0
H924 H 0.56294 0.87835 0.35507 0.0
H925 H 0.54164 0.77887 0.32455 0.0
H926 H 0.52932 0.76911 0.36131 0.0
H927 H 0.55928 0.77255 0.35785 0.0
C928 C 0.93186 0.77799 0.1583 0.0
C929 C 0.91057 0.77745 0.17258 0.0
C930 C 0.93655 0.79281 0.13328 0.0
C931 C 0.91944 0.80726 0.12193 0.0
C932 C 0.89764 0.80611 0.13518 0.0
C933 C 0.89348 0.7913 0.16053 0.0
C934 C 0.96007 0.79355 0.11979 0.0
C935 C 0.87891 0.82097 0.12321 0.0
C936 C 0.94386 0.8596 0.08517 0.0
C937 C 0.9459 0.85299 0.05322 0.0
C938 C 0.93369 0.84546 0.10762 0.0
C939 C 0.92507 0.82446 0.09766 0.0
C940 C 0.92488 0.81885 0.06487 0.0
C941 C 0.9354 0.8332 0.04297 0.0
C942 C 0.93424 0.85206 0.14239 0.0
C943 C 0.91538 0.79682 0.05326 0.0
H944 H 0.94514 0.76728 0.16728 0.0
H945 H 0.8769 0.7908 0.17116 0.0
H946 H 0.95966 0.79049 0.09371 0.0
H947 H 0.96742 0.81047 0.12359 0.0
H948 H 0.97133 0.78091 0.13093 0.0
H949 H 0.86241 0.81635 0.13368 0.0
H950 H 0.88256 0.83871 0.12938 0.0
H951 H 0.87769 0.81995 0.09685 0.0
H952 H 0.9518 0.87496 0.09324 0.0
H953 H 0.93669 0.82817 0.01819 0.0
H954 H 0.94685 0.84163 0.15503 0.0
H955 H 0.91774 0.84897 0.15382 0.0
H956 H 0.93876 0.87001 0.1457 0.0
H957 H 0.92726 0.78307 0.05909 0.0
H958 H 0.91265 0.79688 0.02705 0.0
H959 H 0.89924 0.79301 0.0653 0.0
C960 C 0.54763 0.64566 0.91641 0.0
C961 C 0.53195 0.65888 0.93295 0.0
C962 C 0.56072 0.65474 0.89184 0.0
C963 C 0.55813 0.67761 0.88359 0.0
C964 C 0.54201 0.69096 0.89961 0.0
C965 C 0.52908 0.68143 0.92409 0.0
C966 C 0.5776 0.63995 0.87504 0.0
C967 C 0.53871 0.71542 0.8913 0.0
C968 C 0.60686 0.70784 0.84429 0.0
C969 C 0.59976 0.70882 0.81246 0.0
C970 C 0.59357 0.69747 0.86764 0.0
C971 C 0.57278 0.68775 0.85884 0.0
C972 C 0.56589 0.68801 0.82656 0.0
C973 C 0.57947 0.69857 0.80374 0.0
C974 C 0.60144 0.69753 0.90187 0.0
C975 C 0.54391 0.67764 0.81629 0.0
H976 H 0.5499 0.62819 0.92287 0.0
H977 H 0.51692 0.69175 0.93654 0.0
H978 H 0.57464 0.64026 0.84893 0.0
H979 H 0.59481 0.64645 0.87919 0.0
H980 H 0.57687 0.62226 0.88337 0.0
H981 H 0.52488 0.72325 0.9052 0.0
H982 H 0.55442 0.72486 0.89601 0.0
H983 H 0.53491 0.71723 0.86553 0.0
H984 H 0.62248 0.71581 0.85119 0.0
H985 H 0.57393 0.69926 0.77913 0.0
H986 H 0.60202 0.68012 0.91124 0.0
H987 H 0.58937 0.70704 0.91684 0.0
H988 H 0.61833 0.7052 0.9046 0.0
H989 H 0.54315 0.65982 0.82392 0.0
H990 H 0.54147 0.67841 0.79004 0.0
H991 H 0.52975 0.68649 0.82799 0.0
C992 C 0.59624 0.28473 0.1577 0.0
C993 C 0.58096 0.27214 0.17586 0.0
C994 C 0.58915 0.29701 0.1311 0.0
C995 C 0.56621 0.2968 0.12252 0.0
C996 C 0.55074 0.28371 0.1402 0.0
C997 C 0.55833 0.27149 0.1667 0.0
C998 C 0.60613 0.31066 0.11263 0.0
C999 C 0.5261 0.28308 0.13164 0.0
C1000 C 0.54301 0.34727 0.07888 0.0
C1001 C 0.54097 0.33906 0.04769 0.0
C1002 C 0.55144 0.33372 0.10336 0.0
C1003 C 0.55817 0.31148 0.0964 0.0
C1004 C 0.55702 0.30334 0.06473 0.0
C1005 C 0.54843 0.31728 0.04067 0.0
C1006 C 0.55246 0.34299 0.13688 0.0
C1007 C 0.56424 0.27974 0.0565 0.0
H1008 H 0.61383 0.28509 0.16433 0.0
H1009 H 0.54644 0.26174 0.18053 0.0
H1010 H 0.60529 0.30642 0.08689 0.0
H1011 H 0.60219 0.32879 0.11496 0.0
H1012 H 0.62357 0.30783 0.12113 0.0
H1013 H 0.51654 0.27099 0.14657 0.0
H1014 H 0.51866 0.30003 0.13477 0.0
H1015 H 0.52395 0.2784 0.10622 0.0
H1016 H 0.53727 0.36409 0.08448 0.0
H1017 H 0.54693 0.31087 0.01657 0.0
H1018 H 0.56979 0.34163 0.14636 0.0
H1019 H 0.54141 0.33297 0.15275 0.0
H1020 H 0.54714 0.36084 0.13811 0.0
H1021 H 0.58176 0.27683 0.06448 0.0
H1022 H 0.56318 0.27631 0.0305 0.0
H1023 H 0.55348 0.26747 0.06925 0.0
C1024 C 0.88716 0.29802 0.32158 0.0
C1025 C 0.89457 0.2962 0.28997 0.0
C1026 C 0.90108 0.30699 0.34523 0.0
C1027 C 0.9228 0.31461 0.3369 0.0
C1028 C 0.92975 0.31438 0.30462 0.0
C1029 C 0.91553 0.30508 0.28146 0.0
C1030 C 0.89311 0.30687 0.37944 0.0
C1031 C 0.95267 0.32273 0.29485 0.0
C1032 C 0.95294 0.34762 0.40115 0.0
C1033 C 0.96601 0.33083 0.4155 0.0
C1034 C 0.93944 0.34284 0.37461 0.0
C1035 C 0.93883 0.32069 0.36247 0.0
C1036 C 0.95244 0.3038 0.37625 0.0
C1037 C 0.96596 0.30911 0.4025 0.0
C1038 C 0.92545 0.36132 0.36004 0.0
C1039 C 0.95219 0.27993 0.36397 0.0
H1040 H 0.87092 0.29129 0.32828 0.0
H1041 H 0.92124 0.30388 0.25698 0.0
H1042 H 0.90327 0.29474 0.39341 0.0
H1043 H 0.89546 0.32365 0.39042 0.0
H1044 H 0.87515 0.3021 0.38155 0.0
H1045 H 0.95427 0.32433 0.26855 0.0
H1046 H 0.95622 0.33928 0.30592 0.0
H1047 H 0.96568 0.31084 0.3034 0.0
H1048 H 0.95313 0.36453 0.41073 0.0
H1049 H 0.97614 0.29606 0.41321 0.0
H1050 H 0.90738 0.35778 0.364 0.0
H1051 H 0.92818 0.36202 0.33389 0.0
H1052 H 0.9294 0.37803 0.37039 0.0
H1053 H 0.9352 0.27261 0.36717 0.0
H1054 H 0.96453 0.26905 0.37645 0.0
H1055 H 0.95597 0.27962 0.33807 0.0
C1056 C 0.8971 0.70933 0.63608 0.0
C1057 C 0.91204 0.72491 0.64955 0.0
C1058 C 0.90435 0.69388 0.61304 0.0
C1059 C 0.92708 0.69397 0.60331 0.0
C1060 C 0.94204 0.71024 0.61574 0.0
C1061 C 0.93432 0.72556 0.63867 0.0
C1062 C 0.88789 0.6769 0.60007 0.0
C1063 C 0.96644 0.71087 0.60586 0.0
C1064 C 0.95406 0.63988 0.57533 0.0
C1065 C 0.9557 0.64349 0.54238 0.0
C1066 C 0.94423 0.65596 0.59531 0.0
C1067 C 0.93566 0.67604 0.58196 0.0
C1068 C 0.93623 0.67928 0.54854 0.0
C1069 C 0.94628 0.66294 0.52911 0.0
C1070 C 0.94391 0.6519 0.63087 0.0
C1071 C 0.92707 0.7004 0.53348 0.0
H1072 H 0.8798 0.70882 0.64406 0.0
H1073 H 0.94598 0.73756 0.64879 0.0
H1074 H 0.88839 0.67676 0.57362 0.0
H1075 H 0.89264 0.65985 0.6083 0.0
H1076 H 0.8704 0.68036 0.60788 0.0
H1077 H 0.97542 0.72564 0.61583 0.0
H1078 H 0.97502 0.6954 0.61418 0.0
H1079 H 0.96789 0.71129 0.57949 0.0
H1080 H 0.9613 0.62489 0.58575 0.0
H1081 H 0.94742 0.66576 0.50362 0.0
H1082 H 0.92661 0.65381 0.64029 0.0
H1083 H 0.95456 0.66458 0.64299 0.0
H1084 H 0.95017 0.63492 0.63726 0.0
H1085 H 0.90968 0.70358 0.54182 0.0
H1086 H 0.92705 0.69949 0.50702 0.0
H1087 H 0.93741 0.71499 0.54087 0.0
C1088 C 0.55142 0.35441 0.59524 0.0
C1089 C 0.53698 0.3395 0.57936 0.0
C1090 C 0.56577 0.34693 0.61951 0.0
C1091 C 0.56576 0.32396 0.62801 0.0
C1092 C 0.55063 0.30896 0.61302 0.0
C1093 C 0.53636 0.31692 0.58893 0.0
C1094 C 0.5815 0.36345 0.63525 0.0
C1095 C 0.5501 0.28431 0.62159 0.0
C1096 C 0.6183 0.29661 0.66062 0.0
C1097 C 0.61256 0.29351 0.69274 0.0
C1098 C 0.60352 0.3073 0.63954 0.0
C1099 C 0.5826 0.31523 0.65095 0.0
C1100 C 0.57736 0.3135 0.68377 0.0
C1101 C 0.59244 0.30264 0.70433 0.0
C1102 C 0.60976 0.30894 0.60469 0.0
C1103 C 0.55534 0.32202 0.69685 0.0
H1104 H 0.55188 0.37194 0.58832 0.0
H1105 H 0.52515 0.30529 0.57704 0.0
H1106 H 0.58018 0.36221 0.66158 0.0
H1107 H 0.59908 0.35936 0.62874 0.0
H1108 H 0.57799 0.38104 0.62802 0.0
H1109 H 0.53643 0.27515 0.60912 0.0
H1110 H 0.56636 0.27639 0.6152 0.0
H1111 H 0.54782 0.28221 0.64768 0.0
H1112 H 0.63385 0.28967 0.65151 0.0
H1113 H 0.588 0.30045 0.72921 0.0
H1114 H 0.60784 0.32646 0.59615 0.0
H1115 H 0.59825 0.2983 0.59037 0.0
H1116 H 0.62727 0.3034 0.60009 0.0
H1117 H 0.55211 0.33941 0.68858 0.0
H1118 H 0.55494 0.32176 0.72334 0.0
H1119 H 0.54143 0.31137 0.68785 0.0
C1120 C 0.9498 0.37108 0.91814 0.0
C1121 C 0.95107 0.3661 0.95078 0.0
C1122 C 0.94093 0.35555 0.89647 0.0
C1123 C 0.93291 0.33466 0.90781 0.0
C1124 C 0.93233 0.33035 0.94099 0.0
C1125 C 0.94144 0.34617 0.96215 0.0
C1126 C 0.94181 0.36079 0.86125 0.0
C1127 C 0.9236 0.30839 0.95398 0.0
C1128 C 0.90135 0.29817 0.8487 0.0
C1129 C 0.91843 0.2838 0.83789 0.0
C1130 C 0.90562 0.31447 0.87208 0.0
C1131 C 0.92753 0.31656 0.88472 0.0
C1132 C 0.94477 0.30193 0.87428 0.0
C1133 C 0.93999 0.28567 0.85111 0.0
C1134 C 0.88682 0.32967 0.88291 0.0
C1135 C 0.96842 0.30374 0.88711 0.0
H1136 H 0.95704 0.38653 0.90917 0.0
H1137 H 0.94214 0.34234 0.9874 0.0
H1138 H 0.95466 0.35004 0.84967 0.0
H1139 H 0.92546 0.35703 0.84977 0.0
H1140 H 0.94612 0.37864 0.85661 0.0
H1141 H 0.92123 0.30897 0.98025 0.0
H1142 H 0.90739 0.30392 0.94262 0.0
H1143 H 0.93571 0.29479 0.94836 0.0
H1144 H 0.88459 0.29673 0.83885 0.0
H1145 H 0.9533 0.27463 0.84304 0.0
H1146 H 0.89072 0.3473 0.87641 0.0
H1147 H 0.88516 0.32903 0.90925 0.0
H1148 H 0.87045 0.32504 0.87206 0.0
H1149 H 0.97549 0.32049 0.88133 0.0
H1150 H 0.97975 0.29068 0.87713 0.0
H1151 H 0.96832 0.30213 0.91347 0.0
C1152 C 0.9604 0.69074 0.08827 0.0
C1153 C 0.9605 0.66931 0.07436 0.0
C1154 C 0.9472 0.69536 0.11509 0.0
C1155 C 0.93398 0.67805 0.12857 0.0
C1156 C 0.93461 0.65618 0.11546 0.0
C1157 C 0.9478 0.65208 0.08835 0.0
C1158 C 0.94691 0.71897 0.12839 0.0
C1159 C 0.921 0.63727 0.12964 0.0
C1160 C 0.91298 0.69271 0.21105 0.0
C1161 C 0.892 0.70209 0.20387 0.0
C1162 C 0.92633 0.68326 0.18699 0.0
C1163 C 0.9185 0.68344 0.15514 0.0
C1164 C 0.89664 0.69134 0.14822 0.0
C1165 C 0.88356 0.70043 0.17276 0.0
C1166 C 0.94942 0.67459 0.19531 0.0
C1167 C 0.88776 0.69193 0.11449 0.0
H1168 H 0.97029 0.70413 0.07785 0.0
H1169 H 0.948 0.6354 0.078 0.0
H1170 H 0.92975 0.7261 0.12644 0.0
H1171 H 0.95139 0.71879 0.15406 0.0
H1172 H 0.95874 0.73031 0.11573 0.0
H1173 H 0.92485 0.62084 0.11834 0.0
H1174 H 0.92422 0.63597 0.15564 0.0
H1175 H 0.90284 0.64079 0.12656 0.0
H1176 H 0.91946 0.69377 0.23516 0.0
H1177 H 0.8673 0.70755 0.16708 0.0
H1178 H 0.96228 0.68668 0.18685 0.0
H1179 H 0.95269 0.65833 0.18325 0.0
H1180 H 0.95155 0.67233 0.22143 0.0
H1181 H 0.89725 0.70459 0.1005 0.0
H1182 H 0.86965 0.69636 0.11359 0.0
H1183 H 0.89016 0.67545 0.10267 0.0
C1184 C 0.55594 0.72535 0.32056 0.0
C1185 C 0.57875 0.72379 0.31249 0.0
C1186 C 0.54713 0.71312 0.34629 0.0
C1187 C 0.5615 0.69901 0.36423 0.0
C1188 C 0.58458 0.69772 0.35662 0.0
C1189 C 0.59292 0.71011 0.33088 0.0
C1190 C 0.5224 0.71497 0.35389 0.0
C1191 C 0.6004 0.68286 0.37529 0.0
C1192 C 0.54288 0.67872 0.44582 0.0
C1193 C 0.5349 0.65716 0.43866 0.0
C1194 C 0.55153 0.69264 0.42178 0.0
C1195 C 0.55227 0.68469 0.38999 0.0
C1196 C 0.54462 0.66279 0.38276 0.0
C1197 C 0.53607 0.64926 0.40722 0.0
C1198 C 0.55962 0.71591 0.43028 0.0
C1199 C 0.54519 0.65375 0.3491 0.0
H1200 H 0.54488 0.73591 0.30657 0.0
H1201 H 0.61061 0.7089 0.32505 0.0
H1202 H 0.51421 0.69838 0.35073 0.0
H1203 H 0.52004 0.71994 0.37917 0.0
H1204 H 0.51371 0.7274 0.33848 0.0
H1205 H 0.61808 0.68452 0.36717 0.0
H1206 H 0.59958 0.68707 0.40103 0.0
H1207 H 0.59525 0.66505 0.37275 0.0
H1208 H 0.54198 0.68491 0.47009 0.0
H1209 H 0.52985 0.63264 0.40152 0.0
H1210 H 0.54998 0.72865 0.41668 0.0
H1211 H 0.57752 0.71784 0.42351 0.0
H1212 H 0.55786 0.71956 0.45615 0.0
H1213 H 0.535 0.66462 0.33324 0.0
H1214 H 0.53866 0.63631 0.34753 0.0
H1215 H 0.56265 0.65396 0.33988 0.0
C1216 C 0.4661 0.30313 0.08445 0.0
C1217 C 0.46677 0.32445 0.07021 0.0
C1218 C 0.45289 0.29908 0.11149 0.0
C1219 C 0.44019 0.31686 0.12483 0.0
C1220 C 0.44137 0.33858 0.11131 0.0
C1221 C 0.45455 0.3421 0.08403 0.0
C1222 C 0.452 0.27561 0.12518 0.0
C1223 C 0.42832 0.35798 0.12525 0.0
C1224 C 0.38804 0.29784 0.16833 0.0
C1225 C 0.39562 0.29678 0.19995 0.0
C1226 C 0.40215 0.30525 0.14382 0.0
C1227 C 0.42427 0.31212 0.15119 0.0
C1228 C 0.43151 0.31267 0.18334 0.0
C1229 C 0.41706 0.30492 0.20744 0.0
C1230 C 0.39383 0.3043 0.1098 0.0
C1231 C 0.45489 0.32024 0.19208 0.0
H1232 H 0.47564 0.28941 0.07419 0.0
H1233 H 0.45523 0.35871 0.07352 0.0
H1234 H 0.45628 0.27592 0.15091 0.0
H1235 H 0.4347 0.26884 0.12308 0.0
H1236 H 0.46368 0.26392 0.11288 0.0
H1237 H 0.43264 0.37421 0.11373 0.0
H1238 H 0.41006 0.35498 0.12221 0.0
H1239 H 0.43159 0.35936 0.15122 0.0
H1240 H 0.37143 0.29173 0.16236 0.0
H1241 H 0.42295 0.3043 0.23188 0.0
H1242 H 0.40343 0.29139 0.09642 0.0
H1243 H 0.39661 0.32062 0.09772 0.0
H1244 H 0.37569 0.30007 0.10834 0.0
H1245 H 0.46725 0.30751 0.18401 0.0
H1246 H 0.45687 0.32258 0.21822 0.0
H1247 H 0.45905 0.33624 0.17989 0.0
C1248 C 0.45593 0.62467 0.9266 0.0
C1249 C 0.45928 0.62876 0.95917 0.0
C1250 C 0.44506 0.64046 0.90729 0.0
C1251 C 0.43719 0.66071 0.92098 0.0
C1252 C 0.43899 0.66417 0.95426 0.0
C1253 C 0.45004 0.6481 0.97303 0.0
C1254 C 0.44334 0.6361 0.87188 0.0
C1255 C 0.43052 0.68543 0.96974 0.0
C1256 C 0.43698 0.70952 0.86327 0.0
C1257 C 0.41463 0.70941 0.85269 0.0
C1258 C 0.44432 0.69436 0.88661 0.0
C1259 C 0.42889 0.67887 0.89987 0.0
C1260 C 0.40606 0.67954 0.8907 0.0
C1261 C 0.3992 0.69476 0.86713 0.0
C1262 C 0.46885 0.6942 0.89591 0.0
C1263 C 0.38909 0.66349 0.9047 0.0
H1264 H 0.4629 0.60968 0.91577 0.0
H1265 H 0.45237 0.65123 -0.00173 0.0
H1266 H 0.42585 0.63868 0.86358 0.0
H1267 H 0.45414 0.64818 0.85882 0.0
H1268 H 0.44864 0.6188 0.86543 0.0
H1269 H 0.43026 0.68414 0.99617 0.0
H1270 H 0.44157 0.69965 0.96299 0.0
H1271 H 0.41335 0.68949 0.96125 0.0
H1272 H 0.44899 0.72091 0.85254 0.0
H1273 H 0.38183 0.69472 0.85945 0.0
H1274 H 0.47672 0.67827 0.88792 0.0
H1275 H 0.47062 0.69502 0.92222 0.0
H1276 H 0.47829 0.70842 0.88523 0.0
H1277 H 0.39259 0.64623 0.89605 0.0
H1278 H 0.37161 0.66798 0.89801 0.0
H1279 H 0.3904 0.66319 0.93109 0.0
C1280 C 0.08353 0.6935 0.69157 0.0
C1281 C 0.10346 0.70503 0.68471 0.0
C1282 C 0.06975 0.68541 0.66704 0.0
C1283 C 0.0761 0.68897 0.63492 0.0
C1284 C 0.09657 0.69998 0.62784 0.0
C1285 C 0.11007 0.70783 0.65287 0.0
C1286 C 0.04812 0.67358 0.67549 0.0
C1287 C 0.10384 0.70408 0.59383 0.0
C1288 C 0.04933 0.65237 0.57158 0.0
C1289 C 0.03245 0.6665 0.5596 0.0
C1290 C 0.06372 0.65952 0.59596 0.0
C1291 C 0.06118 0.68135 0.60873 0.0
C1292 C 0.04424 0.69576 0.59681 0.0
C1293 C 0.03006 0.68816 0.57236 0.0
C1294 C 0.08155 0.64368 0.60819 0.0
C1295 C 0.04102 0.71915 0.61 0.0
H1296 H 0.07837 0.69128 0.71617 0.0
H1297 H 0.1254 0.71686 0.64744 0.0
H1298 H 0.03363 0.68329 0.66621 0.0
H1299 H 0.04759 0.65678 0.66408 0.0
H1300 H 0.04603 0.67146 0.70164 0.0
H1301 H 0.12063 0.71212 0.59238 0.0
H1302 H 0.10434 0.68801 0.58047 0.0
H1303 H 0.09146 0.71508 0.58174 0.0
H1304 H 0.05137 0.63561 0.56192 0.0
H1305 H 0.017 0.69915 0.56342 0.0
H1306 H 0.07901 0.64057 0.63403 0.0
H1307 H 0.09839 0.65137 0.60536 0.0
H1308 H 0.0814 0.62729 0.59553 0.0
H1309 H 0.03736 0.7183 0.63591 0.0
H1310 H 0.0271 0.72827 0.59803 0.0
H1311 H 0.05669 0.72901 0.60712 0.0
C1312 C 0.04769 0.32776 0.4488 0.0
C1313 C 0.03927 0.34895 0.44046 0.0
C1314 C 0.05635 0.31325 0.42549 0.0
C1315 C 0.05662 0.3202 0.39323 0.0
C1316 C 0.04904 0.34193 0.3849 0.0
C1317 C 0.04054 0.35609 0.40866 0.0
C1318 C 0.06451 0.29024 0.4352 0.0
C1319 C 0.04914 0.34994 0.35071 0.0
C1320 C 0.0945 0.29207 0.33289 0.0
C1321 C 0.07934 0.2783 0.31629 0.0
C1322 C 0.08744 0.30528 0.35861 0.0
C1323 C 0.06465 0.30478 0.36795 0.0
C1324 C 0.04933 0.2905 0.35196 0.0
C1325 C 0.05688 0.27739 0.32629 0.0
C1326 C 0.10427 0.3202 0.37526 0.0
C1327 C 0.02486 0.28952 0.36142 0.0
H1328 H 0.04679 0.3222 0.47338 0.0
H1329 H 0.03404 0.37243 0.40204 0.0
H1330 H 0.05379 0.27719 0.42405 0.0
H1331 H 0.08189 0.2875 0.42653 0.0
H1332 H 0.06421 0.28785 0.46147 0.0
H1333 H 0.04335 0.36759 0.3484 0.0
H1334 H 0.0663 0.34863 0.34057 0.0
H1335 H 0.03802 0.33908 0.33612 0.0
H1336 H 0.11195 0.29274 0.32564 0.0
H1337 H 0.04508 0.26671 0.31376 0.0
H1338 H 0.10402 0.31702 0.40133 0.0
H1339 H 0.09968 0.33807 0.37161 0.0
H1340 H 0.12164 0.31759 0.36635 0.0
H1341 H 0.02327 0.28567 0.38721 0.0
H1342 H 0.0154 0.27667 0.3477 0.0
H1343 H 0.0169 0.30612 0.3574 0.0
C1344 C 0.45705 0.69374 0.41285 0.0
C1345 C 0.4588 0.67199 0.42553 0.0
C1346 C 0.44331 0.69817 0.38651 0.0
C1347 C 0.43111 0.6804 0.37233 0.0
C1348 C 0.43282 0.6584 0.38482 0.0
C1349 C 0.44659 0.65446 0.41139 0.0
C1350 C 0.44181 0.72194 0.37396 0.0
C1351 C 0.42019 0.63905 0.37002 0.0
C1352 C 0.38087 0.70053 0.32554 0.0
C1353 C 0.38995 0.70252 0.29481 0.0
C1354 C 0.39371 0.69205 0.35076 0.0
C1355 C 0.41609 0.68523 0.34499 0.0
C1356 C 0.42475 0.68551 0.31355 0.0
C1357 C 0.41153 0.69417 0.28874 0.0
C1358 C 0.38388 0.69203 0.38397 0.0
C1359 C 0.44848 0.67811 0.30647 0.0
H1360 H 0.46644 0.7074 0.42351 0.0
H1361 H 0.44802 0.63757 0.42081 0.0
H1362 H 0.44714 0.72246 0.34862 0.0
H1363 H 0.42416 0.72787 0.37492 0.0
H1364 H 0.45242 0.73384 0.38771 0.0
H1365 H 0.42366 0.62287 0.38224 0.0
H1366 H 0.40187 0.64234 0.37096 0.0
H1367 H 0.42483 0.63738 0.3445 0.0
H1368 H 0.36411 0.70675 0.33035 0.0
H1369 H 0.41855 0.69545 0.26495 0.0
H1370 H 0.3922 0.70519 0.39849 0.0
H1371 H 0.38694 0.67569 0.39589 0.0
H1372 H 0.36553 0.69537 0.38387 0.0
H1373 H 0.46044 0.69067 0.31613 0.0
H1374 H 0.45157 0.67636 0.28046 0.0
H1375 H 0.45215 0.66185 0.31826 0.0
C1376 C 0.04026 0.64659 0.07297 0.0
C1377 C 0.03498 0.65517 0.04278 0.0
C1378 C 0.04947 0.66039 0.0966 0.0
C1379 C 0.05354 0.6833 0.08981 0.0
C1380 C 0.04942 0.69179 0.05885 0.0
C1381 C 0.04028 0.67754 0.03557 0.0
C1382 C 0.05391 0.65067 0.12928 0.0
C1383 C 0.05369 0.71613 0.05076 0.0
C1384 C 0.05326 0.72085 0.1627 0.0
C1385 C 0.07626 0.72233 0.16957 0.0
C1386 C 0.04564 0.709 0.1359 0.0
C1387 C 0.06141 0.69836 0.11563 0.0
C1388 C 0.08464 0.70056 0.12168 0.0
C1389 C 0.09179 0.7125 0.14859 0.0
C1390 C 0.02068 0.70715 0.12996 0.0
C1391 C 0.10194 0.68959 0.10041 0.0
H1392 H 0.03635 0.62927 0.07864 0.0
H1393 H 0.0364 0.68422 0.01217 0.0
H1394 H 0.0715 0.654 0.13655 0.0
H1395 H 0.04282 0.65889 0.14706 0.0
H1396 H 0.05092 0.63227 0.13016 0.0
H1397 H 0.05138 0.71962 0.02494 0.0
H1398 H 0.04198 0.72694 0.06446 0.0
H1399 H 0.07099 0.721 0.05769 0.0
H1400 H 0.04116 0.7285 0.17866 0.0
H1401 H 0.10962 0.71381 0.15341 0.0
H1402 H 0.01525 0.68947 0.13308 0.0
H1403 H 0.01667 0.71203 0.10507 0.0
H1404 H 0.01074 0.71789 0.14642 0.0
H1405 H 0.10062 0.67107 0.1025 0.0
H1406 H 0.11934 0.69464 0.10671 0.0
H1407 H 0.09882 0.69397 0.07509 0.0
C1408 C 0.10088 0.29552 0.83734 0.0
C1409 C 0.09321 0.2929 0.80597 0.0
C1410 C 0.08706 0.30495 0.86083 0.0
C1411 C 0.06513 0.31206 0.85264 0.0
C1412 C 0.05763 0.31034 0.82073 0.0
C1413 C 0.07179 0.30076 0.79773 0.0
C1414 C 0.09561 0.30654 0.89467 0.0
C1415 C 0.0344 0.31793 0.81112 0.0
C1416 C 0.02259 0.31434 0.91985 0.0
C1417 C 0.02302 0.3372 0.92791 0.0
C1418 C 0.0359 0.30597 0.89494 0.0
C1419 C 0.04993 0.32085 0.87771 0.0
C1420 C 0.05004 0.34399 0.88518 0.0
C1421 C 0.03662 0.35188 0.91022 0.0
C1422 C 0.03531 0.28115 0.88748 0.0
C1423 C 0.06464 0.36036 0.86709 0.0
H1424 H 0.11739 0.28941 0.84387 0.0
H1425 H 0.06581 0.29882 0.77347 0.0
H1426 H 0.09422 0.32406 0.90344 0.0
H1427 H 0.08515 0.29589 0.9105 0.0
H1428 H 0.11337 0.30107 0.89684 0.0
H1429 H 0.03157 0.31649 0.78502 0.0
H1430 H 0.0216 0.30764 0.82362 0.0
H1431 H 0.03168 0.33564 0.81836 0.0
H1432 H 0.0121 0.30288 0.93331 0.0
H1433 H 0.03693 0.36961 0.91602 0.0
H1434 H 0.05214 0.27369 0.89154 0.0
H1435 H 0.03108 0.27848 0.862 0.0
H1436 H 0.02288 0.27199 0.90235 0.0
H1437 H 0.08258 0.35602 0.87055 0.0
H1438 H 0.06199 0.37799 0.87491 0.0
H1439 H 0.06112 0.35923 0.84116 0.0
C1440 C 0.45783 0.36907 0.58047 0.0
C1441 C 0.46134 0.36498 0.54794 0.0
C1442 C 0.44571 0.35387 0.59929 0.0
C1443 C 0.43668 0.33428 0.5851 0.0
C1444 C 0.43888 0.33083 0.55185 0.0
C1445 C 0.45129 0.34622 0.53365 0.0
C1446 C 0.44376 0.3581 0.6347 0.0
C1447 C 0.42917 0.31032 0.53582 0.0
C1448 C 0.43177 0.28462 0.64099 0.0
C1449 C 0.40924 0.28602 0.65059 0.0
C1450 C 0.44071 0.29978 0.61879 0.0
C1451 C 0.42671 0.3166 0.60563 0.0
C1452 C 0.40371 0.3174 0.61389 0.0
C1453 C 0.39525 0.30215 0.63638 0.0
C1454 C 0.46537 0.29837 0.61051 0.0
C1455 C 0.38823 0.33489 0.59989 0.0
H1456 H 0.46553 0.38356 0.59165 0.0
H1457 H 0.45383 0.34308 0.50844 0.0
H1458 H 0.426 0.35678 0.64243 0.0
H1459 H 0.4534 0.34515 0.64789 0.0
H1460 H 0.45024 0.37491 0.64159 0.0
H1461 H 0.4298 0.31159 0.5094 0.0
H1462 H 0.43879 0.29523 0.54319 0.0
H1463 H 0.41149 0.30772 0.54329 0.0
H1464 H 0.4427 0.27212 0.65155 0.0
H1465 H 0.37775 0.30323 0.64334 0.0
H1466 H 0.47411 0.3137 0.61904 0.0
H1467 H 0.46763 0.29759 0.58427 0.0
H1468 H 0.47362 0.28348 0.62133 0.0
H1469 H 0.39299 0.35173 0.60891 0.0
H1470 H 0.37037 0.33175 0.60611 0.0
H1471 H 0.38987 0.33529 0.57354 0.0
C1472 C 0.2996 0.27292 0.25852 0.0
C1473 C 0.30985 0.25207 0.26377 0.0
C1474 C 0.27637 0.27457 0.25402 0.0
C1475 C 0.26299 0.25501 0.25618 0.0
C1476 C 0.27318 0.234 0.26277 0.0
C1477 C 0.29664 0.2327 0.26573 0.0
C1478 C 0.26625 0.29712 0.24591 0.0
C1479 C 0.25934 0.21294 0.26656 0.0
C1480 C 0.20138 0.26466 0.27371 0.0
C1481 C 0.19148 0.26003 0.24412 0.0
C1482 C 0.22458 0.2626 0.2781 0.0
C1483 C 0.2383 0.25667 0.25189 0.0
C1484 C 0.22845 0.25268 0.22162 0.0
C1485 C 0.205 0.25389 0.21828 0.0
C1486 C 0.23432 0.26616 0.31099 0.0
C1487 C 0.24266 0.24719 0.19285 0.0
H1488 H 0.30992 0.28784 0.25629 0.0
H1489 H 0.30466 0.21659 0.26961 0.0
H1490 H 0.25711 0.29601 0.2229 0.0
H1491 H 0.25388 0.30208 0.26437 0.0
H1492 H 0.27913 0.31054 0.24401 0.0
H1493 H 0.26969 0.19829 0.27382 0.0
H1494 H 0.24605 0.21563 0.28471 0.0
H1495 H 0.25085 0.20887 0.24376 0.0
H1496 H 0.19082 0.26895 0.29389 0.0
H1497 H 0.19725 0.2502 0.19548 0.0
H1498 H 0.24635 0.28036 0.31066 0.0
H1499 H 0.24378 0.251 0.31848 0.0
H1500 H 0.22119 0.26974 0.32911 0.0
H1501 H 0.25565 0.26033 0.18944 0.0
H1502 H 0.23252 0.24588 0.17069 0.0
H1503 H 0.25155 0.23105 0.19662 0.0
C1504 C 0.0242 0.95457 0.49036 0.0
C1505 C 0.00369 0.94318 0.48785 0.0
C1506 C 0.02495 0.97806 0.49173 0.0
C1507 C 0.00476 0.99046 0.4893 0.0
C1508 C 0.98406 0.97905 0.48545 0.0
C1509 C 0.98372 0.95546 0.48546 0.0
C1510 C 0.04727 0.98957 0.49682 0.0
C1511 C 0.9623 0.99173 0.4815 0.0
C1512 C 0.00241 0.05064 0.51971 0.0
C1513 C 0.0072 0.06262 0.49186 0.0
C1514 C 0.00206 0.02703 0.51945 0.0
C1515 C 0.00546 0.01539 0.49032 0.0
C1516 C 0.0099 0.02758 0.46206 0.0
C1517 C 0.0112 0.05103 0.46335 0.0
C1518 C 0.99815 0.01454 0.55028 0.0
C1519 C 0.01271 0.0159 0.43032 0.0
H1520 H 0.03963 0.94507 0.49285 0.0
H1521 H 0.96787 0.94661 0.48366 0.0
H1522 H 0.05102 0.0009 0.47654 0.0
H1523 H 0.04654 9e-05 0.51865 0.0
H1524 H 0.06131 0.97742 0.49931 0.0
H1525 H 0.94791 0.98038 0.4766 0.0
H1526 H 0.9586 0.00145 0.50343 0.0
H1527 H 0.96378 0.00394 0.46161 0.0
H1528 H -0.00082 0.05971 0.54166 0.0
H1529 H 0.0144 0.0604 0.44164 0.0
H1530 H 0.01198 0.0024 0.55442 0.0
H1531 H 0.98234 0.00477 0.54879 0.0
H1532 H 0.99707 0.02603 0.5711 0.0
H1533 H 0.02745 0.00453 0.43106 0.0
H1534 H 0.01503 0.02794 0.41035 0.0
H1535 H 0.99775 0.00538 0.42524 0.0
C1536 C 0.29296 0.72686 0.79686 0.0
C1537 C 0.30555 0.73187 0.76954 0.0
C1538 C 0.26952 0.72911 0.79697 0.0
C1539 C 0.25836 0.73571 0.76869 0.0
C1540 C 0.27098 0.74004 0.74068 0.0
C1541 C 0.29452 0.73854 0.74164 0.0
C1542 C 0.25678 0.72507 0.82759 0.0
C1543 C 0.25962 0.74628 0.70974 0.0
C1544 C 0.19648 0.72119 0.76234 0.0
C1545 C 0.18634 0.74223 0.76642 0.0
C1546 C 0.2199 0.71888 0.76267 0.0
C1547 C 0.23348 0.73795 0.76844 0.0
C1548 C 0.22326 0.75912 0.77382 0.0
C1549 C 0.19977 0.7611 0.77207 0.0
C1550 C 0.23013 0.69618 0.75575 0.0
C1551 C 0.23713 0.77968 0.78121 0.0
H1552 H 0.30154 0.72208 0.81863 0.0
H1553 H 0.3043 0.74244 0.72055 0.0
H1554 H 0.24717 0.74035 0.83413 0.0
H1555 H 0.24447 0.7113 0.82431 0.0
H1556 H 0.26806 0.72062 0.84772 0.0
H1557 H 0.27173 0.74771 0.68968 0.0
H1558 H 0.2468 0.73349 0.70351 0.0
H1559 H 0.25078 0.76255 0.71244 0.0
H1560 H 0.18611 0.70664 0.75738 0.0
H1561 H 0.1919 0.77737 0.77513 0.0
H1562 H 0.24066 0.69067 0.77609 0.0
H1563 H 0.24126 0.69736 0.73458 0.0
H1564 H 0.21721 0.68313 0.75117 0.0
H1565 H 0.24846 0.77626 0.80164 0.0
H1566 H 0.22655 0.79449 0.78703 0.0
H1567 H 0.24787 0.78393 0.76046 0.0
C1568 C 0.51768 0.05379 0.98363 0.0
C1569 C 0.49903 0.06784 0.98724 0.0
C1570 C 0.51519 0.03034 0.98412 0.0
C1571 C 0.49371 0.0209 0.98986 0.0
C1572 C 0.47483 0.0351 0.99331 0.0
C1573 C 0.47767 0.0584 0.9913 0.0
C1574 C 0.53556 0.0157 0.97903 0.0
C1575 C 0.45182 0.02574 0.00061 0.0
C1576 C 0.48278 0.95989 0.96919 0.0
C1577 C 0.48779 0.94917 -0.00193 0.0
C1578 C 0.48478 0.98323 0.9661 0.0
C1579 C 0.49105 0.99619 0.99294 0.0
C1580 C 0.49505 0.98551 0.02261 0.0
C1581 C 0.4939 0.962 0.02463 0.0
C1582 C 0.4812 0.99388 0.93381 0.0
C1583 C 0.50088 0.99886 0.05207 0.0
H1584 H 0.53419 0.06116 0.9806 0.0
H1585 H 0.46329 0.06932 0.99474 0.0
H1586 H 0.53958 0.00654 0.00133 0.0
H1587 H 0.53208 0.00295 0.96037 0.0
H1588 H 0.55054 0.02559 0.97182 0.0
H1589 H 0.43886 0.03909 0.00249 0.0
H1590 H 0.44662 0.01372 0.98182 0.0
H1591 H 0.45233 0.01635 0.02346 0.0
H1592 H 0.47851 0.94987 0.94846 0.0
H1593 H 0.49788 0.95362 0.04688 0.0
H1594 H 0.49685 0.0024 0.92606 0.0
H1595 H 0.46791 0.00687 0.93518 0.0
H1596 H 0.47638 0.9814 0.91535 0.0
H1597 H 0.51749 0.00698 0.04897 0.0
H1598 H 0.50147 0.98821 0.07381 0.0
H1599 H 0.48837 0.01242 0.0558 0.0
C1600 C 0.20293 0.74325 0.26651 0.0
C1601 C 0.18936 0.73968 0.23979 0.0
C1602 C 0.22635 0.74484 0.26328 0.0
C1603 C 0.23612 0.74386 0.23246 0.0
C1604 C 0.22233 0.74068 0.20539 0.0
C1605 C 0.19915 0.73816 0.20948 0.0
C1606 C 0.24064 0.74741 0.29279 0.0
C1607 C 0.23201 0.7404 0.17208 0.0
C1608 C 0.29476 0.76833 0.22486 0.0
C1609 C 0.30785 0.74882 0.22403 0.0
C1610 C 0.27125 0.76699 0.22642 0.0
C1611 C 0.26082 0.74566 0.22853 0.0
C1612 C 0.27402 0.72593 0.22728 0.0
C1613 C 0.29737 0.72777 0.22444 0.0
C1614 C 0.25762 0.78836 0.22639 0.0
C1615 C 0.26359 0.70291 0.23038 0.0
H1616 H 0.19525 0.74452 0.28989 0.0
H1617 H 0.18852 0.73587 0.18874 0.0
H1618 H 0.2534 0.73384 0.29369 0.0
H1619 H 0.24981 0.7636 0.29201 0.0
H1620 H 0.23051 0.74684 0.31504 0.0
H1621 H 0.21882 0.73881 0.15349 0.0
H1622 H 0.24159 0.75608 0.1677 0.0
H1623 H 0.24391 0.72621 0.16945 0.0
H1624 H 0.30292 0.7846 0.22463 0.0
H1625 H 0.30752 0.71265 0.22438 0.0
H1626 H 0.24921 0.79049 0.2498 0.0
H1627 H 0.24427 0.78743 0.20798 0.0
H1628 H 0.26813 0.80341 0.22174 0.0
H1629 H 0.25455 0.70163 0.25347 0.0
H1630 H 0.27627 0.68926 0.22917 0.0
H1631 H 0.25107 0.70019 0.21121 0.0
C1632 C 0.49399 0.94316 0.52396 0.0
C1633 C 0.50644 0.93313 0.49941 0.0
C1634 C 0.49186 0.96663 0.52584 0.0
C1635 C 0.50189 0.98026 0.50209 0.0
C1636 C 0.51486 0.9702 0.47768 0.0
C1637 C 0.51723 0.94679 0.47691 0.0
C1638 C 0.47854 0.9768 0.55285 0.0
C1639 C 0.52551 0.9841 0.45159 0.0
C1640 C 0.47771 0.03842 0.48648 0.0
C1641 C 0.49433 0.05207 0.49975 0.0
C1642 C 0.47993 0.0149 0.48705 0.0
C1643 C 0.49873 0.00504 0.50242 0.0
C1644 C 0.51509 0.01893 0.51685 0.0
C1645 C 0.5129 0.04231 0.51476 0.0
C1646 C 0.46249 0.00065 0.47055 0.0
C1647 C 0.53493 0.00912 0.53443 0.0
H1648 H 0.48561 0.93264 0.54138 0.0
H1649 H 0.52667 0.93914 0.45765 0.0
H1650 H 0.48861 0.98993 0.56504 0.0
H1651 H 0.46327 0.98506 0.54332 0.0
H1652 H 0.47335 0.96405 0.57073 0.0
H1653 H 0.53498 0.97366 0.43423 0.0
H1654 H 0.51232 0.99353 0.43854 0.0
H1655 H 0.53715 0.99663 0.46203 0.0
H1656 H 0.46335 0.04613 0.47498 0.0
H1657 H 0.52555 0.05305 0.52544 0.0
H1658 H 0.45479 0.98882 0.48777 0.0
H1659 H 0.47059 0.99043 0.45162 0.0
H1660 H 0.44898 0.01092 0.45957 0.0
H1661 H 0.52907 0.99694 0.55265 0.0
H1662 H 0.54517 0.02223 0.54642 0.0
H1663 H 0.54585 -0.00018 0.51756 0.0
C1664 C 0.19314 0.23395 0.72997 0.0
C1665 C 0.17875 0.25237 0.73315 0.0
C1666 C 0.21647 0.23703 0.72761 0.0
C1667 C 0.22555 0.25897 0.73001 0.0
C1668 C 0.21099 0.27762 0.73311 0.0
C1669 C 0.18772 0.27411 0.73399 0.0
C1670 C 0.23139 0.21679 0.72303 0.0
C1671 C 0.22001 0.30117 0.73696 0.0
C1672 C 0.28615 0.26163 0.75815 0.0
C1673 C 0.29741 0.26659 0.72975 0.0
C1674 C 0.26262 0.26003 0.75884 0.0
C1675 C 0.2503 0.26234 0.7301 0.0
C1676 C 0.2617 0.26741 0.70136 0.0
C1677 C 0.28511 0.26994 0.70168 0.0
C1678 C 0.251 0.25554 0.7902 0.0
C1679 C 0.2493 0.26915 0.67004 0.0
H1680 H 0.18614 0.21715 0.72941 0.0
H1681 H 0.17656 0.28834 0.73707 0.0
H1682 H 0.24297 0.21958 0.70267 0.0
H1683 H 0.24186 0.21419 0.74458 0.0
H1684 H 0.22159 0.20124 0.71855 0.0
H1685 H 0.20641 0.31385 0.73895 0.0
H1686 H 0.2306 0.30208 0.75871 0.0
H1687 H 0.23085 0.30565 0.71643 0.0
H1688 H 0.29575 0.25898 0.77979 0.0
H1689 H 0.29394 0.27334 0.67958 0.0
H1690 H 0.24317 0.23865 0.78977 0.0
H1691 H 0.23737 0.26795 0.79407 0.0
H1692 H 0.26278 0.25632 0.81072 0.0
H1693 H 0.24079 0.25298 0.66482 0.0
H1694 H 0.26065 0.27327 0.64985 0.0
H1695 H 0.23608 0.28222 0.6715 0.0
C1696 C 0.98585 0.03612 0.0138 0.0
C1697 C 0.0052 0.04895 0.00895 0.0
C1698 C 0.98657 0.01262 0.01104 0.0
C1699 C 0.00686 0.00201 0.00173 0.0
C1700 C 0.02624 0.01509 0.99583 0.0
C1701 C 0.02528 0.03838 0.0002 0.0
C1702 C 0.9658 -0.00087 0.01871 0.0
C1703 C 0.04793 0.00452 0.98474 0.0
C1704 C 0.01693 0.94172 0.02608 0.0
C1705 C 0.00973 0.92989 -0.00097 0.0
C1706 C 0.0159 0.96516 0.02726 0.0
C1707 C 0.00829 0.97715 0.00025 0.0
C1708 C 0.00201 0.96538 0.97225 0.0
C1709 C 0.00236 0.94177 0.97219 0.0
C1710 C 0.02213 0.97702 0.05788 0.0
C1711 C 0.99468 0.9777 0.94258 0.0
H1712 H 0.97032 0.04444 0.0203 0.0
H1713 H 0.04011 0.04847 0.9957 0.0
H1714 H 0.96068 0.98907 0.99769 0.0
H1715 H 0.96947 0.98718 0.03833 0.0
H1716 H 0.95148 0.00994 0.02597 0.0
H1717 H 0.06084 0.01726 0.97855 0.0
H1718 H 0.05479 0.9935 0.00369 0.0
H1719 H 0.04481 0.99382 0.96351 0.0
H1720 H 0.0223 0.93259 0.0471 0.0
H1721 H 0.99673 0.93262 0.95132 0.0
H1722 H 0.00768 0.98708 0.06652 0.0
H1723 H 0.03621 0.98881 0.05362 0.0
H1724 H 0.02717 0.96512 0.07699 0.0
H1725 H 0.97864 0.98658 0.94716 0.0
H1726 H 0.99228 0.96619 0.92201 0.0
H1727 H 0.00732 0.99059 0.93603 0.0
C1728 C 0.79207 0.74868 0.76358 0.0
C1729 C 0.80313 0.74259 0.73542 0.0
C1730 C 0.7685 0.74957 0.76481 0.0
C1731 C 0.75586 0.74528 0.73681 0.0
C1732 C 0.76705 0.73914 0.70832 0.0
C1733 C 0.79054 0.73743 0.70817 0.0
C1734 C 0.75714 0.75528 0.79597 0.0
C1735 C 0.7543 0.73523 0.67769 0.0
C1736 C 0.69399 0.73046 0.74267 0.0
C1737 C 0.68381 0.75152 0.73915 0.0
C1738 C 0.71743 0.72823 0.7424 0.0
C1739 C 0.73096 0.74741 0.73716 0.0
C1740 C 0.72068 0.76862 0.73236 0.0
C1741 C 0.69718 0.7705 0.73416 0.0
C1742 C 0.72773 0.7055 0.74882 0.0
C1743 C 0.73448 0.78932 0.72548 0.0
H1744 H 0.80186 0.75273 0.7846 0.0
H1745 H 0.79914 0.73313 0.68621 0.0
H1746 H 0.74839 0.77164 0.79387 0.0
H1747 H 0.74426 0.74244 0.80174 0.0
H1748 H 0.76925 0.7563 0.81607 0.0
H1749 H 0.76556 0.73089 0.65749 0.0
H1750 H 0.74198 0.72144 0.68084 0.0
H1751 H 0.74468 0.75055 0.67134 0.0
H1752 H 0.68363 0.71583 0.74717 0.0
H1753 H 0.68926 0.78679 0.73156 0.0
H1754 H 0.73883 0.70648 0.77003 0.0
H1755 H 0.7383 0.70024 0.72838 0.0
H1756 H 0.71484 0.69235 0.7531 0.0
H1757 H 0.74514 0.7934 0.74636 0.0
H1758 H 0.72385 0.80414 0.71994 0.0
H1759 H 0.74587 0.78616 0.705 0.0
C1760 C 0.70612 0.25378 0.27665 0.0
C1761 C 0.69219 0.26079 0.25173 0.0
C1762 C 0.72951 0.25281 0.27249 0.0
C1763 C 0.73887 0.25792 0.24225 0.0
C1764 C 0.72478 0.26507 0.21709 0.0
C1765 C 0.70165 0.26687 0.22237 0.0
C1766 C 0.74415 0.24605 0.30025 0.0
C1767 C 0.73399 0.26986 0.1842 0.0
C1768 C 0.8006 0.27212 0.23417 0.0
C1769 C 0.80991 0.25109 0.22719 0.0
C1770 C 0.77753 0.27451 0.23965 0.0
C1771 C 0.76337 0.25557 0.23667 0.0
C1772 C 0.7726 0.23445 0.22818 0.0
C1773 C 0.79593 0.23234 0.22435 0.0
C1774 C 0.76846 0.29709 0.24989 0.0
C1775 C 0.75789 0.21409 0.22346 0.0
H1776 H 0.69872 0.24899 0.29928 0.0
H1777 H 0.6908 0.27185 0.20285 0.0
H1778 H 0.75212 0.22959 0.29531 0.0
H1779 H 0.75784 0.25847 0.30359 0.0
H1780 H 0.73448 0.24471 0.32284 0.0
H1781 H 0.72068 0.27499 0.16714 0.0
H1782 H 0.74676 0.28338 0.18533 0.0
H1783 H 0.74247 0.25466 0.17474 0.0
H1784 H 0.81156 0.28651 0.23717 0.0
H1785 H 0.80327 0.21607 0.21924 0.0
H1786 H 0.76009 0.2955 0.27344 0.0
H1787 H 0.75564 0.30305 0.23271 0.0
H1788 H 0.78184 0.31002 0.25174 0.0
H1789 H 0.7499 0.20935 0.24638 0.0
H1790 H 0.76749 0.19942 0.21439 0.0
H1791 H 0.74421 0.21798 0.20637 0.0
C1792 C 0.70816 0.24264 0.77362 0.0
C1793 C 0.6969 0.23692 0.7455 0.0
C1794 C 0.73173 0.24344 0.77451 0.0
C1795 C 0.74413 0.23941 0.74621 0.0
C1796 C 0.73274 0.23371 0.71773 0.0
C1797 C 0.70926 0.2321 0.7179 0.0
C1798 C 0.74333 0.24872 0.80562 0.0
C1799 C 0.74528 0.23009 0.68683 0.0
C1800 C 0.80295 0.26414 0.74379 0.0
C1801 C 0.81616 0.24501 0.74859 0.0
C1802 C 0.77946 0.26247 0.74191 0.0
C1803 C 0.76902 0.2413 0.74633 0.0
C1804 C 0.78237 0.22195 0.75116 0.0
C1805 C 0.80581 0.22399 0.75163 0.0
C1806 C 0.76582 0.28334 0.73548 0.0
C1807 C 0.77188 0.19922 0.75701 0.0
H1808 H 0.69854 0.24641 0.79491 0.0
H1809 H 0.70049 0.22809 0.69597 0.0
H1810 H 0.75604 0.23564 0.81103 0.0
H1811 H 0.75233 0.26496 0.80369 0.0
H1812 H 0.73135 0.24977 0.82588 0.0
H1813 H 0.73386 0.22609 0.66668 0.0
H1814 H 0.75496 0.24542 0.68073 0.0
H1815 H 0.75752 0.21619 0.68947 0.0
H1816 H 0.81099 0.28039 0.74148 0.0
H1817 H 0.81604 0.20923 0.7559 0.0
H1818 H 0.75526 0.28733 0.75652 0.0
H1819 H 0.75434 0.28048 0.71504 0.0
H1820 H 0.77656 0.29812 0.73014 0.0
H1821 H 0.76093 0.2 0.7784 0.0
H1822 H 0.78465 0.18588 0.76071 0.0
H1823 H 0.76113 0.19439 0.73656 0.0
C1824 C 0.79775 0.76883 0.27414 0.0
C1825 C 0.81159 0.74987 0.27341 0.0
C1826 C 0.77435 0.76666 0.27152 0.0
C1827 C 0.76486 0.74513 0.26645 0.0
C1828 C 0.77881 0.72591 0.2663 0.0
C1829 C 0.802 0.7285 0.27047 0.0
C1830 C 0.75988 0.78744 0.27324 0.0
C1831 C 0.76946 0.70278 0.25981 0.0
C1832 C 0.70269 0.73546 0.27966 0.0
C1833 C 0.694 0.73917 0.24906 0.0
C1834 C 0.7257 0.73765 0.28576 0.0
C1835 C 0.74043 0.74275 0.26033 0.0
C1836 C 0.73181 0.74563 0.22906 0.0
C1837 C 0.70854 0.74435 0.22393 0.0
C1838 C 0.73411 0.73534 0.31959 0.0
C1839 C 0.74713 0.75021 0.20112 0.0
H1840 H 0.80526 0.78535 0.27619 0.0
H1841 H 0.8128 0.71387 0.26916 0.0
H1842 H 0.75251 0.79094 0.24947 0.0
H1843 H 0.74576 0.78479 0.2901 0.0
H1844 H 0.76956 0.80243 0.28097 0.0
H1845 H 0.78255 0.68953 0.26112 0.0
H1846 H 0.756 0.69869 0.27712 0.0
H1847 H 0.76182 0.7024 0.23567 0.0
H1848 H 0.69132 0.73192 0.29923 0.0
H1849 H 0.70172 0.74731 0.20034 0.0
H1850 H 0.74257 0.7511 0.32701 0.0
H1851 H 0.74672 0.7217 0.32114 0.0
H1852 H 0.72036 0.73168 0.33672 0.0
H1853 H 0.75541 0.76674 0.20417 0.0
H1854 H 0.73795 0.75024 0.17806 0.0
H1855 H 0.76057 0.73732 0.20003 0.0
C1856 C 0.52428 0.43412 0.98012 0.0
C1857 C 0.5025 0.42542 0.97755 0.0
C1858 C 0.52791 0.45725 0.98354 0.0
C1859 C 0.50934 0.47206 0.98312 0.0
C1860 C 0.48739 0.46343 0.97866 0.0
C1861 C 0.48417 0.44011 0.97664 0.0
C1862 C 0.55148 0.4657 0.9893 0.0
C1863 C 0.46725 0.47877 0.97679 0.0
C1864 C 0.51219 0.52908 0.02361 0.0
C1865 C 0.51738 0.54309 -0.00211 0.0
C1866 C 0.51041 0.50575 0.01937 0.0
C1867 C 0.51281 0.4965 0.98838 0.0
C1868 C 0.51813 0.51067 0.96238 0.0
C1869 C 0.52081 0.53376 0.9676 0.0
C1870 C 0.50562 0.49106 0.04791 0.0
C1871 C 0.51997 0.5016 0.92883 0.0
H1872 H 0.53845 0.42272 0.98143 0.0
H1873 H 0.46733 0.43333 0.97475 0.0
H1874 H 0.556 0.47865 0.97144 0.0
H1875 H 0.5524 0.47375 0.01314 0.0
H1876 H 0.56414 0.45202 0.98825 0.0
H1877 H 0.45175 0.46962 0.9699 0.0
H1878 H 0.4644 0.48685 0.00028 0.0
H1879 H 0.47031 0.49236 0.95921 0.0
H1880 H 0.50944 0.53638 0.04698 0.0
H1881 H 0.52435 0.54471 0.94756 0.0
H1882 H 0.51794 0.47711 0.04908 0.0
H1883 H 0.48871 0.48345 0.04558 0.0
H1884 H 0.50628 0.5006 0.07066 0.0
H1885 H 0.53287 0.48821 0.92765 0.0
H1886 H 0.52437 0.51486 0.91127 0.0
H1887 H 0.50374 0.49394 0.92169 0.0
C1888 C 0.97589 0.4479 0.5104 0.0
C1889 C 0.99503 0.43445 0.50741 0.0
C1890 C 0.9776 0.47141 0.50943 0.0
C1891 C 0.99878 0.48149 0.50373 0.0
C1892 C 0.01814 0.46788 0.50072 0.0
C1893 C 0.01608 0.44452 0.50329 0.0
C1894 C 0.95674 0.48543 0.51411 0.0
C1895 C 0.04087 0.47791 0.49344 0.0
C1896 C 0.99822 0.54025 0.46832 0.0
C1897 C 0.00452 0.55318 0.49467 0.0
C1898 C 0.99681 0.51676 0.47071 0.0
C1899 C 0.00074 0.50626 0.50054 0.0
C1900 C 0.00677 0.51941 0.52731 0.0
C1901 C 0.00907 0.54269 0.52384 0.0
C1902 C 0.99123 0.5032 0.44134 0.0
C1903 C 0.01023 0.50897 0.55977 0.0
H1904 H 0.95963 0.44001 0.51343 0.0
H1905 H 0.03081 0.43403 0.5003 0.0
H1906 H 0.9597 0.49835 0.53271 0.0
H1907 H 0.95259 0.49438 0.49169 0.0
H1908 H 0.94203 0.4751 0.52119 0.0
H1909 H 0.05418 0.46493 0.49135 0.0
H1910 H 0.04006 0.48745 0.47072 0.0
H1911 H 0.04577 0.48993 0.51239 0.0
H1912 H 0.99466 0.54848 0.44582 0.0
H1913 H 0.01352 0.55284 0.54436 0.0
H1914 H 0.97499 0.49442 0.4447 0.0
H1915 H 0.00423 0.49014 0.43743 0.0
H1916 H 0.99007 0.51381 0.41961 0.0
H1917 H 0.99494 0.49956 0.56691 0.0
H1918 H 0.01398 0.52169 0.57839 0.0
H1919 H 0.02427 0.49676 0.55894 0.0
C1920 C 0.01473 0.46063 0.97232 0.0
C1921 C 0.00747 0.45037 0.00057 0.0
C1922 C 0.01247 0.48384 0.96782 0.0
C1923 C 0.0035 0.49716 0.99268 0.0
C1924 C 0.9973 0.48702 0.02197 0.0
C1925 C 0.9989 0.46361 0.02532 0.0
C1926 C 0.0186 0.49389 0.93591 0.0
C1927 C 0.98853 0.50081 0.0495 0.0
C1928 C 0.01438 0.55983 0.9893 0.0
C1929 C 0.99318 0.56811 0.98093 0.0
C1930 C 0.01795 0.53677 0.99348 0.0
C1931 C 0.0001 0.52162 0.98774 0.0
C1932 C 0.97891 0.5299 0.97777 0.0
C1933 C 0.97552 0.55317 0.97532 0.0
C1934 C 0.04047 0.52872 0.00544 0.0
C1935 C 0.95975 0.5142 0.97015 0.0
H1936 H 0.021 0.45035 0.95292 0.0
H1937 H 0.99325 0.45563 0.04713 0.0
H1938 H 0.00347 0.50147 0.92486 0.0
H1939 H 0.03108 0.50753 0.93902 0.0
H1940 H 0.02564 0.48123 0.91921 0.0
H1941 H 0.98661 0.49069 0.07158 0.0
H1942 H 4e-05 0.51504 0.05446 0.0
H1943 H 0.97195 0.50804 0.04324 0.0
H1944 H 0.02786 0.57154 0.99439 0.0
H1945 H 0.9591 0.55972 0.96913 0.0
H1946 H 0.04781 0.5164 0.98857 0.0
H1947 H 0.03829 0.52 0.02863 0.0
H1948 H 0.05259 0.54271 0.0087 0.0
H1949 H 0.96534 0.50116 0.95298 0.0
H1950 H 0.9451 0.52319 0.95989 0.0
H1951 H 0.95426 0.50543 0.99214 0.0
C1952 C 0.52163 0.46264 0.53161 0.0
C1953 C 0.51704 0.45129 0.50307 0.0
C1954 C 0.51857 0.48593 0.53406 0.0
C1955 C 0.51159 0.49822 0.50694 0.0
C1956 C 0.50793 0.48693 0.47763 0.0
C1957 C 0.51022 0.46347 0.47623 0.0
C1958 C 0.52191 0.49721 0.56597 0.0
C1959 C 0.50134 0.49958 0.44788 0.0
C1960 C 0.48271 0.55485 0.51571 0.0
C1961 C 0.50075 0.56963 0.51163 0.0
C1962 C 0.48613 0.5315 0.51534 0.0
C1963 C 0.50791 0.52287 0.50934 0.0
C1964 C 0.52615 0.5378 0.50523 0.0
C1965 C 0.52241 0.56101 0.50706 0.0
C1966 C 0.46641 0.51609 0.52103 0.0
C1967 C 0.54946 0.52932 0.49769 0.0
H1968 H 0.5265 0.45315 0.55256 0.0
H1969 H 0.50662 0.45464 0.45421 0.0
H1970 H 0.53475 0.51061 0.56404 0.0
H1971 H 0.50602 0.50532 0.57361 0.0
H1972 H 0.52724 0.4852 0.58478 0.0
H1973 H 0.50092 0.48857 0.42649 0.0
H1974 H 0.48449 0.50717 0.45107 0.0
H1975 H 0.51332 0.51351 0.44346 0.0
H1976 H 0.46597 0.56157 0.51916 0.0
H1977 H 0.53631 0.57246 0.50331 0.0
H1978 H 0.47047 0.50389 0.54019 0.0
H1979 H 0.4628 0.50631 0.49912 0.0
H1980 H 0.45101 0.52545 0.52789 0.0
H1981 H 0.5554 0.51794 0.51683 0.0
H1982 H 0.56179 0.54318 0.49495 0.0
H1983 H 0.5491 0.51944 0.47525 0.0
C1984 C 0.02611 0.34737 0.10331 0.0
C1985 C 0.03228 0.35783 0.07472 0.0
C1986 C 0.04225 0.33742 0.12305 0.0
C1987 C 0.0651 0.33758 0.11364 0.0
C1988 C 0.07166 0.34994 0.08633 0.0
C1989 C 0.05512 0.36008 0.06721 0.0
C1990 C 0.03452 0.32491 0.15241 0.0
C1991 C 0.09582 0.35066 0.07556 0.0
C1992 C 0.10253 0.31133 0.17652 0.0
C1993 C 0.10052 0.28858 0.1684 0.0
C1994 C 0.0927 0.32805 0.15735 0.0
C1995 C 0.08093 0.32173 0.12941 0.0
C1996 C 0.08117 0.299 0.11942 0.0
C1997 C 0.09076 0.28268 0.13922 0.0
C1998 C 0.09302 0.35207 0.16874 0.0
C1999 C 0.06934 0.29154 0.08937 0.0
H2000 H 0.00846 0.34578 0.10926 0.0
H2001 H 0.05994 0.36806 0.04499 0.0
H2002 H 0.03577 0.30657 0.14811 0.0
H2003 H 0.04539 0.32898 0.17309 0.0
H2004 H 0.01685 0.32894 0.1587 0.0
H2005 H 0.0989 0.36481 0.05886 0.0
H2006 H 0.10737 0.35223 0.09618 0.0
H2007 H 0.09995 0.33477 0.06304 0.0
H2008 H 0.10996 0.31593 0.1992 0.0
H2009 H 0.08935 0.26509 0.13285 0.0
H2010 H 0.07685 0.35591 0.18073 0.0
H2011 H 0.09489 0.36389 0.14848 0.0
H2012 H 0.10681 0.35505 0.18607 0.0
H2013 H 0.0509 0.29241 0.09305 0.0
H2014 H 0.07379 0.27405 0.08267 0.0
H2015 H 0.07358 0.30281 0.06919 0.0
C2016 C 0.90437 0.78915 0.3491 0.0
C2017 C 0.91086 0.78948 0.31707 0.0
C2018 C 0.91483 0.80345 0.37128 0.0
C2019 C 0.932 0.81828 0.36088 0.0
C2020 C 0.93672 0.82022 0.32793 0.0
C2021 C 0.92624 0.80559 0.30646 0.0
C2022 C 0.90925 0.80091 0.40618 0.0
C2023 C 0.95462 0.83596 0.31567 0.0
C2024 C 0.96098 0.85686 0.42083 0.0
C2025 C 0.97957 0.8437 0.42956 0.0
C2026 C 0.94534 0.84906 0.39817 0.0
C2027 C 0.9483 0.82757 0.3843 0.0
C2028 C 0.96734 0.81456 0.3924 0.0
C2029 C 0.98275 0.82285 0.41458 0.0
C2030 C 0.92544 0.86352 0.38963 0.0
C2031 C 0.97126 0.79155 0.37814 0.0
H2032 H 0.8925 0.77657 0.35718 0.0
H2033 H 0.93113 0.80579 0.28152 0.0
H2034 H 0.92256 0.79085 0.41797 0.0
H2035 H 0.90864 0.8175 0.41816 0.0
H2036 H 0.89292 0.79224 0.40976 0.0
H2037 H 0.95304 0.83882 0.28958 0.0
H2038 H 0.95382 0.85239 0.32809 0.0
H2039 H 0.97141 0.8286 0.32038 0.0
H2040 H 0.9583 0.87294 0.4323 0.0
H2041 H 0.99708 0.81253 0.42084 0.0
H2042 H 0.90974 0.85521 0.39754 0.0
H2043 H 0.92434 0.86558 0.36337 0.0
H2044 H 0.92636 0.8804 0.40082 0.0
H2045 H 0.95679 0.78043 0.38346 0.0
H2046 H 0.98674 0.78346 0.38743 0.0
H2047 H 0.97269 0.79283 0.35183 0.0
C2048 C 0.39152 0.70035 0.67569 0.0
C2049 C 0.39892 0.69696 0.70694 0.0
C2050 C 0.40161 0.68878 0.65022 0.0
C2051 C 0.4196 0.67378 0.65643 0.0
C2052 C 0.42513 0.66839 0.68835 0.0
C2053 C 0.41479 0.6802 0.71327 0.0
C2054 C 0.39495 0.69476 0.61658 0.0
C2055 C 0.44395 0.65234 0.69616 0.0
C2056 C 0.44882 0.64509 0.58634 0.0
C2057 C 0.46604 0.66053 0.57967 0.0
C2058 C 0.43371 0.64879 0.61168 0.0
C2059 C 0.43586 0.66839 0.63055 0.0
C2060 C 0.4537 0.68355 0.62459 0.0
C2061 C 0.46853 0.67938 0.59942 0.0
C2062 C 0.41508 0.63214 0.61755 0.0
C2063 C 0.45684 0.70459 0.6443 0.0
H2064 H 0.37942 0.71353 0.67088 0.0
H2065 H 0.42061 0.67779 0.73754 0.0
H2066 H 0.40743 0.70666 0.60655 0.0
H2067 H 0.39477 0.67964 0.60114 0.0
H2068 H 0.37815 0.70284 0.61573 0.0
H2069 H 0.44287 0.64628 0.72117 0.0
H2070 H 0.44381 0.63767 0.67988 0.0
H2071 H 0.46027 0.66106 0.69309 0.0
H2072 H 0.4467 0.6305 0.5712 0.0
H2073 H 0.48187 0.69133 0.59478 0.0
H2074 H 0.39879 0.63974 0.61064 0.0
H2075 H 0.414 0.62787 0.64326 0.0
H2076 H 0.41743 0.61643 0.60367 0.0
H2077 H 0.44177 0.71545 0.64223 0.0
H2078 H 0.47174 0.71447 0.63676 0.0
H2079 H 0.45882 0.70016 0.66984 0.0
C2080 C 0.60893 0.20683 0.83727 0.0
C2081 C 0.60154 0.20522 0.80573 0.0
C2082 C 0.59851 0.19417 0.86141 0.0
C2083 C 0.58022 0.17993 0.85355 0.0
C2084 C 0.57459 0.17643 0.82114 0.0
C2085 C 0.58527 0.18927 0.7976 0.0
C2086 C 0.60527 0.19815 0.89561 0.0
C2087 C 0.55537 0.16137 0.81156 0.0
C2088 C 0.54963 0.14762 0.91913 0.0
C2089 C 0.53248 0.16283 0.92709 0.0
C2090 C 0.56533 0.15272 0.89502 0.0
C2091 C 0.5638 0.17347 0.87869 0.0
C2092 C 0.5462 0.18857 0.88613 0.0
C2093 C 0.53079 0.18302 0.91001 0.0
C2094 C 0.58373 0.13614 0.88744 0.0
C2095 C 0.54379 0.21087 0.86922 0.0
H2096 H 0.62139 0.21936 0.84347 0.0
H2097 H 0.57952 0.18822 0.77309 0.0
H2098 H 0.59322 0.20999 0.90679 0.0
H2099 H 0.60482 0.1823 0.90947 0.0
H2100 H 0.62236 0.20553 0.89732 0.0
H2101 H 0.55627 0.15672 0.78593 0.0
H2102 H 0.55513 0.14581 0.82608 0.0
H2103 H 0.53927 0.1703 0.81569 0.0
H2104 H 0.55114 0.13201 0.9322 0.0
H2105 H 0.51757 0.19489 0.91569 0.0
H2106 H 0.60033 0.14382 0.89242 0.0
H2107 H 0.5834 0.13182 0.86171 0.0
H2108 H 0.58218 0.12044 0.90156 0.0
H2109 H 0.55914 0.22112 0.8728 0.0
H2110 H 0.52913 0.22067 0.87789 0.0
H2111 H 0.54182 0.20815 0.8432 0.0
C2112 C 0.05541 0.63328 0.41663 0.0
C2113 C 0.03297 0.63987 0.41266 0.0
C2114 C 0.07214 0.64093 0.39555 0.0
C2115 C 0.06613 0.65543 0.37018 0.0
C2116 C 0.04315 0.65975 0.36399 0.0
C2117 C 0.02687 0.65193 0.38534 0.0
C2118 C 0.09634 0.63529 0.40239 0.0
C2119 C 0.03583 0.67473 0.33681 0.0
C2120 C 0.0969 0.70787 0.3471 0.0
C2121 C 0.10261 0.70306 0.31548 0.0
C2122 C 0.08746 0.69139 0.36675 0.0
C2123 C 0.08324 0.66971 0.35413 0.0
C2124 C 0.09146 0.66408 0.32346 0.0
C2125 C 0.10118 0.68091 0.30439 0.0
C2126 C 0.07953 0.69804 0.39964 0.0
C2127 C 0.0878 0.64107 0.30938 0.0
H2128 H 0.06023 0.62383 0.43764 0.0
H2129 H 0.00947 0.65669 0.38188 0.0
H2130 H 0.10622 0.63382 0.38005 0.0
H2131 H 0.10388 0.64891 0.41693 0.0
H2132 H 0.09779 0.61937 0.41603 0.0
H2133 H 0.01738 0.67418 0.333 0.0
H2134 H 0.04068 0.69234 0.34207 0.0
H2135 H 0.04428 0.66974 0.31434 0.0
H2136 H 0.09815 0.72502 0.35564 0.0
H2137 H 0.10552 0.67723 0.27981 0.0
H2138 H 0.08398 0.68496 0.41736 0.0
H2139 H 0.06097 0.69973 0.39956 0.0
H2140 H 0.08688 0.71427 0.40746 0.0
H2141 H 0.08898 0.62782 0.32791 0.0
H2142 H 0.10017 0.63745 0.29022 0.0
H2143 H 0.07075 0.64024 0.29881 0.0
C2144 C 0.56615 0.79806 0.68407 0.0
C2145 C 0.58717 0.78748 0.68465 0.0
C2146 C 0.55923 0.81068 0.65776 0.0
C2147 C 0.57364 0.81269 0.6311 0.0
C2148 C 0.59573 0.80383 0.63271 0.0
C2149 C 0.60231 0.79128 0.65966 0.0
C2150 C 0.53563 0.82001 0.6574 0.0
C2151 C 0.61177 0.80611 0.60508 0.0
C2152 C 0.53894 0.81015 0.55619 0.0
C2153 C 0.53563 0.83295 0.54909 0.0
C2154 C 0.55272 0.80338 0.58137 0.0
C2155 C 0.5637 0.81979 0.60012 0.0
C2156 C 0.56184 0.84279 0.59174 0.0
C2157 C 0.54773 0.84914 0.56628 0.0
C2158 C 0.55421 0.77865 0.58923 0.0
C2159 C 0.57366 0.86075 0.61071 0.0
H2160 H 0.55462 0.79568 0.70381 0.0
H2161 H 0.6187 0.78336 0.66026 0.0
H2162 H 0.53561 0.83764 0.64897 0.0
H2163 H 0.52517 0.81007 0.64064 0.0
H2164 H 0.52764 0.81941 0.68133 0.0
H2165 H 0.62942 0.8032 0.61258 0.0
H2166 H 0.60746 0.79354 0.58654 0.0
H2167 H 0.61046 0.82299 0.59406 0.0
H2168 H 0.53019 0.7974 0.54257 0.0
H2169 H 0.54557 0.86678 0.56068 0.0
H2170 H 0.54562 0.77536 0.61226 0.0
H2171 H 0.57198 0.77345 0.59193 0.0
H2172 H 0.5463 0.76796 0.57065 0.0
H2173 H 0.56391 0.86438 0.63265 0.0
H2174 H 0.57524 0.8766 0.5969 0.0
H2175 H 0.59064 0.85513 0.6181 0.0
C2176 C 0.38751 0.28946 0.82824 0.0
C2177 C 0.39142 0.29448 0.79616 0.0
C2178 C 0.39885 0.30119 0.85243 0.0
C2179 C 0.41484 0.31782 0.84406 0.0
C2180 C 0.417 0.32446 0.81178 0.0
C2181 C 0.40521 0.31266 0.78815 0.0
C2182 C 0.39565 0.29393 0.88659 0.0
C2183 C 0.43379 0.34207 0.80172 0.0
C2184 C 0.44649 0.34752 0.91101 0.0
C2185 C 0.46512 0.3333 0.91475 0.0
C2186 C 0.43013 0.34317 0.88756 0.0
C2187 C 0.43254 0.32421 0.86746 0.0
C2188 C 0.45182 0.31043 0.87026 0.0
C2189 C 0.4678 0.31515 0.89378 0.0
C2190 C 0.40987 0.35828 0.88518 0.0
C2191 C 0.45529 0.29018 0.84907 0.0
H2192 H 0.37706 0.27517 0.83429 0.0
H2193 H 0.40846 0.31625 0.76321 0.0
H2194 H 0.40989 0.28304 0.8938 0.0
H2195 H 0.39544 0.30865 0.90279 0.0
H2196 H 0.37982 0.28431 0.88981 0.0
H2197 H 0.43018 0.34854 0.77741 0.0
H2198 H 0.43395 0.35635 0.81869 0.0
H2199 H 0.45085 0.33458 0.80159 0.0
H2200 H 0.44422 0.36155 0.92717 0.0
H2201 H 0.48224 0.30419 0.8962 0.0
H2202 H 0.39482 0.34915 0.89381 0.0
H2203 H 0.40669 0.36303 0.86 0.0
H2204 H 0.41185 0.37381 0.89958 0.0
H2205 H 0.44167 0.27781 0.85318 0.0
H2206 H 0.47164 0.28175 0.8535 0.0
H2207 H 0.45458 0.2952 0.82361 0.0
C2208 C 0.90161 0.19237 0.17482 0.0
C2209 C 0.90489 0.21479 0.16571 0.0
C2210 C 0.91231 0.17481 0.15834 0.0
C2211 C 0.92615 0.1799 0.13186 0.0
C2212 C 0.92745 0.20232 0.12063 0.0
C2213 C 0.91708 0.21954 0.13801 0.0
C2214 C 0.91053 0.15123 0.17123 0.0
C2215 C 0.94142 0.20843 0.09185 0.0
C2216 C 0.98096 0.15167 0.11183 0.0
C2217 C 0.97551 0.14073 0.08333 0.0
C2218 C 0.96438 0.16248 0.12992 0.0
C2219 C 0.94195 0.16289 0.11865 0.0
C2220 C 0.93601 0.14998 0.09159 0.0
C2221 C 0.9529 0.1388 0.07438 0.0
C2222 C 0.97132 0.17535 0.15934 0.0
C2223 C 0.91236 0.14995 0.07874 0.0
H2224 H 0.89242 0.1887 0.19653 0.0
H2225 H 0.9196 0.23689 0.13101 0.0
H2226 H 0.90974 0.13872 0.15166 0.0
H2227 H 0.92569 0.14746 0.18566 0.0
H2228 H 0.89554 0.14918 0.18673 0.0
H2229 H 0.93813 0.22586 0.08365 0.0
H2230 H 0.9595 0.20699 0.0979 0.0
H2231 H 0.938 0.19673 0.07185 0.0
H2232 H 0.99844 0.15311 0.11878 0.0
H2233 H 0.94866 0.13054 0.05213 0.0
H2234 H 0.95915 0.17259 0.17899 0.0
H2235 H 0.9715 0.19359 0.15392 0.0
H2236 H 0.98831 0.17042 0.16771 0.0
H2237 H 0.89986 0.14936 0.09832 0.0
H2238 H 0.90941 0.13552 0.06245 0.0
H2239 H 0.90947 0.16567 0.06515 0.0
C2240 C 0.94401 0.64677 0.90091 0.0
C2241 C 0.9468 0.66122 0.92695 0.0
C2242 C 0.93015 0.65306 0.87519 0.0
C2243 C 0.91912 0.67417 0.87585 0.0
C2244 C 0.91962 0.68719 0.90406 0.0
C2245 C 0.93358 0.68061 0.92916 0.0
C2246 C 0.92919 0.63826 0.84606 0.0
C2247 C 0.90772 0.70952 0.90629 0.0
C2248 C 0.92325 0.71272 0.8051 0.0
C2249 C 0.90075 0.71511 0.79571 0.0
C2250 C 0.92944 0.69827 0.82974 0.0
C2251 C 0.91277 0.68556 0.8456 0.0
C2252 C 0.89019 0.68662 0.83496 0.0
C2253 C 0.88438 0.70151 0.81011 0.0
C2254 C 0.9538 0.69772 0.83999 0.0
C2255 C 0.87196 0.67295 0.85062 0.0
H2256 H 0.95394 0.63155 0.89946 0.0
H2257 H 0.93526 0.69146 0.94982 0.0
H2258 H 0.91225 0.63875 0.83506 0.0
H2259 H 0.94141 0.64443 0.82811 0.0
H2260 H 0.93351 0.62059 0.85193 0.0
H2261 H 0.90696 0.71583 0.93121 0.0
H2262 H 0.9168 0.72209 0.89158 0.0
H2263 H 0.89038 0.7082 0.8969 0.0
H2264 H 0.9362 0.7226 0.79359 0.0
H2265 H 0.86701 0.70295 0.80269 0.0
H2266 H 0.96011 0.68021 0.84026 0.0
H2267 H 0.9554 0.70449 0.86455 0.0
H2268 H 0.9648 0.70777 0.82404 0.0
H2269 H 0.87851 0.6568 0.85996 0.0
H2270 H 0.85807 0.66944 0.83367 0.0
H2271 H 0.86488 0.68257 0.87092 0.0
C2272 C 0.06514 0.19424 0.68912 0.0
C2273 C 0.08421 0.20787 0.68643 0.0
C2274 C 0.05796 0.18089 0.66366 0.0
C2275 C 0.06998 0.18147 0.63458 0.0
C2276 C 0.09066 0.19325 0.63295 0.0
C2277 C 0.09762 0.20637 0.6591 0.0
C2278 C 0.03606 0.1683 0.66678 0.0
C2279 C 0.10423 0.19382 0.60261 0.0
C2280 C 0.04445 0.14616 0.56787 0.0
C2281 C 0.02977 0.16181 0.55397 0.0
C2282 C 0.05868 0.15243 0.59323 0.0
C2283 C 0.05809 0.17477 0.60487 0.0
C2284 C 0.04394 0.19074 0.59006 0.0
C2285 C 0.03006 0.18408 0.56496 0.0
C2286 C 0.07365 0.13495 0.60823 0.0
C2287 C 0.04271 0.2148 0.60152 0.0
H2288 H 0.05505 0.19501 0.71064 0.0
H2289 H 0.11253 0.21674 0.65718 0.0
H2290 H 0.02268 0.1776 0.65394 0.0
H2291 H 0.03736 0.15139 0.6559 0.0
H2292 H 0.03086 0.16642 0.69209 0.0
H2293 H 0.12182 0.19915 0.60713 0.0
H2294 H 0.10434 0.17712 0.59088 0.0
H2295 H 0.09651 0.20595 0.58577 0.0
H2296 H 0.04453 0.12897 0.55939 0.0
H2297 H 0.01918 0.19651 0.55414 0.0
H2298 H 0.06567 0.12865 0.6304 0.0
H2299 H 0.09018 0.14219 0.61481 0.0
H2300 H 0.07638 0.12044 0.59204 0.0
H2301 H 0.03598 0.21528 0.6262 0.0
H2302 H 0.03177 0.22539 0.58621 0.0
H2303 H 0.05971 0.22238 0.602 0.0
C2304 C 0.54294 0.35876 0.40061 0.0
C2305 C 0.54871 0.3594 0.43291 0.0
C2306 C 0.55651 0.34738 0.37852 0.0
C2307 C 0.57583 0.33578 0.38936 0.0
C2308 C 0.58288 0.33837 0.42142 0.0
C2309 C 0.56922 0.35031 0.44286 0.0
C2310 C 0.54868 0.34559 0.34439 0.0
C2311 C 0.60331 0.32632 0.43403 0.0
C2312 C 0.58197 0.2792 0.34922 0.0
C2313 C 0.5986 0.28335 0.32627 0.0
C2314 C 0.57521 0.29589 0.37069 0.0
C2315 C 0.58533 0.31739 0.36938 0.0
C2316 C 0.60305 0.32136 0.34759 0.0
C2317 C 0.6095 0.30427 0.32623 0.0
C2318 C 0.5564 0.29075 0.3938 0.0
C2319 C 0.6144 0.34397 0.34565 0.0
H2320 H 0.52692 0.3656 0.39308 0.0
H2321 H 0.57344 0.3505 0.46802 0.0
H2322 H 0.56304 0.34709 0.32768 0.0
H2323 H 0.54086 0.32889 0.34056 0.0
H2324 H 0.53609 0.35871 0.33848 0.0
H2325 H 0.60917 0.33367 0.45691 0.0
H2326 H 0.59906 0.30842 0.43825 0.0
H2327 H 0.61727 0.32683 0.41652 0.0
H2328 H 0.57362 0.26303 0.34979 0.0
H2329 H 0.62238 0.30767 0.30861 0.0
H2330 H 0.54151 0.30115 0.38792 0.0
H2331 H 0.56155 0.29501 0.41849 0.0
H2332 H 0.55134 0.2728 0.39317 0.0
H2333 H 0.60291 0.35614 0.33405 0.0
H2334 H 0.63019 0.34324 0.3316 0.0
H2335 H 0.61823 0.35049 0.36983 0.0
C2336 C 0.44294 0.85227 0.06008 0.0
C2337 C 0.46546 0.85448 0.06922 0.0
C2338 C 0.42772 0.84016 0.0791 0.0
C2339 C 0.43523 0.83054 0.10809 0.0
C2340 C 0.45734 0.83493 0.11891 0.0
C2341 C 0.4723 0.84655 0.09908 0.0
C2342 C 0.40439 0.8358 0.06658 0.0
C2343 C 0.46585 0.8256 0.15013 0.0
C2344 C 0.39785 0.80199 0.16927 0.0
C2345 C 0.40341 0.77938 0.16413 0.0
C2346 C 0.40699 0.81901 0.14999 0.0
C2347 C 0.42161 0.81314 0.12469 0.0
C2348 C 0.42553 0.79018 0.11771 0.0
C2349 C 0.41665 0.7736 0.1378 0.0
C2350 C 0.40255 0.84322 0.15846 0.0
C2351 C 0.44047 0.78312 0.09037 0.0
H2352 H 0.43773 0.85815 0.03675 0.0
H2353 H 0.48974 0.84826 0.10607 0.0
H2354 H 0.40365 0.81857 0.05655 0.0
H2355 H 0.39176 0.83682 0.08597 0.0
H2356 H 0.39972 0.84784 0.04746 0.0
H2357 H 0.48207 0.83332 0.15729 0.0
H2358 H 0.45341 0.82842 0.16942 0.0
H2359 H 0.46836 0.80721 0.14783 0.0
H2360 H 0.38779 0.80653 0.18984 0.0
H2361 H 0.42086 0.75612 0.13374 0.0
H2362 H 0.39976 0.85348 0.13674 0.0
H2363 H 0.41743 0.85019 0.17091 0.0
H2364 H 0.38777 0.845 0.17443 0.0
H2365 H 0.43588 0.79232 0.06831 0.0
H2366 H 0.43941 0.76481 0.08559 0.0
H2367 H 0.45817 0.78733 0.09605 0.0
C2368 C 0.93972 0.32658 0.55694 0.0
C2369 C 0.95831 0.33977 0.565 0.0
C2370 C 0.92644 0.31664 0.58064 0.0
C2371 C 0.93218 0.31982 0.61307 0.0
C2372 C 0.94957 0.33506 0.62124 0.0
C2373 C 0.9626 0.34479 0.59696 0.0
C2374 C 0.90794 0.30076 0.57083 0.0
C2375 C 0.95604 0.33913 0.65554 0.0
C2376 C 0.89822 0.29332 0.68041 0.0
C2377 C 0.91081 0.27383 0.68637 0.0
C2378 C 0.90449 0.30832 0.65601 0.0
C2379 C 0.92378 0.30368 0.63737 0.0
C2380 C 0.93584 0.2835 0.64236 0.0
C2381 C 0.92916 0.26885 0.66662 0.0
C2382 C 0.89107 0.32952 0.65111 0.0
C2383 C 0.95639 0.27769 0.62282 0.0
H2384 H 0.9366 0.32264 0.53206 0.0
H2385 H 0.97715 0.35486 0.60303 0.0
H2386 H 0.91403 0.28321 0.57294 0.0
H2387 H 0.89312 0.30255 0.58665 0.0
H2388 H 0.90262 0.30362 0.54576 0.0
H2389 H 0.96685 0.35422 0.65812 0.0
H2390 H 0.94089 0.34125 0.67064 0.0
H2391 H 0.96542 0.32437 0.66466 0.0
H2392 H 0.88406 0.29735 0.69562 0.0
H2393 H 0.93884 0.25372 0.67074 0.0
H2394 H 0.88776 0.33235 0.62539 0.0
H2395 H 0.90085 0.3441 0.65992 0.0
H2396 H 0.8748 0.32904 0.66405 0.0
H2397 H 0.95214 0.27752 0.59707 0.0
H2398 H 0.96353 0.26107 0.62926 0.0
H2399 H 0.96955 0.29062 0.62643 0.0
C2400 C 0.39656 0.19729 0.32478 0.0
C2401 C 0.40268 0.2196 0.33117 0.0
C2402 C 0.40503 0.17954 0.34335 0.0
C2403 C 0.41959 0.18435 0.36914 0.0
C2404 C 0.42399 0.20701 0.37744 0.0
C2405 C 0.41572 0.22433 0.3581 0.0
C2406 C 0.39998 0.15569 0.33357 0.0
C2407 C 0.43888 0.21296 0.40535 0.0
C2408 C 0.4402 0.14436 0.43287 0.0
C2409 C 0.46286 0.14252 0.4242 0.0
C2410 C 0.42503 0.15634 0.41364 0.0
C2411 C 0.43274 0.16622 0.38494 0.0
C2412 C 0.45489 0.16182 0.37427 0.0
C2413 C 0.4698 0.15031 0.39431 0.0
C2414 C 0.4016 0.16058 0.42593 0.0
C2415 C 0.46361 0.17135 0.34329 0.0
H2416 H 0.38664 0.19353 0.30377 0.0
H2417 H 0.42037 0.24157 0.36317 0.0
H2418 H 0.4145 0.14886 0.32011 0.0
H2419 H 0.39735 0.1448 0.3547 0.0
H2420 H 0.3849 0.15473 0.31803 0.0
H2421 H 0.43829 0.23118 0.41101 0.0
H2422 H 0.43382 0.20338 0.42687 0.0
H2423 H 0.4565 0.20838 0.39974 0.0
H2424 H 0.4349 0.13861 0.45623 0.0
H2425 H 0.48736 0.14895 0.38771 0.0
H2426 H 0.38916 0.16029 0.40626 0.0
H2427 H 0.40095 0.17747 0.43706 0.0
H2428 H 0.39665 0.14799 0.44418 0.0
H2429 H 0.45113 0.16905 0.32393 0.0
H2430 H 0.47967 0.16338 0.33597 0.0
H2431 H 0.46652 0.18965 0.34611 0.0
C2432 C 0.53841 0.64124 0.10766 0.0
C2433 C 0.54444 0.63309 0.07754 0.0
C2434 C 0.55407 0.65235 0.12692 0.0
C2435 C 0.57621 0.65567 0.11549 0.0
C2436 C 0.58305 0.64513 0.08679 0.0
C2437 C 0.56701 0.63383 0.06809 0.0
C2438 C 0.54614 0.66278 0.15776 0.0
C2439 C 0.60657 0.64784 0.07406 0.0
C2440 C 0.59429 0.71387 0.1394 0.0
C2441 C 0.60599 0.70963 0.16773 0.0
C2442 C 0.58636 0.69623 0.12041 0.0
C2443 C 0.59007 0.67375 0.13015 0.0
C2444 C 0.60386 0.66937 0.15693 0.0
C2445 C 0.61174 0.68743 0.17546 0.0
C2446 C 0.57216 0.70176 0.0916 0.0
C2447 C 0.60862 0.6457 0.16777 0.0
H2448 H 0.52097 0.64051 0.11504 0.0
H2449 H 0.57171 0.6276 0.04472 0.0
H2450 H 0.55853 0.6599 0.17706 0.0
H2451 H 0.5444 0.6812 0.15455 0.0
H2452 H 0.52964 0.65596 0.16546 0.0
H2453 H 0.61083 0.63434 0.0568 0.0
H2454 H 0.60792 0.6642 0.06154 0.0
H2455 H 0.61908 0.64776 0.09365 0.0
H2456 H 0.59011 0.73102 0.13307 0.0
H2457 H 0.62083 0.68403 0.19733 0.0
H2458 H 0.55436 0.69755 0.09666 0.0
H2459 H 0.57752 0.69164 0.07074 0.0
H2460 H 0.57312 0.71982 0.08514 0.0
H2461 H 0.59418 0.63947 0.18197 0.0
H2462 H 0.62385 0.64493 0.183 0.0
H2463 H 0.61084 0.63424 0.14715 0.0
C2464 C 0.1045 0.78072 0.84482 0.0
C2465 C 0.0882 0.77278 0.82349 0.0
C2466 C 0.09833 0.79421 0.87108 0.0
C2467 C 0.07543 0.79988 0.87572 0.0
C2468 C 0.05921 0.79287 0.85319 0.0
C2469 C 0.06578 0.77943 0.82758 0.0
C2470 C 0.11613 0.80152 0.89443 0.0
C2471 C 0.03461 0.79866 0.85684 0.0
C2472 C 0.045 0.80517 0.95351 0.0
C2473 C 0.03824 0.82772 0.9527 0.0
C2474 C 0.05951 0.79641 0.93044 0.0
C2475 C 0.06736 0.81052 0.90571 0.0
C2476 C 0.06257 0.83385 0.90674 0.0
C2477 C 0.04801 0.84225 0.93038 0.0
C2478 C 0.06439 0.77152 0.93066 0.0
C2479 C 0.07109 0.84953 0.88124 0.0
H2480 H 0.1219 0.7759 0.84155 0.0
H2481 H 0.05311 0.77397 0.81072 0.0
H2482 H 0.11301 0.81888 0.90294 0.0
H2483 H 0.11577 0.79028 0.91552 0.0
H2484 H 0.13319 0.80066 0.88375 0.0
H2485 H 0.02445 0.79318 0.83603 0.0
H2486 H 0.02778 0.79042 0.87851 0.0
H2487 H 0.03247 0.81703 0.85981 0.0
H2488 H 0.038 0.794 0.97136 0.0
H2489 H 0.0431 0.85977 0.93001 0.0
H2490 H 0.08235 0.7683 0.92541 0.0
H2491 H 0.05431 0.76318 0.91182 0.0
H2492 H 0.06015 0.76367 0.95393 0.0
H2493 H 0.08856 0.84522 0.87434 0.0
H2494 H 0.07054 0.86731 0.8892 0.0
H2495 H 0.06043 0.84787 0.85968 0.0
loop_
_geom_bond_atom_site_label_1
_geom_bond_atom_site_label_2
_geom_bond_distance
_geom_bond_site_symmetry_2
_ccdc_geom_bond_type
Co0 O1 2.216 . S
Co0 O2 2.091 . S
Co0 O4 2.004 . S
Co0 O10 2.021 . S
Co0 O12 2.137 . S
Co0 O13 2.244 . S
O1 Co0 2.216 . S
O1 C8 1.247 . S
O2 Co0 2.091 . S
O2 C8 1.261 . S
C3 O12 1.247 . S
C3 O13 1.272 . S
O4 Co0 2.004 . S
O4 C9 1.259 . S
Co5 O6 2.061 . S
Co5 O11 2.052 . S
Co5 O13 2.135 . S
O6 Co5 2.061 . S
O6 C9 1.235 . S
C7 O10 1.238 . S
C7 O11 1.241 . S
C8 O1 1.247 . S
C8 O2 1.261 . S
C9 O4 1.259 . S
C9 O6 1.235 . S
O10 Co0 2.021 . S
O10 C7 1.238 . S
O11 Co5 2.052 . S
O11 C7 1.241 . S
O12 Co0 2.137 . S
O12 C3 1.247 . S
O13 Co0 2.244 . S
O13 C3 1.272 . S
O13 Co5 2.135 . S
Co14 O15 2.216 . S
Co14 O16 2.091 . S
Co14 O18 2.004 . S
Co14 O24 2.021 . S
Co14 O26 2.137 . S
Co14 O27 2.244 . S
O15 Co14 2.216 . S
O15 C22 1.247 . S
O16 Co14 2.091 . S
O16 C22 1.261 . S
C17 O26 1.247 . S
C17 O27 1.272 . S
O18 Co14 2.004 . S
O18 C23 1.259 . S
Co19 O20 2.061 . S
Co19 O25 2.052 . S
Co19 O27 2.135 . S
O20 Co19 2.061 . S
O20 C23 1.235 . S
C21 O24 1.238 . S
C21 O25 1.241 . S
C22 O15 1.247 . S
C22 O16 1.261 . S
C23 O18 1.259 . S
C23 O20 1.235 . S
O24 Co14 2.021 . S
O24 C21 1.238 . S
O25 Co19 2.052 . S
O25 C21 1.241 . S
O26 Co14 2.137 . S
O26 C17 1.247 . S
O27 Co14 2.244 . S
O27 C17 1.272 . S
O27 Co19 2.135 . S
Co28 O29 2.216 . S
Co28 O30 2.091 . S
Co28 O32 2.004 . S
Co28 O38 2.021 . S
Co28 O40 2.137 . S
Co28 O41 2.244 . S
O29 Co28 2.216 . S
O29 C36 1.247 . S
O30 Co28 2.091 . S
O30 C36 1.261 . S
C31 O40 1.247 . S
C31 O41 1.272 . S
O32 Co28 2.004 . S
O32 C37 1.259 . S
Co33 O34 2.061 . S
Co33 O39 2.052 . S
Co33 O41 2.135 . S
O34 Co33 2.061 . S
O34 C37 1.235 . S
C35 O38 1.238 . S
C35 O39 1.241 . S
C36 O29 1.247 . S
C36 O30 1.261 . S
C37 O32 1.259 . S
C37 O34 1.235 . S
O38 Co28 2.021 . S
O38 C35 1.238 . S
O39 Co33 2.052 . S
O39 C35 1.241 . S
O40 Co28 2.137 . S
O40 C31 1.247 . S
O41 Co28 2.244 . S
O41 C31 1.272 . S
O41 Co33 2.135 . S
Co42 O43 2.216 . S
Co42 O44 2.091 . S
Co42 O46 2.004 . S
Co42 O52 2.021 . S
Co42 O54 2.137 . S
Co42 O55 2.244 . S
O43 Co42 2.216 . S
O43 C50 1.247 . S
O44 Co42 2.091 . S
O44 C50 1.261 . S
C45 O54 1.247 . S
C45 O55 1.272 . S
O46 Co42 2.004 . S
O46 C51 1.259 . S
Co47 O48 2.061 . S
Co47 O53 2.052 1_554 S
Co47 O55 2.135 . S
O48 Co47 2.061 . S
O48 C51 1.235 . S
C49 O52 1.238 1_556 S
C49 O53 1.241 . S
C50 O43 1.247 . S
C50 O44 1.261 . S
C51 O46 1.259 . S
C51 O48 1.235 . S
O52 Co42 2.021 . S
O52 C49 1.238 1_554 S
O53 Co47 2.052 1_556 S
O53 C49 1.241 . S
O54 Co42 2.137 . S
O54 C45 1.247 . S
O55 Co42 2.244 . S
O55 C45 1.272 . S
O55 Co47 2.135 . S
Co56 O57 2.216 . S
Co56 O58 2.091 . S
Co56 O60 2.004 . S
Co56 O66 2.021 . S
Co56 O68 2.137 . S
Co56 O69 2.244 . S
O57 Co56 2.216 . S
O57 C64 1.247 . S
O58 Co56 2.091 . S
O58 C64 1.261 . S
C59 O68 1.247 . S
C59 O69 1.272 . S
O60 Co56 2.004 . S
O60 C65 1.259 . S
Co61 O62 2.061 . S
Co61 O67 2.052 . S
Co61 O69 2.135 . S
O62 Co61 2.061 . S
O62 C65 1.235 . S
C63 O66 1.238 . S
C63 O67 1.241 . S
C64 O57 1.247 . S
C64 O58 1.261 . S
C65 O60 1.259 . S
C65 O62 1.235 . S
O66 Co56 2.021 . S
O66 C63 1.238 . S
O67 Co61 2.052 . S
O67 C63 1.241 . S
O68 Co56 2.137 . S
O68 C59 1.247 . S
O69 Co56 2.244 . S
O69 C59 1.272 . S
O69 Co61 2.135 . S
Co70 O71 2.216 . S
Co70 O72 2.091 . S
Co70 O74 2.004 . S
Co70 O80 2.021 . S
Co70 O82 2.137 . S
Co70 O83 2.244 . S
O71 Co70 2.216 . S
O71 C78 1.247 . S
O72 Co70 2.091 . S
O72 C78 1.261 . S
C73 O82 1.247 . S
C73 O83 1.272 . S
O74 Co70 2.004 . S
O74 C79 1.259 . S
Co75 O76 2.061 . S
Co75 O81 2.052 . S
Co75 O83 2.135 . S
O76 Co75 2.061 . S
O76 C79 1.235 . S
C77 O80 1.238 . S
C77 O81 1.241 . S
C78 O71 1.247 . S
C78 O72 1.261 . S
C79 O74 1.259 . S
C79 O76 1.235 . S
O80 Co70 2.021 . S
O80 C77 1.238 . S
O81 Co75 2.052 . S
O81 C77 1.241 . S
O82 Co70 2.137 . S
O82 C73 1.247 . S
O83 Co70 2.244 . S
O83 C73 1.272 . S
O83 Co75 2.135 . S
Co84 O85 2.216 . S
Co84 O86 2.091 . S
Co84 O88 2.004 . S
Co84 O94 2.021 . S
Co84 O96 2.137 . S
Co84 O97 2.244 . S
O85 Co84 2.216 . S
O85 C92 1.247 . S
O86 Co84 2.091 . S
O86 C92 1.261 . S
C87 O96 1.247 . S
C87 O97 1.272 . S
O88 Co84 2.004 . S
O88 C93 1.259 . S
Co89 O90 2.061 . S
Co89 O95 2.052 . S
Co89 O97 2.135 . S
O90 Co89 2.061 . S
O90 C93 1.235 . S
C91 O94 1.238 . S
C91 O95 1.241 . S
C92 O85 1.247 . S
C92 O86 1.261 . S
C93 O88 1.259 . S
C93 O90 1.235 . S
O94 Co84 2.021 . S
O94 C91 1.238 . S
O95 Co89 2.052 . S
O95 C91 1.241 . S
O96 Co84 2.137 . S
O96 C87 1.247 . S
O97 Co84 2.244 . S
O97 C87 1.272 . S
O97 Co89 2.135 . S
Co98 O99 2.216 . S
Co98 O100 2.091 . S
Co98 O102 2.004 . S
Co98 O108 2.021 . S
Co98 O110 2.137 . S
Co98 O111 2.244 . S
O99 Co98 2.216 . S
O99 C106 1.247 . S
O100 Co98 2.091 . S
O100 C106 1.261 . S
C101 O110 1.247 . S
C101 O111 1.272 . S
O102 Co98 2.004 . S
O102 C107 1.259 . S
Co103 O104 2.061 . S
Co103 O109 2.052 1_556 S
Co103 O111 2.135 . S
O104 Co103 2.061 . S
O104 C107 1.235 . S
C105 O108 1.238 1_554 S
C105 O109 1.241 . S
C106 O99 1.247 . S
C106 O100 1.261 . S
C107 O102 1.259 . S
C107 O104 1.235 . S
O108 Co98 2.021 . S
O108 C105 1.238 1_556 S
O109 Co103 2.052 1_554 S
O109 C105 1.241 . S
O110 Co98 2.137 . S
O110 C101 1.247 . S
O111 Co98 2.244 . S
O111 C101 1.272 . S
O111 Co103 2.135 . S
Co112 O113 2.216 . S
Co112 O114 2.091 . S
Co112 O116 2.004 . S
Co112 O122 2.021 . S
Co112 O124 2.137 . S
Co112 O125 2.244 . S
O113 Co112 2.216 . S
O113 C120 1.247 . S
O114 Co112 2.091 . S
O114 C120 1.261 . S
C115 O124 1.247 . S
C115 O125 1.272 . S
O116 Co112 2.004 . S
O116 C121 1.259 . S
Co117 O118 2.061 . S
Co117 O123 2.052 . S
Co117 O125 2.135 . S
O118 Co117 2.061 . S
O118 C121 1.235 . S
C119 O122 1.238 . S
C119 O123 1.241 . S
C120 O113 1.247 . S
C120 O114 1.261 . S
C121 O116 1.259 . S
C121 O118 1.235 . S
O122 Co112 2.021 . S
O122 C119 1.238 . S
O123 Co117 2.052 . S
O123 C119 1.241 . S
O124 Co112 2.137 . S
O124 C115 1.247 . S
O125 Co112 2.244 . S
O125 C115 1.272 . S
O125 Co117 2.135 . S
Co126 O127 2.216 . S
Co126 O128 2.091 . S
Co126 O130 2.004 . S
Co126 O136 2.021 . S
Co126 O138 2.137 . S
Co126 O139 2.244 . S
O127 Co126 2.216 . S
O127 C134 1.247 . S
O128 Co126 2.091 . S
O128 C134 1.261 . S
C129 O138 1.247 . S
C129 O139 1.272 . S
O130 Co126 2.004 . S
O130 C135 1.259 . S
Co131 O132 2.061 . S
Co131 O137 2.052 . S
Co131 O139 2.135 . S
O132 Co131 2.061 . S
O132 C135 1.235 . S
C133 O136 1.238 . S
C133 O137 1.241 . S
C134 O127 1.247 . S
C134 O128 1.261 . S
C135 O130 1.259 . S
C135 O132 1.235 . S
O136 Co126 2.021 . S
O136 C133 1.238 . S
O137 Co131 2.052 . S
O137 C133 1.241 . S
O138 Co126 2.137 . S
O138 C129 1.247 . S
O139 Co126 2.244 . S
O139 C129 1.272 . S
O139 Co131 2.135 . S
Co140 O141 2.216 . S
Co140 O142 2.091 . S
Co140 O144 2.004 . S
Co140 O150 2.021 . S
Co140 O152 2.137 . S
Co140 O153 2.244 . S
O141 Co140 2.216 . S
O141 C148 1.247 . S
O142 Co140 2.091 . S
O142 C148 1.261 . S
C143 O152 1.247 . S
C143 O153 1.272 . S
O144 Co140 2.004 . S
O144 C149 1.259 . S
Co145 O146 2.061 . S
Co145 O151 2.052 . S
Co145 O153 2.135 . S
O146 Co145 2.061 . S
O146 C149 1.235 . S
C147 O150 1.238 . S
C147 O151 1.241 . S
C148 O141 1.247 . S
C148 O142 1.261 . S
C149 O144 1.259 . S
C149 O146 1.235 . S
O150 Co140 2.021 . S
O150 C147 1.238 . S
O151 Co145 2.052 . S
O151 C147 1.241 . S
O152 Co140 2.137 . S
O152 C143 1.247 . S
O153 Co140 2.244 . S
O153 C143 1.272 . S
O153 Co145 2.135 . S
Co154 O155 2.216 . S
Co154 O156 2.091 . S
Co154 O158 2.004 . S
Co154 O164 2.021 . S
Co154 O166 2.137 . S
Co154 O167 2.244 . S
O155 Co154 2.216 . S
O155 C162 1.247 . S
O156 Co154 2.091 . S
O156 C162 1.261 . S
C157 O166 1.247 . S
C157 O167 1.272 . S
O158 Co154 2.004 . S
O158 C163 1.259 . S
Co159 O160 2.061 . S
Co159 O165 2.052 1_556 S
Co159 O167 2.135 . S
O160 Co159 2.061 . S
O160 C163 1.235 . S
C161 O164 1.238 1_554 S
C161 O165 1.241 . S
C162 O155 1.247 . S
C162 O156 1.261 . S
C163 O158 1.259 . S
C163 O160 1.235 . S
O164 Co154 2.021 . S
O164 C161 1.238 1_556 S
O165 Co159 2.052 1_554 S
O165 C161 1.241 . S
O166 Co154 2.137 . S
O166 C157 1.247 . S
O167 Co154 2.244 . S
O167 C157 1.272 . S
O167 Co159 2.135 . S
Co168 O169 2.216 . S
Co168 O170 2.091 . S
Co168 O172 2.004 . S
Co168 O178 2.021 . S
Co168 O180 2.137 . S
Co168 O181 2.244 . S
O169 Co168 2.216 . S
O169 C176 1.247 . S
O170 Co168 2.091 . S
O170 C176 1.261 . S
C171 O180 1.247 . S
C171 O181 1.272 . S
O172 Co168 2.004 . S
O172 C177 1.259 . S
Co173 O174 2.061 . S
Co173 O179 2.052 . S
Co173 O181 2.135 . S
O174 Co173 2.061 . S
O174 C177 1.235 . S
C175 O178 1.238 . S
C175 O179 1.241 . S
C176 O169 1.247 . S
C176 O170 1.261 . S
C177 O172 1.259 . S
C177 O174 1.235 . S
O178 Co168 2.021 . S
O178 C175 1.238 . S
O179 Co173 2.052 . S
O179 C175 1.241 . S
O180 Co168 2.137 . S
O180 C171 1.247 . S
O181 Co168 2.244 . S
O181 C171 1.272 . S
O181 Co173 2.135 . S
Co182 O183 2.216 . S
Co182 O184 2.091 . S
Co182 O186 2.004 . S
Co182 O192 2.021 . S
Co182 O194 2.137 . S
Co182 O195 2.244 . S
O183 Co182 2.216 . S
O183 C190 1.247 . S
O184 Co182 2.091 . S
O184 C190 1.261 . S
C185 O194 1.247 . S
C185 O195 1.272 . S
O186 Co182 2.004 . S
O186 C191 1.259 . S
Co187 O188 2.061 . S
Co187 O193 2.052 . S
Co187 O195 2.135 . S
O188 Co187 2.061 . S
O188 C191 1.235 . S
C189 O192 1.238 . S
C189 O193 1.241 . S
C190 O183 1.247 . S
C190 O184 1.261 . S
C191 O186 1.259 . S
C191 O188 1.235 . S
O192 Co182 2.021 . S
O192 C189 1.238 . S
O193 Co187 2.052 . S
O193 C189 1.241 . S
O194 Co182 2.137 . S
O194 C185 1.247 . S
O195 Co182 2.244 . S
O195 C185 1.272 . S
O195 Co187 2.135 . S
Co196 O197 2.216 . S
Co196 O198 2.091 . S
Co196 O200 2.004 . S
Co196 O206 2.021 . S
Co196 O208 2.137 . S
Co196 O209 2.244 . S
O197 Co196 2.216 . S
O197 C204 1.247 . S
O198 Co196 2.091 . S
O198 C204 1.261 . S
C199 O208 1.247 . S
C199 O209 1.272 . S
O200 Co196 2.004 . S
O200 C205 1.259 . S
Co201 O202 2.061 . S
Co201 O207 2.052 . S
Co201 O209 2.135 . S
O202 Co201 2.061 . S
O202 C205 1.235 . S
C203 O206 1.238 . S
C203 O207 1.241 . S
C204 O197 1.247 . S
C204 O198 1.261 . S
C205 O200 1.259 . S
C205 O202 1.235 . S
O206 Co196 2.021 . S
O206 C203 1.238 . S
O207 Co201 2.052 . S
O207 C203 1.241 . S
O208 Co196 2.137 . S
O208 C199 1.247 . S
O209 Co196 2.244 . S
O209 C199 1.272 . S
O209 Co201 2.135 . S
Co210 O211 2.216 . S
Co210 O212 2.091 . S
Co210 O214 2.004 . S
Co210 O220 2.021 . S
Co210 O222 2.137 . S
Co210 O223 2.244 . S
O211 Co210 2.216 . S
O211 C218 1.247 . S
O212 Co210 2.091 . S
O212 C218 1.261 . S
C213 O222 1.247 . S
C213 O223 1.272 . S
O214 Co210 2.004 . S
O214 C219 1.259 . S
Co215 O216 2.061 . S
Co215 O221 2.052 1_554 S
Co215 O223 2.135 . S
O216 Co215 2.061 . S
O216 C219 1.235 . S
C217 O220 1.238 1_556 S
C217 O221 1.241 . S
C218 O211 1.247 . S
C218 O212 1.261 . S
C219 O214 1.259 . S
C219 O216 1.235 . S
O220 Co210 2.021 . S
O220 C217 1.238 1_554 S
O221 Co215 2.052 1_556 S
O221 C217 1.241 . S
O222 Co210 2.137 . S
O222 C213 1.247 . S
O223 Co210 2.244 . S
O223 C213 1.272 . S
O223 Co215 2.135 . S
Co224 O225 2.216 . S
Co224 O226 2.091 . S
Co224 O228 2.004 . S
Co224 O234 2.021 . S
Co224 O236 2.137 . S
Co224 O237 2.244 . S
O225 Co224 2.216 . S
O225 C232 1.247 . S
O226 Co224 2.091 . S
O226 C232 1.261 . S
C227 O236 1.247 . S
C227 O237 1.272 . S
O228 Co224 2.004 . S
O228 C233 1.259 . S
Co229 O230 2.061 . S
Co229 O235 2.052 . S
Co229 O237 2.135 . S
O230 Co229 2.061 . S
O230 C233 1.235 . S
C231 O234 1.238 . S
C231 O235 1.241 . S
C232 O225 1.247 . S
C232 O226 1.261 . S
C233 O228 1.259 . S
C233 O230 1.235 . S
O234 Co224 2.021 . S
O234 C231 1.238 . S
O235 Co229 2.052 . S
O235 C231 1.241 . S
O236 Co224 2.137 . S
O236 C227 1.247 . S
O237 Co224 2.244 . S
O237 C227 1.272 . S
O237 Co229 2.135 . S
Co238 O239 2.216 . S
Co238 O240 2.091 . S
Co238 O242 2.004 . S
Co238 O248 2.021 . S
Co238 O250 2.137 . S
Co238 O251 2.244 . S
O239 Co238 2.216 . S
O239 C246 1.247 . S
O240 Co238 2.091 . S
O240 C246 1.261 . S
C241 O250 1.247 . S
C241 O251 1.272 . S
O242 Co238 2.004 . S
O242 C247 1.259 . S
Co243 O244 2.061 . S
Co243 O249 2.052 1_554 S
Co243 O251 2.135 . S
O244 Co243 2.061 . S
O244 C247 1.235 . S
C245 O248 1.238 1_556 S
C245 O249 1.241 . S
C246 O239 1.247 . S
C246 O240 1.261 . S
C247 O242 1.259 . S
C247 O244 1.235 . S
O248 Co238 2.021 . S
O248 C245 1.238 1_554 S
O249 Co243 2.052 1_556 S
O249 C245 1.241 . S
O250 Co238 2.137 . S
O250 C241 1.247 . S
O251 Co238 2.244 . S
O251 C241 1.272 . S
O251 Co243 2.135 . S
Co252 O253 2.216 . S
Co252 O254 2.091 . S
Co252 O256 2.004 . S
Co252 O262 2.021 . S
Co252 O264 2.137 . S
Co252 O265 2.244 . S
O253 Co252 2.216 . S
O253 C260 1.247 . S
O254 Co252 2.091 . S
O254 C260 1.261 . S
C255 O264 1.247 . S
C255 O265 1.272 . S
O256 Co252 2.004 . S
O256 C261 1.259 . S
Co257 O258 2.061 . S
Co257 O263 2.052 . S
Co257 O265 2.135 . S
O258 Co257 2.061 . S
O258 C261 1.235 . S
C259 O262 1.238 . S
C259 O263 1.241 . S
C260 O253 1.247 . S
C260 O254 1.261 . S
C261 O256 1.259 . S
C261 O258 1.235 . S
O262 Co252 2.021 . S
O262 C259 1.238 . S
O263 Co257 2.052 . S
O263 C259 1.241 . S
O264 Co252 2.137 . S
O264 C255 1.247 . S
O265 Co252 2.244 . S
O265 C255 1.272 . S
O265 Co257 2.135 . S
Co266 O267 2.216 . S
Co266 O268 2.091 . S
Co266 O270 2.004 . S
Co266 O276 2.021 . S
Co266 O278 2.137 . S
Co266 O279 2.244 . S
O267 Co266 2.216 . S
O267 C274 1.247 . S
O268 Co266 2.091 . S
O268 C274 1.261 . S
C269 O278 1.247 . S
C269 O279 1.272 . S
O270 Co266 2.004 . S
O270 C275 1.259 . S
Co271 O272 2.061 . S
Co271 O277 2.052 . S
Co271 O279 2.135 . S
O272 Co271 2.061 . S
O272 C275 1.235 . S
C273 O276 1.238 . S
C273 O277 1.241 . S
C274 O267 1.247 . S
C274 O268 1.261 . S
C275 O270 1.259 . S
C275 O272 1.235 . S
O276 Co266 2.021 . S
O276 C273 1.238 . S
O277 Co271 2.052 . S
O277 C273 1.241 . S
O278 Co266 2.137 . S
O278 C269 1.247 . S
O279 Co266 2.244 . S
O279 C269 1.272 . S
O279 Co271 2.135 . S
Co280 O281 2.216 . S
Co280 O282 2.091 . S
Co280 O284 2.004 . S
Co280 O290 2.021 . S
Co280 O292 2.137 . S
Co280 O293 2.244 . S
O281 Co280 2.216 . S
O281 C288 1.247 . S
O282 Co280 2.091 . S
O282 C288 1.261 . S
C283 O292 1.247 . S
C283 O293 1.272 . S
O284 Co280 2.004 . S
O284 C289 1.259 . S
Co285 O286 2.061 . S
Co285 O291 2.052 . S
Co285 O293 2.135 . S
O286 Co285 2.061 . S
O286 C289 1.235 . S
C287 O290 1.238 . S
C287 O291 1.241 . S
C288 O281 1.247 . S
C288 O282 1.261 . S
C289 O284 1.259 . S
C289 O286 1.235 . S
O290 Co280 2.021 . S
O290 C287 1.238 . S
O291 Co285 2.052 . S
O291 C287 1.241 . S
O292 Co280 2.137 . S
O292 C283 1.247 . S
O293 Co280 2.244 . S
O293 C283 1.272 . S
O293 Co285 2.135 . S
Co294 O295 2.216 . S
Co294 O296 2.091 . S
Co294 O298 2.004 . S
Co294 O304 2.021 . S
Co294 O306 2.137 . S
Co294 O307 2.244 . S
O295 Co294 2.216 . S
O295 C302 1.247 . S
O296 Co294 2.091 . S
O296 C302 1.261 . S
C297 O306 1.247 . S
C297 O307 1.272 . S
O298 Co294 2.004 . S
O298 C303 1.259 . S
Co299 O300 2.061 . S
Co299 O305 2.052 1_556 S
Co299 O307 2.135 . S
O300 Co299 2.061 . S
O300 C303 1.235 . S
C301 O304 1.238 1_554 S
C301 O305 1.241 . S
C302 O295 1.247 . S
C302 O296 1.261 . S
C303 O298 1.259 . S
C303 O300 1.235 . S
O304 Co294 2.021 . S
O304 C301 1.238 1_556 S
O305 Co299 2.052 1_554 S
O305 C301 1.241 . S
O306 Co294 2.137 . S
O306 C297 1.247 . S
O307 Co294 2.244 . S
O307 C297 1.272 . S
O307 Co299 2.135 . S
Co308 O309 2.216 . S
Co308 O310 2.091 . S
Co308 O312 2.004 . S
Co308 O318 2.021 . S
Co308 O320 2.137 . S
Co308 O321 2.244 . S
O309 Co308 2.216 . S
O309 C316 1.247 . S
O310 Co308 2.091 . S
O310 C316 1.261 . S
C311 O320 1.247 . S
C311 O321 1.272 . S
O312 Co308 2.004 . S
O312 C317 1.259 . S
Co313 O314 2.061 . S
Co313 O319 2.052 . S
Co313 O321 2.135 . S
O314 Co313 2.061 . S
O314 C317 1.235 . S
C315 O318 1.238 . S
C315 O319 1.241 . S
C316 O309 1.247 . S
C316 O310 1.261 . S
C317 O312 1.259 . S
C317 O314 1.235 . S
O318 Co308 2.021 . S
O318 C315 1.238 . S
O319 Co313 2.052 . S
O319 C315 1.241 . S
O320 Co308 2.137 . S
O320 C311 1.247 . S
O321 Co308 2.244 . S
O321 C311 1.272 . S
O321 Co313 2.135 . S
Co322 O323 2.216 . S
Co322 O324 2.091 . S
Co322 O326 2.004 . S
Co322 O332 2.021 . S
Co322 O334 2.137 . S
Co322 O335 2.244 . S
O323 Co322 2.216 . S
O323 C330 1.247 . S
O324 Co322 2.091 . S
O324 C330 1.261 . S
C325 O334 1.247 . S
C325 O335 1.272 . S
O326 Co322 2.004 . S
O326 C331 1.259 . S
Co327 O328 2.061 . S
Co327 O333 2.052 . S
Co327 O335 2.135 . S
O328 Co327 2.061 . S
O328 C331 1.235 . S
C329 O332 1.238 . S
C329 O333 1.241 . S
C330 O323 1.247 . S
C330 O324 1.261 . S
C331 O326 1.259 . S
C331 O328 1.235 . S
O332 Co322 2.021 . S
O332 C329 1.238 . S
O333 Co327 2.052 . S
O333 C329 1.241 . S
O334 Co322 2.137 . S
O334 C325 1.247 . S
O335 Co322 2.244 . S
O335 C325 1.272 . S
O335 Co327 2.135 . S
Co336 O337 2.216 . S
Co336 O338 2.091 . S
Co336 O340 2.004 . S
Co336 O346 2.021 . S
Co336 O348 2.137 . S
Co336 O349 2.244 . S
O337 Co336 2.216 . S
O337 C344 1.247 . S
O338 Co336 2.091 . S
O338 C344 1.261 . S
C339 O348 1.247 . S
C339 O349 1.272 . S
O340 Co336 2.004 . S
O340 C345 1.259 . S
Co341 O342 2.061 . S
Co341 O347 2.052 . S
Co341 O349 2.135 . S
O342 Co341 2.061 . S
O342 C345 1.235 . S
C343 O346 1.238 . S
C343 O347 1.241 . S
C344 O337 1.247 . S
C344 O338 1.261 . S
C345 O340 1.259 . S
C345 O342 1.235 . S
O346 Co336 2.021 . S
O346 C343 1.238 . S
O347 Co341 2.052 . S
O347 C343 1.241 . S
O348 Co336 2.137 . S
O348 C339 1.247 . S
O349 Co336 2.244 . S
O349 C339 1.272 . S
O349 Co341 2.135 . S
Co350 O351 2.216 . S
Co350 O352 2.091 . S
Co350 O354 2.004 . S
Co350 O360 2.021 . S
Co350 O362 2.137 . S
Co350 O363 2.244 . S
O351 Co350 2.216 . S
O351 C358 1.247 . S
O352 Co350 2.091 . S
O352 C358 1.261 . S
C353 O362 1.247 . S
C353 O363 1.272 . S
O354 Co350 2.004 . S
O354 C359 1.259 . S
Co355 O356 2.061 . S
Co355 O361 2.052 1_556 S
Co355 O363 2.135 . S
O356 Co355 2.061 . S
O356 C359 1.235 . S
C357 O360 1.238 1_554 S
C357 O361 1.241 . S
C358 O351 1.247 . S
C358 O352 1.261 . S
C359 O354 1.259 . S
C359 O356 1.235 . S
O360 Co350 2.021 . S
O360 C357 1.238 1_556 S
O361 Co355 2.052 1_554 S
O361 C357 1.241 . S
O362 Co350 2.137 . S
O362 C353 1.247 . S
O363 Co350 2.244 . S
O363 C353 1.272 . S
O363 Co355 2.135 . S
Co364 O365 2.216 . S
Co364 O366 2.091 . S
Co364 O368 2.004 . S
Co364 O374 2.021 . S
Co364 O376 2.137 . S
Co364 O377 2.244 . S
O365 Co364 2.216 . S
O365 C372 1.247 . S
O366 Co364 2.091 . S
O366 C372 1.261 . S
C367 O376 1.247 . S
C367 O377 1.272 . S
O368 Co364 2.004 . S
O368 C373 1.259 . S
Co369 O370 2.061 . S
Co369 O375 2.052 . S
Co369 O377 2.135 . S
O370 Co369 2.061 . S
O370 C373 1.235 . S
C371 O374 1.238 . S
C371 O375 1.241 . S
C372 O365 1.247 . S
C372 O366 1.261 . S
C373 O368 1.259 . S
C373 O370 1.235 . S
O374 Co364 2.021 . S
O374 C371 1.238 . S
O375 Co369 2.052 . S
O375 C371 1.241 . S
O376 Co364 2.137 . S
O376 C367 1.247 . S
O377 Co364 2.244 . S
O377 C367 1.272 . S
O377 Co369 2.135 . S
Co378 O379 2.216 . S
Co378 O380 2.091 . S
Co378 O382 2.004 . S
Co378 O388 2.021 . S
Co378 O390 2.137 . S
Co378 O391 2.244 . S
O379 Co378 2.216 . S
O379 C386 1.247 . S
O380 Co378 2.091 . S
O380 C386 1.261 . S
C381 O390 1.247 . S
C381 O391 1.272 . S
O382 Co378 2.004 . S
O382 C387 1.259 . S
Co383 O384 2.061 . S
Co383 O389 2.052 . S
Co383 O391 2.135 . S
O384 Co383 2.061 . S
O384 C387 1.235 . S
C385 O388 1.238 . S
C385 O389 1.241 . S
C386 O379 1.247 . S
C386 O380 1.261 . S
C387 O382 1.259 . S
C387 O384 1.235 . S
O388 Co378 2.021 . S
O388 C385 1.238 . S
O389 Co383 2.052 . S
O389 C385 1.241 . S
O390 Co378 2.137 . S
O390 C381 1.247 . S
O391 Co378 2.244 . S
O391 C381 1.272 . S
O391 Co383 2.135 . S
Co392 O393 2.216 . S
Co392 O394 2.091 . S
Co392 O396 2.004 . S
Co392 O402 2.021 . S
Co392 O404 2.137 . S
Co392 O405 2.244 . S
O393 Co392 2.216 . S
O393 C400 1.247 . S
O394 Co392 2.091 . S
O394 C400 1.261 . S
C395 O404 1.247 . S
C395 O405 1.272 . S
O396 Co392 2.004 . S
O396 C401 1.259 . S
Co397 O398 2.061 . S
Co397 O403 2.052 . S
Co397 O405 2.135 . S
O398 Co397 2.061 . S
O398 C401 1.235 . S
C399 O402 1.238 . S
C399 O403 1.241 . S
C400 O393 1.247 . S
C400 O394 1.261 . S
C401 O396 1.259 . S
C401 O398 1.235 . S
O402 Co392 2.021 . S
O402 C399 1.238 . S
O403 Co397 2.052 . S
O403 C399 1.241 . S
O404 Co392 2.137 . S
O404 C395 1.247 . S
O405 Co392 2.244 . S
O405 C395 1.272 . S
O405 Co397 2.135 . S
Co406 O407 2.216 . S
Co406 O408 2.091 . S
Co406 O410 2.004 . S
Co406 O416 2.021 . S
Co406 O418 2.137 . S
Co406 O419 2.244 . S
O407 Co406 2.216 . S
O407 C414 1.247 . S
O408 Co406 2.091 . S
O408 C414 1.261 . S
C409 O418 1.247 . S
C409 O419 1.272 . S
O410 Co406 2.004 . S
O410 C415 1.259 . S
Co411 O412 2.061 . S
Co411 O417 2.052 1_554 S
Co411 O419 2.135 . S
O412 Co411 2.061 . S
O412 C415 1.235 . S
C413 O416 1.238 1_556 S
C413 O417 1.241 . S
C414 O407 1.247 . S
C414 O408 1.261 . S
C415 O410 1.259 . S
C415 O412 1.235 . S
O416 Co406 2.021 . S
O416 C413 1.238 1_554 S
O417 Co411 2.052 1_556 S
O417 C413 1.241 . S
O418 Co406 2.137 . S
O418 C409 1.247 . S
O419 Co406 2.244 . S
O419 C409 1.272 . S
O419 Co411 2.135 . S
Co420 O421 2.216 . S
Co420 O422 2.091 . S
Co420 O424 2.004 . S
Co420 O430 2.021 . S
Co420 O432 2.137 . S
Co420 O433 2.244 . S
O421 Co420 2.216 . S
O421 C428 1.247 . S
O422 Co420 2.091 . S
O422 C428 1.261 . S
C423 O432 1.247 . S
C423 O433 1.272 . S
O424 Co420 2.004 . S
O424 C429 1.259 . S
Co425 O426 2.061 . S
Co425 O431 2.052 . S
Co425 O433 2.135 . S
O426 Co425 2.061 . S
O426 C429 1.235 . S
C427 O430 1.238 . S
C427 O431 1.241 . S
C428 O421 1.247 . S
C428 O422 1.261 . S
C429 O424 1.259 . S
C429 O426 1.235 . S
O430 Co420 2.021 . S
O430 C427 1.238 . S
O431 Co425 2.052 . S
O431 C427 1.241 . S
O432 Co420 2.137 . S
O432 C423 1.247 . S
O433 Co420 2.244 . S
O433 C423 1.272 . S
O433 Co425 2.135 . S
Co434 O435 2.216 . S
Co434 O436 2.091 . S
Co434 O438 2.004 . S
Co434 O444 2.021 . S
Co434 O446 2.137 . S
Co434 O447 2.244 . S
O435 Co434 2.216 . S
O435 C442 1.247 . S
O436 Co434 2.091 . S
O436 C442 1.261 . S
C437 O446 1.247 . S
C437 O447 1.272 . S
O438 Co434 2.004 . S
O438 C443 1.259 . S
Co439 O440 2.061 . S
Co439 O445 2.052 . S
Co439 O447 2.135 . S
O440 Co439 2.061 . S
O440 C443 1.235 . S
C441 O444 1.238 . S
C441 O445 1.241 . S
C442 O435 1.247 . S
C442 O436 1.261 . S
C443 O438 1.259 . S
C443 O440 1.235 . S
O444 Co434 2.021 . S
O444 C441 1.238 . S
O445 Co439 2.052 . S
O445 C441 1.241 . S
O446 Co434 2.137 . S
O446 C437 1.247 . S
O447 Co434 2.244 . S
O447 C437 1.272 . S
O447 Co439 2.135 . S
C448 C449 1.391 . S
C448 C450 1.394 . S
C448 H464 0.931 . S
C449 C448 1.391 . S
C449 C453 1.376 . S
C450 C448 1.394 . S
C450 C451 1.369 . S
C450 C454 1.531 . S
C451 C450 1.369 . S
C451 C452 1.410 . S
C451 C459 1.503 . S
C452 C451 1.410 . S
C452 C453 1.392 . S
C452 C455 1.511 . S
C453 C449 1.376 . S
C453 C452 1.392 . S
C453 H465 0.929 . S
C454 C450 1.531 . S
C454 H466 0.960 . S
C454 H467 0.962 . S
C454 H468 0.960 . S
C455 C452 1.511 . S
C455 H469 0.961 . S
C455 H470 0.961 . S
C455 H471 0.961 . S
C456 C457 1.370 . S
C456 C458 1.363 . S
C456 H472 0.931 . S
C457 C456 1.370 . S
C457 C461 1.408 . S
C458 C456 1.363 . S
C458 C459 1.370 . S
C458 C462 1.524 . S
C459 C451 1.503 . S
C459 C458 1.370 . S
C459 C460 1.403 . S
C460 C459 1.403 . S
C460 C461 1.404 . S
C460 C463 1.539 . S
C461 C457 1.408 . S
C461 C460 1.404 . S
C461 H473 0.930 . S
C462 C458 1.524 . S
C462 H474 0.956 . S
C462 H475 0.961 . S
C462 H476 0.961 . S
C463 C460 1.539 . S
C463 H477 0.958 . S
C463 H478 0.961 . S
C463 H479 0.960 . S
H464 C448 0.931 . S
H465 C453 0.929 . S
H466 C454 0.960 . S
H467 C454 0.962 . S
H468 C454 0.960 . S
H469 C455 0.961 . S
H470 C455 0.961 . S
H471 C455 0.961 . S
H472 C456 0.931 . S
H473 C461 0.930 . S
H474 C462 0.956 . S
H475 C462 0.961 . S
H476 C462 0.961 . S
H477 C463 0.958 . S
H478 C463 0.961 . S
H479 C463 0.960 . S
C480 C481 1.404 . S
C480 C482 1.394 . S
C480 H496 0.917 1_455 S
C481 C480 1.404 . S
C481 C485 1.400 . S
C482 C480 1.394 . S
C482 C483 1.369 . S
C482 C486 1.531 . S
C483 C482 1.369 . S
C483 C484 1.410 . S
C483 C491 1.503 . S
C484 C483 1.410 . S
C484 C485 1.392 . S
C484 C487 1.511 . S
C485 C481 1.400 . S
C485 C484 1.392 . S
C485 H497 0.929 . S
C486 C482 1.531 . S
C486 H498 0.960 . S
C486 H499 0.962 . S
C486 H500 0.960 . S
C487 C484 1.511 . S
C487 H501 0.961 . S
C487 H502 0.961 . S
C487 H503 0.961 . S
C488 C489 1.370 . S
C488 C490 1.363 . S
C488 H504 0.931 . S
C489 C488 1.370 . S
C489 C493 1.408 . S
C490 C488 1.363 . S
C490 C491 1.370 . S
C490 C494 1.524 . S
C491 C483 1.503 . S
C491 C490 1.370 . S
C491 C492 1.403 . S
C492 C491 1.403 . S
C492 C493 1.404 . S
C492 C495 1.539 . S
C493 C489 1.408 . S
C493 C492 1.404 . S
C493 H505 0.930 . S
C494 C490 1.524 . S
C494 H506 0.956 . S
C494 H507 0.961 . S
C494 H508 0.961 . S
C495 C492 1.539 . S
C495 H509 0.958 . S
C495 H510 0.961 . S
C495 H511 0.960 . S
H496 C480 0.917 1_655 S
H497 C485 0.929 . S
H498 C486 0.960 . S
H499 C486 0.962 . S
H500 C486 0.960 . S
H501 C487 0.961 . S
H502 C487 0.961 . S
H503 C487 0.961 . S
H504 C488 0.931 . S
H505 C493 0.930 . S
H506 C494 0.956 . S
H507 C494 0.961 . S
H508 C494 0.961 . S
H509 C495 0.958 . S
H510 C495 0.961 . S
H511 C495 0.960 . S
C512 C513 1.391 . S
C512 C514 1.394 . S
C512 H528 0.931 . S
C513 C512 1.391 . S
C513 C517 1.376 . S
C514 C512 1.394 . S
C514 C515 1.369 . S
C514 C518 1.531 . S
C515 C514 1.369 . S
C515 C516 1.410 . S
C515 C523 1.503 . S
C516 C515 1.410 . S
C516 C517 1.392 . S
C516 C519 1.511 . S
C517 C513 1.376 . S
C517 C516 1.392 . S
C517 H529 0.929 . S
C518 C514 1.531 . S
C518 H530 0.960 . S
C518 H531 0.962 . S
C518 H532 0.960 . S
C519 C516 1.511 . S
C519 H533 0.961 . S
C519 H534 0.961 . S
C519 H535 0.961 . S
C520 C521 1.370 . S
C520 C522 1.363 . S
C520 H536 0.931 . S
C521 C520 1.370 . S
C521 C525 1.408 . S
C522 C520 1.363 . S
C522 C523 1.370 . S
C522 C526 1.524 . S
C523 C515 1.503 . S
C523 C522 1.370 . S
C523 C524 1.403 . S
C524 C523 1.403 . S
C524 C525 1.404 . S
C524 C527 1.539 . S
C525 C521 1.408 . S
C525 C524 1.404 . S
C525 H537 0.930 . S
C526 C522 1.524 . S
C526 H538 0.956 . S
C526 H539 0.961 . S
C526 H540 0.961 . S
C527 C524 1.539 . S
C527 H541 0.958 . S
C527 H542 0.961 . S
C527 H543 0.960 . S
H528 C512 0.931 . S
H529 C517 0.929 . S
H530 C518 0.960 . S
H531 C518 0.962 . S
H532 C518 0.960 . S
H533 C519 0.961 . S
H534 C519 0.961 . S
H535 C519 0.961 . S
H536 C520 0.931 . S
H537 C525 0.930 . S
H538 C526 0.956 . S
H539 C526 0.961 . S
H540 C526 0.961 . S
H541 C527 0.958 . S
H542 C527 0.961 . S
H543 C527 0.960 . S
C544 C545 1.391 . S
C544 C546 1.394 . S
C544 H560 0.931 . S
C545 C544 1.391 . S
C545 C549 1.376 . S
C546 C544 1.394 . S
C546 C547 1.369 . S
C546 C550 1.531 . S
C547 C546 1.369 . S
C547 C548 1.410 . S
C547 C555 1.503 . S
C548 C547 1.410 . S
C548 C549 1.392 . S
C548 C551 1.511 . S
C549 C545 1.376 . S
C549 C548 1.392 . S
C549 H561 0.929 . S
C550 C546 1.531 . S
C550 H562 0.960 . S
C550 H563 0.962 . S
C550 H564 0.960 . S
C551 C548 1.511 . S
C551 H565 0.961 . S
C551 H566 0.961 . S
C551 H567 0.961 . S
C552 C553 1.370 . S
C552 C554 1.363 . S
C552 H568 0.931 . S
C553 C552 1.370 . S
C553 C557 1.408 . S
C554 C552 1.363 . S
C554 C555 1.370 . S
C554 C558 1.524 . S
C555 C547 1.503 . S
C555 C554 1.370 . S
C555 C556 1.403 . S
C556 C555 1.403 . S
C556 C557 1.404 . S
C556 C559 1.539 . S
C557 C553 1.408 . S
C557 C556 1.404 . S
C557 H569 0.930 . S
C558 C554 1.524 . S
C558 H570 0.956 . S
C558 H571 0.961 . S
C558 H572 0.961 . S
C559 C556 1.539 . S
C559 H573 0.958 . S
C559 H574 0.961 . S
C559 H575 0.960 . S
H560 C544 0.931 . S
H561 C549 0.929 . S
H562 C550 0.960 . S
H563 C550 0.962 . S
H564 C550 0.960 . S
H565 C551 0.961 . S
H566 C551 0.961 . S
H567 C551 0.961 . S
H568 C552 0.931 . S
H569 C557 0.930 . S
H570 C558 0.956 . S
H571 C558 0.961 . S
H572 C558 0.961 . S
H573 C559 0.958 . S
H574 C559 0.961 . S
H575 C559 0.960 . S
C576 C577 1.391 . S
C576 C578 1.394 . S
C576 H592 0.931 . S
C577 C576 1.391 . S
C577 C581 1.376 . S
C578 C576 1.394 . S
C578 C579 1.369 . S
C578 C582 1.531 . S
C579 C578 1.369 . S
C579 C580 1.410 . S
C579 C587 1.503 . S
C580 C579 1.410 . S
C580 C581 1.392 . S
C580 C583 1.511 . S
C581 C577 1.376 . S
C581 C580 1.392 . S
C581 H593 0.929 . S
C582 C578 1.531 . S
C582 H594 0.960 . S
C582 H595 0.962 . S
C582 H596 0.960 . S
C583 C580 1.511 . S
C583 H597 0.961 . S
C583 H598 0.961 . S
C583 H599 0.961 . S
C584 C585 1.370 . S
C584 C586 1.363 . S
C584 H600 0.931 . S
C585 C584 1.370 . S
C585 C589 1.408 . S
C586 C584 1.363 . S
C586 C587 1.370 . S
C586 C590 1.524 . S
C587 C579 1.503 . S
C587 C586 1.370 . S
C587 C588 1.403 . S
C588 C587 1.403 . S
C588 C589 1.404 . S
C588 C591 1.539 . S
C589 C585 1.408 . S
C589 C588 1.404 . S
C589 H601 0.930 . S
C590 C586 1.524 . S
C590 H602 0.956 . S
C590 H603 0.961 . S
C590 H604 0.961 . S
C591 C588 1.539 . S
C591 H605 0.958 . S
C591 H606 0.961 . S
C591 H607 0.960 . S
H592 C576 0.931 . S
H593 C581 0.929 . S
H594 C582 0.960 . S
H595 C582 0.962 . S
H596 C582 0.960 . S
H597 C583 0.961 . S
H598 C583 0.961 . S
H599 C583 0.961 . S
H600 C584 0.931 . S
H601 C589 0.930 . S
H602 C590 0.956 . S
H603 C590 0.961 . S
H604 C590 0.961 . S
H605 C591 0.958 . S
H606 C591 0.961 . S
H607 C591 0.960 . S
C608 C609 1.391 . S
C608 C610 1.394 . S
C608 H624 0.931 . S
C609 C608 1.391 . S
C609 C613 1.376 . S
C610 C608 1.394 . S
C610 C611 1.369 . S
C610 C614 1.531 . S
C611 C610 1.369 . S
C611 C612 1.410 . S
C611 C619 1.503 . S
C612 C611 1.410 . S
C612 C613 1.392 . S
C612 C615 1.511 . S
C613 C609 1.376 . S
C613 C612 1.392 . S
C613 H625 0.929 . S
C614 C610 1.531 . S
C614 H626 0.960 . S
C614 H627 0.962 . S
C614 H628 0.960 . S
C615 C612 1.511 . S
C615 H629 0.961 . S
C615 H630 0.961 . S
C615 H631 0.961 . S
C616 C617 1.370 . S
C616 C618 1.363 . S
C616 H632 0.931 . S
C617 C616 1.370 . S
C617 C621 1.408 . S
C618 C616 1.363 . S
C618 C619 1.370 . S
C618 C622 1.524 . S
C619 C611 1.503 . S
C619 C618 1.370 . S
C619 C620 1.403 . S
C620 C619 1.403 . S
C620 C621 1.404 . S
C620 C623 1.539 . S
C621 C617 1.408 . S
C621 C620 1.404 . S
C621 H633 0.930 . S
C622 C618 1.524 . S
C622 H634 0.956 . S
C622 H635 0.961 . S
C622 H636 0.961 . S
C623 C620 1.539 . S
C623 H637 0.958 . S
C623 H638 0.961 . S
C623 H639 0.960 . S
H624 C608 0.931 . S
H625 C613 0.929 . S
H626 C614 0.960 . S
H627 C614 0.962 . S
H628 C614 0.960 . S
H629 C615 0.961 . S
H630 C615 0.961 . S
H631 C615 0.961 . S
H632 C616 0.931 . S
H633 C621 0.930 . S
H634 C622 0.956 . S
H635 C622 0.961 . S
H636 C622 0.961 . S
H637 C623 0.958 . S
H638 C623 0.961 . S
H639 C623 0.960 . S
C640 C641 1.391 . S
C640 C642 1.394 . S
C640 H656 0.931 . S
C641 C640 1.391 . S
C641 C645 1.376 . S
C642 C640 1.394 . S
C642 C643 1.369 . S
C642 C646 1.531 . S
C643 C642 1.369 . S
C643 C644 1.410 . S
C643 C651 1.503 . S
C644 C643 1.410 . S
C644 C645 1.392 . S
C644 C647 1.511 . S
C645 C641 1.376 . S
C645 C644 1.392 . S
C645 H657 0.929 . S
C646 C642 1.531 . S
C646 H658 0.960 . S
C646 H659 0.962 . S
C646 H660 0.960 . S
C647 C644 1.511 . S
C647 H661 0.961 . S
C647 H662 0.961 . S
C647 H663 0.961 . S
C648 C649 1.370 . S
C648 C650 1.363 . S
C648 H664 0.931 . S
C649 C648 1.370 . S
C649 C653 1.408 . S
C650 C648 1.363 . S
C650 C651 1.370 . S
C650 C654 1.524 . S
C651 C643 1.503 . S
C651 C650 1.370 . S
C651 C652 1.403 . S
C652 C651 1.403 . S
C652 C653 1.404 . S
C652 C655 1.539 . S
C653 C649 1.408 . S
C653 C652 1.404 . S
C653 H665 0.930 . S
C654 C650 1.524 . S
C654 H666 0.956 . S
C654 H667 0.961 . S
C654 H668 0.961 . S
C655 C652 1.539 . S
C655 H669 0.958 . S
C655 H670 0.961 . S
C655 H671 0.960 . S
H656 C640 0.931 . S
H657 C645 0.929 . S
H658 C646 0.960 . S
H659 C646 0.962 . S
H660 C646 0.960 . S
H661 C647 0.961 . S
H662 C647 0.961 . S
H663 C647 0.961 . S
H664 C648 0.931 . S
H665 C653 0.930 . S
H666 C654 0.956 . S
H667 C654 0.961 . S
H668 C654 0.961 . S
H669 C655 0.958 . S
H670 C655 0.961 . S
H671 C655 0.960 . S
C672 C673 1.391 . S
C672 C674 1.394 . S
C672 H688 0.931 . S
C673 C672 1.391 . S
C673 C677 1.376 . S
C674 C672 1.394 . S
C674 C675 1.369 . S
C674 C678 1.531 . S
C675 C674 1.369 . S
C675 C676 1.410 . S
C675 C683 1.503 . S
C676 C675 1.410 . S
C676 C677 1.392 . S
C676 C679 1.511 . S
C677 C673 1.376 . S
C677 C676 1.392 . S
C677 H689 0.929 . S
C678 C674 1.531 . S
C678 H690 0.960 . S
C678 H691 0.962 . S
C678 H692 0.960 . S
C679 C676 1.511 . S
C679 H693 0.961 . S
C679 H694 0.961 . S
C679 H695 0.961 . S
C680 C681 1.347 1_455 S
C680 C682 1.363 . S
C680 H696 0.931 . S
C681 C680 1.347 1_655 S
C681 C685 1.411 . S
C682 C680 1.363 . S
C682 C683 1.370 . S
C682 C686 1.524 . S
C683 C675 1.503 . S
C683 C682 1.370 . S
C683 C684 1.403 . S
C684 C683 1.403 . S
C684 C685 1.404 1_455 S
C684 C687 1.539 . S
C685 C681 1.411 . S
C685 C684 1.404 1_655 S
C685 H697 0.930 . S
C686 C682 1.524 . S
C686 H698 0.956 . S
C686 H699 0.961 . S
C686 H700 0.961 . S
C687 C684 1.539 . S
C687 H701 0.958 . S
C687 H702 0.961 . S
C687 H703 0.960 . S
H688 C672 0.931 . S
H689 C677 0.929 . S
H690 C678 0.960 . S
H691 C678 0.962 . S
H692 C678 0.960 . S
H693 C679 0.961 . S
H694 C679 0.961 . S
H695 C679 0.961 . S
H696 C680 0.931 . S
H697 C685 0.930 . S
H698 C686 0.956 . S
H699 C686 0.961 . S
H700 C686 0.961 . S
H701 C687 0.958 . S
H702 C687 0.961 . S
H703 C687 0.960 . S
C704 C705 1.391 . S
C704 C706 1.394 . S
C704 H720 0.931 . S
C705 C704 1.391 . S
C705 C709 1.376 . S
C706 C704 1.394 . S
C706 C707 1.369 . S
C706 C710 1.531 . S
C707 C706 1.369 . S
C707 C708 1.410 . S
C707 C715 1.503 . S
C708 C707 1.410 . S
C708 C709 1.392 . S
C708 C711 1.511 . S
C709 C705 1.376 . S
C709 C708 1.392 . S
C709 H721 0.929 . S
C710 C706 1.531 . S
C710 H722 0.960 . S
C710 H723 0.962 . S
C710 H724 0.960 . S
C711 C708 1.511 . S
C711 H725 0.961 . S
C711 H726 0.961 . S
C711 H727 0.961 . S
C712 C713 1.370 . S
C712 C714 1.363 . S
C712 H728 0.931 . S
C713 C712 1.370 . S
C713 C717 1.408 . S
C714 C712 1.363 . S
C714 C715 1.370 . S
C714 C718 1.524 . S
C715 C707 1.503 . S
C715 C714 1.370 . S
C715 C716 1.403 . S
C716 C715 1.403 . S
C716 C717 1.404 . S
C716 C719 1.539 . S
C717 C713 1.408 . S
C717 C716 1.404 . S
C717 H729 0.930 . S
C718 C714 1.524 . S
C718 H730 0.956 . S
C718 H731 0.961 . S
C718 H732 0.961 . S
C719 C716 1.539 . S
C719 H733 0.958 . S
C719 H734 0.961 . S
C719 H735 0.960 . S
H720 C704 0.931 . S
H721 C709 0.929 . S
H722 C710 0.960 . S
H723 C710 0.962 . S
H724 C710 0.960 . S
H725 C711 0.961 . S
H726 C711 0.961 . S
H727 C711 0.961 . S
H728 C712 0.931 . S
H729 C717 0.930 . S
H730 C718 0.956 . S
H731 C718 0.961 . S
H732 C718 0.961 . S
H733 C719 0.958 . S
H734 C719 0.961 . S
H735 C719 0.960 . S
C736 C737 1.376 1_655 S
C736 C738 1.394 . S
C736 H752 0.931 . S
C737 C736 1.376 1_455 S
C737 C741 1.376 . S
C738 C736 1.394 . S
C738 C739 1.369 . S
C738 C742 1.531 . S
C739 C738 1.369 . S
C739 C740 1.410 . S
C739 C747 1.503 . S
C740 C739 1.410 . S
C740 C741 1.392 1_655 S
C740 C743 1.511 . S
C741 C737 1.376 . S
C741 C740 1.392 1_455 S
C741 H753 0.929 . S
C742 C738 1.531 . S
C742 H754 0.960 . S
C742 H755 0.962 . S
C742 H756 0.960 . S
C743 C740 1.511 . S
C743 H757 0.961 . S
C743 H758 0.961 . S
C743 H759 0.961 . S
C744 C745 1.370 . S
C744 C746 1.363 . S
C744 H760 0.931 . S
C745 C744 1.370 . S
C745 C749 1.408 . S
C746 C744 1.363 . S
C746 C747 1.370 . S
C746 C750 1.524 . S
C747 C739 1.503 . S
C747 C746 1.370 . S
C747 C748 1.403 . S
C748 C747 1.403 . S
C748 C749 1.404 . S
C748 C751 1.539 . S
C749 C745 1.408 . S
C749 C748 1.404 . S
C749 H761 0.930 . S
C750 C746 1.524 . S
C750 H762 0.956 . S
C750 H763 0.961 . S
C750 H764 0.961 . S
C751 C748 1.539 . S
C751 H765 0.958 . S
C751 H766 0.961 . S
C751 H767 0.960 . S
H752 C736 0.931 . S
H753 C741 0.929 . S
H754 C742 0.960 . S
H755 C742 0.962 . S
H756 C742 0.960 . S
H757 C743 0.961 . S
H758 C743 0.961 . S
H759 C743 0.961 . S
H760 C744 0.931 . S
H761 C749 0.930 . S
H762 C750 0.956 . S
H763 C750 0.961 . S
H764 C750 0.961 . S
H765 C751 0.958 . S
H766 C751 0.961 . S
H767 C751 0.960 . S
C768 C769 1.391 . S
C768 C770 1.394 . S
C768 H784 0.931 . S
C769 C768 1.391 . S
C769 C773 1.376 . S
C770 C768 1.394 . S
C770 C771 1.369 . S
C770 C774 1.531 . S
C771 C770 1.369 . S
C771 C772 1.410 . S
C771 C779 1.503 . S
C772 C771 1.410 . S
C772 C773 1.392 . S
C772 C775 1.511 . S
C773 C769 1.376 . S
C773 C772 1.392 . S
C773 H785 0.929 . S
C774 C770 1.531 . S
C774 H786 0.960 . S
C774 H787 0.962 . S
C774 H788 0.960 . S
C775 C772 1.511 . S
C775 H789 0.961 . S
C775 H790 0.961 . S
C775 H791 0.961 . S
C776 C777 1.370 . S
C776 C778 1.363 . S
C776 H792 0.931 . S
C777 C776 1.370 . S
C777 C781 1.408 . S
C778 C776 1.363 . S
C778 C779 1.370 . S
C778 C782 1.524 . S
C779 C771 1.503 . S
C779 C778 1.370 . S
C779 C780 1.403 . S
C780 C779 1.403 . S
C780 C781 1.404 . S
C780 C783 1.539 . S
C781 C777 1.408 . S
C781 C780 1.404 . S
C781 H793 0.930 . S
C782 C778 1.524 . S
C782 H794 0.956 . S
C782 H795 0.961 . S
C782 H796 0.961 . S
C783 C780 1.539 . S
C783 H797 0.958 . S
C783 H798 0.961 . S
C783 H799 0.960 . S
H784 C768 0.931 . S
H785 C773 0.929 . S
H786 C774 0.960 . S
H787 C774 0.962 . S
H788 C774 0.960 . S
H789 C775 0.961 . S
H790 C775 0.961 . S
H791 C775 0.961 . S
H792 C776 0.931 . S
H793 C781 0.930 . S
H794 C782 0.956 . S
H795 C782 0.961 . S
H796 C782 0.961 . S
H797 C783 0.958 . S
H798 C783 0.961 . S
H799 C783 0.960 . S
C800 C801 1.391 . S
C800 C802 1.394 . S
C800 H816 0.931 . S
C801 C800 1.391 . S
C801 C805 1.376 . S
C802 C800 1.394 . S
C802 C803 1.369 . S
C802 C806 1.531 . S
C803 C802 1.369 . S
C803 C804 1.410 . S
C803 C811 1.503 . S
C804 C803 1.410 . S
C804 C805 1.392 . S
C804 C807 1.511 . S
C805 C801 1.376 . S
C805 C804 1.392 . S
C805 H817 0.929 . S
C806 C802 1.531 . S
C806 H818 0.960 . S
C806 H819 0.962 . S
C806 H820 0.960 . S
C807 C804 1.511 . S
C807 H821 0.961 . S
C807 H822 0.961 . S
C807 H823 0.961 . S
C808 C809 1.370 . S
C808 C810 1.363 . S
C808 H824 0.931 . S
C809 C808 1.370 . S
C809 C813 1.408 . S
C810 C808 1.363 . S
C810 C811 1.370 . S
C810 C814 1.524 . S
C811 C803 1.503 . S
C811 C810 1.370 . S
C811 C812 1.403 . S
C812 C811 1.403 . S
C812 C813 1.404 . S
C812 C815 1.539 . S
C813 C809 1.408 . S
C813 C812 1.404 . S
C813 H825 0.930 . S
C814 C810 1.524 . S
C814 H826 0.956 . S
C814 H827 0.961 . S
C814 H828 0.961 . S
C815 C812 1.539 . S
C815 H829 0.958 . S
C815 H830 0.961 . S
C815 H831 0.960 . S
H816 C800 0.931 . S
H817 C805 0.929 . S
H818 C806 0.960 . S
H819 C806 0.962 . S
H820 C806 0.960 . S
H821 C807 0.961 . S
H822 C807 0.961 . S
H823 C807 0.961 . S
H824 C808 0.931 . S
H825 C813 0.930 . S
H826 C814 0.956 . S
H827 C814 0.961 . S
H828 C814 0.961 . S
H829 C815 0.958 . S
H830 C815 0.961 . S
H831 C815 0.960 . S
C832 C833 1.391 . S
C832 C834 1.394 . S
C832 H848 0.931 . S
C833 C832 1.391 . S
C833 C837 1.376 . S
C834 C832 1.394 . S
C834 C835 1.369 . S
C834 C838 1.531 . S
C835 C834 1.369 . S
C835 C836 1.410 . S
C835 C843 1.503 . S
C836 C835 1.410 . S
C836 C837 1.392 . S
C836 C839 1.511 . S
C837 C833 1.376 . S
C837 C836 1.392 . S
C837 H849 0.929 . S
C838 C834 1.531 . S
C838 H850 0.960 . S
C838 H851 0.962 . S
C838 H852 0.960 . S
C839 C836 1.511 . S
C839 H853 0.961 . S
C839 H854 0.961 . S
C839 H855 0.961 . S
C840 C841 1.370 . S
C840 C842 1.363 . S
C840 H856 0.931 . S
C841 C840 1.370 . S
C841 C845 1.408 . S
C842 C840 1.363 . S
C842 C843 1.370 . S
C842 C846 1.524 . S
C843 C835 1.503 . S
C843 C842 1.370 . S
C843 C844 1.403 . S
C844 C843 1.403 . S
C844 C845 1.404 . S
C844 C847 1.539 . S
C845 C841 1.408 . S
C845 C844 1.404 . S
C845 H857 0.930 . S
C846 C842 1.524 . S
C846 H858 0.956 . S
C846 H859 0.961 . S
C846 H860 0.961 . S
C847 C844 1.539 . S
C847 H861 0.958 . S
C847 H862 0.961 . S
C847 H863 0.960 . S
H848 C832 0.931 . S
H849 C837 0.929 . S
H850 C838 0.960 . S
H851 C838 0.962 . S
H852 C838 0.960 . S
H853 C839 0.961 . S
H854 C839 0.961 . S
H855 C839 0.961 . S
H856 C840 0.931 . S
H857 C845 0.930 . S
H858 C846 0.956 . S
H859 C846 0.961 . S
H860 C846 0.961 . S
H861 C847 0.958 . S
H862 C847 0.961 . S
H863 C847 0.960 . S
C864 C865 1.391 . S
C864 C866 1.394 . S
C864 H880 0.931 . S
C865 C864 1.391 . S
C865 C869 1.376 . S
C866 C864 1.394 . S
C866 C867 1.369 . S
C866 C870 1.531 . S
C867 C866 1.369 . S
C867 C868 1.410 . S
C867 C875 1.503 . S
C868 C867 1.410 . S
C868 C869 1.392 . S
C868 C871 1.511 . S
C869 C865 1.376 . S
C869 C868 1.392 . S
C869 H881 0.929 . S
C870 C866 1.531 . S
C870 H882 0.960 . S
C870 H883 0.962 . S
C870 H884 0.960 . S
C871 C868 1.511 . S
C871 H885 0.961 . S
C871 H886 0.961 . S
C871 H887 0.961 . S
C872 C873 1.370 . S
C872 C874 1.363 . S
C872 H888 0.931 . S
C873 C872 1.370 . S
C873 C877 1.408 . S
C874 C872 1.363 . S
C874 C875 1.370 . S
C874 C878 1.524 . S
C875 C867 1.503 . S
C875 C874 1.370 . S
C875 C876 1.403 . S
C876 C875 1.403 . S
C876 C877 1.404 . S
C876 C879 1.539 . S
C877 C873 1.408 . S
C877 C876 1.404 . S
C877 H889 0.930 . S
C878 C874 1.524 . S
C878 H890 0.956 . S
C878 H891 0.961 . S
C878 H892 0.961 . S
C879 C876 1.539 . S
C879 H893 0.958 . S
C879 H894 0.961 . S
C879 H895 0.960 . S
H880 C864 0.931 . S
H881 C869 0.929 . S
H882 C870 0.960 . S
H883 C870 0.962 . S
H884 C870 0.960 . S
H885 C871 0.961 . S
H886 C871 0.961 . S
H887 C871 0.961 . S
H888 C872 0.931 . S
H889 C877 0.930 . S
H890 C878 0.956 . S
H891 C878 0.961 . S
H892 C878 0.961 . S
H893 C879 0.958 . S
H894 C879 0.961 . S
H895 C879 0.960 . S
C896 C897 1.391 . S
C896 C898 1.394 . S
C896 H912 0.931 . S
C897 C896 1.391 . S
C897 C901 1.376 . S
C898 C896 1.394 . S
C898 C899 1.369 . S
C898 C902 1.531 . S
C899 C898 1.369 . S
C899 C900 1.410 . S
C899 C907 1.503 . S
C900 C899 1.410 . S
C900 C901 1.392 . S
C900 C903 1.511 . S
C901 C897 1.376 . S
C901 C900 1.392 . S
C901 H913 0.929 . S
C902 C898 1.531 . S
C902 H914 0.960 . S
C902 H915 0.962 . S
C902 H916 0.960 . S
C903 C900 1.511 . S
C903 H917 0.961 . S
C903 H918 0.961 . S
C903 H919 0.961 . S
C904 C905 1.370 . S
C904 C906 1.363 . S
C904 H920 0.931 . S
C905 C904 1.370 . S
C905 C909 1.408 . S
C906 C904 1.363 . S
C906 C907 1.370 . S
C906 C910 1.524 . S
C907 C899 1.503 . S
C907 C906 1.370 . S
C907 C908 1.403 . S
C908 C907 1.403 . S
C908 C909 1.404 . S
C908 C911 1.539 . S
C909 C905 1.408 . S
C909 C908 1.404 . S
C909 H921 0.930 . S
C910 C906 1.524 . S
C910 H922 0.956 . S
C910 H923 0.961 . S
C910 H924 0.961 . S
C911 C908 1.539 . S
C911 H925 0.958 . S
C911 H926 0.961 . S
C911 H927 0.960 . S
H912 C896 0.931 . S
H913 C901 0.929 . S
H914 C902 0.960 . S
H915 C902 0.962 . S
H916 C902 0.960 . S
H917 C903 0.961 . S
H918 C903 0.961 . S
H919 C903 0.961 . S
H920 C904 0.931 . S
H921 C909 0.930 . S
H922 C910 0.956 . S
H923 C910 0.961 . S
H924 C910 0.961 . S
H925 C911 0.958 . S
H926 C911 0.961 . S
H927 C911 0.960 . S
C928 C929 1.391 . S
C928 C930 1.394 . S
C928 H944 0.931 . S
C929 C928 1.391 . S
C929 C933 1.376 . S
C930 C928 1.394 . S
C930 C931 1.369 . S
C930 C934 1.531 . S
C931 C930 1.369 . S
C931 C932 1.410 . S
C931 C939 1.503 . S
C932 C931 1.410 . S
C932 C933 1.392 . S
C932 C935 1.511 . S
C933 C929 1.376 . S
C933 C932 1.392 . S
C933 H945 0.929 . S
C934 C930 1.531 . S
C934 H946 0.960 . S
C934 H947 0.962 . S
C934 H948 0.960 . S
C935 C932 1.511 . S
C935 H949 0.961 . S
C935 H950 0.961 . S
C935 H951 0.961 . S
C936 C937 1.367 1_655 S
C936 C938 1.363 . S
C936 H952 0.931 . S
C937 C936 1.367 1_455 S
C937 C941 1.407 1_455 S
C938 C936 1.363 . S
C938 C939 1.370 . S
C938 C942 1.524 . S
C939 C931 1.503 . S
C939 C938 1.370 . S
C939 C940 1.403 . S
C940 C939 1.403 . S
C940 C941 1.404 . S
C940 C943 1.539 . S
C941 C937 1.407 1_655 S
C941 C940 1.404 . S
C941 H953 0.930 1_655 S
C942 C938 1.524 . S
C942 H954 0.956 . S
C942 H955 0.961 . S
C942 H956 0.961 . S
C943 C940 1.539 . S
C943 H957 0.958 . S
C943 H958 0.961 . S
C943 H959 0.960 . S
H944 C928 0.931 . S
H945 C933 0.929 . S
H946 C934 0.960 . S
H947 C934 0.962 . S
H948 C934 0.960 . S
H949 C935 0.961 . S
H950 C935 0.961 . S
H951 C935 0.961 . S
H952 C936 0.931 . S
H953 C941 0.930 1_455 S
H954 C942 0.956 . S
H955 C942 0.961 . S
H956 C942 0.961 . S
H957 C943 0.958 . S
H958 C943 0.961 . S
H959 C943 0.960 . S
C960 C961 1.391 . S
C960 C962 1.394 . S
C960 H976 0.931 . S
C961 C960 1.391 . S
C961 C965 1.376 . S
C962 C960 1.394 . S
C962 C963 1.369 . S
C962 C966 1.531 . S
C963 C962 1.369 . S
C963 C964 1.410 . S
C963 C971 1.503 . S
C964 C963 1.410 . S
C964 C965 1.392 . S
C964 C967 1.511 . S
C965 C961 1.376 . S
C965 C964 1.392 . S
C965 H977 0.929 . S
C966 C962 1.531 . S
C966 H978 0.960 . S
C966 H979 0.962 . S
C966 H980 0.960 . S
C967 C964 1.511 . S
C967 H981 0.961 . S
C967 H982 0.961 . S
C967 H983 0.961 . S
C968 C969 1.370 . S
C968 C970 1.363 . S
C968 H984 0.931 . S
C969 C968 1.370 . S
C969 C973 1.408 . S
C970 C968 1.363 . S
C970 C971 1.370 . S
C970 C974 1.524 . S
C971 C963 1.503 . S
C971 C970 1.370 . S
C971 C972 1.403 . S
C972 C971 1.403 . S
C972 C973 1.404 . S
C972 C975 1.539 . S
C973 C969 1.408 . S
C973 C972 1.404 . S
C973 H985 0.930 . S
C974 C970 1.524 . S
C974 H986 0.956 . S
C974 H987 0.961 . S
C974 H988 0.961 . S
C975 C972 1.539 . S
C975 H989 0.958 . S
C975 H990 0.961 . S
C975 H991 0.960 . S
H976 C960 0.931 . S
H977 C965 0.929 . S
H978 C966 0.960 . S
H979 C966 0.962 . S
H980 C966 0.960 . S
H981 C967 0.961 . S
H982 C967 0.961 . S
H983 C967 0.961 . S
H984 C968 0.931 . S
H985 C973 0.930 . S
H986 C974 0.956 . S
H987 C974 0.961 . S
H988 C974 0.961 . S
H989 C975 0.958 . S
H990 C975 0.961 . S
H991 C975 0.960 . S
C992 C993 1.391 . S
C992 C994 1.394 . S
C992 H1008 0.931 . S
C993 C992 1.391 . S
C993 C997 1.376 . S
C994 C992 1.394 . S
C994 C995 1.369 . S
C994 C998 1.531 . S
C995 C994 1.369 . S
C995 C996 1.410 . S
C995 C1003 1.503 . S
C996 C995 1.410 . S
C996 C997 1.392 . S
C996 C999 1.511 . S
C997 C993 1.376 . S
C997 C996 1.392 . S
C997 H1009 0.929 . S
C998 C994 1.531 . S
C998 H1010 0.960 . S
C998 H1011 0.962 . S
C998 H1012 0.960 . S
C999 C996 1.511 . S
C999 H1013 0.961 . S
C999 H1014 0.961 . S
C999 H1015 0.961 . S
C1000 C1001 1.370 . S
C1000 C1002 1.363 . S
C1000 H1016 0.931 . S
C1001 C1000 1.370 . S
C1001 C1005 1.408 . S
C1002 C1000 1.363 . S
C1002 C1003 1.370 . S
C1002 C1006 1.524 . S
C1003 C995 1.503 . S
C1003 C1002 1.370 . S
C1003 C1004 1.403 . S
C1004 C1003 1.403 . S
C1004 C1005 1.404 . S
C1004 C1007 1.539 . S
C1005 C1001 1.408 . S
C1005 C1004 1.404 . S
C1005 H1017 0.930 . S
C1006 C1002 1.524 . S
C1006 H1018 0.956 . S
C1006 H1019 0.961 . S
C1006 H1020 0.961 . S
C1007 C1004 1.539 . S
C1007 H1021 0.958 . S
C1007 H1022 0.961 . S
C1007 H1023 0.960 . S
H1008 C992 0.931 . S
H1009 C997 0.929 . S
H1010 C998 0.960 . S
H1011 C998 0.962 . S
H1012 C998 0.960 . S
H1013 C999 0.961 . S
H1014 C999 0.961 . S
H1015 C999 0.961 . S
H1016 C1000 0.931 . S
H1017 C1005 0.930 . S
H1018 C1006 0.956 . S
H1019 C1006 0.961 . S
H1020 C1006 0.961 . S
H1021 C1007 0.958 . S
H1022 C1007 0.961 . S
H1023 C1007 0.960 . S
C1024 C1025 1.391 . S
C1024 C1026 1.394 . S
C1024 H1040 0.931 . S
C1025 C1024 1.391 . S
C1025 C1029 1.376 . S
C1026 C1024 1.394 . S
C1026 C1027 1.369 . S
C1026 C1030 1.531 . S
C1027 C1026 1.369 . S
C1027 C1028 1.410 . S
C1027 C1035 1.503 . S
C1028 C1027 1.410 . S
C1028 C1029 1.392 . S
C1028 C1031 1.511 . S
C1029 C1025 1.376 . S
C1029 C1028 1.392 . S
C1029 H1041 0.929 . S
C1030 C1026 1.531 . S
C1030 H1042 0.960 . S
C1030 H1043 0.962 . S
C1030 H1044 0.960 . S
C1031 C1028 1.511 . S
C1031 H1045 0.961 . S
C1031 H1046 0.961 . S
C1031 H1047 0.961 . S
C1032 C1033 1.370 . S
C1032 C1034 1.363 . S
C1032 H1048 0.931 . S
C1033 C1032 1.370 . S
C1033 C1037 1.408 . S
C1034 C1032 1.363 . S
C1034 C1035 1.370 . S
C1034 C1038 1.524 . S
C1035 C1027 1.503 . S
C1035 C1034 1.370 . S
C1035 C1036 1.403 . S
C1036 C1035 1.403 . S
C1036 C1037 1.404 . S
C1036 C1039 1.539 . S
C1037 C1033 1.408 . S
C1037 C1036 1.404 . S
C1037 H1049 0.930 . S
C1038 C1034 1.524 . S
C1038 H1050 0.956 . S
C1038 H1051 0.961 . S
C1038 H1052 0.961 . S
C1039 C1036 1.539 . S
C1039 H1053 0.958 . S
C1039 H1054 0.961 . S
C1039 H1055 0.960 . S
H1040 C1024 0.931 . S
H1041 C1029 0.929 . S
H1042 C1030 0.960 . S
H1043 C1030 0.962 . S
H1044 C1030 0.960 . S
H1045 C1031 0.961 . S
H1046 C1031 0.961 . S
H1047 C1031 0.961 . S
H1048 C1032 0.931 . S
H1049 C1037 0.930 . S
H1050 C1038 0.956 . S
H1051 C1038 0.961 . S
H1052 C1038 0.961 . S
H1053 C1039 0.958 . S
H1054 C1039 0.961 . S
H1055 C1039 0.960 . S
C1056 C1057 1.391 . S
C1056 C1058 1.394 . S
C1056 H1072 0.931 . S
C1057 C1056 1.391 . S
C1057 C1061 1.376 . S
C1058 C1056 1.394 . S
C1058 C1059 1.369 . S
C1058 C1062 1.531 . S
C1059 C1058 1.369 . S
C1059 C1060 1.410 . S
C1059 C1067 1.503 . S
C1060 C1059 1.410 . S
C1060 C1061 1.392 . S
C1060 C1063 1.511 . S
C1061 C1057 1.376 . S
C1061 C1060 1.392 . S
C1061 H1073 0.929 . S
C1062 C1058 1.531 . S
C1062 H1074 0.960 . S
C1062 H1075 0.962 . S
C1062 H1076 0.960 . S
C1063 C1060 1.511 . S
C1063 H1077 0.961 . S
C1063 H1078 0.961 . S
C1063 H1079 0.961 . S
C1064 C1065 1.371 . S
C1064 C1066 1.363 . S
C1064 H1080 0.931 1_655 S
C1065 C1064 1.371 . S
C1065 C1069 1.413 . S
C1066 C1064 1.363 . S
C1066 C1067 1.370 . S
C1066 C1070 1.524 . S
C1067 C1059 1.503 . S
C1067 C1066 1.370 . S
C1067 C1068 1.403 . S
C1068 C1067 1.403 . S
C1068 C1069 1.404 . S
C1068 C1071 1.539 . S
C1069 C1065 1.413 . S
C1069 C1068 1.404 . S
C1069 H1081 0.930 . S
C1070 C1066 1.524 . S
C1070 H1082 0.956 . S
C1070 H1083 0.961 . S
C1070 H1084 0.961 . S
C1071 C1068 1.539 . S
C1071 H1085 0.958 . S
C1071 H1086 0.961 . S
C1071 H1087 0.960 . S
H1072 C1056 0.931 . S
H1073 C1061 0.929 . S
H1074 C1062 0.960 . S
H1075 C1062 0.962 . S
H1076 C1062 0.960 . S
H1077 C1063 0.961 . S
H1078 C1063 0.961 . S
H1079 C1063 0.961 . S
H1080 C1064 0.931 1_455 S
H1081 C1069 0.930 . S
H1082 C1070 0.956 . S
H1083 C1070 0.961 . S
H1084 C1070 0.961 . S
H1085 C1071 0.958 . S
H1086 C1071 0.961 . S
H1087 C1071 0.960 . S
C1088 C1089 1.391 . S
C1088 C1090 1.394 . S
C1088 H1104 0.931 . S
C1089 C1088 1.391 . S
C1089 C1093 1.376 . S
C1090 C1088 1.394 . S
C1090 C1091 1.369 . S
C1090 C1094 1.531 . S
C1091 C1090 1.369 . S
C1091 C1092 1.410 . S
C1091 C1099 1.503 . S
C1092 C1091 1.410 . S
C1092 C1093 1.392 . S
C1092 C1095 1.511 . S
C1093 C1089 1.376 . S
C1093 C1092 1.392 . S
C1093 H1105 0.929 . S
C1094 C1090 1.531 . S
C1094 H1106 0.960 . S
C1094 H1107 0.962 . S
C1094 H1108 0.960 . S
C1095 C1092 1.511 . S
C1095 H1109 0.961 . S
C1095 H1110 0.961 . S
C1095 H1111 0.961 . S
C1096 C1097 1.370 . S
C1096 C1098 1.363 . S
C1096 H1112 0.931 . S
C1097 C1096 1.370 . S
C1097 C1101 1.408 . S
C1098 C1096 1.363 . S
C1098 C1099 1.370 . S
C1098 C1102 1.524 . S
C1099 C1091 1.503 . S
C1099 C1098 1.370 . S
C1099 C1100 1.403 . S
C1100 C1099 1.403 . S
C1100 C1101 1.404 . S
C1100 C1103 1.539 . S
C1101 C1097 1.408 . S
C1101 C1100 1.404 . S
C1101 H1113 0.930 . S
C1102 C1098 1.524 . S
C1102 H1114 0.956 . S
C1102 H1115 0.961 . S
C1102 H1116 0.961 . S
C1103 C1100 1.539 . S
C1103 H1117 0.958 . S
C1103 H1118 0.961 . S
C1103 H1119 0.960 . S
H1104 C1088 0.931 . S
H1105 C1093 0.929 . S
H1106 C1094 0.960 . S
H1107 C1094 0.962 . S
H1108 C1094 0.960 . S
H1109 C1095 0.961 . S
H1110 C1095 0.961 . S
H1111 C1095 0.961 . S
H1112 C1096 0.931 . S
H1113 C1101 0.930 . S
H1114 C1102 0.956 . S
H1115 C1102 0.961 . S
H1116 C1102 0.961 . S
H1117 C1103 0.958 . S
H1118 C1103 0.961 . S
H1119 C1103 0.960 . S
C1120 C1121 1.391 1_455 S
C1120 C1122 1.398 1_455 S
C1120 H1136 0.926 . S
C1121 C1120 1.391 1_655 S
C1121 C1125 1.379 . S
C1122 C1120 1.398 1_655 S
C1122 C1123 1.369 . S
C1122 C1126 1.531 . S
C1123 C1122 1.369 . S
C1123 C1124 1.410 . S
C1123 C1131 1.503 . S
C1124 C1123 1.410 . S
C1124 C1125 1.392 . S
C1124 C1127 1.511 . S
C1125 C1121 1.379 . S
C1125 C1124 1.392 . S
C1125 H1137 0.929 . S
C1126 C1122 1.531 . S
C1126 H1138 0.960 . S
C1126 H1139 0.962 . S
C1126 H1140 0.960 . S
C1127 C1124 1.511 . S
C1127 H1141 0.961 . S
C1127 H1142 0.961 . S
C1127 H1143 0.961 . S
C1128 C1129 1.370 . S
C1128 C1130 1.363 . S
C1128 H1144 0.931 . S
C1129 C1128 1.370 . S
C1129 C1133 1.408 . S
C1130 C1128 1.363 . S
C1130 C1131 1.370 . S
C1130 C1134 1.524 . S
C1131 C1123 1.503 . S
C1131 C1130 1.370 . S
C1131 C1132 1.403 . S
C1132 C1131 1.403 . S
C1132 C1133 1.404 . S
C1132 C1135 1.539 . S
C1133 C1129 1.408 . S
C1133 C1132 1.404 . S
C1133 H1145 0.930 . S
C1134 C1130 1.524 . S
C1134 H1146 0.956 . S
C1134 H1147 0.961 . S
C1134 H1148 0.961 . S
C1135 C1132 1.539 . S
C1135 H1149 0.958 . S
C1135 H1150 0.961 . S
C1135 H1151 0.960 . S
H1136 C1120 0.926 . S
H1137 C1125 0.929 . S
H1138 C1126 0.960 . S
H1139 C1126 0.962 . S
H1140 C1126 0.960 . S
H1141 C1127 0.961 . S
H1142 C1127 0.961 . S
H1143 C1127 0.961 . S
H1144 C1128 0.931 . S
H1145 C1133 0.930 . S
H1146 C1134 0.956 . S
H1147 C1134 0.961 . S
H1148 C1134 0.961 . S
H1149 C1135 0.958 . S
H1150 C1135 0.961 . S
H1151 C1135 0.960 . S
C1152 C1153 1.391 . S
C1152 C1154 1.394 . S
C1152 H1168 0.931 . S
C1153 C1152 1.391 . S
C1153 C1157 1.376 . S
C1154 C1152 1.394 . S
C1154 C1155 1.369 . S
C1154 C1158 1.531 . S
C1155 C1154 1.369 . S
C1155 C1156 1.410 . S
C1155 C1163 1.503 . S
C1156 C1155 1.410 . S
C1156 C1157 1.392 . S
C1156 C1159 1.511 . S
C1157 C1153 1.376 . S
C1157 C1156 1.392 . S
C1157 H1169 0.929 . S
C1158 C1154 1.531 . S
C1158 H1170 0.960 . S
C1158 H1171 0.962 . S
C1158 H1172 0.960 . S
C1159 C1156 1.511 . S
C1159 H1173 0.961 . S
C1159 H1174 0.961 . S
C1159 H1175 0.961 . S
C1160 C1161 1.370 . S
C1160 C1162 1.363 . S
C1160 H1176 0.931 . S
C1161 C1160 1.370 . S
C1161 C1165 1.408 . S
C1162 C1160 1.363 . S
C1162 C1163 1.370 . S
C1162 C1166 1.524 . S
C1163 C1155 1.503 . S
C1163 C1162 1.370 . S
C1163 C1164 1.403 . S
C1164 C1163 1.403 . S
C1164 C1165 1.404 . S
C1164 C1167 1.539 . S
C1165 C1161 1.408 . S
C1165 C1164 1.404 . S
C1165 H1177 0.930 . S
C1166 C1162 1.524 . S
C1166 H1178 0.956 . S
C1166 H1179 0.961 . S
C1166 H1180 0.961 . S
C1167 C1164 1.539 . S
C1167 H1181 0.958 . S
C1167 H1182 0.961 . S
C1167 H1183 0.960 . S
H1168 C1152 0.931 . S
H1169 C1157 0.929 . S
H1170 C1158 0.960 . S
H1171 C1158 0.962 . S
H1172 C1158 0.960 . S
H1173 C1159 0.961 . S
H1174 C1159 0.961 . S
H1175 C1159 0.961 . S
H1176 C1160 0.931 . S
H1177 C1165 0.930 . S
H1178 C1166 0.956 . S
H1179 C1166 0.961 . S
H1180 C1166 0.961 . S
H1181 C1167 0.958 . S
H1182 C1167 0.961 . S
H1183 C1167 0.960 . S
C1184 C1185 1.391 . S
C1184 C1186 1.394 . S
C1184 H1200 0.931 . S
C1185 C1184 1.391 . S
C1185 C1189 1.376 . S
C1186 C1184 1.394 . S
C1186 C1187 1.369 . S
C1186 C1190 1.531 . S
C1187 C1186 1.369 . S
C1187 C1188 1.410 . S
C1187 C1195 1.503 . S
C1188 C1187 1.410 . S
C1188 C1189 1.392 . S
C1188 C1191 1.511 . S
C1189 C1185 1.376 . S
C1189 C1188 1.392 . S
C1189 H1201 0.929 . S
C1190 C1186 1.531 . S
C1190 H1202 0.960 . S
C1190 H1203 0.962 . S
C1190 H1204 0.960 . S
C1191 C1188 1.511 . S
C1191 H1205 0.961 . S
C1191 H1206 0.961 . S
C1191 H1207 0.961 . S
C1192 C1193 1.370 . S
C1192 C1194 1.363 . S
C1192 H1208 0.931 . S
C1193 C1192 1.370 . S
C1193 C1197 1.408 . S
C1194 C1192 1.363 . S
C1194 C1195 1.370 . S
C1194 C1198 1.524 . S
C1195 C1187 1.503 . S
C1195 C1194 1.370 . S
C1195 C1196 1.403 . S
C1196 C1195 1.403 . S
C1196 C1197 1.404 . S
C1196 C1199 1.539 . S
C1197 C1193 1.408 . S
C1197 C1196 1.404 . S
C1197 H1209 0.930 . S
C1198 C1194 1.524 . S
C1198 H1210 0.956 . S
C1198 H1211 0.961 . S
C1198 H1212 0.961 . S
C1199 C1196 1.539 . S
C1199 H1213 0.958 . S
C1199 H1214 0.961 . S
C1199 H1215 0.960 . S
H1200 C1184 0.931 . S
H1201 C1189 0.929 . S
H1202 C1190 0.960 . S
H1203 C1190 0.962 . S
H1204 C1190 0.960 . S
H1205 C1191 0.961 . S
H1206 C1191 0.961 . S
H1207 C1191 0.961 . S
H1208 C1192 0.931 . S
H1209 C1197 0.930 . S
H1210 C1198 0.956 . S
H1211 C1198 0.961 . S
H1212 C1198 0.961 . S
H1213 C1199 0.958 . S
H1214 C1199 0.961 . S
H1215 C1199 0.960 . S
C1216 C1217 1.391 . S
C1216 C1218 1.394 . S
C1216 H1232 0.931 . S
C1217 C1216 1.391 . S
C1217 C1221 1.376 . S
C1218 C1216 1.394 . S
C1218 C1219 1.369 . S
C1218 C1222 1.531 . S
C1219 C1218 1.369 . S
C1219 C1220 1.410 . S
C1219 C1227 1.503 . S
C1220 C1219 1.410 . S
C1220 C1221 1.392 . S
C1220 C1223 1.511 . S
C1221 C1217 1.376 . S
C1221 C1220 1.392 . S
C1221 H1233 0.929 . S
C1222 C1218 1.531 . S
C1222 H1234 0.960 . S
C1222 H1235 0.962 . S
C1222 H1236 0.960 . S
C1223 C1220 1.511 . S
C1223 H1237 0.961 . S
C1223 H1238 0.961 . S
C1223 H1239 0.961 . S
C1224 C1225 1.370 . S
C1224 C1226 1.363 . S
C1224 H1240 0.931 . S
C1225 C1224 1.370 . S
C1225 C1229 1.408 . S
C1226 C1224 1.363 . S
C1226 C1227 1.370 . S
C1226 C1230 1.524 . S
C1227 C1219 1.503 . S
C1227 C1226 1.370 . S
C1227 C1228 1.403 . S
C1228 C1227 1.403 . S
C1228 C1229 1.404 . S
C1228 C1231 1.539 . S
C1229 C1225 1.408 . S
C1229 C1228 1.404 . S
C1229 H1241 0.930 . S
C1230 C1226 1.524 . S
C1230 H1242 0.956 . S
C1230 H1243 0.961 . S
C1230 H1244 0.961 . S
C1231 C1228 1.539 . S
C1231 H1245 0.958 . S
C1231 H1246 0.961 . S
C1231 H1247 0.960 . S
H1232 C1216 0.931 . S
H1233 C1221 0.929 . S
H1234 C1222 0.960 . S
H1235 C1222 0.962 . S
H1236 C1222 0.960 . S
H1237 C1223 0.961 . S
H1238 C1223 0.961 . S
H1239 C1223 0.961 . S
H1240 C1224 0.931 . S
H1241 C1229 0.930 . S
H1242 C1230 0.956 . S
H1243 C1230 0.961 . S
H1244 C1230 0.961 . S
H1245 C1231 0.958 . S
H1246 C1231 0.961 . S
H1247 C1231 0.960 . S
C1248 C1249 1.391 . S
C1248 C1250 1.394 . S
C1248 H1264 0.931 . S
C1249 C1248 1.391 . S
C1249 C1253 1.376 . S
C1250 C1248 1.394 . S
C1250 C1251 1.369 . S
C1250 C1254 1.531 . S
C1251 C1250 1.369 . S
C1251 C1252 1.410 . S
C1251 C1259 1.503 . S
C1252 C1251 1.410 . S
C1252 C1253 1.392 . S
C1252 C1255 1.511 . S
C1253 C1249 1.376 . S
C1253 C1252 1.392 . S
C1253 H1265 0.929 . S
C1254 C1250 1.531 . S
C1254 H1266 0.960 . S
C1254 H1267 0.962 . S
C1254 H1268 0.960 . S
C1255 C1252 1.511 . S
C1255 H1269 0.961 . S
C1255 H1270 0.961 . S
C1255 H1271 0.961 . S
C1256 C1257 1.370 . S
C1256 C1258 1.363 . S
C1256 H1272 0.931 . S
C1257 C1256 1.370 . S
C1257 C1261 1.408 . S
C1258 C1256 1.363 . S
C1258 C1259 1.370 . S
C1258 C1262 1.524 . S
C1259 C1251 1.503 . S
C1259 C1258 1.370 . S
C1259 C1260 1.403 . S
C1260 C1259 1.403 . S
C1260 C1261 1.404 . S
C1260 C1263 1.539 . S
C1261 C1257 1.408 . S
C1261 C1260 1.404 . S
C1261 H1273 0.930 . S
C1262 C1258 1.524 . S
C1262 H1274 0.956 . S
C1262 H1275 0.961 . S
C1262 H1276 0.961 . S
C1263 C1260 1.539 . S
C1263 H1277 0.958 . S
C1263 H1278 0.961 . S
C1263 H1279 0.960 . S
H1264 C1248 0.931 . S
H1265 C1253 0.929 . S
H1266 C1254 0.960 . S
H1267 C1254 0.962 . S
H1268 C1254 0.960 . S
H1269 C1255 0.961 . S
H1270 C1255 0.961 . S
H1271 C1255 0.961 . S
H1272 C1256 0.931 . S
H1273 C1261 0.930 . S
H1274 C1262 0.956 . S
H1275 C1262 0.961 . S
H1276 C1262 0.961 . S
H1277 C1263 0.958 . S
H1278 C1263 0.961 . S
H1279 C1263 0.960 . S
C1280 C1281 1.391 . S
C1280 C1282 1.394 . S
C1280 H1296 0.931 . S
C1281 C1280 1.391 . S
C1281 C1285 1.376 . S
C1282 C1280 1.394 . S
C1282 C1283 1.369 . S
C1282 C1286 1.531 . S
C1283 C1282 1.369 . S
C1283 C1284 1.410 . S
C1283 C1291 1.503 . S
C1284 C1283 1.410 . S
C1284 C1285 1.392 . S
C1284 C1287 1.511 . S
C1285 C1281 1.376 . S
C1285 C1284 1.392 . S
C1285 H1297 0.929 . S
C1286 C1282 1.531 . S
C1286 H1298 0.960 . S
C1286 H1299 0.962 . S
C1286 H1300 0.960 . S
C1287 C1284 1.511 . S
C1287 H1301 0.961 . S
C1287 H1302 0.961 . S
C1287 H1303 0.961 . S
C1288 C1289 1.370 . S
C1288 C1290 1.363 . S
C1288 H1304 0.931 . S
C1289 C1288 1.370 . S
C1289 C1293 1.408 . S
C1290 C1288 1.363 . S
C1290 C1291 1.370 . S
C1290 C1294 1.524 . S
C1291 C1283 1.503 . S
C1291 C1290 1.370 . S
C1291 C1292 1.403 . S
C1292 C1291 1.403 . S
C1292 C1293 1.404 . S
C1292 C1295 1.539 . S
C1293 C1289 1.408 . S
C1293 C1292 1.404 . S
C1293 H1305 0.930 . S
C1294 C1290 1.524 . S
C1294 H1306 0.956 . S
C1294 H1307 0.961 . S
C1294 H1308 0.961 . S
C1295 C1292 1.539 . S
C1295 H1309 0.958 . S
C1295 H1310 0.961 . S
C1295 H1311 0.960 . S
H1296 C1280 0.931 . S
H1297 C1285 0.929 . S
H1298 C1286 0.960 . S
H1299 C1286 0.962 . S
H1300 C1286 0.960 . S
H1301 C1287 0.961 . S
H1302 C1287 0.961 . S
H1303 C1287 0.961 . S
H1304 C1288 0.931 . S
H1305 C1293 0.930 . S
H1306 C1294 0.956 . S
H1307 C1294 0.961 . S
H1308 C1294 0.961 . S
H1309 C1295 0.958 . S
H1310 C1295 0.961 . S
H1311 C1295 0.960 . S
C1312 C1313 1.391 1_455 S
C1312 C1314 1.394 . S
C1312 H1328 0.931 . S
C1313 C1312 1.391 1_655 S
C1313 C1317 1.376 1_655 S
C1314 C1312 1.394 . S
C1314 C1315 1.369 . S
C1314 C1318 1.531 . S
C1315 C1314 1.369 . S
C1315 C1316 1.410 . S
C1315 C1323 1.503 . S
C1316 C1315 1.410 . S
C1316 C1317 1.392 . S
C1316 C1319 1.511 . S
C1317 C1313 1.376 1_455 S
C1317 C1316 1.392 . S
C1317 H1329 0.929 1_455 S
C1318 C1314 1.531 . S
C1318 H1330 0.960 . S
C1318 H1331 0.962 . S
C1318 H1332 0.960 . S
C1319 C1316 1.511 . S
C1319 H1333 0.961 . S
C1319 H1334 0.961 . S
C1319 H1335 0.961 . S
C1320 C1321 1.370 . S
C1320 C1322 1.363 . S
C1320 H1336 0.931 . S
C1321 C1320 1.370 . S
C1321 C1325 1.408 . S
C1322 C1320 1.363 . S
C1322 C1323 1.370 . S
C1322 C1326 1.524 . S
C1323 C1315 1.503 . S
C1323 C1322 1.370 . S
C1323 C1324 1.403 . S
C1324 C1323 1.403 . S
C1324 C1325 1.404 . S
C1324 C1327 1.539 . S
C1325 C1321 1.408 . S
C1325 C1324 1.404 . S
C1325 H1337 0.930 . S
C1326 C1322 1.524 . S
C1326 H1338 0.956 . S
C1326 H1339 0.961 . S
C1326 H1340 0.961 . S
C1327 C1324 1.539 . S
C1327 H1341 0.958 . S
C1327 H1342 0.961 . S
C1327 H1343 0.960 . S
H1328 C1312 0.931 . S
H1329 C1317 0.929 1_655 S
H1330 C1318 0.960 . S
H1331 C1318 0.962 . S
H1332 C1318 0.960 . S
H1333 C1319 0.961 . S
H1334 C1319 0.961 . S
H1335 C1319 0.961 . S
H1336 C1320 0.931 . S
H1337 C1325 0.930 . S
H1338 C1326 0.956 . S
H1339 C1326 0.961 . S
H1340 C1326 0.961 . S
H1341 C1327 0.958 . S
H1342 C1327 0.961 . S
H1343 C1327 0.960 . S
C1344 C1345 1.391 . S
C1344 C1346 1.394 . S
C1344 H1360 0.931 . S
C1345 C1344 1.391 . S
C1345 C1349 1.376 . S
C1346 C1344 1.394 . S
C1346 C1347 1.369 . S
C1346 C1350 1.531 . S
C1347 C1346 1.369 . S
C1347 C1348 1.410 . S
C1347 C1355 1.503 . S
C1348 C1347 1.410 . S
C1348 C1349 1.392 . S
C1348 C1351 1.511 . S
C1349 C1345 1.376 . S
C1349 C1348 1.392 . S
C1349 H1361 0.929 . S
C1350 C1346 1.531 . S
C1350 H1362 0.960 . S
C1350 H1363 0.962 . S
C1350 H1364 0.960 . S
C1351 C1348 1.511 . S
C1351 H1365 0.961 . S
C1351 H1366 0.961 . S
C1351 H1367 0.961 . S
C1352 C1353 1.370 . S
C1352 C1354 1.363 . S
C1352 H1368 0.931 . S
C1353 C1352 1.370 . S
C1353 C1357 1.408 . S
C1354 C1352 1.363 . S
C1354 C1355 1.370 . S
C1354 C1358 1.524 . S
C1355 C1347 1.503 . S
C1355 C1354 1.370 . S
C1355 C1356 1.403 . S
C1356 C1355 1.403 . S
C1356 C1357 1.404 . S
C1356 C1359 1.539 . S
C1357 C1353 1.408 . S
C1357 C1356 1.404 . S
C1357 H1369 0.930 . S
C1358 C1354 1.524 . S
C1358 H1370 0.956 . S
C1358 H1371 0.961 . S
C1358 H1372 0.961 . S
C1359 C1356 1.539 . S
C1359 H1373 0.958 . S
C1359 H1374 0.961 . S
C1359 H1375 0.960 . S
H1360 C1344 0.931 . S
H1361 C1349 0.929 . S
H1362 C1350 0.960 . S
H1363 C1350 0.962 . S
H1364 C1350 0.960 . S
H1365 C1351 0.961 . S
H1366 C1351 0.961 . S
H1367 C1351 0.961 . S
H1368 C1352 0.931 . S
H1369 C1357 0.930 . S
H1370 C1358 0.956 . S
H1371 C1358 0.961 . S
H1372 C1358 0.961 . S
H1373 C1359 0.958 . S
H1374 C1359 0.961 . S
H1375 C1359 0.960 . S
C1376 C1377 1.391 . S
C1376 C1378 1.394 1_655 S
C1376 H1392 0.931 . S
C1377 C1376 1.391 . S
C1377 C1381 1.375 1_655 S
C1378 C1376 1.394 1_455 S
C1378 C1379 1.369 . S
C1378 C1382 1.531 . S
C1379 C1378 1.369 . S
C1379 C1380 1.410 . S
C1379 C1387 1.503 . S
C1380 C1379 1.410 . S
C1380 C1381 1.392 . S
C1380 C1383 1.511 . S
C1381 C1377 1.375 1_455 S
C1381 C1380 1.392 . S
C1381 H1393 0.929 . S
C1382 C1378 1.531 . S
C1382 H1394 0.960 . S
C1382 H1395 0.962 . S
C1382 H1396 0.960 . S
C1383 C1380 1.511 . S
C1383 H1397 0.961 . S
C1383 H1398 0.961 . S
C1383 H1399 0.961 . S
C1384 C1385 1.370 . S
C1384 C1386 1.363 . S
C1384 H1400 0.931 . S
C1385 C1384 1.370 . S
C1385 C1389 1.408 . S
C1386 C1384 1.363 . S
C1386 C1387 1.370 . S
C1386 C1390 1.524 . S
C1387 C1379 1.503 . S
C1387 C1386 1.370 . S
C1387 C1388 1.403 . S
C1388 C1387 1.403 . S
C1388 C1389 1.404 . S
C1388 C1391 1.539 . S
C1389 C1385 1.408 . S
C1389 C1388 1.404 . S
C1389 H1401 0.930 . S
C1390 C1386 1.524 . S
C1390 H1402 0.956 . S
C1390 H1403 0.961 . S
C1390 H1404 0.961 . S
C1391 C1388 1.539 . S
C1391 H1405 0.958 . S
C1391 H1406 0.961 . S
C1391 H1407 0.960 . S
H1392 C1376 0.931 . S
H1393 C1381 0.929 . S
H1394 C1382 0.960 . S
H1395 C1382 0.962 . S
H1396 C1382 0.960 . S
H1397 C1383 0.961 . S
H1398 C1383 0.961 . S
H1399 C1383 0.961 . S
H1400 C1384 0.931 . S
H1401 C1389 0.930 . S
H1402 C1390 0.956 . S
H1403 C1390 0.961 . S
H1404 C1390 0.961 . S
H1405 C1391 0.958 . S
H1406 C1391 0.961 . S
H1407 C1391 0.960 . S
C1408 C1409 1.391 . S
C1408 C1410 1.394 . S
C1408 H1424 0.931 . S
C1409 C1408 1.391 . S
C1409 C1413 1.376 . S
C1410 C1408 1.394 . S
C1410 C1411 1.369 . S
C1410 C1414 1.531 . S
C1411 C1410 1.369 . S
C1411 C1412 1.410 . S
C1411 C1419 1.503 . S
C1412 C1411 1.410 . S
C1412 C1413 1.392 . S
C1412 C1415 1.511 . S
C1413 C1409 1.376 . S
C1413 C1412 1.392 . S
C1413 H1425 0.929 . S
C1414 C1410 1.531 . S
C1414 H1426 0.960 . S
C1414 H1427 0.962 . S
C1414 H1428 0.960 . S
C1415 C1412 1.511 . S
C1415 H1429 0.961 . S
C1415 H1430 0.961 . S
C1415 H1431 0.961 . S
C1416 C1417 1.370 . S
C1416 C1418 1.363 . S
C1416 H1432 0.931 . S
C1417 C1416 1.370 . S
C1417 C1421 1.408 . S
C1418 C1416 1.363 . S
C1418 C1419 1.370 . S
C1418 C1422 1.524 . S
C1419 C1411 1.503 . S
C1419 C1418 1.370 . S
C1419 C1420 1.403 . S
C1420 C1419 1.403 . S
C1420 C1421 1.404 . S
C1420 C1423 1.539 . S
C1421 C1417 1.408 . S
C1421 C1420 1.404 . S
C1421 H1433 0.930 . S
C1422 C1418 1.524 . S
C1422 H1434 0.956 . S
C1422 H1435 0.961 . S
C1422 H1436 0.961 . S
C1423 C1420 1.539 . S
C1423 H1437 0.958 . S
C1423 H1438 0.961 . S
C1423 H1439 0.960 . S
H1424 C1408 0.931 . S
H1425 C1413 0.929 . S
H1426 C1414 0.960 . S
H1427 C1414 0.962 . S
H1428 C1414 0.960 . S
H1429 C1415 0.961 . S
H1430 C1415 0.961 . S
H1431 C1415 0.961 . S
H1432 C1416 0.931 . S
H1433 C1421 0.930 . S
H1434 C1422 0.956 . S
H1435 C1422 0.961 . S
H1436 C1422 0.961 . S
H1437 C1423 0.958 . S
H1438 C1423 0.961 . S
H1439 C1423 0.960 . S
C1440 C1441 1.391 . S
C1440 C1442 1.394 . S
C1440 H1456 0.931 . S
C1441 C1440 1.391 . S
C1441 C1445 1.376 . S
C1442 C1440 1.394 . S
C1442 C1443 1.369 . S
C1442 C1446 1.531 . S
C1443 C1442 1.369 . S
C1443 C1444 1.410 . S
C1443 C1451 1.503 . S
C1444 C1443 1.410 . S
C1444 C1445 1.392 . S
C1444 C1447 1.511 . S
C1445 C1441 1.376 . S
C1445 C1444 1.392 . S
C1445 H1457 0.929 . S
C1446 C1442 1.531 . S
C1446 H1458 0.960 . S
C1446 H1459 0.962 . S
C1446 H1460 0.960 . S
C1447 C1444 1.511 . S
C1447 H1461 0.961 . S
C1447 H1462 0.961 . S
C1447 H1463 0.961 . S
C1448 C1449 1.370 . S
C1448 C1450 1.363 . S
C1448 H1464 0.931 . S
C1449 C1448 1.370 . S
C1449 C1453 1.408 . S
C1450 C1448 1.363 . S
C1450 C1451 1.370 . S
C1450 C1454 1.524 . S
C1451 C1443 1.503 . S
C1451 C1450 1.370 . S
C1451 C1452 1.403 . S
C1452 C1451 1.403 . S
C1452 C1453 1.404 . S
C1452 C1455 1.539 . S
C1453 C1449 1.408 . S
C1453 C1452 1.404 . S
C1453 H1465 0.930 . S
C1454 C1450 1.524 . S
C1454 H1466 0.956 . S
C1454 H1467 0.961 . S
C1454 H1468 0.961 . S
C1455 C1452 1.539 . S
C1455 H1469 0.958 . S
C1455 H1470 0.961 . S
C1455 H1471 0.960 . S
H1456 C1440 0.931 . S
H1457 C1445 0.929 . S
H1458 C1446 0.960 . S
H1459 C1446 0.962 . S
H1460 C1446 0.960 . S
H1461 C1447 0.961 . S
H1462 C1447 0.961 . S
H1463 C1447 0.961 . S
H1464 C1448 0.931 . S
H1465 C1453 0.930 . S
H1466 C1454 0.956 . S
H1467 C1454 0.961 . S
H1468 C1454 0.961 . S
H1469 C1455 0.958 . S
H1470 C1455 0.961 . S
H1471 C1455 0.960 . S
C1472 C1473 1.391 . S
C1472 C1474 1.394 . S
C1472 H1488 0.931 . S
C1473 C1472 1.391 . S
C1473 C1477 1.376 . S
C1474 C1472 1.394 . S
C1474 C1475 1.369 . S
C1474 C1478 1.531 . S
C1475 C1474 1.369 . S
C1475 C1476 1.410 . S
C1475 C1483 1.503 . S
C1476 C1475 1.410 . S
C1476 C1477 1.392 . S
C1476 C1479 1.511 . S
C1477 C1473 1.376 . S
C1477 C1476 1.392 . S
C1477 H1489 0.929 . S
C1478 C1474 1.531 . S
C1478 H1490 0.960 . S
C1478 H1491 0.962 . S
C1478 H1492 0.960 . S
C1479 C1476 1.511 . S
C1479 H1493 0.961 . S
C1479 H1494 0.961 . S
C1479 H1495 0.961 . S
C1480 C1481 1.370 . S
C1480 C1482 1.363 . S
C1480 H1496 0.931 . S
C1481 C1480 1.370 . S
C1481 C1485 1.408 . S
C1482 C1480 1.363 . S
C1482 C1483 1.370 . S
C1482 C1486 1.524 . S
C1483 C1475 1.503 . S
C1483 C1482 1.370 . S
C1483 C1484 1.403 . S
C1484 C1483 1.403 . S
C1484 C1485 1.404 . S
C1484 C1487 1.539 . S
C1485 C1481 1.408 . S
C1485 C1484 1.404 . S
C1485 H1497 0.930 . S
C1486 C1482 1.524 . S
C1486 H1498 0.956 . S
C1486 H1499 0.961 . S
C1486 H1500 0.961 . S
C1487 C1484 1.539 . S
C1487 H1501 0.958 . S
C1487 H1502 0.961 . S
C1487 H1503 0.960 . S
H1488 C1472 0.931 . S
H1489 C1477 0.929 . S
H1490 C1478 0.960 . S
H1491 C1478 0.962 . S
H1492 C1478 0.960 . S
H1493 C1479 0.961 . S
H1494 C1479 0.961 . S
H1495 C1479 0.961 . S
H1496 C1480 0.931 . S
H1497 C1485 0.930 . S
H1498 C1486 0.956 . S
H1499 C1486 0.961 . S
H1500 C1486 0.961 . S
H1501 C1487 0.958 . S
H1502 C1487 0.961 . S
H1503 C1487 0.960 . S
C1504 C1505 1.391 . S
C1504 C1506 1.394 . S
C1504 H1520 0.931 . S
C1505 C1504 1.391 . S
C1505 C1509 1.376 . S
C1506 C1504 1.394 . S
C1506 C1507 1.369 . S
C1506 C1510 1.531 1_655 S
C1507 C1506 1.369 . S
C1507 C1508 1.410 . S
C1507 C1515 1.503 1_665 S
C1508 C1507 1.410 . S
C1508 C1509 1.392 . S
C1508 C1511 1.511 1_565 S
C1509 C1505 1.376 . S
C1509 C1508 1.392 . S
C1509 H1521 0.929 . S
C1510 C1506 1.531 1_455 S
C1510 H1522 0.960 . S
C1510 H1523 0.962 . S
C1510 H1524 0.960 . S
C1511 C1508 1.511 1_545 S
C1511 H1525 0.961 . S
C1511 H1526 0.961 . S
C1511 H1527 0.961 . S
C1512 C1513 1.370 . S
C1512 C1514 1.363 . S
C1512 H1528 0.931 . S
C1513 C1512 1.370 . S
C1513 C1517 1.408 . S
C1514 C1512 1.363 . S
C1514 C1515 1.370 . S
C1514 C1518 1.524 . S
C1515 C1507 1.503 1_445 S
C1515 C1514 1.370 . S
C1515 C1516 1.403 . S
C1516 C1515 1.403 . S
C1516 C1517 1.404 . S
C1516 C1519 1.539 1_455 S
C1517 C1513 1.408 . S
C1517 C1516 1.404 . S
C1517 H1529 0.930 . S
C1518 C1514 1.524 . S
C1518 H1530 0.956 1_545 S
C1518 H1531 0.961 . S
C1518 H1532 0.961 . S
C1519 C1516 1.539 1_655 S
C1519 H1533 0.958 1_545 S
C1519 H1534 0.961 . S
C1519 H1535 0.960 . S
H1520 C1504 0.931 . S
H1521 C1509 0.929 . S
H1522 C1510 0.960 . S
H1523 C1510 0.962 . S
H1524 C1510 0.960 . S
H1525 C1511 0.961 . S
H1526 C1511 0.961 . S
H1527 C1511 0.961 . S
H1528 C1512 0.931 . S
H1529 C1517 0.930 . S
H1530 C1518 0.956 1_565 S
H1531 C1518 0.961 . S
H1532 C1518 0.961 . S
H1533 C1519 0.958 1_565 S
H1534 C1519 0.961 . S
H1535 C1519 0.960 . S
C1536 C1537 1.391 . S
C1536 C1538 1.394 . S
C1536 H1552 0.931 . S
C1537 C1536 1.391 . S
C1537 C1541 1.376 . S
C1538 C1536 1.394 . S
C1538 C1539 1.369 . S
C1538 C1542 1.531 . S
C1539 C1538 1.369 . S
C1539 C1540 1.410 . S
C1539 C1547 1.503 . S
C1540 C1539 1.410 . S
C1540 C1541 1.392 . S
C1540 C1543 1.511 . S
C1541 C1537 1.376 . S
C1541 C1540 1.392 . S
C1541 H1553 0.929 . S
C1542 C1538 1.531 . S
C1542 H1554 0.960 . S
C1542 H1555 0.962 . S
C1542 H1556 0.960 . S
C1543 C1540 1.511 . S
C1543 H1557 0.961 . S
C1543 H1558 0.961 . S
C1543 H1559 0.961 . S
C1544 C1545 1.370 . S
C1544 C1546 1.363 . S
C1544 H1560 0.931 . S
C1545 C1544 1.370 . S
C1545 C1549 1.408 . S
C1546 C1544 1.363 . S
C1546 C1547 1.370 . S
C1546 C1550 1.524 . S
C1547 C1539 1.503 . S
C1547 C1546 1.370 . S
C1547 C1548 1.403 . S
C1548 C1547 1.403 . S
C1548 C1549 1.404 . S
C1548 C1551 1.539 . S
C1549 C1545 1.408 . S
C1549 C1548 1.404 . S
C1549 H1561 0.930 . S
C1550 C1546 1.524 . S
C1550 H1562 0.956 . S
C1550 H1563 0.961 . S
C1550 H1564 0.961 . S
C1551 C1548 1.539 . S
C1551 H1565 0.958 . S
C1551 H1566 0.961 . S
C1551 H1567 0.960 . S
H1552 C1536 0.931 . S
H1553 C1541 0.929 . S
H1554 C1542 0.960 . S
H1555 C1542 0.962 . S
H1556 C1542 0.960 . S
H1557 C1543 0.961 . S
H1558 C1543 0.961 . S
H1559 C1543 0.961 . S
H1560 C1544 0.931 . S
H1561 C1549 0.930 . S
H1562 C1550 0.956 . S
H1563 C1550 0.961 . S
H1564 C1550 0.961 . S
H1565 C1551 0.958 . S
H1566 C1551 0.961 . S
H1567 C1551 0.960 . S
C1568 C1569 1.391 . S
C1568 C1570 1.394 1_554 S
C1568 H1584 0.931 1_554 S
C1569 C1568 1.391 . S
C1569 C1573 1.376 . S
C1570 C1568 1.394 1_556 S
C1570 C1571 1.369 1_556 S
C1570 C1574 1.531 1_545 S
C1571 C1570 1.369 1_554 S
C1571 C1572 1.410 . S
C1571 C1579 1.493 1_544 S
C1572 C1571 1.410 . S
C1572 C1573 1.392 . S
C1572 C1575 1.511 . S
C1573 C1569 1.376 . S
C1573 C1572 1.392 . S
C1573 H1585 0.929 . S
C1574 C1570 1.531 1_565 S
C1574 H1586 0.960 . S
C1574 H1587 0.962 . S
C1574 H1588 0.960 . S
C1575 C1572 1.511 . S
C1575 H1589 0.961 . S
C1575 H1590 0.961 . S
C1575 H1591 0.961 . S
C1576 C1577 1.370 . S
C1576 C1578 1.363 . S
C1576 H1592 0.931 . S
C1577 C1576 1.370 . S
C1577 C1581 1.408 1_556 S
C1578 C1576 1.363 . S
C1578 C1579 1.398 . S
C1578 C1582 1.524 1_565 S
C1579 C1571 1.493 1_566 S
C1579 C1578 1.398 . S
C1579 C1580 1.386 1_556 S
C1580 C1579 1.386 1_554 S
C1580 C1581 1.404 . S
C1580 C1583 1.539 . S
C1581 C1577 1.408 1_554 S
C1581 C1580 1.404 . S
C1581 H1593 0.930 . S
C1582 C1578 1.524 1_545 S
C1582 H1594 0.956 . S
C1582 H1595 0.961 . S
C1582 H1596 0.961 . S
C1583 C1580 1.539 . S
C1583 H1597 0.958 . S
C1583 H1598 0.961 . S
C1583 H1599 0.960 . S
H1584 C1568 0.931 1_556 S
H1585 C1573 0.929 . S
H1586 C1574 0.960 . S
H1587 C1574 0.962 . S
H1588 C1574 0.960 . S
H1589 C1575 0.961 . S
H1590 C1575 0.961 . S
H1591 C1575 0.961 . S
H1592 C1576 0.931 . S
H1593 C1581 0.930 . S
H1594 C1582 0.956 . S
H1595 C1582 0.961 . S
H1596 C1582 0.961 . S
H1597 C1583 0.958 . S
H1598 C1583 0.961 . S
H1599 C1583 0.960 . S
C1600 C1601 1.391 . S
C1600 C1602 1.394 . S
C1600 H1616 0.931 . S
C1601 C1600 1.391 . S
C1601 C1605 1.376 . S
C1602 C1600 1.394 . S
C1602 C1603 1.369 . S
C1602 C1606 1.531 . S
C1603 C1602 1.369 . S
C1603 C1604 1.410 . S
C1603 C1611 1.503 . S
C1604 C1603 1.410 . S
C1604 C1605 1.392 . S
C1604 C1607 1.511 . S
C1605 C1601 1.376 . S
C1605 C1604 1.392 . S
C1605 H1617 0.929 . S
C1606 C1602 1.531 . S
C1606 H1618 0.960 . S
C1606 H1619 0.962 . S
C1606 H1620 0.960 . S
C1607 C1604 1.511 . S
C1607 H1621 0.961 . S
C1607 H1622 0.961 . S
C1607 H1623 0.961 . S
C1608 C1609 1.370 . S
C1608 C1610 1.363 . S
C1608 H1624 0.931 . S
C1609 C1608 1.370 . S
C1609 C1613 1.408 . S
C1610 C1608 1.363 . S
C1610 C1611 1.370 . S
C1610 C1614 1.524 . S
C1611 C1603 1.503 . S
C1611 C1610 1.370 . S
C1611 C1612 1.403 . S
C1612 C1611 1.403 . S
C1612 C1613 1.404 . S
C1612 C1615 1.539 . S
C1613 C1609 1.408 . S
C1613 C1612 1.404 . S
C1613 H1625 0.930 . S
C1614 C1610 1.524 . S
C1614 H1626 0.956 . S
C1614 H1627 0.961 . S
C1614 H1628 0.961 . S
C1615 C1612 1.539 . S
C1615 H1629 0.958 . S
C1615 H1630 0.961 . S
C1615 H1631 0.960 . S
H1616 C1600 0.931 . S
H1617 C1605 0.929 . S
H1618 C1606 0.960 . S
H1619 C1606 0.962 . S
H1620 C1606 0.960 . S
H1621 C1607 0.961 . S
H1622 C1607 0.961 . S
H1623 C1607 0.961 . S
H1624 C1608 0.931 . S
H1625 C1613 0.930 . S
H1626 C1614 0.956 . S
H1627 C1614 0.961 . S
H1628 C1614 0.961 . S
H1629 C1615 0.958 . S
H1630 C1615 0.961 . S
H1631 C1615 0.960 . S
C1632 C1633 1.391 . S
C1632 C1634 1.394 . S
C1632 H1648 0.931 . S
C1633 C1632 1.391 . S
C1633 C1637 1.376 . S
C1634 C1632 1.394 . S
C1634 C1635 1.369 . S
C1634 C1638 1.531 . S
C1635 C1634 1.369 . S
C1635 C1636 1.410 . S
C1635 C1643 1.503 1_565 S
C1636 C1635 1.410 . S
C1636 C1637 1.392 . S
C1636 C1639 1.511 1_565 S
C1637 C1633 1.376 . S
C1637 C1636 1.392 . S
C1637 H1649 0.929 . S
C1638 C1634 1.531 . S
C1638 H1650 0.960 . S
C1638 H1651 0.962 . S
C1638 H1652 0.960 . S
C1639 C1636 1.511 1_545 S
C1639 H1653 0.961 . S
C1639 H1654 0.961 . S
C1639 H1655 0.961 . S
C1640 C1641 1.370 . S
C1640 C1642 1.363 . S
C1640 H1656 0.931 . S
C1641 C1640 1.370 . S
C1641 C1645 1.408 . S
C1642 C1640 1.363 . S
C1642 C1643 1.370 . S
C1642 C1646 1.524 1_545 S
C1643 C1635 1.503 1_545 S
C1643 C1642 1.370 . S
C1643 C1644 1.403 . S
C1644 C1643 1.403 . S
C1644 C1645 1.404 . S
C1644 C1647 1.539 . S
C1645 C1641 1.408 . S
C1645 C1644 1.404 . S
C1645 H1657 0.930 . S
C1646 C1642 1.524 1_565 S
C1646 H1658 0.956 . S
C1646 H1659 0.961 . S
C1646 H1660 0.961 . S
C1647 C1644 1.539 . S
C1647 H1661 0.958 . S
C1647 H1662 0.961 . S
C1647 H1663 0.960 . S
H1648 C1632 0.931 . S
H1649 C1637 0.929 . S
H1650 C1638 0.960 . S
H1651 C1638 0.962 . S
H1652 C1638 0.960 . S
H1653 C1639 0.961 . S
H1654 C1639 0.961 . S
H1655 C1639 0.961 . S
H1656 C1640 0.931 . S
H1657 C1645 0.930 . S
H1658 C1646 0.956 . S
H1659 C1646 0.961 . S
H1660 C1646 0.961 . S
H1661 C1647 0.958 . S
H1662 C1647 0.961 . S
H1663 C1647 0.960 . S
C1664 C1665 1.391 . S
C1664 C1666 1.394 . S
C1664 H1680 0.931 . S
C1665 C1664 1.391 . S
C1665 C1669 1.376 . S
C1666 C1664 1.394 . S
C1666 C1667 1.369 . S
C1666 C1670 1.531 . S
C1667 C1666 1.369 . S
C1667 C1668 1.410 . S
C1667 C1675 1.503 . S
C1668 C1667 1.410 . S
C1668 C1669 1.392 . S
C1668 C1671 1.511 . S
C1669 C1665 1.376 . S
C1669 C1668 1.392 . S
C1669 H1681 0.929 . S
C1670 C1666 1.531 . S
C1670 H1682 0.960 . S
C1670 H1683 0.962 . S
C1670 H1684 0.960 . S
C1671 C1668 1.511 . S
C1671 H1685 0.961 . S
C1671 H1686 0.961 . S
C1671 H1687 0.961 . S
C1672 C1673 1.370 . S
C1672 C1674 1.363 . S
C1672 H1688 0.931 . S
C1673 C1672 1.370 . S
C1673 C1677 1.408 . S
C1674 C1672 1.363 . S
C1674 C1675 1.370 . S
C1674 C1678 1.524 . S
C1675 C1667 1.503 . S
C1675 C1674 1.370 . S
C1675 C1676 1.403 . S
C1676 C1675 1.403 . S
C1676 C1677 1.404 . S
C1676 C1679 1.539 . S
C1677 C1673 1.408 . S
C1677 C1676 1.404 . S
C1677 H1689 0.930 . S
C1678 C1674 1.524 . S
C1678 H1690 0.956 . S
C1678 H1691 0.961 . S
C1678 H1692 0.961 . S
C1679 C1676 1.539 . S
C1679 H1693 0.958 . S
C1679 H1694 0.961 . S
C1679 H1695 0.960 . S
H1680 C1664 0.931 . S
H1681 C1669 0.929 . S
H1682 C1670 0.960 . S
H1683 C1670 0.962 . S
H1684 C1670 0.960 . S
H1685 C1671 0.961 . S
H1686 C1671 0.961 . S
H1687 C1671 0.961 . S
H1688 C1672 0.931 . S
H1689 C1677 0.930 . S
H1690 C1678 0.956 . S
H1691 C1678 0.961 . S
H1692 C1678 0.961 . S
H1693 C1679 0.958 . S
H1694 C1679 0.961 . S
H1695 C1679 0.960 . S
C1696 C1697 1.391 . S
C1696 C1698 1.394 . S
C1696 H1712 0.931 . S
C1697 C1696 1.391 . S
C1697 C1701 1.376 . S
C1698 C1696 1.394 . S
C1698 C1699 1.369 . S
C1698 C1702 1.531 1_546 S
C1699 C1698 1.369 . S
C1699 C1700 1.407 . S
C1699 C1707 1.499 1_646 S
C1700 C1699 1.407 . S
C1700 C1701 1.389 . S
C1700 C1703 1.517 1_655 S
C1701 C1697 1.376 . S
C1701 C1700 1.389 . S
C1701 H1713 0.929 . S
C1702 C1698 1.531 1_564 S
C1702 H1714 0.960 . S
C1702 H1715 0.962 . S
C1702 H1716 0.960 . S
C1703 C1700 1.517 1_455 S
C1703 H1717 0.961 . S
C1703 H1718 0.961 . S
C1703 H1719 0.961 . S
C1704 C1705 1.370 . S
C1704 C1706 1.363 . S
C1704 H1720 0.931 . S
C1705 C1704 1.370 . S
C1705 C1709 1.408 1_554 S
C1706 C1704 1.363 . S
C1706 C1707 1.381 . S
C1706 C1710 1.524 1_565 S
C1707 C1699 1.499 1_464 S
C1707 C1706 1.381 . S
C1707 C1708 1.396 1_554 S
C1708 C1707 1.396 1_556 S
C1708 C1709 1.404 . S
C1708 C1711 1.552 . S
C1709 C1705 1.408 1_556 S
C1709 C1708 1.404 . S
C1709 H1721 0.930 . S
C1710 C1706 1.524 1_545 S
C1710 H1722 0.956 1_455 S
C1710 H1723 0.961 . S
C1710 H1724 0.961 . S
C1711 C1708 1.552 . S
C1711 H1725 0.930 1_455 S
C1711 H1726 0.983 . S
C1711 H1727 0.954 1_455 S
H1712 C1696 0.931 . S
H1713 C1701 0.929 . S
H1714 C1702 0.960 . S
H1715 C1702 0.962 . S
H1716 C1702 0.960 . S
H1717 C1703 0.961 . S
H1718 C1703 0.961 . S
H1719 C1703 0.961 . S
H1720 C1704 0.931 . S
H1721 C1709 0.930 . S
H1722 C1710 0.956 1_655 S
H1723 C1710 0.961 . S
H1724 C1710 0.961 . S
H1725 C1711 0.930 1_655 S
H1726 C1711 0.983 . S
H1727 C1711 0.954 1_655 S
C1728 C1729 1.391 . S
C1728 C1730 1.394 . S
C1728 H1744 0.931 . S
C1729 C1728 1.391 . S
C1729 C1733 1.376 . S
C1730 C1728 1.394 . S
C1730 C1731 1.369 . S
C1730 C1734 1.531 . S
C1731 C1730 1.369 . S
C1731 C1732 1.410 . S
C1731 C1739 1.503 . S
C1732 C1731 1.410 . S
C1732 C1733 1.392 . S
C1732 C1735 1.511 . S
C1733 C1729 1.376 . S
C1733 C1732 1.392 . S
C1733 H1745 0.929 . S
C1734 C1730 1.531 . S
C1734 H1746 0.960 . S
C1734 H1747 0.962 . S
C1734 H1748 0.960 . S
C1735 C1732 1.511 . S
C1735 H1749 0.961 . S
C1735 H1750 0.961 . S
C1735 H1751 0.961 . S
C1736 C1737 1.370 . S
C1736 C1738 1.363 . S
C1736 H1752 0.931 . S
C1737 C1736 1.370 . S
C1737 C1741 1.408 . S
C1738 C1736 1.363 . S
C1738 C1739 1.370 . S
C1738 C1742 1.524 . S
C1739 C1731 1.503 . S
C1739 C1738 1.370 . S
C1739 C1740 1.403 . S
C1740 C1739 1.403 . S
C1740 C1741 1.404 . S
C1740 C1743 1.539 . S
C1741 C1737 1.408 . S
C1741 C1740 1.404 . S
C1741 H1753 0.930 . S
C1742 C1738 1.524 . S
C1742 H1754 0.956 . S
C1742 H1755 0.961 . S
C1742 H1756 0.961 . S
C1743 C1740 1.539 . S
C1743 H1757 0.958 . S
C1743 H1758 0.961 . S
C1743 H1759 0.960 . S
H1744 C1728 0.931 . S
H1745 C1733 0.929 . S
H1746 C1734 0.960 . S
H1747 C1734 0.962 . S
H1748 C1734 0.960 . S
H1749 C1735 0.961 . S
H1750 C1735 0.961 . S
H1751 C1735 0.961 . S
H1752 C1736 0.931 . S
H1753 C1741 0.930 . S
H1754 C1742 0.956 . S
H1755 C1742 0.961 . S
H1756 C1742 0.961 . S
H1757 C1743 0.958 . S
H1758 C1743 0.961 . S
H1759 C1743 0.960 . S
C1760 C1761 1.391 . S
C1760 C1762 1.394 . S
C1760 H1776 0.931 . S
C1761 C1760 1.391 . S
C1761 C1765 1.376 . S
C1762 C1760 1.394 . S
C1762 C1763 1.369 . S
C1762 C1766 1.531 . S
C1763 C1762 1.369 . S
C1763 C1764 1.410 . S
C1763 C1771 1.503 . S
C1764 C1763 1.410 . S
C1764 C1765 1.392 . S
C1764 C1767 1.511 . S
C1765 C1761 1.376 . S
C1765 C1764 1.392 . S
C1765 H1777 0.929 . S
C1766 C1762 1.531 . S
C1766 H1778 0.960 . S
C1766 H1779 0.962 . S
C1766 H1780 0.960 . S
C1767 C1764 1.511 . S
C1767 H1781 0.961 . S
C1767 H1782 0.961 . S
C1767 H1783 0.961 . S
C1768 C1769 1.370 . S
C1768 C1770 1.363 . S
C1768 H1784 0.931 . S
C1769 C1768 1.370 . S
C1769 C1773 1.408 . S
C1770 C1768 1.363 . S
C1770 C1771 1.370 . S
C1770 C1774 1.524 . S
C1771 C1763 1.503 . S
C1771 C1770 1.370 . S
C1771 C1772 1.403 . S
C1772 C1771 1.403 . S
C1772 C1773 1.404 . S
C1772 C1775 1.539 . S
C1773 C1769 1.408 . S
C1773 C1772 1.404 . S
C1773 H1785 0.930 . S
C1774 C1770 1.524 . S
C1774 H1786 0.956 . S
C1774 H1787 0.961 . S
C1774 H1788 0.961 . S
C1775 C1772 1.539 . S
C1775 H1789 0.958 . S
C1775 H1790 0.961 . S
C1775 H1791 0.960 . S
H1776 C1760 0.931 . S
H1777 C1765 0.929 . S
H1778 C1766 0.960 . S
H1779 C1766 0.962 . S
H1780 C1766 0.960 . S
H1781 C1767 0.961 . S
H1782 C1767 0.961 . S
H1783 C1767 0.961 . S
H1784 C1768 0.931 . S
H1785 C1773 0.930 . S
H1786 C1774 0.956 . S
H1787 C1774 0.961 . S
H1788 C1774 0.961 . S
H1789 C1775 0.958 . S
H1790 C1775 0.961 . S
H1791 C1775 0.960 . S
C1792 C1793 1.391 . S
C1792 C1794 1.394 . S
C1792 H1808 0.931 . S
C1793 C1792 1.391 . S
C1793 C1797 1.376 . S
C1794 C1792 1.394 . S
C1794 C1795 1.369 . S
C1794 C1798 1.531 . S
C1795 C1794 1.369 . S
C1795 C1796 1.410 . S
C1795 C1803 1.503 . S
C1796 C1795 1.410 . S
C1796 C1797 1.392 . S
C1796 C1799 1.511 . S
C1797 C1793 1.376 . S
C1797 C1796 1.392 . S
C1797 H1809 0.929 . S
C1798 C1794 1.531 . S
C1798 H1810 0.960 . S
C1798 H1811 0.962 . S
C1798 H1812 0.960 . S
C1799 C1796 1.511 . S
C1799 H1813 0.961 . S
C1799 H1814 0.961 . S
C1799 H1815 0.961 . S
C1800 C1801 1.370 . S
C1800 C1802 1.363 . S
C1800 H1816 0.931 . S
C1801 C1800 1.370 . S
C1801 C1805 1.408 . S
C1802 C1800 1.363 . S
C1802 C1803 1.370 . S
C1802 C1806 1.524 . S
C1803 C1795 1.503 . S
C1803 C1802 1.370 . S
C1803 C1804 1.403 . S
C1804 C1803 1.403 . S
C1804 C1805 1.404 . S
C1804 C1807 1.539 . S
C1805 C1801 1.408 . S
C1805 C1804 1.404 . S
C1805 H1817 0.930 . S
C1806 C1802 1.524 . S
C1806 H1818 0.956 . S
C1806 H1819 0.961 . S
C1806 H1820 0.961 . S
C1807 C1804 1.539 . S
C1807 H1821 0.958 . S
C1807 H1822 0.961 . S
C1807 H1823 0.960 . S
H1808 C1792 0.931 . S
H1809 C1797 0.929 . S
H1810 C1798 0.960 . S
H1811 C1798 0.962 . S
H1812 C1798 0.960 . S
H1813 C1799 0.961 . S
H1814 C1799 0.961 . S
H1815 C1799 0.961 . S
H1816 C1800 0.931 . S
H1817 C1805 0.930 . S
H1818 C1806 0.956 . S
H1819 C1806 0.961 . S
H1820 C1806 0.961 . S
H1821 C1807 0.958 . S
H1822 C1807 0.961 . S
H1823 C1807 0.960 . S
C1824 C1825 1.391 . S
C1824 C1826 1.394 . S
C1824 H1840 0.931 . S
C1825 C1824 1.391 . S
C1825 C1829 1.376 . S
C1826 C1824 1.394 . S
C1826 C1827 1.369 . S
C1826 C1830 1.531 . S
C1827 C1826 1.369 . S
C1827 C1828 1.410 . S
C1827 C1835 1.503 . S
C1828 C1827 1.410 . S
C1828 C1829 1.392 . S
C1828 C1831 1.511 . S
C1829 C1825 1.376 . S
C1829 C1828 1.392 . S
C1829 H1841 0.929 . S
C1830 C1826 1.531 . S
C1830 H1842 0.960 . S
C1830 H1843 0.962 . S
C1830 H1844 0.960 . S
C1831 C1828 1.511 . S
C1831 H1845 0.961 . S
C1831 H1846 0.961 . S
C1831 H1847 0.961 . S
C1832 C1833 1.370 . S
C1832 C1834 1.363 . S
C1832 H1848 0.931 . S
C1833 C1832 1.370 . S
C1833 C1837 1.408 . S
C1834 C1832 1.363 . S
C1834 C1835 1.370 . S
C1834 C1838 1.524 . S
C1835 C1827 1.503 . S
C1835 C1834 1.370 . S
C1835 C1836 1.403 . S
C1836 C1835 1.403 . S
C1836 C1837 1.404 . S
C1836 C1839 1.539 . S
C1837 C1833 1.408 . S
C1837 C1836 1.404 . S
C1837 H1849 0.930 . S
C1838 C1834 1.524 . S
C1838 H1850 0.956 . S
C1838 H1851 0.961 . S
C1838 H1852 0.961 . S
C1839 C1836 1.539 . S
C1839 H1853 0.958 . S
C1839 H1854 0.961 . S
C1839 H1855 0.960 . S
H1840 C1824 0.931 . S
H1841 C1829 0.929 . S
H1842 C1830 0.960 . S
H1843 C1830 0.962 . S
H1844 C1830 0.960 . S
H1845 C1831 0.961 . S
H1846 C1831 0.961 . S
H1847 C1831 0.961 . S
H1848 C1832 0.931 . S
H1849 C1837 0.930 . S
H1850 C1838 0.956 . S
H1851 C1838 0.961 . S
H1852 C1838 0.961 . S
H1853 C1839 0.958 . S
H1854 C1839 0.961 . S
H1855 C1839 0.960 . S
C1856 C1857 1.391 . S
C1856 C1858 1.394 . S
C1856 H1872 0.931 . S
C1857 C1856 1.391 . S
C1857 C1861 1.376 . S
C1858 C1856 1.394 . S
C1858 C1859 1.369 1_554 S
C1858 C1862 1.531 . S
C1859 C1858 1.369 1_556 S
C1859 C1860 1.410 . S
C1859 C1867 1.503 . S
C1860 C1859 1.410 . S
C1860 C1861 1.392 1_556 S
C1860 C1863 1.511 . S
C1861 C1857 1.376 . S
C1861 C1860 1.392 1_554 S
C1861 H1873 0.929 . S
C1862 C1858 1.531 . S
C1862 H1874 0.960 1_554 S
C1862 H1875 0.962 . S
C1862 H1876 0.960 . S
C1863 C1860 1.511 . S
C1863 H1877 0.961 . S
C1863 H1878 0.961 . S
C1863 H1879 0.961 . S
C1864 C1865 1.370 1_554 S
C1864 C1866 1.363 . S
C1864 H1880 0.931 . S
C1865 C1864 1.370 1_556 S
C1865 C1869 1.408 . S
C1866 C1864 1.363 . S
C1866 C1867 1.370 1_554 S
C1866 C1870 1.524 . S
C1867 C1859 1.503 . S
C1867 C1866 1.370 1_556 S
C1867 C1868 1.403 . S
C1868 C1867 1.403 . S
C1868 C1869 1.404 . S
C1868 C1871 1.539 . S
C1869 C1865 1.408 . S
C1869 C1868 1.404 . S
C1869 H1881 0.930 . S
C1870 C1866 1.524 . S
C1870 H1882 0.956 . S
C1870 H1883 0.961 . S
C1870 H1884 0.961 . S
C1871 C1868 1.539 . S
C1871 H1885 0.958 . S
C1871 H1886 0.961 . S
C1871 H1887 0.960 . S
H1872 C1856 0.931 . S
H1873 C1861 0.929 . S
H1874 C1862 0.960 1_556 S
H1875 C1862 0.962 . S
H1876 C1862 0.960 . S
H1877 C1863 0.961 . S
H1878 C1863 0.961 . S
H1879 C1863 0.961 . S
H1880 C1864 0.931 . S
H1881 C1869 0.930 . S
H1882 C1870 0.956 . S
H1883 C1870 0.961 . S
H1884 C1870 0.961 . S
H1885 C1871 0.958 . S
H1886 C1871 0.961 . S
H1887 C1871 0.960 . S
C1888 C1889 1.391 . S
C1888 C1890 1.394 . S
C1888 H1904 0.931 . S
C1889 C1888 1.391 . S
C1889 C1893 1.376 . S
C1890 C1888 1.394 . S
C1890 C1891 1.369 . S
C1890 C1894 1.531 . S
C1891 C1890 1.369 . S
C1891 C1892 1.410 1_655 S
C1891 C1899 1.503 1_655 S
C1892 C1891 1.410 1_455 S
C1892 C1893 1.392 1_455 S
C1892 C1895 1.511 . S
C1893 C1889 1.376 . S
C1893 C1892 1.392 1_655 S
C1893 H1905 0.929 . S
C1894 C1890 1.531 . S
C1894 H1906 0.960 . S
C1894 H1907 0.962 . S
C1894 H1908 0.960 . S
C1895 C1892 1.511 . S
C1895 H1909 0.961 . S
C1895 H1910 0.961 . S
C1895 H1911 0.961 . S
C1896 C1897 1.370 . S
C1896 C1898 1.363 . S
C1896 H1912 0.931 . S
C1897 C1896 1.370 . S
C1897 C1901 1.408 . S
C1898 C1896 1.363 . S
C1898 C1899 1.370 . S
C1898 C1902 1.524 . S
C1899 C1891 1.503 1_455 S
C1899 C1898 1.370 . S
C1899 C1900 1.403 . S
C1900 C1899 1.403 . S
C1900 C1901 1.404 . S
C1900 C1903 1.539 . S
C1901 C1897 1.408 . S
C1901 C1900 1.404 . S
C1901 H1913 0.930 . S
C1902 C1898 1.524 . S
C1902 H1914 0.956 1_455 S
C1902 H1915 0.961 . S
C1902 H1916 0.961 . S
C1903 C1900 1.539 . S
C1903 H1917 0.986 . S
C1903 H1918 0.961 . S
C1903 H1919 0.960 . S
H1904 C1888 0.931 . S
H1905 C1893 0.929 . S
H1906 C1894 0.960 . S
H1907 C1894 0.962 . S
H1908 C1894 0.960 . S
H1909 C1895 0.961 . S
H1910 C1895 0.961 . S
H1911 C1895 0.961 . S
H1912 C1896 0.931 . S
H1913 C1901 0.930 . S
H1914 C1902 0.956 1_655 S
H1915 C1902 0.961 . S
H1916 C1902 0.961 . S
H1917 C1903 0.986 . S
H1918 C1903 0.961 . S
H1919 C1903 0.960 . S
C1920 C1921 1.391 . S
C1920 C1922 1.394 . S
C1920 H1936 0.931 . S
C1921 C1920 1.391 . S
C1921 C1925 1.376 1_556 S
C1922 C1920 1.394 . S
C1922 C1923 1.369 . S
C1922 C1926 1.531 . S
C1923 C1922 1.369 . S
C1923 C1924 1.410 1_556 S
C1923 C1931 1.503 1_456 S
C1924 C1923 1.410 1_554 S
C1924 C1925 1.392 . S
C1924 C1927 1.511 1_455 S
C1925 C1921 1.376 1_554 S
C1925 C1924 1.392 . S
C1925 H1937 0.929 . S
C1926 C1922 1.531 . S
C1926 H1938 0.960 1_455 S
C1926 H1939 0.962 . S
C1926 H1940 0.960 . S
C1927 C1924 1.511 1_655 S
C1927 H1941 0.961 1_655 S
C1927 H1942 0.961 . S
C1927 H1943 0.961 . S
C1928 C1929 1.370 . S
C1928 C1930 1.393 . S
C1928 H1944 0.931 . S
C1929 C1928 1.370 . S
C1929 C1933 1.408 . S
C1930 C1928 1.393 . S
C1930 C1931 1.393 . S
C1930 C1934 1.473 1_655 S
C1931 C1923 1.503 1_654 S
C1931 C1930 1.393 . S
C1931 C1932 1.403 1_554 S
C1932 C1931 1.403 1_556 S
C1932 C1933 1.404 1_556 S
C1932 C1935 1.539 . S
C1933 C1929 1.408 . S
C1933 C1932 1.404 1_554 S
C1933 H1945 0.930 . S
C1934 C1930 1.473 1_455 S
C1934 H1946 0.956 . S
C1934 H1947 0.961 . S
C1934 H1948 0.961 . S
C1935 C1932 1.539 . S
C1935 H1949 0.958 . S
C1935 H1950 0.961 . S
C1935 H1951 0.960 . S
H1936 C1920 0.931 . S
H1937 C1925 0.929 . S
H1938 C1926 0.960 1_655 S
H1939 C1926 0.962 . S
H1940 C1926 0.960 . S
H1941 C1927 0.961 1_455 S
H1942 C1927 0.961 . S
H1943 C1927 0.961 . S
H1944 C1928 0.931 . S
H1945 C1933 0.930 . S
H1946 C1934 0.956 . S
H1947 C1934 0.961 . S
H1948 C1934 0.961 . S
H1949 C1935 0.958 . S
H1950 C1935 0.961 . S
H1951 C1935 0.960 . S
C1952 C1953 1.391 . S
C1952 C1954 1.394 . S
C1952 H1968 0.931 . S
C1953 C1952 1.391 . S
C1953 C1957 1.376 . S
C1954 C1952 1.394 . S
C1954 C1955 1.369 . S
C1954 C1958 1.531 . S
C1955 C1954 1.369 . S
C1955 C1956 1.410 . S
C1955 C1963 1.503 . S
C1956 C1955 1.410 . S
C1956 C1957 1.392 . S
C1956 C1959 1.511 . S
C1957 C1953 1.376 . S
C1957 C1956 1.392 . S
C1957 H1969 0.929 . S
C1958 C1954 1.531 . S
C1958 H1970 0.960 . S
C1958 H1971 0.962 . S
C1958 H1972 0.960 . S
C1959 C1956 1.511 . S
C1959 H1973 0.961 . S
C1959 H1974 0.961 . S
C1959 H1975 0.961 . S
C1960 C1961 1.370 . S
C1960 C1962 1.363 . S
C1960 H1976 0.931 . S
C1961 C1960 1.370 . S
C1961 C1965 1.408 . S
C1962 C1960 1.363 . S
C1962 C1963 1.370 . S
C1962 C1966 1.524 . S
C1963 C1955 1.503 . S
C1963 C1962 1.370 . S
C1963 C1964 1.403 . S
C1964 C1963 1.403 . S
C1964 C1965 1.404 . S
C1964 C1967 1.539 . S
C1965 C1961 1.408 . S
C1965 C1964 1.404 . S
C1965 H1977 0.930 . S
C1966 C1962 1.524 . S
C1966 H1978 0.956 . S
C1966 H1979 0.961 . S
C1966 H1980 0.961 . S
C1967 C1964 1.539 . S
C1967 H1981 0.958 . S
C1967 H1982 0.961 . S
C1967 H1983 0.960 . S
H1968 C1952 0.931 . S
H1969 C1957 0.929 . S
H1970 C1958 0.960 . S
H1971 C1958 0.962 . S
H1972 C1958 0.960 . S
H1973 C1959 0.961 . S
H1974 C1959 0.961 . S
H1975 C1959 0.961 . S
H1976 C1960 0.931 . S
H1977 C1965 0.930 . S
H1978 C1966 0.956 . S
H1979 C1966 0.961 . S
H1980 C1966 0.961 . S
H1981 C1967 0.958 . S
H1982 C1967 0.961 . S
H1983 C1967 0.960 . S
C1984 C1985 1.391 . S
C1984 C1986 1.394 . S
C1984 H2000 0.931 . S
C1985 C1984 1.391 . S
C1985 C1989 1.376 . S
C1986 C1984 1.394 . S
C1986 C1987 1.369 . S
C1986 C1990 1.531 . S
C1987 C1986 1.369 . S
C1987 C1988 1.410 . S
C1987 C1995 1.503 . S
C1988 C1987 1.410 . S
C1988 C1989 1.392 . S
C1988 C1991 1.511 . S
C1989 C1985 1.376 . S
C1989 C1988 1.392 . S
C1989 H2001 0.929 . S
C1990 C1986 1.531 . S
C1990 H2002 0.960 . S
C1990 H2003 0.962 . S
C1990 H2004 0.960 . S
C1991 C1988 1.511 . S
C1991 H2005 0.961 . S
C1991 H2006 0.961 . S
C1991 H2007 0.961 . S
C1992 C1993 1.370 . S
C1992 C1994 1.363 . S
C1992 H2008 0.931 . S
C1993 C1992 1.370 . S
C1993 C1997 1.408 . S
C1994 C1992 1.363 . S
C1994 C1995 1.370 . S
C1994 C1998 1.524 . S
C1995 C1987 1.503 . S
C1995 C1994 1.370 . S
C1995 C1996 1.403 . S
C1996 C1995 1.403 . S
C1996 C1997 1.404 . S
C1996 C1999 1.539 . S
C1997 C1993 1.408 . S
C1997 C1996 1.404 . S
C1997 H2009 0.930 . S
C1998 C1994 1.524 . S
C1998 H2010 0.956 . S
C1998 H2011 0.961 . S
C1998 H2012 0.961 . S
C1999 C1996 1.539 . S
C1999 H2013 0.958 . S
C1999 H2014 0.961 . S
C1999 H2015 0.960 . S
H2000 C1984 0.931 . S
H2001 C1989 0.929 . S
H2002 C1990 0.960 . S
H2003 C1990 0.962 . S
H2004 C1990 0.960 . S
H2005 C1991 0.961 . S
H2006 C1991 0.961 . S
H2007 C1991 0.961 . S
H2008 C1992 0.931 . S
H2009 C1997 0.930 . S
H2010 C1998 0.956 . S
H2011 C1998 0.961 . S
H2012 C1998 0.961 . S
H2013 C1999 0.958 . S
H2014 C1999 0.961 . S
H2015 C1999 0.960 . S
C2016 C2017 1.391 . S
C2016 C2018 1.394 . S
C2016 H2032 0.931 . S
C2017 C2016 1.391 . S
C2017 C2021 1.376 . S
C2018 C2016 1.394 . S
C2018 C2019 1.369 . S
C2018 C2022 1.531 . S
C2019 C2018 1.369 . S
C2019 C2020 1.410 . S
C2019 C2027 1.503 . S
C2020 C2019 1.410 . S
C2020 C2021 1.392 . S
C2020 C2023 1.511 . S
C2021 C2017 1.376 . S
C2021 C2020 1.392 . S
C2021 H2033 0.929 . S
C2022 C2018 1.531 . S
C2022 H2034 0.960 . S
C2022 H2035 0.962 . S
C2022 H2036 0.960 . S
C2023 C2020 1.511 . S
C2023 H2037 0.961 . S
C2023 H2038 0.961 . S
C2023 H2039 0.961 . S
C2024 C2025 1.370 . S
C2024 C2026 1.363 . S
C2024 H2040 0.931 . S
C2025 C2024 1.370 . S
C2025 C2029 1.408 . S
C2026 C2024 1.363 . S
C2026 C2027 1.370 . S
C2026 C2030 1.524 . S
C2027 C2019 1.503 . S
C2027 C2026 1.370 . S
C2027 C2028 1.403 . S
C2028 C2027 1.403 . S
C2028 C2029 1.404 . S
C2028 C2031 1.539 . S
C2029 C2025 1.408 . S
C2029 C2028 1.404 . S
C2029 H2041 0.930 . S
C2030 C2026 1.524 . S
C2030 H2042 0.956 . S
C2030 H2043 0.961 . S
C2030 H2044 0.961 . S
C2031 C2028 1.539 . S
C2031 H2045 0.958 . S
C2031 H2046 0.961 . S
C2031 H2047 0.960 . S
H2032 C2016 0.931 . S
H2033 C2021 0.929 . S
H2034 C2022 0.960 . S
H2035 C2022 0.962 . S
H2036 C2022 0.960 . S
H2037 C2023 0.961 . S
H2038 C2023 0.961 . S
H2039 C2023 0.961 . S
H2040 C2024 0.931 . S
H2041 C2029 0.930 . S
H2042 C2030 0.956 . S
H2043 C2030 0.961 . S
H2044 C2030 0.961 . S
H2045 C2031 0.958 . S
H2046 C2031 0.961 . S
H2047 C2031 0.960 . S
C2048 C2049 1.391 . S
C2048 C2050 1.394 . S
C2048 H2064 0.931 . S
C2049 C2048 1.391 . S
C2049 C2053 1.376 . S
C2050 C2048 1.394 . S
C2050 C2051 1.369 . S
C2050 C2054 1.531 . S
C2051 C2050 1.369 . S
C2051 C2052 1.410 . S
C2051 C2059 1.503 . S
C2052 C2051 1.410 . S
C2052 C2053 1.392 . S
C2052 C2055 1.511 . S
C2053 C2049 1.376 . S
C2053 C2052 1.392 . S
C2053 H2065 0.929 . S
C2054 C2050 1.531 . S
C2054 H2066 0.960 . S
C2054 H2067 0.962 . S
C2054 H2068 0.960 . S
C2055 C2052 1.511 . S
C2055 H2069 0.961 . S
C2055 H2070 0.961 . S
C2055 H2071 0.961 . S
C2056 C2057 1.370 . S
C2056 C2058 1.363 . S
C2056 H2072 0.931 . S
C2057 C2056 1.370 . S
C2057 C2061 1.408 . S
C2058 C2056 1.363 . S
C2058 C2059 1.370 . S
C2058 C2062 1.524 . S
C2059 C2051 1.503 . S
C2059 C2058 1.370 . S
C2059 C2060 1.403 . S
C2060 C2059 1.403 . S
C2060 C2061 1.404 . S
C2060 C2063 1.539 . S
C2061 C2057 1.408 . S
C2061 C2060 1.404 . S
C2061 H2073 0.930 . S
C2062 C2058 1.524 . S
C2062 H2074 0.956 . S
C2062 H2075 0.961 . S
C2062 H2076 0.961 . S
C2063 C2060 1.539 . S
C2063 H2077 0.958 . S
C2063 H2078 0.961 . S
C2063 H2079 0.960 . S
H2064 C2048 0.931 . S
H2065 C2053 0.929 . S
H2066 C2054 0.960 . S
H2067 C2054 0.962 . S
H2068 C2054 0.960 . S
H2069 C2055 0.961 . S
H2070 C2055 0.961 . S
H2071 C2055 0.961 . S
H2072 C2056 0.931 . S
H2073 C2061 0.930 . S
H2074 C2062 0.956 . S
H2075 C2062 0.961 . S
H2076 C2062 0.961 . S
H2077 C2063 0.958 . S
H2078 C2063 0.961 . S
H2079 C2063 0.960 . S
C2080 C2081 1.391 . S
C2080 C2082 1.394 . S
C2080 H2096 0.931 . S
C2081 C2080 1.391 . S
C2081 C2085 1.376 . S
C2082 C2080 1.394 . S
C2082 C2083 1.369 . S
C2082 C2086 1.531 . S
C2083 C2082 1.369 . S
C2083 C2084 1.410 . S
C2083 C2091 1.503 . S
C2084 C2083 1.410 . S
C2084 C2085 1.392 . S
C2084 C2087 1.511 . S
C2085 C2081 1.376 . S
C2085 C2084 1.392 . S
C2085 H2097 0.929 . S
C2086 C2082 1.531 . S
C2086 H2098 0.960 . S
C2086 H2099 0.962 . S
C2086 H2100 0.960 . S
C2087 C2084 1.511 . S
C2087 H2101 0.961 . S
C2087 H2102 0.961 . S
C2087 H2103 0.961 . S
C2088 C2089 1.370 . S
C2088 C2090 1.363 . S
C2088 H2104 0.931 . S
C2089 C2088 1.370 . S
C2089 C2093 1.408 . S
C2090 C2088 1.363 . S
C2090 C2091 1.370 . S
C2090 C2094 1.524 . S
C2091 C2083 1.503 . S
C2091 C2090 1.370 . S
C2091 C2092 1.403 . S
C2092 C2091 1.403 . S
C2092 C2093 1.404 . S
C2092 C2095 1.539 . S
C2093 C2089 1.408 . S
C2093 C2092 1.404 . S
C2093 H2105 0.930 . S
C2094 C2090 1.524 . S
C2094 H2106 0.956 . S
C2094 H2107 0.961 . S
C2094 H2108 0.961 . S
C2095 C2092 1.539 . S
C2095 H2109 0.958 . S
C2095 H2110 0.961 . S
C2095 H2111 0.960 . S
H2096 C2080 0.931 . S
H2097 C2085 0.929 . S
H2098 C2086 0.960 . S
H2099 C2086 0.962 . S
H2100 C2086 0.960 . S
H2101 C2087 0.961 . S
H2102 C2087 0.961 . S
H2103 C2087 0.961 . S
H2104 C2088 0.931 . S
H2105 C2093 0.930 . S
H2106 C2094 0.956 . S
H2107 C2094 0.961 . S
H2108 C2094 0.961 . S
H2109 C2095 0.958 . S
H2110 C2095 0.961 . S
H2111 C2095 0.960 . S
C2112 C2113 1.391 . S
C2112 C2114 1.394 . S
C2112 H2128 0.931 . S
C2113 C2112 1.391 . S
C2113 C2117 1.376 . S
C2114 C2112 1.394 . S
C2114 C2115 1.369 . S
C2114 C2118 1.531 . S
C2115 C2114 1.369 . S
C2115 C2116 1.410 . S
C2115 C2123 1.503 . S
C2116 C2115 1.410 . S
C2116 C2117 1.392 . S
C2116 C2119 1.511 . S
C2117 C2113 1.376 . S
C2117 C2116 1.392 . S
C2117 H2129 0.929 . S
C2118 C2114 1.531 . S
C2118 H2130 0.960 . S
C2118 H2131 0.962 . S
C2118 H2132 0.960 . S
C2119 C2116 1.511 . S
C2119 H2133 0.961 . S
C2119 H2134 0.961 . S
C2119 H2135 0.961 . S
C2120 C2121 1.370 . S
C2120 C2122 1.363 . S
C2120 H2136 0.931 . S
C2121 C2120 1.370 . S
C2121 C2125 1.408 . S
C2122 C2120 1.363 . S
C2122 C2123 1.370 . S
C2122 C2126 1.524 . S
C2123 C2115 1.503 . S
C2123 C2122 1.370 . S
C2123 C2124 1.403 . S
C2124 C2123 1.403 . S
C2124 C2125 1.404 . S
C2124 C2127 1.539 . S
C2125 C2121 1.408 . S
C2125 C2124 1.404 . S
C2125 H2137 0.930 . S
C2126 C2122 1.524 . S
C2126 H2138 0.956 . S
C2126 H2139 0.961 . S
C2126 H2140 0.961 . S
C2127 C2124 1.539 . S
C2127 H2141 0.958 . S
C2127 H2142 0.961 . S
C2127 H2143 0.960 . S
H2128 C2112 0.931 . S
H2129 C2117 0.929 . S
H2130 C2118 0.960 . S
H2131 C2118 0.962 . S
H2132 C2118 0.960 . S
H2133 C2119 0.961 . S
H2134 C2119 0.961 . S
H2135 C2119 0.961 . S
H2136 C2120 0.931 . S
H2137 C2125 0.930 . S
H2138 C2126 0.956 . S
H2139 C2126 0.961 . S
H2140 C2126 0.961 . S
H2141 C2127 0.958 . S
H2142 C2127 0.961 . S
H2143 C2127 0.960 . S
C2144 C2145 1.391 . S
C2144 C2146 1.394 . S
C2144 H2160 0.931 . S
C2145 C2144 1.391 . S
C2145 C2149 1.376 . S
C2146 C2144 1.394 . S
C2146 C2147 1.369 . S
C2146 C2150 1.531 . S
C2147 C2146 1.369 . S
C2147 C2148 1.410 . S
C2147 C2155 1.503 . S
C2148 C2147 1.410 . S
C2148 C2149 1.392 . S
C2148 C2151 1.511 . S
C2149 C2145 1.376 . S
C2149 C2148 1.392 . S
C2149 H2161 0.929 . S
C2150 C2146 1.531 . S
C2150 H2162 0.960 . S
C2150 H2163 0.962 . S
C2150 H2164 0.960 . S
C2151 C2148 1.511 . S
C2151 H2165 0.961 . S
C2151 H2166 0.961 . S
C2151 H2167 0.961 . S
C2152 C2153 1.370 . S
C2152 C2154 1.363 . S
C2152 H2168 0.931 . S
C2153 C2152 1.370 . S
C2153 C2157 1.408 . S
C2154 C2152 1.363 . S
C2154 C2155 1.370 . S
C2154 C2158 1.524 . S
C2155 C2147 1.503 . S
C2155 C2154 1.370 . S
C2155 C2156 1.403 . S
C2156 C2155 1.403 . S
C2156 C2157 1.404 . S
C2156 C2159 1.539 . S
C2157 C2153 1.408 . S
C2157 C2156 1.404 . S
C2157 H2169 0.930 . S
C2158 C2154 1.524 . S
C2158 H2170 0.956 . S
C2158 H2171 0.961 . S
C2158 H2172 0.961 . S
C2159 C2156 1.539 . S
C2159 H2173 0.958 . S
C2159 H2174 0.961 . S
C2159 H2175 0.960 . S
H2160 C2144 0.931 . S
H2161 C2149 0.929 . S
H2162 C2150 0.960 . S
H2163 C2150 0.962 . S
H2164 C2150 0.960 . S
H2165 C2151 0.961 . S
H2166 C2151 0.961 . S
H2167 C2151 0.961 . S
H2168 C2152 0.931 . S
H2169 C2157 0.930 . S
H2170 C2158 0.956 . S
H2171 C2158 0.961 . S
H2172 C2158 0.961 . S
H2173 C2159 0.958 . S
H2174 C2159 0.961 . S
H2175 C2159 0.960 . S
C2176 C2177 1.391 . S
C2176 C2178 1.394 . S
C2176 H2192 0.931 . S
C2177 C2176 1.391 . S
C2177 C2181 1.376 . S
C2178 C2176 1.394 . S
C2178 C2179 1.369 . S
C2178 C2182 1.531 . S
C2179 C2178 1.369 . S
C2179 C2180 1.410 . S
C2179 C2187 1.503 . S
C2180 C2179 1.410 . S
C2180 C2181 1.392 . S
C2180 C2183 1.511 . S
C2181 C2177 1.376 . S
C2181 C2180 1.392 . S
C2181 H2193 0.929 . S
C2182 C2178 1.531 . S
C2182 H2194 0.960 . S
C2182 H2195 0.962 . S
C2182 H2196 0.960 . S
C2183 C2180 1.511 . S
C2183 H2197 0.961 . S
C2183 H2198 0.961 . S
C2183 H2199 0.961 . S
C2184 C2185 1.370 . S
C2184 C2186 1.363 . S
C2184 H2200 0.931 . S
C2185 C2184 1.370 . S
C2185 C2189 1.408 . S
C2186 C2184 1.363 . S
C2186 C2187 1.370 . S
C2186 C2190 1.524 . S
C2187 C2179 1.503 . S
C2187 C2186 1.370 . S
C2187 C2188 1.403 . S
C2188 C2187 1.403 . S
C2188 C2189 1.404 . S
C2188 C2191 1.539 . S
C2189 C2185 1.408 . S
C2189 C2188 1.404 . S
C2189 H2201 0.930 . S
C2190 C2186 1.524 . S
C2190 H2202 0.956 . S
C2190 H2203 0.961 . S
C2190 H2204 0.961 . S
C2191 C2188 1.539 . S
C2191 H2205 0.958 . S
C2191 H2206 0.961 . S
C2191 H2207 0.960 . S
H2192 C2176 0.931 . S
H2193 C2181 0.929 . S
H2194 C2182 0.960 . S
H2195 C2182 0.962 . S
H2196 C2182 0.960 . S
H2197 C2183 0.961 . S
H2198 C2183 0.961 . S
H2199 C2183 0.961 . S
H2200 C2184 0.931 . S
H2201 C2189 0.930 . S
H2202 C2190 0.956 . S
H2203 C2190 0.961 . S
H2204 C2190 0.961 . S
H2205 C2191 0.958 . S
H2206 C2191 0.961 . S
H2207 C2191 0.960 . S
C2208 C2209 1.391 . S
C2208 C2210 1.394 . S
C2208 H2224 0.931 . S
C2209 C2208 1.391 . S
C2209 C2213 1.376 . S
C2210 C2208 1.394 . S
C2210 C2211 1.369 . S
C2210 C2214 1.531 . S
C2211 C2210 1.369 . S
C2211 C2212 1.410 . S
C2211 C2219 1.503 . S
C2212 C2211 1.410 . S
C2212 C2213 1.392 . S
C2212 C2215 1.511 . S
C2213 C2209 1.376 . S
C2213 C2212 1.392 . S
C2213 H2225 0.929 . S
C2214 C2210 1.531 . S
C2214 H2226 0.960 . S
C2214 H2227 0.962 . S
C2214 H2228 0.960 . S
C2215 C2212 1.511 . S
C2215 H2229 0.961 . S
C2215 H2230 0.961 . S
C2215 H2231 0.961 . S
C2216 C2217 1.370 . S
C2216 C2218 1.363 . S
C2216 H2232 0.931 . S
C2217 C2216 1.370 . S
C2217 C2221 1.408 . S
C2218 C2216 1.363 . S
C2218 C2219 1.370 . S
C2218 C2222 1.524 . S
C2219 C2211 1.503 . S
C2219 C2218 1.370 . S
C2219 C2220 1.403 . S
C2220 C2219 1.403 . S
C2220 C2221 1.404 . S
C2220 C2223 1.539 . S
C2221 C2217 1.408 . S
C2221 C2220 1.404 . S
C2221 H2233 0.930 . S
C2222 C2218 1.524 . S
C2222 H2234 0.956 . S
C2222 H2235 0.961 . S
C2222 H2236 0.961 . S
C2223 C2220 1.539 . S
C2223 H2237 0.958 . S
C2223 H2238 0.961 . S
C2223 H2239 0.960 . S
H2224 C2208 0.931 . S
H2225 C2213 0.929 . S
H2226 C2214 0.960 . S
H2227 C2214 0.962 . S
H2228 C2214 0.960 . S
H2229 C2215 0.961 . S
H2230 C2215 0.961 . S
H2231 C2215 0.961 . S
H2232 C2216 0.931 . S
H2233 C2221 0.930 . S
H2234 C2222 0.956 . S
H2235 C2222 0.961 . S
H2236 C2222 0.961 . S
H2237 C2223 0.958 . S
H2238 C2223 0.961 . S
H2239 C2223 0.960 . S
C2240 C2241 1.391 . S
C2240 C2242 1.394 . S
C2240 H2256 0.931 . S
C2241 C2240 1.391 . S
C2241 C2245 1.376 . S
C2242 C2240 1.394 . S
C2242 C2243 1.369 . S
C2242 C2246 1.531 . S
C2243 C2242 1.369 . S
C2243 C2244 1.410 . S
C2243 C2251 1.503 . S
C2244 C2243 1.410 . S
C2244 C2245 1.392 . S
C2244 C2247 1.511 . S
C2245 C2241 1.376 . S
C2245 C2244 1.392 . S
C2245 H2257 0.929 . S
C2246 C2242 1.531 . S
C2246 H2258 0.960 . S
C2246 H2259 0.962 . S
C2246 H2260 0.960 . S
C2247 C2244 1.511 . S
C2247 H2261 0.961 . S
C2247 H2262 0.961 . S
C2247 H2263 0.961 . S
C2248 C2249 1.370 . S
C2248 C2250 1.363 . S
C2248 H2264 0.931 . S
C2249 C2248 1.370 . S
C2249 C2253 1.408 . S
C2250 C2248 1.363 . S
C2250 C2251 1.370 . S
C2250 C2254 1.524 . S
C2251 C2243 1.503 . S
C2251 C2250 1.370 . S
C2251 C2252 1.403 . S
C2252 C2251 1.403 . S
C2252 C2253 1.404 . S
C2252 C2255 1.539 . S
C2253 C2249 1.408 . S
C2253 C2252 1.404 . S
C2253 H2265 0.930 . S
C2254 C2250 1.524 . S
C2254 H2266 0.956 . S
C2254 H2267 0.961 . S
C2254 H2268 0.961 . S
C2255 C2252 1.539 . S
C2255 H2269 0.958 . S
C2255 H2270 0.961 . S
C2255 H2271 0.960 . S
H2256 C2240 0.931 . S
H2257 C2245 0.929 . S
H2258 C2246 0.960 . S
H2259 C2246 0.962 . S
H2260 C2246 0.960 . S
H2261 C2247 0.961 . S
H2262 C2247 0.961 . S
H2263 C2247 0.961 . S
H2264 C2248 0.931 . S
H2265 C2253 0.930 . S
H2266 C2254 0.956 . S
H2267 C2254 0.961 . S
H2268 C2254 0.961 . S
H2269 C2255 0.958 . S
H2270 C2255 0.961 . S
H2271 C2255 0.960 . S
C2272 C2273 1.391 . S
C2272 C2274 1.394 . S
C2272 H2288 0.931 . S
C2273 C2272 1.391 . S
C2273 C2277 1.376 . S
C2274 C2272 1.394 . S
C2274 C2275 1.369 . S
C2274 C2278 1.531 . S
C2275 C2274 1.369 . S
C2275 C2276 1.410 . S
C2275 C2283 1.503 . S
C2276 C2275 1.410 . S
C2276 C2277 1.392 . S
C2276 C2279 1.511 . S
C2277 C2273 1.376 . S
C2277 C2276 1.392 . S
C2277 H2289 0.929 . S
C2278 C2274 1.531 . S
C2278 H2290 0.960 . S
C2278 H2291 0.962 . S
C2278 H2292 0.960 . S
C2279 C2276 1.511 . S
C2279 H2293 0.961 . S
C2279 H2294 0.961 . S
C2279 H2295 0.961 . S
C2280 C2281 1.370 . S
C2280 C2282 1.363 . S
C2280 H2296 0.931 . S
C2281 C2280 1.370 . S
C2281 C2285 1.408 . S
C2282 C2280 1.363 . S
C2282 C2283 1.370 . S
C2282 C2286 1.524 . S
C2283 C2275 1.503 . S
C2283 C2282 1.370 . S
C2283 C2284 1.403 . S
C2284 C2283 1.403 . S
C2284 C2285 1.404 . S
C2284 C2287 1.539 . S
C2285 C2281 1.408 . S
C2285 C2284 1.404 . S
C2285 H2297 0.930 . S
C2286 C2282 1.524 . S
C2286 H2298 0.956 . S
C2286 H2299 0.961 . S
C2286 H2300 0.961 . S
C2287 C2284 1.539 . S
C2287 H2301 0.958 . S
C2287 H2302 0.961 . S
C2287 H2303 0.960 . S
H2288 C2272 0.931 . S
H2289 C2277 0.929 . S
H2290 C2278 0.960 . S
H2291 C2278 0.962 . S
H2292 C2278 0.960 . S
H2293 C2279 0.961 . S
H2294 C2279 0.961 . S
H2295 C2279 0.961 . S
H2296 C2280 0.931 . S
H2297 C2285 0.930 . S
H2298 C2286 0.956 . S
H2299 C2286 0.961 . S
H2300 C2286 0.961 . S
H2301 C2287 0.958 . S
H2302 C2287 0.961 . S
H2303 C2287 0.960 . S
C2304 C2305 1.391 . S
C2304 C2306 1.394 . S
C2304 H2320 0.931 . S
C2305 C2304 1.391 . S
C2305 C2309 1.376 . S
C2306 C2304 1.394 . S
C2306 C2307 1.369 . S
C2306 C2310 1.531 . S
C2307 C2306 1.369 . S
C2307 C2308 1.410 . S
C2307 C2315 1.503 . S
C2308 C2307 1.410 . S
C2308 C2309 1.392 . S
C2308 C2311 1.511 . S
C2309 C2305 1.376 . S
C2309 C2308 1.392 . S
C2309 H2321 0.929 . S
C2310 C2306 1.531 . S
C2310 H2322 0.960 . S
C2310 H2323 0.962 . S
C2310 H2324 0.960 . S
C2311 C2308 1.511 . S
C2311 H2325 0.961 . S
C2311 H2326 0.961 . S
C2311 H2327 0.961 . S
C2312 C2313 1.370 . S
C2312 C2314 1.363 . S
C2312 H2328 0.931 . S
C2313 C2312 1.370 . S
C2313 C2317 1.408 . S
C2314 C2312 1.363 . S
C2314 C2315 1.370 . S
C2314 C2318 1.524 . S
C2315 C2307 1.503 . S
C2315 C2314 1.370 . S
C2315 C2316 1.403 . S
C2316 C2315 1.403 . S
C2316 C2317 1.404 . S
C2316 C2319 1.539 . S
C2317 C2313 1.408 . S
C2317 C2316 1.404 . S
C2317 H2329 0.930 . S
C2318 C2314 1.524 . S
C2318 H2330 0.956 . S
C2318 H2331 0.961 . S
C2318 H2332 0.961 . S
C2319 C2316 1.539 . S
C2319 H2333 0.958 . S
C2319 H2334 0.961 . S
C2319 H2335 0.960 . S
H2320 C2304 0.931 . S
H2321 C2309 0.929 . S
H2322 C2310 0.960 . S
H2323 C2310 0.962 . S
H2324 C2310 0.960 . S
H2325 C2311 0.961 . S
H2326 C2311 0.961 . S
H2327 C2311 0.961 . S
H2328 C2312 0.931 . S
H2329 C2317 0.930 . S
H2330 C2318 0.956 . S
H2331 C2318 0.961 . S
H2332 C2318 0.961 . S
H2333 C2319 0.958 . S
H2334 C2319 0.961 . S
H2335 C2319 0.960 . S
C2336 C2337 1.391 . S
C2336 C2338 1.394 . S
C2336 H2352 0.931 . S
C2337 C2336 1.391 . S
C2337 C2341 1.376 . S
C2338 C2336 1.394 . S
C2338 C2339 1.369 . S
C2338 C2342 1.531 . S
C2339 C2338 1.369 . S
C2339 C2340 1.410 . S
C2339 C2347 1.503 . S
C2340 C2339 1.410 . S
C2340 C2341 1.392 . S
C2340 C2343 1.511 . S
C2341 C2337 1.376 . S
C2341 C2340 1.392 . S
C2341 H2353 0.929 . S
C2342 C2338 1.531 . S
C2342 H2354 0.960 . S
C2342 H2355 0.962 . S
C2342 H2356 0.960 . S
C2343 C2340 1.511 . S
C2343 H2357 0.961 . S
C2343 H2358 0.961 . S
C2343 H2359 0.961 . S
C2344 C2345 1.370 . S
C2344 C2346 1.363 . S
C2344 H2360 0.931 . S
C2345 C2344 1.370 . S
C2345 C2349 1.408 . S
C2346 C2344 1.363 . S
C2346 C2347 1.370 . S
C2346 C2350 1.524 . S
C2347 C2339 1.503 . S
C2347 C2346 1.370 . S
C2347 C2348 1.403 . S
C2348 C2347 1.403 . S
C2348 C2349 1.404 . S
C2348 C2351 1.539 . S
C2349 C2345 1.408 . S
C2349 C2348 1.404 . S
C2349 H2361 0.930 . S
C2350 C2346 1.524 . S
C2350 H2362 0.956 . S
C2350 H2363 0.961 . S
C2350 H2364 0.961 . S
C2351 C2348 1.539 . S
C2351 H2365 0.958 . S
C2351 H2366 0.961 . S
C2351 H2367 0.960 . S
H2352 C2336 0.931 . S
H2353 C2341 0.929 . S
H2354 C2342 0.960 . S
H2355 C2342 0.962 . S
H2356 C2342 0.960 . S
H2357 C2343 0.961 . S
H2358 C2343 0.961 . S
H2359 C2343 0.961 . S
H2360 C2344 0.931 . S
H2361 C2349 0.930 . S
H2362 C2350 0.956 . S
H2363 C2350 0.961 . S
H2364 C2350 0.961 . S
H2365 C2351 0.958 . S
H2366 C2351 0.961 . S
H2367 C2351 0.960 . S
C2368 C2369 1.391 . S
C2368 C2370 1.394 . S
C2368 H2384 0.931 . S
C2369 C2368 1.391 . S
C2369 C2373 1.376 . S
C2370 C2368 1.394 . S
C2370 C2371 1.369 . S
C2370 C2374 1.531 . S
C2371 C2370 1.369 . S
C2371 C2372 1.410 . S
C2371 C2379 1.503 . S
C2372 C2371 1.410 . S
C2372 C2373 1.392 . S
C2372 C2375 1.511 . S
C2373 C2369 1.376 . S
C2373 C2372 1.392 . S
C2373 H2385 0.929 . S
C2374 C2370 1.531 . S
C2374 H2386 0.960 . S
C2374 H2387 0.962 . S
C2374 H2388 0.960 . S
C2375 C2372 1.511 . S
C2375 H2389 0.961 . S
C2375 H2390 0.961 . S
C2375 H2391 0.961 . S
C2376 C2377 1.370 . S
C2376 C2378 1.363 . S
C2376 H2392 0.931 . S
C2377 C2376 1.370 . S
C2377 C2381 1.408 . S
C2378 C2376 1.363 . S
C2378 C2379 1.370 . S
C2378 C2382 1.524 . S
C2379 C2371 1.503 . S
C2379 C2378 1.370 . S
C2379 C2380 1.403 . S
C2380 C2379 1.403 . S
C2380 C2381 1.404 . S
C2380 C2383 1.539 . S
C2381 C2377 1.408 . S
C2381 C2380 1.404 . S
C2381 H2393 0.930 . S
C2382 C2378 1.524 . S
C2382 H2394 0.956 . S
C2382 H2395 0.961 . S
C2382 H2396 0.961 . S
C2383 C2380 1.539 . S
C2383 H2397 0.958 . S
C2383 H2398 0.961 . S
C2383 H2399 0.960 . S
H2384 C2368 0.931 . S
H2385 C2373 0.929 . S
H2386 C2374 0.960 . S
H2387 C2374 0.962 . S
H2388 C2374 0.960 . S
H2389 C2375 0.961 . S
H2390 C2375 0.961 . S
H2391 C2375 0.961 . S
H2392 C2376 0.931 . S
H2393 C2381 0.930 . S
H2394 C2382 0.956 . S
H2395 C2382 0.961 . S
H2396 C2382 0.961 . S
H2397 C2383 0.958 . S
H2398 C2383 0.961 . S
H2399 C2383 0.960 . S
C2400 C2401 1.391 . S
C2400 C2402 1.394 . S
C2400 H2416 0.931 . S
C2401 C2400 1.391 . S
C2401 C2405 1.376 . S
C2402 C2400 1.394 . S
C2402 C2403 1.369 . S
C2402 C2406 1.531 . S
C2403 C2402 1.369 . S
C2403 C2404 1.410 . S
C2403 C2411 1.503 . S
C2404 C2403 1.410 . S
C2404 C2405 1.392 . S
C2404 C2407 1.511 . S
C2405 C2401 1.376 . S
C2405 C2404 1.392 . S
C2405 H2417 0.929 . S
C2406 C2402 1.531 . S
C2406 H2418 0.960 . S
C2406 H2419 0.962 . S
C2406 H2420 0.960 . S
C2407 C2404 1.511 . S
C2407 H2421 0.961 . S
C2407 H2422 0.961 . S
C2407 H2423 0.961 . S
C2408 C2409 1.370 . S
C2408 C2410 1.363 . S
C2408 H2424 0.931 . S
C2409 C2408 1.370 . S
C2409 C2413 1.408 . S
C2410 C2408 1.363 . S
C2410 C2411 1.370 . S
C2410 C2414 1.524 . S
C2411 C2403 1.503 . S
C2411 C2410 1.370 . S
C2411 C2412 1.403 . S
C2412 C2411 1.403 . S
C2412 C2413 1.404 . S
C2412 C2415 1.539 . S
C2413 C2409 1.408 . S
C2413 C2412 1.404 . S
C2413 H2425 0.930 . S
C2414 C2410 1.524 . S
C2414 H2426 0.956 . S
C2414 H2427 0.961 . S
C2414 H2428 0.961 . S
C2415 C2412 1.539 . S
C2415 H2429 0.958 . S
C2415 H2430 0.961 . S
C2415 H2431 0.960 . S
H2416 C2400 0.931 . S
H2417 C2405 0.929 . S
H2418 C2406 0.960 . S
H2419 C2406 0.962 . S
H2420 C2406 0.960 . S
H2421 C2407 0.961 . S
H2422 C2407 0.961 . S
H2423 C2407 0.961 . S
H2424 C2408 0.931 . S
H2425 C2413 0.930 . S
H2426 C2414 0.956 . S
H2427 C2414 0.961 . S
H2428 C2414 0.961 . S
H2429 C2415 0.958 . S
H2430 C2415 0.961 . S
H2431 C2415 0.960 . S
C2432 C2433 1.391 . S
C2432 C2434 1.394 . S
C2432 H2448 0.931 . S
C2433 C2432 1.391 . S
C2433 C2437 1.376 . S
C2434 C2432 1.394 . S
C2434 C2435 1.369 . S
C2434 C2438 1.531 . S
C2435 C2434 1.369 . S
C2435 C2436 1.410 . S
C2435 C2443 1.503 . S
C2436 C2435 1.410 . S
C2436 C2437 1.392 . S
C2436 C2439 1.511 . S
C2437 C2433 1.376 . S
C2437 C2436 1.392 . S
C2437 H2449 0.929 . S
C2438 C2434 1.531 . S
C2438 H2450 0.960 . S
C2438 H2451 0.962 . S
C2438 H2452 0.960 . S
C2439 C2436 1.511 . S
C2439 H2453 0.961 . S
C2439 H2454 0.961 . S
C2439 H2455 0.961 . S
C2440 C2441 1.370 . S
C2440 C2442 1.363 . S
C2440 H2456 0.931 . S
C2441 C2440 1.370 . S
C2441 C2445 1.408 . S
C2442 C2440 1.363 . S
C2442 C2443 1.370 . S
C2442 C2446 1.524 . S
C2443 C2435 1.503 . S
C2443 C2442 1.370 . S
C2443 C2444 1.403 . S
C2444 C2443 1.403 . S
C2444 C2445 1.404 . S
C2444 C2447 1.539 . S
C2445 C2441 1.408 . S
C2445 C2444 1.404 . S
C2445 H2457 0.930 . S
C2446 C2442 1.524 . S
C2446 H2458 0.956 . S
C2446 H2459 0.961 . S
C2446 H2460 0.961 . S
C2447 C2444 1.539 . S
C2447 H2461 0.958 . S
C2447 H2462 0.961 . S
C2447 H2463 0.960 . S
H2448 C2432 0.931 . S
H2449 C2437 0.929 . S
H2450 C2438 0.960 . S
H2451 C2438 0.962 . S
H2452 C2438 0.960 . S
H2453 C2439 0.961 . S
H2454 C2439 0.961 . S
H2455 C2439 0.961 . S
H2456 C2440 0.931 . S
H2457 C2445 0.930 . S
H2458 C2446 0.956 . S
H2459 C2446 0.961 . S
H2460 C2446 0.961 . S
H2461 C2447 0.958 . S
H2462 C2447 0.961 . S
H2463 C2447 0.960 . S
C2464 C2465 1.391 . S
C2464 C2466 1.394 . S
C2464 H2480 0.931 . S
C2465 C2464 1.391 . S
C2465 C2469 1.376 . S
C2466 C2464 1.394 . S
C2466 C2467 1.369 . S
C2466 C2470 1.531 . S
C2467 C2466 1.369 . S
C2467 C2468 1.410 . S
C2467 C2475 1.503 . S
C2468 C2467 1.410 . S
C2468 C2469 1.392 . S
C2468 C2471 1.511 . S
C2469 C2465 1.376 . S
C2469 C2468 1.392 . S
C2469 H2481 0.929 . S
C2470 C2466 1.531 . S
C2470 H2482 0.960 . S
C2470 H2483 0.962 . S
C2470 H2484 0.960 . S
C2471 C2468 1.511 . S
C2471 H2485 0.961 . S
C2471 H2486 0.961 . S
C2471 H2487 0.961 . S
C2472 C2473 1.370 . S
C2472 C2474 1.363 . S
C2472 H2488 0.931 . S
C2473 C2472 1.370 . S
C2473 C2477 1.408 . S
C2474 C2472 1.363 . S
C2474 C2475 1.370 . S
C2474 C2478 1.524 . S
C2475 C2467 1.503 . S
C2475 C2474 1.370 . S
C2475 C2476 1.403 . S
C2476 C2475 1.403 . S
C2476 C2477 1.404 . S
C2476 C2479 1.539 . S
C2477 C2473 1.408 . S
C2477 C2476 1.404 . S
C2477 H2489 0.930 . S
C2478 C2474 1.524 . S
C2478 H2490 0.956 . S
C2478 H2491 0.961 . S
C2478 H2492 0.961 . S
C2479 C2476 1.539 . S
C2479 H2493 0.958 . S
C2479 H2494 0.961 . S
C2479 H2495 0.960 . S
H2480 C2464 0.931 . S
H2481 C2469 0.929 . S
H2482 C2470 0.960 . S
H2483 C2470 0.962 . S
H2484 C2470 0.960 . S
H2485 C2471 0.961 . S
H2486 C2471 0.961 . S
H2487 C2471 0.961 . S
H2488 C2472 0.931 . S
H2489 C2477 0.930 . S
H2490 C2478 0.956 . S
H2491 C2478 0.961 . S
H2492 C2478 0.961 . S
H2493 C2479 0.958 . S
H2494 C2479 0.961 . S
H2495 C2479 0.960 . S
C449 C135 1.124 . S
C457 C3 1.189 . S
C481 C17 1.159 1_455 S
C489 C373 1.127 . S
C513 C163 1.147 . S
C521 C31 1.189 . S
C545 C345 1.162 . S
C553 C45 1.194 . S
C577 C59 1.190 . S
C585 C219 1.132 . S
C609 C401 1.162 . S
C617 C73 1.194 . S
C641 C87 1.186 . S
C649 C191 1.132 . S
C673 C429 1.049 . S
C681 C101 1.216 . S
C705 C23 1.127 . S
C713 C115 1.197 . S
C737 C129 1.217 . S
C745 C261 1.090 . S
C769 C51 1.163 . S
C777 C143 1.192 . S
C801 C157 1.182 . S
C809 C233 1.131 . S
C833 C171 1.183 . S
C841 C107 1.100 . S
C865 C289 1.152 . S
C873 C185 1.194 . S
C897 C199 1.202 . S
C905 C79 1.091 . S
C929 C317 1.061 . S
C937 C213 1.203 . S
C961 C359 1.105 . S
C969 C227 1.198 . S
C993 C149 1.053 . S
C1001 C241 1.196 . S
C1025 C255 1.184 . S
C1033 C387 1.091 . S
C1057 C121 1.129 . S
C1065 C269 1.192 1_655 S
C1089 C443 1.116 . S
C1097 C283 1.198 . S
C1121 C297 1.200 1_655 S
C1129 C177 1.108 . S
C1153 C415 1.058 . S
C1161 C311 1.191 . S
C1185 C205 1.134 . S
C1193 C325 1.189 . S
C1217 C247 1.131 . S
C1225 C339 1.196 . S
C1249 C353 1.188 . S
C1257 C37 1.132 . S
C1281 C367 1.181 . S
C1289 C275 1.105 . S
C1313 C381 1.191 . S
C1321 C9 1.088 . S
C1345 C331 1.050 . S
C1353 C395 1.197 . S
C1377 C409 1.181 . S
C1385 C65 1.126 . S
C1409 C423 1.202 . S
C1417 C303 1.101 . S
C1441 C437 1.179 . S
C1449 C93 1.126 . S
C1473 C344 1.493 . S
C1481 C8 1.478 . S
C1505 C22 1.486 . S
C1513 C134 1.480 . S
C1537 C36 1.455 . S
C1545 C372 1.496 . S
C1569 C50 1.500 . S
C1577 C162 1.478 . S
C1601 C64 1.499 . S
C1609 C400 1.479 . S
C1633 C78 1.505 . S
C1641 C190 1.473 . S
C1665 C428 1.482 . S
C1673 C92 1.486 . S
C1697 C106 1.496 . S
C1705 C218 1.480 . S
C1729 C120 1.460 . S
C1737 C232 1.492 . S
C1761 C148 1.452 . S
C1769 C260 1.495 . S
C1793 C288 1.506 . S
C1801 C176 1.473 . S
C1825 C316 1.477 . S
C1833 C204 1.488 . S
C1857 C246 1.472 . S
C1865 C358 1.486 . S
C1889 C386 1.469 . S
C1897 C274 1.491 . S
C1921 C302 1.454 . S
C1929 C414 1.496 . S
C1953 C442 1.510 . S
C1961 C330 1.473 . S
C1985 C301 1.700 . S
C1993 C7 1.731 . S
C2017 C315 1.699 . S
C2025 C21 1.719 . S
C2049 C35 1.710 . S
C2057 C329 1.715 . S
C2081 C287 1.703 . S
C2089 C49 1.717 . S
C2113 C273 1.726 . S
C2121 C63 1.714 . S
C2145 C231 1.730 . S
C2153 C77 1.734 . S
C2177 C91 1.703 . S
C2185 C245 1.717 . S
C2209 C259 1.745 . S
C2217 C105 1.723 . S
C2241 C413 1.730 . S
C2249 C119 1.734 . S
C2273 C427 1.708 . S
C2281 C133 1.714 . S
C2305 C441 1.726 . S
C2313 C147 1.735 . S
C2337 C161 1.696 . S
C2345 C399 1.719 . S
C2369 C385 1.700 . S
C2377 C175 1.716 . S
C2401 C343 1.704 . S
C2409 C189 1.730 . S
C2433 C357 1.733 . S
C2441 C203 1.734 . S
C2465 C371 1.714 . S
C2473 C217 1.733 . S
