# Generated by pormake.
# Topology wio, (6)-cn, num edge types: 1
# Building blocks:
#     Node 0, Type 0, BuildingBlock: VOLQOD_clean_sbu_1, # of connection points: 6
#     Node 1, Type 0, BuildingBlock: VOLQOD_clean_sbu_1, # of connection points: 6
#     Node 2, Type 0, BuildingBlock: VOLQOD_clean_sbu_1, # of connection points: 6
#     Node 3, Type 0, BuildingBlock: VOLQOD_clean_sbu_1, # of connection points: 6
#     Node 4, Type 0, BuildingBlock: VOLQOD_clean_sbu_1, # of connection points: 6
#     Node 5, Type 0, BuildingBlock: VOLQOD_clean_sbu_1, # of connection points: 6
#     Node 6, Type 0, BuildingBlock: VOLQOD_clean_sbu_1, # of connection points: 6
#     Node 7, Type 0, BuildingBlock: VOLQOD_clean_sbu_1, # of connection points: 6
#     Node 8, Type 0, BuildingBlock: VOLQOD_clean_sbu_1, # of connection points: 6
#     Node 9, Type 0, BuildingBlock: VOLQOD_clean_sbu_1, # of connection points: 6
#     Node 10, Type 0, BuildingBlock: VOLQOD_clean_sbu_1, # of connection points: 6
#     Node 11, Type 0, BuildingBlock: VOLQOD_clean_sbu_1, # of connection points: 6
#     Node 12, Type 0, BuildingBlock: VOLQOD_clean_sbu_1, # of connection points: 6
#     Node 13, Type 0, BuildingBlock: VOLQOD_clean_sbu_1, # of connection points: 6
#     Node 14, Type 0, BuildingBlock: VOLQOD_clean_sbu_1, # of connection points: 6
#     Node 15, Type 0, BuildingBlock: VOLQOD_clean_sbu_1, # of connection points: 6
#     Node 16, Type 0, BuildingBlock: VOLQOD_clean_sbu_1, # of connection points: 6
#     Node 17, Type 0, BuildingBlock: VOLQOD_clean_sbu_1, # of connection points: 6
#     Node 18, Type 0, BuildingBlock: VOLQOD_clean_sbu_1, # of connection points: 6
#     Node 19, Type 0, BuildingBlock: VOLQOD_clean_sbu_1, # of connection points: 6
#     Node 20, Type 0, BuildingBlock: VOLQOD_clean_sbu_1, # of connection points: 6
#     Node 21, Type 0, BuildingBlock: VOLQOD_clean_sbu_1, # of connection points: 6
#     Node 22, Type 0, BuildingBlock: VOLQOD_clean_sbu_1, # of connection points: 6
#     Node 23, Type 0, BuildingBlock: VOLQOD_clean_sbu_1, # of connection points: 6
#     Node 24, Type 0, BuildingBlock: VOLQOD_clean_sbu_1, # of connection points: 6
#     Node 25, Type 0, BuildingBlock: VOLQOD_clean_sbu_1, # of connection points: 6
#     Node 26, Type 0, BuildingBlock: VOLQOD_clean_sbu_1, # of connection points: 6
#     Node 27, Type 0, BuildingBlock: VOLQOD_clean_sbu_1, # of connection points: 6
#     Node 28, Type 0, BuildingBlock: VOLQOD_clean_sbu_1, # of connection points: 6
#     Node 29, Type 0, BuildingBlock: VOLQOD_clean_sbu_1, # of connection points: 6
#     Node 30, Type 0, BuildingBlock: VOLQOD_clean_sbu_1, # of connection points: 6
#     Node 31, Type 0, BuildingBlock: VOLQOD_clean_sbu_1, # of connection points: 6
#     Edge 32, Type (0, 0), BuildingBlock: AJUNOK_clean_linker_0, # of connection points: 2
#     Edge 33, Type (0, 0), BuildingBlock: AJUNOK_clean_linker_0, # of connection points: 2
#     Edge 34, Type (0, 0), BuildingBlock: AJUNOK_clean_linker_0, # of connection points: 2
#     Edge 35, Type (0, 0), BuildingBlock: AJUNOK_clean_linker_0, # of connection points: 2
#     Edge 36, Type (0, 0), BuildingBlock: AJUNOK_clean_linker_0, # of connection points: 2
#     Edge 37, Type (0, 0), BuildingBlock: AJUNOK_clean_linker_0, # of connection points: 2
#     Edge 38, Type (0, 0), BuildingBlock: AJUNOK_clean_linker_0, # of connection points: 2
#     Edge 39, Type (0, 0), BuildingBlock: AJUNOK_clean_linker_0, # of connection points: 2
#     Edge 40, Type (0, 0), BuildingBlock: AJUNOK_clean_linker_0, # of connection points: 2
#     Edge 41, Type (0, 0), BuildingBlock: AJUNOK_clean_linker_0, # of connection points: 2
#     Edge 42, Type (0, 0), BuildingBlock: AJUNOK_clean_linker_0, # of connection points: 2
#     Edge 43, Type (0, 0), BuildingBlock: AJUNOK_clean_linker_0, # of connection points: 2
#     Edge 44, Type (0, 0), BuildingBlock: AJUNOK_clean_linker_0, # of connection points: 2
#     Edge 45, Type (0, 0), BuildingBlock: AJUNOK_clean_linker_0, # of connection points: 2
#     Edge 46, Type (0, 0), BuildingBlock: AJUNOK_clean_linker_0, # of connection points: 2
#     Edge 47, Type (0, 0), BuildingBlock: AJUNOK_clean_linker_0, # of connection points: 2
#     Edge 48, Type (0, 0), BuildingBlock: AJUNOK_clean_linker_0, # of connection points: 2
#     Edge 49, Type (0, 0), BuildingBlock: AJUNOK_clean_linker_0, # of connection points: 2
#     Edge 50, Type (0, 0), BuildingBlock: AJUNOK_clean_linker_0, # of connection points: 2
#     Edge 51, Type (0, 0), BuildingBlock: AJUNOK_clean_linker_0, # of connection points: 2
#     Edge 52, Type (0, 0), BuildingBlock: AJUNOK_clean_linker_0, # of connection points: 2
#     Edge 53, Type (0, 0), BuildingBlock: AJUNOK_clean_linker_0, # of connection points: 2
#     Edge 54, Type (0, 0), BuildingBlock: AJUNOK_clean_linker_0, # of connection points: 2
#     Edge 55, Type (0, 0), BuildingBlock: AJUNOK_clean_linker_0, # of connection points: 2
#     Edge 56, Type (0, 0), BuildingBlock: AJUNOK_clean_linker_0, # of connection points: 2
#     Edge 57, Type (0, 0), BuildingBlock: AJUNOK_clean_linker_0, # of connection points: 2
#     Edge 58, Type (0, 0), BuildingBlock: AJUNOK_clean_linker_0, # of connection points: 2
#     Edge 59, Type (0, 0), BuildingBlock: AJUNOK_clean_linker_0, # of connection points: 2
#     Edge 60, Type (0, 0), BuildingBlock: AJUNOK_clean_linker_0, # of connection points: 2
#     Edge 61, Type (0, 0), BuildingBlock: AJUNOK_clean_linker_0, # of connection points: 2
#     Edge 62, Type (0, 0), BuildingBlock: AJUNOK_clean_linker_0, # of connection points: 2
#     Edge 63, Type (0, 0), BuildingBlock: AJUNOK_clean_linker_0, # of connection points: 2
#     Edge 64, Type (0, 0), BuildingBlock: AJUNOK_clean_linker_0, # of connection points: 2
#     Edge 65, Type (0, 0), BuildingBlock: AJUNOK_clean_linker_0, # of connection points: 2
#     Edge 66, Type (0, 0), BuildingBlock: AJUNOK_clean_linker_0, # of connection points: 2
#     Edge 67, Type (0, 0), BuildingBlock: AJUNOK_clean_linker_0, # of connection points: 2
#     Edge 68, Type (0, 0), BuildingBlock: AJUNOK_clean_linker_0, # of connection points: 2
#     Edge 69, Type (0, 0), BuildingBlock: AJUNOK_clean_linker_0, # of connection points: 2
#     Edge 70, Type (0, 0), BuildingBlock: AJUNOK_clean_linker_0, # of connection points: 2
#     Edge 71, Type (0, 0), BuildingBlock: AJUNOK_clean_linker_0, # of connection points: 2
#     Edge 72, Type (0, 0), BuildingBlock: AJUNOK_clean_linker_0, # of connection points: 2
#     Edge 73, Type (0, 0), BuildingBlock: AJUNOK_clean_linker_0, # of connection points: 2
#     Edge 74, Type (0, 0), BuildingBlock: AJUNOK_clean_linker_0, # of connection points: 2
#     Edge 75, Type (0, 0), BuildingBlock: AJUNOK_clean_linker_0, # of connection points: 2
#     Edge 76, Type (0, 0), BuildingBlock: AJUNOK_clean_linker_0, # of connection points: 2
#     Edge 77, Type (0, 0), BuildingBlock: AJUNOK_clean_linker_0, # of connection points: 2
#     Edge 78, Type (0, 0), BuildingBlock: AJUNOK_clean_linker_0, # of connection points: 2
#     Edge 79, Type (0, 0), BuildingBlock: AJUNOK_clean_linker_0, # of connection points: 2
#     Edge 80, Type (0, 0), BuildingBlock: AJUNOK_clean_linker_0, # of connection points: 2
#     Edge 81, Type (0, 0), BuildingBlock: AJUNOK_clean_linker_0, # of connection points: 2
#     Edge 82, Type (0, 0), BuildingBlock: AJUNOK_clean_linker_0, # of connection points: 2
#     Edge 83, Type (0, 0), BuildingBlock: AJUNOK_clean_linker_0, # of connection points: 2
#     Edge 84, Type (0, 0), BuildingBlock: AJUNOK_clean_linker_0, # of connection points: 2
#     Edge 85, Type (0, 0), BuildingBlock: AJUNOK_clean_linker_0, # of connection points: 2
#     Edge 86, Type (0, 0), BuildingBlock: AJUNOK_clean_linker_0, # of connection points: 2
#     Edge 87, Type (0, 0), BuildingBlock: AJUNOK_clean_linker_0, # of connection points: 2
#     Edge 88, Type (0, 0), BuildingBlock: AJUNOK_clean_linker_0, # of connection points: 2
#     Edge 89, Type (0, 0), BuildingBlock: AJUNOK_clean_linker_0, # of connection points: 2
#     Edge 90, Type (0, 0), BuildingBlock: AJUNOK_clean_linker_0, # of connection points: 2
#     Edge 91, Type (0, 0), BuildingBlock: AJUNOK_clean_linker_0, # of connection points: 2
#     Edge 92, Type (0, 0), BuildingBlock: AJUNOK_clean_linker_0, # of connection points: 2
#     Edge 93, Type (0, 0), BuildingBlock: AJUNOK_clean_linker_0, # of connection points: 2
#     Edge 94, Type (0, 0), BuildingBlock: AJUNOK_clean_linker_0, # of connection points: 2
#     Edge 95, Type (0, 0), BuildingBlock: AJUNOK_clean_linker_0, # of connection points: 2
#     Edge 96, Type (0, 0), BuildingBlock: AJUNOK_clean_linker_0, # of connection points: 2
#     Edge 97, Type (0, 0), BuildingBlock: AJUNOK_clean_linker_0, # of connection points: 2
#     Edge 98, Type (0, 0), BuildingBlock: AJUNOK_clean_linker_0, # of connection points: 2
#     Edge 99, Type (0, 0), BuildingBlock: AJUNOK_clean_linker_0, # of connection points: 2
#     Edge 100, Type (0, 0), BuildingBlock: AJUNOK_clean_linker_0, # of connection points: 2
#     Edge 101, Type (0, 0), BuildingBlock: AJUNOK_clean_linker_0, # of connection points: 2
#     Edge 102, Type (0, 0), BuildingBlock: AJUNOK_clean_linker_0, # of connection points: 2
#     Edge 103, Type (0, 0), BuildingBlock: AJUNOK_clean_linker_0, # of connection points: 2
#     Edge 104, Type (0, 0), BuildingBlock: AJUNOK_clean_linker_0, # of connection points: 2
#     Edge 105, Type (0, 0), BuildingBlock: AJUNOK_clean_linker_0, # of connection points: 2
#     Edge 106, Type (0, 0), BuildingBlock: AJUNOK_clean_linker_0, # of connection points: 2
#     Edge 107, Type (0, 0), BuildingBlock: AJUNOK_clean_linker_0, # of connection points: 2
#     Edge 108, Type (0, 0), BuildingBlock: AJUNOK_clean_linker_0, # of connection points: 2
#     Edge 109, Type (0, 0), BuildingBlock: AJUNOK_clean_linker_0, # of connection points: 2
#     Edge 110, Type (0, 0), BuildingBlock: AJUNOK_clean_linker_0, # of connection points: 2
#     Edge 111, Type (0, 0), BuildingBlock: AJUNOK_clean_linker_0, # of connection points: 2
#     Edge 112, Type (0, 0), BuildingBlock: AJUNOK_clean_linker_0, # of connection points: 2
#     Edge 113, Type (0, 0), BuildingBlock: AJUNOK_clean_linker_0, # of connection points: 2
#     Edge 114, Type (0, 0), BuildingBlock: AJUNOK_clean_linker_0, # of connection points: 2
#     Edge 115, Type (0, 0), BuildingBlock: AJUNOK_clean_linker_0, # of connection points: 2
#     Edge 116, Type (0, 0), BuildingBlock: AJUNOK_clean_linker_0, # of connection points: 2
#     Edge 117, Type (0, 0), BuildingBlock: AJUNOK_clean_linker_0, # of connection points: 2
#     Edge 118, Type (0, 0), BuildingBlock: AJUNOK_clean_linker_0, # of connection points: 2
#     Edge 119, Type (0, 0), BuildingBlock: AJUNOK_clean_linker_0, # of connection points: 2
#     Edge 120, Type (0, 0), BuildingBlock: AJUNOK_clean_linker_0, # of connection points: 2
#     Edge 121, Type (0, 0), BuildingBlock: AJUNOK_clean_linker_0, # of connection points: 2
#     Edge 122, Type (0, 0), BuildingBlock: AJUNOK_clean_linker_0, # of connection points: 2
#     Edge 123, Type (0, 0), BuildingBlock: AJUNOK_clean_linker_0, # of connection points: 2
#     Edge 124, Type (0, 0), BuildingBlock: AJUNOK_clean_linker_0, # of connection points: 2
#     Edge 125, Type (0, 0), BuildingBlock: AJUNOK_clean_linker_0, # of connection points: 2
#     Edge 126, Type (0, 0), BuildingBlock: AJUNOK_clean_linker_0, # of connection points: 2
#     Edge 127, Type (0, 0), BuildingBlock: AJUNOK_clean_linker_0, # of connection points: 2
# Relax obj value: 0.385
# Max RMSD: 0.209
# Mean RMSD: 0.204
data_MOF--net-wio--node1-VOLQOD_clean_sbu_1--edge1-AJUNOK_clean_linker_0
_symmetry_space_group_name_H-M    P1
_symmetry_Int_Tables_number       1
_symmetry_cell_setting            triclinic
loop_
_symmetry_equiv_pos_as_xyz
'x, y, z'
_cell_length_a     45.573906
_cell_length_b     45.476547
_cell_length_c     28.767803
_cell_angle_alpha  89.967899
_cell_angle_beta   89.828619
_cell_angle_gamma 89.98569
loop_
_atom_site_label
_atom_site_type_symbol
_atom_site_fract_x
_atom_site_fract_y
_atom_site_fract_z
_atom_type_partial_charge
O0 O 0.17304 0.05267 0.34318 0.0
Zn1 Zn 0.17855 0.08995 0.37755 0.0
O2 O 0.14974 0.11773 0.35385 0.0
Zn3 Zn 0.17023 0.1454 0.31416 0.0
Zn4 Zn 0.12137 0.09718 0.3162 0.0
Zn5 Zn 0.12775 0.13478 0.40556 0.0
O6 O 0.15948 0.18543 0.33813 0.0
O7 O 0.1368 0.1789 0.40666 0.0
O8 O 0.22063 0.10079 0.363 0.0
O9 O 0.21461 0.13856 0.31511 0.0
O10 O 0.15853 0.14096 0.24563 0.0
O11 O 0.12706 0.10398 0.24789 0.0
O12 O 0.07982 0.10643 0.3304 0.0
O13 O 0.17079 0.07997 0.44463 0.0
O14 O 0.08359 0.1315 0.39587 0.0
O15 O 0.13429 0.10998 0.46474 0.0
C16 C 0.14958 0.04067 0.32896 0.0
C17 C 0.14729 0.19566 0.37478 0.0
C18 C 0.14195 0.12259 0.22481 0.0
C19 C 0.23126 0.12 0.33542 0.0
C20 C 0.06798 0.11963 0.36438 0.0
C21 C 0.15173 0.08873 0.47404 0.0
O22 O 0.1257 0.0549 0.32687 0.0
O23 O 0.1981 0.93062 0.58946 0.0
Zn24 Zn 0.16305 0.93488 0.63004 0.0
O25 O 0.13581 0.90488 0.60831 0.0
Zn26 Zn 0.10838 0.92366 0.56735 0.0
Zn27 Zn 0.15868 0.87717 0.57297 0.0
Zn28 Zn 0.12012 0.88252 0.66022 0.0
O29 O 0.06842 0.91259 0.5924 0.0
O30 O 0.07607 0.89103 0.66158 0.0
O31 O 0.15028 0.97656 0.61689 0.0
O32 O 0.11504 0.96851 0.56536 0.0
O33 O 0.11429 0.90958 0.50016 0.0
O34 O 0.15547 0.88377 0.50383 0.0
O35 O 0.14892 0.83541 0.58435 0.0
O36 O 0.17499 0.927 0.69607 0.0
O37 O 0.12407 0.83802 0.65029 0.0
O38 O 0.14522 0.89072 0.71855 0.0
C39 C 0.21031 0.90629 0.57991 0.0
C40 C 0.05883 0.90091 0.63001 0.0
C41 C 0.13508 0.89558 0.48006 0.0
C42 C 0.1323 0.98613 0.58659 0.0
C43 C 0.1357 0.82293 0.61775 0.0
C44 C 0.1665 0.90841 0.72648 0.0
O45 O 0.19905 0.88277 0.59489 0.0
O46 O 0.38424 0.9447 0.83776 0.0
Zn47 Zn 0.38023 0.90346 0.81908 0.0
O48 O 0.35026 0.88632 0.85724 0.0
Zn49 Zn 0.37159 0.86963 0.90941 0.0
Zn50 Zn 0.32441 0.91736 0.87752 0.0
Zn51 Zn 0.32842 0.85985 0.81826 0.0
O52 O 0.362 0.82566 0.90972 0.0
O53 O 0.33897 0.81953 0.84149 0.0
O54 O 0.41973 0.88653 0.82661 0.0
O55 O 0.41598 0.87212 0.89965 0.0
O56 O 0.36453 0.89475 0.96838 0.0
O57 O 0.33055 0.92666 0.94494 0.0
O58 O 0.28188 0.91025 0.85997 0.0
O59 O 0.37098 0.90177 0.75125 0.0
O60 O 0.28433 0.8682 0.82112 0.0
O61 O 0.33891 0.86523 0.74915 0.0
C62 C 0.36265 0.96198 0.83395 0.0
C63 C 0.35135 0.8091 0.87781 0.0
C64 C 0.34792 0.91696 0.97602 0.0
C65 C 0.43152 0.8775 0.86375 0.0
C66 C 0.26943 0.88985 0.83685 0.0
C67 C 0.35495 0.88416 0.72828 0.0
O68 O 0.33678 0.95322 0.84334 0.0
O69 O 0.30268 0.12312 0.07631 0.0
Zn70 Zn 0.34508 0.12962 0.07033 0.0
O71 O 0.36572 0.10089 0.10751 0.0
Zn72 Zn 0.38179 0.12288 0.15975 0.0
Zn73 Zn 0.33797 0.07168 0.12975 0.0
Zn74 Zn 0.39363 0.08007 0.06845 0.0
O75 O 0.4256 0.11379 0.16172 0.0
O76 O 0.43346 0.09052 0.09401 0.0
O77 O 0.3522 0.17122 0.08684 0.0
O78 O 0.37823 0.16747 0.1512 0.0
O79 O 0.35662 0.11544 0.21807 0.0
O80 O 0.32529 0.08076 0.19524 0.0
O81 O 0.3497 0.0294 0.11862 0.0
O82 O 0.35475 0.12602 1.00298 0.0
O83 O 0.38595 0.03551 0.06795 0.0
O84 O 0.39003 0.09245 1.00013 0.0
C85 C 0.29068 0.09805 0.07358 0.0
C86 C 0.44292 0.10284 0.13105 0.0
C87 C 0.33428 0.09905 0.22561 0.0
C88 C 0.36551 0.18311 0.1205 0.0
C89 C 0.36781 0.0188 0.08925 0.0
C90 C 0.37307 0.11077 0.98001 0.0
O91 O 0.30306 0.07523 0.08954 0.0
O92 O 0.17669 0.94825 0.16735 0.0
Zn93 Zn 0.17965 0.91406 0.12496 0.0
O94 O 0.15033 0.88659 0.14835 0.0
Zn95 Zn 0.17019 0.85986 0.1895 0.0
Zn96 Zn 0.12274 0.9094 0.18373 0.0
Zn97 Zn 0.12778 0.87044 0.09739 0.0
O98 O 0.15976 0.81965 0.16501 0.0
O99 O 0.13783 0.82662 0.09596 0.0
O100 O 0.22155 0.90118 0.13434 0.0
O101 O 0.21473 0.86731 0.18895 0.0
O102 O 0.1572 0.86591 0.25764 0.0
O103 O 0.12927 0.90573 0.25239 0.0
O104 O 0.08099 0.8997 0.17315 0.0
O105 O 0.16962 0.92732 0.06009 0.0
O106 O 0.08341 0.87286 0.10927 0.0
O107 O 0.13404 0.89647 0.03897 0.0
C108 C 0.15264 0.96057 0.17792 0.0
C109 C 0.14829 0.80968 0.1276 0.0
C110 C 0.14206 0.88627 0.27684 0.0
C111 C 0.23176 0.88401 0.16539 0.0
C112 C 0.06846 0.88517 0.14136 0.0
C113 C 0.15057 0.91869 0.0307 0.0
O114 O 0.12888 0.94998 0.16291 0.0
O115 O 0.2958 0.92738 0.4067 0.0
Zn116 Zn 0.33286 0.93281 0.37233 0.0
O117 O 0.36013 0.90388 0.39706 0.0
Zn118 Zn 0.38612 0.924 0.43919 0.0
Zn119 Zn 0.33715 0.87572 0.43162 0.0
Zn120 Zn 0.37855 0.88159 0.34699 0.0
O121 O 0.42729 0.91392 0.41745 0.0
O122 O 0.4226 0.89134 0.34854 0.0
O123 O 0.34216 0.97513 0.38757 0.0
O124 O 0.37757 0.96857 0.4395 0.0
O125 O 0.37931 0.91033 0.50656 0.0
O126 O 0.33969 0.88242 0.50027 0.0
O127 O 0.3486 0.83418 0.42145 0.0
O128 O 0.32417 0.92443 0.30559 0.0
O129 O 0.37611 0.83716 0.35823 0.0
O130 O 0.35459 0.88791 0.28666 0.0
C131 C 0.28294 0.90363 0.41749 0.0
C132 C 0.43853 0.90187 0.38132 0.0
C133 C 0.35872 0.8953 0.52528 0.0
C134 C 0.35954 0.98537 0.41812 0.0
C135 C 0.36375 0.82194 0.38995 0.0
C136 C 0.33342 0.90533 0.27663 0.0
O137 O 0.29588 0.87924 0.412 0.0
O138 O 0.3354 0.17705 0.60255 0.0
Zn139 Zn 0.32439 0.13239 0.60579 0.0
O140 O 0.35193 0.11741 0.6521 0.0
Zn141 Zn 0.37904 0.09012 0.62598 0.0
Zn142 Zn 0.37741 0.1435 0.686 0.0
Zn143 Zn 0.33085 0.09328 0.69448 0.0
O144 O 0.38373 0.05724 0.67032 0.0
O145 O 0.33619 0.05266 0.67338 0.0
O146 O 0.3303 0.10697 0.54355 0.0
O147 O 0.36548 0.07619 0.56649 0.0
O148 O 0.41855 0.10524 0.61586 0.0
O149 O 0.42153 0.13499 0.67598 0.0
O150 O 0.37092 0.13982 0.75575 0.0
O151 O 0.28065 0.12765 0.63061 0.0
O152 O 0.34615 0.09776 0.75995 0.0
O153 O 0.28837 0.1006 0.69375 0.0
C154 C 0.35194 0.19352 0.62792 0.0
C155 C 0.36135 0.04321 0.68396 0.0
C156 C 0.43387 0.11976 0.64428 0.0
C157 C 0.34744 0.08488 0.53604 0.0
C158 C 0.3603 0.11854 0.77938 0.0
C159 C 0.271 0.11391 0.66657 0.0
O160 O 0.36756 0.18301 0.66083 0.0
O161 O 0.19798 0.07476 0.91018 0.0
Zn162 Zn 0.16264 0.07123 0.87095 0.0
O163 O 0.1365 0.10182 0.8935 0.0
Zn164 Zn 0.10903 0.08402 0.93595 0.0
Zn165 Zn 0.15999 0.12965 0.92747 0.0
Zn166 Zn 0.12025 0.12355 0.84152 0.0
O167 O 0.06916 0.09479 0.91119 0.0
O168 O 0.07641 0.11406 0.84021 0.0
O169 O 0.14924 0.02965 0.88566 0.0
O170 O 0.11493 0.03928 0.93852 0.0
O171 O 0.1151 0.09869 1.00299 0.0
O172 O 0.15609 0.12451 0.99637 0.0
O173 O 0.1502 0.17144 0.91508 0.0
O174 O 0.17481 0.0794 0.80451 0.0
O175 O 0.12237 0.16781 0.85256 0.0
O176 O 0.14597 0.1165 0.7828 0.0
C177 C 0.21164 0.09819 0.92011 0.0
C178 C 0.05934 0.10518 0.8729 0.0
C179 C 0.13606 0.11322 0.02152 0.0
C180 C 0.13125 0.02094 0.91685 0.0
C181 C 0.13503 0.18337 0.8834 0.0
C182 C 0.16718 0.0987 0.7746 0.0
O183 O 0.20105 0.12296 0.90899 0.0
O184 O 0.82166 0.94644 0.66804 0.0
Zn185 Zn 0.81987 0.91115 0.6278 0.0
O186 O 0.85057 0.88536 0.65095 0.0
Zn187 Zn 0.83258 0.85757 0.69262 0.0
Zn188 Zn 0.87712 0.90991 0.68515 0.0
Zn189 Zn 0.8737 0.86952 0.60029 0.0
O190 O 0.84423 0.81756 0.66835 0.0
O191 O 0.86582 0.82541 0.59924 0.0
O192 O 0.77857 0.89704 0.64036 0.0
O193 O 0.78785 0.86354 0.6946 0.0
O194 O 0.84658 0.86395 0.75964 0.0
O195 O 0.87121 0.9058 0.7536 0.0
O196 O 0.91922 0.90188 0.67392 0.0
O197 O 0.82887 0.92351 0.56193 0.0
O198 O 0.91776 0.87371 0.61143 0.0
O199 O 0.8664 0.89461 0.5418 0.0
C200 C 0.84471 0.96061 0.67804 0.0
C201 C 0.85618 0.80802 0.63094 0.0
C202 C 0.86033 0.88536 0.77839 0.0
C203 C 0.76971 0.87954 0.67209 0.0
C204 C 0.93223 0.88721 0.64266 0.0
C205 C 0.84853 0.91558 0.53281 0.0
O206 O 0.86953 0.95069 0.66597 0.0
O207 O 0.80221 0.07318 0.41674 0.0
Zn208 Zn 0.8375 0.06917 0.37669 0.0
O209 O 0.86447 0.09917 0.3983 0.0
Zn210 Zn 0.89132 0.08077 0.44048 0.0
Zn211 Zn 0.84091 0.12702 0.43186 0.0
Zn212 Zn 0.88083 0.12099 0.34649 0.0
O213 O 0.93142 0.0922 0.41681 0.0
O214 O 0.92493 0.11266 0.34652 0.0
O215 O 0.8505 0.02762 0.38953 0.0
O216 O 0.88494 0.03597 0.44232 0.0
O217 O 0.88436 0.0951 0.50735 0.0
O218 O 0.84343 0.12109 0.50078 0.0
O219 O 0.8507 0.16877 0.42029 0.0
O220 O 0.8256 0.07741 0.31095 0.0
O221 O 0.87729 0.16529 0.3562 0.0
O222 O 0.85577 0.11318 0.28783 0.0
C223 C 0.78931 0.09738 0.42463 0.0
C224 C 0.94163 0.1037 0.3795 0.0
C225 C 0.86324 0.10949 0.52589 0.0
C226 C 0.86815 0.01823 0.42045 0.0
C227 C 0.86487 0.18079 0.38747 0.0
C228 C 0.83411 0.09585 0.28035 0.0
O229 O 0.80063 0.12094 0.4098 0.0
O230 O 0.67626 0.05053 0.16428 0.0
Zn231 Zn 0.67998 0.0865 0.12535 0.0
O232 O 0.65091 0.11378 0.15016 0.0
Zn233 Zn 0.67024 0.14015 0.19227 0.0
Zn234 Zn 0.62355 0.09015 0.18471 0.0
Zn235 Zn 0.62832 0.13129 0.10033 0.0
O236 O 0.65937 0.18093 0.17018 0.0
O237 O 0.63732 0.17535 0.10109 0.0
O238 O 0.72187 0.0988 0.13747 0.0
O239 O 0.71476 0.13281 0.19189 0.0
O240 O 0.65681 0.13285 0.2597 0.0
O241 O 0.63058 0.09198 0.25362 0.0
O242 O 0.58194 0.10061 0.17548 0.0
O243 O 0.67002 0.07547 0.05922 0.0
O244 O 0.58425 0.12802 0.11212 0.0
O245 O 0.63439 0.10694 0.04054 0.0
C246 C 0.65206 0.03804 0.17355 0.0
C247 C 0.64737 0.1917 0.13376 0.0
C248 C 0.64257 0.11171 0.27855 0.0
C249 C 0.73187 0.11598 0.16871 0.0
C250 C 0.5694 0.1154 0.14397 0.0
C251 C 0.6508 0.08491 0.03068 0.0
O252 O 0.6285 0.05004 0.16049 0.0
O253 O 0.69384 0.93218 0.92104 0.0
Zn254 Zn 0.6604 0.93273 0.87753 0.0
O255 O 0.63401 0.90251 0.90112 0.0
Zn256 Zn 0.60521 0.92197 0.93944 0.0
Zn257 Zn 0.65666 0.876 0.93927 0.0
Zn258 Zn 0.61942 0.87877 0.8503 0.0
O259 O 0.56603 0.90909 0.91421 0.0
O260 O 0.57534 0.8857 0.84713 0.0
O261 O 0.64612 0.97456 0.88615 0.0
O262 O 0.61101 0.96667 0.93832 0.0
O263 O 0.60987 0.91088 0.00813 0.0
O264 O 0.64953 0.88265 0.00714 0.0
O265 O 0.6498 0.83348 0.92754 0.0
O266 O 0.6751 0.92192 0.81327 0.0
O267 O 0.6241 0.83488 0.86258 0.0
O268 O 0.64527 0.88538 0.79245 0.0
C269 C 0.70729 0.90961 0.93552 0.0
C270 C 0.55732 0.89585 0.87748 0.0
C271 C 0.62959 0.89623 0.02948 0.0
C272 C 0.62778 0.98427 0.91603 0.0
C273 C 0.63661 0.82039 0.89483 0.0
C274 C 0.66723 0.90219 0.78429 0.0
O275 O 0.69811 0.8841 0.92557 0.0
O276 O 0.82312 0.05453 0.84448 0.0
Zn277 Zn 0.82113 0.09066 0.88249 0.0
O278 O 0.85097 0.11684 0.85778 0.0
Zn279 Zn 0.83156 0.14469 0.81787 0.0
Zn280 Zn 0.87745 0.09354 0.8205 0.0
Zn281 Zn 0.87422 0.13339 0.9081 0.0
O282 O 0.84337 0.18456 0.84107 0.0
O283 O 0.86594 0.17797 0.90946 0.0
O284 O 0.77939 0.10382 0.87131 0.0
O285 O 0.7871 0.13887 0.81898 0.0
O286 O 0.8432 0.13908 0.7497 0.0
O287 O 0.87084 0.09906 0.75212 0.0
O288 O 0.91948 0.10214 0.83138 0.0
O289 O 0.83069 0.07886 0.94815 0.0
O290 O 0.91807 0.12969 0.8947 0.0
O291 O 0.86827 0.10777 0.96719 0.0
C292 C 0.84569 0.04054 0.83125 0.0
C293 C 0.85585 0.1948 0.87735 0.0
C294 C 0.85766 0.11889 0.72901 0.0
C295 C 0.76965 0.12207 0.84145 0.0
C296 C 0.93248 0.11672 0.86268 0.0
C297 C 0.8506 0.08666 0.97667 0.0
O298 O 0.87104 0.05172 0.83526 0.0
O299 O 0.70125 0.0767 0.59563 0.0
Zn300 Zn 0.66543 0.07165 0.63429 0.0
O301 O 0.63745 0.10042 0.61108 0.0
Zn302 Zn 0.60978 0.08028 0.57217 0.0
Zn303 Zn 0.65881 0.12789 0.57315 0.0
Zn304 Zn 0.62139 0.12367 0.66183 0.0
O305 O 0.57014 0.09057 0.5988 0.0
O306 O 0.57765 0.11501 0.66539 0.0
O307 O 0.65401 0.02927 0.62157 0.0
O308 O 0.61708 0.03582 0.57253 0.0
O309 O 0.61433 0.09242 0.50354 0.0
O310 O 0.65479 0.11941 0.50494 0.0
O311 O 0.64767 0.16967 0.58196 0.0
O312 O 0.67677 0.08098 0.70047 0.0
O313 O 0.62431 0.16762 0.64927 0.0
O314 O 0.6466 0.11756 0.72012 0.0
C315 C 0.71328 0.10083 0.58418 0.0
C316 C 0.56048 0.10318 0.63557 0.0
C317 C 0.63472 0.10633 0.48225 0.0
C318 C 0.63528 0.01888 0.59307 0.0
C319 C 0.63474 0.18238 0.61542 0.0
C320 C 0.66816 0.10049 0.72932 0.0
O321 O 0.70015 0.12487 0.59167 0.0
O322 O 0.67453 0.95175 0.34575 0.0
Zn323 Zn 0.67864 0.91514 0.38283 0.0
O324 O 0.64797 0.88897 0.36011 0.0
Zn325 Zn 0.66622 0.86226 0.31707 0.0
Zn326 Zn 0.62022 0.91311 0.32701 0.0
Zn327 Zn 0.62574 0.87168 0.41108 0.0
O328 O 0.65509 0.82189 0.33919 0.0
O329 O 0.63404 0.82718 0.40929 0.0
O330 O 0.72021 0.90224 0.36731 0.0
O331 O 0.71097 0.86764 0.31501 0.0
O332 O 0.65205 0.86977 0.25068 0.0
O333 O 0.626 0.91069 0.25785 0.0
O334 O 0.57822 0.90382 0.33902 0.0
O335 O 0.67115 0.92535 0.4499 0.0
O336 O 0.58122 0.87623 0.40208 0.0
O337 O 0.63427 0.89578 0.47063 0.0
C338 C 0.65076 0.96521 0.33722 0.0
C339 C 0.64354 0.81097 0.37589 0.0
C340 C 0.63774 0.89101 0.23245 0.0
C341 C 0.72914 0.88407 0.33659 0.0
C342 C 0.56593 0.88947 0.37146 0.0
C343 C 0.65229 0.91663 0.47974 0.0
O344 O 0.6266 0.95363 0.34879 0.0
O345 O 0.8022 0.93287 0.09898 0.0
Zn346 Zn 0.83918 0.9332 0.13462 0.0
O347 O 0.86371 0.90207 0.10882 0.0
Zn348 Zn 0.89223 0.921 0.06894 0.0
Zn349 Zn 0.83948 0.87562 0.0727 0.0
Zn350 Zn 0.87987 0.87824 0.15858 0.0
O351 O 0.93204 0.90951 0.09353 0.0
O352 O 0.92409 0.88646 0.16133 0.0
O353 O 0.85326 0.97477 0.12208 0.0
O354 O 0.88615 0.96582 0.06688 0.0
O355 O 0.8874 0.90772 1.00176 0.0
O356 O 0.84748 0.87993 0.00426 0.0
O357 O 0.84403 0.83295 0.08733 0.0
O358 O 0.8274 0.92383 0.20072 0.0
O359 O 0.87591 0.83431 0.14492 0.0
O360 O 0.85419 0.88419 0.21718 0.0
C361 C 0.78739 0.91117 0.08455 0.0
C362 C 0.94152 0.89699 0.13039 0.0
C363 C 0.86775 0.89259 0.98122 0.0
C364 C 0.87019 0.98387 0.08975 0.0
C365 C 0.86008 0.81976 0.11661 0.0
C366 C 0.834 0.90262 0.22782 0.0
O367 O 0.79807 0.88543 0.08329 0.0
O368 O 0.68138 0.55491 0.83609 0.0
Zn369 Zn 0.6829 0.58903 0.87954 0.0
O370 O 0.65271 0.61608 0.85726 0.0
Zn371 Zn 0.67175 0.64383 0.81722 0.0
Zn372 Zn 0.62602 0.59197 0.8223 0.0
Zn373 Zn 0.62944 0.63206 0.90765 0.0
O374 O 0.66089 0.68385 0.84238 0.0
O375 O 0.63915 0.67591 0.91135 0.0
O376 O 0.72463 0.60302 0.87003 0.0
O377 O 0.71639 0.63717 0.81643 0.0
O378 O 0.6583 0.6381 0.75001 0.0
O379 O 0.63215 0.59699 0.75311 0.0
O380 O 0.58398 0.59856 0.83561 0.0
O381 O 0.67231 0.57542 0.94434 0.0
O382 O 0.58522 0.62977 0.89458 0.0
O383 O 0.63546 0.60518 0.96496 0.0
C384 C 0.65761 0.54189 0.82637 0.0
C385 C 0.64938 0.69335 0.88016 0.0
C386 C 0.64421 0.61752 0.72966 0.0
C387 C 0.73412 0.62082 0.83918 0.0
C388 C 0.57093 0.61452 0.86519 0.0
C389 C 0.65255 0.58341 0.97332 0.0
O390 O 0.63389 0.55165 0.8429 0.0
O391 O 0.69365 0.42722 0.09157 0.0
Zn392 Zn 0.65877 0.43038 0.13179 0.0
O393 O 0.63213 0.40037 0.10901 0.0
Zn394 Zn 0.60449 0.41973 0.06859 0.0
Zn395 Zn 0.65459 0.37258 0.07262 0.0
Zn396 Zn 0.61618 0.3784 0.16118 0.0
O397 O 0.56453 0.40924 0.0941 0.0
O398 O 0.57208 0.38695 0.1627 0.0
O399 O 0.64627 0.47222 0.11929 0.0
O400 O 0.61208 0.46432 0.06598 0.0
O401 O 0.6093 0.40607 1.00108 0.0
O402 O 0.649 0.37806 0.00375 0.0
O403 O 0.64616 0.33067 0.08666 0.0
O404 O 0.6716 0.4218 0.19729 0.0
O405 O 0.62027 0.33412 0.15158 0.0
O406 O 0.64147 0.38588 0.21959 0.0
C407 C 0.70692 0.4041 0.07889 0.0
C408 C 0.55487 0.39729 0.13144 0.0
C409 C 0.62909 0.391 0.98049 0.0
C410 C 0.62918 0.48181 0.08772 0.0
C411 C 0.63278 0.31865 0.12036 0.0
C412 C 0.66328 0.40293 0.22736 0.0
O413 O 0.69617 0.37901 0.08753 0.0
O414 O 0.87556 0.4459 0.34133 0.0
Zn415 Zn 0.8766 0.40506 0.32029 0.0
O416 O 0.84771 0.38496 0.35726 0.0
Zn417 Zn 0.86971 0.36875 0.40897 0.0
Zn418 Zn 0.8198 0.41446 0.37801 0.0
Zn419 Zn 0.82758 0.35802 0.31718 0.0
O420 O 0.86151 0.32441 0.40893 0.0
O421 O 0.83945 0.31798 0.33994 0.0
O422 O 0.91742 0.392 0.32902 0.0
O423 O 0.91413 0.37278 0.39936 0.0
O424 O 0.8619 0.3938 0.46768 0.0
O425 O 0.82816 0.42614 0.4444 0.0
O426 O 0.77739 0.40401 0.36358 0.0
O427 O 0.86827 0.40326 0.25203 0.0
O428 O 0.78308 0.36454 0.319 0.0
O429 O 0.83901 0.36445 0.24883 0.0
C430 C 0.85287 0.45941 0.32816 0.0
C431 C 0.85178 0.30773 0.37642 0.0
C432 C 0.84588 0.41649 0.47515 0.0
C433 C 0.92949 0.38123 0.36474 0.0
C434 C 0.76657 0.38397 0.3377 0.0
C435 C 0.85389 0.38453 0.22849 0.0
O436 O 0.82769 0.44901 0.33767 0.0
O437 O 0.80601 0.62525 0.57903 0.0
Zn438 Zn 0.84849 0.62809 0.5707 0.0
O439 O 0.86747 0.59917 0.60949 0.0
Zn440 Zn 0.8843 0.62147 0.66111 0.0
Zn441 Zn 0.83847 0.57115 0.6322 0.0
Zn442 Zn 0.89516 0.57761 0.57123 0.0
O443 O 0.92834 0.61234 0.66258 0.0
O444 O 0.93509 0.58867 0.59498 0.0
O445 O 0.8586 0.66923 0.584 0.0
O446 O 0.88163 0.66602 0.65119 0.0
O447 O 0.85895 0.6151 0.71971 0.0
O448 O 0.82787 0.57959 0.69916 0.0
O449 O 0.84794 0.5285 0.6169 0.0
O450 O 0.85654 0.62241 0.50321 0.0
O451 O 0.88758 0.53329 0.57259 0.0
O452 O 0.89123 0.58823 0.50237 0.0
C453 C 0.79104 0.60181 0.58107 0.0
C454 C 0.94517 0.60153 0.63108 0.0
C455 C 0.83691 0.59852 0.72855 0.0
C456 C 0.87117 0.68136 0.61807 0.0
C457 C 0.86765 0.51723 0.59081 0.0
C458 C 0.87433 0.60607 0.48115 0.0
O459 O 0.80196 0.57806 0.59648 0.0
O460 O 0.67485 0.45041 0.65935 0.0
Zn461 Zn 0.67781 0.41324 0.6239 0.0
O462 O 0.64769 0.38725 0.64854 0.0
Zn463 Zn 0.66644 0.3594 0.68977 0.0
Zn464 Zn 0.62049 0.41046 0.68421 0.0
Zn465 Zn 0.62511 0.37065 0.59759 0.0
O466 O 0.65581 0.31941 0.66488 0.0
O467 O 0.63441 0.32674 0.5957 0.0
O468 O 0.71929 0.40017 0.63742 0.0
O469 O 0.71104 0.36562 0.69046 0.0
O470 O 0.65282 0.36456 0.7577 0.0
O471 O 0.62556 0.40471 0.75266 0.0
O472 O 0.57864 0.40171 0.67175 0.0
O473 O 0.66967 0.4241 0.55725 0.0
O474 O 0.58095 0.37356 0.60923 0.0
O475 O 0.63166 0.39573 0.53864 0.0
C476 C 0.65197 0.46434 0.67156 0.0
C477 C 0.64448 0.30961 0.62731 0.0
C478 C 0.63762 0.3848 0.77703 0.0
C479 C 0.72873 0.38218 0.66795 0.0
C480 C 0.56607 0.38673 0.6405 0.0
C481 C 0.6497 0.41641 0.52877 0.0
O482 O 0.62692 0.45227 0.66998 0.0
O483 O 0.79552 0.42689 0.91063 0.0
Zn484 Zn 0.83132 0.43286 0.87336 0.0
O485 O 0.85938 0.40435 0.89735 0.0
Zn486 Zn 0.88543 0.42472 0.93903 0.0
Zn487 Zn 0.83729 0.37533 0.93167 0.0
Zn488 Zn 0.87746 0.38267 0.84687 0.0
O489 O 0.92661 0.41513 0.91626 0.0
O490 O 0.92087 0.39344 0.84682 0.0
O491 O 0.84059 0.47547 0.88757 0.0
O492 O 0.87654 0.46925 0.93871 0.0
O493 O 0.87888 0.41103 0.00664 0.0
O494 O 0.84011 0.38192 1.00022 0.0
O495 O 0.84916 0.33381 0.92094 0.0
O496 O 0.82106 0.42364 0.80702 0.0
O497 O 0.8762 0.33829 0.85752 0.0
O498 O 0.85277 0.38832 0.78764 0.0
C499 C 0.78326 0.4027 0.92072 0.0
C500 C 0.93727 0.40388 0.87902 0.0
C501 C 0.85878 0.39526 0.02529 0.0
C502 C 0.85831 0.48592 0.91748 0.0
C503 C 0.86424 0.32232 0.88865 0.0
C504 C 0.83068 0.40464 0.77815 0.0
O505 O 0.79607 0.37864 0.91183 0.0
O506 O 0.83659 0.67588 0.10496 0.0
Zn507 Zn 0.82511 0.63117 0.10733 0.0
O508 O 0.85288 0.61482 0.15261 0.0
Zn509 Zn 0.88049 0.58822 0.12526 0.0
Zn510 Zn 0.87656 0.64096 0.18927 0.0
Zn511 Zn 0.83171 0.58966 0.19308 0.0
O512 O 0.8824 0.55168 0.16274 0.0
O513 O 0.83467 0.54962 0.16759 0.0
O514 O 0.83028 0.60658 0.04409 0.0
O515 O 0.8684 0.57832 0.06285 0.0
O516 O 0.92077 0.60293 0.12208 0.0
O517 O 0.92077 0.63571 0.17865 0.0
O518 O 0.87013 0.63474 0.2585 0.0
O519 O 0.78153 0.62679 0.13292 0.0
O520 O 0.84754 0.59144 0.25884 0.0
O521 O 0.78957 0.5985 0.19455 0.0
C522 C 0.8523 0.69183 0.13239 0.0
C523 C 0.85937 0.53749 0.17296 0.0
C524 C 0.93446 0.6204 0.14852 0.0
C525 C 0.84909 0.58635 0.03392 0.0
C526 C 0.86079 0.61209 0.28022 0.0
C527 C 0.7721 0.61267 0.16865 0.0
O528 O 0.8662 0.6808 0.16669 0.0
O529 O 0.69949 0.57586 0.41841 0.0
Zn530 Zn 0.66532 0.57158 0.37651 0.0
O531 O 0.63793 0.60148 0.39786 0.0
Zn532 Zn 0.61076 0.58258 0.43945 0.0
Zn533 Zn 0.66004 0.62999 0.43282 0.0
Zn534 Zn 0.62185 0.62304 0.34544 0.0
O535 O 0.57122 0.5947 0.4162 0.0
O536 O 0.57775 0.61454 0.34538 0.0
O537 O 0.65219 0.52961 0.38919 0.0
O538 O 0.6159 0.53785 0.43916 0.0
O539 O 0.61702 0.59532 0.50725 0.0
O540 O 0.65589 0.62438 0.50175 0.0
O541 O 0.65006 0.67167 0.41996 0.0
O542 O 0.678 0.58026 0.31051 0.0
O543 O 0.62479 0.66743 0.3549 0.0
O544 O 0.64726 0.61529 0.2866 0.0
C545 C 0.71166 0.60004 0.42889 0.0
C546 C 0.56109 0.60602 0.37886 0.0
C547 C 0.63681 0.61109 0.52633 0.0
C548 C 0.63305 0.52009 0.41798 0.0
C549 C 0.63634 0.6833 0.38642 0.0
C550 C 0.6694 0.59845 0.27953 0.0
O551 O 0.70098 0.62389 0.41405 0.0
O552 O 0.32241 0.45194 0.16463 0.0
Zn553 Zn 0.31751 0.41581 0.12624 0.0
O554 O 0.34625 0.38791 0.14955 0.0
Zn555 Zn 0.32665 0.3615 0.19164 0.0
Zn556 Zn 0.37392 0.41101 0.18379 0.0
Zn557 Zn 0.36894 0.37058 0.09942 0.0
O558 O 0.33778 0.32073 0.16975 0.0
O559 O 0.36001 0.32641 0.10058 0.0
O560 O 0.27554 0.40429 0.13951 0.0
O561 O 0.28204 0.36887 0.19173 0.0
O562 O 0.33977 0.36881 0.25897 0.0
O563 O 0.36612 0.40954 0.2521 0.0
O564 O 0.41545 0.39968 0.17542 0.0
O565 O 0.32664 0.42631 0.05973 0.0
O566 O 0.41319 0.3737 0.1107 0.0
O567 O 0.3624 0.39518 0.03979 0.0
C568 C 0.34686 0.4642 0.17289 0.0
C569 C 0.35 0.31002 0.13337 0.0
C570 C 0.35384 0.39014 0.27738 0.0
C571 C 0.26521 0.38656 0.16977 0.0
C572 C 0.42804 0.38543 0.14327 0.0
C573 C 0.34552 0.41693 0.03042 0.0
O574 O 0.37024 0.45146 0.16055 0.0
O575 O 0.30215 0.57492 0.90817 0.0
Zn576 Zn 0.33966 0.57113 0.87379 0.0
O577 O 0.36681 0.60019 0.89909 0.0
Zn578 Zn 0.39503 0.57926 0.93754 0.0
Zn579 Zn 0.34569 0.62782 0.93768 0.0
Zn580 Zn 0.38323 0.62351 0.84842 0.0
O581 O 0.43513 0.58842 0.91056 0.0
O582 O 0.42722 0.6157 0.8467 0.0
O583 O 0.35075 0.52882 0.88693 0.0
O584 O 0.38639 0.53497 0.93839 0.0
O585 O 0.39214 0.59196 0.00622 0.0
O586 O 0.35421 0.62235 0.00511 0.0
O587 O 0.3529 0.66998 0.92394 0.0
O588 O 0.32908 0.58035 0.80726 0.0
O589 O 0.37921 0.66735 0.85952 0.0
O590 O 0.35855 0.61771 0.78929 0.0
C591 C 0.28974 0.59765 0.9245 0.0
C592 C 0.44449 0.60266 0.87511 0.0
C593 C 0.37366 0.60828 0.02755 0.0
C594 C 0.36838 0.51828 0.91697 0.0
C595 C 0.36636 0.68242 0.89076 0.0
C596 C 0.33731 0.60046 0.77922 0.0
O597 O 0.30352 0.62161 0.9299 0.0
O598 O 0.1819 0.55678 0.66665 0.0
Zn599 Zn 0.18352 0.59229 0.62692 0.0
O600 O 0.15318 0.61813 0.65137 0.0
Zn601 Zn 0.17133 0.64538 0.69353 0.0
Zn602 Zn 0.12635 0.59322 0.68478 0.0
Zn603 Zn 0.1305 0.63481 0.60133 0.0
O604 O 0.16002 0.68599 0.67003 0.0
O605 O 0.13933 0.67871 0.60026 0.0
O606 O 0.225 0.60631 0.6384 0.0
O607 O 0.21611 0.63911 0.69397 0.0
O608 O 0.15747 0.63774 0.76082 0.0
O609 O 0.13225 0.59633 0.75342 0.0
O610 O 0.08415 0.60132 0.67339 0.0
O611 O 0.17337 0.57962 0.56152 0.0
O612 O 0.08654 0.63115 0.61282 0.0
O613 O 0.13665 0.60974 0.54268 0.0
C614 C 0.15883 0.54239 0.67588 0.0
C615 C 0.14882 0.69585 0.63228 0.0
C616 C 0.1436 0.61609 0.77895 0.0
C617 C 0.23411 0.62344 0.67038 0.0
C618 C 0.07161 0.61675 0.64262 0.0
C619 C 0.15343 0.58794 0.53332 0.0
O620 O 0.13406 0.55263 0.66438 0.0
O621 O 0.19597 0.43259 0.41138 0.0
Zn622 Zn 0.15883 0.43494 0.37657 0.0
O623 O 0.13304 0.40455 0.40101 0.0
Zn624 Zn 0.10429 0.42378 0.44082 0.0
Zn625 Zn 0.1555 0.37695 0.43759 0.0
Zn626 Zn 0.11713 0.38191 0.34946 0.0
O627 O 0.06456 0.41243 0.41535 0.0
O628 O 0.07314 0.38946 0.34776 0.0
O629 O 0.14617 0.47649 0.39077 0.0
O630 O 0.11096 0.46848 0.44273 0.0
O631 O 0.1081 0.4105 0.50877 0.0
O632 O 0.14625 0.38043 0.50507 0.0
O633 O 0.14956 0.33485 0.42167 0.0
O634 O 0.16978 0.42708 0.30997 0.0
O635 O 0.12134 0.33792 0.35956 0.0
O636 O 0.14179 0.38901 0.29038 0.0
C637 C 0.20953 0.41067 0.42796 0.0
C638 C 0.05543 0.39973 0.37842 0.0
C639 C 0.1267 0.39369 0.5286 0.0
C640 C 0.12823 0.48604 0.4213 0.0
C641 C 0.13524 0.32263 0.38933 0.0
C642 C 0.16226 0.40733 0.28094 0.0
O643 O 0.19753 0.38557 0.43115 0.0
O644 O 0.32756 0.55365 0.34228 0.0
Zn645 Zn 0.32373 0.58954 0.38123 0.0
O646 O 0.35364 0.61639 0.35844 0.0
Zn647 Zn 0.33581 0.64368 0.31596 0.0
Zn648 Zn 0.38143 0.59261 0.3249 0.0
Zn649 Zn 0.37498 0.63356 0.40977 0.0
O650 O 0.34609 0.68421 0.33979 0.0
O651 O 0.3652 0.67745 0.41076 0.0
O652 O 0.28238 0.60279 0.36734 0.0
O653 O 0.29129 0.63728 0.31433 0.0
O654 O 0.35052 0.63692 0.24904 0.0
O655 O 0.3765 0.59596 0.25598 0.0
O656 O 0.42279 0.60258 0.33736 0.0
O657 O 0.33182 0.57814 0.44784 0.0
O658 O 0.41908 0.63126 0.39911 0.0
O659 O 0.36809 0.60831 0.46849 0.0
C660 C 0.35127 0.54026 0.3328 0.0
C661 C 0.35622 0.69436 0.37802 0.0
C662 C 0.36518 0.61589 0.23071 0.0
C663 C 0.27335 0.62078 0.3365 0.0
C664 C 0.43461 0.61804 0.36874 0.0
C665 C 0.35074 0.58686 0.47741 0.0
O666 O 0.37551 0.55154 0.34442 0.0
O667 O 0.19779 0.5725 0.08734 0.0
Zn668 Zn 0.16451 0.5706 0.13184 0.0
O669 O 0.13733 0.60049 0.10989 0.0
Zn670 Zn 0.10917 0.58112 0.07107 0.0
Zn671 Zn 0.15989 0.62751 0.0728 0.0
Zn672 Zn 0.12256 0.62377 0.16128 0.0
O673 O 0.07004 0.59301 0.09804 0.0
O674 O 0.07875 0.61595 0.16557 0.0
O675 O 0.15067 0.52878 0.12307 0.0
O676 O 0.11556 0.5364 0.07109 0.0
O677 O 0.11405 0.59341 1.00255 0.0
O678 O 0.15428 0.62079 0.00473 0.0
O679 O 0.15155 0.66959 0.08379 0.0
O680 O 0.17885 0.58093 0.19609 0.0
O681 O 0.12614 0.66783 0.14922 0.0
O682 O 0.14867 0.61695 0.21839 0.0
C683 C 0.21038 0.59611 0.07504 0.0
C684 C 0.06097 0.60565 0.13522 0.0
C685 C 0.13428 0.60788 0.98181 0.0
C686 C 0.13257 0.51896 0.09313 0.0
C687 C 0.13807 0.68247 0.11648 0.0
C688 C 0.17074 0.60018 0.22576 0.0
O689 O 0.20089 0.62048 0.08985 0.0
O690 O 0.17432 0.45061 0.84357 0.0
Zn691 Zn 0.17684 0.4145 0.8818 0.0
O692 O 0.14595 0.38888 0.859 0.0
Zn693 Zn 0.16435 0.3615 0.81733 0.0
Zn694 Zn 0.11911 0.4131 0.82401 0.0
Zn695 Zn 0.12317 0.37211 0.9101 0.0
O696 O 0.15329 0.32164 0.84054 0.0
O697 O 0.13097 0.3274 0.90953 0.0
O698 O 0.21835 0.40096 0.86791 0.0
O699 O 0.20896 0.36706 0.81459 0.0
O700 O 0.14997 0.36714 0.75104 0.0
O701 O 0.12402 0.40824 0.75488 0.0
O702 O 0.07726 0.40503 0.83708 0.0
O703 O 0.1687 0.42554 0.94816 0.0
O704 O 0.07881 0.37711 0.89999 0.0
O705 O 0.13155 0.39648 0.96947 0.0
C706 C 0.15143 0.46486 0.83272 0.0
C707 C 0.14105 0.311 0.87681 0.0
C708 C 0.13549 0.38758 0.73116 0.0
C709 C 0.22719 0.38317 0.83661 0.0
C710 C 0.06428 0.3907 0.86881 0.0
C711 C 0.14969 0.41731 0.97812 0.0
O712 O 0.12629 0.45435 0.84149 0.0
O713 O 0.30311 0.43617 0.59048 0.0
Zn714 Zn 0.33726 0.43508 0.63298 0.0
O715 O 0.36212 0.40387 0.60805 0.0
Zn716 Zn 0.39008 0.42241 0.56773 0.0
Zn717 Zn 0.33675 0.37846 0.57259 0.0
Zn718 Zn 0.37756 0.37956 0.65729 0.0
O719 O 0.42982 0.41011 0.59151 0.0
O720 O 0.42178 0.3876 0.65985 0.0
O721 O 0.35299 0.47637 0.62474 0.0
O722 O 0.38465 0.46717 0.56781 0.0
O723 O 0.38343 0.4102 0.50025 0.0
O724 O 0.34177 0.38499 0.50383 0.0
O725 O 0.34212 0.33569 0.58381 0.0
O726 O 0.32321 0.42405 0.69736 0.0
O727 O 0.37306 0.3357 0.64266 0.0
O728 O 0.35162 0.38575 0.7156 0.0
C729 C 0.28848 0.41367 0.579 0.0
C730 C 0.43922 0.39776 0.6286 0.0
C731 C 0.36222 0.39695 0.48024 0.0
C732 C 0.3697 0.48537 0.59204 0.0
C733 C 0.35755 0.32179 0.61305 0.0
C734 C 0.33047 0.40338 0.72513 0.0
O735 O 0.29674 0.38852 0.59244 0.0
C736 C 0.27406 0.08798 0.31462 0.0
C737 C 0.2621 0.1165 0.31875 0.0
C738 C 0.29925 0.08263 0.28757 0.0
C739 C 0.3141 0.10567 0.26492 0.0
H740 H 0.26251 0.06924 0.32902 0.0
H741 H 0.30611 0.06008 0.28205 0.0
S742 S 0.29453 0.18482 0.27035 0.0
N743 N 0.26889 0.16837 0.30166 0.0
N744 N 0.31682 0.15847 0.25249 0.0
C745 C 0.30406 0.13457 0.27247 0.0
C746 C 0.27792 0.13995 0.29893 0.0
C747 C 0.1173 0.05638 0.5183 0.0
C748 C 0.14548 0.06886 0.51392 0.0
C749 C 0.11259 0.03069 0.54472 0.0
C750 C 0.1357 0.0169 0.5688 0.0
H751 H 0.09928 0.06496 0.49789 0.0
H752 H 0.09102 0.02069 0.54419 0.0
S753 S 0.21285 0.04349 0.57351 0.0
N754 N 0.19617 0.06713 0.53892 0.0
N755 N 0.18735 0.01991 0.5902 0.0
C756 C 0.16342 0.03085 0.56801 0.0
C757 C 0.1683 0.05651 0.54012 0.0
C758 C 0.22334 0.87022 0.79998 0.0
C759 C 0.23852 0.89391 0.82047 0.0
C760 C 0.19766 0.87473 0.77387 0.0
C761 C 0.18641 0.90318 0.76647 0.0
H762 H 0.23233 0.84819 0.80168 0.0
H763 H 0.18813 0.85611 0.75593 0.0
S764 S 0.21458 0.97212 0.81844 0.0
N765 N 0.23752 0.94652 0.83677 0.0
N766 N 0.19008 0.95484 0.7863 0.0
C767 C 0.19982 0.92668 0.78985 0.0
C768 C 0.2256 0.92209 0.81727 0.0
C769 C 0.38182 0.94656 0.02574 0.0
C770 C 0.35317 0.93644 0.01668 0.0
C771 C 0.38676 0.97216 0.05225 0.0
C772 C 0.36329 0.98818 0.07176 0.0
H773 H 0.4004 0.93623 0.00876 0.0
H774 H 0.40898 0.98037 0.0553 0.0
S775 S 0.28426 0.96889 0.06207 0.0
N776 N 0.30129 0.94309 0.03202 0.0
N777 N 0.31033 0.99034 0.0829 0.0
C778 C 0.33472 0.97674 0.06612 0.0
C779 C 0.32973 0.95112 0.03834 0.0
C780 C 0.30408 0.87057 0.22794 0.0
C781 C 0.31424 0.89941 0.23595 0.0
C782 C 0.27842 0.86529 0.20198 0.0
C783 C 0.26242 0.88857 0.182 0.0
H784 H 0.31437 0.85218 0.24547 0.0
H785 H 0.27012 0.84302 0.19982 0.0
S786 S 0.2815 0.96789 0.18935 0.0
N787 N 0.30755 0.9512 0.2191 0.0
N788 N 0.26007 0.94147 0.16952 0.0
C789 C 0.27388 0.91725 0.18649 0.0
C790 C 0.29959 0.92261 0.21361 0.0
C791 C 0.37947 0.03276 0.44904 0.0
C792 C 0.35516 0.01597 0.43547 0.0
C793 C 0.376 0.05819 0.47613 0.0
C794 C 0.34816 0.0675 0.49218 0.0
H795 H 0.40147 0.02521 0.44108 0.0
H796 H 0.39565 0.06907 0.48848 0.0
S797 S 0.27712 0.03302 0.46212 0.0
N798 N 0.30185 0.01233 0.43556 0.0
N799 N 0.29564 0.0594 0.48847 0.0
C800 C 0.32347 0.05241 0.47558 0.0
C801 C 0.32693 0.02674 0.44692 0.0
C802 C 0.20297 0.07916 0.71613 0.0
C803 C 0.18721 0.1033 0.7339 0.0
C804 C 0.22834 0.08309 0.68898 0.0
C805 C 0.23923 0.11132 0.67835 0.0
H806 H 0.19695 0.057 0.7262 0.0
H807 H 0.24094 0.06378 0.67947 0.0
S808 S 0.20433 0.1819 0.71127 0.0
N809 N 0.18269 0.15663 0.73443 0.0
N810 N 0.23064 0.16382 0.6838 0.0
C811 C 0.22229 0.13564 0.6921 0.0
C812 C 0.1962 0.13167 0.71972 0.0
C813 C 0.16691 0.95239 0.96656 0.0
C814 C 0.14389 0.93891 0.99138 0.0
C815 C 0.16196 0.97728 0.93851 0.0
C816 C 0.13395 0.99038 0.93546 0.0
H817 H 0.18921 0.94461 0.97087 0.0
H818 H 0.18074 0.98771 0.92227 0.0
S819 S 0.06583 0.96213 0.99048 0.0
N820 N 0.09155 0.93898 0.00766 0.0
N821 N 0.08249 0.98636 0.95671 0.0
C822 C 0.11047 0.97608 0.95792 0.0
C823 C 0.11538 0.95022 0.98539 0.0
C824 C 0.72693 0.91153 0.69319 0.0
C825 C 0.73929 0.8831 0.69063 0.0
C826 C 0.70213 0.91736 0.72097 0.0
C827 C 0.68801 0.89483 0.74599 0.0
H828 H 0.73786 0.92995 0.67668 0.0
H829 H 0.69484 0.93991 0.72473 0.0
S830 S 0.70933 0.81602 0.74668 0.0
N831 N 0.73406 0.83185 0.71282 0.0
N832 N 0.68677 0.84249 0.7632 0.0
C833 C 0.69866 0.86592 0.74064 0.0
C834 C 0.72444 0.86013 0.71347 0.0
C835 C 0.88774 0.97374 0.46239 0.0
C836 C 0.86466 0.98754 0.43828 0.0
C837 C 0.88293 0.94815 0.48894 0.0
C838 C 0.8547 0.93582 0.49343 0.0
H839 H 0.90934 0.98367 0.46281 0.0
H840 H 0.90095 0.93949 0.50928 0.0
S841 S 0.7874 0.96132 0.43381 0.0
N842 N 0.81299 0.98477 0.41699 0.0
N843 N 0.80399 0.93768 0.4685 0.0
C844 C 0.83189 0.9482 0.46725 0.0
C845 C 0.83687 0.97376 0.43921 0.0
C846 C 0.77878 0.13479 0.2043 0.0
C847 C 0.76233 0.11129 0.18603 0.0
C848 C 0.80444 0.12975 0.23041 0.0
C849 C 0.81411 0.10097 0.24035 0.0
H850 H 0.77092 0.15715 0.20048 0.0
H851 H 0.81522 0.14842 0.24634 0.0
S852 S 0.7798 0.0319 0.19908 0.0
N853 N 0.7588 0.05817 0.17762 0.0
N854 N 0.80629 0.04887 0.22742 0.0
C855 C 0.79885 0.07744 0.22002 0.0
C856 C 0.77315 0.08254 0.19273 0.0
C857 C 0.65979 0.02707 0.93683 0.0
C858 C 0.63135 0.01491 0.9339 0.0
C859 C 0.66571 0.05151 0.96533 0.0
C860 C 0.64329 0.06547 0.99079 0.0
H861 H 0.67818 0.01613 0.9203 0.0
H862 H 0.68828 0.05845 0.96958 0.0
S863 S 0.56447 0.04487 0.99044 0.0
N864 N 0.58016 0.02045 0.95589 0.0
N865 N 0.59102 0.067 0.00771 0.0
C866 C 0.61436 0.05523 0.98482 0.0
C867 C 0.60846 0.02982 0.95685 0.0
C868 C 0.72703 0.09012 0.82046 0.0
C869 C 0.73903 0.11862 0.82427 0.0
C870 C 0.70233 0.08459 0.79262 0.0
C871 C 0.68802 0.10744 0.76874 0.0
H872 H 0.73827 0.07149 0.83572 0.0
H873 H 0.69543 0.06202 0.78757 0.0
S874 S 0.7082 0.18649 0.77219 0.0
N875 N 0.73308 0.17027 0.80506 0.0
N876 N 0.68601 0.1601 0.75442 0.0
C877 C 0.69816 0.13637 0.77571 0.0
C878 C 0.72381 0.1419 0.803 0.0
C879 C 0.61475 0.97382 0.554 0.0
C880 C 0.63846 0.98794 0.57607 0.0
C881 C 0.6189 0.94824 0.52718 0.0
C882 C 0.64705 0.93615 0.52041 0.0
H883 H 0.59308 0.9836 0.55512 0.0
H884 H 0.60034 0.93952 0.50818 0.0
S885 S 0.71588 0.96205 0.57511 0.0
N886 N 0.69068 0.98541 0.59365 0.0
N887 N 0.69843 0.93829 0.54175 0.0
C888 C 0.67052 0.94866 0.545 0.0
C889 C 0.66624 0.97425 0.57325 0.0
C890 C 0.79956 0.91874 0.29128 0.0
C891 C 0.81284 0.89578 0.26602 0.0
C892 C 0.77396 0.91402 0.3178 0.0
C893 C 0.75998 0.88633 0.31899 0.0
H894 H 0.80808 0.94091 0.28843 0.0
H895 H 0.7638 0.93283 0.33441 0.0
S896 S 0.78727 0.81829 0.26238 0.0
N897 N 0.81147 0.84365 0.24744 0.0
N898 N 0.76293 0.83509 0.29573 0.0
C899 C 0.77403 0.86282 0.29621 0.0
C900 C 0.80054 0.86745 0.2702 0.0
C901 C 0.88501 0.05445 0.02168 0.0
C902 C 0.85666 0.06636 0.0162 0.0
C903 C 0.88977 0.0288 0.04825 0.0
C904 C 0.86653 0.0145 0.07149 0.0
H905 H 0.90325 0.06351 1.00213 0.0
H906 H 0.91155 0.01925 0.04865 0.0
S907 S 0.78859 0.03869 0.07168 0.0
N908 N 0.80546 0.06305 0.03851 0.0
N909 N 0.81432 0.01583 0.0897 0.0
C910 C 0.83849 0.02765 0.06916 0.0
C911 C 0.83359 0.05327 0.04121 0.0
C912 C 0.77765 0.58922 0.82018 0.0
C913 C 0.76489 0.6175 0.82187 0.0
C914 C 0.80271 0.58348 0.7929 0.0
C915 C 0.81671 0.60597 0.7676 0.0
H916 H 0.76682 0.57079 0.83682 0.0
H917 H 0.81019 0.56096 0.78946 0.0
S918 S 0.79457 0.68452 0.76523 0.0
N919 N 0.76981 0.66866 0.79898 0.0
N920 N 0.81752 0.65819 0.74957 0.0
C921 C 0.80577 0.6348 0.77241 0.0
C922 C 0.77973 0.64049 0.79904 0.0
C923 C 0.6171 0.55194 0.01761 0.0
C924 C 0.64582 0.56298 0.01236 0.0
C925 C 0.61135 0.52674 0.04472 0.0
C926 C 0.63395 0.51207 0.06873 0.0
H927 H 0.5993 0.56138 0.99766 0.0
H928 H 0.58931 0.51784 0.04501 0.0
S929 S 0.71247 0.53444 0.07048 0.0
N930 N 0.69666 0.55869 0.03592 0.0
N931 N 0.68595 0.51238 0.08835 0.0
C932 C 0.66238 0.52443 0.06663 0.0
C933 C 0.66829 0.54956 0.03804 0.0
C934 C 0.69845 0.42033 0.2883 0.0
C935 C 0.68363 0.3969 0.26669 0.0
C936 C 0.72366 0.41552 0.3154 0.0
C937 C 0.73571 0.38713 0.32082 0.0
H938 H 0.69152 0.44276 0.28194 0.0
H939 H 0.73511 0.43454 0.32888 0.0
S940 S 0.70346 0.31793 0.27558 0.0
N941 N 0.68115 0.3439 0.25664 0.0
N942 N 0.72901 0.33497 0.30602 0.0
C943 C 0.71994 0.36332 0.30206 0.0
C944 C 0.69381 0.36817 0.27545 0.0
C945 C 0.83461 0.47613 0.56557 0.0
C946 C 0.86337 0.48674 0.57257 0.0
C947 C 0.8291 0.45165 0.53698 0.0
C948 C 0.85212 0.43612 0.51542 0.0
H949 H 0.81597 0.48826 0.57899 0.0
H950 H 0.80653 0.44587 0.52954 0.0
S951 S 0.93157 0.45224 0.52761 0.0
N952 N 0.91526 0.47798 0.5589 0.0
N953 N 0.90498 0.43144 0.50678 0.0
C954 C 0.88107 0.44483 0.52556 0.0
C955 C 0.88667 0.47025 0.55368 0.0
C956 C 0.77211 0.41375 0.68659 0.0
C957 C 0.75944 0.38546 0.68497 0.0
C958 C 0.79713 0.4195 0.71359 0.0
C959 C 0.81112 0.39701 0.73873 0.0
H960 H 0.7612 0.43221 0.67022 0.0
H961 H 0.80448 0.44204 0.71715 0.0
S962 S 0.7895 0.31834 0.74059 0.0
N963 N 0.76463 0.3342 0.70725 0.0
N964 N 0.81229 0.34474 0.7563 0.0
C965 C 0.80039 0.36813 0.73378 0.0
C966 C 0.7744 0.36242 0.70738 0.0
C967 C 0.87645 0.55914 0.97298 0.0
C968 C 0.84898 0.56889 0.99001 0.0
C969 C 0.87919 0.53343 0.94632 0.0
C970 C 0.8545 0.5168 0.93404 0.0
H971 H 0.89642 0.56987 0.98432 0.0
H972 H 0.90098 0.52554 0.93774 0.0
S973 S 0.77706 0.53535 0.96247 0.0
N974 N 0.79629 0.5616 0.98784 0.0
N975 N 0.80115 0.51403 0.93569 0.0
C976 C 0.82658 0.52811 0.9461 0.0
C977 C 0.82386 0.55406 0.97435 0.0
C978 C 0.72938 0.58232 0.19225 0.0
C979 C 0.74047 0.61046 0.18146 0.0
C980 C 0.70434 0.5786 0.22019 0.0
C981 C 0.68902 0.60288 0.23838 0.0
H982 H 0.74164 0.56289 0.18222 0.0
H983 H 0.69822 0.5565 0.23043 0.0
S984 S 0.70663 0.68132 0.21565 0.0
N985 N 0.73247 0.66305 0.18737 0.0
N986 N 0.685 0.65622 0.23929 0.0
C987 C 0.69811 0.63117 0.22408 0.0
C988 C 0.72394 0.63494 0.19578 0.0
C989 C 0.66714 0.45019 0.46552 0.0
C990 C 0.64367 0.43673 0.48928 0.0
C991 C 0.66287 0.47555 0.43826 0.0
C992 C 0.63509 0.48907 0.43486 0.0
H993 H 0.6893 0.44213 0.47033 0.0
H994 H 0.682 0.48599 0.4231 0.0
S995 S 0.56584 0.46074 0.48612 0.0
N996 N 0.59107 0.4371 0.50348 0.0
N997 N 0.58327 0.48524 0.45385 0.0
C998 C 0.61112 0.47465 0.45576 0.0
C999 C 0.61535 0.44837 0.48251 0.0
C1000 C 0.19291 0.37294 0.23316 0.0
C1001 C 0.18256 0.40172 0.24126 0.0
C1002 C 0.21868 0.36779 0.20716 0.0
C1003 C 0.23462 0.39114 0.18715 0.0
H1004 H 0.18255 0.35445 0.25039 0.0
H1005 H 0.227 0.34553 0.20477 0.0
S1006 S 0.21492 0.47036 0.19427 0.0
N1007 N 0.18899 0.45356 0.22437 0.0
N1008 N 0.23662 0.44407 0.17455 0.0
C1009 C 0.22303 0.41979 0.19184 0.0
C1010 C 0.19722 0.42502 0.21909 0.0
C1011 C 0.38088 0.44743 0.98471 0.0
C1012 C 0.3522 0.4364 0.9902 0.0
C1013 C 0.38649 0.47277 0.95791 0.0
C1014 C 0.36375 0.48765 0.93455 0.0
H1015 H 0.39874 0.43804 0.00459 0.0
H1016 H 0.40852 0.48172 0.95768 0.0
S1017 S 0.28536 0.4649 0.93256 0.0
N1018 N 0.30132 0.44054 0.96677 0.0
N1019 N 0.31176 0.48717 0.91488 0.0
C1020 C 0.33541 0.47509 0.93634 0.0
C1021 C 0.32965 0.44977 0.9646 0.0
C1022 C 0.27737 0.59159 0.68917 0.0
C1023 C 0.2648 0.61995 0.68761 0.0
C1024 C 0.30259 0.58573 0.71576 0.0
C1025 C 0.31687 0.60814 0.74071 0.0
H1026 H 0.26629 0.57321 0.67295 0.0
H1027 H 0.30996 0.56317 0.71899 0.0
S1028 S 0.29501 0.6868 0.74357 0.0
N1029 N 0.27 0.67105 0.71041 0.0
N1030 N 0.31795 0.66037 0.75871 0.0
C1031 C 0.30598 0.63703 0.73618 0.0
C1032 C 0.27982 0.64284 0.71016 0.0
C1033 C 0.16776 0.55252 0.47036 0.0
C1034 C 0.14558 0.56748 0.49488 0.0
C1035 C 0.16134 0.5278 0.44283 0.0
C1036 C 0.1326 0.51636 0.43994 0.0
H1037 H 0.19047 0.55904 0.47441 0.0
H1038 H 0.1795 0.51623 0.42674 0.0
S1039 S 0.06627 0.54869 0.49471 0.0
N1040 N 0.09328 0.57045 0.51135 0.0
N1041 N 0.0815 0.52333 0.46133 0.0
C1042 C 0.11001 0.53204 0.46228 0.0
C1043 C 0.11643 0.55774 0.48924 0.0
C1044 C 0.20546 0.58401 0.28806 0.0
C1045 C 0.19133 0.60697 0.26422 0.0
C1046 C 0.2304 0.5893 0.31543 0.0
C1047 C 0.24284 0.61763 0.31871 0.0
H1048 H 0.19811 0.56153 0.2835 0.0
H1049 H 0.24138 0.57059 0.33094 0.0
S1050 S 0.21272 0.6857 0.26626 0.0
N1051 N 0.19003 0.65956 0.24916 0.0
N1052 N 0.2376 0.66927 0.29888 0.0
C1053 C 0.22792 0.64103 0.29727 0.0
C1054 C 0.202 0.63576 0.2705 0.0
C1055 C 0.11664 0.44754 0.0289 0.0
C1056 C 0.14504 0.43693 0.0189 0.0
C1057 C 0.11238 0.47299 0.05607 0.0
C1058 C 0.13627 0.48833 0.07536 0.0
H1059 H 0.09775 0.43772 0.01221 0.0
H1060 H 0.09035 0.48166 0.05979 0.0
S1061 S 0.21487 0.46772 0.06318 0.0
N1062 N 0.19716 0.44242 0.0332 0.0
N1063 N 0.18932 0.48947 0.08507 0.0
C1064 C 0.16458 0.47641 0.06876 0.0
C1065 C 0.16891 0.45093 0.04036 0.0
C1066 C 0.29622 0.41909 0.78902 0.0
C1067 C 0.30965 0.3963 0.76359 0.0
C1068 C 0.27113 0.41392 0.81649 0.0
C1069 C 0.2578 0.38593 0.81841 0.0
H1070 H 0.30425 0.44142 0.7857 0.0
H1071 H 0.26077 0.43258 0.83325 0.0
S1072 S 0.28575 0.31828 0.76147 0.0
N1073 N 0.3092 0.3441 0.74551 0.0
N1074 N 0.26149 0.33468 0.79547 0.0
C1075 C 0.27201 0.36263 0.79535 0.0
C1076 C 0.29805 0.36774 0.76842 0.0
C1077 C 0.38965 0.52956 0.54972 0.0
C1078 C 0.36651 0.51612 0.5744 0.0
C1079 C 0.38496 0.55483 0.52237 0.0
C1080 C 0.35676 0.56715 0.51752 0.0
H1081 H 0.4112 0.5195 0.54938 0.0
H1082 H 0.40303 0.56317 0.50166 0.0
S1083 S 0.28928 0.54241 0.57809 0.0
N1084 N 0.31481 0.51918 0.59566 0.0
N1085 N 0.30597 0.56562 0.54262 0.0
C1086 C 0.33387 0.55513 0.5442 0.0
C1087 C 0.33876 0.52994 0.57311 0.0
C1088 C 0.14071 0.27269 0.42503 0.0
C1089 C 0.13637 0.2902 0.38518 0.0
C1090 C 0.14377 0.24204 0.4217 0.0
C1091 C 0.14338 0.22791 0.37827 0.0
H1092 H 0.1418 0.28276 0.4591 0.0
H1093 H 0.14711 0.22942 0.45319 0.0
S1094 S 0.13204 0.26365 0.26351 0.0
N1095 N 0.13112 0.29101 0.30114 0.0
N1096 N 0.13739 0.23364 0.29466 0.0
C1097 C 0.13878 0.24515 0.33822 0.0
C1098 C 0.13511 0.27622 0.34172 0.0
C1099 C 0.00954 0.89259 0.59471 0.0
C1100 C 0.02673 0.89663 0.63486 0.0
C1101 C 0.97916 0.88817 0.59765 0.0
C1102 C 0.96468 0.88819 0.64082 0.0
H1103 H 0.01965 0.89271 0.56058 0.0
H1104 H 0.96682 0.88569 0.56576 0.0
S1105 S 0.99955 0.89689 0.7565 0.0
N1106 N 0.02709 0.89931 0.71923 0.0
N1107 N 0.96984 0.89174 0.7248 0.0
C1108 C 0.98161 0.8918 0.68132 0.0
C1109 C 0.01265 0.89579 0.67835 0.0
C1110 C 0.35711 0.7627 0.92406 0.0
C1111 C 0.35566 0.77687 0.8807 0.0
C1112 C 0.36116 0.73216 0.92706 0.0
C1113 C 0.36468 0.71482 0.88685 0.0
H1114 H 0.35454 0.77519 0.95587 0.0
H1115 H 0.36145 0.72204 0.96116 0.0
S1116 S 0.36407 0.74147 0.76497 0.0
N1117 N 0.35895 0.77131 0.79661 0.0
N1118 N 0.36705 0.71415 0.80245 0.0
C1119 C 0.36404 0.72883 0.84335 0.0
C1120 C 0.35937 0.75977 0.84023 0.0
C1121 C 0.49243 0.11026 0.09581 0.0
C1122 C 0.47499 0.10684 0.13599 0.0
C1123 C 0.5228 0.11454 0.09881 0.0
C1124 C 0.53699 0.115 0.14207 0.0
H1125 H 0.48254 0.10975 0.06163 0.0
H1126 H 0.53536 0.11644 0.0669 0.0
S1127 S 0.50138 0.1078 0.25777 0.0
N1128 N 0.47405 0.10516 0.22042 0.0
N1129 N 0.53132 0.11244 0.22611 0.0
C1130 C 0.51981 0.11199 0.18258 0.0
C1131 C 0.48878 0.10814 0.17954 0.0
C1132 C 0.14213 0.7601 0.16353 0.0
C1133 C 0.14503 0.7774 0.1231 0.0
C1134 C 0.13866 0.72955 0.161 0.0
C1135 C 0.1385 0.715 0.11796 0.0
H1136 H 0.14238 0.77026 0.19759 0.0
H1137 H 0.13699 0.71718 0.1931 0.0
S1138 S 0.14467 0.75005 1.00169 0.0
N1139 N 0.14669 0.77774 0.03865 0.0
N1140 N 0.14082 0.72017 0.0338 0.0
C1141 C 0.14108 0.732 0.07718 0.0
C1142 C 0.14413 0.76322 0.07976 0.0
C1143 C 0.51642 0.89419 0.3342 0.0
C1144 C 0.53336 0.8903 0.3747 0.0
C1145 C 0.48579 0.89759 0.33642 0.0
C1146 C 0.47094 0.89805 0.37933 0.0
H1147 H 0.52695 0.89472 0.30039 0.0
H1148 H 0.47374 0.90048 0.30433 0.0
S1149 S 0.50494 0.88819 0.49562 0.0
N1150 N 0.5328 0.88638 0.45892 0.0
N1151 N 0.47549 0.89336 0.46333 0.0
C1152 C 0.4876 0.89393 0.42009 0.0
C1153 C 0.51869 0.88986 0.41772 0.0
C1154 C 0.37485 0.27335 0.64406 0.0
C1155 C 0.35649 0.289 0.61375 0.0
C1156 C 0.37342 0.24268 0.64738 0.0
C1157 C 0.35347 0.22601 0.62067 0.0
H1158 H 0.39039 0.28484 0.66593 0.0
H1159 H 0.38808 0.23208 0.67175 0.0
S1160 S 0.3009 0.25615 0.53467 0.0
N1161 N 0.318 0.28535 0.55526 0.0
N1162 N 0.31534 0.22766 0.56184 0.0
C1163 C 0.33529 0.24126 0.58947 0.0
C1164 C 0.33678 0.27268 0.58595 0.0
C1165 C 0.01008 0.11304 0.90891 0.0
C1166 C 0.02717 0.10902 0.86848 0.0
C1167 C 0.97963 0.11685 0.90655 0.0
C1168 C 0.96495 0.11624 0.86372 0.0
H1169 H 0.0203 0.11335 0.94286 0.0
H1170 H 0.96741 0.11932 0.93868 0.0
S1171 S 0.99947 0.10754 0.74743 0.0
N1172 N 0.02721 0.10583 0.78414 0.0
N1173 N 0.96981 0.11233 0.77967 0.0
C1174 C 0.98176 0.11272 0.8229 0.0
C1175 C 0.01289 0.10931 0.82527 0.0
C1176 C 0.86241 0.75823 0.66664 0.0
C1177 C 0.86098 0.77588 0.62635 0.0
C1178 C 0.86734 0.72785 0.66388 0.0
C1179 C 0.87059 0.71385 0.62068 0.0
H1180 H 0.85974 0.76794 0.70076 0.0
H1181 H 0.86751 0.71513 0.69573 0.0
S1182 S 0.8698 0.74994 0.50485 0.0
N1183 N 0.86431 0.77707 0.54198 0.0
N1184 N 0.8731 0.71992 0.53672 0.0
C1185 C 0.86976 0.73123 0.58015 0.0
C1186 C 0.8651 0.76223 0.58299 0.0
C1187 C 0.01813 0.11421 0.32908 0.0
C1188 C 0.03559 0.11842 0.3689 0.0
C1189 C 0.98773 0.10979 0.33261 0.0
C1190 C 0.97373 0.10874 0.37617 0.0
H1191 H 0.02808 0.11402 0.29483 0.0
H1192 H 0.97525 0.10652 0.30105 0.0
S1193 S 0.00925 0.11965 0.49104 0.0
N1194 N 0.03639 0.12228 0.45316 0.0
N1195 N 0.97946 0.11362 0.45998 0.0
C1196 C 0.99085 0.11343 0.41624 0.0
C1197 C 0.0217 0.11842 0.41257 0.0
C1198 C 0.63688 0.26866 0.08455 0.0
C1199 C 0.63418 0.2862 0.12469 0.0
C1200 C 0.64091 0.23812 0.08766 0.0
C1201 C 0.64315 0.22404 0.13104 0.0
H1202 H 0.636 0.27863 0.05038 0.0
H1203 H 0.64284 0.22555 0.05582 0.0
S1204 S 0.63719 0.26003 0.24672 0.0
N1205 N 0.63352 0.28721 0.20913 0.0
N1206 N 0.64157 0.23002 0.21519 0.0
C1207 C 0.64027 0.24135 0.17149 0.0
C1208 C 0.63562 0.27234 0.16827 0.0
C1209 C 0.47731 0.8843 0.90969 0.0
C1210 C 0.46393 0.8782 0.86684 0.0
C1211 C 0.5074 0.89019 0.91246 0.0
C1212 C 0.52547 0.88986 0.8726 0.0
H1213 H 0.46428 0.88573 0.94117 0.0
H1214 H 0.51651 0.89511 0.94631 0.0
S1215 S 0.5015 0.8729 0.75239 0.0
N1216 N 0.47121 0.8707 0.78384 0.0
N1217 N 0.5279 0.88139 0.78919 0.0
C1218 C 0.51257 0.88268 0.82974 0.0
C1219 C 0.48181 0.87696 0.82684 0.0
C1220 C 0.86217 0.27244 0.92588 0.0
C1221 C 0.86535 0.28977 0.88549 0.0
C1222 C 0.85994 0.24165 0.92335 0.0
C1223 C 0.86003 0.22713 0.88024 0.0
H1224 H 0.86102 0.28279 0.95975 0.0
H1225 H 0.85718 0.22925 0.95523 0.0
S1226 S 0.869 0.26221 0.76428 0.0
N1227 N 0.86962 0.28992 0.80128 0.0
N1228 N 0.86497 0.23234 0.7963 0.0
C1229 C 0.86385 0.24417 0.83967 0.0
C1230 C 0.86666 0.27539 0.84234 0.0
C1231 C 0.48538 0.13462 0.66618 0.0
C1232 C 0.46619 0.11528 0.64319 0.0
C1233 C 0.51593 0.13004 0.66523 0.0
C1234 C 0.52828 0.1059 0.64142 0.0
H1235 H 0.47683 0.15364 0.68435 0.0
H1236 H 0.52997 0.14599 0.68208 0.0
S1237 S 0.48751 0.04659 0.58112 0.0
N1238 N 0.46191 0.06942 0.59959 0.0
N1239 N 0.51885 0.06109 0.59809 0.0
C1240 C 0.50926 0.08581 0.62002 0.0
C1241 C 0.47837 0.09043 0.62081 0.0
C1242 C 0.64031 0.76387 0.42128 0.0
C1243 C 0.64009 0.77855 0.37828 0.0
C1244 C 0.63846 0.73308 0.42361 0.0
C1245 C 0.63562 0.71585 0.38313 0.0
H1246 H 0.64274 0.77617 0.45327 0.0
H1247 H 0.63948 0.72267 0.45746 0.0
S1248 S 0.6321 0.74372 0.26207 0.0
N1249 N 0.63561 0.77354 0.29427 0.0
N1250 N 0.63174 0.71589 0.2989 0.0
C1251 C 0.63438 0.73032 0.34005 0.0
C1252 C 0.63675 0.76159 0.33757 0.0
C1253 C 0.99095 0.88951 0.09445 0.0
C1254 C 0.97367 0.89268 0.1349 0.0
C1255 C 0.02142 0.88557 0.0969 0.0
C1256 C 0.03594 0.88521 0.13989 0.0
H1257 H 0.98084 0.89006 0.06042 0.0
H1258 H 0.03379 0.88388 0.06479 0.0
S1259 S 0.00092 0.89161 0.25621 0.0
N1260 N 0.97331 0.89406 0.21932 0.0
N1261 N 0.0307 0.88742 0.22404 0.0
C1262 C 0.01893 0.88786 0.18069 0.0
C1263 C 0.98779 0.89135 0.17819 0.0
C1264 C 0.64306 0.74336 0.84567 0.0
C1265 C 0.64575 0.72559 0.8856 0.0
C1266 C 0.639 0.77382 0.84905 0.0
C1267 C 0.63803 0.78787 0.89251 0.0
H1268 H 0.64385 0.73363 0.81131 0.0
H1269 H 0.63743 0.78654 0.81729 0.0
S1270 S 0.64349 0.75154 0.00778 0.0
N1271 N 0.64644 0.72431 0.97007 0.0
N1272 N 0.63954 0.78173 0.97649 0.0
C1273 C 0.64052 0.77043 0.93279 0.0
C1274 C 0.64415 0.73927 0.92934 0.0
C1275 C 0.50552 0.3899 0.09584 0.0
C1276 C 0.52272 0.39317 0.13615 0.0
C1277 C 0.47508 0.38583 0.09854 0.0
C1278 C 0.46053 0.38544 0.14165 0.0
H1279 H 0.51565 0.39041 0.06173 0.0
H1280 H 0.46276 0.38407 0.06651 0.0
S1281 S 0.49543 0.39196 0.2577 0.0
N1282 N 0.52303 0.39456 0.22059 0.0
N1283 N 0.46569 0.38765 0.22576 0.0
C1284 C 0.47749 0.38817 0.18232 0.0
C1285 C 0.50859 0.39181 0.17957 0.0
C1286 C 0.85629 0.26096 0.42207 0.0
C1287 C 0.85666 0.27558 0.37906 0.0
C1288 C 0.85981 0.23034 0.42456 0.0
C1289 C 0.86454 0.21332 0.38424 0.0
H1290 H 0.85245 0.27312 0.45388 0.0
H1291 H 0.85848 0.21987 0.45834 0.0
S1292 S 0.86977 0.2415 0.26347 0.0
N1293 N 0.86365 0.27102 0.29543 0.0
N1294 N 0.87071 0.21367 0.30028 0.0
C1295 C 0.86612 0.22787 0.34124 0.0
C1296 C 0.86202 0.25893 0.3386 0.0
C1297 C 0.99164 0.60684 0.67703 0.0
C1298 C 0.97728 0.60634 0.63388 0.0
C1299 C 0.02214 0.61091 0.67968 0.0
C1300 C 0.03922 0.6155 0.63938 0.0
H1301 H 0.97935 0.60336 0.70886 0.0
H1302 H 0.03247 0.61029 0.71354 0.0
S1303 S 0.01189 0.61793 0.51815 0.0
N1304 N 0.98232 0.61185 0.55001 0.0
N1305 N 0.03936 0.6201 0.55523 0.0
C1306 C 0.02497 0.616 0.59619 0.0
C1307 C 0.99409 0.61123 0.59338 0.0
C1308 C 0.63869 0.25988 0.66284 0.0
C1309 C 0.64106 0.27734 0.62252 0.0
C1310 C 0.63532 0.22934 0.66013 0.0
C1311 C 0.63469 0.21492 0.61697 0.0
H1312 H 0.63936 0.26989 0.697 0.0
H1313 H 0.63417 0.21687 0.69219 0.0
S1314 S 0.63914 0.25043 0.50088 0.0
N1315 N 0.64157 0.278 0.53802 0.0
N1316 N 0.63584 0.22042 0.53282 0.0
C1317 C 0.63662 0.23209 0.57629 0.0
C1318 C 0.63961 0.26332 0.57907 0.0
C1319 C 0.98662 0.39743 0.9158 0.0
C1320 C 0.9696 0.40046 0.8752 0.0
C1321 C 0.01708 0.39294 0.91351 0.0
C1322 C 0.03178 0.39189 0.87055 0.0
H1323 H 0.97631 0.39822 0.94975 0.0
H1324 H 0.02928 0.39116 0.94565 0.0
S1325 S 0.99751 0.39805 0.75398 0.0
N1326 N 0.96979 0.40134 0.79072 0.0
N1327 N 0.02703 0.3936 0.78638 0.0
C1328 C 0.01505 0.39468 0.82968 0.0
C1329 C 0.98399 0.39876 0.832 0.0
C1330 C 0.83582 0.77133 0.09847 0.0
C1331 C 0.85938 0.78702 0.11845 0.0
C1332 C 0.83391 0.74049 0.10172 0.0
C1333 C 0.8555 0.72414 0.12506 0.0
H1334 H 0.81828 0.78298 0.08106 0.0
H1335 H 0.81499 0.72954 0.08699 0.0
S1336 S 0.9236 0.75426 0.17817 0.0
N1337 N 0.90593 0.78347 0.15895 0.0
N1338 N 0.90272 0.7259 0.1647 0.0
C1339 C 0.87981 0.73952 0.14346 0.0
C1340 C 0.88163 0.77081 0.14031 0.0
C1341 C 0.5144 0.60935 0.33348 0.0
C1342 C 0.5291 0.61105 0.3762 0.0
C1343 C 0.48384 0.61261 0.33121 0.0
C1344 C 0.46701 0.61834 0.37141 0.0
H1345 H 0.52644 0.60457 0.30185 0.0
H1346 H 0.47327 0.61017 0.29775 0.0
S1347 S 0.4955 0.62751 0.49115 0.0
N1348 N 0.52487 0.62064 0.45925 0.0
N1349 N 0.46758 0.62712 0.45475 0.0
C1350 C 0.48164 0.6214 0.414 0.0
C1351 C 0.51265 0.61761 0.41645 0.0
C1352 C 0.36119 0.23305 0.08464 0.0
C1353 C 0.36402 0.21556 0.12486 0.0
C1354 C 0.3569 0.26355 0.08758 0.0
C1355 C 0.35453 0.27769 0.13087 0.0
H1356 H 0.36214 0.22304 0.0505 0.0
H1357 H 0.35486 0.27604 0.05567 0.0
S1358 S 0.36094 0.24194 0.2467 0.0
N1359 N 0.36481 0.21471 0.20926 0.0
N1360 N 0.35625 0.27186 0.21504 0.0
C1361 C 0.35759 0.26047 0.17141 0.0
C1362 C 0.36251 0.22949 0.16834 0.0
C1363 C 0.52551 0.58464 0.87118 0.0
C1364 C 0.53869 0.61254 0.86773 0.0
C1365 C 0.49493 0.58155 0.87298 0.0
C1366 C 0.47649 0.60618 0.86959 0.0
H1367 H 0.53901 0.56506 0.8733 0.0
H1368 H 0.48565 0.55976 0.87688 0.0
S1369 S 0.50012 0.68396 0.85907 0.0
N1370 N 0.53115 0.66519 0.86114 0.0
N1371 N 0.47348 0.65939 0.86245 0.0
C1372 C 0.48937 0.63418 0.86525 0.0
C1373 C 0.52057 0.63737 0.86488 0.0
C1374 C 0.13721 0.77623 0.66381 0.0
C1375 C 0.13651 0.79036 0.62036 0.0
C1376 C 0.14157 0.74576 0.6672 0.0
C1377 C 0.14487 0.72811 0.62725 0.0
H1378 H 0.13532 0.78891 0.69555 0.0
H1379 H 0.14219 0.73595 0.7015 0.0
S1380 S 0.14337 0.75422 0.50506 0.0
N1381 N 0.13872 0.78429 0.53637 0.0
N1382 N 0.14631 0.72701 0.54278 0.0
C1383 C 0.14343 0.74186 0.58353 0.0
C1384 C 0.13943 0.77295 0.58009 0.0
C1385 C 0.97528 0.3884 0.41076 0.0
C1386 C 0.96188 0.38258 0.36783 0.0
C1387 C 0.0054 0.39435 0.41354 0.0
C1388 C 0.02344 0.39431 0.3736 0.0
H1389 H 0.96225 0.38946 0.44228 0.0
H1390 H 0.01459 0.39892 0.44746 0.0
S1391 S 0.99916 0.37868 0.25307 0.0
N1392 N 0.96895 0.37612 0.28463 0.0
N1393 N 0.02564 0.38681 0.28994 0.0
C1394 C 0.01041 0.38766 0.3306 0.0
C1395 C 0.97965 0.38195 0.32771 0.0
C1396 C 0.36589 0.77479 0.34536 0.0
C1397 C 0.36455 0.78935 0.38837 0.0
C1398 C 0.36301 0.74414 0.34257 0.0
C1399 C 0.35925 0.72674 0.38273 0.0
H1400 H 0.36815 0.78722 0.31341 0.0
H1401 H 0.3638 0.73401 0.30851 0.0
S1402 S 0.35609 0.75405 0.50411 0.0
N1403 N 0.36022 0.78401 0.4723 0.0
N1404 N 0.35549 0.72635 0.46702 0.0
C1405 C 0.35885 0.74093 0.42611 0.0
C1406 C 0.3613 0.77222 0.42892 0.0
C1407 C 0.01038 0.60415 0.10282 0.0
C1408 C 0.02888 0.61052 0.14058 0.0
C1409 C 0.98021 0.60891 0.10531 0.0
C1410 C 0.96691 0.62018 0.14571 0.0
H1411 H 0.01916 0.59532 0.0707 0.0
H1412 H 0.96711 0.60315 0.07527 0.0
S1413 S 0.00519 0.64142 0.25425 0.0
N1414 N 0.03165 0.62965 0.21958 0.0
N1415 N 0.9745 0.63831 0.22426 0.0
C1416 C 0.98502 0.6274 0.18353 0.0
C1417 C 0.01604 0.62256 0.181 0.0
C1418 C 0.13917 0.26342 0.92114 0.0
C1419 C 0.13723 0.27867 0.8788 0.0
C1420 C 0.13777 0.23257 0.92242 0.0
C1421 C 0.13369 0.21592 0.88156 0.0
H1422 H 0.14277 0.27532 0.95324 0.0
H1423 H 0.14023 0.22166 0.95567 0.0
S1424 S 0.12502 0.24562 0.76229 0.0
N1425 N 0.12947 0.27496 0.79528 0.0
N1426 N 0.12642 0.2172 0.79793 0.0
C1427 C 0.13051 0.23103 0.8393 0.0
C1428 C 0.13242 0.26232 0.83787 0.0
C1429 C 0.51919 0.38657 0.59579 0.0
C1430 C 0.5336 0.38681 0.63886 0.0
C1431 C 0.4887 0.39018 0.59307 0.0
C1432 C 0.47134 0.39359 0.63335 0.0
H1433 H 0.53165 0.38462 0.56379 0.0
H1434 H 0.47866 0.3903 0.55898 0.0
S1435 S 0.49831 0.39398 0.75483 0.0
N1436 N 0.5282 0.38978 0.72292 0.0
N1437 N 0.47076 0.39582 0.71775 0.0
C1438 C 0.48536 0.39286 0.67676 0.0
C1439 C 0.51651 0.38971 0.67951 0.0
C1440 C 0.17783 0.00841 0.27664 0.0
C1441 C 0.1515 0.01417 0.30051 0.0
C1442 C 0.17792 0.99108 0.23677 0.0
C1443 C 0.15177 0.97884 0.21979 0.0
H1444 H 0.19808 0.01919 0.28645 0.0
H1445 H 0.19847 0.98809 0.21831 0.0
S1446 S 0.07819 0.98269 0.27579 0.0
N1447 N 0.09968 0.00269 0.30924 0.0
N1448 N 0.09954 0.97028 0.23377 0.0
C1449 C 0.12575 0.98237 0.2458 0.0
C1450 C 0.12579 0.99975 0.28663 0.0
C1451 C 0.24076 0.93093 0.52024 0.0
C1452 C 0.22837 0.90492 0.53773 0.0
C1453 C 0.256 0.93099 0.47829 0.0
C1454 C 0.25965 0.90493 0.45257 0.0
H1455 H 0.23898 0.9514 0.53933 0.0
H1456 H 0.26634 0.95134 0.46748 0.0
S1457 S 0.22794 0.8318 0.47973 0.0
N1458 N 0.21829 0.85289 0.52382 0.0
N1459 N 0.24688 0.85327 0.44448 0.0
C1460 C 0.24586 0.87915 0.46813 0.0
C1461 C 0.23049 0.87898 0.51107 0.0
C1462 C 0.34115 0.00498 0.79501 0.0
C1463 C 0.36605 0.98782 0.80402 0.0
C1464 C 0.33994 0.02277 0.75588 0.0
C1465 C 0.36382 0.02447 0.72492 0.0
H1466 H 0.32165 0.0032 0.81649 0.0
H1467 H 0.31985 0.03486 0.74962 0.0
S1468 S 0.43643 0.98895 0.73821 0.0
N1469 N 0.41698 0.9772 0.783 0.0
N1470 N 0.4145 0.01114 0.70908 0.0
C1471 C 0.38991 0.00981 0.73589 0.0
C1472 C 0.39118 0.99152 0.77583 0.0
C1473 C 0.23289 0.12097 0.9901 0.0
C1474 C 0.23215 0.09718 0.95893 0.0
C1475 C 0.24993 0.11982 0.02995 0.0
C1476 C 0.26708 0.09502 0.0398 0.0
H1477 H 0.22003 0.14064 0.98405 0.0
H1478 H 0.25065 0.13902 0.05223 0.0
S1479 S 0.27212 0.02658 0.9698 0.0
N1480 N 0.24896 0.04771 0.94107 0.0
N1481 N 0.28181 0.04566 0.01609 0.0
C1482 C 0.26583 0.0706 0.00982 0.0
C1483 C 0.24829 0.07175 0.96915 0.0
C1484 C 0.86759 1.00007 0.78646 0.0
C1485 C 0.8425 0.01636 0.79813 0.0
C1486 C 0.86824 0.9828 0.74673 0.0
C1487 C 0.84363 0.98079 0.71754 0.0
H1488 H 0.88742 0.00172 0.80701 0.0
H1489 H 0.88827 0.97089 0.7391 0.0
S1490 S 0.77139 0.01661 0.73521 0.0
N1491 N 0.79156 0.02783 0.77934 0.0
N1492 N 0.79275 0.99459 0.70452 0.0
C1493 C 0.81778 0.99558 0.73009 0.0
C1494 C 0.81714 0.01341 0.77064 0.0
C1495 C 0.74384 0.07361 0.52731 0.0
C1496 C 0.7361 0.10049 0.5481 0.0
C1497 C 0.76003 0.0729 0.48623 0.0
C1498 C 0.76932 0.09903 0.46463 0.0
H1499 H 0.73644 0.05288 0.54176 0.0
H1500 H 0.76532 0.05164 0.47141 0.0
S1501 S 0.75669 0.17523 0.50716 0.0
N1502 N 0.74052 0.1539 0.54584 0.0
N1503 N 0.77067 0.15265 0.46815 0.0
C1504 C 0.76242 0.12611 0.48575 0.0
C1505 C 0.74613 0.1268 0.52782 0.0
C1506 C 0.67722 0.00881 0.23437 0.0
C1507 C 0.65089 0.01828 0.21393 0.0
C1508 C 0.67709 0.99346 0.27625 0.0
C1509 C 0.65061 0.98674 0.29911 0.0
H1510 H 0.69821 0.01349 0.21817 0.0
H1511 H 0.69795 0.98609 0.28998 0.0
S1512 S 0.57555 0.00753 0.26101 0.0
N1513 N 0.59751 0.0204 0.22018 0.0
N1514 N 0.59734 0.99184 0.29933 0.0
C1515 C 0.6241 0.99667 0.27964 0.0
C1516 C 0.6242 0.0121 0.23675 0.0
C1517 C 0.72457 0.89095 0.01096 0.0
C1518 C 0.72586 0.91274 0.97634 0.0
C1519 C 0.74202 0.8928 0.05026 0.0
C1520 C 0.76169 0.9162 0.05575 0.0
H1521 H 0.71046 0.87192 0.00736 0.0
H1522 H 0.74181 0.87463 0.07468 0.0
S1523 S 0.77005 0.98102 0.97837 0.0
N1524 N 0.74521 0.96026 0.95265 0.0
N1525 N 0.77908 0.96344 0.02651 0.0
C1526 C 0.76132 0.9395 0.02356 0.0
C1527 C 0.74325 0.93771 0.98355 0.0
C1528 C 0.68193 0.51056 0.76726 0.0
C1529 C 0.65638 0.52427 0.78383 0.0
C1530 C 0.68129 0.49359 0.72695 0.0
C1531 C 0.65502 0.48988 0.70205 0.0
H1532 H 0.70231 0.51207 0.78644 0.0
H1533 H 0.70098 0.48167 0.71734 0.0
S1534 S 0.58365 0.52617 0.72541 0.0
N1535 N 0.60505 0.53642 0.76858 0.0
N1536 N 0.60428 0.50508 0.69206 0.0
C1537 C 0.6301 0.50581 0.71567 0.0
C1538 C 0.63057 0.52266 0.75705 0.0
C1539 C 0.76121 0.37933 0.9898 0.0
C1540 C 0.76166 0.40296 0.95827 0.0
C1541 C 0.7449 0.38086 0.03051 0.0
C1542 C 0.72821 0.4059 0.041 0.0
H1543 H 0.77422 0.35973 0.98386 0.0
H1544 H 0.74492 0.36199 0.05355 0.0
S1545 S 0.72088 0.4732 0.96857 0.0
N1546 N 0.74363 0.45184 0.93928 0.0
N1547 N 0.71235 0.45471 0.01609 0.0
C1548 C 0.72833 0.42975 0.00973 0.0
C1549 C 0.74504 0.42817 0.96812 0.0
C1550 C 0.83446 0.49859 0.21724 0.0
C1551 C 0.86069 0.51331 0.20641 0.0
C1552 C 0.83193 0.48198 0.25752 0.0
C1553 C 0.85578 0.47887 0.28791 0.0
H1554 H 0.81516 0.50116 0.19568 0.0
H1555 H 0.81105 0.47151 0.26466 0.0
S1556 S 0.93055 0.50973 0.2722 0.0
N1557 N 0.91185 0.52174 0.22697 0.0
N1558 N 0.90735 0.48944 0.30246 0.0
C1559 C 0.88282 0.49175 0.2759 0.0
C1560 C 0.88529 0.50906 0.23499 0.0
C1561 C 0.74214 0.57445 0.48749 0.0
C1562 C 0.73028 0.60081 0.47032 0.0
C1563 C 0.75919 0.57426 0.52755 0.0
C1564 C 0.76511 0.60051 0.55147 0.0
H1565 H 0.73892 0.55388 0.4692 0.0
H1566 H 0.76954 0.55378 0.53763 0.0
S1567 S 0.73525 0.67453 0.52568 0.0
N1568 N 0.72266 0.65332 0.48375 0.0
N1569 N 0.75468 0.65268 0.55947 0.0
C1570 C 0.75139 0.62656 0.53705 0.0
C1571 C 0.73422 0.62686 0.49607 0.0
C1572 C 0.32404 0.50953 0.27626 0.0
C1573 C 0.35105 0.51879 0.2946 0.0
C1574 C 0.32279 0.49331 0.23525 0.0
C1575 C 0.34853 0.48554 0.21116 0.0
H1576 H 0.30356 0.51527 0.29319 0.0
H1577 H 0.30143 0.48637 0.22296 0.0
S1578 S 0.425 0.5042 0.24473 0.0
N1579 N 0.40432 0.51868 0.28587 0.0
N1580 N 0.40193 0.48859 0.20828 0.0
C1581 C 0.37576 0.49474 0.22899 0.0
C1582 C 0.37705 0.51102 0.27103 0.0
C1583 C 0.25922 0.56905 0.97853 0.0
C1584 C 0.26282 0.59448 0.95134 0.0
C1585 C 0.2419 0.56971 0.01852 0.0
C1586 C 0.22777 0.59576 0.03222 0.0
H1587 H 0.27192 0.54939 0.97145 0.0
H1588 H 0.24068 0.55012 0.03991 0.0
S1589 S 0.22483 0.66585 0.96566 0.0
N1590 N 0.24681 0.64434 0.93523 0.0
N1591 N 0.21447 0.64607 0.01091 0.0
C1592 C 0.22887 0.6204 1.00253 0.0
C1593 C 0.24614 0.6195 0.96159 0.0
C1594 C 0.13046 0.48871 0.76347 0.0
C1595 C 0.15374 0.48642 0.79519 0.0
C1596 C 0.13329 0.50522 0.72317 0.0
C1597 C 0.15927 0.52059 0.71336 0.0
H1598 H 0.11002 0.47702 0.76893 0.0
H1599 H 0.11461 0.50645 0.7 0.0
S1600 S 0.22675 0.52187 0.78564 0.0
N1601 N 0.20373 0.50048 0.8144 0.0
N1602 N 0.20901 0.53242 0.73853 0.0
C1603 C 0.18294 0.51837 0.74459 0.0
C1604 C 0.18008 0.50124 0.7857 0.0
C1605 C 0.25265 0.39085 0.4676 0.0
C1606 C 0.23553 0.41544 0.45643 0.0
C1607 C 0.26965 0.39062 0.50748 0.0
C1608 C 0.27068 0.41525 0.53696 0.0
H1609 H 0.25106 0.37078 0.44742 0.0
H1610 H 0.28155 0.37065 0.51563 0.0
S1611 S 0.2345 0.4872 0.51797 0.0
N1612 N 0.22365 0.46656 0.47407 0.0
N1613 N 0.25668 0.4663 0.54901 0.0
C1614 C 0.25614 0.44108 0.52366 0.0
C1615 C 0.23848 0.44124 0.48305 0.0
C1616 C 0.1176 0.10187 0.1022 0.0
C1617 C 0.13748 0.11689 0.07318 0.0
C1618 C 0.11903 0.10423 0.15084 0.0
C1619 C 0.14032 0.12188 0.1729 0.0
H1620 H 0.10088 0.0878 0.08736 0.0
H1621 H 0.10329 0.09189 0.17128 0.0
S1622 S 0.19736 0.16643 0.11308 0.0
N1623 N 0.17904 0.15062 0.07048 0.0
N1624 N 0.1816 0.155 0.16154 0.0
C1625 C 0.16012 0.13739 0.14435 0.0
C1626 C 0.15877 0.1349 0.09473 0.0
C1627 C 0.15947 0.87833 0.40605 0.0
C1628 C 0.1359 0.89294 0.42817 0.0
C1629 C 0.16106 0.87572 0.35736 0.0
C1630 C 0.1393 0.88784 0.32851 0.0
H1631 H 0.17707 0.86892 0.42642 0.0
H1632 H 0.17982 0.86461 0.34223 0.0
S1633 S 0.07197 0.92659 0.36839 0.0
N1634 N 0.08957 0.91855 0.41679 0.0
N1635 N 0.09263 0.91375 0.32579 0.0
C1636 C 0.11539 0.90211 0.35007 0.0
C1637 C 0.11367 0.90463 0.39963 0.0
C1638 C 0.37885 0.90021 0.65374 0.0
C1639 C 0.35525 0.88618 0.67652 0.0
C1640 C 0.37974 0.90311 0.60515 0.0
C1641 C 0.35697 0.89226 0.57699 0.0
H1642 H 0.39703 0.90896 0.67358 0.0
H1643 H 0.39856 0.91388 0.58963 0.0
S1644 S 0.28904 0.85543 0.61949 0.0
N1645 N 0.30792 0.86232 0.66714 0.0
N1646 N 0.30929 0.86791 0.5761 0.0
C1647 C 0.33296 0.8785 0.59938 0.0
C1648 C 0.33219 0.87539 0.64894 0.0
C1649 C 0.36939 0.08998 0.85242 0.0
C1650 C 0.36516 0.11731 0.83029 0.0
C1651 C 0.37357 0.08811 0.90072 0.0
C1652 C 0.37291 0.11343 0.92871 0.0
H1653 H 0.36948 0.06986 0.83226 0.0
H1654 H 0.37618 0.06661 0.91642 0.0
S1655 S 0.36306 0.1902 0.88793 0.0
N1656 N 0.36151 0.17026 0.84003 0.0
N1657 N 0.36829 0.16665 0.93084 0.0
C1658 C 0.36901 0.14087 0.90698 0.0
C1659 C 0.36545 0.14284 0.85776 0.0
C1660 C 0.84782 0.8675 0.85885 0.0
C1661 C 0.86356 0.8869 0.82996 0.0
C1662 C 0.84966 0.86927 0.90749 0.0
C1663 C 0.86754 0.89037 0.9295 0.0
H1664 H 0.83353 0.851 0.84389 0.0
H1665 H 0.83678 0.85398 0.92797 0.0
S1666 S 0.91391 0.94609 0.86994 0.0
N1667 N 0.89821 0.92773 0.82729 0.0
N1668 N 0.90163 0.93093 0.91834 0.0
C1669 C 0.88381 0.90962 0.90107 0.0
C1670 C 0.88181 0.90795 0.85151 0.0
C1671 C 0.87996 0.0998 0.65493 0.0
C1672 C 0.85899 0.11778 0.67718 0.0
C1673 C 0.88131 0.09747 0.6063 0.0
C1674 C 0.86158 0.11281 0.57755 0.0
H1675 H 0.89562 0.08732 0.67523 0.0
H1676 H 0.89788 0.08326 0.59123 0.0
S1677 S 0.80215 0.16277 0.61831 0.0
N1678 N 0.81793 0.15122 0.66651 0.0
N1679 N 0.82023 0.14682 0.5754 0.0
C1680 C 0.84046 0.13095 0.59936 0.0
C1681 C 0.83924 0.13346 0.64896 0.0
C1682 C 0.6553 0.12669 0.40757 0.0
C1683 C 0.63565 0.10742 0.43026 0.0
C1684 C 0.65722 0.12805 0.35886 0.0
C1685 C 0.6398 0.11 0.33035 0.0
H1686 H 0.66942 0.14103 0.42758 0.0
H1687 H 0.67276 0.14326 0.34351 0.0
S1688 S 0.58468 0.05558 0.37192 0.0
N1689 N 0.59825 0.06986 0.42 0.0
N1690 N 0.60192 0.0722 0.32876 0.0
C1691 C 0.62001 0.09057 0.3525 0.0
C1692 C 0.6179 0.08936 0.40222 0.0
C1693 C 0.64515 0.87214 0.1038 0.0
C1694 C 0.63013 0.89514 0.08122 0.0
C1695 C 0.64727 0.87093 0.1524 0.0
C1696 C 0.63471 0.89281 0.1808 0.0
H1697 H 0.65541 0.85478 0.08374 0.0
H1698 H 0.65905 0.85266 0.16772 0.0
S1699 S 0.59408 0.95865 0.13888 0.0
N1700 N 0.60301 0.94076 0.09097 0.0
N1701 N 0.60716 0.9388 0.18217 0.0
C1702 C 0.6197 0.91611 0.15863 0.0
C1703 C 0.61735 0.91717 0.109 0.0
C1704 C 0.62693 0.5939 0.65534 0.0
C1705 C 0.64203 0.61697 0.67775 0.0
C1706 C 0.62491 0.59241 0.60664 0.0
C1707 C 0.63812 0.61377 0.57801 0.0
H1708 H 0.61667 0.57662 0.6755 0.0
H1709 H 0.61332 0.57402 0.59134 0.0
S1710 S 0.67894 0.67962 0.61871 0.0
N1711 N 0.66954 0.66234 0.66694 0.0
N1712 N 0.66586 0.65947 0.57583 0.0
C1713 C 0.65298 0.63717 0.59986 0.0
C1714 C 0.65489 0.63879 0.64948 0.0
C1715 C 0.65223 0.36861 0.85759 0.0
C1716 C 0.63413 0.38577 0.82874 0.0
C1717 C 0.65018 0.37025 0.90631 0.0
C1718 C 0.62978 0.38895 0.92856 0.0
H1719 H 0.66852 0.35411 0.84251 0.0
H1720 H 0.66498 0.35679 0.92666 0.0
S1721 S 0.57635 0.43778 0.86903 0.0
N1722 N 0.59439 0.42161 0.82632 0.0
N1723 N 0.59058 0.42457 0.9174 0.0
C1724 C 0.61115 0.40586 0.90011 0.0
C1725 C 0.61333 0.40431 0.85048 0.0
C1726 C 0.87638 0.40776 0.10588 0.0
C1727 C 0.85703 0.39207 0.07701 0.0
C1728 C 0.87515 0.40513 0.15451 0.0
C1729 C 0.85464 0.38653 0.17666 0.0
H1730 H 0.89266 0.42233 0.0909 0.0
H1731 H 0.89061 0.4178 0.17488 0.0
S1732 S 0.79844 0.34095 0.11744 0.0
N1733 N 0.81621 0.35742 0.0747 0.0
N1734 N 0.81411 0.35251 0.16571 0.0
C1735 C 0.83508 0.37074 0.14831 0.0
C1736 C 0.83621 0.37351 0.09874 0.0
C1737 C 0.86845 0.63552 0.35814 0.0
C1738 C 0.86551 0.60982 0.33125 0.0
C1739 C 0.87197 0.63411 0.40656 0.0
C1740 C 0.87365 0.60694 0.42978 0.0
H1741 H 0.86723 0.65697 0.34186 0.0
H1742 H 0.87322 0.65445 0.42605 0.0
S1743 S 0.86768 0.53325 0.37616 0.0
N1744 N 0.86464 0.55626 0.33198 0.0
N1745 N 0.87221 0.55386 0.42278 0.0
C1746 C 0.8715 0.5811 0.40343 0.0
C1747 C 0.86716 0.58247 0.35425 0.0
C1748 C 0.34171 0.37217 0.358 0.0
C1749 C 0.35635 0.39242 0.32903 0.0
C1750 C 0.34378 0.37383 0.40664 0.0
C1751 C 0.36087 0.39559 0.42855 0.0
H1752 H 0.3284 0.35486 0.3431 0.0
H1753 H 0.332 0.35772 0.42722 0.0
S1754 S 0.40266 0.45485 0.36912 0.0
N1755 N 0.38793 0.43571 0.32643 0.0
N1756 N 0.39196 0.43847 0.41749 0.0
C1757 C 0.37554 0.41608 0.40014 0.0
C1758 C 0.37323 0.41461 0.35059 0.0
C1759 C 0.35274 0.63303 0.14998 0.0
C1760 C 0.36889 0.61421 0.17911 0.0
C1761 C 0.35494 0.6312 0.10139 0.0
C1762 C 0.37352 0.61057 0.07941 0.0
H1763 H 0.33785 0.6491 0.16472 0.0
H1764 H 0.34162 0.64606 0.08092 0.0
S1765 S 0.42158 0.5568 0.13959 0.0
N1766 N 0.40494 0.57463 0.18211 0.0
N1767 N 0.40902 0.57135 0.09098 0.0
C1768 C 0.3903 0.59197 0.10806 0.0
C1769 C 0.38796 0.59373 0.1577 0.0
C1770 C 0.15268 0.63517 0.85986 0.0
C1771 C 0.14045 0.61363 0.8306 0.0
C1772 C 0.15024 0.63321 0.90845 0.0
C1773 C 0.13525 0.60976 0.9301 0.0
H1774 H 0.1644 0.65373 0.84524 0.0
H1775 H 0.16016 0.65037 0.92923 0.0
S1776 S 0.10021 0.54678 0.87 0.0
N1777 N 0.11335 0.56738 0.82754 0.0
N1778 N 0.10866 0.56409 0.91857 0.0
C1779 C 0.12287 0.58806 0.90147 0.0
C1780 C 0.12554 0.58987 0.85192 0.0
C1781 C 0.11729 0.41106 0.65735 0.0
C1782 C 0.13214 0.38771 0.67953 0.0
C1783 C 0.11469 0.41236 0.60872 0.0
C1784 C 0.12698 0.39048 0.58012 0.0
H1785 H 0.10792 0.42883 0.67759 0.0
H1786 H 0.1037 0.43113 0.59344 0.0
S1787 S 0.16604 0.32341 0.62043 0.0
N1788 N 0.15782 0.34125 0.66866 0.0
N1789 N 0.15303 0.34377 0.5777 0.0
C1790 C 0.14115 0.36658 0.60182 0.0
C1791 C 0.1437 0.36519 0.6513 0.0
loop_
_geom_bond_atom_site_label_1
_geom_bond_atom_site_label_2
_geom_bond_distance
_geom_bond_site_symmetry_2
_ccdc_geom_bond_type
O0 Zn1 1.953 . S
O0 C16 1.225 . S
Zn1 O0 1.953 . S
Zn1 O2 1.949 . S
Zn1 O8 1.919 . S
Zn1 O13 1.924 . S
O2 Zn1 1.949 . S
O2 Zn3 1.923 . S
O2 Zn4 1.950 . S
O2 Zn5 1.945 . S
Zn3 O2 1.923 . S
Zn3 O6 1.933 . S
Zn3 O9 1.941 . S
Zn3 O10 1.965 . S
Zn4 O2 1.950 . S
Zn4 O11 1.938 . S
Zn4 O12 1.906 . S
Zn4 O22 1.953 . S
Zn5 O2 1.945 . S
Zn5 O7 1.932 . S
Zn5 O14 1.977 . S
Zn5 O15 1.910 . S
O6 Zn3 1.933 . S
O6 C17 1.226 . S
O7 Zn5 1.932 . S
O7 C17 1.307 . S
O8 Zn1 1.919 . S
O8 C19 1.253 . S
O9 Zn3 1.941 . S
O9 C19 1.283 . S
O10 Zn3 1.965 . S
O10 C18 1.303 . S
O11 Zn4 1.938 . S
O11 C18 1.247 . S
O12 Zn4 1.906 . S
O12 C20 1.304 . S
O13 Zn1 1.924 . S
O13 C21 1.311 . S
O14 Zn5 1.977 . S
O14 C20 1.272 . S
O15 Zn5 1.910 . S
O15 C21 1.231 . S
C16 O0 1.225 . S
C16 O22 1.298 . S
C17 O6 1.226 . S
C17 O7 1.307 . S
C18 O10 1.303 . S
C18 O11 1.247 . S
C19 O8 1.253 . S
C19 O9 1.283 . S
C20 O12 1.304 . S
C20 O14 1.272 . S
C21 O13 1.311 . S
C21 O15 1.231 . S
O22 Zn4 1.953 . S
O22 C16 1.298 . S
O23 Zn24 1.953 . S
O23 C39 1.225 . S
Zn24 O23 1.953 . S
Zn24 O25 1.949 . S
Zn24 O31 1.919 . S
Zn24 O36 1.924 . S
O25 Zn24 1.949 . S
O25 Zn26 1.923 . S
O25 Zn27 1.950 . S
O25 Zn28 1.945 . S
Zn26 O25 1.923 . S
Zn26 O29 1.933 . S
Zn26 O32 1.941 . S
Zn26 O33 1.965 . S
Zn27 O25 1.950 . S
Zn27 O34 1.938 . S
Zn27 O35 1.906 . S
Zn27 O45 1.953 . S
Zn28 O25 1.945 . S
Zn28 O30 1.932 . S
Zn28 O37 1.977 . S
Zn28 O38 1.910 . S
O29 Zn26 1.933 . S
O29 C40 1.226 . S
O30 Zn28 1.932 . S
O30 C40 1.307 . S
O31 Zn24 1.919 . S
O31 C42 1.253 . S
O32 Zn26 1.941 . S
O32 C42 1.283 . S
O33 Zn26 1.965 . S
O33 C41 1.303 . S
O34 Zn27 1.938 . S
O34 C41 1.247 . S
O35 Zn27 1.906 . S
O35 C43 1.304 . S
O36 Zn24 1.924 . S
O36 C44 1.311 . S
O37 Zn28 1.977 . S
O37 C43 1.272 . S
O38 Zn28 1.910 . S
O38 C44 1.231 . S
C39 O23 1.225 . S
C39 O45 1.298 . S
C40 O29 1.226 . S
C40 O30 1.307 . S
C41 O33 1.303 . S
C41 O34 1.247 . S
C42 O31 1.253 . S
C42 O32 1.283 . S
C43 O35 1.304 . S
C43 O37 1.272 . S
C44 O36 1.311 . S
C44 O38 1.231 . S
O45 Zn27 1.953 . S
O45 C39 1.298 . S
O46 Zn47 1.953 . S
O46 C62 1.225 . S
Zn47 O46 1.953 . S
Zn47 O48 1.949 . S
Zn47 O54 1.919 . S
Zn47 O59 1.924 . S
O48 Zn47 1.949 . S
O48 Zn49 1.923 . S
O48 Zn50 1.950 . S
O48 Zn51 1.945 . S
Zn49 O48 1.923 . S
Zn49 O52 1.933 . S
Zn49 O55 1.941 . S
Zn49 O56 1.965 . S
Zn50 O48 1.950 . S
Zn50 O57 1.938 . S
Zn50 O58 1.906 . S
Zn50 O68 1.953 . S
Zn51 O48 1.945 . S
Zn51 O53 1.932 . S
Zn51 O60 1.977 . S
Zn51 O61 1.910 . S
O52 Zn49 1.933 . S
O52 C63 1.226 . S
O53 Zn51 1.932 . S
O53 C63 1.307 . S
O54 Zn47 1.919 . S
O54 C65 1.253 . S
O55 Zn49 1.941 . S
O55 C65 1.283 . S
O56 Zn49 1.965 . S
O56 C64 1.303 . S
O57 Zn50 1.938 . S
O57 C64 1.247 . S
O58 Zn50 1.906 . S
O58 C66 1.304 . S
O59 Zn47 1.924 . S
O59 C67 1.311 . S
O60 Zn51 1.977 . S
O60 C66 1.272 . S
O61 Zn51 1.910 . S
O61 C67 1.231 . S
C62 O46 1.225 . S
C62 O68 1.298 . S
C63 O52 1.226 . S
C63 O53 1.307 . S
C64 O56 1.303 . S
C64 O57 1.247 . S
C65 O54 1.253 . S
C65 O55 1.283 . S
C66 O58 1.304 . S
C66 O60 1.272 . S
C67 O59 1.311 . S
C67 O61 1.231 . S
O68 Zn50 1.953 . S
O68 C62 1.298 . S
O69 Zn70 1.953 . S
O69 C85 1.225 . S
Zn70 O69 1.953 . S
Zn70 O71 1.949 . S
Zn70 O77 1.919 . S
Zn70 O82 1.924 1_554 S
O71 Zn70 1.949 . S
O71 Zn72 1.923 . S
O71 Zn73 1.950 . S
O71 Zn74 1.945 . S
Zn72 O71 1.923 . S
Zn72 O75 1.933 . S
Zn72 O78 1.941 . S
Zn72 O79 1.965 . S
Zn73 O71 1.950 . S
Zn73 O80 1.938 . S
Zn73 O81 1.906 . S
Zn73 O91 1.953 . S
Zn74 O71 1.945 . S
Zn74 O76 1.932 . S
Zn74 O83 1.977 . S
Zn74 O84 1.910 1_554 S
O75 Zn72 1.933 . S
O75 C86 1.226 . S
O76 Zn74 1.932 . S
O76 C86 1.307 . S
O77 Zn70 1.919 . S
O77 C88 1.253 . S
O78 Zn72 1.941 . S
O78 C88 1.283 . S
O79 Zn72 1.965 . S
O79 C87 1.303 . S
O80 Zn73 1.938 . S
O80 C87 1.247 . S
O81 Zn73 1.906 . S
O81 C89 1.304 . S
O82 Zn70 1.924 1_556 S
O82 C90 1.311 . S
O83 Zn74 1.977 . S
O83 C89 1.272 . S
O84 Zn74 1.910 1_556 S
O84 C90 1.231 . S
C85 O69 1.225 . S
C85 O91 1.298 . S
C86 O75 1.226 . S
C86 O76 1.307 . S
C87 O79 1.303 . S
C87 O80 1.247 . S
C88 O77 1.253 . S
C88 O78 1.283 . S
C89 O81 1.304 . S
C89 O83 1.272 . S
C90 O82 1.311 . S
C90 O84 1.231 . S
O91 Zn73 1.953 . S
O91 C85 1.298 . S
O92 Zn93 1.953 . S
O92 C108 1.225 . S
Zn93 O92 1.953 . S
Zn93 O94 1.949 . S
Zn93 O100 1.919 . S
Zn93 O105 1.924 . S
O94 Zn93 1.949 . S
O94 Zn95 1.923 . S
O94 Zn96 1.950 . S
O94 Zn97 1.945 . S
Zn95 O94 1.923 . S
Zn95 O98 1.933 . S
Zn95 O101 1.941 . S
Zn95 O102 1.965 . S
Zn96 O94 1.950 . S
Zn96 O103 1.938 . S
Zn96 O104 1.906 . S
Zn96 O114 1.953 . S
Zn97 O94 1.945 . S
Zn97 O99 1.932 . S
Zn97 O106 1.977 . S
Zn97 O107 1.910 . S
O98 Zn95 1.933 . S
O98 C109 1.226 . S
O99 Zn97 1.932 . S
O99 C109 1.307 . S
O100 Zn93 1.919 . S
O100 C111 1.253 . S
O101 Zn95 1.941 . S
O101 C111 1.283 . S
O102 Zn95 1.965 . S
O102 C110 1.303 . S
O103 Zn96 1.938 . S
O103 C110 1.247 . S
O104 Zn96 1.906 . S
O104 C112 1.304 . S
O105 Zn93 1.924 . S
O105 C113 1.311 . S
O106 Zn97 1.977 . S
O106 C112 1.272 . S
O107 Zn97 1.910 . S
O107 C113 1.231 . S
C108 O92 1.225 . S
C108 O114 1.298 . S
C109 O98 1.226 . S
C109 O99 1.307 . S
C110 O102 1.303 . S
C110 O103 1.247 . S
C111 O100 1.253 . S
C111 O101 1.283 . S
C112 O104 1.304 . S
C112 O106 1.272 . S
C113 O105 1.311 . S
C113 O107 1.231 . S
O114 Zn96 1.953 . S
O114 C108 1.298 . S
O115 Zn116 1.953 . S
O115 C131 1.225 . S
Zn116 O115 1.953 . S
Zn116 O117 1.949 . S
Zn116 O123 1.919 . S
Zn116 O128 1.924 . S
O117 Zn116 1.949 . S
O117 Zn118 1.923 . S
O117 Zn119 1.950 . S
O117 Zn120 1.945 . S
Zn118 O117 1.923 . S
Zn118 O121 1.933 . S
Zn118 O124 1.941 . S
Zn118 O125 1.965 . S
Zn119 O117 1.950 . S
Zn119 O126 1.938 . S
Zn119 O127 1.906 . S
Zn119 O137 1.953 . S
Zn120 O117 1.945 . S
Zn120 O122 1.932 . S
Zn120 O129 1.977 . S
Zn120 O130 1.910 . S
O121 Zn118 1.933 . S
O121 C132 1.226 . S
O122 Zn120 1.932 . S
O122 C132 1.307 . S
O123 Zn116 1.919 . S
O123 C134 1.253 . S
O124 Zn118 1.941 . S
O124 C134 1.283 . S
O125 Zn118 1.965 . S
O125 C133 1.303 . S
O126 Zn119 1.938 . S
O126 C133 1.247 . S
O127 Zn119 1.906 . S
O127 C135 1.304 . S
O128 Zn116 1.924 . S
O128 C136 1.311 . S
O129 Zn120 1.977 . S
O129 C135 1.272 . S
O130 Zn120 1.910 . S
O130 C136 1.231 . S
C131 O115 1.225 . S
C131 O137 1.298 . S
C132 O121 1.226 . S
C132 O122 1.307 . S
C133 O125 1.303 . S
C133 O126 1.247 . S
C134 O123 1.253 . S
C134 O124 1.283 . S
C135 O127 1.304 . S
C135 O129 1.272 . S
C136 O128 1.311 . S
C136 O130 1.231 . S
O137 Zn119 1.953 . S
O137 C131 1.298 . S
O138 Zn139 1.953 . S
O138 C154 1.225 . S
Zn139 O138 1.953 . S
Zn139 O140 1.949 . S
Zn139 O146 1.919 . S
Zn139 O151 1.924 . S
O140 Zn139 1.949 . S
O140 Zn141 1.923 . S
O140 Zn142 1.950 . S
O140 Zn143 1.945 . S
Zn141 O140 1.923 . S
Zn141 O144 1.933 . S
Zn141 O147 1.941 . S
Zn141 O148 1.965 . S
Zn142 O140 1.950 . S
Zn142 O149 1.938 . S
Zn142 O150 1.906 . S
Zn142 O160 1.953 . S
Zn143 O140 1.945 . S
Zn143 O145 1.932 . S
Zn143 O152 1.977 . S
Zn143 O153 1.910 . S
O144 Zn141 1.933 . S
O144 C155 1.226 . S
O145 Zn143 1.932 . S
O145 C155 1.307 . S
O146 Zn139 1.919 . S
O146 C157 1.253 . S
O147 Zn141 1.941 . S
O147 C157 1.283 . S
O148 Zn141 1.965 . S
O148 C156 1.303 . S
O149 Zn142 1.938 . S
O149 C156 1.247 . S
O150 Zn142 1.906 . S
O150 C158 1.304 . S
O151 Zn139 1.924 . S
O151 C159 1.311 . S
O152 Zn143 1.977 . S
O152 C158 1.272 . S
O153 Zn143 1.910 . S
O153 C159 1.231 . S
C154 O138 1.225 . S
C154 O160 1.298 . S
C155 O144 1.226 . S
C155 O145 1.307 . S
C156 O148 1.303 . S
C156 O149 1.247 . S
C157 O146 1.253 . S
C157 O147 1.283 . S
C158 O150 1.304 . S
C158 O152 1.272 . S
C159 O151 1.311 . S
C159 O153 1.231 . S
O160 Zn142 1.953 . S
O160 C154 1.298 . S
O161 Zn162 1.953 . S
O161 C177 1.225 . S
Zn162 O161 1.953 . S
Zn162 O163 1.949 . S
Zn162 O169 1.919 . S
Zn162 O174 1.924 . S
O163 Zn162 1.949 . S
O163 Zn164 1.923 . S
O163 Zn165 1.950 . S
O163 Zn166 1.945 . S
Zn164 O163 1.923 . S
Zn164 O167 1.933 . S
Zn164 O170 1.941 . S
Zn164 O171 1.965 1_556 S
Zn165 O163 1.950 . S
Zn165 O172 1.938 1_556 S
Zn165 O173 1.906 . S
Zn165 O183 1.953 . S
Zn166 O163 1.945 . S
Zn166 O168 1.932 . S
Zn166 O175 1.977 . S
Zn166 O176 1.910 . S
O167 Zn164 1.933 . S
O167 C178 1.226 . S
O168 Zn166 1.932 . S
O168 C178 1.307 . S
O169 Zn162 1.919 . S
O169 C180 1.253 . S
O170 Zn164 1.941 . S
O170 C180 1.283 . S
O171 Zn164 1.965 1_554 S
O171 C179 1.303 . S
O172 Zn165 1.938 1_554 S
O172 C179 1.247 . S
O173 Zn165 1.906 . S
O173 C181 1.304 . S
O174 Zn162 1.924 . S
O174 C182 1.311 . S
O175 Zn166 1.977 . S
O175 C181 1.272 . S
O176 Zn166 1.910 . S
O176 C182 1.231 . S
C177 O161 1.225 . S
C177 O183 1.298 . S
C178 O167 1.226 . S
C178 O168 1.307 . S
C179 O171 1.303 . S
C179 O172 1.247 . S
C180 O169 1.253 . S
C180 O170 1.283 . S
C181 O173 1.304 . S
C181 O175 1.272 . S
C182 O174 1.311 . S
C182 O176 1.231 . S
O183 Zn165 1.953 . S
O183 C177 1.298 . S
O184 Zn185 1.953 . S
O184 C200 1.225 . S
Zn185 O184 1.953 . S
Zn185 O186 1.949 . S
Zn185 O192 1.919 . S
Zn185 O197 1.924 . S
O186 Zn185 1.949 . S
O186 Zn187 1.923 . S
O186 Zn188 1.950 . S
O186 Zn189 1.945 . S
Zn187 O186 1.923 . S
Zn187 O190 1.933 . S
Zn187 O193 1.941 . S
Zn187 O194 1.965 . S
Zn188 O186 1.950 . S
Zn188 O195 1.938 . S
Zn188 O196 1.906 . S
Zn188 O206 1.953 . S
Zn189 O186 1.945 . S
Zn189 O191 1.932 . S
Zn189 O198 1.977 . S
Zn189 O199 1.910 . S
O190 Zn187 1.933 . S
O190 C201 1.226 . S
O191 Zn189 1.932 . S
O191 C201 1.307 . S
O192 Zn185 1.919 . S
O192 C203 1.253 . S
O193 Zn187 1.941 . S
O193 C203 1.283 . S
O194 Zn187 1.965 . S
O194 C202 1.303 . S
O195 Zn188 1.938 . S
O195 C202 1.247 . S
O196 Zn188 1.906 . S
O196 C204 1.304 . S
O197 Zn185 1.924 . S
O197 C205 1.311 . S
O198 Zn189 1.977 . S
O198 C204 1.272 . S
O199 Zn189 1.910 . S
O199 C205 1.231 . S
C200 O184 1.225 . S
C200 O206 1.298 . S
C201 O190 1.226 . S
C201 O191 1.307 . S
C202 O194 1.303 . S
C202 O195 1.247 . S
C203 O192 1.253 . S
C203 O193 1.283 . S
C204 O196 1.304 . S
C204 O198 1.272 . S
C205 O197 1.311 . S
C205 O199 1.231 . S
O206 Zn188 1.953 . S
O206 C200 1.298 . S
O207 Zn208 1.953 . S
O207 C223 1.225 . S
Zn208 O207 1.953 . S
Zn208 O209 1.949 . S
Zn208 O215 1.919 . S
Zn208 O220 1.924 . S
O209 Zn208 1.949 . S
O209 Zn210 1.923 . S
O209 Zn211 1.950 . S
O209 Zn212 1.945 . S
Zn210 O209 1.923 . S
Zn210 O213 1.933 . S
Zn210 O216 1.941 . S
Zn210 O217 1.965 . S
Zn211 O209 1.950 . S
Zn211 O218 1.938 . S
Zn211 O219 1.906 . S
Zn211 O229 1.953 . S
Zn212 O209 1.945 . S
Zn212 O214 1.932 . S
Zn212 O221 1.977 . S
Zn212 O222 1.910 . S
O213 Zn210 1.933 . S
O213 C224 1.226 . S
O214 Zn212 1.932 . S
O214 C224 1.307 . S
O215 Zn208 1.919 . S
O215 C226 1.253 . S
O216 Zn210 1.941 . S
O216 C226 1.283 . S
O217 Zn210 1.965 . S
O217 C225 1.303 . S
O218 Zn211 1.938 . S
O218 C225 1.247 . S
O219 Zn211 1.906 . S
O219 C227 1.304 . S
O220 Zn208 1.924 . S
O220 C228 1.311 . S
O221 Zn212 1.977 . S
O221 C227 1.272 . S
O222 Zn212 1.910 . S
O222 C228 1.231 . S
C223 O207 1.225 . S
C223 O229 1.298 . S
C224 O213 1.226 . S
C224 O214 1.307 . S
C225 O217 1.303 . S
C225 O218 1.247 . S
C226 O215 1.253 . S
C226 O216 1.283 . S
C227 O219 1.304 . S
C227 O221 1.272 . S
C228 O220 1.311 . S
C228 O222 1.231 . S
O229 Zn211 1.953 . S
O229 C223 1.298 . S
O230 Zn231 1.953 . S
O230 C246 1.225 . S
Zn231 O230 1.953 . S
Zn231 O232 1.949 . S
Zn231 O238 1.919 . S
Zn231 O243 1.924 . S
O232 Zn231 1.949 . S
O232 Zn233 1.923 . S
O232 Zn234 1.950 . S
O232 Zn235 1.945 . S
Zn233 O232 1.923 . S
Zn233 O236 1.933 . S
Zn233 O239 1.941 . S
Zn233 O240 1.965 . S
Zn234 O232 1.950 . S
Zn234 O241 1.938 . S
Zn234 O242 1.906 . S
Zn234 O252 1.953 . S
Zn235 O232 1.945 . S
Zn235 O237 1.932 . S
Zn235 O244 1.977 . S
Zn235 O245 1.910 . S
O236 Zn233 1.933 . S
O236 C247 1.226 . S
O237 Zn235 1.932 . S
O237 C247 1.307 . S
O238 Zn231 1.919 . S
O238 C249 1.253 . S
O239 Zn233 1.941 . S
O239 C249 1.283 . S
O240 Zn233 1.965 . S
O240 C248 1.303 . S
O241 Zn234 1.938 . S
O241 C248 1.247 . S
O242 Zn234 1.906 . S
O242 C250 1.304 . S
O243 Zn231 1.924 . S
O243 C251 1.311 . S
O244 Zn235 1.977 . S
O244 C250 1.272 . S
O245 Zn235 1.910 . S
O245 C251 1.231 . S
C246 O230 1.225 . S
C246 O252 1.298 . S
C247 O236 1.226 . S
C247 O237 1.307 . S
C248 O240 1.303 . S
C248 O241 1.247 . S
C249 O238 1.253 . S
C249 O239 1.283 . S
C250 O242 1.304 . S
C250 O244 1.272 . S
C251 O243 1.311 . S
C251 O245 1.231 . S
O252 Zn234 1.953 . S
O252 C246 1.298 . S
O253 Zn254 1.953 . S
O253 C269 1.225 . S
Zn254 O253 1.953 . S
Zn254 O255 1.949 . S
Zn254 O261 1.919 . S
Zn254 O266 1.924 . S
O255 Zn254 1.949 . S
O255 Zn256 1.923 . S
O255 Zn257 1.950 . S
O255 Zn258 1.945 . S
Zn256 O255 1.923 . S
Zn256 O259 1.933 . S
Zn256 O262 1.941 . S
Zn256 O263 1.965 1_556 S
Zn257 O255 1.950 . S
Zn257 O264 1.938 1_556 S
Zn257 O265 1.906 . S
Zn257 O275 1.953 . S
Zn258 O255 1.945 . S
Zn258 O260 1.932 . S
Zn258 O267 1.977 . S
Zn258 O268 1.910 . S
O259 Zn256 1.933 . S
O259 C270 1.226 . S
O260 Zn258 1.932 . S
O260 C270 1.307 . S
O261 Zn254 1.919 . S
O261 C272 1.253 . S
O262 Zn256 1.941 . S
O262 C272 1.283 . S
O263 Zn256 1.965 1_554 S
O263 C271 1.303 . S
O264 Zn257 1.938 1_554 S
O264 C271 1.247 . S
O265 Zn257 1.906 . S
O265 C273 1.304 . S
O266 Zn254 1.924 . S
O266 C274 1.311 . S
O267 Zn258 1.977 . S
O267 C273 1.272 . S
O268 Zn258 1.910 . S
O268 C274 1.231 . S
C269 O253 1.225 . S
C269 O275 1.298 . S
C270 O259 1.226 . S
C270 O260 1.307 . S
C271 O263 1.303 . S
C271 O264 1.247 . S
C272 O261 1.253 . S
C272 O262 1.283 . S
C273 O265 1.304 . S
C273 O267 1.272 . S
C274 O266 1.311 . S
C274 O268 1.231 . S
O275 Zn257 1.953 . S
O275 C269 1.298 . S
O276 Zn277 1.953 . S
O276 C292 1.225 . S
Zn277 O276 1.953 . S
Zn277 O278 1.949 . S
Zn277 O284 1.919 . S
Zn277 O289 1.924 . S
O278 Zn277 1.949 . S
O278 Zn279 1.923 . S
O278 Zn280 1.950 . S
O278 Zn281 1.945 . S
Zn279 O278 1.923 . S
Zn279 O282 1.933 . S
Zn279 O285 1.941 . S
Zn279 O286 1.965 . S
Zn280 O278 1.950 . S
Zn280 O287 1.938 . S
Zn280 O288 1.906 . S
Zn280 O298 1.953 . S
Zn281 O278 1.945 . S
Zn281 O283 1.932 . S
Zn281 O290 1.977 . S
Zn281 O291 1.910 . S
O282 Zn279 1.933 . S
O282 C293 1.226 . S
O283 Zn281 1.932 . S
O283 C293 1.307 . S
O284 Zn277 1.919 . S
O284 C295 1.253 . S
O285 Zn279 1.941 . S
O285 C295 1.283 . S
O286 Zn279 1.965 . S
O286 C294 1.303 . S
O287 Zn280 1.938 . S
O287 C294 1.247 . S
O288 Zn280 1.906 . S
O288 C296 1.304 . S
O289 Zn277 1.924 . S
O289 C297 1.311 . S
O290 Zn281 1.977 . S
O290 C296 1.272 . S
O291 Zn281 1.910 . S
O291 C297 1.231 . S
C292 O276 1.225 . S
C292 O298 1.298 . S
C293 O282 1.226 . S
C293 O283 1.307 . S
C294 O286 1.303 . S
C294 O287 1.247 . S
C295 O284 1.253 . S
C295 O285 1.283 . S
C296 O288 1.304 . S
C296 O290 1.272 . S
C297 O289 1.311 . S
C297 O291 1.231 . S
O298 Zn280 1.953 . S
O298 C292 1.298 . S
O299 Zn300 1.953 . S
O299 C315 1.225 . S
Zn300 O299 1.953 . S
Zn300 O301 1.949 . S
Zn300 O307 1.919 . S
Zn300 O312 1.924 . S
O301 Zn300 1.949 . S
O301 Zn302 1.923 . S
O301 Zn303 1.950 . S
O301 Zn304 1.945 . S
Zn302 O301 1.923 . S
Zn302 O305 1.933 . S
Zn302 O308 1.941 . S
Zn302 O309 1.965 . S
Zn303 O301 1.950 . S
Zn303 O310 1.938 . S
Zn303 O311 1.906 . S
Zn303 O321 1.953 . S
Zn304 O301 1.945 . S
Zn304 O306 1.932 . S
Zn304 O313 1.977 . S
Zn304 O314 1.910 . S
O305 Zn302 1.933 . S
O305 C316 1.226 . S
O306 Zn304 1.932 . S
O306 C316 1.307 . S
O307 Zn300 1.919 . S
O307 C318 1.253 . S
O308 Zn302 1.941 . S
O308 C318 1.283 . S
O309 Zn302 1.965 . S
O309 C317 1.303 . S
O310 Zn303 1.938 . S
O310 C317 1.247 . S
O311 Zn303 1.906 . S
O311 C319 1.304 . S
O312 Zn300 1.924 . S
O312 C320 1.311 . S
O313 Zn304 1.977 . S
O313 C319 1.272 . S
O314 Zn304 1.910 . S
O314 C320 1.231 . S
C315 O299 1.225 . S
C315 O321 1.298 . S
C316 O305 1.226 . S
C316 O306 1.307 . S
C317 O309 1.303 . S
C317 O310 1.247 . S
C318 O307 1.253 . S
C318 O308 1.283 . S
C319 O311 1.304 . S
C319 O313 1.272 . S
C320 O312 1.311 . S
C320 O314 1.231 . S
O321 Zn303 1.953 . S
O321 C315 1.298 . S
O322 Zn323 1.953 . S
O322 C338 1.225 . S
Zn323 O322 1.953 . S
Zn323 O324 1.949 . S
Zn323 O330 1.919 . S
Zn323 O335 1.924 . S
O324 Zn323 1.949 . S
O324 Zn325 1.923 . S
O324 Zn326 1.950 . S
O324 Zn327 1.945 . S
Zn325 O324 1.923 . S
Zn325 O328 1.933 . S
Zn325 O331 1.941 . S
Zn325 O332 1.965 . S
Zn326 O324 1.950 . S
Zn326 O333 1.938 . S
Zn326 O334 1.906 . S
Zn326 O344 1.953 . S
Zn327 O324 1.945 . S
Zn327 O329 1.932 . S
Zn327 O336 1.977 . S
Zn327 O337 1.910 . S
O328 Zn325 1.933 . S
O328 C339 1.226 . S
O329 Zn327 1.932 . S
O329 C339 1.307 . S
O330 Zn323 1.919 . S
O330 C341 1.253 . S
O331 Zn325 1.941 . S
O331 C341 1.283 . S
O332 Zn325 1.965 . S
O332 C340 1.303 . S
O333 Zn326 1.938 . S
O333 C340 1.247 . S
O334 Zn326 1.906 . S
O334 C342 1.304 . S
O335 Zn323 1.924 . S
O335 C343 1.311 . S
O336 Zn327 1.977 . S
O336 C342 1.272 . S
O337 Zn327 1.910 . S
O337 C343 1.231 . S
C338 O322 1.225 . S
C338 O344 1.298 . S
C339 O328 1.226 . S
C339 O329 1.307 . S
C340 O332 1.303 . S
C340 O333 1.247 . S
C341 O330 1.253 . S
C341 O331 1.283 . S
C342 O334 1.304 . S
C342 O336 1.272 . S
C343 O335 1.311 . S
C343 O337 1.231 . S
O344 Zn326 1.953 . S
O344 C338 1.298 . S
O345 Zn346 1.953 . S
O345 C361 1.225 . S
Zn346 O345 1.953 . S
Zn346 O347 1.949 . S
Zn346 O353 1.919 . S
Zn346 O358 1.924 . S
O347 Zn346 1.949 . S
O347 Zn348 1.923 . S
O347 Zn349 1.950 . S
O347 Zn350 1.945 . S
Zn348 O347 1.923 . S
Zn348 O351 1.933 . S
Zn348 O354 1.941 . S
Zn348 O355 1.965 1_554 S
Zn349 O347 1.950 . S
Zn349 O356 1.938 1_554 S
Zn349 O357 1.906 . S
Zn349 O367 1.953 . S
Zn350 O347 1.945 . S
Zn350 O352 1.932 . S
Zn350 O359 1.977 . S
Zn350 O360 1.910 . S
O351 Zn348 1.933 . S
O351 C362 1.226 . S
O352 Zn350 1.932 . S
O352 C362 1.307 . S
O353 Zn346 1.919 . S
O353 C364 1.253 . S
O354 Zn348 1.941 . S
O354 C364 1.283 . S
O355 Zn348 1.965 1_556 S
O355 C363 1.303 . S
O356 Zn349 1.938 1_556 S
O356 C363 1.247 . S
O357 Zn349 1.906 . S
O357 C365 1.304 . S
O358 Zn346 1.924 . S
O358 C366 1.311 . S
O359 Zn350 1.977 . S
O359 C365 1.272 . S
O360 Zn350 1.910 . S
O360 C366 1.231 . S
C361 O345 1.225 . S
C361 O367 1.298 . S
C362 O351 1.226 . S
C362 O352 1.307 . S
C363 O355 1.303 . S
C363 O356 1.247 . S
C364 O353 1.253 . S
C364 O354 1.283 . S
C365 O357 1.304 . S
C365 O359 1.272 . S
C366 O358 1.311 . S
C366 O360 1.231 . S
O367 Zn349 1.953 . S
O367 C361 1.298 . S
O368 Zn369 1.953 . S
O368 C384 1.225 . S
Zn369 O368 1.953 . S
Zn369 O370 1.949 . S
Zn369 O376 1.919 . S
Zn369 O381 1.924 . S
O370 Zn369 1.949 . S
O370 Zn371 1.923 . S
O370 Zn372 1.950 . S
O370 Zn373 1.945 . S
Zn371 O370 1.923 . S
Zn371 O374 1.933 . S
Zn371 O377 1.941 . S
Zn371 O378 1.965 . S
Zn372 O370 1.950 . S
Zn372 O379 1.938 . S
Zn372 O380 1.906 . S
Zn372 O390 1.953 . S
Zn373 O370 1.945 . S
Zn373 O375 1.932 . S
Zn373 O382 1.977 . S
Zn373 O383 1.910 . S
O374 Zn371 1.933 . S
O374 C385 1.226 . S
O375 Zn373 1.932 . S
O375 C385 1.307 . S
O376 Zn369 1.919 . S
O376 C387 1.253 . S
O377 Zn371 1.941 . S
O377 C387 1.283 . S
O378 Zn371 1.965 . S
O378 C386 1.303 . S
O379 Zn372 1.938 . S
O379 C386 1.247 . S
O380 Zn372 1.906 . S
O380 C388 1.304 . S
O381 Zn369 1.924 . S
O381 C389 1.311 . S
O382 Zn373 1.977 . S
O382 C388 1.272 . S
O383 Zn373 1.910 . S
O383 C389 1.231 . S
C384 O368 1.225 . S
C384 O390 1.298 . S
C385 O374 1.226 . S
C385 O375 1.307 . S
C386 O378 1.303 . S
C386 O379 1.247 . S
C387 O376 1.253 . S
C387 O377 1.283 . S
C388 O380 1.304 . S
C388 O382 1.272 . S
C389 O381 1.311 . S
C389 O383 1.231 . S
O390 Zn372 1.953 . S
O390 C384 1.298 . S
O391 Zn392 1.953 . S
O391 C407 1.225 . S
Zn392 O391 1.953 . S
Zn392 O393 1.949 . S
Zn392 O399 1.919 . S
Zn392 O404 1.924 . S
O393 Zn392 1.949 . S
O393 Zn394 1.923 . S
O393 Zn395 1.950 . S
O393 Zn396 1.945 . S
Zn394 O393 1.923 . S
Zn394 O397 1.933 . S
Zn394 O400 1.941 . S
Zn394 O401 1.965 1_554 S
Zn395 O393 1.950 . S
Zn395 O402 1.938 1_554 S
Zn395 O403 1.906 . S
Zn395 O413 1.953 . S
Zn396 O393 1.945 . S
Zn396 O398 1.932 . S
Zn396 O405 1.977 . S
Zn396 O406 1.910 . S
O397 Zn394 1.933 . S
O397 C408 1.226 . S
O398 Zn396 1.932 . S
O398 C408 1.307 . S
O399 Zn392 1.919 . S
O399 C410 1.253 . S
O400 Zn394 1.941 . S
O400 C410 1.283 . S
O401 Zn394 1.965 1_556 S
O401 C409 1.303 . S
O402 Zn395 1.938 1_556 S
O402 C409 1.247 . S
O403 Zn395 1.906 . S
O403 C411 1.304 . S
O404 Zn392 1.924 . S
O404 C412 1.311 . S
O405 Zn396 1.977 . S
O405 C411 1.272 . S
O406 Zn396 1.910 . S
O406 C412 1.231 . S
C407 O391 1.225 . S
C407 O413 1.298 . S
C408 O397 1.226 . S
C408 O398 1.307 . S
C409 O401 1.303 . S
C409 O402 1.247 . S
C410 O399 1.253 . S
C410 O400 1.283 . S
C411 O403 1.304 . S
C411 O405 1.272 . S
C412 O404 1.311 . S
C412 O406 1.231 . S
O413 Zn395 1.953 . S
O413 C407 1.298 . S
O414 Zn415 1.953 . S
O414 C430 1.225 . S
Zn415 O414 1.953 . S
Zn415 O416 1.949 . S
Zn415 O422 1.919 . S
Zn415 O427 1.924 . S
O416 Zn415 1.949 . S
O416 Zn417 1.923 . S
O416 Zn418 1.950 . S
O416 Zn419 1.945 . S
Zn417 O416 1.923 . S
Zn417 O420 1.933 . S
Zn417 O423 1.941 . S
Zn417 O424 1.965 . S
Zn418 O416 1.950 . S
Zn418 O425 1.938 . S
Zn418 O426 1.906 . S
Zn418 O436 1.953 . S
Zn419 O416 1.945 . S
Zn419 O421 1.932 . S
Zn419 O428 1.977 . S
Zn419 O429 1.910 . S
O420 Zn417 1.933 . S
O420 C431 1.226 . S
O421 Zn419 1.932 . S
O421 C431 1.307 . S
O422 Zn415 1.919 . S
O422 C433 1.253 . S
O423 Zn417 1.941 . S
O423 C433 1.283 . S
O424 Zn417 1.965 . S
O424 C432 1.303 . S
O425 Zn418 1.938 . S
O425 C432 1.247 . S
O426 Zn418 1.906 . S
O426 C434 1.304 . S
O427 Zn415 1.924 . S
O427 C435 1.311 . S
O428 Zn419 1.977 . S
O428 C434 1.272 . S
O429 Zn419 1.910 . S
O429 C435 1.231 . S
C430 O414 1.225 . S
C430 O436 1.298 . S
C431 O420 1.226 . S
C431 O421 1.307 . S
C432 O424 1.303 . S
C432 O425 1.247 . S
C433 O422 1.253 . S
C433 O423 1.283 . S
C434 O426 1.304 . S
C434 O428 1.272 . S
C435 O427 1.311 . S
C435 O429 1.231 . S
O436 Zn418 1.953 . S
O436 C430 1.298 . S
O437 Zn438 1.953 . S
O437 C453 1.225 . S
Zn438 O437 1.953 . S
Zn438 O439 1.949 . S
Zn438 O445 1.919 . S
Zn438 O450 1.924 . S
O439 Zn438 1.949 . S
O439 Zn440 1.923 . S
O439 Zn441 1.950 . S
O439 Zn442 1.945 . S
Zn440 O439 1.923 . S
Zn440 O443 1.933 . S
Zn440 O446 1.941 . S
Zn440 O447 1.965 . S
Zn441 O439 1.950 . S
Zn441 O448 1.938 . S
Zn441 O449 1.906 . S
Zn441 O459 1.953 . S
Zn442 O439 1.945 . S
Zn442 O444 1.932 . S
Zn442 O451 1.977 . S
Zn442 O452 1.910 . S
O443 Zn440 1.933 . S
O443 C454 1.226 . S
O444 Zn442 1.932 . S
O444 C454 1.307 . S
O445 Zn438 1.919 . S
O445 C456 1.253 . S
O446 Zn440 1.941 . S
O446 C456 1.283 . S
O447 Zn440 1.965 . S
O447 C455 1.303 . S
O448 Zn441 1.938 . S
O448 C455 1.247 . S
O449 Zn441 1.906 . S
O449 C457 1.304 . S
O450 Zn438 1.924 . S
O450 C458 1.311 . S
O451 Zn442 1.977 . S
O451 C457 1.272 . S
O452 Zn442 1.910 . S
O452 C458 1.231 . S
C453 O437 1.225 . S
C453 O459 1.298 . S
C454 O443 1.226 . S
C454 O444 1.307 . S
C455 O447 1.303 . S
C455 O448 1.247 . S
C456 O445 1.253 . S
C456 O446 1.283 . S
C457 O449 1.304 . S
C457 O451 1.272 . S
C458 O450 1.311 . S
C458 O452 1.231 . S
O459 Zn441 1.953 . S
O459 C453 1.298 . S
O460 Zn461 1.953 . S
O460 C476 1.225 . S
Zn461 O460 1.953 . S
Zn461 O462 1.949 . S
Zn461 O468 1.919 . S
Zn461 O473 1.924 . S
O462 Zn461 1.949 . S
O462 Zn463 1.923 . S
O462 Zn464 1.950 . S
O462 Zn465 1.945 . S
Zn463 O462 1.923 . S
Zn463 O466 1.933 . S
Zn463 O469 1.941 . S
Zn463 O470 1.965 . S
Zn464 O462 1.950 . S
Zn464 O471 1.938 . S
Zn464 O472 1.906 . S
Zn464 O482 1.953 . S
Zn465 O462 1.945 . S
Zn465 O467 1.932 . S
Zn465 O474 1.977 . S
Zn465 O475 1.910 . S
O466 Zn463 1.933 . S
O466 C477 1.226 . S
O467 Zn465 1.932 . S
O467 C477 1.307 . S
O468 Zn461 1.919 . S
O468 C479 1.253 . S
O469 Zn463 1.941 . S
O469 C479 1.283 . S
O470 Zn463 1.965 . S
O470 C478 1.303 . S
O471 Zn464 1.938 . S
O471 C478 1.247 . S
O472 Zn464 1.906 . S
O472 C480 1.304 . S
O473 Zn461 1.924 . S
O473 C481 1.311 . S
O474 Zn465 1.977 . S
O474 C480 1.272 . S
O475 Zn465 1.910 . S
O475 C481 1.231 . S
C476 O460 1.225 . S
C476 O482 1.298 . S
C477 O466 1.226 . S
C477 O467 1.307 . S
C478 O470 1.303 . S
C478 O471 1.247 . S
C479 O468 1.253 . S
C479 O469 1.283 . S
C480 O472 1.304 . S
C480 O474 1.272 . S
C481 O473 1.311 . S
C481 O475 1.231 . S
O482 Zn464 1.953 . S
O482 C476 1.298 . S
O483 Zn484 1.953 . S
O483 C499 1.225 . S
Zn484 O483 1.953 . S
Zn484 O485 1.949 . S
Zn484 O491 1.919 . S
Zn484 O496 1.924 . S
O485 Zn484 1.949 . S
O485 Zn486 1.923 . S
O485 Zn487 1.950 . S
O485 Zn488 1.945 . S
Zn486 O485 1.923 . S
Zn486 O489 1.933 . S
Zn486 O492 1.941 . S
Zn486 O493 1.965 1_556 S
Zn487 O485 1.950 . S
Zn487 O494 1.938 1_556 S
Zn487 O495 1.906 . S
Zn487 O505 1.953 . S
Zn488 O485 1.945 . S
Zn488 O490 1.932 . S
Zn488 O497 1.977 . S
Zn488 O498 1.910 . S
O489 Zn486 1.933 . S
O489 C500 1.226 . S
O490 Zn488 1.932 . S
O490 C500 1.307 . S
O491 Zn484 1.919 . S
O491 C502 1.253 . S
O492 Zn486 1.941 . S
O492 C502 1.283 . S
O493 Zn486 1.965 1_554 S
O493 C501 1.303 . S
O494 Zn487 1.938 1_554 S
O494 C501 1.247 . S
O495 Zn487 1.906 . S
O495 C503 1.304 . S
O496 Zn484 1.924 . S
O496 C504 1.311 . S
O497 Zn488 1.977 . S
O497 C503 1.272 . S
O498 Zn488 1.910 . S
O498 C504 1.231 . S
C499 O483 1.225 . S
C499 O505 1.298 . S
C500 O489 1.226 . S
C500 O490 1.307 . S
C501 O493 1.303 . S
C501 O494 1.247 . S
C502 O491 1.253 . S
C502 O492 1.283 . S
C503 O495 1.304 . S
C503 O497 1.272 . S
C504 O496 1.311 . S
C504 O498 1.231 . S
O505 Zn487 1.953 . S
O505 C499 1.298 . S
O506 Zn507 1.953 . S
O506 C522 1.225 . S
Zn507 O506 1.953 . S
Zn507 O508 1.949 . S
Zn507 O514 1.919 . S
Zn507 O519 1.924 . S
O508 Zn507 1.949 . S
O508 Zn509 1.923 . S
O508 Zn510 1.950 . S
O508 Zn511 1.945 . S
Zn509 O508 1.923 . S
Zn509 O512 1.933 . S
Zn509 O515 1.941 . S
Zn509 O516 1.965 . S
Zn510 O508 1.950 . S
Zn510 O517 1.938 . S
Zn510 O518 1.906 . S
Zn510 O528 1.953 . S
Zn511 O508 1.945 . S
Zn511 O513 1.932 . S
Zn511 O520 1.977 . S
Zn511 O521 1.910 . S
O512 Zn509 1.933 . S
O512 C523 1.226 . S
O513 Zn511 1.932 . S
O513 C523 1.307 . S
O514 Zn507 1.919 . S
O514 C525 1.253 . S
O515 Zn509 1.941 . S
O515 C525 1.283 . S
O516 Zn509 1.965 . S
O516 C524 1.303 . S
O517 Zn510 1.938 . S
O517 C524 1.247 . S
O518 Zn510 1.906 . S
O518 C526 1.304 . S
O519 Zn507 1.924 . S
O519 C527 1.311 . S
O520 Zn511 1.977 . S
O520 C526 1.272 . S
O521 Zn511 1.910 . S
O521 C527 1.231 . S
C522 O506 1.225 . S
C522 O528 1.298 . S
C523 O512 1.226 . S
C523 O513 1.307 . S
C524 O516 1.303 . S
C524 O517 1.247 . S
C525 O514 1.253 . S
C525 O515 1.283 . S
C526 O518 1.304 . S
C526 O520 1.272 . S
C527 O519 1.311 . S
C527 O521 1.231 . S
O528 Zn510 1.953 . S
O528 C522 1.298 . S
O529 Zn530 1.953 . S
O529 C545 1.225 . S
Zn530 O529 1.953 . S
Zn530 O531 1.949 . S
Zn530 O537 1.919 . S
Zn530 O542 1.924 . S
O531 Zn530 1.949 . S
O531 Zn532 1.923 . S
O531 Zn533 1.950 . S
O531 Zn534 1.945 . S
Zn532 O531 1.923 . S
Zn532 O535 1.933 . S
Zn532 O538 1.941 . S
Zn532 O539 1.965 . S
Zn533 O531 1.950 . S
Zn533 O540 1.938 . S
Zn533 O541 1.906 . S
Zn533 O551 1.953 . S
Zn534 O531 1.945 . S
Zn534 O536 1.932 . S
Zn534 O543 1.977 . S
Zn534 O544 1.910 . S
O535 Zn532 1.933 . S
O535 C546 1.226 . S
O536 Zn534 1.932 . S
O536 C546 1.307 . S
O537 Zn530 1.919 . S
O537 C548 1.253 . S
O538 Zn532 1.941 . S
O538 C548 1.283 . S
O539 Zn532 1.965 . S
O539 C547 1.303 . S
O540 Zn533 1.938 . S
O540 C547 1.247 . S
O541 Zn533 1.906 . S
O541 C549 1.304 . S
O542 Zn530 1.924 . S
O542 C550 1.311 . S
O543 Zn534 1.977 . S
O543 C549 1.272 . S
O544 Zn534 1.910 . S
O544 C550 1.231 . S
C545 O529 1.225 . S
C545 O551 1.298 . S
C546 O535 1.226 . S
C546 O536 1.307 . S
C547 O539 1.303 . S
C547 O540 1.247 . S
C548 O537 1.253 . S
C548 O538 1.283 . S
C549 O541 1.304 . S
C549 O543 1.272 . S
C550 O542 1.311 . S
C550 O544 1.231 . S
O551 Zn533 1.953 . S
O551 C545 1.298 . S
O552 Zn553 1.953 . S
O552 C568 1.225 . S
Zn553 O552 1.953 . S
Zn553 O554 1.949 . S
Zn553 O560 1.919 . S
Zn553 O565 1.924 . S
O554 Zn553 1.949 . S
O554 Zn555 1.923 . S
O554 Zn556 1.950 . S
O554 Zn557 1.945 . S
Zn555 O554 1.923 . S
Zn555 O558 1.933 . S
Zn555 O561 1.941 . S
Zn555 O562 1.965 . S
Zn556 O554 1.950 . S
Zn556 O563 1.938 . S
Zn556 O564 1.906 . S
Zn556 O574 1.953 . S
Zn557 O554 1.945 . S
Zn557 O559 1.932 . S
Zn557 O566 1.977 . S
Zn557 O567 1.910 . S
O558 Zn555 1.933 . S
O558 C569 1.226 . S
O559 Zn557 1.932 . S
O559 C569 1.307 . S
O560 Zn553 1.919 . S
O560 C571 1.253 . S
O561 Zn555 1.941 . S
O561 C571 1.283 . S
O562 Zn555 1.965 . S
O562 C570 1.303 . S
O563 Zn556 1.938 . S
O563 C570 1.247 . S
O564 Zn556 1.906 . S
O564 C572 1.304 . S
O565 Zn553 1.924 . S
O565 C573 1.311 . S
O566 Zn557 1.977 . S
O566 C572 1.272 . S
O567 Zn557 1.910 . S
O567 C573 1.231 . S
C568 O552 1.225 . S
C568 O574 1.298 . S
C569 O558 1.226 . S
C569 O559 1.307 . S
C570 O562 1.303 . S
C570 O563 1.247 . S
C571 O560 1.253 . S
C571 O561 1.283 . S
C572 O564 1.304 . S
C572 O566 1.272 . S
C573 O565 1.311 . S
C573 O567 1.231 . S
O574 Zn556 1.953 . S
O574 C568 1.298 . S
O575 Zn576 1.953 . S
O575 C591 1.225 . S
Zn576 O575 1.953 . S
Zn576 O577 1.949 . S
Zn576 O583 1.919 . S
Zn576 O588 1.924 . S
O577 Zn576 1.949 . S
O577 Zn578 1.923 . S
O577 Zn579 1.950 . S
O577 Zn580 1.945 . S
Zn578 O577 1.923 . S
Zn578 O581 1.933 . S
Zn578 O584 1.941 . S
Zn578 O585 1.965 1_556 S
Zn579 O577 1.950 . S
Zn579 O586 1.938 1_556 S
Zn579 O587 1.906 . S
Zn579 O597 1.953 . S
Zn580 O577 1.945 . S
Zn580 O582 1.932 . S
Zn580 O589 1.977 . S
Zn580 O590 1.910 . S
O581 Zn578 1.933 . S
O581 C592 1.226 . S
O582 Zn580 1.932 . S
O582 C592 1.307 . S
O583 Zn576 1.919 . S
O583 C594 1.253 . S
O584 Zn578 1.941 . S
O584 C594 1.283 . S
O585 Zn578 1.965 1_554 S
O585 C593 1.303 . S
O586 Zn579 1.938 1_554 S
O586 C593 1.247 . S
O587 Zn579 1.906 . S
O587 C595 1.304 . S
O588 Zn576 1.924 . S
O588 C596 1.311 . S
O589 Zn580 1.977 . S
O589 C595 1.272 . S
O590 Zn580 1.910 . S
O590 C596 1.231 . S
C591 O575 1.225 . S
C591 O597 1.298 . S
C592 O581 1.226 . S
C592 O582 1.307 . S
C593 O585 1.303 . S
C593 O586 1.247 . S
C594 O583 1.253 . S
C594 O584 1.283 . S
C595 O587 1.304 . S
C595 O589 1.272 . S
C596 O588 1.311 . S
C596 O590 1.231 . S
O597 Zn579 1.953 . S
O597 C591 1.298 . S
O598 Zn599 1.953 . S
O598 C614 1.225 . S
Zn599 O598 1.953 . S
Zn599 O600 1.949 . S
Zn599 O606 1.919 . S
Zn599 O611 1.924 . S
O600 Zn599 1.949 . S
O600 Zn601 1.923 . S
O600 Zn602 1.950 . S
O600 Zn603 1.945 . S
Zn601 O600 1.923 . S
Zn601 O604 1.933 . S
Zn601 O607 1.941 . S
Zn601 O608 1.965 . S
Zn602 O600 1.950 . S
Zn602 O609 1.938 . S
Zn602 O610 1.906 . S
Zn602 O620 1.953 . S
Zn603 O600 1.945 . S
Zn603 O605 1.932 . S
Zn603 O612 1.977 . S
Zn603 O613 1.910 . S
O604 Zn601 1.933 . S
O604 C615 1.226 . S
O605 Zn603 1.932 . S
O605 C615 1.307 . S
O606 Zn599 1.919 . S
O606 C617 1.253 . S
O607 Zn601 1.941 . S
O607 C617 1.283 . S
O608 Zn601 1.965 . S
O608 C616 1.303 . S
O609 Zn602 1.938 . S
O609 C616 1.247 . S
O610 Zn602 1.906 . S
O610 C618 1.304 . S
O611 Zn599 1.924 . S
O611 C619 1.311 . S
O612 Zn603 1.977 . S
O612 C618 1.272 . S
O613 Zn603 1.910 . S
O613 C619 1.231 . S
C614 O598 1.225 . S
C614 O620 1.298 . S
C615 O604 1.226 . S
C615 O605 1.307 . S
C616 O608 1.303 . S
C616 O609 1.247 . S
C617 O606 1.253 . S
C617 O607 1.283 . S
C618 O610 1.304 . S
C618 O612 1.272 . S
C619 O611 1.311 . S
C619 O613 1.231 . S
O620 Zn602 1.953 . S
O620 C614 1.298 . S
O621 Zn622 1.953 . S
O621 C637 1.225 . S
Zn622 O621 1.953 . S
Zn622 O623 1.949 . S
Zn622 O629 1.919 . S
Zn622 O634 1.924 . S
O623 Zn622 1.949 . S
O623 Zn624 1.923 . S
O623 Zn625 1.950 . S
O623 Zn626 1.945 . S
Zn624 O623 1.923 . S
Zn624 O627 1.933 . S
Zn624 O630 1.941 . S
Zn624 O631 1.965 . S
Zn625 O623 1.950 . S
Zn625 O632 1.938 . S
Zn625 O633 1.906 . S
Zn625 O643 1.953 . S
Zn626 O623 1.945 . S
Zn626 O628 1.932 . S
Zn626 O635 1.977 . S
Zn626 O636 1.910 . S
O627 Zn624 1.933 . S
O627 C638 1.226 . S
O628 Zn626 1.932 . S
O628 C638 1.307 . S
O629 Zn622 1.919 . S
O629 C640 1.253 . S
O630 Zn624 1.941 . S
O630 C640 1.283 . S
O631 Zn624 1.965 . S
O631 C639 1.303 . S
O632 Zn625 1.938 . S
O632 C639 1.247 . S
O633 Zn625 1.906 . S
O633 C641 1.304 . S
O634 Zn622 1.924 . S
O634 C642 1.311 . S
O635 Zn626 1.977 . S
O635 C641 1.272 . S
O636 Zn626 1.910 . S
O636 C642 1.231 . S
C637 O621 1.225 . S
C637 O643 1.298 . S
C638 O627 1.226 . S
C638 O628 1.307 . S
C639 O631 1.303 . S
C639 O632 1.247 . S
C640 O629 1.253 . S
C640 O630 1.283 . S
C641 O633 1.304 . S
C641 O635 1.272 . S
C642 O634 1.311 . S
C642 O636 1.231 . S
O643 Zn625 1.953 . S
O643 C637 1.298 . S
O644 Zn645 1.953 . S
O644 C660 1.225 . S
Zn645 O644 1.953 . S
Zn645 O646 1.949 . S
Zn645 O652 1.919 . S
Zn645 O657 1.924 . S
O646 Zn645 1.949 . S
O646 Zn647 1.923 . S
O646 Zn648 1.950 . S
O646 Zn649 1.945 . S
Zn647 O646 1.923 . S
Zn647 O650 1.933 . S
Zn647 O653 1.941 . S
Zn647 O654 1.965 . S
Zn648 O646 1.950 . S
Zn648 O655 1.938 . S
Zn648 O656 1.906 . S
Zn648 O666 1.953 . S
Zn649 O646 1.945 . S
Zn649 O651 1.932 . S
Zn649 O658 1.977 . S
Zn649 O659 1.910 . S
O650 Zn647 1.933 . S
O650 C661 1.226 . S
O651 Zn649 1.932 . S
O651 C661 1.307 . S
O652 Zn645 1.919 . S
O652 C663 1.253 . S
O653 Zn647 1.941 . S
O653 C663 1.283 . S
O654 Zn647 1.965 . S
O654 C662 1.303 . S
O655 Zn648 1.938 . S
O655 C662 1.247 . S
O656 Zn648 1.906 . S
O656 C664 1.304 . S
O657 Zn645 1.924 . S
O657 C665 1.311 . S
O658 Zn649 1.977 . S
O658 C664 1.272 . S
O659 Zn649 1.910 . S
O659 C665 1.231 . S
C660 O644 1.225 . S
C660 O666 1.298 . S
C661 O650 1.226 . S
C661 O651 1.307 . S
C662 O654 1.303 . S
C662 O655 1.247 . S
C663 O652 1.253 . S
C663 O653 1.283 . S
C664 O656 1.304 . S
C664 O658 1.272 . S
C665 O657 1.311 . S
C665 O659 1.231 . S
O666 Zn648 1.953 . S
O666 C660 1.298 . S
O667 Zn668 1.953 . S
O667 C683 1.225 . S
Zn668 O667 1.953 . S
Zn668 O669 1.949 . S
Zn668 O675 1.919 . S
Zn668 O680 1.924 . S
O669 Zn668 1.949 . S
O669 Zn670 1.923 . S
O669 Zn671 1.950 . S
O669 Zn672 1.945 . S
Zn670 O669 1.923 . S
Zn670 O673 1.933 . S
Zn670 O676 1.941 . S
Zn670 O677 1.965 1_554 S
Zn671 O669 1.950 . S
Zn671 O678 1.938 1_554 S
Zn671 O679 1.906 . S
Zn671 O689 1.953 . S
Zn672 O669 1.945 . S
Zn672 O674 1.932 . S
Zn672 O681 1.977 . S
Zn672 O682 1.910 . S
O673 Zn670 1.933 . S
O673 C684 1.226 . S
O674 Zn672 1.932 . S
O674 C684 1.307 . S
O675 Zn668 1.919 . S
O675 C686 1.253 . S
O676 Zn670 1.941 . S
O676 C686 1.283 . S
O677 Zn670 1.965 1_556 S
O677 C685 1.303 . S
O678 Zn671 1.938 1_556 S
O678 C685 1.247 . S
O679 Zn671 1.906 . S
O679 C687 1.304 . S
O680 Zn668 1.924 . S
O680 C688 1.311 . S
O681 Zn672 1.977 . S
O681 C687 1.272 . S
O682 Zn672 1.910 . S
O682 C688 1.231 . S
C683 O667 1.225 . S
C683 O689 1.298 . S
C684 O673 1.226 . S
C684 O674 1.307 . S
C685 O677 1.303 . S
C685 O678 1.247 . S
C686 O675 1.253 . S
C686 O676 1.283 . S
C687 O679 1.304 . S
C687 O681 1.272 . S
C688 O680 1.311 . S
C688 O682 1.231 . S
O689 Zn671 1.953 . S
O689 C683 1.298 . S
O690 Zn691 1.953 . S
O690 C706 1.225 . S
Zn691 O690 1.953 . S
Zn691 O692 1.949 . S
Zn691 O698 1.919 . S
Zn691 O703 1.924 . S
O692 Zn691 1.949 . S
O692 Zn693 1.923 . S
O692 Zn694 1.950 . S
O692 Zn695 1.945 . S
Zn693 O692 1.923 . S
Zn693 O696 1.933 . S
Zn693 O699 1.941 . S
Zn693 O700 1.965 . S
Zn694 O692 1.950 . S
Zn694 O701 1.938 . S
Zn694 O702 1.906 . S
Zn694 O712 1.953 . S
Zn695 O692 1.945 . S
Zn695 O697 1.932 . S
Zn695 O704 1.977 . S
Zn695 O705 1.910 . S
O696 Zn693 1.933 . S
O696 C707 1.226 . S
O697 Zn695 1.932 . S
O697 C707 1.307 . S
O698 Zn691 1.919 . S
O698 C709 1.253 . S
O699 Zn693 1.941 . S
O699 C709 1.283 . S
O700 Zn693 1.965 . S
O700 C708 1.303 . S
O701 Zn694 1.938 . S
O701 C708 1.247 . S
O702 Zn694 1.906 . S
O702 C710 1.304 . S
O703 Zn691 1.924 . S
O703 C711 1.311 . S
O704 Zn695 1.977 . S
O704 C710 1.272 . S
O705 Zn695 1.910 . S
O705 C711 1.231 . S
C706 O690 1.225 . S
C706 O712 1.298 . S
C707 O696 1.226 . S
C707 O697 1.307 . S
C708 O700 1.303 . S
C708 O701 1.247 . S
C709 O698 1.253 . S
C709 O699 1.283 . S
C710 O702 1.304 . S
C710 O704 1.272 . S
C711 O703 1.311 . S
C711 O705 1.231 . S
O712 Zn694 1.953 . S
O712 C706 1.298 . S
O713 Zn714 1.953 . S
O713 C729 1.225 . S
Zn714 O713 1.953 . S
Zn714 O715 1.949 . S
Zn714 O721 1.919 . S
Zn714 O726 1.924 . S
O715 Zn714 1.949 . S
O715 Zn716 1.923 . S
O715 Zn717 1.950 . S
O715 Zn718 1.945 . S
Zn716 O715 1.923 . S
Zn716 O719 1.933 . S
Zn716 O722 1.941 . S
Zn716 O723 1.965 . S
Zn717 O715 1.950 . S
Zn717 O724 1.938 . S
Zn717 O725 1.906 . S
Zn717 O735 1.953 . S
Zn718 O715 1.945 . S
Zn718 O720 1.932 . S
Zn718 O727 1.977 . S
Zn718 O728 1.910 . S
O719 Zn716 1.933 . S
O719 C730 1.226 . S
O720 Zn718 1.932 . S
O720 C730 1.307 . S
O721 Zn714 1.919 . S
O721 C732 1.253 . S
O722 Zn716 1.941 . S
O722 C732 1.283 . S
O723 Zn716 1.965 . S
O723 C731 1.303 . S
O724 Zn717 1.938 . S
O724 C731 1.247 . S
O725 Zn717 1.906 . S
O725 C733 1.304 . S
O726 Zn714 1.924 . S
O726 C734 1.311 . S
O727 Zn718 1.977 . S
O727 C733 1.272 . S
O728 Zn718 1.910 . S
O728 C734 1.231 . S
C729 O713 1.225 . S
C729 O735 1.298 . S
C730 O719 1.226 . S
C730 O720 1.307 . S
C731 O723 1.303 . S
C731 O724 1.247 . S
C732 O721 1.253 . S
C732 O722 1.283 . S
C733 O725 1.304 . S
C733 O727 1.272 . S
C734 O726 1.311 . S
C734 O728 1.231 . S
O735 Zn717 1.953 . S
O735 C729 1.298 . S
C736 C737 1.369 . S
C736 C738 1.419 . S
C736 H740 0.930 . S
C737 C736 1.369 . S
C737 C746 1.429 . S
C738 C736 1.419 . S
C738 C739 1.363 . S
C738 H741 0.929 . S
C739 C738 1.363 . S
C739 C745 1.428 . S
H740 C736 0.930 . S
H741 C738 0.929 . S
S742 N743 1.613 . S
S742 N744 1.610 . S
N743 S742 1.613 . S
N743 C746 1.350 . S
N744 S742 1.610 . S
N744 C745 1.351 . S
C745 C739 1.428 . S
C745 N744 1.351 . S
C745 C746 1.434 . S
C746 C737 1.429 . S
C746 N743 1.350 . S
C746 C745 1.434 . S
C747 C748 1.369 . S
C747 C749 1.419 . S
C747 H751 0.930 . S
C748 C747 1.369 . S
C748 C757 1.429 . S
C749 C747 1.419 . S
C749 C750 1.363 1_545 S
C749 H752 0.929 . S
C750 C749 1.363 1_565 S
C750 C756 1.428 . S
H751 C747 0.930 . S
H752 C749 0.929 . S
S753 N754 1.613 1_565 S
S753 N755 1.610 . S
N754 S753 1.613 1_545 S
N754 C757 1.350 . S
N755 S753 1.610 . S
N755 C756 1.351 . S
C756 C750 1.428 . S
C756 N755 1.351 . S
C756 C757 1.434 1_565 S
C757 C748 1.429 . S
C757 N754 1.350 . S
C757 C756 1.434 1_545 S
C758 C759 1.369 . S
C758 C760 1.419 . S
C758 H762 0.930 . S
C759 C758 1.369 . S
C759 C768 1.429 . S
C760 C758 1.419 . S
C760 C761 1.363 . S
C760 H763 0.929 . S
C761 C760 1.363 . S
C761 C767 1.428 . S
H762 C758 0.930 . S
H763 C760 0.929 . S
S764 N765 1.613 . S
S764 N766 1.610 . S
N765 S764 1.613 . S
N765 C768 1.350 . S
N766 S764 1.610 . S
N766 C767 1.351 . S
C767 C761 1.428 . S
C767 N766 1.351 . S
C767 C768 1.434 . S
C768 C759 1.429 . S
C768 N765 1.350 . S
C768 C767 1.434 . S
C769 C770 1.369 . S
C769 C771 1.419 1_556 S
C769 H773 0.930 . S
C770 C769 1.369 . S
C770 C779 1.435 . S
C771 C769 1.419 1_554 S
C771 C772 1.363 1_565 S
C771 H774 0.929 1_565 S
C772 C771 1.363 1_545 S
C772 C778 1.428 1_545 S
H773 C769 0.930 . S
H774 C771 0.929 1_545 S
S775 N776 1.613 1_554 S
S775 N777 1.610 1_565 S
N776 S775 1.613 1_556 S
N776 C779 1.350 . S
N777 S775 1.610 1_545 S
N777 C778 1.351 1_545 S
C778 C772 1.428 1_565 S
C778 N777 1.351 1_565 S
C778 C779 1.427 1_554 S
C779 C770 1.435 . S
C779 N776 1.350 . S
C779 C778 1.427 1_556 S
C780 C781 1.369 . S
C780 C782 1.419 . S
C780 H784 0.930 . S
C781 C780 1.369 . S
C781 C790 1.429 . S
C782 C780 1.419 . S
C782 C783 1.363 . S
C782 H785 0.929 . S
C783 C782 1.363 . S
C783 C789 1.428 . S
H784 C780 0.930 . S
H785 C782 0.929 . S
S786 N787 1.613 . S
S786 N788 1.610 . S
N787 S786 1.613 . S
N787 C790 1.350 . S
N788 S786 1.610 . S
N788 C789 1.351 . S
C789 C783 1.428 . S
C789 N788 1.351 . S
C789 C790 1.434 . S
C790 C781 1.429 . S
C790 N787 1.350 . S
C790 C789 1.434 . S
C791 C792 1.369 1_545 S
C791 C793 1.419 . S
C791 H795 0.930 1_545 S
C792 C791 1.369 1_565 S
C792 C801 1.418 1_565 S
C793 C791 1.419 . S
C793 C794 1.363 . S
C793 H796 0.929 . S
C794 C793 1.363 . S
C794 C800 1.428 . S
H795 C791 0.930 1_565 S
H796 C793 0.929 . S
S797 N798 1.613 1_545 S
S797 N799 1.610 . S
N798 S797 1.613 1_565 S
N798 C801 1.342 1_565 S
N799 S797 1.610 . S
N799 C800 1.351 . S
C800 C794 1.428 . S
C800 N799 1.351 . S
C800 C801 1.455 . S
C801 C792 1.418 1_545 S
C801 N798 1.342 1_545 S
C801 C800 1.455 . S
C802 C803 1.369 . S
C802 C804 1.419 . S
C802 H806 0.930 . S
C803 C802 1.369 . S
C803 C812 1.429 . S
C804 C802 1.419 . S
C804 C805 1.363 . S
C804 H807 0.929 . S
C805 C804 1.363 . S
C805 C811 1.428 . S
H806 C802 0.930 . S
H807 C804 0.929 . S
S808 N809 1.613 . S
S808 N810 1.610 . S
N809 S808 1.613 . S
N809 C812 1.350 . S
N810 S808 1.610 . S
N810 C811 1.351 . S
C811 C805 1.428 . S
C811 N810 1.351 . S
C811 C812 1.434 . S
C812 C803 1.429 . S
C812 N809 1.350 . S
C812 C811 1.434 . S
C813 C814 1.369 . S
C813 C815 1.419 1_564 S
C813 H817 0.930 . S
C814 C813 1.369 . S
C814 C823 1.429 . S
C815 C813 1.419 1_546 S
C815 C816 1.363 . S
C815 H818 0.929 . S
C816 C815 1.363 . S
C816 C822 1.428 1_545 S
H817 C813 0.930 . S
H818 C815 0.929 . S
S819 N820 1.613 1_556 S
S819 N821 1.610 . S
N820 S819 1.613 1_554 S
N820 C823 1.350 . S
N821 S819 1.610 . S
N821 C822 1.351 . S
C822 C816 1.428 1_565 S
C822 N821 1.351 . S
C822 C823 1.434 1_556 S
C823 C814 1.429 . S
C823 N820 1.350 . S
C823 C822 1.434 1_554 S
C824 C825 1.369 . S
C824 C826 1.419 . S
C824 H828 0.930 . S
C825 C824 1.369 . S
C825 C834 1.429 . S
C826 C824 1.419 . S
C826 C827 1.363 . S
C826 H829 0.929 . S
C827 C826 1.363 . S
C827 C833 1.428 . S
H828 C824 0.930 . S
H829 C826 0.929 . S
S830 N831 1.613 . S
S830 N832 1.610 . S
N831 S830 1.613 . S
N831 C834 1.350 . S
N832 S830 1.610 . S
N832 C833 1.351 . S
C833 C827 1.428 . S
C833 N832 1.351 . S
C833 C834 1.434 . S
C834 C825 1.429 . S
C834 N831 1.350 . S
C834 C833 1.434 . S
C835 C836 1.369 . S
C835 C837 1.419 1_545 S
C835 H839 0.930 . S
C836 C835 1.369 . S
C836 C845 1.429 1_545 S
C837 C835 1.419 1_565 S
C837 C838 1.363 . S
C837 H840 0.929 . S
C838 C837 1.363 . S
C838 C844 1.428 . S
H839 C835 0.930 . S
H840 C837 0.929 . S
S841 N842 1.613 . S
S841 N843 1.610 . S
N842 S841 1.613 . S
N842 C845 1.350 . S
N843 S841 1.610 . S
N843 C844 1.351 . S
C844 C838 1.428 . S
C844 N843 1.351 . S
C844 C845 1.434 . S
C845 C836 1.429 1_565 S
C845 N842 1.350 . S
C845 C844 1.434 . S
C846 C847 1.369 . S
C846 C848 1.419 . S
C846 H850 0.930 . S
C847 C846 1.369 . S
C847 C856 1.429 . S
C848 C846 1.419 . S
C848 C849 1.363 . S
C848 H851 0.929 . S
C849 C848 1.363 . S
C849 C855 1.428 . S
H850 C846 0.930 . S
H851 C848 0.929 . S
S852 N853 1.613 . S
S852 N854 1.610 . S
N853 S852 1.613 . S
N853 C856 1.350 . S
N854 S852 1.610 . S
N854 C855 1.351 . S
C855 C849 1.428 . S
C855 N854 1.351 . S
C855 C856 1.434 . S
C856 C847 1.429 . S
C856 N853 1.350 . S
C856 C855 1.434 . S
C857 C858 1.369 1_545 S
C857 C859 1.419 . S
C857 H861 0.930 . S
C858 C857 1.369 1_565 S
C858 C867 1.429 1_556 S
C859 C857 1.419 . S
C859 C860 1.363 1_556 S
C859 H862 0.929 . S
C860 C859 1.363 1_554 S
C860 C866 1.428 . S
H861 C857 0.930 . S
H862 C859 0.929 . S
S863 N864 1.613 1_545 S
S863 N865 1.610 . S
N864 S863 1.613 1_565 S
N864 C867 1.350 . S
N865 S863 1.610 . S
N865 C866 1.351 . S
C866 C860 1.428 . S
C866 N865 1.351 . S
C866 C867 1.434 1_545 S
C867 C858 1.429 1_554 S
C867 N864 1.350 . S
C867 C866 1.434 1_565 S
C868 C869 1.369 . S
C868 C870 1.419 . S
C868 H872 0.930 . S
C869 C868 1.369 . S
C869 C878 1.429 . S
C870 C868 1.419 . S
C870 C871 1.363 . S
C870 H873 0.929 . S
C871 C870 1.363 . S
C871 C877 1.428 . S
H872 C868 0.930 . S
H873 C870 0.929 . S
S874 N875 1.613 . S
S874 N876 1.610 . S
N875 S874 1.613 . S
N875 C878 1.350 . S
N876 S874 1.610 . S
N876 C877 1.351 . S
C877 C871 1.428 . S
C877 N876 1.351 . S
C877 C878 1.434 . S
C878 C869 1.429 . S
C878 N875 1.350 . S
C878 C877 1.434 . S
C879 C880 1.369 1_565 S
C879 C881 1.419 . S
C879 H883 0.930 . S
C880 C879 1.369 1_545 S
C880 C889 1.429 . S
C881 C879 1.419 . S
C881 C882 1.363 . S
C881 H884 0.929 . S
C882 C881 1.363 . S
C882 C888 1.428 . S
H883 C879 0.930 . S
H884 C881 0.929 . S
S885 N886 1.613 . S
S885 N887 1.610 1_545 S
N886 S885 1.613 . S
N886 C889 1.350 . S
N887 S885 1.610 1_565 S
N887 C888 1.351 . S
C888 C882 1.428 . S
C888 N887 1.351 . S
C888 C889 1.434 1_565 S
C889 C880 1.429 . S
C889 N886 1.350 . S
C889 C888 1.434 1_545 S
C890 C891 1.369 . S
C890 C892 1.419 . S
C890 H894 0.930 . S
C891 C890 1.369 . S
C891 C900 1.429 . S
C892 C890 1.419 . S
C892 C893 1.363 . S
C892 H895 0.929 . S
C893 C892 1.363 . S
C893 C899 1.428 . S
H894 C890 0.930 . S
H895 C892 0.929 . S
S896 N897 1.613 . S
S896 N898 1.610 . S
N897 S896 1.613 . S
N897 C900 1.350 . S
N898 S896 1.610 . S
N898 C899 1.351 . S
C899 C893 1.428 . S
C899 N898 1.351 . S
C899 C900 1.434 . S
C900 C891 1.429 . S
C900 N897 1.350 . S
C900 C899 1.434 . S
C901 C902 1.369 . S
C901 C903 1.419 1_545 S
C901 H905 0.930 . S
C902 C901 1.369 . S
C902 C911 1.429 1_556 S
C903 C901 1.419 1_565 S
C903 C904 1.363 1_556 S
C903 H906 0.929 . S
C904 C903 1.363 1_554 S
C904 C910 1.428 1_565 S
H905 C901 0.930 . S
H906 C903 0.929 . S
S907 N908 1.613 . S
S907 N909 1.610 . S
N908 S907 1.613 . S
N908 C911 1.350 . S
N909 S907 1.610 . S
N909 C910 1.351 . S
C910 C904 1.428 1_545 S
C910 N909 1.351 . S
C910 C911 1.434 . S
C911 C902 1.429 1_554 S
C911 N908 1.350 . S
C911 C910 1.434 . S
C912 C913 1.369 . S
C912 C914 1.419 . S
C912 H916 0.930 . S
C913 C912 1.369 . S
C913 C922 1.429 . S
C914 C912 1.419 . S
C914 C915 1.363 . S
C914 H917 0.929 . S
C915 C914 1.363 . S
C915 C921 1.428 . S
H916 C912 0.930 . S
H917 C914 0.929 . S
S918 N919 1.613 . S
S918 N920 1.610 . S
N919 S918 1.613 . S
N919 C922 1.350 . S
N920 S918 1.610 . S
N920 C921 1.351 . S
C921 C915 1.428 . S
C921 N920 1.351 . S
C921 C922 1.434 . S
C922 C913 1.429 . S
C922 N919 1.350 . S
C922 C921 1.434 . S
C923 C924 1.369 . S
C923 C925 1.419 . S
C923 H927 0.930 . S
C924 C923 1.369 . S
C924 C933 1.429 1_556 S
C925 C923 1.419 . S
C925 C926 1.363 1_556 S
C925 H928 0.929 . S
C926 C925 1.363 1_554 S
C926 C932 1.428 . S
H927 C923 0.930 . S
H928 C925 0.929 . S
S929 N930 1.613 . S
S929 N931 1.610 . S
N930 S929 1.613 . S
N930 C933 1.350 . S
N931 S929 1.610 . S
N931 C932 1.351 . S
C932 C926 1.428 . S
C932 N931 1.351 . S
C932 C933 1.434 . S
C933 C924 1.429 1_554 S
C933 N930 1.350 . S
C933 C932 1.434 . S
C934 C935 1.369 . S
C934 C936 1.419 . S
C934 H938 0.930 . S
C935 C934 1.369 . S
C935 C944 1.429 . S
C936 C934 1.419 . S
C936 C937 1.363 . S
C936 H939 0.929 . S
C937 C936 1.363 . S
C937 C943 1.428 . S
H938 C934 0.930 . S
H939 C936 0.929 . S
S940 N941 1.613 . S
S940 N942 1.610 . S
N941 S940 1.613 . S
N941 C944 1.350 . S
N942 S940 1.610 . S
N942 C943 1.351 . S
C943 C937 1.428 . S
C943 N942 1.351 . S
C943 C944 1.434 . S
C944 C935 1.429 . S
C944 N941 1.350 . S
C944 C943 1.434 . S
C945 C946 1.369 . S
C945 C947 1.419 . S
C945 H949 0.930 . S
C946 C945 1.369 . S
C946 C955 1.429 . S
C947 C945 1.419 . S
C947 C948 1.363 . S
C947 H950 0.929 . S
C948 C947 1.363 . S
C948 C954 1.428 . S
H949 C945 0.930 . S
H950 C947 0.929 . S
S951 N952 1.613 . S
S951 N953 1.610 . S
N952 S951 1.613 . S
N952 C955 1.350 . S
N953 S951 1.610 . S
N953 C954 1.351 . S
C954 C948 1.428 . S
C954 N953 1.351 . S
C954 C955 1.434 . S
C955 C946 1.429 . S
C955 N952 1.350 . S
C955 C954 1.434 . S
C956 C957 1.369 . S
C956 C958 1.419 . S
C956 H960 0.930 . S
C957 C956 1.369 . S
C957 C966 1.429 . S
C958 C956 1.419 . S
C958 C959 1.363 . S
C958 H961 0.929 . S
C959 C958 1.363 . S
C959 C965 1.428 . S
H960 C956 0.930 . S
H961 C958 0.929 . S
S962 N963 1.613 . S
S962 N964 1.610 . S
N963 S962 1.613 . S
N963 C966 1.350 . S
N964 S962 1.610 . S
N964 C965 1.351 . S
C965 C959 1.428 . S
C965 N964 1.351 . S
C965 C966 1.434 . S
C966 C957 1.429 . S
C966 N963 1.350 . S
C966 C965 1.434 . S
C967 C968 1.369 1_556 S
C967 C969 1.419 . S
C967 H971 0.930 . S
C968 C967 1.369 1_554 S
C968 C977 1.429 . S
C969 C967 1.419 . S
C969 C970 1.363 . S
C969 H972 0.929 . S
C970 C969 1.363 . S
C970 C976 1.428 1_556 S
H971 C967 0.930 . S
H972 C969 0.929 . S
S973 N974 1.613 . S
S973 N975 1.610 . S
N974 S973 1.613 . S
N974 C977 1.350 . S
N975 S973 1.610 . S
N975 C976 1.351 . S
C976 C970 1.428 1_554 S
C976 N975 1.351 . S
C976 C977 1.434 . S
C977 C968 1.429 . S
C977 N974 1.350 . S
C977 C976 1.434 . S
C978 C979 1.369 . S
C978 C980 1.419 . S
C978 H982 0.930 . S
C979 C978 1.369 . S
C979 C988 1.429 . S
C980 C978 1.419 . S
C980 C981 1.363 . S
C980 H983 0.929 . S
C981 C980 1.363 . S
C981 C987 1.428 . S
H982 C978 0.930 . S
H983 C980 0.929 . S
S984 N985 1.613 . S
S984 N986 1.610 . S
N985 S984 1.613 . S
N985 C988 1.350 . S
N986 S984 1.610 . S
N986 C987 1.351 . S
C987 C981 1.428 . S
C987 N986 1.351 . S
C987 C988 1.434 . S
C988 C979 1.429 . S
C988 N985 1.350 . S
C988 C987 1.434 . S
C989 C990 1.369 . S
C989 C991 1.419 . S
C989 H993 0.930 . S
C990 C989 1.369 . S
C990 C999 1.429 . S
C991 C989 1.419 . S
C991 C992 1.363 . S
C991 H994 0.929 . S
C992 C991 1.363 . S
C992 C998 1.428 . S
H993 C989 0.930 . S
H994 C991 0.929 . S
S995 N996 1.613 . S
S995 N997 1.610 . S
N996 S995 1.613 . S
N996 C999 1.350 . S
N997 S995 1.610 . S
N997 C998 1.351 . S
C998 C992 1.428 . S
C998 N997 1.351 . S
C998 C999 1.434 . S
C999 C990 1.429 . S
C999 N996 1.350 . S
C999 C998 1.434 . S
C1000 C1001 1.369 . S
C1000 C1002 1.419 . S
C1000 H1004 0.930 . S
C1001 C1000 1.369 . S
C1001 C1010 1.429 . S
C1002 C1000 1.419 . S
C1002 C1003 1.363 . S
C1002 H1005 0.929 . S
C1003 C1002 1.363 . S
C1003 C1009 1.428 . S
H1004 C1000 0.930 . S
H1005 C1002 0.929 . S
S1006 N1007 1.613 . S
S1006 N1008 1.610 . S
N1007 S1006 1.613 . S
N1007 C1010 1.350 . S
N1008 S1006 1.610 . S
N1008 C1009 1.351 . S
C1009 C1003 1.428 . S
C1009 N1008 1.351 . S
C1009 C1010 1.434 . S
C1010 C1001 1.429 . S
C1010 N1007 1.350 . S
C1010 C1009 1.434 . S
C1011 C1012 1.369 1_556 S
C1011 C1013 1.419 . S
C1011 H1015 0.930 . S
C1012 C1011 1.369 1_554 S
C1012 C1021 1.429 . S
C1013 C1011 1.419 . S
C1013 C1014 1.363 . S
C1013 H1016 0.929 . S
C1014 C1013 1.363 . S
C1014 C1020 1.428 1_556 S
H1015 C1011 0.930 . S
H1016 C1013 0.929 . S
S1017 N1018 1.613 . S
S1017 N1019 1.610 . S
N1018 S1017 1.613 . S
N1018 C1021 1.350 . S
N1019 S1017 1.610 . S
N1019 C1020 1.351 . S
C1020 C1014 1.428 1_554 S
C1020 N1019 1.351 . S
C1020 C1021 1.434 . S
C1021 C1012 1.429 . S
C1021 N1018 1.350 . S
C1021 C1020 1.434 . S
C1022 C1023 1.369 . S
C1022 C1024 1.419 . S
C1022 H1026 0.930 . S
C1023 C1022 1.369 . S
C1023 C1032 1.429 . S
C1024 C1022 1.419 . S
C1024 C1025 1.363 . S
C1024 H1027 0.929 . S
C1025 C1024 1.363 . S
C1025 C1031 1.428 . S
H1026 C1022 0.930 . S
H1027 C1024 0.929 . S
S1028 N1029 1.613 . S
S1028 N1030 1.610 . S
N1029 S1028 1.613 . S
N1029 C1032 1.350 . S
N1030 S1028 1.610 . S
N1030 C1031 1.351 . S
C1031 C1025 1.428 . S
C1031 N1030 1.351 . S
C1031 C1032 1.434 . S
C1032 C1023 1.429 . S
C1032 N1029 1.350 . S
C1032 C1031 1.434 . S
C1033 C1034 1.369 . S
C1033 C1035 1.419 . S
C1033 H1037 0.930 . S
C1034 C1033 1.369 . S
C1034 C1043 1.429 . S
C1035 C1033 1.419 . S
C1035 C1036 1.363 . S
C1035 H1038 0.929 . S
C1036 C1035 1.363 . S
C1036 C1042 1.428 . S
H1037 C1033 0.930 . S
H1038 C1035 0.929 . S
S1039 N1040 1.613 . S
S1039 N1041 1.610 . S
N1040 S1039 1.613 . S
N1040 C1043 1.350 . S
N1041 S1039 1.610 . S
N1041 C1042 1.351 . S
C1042 C1036 1.428 . S
C1042 N1041 1.351 . S
C1042 C1043 1.434 . S
C1043 C1034 1.429 . S
C1043 N1040 1.350 . S
C1043 C1042 1.434 . S
C1044 C1045 1.369 . S
C1044 C1046 1.419 . S
C1044 H1048 0.930 . S
C1045 C1044 1.369 . S
C1045 C1054 1.429 . S
C1046 C1044 1.419 . S
C1046 C1047 1.363 . S
C1046 H1049 0.929 . S
C1047 C1046 1.363 . S
C1047 C1053 1.428 . S
H1048 C1044 0.930 . S
H1049 C1046 0.929 . S
S1050 N1051 1.613 . S
S1050 N1052 1.610 . S
N1051 S1050 1.613 . S
N1051 C1054 1.350 . S
N1052 S1050 1.610 . S
N1052 C1053 1.351 . S
C1053 C1047 1.428 . S
C1053 N1052 1.351 . S
C1053 C1054 1.434 . S
C1054 C1045 1.429 . S
C1054 N1051 1.350 . S
C1054 C1053 1.434 . S
C1055 C1056 1.369 . S
C1055 C1057 1.419 1_556 S
C1055 H1059 0.930 . S
C1056 C1055 1.369 . S
C1056 C1065 1.429 1_556 S
C1057 C1055 1.419 1_554 S
C1057 C1058 1.363 . S
C1057 H1060 0.929 . S
C1058 C1057 1.363 . S
C1058 C1064 1.428 . S
H1059 C1055 0.930 . S
H1060 C1057 0.929 . S
S1061 N1062 1.613 . S
S1061 N1063 1.610 . S
N1062 S1061 1.613 . S
N1062 C1065 1.350 . S
N1063 S1061 1.610 . S
N1063 C1064 1.351 . S
C1064 C1058 1.428 . S
C1064 N1063 1.351 . S
C1064 C1065 1.434 . S
C1065 C1056 1.429 1_554 S
C1065 N1062 1.350 . S
C1065 C1064 1.434 . S
C1066 C1067 1.369 . S
C1066 C1068 1.419 . S
C1066 H1070 0.930 . S
C1067 C1066 1.369 . S
C1067 C1076 1.429 . S
C1068 C1066 1.419 . S
C1068 C1069 1.363 . S
C1068 H1071 0.929 . S
C1069 C1068 1.363 . S
C1069 C1075 1.428 . S
H1070 C1066 0.930 . S
H1071 C1068 0.929 . S
S1072 N1073 1.613 . S
S1072 N1074 1.610 . S
N1073 S1072 1.613 . S
N1073 C1076 1.350 . S
N1074 S1072 1.610 . S
N1074 C1075 1.351 . S
C1075 C1069 1.428 . S
C1075 N1074 1.351 . S
C1075 C1076 1.434 . S
C1076 C1067 1.429 . S
C1076 N1073 1.350 . S
C1076 C1075 1.434 . S
C1077 C1078 1.369 . S
C1077 C1079 1.419 . S
C1077 H1081 0.930 . S
C1078 C1077 1.369 . S
C1078 C1087 1.429 . S
C1079 C1077 1.419 . S
C1079 C1080 1.363 . S
C1079 H1082 0.929 . S
C1080 C1079 1.363 . S
C1080 C1086 1.428 . S
H1081 C1077 0.930 . S
H1082 C1079 0.929 . S
S1083 N1084 1.613 . S
S1083 N1085 1.610 . S
N1084 S1083 1.613 . S
N1084 C1087 1.350 . S
N1085 S1083 1.610 . S
N1085 C1086 1.351 . S
C1086 C1080 1.428 . S
C1086 N1085 1.351 . S
C1086 C1087 1.434 . S
C1087 C1078 1.429 . S
C1087 N1084 1.350 . S
C1087 C1086 1.434 . S
C1088 C1089 1.369 . S
C1088 C1090 1.419 . S
C1088 H1092 0.930 . S
C1089 C1088 1.369 . S
C1089 C1098 1.429 . S
C1090 C1088 1.419 . S
C1090 C1091 1.363 . S
C1090 H1093 0.929 . S
C1091 C1090 1.363 . S
C1091 C1097 1.428 . S
H1092 C1088 0.930 . S
H1093 C1090 0.929 . S
S1094 N1095 1.613 . S
S1094 N1096 1.610 . S
N1095 S1094 1.613 . S
N1095 C1098 1.350 . S
N1096 S1094 1.610 . S
N1096 C1097 1.351 . S
C1097 C1091 1.428 . S
C1097 N1096 1.351 . S
C1097 C1098 1.434 . S
C1098 C1089 1.429 . S
C1098 N1095 1.350 . S
C1098 C1097 1.434 . S
C1099 C1100 1.369 . S
C1099 C1101 1.419 1_455 S
C1099 H1103 0.930 . S
C1100 C1099 1.369 . S
C1100 C1109 1.429 . S
C1101 C1099 1.419 1_655 S
C1101 C1102 1.363 . S
C1101 H1104 0.929 . S
C1102 C1101 1.363 . S
C1102 C1108 1.428 . S
H1103 C1099 0.930 . S
H1104 C1101 0.929 . S
S1105 N1106 1.613 . S
S1105 N1107 1.610 1_455 S
N1106 S1105 1.613 . S
N1106 C1109 1.350 . S
N1107 S1105 1.610 1_655 S
N1107 C1108 1.351 . S
C1108 C1102 1.428 . S
C1108 N1107 1.351 . S
C1108 C1109 1.434 1_655 S
C1109 C1100 1.429 . S
C1109 N1106 1.350 . S
C1109 C1108 1.434 1_455 S
C1110 C1111 1.369 . S
C1110 C1112 1.419 . S
C1110 H1114 0.930 . S
C1111 C1110 1.369 . S
C1111 C1120 1.429 . S
C1112 C1110 1.419 . S
C1112 C1113 1.363 . S
C1112 H1115 0.929 . S
C1113 C1112 1.363 . S
C1113 C1119 1.428 . S
H1114 C1110 0.930 . S
H1115 C1112 0.929 . S
S1116 N1117 1.613 . S
S1116 N1118 1.610 . S
N1117 S1116 1.613 . S
N1117 C1120 1.350 . S
N1118 S1116 1.610 . S
N1118 C1119 1.351 . S
C1119 C1113 1.428 . S
C1119 N1118 1.351 . S
C1119 C1120 1.434 . S
C1120 C1111 1.429 . S
C1120 N1117 1.350 . S
C1120 C1119 1.434 . S
C1121 C1122 1.369 . S
C1121 C1123 1.419 . S
C1121 H1125 0.930 . S
C1122 C1121 1.369 . S
C1122 C1131 1.429 . S
C1123 C1121 1.419 . S
C1123 C1124 1.363 . S
C1123 H1126 0.929 . S
C1124 C1123 1.363 . S
C1124 C1130 1.428 . S
H1125 C1121 0.930 . S
H1126 C1123 0.929 . S
S1127 N1128 1.613 . S
S1127 N1129 1.610 . S
N1128 S1127 1.613 . S
N1128 C1131 1.350 . S
N1129 S1127 1.610 . S
N1129 C1130 1.351 . S
C1130 C1124 1.428 . S
C1130 N1129 1.351 . S
C1130 C1131 1.434 . S
C1131 C1122 1.429 . S
C1131 N1128 1.350 . S
C1131 C1130 1.434 . S
C1132 C1133 1.369 . S
C1132 C1134 1.419 . S
C1132 H1136 0.930 . S
C1133 C1132 1.369 . S
C1133 C1142 1.429 . S
C1134 C1132 1.419 . S
C1134 C1135 1.363 . S
C1134 H1137 0.929 . S
C1135 C1134 1.363 . S
C1135 C1141 1.428 . S
H1136 C1132 0.930 . S
H1137 C1134 0.929 . S
S1138 N1139 1.613 . S
S1138 N1140 1.610 . S
N1139 S1138 1.613 . S
N1139 C1142 1.350 . S
N1140 S1138 1.610 . S
N1140 C1141 1.351 . S
C1141 C1135 1.428 . S
C1141 N1140 1.351 . S
C1141 C1142 1.434 . S
C1142 C1133 1.429 . S
C1142 N1139 1.350 . S
C1142 C1141 1.434 . S
C1143 C1144 1.369 . S
C1143 C1145 1.419 . S
C1143 H1147 0.930 . S
C1144 C1143 1.369 . S
C1144 C1153 1.429 . S
C1145 C1143 1.419 . S
C1145 C1146 1.363 . S
C1145 H1148 0.929 . S
C1146 C1145 1.363 . S
C1146 C1152 1.428 . S
H1147 C1143 0.930 . S
H1148 C1145 0.929 . S
S1149 N1150 1.613 . S
S1149 N1151 1.610 . S
N1150 S1149 1.613 . S
N1150 C1153 1.350 . S
N1151 S1149 1.610 . S
N1151 C1152 1.351 . S
C1152 C1146 1.428 . S
C1152 N1151 1.351 . S
C1152 C1153 1.434 . S
C1153 C1144 1.429 . S
C1153 N1150 1.350 . S
C1153 C1152 1.434 . S
C1154 C1155 1.369 . S
C1154 C1156 1.419 . S
C1154 H1158 0.930 . S
C1155 C1154 1.369 . S
C1155 C1164 1.429 . S
C1156 C1154 1.419 . S
C1156 C1157 1.363 . S
C1156 H1159 0.929 . S
C1157 C1156 1.363 . S
C1157 C1163 1.428 . S
H1158 C1154 0.930 . S
H1159 C1156 0.929 . S
S1160 N1161 1.613 . S
S1160 N1162 1.610 . S
N1161 S1160 1.613 . S
N1161 C1164 1.350 . S
N1162 S1160 1.610 . S
N1162 C1163 1.351 . S
C1163 C1157 1.428 . S
C1163 N1162 1.351 . S
C1163 C1164 1.434 . S
C1164 C1155 1.429 . S
C1164 N1161 1.350 . S
C1164 C1163 1.434 . S
C1165 C1166 1.369 . S
C1165 C1167 1.419 1_455 S
C1165 H1169 0.930 . S
C1166 C1165 1.369 . S
C1166 C1175 1.429 . S
C1167 C1165 1.419 1_655 S
C1167 C1168 1.363 . S
C1167 H1170 0.929 . S
C1168 C1167 1.363 . S
C1168 C1174 1.428 . S
H1169 C1165 0.930 . S
H1170 C1167 0.929 . S
S1171 N1172 1.613 . S
S1171 N1173 1.610 1_455 S
N1172 S1171 1.613 . S
N1172 C1175 1.350 . S
N1173 S1171 1.610 1_655 S
N1173 C1174 1.351 . S
C1174 C1168 1.428 . S
C1174 N1173 1.351 . S
C1174 C1175 1.434 1_655 S
C1175 C1166 1.429 . S
C1175 N1172 1.350 . S
C1175 C1174 1.434 1_455 S
C1176 C1177 1.369 . S
C1176 C1178 1.419 . S
C1176 H1180 0.930 . S
C1177 C1176 1.369 . S
C1177 C1186 1.429 . S
C1178 C1176 1.419 . S
C1178 C1179 1.363 . S
C1178 H1181 0.929 . S
C1179 C1178 1.363 . S
C1179 C1185 1.428 . S
H1180 C1176 0.930 . S
H1181 C1178 0.929 . S
S1182 N1183 1.613 . S
S1182 N1184 1.610 . S
N1183 S1182 1.613 . S
N1183 C1186 1.350 . S
N1184 S1182 1.610 . S
N1184 C1185 1.351 . S
C1185 C1179 1.428 . S
C1185 N1184 1.351 . S
C1185 C1186 1.434 . S
C1186 C1177 1.429 . S
C1186 N1183 1.350 . S
C1186 C1185 1.434 . S
C1187 C1188 1.369 . S
C1187 C1189 1.419 1_455 S
C1187 H1191 0.930 . S
C1188 C1187 1.369 . S
C1188 C1197 1.429 . S
C1189 C1187 1.419 1_655 S
C1189 C1190 1.363 . S
C1189 H1192 0.929 . S
C1190 C1189 1.363 . S
C1190 C1196 1.428 . S
H1191 C1187 0.930 . S
H1192 C1189 0.929 . S
S1193 N1194 1.613 1_655 S
S1193 N1195 1.610 . S
N1194 S1193 1.613 1_455 S
N1194 C1197 1.350 . S
N1195 S1193 1.610 . S
N1195 C1196 1.351 . S
C1196 C1190 1.428 . S
C1196 N1195 1.351 . S
C1196 C1197 1.434 1_655 S
C1197 C1188 1.429 . S
C1197 N1194 1.350 . S
C1197 C1196 1.434 1_455 S
C1198 C1199 1.369 . S
C1198 C1200 1.419 . S
C1198 H1202 0.930 . S
C1199 C1198 1.369 . S
C1199 C1208 1.429 . S
C1200 C1198 1.419 . S
C1200 C1201 1.363 . S
C1200 H1203 0.929 . S
C1201 C1200 1.363 . S
C1201 C1207 1.428 . S
H1202 C1198 0.930 . S
H1203 C1200 0.929 . S
S1204 N1205 1.613 . S
S1204 N1206 1.610 . S
N1205 S1204 1.613 . S
N1205 C1208 1.350 . S
N1206 S1204 1.610 . S
N1206 C1207 1.351 . S
C1207 C1201 1.428 . S
C1207 N1206 1.351 . S
C1207 C1208 1.434 . S
C1208 C1199 1.429 . S
C1208 N1205 1.350 . S
C1208 C1207 1.434 . S
C1209 C1210 1.369 . S
C1209 C1211 1.419 . S
C1209 H1213 0.930 . S
C1210 C1209 1.369 . S
C1210 C1219 1.429 . S
C1211 C1209 1.419 . S
C1211 C1212 1.363 . S
C1211 H1214 0.929 . S
C1212 C1211 1.363 . S
C1212 C1218 1.428 . S
H1213 C1209 0.930 . S
H1214 C1211 0.929 . S
S1215 N1216 1.613 . S
S1215 N1217 1.610 . S
N1216 S1215 1.613 . S
N1216 C1219 1.350 . S
N1217 S1215 1.610 . S
N1217 C1218 1.351 . S
C1218 C1212 1.428 . S
C1218 N1217 1.351 . S
C1218 C1219 1.434 . S
C1219 C1210 1.429 . S
C1219 N1216 1.350 . S
C1219 C1218 1.434 . S
C1220 C1221 1.369 . S
C1220 C1222 1.419 . S
C1220 H1224 0.930 . S
C1221 C1220 1.369 . S
C1221 C1230 1.429 . S
C1222 C1220 1.419 . S
C1222 C1223 1.363 . S
C1222 H1225 0.929 . S
C1223 C1222 1.363 . S
C1223 C1229 1.428 . S
H1224 C1220 0.930 . S
H1225 C1222 0.929 . S
S1226 N1227 1.613 . S
S1226 N1228 1.610 . S
N1227 S1226 1.613 . S
N1227 C1230 1.350 . S
N1228 S1226 1.610 . S
N1228 C1229 1.351 . S
C1229 C1223 1.428 . S
C1229 N1228 1.351 . S
C1229 C1230 1.434 . S
C1230 C1221 1.429 . S
C1230 N1227 1.350 . S
C1230 C1229 1.434 . S
C1231 C1232 1.369 . S
C1231 C1233 1.419 . S
C1231 H1235 0.930 . S
C1232 C1231 1.369 . S
C1232 C1241 1.429 . S
C1233 C1231 1.419 . S
C1233 C1234 1.363 . S
C1233 H1236 0.929 . S
C1234 C1233 1.363 . S
C1234 C1240 1.428 . S
H1235 C1231 0.930 . S
H1236 C1233 0.929 . S
S1237 N1238 1.613 . S
S1237 N1239 1.610 . S
N1238 S1237 1.613 . S
N1238 C1241 1.350 . S
N1239 S1237 1.610 . S
N1239 C1240 1.351 . S
C1240 C1234 1.428 . S
C1240 N1239 1.351 . S
C1240 C1241 1.434 . S
C1241 C1232 1.429 . S
C1241 N1238 1.350 . S
C1241 C1240 1.434 . S
C1242 C1243 1.369 . S
C1242 C1244 1.419 . S
C1242 H1246 0.930 . S
C1243 C1242 1.369 . S
C1243 C1252 1.429 . S
C1244 C1242 1.419 . S
C1244 C1245 1.363 . S
C1244 H1247 0.929 . S
C1245 C1244 1.363 . S
C1245 C1251 1.428 . S
H1246 C1242 0.930 . S
H1247 C1244 0.929 . S
S1248 N1249 1.613 . S
S1248 N1250 1.610 . S
N1249 S1248 1.613 . S
N1249 C1252 1.350 . S
N1250 S1248 1.610 . S
N1250 C1251 1.351 . S
C1251 C1245 1.428 . S
C1251 N1250 1.351 . S
C1251 C1252 1.434 . S
C1252 C1243 1.429 . S
C1252 N1249 1.350 . S
C1252 C1251 1.434 . S
C1253 C1254 1.369 . S
C1253 C1255 1.419 1_655 S
C1253 H1257 0.930 . S
C1254 C1253 1.369 . S
C1254 C1263 1.429 . S
C1255 C1253 1.419 1_455 S
C1255 C1256 1.363 . S
C1255 H1258 0.929 . S
C1256 C1255 1.363 . S
C1256 C1262 1.428 . S
H1257 C1253 0.930 . S
H1258 C1255 0.929 . S
S1259 N1260 1.613 . S
S1259 N1261 1.610 1_655 S
N1260 S1259 1.613 . S
N1260 C1263 1.350 . S
N1261 S1259 1.610 1_455 S
N1261 C1262 1.351 . S
C1262 C1256 1.428 . S
C1262 N1261 1.351 . S
C1262 C1263 1.434 1_455 S
C1263 C1254 1.429 . S
C1263 N1260 1.350 . S
C1263 C1262 1.434 1_655 S
C1264 C1265 1.369 . S
C1264 C1266 1.419 . S
C1264 H1268 0.930 . S
C1265 C1264 1.369 . S
C1265 C1274 1.429 . S
C1266 C1264 1.419 . S
C1266 C1267 1.363 . S
C1266 H1269 0.929 . S
C1267 C1266 1.363 . S
C1267 C1273 1.428 . S
H1268 C1264 0.930 . S
H1269 C1266 0.929 . S
S1270 N1271 1.613 . S
S1270 N1272 1.610 . S
N1271 S1270 1.613 . S
N1271 C1274 1.350 . S
N1272 S1270 1.610 . S
N1272 C1273 1.351 . S
C1273 C1267 1.428 . S
C1273 N1272 1.351 . S
C1273 C1274 1.434 . S
C1274 C1265 1.429 . S
C1274 N1271 1.350 . S
C1274 C1273 1.434 . S
C1275 C1276 1.369 . S
C1275 C1277 1.419 . S
C1275 H1279 0.930 . S
C1276 C1275 1.369 . S
C1276 C1285 1.429 . S
C1277 C1275 1.419 . S
C1277 C1278 1.363 . S
C1277 H1280 0.929 . S
C1278 C1277 1.363 . S
C1278 C1284 1.428 . S
H1279 C1275 0.930 . S
H1280 C1277 0.929 . S
S1281 N1282 1.613 . S
S1281 N1283 1.610 . S
N1282 S1281 1.613 . S
N1282 C1285 1.350 . S
N1283 S1281 1.610 . S
N1283 C1284 1.351 . S
C1284 C1278 1.428 . S
C1284 N1283 1.351 . S
C1284 C1285 1.434 . S
C1285 C1276 1.429 . S
C1285 N1282 1.350 . S
C1285 C1284 1.434 . S
C1286 C1287 1.369 . S
C1286 C1288 1.419 . S
C1286 H1290 0.930 . S
C1287 C1286 1.369 . S
C1287 C1296 1.429 . S
C1288 C1286 1.419 . S
C1288 C1289 1.363 . S
C1288 H1291 0.929 . S
C1289 C1288 1.363 . S
C1289 C1295 1.428 . S
H1290 C1286 0.930 . S
H1291 C1288 0.929 . S
S1292 N1293 1.613 . S
S1292 N1294 1.610 . S
N1293 S1292 1.613 . S
N1293 C1296 1.350 . S
N1294 S1292 1.610 . S
N1294 C1295 1.351 . S
C1295 C1289 1.428 . S
C1295 N1294 1.351 . S
C1295 C1296 1.434 . S
C1296 C1287 1.429 . S
C1296 N1293 1.350 . S
C1296 C1295 1.434 . S
C1297 C1298 1.369 . S
C1297 C1299 1.419 1_655 S
C1297 H1301 0.930 . S
C1298 C1297 1.369 . S
C1298 C1307 1.429 . S
C1299 C1297 1.419 1_455 S
C1299 C1300 1.363 . S
C1299 H1302 0.929 . S
C1300 C1299 1.363 . S
C1300 C1306 1.428 . S
H1301 C1297 0.930 . S
H1302 C1299 0.929 . S
S1303 N1304 1.613 . S
S1303 N1305 1.610 1_655 S
N1304 S1303 1.613 . S
N1304 C1307 1.350 . S
N1305 S1303 1.610 1_455 S
N1305 C1306 1.351 . S
C1306 C1300 1.428 . S
C1306 N1305 1.351 . S
C1306 C1307 1.434 1_455 S
C1307 C1298 1.429 . S
C1307 N1304 1.350 . S
C1307 C1306 1.434 1_655 S
C1308 C1309 1.369 . S
C1308 C1310 1.419 . S
C1308 H1312 0.930 . S
C1309 C1308 1.369 . S
C1309 C1318 1.429 . S
C1310 C1308 1.419 . S
C1310 C1311 1.363 . S
C1310 H1313 0.929 . S
C1311 C1310 1.363 . S
C1311 C1317 1.428 . S
H1312 C1308 0.930 . S
H1313 C1310 0.929 . S
S1314 N1315 1.613 . S
S1314 N1316 1.610 . S
N1315 S1314 1.613 . S
N1315 C1318 1.350 . S
N1316 S1314 1.610 . S
N1316 C1317 1.351 . S
C1317 C1311 1.428 . S
C1317 N1316 1.351 . S
C1317 C1318 1.434 . S
C1318 C1309 1.429 . S
C1318 N1315 1.350 . S
C1318 C1317 1.434 . S
C1319 C1320 1.369 . S
C1319 C1321 1.419 1_655 S
C1319 H1323 0.930 . S
C1320 C1319 1.369 . S
C1320 C1329 1.429 . S
C1321 C1319 1.419 1_455 S
C1321 C1322 1.363 . S
C1321 H1324 0.929 . S
C1322 C1321 1.363 . S
C1322 C1328 1.428 . S
H1323 C1319 0.930 . S
H1324 C1321 0.929 . S
S1325 N1326 1.603 1_455 S
S1325 N1327 1.619 . S
N1326 S1325 1.603 1_655 S
N1326 C1329 1.350 . S
N1327 S1325 1.619 . S
N1327 C1328 1.351 . S
C1328 C1322 1.428 . S
C1328 N1327 1.351 . S
C1328 C1329 1.434 1_455 S
C1329 C1320 1.429 . S
C1329 N1326 1.350 . S
C1329 C1328 1.434 1_655 S
C1330 C1331 1.369 . S
C1330 C1332 1.419 . S
C1330 H1334 0.930 . S
C1331 C1330 1.369 . S
C1331 C1340 1.429 . S
C1332 C1330 1.419 . S
C1332 C1333 1.363 . S
C1332 H1335 0.929 . S
C1333 C1332 1.363 . S
C1333 C1339 1.428 . S
H1334 C1330 0.930 . S
H1335 C1332 0.929 . S
S1336 N1337 1.613 . S
S1336 N1338 1.610 . S
N1337 S1336 1.613 . S
N1337 C1340 1.350 . S
N1338 S1336 1.610 . S
N1338 C1339 1.351 . S
C1339 C1333 1.428 . S
C1339 N1338 1.351 . S
C1339 C1340 1.434 . S
C1340 C1331 1.429 . S
C1340 N1337 1.350 . S
C1340 C1339 1.434 . S
C1341 C1342 1.369 . S
C1341 C1343 1.419 . S
C1341 H1345 0.930 . S
C1342 C1341 1.369 . S
C1342 C1351 1.429 . S
C1343 C1341 1.419 . S
C1343 C1344 1.363 . S
C1343 H1346 0.929 . S
C1344 C1343 1.363 . S
C1344 C1350 1.428 . S
H1345 C1341 0.930 . S
H1346 C1343 0.929 . S
S1347 N1348 1.613 . S
S1347 N1349 1.610 . S
N1348 S1347 1.613 . S
N1348 C1351 1.350 . S
N1349 S1347 1.610 . S
N1349 C1350 1.351 . S
C1350 C1344 1.428 . S
C1350 N1349 1.351 . S
C1350 C1351 1.434 . S
C1351 C1342 1.429 . S
C1351 N1348 1.350 . S
C1351 C1350 1.434 . S
C1352 C1353 1.369 . S
C1352 C1354 1.419 . S
C1352 H1356 0.930 . S
C1353 C1352 1.369 . S
C1353 C1362 1.429 . S
C1354 C1352 1.419 . S
C1354 C1355 1.363 . S
C1354 H1357 0.929 . S
C1355 C1354 1.363 . S
C1355 C1361 1.428 . S
H1356 C1352 0.930 . S
H1357 C1354 0.929 . S
S1358 N1359 1.613 . S
S1358 N1360 1.610 . S
N1359 S1358 1.613 . S
N1359 C1362 1.350 . S
N1360 S1358 1.610 . S
N1360 C1361 1.351 . S
C1361 C1355 1.428 . S
C1361 N1360 1.351 . S
C1361 C1362 1.434 . S
C1362 C1353 1.429 . S
C1362 N1359 1.350 . S
C1362 C1361 1.434 . S
C1363 C1364 1.369 . S
C1363 C1365 1.419 . S
C1363 H1367 0.930 . S
C1364 C1363 1.369 . S
C1364 C1373 1.429 . S
C1365 C1363 1.419 . S
C1365 C1366 1.363 . S
C1365 H1368 0.929 . S
C1366 C1365 1.363 . S
C1366 C1372 1.428 . S
H1367 C1363 0.930 . S
H1368 C1365 0.929 . S
S1369 N1370 1.613 . S
S1369 N1371 1.610 . S
N1370 S1369 1.613 . S
N1370 C1373 1.350 . S
N1371 S1369 1.610 . S
N1371 C1372 1.351 . S
C1372 C1366 1.428 . S
C1372 N1371 1.351 . S
C1372 C1373 1.434 . S
C1373 C1364 1.429 . S
C1373 N1370 1.350 . S
C1373 C1372 1.434 . S
C1374 C1375 1.369 . S
C1374 C1376 1.419 . S
C1374 H1378 0.930 . S
C1375 C1374 1.369 . S
C1375 C1384 1.429 . S
C1376 C1374 1.419 . S
C1376 C1377 1.363 . S
C1376 H1379 0.929 . S
C1377 C1376 1.363 . S
C1377 C1383 1.428 . S
H1378 C1374 0.930 . S
H1379 C1376 0.929 . S
S1380 N1381 1.613 . S
S1380 N1382 1.610 . S
N1381 S1380 1.613 . S
N1381 C1384 1.350 . S
N1382 S1380 1.610 . S
N1382 C1383 1.351 . S
C1383 C1377 1.428 . S
C1383 N1382 1.351 . S
C1383 C1384 1.434 . S
C1384 C1375 1.429 . S
C1384 N1381 1.350 . S
C1384 C1383 1.434 . S
C1385 C1386 1.369 . S
C1385 C1387 1.419 1_655 S
C1385 H1389 0.930 . S
C1386 C1385 1.369 . S
C1386 C1395 1.429 . S
C1387 C1385 1.419 1_455 S
C1387 C1388 1.363 . S
C1387 H1390 0.929 . S
C1388 C1387 1.363 . S
C1388 C1394 1.428 . S
H1389 C1385 0.930 . S
H1390 C1387 0.929 . S
S1391 N1392 1.613 1_455 S
S1391 N1393 1.610 . S
N1392 S1391 1.613 1_655 S
N1392 C1395 1.350 . S
N1393 S1391 1.610 . S
N1393 C1394 1.351 . S
C1394 C1388 1.428 . S
C1394 N1393 1.351 . S
C1394 C1395 1.434 1_455 S
C1395 C1386 1.429 . S
C1395 N1392 1.350 . S
C1395 C1394 1.434 1_655 S
C1396 C1397 1.369 . S
C1396 C1398 1.419 . S
C1396 H1400 0.930 . S
C1397 C1396 1.369 . S
C1397 C1406 1.429 . S
C1398 C1396 1.419 . S
C1398 C1399 1.363 . S
C1398 H1401 0.929 . S
C1399 C1398 1.363 . S
C1399 C1405 1.428 . S
H1400 C1396 0.930 . S
H1401 C1398 0.929 . S
S1402 N1403 1.613 . S
S1402 N1404 1.610 . S
N1403 S1402 1.613 . S
N1403 C1406 1.350 . S
N1404 S1402 1.610 . S
N1404 C1405 1.351 . S
C1405 C1399 1.428 . S
C1405 N1404 1.351 . S
C1405 C1406 1.434 . S
C1406 C1397 1.429 . S
C1406 N1403 1.350 . S
C1406 C1405 1.434 . S
C1407 C1408 1.369 . S
C1407 C1409 1.419 1_455 S
C1407 H1411 0.930 . S
C1408 C1407 1.369 . S
C1408 C1417 1.429 . S
C1409 C1407 1.419 1_655 S
C1409 C1410 1.363 . S
C1409 H1412 0.929 . S
C1410 C1409 1.363 . S
C1410 C1416 1.428 . S
H1411 C1407 0.930 . S
H1412 C1409 0.929 . S
S1413 N1414 1.617 . S
S1413 N1415 1.607 1_455 S
N1414 S1413 1.617 . S
N1414 C1417 1.350 . S
N1415 S1413 1.607 1_655 S
N1415 C1416 1.351 . S
C1416 C1410 1.428 . S
C1416 N1415 1.351 . S
C1416 C1417 1.434 1_655 S
C1417 C1408 1.429 . S
C1417 N1414 1.350 . S
C1417 C1416 1.434 1_455 S
C1418 C1419 1.369 . S
C1418 C1420 1.419 . S
C1418 H1422 0.930 . S
C1419 C1418 1.369 . S
C1419 C1428 1.429 . S
C1420 C1418 1.419 . S
C1420 C1421 1.363 . S
C1420 H1423 0.929 . S
C1421 C1420 1.363 . S
C1421 C1427 1.428 . S
H1422 C1418 0.930 . S
H1423 C1420 0.929 . S
S1424 N1425 1.613 . S
S1424 N1426 1.610 . S
N1425 S1424 1.613 . S
N1425 C1428 1.350 . S
N1426 S1424 1.610 . S
N1426 C1427 1.351 . S
C1427 C1421 1.428 . S
C1427 N1426 1.351 . S
C1427 C1428 1.434 . S
C1428 C1419 1.429 . S
C1428 N1425 1.350 . S
C1428 C1427 1.434 . S
C1429 C1430 1.369 . S
C1429 C1431 1.419 . S
C1429 H1433 0.930 . S
C1430 C1429 1.369 . S
C1430 C1439 1.429 . S
C1431 C1429 1.419 . S
C1431 C1432 1.363 . S
C1431 H1434 0.929 . S
C1432 C1431 1.363 . S
C1432 C1438 1.428 . S
H1433 C1429 0.930 . S
H1434 C1431 0.929 . S
S1435 N1436 1.613 . S
S1435 N1437 1.610 . S
N1436 S1435 1.613 . S
N1436 C1439 1.350 . S
N1437 S1435 1.610 . S
N1437 C1438 1.351 . S
C1438 C1432 1.428 . S
C1438 N1437 1.351 . S
C1438 C1439 1.434 . S
C1439 C1430 1.429 . S
C1439 N1436 1.350 . S
C1439 C1438 1.434 . S
C1440 C1441 1.369 . S
C1440 C1442 1.419 1_545 S
C1440 H1444 0.930 . S
C1441 C1440 1.369 . S
C1441 C1450 1.429 . S
C1442 C1440 1.419 1_565 S
C1442 C1443 1.363 . S
C1442 H1445 0.929 . S
C1443 C1442 1.363 . S
C1443 C1449 1.428 . S
H1444 C1440 0.930 . S
H1445 C1442 0.929 . S
S1446 N1447 1.613 1_565 S
S1446 N1448 1.610 . S
N1447 S1446 1.613 1_545 S
N1447 C1450 1.350 . S
N1448 S1446 1.610 . S
N1448 C1449 1.351 . S
C1449 C1443 1.428 . S
C1449 N1448 1.351 . S
C1449 C1450 1.434 1_565 S
C1450 C1441 1.429 . S
C1450 N1447 1.350 . S
C1450 C1449 1.434 1_545 S
C1451 C1452 1.369 . S
C1451 C1453 1.419 . S
C1451 H1455 0.930 . S
C1452 C1451 1.369 . S
C1452 C1461 1.429 . S
C1453 C1451 1.419 . S
C1453 C1454 1.363 . S
C1453 H1456 0.929 . S
C1454 C1453 1.363 . S
C1454 C1460 1.428 . S
H1455 C1451 0.930 . S
H1456 C1453 0.929 . S
S1457 N1458 1.613 . S
S1457 N1459 1.610 . S
N1458 S1457 1.613 . S
N1458 C1461 1.350 . S
N1459 S1457 1.610 . S
N1459 C1460 1.351 . S
C1460 C1454 1.428 . S
C1460 N1459 1.351 . S
C1460 C1461 1.434 . S
C1461 C1452 1.429 . S
C1461 N1458 1.350 . S
C1461 C1460 1.434 . S
C1462 C1463 1.369 1_545 S
C1462 C1464 1.419 . S
C1462 H1466 0.930 . S
C1463 C1462 1.369 1_565 S
C1463 C1472 1.429 . S
C1464 C1462 1.419 . S
C1464 C1465 1.363 . S
C1464 H1467 0.929 . S
C1465 C1464 1.363 . S
C1465 C1471 1.428 1_545 S
H1466 C1462 0.930 . S
H1467 C1464 0.929 . S
S1468 N1469 1.613 . S
S1468 N1470 1.610 . S
N1469 S1468 1.613 . S
N1469 C1472 1.350 . S
N1470 S1468 1.610 . S
N1470 C1471 1.351 . S
C1471 C1465 1.428 1_565 S
C1471 N1470 1.351 . S
C1471 C1472 1.434 . S
C1472 C1463 1.429 . S
C1472 N1469 1.350 . S
C1472 C1471 1.434 . S
C1473 C1474 1.369 1_554 S
C1473 C1475 1.419 . S
C1473 H1477 0.930 . S
C1474 C1473 1.369 1_556 S
C1474 C1483 1.429 . S
C1475 C1473 1.419 . S
C1475 C1476 1.363 . S
C1475 H1478 0.929 . S
C1476 C1475 1.363 . S
C1476 C1482 1.428 1_554 S
H1477 C1473 0.930 . S
H1478 C1475 0.929 . S
S1479 N1480 1.613 . S
S1479 N1481 1.610 . S
N1480 S1479 1.613 . S
N1480 C1483 1.350 . S
N1481 S1479 1.610 . S
N1481 C1482 1.351 . S
C1482 C1476 1.428 1_556 S
C1482 N1481 1.351 . S
C1482 C1483 1.434 . S
C1483 C1474 1.429 . S
C1483 N1480 1.350 . S
C1483 C1482 1.434 . S
C1484 C1485 1.369 . S
C1484 C1486 1.419 1_545 S
C1484 H1488 0.930 . S
C1485 C1484 1.369 . S
C1485 C1494 1.429 . S
C1486 C1484 1.419 1_565 S
C1486 C1487 1.363 . S
C1486 H1489 0.929 . S
C1487 C1486 1.363 . S
C1487 C1493 1.428 . S
H1488 C1484 0.930 . S
H1489 C1486 0.929 . S
S1490 N1491 1.613 . S
S1490 N1492 1.610 1_545 S
N1491 S1490 1.613 . S
N1491 C1494 1.350 . S
N1492 S1490 1.610 1_565 S
N1492 C1493 1.351 . S
C1493 C1487 1.428 . S
C1493 N1492 1.351 . S
C1493 C1494 1.434 1_565 S
C1494 C1485 1.429 . S
C1494 N1491 1.350 . S
C1494 C1493 1.434 1_545 S
C1495 C1496 1.369 . S
C1495 C1497 1.419 . S
C1495 H1499 0.930 . S
C1496 C1495 1.369 . S
C1496 C1505 1.429 . S
C1497 C1495 1.419 . S
C1497 C1498 1.363 . S
C1497 H1500 0.929 . S
C1498 C1497 1.363 . S
C1498 C1504 1.428 . S
H1499 C1495 0.930 . S
H1500 C1497 0.929 . S
S1501 N1502 1.613 . S
S1501 N1503 1.610 . S
N1502 S1501 1.613 . S
N1502 C1505 1.350 . S
N1503 S1501 1.610 . S
N1503 C1504 1.351 . S
C1504 C1498 1.428 . S
C1504 N1503 1.351 . S
C1504 C1505 1.434 . S
C1505 C1496 1.429 . S
C1505 N1502 1.350 . S
C1505 C1504 1.434 . S
C1506 C1507 1.369 1_565 S
C1506 C1508 1.419 . S
C1506 H1510 0.930 . S
C1507 C1506 1.369 1_545 S
C1507 C1516 1.429 . S
C1508 C1506 1.419 . S
C1508 C1509 1.363 . S
C1508 H1511 0.929 . S
C1509 C1508 1.363 . S
C1509 C1515 1.428 1_565 S
H1510 C1506 0.930 . S
H1511 C1508 0.929 . S
S1512 N1513 1.613 . S
S1512 N1514 1.610 . S
N1513 S1512 1.613 . S
N1513 C1516 1.350 . S
N1514 S1512 1.610 . S
N1514 C1515 1.351 . S
C1515 C1509 1.428 1_545 S
C1515 N1514 1.351 . S
C1515 C1516 1.434 . S
C1516 C1507 1.429 . S
C1516 N1513 1.350 . S
C1516 C1515 1.434 . S
C1517 C1518 1.369 1_554 S
C1517 C1519 1.419 . S
C1517 H1521 0.930 . S
C1518 C1517 1.369 1_556 S
C1518 C1527 1.429 . S
C1519 C1517 1.419 . S
C1519 C1520 1.363 . S
C1519 H1522 0.929 . S
C1520 C1519 1.363 . S
C1520 C1526 1.428 1_554 S
H1521 C1517 0.930 . S
H1522 C1519 0.929 . S
S1523 N1524 1.613 . S
S1523 N1525 1.610 . S
N1524 S1523 1.613 . S
N1524 C1527 1.350 . S
N1525 S1523 1.610 . S
N1525 C1526 1.351 . S
C1526 C1520 1.428 1_556 S
C1526 N1525 1.351 . S
C1526 C1527 1.434 . S
C1527 C1518 1.429 . S
C1527 N1524 1.350 . S
C1527 C1526 1.434 . S
C1528 C1529 1.369 . S
C1528 C1530 1.419 . S
C1528 H1532 0.930 . S
C1529 C1528 1.369 . S
C1529 C1538 1.429 . S
C1530 C1528 1.419 . S
C1530 C1531 1.363 . S
C1530 H1533 0.929 . S
C1531 C1530 1.363 . S
C1531 C1537 1.428 . S
H1532 C1528 0.930 . S
H1533 C1530 0.929 . S
S1534 N1535 1.613 . S
S1534 N1536 1.610 . S
N1535 S1534 1.613 . S
N1535 C1538 1.350 . S
N1536 S1534 1.610 . S
N1536 C1537 1.351 . S
C1537 C1531 1.428 . S
C1537 N1536 1.351 . S
C1537 C1538 1.434 . S
C1538 C1529 1.429 . S
C1538 N1535 1.350 . S
C1538 C1537 1.434 . S
C1539 C1540 1.369 1_554 S
C1539 C1541 1.419 . S
C1539 H1543 0.930 . S
C1540 C1539 1.369 1_556 S
C1540 C1549 1.429 . S
C1541 C1539 1.419 . S
C1541 C1542 1.363 . S
C1541 H1544 0.929 . S
C1542 C1541 1.363 . S
C1542 C1548 1.428 1_554 S
H1543 C1539 0.930 . S
H1544 C1541 0.929 . S
S1545 N1546 1.613 . S
S1545 N1547 1.610 . S
N1546 S1545 1.613 . S
N1546 C1549 1.350 . S
N1547 S1545 1.610 . S
N1547 C1548 1.351 . S
C1548 C1542 1.428 1_556 S
C1548 N1547 1.351 . S
C1548 C1549 1.434 . S
C1549 C1540 1.429 . S
C1549 N1546 1.350 . S
C1549 C1548 1.434 . S
C1550 C1551 1.369 . S
C1550 C1552 1.419 . S
C1550 H1554 0.930 . S
C1551 C1550 1.369 . S
C1551 C1560 1.429 . S
C1552 C1550 1.419 . S
C1552 C1553 1.363 . S
C1552 H1555 0.929 . S
C1553 C1552 1.363 . S
C1553 C1559 1.428 . S
H1554 C1550 0.930 . S
H1555 C1552 0.929 . S
S1556 N1557 1.613 . S
S1556 N1558 1.610 . S
N1557 S1556 1.613 . S
N1557 C1560 1.350 . S
N1558 S1556 1.610 . S
N1558 C1559 1.351 . S
C1559 C1553 1.428 . S
C1559 N1558 1.351 . S
C1559 C1560 1.434 . S
C1560 C1551 1.429 . S
C1560 N1557 1.350 . S
C1560 C1559 1.434 . S
C1561 C1562 1.369 . S
C1561 C1563 1.419 . S
C1561 H1565 0.930 . S
C1562 C1561 1.369 . S
C1562 C1571 1.429 . S
C1563 C1561 1.419 . S
C1563 C1564 1.363 . S
C1563 H1566 0.929 . S
C1564 C1563 1.363 . S
C1564 C1570 1.428 . S
H1565 C1561 0.930 . S
H1566 C1563 0.929 . S
S1567 N1568 1.613 . S
S1567 N1569 1.610 . S
N1568 S1567 1.613 . S
N1568 C1571 1.350 . S
N1569 S1567 1.610 . S
N1569 C1570 1.351 . S
C1570 C1564 1.428 . S
C1570 N1569 1.351 . S
C1570 C1571 1.434 . S
C1571 C1562 1.429 . S
C1571 N1568 1.350 . S
C1571 C1570 1.434 . S
C1572 C1573 1.369 . S
C1572 C1574 1.419 . S
C1572 H1576 0.930 . S
C1573 C1572 1.369 . S
C1573 C1582 1.429 . S
C1574 C1572 1.419 . S
C1574 C1575 1.363 . S
C1574 H1577 0.929 . S
C1575 C1574 1.363 . S
C1575 C1581 1.428 . S
H1576 C1572 0.930 . S
H1577 C1574 0.929 . S
S1578 N1579 1.613 . S
S1578 N1580 1.610 . S
N1579 S1578 1.613 . S
N1579 C1582 1.350 . S
N1580 S1578 1.610 . S
N1580 C1581 1.351 . S
C1581 C1575 1.428 . S
C1581 N1580 1.351 . S
C1581 C1582 1.434 . S
C1582 C1573 1.429 . S
C1582 N1579 1.350 . S
C1582 C1581 1.434 . S
C1583 C1584 1.369 . S
C1583 C1585 1.419 1_556 S
C1583 H1587 0.931 . S
C1584 C1583 1.369 . S
C1584 C1593 1.429 . S
C1585 C1583 1.419 1_554 S
C1585 C1586 1.363 . S
C1585 H1588 0.929 . S
C1586 C1585 1.363 . S
C1586 C1592 1.428 1_554 S
H1587 C1583 0.931 . S
H1588 C1585 0.929 . S
S1589 N1590 1.613 . S
S1589 N1591 1.610 . S
N1590 S1589 1.613 . S
N1590 C1593 1.350 . S
N1591 S1589 1.610 . S
N1591 C1592 1.351 . S
C1592 C1586 1.428 1_556 S
C1592 N1591 1.351 . S
C1592 C1593 1.434 . S
C1593 C1584 1.429 . S
C1593 N1590 1.350 . S
C1593 C1592 1.434 . S
C1594 C1595 1.369 . S
C1594 C1596 1.419 . S
C1594 H1598 0.930 . S
C1595 C1594 1.369 . S
C1595 C1604 1.429 . S
C1596 C1594 1.419 . S
C1596 C1597 1.363 . S
C1596 H1599 0.929 . S
C1597 C1596 1.363 . S
C1597 C1603 1.428 . S
H1598 C1594 0.930 . S
H1599 C1596 0.929 . S
S1600 N1601 1.613 . S
S1600 N1602 1.610 . S
N1601 S1600 1.613 . S
N1601 C1604 1.350 . S
N1602 S1600 1.610 . S
N1602 C1603 1.351 . S
C1603 C1597 1.428 . S
C1603 N1602 1.351 . S
C1603 C1604 1.434 . S
C1604 C1595 1.429 . S
C1604 N1601 1.350 . S
C1604 C1603 1.434 . S
C1605 C1606 1.369 . S
C1605 C1607 1.419 . S
C1605 H1609 0.930 . S
C1606 C1605 1.369 . S
C1606 C1615 1.429 . S
C1607 C1605 1.419 . S
C1607 C1608 1.363 . S
C1607 H1610 0.929 . S
C1608 C1607 1.363 . S
C1608 C1614 1.428 . S
H1609 C1605 0.930 . S
H1610 C1607 0.929 . S
S1611 N1612 1.613 . S
S1611 N1613 1.610 . S
N1612 S1611 1.613 . S
N1612 C1615 1.350 . S
N1613 S1611 1.610 . S
N1613 C1614 1.351 . S
C1614 C1608 1.428 . S
C1614 N1613 1.351 . S
C1614 C1615 1.434 . S
C1615 C1606 1.429 . S
C1615 N1612 1.350 . S
C1615 C1614 1.434 . S
C1616 C1617 1.369 . S
C1616 C1618 1.419 . S
C1616 H1620 0.930 . S
C1617 C1616 1.369 . S
C1617 C1626 1.429 . S
C1618 C1616 1.419 . S
C1618 C1619 1.363 . S
C1618 H1621 0.929 . S
C1619 C1618 1.363 . S
C1619 C1625 1.428 . S
H1620 C1616 0.930 . S
H1621 C1618 0.929 . S
S1622 N1623 1.613 . S
S1622 N1624 1.610 . S
N1623 S1622 1.613 . S
N1623 C1626 1.350 . S
N1624 S1622 1.610 . S
N1624 C1625 1.351 . S
C1625 C1619 1.428 . S
C1625 N1624 1.351 . S
C1625 C1626 1.434 . S
C1626 C1617 1.429 . S
C1626 N1623 1.350 . S
C1626 C1625 1.434 . S
C1627 C1628 1.369 . S
C1627 C1629 1.419 . S
C1627 H1631 0.930 . S
C1628 C1627 1.369 . S
C1628 C1637 1.429 . S
C1629 C1627 1.419 . S
C1629 C1630 1.363 . S
C1629 H1632 0.929 . S
C1630 C1629 1.363 . S
C1630 C1636 1.428 . S
H1631 C1627 0.930 . S
H1632 C1629 0.929 . S
S1633 N1634 1.613 . S
S1633 N1635 1.610 . S
N1634 S1633 1.613 . S
N1634 C1637 1.350 . S
N1635 S1633 1.610 . S
N1635 C1636 1.351 . S
C1636 C1630 1.428 . S
C1636 N1635 1.351 . S
C1636 C1637 1.434 . S
C1637 C1628 1.429 . S
C1637 N1634 1.350 . S
C1637 C1636 1.434 . S
C1638 C1639 1.369 . S
C1638 C1640 1.419 . S
C1638 H1642 0.930 . S
C1639 C1638 1.369 . S
C1639 C1648 1.429 . S
C1640 C1638 1.419 . S
C1640 C1641 1.363 . S
C1640 H1643 0.929 . S
C1641 C1640 1.363 . S
C1641 C1647 1.428 . S
H1642 C1638 0.930 . S
H1643 C1640 0.929 . S
S1644 N1645 1.613 . S
S1644 N1646 1.610 . S
N1645 S1644 1.613 . S
N1645 C1648 1.350 . S
N1646 S1644 1.610 . S
N1646 C1647 1.351 . S
C1647 C1641 1.428 . S
C1647 N1646 1.351 . S
C1647 C1648 1.434 . S
C1648 C1639 1.429 . S
C1648 N1645 1.350 . S
C1648 C1647 1.434 . S
C1649 C1650 1.369 . S
C1649 C1651 1.419 . S
C1649 H1653 0.930 . S
C1650 C1649 1.369 . S
C1650 C1659 1.429 . S
C1651 C1649 1.419 . S
C1651 C1652 1.363 . S
C1651 H1654 0.929 . S
C1652 C1651 1.363 . S
C1652 C1658 1.428 . S
H1653 C1649 0.930 . S
H1654 C1651 0.929 . S
S1655 N1656 1.613 . S
S1655 N1657 1.610 . S
N1656 S1655 1.613 . S
N1656 C1659 1.350 . S
N1657 S1655 1.610 . S
N1657 C1658 1.351 . S
C1658 C1652 1.428 . S
C1658 N1657 1.351 . S
C1658 C1659 1.434 . S
C1659 C1650 1.429 . S
C1659 N1656 1.350 . S
C1659 C1658 1.434 . S
C1660 C1661 1.369 . S
C1660 C1662 1.419 . S
C1660 H1664 0.930 . S
C1661 C1660 1.369 . S
C1661 C1670 1.429 . S
C1662 C1660 1.419 . S
C1662 C1663 1.363 . S
C1662 H1665 0.929 . S
C1663 C1662 1.363 . S
C1663 C1669 1.428 . S
H1664 C1660 0.930 . S
H1665 C1662 0.929 . S
S1666 N1667 1.613 . S
S1666 N1668 1.610 . S
N1667 S1666 1.613 . S
N1667 C1670 1.350 . S
N1668 S1666 1.610 . S
N1668 C1669 1.351 . S
C1669 C1663 1.428 . S
C1669 N1668 1.351 . S
C1669 C1670 1.434 . S
C1670 C1661 1.429 . S
C1670 N1667 1.350 . S
C1670 C1669 1.434 . S
C1671 C1672 1.369 . S
C1671 C1673 1.419 . S
C1671 H1675 0.930 . S
C1672 C1671 1.369 . S
C1672 C1681 1.429 . S
C1673 C1671 1.419 . S
C1673 C1674 1.363 . S
C1673 H1676 0.929 . S
C1674 C1673 1.363 . S
C1674 C1680 1.428 . S
H1675 C1671 0.930 . S
H1676 C1673 0.929 . S
S1677 N1678 1.613 . S
S1677 N1679 1.610 . S
N1678 S1677 1.613 . S
N1678 C1681 1.350 . S
N1679 S1677 1.610 . S
N1679 C1680 1.351 . S
C1680 C1674 1.428 . S
C1680 N1679 1.351 . S
C1680 C1681 1.434 . S
C1681 C1672 1.429 . S
C1681 N1678 1.350 . S
C1681 C1680 1.434 . S
C1682 C1683 1.369 . S
C1682 C1684 1.419 . S
C1682 H1686 0.930 . S
C1683 C1682 1.369 . S
C1683 C1692 1.429 . S
C1684 C1682 1.419 . S
C1684 C1685 1.363 . S
C1684 H1687 0.929 . S
C1685 C1684 1.363 . S
C1685 C1691 1.428 . S
H1686 C1682 0.930 . S
H1687 C1684 0.929 . S
S1688 N1689 1.613 . S
S1688 N1690 1.610 . S
N1689 S1688 1.613 . S
N1689 C1692 1.350 . S
N1690 S1688 1.610 . S
N1690 C1691 1.351 . S
C1691 C1685 1.428 . S
C1691 N1690 1.351 . S
C1691 C1692 1.434 . S
C1692 C1683 1.429 . S
C1692 N1689 1.350 . S
C1692 C1691 1.434 . S
C1693 C1694 1.369 . S
C1693 C1695 1.419 . S
C1693 H1697 0.930 . S
C1694 C1693 1.369 . S
C1694 C1703 1.429 . S
C1695 C1693 1.419 . S
C1695 C1696 1.363 . S
C1695 H1698 0.929 . S
C1696 C1695 1.363 . S
C1696 C1702 1.428 . S
H1697 C1693 0.930 . S
H1698 C1695 0.929 . S
S1699 N1700 1.613 . S
S1699 N1701 1.610 . S
N1700 S1699 1.613 . S
N1700 C1703 1.350 . S
N1701 S1699 1.610 . S
N1701 C1702 1.351 . S
C1702 C1696 1.428 . S
C1702 N1701 1.351 . S
C1702 C1703 1.434 . S
C1703 C1694 1.429 . S
C1703 N1700 1.350 . S
C1703 C1702 1.434 . S
C1704 C1705 1.369 . S
C1704 C1706 1.419 . S
C1704 H1708 0.930 . S
C1705 C1704 1.369 . S
C1705 C1714 1.429 . S
C1706 C1704 1.419 . S
C1706 C1707 1.363 . S
C1706 H1709 0.929 . S
C1707 C1706 1.363 . S
C1707 C1713 1.428 . S
H1708 C1704 0.930 . S
H1709 C1706 0.929 . S
S1710 N1711 1.613 . S
S1710 N1712 1.610 . S
N1711 S1710 1.613 . S
N1711 C1714 1.350 . S
N1712 S1710 1.610 . S
N1712 C1713 1.351 . S
C1713 C1707 1.428 . S
C1713 N1712 1.351 . S
C1713 C1714 1.434 . S
C1714 C1705 1.429 . S
C1714 N1711 1.350 . S
C1714 C1713 1.434 . S
C1715 C1716 1.369 . S
C1715 C1717 1.419 . S
C1715 H1719 0.930 . S
C1716 C1715 1.369 . S
C1716 C1725 1.429 . S
C1717 C1715 1.419 . S
C1717 C1718 1.363 . S
C1717 H1720 0.929 . S
C1718 C1717 1.363 . S
C1718 C1724 1.428 . S
H1719 C1715 0.930 . S
H1720 C1717 0.929 . S
S1721 N1722 1.613 . S
S1721 N1723 1.610 . S
N1722 S1721 1.613 . S
N1722 C1725 1.350 . S
N1723 S1721 1.610 . S
N1723 C1724 1.351 . S
C1724 C1718 1.428 . S
C1724 N1723 1.351 . S
C1724 C1725 1.434 . S
C1725 C1716 1.429 . S
C1725 N1722 1.350 . S
C1725 C1724 1.434 . S
C1726 C1727 1.369 . S
C1726 C1728 1.419 . S
C1726 H1730 0.930 . S
C1727 C1726 1.369 . S
C1727 C1736 1.429 . S
C1728 C1726 1.419 . S
C1728 C1729 1.363 . S
C1728 H1731 0.929 . S
C1729 C1728 1.363 . S
C1729 C1735 1.428 . S
H1730 C1726 0.930 . S
H1731 C1728 0.929 . S
S1732 N1733 1.613 . S
S1732 N1734 1.610 . S
N1733 S1732 1.613 . S
N1733 C1736 1.350 . S
N1734 S1732 1.610 . S
N1734 C1735 1.351 . S
C1735 C1729 1.428 . S
C1735 N1734 1.351 . S
C1735 C1736 1.434 . S
C1736 C1727 1.429 . S
C1736 N1733 1.350 . S
C1736 C1735 1.434 . S
C1737 C1738 1.369 . S
C1737 C1739 1.419 . S
C1737 H1741 0.930 . S
C1738 C1737 1.369 . S
C1738 C1747 1.429 . S
C1739 C1737 1.419 . S
C1739 C1740 1.363 . S
C1739 H1742 0.929 . S
C1740 C1739 1.363 . S
C1740 C1746 1.428 . S
H1741 C1737 0.930 . S
H1742 C1739 0.929 . S
S1743 N1744 1.613 . S
S1743 N1745 1.610 . S
N1744 S1743 1.613 . S
N1744 C1747 1.350 . S
N1745 S1743 1.610 . S
N1745 C1746 1.351 . S
C1746 C1740 1.428 . S
C1746 N1745 1.351 . S
C1746 C1747 1.434 . S
C1747 C1738 1.429 . S
C1747 N1744 1.350 . S
C1747 C1746 1.434 . S
C1748 C1749 1.369 . S
C1748 C1750 1.419 . S
C1748 H1752 0.930 . S
C1749 C1748 1.369 . S
C1749 C1758 1.429 . S
C1750 C1748 1.419 . S
C1750 C1751 1.363 . S
C1750 H1753 0.929 . S
C1751 C1750 1.363 . S
C1751 C1757 1.428 . S
H1752 C1748 0.930 . S
H1753 C1750 0.929 . S
S1754 N1755 1.613 . S
S1754 N1756 1.610 . S
N1755 S1754 1.613 . S
N1755 C1758 1.350 . S
N1756 S1754 1.610 . S
N1756 C1757 1.351 . S
C1757 C1751 1.428 . S
C1757 N1756 1.351 . S
C1757 C1758 1.434 . S
C1758 C1749 1.429 . S
C1758 N1755 1.350 . S
C1758 C1757 1.434 . S
C1759 C1760 1.369 . S
C1759 C1761 1.419 . S
C1759 H1763 0.930 . S
C1760 C1759 1.369 . S
C1760 C1769 1.429 . S
C1761 C1759 1.419 . S
C1761 C1762 1.363 . S
C1761 H1764 0.929 . S
C1762 C1761 1.363 . S
C1762 C1768 1.428 . S
H1763 C1759 0.930 . S
H1764 C1761 0.929 . S
S1765 N1766 1.613 . S
S1765 N1767 1.610 . S
N1766 S1765 1.613 . S
N1766 C1769 1.350 . S
N1767 S1765 1.610 . S
N1767 C1768 1.351 . S
C1768 C1762 1.428 . S
C1768 N1767 1.351 . S
C1768 C1769 1.434 . S
C1769 C1760 1.429 . S
C1769 N1766 1.350 . S
C1769 C1768 1.434 . S
C1770 C1771 1.369 . S
C1770 C1772 1.419 . S
C1770 H1774 0.930 . S
C1771 C1770 1.369 . S
C1771 C1780 1.429 . S
C1772 C1770 1.419 . S
C1772 C1773 1.363 . S
C1772 H1775 0.929 . S
C1773 C1772 1.363 . S
C1773 C1779 1.428 . S
H1774 C1770 0.930 . S
H1775 C1772 0.929 . S
S1776 N1777 1.613 . S
S1776 N1778 1.610 . S
N1777 S1776 1.613 . S
N1777 C1780 1.350 . S
N1778 S1776 1.610 . S
N1778 C1779 1.351 . S
C1779 C1773 1.428 . S
C1779 N1778 1.351 . S
C1779 C1780 1.434 . S
C1780 C1771 1.429 . S
C1780 N1777 1.350 . S
C1780 C1779 1.434 . S
C1781 C1782 1.369 . S
C1781 C1783 1.419 . S
C1781 H1785 0.930 . S
C1782 C1781 1.369 . S
C1782 C1791 1.429 . S
C1783 C1781 1.419 . S
C1783 C1784 1.363 . S
C1783 H1786 0.929 . S
C1784 C1783 1.363 . S
C1784 C1790 1.428 . S
H1785 C1781 0.930 . S
H1786 C1783 0.929 . S
S1787 N1788 1.613 . S
S1787 N1789 1.610 . S
N1788 S1787 1.613 . S
N1788 C1791 1.350 . S
N1789 S1787 1.610 . S
N1789 C1790 1.351 . S
C1790 C1784 1.428 . S
C1790 N1789 1.351 . S
C1790 C1791 1.434 . S
C1791 C1782 1.429 . S
C1791 N1788 1.350 . S
C1791 C1790 1.434 . S
C737 C19 1.690 . S
C739 C87 1.860 . S
C748 C21 1.849 . S
C750 C42 1.679 . S
C759 C66 1.675 . S
C761 C44 1.831 . S
C770 C64 1.854 . S
C772 C89 1.690 . S
C781 C136 1.852 . S
C783 C111 1.683 . S
C792 C134 1.706 . S
C794 C157 1.840 . S
C803 C182 1.843 . S
C805 C159 1.728 . S
C814 C113 1.840 . S
C816 C180 1.681 . S
C825 C203 1.683 . S
C827 C274 1.852 . S
C836 C226 1.689 . S
C838 C205 1.857 . S
C847 C249 1.674 . S
C849 C228 1.843 . S
C858 C272 1.681 . S
C860 C251 1.840 . S
C869 C295 1.687 . S
C871 C320 1.848 . S
C880 C318 1.669 . S
C882 C343 1.841 . S
C891 C366 1.841 . S
C893 C341 1.673 . S
C902 C297 1.843 . S
C904 C364 1.682 . S
C913 C387 1.686 . S
C915 C455 1.859 . S
C924 C389 1.851 . S
C926 C410 1.686 . S
C935 C412 1.830 . S
C937 C434 1.675 . S
C946 C457 1.688 . S
C948 C432 1.853 . S
C957 C479 1.681 . S
C959 C504 1.852 . S
C968 C525 1.835 . S
C970 C502 1.706 . S
C979 C527 1.731 . S
C981 C550 1.845 . S
C990 C481 1.839 . S
C992 C548 1.679 . S
C1001 C642 1.853 . S
C1003 C571 1.690 . S
C1012 C573 1.857 . S
C1014 C594 1.682 . S
C1023 C617 1.681 . S
C1025 C596 1.842 . S
C1034 C619 1.840 . S
C1036 C640 1.679 . S
C1045 C688 1.846 . S
C1047 C663 1.686 . S
C1056 C711 1.842 . S
C1058 C686 1.675 . S
C1067 C734 1.839 . S
C1069 C709 1.680 . S
C1078 C732 1.681 . S
C1080 C665 1.843 . S
C1089 C641 1.425 . S
C1091 C17 1.431 . S
C1100 C40 1.436 . S
C1102 C204 1.431 . S
C1111 C63 1.430 . S
C1113 C595 1.408 . S
C1122 C86 1.426 . S
C1124 C250 1.401 . S
C1133 C109 1.447 . S
C1135 C687 1.432 . S
C1144 C342 1.421 . S
C1146 C132 1.420 . S
C1155 C733 1.437 . S
C1157 C154 1.468 . S
C1166 C178 1.433 . S
C1168 C296 1.434 . S
C1177 C201 1.474 . S
C1179 C456 1.442 . S
C1188 C20 1.419 . S
C1190 C224 1.420 . S
C1199 C411 1.422 . S
C1201 C247 1.433 . S
C1210 C65 1.469 . S
C1212 C270 1.487 . S
C1221 C503 1.428 . S
C1223 C293 1.443 . S
C1232 C156 1.404 . S
C1234 C316 1.471 . S
C1243 C339 1.431 . S
C1245 C549 1.426 . S
C1254 C362 1.437 . S
C1256 C112 1.431 . S
C1265 C385 1.437 . S
C1267 C273 1.422 . S
C1276 C408 1.441 . S
C1278 C572 1.426 . S
C1287 C431 1.430 . S
C1289 C227 1.407 . S
C1298 C454 1.422 . S
C1300 C618 1.400 . S
C1309 C477 1.447 . S
C1311 C319 1.431 . S
C1320 C500 1.428 . S
C1322 C710 1.414 . S
C1331 C365 1.443 . S
C1333 C522 1.467 . S
C1342 C546 1.439 . S
C1344 C664 1.427 . S
C1353 C88 1.449 . S
C1355 C569 1.467 . S
C1364 C388 1.421 . S
C1366 C592 1.421 . S
C1375 C43 1.423 . S
C1377 C615 1.436 . S
C1386 C433 1.467 . S
C1388 C638 1.490 . S
C1397 C135 1.436 . S
C1399 C661 1.442 . S
C1408 C684 1.473 . S
C1410 C524 1.404 . S
C1419 C707 1.432 . S
C1421 C181 1.430 . S
C1430 C480 1.425 . S
C1432 C730 1.439 . S
C1441 C16 0.469 . S
C1443 C108 0.459 . S
C1452 C39 0.466 . S
C1454 C131 0.476 . S
C1463 C62 0.452 . S
C1465 C155 0.467 . S
C1474 C177 0.468 . S
C1476 C85 0.463 . S
C1485 C292 0.455 . S
C1487 C200 0.459 . S
C1496 C315 0.468 . S
C1498 C223 0.465 . S
C1507 C246 0.462 . S
C1509 C338 0.476 . S
C1518 C269 0.476 . S
C1520 C361 0.465 . S
C1529 C384 0.468 . S
C1531 C476 0.462 . S
C1540 C499 0.470 . S
C1542 C407 0.463 . S
C1551 C523 0.458 . S
C1553 C430 0.462 . S
C1562 C545 0.470 . S
C1564 C453 0.469 . S
C1573 C660 0.456 . S
C1575 C568 0.465 . S
C1584 C591 0.466 . S
C1586 C683 0.467 . S
C1595 C706 0.474 . S
C1597 C614 0.463 . S
C1606 C637 0.468 . S
C1608 C729 0.466 . S
C1617 C179 1.205 . S
C1619 C18 1.204 . S
C1628 C41 1.210 . S
C1630 C110 1.212 . S
C1639 C67 1.192 . S
C1641 C133 1.201 . S
C1650 C158 1.121 . S
C1652 C90 1.157 . S
C1661 C202 1.207 . S
C1663 C363 1.205 . S
C1672 C294 1.214 . S
C1674 C225 1.216 . S
C1683 C317 1.211 . S
C1685 C248 1.213 . S
C1694 C271 1.199 . S
C1696 C340 1.201 . S
C1705 C386 1.204 . S
C1707 C547 1.205 . S
C1716 C478 1.213 . S
C1718 C409 1.210 . S
C1727 C501 1.201 . S
C1729 C435 1.194 . S
C1738 C526 1.128 . S
C1740 C458 1.152 . S
C1749 C570 1.207 . S
C1751 C731 1.205 . S
C1760 C662 1.214 . S
C1762 C593 1.214 . S
C1771 C616 1.211 . S
C1773 C685 1.211 . S
C1782 C708 1.198 . S
C1784 C639 1.200 . S
