# Generated by pormake.
# Topology rhr, (4)-cn, num edge types: 1
# Building blocks:
#     Node 0, Type 0, BuildingBlock: NAWXER_clean_sbu_0, # of connection points: 4
#     Node 1, Type 0, BuildingBlock: NAWXER_clean_sbu_0, # of connection points: 4
#     Node 2, Type 0, BuildingBlock: NAWXER_clean_sbu_0, # of connection points: 4
#     Node 3, Type 0, BuildingBlock: NAWXER_clean_sbu_0, # of connection points: 4
#     Node 4, Type 0, BuildingBlock: NAWXER_clean_sbu_0, # of connection points: 4
#     Node 5, Type 0, BuildingBlock: NAWXER_clean_sbu_0, # of connection points: 4
#     Node 6, Type 0, BuildingBlock: NAWXER_clean_sbu_0, # of connection points: 4
#     Node 7, Type 0, BuildingBlock: NAWXER_clean_sbu_0, # of connection points: 4
#     Node 8, Type 0, BuildingBlock: NAWXER_clean_sbu_0, # of connection points: 4
#     Node 9, Type 0, BuildingBlock: NAWXER_clean_sbu_0, # of connection points: 4
#     Node 10, Type 0, BuildingBlock: NAWXER_clean_sbu_0, # of connection points: 4
#     Node 11, Type 0, BuildingBlock: NAWXER_clean_sbu_0, # of connection points: 4
#     Node 12, Type 0, BuildingBlock: NAWXER_clean_sbu_0, # of connection points: 4
#     Node 13, Type 0, BuildingBlock: NAWXER_clean_sbu_0, # of connection points: 4
#     Node 14, Type 0, BuildingBlock: NAWXER_clean_sbu_0, # of connection points: 4
#     Node 15, Type 0, BuildingBlock: NAWXER_clean_sbu_0, # of connection points: 4
#     Node 16, Type 0, BuildingBlock: NAWXER_clean_sbu_0, # of connection points: 4
#     Node 17, Type 0, BuildingBlock: NAWXER_clean_sbu_0, # of connection points: 4
#     Node 18, Type 0, BuildingBlock: NAWXER_clean_sbu_0, # of connection points: 4
#     Node 19, Type 0, BuildingBlock: NAWXER_clean_sbu_0, # of connection points: 4
#     Node 20, Type 0, BuildingBlock: NAWXER_clean_sbu_0, # of connection points: 4
#     Node 21, Type 0, BuildingBlock: NAWXER_clean_sbu_0, # of connection points: 4
#     Node 22, Type 0, BuildingBlock: NAWXER_clean_sbu_0, # of connection points: 4
#     Node 23, Type 0, BuildingBlock: NAWXER_clean_sbu_0, # of connection points: 4
#     Edge 24, Type (0, 0), BuildingBlock: OJICUG_clean_linker_0, # of connection points: 2
#     Edge 25, Type (0, 0), BuildingBlock: OJICUG_clean_linker_0, # of connection points: 2
#     Edge 26, Type (0, 0), BuildingBlock: OJICUG_clean_linker_0, # of connection points: 2
#     Edge 27, Type (0, 0), BuildingBlock: OJICUG_clean_linker_0, # of connection points: 2
#     Edge 28, Type (0, 0), BuildingBlock: OJICUG_clean_linker_0, # of connection points: 2
#     Edge 29, Type (0, 0), BuildingBlock: OJICUG_clean_linker_0, # of connection points: 2
#     Edge 30, Type (0, 0), BuildingBlock: OJICUG_clean_linker_0, # of connection points: 2
#     Edge 31, Type (0, 0), BuildingBlock: OJICUG_clean_linker_0, # of connection points: 2
#     Edge 32, Type (0, 0), BuildingBlock: OJICUG_clean_linker_0, # of connection points: 2
#     Edge 33, Type (0, 0), BuildingBlock: OJICUG_clean_linker_0, # of connection points: 2
#     Edge 34, Type (0, 0), BuildingBlock: OJICUG_clean_linker_0, # of connection points: 2
#     Edge 35, Type (0, 0), BuildingBlock: OJICUG_clean_linker_0, # of connection points: 2
#     Edge 36, Type (0, 0), BuildingBlock: OJICUG_clean_linker_0, # of connection points: 2
#     Edge 37, Type (0, 0), BuildingBlock: OJICUG_clean_linker_0, # of connection points: 2
#     Edge 38, Type (0, 0), BuildingBlock: OJICUG_clean_linker_0, # of connection points: 2
#     Edge 39, Type (0, 0), BuildingBlock: OJICUG_clean_linker_0, # of connection points: 2
#     Edge 40, Type (0, 0), BuildingBlock: OJICUG_clean_linker_0, # of connection points: 2
#     Edge 41, Type (0, 0), BuildingBlock: OJICUG_clean_linker_0, # of connection points: 2
#     Edge 42, Type (0, 0), BuildingBlock: OJICUG_clean_linker_0, # of connection points: 2
#     Edge 43, Type (0, 0), BuildingBlock: OJICUG_clean_linker_0, # of connection points: 2
#     Edge 44, Type (0, 0), BuildingBlock: OJICUG_clean_linker_0, # of connection points: 2
#     Edge 45, Type (0, 0), BuildingBlock: OJICUG_clean_linker_0, # of connection points: 2
#     Edge 46, Type (0, 0), BuildingBlock: OJICUG_clean_linker_0, # of connection points: 2
#     Edge 47, Type (0, 0), BuildingBlock: OJICUG_clean_linker_0, # of connection points: 2
#     Edge 48, Type (0, 0), BuildingBlock: OJICUG_clean_linker_0, # of connection points: 2
#     Edge 49, Type (0, 0), BuildingBlock: OJICUG_clean_linker_0, # of connection points: 2
#     Edge 50, Type (0, 0), BuildingBlock: OJICUG_clean_linker_0, # of connection points: 2
#     Edge 51, Type (0, 0), BuildingBlock: OJICUG_clean_linker_0, # of connection points: 2
#     Edge 52, Type (0, 0), BuildingBlock: OJICUG_clean_linker_0, # of connection points: 2
#     Edge 53, Type (0, 0), BuildingBlock: OJICUG_clean_linker_0, # of connection points: 2
#     Edge 54, Type (0, 0), BuildingBlock: OJICUG_clean_linker_0, # of connection points: 2
#     Edge 55, Type (0, 0), BuildingBlock: OJICUG_clean_linker_0, # of connection points: 2
#     Edge 56, Type (0, 0), BuildingBlock: OJICUG_clean_linker_0, # of connection points: 2
#     Edge 57, Type (0, 0), BuildingBlock: OJICUG_clean_linker_0, # of connection points: 2
#     Edge 58, Type (0, 0), BuildingBlock: OJICUG_clean_linker_0, # of connection points: 2
#     Edge 59, Type (0, 0), BuildingBlock: OJICUG_clean_linker_0, # of connection points: 2
#     Edge 60, Type (0, 0), BuildingBlock: OJICUG_clean_linker_0, # of connection points: 2
#     Edge 61, Type (0, 0), BuildingBlock: OJICUG_clean_linker_0, # of connection points: 2
#     Edge 62, Type (0, 0), BuildingBlock: OJICUG_clean_linker_0, # of connection points: 2
#     Edge 63, Type (0, 0), BuildingBlock: OJICUG_clean_linker_0, # of connection points: 2
#     Edge 64, Type (0, 0), BuildingBlock: OJICUG_clean_linker_0, # of connection points: 2
#     Edge 65, Type (0, 0), BuildingBlock: OJICUG_clean_linker_0, # of connection points: 2
#     Edge 66, Type (0, 0), BuildingBlock: OJICUG_clean_linker_0, # of connection points: 2
#     Edge 67, Type (0, 0), BuildingBlock: OJICUG_clean_linker_0, # of connection points: 2
#     Edge 68, Type (0, 0), BuildingBlock: OJICUG_clean_linker_0, # of connection points: 2
#     Edge 69, Type (0, 0), BuildingBlock: OJICUG_clean_linker_0, # of connection points: 2
#     Edge 70, Type (0, 0), BuildingBlock: OJICUG_clean_linker_0, # of connection points: 2
#     Edge 71, Type (0, 0), BuildingBlock: OJICUG_clean_linker_0, # of connection points: 2
# Relax obj value: 0.003
# Max RMSD: 0.009
# Mean RMSD: 0.009
data_MOF--net-rhr--node1-NAWXER_clean_sbu_0--edge1-OJICUG_clean_linker_0
_symmetry_space_group_name_H-M    P1
_symmetry_Int_Tables_number       1
_symmetry_cell_setting            triclinic
loop_
_symmetry_equiv_pos_as_xyz
'x, y, z'
_cell_length_a     36.27125
_cell_length_b     36.021819
_cell_length_c     35.850509
_cell_angle_alpha  90.325192
_cell_angle_beta   89.424588
_cell_angle_gamma 90.366468
loop_
_atom_site_label
_atom_site_type_symbol
_atom_site_fract_x
_atom_site_fract_y
_atom_site_fract_z
_atom_type_partial_charge
C0 C 0.31012 0.06174 0.3591 0.0
C1 C 0.39211 0.97726 0.29376 0.0
O2 O 0.3041 0.04667 0.32752 0.0
Zn3 Zn 0.34703 1.01544 0.32827 0.0
O4 O 0.33728 0.05133 0.37903 0.0
Zn5 Zn 0.38329 1.01409 0.3749 0.0
O6 O 0.42264 0.05144 0.38053 0.0
O7 O 0.38822 0.05843 0.33055 0.0
O8 O 0.40278 0.98405 0.32711 0.0
O9 O 0.36096 0.98888 0.28321 0.0
O10 O 0.33085 0.97586 0.36979 0.0
O11 O 0.3728 0.97707 0.41371 0.0
C12 C 0.41436 0.06988 0.35155 0.0
C13 C 0.3427 0.96406 0.40112 0.0
C14 C 0.04746 0.38782 0.30918 0.0
C15 C 0.94329 0.32989 0.3743 0.0
O16 O 0.03322 0.36046 0.29141 0.0
Zn17 Zn 0.98999 0.32107 0.29783 0.0
O18 O 0.03456 0.397 0.34103 0.0
Zn19 Zn 0.9952 0.36036 0.3435 0.0
O20 O 0.02436 0.30999 0.35052 0.0
O21 O 0.01647 0.27374 0.30122 0.0
O22 O 0.96131 0.35817 0.38564 0.0
O23 O 0.95145 0.31498 0.34275 0.0
O24 O 0.95877 0.33422 0.2555 0.0
O25 O 0.95982 0.377 0.2999 0.0
C26 C 0.03017 0.27936 0.33336 0.0
C27 C 0.94825 0.36554 0.26823 0.0
C28 C 0.70365 0.93041 0.30053 0.0
C29 C 0.76838 0.03902 0.35462 0.0
O30 O 0.68817 0.94467 0.32936 0.0
Zn31 Zn 0.69577 0.98905 0.36736 0.0
O32 O 0.73395 0.94409 0.28838 0.0
Zn33 Zn 0.73862 0.98463 0.32486 0.0
O34 O 0.74948 0.95735 0.37551 0.0
O35 O 0.70242 0.96382 0.41464 0.0
O36 O 0.77982 0.0207 0.32628 0.0
O37 O 0.73798 0.02991 0.37055 0.0
O38 O 0.65291 0.01897 0.35704 0.0
O39 O 0.69246 1.01712 0.30974 0.0
C40 C 0.73472 0.95184 0.40754 0.0
C41 C 0.66165 0.02774 0.32372 0.0
C42 C 0.06364 0.64534 0.35114 0.0
C43 C 0.96153 0.7015 0.4253 0.0
O44 O 0.05039 0.63319 0.38182 0.0
Zn45 Zn 1.01094 0.67013 0.38876 0.0
O46 O 0.04868 0.67354 0.33592 0.0
Zn47 Zn 1.00497 0.71206 0.34679 0.0
O48 O 0.03186 0.75894 0.35051 0.0
O49 O 0.04374 0.71907 0.39553 0.0
O50 O 0.96878 0.71736 0.39412 0.0
O51 O 0.97935 0.67247 0.43401 0.0
O52 O 0.97172 0.65698 0.34618 0.0
O53 O 0.9717 0.70301 0.30574 0.0
C54 C 0.04936 0.75046 0.37981 0.0
C55 C 0.95939 0.67162 0.31629 0.0
C56 C 0.28242 0.0781 0.65138 0.0
C57 C 0.35398 0.98847 0.72414 0.0
O58 O 0.31431 0.06553 0.6436 0.0
Zn59 Zn 0.32123 0.03567 0.68815 0.0
O60 O 0.26759 0.07045 0.6831 0.0
Zn61 Zn 0.28018 0.03777 0.73167 0.0
O62 O 0.28769 0.07272 0.77297 0.0
O63 O 0.33263 0.07467 0.73105 0.0
O64 O 0.32474 0.9997 0.74102 0.0
O65 O 0.36238 1.00163 0.69224 0.0
O66 O 0.2772 0.99705 0.68354 0.0
O67 O 0.23774 1.00399 0.73061 0.0
C68 C 0.31853 0.08586 0.76196 0.0
C69 C 0.24751 0.98758 0.70056 0.0
C70 C 0.08814 0.34361 0.73863 0.0
C71 C 0.9915 0.27901 0.66709 0.0
O72 O 0.07501 0.36252 0.71171 0.0
Zn73 Zn 0.03392 0.3573 0.66929 0.0
O74 O 0.07562 0.31115 0.74528 0.0
Zn75 Zn 0.04006 0.3102 0.70487 0.0
O76 O 0.07603 0.31226 0.65726 0.0
O77 O 0.0636 0.36215 0.6242 0.0
O78 O 1.00939 0.2661 0.6944 0.0
O79 O 0.99814 0.31217 0.65611 0.0
O80 O 1.00009 0.39606 0.68356 0.0
O81 O 1.00286 0.35166 0.72568 0.0
C82 C 0.08258 0.33302 0.62899 0.0
C83 C 0.99045 0.38307 0.71512 0.0
C84 C 0.62522 0.06945 0.73483 0.0
C85 C 0.7076 0.97212 0.68513 0.0
O86 O 0.61754 0.06025 0.70118 0.0
Zn87 Zn 0.63775 0.02186 0.65991 0.0
O88 O 0.65143 0.05309 0.75113 0.0
Zn89 Zn 0.66829 0.02084 0.71048 0.0
O90 O 0.6899 0.05739 0.66894 0.0
O91 O 0.65356 0.05465 0.61994 0.0
O92 O 0.71048 0.98829 0.71671 0.0
O93 O 0.68288 0.98253 0.66213 0.0
O94 O 0.59711 0.98676 0.6522 0.0
O95 O 0.62669 0.97901 0.70517 0.0
C96 C 0.68203 0.06776 0.63586 0.0
C97 C 0.60252 0.96809 0.68166 0.0
C98 C 0.95884 0.64062 0.69817 0.0
C99 C 0.07954 0.69347 0.66362 0.0
O100 O 0.97859 0.63225 0.66987 0.0
Zn101 Zn 0.02104 0.66352 0.68234 0.0
O102 O 0.9714 0.66372 0.72234 0.0
Zn103 Zn 0.0204 0.69621 0.73175 0.0
O104 O 1.00014 0.74538 0.73398 0.0
O105 O 0.99927 0.7191 0.67789 0.0
O106 O 0.06719 0.7059 0.69496 0.0
O107 O 0.0628 0.66664 0.6478 0.0
O108 O 0.04157 0.6359 0.73062 0.0
O109 O 0.03902 0.67564 0.77748 0.0
C110 C 0.99343 0.74718 0.6993 0.0
C111 C 0.04625 0.64333 0.76529 0.0
C112 C 0.35177 0.39715 0.11589 0.0
C113 C 0.39105 0.35137 0.99135 0.0
O114 O 0.37724 0.41124 0.09558 0.0
Zn115 Zn 0.37437 0.37533 0.05433 0.0
O116 O 0.33473 0.36801 0.10443 0.0
Zn117 Zn 0.33368 0.33091 0.05755 0.0
O118 O 0.34909 0.2834 0.07943 0.0
O119 O 0.39285 0.32619 0.08024 0.0
O120 O 0.36498 0.33266 1.00685 0.0
O121 O 0.40567 0.37831 1.00915 0.0
O122 O 0.32143 0.38784 0.03301 0.0
O123 O 0.28353 0.34005 0.03904 0.0
C124 C 0.38162 0.29339 0.08825 0.0
C125 C 0.28941 0.37337 0.0286 0.0
C126 C 0.68023 0.41442 0.07828 0.0
C127 C 0.62106 0.32609 0.99383 0.0
O128 O 0.70083 0.38749 0.06779 0.0
Zn129 Zn 0.69993 0.34127 0.03036 0.0
O130 O 0.64925 0.41942 0.06274 0.0
Zn131 Zn 0.65138 0.37509 0.03108 0.0
O132 O 0.65465 0.33366 0.07375 0.0
O133 O 0.70598 0.30127 0.06676 0.0
O134 O 0.60807 0.35696 1.00512 0.0
O135 O 0.65473 0.3182 1.00046 0.0
O136 O 0.73777 0.35383 0.99288 0.0
O137 O 0.68981 0.39049 0.98796 0.0
C138 C 0.67606 0.30783 0.08457 0.0
C139 C 0.72193 0.38058 0.97662 0.0
C140 C 0.70017 0.78206 1.01978 0.0
C141 C 0.77482 0.7082 0.93269 0.0
O142 O 0.73093 0.79256 1.00583 0.0
Zn143 Zn 0.73861 0.74802 0.97541 0.0
O144 O 0.68648 0.75034 1.01122 0.0
Zn145 Zn 0.6978 0.70429 0.97562 0.0
O146 O 0.70221 0.66341 1.00983 0.0
O147 O 0.74616 0.70576 1.01661 0.0
O148 O 0.74383 0.69369 0.9416 0.0
O149 O 0.78356 0.74022 0.94503 0.0
O150 O 0.69414 0.75518 0.93704 0.0
O151 O 0.6574 0.7062 0.94105 0.0
C152 C 0.73117 0.67489 0.02611 0.0
C153 C 0.66482 0.73781 0.92715 0.0
C154 C 0.29041 0.67215 0.96664 0.0
C155 C 0.37822 0.73314 0.05278 0.0
O156 O 0.31997 0.65461 0.97381 0.0
Zn157 Zn 0.36892 0.65856 1.00504 0.0
O158 O 0.28415 0.7037 0.98187 0.0
Zn159 Zn 0.33108 0.70625 1.00935 0.0
O160 O 0.36793 0.70769 0.9638 0.0
O161 O 0.40504 0.65939 0.96304 0.0
O162 O 0.34831 0.74746 0.04147 0.0
O163 O 0.38763 0.70104 0.04083 0.0
O164 O 0.36003 0.61752 0.04049 0.0
O165 O 0.31993 0.66314 0.04697 0.0
C166 C 0.39378 0.68926 0.94803 0.0
C167 C 0.33151 0.6312 0.05642 0.0
C168 C 0.85087 0.55383 0.76797 0.0
C169 C 0.79627 0.47246 0.86542 0.0
O170 O 0.87044 0.54916 0.79704 0.0
Zn171 Zn 0.86917 0.52076 0.84949 0.0
O172 O 0.81918 0.53842 0.76544 0.0
Zn173 Zn 0.82123 0.51416 0.81458 0.0
O174 O 0.82144 0.56268 0.84852 0.0
O175 O 0.87134 0.56406 0.88318 0.0
O176 O 0.78138 0.48267 0.8352 0.0
O177 O 0.8285 0.48473 0.87331 0.0
O178 O 0.91117 0.48794 0.84125 0.0
O179 O 0.86549 0.47758 0.8021 0.0
C180 C 0.84176 0.57938 0.8724 0.0
C181 C 0.89819 0.47071 0.8131 0.0
C182 C 0.45573 0.76567 0.82306 0.0
C183 C 0.53013 0.84261 0.73884 0.0
O184 O 0.46336 0.75802 0.78918 0.0
Zn185 Zn 0.49194 0.80312 0.77846 0.0
O186 O 0.46584 0.79672 0.83719 0.0
Zn187 Zn 0.49688 0.84437 0.82198 0.0
O188 O 0.46178 0.885 0.82401 0.0
O189 O 0.4531 0.84785 0.77566 0.0
O190 O 0.52487 0.85643 0.77135 0.0
O191 O 0.51687 0.81086 0.73037 0.0
O192 O 0.53708 0.79554 0.81574 0.0
O193 O 0.53768 0.84179 0.85649 0.0
C194 C 0.44502 0.87752 0.79384 0.0
C195 C 0.55141 0.81164 0.84412 0.0
C196 C 0.11005 0.53443 0.86082 0.0
C197 C 0.18766 0.45966 0.94273 0.0
O198 O 0.14212 0.52703 0.8479 0.0
Zn199 Zn 0.19083 0.49966 0.86313 0.0
O200 O 0.10024 0.52264 0.89289 0.0
Zn201 Zn 0.14641 0.49653 0.90349 0.0
O202 O 0.1826 0.54364 0.90968 0.0
O203 O 0.22485 0.54122 0.86503 0.0
O204 O 0.15419 0.46805 0.94941 0.0
O205 O 0.20322 0.47029 0.91239 0.0
O206 O 0.19453 0.46218 0.82433 0.0
O207 O 0.14679 0.45332 0.86203 0.0
C208 C 0.21074 0.55791 0.89309 0.0
C209 C 0.16622 0.44324 0.83372 0.0
C210 C 0.42765 0.16686 0.84534 0.0
C211 C 0.53009 0.22088 0.91638 0.0
O212 O 0.44554 0.19273 0.82857 0.0
Zn213 Zn 0.49214 0.22795 0.83653 0.0
O214 O 0.43835 0.15607 0.8772 0.0
Zn215 Zn 0.4807 0.18971 0.8819 0.0
O216 O 0.45425 0.2419 0.886 0.0
O217 O 0.47016 0.27809 0.83881 0.0
O218 O 0.50991 0.19389 0.9273 0.0
O219 O 0.52624 0.23421 0.88372 0.0
O220 O 0.52638 0.21083 0.79726 0.0
O221 O 0.51938 0.16919 0.84167 0.0
C222 C 0.4526 0.27313 0.86942 0.0
C223 C 0.53435 0.17928 0.81079 0.0
C224 C 0.76028 0.50462 0.1773 0.0
C225 C 0.85343 0.5858 0.23239 0.0
O226 O 0.75703 0.52198 0.20813 0.0
Zn227 Zn 0.80615 0.54434 0.20614 0.0
O228 O 0.7903 0.50648 0.15837 0.0
Zn229 Zn 0.84261 0.53361 0.16028 0.0
O230 O 0.87612 0.49163 0.16205 0.0
O231 O 0.84155 0.49728 0.21267 0.0
O232 O 0.86396 0.57205 0.20098 0.0
O233 O 0.822 0.57701 0.24575 0.0
O234 O 0.79968 0.58024 0.1591 0.0
O235 O 0.83905 0.56229 0.11517 0.0
C236 C 0.86665 0.47998 0.19418 0.0
C237 C 0.81308 0.58342 0.12607 0.0
C238 C 0.5922 0.85658 0.21677 0.0
C239 C 0.48859 0.80665 0.1431 0.0
O240 O 0.58105 0.87788 0.19073 0.0
Zn241 Zn 0.53998 0.87934 0.14805 0.0
O242 O 0.57515 0.82622 0.22342 0.0
Zn243 Zn 0.53981 0.83023 0.1827 0.0
O244 O 0.57712 0.82959 0.13698 0.0
O245 O 0.57316 0.88107 0.10421 0.0
O246 O 0.50455 0.79092 0.17019 0.0
O247 O 0.4996 0.83886 0.13271 0.0
O248 O 0.50868 0.92092 0.16375 0.0
O249 O 0.50589 0.87362 0.20261 0.0
C250 C 0.58841 0.84984 0.10993 0.0
C251 C 0.49594 0.90632 0.19353 0.0
C252 C 0.23704 0.56307 0.16728 0.0
C253 C 0.16117 0.47519 0.2373 0.0
O254 O 0.24855 0.5587 0.20067 0.0
Zn255 Zn 0.23184 0.52824 0.24962 0.0
O256 O 0.2064 0.54879 0.1577 0.0
Zn257 Zn 0.19656 0.52116 0.20267 0.0
O258 O 0.17669 0.56061 0.24239 0.0
O259 O 0.21654 0.56446 0.28823 0.0
O260 O 0.15693 0.48538 0.20369 0.0
O261 O 0.18792 0.48848 0.25642 0.0
O262 O 0.27636 0.49763 0.25393 0.0
O263 O 0.24353 0.48594 0.20349 0.0
C264 C 0.1859 0.5739 0.27417 0.0
C265 C 0.27187 0.47987 0.22344 0.0
C266 C 0.59261 0.22833 0.1938 0.0
C267 C 0.49671 0.18026 0.27829 0.0
O268 O 0.57604 0.19946 0.18111 0.0
Zn269 Zn 0.53235 0.16281 0.19746 0.0
O270 O 0.58251 0.24205 0.22502 0.0
Zn271 Zn 0.54317 0.2071 0.23693 0.0
O272 O 0.57146 0.15699 0.24673 0.0
O273 O 0.55794 0.11548 0.20323 0.0
O274 O 0.51608 0.20925 0.28436 0.0
O275 O 0.50008 0.16236 0.24752 0.0
O276 O 0.49451 0.17038 0.15956 0.0
O277 O 0.50224 0.21903 0.19641 0.0
C278 C 0.57452 0.12424 0.23323 0.0
C279 C 0.48598 0.20343 0.16879 0.0
C280 C 0.90948 0.84386 0.61512 0.0
C281 C 0.82735 0.88575 0.51801 0.0
O282 O 0.88041 0.82388 0.61157 0.0
Zn283 Zn 0.83358 0.81956 0.57691 0.0
O284 O 0.91597 0.87052 0.59285 0.0
Zn285 Zn 0.87088 0.86508 0.56479 0.0
O286 O 0.82914 0.87689 0.6055 0.0
O287 O 0.79334 0.82749 0.6128 0.0
O288 O 0.8585 0.89985 0.52633 0.0
O289 O 0.81598 0.85626 0.53438 0.0
O290 O 0.84269 0.77189 0.55032 0.0
O291 O 0.88118 0.81632 0.53314 0.0
C292 C 0.80135 0.86105 0.6211 0.0
C293 C 0.86958 0.78286 0.53 0.0
C294 C 0.18826 0.89494 0.58878 0.0
C295 C 0.14187 0.83526 0.47636 0.0
O296 O 0.20829 0.86757 0.57798 0.0
Zn297 Zn 0.21021 0.82816 0.53263 0.0
O298 O 0.16128 0.90497 0.56894 0.0
Zn299 Zn 0.16622 0.86692 0.53114 0.0
O300 O 0.15593 0.81761 0.56383 0.0
O301 O 0.20445 0.78102 0.55916 0.0
O302 O 0.12901 0.86361 0.49311 0.0
O303 O 0.17147 0.82021 0.48826 0.0
O304 O 0.25673 0.84058 0.50708 0.0
O305 O 0.21451 0.88356 0.49994 0.0
C306 C 0.17228 0.78732 0.57214 0.0
C307 C 0.24706 0.87135 0.49315 0.0
C308 C 0.17006 0.26008 0.52034 0.0
C309 C 0.22677 0.17436 0.43227 0.0
O310 O 0.19876 0.26647 0.50076 0.0
Zn311 Zn 0.20004 0.2182 0.47605 0.0
O312 O 0.15333 0.22882 0.51794 0.0
Zn313 Zn 0.15728 0.1781 0.48816 0.0
O314 O 0.16554 0.14272 0.52871 0.0
O315 O 0.21296 0.18039 0.52 0.0
O316 O 0.19757 0.16138 0.44793 0.0
O317 O 0.23867 0.2066 0.44083 0.0
O318 O 0.1535 0.22005 0.44011 0.0
O319 O 0.11235 0.17827 0.45798 0.0
C320 C 0.19799 0.15314 0.53744 0.0
C321 C 0.1223 0.20387 0.43557 0.0
C322 C 0.89285 0.19764 0.56987 0.0
C323 C 0.83714 0.13532 0.46111 0.0
O324 O 0.90357 0.16804 0.55374 0.0
Zn325 Zn 0.8643 0.16422 0.51689 0.0
O326 O 0.86294 0.21296 0.55917 0.0
Zn327 Zn 0.82135 0.20416 0.51755 0.0
O328 O 0.77619 0.19426 0.54467 0.0
O329 O 0.81642 0.14879 0.54902 0.0
O330 O 0.81881 0.16346 0.473 0.0
O331 O 0.86585 0.12548 0.47855 0.0
O332 O 0.87307 0.2128 0.48319 0.0
O333 O 0.82519 0.25017 0.49041 0.0
C334 C 0.78468 0.16246 0.55685 0.0
C335 C 0.85645 0.24317 0.47579 0.0
C336 C 0.22972 0.12116 0.38778 0.0
C337 C 0.24785 0.14978 0.40739 0.0
H338 H 0.23555 0.0707 0.35613 0.0
C339 C 0.28643 0.15135 0.40714 0.0
H340 H 0.19988 0.11957 0.38754 0.0
C341 C 0.30656 0.12307 0.39007 0.0
C342 C 0.28841 0.09338 0.37229 0.0
H343 H 0.30099 0.17302 0.42217 0.0
H344 H 0.33639 0.12381 0.39171 0.0
C345 C 0.24995 0.09331 0.36987 0.0
C346 C 0.90407 0.32618 0.4327 0.0
C347 C 0.91619 0.31073 0.39862 0.0
H348 H 0.87435 0.31671 0.48412 0.0
C349 C 0.90486 0.27452 0.38902 0.0
H350 H 0.91234 0.35399 0.4408 0.0
C351 C 0.88404 0.25335 0.41382 0.0
C352 C 0.87324 0.26815 0.44833 0.0
H353 H 0.9136 0.26164 0.36305 0.0
H354 H 0.87724 0.2249 0.40646 0.0
C355 C 0.88231 0.30503 0.45733 0.0
C356 C 0.76497 0.89797 0.49204 0.0
C357 C 0.80347 0.9033 0.49034 0.0
H358 H 0.7126 0.90982 0.46739 0.0
C359 C 0.81876 0.92515 0.46191 0.0
H360 H 0.75247 0.88146 0.514 0.0
C361 C 0.79609 0.94061 0.43505 0.0
C362 C 0.75763 0.93519 0.43657 0.0
H363 H 0.84827 0.92972 0.46001 0.0
H364 H 0.80873 0.95717 0.41319 0.0
C365 C 0.74213 0.91422 0.46559 0.0
C366 C 0.13212 0.78184 0.43307 0.0
C367 C 0.12119 0.81709 0.44581 0.0
H368 H 0.1176 0.73327 0.40181 0.0
C369 C 0.0887 0.83266 0.43163 0.0
H370 H 0.15704 0.76904 0.44314 0.0
C371 C 0.0664 0.8122 0.40712 0.0
C372 C 0.07615 0.77586 0.39702 0.0
H373 H 0.07966 0.85985 0.44077 0.0
H374 H 0.04042 0.82372 0.39827 0.0
C375 C 0.10963 0.76132 0.40928 0.0
C376 C 0.22747 0.90301 0.64507 0.0
C377 C 0.19786 0.91522 0.6234 0.0
H378 H 0.26582 0.91659 0.68808 0.0
C379 C 0.17965 0.94814 0.6338 0.0
H380 H 0.24181 0.87754 0.63823 0.0
C381 C 0.19307 0.9701 0.66313 0.0
C382 C 0.22471 0.95931 0.68234 0.0
H383 H 0.15656 0.95812 0.61786 0.0
H384 H 0.18085 0.99702 0.66842 0.0
C385 C 0.2409 0.92499 0.67407 0.0
C386 C 0.13703 0.29465 0.61237 0.0
C387 C 0.11101 0.32122 0.60172 0.0
H388 H 0.17711 0.25497 0.59423 0.0
C389 C 0.11015 0.33274 0.56433 0.0
H390 H 0.13871 0.28554 0.64105 0.0
C391 C 0.13261 0.3153 0.53751 0.0
C392 C 0.15634 0.28667 0.54804 0.0
H393 H 0.09036 0.35315 0.55538 0.0
H394 H 0.12939 0.32214 0.50833 0.0
C395 C 0.15936 0.27743 0.58573 0.0
C396 C 0.71991 0.14167 0.57066 0.0
C397 C 0.7578 0.14017 0.57842 0.0
H398 H 0.66602 0.11905 0.58217 0.0
C399 C 0.77023 0.11537 0.60548 0.0
H400 H 0.70972 0.16035 0.54961 0.0
C401 C 0.74532 0.09251 0.62452 0.0
C402 C 0.70756 0.09318 0.61615 0.0
H403 H 0.7993 0.11364 0.61192 0.0
H404 H 0.75579 0.07357 0.64521 0.0
C405 C 0.69501 0.11792 0.58901 0.0
C406 C 0.99111 0.79308 0.64827 0.0
C407 C 0.97788 0.78072 0.68302 0.0
H408 H 0.97993 0.82533 0.59971 0.0
C409 C 0.94622 0.79673 0.69873 0.0
H410 H 0.01567 0.78103 0.63585 0.0
C411 C 0.92551 0.82149 0.67782 0.0
C412 C 0.93699 0.83121 0.64161 0.0
H413 H 0.93557 0.78738 0.72545 0.0
H414 H 0.89902 0.83056 0.6886 0.0
C415 C 0.97099 0.81867 0.62784 0.0
C416 C 0.40526 0.22998 0.1067 0.0
C417 C 0.4068 0.26896 0.10917 0.0
H418 H 0.42976 0.17824 0.12304 0.0
C419 C 0.43414 0.28555 0.13131 0.0
H420 H 0.38458 0.21644 0.0897 0.0
C421 C 0.45934 0.26402 0.15048 0.0
C422 C 0.45848 0.22513 0.14774 0.0
H423 H 0.43605 0.31548 0.13404 0.0
H424 H 0.47993 0.27809 0.16719 0.0
C425 C 0.43122 0.20819 0.12554 0.0
C426 C 0.70565 0.49828 0.13675 0.0
C427 C 0.73041 0.48212 0.16174 0.0
H428 H 0.66947 0.48914 0.09033 0.0
C429 C 0.73396 0.44352 0.16257 0.0
H430 H 0.70344 0.52821 0.13504 0.0
C431 C 0.71532 0.42147 0.13681 0.0
C432 C 0.69289 0.43768 0.10966 0.0
H433 H 0.75356 0.43067 0.18104 0.0
H434 H 0.7202 0.39181 0.13674 0.0
C435 C 0.6866 0.47606 0.11098 0.0
C436 C 0.66835 0.78993 0.07986 0.0
C437 C 0.67869 0.80531 0.04561 0.0
H438 H 0.63228 0.79202 0.1268 0.0
C439 C 0.66125 0.83772 0.03334 0.0
H440 H 0.68104 0.76461 0.08951 0.0
C441 C 0.63235 0.85341 0.05449 0.0
C442 C 0.62062 0.83657 0.08792 0.0
H443 H 0.66827 0.84941 1.00639 0.0
H444 H 0.61827 0.87756 0.04399 0.0
C445 C 0.63991 0.80544 0.10085 0.0
C446 C 0.24686 0.59531 0.10636 0.0
C447 C 0.26156 0.58046 0.139 0.0
H448 H 0.25793 0.62281 0.05467 0.0
C449 C 0.3002 0.57996 0.14321 0.0
H450 H 0.21733 0.59571 0.10211 0.0
C451 C 0.32361 0.59449 0.11543 0.0
C452 C 0.30864 0.61035 0.08342 0.0
H453 H 0.31236 0.56801 0.16783 0.0
H454 H 0.35315 0.59453 0.11955 0.0
C455 C 0.27012 0.61051 0.07913 0.0
C456 C 0.44233 0.69247 0.89662 0.0
C457 C 0.40819 0.70338 0.91182 0.0
H458 H 0.48424 0.70373 0.85513 0.0
C459 C 0.38766 0.73048 0.893 0.0
H460 H 0.45872 0.67167 0.91034 0.0
C461 C 0.40197 0.74832 0.86165 0.0
C462 C 0.43688 0.73915 0.84783 0.0
H463 H 0.36093 0.73922 0.90341 0.0
H464 H 0.3866 0.77084 0.84945 0.0
C465 C 0.45669 0.71046 0.86484 0.0
C466 C 0.22417 0.38388 1.00558 0.0
C467 C 0.26087 0.39606 1.01006 0.0
H468 H 0.17126 0.39518 0.9812 0.0
C469 C 0.27127 0.4308 0.99543 0.0
H470 H 0.21524 0.35738 1.01669 0.0
C471 C 0.24652 0.4519 0.97531 0.0
C472 C 0.2104 0.43936 0.96963 0.0
H473 H 0.29909 0.44144 0.99839 0.0
H474 H 0.25603 0.47782 0.96324 0.0
C475 C 0.19895 0.40559 0.98565 0.0
C476 C 0.53662 0.27491 0.95821 0.0
C477 C 0.55234 0.2429 0.94234 0.0
H478 H 0.54593 0.32669 0.98636 0.0
C479 C 0.59054 0.23806 0.9438 0.0
H480 H 0.50723 0.2797 0.95618 0.0
C481 C 0.6128 0.26505 0.96075 0.0
C482 C 0.59726 0.29774 0.97578 0.0
H483 H 0.60327 0.2142 0.93053 0.0
H484 H 0.6423 0.26069 0.96121 0.0
C485 C 0.55883 0.30209 0.9748 0.0
C486 C 0.78899 0.66926 0.87808 0.0
C487 C 0.80065 0.68426 0.91208 0.0
H488 H 0.79305 0.62474 0.83893 0.0
C489 C 0.82955 0.66699 0.93116 0.0
H490 H 0.76621 0.68159 0.86334 0.0
C491 C 0.84462 0.6336 0.91763 0.0
C492 C 0.83064 0.61702 0.88506 0.0
H493 H 0.83816 0.67748 0.95811 0.0
H494 H 0.86541 0.61968 0.9338 0.0
C495 C 0.80391 0.6362 0.86461 0.0
C496 C 0.10129 0.43167 0.3124 0.0
C497 C 0.07761 0.40916 0.29128 0.0
H498 H 0.14688 0.46964 0.31179 0.0
C499 C 0.08253 0.40739 0.2523 0.0
H500 H 0.0982 0.43346 0.34244 0.0
C501 C 0.11001 0.42841 0.23468 0.0
C502 C 0.13361 0.45102 0.25576 0.0
H503 H 0.06456 0.39038 0.23523 0.0
H504 H 0.11266 0.42709 0.20458 0.0
C505 C 0.12928 0.45213 0.29483 0.0
C506 C 0.08672 0.55341 0.79938 0.0
C507 C 0.0868 0.5587 0.8382 0.0
H508 H 0.0739 0.57581 0.74609 0.0
C509 C 0.07124 0.59105 0.85339 0.0
H510 H 0.09893 0.5288 0.78701 0.0
C511 C 0.05764 0.61862 0.8298 0.0
C512 C 0.05905 0.61395 0.79075 0.0
H513 H 0.07169 0.59602 0.88322 0.0
H514 H 0.04679 0.64388 0.84207 0.0
C515 C 0.07273 0.58053 0.77594 0.0
C516 C 0.36309 0.13791 0.76813 0.0
C517 C 0.3408 0.11103 0.78548 0.0
H518 H 0.40731 0.17672 0.7734 0.0
C519 C 0.34501 0.10453 0.82384 0.0
H520 H 0.36055 0.1433 0.73856 0.0
C521 C 0.37266 0.12319 0.84394 0.0
C522 C 0.39604 0.149 0.82603 0.0
H523 H 0.32852 0.08347 0.83771 0.0
H524 H 0.37639 0.11665 0.8731 0.0
C525 C 0.39007 0.1569 0.78818 0.0
C526 C 0.91678 0.44843 0.75009 0.0
C527 C 0.92172 0.44725 0.78897 0.0
H528 H 0.93513 0.42961 0.69628 0.0
C529 C 0.94936 0.42464 0.8035 0.0
H530 H 0.89595 0.46604 0.73808 0.0
C531 C 0.97119 0.403 0.77943 0.0
C532 C 0.96647 0.40468 0.74051 0.0
H533 H 0.95377 0.42341 0.8333 0.0
H534 H 0.99233 0.38559 0.79118 0.0
C535 C 0.93926 0.42778 0.7261 0.0
C536 C 0.54812 0.92432 0.67835 0.0
C537 C 0.5849 0.93159 0.68785 0.0
H538 H 0.50137 0.88828 0.68685 0.0
C539 C 0.60508 0.9041 0.70629 0.0
H540 H 0.53211 0.94499 0.66397 0.0
C541 C 0.58793 0.87157 0.71835 0.0
C542 C 0.55032 0.86584 0.71218 0.0
H543 H 0.63378 0.90864 0.71325 0.0
H544 H 0.60325 0.85252 0.73553 0.0
C545 C 0.53077 0.89167 0.69085 0.0
C546 C 0.93033 0.6537 0.25555 0.0
C547 C 0.93089 0.65172 0.29465 0.0
H548 H 0.90563 0.63368 0.20505 0.0
C549 C 0.90465 0.62938 0.31312 0.0
H550 H 0.95034 0.67062 0.24066 0.0
C551 C 0.8785 0.60915 0.29289 0.0
C552 C 0.87878 0.60998 0.25374 0.0
H553 H 0.90439 0.62751 0.34327 0.0
H554 H 0.85888 0.59183 0.30786 0.0
C555 C 0.90486 0.63253 0.23524 0.0
C556 C 0.44455 0.93457 0.28108 0.0
C557 C 0.4175 0.95841 0.26739 0.0
H558 H 0.49036 0.89957 0.26834 0.0
C559 C 0.41688 0.96602 0.22891 0.0
H560 H 0.44587 0.92837 0.31057 0.0
C561 C 0.44316 0.95024 0.20468 0.0
C562 C 0.46983 0.92596 0.21851 0.0
H563 H 0.39659 0.98475 0.2177 0.0
H564 H 0.44214 0.95636 0.17517 0.0
C565 C 0.47011 0.91821 0.25689 0.0
C566 C 0.63837 0.04684 0.26129 0.0
C567 C 0.63693 0.05003 0.30051 0.0
H568 H 0.61889 0.06737 0.20885 0.0
C569 C 0.61298 0.07577 0.317 0.0
H570 H 0.65643 0.02685 0.2479 0.0
C571 C 0.59228 0.09922 0.29471 0.0
C572 C 0.59441 0.09678 0.25553 0.0
H573 H 0.61129 0.07876 0.34705 0.0
H574 H 0.57485 0.1197 0.30818 0.0
C575 C 0.61686 0.06976 0.23893 0.0
C576 C 0.71595 0.9104 0.65451 0.0
C577 C 0.73117 0.94035 0.67464 0.0
H578 H 0.72628 0.86066 0.62297 0.0
C579 C 0.7691 0.94076 0.68173 0.0
H580 H 0.68664 0.90931 0.64898 0.0
C581 C 0.79182 0.91324 0.66629 0.0
C582 C 0.77682 0.88428 0.64453 0.0
H583 H 0.78145 0.96352 0.69715 0.0
H584 H 0.82137 0.91547 0.66998 0.0
C585 C 0.73851 0.88233 0.64 0.0
C586 C 0.13606 0.77543 0.63003 0.0
C587 C 0.15357 0.76125 0.59798 0.0
H588 H 0.10026 0.76493 0.67643 0.0
C589 C 0.14983 0.72326 0.58957 0.0
H590 H 0.13853 0.80462 0.63713 0.0
C591 C 0.127 0.70039 0.61174 0.0
C592 C 0.10847 0.71498 0.64324 0.0
H593 H 0.16287 0.71176 0.56481 0.0
H594 H 0.12296 0.67166 0.60362 0.0
C595 C 0.11427 0.75253 0.65266 0.0
C596 C 0.25812 0.13547 0.56637 0.0
C597 C 0.21928 0.13401 0.5669 0.0
H598 H 0.30849 0.11872 0.59219 0.0
C599 C 0.20148 0.11463 0.59589 0.0
H600 H 0.27274 0.15005 0.54434 0.0
C601 C 0.22204 0.09746 0.62385 0.0
C602 C 0.2609 0.09849 0.62299 0.0
H603 H 0.17166 0.11308 0.5972 0.0
H604 H 0.20746 0.08262 0.64574 0.0
C605 C 0.27867 0.11753 0.59378 0.0
C606 C 0.94535 0.19851 0.616 0.0
C607 C 0.91605 0.21666 0.59831 0.0
H608 H 0.99182 0.20379 0.65265 0.0
C609 C 0.91028 0.25447 0.60623 0.0
H610 H 0.95052 0.1694 0.61056 0.0
C611 C 0.93413 0.2741 0.62962 0.0
C612 C 0.96398 0.25637 0.6465 0.0
H613 H 0.88812 0.26945 0.59313 0.0
H614 H 0.9296 0.30353 0.63394 0.0
C615 C 0.96886 0.21812 0.64025 0.0
C616 C 0.77308 0.1004 0.38562 0.0
C617 C 0.79072 0.06802 0.37315 0.0
H618 H 0.77402 0.14712 0.42247 0.0
C619 C 0.82593 0.05986 0.38678 0.0
H620 H 0.74566 0.10697 0.37601 0.0
C621 C 0.84203 0.08248 0.41436 0.0
C622 C 0.82324 0.11375 0.4285 0.0
H623 H 0.83968 0.03452 0.37832 0.0
H624 H 0.86834 0.07453 0.42578 0.0
C625 C 0.78925 0.12316 0.41263 0.0
C626 C 0.92316 0.7031 0.4853 0.0
C627 C 0.93436 0.71932 0.45127 0.0
H628 H 0.89278 0.71011 0.53695 0.0
C629 C 0.92067 0.75466 0.44248 0.0
H630 H 0.93309 0.67592 0.49295 0.0
C631 C 0.89821 0.77405 0.46754 0.0
C632 C 0.88799 0.7586 0.50197 0.0
H633 H 0.92839 0.7682 0.41663 0.0
H634 H 0.88954 0.80183 0.46033 0.0
C635 C 0.89987 0.72249 0.51035 0.0
C636 C 0.28089 0.9376 0.41823 0.0
C637 C 0.31925 0.93832 0.42366 0.0
H638 H 0.22834 0.91651 0.43614 0.0
C639 C 0.33405 0.91569 0.45162 0.0
H640 H 0.26846 0.95484 0.39719 0.0
C641 C 0.3109 0.89289 0.47356 0.0
C642 C 0.27243 0.89318 0.46871 0.0
H643 H 0.36346 0.91563 0.45653 0.0
H644 H 0.32296 0.87589 0.49501 0.0
C645 C 0.25781 0.91575 0.44072 0.0
C646 C 0.1139 0.23765 0.37557 0.0
C647 C 0.09836 0.2166 0.40485 0.0
H648 H 0.10407 0.27325 0.32899 0.0
C649 C 0.05995 0.2112 0.40588 0.0
H650 H 0.14342 0.24216 0.37374 0.0
C651 C 0.03745 0.22901 0.37991 0.0
C652 C 0.05309 0.25174 0.35211 0.0
H653 H 0.04714 0.19528 0.42809 0.0
H654 H 1.00776 0.22697 0.383 0.0
C655 C 0.09149 0.25508 0.34955 0.0
C656 C 0.61257 0.73621 0.882 0.0
C657 C 0.63781 0.7567 0.90333 0.0
H658 H 0.5659 0.73775 0.84601 0.0
C659 C 0.63529 0.7957 0.90406 0.0
H660 H 0.61377 0.70618 0.88108 0.0
C661 C 0.60733 0.81377 0.88475 0.0
C662 C 0.58199 0.79324 0.86358 0.0
H663 H 0.65413 0.8122 0.92067 0.0
H664 H 0.60548 0.84374 0.88648 0.0
C665 C 0.58524 0.75434 0.86192 0.0
C666 C 0.27807 0.63698 0.90896 0.0
C667 C 0.2642 0.65294 0.94206 0.0
H668 H 0.27215 0.59452 0.86744 0.0
C669 C 0.23009 0.64078 0.95618 0.0
H670 H 0.30472 0.64554 0.89794 0.0
C671 C 0.21167 0.61096 0.93909 0.0
C672 C 0.22715 0.5929 0.90767 0.0
H673 H 0.21935 0.65198 0.98218 0.0
H674 H 0.18637 0.60078 0.95179 0.0
C675 C 0.25968 0.60739 0.89182 0.0
C676 C 0.44014 0.34824 0.9407 0.0
C677 C 0.40445 0.33946 0.95379 0.0
H678 H 0.4835 0.33436 0.90176 0.0
C679 C 0.38249 0.3152 0.9324 0.0
H680 H 0.45776 0.36677 0.95651 0.0
C681 C 0.39703 0.29716 0.90102 0.0
C682 C 0.43373 0.30319 0.88993 0.0
H683 H 0.3547 0.30815 0.9413 0.0
H684 H 0.38056 0.27597 0.88736 0.0
C685 C 0.45472 0.3301 0.90901 0.0
C686 C 0.72041 0.4229 0.9208 0.0
C687 C 0.74083 0.40174 0.9462 0.0
H688 H 0.7217 0.46111 0.87491 0.0
C689 C 0.77952 0.40281 0.94351 0.0
H690 H 0.69056 0.4227 0.92203 0.0
C691 C 0.79731 0.42546 0.91706 0.0
C692 C 0.77693 0.44697 0.89196 0.0
H693 H 0.79612 0.38708 0.96267 0.0
H694 H 0.82717 0.42626 0.91641 0.0
C695 C 0.73823 0.44486 0.8937 0.0
C696 C 0.65923 0.24723 0.11381 0.0
C697 C 0.6638 0.28577 0.11692 0.0
H698 H 0.63265 0.19864 0.1359 0.0
C699 C 0.64912 0.30431 0.14827 0.0
H700 H 0.66978 0.23248 0.08959 0.0
C701 C 0.62824 0.28508 0.17493 0.0
C702 C 0.62086 0.24705 0.17023 0.0
H703 H 0.65209 0.33416 0.15102 0.0
H704 H 0.61578 0.30051 0.19775 0.0
C705 C 0.63764 0.22804 0.14012 0.0
C706 C 0.78415 0.64391 0.11038 0.0
C707 C 0.79431 0.60782 0.09969 0.0
H708 H 0.75639 0.69392 0.0948 0.0
C709 C 0.78241 0.59353 0.06532 0.0
H710 H 0.79263 0.65522 0.13704 0.0
C711 C 0.76025 0.61487 0.04216 0.0
C712 C 0.75059 0.65115 0.05258 0.0
H713 H 0.7893 0.56546 0.0569 0.0
H714 H 0.75144 0.60338 1.01568 0.0
C715 C 0.76315 0.66577 0.08656 0.0
C716 C 0.42684 0.73194 0.10172 0.0
C717 C 0.40328 0.75272 0.07895 0.0
H718 H 0.4717 0.73255 0.14024 0.0
C719 C 0.40639 0.79156 0.07941 0.0
H720 H 0.425 0.70191 0.10212 0.0
C721 C 0.43373 0.80907 0.10079 0.0
C722 C 0.45798 0.78816 0.12275 0.0
H723 H 0.38879 0.80828 0.06208 0.0
H724 H 0.43619 0.83903 0.09972 0.0
C725 C 0.45359 0.74945 0.12365 0.0
C726 C 0.34956 0.45194 0.16027 0.0
C727 C 0.33838 0.41568 0.15066 0.0
H728 H 0.33743 0.5008 0.19273 0.0
C729 C 0.31031 0.39862 0.1721 0.0
H730 H 0.37103 0.46591 0.1444 0.0
C731 C 0.29128 0.41854 0.19966 0.0
C732 C 0.30036 0.45568 0.20706 0.0
H733 H 0.30112 0.37062 0.16583 0.0
H734 H 0.26751 0.40583 0.21311 0.0
C735 C 0.33064 0.47179 0.18828 0.0
C736 C 0.87003 0.61606 0.74764 0.0
C737 C 0.8666 0.57817 0.73907 0.0
H738 H 0.90185 0.66579 0.74087 0.0
C739 C 0.88944 0.56285 0.71117 0.0
H740 H 0.85339 0.62823 0.76977 0.0
C741 C 0.91754 0.58434 0.69461 0.0
C742 C 0.92349 0.62122 0.70634 0.0
H743 H 0.88807 0.5334 0.70496 0.0
H744 H 0.93668 0.57106 0.67547 0.0
C745 C 0.89817 0.63738 0.73146 0.0
C746 C 0.87925 0.44046 0.24948 0.0
C747 C 0.88506 0.44769 0.21139 0.0
H748 H 0.89452 0.40859 0.29692 0.0
C749 C 0.90925 0.42465 0.19093 0.0
H750 H 0.86073 0.4574 0.26614 0.0
C751 C 0.92823 0.39589 0.20869 0.0
C752 C 0.9237 0.39024 0.24722 0.0
H753 H 0.91413 0.42934 0.16148 0.0
H754 H 0.9478 0.37945 0.19278 0.0
C755 C 0.89854 0.41236 0.26718 0.0
C756 C 0.65533 0.88074 0.29675 0.0
C757 C 0.68195 0.90317 0.27866 0.0
H758 H 0.60616 0.84758 0.2912 0.0
C759 C 0.68175 0.90524 0.23963 0.0
H760 H 0.65477 0.87878 0.3269 0.0
C761 C 0.65343 0.88822 0.21945 0.0
C762 C 0.62527 0.8681 0.23779 0.0
H763 H 0.70155 0.92259 0.22496 0.0
H764 H 0.65259 0.89223 0.18953 0.0
C765 C 0.62745 0.86296 0.27642 0.0
C766 C 0.13305 0.61798 0.27597 0.0
C767 C 0.15812 0.59592 0.29542 0.0
H768 H 0.08412 0.65076 0.27818 0.0
C769 C 0.15247 0.59075 0.33397 0.0
H770 H 0.13635 0.62217 0.24621 0.0
C771 C 0.12166 0.60635 0.35229 0.0
C772 C 0.09632 0.62803 0.33255 0.0
H773 H 0.17089 0.57327 0.34958 0.0
H774 H 0.11763 0.60138 0.38182 0.0
C775 C 0.10289 0.63415 0.29432 0.0
C776 C 0.43605 0.15758 0.299 0.0
C777 C 0.47331 0.16313 0.30708 0.0
H778 H 0.38808 0.12411 0.30747 0.0
C779 C 0.48972 0.14164 0.33497 0.0
H780 H 0.42307 0.17333 0.27711 0.0
C781 C 0.46993 0.11252 0.35192 0.0
C782 C 0.43364 0.10467 0.34092 0.0
H783 H 0.51876 0.14497 0.34099 0.0
H784 H 0.48388 0.09453 0.37127 0.0
C785 C 0.41633 0.12886 0.31593 0.0
C786 C 0.14032 0.38765 0.7484 0.0
C787 C 0.11482 0.36211 0.76345 0.0
H788 H 0.17753 0.43282 0.75909 0.0
C789 C 0.11067 0.35977 0.80229 0.0
H790 H 0.14391 0.39 0.71846 0.0
C791 C 0.12926 0.38489 0.8255 0.0
C792 C 0.1529 0.41213 0.81026 0.0
H793 H 0.09091 0.3406 0.81452 0.0
H794 H 0.12376 0.38416 0.85525 0.0
C795 C 0.15957 0.41213 0.77164 0.0
C796 C 0.57929 0.12664 0.81155 0.0
C797 C 0.55974 0.15323 0.79114 0.0
H798 H 0.6157 0.07992 0.80998 0.0
C799 C 0.56296 0.15284 0.75204 0.0
H800 H 0.57746 0.12621 0.84173 0.0
C801 C 0.58423 0.12567 0.73379 0.0
C802 C 0.6035 0.09885 0.75425 0.0
H803 H 0.54808 0.17276 0.73552 0.0
H804 H 0.58556 0.12564 0.70359 0.0
C805 C 0.60126 0.1001 0.79338 0.0
C806 C 0.41838 0.90722 0.73743 0.0
C807 C 0.42031 0.90504 0.77658 0.0
H808 H 0.39677 0.93586 0.69018 0.0
C809 C 0.40045 0.93071 0.79831 0.0
H810 H 0.43381 0.88816 0.71988 0.0
C811 C 0.37864 0.95761 0.7812 0.0
C812 C 0.37723 0.96011 0.74204 0.0
H813 H 0.40162 0.92987 0.82847 0.0
H814 H 0.36335 0.97688 0.79863 0.0
C815 C 0.39748 0.93475 0.72036 0.0
loop_
_geom_bond_atom_site_label_1
_geom_bond_atom_site_label_2
_geom_bond_distance
_geom_bond_site_symmetry_2
_ccdc_geom_bond_type
C0 O2 1.247 . S
C0 O4 1.258 . S
C1 O8 1.247 . S
C1 O9 1.258 . S
O2 C0 1.247 . S
O2 Zn3 2.028 . S
Zn3 O2 2.028 . S
Zn3 O7 2.035 . S
Zn3 O9 2.035 1_545 S
Zn3 O10 2.028 1_545 S
O4 C0 1.258 . S
O4 Zn5 2.035 . S
Zn5 O4 2.035 . S
Zn5 O6 2.028 . S
Zn5 O8 2.028 1_545 S
Zn5 O11 2.035 1_545 S
O6 Zn5 2.028 . S
O6 C12 1.247 . S
O7 Zn3 2.035 . S
O7 C12 1.258 . S
O8 C1 1.247 . S
O8 Zn5 2.028 1_565 S
O9 C1 1.258 . S
O9 Zn3 2.035 1_565 S
O10 Zn3 2.028 1_565 S
O10 C13 1.247 . S
O11 Zn5 2.035 1_565 S
O11 C13 1.258 . S
C12 O6 1.247 . S
C12 O7 1.258 . S
C13 O10 1.247 . S
C13 O11 1.258 . S
C14 O16 1.247 . S
C14 O18 1.258 . S
C15 O22 1.247 . S
C15 O23 1.258 . S
O16 C14 1.247 . S
O16 Zn17 2.028 . S
Zn17 O16 2.028 . S
Zn17 O21 2.035 . S
Zn17 O23 2.035 1_455 S
Zn17 O24 2.028 1_455 S
O18 C14 1.258 . S
O18 Zn19 2.035 . S
Zn19 O18 2.035 . S
Zn19 O20 2.028 . S
Zn19 O22 2.028 1_455 S
Zn19 O25 2.035 1_455 S
O20 Zn19 2.028 . S
O20 C26 1.247 . S
O21 Zn17 2.035 . S
O21 C26 1.258 . S
O22 C15 1.247 . S
O22 Zn19 2.028 1_655 S
O23 C15 1.258 . S
O23 Zn17 2.035 1_655 S
O24 Zn17 2.028 1_655 S
O24 C27 1.247 . S
O25 Zn19 2.035 1_655 S
O25 C27 1.258 . S
C26 O20 1.247 . S
C26 O21 1.258 . S
C27 O24 1.247 . S
C27 O25 1.258 . S
C28 O30 1.247 . S
C28 O32 1.258 . S
C29 O36 1.247 . S
C29 O37 1.258 . S
O30 C28 1.247 . S
O30 Zn31 2.028 1_565 S
Zn31 O30 2.028 1_545 S
Zn31 O35 2.035 1_545 S
Zn31 O37 2.035 . S
Zn31 O38 2.028 . S
O32 C28 1.258 . S
O32 Zn33 2.035 1_565 S
Zn33 O32 2.035 1_545 S
Zn33 O34 2.028 1_545 S
Zn33 O36 2.028 . S
Zn33 O39 2.035 . S
O34 Zn33 2.028 1_565 S
O34 C40 1.247 . S
O35 Zn31 2.035 1_565 S
O35 C40 1.258 . S
O36 C29 1.247 . S
O36 Zn33 2.028 . S
O37 C29 1.258 . S
O37 Zn31 2.035 . S
O38 Zn31 2.028 . S
O38 C41 1.247 . S
O39 Zn33 2.035 . S
O39 C41 1.258 . S
C40 O34 1.247 . S
C40 O35 1.258 . S
C41 O38 1.247 . S
C41 O39 1.258 . S
C42 O44 1.247 . S
C42 O46 1.258 . S
C43 O50 1.247 . S
C43 O51 1.258 . S
O44 C42 1.247 . S
O44 Zn45 2.028 . S
Zn45 O44 2.028 . S
Zn45 O49 2.035 . S
Zn45 O51 2.035 1_455 S
Zn45 O52 2.028 1_455 S
O46 C42 1.258 . S
O46 Zn47 2.035 . S
Zn47 O46 2.035 . S
Zn47 O48 2.028 . S
Zn47 O50 2.028 1_455 S
Zn47 O53 2.035 1_455 S
O48 Zn47 2.028 . S
O48 C54 1.247 . S
O49 Zn45 2.035 . S
O49 C54 1.258 . S
O50 C43 1.247 . S
O50 Zn47 2.028 1_655 S
O51 C43 1.258 . S
O51 Zn45 2.035 1_655 S
O52 Zn45 2.028 1_655 S
O52 C55 1.247 . S
O53 Zn47 2.035 1_655 S
O53 C55 1.258 . S
C54 O48 1.247 . S
C54 O49 1.258 . S
C55 O52 1.247 . S
C55 O53 1.258 . S
C56 O58 1.247 . S
C56 O60 1.258 . S
C57 O64 1.247 . S
C57 O65 1.258 . S
O58 C56 1.247 . S
O58 Zn59 2.028 . S
Zn59 O58 2.028 . S
Zn59 O63 2.035 . S
Zn59 O65 2.035 1_545 S
Zn59 O66 2.028 1_545 S
O60 C56 1.258 . S
O60 Zn61 2.035 . S
Zn61 O60 2.035 . S
Zn61 O62 2.028 . S
Zn61 O64 2.028 1_545 S
Zn61 O67 2.035 1_545 S
O62 Zn61 2.028 . S
O62 C68 1.247 . S
O63 Zn59 2.035 . S
O63 C68 1.258 . S
O64 C57 1.247 . S
O64 Zn61 2.028 1_565 S
O65 C57 1.258 . S
O65 Zn59 2.035 1_565 S
O66 Zn59 2.028 1_565 S
O66 C69 1.247 . S
O67 Zn61 2.035 1_565 S
O67 C69 1.258 . S
C68 O62 1.247 . S
C68 O63 1.258 . S
C69 O66 1.247 . S
C69 O67 1.258 . S
C70 O72 1.247 . S
C70 O74 1.258 . S
C71 O78 1.247 . S
C71 O79 1.258 . S
O72 C70 1.247 . S
O72 Zn73 2.028 . S
Zn73 O72 2.028 . S
Zn73 O77 2.035 . S
Zn73 O79 2.035 1_455 S
Zn73 O80 2.028 1_455 S
O74 C70 1.258 . S
O74 Zn75 2.035 . S
Zn75 O74 2.035 . S
Zn75 O76 2.028 . S
Zn75 O78 2.028 1_455 S
Zn75 O81 2.035 1_455 S
O76 Zn75 2.028 . S
O76 C82 1.247 . S
O77 Zn73 2.035 . S
O77 C82 1.258 . S
O78 C71 1.247 . S
O78 Zn75 2.028 1_655 S
O79 C71 1.258 . S
O79 Zn73 2.035 1_655 S
O80 Zn73 2.028 1_655 S
O80 C83 1.247 . S
O81 Zn75 2.035 1_655 S
O81 C83 1.258 . S
C82 O76 1.247 . S
C82 O77 1.258 . S
C83 O80 1.247 . S
C83 O81 1.258 . S
C84 O86 1.247 . S
C84 O88 1.258 . S
C85 O92 1.247 . S
C85 O93 1.258 . S
O86 C84 1.247 . S
O86 Zn87 2.028 . S
Zn87 O86 2.028 . S
Zn87 O91 2.035 . S
Zn87 O93 2.035 1_545 S
Zn87 O94 2.028 1_545 S
O88 C84 1.258 . S
O88 Zn89 2.035 . S
Zn89 O88 2.035 . S
Zn89 O90 2.028 . S
Zn89 O92 2.028 1_545 S
Zn89 O95 2.035 1_545 S
O90 Zn89 2.028 . S
O90 C96 1.247 . S
O91 Zn87 2.035 . S
O91 C96 1.258 . S
O92 C85 1.247 . S
O92 Zn89 2.028 1_565 S
O93 C85 1.258 . S
O93 Zn87 2.035 1_565 S
O94 Zn87 2.028 1_565 S
O94 C97 1.247 . S
O95 Zn89 2.035 1_565 S
O95 C97 1.258 . S
C96 O90 1.247 . S
C96 O91 1.258 . S
C97 O94 1.247 . S
C97 O95 1.258 . S
C98 O100 1.247 . S
C98 O102 1.258 . S
C99 O106 1.247 . S
C99 O107 1.258 . S
O100 C98 1.247 . S
O100 Zn101 2.028 1_655 S
Zn101 O100 2.028 1_455 S
Zn101 O105 2.035 1_455 S
Zn101 O107 2.035 . S
Zn101 O108 2.028 . S
O102 C98 1.258 . S
O102 Zn103 2.035 1_655 S
Zn103 O102 2.035 1_455 S
Zn103 O104 2.028 1_455 S
Zn103 O106 2.028 . S
Zn103 O109 2.035 . S
O104 Zn103 2.028 1_655 S
O104 C110 1.247 . S
O105 Zn101 2.035 1_655 S
O105 C110 1.258 . S
O106 C99 1.247 . S
O106 Zn103 2.028 . S
O107 C99 1.258 . S
O107 Zn101 2.035 . S
O108 Zn101 2.028 . S
O108 C111 1.247 . S
O109 Zn103 2.035 . S
O109 C111 1.258 . S
C110 O104 1.247 . S
C110 O105 1.258 . S
C111 O108 1.247 . S
C111 O109 1.258 . S
C112 O114 1.247 . S
C112 O116 1.258 . S
C113 O120 1.247 . S
C113 O121 1.258 . S
O114 C112 1.247 . S
O114 Zn115 2.028 . S
Zn115 O114 2.028 . S
Zn115 O119 2.035 . S
Zn115 O121 2.035 1_554 S
Zn115 O122 2.028 1_554 S
O116 C112 1.258 . S
O116 Zn117 2.035 . S
Zn117 O116 2.035 . S
Zn117 O118 2.028 . S
Zn117 O120 2.028 1_554 S
Zn117 O123 2.035 1_554 S
O118 Zn117 2.028 . S
O118 C124 1.247 . S
O119 Zn115 2.035 . S
O119 C124 1.258 . S
O120 C113 1.247 . S
O120 Zn117 2.028 1_556 S
O121 C113 1.258 . S
O121 Zn115 2.035 1_556 S
O122 Zn115 2.028 1_556 S
O122 C125 1.247 . S
O123 Zn117 2.035 1_556 S
O123 C125 1.258 . S
C124 O118 1.247 . S
C124 O119 1.258 . S
C125 O122 1.247 . S
C125 O123 1.258 . S
C126 O128 1.247 . S
C126 O130 1.258 . S
C127 O134 1.247 . S
C127 O135 1.258 . S
O128 C126 1.247 . S
O128 Zn129 2.028 . S
Zn129 O128 2.028 . S
Zn129 O133 2.035 . S
Zn129 O135 2.035 1_554 S
Zn129 O136 2.028 1_554 S
O130 C126 1.258 . S
O130 Zn131 2.035 . S
Zn131 O130 2.035 . S
Zn131 O132 2.028 . S
Zn131 O134 2.028 1_554 S
Zn131 O137 2.035 1_554 S
O132 Zn131 2.028 . S
O132 C138 1.247 . S
O133 Zn129 2.035 . S
O133 C138 1.258 . S
O134 C127 1.247 . S
O134 Zn131 2.028 1_556 S
O135 C127 1.258 . S
O135 Zn129 2.035 1_556 S
O136 Zn129 2.028 1_556 S
O136 C139 1.247 . S
O137 Zn131 2.035 1_556 S
O137 C139 1.258 . S
C138 O132 1.247 . S
C138 O133 1.258 . S
C139 O136 1.247 . S
C139 O137 1.258 . S
C140 O142 1.247 . S
C140 O144 1.258 . S
C141 O148 1.247 . S
C141 O149 1.258 . S
O142 C140 1.247 . S
O142 Zn143 2.028 . S
Zn143 O142 2.028 . S
Zn143 O147 2.035 . S
Zn143 O149 2.035 1_554 S
Zn143 O150 2.028 1_554 S
O144 C140 1.258 . S
O144 Zn145 2.035 . S
Zn145 O144 2.035 . S
Zn145 O146 2.028 . S
Zn145 O148 2.028 1_554 S
Zn145 O151 2.035 1_554 S
O146 Zn145 2.028 . S
O146 C152 1.247 . S
O147 Zn143 2.035 . S
O147 C152 1.258 . S
O148 C141 1.247 . S
O148 Zn145 2.028 1_556 S
O149 C141 1.258 . S
O149 Zn143 2.035 1_556 S
O150 Zn143 2.028 1_556 S
O150 C153 1.247 . S
O151 Zn145 2.035 1_556 S
O151 C153 1.258 . S
C152 O146 1.247 . S
C152 O147 1.258 . S
C153 O150 1.247 . S
C153 O151 1.258 . S
C154 O156 1.247 . S
C154 O158 1.258 . S
C155 O162 1.247 . S
C155 O163 1.258 . S
O156 C154 1.247 . S
O156 Zn157 2.028 1_556 S
Zn157 O156 2.028 1_554 S
Zn157 O161 2.035 1_554 S
Zn157 O163 2.035 . S
Zn157 O164 2.028 . S
O158 C154 1.258 . S
O158 Zn159 2.035 1_556 S
Zn159 O158 2.035 1_554 S
Zn159 O160 2.028 1_554 S
Zn159 O162 2.028 . S
Zn159 O165 2.035 . S
O160 Zn159 2.028 1_556 S
O160 C166 1.247 . S
O161 Zn157 2.035 1_556 S
O161 C166 1.258 . S
O162 C155 1.247 . S
O162 Zn159 2.028 . S
O163 C155 1.258 . S
O163 Zn157 2.035 . S
O164 Zn157 2.028 . S
O164 C167 1.247 . S
O165 Zn159 2.035 . S
O165 C167 1.258 . S
C166 O160 1.247 . S
C166 O161 1.258 . S
C167 O164 1.247 . S
C167 O165 1.258 . S
C168 O170 1.247 . S
C168 O172 1.258 . S
C169 O176 1.247 . S
C169 O177 1.258 . S
O170 C168 1.247 . S
O170 Zn171 2.028 . S
Zn171 O170 2.028 . S
Zn171 O175 2.035 . S
Zn171 O177 2.035 . S
Zn171 O178 2.028 . S
O172 C168 1.258 . S
O172 Zn173 2.035 . S
Zn173 O172 2.035 . S
Zn173 O174 2.028 . S
Zn173 O176 2.028 . S
Zn173 O179 2.035 . S
O174 Zn173 2.028 . S
O174 C180 1.247 . S
O175 Zn171 2.035 . S
O175 C180 1.258 . S
O176 C169 1.247 . S
O176 Zn173 2.028 . S
O177 C169 1.258 . S
O177 Zn171 2.035 . S
O178 Zn171 2.028 . S
O178 C181 1.247 . S
O179 Zn173 2.035 . S
O179 C181 1.258 . S
C180 O174 1.247 . S
C180 O175 1.258 . S
C181 O178 1.247 . S
C181 O179 1.258 . S
C182 O184 1.247 . S
C182 O186 1.258 . S
C183 O190 1.247 . S
C183 O191 1.258 . S
O184 C182 1.247 . S
O184 Zn185 2.028 . S
Zn185 O184 2.028 . S
Zn185 O189 2.035 . S
Zn185 O191 2.035 . S
Zn185 O192 2.028 . S
O186 C182 1.258 . S
O186 Zn187 2.035 . S
Zn187 O186 2.035 . S
Zn187 O188 2.028 . S
Zn187 O190 2.028 . S
Zn187 O193 2.035 . S
O188 Zn187 2.028 . S
O188 C194 1.247 . S
O189 Zn185 2.035 . S
O189 C194 1.258 . S
O190 C183 1.247 . S
O190 Zn187 2.028 . S
O191 C183 1.258 . S
O191 Zn185 2.035 . S
O192 Zn185 2.028 . S
O192 C195 1.247 . S
O193 Zn187 2.035 . S
O193 C195 1.258 . S
C194 O188 1.247 . S
C194 O189 1.258 . S
C195 O192 1.247 . S
C195 O193 1.258 . S
C196 O198 1.247 . S
C196 O200 1.258 . S
C197 O204 1.247 . S
C197 O205 1.258 . S
O198 C196 1.247 . S
O198 Zn199 2.028 . S
Zn199 O198 2.028 . S
Zn199 O203 2.035 . S
Zn199 O205 2.035 . S
Zn199 O206 2.028 . S
O200 C196 1.258 . S
O200 Zn201 2.035 . S
Zn201 O200 2.035 . S
Zn201 O202 2.028 . S
Zn201 O204 2.028 . S
Zn201 O207 2.035 . S
O202 Zn201 2.028 . S
O202 C208 1.247 . S
O203 Zn199 2.035 . S
O203 C208 1.258 . S
O204 C197 1.247 . S
O204 Zn201 2.028 . S
O205 C197 1.258 . S
O205 Zn199 2.035 . S
O206 Zn199 2.028 . S
O206 C209 1.247 . S
O207 Zn201 2.035 . S
O207 C209 1.258 . S
C208 O202 1.247 . S
C208 O203 1.258 . S
C209 O206 1.247 . S
C209 O207 1.258 . S
C210 O212 1.247 . S
C210 O214 1.258 . S
C211 O218 1.247 . S
C211 O219 1.258 . S
O212 C210 1.247 . S
O212 Zn213 2.028 . S
Zn213 O212 2.028 . S
Zn213 O217 2.035 . S
Zn213 O219 2.035 . S
Zn213 O220 2.028 . S
O214 C210 1.258 . S
O214 Zn215 2.035 . S
Zn215 O214 2.035 . S
Zn215 O216 2.028 . S
Zn215 O218 2.028 . S
Zn215 O221 2.035 . S
O216 Zn215 2.028 . S
O216 C222 1.247 . S
O217 Zn213 2.035 . S
O217 C222 1.258 . S
O218 C211 1.247 . S
O218 Zn215 2.028 . S
O219 C211 1.258 . S
O219 Zn213 2.035 . S
O220 Zn213 2.028 . S
O220 C223 1.247 . S
O221 Zn215 2.035 . S
O221 C223 1.258 . S
C222 O216 1.247 . S
C222 O217 1.258 . S
C223 O220 1.247 . S
C223 O221 1.258 . S
C224 O226 1.247 . S
C224 O228 1.258 . S
C225 O232 1.247 . S
C225 O233 1.258 . S
O226 C224 1.247 . S
O226 Zn227 2.028 . S
Zn227 O226 2.028 . S
Zn227 O231 2.035 . S
Zn227 O233 2.035 . S
Zn227 O234 2.028 . S
O228 C224 1.258 . S
O228 Zn229 2.035 . S
Zn229 O228 2.035 . S
Zn229 O230 2.028 . S
Zn229 O232 2.028 . S
Zn229 O235 2.035 . S
O230 Zn229 2.028 . S
O230 C236 1.247 . S
O231 Zn227 2.035 . S
O231 C236 1.258 . S
O232 C225 1.247 . S
O232 Zn229 2.028 . S
O233 C225 1.258 . S
O233 Zn227 2.035 . S
O234 Zn227 2.028 . S
O234 C237 1.247 . S
O235 Zn229 2.035 . S
O235 C237 1.258 . S
C236 O230 1.247 . S
C236 O231 1.258 . S
C237 O234 1.247 . S
C237 O235 1.258 . S
C238 O240 1.247 . S
C238 O242 1.258 . S
C239 O246 1.247 . S
C239 O247 1.258 . S
O240 C238 1.247 . S
O240 Zn241 2.028 . S
Zn241 O240 2.028 . S
Zn241 O245 2.035 . S
Zn241 O247 2.035 . S
Zn241 O248 2.028 . S
O242 C238 1.258 . S
O242 Zn243 2.035 . S
Zn243 O242 2.035 . S
Zn243 O244 2.028 . S
Zn243 O246 2.028 . S
Zn243 O249 2.035 . S
O244 Zn243 2.028 . S
O244 C250 1.247 . S
O245 Zn241 2.035 . S
O245 C250 1.258 . S
O246 C239 1.247 . S
O246 Zn243 2.028 . S
O247 C239 1.258 . S
O247 Zn241 2.035 . S
O248 Zn241 2.028 . S
O248 C251 1.247 . S
O249 Zn243 2.035 . S
O249 C251 1.258 . S
C250 O244 1.247 . S
C250 O245 1.258 . S
C251 O248 1.247 . S
C251 O249 1.258 . S
C252 O254 1.247 . S
C252 O256 1.258 . S
C253 O260 1.247 . S
C253 O261 1.258 . S
O254 C252 1.247 . S
O254 Zn255 2.028 . S
Zn255 O254 2.028 . S
Zn255 O259 2.035 . S
Zn255 O261 2.035 . S
Zn255 O262 2.028 . S
O256 C252 1.258 . S
O256 Zn257 2.035 . S
Zn257 O256 2.035 . S
Zn257 O258 2.028 . S
Zn257 O260 2.028 . S
Zn257 O263 2.035 . S
O258 Zn257 2.028 . S
O258 C264 1.247 . S
O259 Zn255 2.035 . S
O259 C264 1.258 . S
O260 C253 1.247 . S
O260 Zn257 2.028 . S
O261 C253 1.258 . S
O261 Zn255 2.035 . S
O262 Zn255 2.028 . S
O262 C265 1.247 . S
O263 Zn257 2.035 . S
O263 C265 1.258 . S
C264 O258 1.247 . S
C264 O259 1.258 . S
C265 O262 1.247 . S
C265 O263 1.258 . S
C266 O268 1.247 . S
C266 O270 1.258 . S
C267 O274 1.247 . S
C267 O275 1.258 . S
O268 C266 1.247 . S
O268 Zn269 2.028 . S
Zn269 O268 2.028 . S
Zn269 O273 2.035 . S
Zn269 O275 2.035 . S
Zn269 O276 2.028 . S
O270 C266 1.258 . S
O270 Zn271 2.035 . S
Zn271 O270 2.035 . S
Zn271 O272 2.028 . S
Zn271 O274 2.028 . S
Zn271 O277 2.035 . S
O272 Zn271 2.028 . S
O272 C278 1.247 . S
O273 Zn269 2.035 . S
O273 C278 1.258 . S
O274 C267 1.247 . S
O274 Zn271 2.028 . S
O275 C267 1.258 . S
O275 Zn269 2.035 . S
O276 Zn269 2.028 . S
O276 C279 1.247 . S
O277 Zn271 2.035 . S
O277 C279 1.258 . S
C278 O272 1.247 . S
C278 O273 1.258 . S
C279 O276 1.247 . S
C279 O277 1.258 . S
C280 O282 1.247 . S
C280 O284 1.258 . S
C281 O288 1.247 . S
C281 O289 1.258 . S
O282 C280 1.247 . S
O282 Zn283 2.028 . S
Zn283 O282 2.028 . S
Zn283 O287 2.035 . S
Zn283 O289 2.035 . S
Zn283 O290 2.028 . S
O284 C280 1.258 . S
O284 Zn285 2.035 . S
Zn285 O284 2.035 . S
Zn285 O286 2.028 . S
Zn285 O288 2.028 . S
Zn285 O291 2.035 . S
O286 Zn285 2.028 . S
O286 C292 1.247 . S
O287 Zn283 2.035 . S
O287 C292 1.258 . S
O288 C281 1.247 . S
O288 Zn285 2.028 . S
O289 C281 1.258 . S
O289 Zn283 2.035 . S
O290 Zn283 2.028 . S
O290 C293 1.247 . S
O291 Zn285 2.035 . S
O291 C293 1.258 . S
C292 O286 1.247 . S
C292 O287 1.258 . S
C293 O290 1.247 . S
C293 O291 1.258 . S
C294 O296 1.247 . S
C294 O298 1.258 . S
C295 O302 1.247 . S
C295 O303 1.258 . S
O296 C294 1.247 . S
O296 Zn297 2.028 . S
Zn297 O296 2.028 . S
Zn297 O301 2.035 . S
Zn297 O303 2.035 . S
Zn297 O304 2.028 . S
O298 C294 1.258 . S
O298 Zn299 2.035 . S
Zn299 O298 2.035 . S
Zn299 O300 2.028 . S
Zn299 O302 2.028 . S
Zn299 O305 2.035 . S
O300 Zn299 2.028 . S
O300 C306 1.247 . S
O301 Zn297 2.035 . S
O301 C306 1.258 . S
O302 C295 1.247 . S
O302 Zn299 2.028 . S
O303 C295 1.258 . S
O303 Zn297 2.035 . S
O304 Zn297 2.028 . S
O304 C307 1.247 . S
O305 Zn299 2.035 . S
O305 C307 1.258 . S
C306 O300 1.247 . S
C306 O301 1.258 . S
C307 O304 1.247 . S
C307 O305 1.258 . S
C308 O310 1.247 . S
C308 O312 1.258 . S
C309 O316 1.247 . S
C309 O317 1.258 . S
O310 C308 1.247 . S
O310 Zn311 2.028 . S
Zn311 O310 2.028 . S
Zn311 O315 2.035 . S
Zn311 O317 2.035 . S
Zn311 O318 2.028 . S
O312 C308 1.258 . S
O312 Zn313 2.035 . S
Zn313 O312 2.035 . S
Zn313 O314 2.028 . S
Zn313 O316 2.028 . S
Zn313 O319 2.035 . S
O314 Zn313 2.028 . S
O314 C320 1.247 . S
O315 Zn311 2.035 . S
O315 C320 1.258 . S
O316 C309 1.247 . S
O316 Zn313 2.028 . S
O317 C309 1.258 . S
O317 Zn311 2.035 . S
O318 Zn311 2.028 . S
O318 C321 1.247 . S
O319 Zn313 2.035 . S
O319 C321 1.258 . S
C320 O314 1.247 . S
C320 O315 1.258 . S
C321 O318 1.247 . S
C321 O319 1.258 . S
C322 O324 1.247 . S
C322 O326 1.258 . S
C323 O330 1.247 . S
C323 O331 1.258 . S
O324 C322 1.247 . S
O324 Zn325 2.028 . S
Zn325 O324 2.028 . S
Zn325 O329 2.035 . S
Zn325 O331 2.035 . S
Zn325 O332 2.028 . S
O326 C322 1.258 . S
O326 Zn327 2.035 . S
Zn327 O326 2.035 . S
Zn327 O328 2.028 . S
Zn327 O330 2.028 . S
Zn327 O333 2.035 . S
O328 Zn327 2.028 . S
O328 C334 1.247 . S
O329 Zn325 2.035 . S
O329 C334 1.258 . S
O330 C323 1.247 . S
O330 Zn327 2.028 . S
O331 C323 1.258 . S
O331 Zn325 2.035 . S
O332 Zn325 2.028 . S
O332 C335 1.247 . S
O333 Zn327 2.035 . S
O333 C335 1.258 . S
C334 O328 1.247 . S
C334 O329 1.258 . S
C335 O332 1.247 . S
C335 O333 1.258 . S
C336 C337 1.387 . S
C336 H340 0.950 . S
C336 C345 1.390 . S
C337 C336 1.387 . S
C337 C339 1.387 . S
H338 C345 0.950 . S
C339 C337 1.387 . S
C339 C341 1.390 . S
C339 H343 0.950 . S
H340 C336 0.950 . S
C341 C339 1.390 . S
C341 C342 1.387 . S
C341 H344 0.950 . S
C342 C341 1.387 . S
C342 C345 1.387 . S
H343 C339 0.950 . S
H344 C341 0.950 . S
C345 C336 1.390 . S
C345 H338 0.950 . S
C345 C342 1.387 . S
C346 C347 1.387 . S
C346 H350 0.950 . S
C346 C355 1.390 . S
C347 C346 1.387 . S
C347 C349 1.387 . S
H348 C355 0.950 . S
C349 C347 1.387 . S
C349 C351 1.390 . S
C349 H353 0.950 . S
H350 C346 0.950 . S
C351 C349 1.390 . S
C351 C352 1.387 . S
C351 H354 0.950 . S
C352 C351 1.387 . S
C352 C355 1.387 . S
H353 C349 0.950 . S
H354 C351 0.950 . S
C355 C346 1.390 . S
C355 H348 0.950 . S
C355 C352 1.387 . S
C356 C357 1.387 . S
C356 H360 0.950 . S
C356 C365 1.390 . S
C357 C356 1.387 . S
C357 C359 1.387 . S
H358 C365 0.950 . S
C359 C357 1.387 . S
C359 C361 1.390 . S
C359 H363 0.950 . S
H360 C356 0.950 . S
C361 C359 1.390 . S
C361 C362 1.387 . S
C361 H364 0.950 . S
C362 C361 1.387 . S
C362 C365 1.387 . S
H363 C359 0.950 . S
H364 C361 0.950 . S
C365 C356 1.390 . S
C365 H358 0.950 . S
C365 C362 1.387 . S
C366 C367 1.387 . S
C366 H370 0.950 . S
C366 C375 1.390 . S
C367 C366 1.387 . S
C367 C369 1.387 . S
H368 C375 0.950 . S
C369 C367 1.387 . S
C369 C371 1.390 . S
C369 H373 0.950 . S
H370 C366 0.950 . S
C371 C369 1.390 . S
C371 C372 1.387 . S
C371 H374 0.950 . S
C372 C371 1.387 . S
C372 C375 1.387 . S
H373 C369 0.950 . S
H374 C371 0.950 . S
C375 C366 1.390 . S
C375 H368 0.950 . S
C375 C372 1.387 . S
C376 C377 1.387 . S
C376 H380 0.950 . S
C376 C385 1.390 . S
C377 C376 1.387 . S
C377 C379 1.387 . S
H378 C385 0.950 . S
C379 C377 1.387 . S
C379 C381 1.390 . S
C379 H383 0.950 . S
H380 C376 0.950 . S
C381 C379 1.390 . S
C381 C382 1.387 . S
C381 H384 0.950 . S
C382 C381 1.387 . S
C382 C385 1.387 . S
H383 C379 0.950 . S
H384 C381 0.950 . S
C385 C376 1.390 . S
C385 H378 0.950 . S
C385 C382 1.387 . S
C386 C387 1.387 . S
C386 H390 0.950 . S
C386 C395 1.390 . S
C387 C386 1.387 . S
C387 C389 1.387 . S
H388 C395 0.950 . S
C389 C387 1.387 . S
C389 C391 1.390 . S
C389 H393 0.950 . S
H390 C386 0.950 . S
C391 C389 1.390 . S
C391 C392 1.387 . S
C391 H394 0.950 . S
C392 C391 1.387 . S
C392 C395 1.387 . S
H393 C389 0.950 . S
H394 C391 0.950 . S
C395 C386 1.390 . S
C395 H388 0.950 . S
C395 C392 1.387 . S
C396 C397 1.387 . S
C396 H400 0.950 . S
C396 C405 1.390 . S
C397 C396 1.387 . S
C397 C399 1.387 . S
H398 C405 0.950 . S
C399 C397 1.387 . S
C399 C401 1.390 . S
C399 H403 0.950 . S
H400 C396 0.950 . S
C401 C399 1.390 . S
C401 C402 1.387 . S
C401 H404 0.950 . S
C402 C401 1.387 . S
C402 C405 1.387 . S
H403 C399 0.950 . S
H404 C401 0.950 . S
C405 C396 1.390 . S
C405 H398 0.950 . S
C405 C402 1.387 . S
C406 C407 1.387 . S
C406 H410 0.950 . S
C406 C415 1.390 . S
C407 C406 1.387 . S
C407 C409 1.387 . S
H408 C415 0.950 . S
C409 C407 1.387 . S
C409 C411 1.390 . S
C409 H413 0.950 . S
H410 C406 0.950 . S
C411 C409 1.390 . S
C411 C412 1.387 . S
C411 H414 0.950 . S
C412 C411 1.387 . S
C412 C415 1.387 . S
H413 C409 0.950 . S
H414 C411 0.950 . S
C415 C406 1.390 . S
C415 H408 0.950 . S
C415 C412 1.387 . S
C416 C417 1.387 . S
C416 H420 0.950 . S
C416 C425 1.390 . S
C417 C416 1.387 . S
C417 C419 1.387 . S
H418 C425 0.950 . S
C419 C417 1.387 . S
C419 C421 1.390 . S
C419 H423 0.950 . S
H420 C416 0.950 . S
C421 C419 1.390 . S
C421 C422 1.387 . S
C421 H424 0.950 . S
C422 C421 1.387 . S
C422 C425 1.387 . S
H423 C419 0.950 . S
H424 C421 0.950 . S
C425 C416 1.390 . S
C425 H418 0.950 . S
C425 C422 1.387 . S
C426 C427 1.387 . S
C426 H430 0.950 . S
C426 C435 1.390 . S
C427 C426 1.387 . S
C427 C429 1.387 . S
H428 C435 0.950 . S
C429 C427 1.387 . S
C429 C431 1.390 . S
C429 H433 0.950 . S
H430 C426 0.950 . S
C431 C429 1.390 . S
C431 C432 1.387 . S
C431 H434 0.950 . S
C432 C431 1.387 . S
C432 C435 1.387 . S
H433 C429 0.950 . S
H434 C431 0.950 . S
C435 C426 1.390 . S
C435 H428 0.950 . S
C435 C432 1.387 . S
C436 C437 1.387 . S
C436 H440 0.950 . S
C436 C445 1.390 . S
C437 C436 1.387 . S
C437 C439 1.387 . S
H438 C445 0.950 . S
C439 C437 1.387 . S
C439 C441 1.390 . S
C439 H443 0.950 . S
H440 C436 0.950 . S
C441 C439 1.390 . S
C441 C442 1.387 . S
C441 H444 0.950 . S
C442 C441 1.387 . S
C442 C445 1.387 . S
H443 C439 0.950 . S
H444 C441 0.950 . S
C445 C436 1.390 . S
C445 H438 0.950 . S
C445 C442 1.387 . S
C446 C447 1.387 . S
C446 H450 0.950 . S
C446 C455 1.390 . S
C447 C446 1.387 . S
C447 C449 1.387 . S
H448 C455 0.950 . S
C449 C447 1.387 . S
C449 C451 1.390 . S
C449 H453 0.950 . S
H450 C446 0.950 . S
C451 C449 1.390 . S
C451 C452 1.387 . S
C451 H454 0.950 . S
C452 C451 1.387 . S
C452 C455 1.387 . S
H453 C449 0.950 . S
H454 C451 0.950 . S
C455 C446 1.390 . S
C455 H448 0.950 . S
C455 C452 1.387 . S
C456 C457 1.387 . S
C456 H460 0.950 . S
C456 C465 1.390 . S
C457 C456 1.387 . S
C457 C459 1.387 . S
H458 C465 0.950 . S
C459 C457 1.387 . S
C459 C461 1.390 . S
C459 H463 0.950 . S
H460 C456 0.950 . S
C461 C459 1.390 . S
C461 C462 1.387 . S
C461 H464 0.950 . S
C462 C461 1.387 . S
C462 C465 1.387 . S
H463 C459 0.950 . S
H464 C461 0.950 . S
C465 C456 1.390 . S
C465 H458 0.950 . S
C465 C462 1.387 . S
C466 C467 1.387 . S
C466 H470 0.950 . S
C466 C475 1.390 . S
C467 C466 1.387 . S
C467 C469 1.387 . S
H468 C475 0.950 . S
C469 C467 1.387 . S
C469 C471 1.390 . S
C469 H473 0.950 . S
H470 C466 0.950 . S
C471 C469 1.390 . S
C471 C472 1.387 . S
C471 H474 0.950 . S
C472 C471 1.387 . S
C472 C475 1.387 . S
H473 C469 0.950 . S
H474 C471 0.950 . S
C475 C466 1.390 . S
C475 H468 0.950 . S
C475 C472 1.387 . S
C476 C477 1.387 . S
C476 H480 0.950 . S
C476 C485 1.390 . S
C477 C476 1.387 . S
C477 C479 1.387 . S
H478 C485 0.950 . S
C479 C477 1.387 . S
C479 C481 1.390 . S
C479 H483 0.950 . S
H480 C476 0.950 . S
C481 C479 1.390 . S
C481 C482 1.387 . S
C481 H484 0.950 . S
C482 C481 1.387 . S
C482 C485 1.387 . S
H483 C479 0.950 . S
H484 C481 0.950 . S
C485 C476 1.390 . S
C485 H478 0.950 . S
C485 C482 1.387 . S
C486 C487 1.387 . S
C486 H490 0.950 . S
C486 C495 1.390 . S
C487 C486 1.387 . S
C487 C489 1.387 . S
H488 C495 0.950 . S
C489 C487 1.387 . S
C489 C491 1.390 . S
C489 H493 0.950 . S
H490 C486 0.950 . S
C491 C489 1.390 . S
C491 C492 1.387 . S
C491 H494 0.950 . S
C492 C491 1.387 . S
C492 C495 1.387 . S
H493 C489 0.950 . S
H494 C491 0.950 . S
C495 C486 1.390 . S
C495 H488 0.950 . S
C495 C492 1.387 . S
C496 C497 1.387 . S
C496 H500 0.950 . S
C496 C505 1.390 . S
C497 C496 1.387 . S
C497 C499 1.387 . S
H498 C505 0.950 . S
C499 C497 1.387 . S
C499 C501 1.390 . S
C499 H503 0.950 . S
H500 C496 0.950 . S
C501 C499 1.390 . S
C501 C502 1.387 . S
C501 H504 0.950 . S
C502 C501 1.387 . S
C502 C505 1.387 . S
H503 C499 0.950 . S
H504 C501 0.950 . S
C505 C496 1.390 . S
C505 H498 0.950 . S
C505 C502 1.387 . S
C506 C507 1.387 . S
C506 H510 0.950 . S
C506 C515 1.390 . S
C507 C506 1.387 . S
C507 C509 1.387 . S
H508 C515 0.950 . S
C509 C507 1.387 . S
C509 C511 1.390 . S
C509 H513 0.950 . S
H510 C506 0.950 . S
C511 C509 1.390 . S
C511 C512 1.387 . S
C511 H514 0.950 . S
C512 C511 1.387 . S
C512 C515 1.387 . S
H513 C509 0.950 . S
H514 C511 0.950 . S
C515 C506 1.390 . S
C515 H508 0.950 . S
C515 C512 1.387 . S
C516 C517 1.387 . S
C516 H520 0.950 . S
C516 C525 1.390 . S
C517 C516 1.387 . S
C517 C519 1.387 . S
H518 C525 0.950 . S
C519 C517 1.387 . S
C519 C521 1.390 . S
C519 H523 0.950 . S
H520 C516 0.950 . S
C521 C519 1.390 . S
C521 C522 1.387 . S
C521 H524 0.950 . S
C522 C521 1.387 . S
C522 C525 1.387 . S
H523 C519 0.950 . S
H524 C521 0.950 . S
C525 C516 1.390 . S
C525 H518 0.950 . S
C525 C522 1.387 . S
C526 C527 1.387 . S
C526 H530 0.950 . S
C526 C535 1.390 . S
C527 C526 1.387 . S
C527 C529 1.387 . S
H528 C535 0.950 . S
C529 C527 1.387 . S
C529 C531 1.390 . S
C529 H533 0.950 . S
H530 C526 0.950 . S
C531 C529 1.390 . S
C531 C532 1.387 . S
C531 H534 0.950 . S
C532 C531 1.387 . S
C532 C535 1.387 . S
H533 C529 0.950 . S
H534 C531 0.950 . S
C535 C526 1.390 . S
C535 H528 0.950 . S
C535 C532 1.387 . S
C536 C537 1.387 . S
C536 H540 0.950 . S
C536 C545 1.390 . S
C537 C536 1.387 . S
C537 C539 1.387 . S
H538 C545 0.950 . S
C539 C537 1.387 . S
C539 C541 1.390 . S
C539 H543 0.950 . S
H540 C536 0.950 . S
C541 C539 1.390 . S
C541 C542 1.387 . S
C541 H544 0.950 . S
C542 C541 1.387 . S
C542 C545 1.387 . S
H543 C539 0.950 . S
H544 C541 0.950 . S
C545 C536 1.390 . S
C545 H538 0.950 . S
C545 C542 1.387 . S
C546 C547 1.387 . S
C546 H550 0.950 . S
C546 C555 1.390 . S
C547 C546 1.387 . S
C547 C549 1.387 . S
H548 C555 0.950 . S
C549 C547 1.387 . S
C549 C551 1.390 . S
C549 H553 0.950 . S
H550 C546 0.950 . S
C551 C549 1.390 . S
C551 C552 1.387 . S
C551 H554 0.950 . S
C552 C551 1.387 . S
C552 C555 1.387 . S
H553 C549 0.950 . S
H554 C551 0.950 . S
C555 C546 1.390 . S
C555 H548 0.950 . S
C555 C552 1.387 . S
C556 C557 1.387 . S
C556 H560 0.950 . S
C556 C565 1.390 . S
C557 C556 1.387 . S
C557 C559 1.387 . S
H558 C565 0.950 . S
C559 C557 1.387 . S
C559 C561 1.390 . S
C559 H563 0.950 . S
H560 C556 0.950 . S
C561 C559 1.390 . S
C561 C562 1.387 . S
C561 H564 0.950 . S
C562 C561 1.387 . S
C562 C565 1.387 . S
H563 C559 0.950 . S
H564 C561 0.950 . S
C565 C556 1.390 . S
C565 H558 0.950 . S
C565 C562 1.387 . S
C566 C567 1.387 . S
C566 H570 0.950 . S
C566 C575 1.390 . S
C567 C566 1.387 . S
C567 C569 1.387 . S
H568 C575 0.950 . S
C569 C567 1.387 . S
C569 C571 1.390 . S
C569 H573 0.950 . S
H570 C566 0.950 . S
C571 C569 1.390 . S
C571 C572 1.387 . S
C571 H574 0.950 . S
C572 C571 1.387 . S
C572 C575 1.387 . S
H573 C569 0.950 . S
H574 C571 0.950 . S
C575 C566 1.390 . S
C575 H568 0.950 . S
C575 C572 1.387 . S
C576 C577 1.387 . S
C576 H580 0.950 . S
C576 C585 1.390 . S
C577 C576 1.387 . S
C577 C579 1.387 . S
H578 C585 0.950 . S
C579 C577 1.387 . S
C579 C581 1.390 . S
C579 H583 0.950 . S
H580 C576 0.950 . S
C581 C579 1.390 . S
C581 C582 1.387 . S
C581 H584 0.950 . S
C582 C581 1.387 . S
C582 C585 1.387 . S
H583 C579 0.950 . S
H584 C581 0.950 . S
C585 C576 1.390 . S
C585 H578 0.950 . S
C585 C582 1.387 . S
C586 C587 1.387 . S
C586 H590 0.950 . S
C586 C595 1.390 . S
C587 C586 1.387 . S
C587 C589 1.387 . S
H588 C595 0.950 . S
C589 C587 1.387 . S
C589 C591 1.390 . S
C589 H593 0.950 . S
H590 C586 0.950 . S
C591 C589 1.390 . S
C591 C592 1.387 . S
C591 H594 0.950 . S
C592 C591 1.387 . S
C592 C595 1.387 . S
H593 C589 0.950 . S
H594 C591 0.950 . S
C595 C586 1.390 . S
C595 H588 0.950 . S
C595 C592 1.387 . S
C596 C597 1.387 . S
C596 H600 0.950 . S
C596 C605 1.390 . S
C597 C596 1.387 . S
C597 C599 1.387 . S
H598 C605 0.950 . S
C599 C597 1.387 . S
C599 C601 1.390 . S
C599 H603 0.950 . S
H600 C596 0.950 . S
C601 C599 1.390 . S
C601 C602 1.387 . S
C601 H604 0.950 . S
C602 C601 1.387 . S
C602 C605 1.387 . S
H603 C599 0.950 . S
H604 C601 0.950 . S
C605 C596 1.390 . S
C605 H598 0.950 . S
C605 C602 1.387 . S
C606 C607 1.387 . S
C606 H610 0.950 . S
C606 C615 1.390 . S
C607 C606 1.387 . S
C607 C609 1.387 . S
H608 C615 0.950 . S
C609 C607 1.387 . S
C609 C611 1.390 . S
C609 H613 0.950 . S
H610 C606 0.950 . S
C611 C609 1.390 . S
C611 C612 1.387 . S
C611 H614 0.950 . S
C612 C611 1.387 . S
C612 C615 1.387 . S
H613 C609 0.950 . S
H614 C611 0.950 . S
C615 C606 1.390 . S
C615 H608 0.950 . S
C615 C612 1.387 . S
C616 C617 1.387 . S
C616 H620 0.950 . S
C616 C625 1.390 . S
C617 C616 1.387 . S
C617 C619 1.387 . S
H618 C625 0.950 . S
C619 C617 1.387 . S
C619 C621 1.390 . S
C619 H623 0.950 . S
H620 C616 0.950 . S
C621 C619 1.390 . S
C621 C622 1.387 . S
C621 H624 0.950 . S
C622 C621 1.387 . S
C622 C625 1.387 . S
H623 C619 0.950 . S
H624 C621 0.950 . S
C625 C616 1.390 . S
C625 H618 0.950 . S
C625 C622 1.387 . S
C626 C627 1.387 . S
C626 H630 0.950 . S
C626 C635 1.390 . S
C627 C626 1.387 . S
C627 C629 1.387 . S
H628 C635 0.950 . S
C629 C627 1.387 . S
C629 C631 1.390 . S
C629 H633 0.950 . S
H630 C626 0.950 . S
C631 C629 1.390 . S
C631 C632 1.387 . S
C631 H634 0.950 . S
C632 C631 1.387 . S
C632 C635 1.387 . S
H633 C629 0.950 . S
H634 C631 0.950 . S
C635 C626 1.390 . S
C635 H628 0.950 . S
C635 C632 1.387 . S
C636 C637 1.387 . S
C636 H640 0.950 . S
C636 C645 1.390 . S
C637 C636 1.387 . S
C637 C639 1.387 . S
H638 C645 0.950 . S
C639 C637 1.387 . S
C639 C641 1.390 . S
C639 H643 0.950 . S
H640 C636 0.950 . S
C641 C639 1.390 . S
C641 C642 1.387 . S
C641 H644 0.950 . S
C642 C641 1.387 . S
C642 C645 1.387 . S
H643 C639 0.950 . S
H644 C641 0.950 . S
C645 C636 1.390 . S
C645 H638 0.950 . S
C645 C642 1.387 . S
C646 C647 1.387 . S
C646 H650 0.950 . S
C646 C655 1.390 . S
C647 C646 1.387 . S
C647 C649 1.387 . S
H648 C655 0.950 . S
C649 C647 1.387 . S
C649 C651 1.390 . S
C649 H653 0.950 . S
H650 C646 0.950 . S
C651 C649 1.390 . S
C651 C652 1.387 . S
C651 H654 0.950 . S
C652 C651 1.387 . S
C652 C655 1.387 . S
H653 C649 0.950 . S
H654 C651 0.950 . S
C655 C646 1.390 . S
C655 H648 0.950 . S
C655 C652 1.387 . S
C656 C657 1.387 . S
C656 H660 0.950 . S
C656 C665 1.390 . S
C657 C656 1.387 . S
C657 C659 1.387 . S
H658 C665 0.950 . S
C659 C657 1.387 . S
C659 C661 1.390 . S
C659 H663 0.950 . S
H660 C656 0.950 . S
C661 C659 1.390 . S
C661 C662 1.387 . S
C661 H664 0.950 . S
C662 C661 1.387 . S
C662 C665 1.387 . S
H663 C659 0.950 . S
H664 C661 0.950 . S
C665 C656 1.390 . S
C665 H658 0.950 . S
C665 C662 1.387 . S
C666 C667 1.387 . S
C666 H670 0.950 . S
C666 C675 1.390 . S
C667 C666 1.387 . S
C667 C669 1.387 . S
H668 C675 0.950 . S
C669 C667 1.387 . S
C669 C671 1.390 . S
C669 H673 0.950 . S
H670 C666 0.950 . S
C671 C669 1.390 . S
C671 C672 1.387 . S
C671 H674 0.950 . S
C672 C671 1.387 . S
C672 C675 1.387 . S
H673 C669 0.950 . S
H674 C671 0.950 . S
C675 C666 1.390 . S
C675 H668 0.950 . S
C675 C672 1.387 . S
C676 C677 1.387 . S
C676 H680 0.950 . S
C676 C685 1.390 . S
C677 C676 1.387 . S
C677 C679 1.387 . S
H678 C685 0.950 . S
C679 C677 1.387 . S
C679 C681 1.390 . S
C679 H683 0.950 . S
H680 C676 0.950 . S
C681 C679 1.390 . S
C681 C682 1.387 . S
C681 H684 0.950 . S
C682 C681 1.387 . S
C682 C685 1.387 . S
H683 C679 0.950 . S
H684 C681 0.950 . S
C685 C676 1.390 . S
C685 H678 0.950 . S
C685 C682 1.387 . S
C686 C687 1.387 . S
C686 H690 0.950 . S
C686 C695 1.390 . S
C687 C686 1.387 . S
C687 C689 1.387 . S
H688 C695 0.950 . S
C689 C687 1.387 . S
C689 C691 1.390 . S
C689 H693 0.950 . S
H690 C686 0.950 . S
C691 C689 1.390 . S
C691 C692 1.387 . S
C691 H694 0.950 . S
C692 C691 1.387 . S
C692 C695 1.387 . S
H693 C689 0.950 . S
H694 C691 0.950 . S
C695 C686 1.390 . S
C695 H688 0.950 . S
C695 C692 1.387 . S
C696 C697 1.387 . S
C696 H700 0.950 . S
C696 C705 1.390 . S
C697 C696 1.387 . S
C697 C699 1.387 . S
H698 C705 0.950 . S
C699 C697 1.387 . S
C699 C701 1.390 . S
C699 H703 0.950 . S
H700 C696 0.950 . S
C701 C699 1.390 . S
C701 C702 1.387 . S
C701 H704 0.950 . S
C702 C701 1.387 . S
C702 C705 1.387 . S
H703 C699 0.950 . S
H704 C701 0.950 . S
C705 C696 1.390 . S
C705 H698 0.950 . S
C705 C702 1.387 . S
C706 C707 1.387 . S
C706 H710 0.950 . S
C706 C715 1.390 . S
C707 C706 1.387 . S
C707 C709 1.387 . S
H708 C715 0.950 . S
C709 C707 1.387 . S
C709 C711 1.390 . S
C709 H713 0.950 . S
H710 C706 0.950 . S
C711 C709 1.390 . S
C711 C712 1.387 . S
C711 H714 0.950 . S
C712 C711 1.387 . S
C712 C715 1.387 . S
H713 C709 0.950 . S
H714 C711 0.950 . S
C715 C706 1.390 . S
C715 H708 0.950 . S
C715 C712 1.387 . S
C716 C717 1.387 . S
C716 H720 0.950 . S
C716 C725 1.390 . S
C717 C716 1.387 . S
C717 C719 1.387 . S
H718 C725 0.950 . S
C719 C717 1.387 . S
C719 C721 1.390 . S
C719 H723 0.950 . S
H720 C716 0.950 . S
C721 C719 1.390 . S
C721 C722 1.387 . S
C721 H724 0.950 . S
C722 C721 1.387 . S
C722 C725 1.387 . S
H723 C719 0.950 . S
H724 C721 0.950 . S
C725 C716 1.390 . S
C725 H718 0.950 . S
C725 C722 1.387 . S
C726 C727 1.387 . S
C726 H730 0.950 . S
C726 C735 1.390 . S
C727 C726 1.387 . S
C727 C729 1.387 . S
H728 C735 0.950 . S
C729 C727 1.387 . S
C729 C731 1.390 . S
C729 H733 0.950 . S
H730 C726 0.950 . S
C731 C729 1.390 . S
C731 C732 1.387 . S
C731 H734 0.950 . S
C732 C731 1.387 . S
C732 C735 1.387 . S
H733 C729 0.950 . S
H734 C731 0.950 . S
C735 C726 1.390 . S
C735 H728 0.950 . S
C735 C732 1.387 . S
C736 C737 1.387 . S
C736 H740 0.950 . S
C736 C745 1.390 . S
C737 C736 1.387 . S
C737 C739 1.387 . S
H738 C745 0.950 . S
C739 C737 1.387 . S
C739 C741 1.390 . S
C739 H743 0.950 . S
H740 C736 0.950 . S
C741 C739 1.390 . S
C741 C742 1.387 . S
C741 H744 0.950 . S
C742 C741 1.387 . S
C742 C745 1.387 . S
H743 C739 0.950 . S
H744 C741 0.950 . S
C745 C736 1.390 . S
C745 H738 0.950 . S
C745 C742 1.387 . S
C746 C747 1.387 . S
C746 H750 0.950 . S
C746 C755 1.390 . S
C747 C746 1.387 . S
C747 C749 1.387 . S
H748 C755 0.950 . S
C749 C747 1.387 . S
C749 C751 1.390 . S
C749 H753 0.950 . S
H750 C746 0.950 . S
C751 C749 1.390 . S
C751 C752 1.387 . S
C751 H754 0.950 . S
C752 C751 1.387 . S
C752 C755 1.387 . S
H753 C749 0.950 . S
H754 C751 0.950 . S
C755 C746 1.390 . S
C755 H748 0.950 . S
C755 C752 1.387 . S
C756 C757 1.387 . S
C756 H760 0.950 . S
C756 C765 1.390 . S
C757 C756 1.387 . S
C757 C759 1.387 . S
H758 C765 0.950 . S
C759 C757 1.387 . S
C759 C761 1.390 . S
C759 H763 0.950 . S
H760 C756 0.950 . S
C761 C759 1.390 . S
C761 C762 1.387 . S
C761 H764 0.950 . S
C762 C761 1.387 . S
C762 C765 1.387 . S
H763 C759 0.950 . S
H764 C761 0.950 . S
C765 C756 1.390 . S
C765 H758 0.950 . S
C765 C762 1.387 . S
C766 C767 1.387 . S
C766 H770 0.950 . S
C766 C775 1.390 . S
C767 C766 1.387 . S
C767 C769 1.387 . S
H768 C775 0.950 . S
C769 C767 1.387 . S
C769 C771 1.390 . S
C769 H773 0.950 . S
H770 C766 0.950 . S
C771 C769 1.390 . S
C771 C772 1.387 . S
C771 H774 0.950 . S
C772 C771 1.387 . S
C772 C775 1.387 . S
H773 C769 0.950 . S
H774 C771 0.950 . S
C775 C766 1.390 . S
C775 H768 0.950 . S
C775 C772 1.387 . S
C776 C777 1.387 . S
C776 H780 0.950 . S
C776 C785 1.390 . S
C777 C776 1.387 . S
C777 C779 1.387 . S
H778 C785 0.950 . S
C779 C777 1.387 . S
C779 C781 1.390 . S
C779 H783 0.950 . S
H780 C776 0.950 . S
C781 C779 1.390 . S
C781 C782 1.387 . S
C781 H784 0.950 . S
C782 C781 1.387 . S
C782 C785 1.387 . S
H783 C779 0.950 . S
H784 C781 0.950 . S
C785 C776 1.390 . S
C785 H778 0.950 . S
C785 C782 1.387 . S
C786 C787 1.387 . S
C786 H790 0.950 . S
C786 C795 1.390 . S
C787 C786 1.387 . S
C787 C789 1.387 . S
H788 C795 0.950 . S
C789 C787 1.387 . S
C789 C791 1.390 . S
C789 H793 0.950 . S
H790 C786 0.950 . S
C791 C789 1.390 . S
C791 C792 1.387 . S
C791 H794 0.950 . S
C792 C791 1.387 . S
C792 C795 1.387 . S
H793 C789 0.950 . S
H794 C791 0.950 . S
C795 C786 1.390 . S
C795 H788 0.950 . S
C795 C792 1.387 . S
C796 C797 1.387 . S
C796 H800 0.950 . S
C796 C805 1.390 . S
C797 C796 1.387 . S
C797 C799 1.387 . S
H798 C805 0.950 . S
C799 C797 1.387 . S
C799 C801 1.390 . S
C799 H803 0.950 . S
H800 C796 0.950 . S
C801 C799 1.390 . S
C801 C802 1.387 . S
C801 H804 0.950 . S
C802 C801 1.387 . S
C802 C805 1.387 . S
H803 C799 0.950 . S
H804 C801 0.950 . S
C805 C796 1.390 . S
C805 H798 0.950 . S
C805 C802 1.387 . S
C806 C807 1.387 . S
C806 H810 0.950 . S
C806 C815 1.390 . S
C807 C806 1.387 . S
C807 C809 1.387 . S
H808 C815 0.950 . S
C809 C807 1.387 . S
C809 C811 1.390 . S
C809 H813 0.950 . S
H810 C806 0.950 . S
C811 C809 1.390 . S
C811 C812 1.387 . S
C811 H814 0.950 . S
C812 C811 1.387 . S
C812 C815 1.387 . S
H813 C809 0.950 . S
H814 C811 0.950 . S
C815 C806 1.390 . S
C815 H808 0.950 . S
C815 C812 1.387 . S
C337 C309 1.596 . S
C342 C0 1.596 . S
C347 C15 1.597 . S
C352 C335 1.599 . S
C357 C281 1.598 . S
C362 C40 1.602 . S
C367 C295 1.597 . S
C372 C54 1.596 . S
C377 C294 1.598 . S
C382 C69 1.598 . S
C387 C82 1.598 . S
C392 C308 1.596 . S
C397 C334 1.597 . S
C402 C96 1.595 . S
C407 C110 1.599 . S
C412 C280 1.601 . S
C417 C124 1.598 . S
C422 C279 1.594 . S
C427 C224 1.598 . S
C432 C126 1.595 . S
C437 C140 1.598 . S
C442 C250 1.596 . S
C447 C252 1.599 . S
C452 C167 1.595 . S
C457 C166 1.598 . S
C462 C182 1.600 . S
C467 C125 1.596 . S
C472 C197 1.598 . S
C477 C211 1.598 . S
C482 C127 1.600 . S
C487 C141 1.596 . S
C492 C180 1.600 . S
C497 C14 1.598 . S
C502 C253 1.594 . S
C507 C196 1.599 . S
C512 C111 1.594 . S
C517 C68 1.598 . S
C522 C210 1.596 . S
C527 C181 1.598 . S
C532 C83 1.600 . S
C537 C97 1.596 . S
C542 C183 1.599 . S
C547 C55 1.597 . S
C552 C225 1.599 . S
C557 C1 1.597 . S
C562 C251 1.600 . S
C567 C41 1.597 . S
C572 C278 1.596 . S
C577 C85 1.598 . S
C582 C292 1.599 . S
C587 C306 1.597 . S
C592 C99 1.596 . S
C597 C320 1.598 . S
C602 C56 1.595 . S
C607 C322 1.597 . S
C612 C71 1.601 . S
C617 C29 1.598 . S
C622 C323 1.596 . S
C627 C43 1.598 . S
C632 C293 1.600 . S
C637 C13 1.597 . S
C642 C307 1.600 . S
C647 C321 1.598 . S
C652 C26 1.594 . S
C657 C153 1.599 . S
C662 C195 1.601 . S
C667 C154 1.597 . S
C672 C208 1.599 . S
C677 C113 1.598 . S
C682 C222 1.599 . S
C687 C139 1.597 . S
C692 C169 1.600 . S
C697 C138 1.596 . S
C702 C266 1.594 . S
C707 C237 1.599 . S
C712 C152 1.595 . S
C717 C155 1.599 . S
C722 C239 1.596 . S
C727 C112 1.597 . S
C732 C265 1.596 . S
C737 C168 1.597 . S
C742 C98 1.599 . S
C747 C236 1.596 . S
C752 C27 1.601 . S
C757 C28 1.596 . S
C762 C238 1.598 . S
C767 C264 1.596 . S
C772 C42 1.594 . S
C777 C267 1.598 . S
C782 C12 1.594 . S
C787 C70 1.597 . S
C792 C209 1.596 . S
C797 C223 1.598 . S
C802 C84 1.593 . S
C807 C194 1.597 . S
C812 C57 1.601 . S
