# Generated by pormake.
# Topology wjg, (4)-cn, num edge types: 1
# Building blocks:
#     Node 0, Type 0, BuildingBlock: CEKHIL_clean_sbu_0, # of connection points: 4
#     Node 1, Type 0, BuildingBlock: CEKHIL_clean_sbu_0, # of connection points: 4
#     Node 2, Type 0, BuildingBlock: CEKHIL_clean_sbu_0, # of connection points: 4
#     Node 3, Type 0, BuildingBlock: CEKHIL_clean_sbu_0, # of connection points: 4
#     Node 4, Type 0, BuildingBlock: CEKHIL_clean_sbu_0, # of connection points: 4
#     Node 5, Type 0, BuildingBlock: CEKHIL_clean_sbu_0, # of connection points: 4
#     Node 6, Type 0, BuildingBlock: CEKHIL_clean_sbu_0, # of connection points: 4
#     Node 7, Type 0, BuildingBlock: CEKHIL_clean_sbu_0, # of connection points: 4
#     Node 8, Type 0, BuildingBlock: CEKHIL_clean_sbu_0, # of connection points: 4
#     Node 9, Type 0, BuildingBlock: CEKHIL_clean_sbu_0, # of connection points: 4
#     Node 10, Type 0, BuildingBlock: CEKHIL_clean_sbu_0, # of connection points: 4
#     Node 11, Type 0, BuildingBlock: CEKHIL_clean_sbu_0, # of connection points: 4
#     Edge 12, Type (0, 0), BuildingBlock: XIVTED_clean_linker_0, # of connection points: 2
#     Edge 13, Type (0, 0), BuildingBlock: XIVTED_clean_linker_0, # of connection points: 2
#     Edge 14, Type (0, 0), BuildingBlock: XIVTED_clean_linker_0, # of connection points: 2
#     Edge 15, Type (0, 0), BuildingBlock: XIVTED_clean_linker_0, # of connection points: 2
#     Edge 16, Type (0, 0), BuildingBlock: XIVTED_clean_linker_0, # of connection points: 2
#     Edge 17, Type (0, 0), BuildingBlock: XIVTED_clean_linker_0, # of connection points: 2
#     Edge 18, Type (0, 0), BuildingBlock: XIVTED_clean_linker_0, # of connection points: 2
#     Edge 19, Type (0, 0), BuildingBlock: XIVTED_clean_linker_0, # of connection points: 2
#     Edge 20, Type (0, 0), BuildingBlock: XIVTED_clean_linker_0, # of connection points: 2
#     Edge 21, Type (0, 0), BuildingBlock: XIVTED_clean_linker_0, # of connection points: 2
#     Edge 22, Type (0, 0), BuildingBlock: XIVTED_clean_linker_0, # of connection points: 2
#     Edge 23, Type (0, 0), BuildingBlock: XIVTED_clean_linker_0, # of connection points: 2
#     Edge 24, Type (0, 0), BuildingBlock: XIVTED_clean_linker_0, # of connection points: 2
#     Edge 25, Type (0, 0), BuildingBlock: XIVTED_clean_linker_0, # of connection points: 2
#     Edge 26, Type (0, 0), BuildingBlock: XIVTED_clean_linker_0, # of connection points: 2
#     Edge 27, Type (0, 0), BuildingBlock: XIVTED_clean_linker_0, # of connection points: 2
#     Edge 28, Type (0, 0), BuildingBlock: XIVTED_clean_linker_0, # of connection points: 2
#     Edge 29, Type (0, 0), BuildingBlock: XIVTED_clean_linker_0, # of connection points: 2
#     Edge 30, Type (0, 0), BuildingBlock: XIVTED_clean_linker_0, # of connection points: 2
#     Edge 31, Type (0, 0), BuildingBlock: XIVTED_clean_linker_0, # of connection points: 2
#     Edge 32, Type (0, 0), BuildingBlock: XIVTED_clean_linker_0, # of connection points: 2
#     Edge 33, Type (0, 0), BuildingBlock: XIVTED_clean_linker_0, # of connection points: 2
#     Edge 34, Type (0, 0), BuildingBlock: XIVTED_clean_linker_0, # of connection points: 2
#     Edge 35, Type (0, 0), BuildingBlock: XIVTED_clean_linker_0, # of connection points: 2
# Relax obj value: 0.333
# Max RMSD: 0.121
# Mean RMSD: 0.111
data_MOF--net-wjg--node1-CEKHIL_clean_sbu_0--edge1-XIVTED_clean_linker_0
_symmetry_space_group_name_H-M    P1
_symmetry_Int_Tables_number       1
_symmetry_cell_setting            triclinic
loop_
_symmetry_equiv_pos_as_xyz
'x, y, z'
_cell_length_a     30.856142
_cell_length_b     30.72801
_cell_length_c     40.29822
_cell_angle_alpha  89.939968
_cell_angle_beta   90.0158
_cell_angle_gamma 120.10247
loop_
_atom_site_label
_atom_site_type_symbol
_atom_site_fract_x
_atom_site_fract_y
_atom_site_fract_z
_atom_type_partial_charge
Co0 Co 0.15456 0.40127 0.30976 0.0
O1 O 0.13722 0.4086 0.26568 0.0
O2 O 0.08502 0.38625 0.30822 0.0
C3 C 0.22852 0.47269 0.31006 0.0
O4 O 0.16508 0.39231 0.35933 0.0
Co5 Co 0.24775 0.38736 0.3138 0.0
O6 O 0.24022 0.39634 0.36189 0.0
C7 C 0.15093 0.30262 0.29359 0.0
C8 C 0.09303 0.39564 0.27648 0.0
C9 C 0.20193 0.39392 0.37592 0.0
O10 O 0.13026 0.32824 0.30178 0.0
O11 O 0.19855 0.32154 0.29258 0.0
O12 O 0.18773 0.47366 0.31631 0.0
O13 O 0.2222 0.43014 0.29985 0.0
Co14 Co 0.78937 0.14494 0.65472 0.0
O15 O 0.78134 0.13994 0.60785 0.0
O16 O 0.73993 0.07575 0.64182 0.0
C17 C 0.78465 0.21513 0.65941 0.0
O18 O 0.79181 0.14279 0.70583 0.0
Co19 Co 0.8893 0.24112 0.6751 0.0
O20 O 0.86008 0.21709 0.71984 0.0
C21 C 0.8916 0.15406 0.64813 0.0
C22 C 0.7488 0.09302 0.61142 0.0
C23 C 0.82157 0.17515 0.72761 0.0
O24 O 0.84401 0.12769 0.6517 0.0
O25 O 0.91632 0.20186 0.65188 0.0
O26 O 0.74405 0.17156 0.6581 0.0
O27 O 0.8255 0.21473 0.6535 0.0
Co28 Co 0.59873 0.7818 0.9661 0.0
O29 O 0.59212 0.7646 0.92029 0.0
O30 O 0.6154 0.72897 0.95859 0.0
C31 C 0.52564 0.78042 0.97012 0.0
O32 O 0.60745 0.79307 0.01667 0.0
Co33 Co 0.60761 0.88556 0.9801 0.0
O34 O 0.59933 0.86104 0.02659 0.0
C35 C 0.69511 0.88173 0.95554 0.0
C36 C 0.60555 0.73215 0.92743 0.0
C37 C 0.60408 0.82425 0.03675 0.0
O38 O 0.67092 0.8339 0.95939 0.0
O39 O 0.67476 0.90901 0.9588 0.0
O40 O 0.52709 0.73907 0.97246 0.0
O41 O 0.56707 0.81963 0.96127 0.0
Co42 Co 0.85463 0.61362 0.31165 0.0
O43 O 0.86914 0.60827 0.26648 0.0
O44 O 0.923 0.62566 0.30763 0.0
C45 C 0.77886 0.54444 0.31246 0.0
O46 O 0.84673 0.61915 0.36202 0.0
Co47 Co 0.76474 0.63227 0.32056 0.0
O48 O 0.77411 0.61985 0.36771 0.0
C49 C 0.86151 0.71417 0.2982 0.0
C50 C 0.91309 0.61824 0.27594 0.0
C51 C 0.81152 0.6184 0.38008 0.0
O52 O 0.88155 0.68789 0.30631 0.0
O53 O 0.81406 0.69621 0.29756 0.0
O54 O 0.81866 0.54063 0.31611 0.0
O55 O 0.78699 0.58825 0.30374 0.0
Co56 Co 0.20255 0.8061 0.63009 0.0
O57 O 0.22849 0.82971 0.58697 0.0
O58 O 0.24663 0.87865 0.63125 0.0
C59 C 0.21603 0.74124 0.6298 0.0
O60 O 0.18128 0.7904 0.67886 0.0
Co61 Co 0.10631 0.70065 0.63279 0.0
O62 O 0.12466 0.70723 0.68056 0.0
C63 C 0.09844 0.78868 0.61375 0.0
C64 C 0.25228 0.87436 0.59953 0.0
C65 C 0.15348 0.74902 0.69489 0.0
O66 O 0.14478 0.81683 0.62106 0.0
O67 O 0.07653 0.74054 0.61377 0.0
O68 O 0.25214 0.78597 0.63723 0.0
O69 O 0.17542 0.73865 0.61885 0.0
Co70 Co 0.35348 0.21876 0.99807 0.0
O71 O 0.34557 0.2087 0.95111 0.0
O72 O 0.34283 0.27027 0.97741 0.0
C73 C 0.42187 0.21088 1.00035 0.0
O74 O 0.36185 0.23909 0.04747 0.0
Co75 Co 0.34646 0.13247 0.04236 0.0
O76 O 0.3858 0.1891 0.07271 0.0
C77 C 0.25397 0.13248 0.02166 0.0
C78 C 0.34178 0.2486 0.94933 0.0
C79 C 0.38007 0.22729 0.0726 0.0
O80 O 0.27939 0.17302 1.00474 0.0
O81 O 0.27363 0.11043 0.03742 0.0
O82 O 0.42558 0.25365 0.99285 0.0
O83 O 0.37685 0.17336 1.00365 0.0
Co84 Co 0.63702 0.84507 0.35744 0.0
O85 O 0.63334 0.85178 0.40409 0.0
O86 O 0.65752 0.91491 0.36894 0.0
C87 C 0.56184 0.77535 0.35303 0.0
O88 O 0.6422 0.84547 0.30635 0.0
Co89 Co 0.63997 0.74786 0.33911 0.0
O90 O 0.6332 0.76947 0.2939 0.0
C91 C 0.72949 0.83502 0.36579 0.0
C92 C 0.64836 0.89871 0.39958 0.0
C93 C 0.63786 0.81163 0.28519 0.0
O94 O 0.70856 0.86157 0.36148 0.0
O95 O 0.70622 0.78715 0.36238 0.0
O96 O 0.56541 0.81925 0.35336 0.0
O97 O 0.60267 0.77527 0.35969 0.0
Co98 Co 0.75872 0.59395 0.69903 0.0
O99 O 0.74194 0.59312 0.74449 0.0
O100 O 0.70492 0.60982 0.70347 0.0
C101 C 0.75988 0.52164 0.70107 0.0
O102 O 0.76968 0.59597 0.64846 0.0
Co103 Co 0.86336 0.60323 0.68824 0.0
O104 O 0.83857 0.58867 0.64178 0.0
C105 C 0.85708 0.69243 0.70616 0.0
C106 C 0.70858 0.60413 0.7353 0.0
C107 C 0.80137 0.59103 0.62995 0.0
O108 O 0.80958 0.66755 0.70157 0.0
O109 O 0.88434 0.67184 0.7065 0.0
O110 O 0.71774 0.52085 0.69716 0.0
O111 O 0.79795 0.56511 0.70757 0.0
Co112 Co 0.12773 0.76747 0.01329 0.0
O113 O 0.12977 0.7768 0.0603 0.0
O114 O 0.0651 0.71648 0.03345 0.0
C115 C 0.20349 0.7741 0.01085 0.0
O116 O 0.11546 0.74766 0.96391 0.0
Co117 Co 0.20779 0.85367 0.96937 0.0
O118 O 0.18906 0.7975 0.93831 0.0
C119 C 0.11616 0.85511 0.9903 0.0
C120 C 0.08565 0.73744 0.06169 0.0
C121 C 0.14506 0.75951 0.93861 0.0
O122 O 0.10047 0.81426 0.00697 0.0
O123 O 0.15791 0.87684 0.97461 0.0
O124 O 0.16407 0.73153 0.01817 0.0
O125 O 0.19664 0.81209 0.00783 0.0
Co126 Co 0.37326 0.19547 0.38668 0.0
O127 O 0.37004 0.17916 0.43241 0.0
O128 O 0.34944 0.12394 0.39161 0.0
C129 C 0.44989 0.26313 0.38841 0.0
O130 O 0.37422 0.20368 0.33602 0.0
Co131 Co 0.37716 0.29691 0.37232 0.0
O132 O 0.39651 0.28511 0.32765 0.0
C133 C 0.28122 0.20757 0.38964 0.0
C134 C 0.35438 0.13334 0.42341 0.0
C135 C 0.38789 0.2424 0.31699 0.0
O136 O 0.30252 0.18106 0.38807 0.0
O137 O 0.30523 0.25564 0.38718 0.0
O138 O 0.44413 0.21847 0.386 0.0
O139 O 0.40947 0.26479 0.3941 0.0
Co140 Co 0.25274 0.37493 0.69369 0.0
O141 O 0.27357 0.38075 0.73864 0.0
O142 O 0.30502 0.35674 0.69796 0.0
C143 C 0.25325 0.44797 0.69199 0.0
O144 O 0.23693 0.36791 0.64353 0.0
Co145 Co 0.1475 0.36562 0.68704 0.0
O146 O 0.16673 0.37361 0.63942 0.0
C147 C 0.15505 0.27969 0.71011 0.0
C148 C 0.30426 0.3662 0.72951 0.0
C149 C 0.20289 0.37075 0.6262 0.0
O150 O 0.20092 0.30227 0.70075 0.0
O151 O 0.12883 0.30134 0.71113 0.0
O152 O 0.29477 0.44757 0.68769 0.0
O153 O 0.21569 0.40596 0.70155 0.0
Co154 Co 0.80867 0.20259 0.04599 0.0
O155 O 0.81868 0.21762 0.09209 0.0
O156 O 0.87772 0.25607 0.05426 0.0
C157 C 0.73658 0.20333 0.04272 0.0
O158 O 0.80636 0.1935 0.99519 0.0
Co159 Co 0.7144 0.09898 0.0305 0.0
O160 O 0.72971 0.12669 0.98472 0.0
C161 C 0.80644 0.10287 0.05387 0.0
C162 C 0.86424 0.25132 0.0854 0.0
C163 C 0.77132 0.16367 0.9749 0.0
O164 O 0.82966 0.15088 0.05119 0.0
O165 O 0.75891 0.07535 0.05035 0.0
O166 O 0.77914 0.24497 0.04096 0.0
O167 O 0.7392 0.16397 0.05061 0.0
H168 H 0.24947 0.56706 0.32556 0.0
H169 H 0.54375 0.67876 0.34624 0.0
H170 H 0.31999 0.47851 0.30704 0.0
H171 H 0.47197 0.76845 0.34266 0.0
H172 H 0.46252 0.60352 0.33473 0.0
H173 H 0.33145 0.6403 0.33524 0.0
C174 C 0.28233 0.5631 0.3235 0.0
C175 C 0.27814 0.51685 0.31547 0.0
C176 C 0.46478 0.63978 0.33638 0.0
C177 C 0.37213 0.60047 0.32656 0.0
C178 C 0.51095 0.68255 0.34299 0.0
C179 C 0.51431 0.72965 0.34551 0.0
C180 C 0.42207 0.6445 0.33255 0.0
C181 C 0.47097 0.73279 0.341 0.0
C182 C 0.32916 0.60495 0.32895 0.0
C183 C 0.32183 0.51371 0.31311 0.0
N184 N 0.42663 0.69076 0.33487 0.0
N185 N 0.36725 0.5551 0.31876 0.0
H186 H 0.86368 0.31115 0.66642 0.0
H187 H 0.68412 0.4262 0.69065 0.0
H188 H 0.70224 0.22305 0.6702 0.0
H189 H 0.84483 0.51462 0.70113 0.0
H190 H 0.69103 0.35158 0.6819 0.0
H191 H 0.85878 0.38688 0.67817 0.0
C192 C 0.82731 0.30781 0.66979 0.0
C193 C 0.78329 0.26102 0.66723 0.0
C194 C 0.72485 0.38722 0.68622 0.0
C195 C 0.77738 0.34681 0.68051 0.0
C196 C 0.7209 0.42983 0.69116 0.0
C197 C 0.76398 0.47649 0.69656 0.0
C198 C 0.77228 0.39137 0.6865 0.0
C199 C 0.81071 0.4792 0.69704 0.0
C200 C 0.82452 0.35088 0.67652 0.0
C201 C 0.73709 0.25847 0.67188 0.0
N202 N 0.81369 0.4371 0.69193 0.0
N203 N 0.73536 0.30082 0.67818 0.0
H204 H 0.43739 0.7028 0.9914 0.0
H205 H 0.29219 0.85718 0.9927 0.0
H206 H 0.50911 0.86017 0.96535 0.0
H207 H 0.22544 0.6993 0.01615 0.0
H208 H 0.37269 0.86103 0.9836 0.0
H209 H 0.36009 0.70285 1.00203 0.0
C210 C 0.43684 0.73749 0.98795 0.0
C211 C 0.47956 0.78151 0.97734 0.0
C212 C 0.34036 0.82564 0.99076 0.0
C213 C 0.39086 0.78187 0.98941 0.0
C214 C 0.29452 0.82341 0.99593 0.0
C215 C 0.25224 0.77783 0.00513 0.0
C216 C 0.34358 0.78196 0.99491 0.0
C217 C 0.25709 0.7352 0.00902 0.0
C218 C 0.3926 0.7375 0.99402 0.0
C219 C 0.4768 0.82541 0.97342 0.0
N220 N 0.30191 0.73834 1.00388 0.0
N221 N 0.43296 0.82449 0.97939 0.0
H222 H 0.53905 0.26702 0.38726 0.0
H223 H 0.69085 0.54587 0.31446 0.0
H224 H 0.47154 0.35929 0.37292 0.0
H225 H 0.75458 0.45154 0.33466 0.0
H226 H 0.61015 0.47934 0.3357 0.0
H227 H 0.6189 0.33639 0.36932 0.0
C228 C 0.5412 0.30219 0.38051 0.0
C229 C 0.4987 0.30745 0.38128 0.0
C230 C 0.64185 0.47333 0.33544 0.0
C231 C 0.59011 0.38714 0.3603 0.0
C232 C 0.68776 0.51107 0.32319 0.0
C233 C 0.72928 0.50402 0.32284 0.0
C234 C 0.63777 0.42844 0.34727 0.0
C235 C 0.72347 0.45848 0.33447 0.0
C236 C 0.58685 0.34183 0.37018 0.0
C237 C 0.50359 0.35387 0.37257 0.0
N238 N 0.67856 0.42245 0.34623 0.0
N239 N 0.54864 0.39206 0.3621 0.0
H240 H 0.14152 0.6425 0.63019 0.0
H241 H 0.3276 0.54137 0.67428 0.0
H242 H 0.30061 0.7392 0.64478 0.0
H243 H 0.16758 0.45306 0.68878 0.0
H244 H 0.31827 0.61247 0.65716 0.0
H245 H 0.15023 0.56988 0.64494 0.0
C246 C 0.17825 0.64834 0.63628 0.0
C247 C 0.22039 0.69671 0.63644 0.0
C248 C 0.28522 0.57755 0.66417 0.0
C249 C 0.23059 0.61447 0.65318 0.0
C250 C 0.29053 0.53705 0.67393 0.0
C251 C 0.24829 0.49149 0.68297 0.0
C252 C 0.2373 0.57215 0.6632 0.0
C253 C 0.2011 0.48769 0.68205 0.0
C254 C 0.18315 0.60705 0.64483 0.0
C255 C 0.26714 0.70245 0.64453 0.0
N256 N 0.1968 0.52757 0.67219 0.0
N257 N 0.271 0.66174 0.65257 0.0
H258 H 0.72596 0.28125 0.02228 0.0
H259 H 0.42669 0.12741 0.01898 0.0
H260 H 0.64035 0.12313 0.04635 0.0
H261 H 0.51869 0.28492 0.99481 0.0
H262 H 0.50301 0.12301 0.02853 0.0
H263 H 0.64884 0.28125 0.01121 0.0
C264 C 0.69076 0.24639 0.02522 0.0
C265 C 0.68941 0.20215 0.03539 0.0
C266 C 0.5063 0.15842 0.02109 0.0
C267 C 0.60053 0.20184 0.02277 0.0
C268 C 0.46289 0.16096 0.01567 0.0
C269 C 0.46656 0.20662 0.00617 0.0
C270 C 0.55332 0.20188 0.01691 0.0
C271 C 0.51415 0.24897 1.00218 0.0
C272 C 0.64662 0.2464 0.01887 0.0
C273 C 0.6428 0.15805 0.03863 0.0
N274 N 0.55559 0.24554 0.00759 0.0
N275 N 0.59994 0.159 0.03242 0.0
H276 H 0.06755 0.24768 0.33136 0.0
H277 H 0.2221 0.11955 0.35731 0.0
H278 H 0.16394 0.2305 0.26182 0.0
H279 H 0.21524 0.2351 0.41377 0.0
H280 H 0.14215 0.0976 0.33156 0.0
H281 H 0.05822 0.17543 0.36211 0.0
C282 C 0.08425 0.22686 0.3212 0.0
C283 C 0.12009 0.24737 0.2957 0.0
C284 C 0.15662 0.12557 0.3511 0.0
C285 C 0.109 0.16503 0.33052 0.0
C286 C 0.20252 0.13855 0.36569 0.0
C287 C 0.22628 0.18095 0.38643 0.0
C288 C 0.13476 0.1551 0.3576 0.0
C289 C 0.19899 0.20355 0.3968 0.0
C290 C 0.07862 0.18528 0.33886 0.0
C291 C 0.13865 0.21763 0.28283 0.0
N292 N 0.15495 0.19101 0.3817 0.0
N293 N 0.13418 0.17846 0.30109 0.0
H294 H 0.87986 0.07955 0.68951 0.0
H295 H 0.16538 0.21746 0.6673 0.0
H296 H 0.97036 0.17139 0.6083 0.0
H297 H 0.08012 0.21621 0.75229 0.0
H298 H 0.09325 0.13955 0.6481 0.0
H299 H 0.94953 0.0689 0.7078 0.0
C300 C 0.91333 0.09488 0.67432 0.0
C301 C 0.92053 0.12804 0.64818 0.0
C302 C 0.0914 0.1545 0.67206 0.0
C303 C -0.00056 0.11567 0.66875 0.0
C304 C 0.13259 0.19912 0.6831 0.0
C305 C 0.12733 0.22442 0.71042 0.0
C306 C 0.04548 0.13591 0.68864 0.0
C307 C 0.08457 0.19873 0.73023 0.0
C308 C 0.95298 0.08861 0.68477 0.0
C309 C 0.96423 0.14685 0.62925 0.0
N310 N 0.04448 0.15628 0.71845 0.0
N311 N 0.00268 0.14129 0.64035 0.0
H312 H 0.89221 0.13426 0.01875 0.0
H313 H 0.75202 0.85143 0.98889 0.0
H314 H 0.78778 0.01326 0.0815 0.0
H315 H 0.76408 0.97153 0.92705 0.0
H316 H 0.82849 0.91124 0.01745 0.0
H317 H 0.90874 0.07521 0.98894 0.0
C318 C 0.87508 0.0959 0.02773 0.0
C319 C 0.83621 0.07767 0.05124 0.0
C320 C 0.8163 0.9239 0.99616 0.0
C321 C 0.85542 0.01069 0.01747 0.0
C322 C 0.77237 0.88978 0.97981 0.0
C323 C 0.75021 0.9075 0.95706 0.0
C324 C 0.83745 0.97537 0.98941 0.0
C325 C 0.77878 0.95706 0.94574 0.0
C326 C 0.8848 0.06223 0.01065 0.0
C327 C 0.81621 0.02811 0.06233 0.0
N328 N 0.82053 0.98983 0.96271 0.0
N329 N 0.82507 -0.00422 0.0447 0.0
H330 H 0.79408 0.91395 0.32776 0.0
H331 H 0.9353 0.76985 0.3422 0.0
H332 H 0.78956 0.81367 0.40423 0.0
H333 H 0.85728 0.78404 0.25799 0.0
H334 H 0.94443 0.84753 0.36479 0.0
H335 H 0.87528 0.92683 0.30969 0.0
C336 C 0.81155 0.89699 0.34203 0.0
C337 C 0.78446 0.86091 0.36652 0.0
C338 C 0.9283 0.83551 0.34029 0.0
C339 C 0.87679 0.8758 0.34617 0.0
C340 C 0.92299 0.79102 0.3273 0.0
C341 C 0.89274 0.76927 0.29926 0.0
C342 C 0.90296 0.85736 0.32496 0.0
C343 C 0.87868 0.79862 0.28063 0.0
C344 C 0.85804 0.90459 0.33174 0.0
C345 C 0.80873 0.84034 0.3844 0.0
N346 N 0.88263 0.84077 0.29432 0.0
N347 N 0.85327 0.84722 0.37338 0.0
H348 H 0.00716 0.75415 0.58371 0.0
H349 H 0.83167 0.74326 0.66236 0.0
H350 H 0.11767 0.87696 0.64257 0.0
H351 H 0.94372 0.76608 0.73488 0.0
H352 H 0.89622 0.81006 0.6285 0.0
H353 H 0.94415 0.77354 0.60289 0.0
C354 C 0.01856 0.7865 0.59964 0.0
C355 C 0.06698 0.81232 0.61288 0.0
C356 C 0.90622 0.80245 0.65272 0.0
C357 C -0.00515 0.83363 0.63604 0.0
C358 C 0.8693 0.76443 0.67229 0.0
C359 C 0.88335 0.74707 0.70028 0.0
C360 C 0.95662 0.82238 0.66167 0.0
C361 C 0.93207 0.77675 0.71243 0.0
C362 C 0.98262 0.79806 0.61047 0.0
C363 C 0.08011 0.85475 0.63275 0.0
N364 N 0.96764 0.8121 0.6924 0.0
N365 N 0.04367 0.86261 0.64509 0.0
H366 H 0.19495 0.12193 0.96813 0.0
H367 H 0.06779 0.86593 0.04379 0.0
H368 H 0.18755 0.08177 0.07126 0.0
H369 H 0.10132 0.90655 0.94078 0.0
H370 H 0.0583 0.93944 0.05221 0.0
H371 H 0.11227 0.04814 0.95962 0.0
C372 C 0.17491 0.09884 0.98933 0.0
C373 C 0.19897 0.10572 0.01995 0.0
C374 C 0.06551 0.93113 0.02737 0.0
C375 C 0.10597 0.02095 0.01021 0.0
C376 C 0.07094 0.88908 0.0226 0.0
C377 C 0.08837 0.88235 0.99204 0.0
C378 C 0.07933 0.96677 1.00166 0.0
C379 C 0.09051 0.91237 0.96521 0.0
C380 C 0.12763 0.05661 0.9845 0.0
C381 C 0.17102 0.0758 0.04678 0.0
N382 N 0.08762 0.95431 0.97082 0.0
N383 N 0.12643 0.03364 0.04111 0.0
H384 H 0.96397 0.32665 0.08368 0.0
H385 H 0.99081 0.33263 0.28076 0.0
H386 H 0.83945 0.24404 0.15044 0.0
H387 H 0.10751 0.43783 0.21566 0.0
H388 H 0.93245 0.30425 0.23368 0.0
H389 H 0.01667 0.37136 0.13179 0.0
C390 C 0.94772 0.31813 0.10831 0.0
C391 C 0.89746 0.28125 0.11301 0.0
C392 C 0.97066 0.33421 0.22986 0.0
C393 C 0.95703 0.33189 0.16798 0.0
C394 C 0.00373 0.35068 0.25683 0.0
C395 C 0.05405 0.38708 0.25195 0.0
C396 C 0.98841 0.35412 0.19795 0.0
C397 C 0.06907 0.40903 0.22034 0.0
C398 C 0.97762 0.3437 0.13575 0.0
C399 C 0.87815 0.27185 0.14552 0.0
N400 N 0.03668 0.39167 0.19445 0.0
N401 N 0.90797 0.29661 0.17167 0.0
H402 H 0.68745 0.98961 0.60476 0.0
H403 H 0.70117 0.00264 0.40575 0.0
H404 H 0.7574 0.12821 0.54877 0.0
H405 H 0.61189 0.8657 0.46116 0.0
H406 H 0.71965 0.05019 0.45797 0.0
H407 H 0.65667 0.94311 0.55227 0.0
C408 C 0.69593 0.0102 0.58159 0.0
C409 C 0.72539 0.06274 0.58121 0.0
C410 C 0.69562 0.00971 0.45855 0.0
C411 C 0.69087 0.01025 0.52125 0.0
C412 C 0.68496 0.98274 0.42872 0.0
C413 C 0.65548 0.93021 0.42911 0.0
C414 C 0.67672 0.98379 0.4888 0.0
C415 C 0.63546 0.90618 0.45967 0.0
C416 C 0.6785 0.98379 0.55163 0.0
C417 C 0.73527 0.08762 0.55039 0.0
N418 N 0.64679 0.93301 0.4882 0.0
N419 N 0.71845 0.06124 0.52177 0.0
H420 H 0.64284 0.66694 0.92943 0.0
H421 H 0.65753 0.65668 0.73184 0.0
H422 H 0.58005 0.73114 0.86295 0.0
H423 H 0.69386 0.56931 0.79823 0.0
H424 H 0.62322 0.67993 0.77929 0.0
H425 H 0.65755 0.62656 0.88155 0.0
C426 C 0.63173 0.67211 0.90492 0.0
C427 C 0.61078 0.70287 0.90019 0.0
C428 C 0.63813 0.65509 0.78332 0.0
C429 C 0.62767 0.6574 0.84539 0.0
C430 C 0.65739 0.64167 0.7562 0.0
C431 C 0.67917 0.61172 0.76121 0.0
C432 C 0.64105 0.63853 0.81547 0.0
C433 C 0.67819 0.59329 0.79333 0.0
C434 C 0.64008 0.64914 0.87757 0.0
C435 C 0.59691 0.70823 0.86781 0.0
N436 N 0.66013 0.60747 0.81924 0.0
N437 N 0.60605 0.68622 0.8417 0.0
H438 H 0.12036 0.78024 0.12205 0.0
H439 H 0.89711 0.55804 0.22337 0.0
H440 H 0.00033 0.64734 0.07632 0.0
H441 H 0.00929 0.69618 0.2683 0.0
H442 H 0.94332 0.58346 0.17114 0.0
H443 H 0.08684 0.74528 0.17649 0.0
C444 C 0.08673 0.74365 0.12342 0.0
C445 C 0.06285 0.7168 0.09446 0.0
C446 C 0.95857 0.60783 0.19253 0.0
C447 C 0.02454 0.67623 0.15715 0.0
C448 C 0.93259 0.59302 0.22248 0.0
C449 C 0.94962 0.62508 0.25011 0.0
C450 C 0.00161 0.65545 0.19003 0.0
C451 C -0.00468 0.67019 0.24765 0.0
C452 C 0.0678 0.72363 0.15463 0.0
C453 C 0.01963 0.66953 0.09793 0.0
N454 N 0.01936 0.68452 0.21786 0.0
N455 N 0.00179 0.65078 0.12874 0.0
H456 H 0.33395 0.03562 0.41595 0.0
H457 H 0.28004 0.97355 0.60937 0.0
H458 H 0.3506 0.14485 0.48971 0.0
H459 H 0.28643 0.87204 0.5382 0.0
H460 H 0.31065 0.03896 0.56641 0.0
H461 H 0.31805 0.97514 0.46074 0.0
C462 C 0.33417 0.04677 0.44147 0.0
C463 C 0.34344 0.09511 0.44912 0.0
C464 C 0.30596 0.00252 0.56037 0.0
C465 C 0.32569 0.02683 0.50026 0.0
C466 C 0.28892 0.96545 0.58496 0.0
C467 C 0.28017 0.91736 0.57713 0.0
C468 C 0.31392 0.99098 0.52791 0.0
C469 C 0.29198 0.90854 0.54509 0.0
C470 C 0.32545 0.01251 0.46702 0.0
C471 C 0.34363 0.10791 0.48262 0.0
N472 N 0.30766 0.94478 0.52154 0.0
N473 N 0.33469 0.07395 0.5069 0.0
H474 H 0.35468 0.34184 0.9334 0.0
H475 H 0.31256 0.28227 0.73885 0.0
H476 H 0.32777 0.20229 0.88968 0.0
H477 H 0.35252 0.42613 0.78144 0.0
H478 H 0.32795 0.2554 0.79287 0.0
H479 H 0.35922 0.3755 0.87738 0.0
C480 C 0.34931 0.3182 0.9121 0.0
C481 C 0.34053 0.26914 0.91628 0.0
C482 C 0.33459 0.29333 0.7902 0.0
C483 C 0.34647 0.30744 0.85216 0.0
C484 C 0.32673 0.3089 0.75917 0.0
C485 C 0.33147 0.35644 0.75578 0.0
C486 C 0.34681 0.32553 0.81783 0.0
C487 C 0.34854 0.38911 0.78314 0.0
C488 C 0.35242 0.33752 0.8801 0.0
C489 C 0.3345 0.24033 0.88771 0.0
N490 N 0.35478 0.37283 0.81312 0.0
N491 N 0.33744 0.2598 0.85699 0.0
H492 H 0.12579 0.3786 0.41947 0.0
H493 H 0.2792 0.38412 0.58312 0.0
H494 H 0.27648 0.40335 0.41735 0.0
H495 H 0.12841 0.35914 0.58426 0.0
H496 H 0.27891 0.39001 0.52219 0.0
H497 H 0.12622 0.37145 0.48016 0.0
C498 C 0.15895 0.38274 0.43163 0.0
C499 C 0.201 0.39151 0.41298 0.0
C500 C 0.24591 0.38314 0.53591 0.0
C501 C 0.20178 0.38307 0.48258 0.0
C502 C 0.24604 0.37956 0.5707 0.0
C503 C 0.20399 0.37139 0.58912 0.0
C504 C 0.2034 0.37841 0.51941 0.0
C505 C 0.16206 0.36594 0.57144 0.0
C506 C 0.15919 0.37849 0.46632 0.0
C507 C 0.24293 0.39639 0.43038 0.0
N508 N 0.16293 0.36966 0.53784 0.0
N509 N 0.24219 0.39206 0.46398 0.0
H510 H 0.69922 0.12626 0.92693 0.0
H511 H 0.89215 0.20633 0.77574 0.0
H512 H 0.85979 0.21152 0.93897 0.0
H513 H 0.73186 0.12484 0.76236 0.0
H514 H 0.88045 0.20509 0.83548 0.0
H515 H 0.71017 0.1247 0.8672 0.0
C516 C 0.73695 0.14506 0.91703 0.0
C517 C 0.77875 0.16898 0.93826 0.0
C518 C 0.84771 0.18716 0.81966 0.0
C519 C 0.79139 0.16676 0.86928 0.0
C520 C 0.85429 0.1876 0.78543 0.0
C521 C 0.81285 0.16583 0.76386 0.0
C522 C 0.79922 0.16493 0.83284 0.0
C523 C 0.76483 0.14181 0.778 0.0
C524 C 0.74306 0.14394 0.88278 0.0
C525 C 0.82649 0.19288 0.92371 0.0
N526 N 0.75933 0.14238 0.81162 0.0
N527 N 0.83149 0.1909 0.89017 0.0
H528 H 0.61571 0.87623 0.25025 0.0
H529 H 0.63026 0.76371 0.07251 0.0
H530 H 0.6589 0.76381 0.2365 0.0
H531 H 0.58715 0.87645 0.08508 0.0
H532 H 0.64121 0.76356 0.13284 0.0
H533 H 0.6074 0.87922 0.18961 0.0
C534 C 0.62395 0.85267 0.23459 0.0
C535 C 0.6376 0.81948 0.24868 0.0
C536 C 0.62928 0.78829 0.12232 0.0
C537 C 0.6277 0.82218 0.17938 0.0
C538 C 0.62277 0.78813 0.08784 0.0
C539 C 0.60785 0.82013 0.07343 0.0
C540 C 0.62078 0.82063 0.14264 0.0
C541 C 0.59896 0.8512 0.0948 0.0
C542 C 0.61889 0.85407 0.19998 0.0
C543 C 0.64761 0.78959 0.227 0.0
N544 N 0.60562 0.85071 0.12811 0.0
N545 N 0.64227 0.79151 0.19369 0.0
H546 H 0.8711 0.59635 0.42033 0.0
H547 H 0.74255 0.61429 0.58993 0.0
H548 H 0.75291 0.63267 0.42445 0.0
H549 H 0.85326 0.56774 0.5853 0.0
H550 H 0.74543 0.62094 0.52911 0.0
H551 H 0.86643 0.58724 0.48104 0.0
C552 C 0.84445 0.60268 0.43388 0.0
C553 C 0.81235 0.61515 0.41701 0.0
C554 C 0.76892 0.60907 0.5415 0.0
C555 C 0.8065 0.60452 0.48652 0.0
C556 C 0.76703 0.60501 0.57624 0.0
C557 C 0.79781 0.5907 0.593 0.0
C558 C 0.80188 0.59884 0.52335 0.0
C559 C 0.82904 0.57937 0.57372 0.0
C560 C 0.84157 0.59724 0.46855 0.0
C561 C 0.77835 0.62268 0.43609 0.0
N562 N 0.83041 0.58391 0.54015 0.0
N563 N 0.77635 0.61725 0.4696 0.0
H564 H 0.16448 0.69497 0.90443 0.0
H565 H 0.1555 0.8206 0.73653 0.0
H566 H 0.09032 0.78167 0.89735 0.0
H567 H 0.14571 0.67558 0.73628 0.0
H568 H 0.14181 0.81305 0.79693 0.0
H569 H 0.16348 0.68899 0.84362 0.0
C570 C 0.14582 0.7106 0.89007 0.0
C571 C 0.12616 0.7376 0.90579 0.0
C572 C 0.14274 0.78297 0.78355 0.0
C573 C 0.12829 0.73429 0.83657 0.0
C574 C 0.15127 0.78763 0.74928 0.0
C575 C 0.15194 0.74878 0.73154 0.0
C576 C 0.13597 0.7397 0.80016 0.0
C577 C 0.14544 0.70638 0.74913 0.0
C578 C 0.14605 0.708 0.85543 0.0
C579 C 0.10454 0.75932 0.88608 0.0
N580 N 0.13813 0.70312 0.78251 0.0
N581 N 0.10716 0.7582 0.85243 0.0
H582 H 0.31785 0.1713 0.27566 0.0
H583 H 0.46455 0.2864 0.10795 0.0
H584 H 0.4623 0.30669 0.27597 0.0
H585 H 0.30357 0.21007 0.11308 0.0
H586 H 0.46821 0.29106 0.16881 0.0
H587 H 0.31585 0.17674 0.21476 0.0
C588 C 0.34967 0.20131 0.2628 0.0
C589 C 0.39054 0.23826 0.28066 0.0
C590 C 0.43214 0.27457 0.15658 0.0
C591 C 0.38816 0.24536 0.2115 0.0
C592 C 0.43011 0.27281 0.12191 0.0
C593 C 0.38375 0.24919 0.10557 0.0
C594 C 0.38741 0.25083 0.17493 0.0
C595 C 0.34005 0.22994 0.12479 0.0
C596 C 0.34814 0.20496 0.22821 0.0
C597 C 0.4303 0.27724 0.26295 0.0
N598 N 0.34285 0.23022 0.1585 0.0
N599 N 0.42827 0.27968 0.22934 0.0
loop_
_geom_bond_atom_site_label_1
_geom_bond_atom_site_label_2
_geom_bond_distance
_geom_bond_site_symmetry_2
_ccdc_geom_bond_type
Co0 O1 2.216 . S
Co0 O2 2.091 . S
Co0 O4 2.004 . S
Co0 O10 2.021 . S
Co0 O12 2.137 . S
Co0 O13 2.244 . S
O1 Co0 2.216 . S
O1 C8 1.247 . S
O2 Co0 2.091 . S
O2 C8 1.261 . S
C3 O12 1.247 . S
C3 O13 1.272 . S
O4 Co0 2.004 . S
O4 C9 1.259 . S
Co5 O6 2.061 . S
Co5 O11 2.052 . S
Co5 O13 2.135 . S
O6 Co5 2.061 . S
O6 C9 1.235 . S
C7 O10 1.238 . S
C7 O11 1.241 . S
C8 O1 1.247 . S
C8 O2 1.261 . S
C9 O4 1.259 . S
C9 O6 1.235 . S
O10 Co0 2.021 . S
O10 C7 1.238 . S
O11 Co5 2.052 . S
O11 C7 1.241 . S
O12 Co0 2.137 . S
O12 C3 1.247 . S
O13 Co0 2.244 . S
O13 C3 1.272 . S
O13 Co5 2.135 . S
Co14 O15 2.216 . S
Co14 O16 2.091 . S
Co14 O18 2.004 . S
Co14 O24 2.021 . S
Co14 O26 2.137 . S
Co14 O27 2.244 . S
O15 Co14 2.216 . S
O15 C22 1.247 . S
O16 Co14 2.091 . S
O16 C22 1.261 . S
C17 O26 1.247 . S
C17 O27 1.272 . S
O18 Co14 2.004 . S
O18 C23 1.259 . S
Co19 O20 2.061 . S
Co19 O25 2.052 . S
Co19 O27 2.135 . S
O20 Co19 2.061 . S
O20 C23 1.235 . S
C21 O24 1.238 . S
C21 O25 1.241 . S
C22 O15 1.247 . S
C22 O16 1.261 . S
C23 O18 1.259 . S
C23 O20 1.235 . S
O24 Co14 2.021 . S
O24 C21 1.238 . S
O25 Co19 2.052 . S
O25 C21 1.241 . S
O26 Co14 2.137 . S
O26 C17 1.247 . S
O27 Co14 2.244 . S
O27 C17 1.272 . S
O27 Co19 2.135 . S
Co28 O29 2.216 . S
Co28 O30 2.091 . S
Co28 O32 2.004 1_556 S
Co28 O38 2.021 . S
Co28 O40 2.137 . S
Co28 O41 2.244 . S
O29 Co28 2.216 . S
O29 C36 1.247 . S
O30 Co28 2.091 . S
O30 C36 1.261 . S
C31 O40 1.247 . S
C31 O41 1.271 . S
O32 Co28 2.004 1_554 S
O32 C37 1.259 . S
Co33 O34 2.061 . S
Co33 O39 2.052 . S
Co33 O41 2.135 1_554 S
O34 Co33 2.061 . S
O34 C37 1.235 . S
C35 O38 1.238 . S
C35 O39 1.241 1_556 S
C36 O29 1.247 . S
C36 O30 1.261 . S
C37 O32 1.259 . S
C37 O34 1.235 . S
O38 Co28 2.021 . S
O38 C35 1.238 . S
O39 Co33 2.052 . S
O39 C35 1.241 1_554 S
O40 Co28 2.137 . S
O40 C31 1.247 . S
O41 Co28 2.244 . S
O41 C31 1.271 . S
O41 Co33 2.135 1_556 S
Co42 O43 2.216 . S
Co42 O44 2.091 . S
Co42 O46 2.004 . S
Co42 O52 2.021 . S
Co42 O54 2.137 . S
Co42 O55 2.244 . S
O43 Co42 2.216 . S
O43 C50 1.247 . S
O44 Co42 2.091 . S
O44 C50 1.261 . S
C45 O54 1.247 . S
C45 O55 1.272 . S
O46 Co42 2.004 . S
O46 C51 1.259 . S
Co47 O48 2.061 . S
Co47 O53 2.052 . S
Co47 O55 2.135 . S
O48 Co47 2.061 . S
O48 C51 1.235 . S
C49 O52 1.238 . S
C49 O53 1.241 . S
C50 O43 1.247 . S
C50 O44 1.261 . S
C51 O46 1.259 . S
C51 O48 1.235 . S
O52 Co42 2.021 . S
O52 C49 1.238 . S
O53 Co47 2.052 . S
O53 C49 1.241 . S
O54 Co42 2.137 . S
O54 C45 1.247 . S
O55 Co42 2.244 . S
O55 C45 1.272 . S
O55 Co47 2.135 . S
Co56 O57 2.216 . S
Co56 O58 2.091 . S
Co56 O60 2.004 . S
Co56 O66 2.021 . S
Co56 O68 2.137 . S
Co56 O69 2.244 . S
O57 Co56 2.216 . S
O57 C64 1.247 . S
O58 Co56 2.091 . S
O58 C64 1.261 . S
C59 O68 1.247 . S
C59 O69 1.272 . S
O60 Co56 2.004 . S
O60 C65 1.259 . S
Co61 O62 2.061 . S
Co61 O67 2.052 . S
Co61 O69 2.135 . S
O62 Co61 2.061 . S
O62 C65 1.235 . S
C63 O66 1.238 . S
C63 O67 1.241 . S
C64 O57 1.247 . S
C64 O58 1.261 . S
C65 O60 1.259 . S
C65 O62 1.235 . S
O66 Co56 2.021 . S
O66 C63 1.238 . S
O67 Co61 2.052 . S
O67 C63 1.241 . S
O68 Co56 2.137 . S
O68 C59 1.247 . S
O69 Co56 2.244 . S
O69 C59 1.272 . S
O69 Co61 2.135 . S
Co70 O71 2.216 . S
Co70 O72 2.091 . S
Co70 O74 2.004 1_556 S
Co70 O80 2.021 . S
Co70 O82 2.137 . S
Co70 O83 2.244 . S
O71 Co70 2.216 . S
O71 C78 1.247 . S
O72 Co70 2.091 . S
O72 C78 1.261 . S
C73 O82 1.247 . S
C73 O83 1.271 . S
O74 Co70 2.004 1_554 S
O74 C79 1.259 . S
Co75 O76 2.061 . S
Co75 O81 2.052 . S
Co75 O83 2.135 1_554 S
O76 Co75 2.061 . S
O76 C79 1.235 . S
C77 O80 1.238 . S
C77 O81 1.241 1_556 S
C78 O71 1.247 . S
C78 O72 1.261 . S
C79 O74 1.259 . S
C79 O76 1.235 . S
O80 Co70 2.021 . S
O80 C77 1.238 . S
O81 Co75 2.052 . S
O81 C77 1.241 1_554 S
O82 Co70 2.137 . S
O82 C73 1.247 . S
O83 Co70 2.244 . S
O83 C73 1.271 . S
O83 Co75 2.135 1_556 S
Co84 O85 2.216 . S
Co84 O86 2.091 . S
Co84 O88 2.004 . S
Co84 O94 2.021 . S
Co84 O96 2.137 . S
Co84 O97 2.244 . S
O85 Co84 2.216 . S
O85 C92 1.247 . S
O86 Co84 2.091 . S
O86 C92 1.261 . S
C87 O96 1.247 . S
C87 O97 1.272 . S
O88 Co84 2.004 . S
O88 C93 1.259 . S
Co89 O90 2.061 . S
Co89 O95 2.052 . S
Co89 O97 2.135 . S
O90 Co89 2.061 . S
O90 C93 1.235 . S
C91 O94 1.238 . S
C91 O95 1.241 . S
C92 O85 1.247 . S
C92 O86 1.261 . S
C93 O88 1.259 . S
C93 O90 1.235 . S
O94 Co84 2.021 . S
O94 C91 1.238 . S
O95 Co89 2.052 . S
O95 C91 1.241 . S
O96 Co84 2.137 . S
O96 C87 1.247 . S
O97 Co84 2.244 . S
O97 C87 1.272 . S
O97 Co89 2.135 . S
Co98 O99 2.216 . S
Co98 O100 2.091 . S
Co98 O102 2.004 . S
Co98 O108 2.021 . S
Co98 O110 2.137 . S
Co98 O111 2.244 . S
O99 Co98 2.216 . S
O99 C106 1.247 . S
O100 Co98 2.091 . S
O100 C106 1.261 . S
C101 O110 1.247 . S
C101 O111 1.272 . S
O102 Co98 2.004 . S
O102 C107 1.259 . S
Co103 O104 2.061 . S
Co103 O109 2.052 . S
Co103 O111 2.135 . S
O104 Co103 2.061 . S
O104 C107 1.235 . S
C105 O108 1.238 . S
C105 O109 1.241 . S
C106 O99 1.247 . S
C106 O100 1.261 . S
C107 O102 1.259 . S
C107 O104 1.235 . S
O108 Co98 2.021 . S
O108 C105 1.238 . S
O109 Co103 2.052 . S
O109 C105 1.241 . S
O110 Co98 2.137 . S
O110 C101 1.247 . S
O111 Co98 2.244 . S
O111 C101 1.272 . S
O111 Co103 2.135 . S
Co112 O113 2.216 . S
Co112 O114 2.091 . S
Co112 O116 2.004 1_554 S
Co112 O122 2.021 . S
Co112 O124 2.137 . S
Co112 O125 2.244 . S
O113 Co112 2.216 . S
O113 C120 1.247 . S
O114 Co112 2.091 . S
O114 C120 1.261 . S
C115 O124 1.247 . S
C115 O125 1.271 . S
O116 Co112 2.004 1_556 S
O116 C121 1.259 . S
Co117 O118 2.061 . S
Co117 O123 2.052 . S
Co117 O125 2.135 1_556 S
O118 Co117 2.061 . S
O118 C121 1.235 . S
C119 O122 1.238 . S
C119 O123 1.241 1_554 S
C120 O113 1.247 . S
C120 O114 1.261 . S
C121 O116 1.259 . S
C121 O118 1.235 . S
O122 Co112 2.021 . S
O122 C119 1.238 . S
O123 Co117 2.052 . S
O123 C119 1.241 1_556 S
O124 Co112 2.137 . S
O124 C115 1.247 . S
O125 Co112 2.244 . S
O125 C115 1.271 . S
O125 Co117 2.135 1_554 S
Co126 O127 2.216 . S
Co126 O128 2.091 . S
Co126 O130 2.004 . S
Co126 O136 2.021 . S
Co126 O138 2.137 . S
Co126 O139 2.244 . S
O127 Co126 2.216 . S
O127 C134 1.247 . S
O128 Co126 2.091 . S
O128 C134 1.261 . S
C129 O138 1.247 . S
C129 O139 1.272 . S
O130 Co126 2.004 . S
O130 C135 1.259 . S
Co131 O132 2.061 . S
Co131 O137 2.052 . S
Co131 O139 2.135 . S
O132 Co131 2.061 . S
O132 C135 1.235 . S
C133 O136 1.238 . S
C133 O137 1.241 . S
C134 O127 1.247 . S
C134 O128 1.261 . S
C135 O130 1.259 . S
C135 O132 1.235 . S
O136 Co126 2.021 . S
O136 C133 1.238 . S
O137 Co131 2.052 . S
O137 C133 1.241 . S
O138 Co126 2.137 . S
O138 C129 1.247 . S
O139 Co126 2.244 . S
O139 C129 1.272 . S
O139 Co131 2.135 . S
Co140 O141 2.216 . S
Co140 O142 2.091 . S
Co140 O144 2.004 . S
Co140 O150 2.021 . S
Co140 O152 2.137 . S
Co140 O153 2.244 . S
O141 Co140 2.216 . S
O141 C148 1.247 . S
O142 Co140 2.091 . S
O142 C148 1.261 . S
C143 O152 1.247 . S
C143 O153 1.272 . S
O144 Co140 2.004 . S
O144 C149 1.259 . S
Co145 O146 2.061 . S
Co145 O151 2.052 . S
Co145 O153 2.135 . S
O146 Co145 2.061 . S
O146 C149 1.235 . S
C147 O150 1.238 . S
C147 O151 1.241 . S
C148 O141 1.247 . S
C148 O142 1.261 . S
C149 O144 1.259 . S
C149 O146 1.235 . S
O150 Co140 2.021 . S
O150 C147 1.238 . S
O151 Co145 2.052 . S
O151 C147 1.241 . S
O152 Co140 2.137 . S
O152 C143 1.247 . S
O153 Co140 2.244 . S
O153 C143 1.272 . S
O153 Co145 2.135 . S
Co154 O155 2.216 . S
Co154 O156 2.091 . S
Co154 O158 2.004 1_554 S
Co154 O164 2.021 . S
Co154 O166 2.137 . S
Co154 O167 2.244 . S
O155 Co154 2.216 . S
O155 C162 1.247 . S
O156 Co154 2.091 . S
O156 C162 1.261 . S
C157 O166 1.247 . S
C157 O167 1.271 . S
O158 Co154 2.004 1_556 S
O158 C163 1.259 . S
Co159 O160 2.061 . S
Co159 O165 2.052 . S
Co159 O167 2.135 1_556 S
O160 Co159 2.061 . S
O160 C163 1.235 . S
C161 O164 1.238 . S
C161 O165 1.241 1_554 S
C162 O155 1.247 . S
C162 O156 1.261 . S
C163 O158 1.259 . S
C163 O160 1.235 . S
O164 Co154 2.021 . S
O164 C161 1.238 . S
O165 Co159 2.052 . S
O165 C161 1.241 1_556 S
O166 Co154 2.137 . S
O166 C157 1.247 . S
O167 Co154 2.244 . S
O167 C157 1.271 . S
O167 Co159 2.135 1_554 S
H168 C174 0.930 . S
H169 C178 0.930 . S
H170 C183 0.929 . S
H171 C181 0.929 . S
H172 C176 0.929 . S
H173 C182 0.929 . S
C174 H168 0.930 . S
C174 C175 1.367 . S
C174 C182 1.378 . S
C175 C174 1.367 . S
C175 C183 1.433 . S
C176 H172 0.929 . S
C176 C178 1.378 . S
C176 C180 1.350 . S
C177 C180 1.463 . S
C177 C182 1.350 . S
C177 N185 1.427 . S
C178 H169 0.930 . S
C178 C176 1.378 . S
C178 C179 1.367 . S
C179 C178 1.367 . S
C179 C181 1.433 . S
C180 C176 1.350 . S
C180 C177 1.463 . S
C180 N184 1.427 . S
C181 H171 0.929 . S
C181 C179 1.433 . S
C181 N184 1.384 . S
C182 H173 0.929 . S
C182 C174 1.378 . S
C182 C177 1.350 . S
C183 H170 0.929 . S
C183 C175 1.433 . S
C183 N185 1.384 . S
N184 C180 1.427 . S
N184 C181 1.384 . S
N185 C177 1.427 . S
N185 C183 1.384 . S
H186 C192 0.930 . S
H187 C196 0.930 . S
H188 C201 0.929 . S
H189 C199 0.929 . S
H190 C194 0.929 . S
H191 C200 0.929 . S
C192 H186 0.930 . S
C192 C193 1.367 . S
C192 C200 1.378 . S
C193 C192 1.367 . S
C193 C201 1.433 . S
C194 H190 0.929 . S
C194 C196 1.378 . S
C194 C198 1.350 . S
C195 C198 1.463 . S
C195 C200 1.350 . S
C195 N203 1.427 . S
C196 H187 0.930 . S
C196 C194 1.378 . S
C196 C197 1.367 . S
C197 C196 1.367 . S
C197 C199 1.433 . S
C198 C194 1.350 . S
C198 C195 1.463 . S
C198 N202 1.427 . S
C199 H189 0.929 . S
C199 C197 1.433 . S
C199 N202 1.384 . S
C200 H191 0.929 . S
C200 C192 1.378 . S
C200 C195 1.350 . S
C201 H188 0.929 . S
C201 C193 1.433 . S
C201 N203 1.384 . S
N202 C198 1.427 . S
N202 C199 1.384 . S
N203 C195 1.427 . S
N203 C201 1.384 . S
H204 C210 0.930 . S
H205 C214 0.930 . S
H206 C219 0.929 . S
H207 C217 0.929 . S
H208 C212 0.929 . S
H209 C218 0.929 . S
C210 H204 0.930 . S
C210 C211 1.367 1_554 S
C210 C218 1.378 . S
C211 C210 1.367 1_556 S
C211 C219 1.433 . S
C212 H208 0.929 . S
C212 C214 1.378 . S
C212 C216 1.346 1_556 S
C213 C216 1.462 1_556 S
C213 C218 1.340 1_556 S
C213 N221 1.438 . S
C214 H205 0.930 . S
C214 C212 1.378 . S
C214 C215 1.367 1_556 S
C215 C214 1.367 1_554 S
C215 C217 1.433 . S
C216 C212 1.346 1_554 S
C216 C213 1.462 1_554 S
C216 N220 1.432 . S
C217 H207 0.929 . S
C217 C215 1.433 . S
C217 N220 1.384 . S
C218 H209 0.929 . S
C218 C210 1.378 . S
C218 C213 1.340 1_554 S
C219 H206 0.929 . S
C219 C211 1.433 . S
C219 N221 1.384 . S
N220 C216 1.432 . S
N220 C217 1.384 . S
N221 C213 1.438 . S
N221 C219 1.384 . S
H222 C228 0.930 . S
H223 C232 0.930 . S
H224 C237 0.929 . S
H225 C235 0.929 . S
H226 C230 0.929 . S
H227 C236 0.929 . S
C228 H222 0.930 . S
C228 C229 1.367 . S
C228 C236 1.378 . S
C229 C228 1.367 . S
C229 C237 1.433 . S
C230 H226 0.929 . S
C230 C232 1.378 . S
C230 C234 1.350 . S
C231 C234 1.463 . S
C231 C236 1.350 . S
C231 N239 1.427 . S
C232 H223 0.930 . S
C232 C230 1.378 . S
C232 C233 1.367 . S
C233 C232 1.367 . S
C233 C235 1.433 . S
C234 C230 1.350 . S
C234 C231 1.463 . S
C234 N238 1.427 . S
C235 H225 0.929 . S
C235 C233 1.433 . S
C235 N238 1.384 . S
C236 H227 0.929 . S
C236 C228 1.378 . S
C236 C231 1.350 . S
C237 H224 0.929 . S
C237 C229 1.433 . S
C237 N239 1.384 . S
N238 C234 1.427 . S
N238 C235 1.384 . S
N239 C231 1.427 . S
N239 C237 1.384 . S
H240 C246 0.930 . S
H241 C250 0.930 . S
H242 C255 0.929 . S
H243 C253 0.929 . S
H244 C248 0.929 . S
H245 C254 0.929 . S
C246 H240 0.930 . S
C246 C247 1.367 . S
C246 C254 1.378 . S
C247 C246 1.367 . S
C247 C255 1.433 . S
C248 H244 0.929 . S
C248 C250 1.378 . S
C248 C252 1.350 . S
C249 C252 1.463 . S
C249 C254 1.350 . S
C249 N257 1.427 . S
C250 H241 0.930 . S
C250 C248 1.378 . S
C250 C251 1.367 . S
C251 C250 1.367 . S
C251 C253 1.433 . S
C252 C248 1.350 . S
C252 C249 1.463 . S
C252 N256 1.427 . S
C253 H243 0.929 . S
C253 C251 1.433 . S
C253 N256 1.384 . S
C254 H245 0.929 . S
C254 C246 1.378 . S
C254 C249 1.350 . S
C255 H242 0.929 . S
C255 C247 1.433 . S
C255 N257 1.384 . S
N256 C252 1.427 . S
N256 C253 1.384 . S
N257 C249 1.427 . S
N257 C255 1.384 . S
H258 C264 0.930 . S
H259 C268 0.930 . S
H260 C273 0.929 . S
H261 C271 0.929 . S
H262 C266 0.929 . S
H263 C272 0.929 . S
C264 H258 0.930 . S
C264 C265 1.367 . S
C264 C272 1.378 . S
C265 C264 1.367 . S
C265 C273 1.433 . S
C266 H262 0.929 . S
C266 C268 1.378 . S
C266 C270 1.350 . S
C267 C270 1.463 1_554 S
C267 C272 1.350 . S
C267 N275 1.427 . S
C268 H259 0.930 . S
C268 C266 1.378 . S
C268 C269 1.367 . S
C269 C268 1.367 . S
C269 C271 1.433 . S
C270 C266 1.350 . S
C270 C267 1.463 1_556 S
C270 N274 1.427 . S
C271 H261 0.929 . S
C271 C269 1.433 . S
C271 N274 1.384 . S
C272 H263 0.929 . S
C272 C264 1.378 . S
C272 C267 1.350 . S
C273 H260 0.929 . S
C273 C265 1.433 . S
C273 N275 1.384 . S
N274 C270 1.427 . S
N274 C271 1.384 . S
N275 C267 1.427 . S
N275 C273 1.384 . S
H276 C282 0.930 . S
H277 C286 0.930 . S
H278 C291 0.929 . S
H279 C289 0.929 . S
H280 C284 0.929 . S
H281 C290 0.929 . S
C282 H276 0.930 . S
C282 C283 1.367 . S
C282 C290 1.378 . S
C283 C282 1.367 . S
C283 C291 1.433 . S
C284 H280 0.929 . S
C284 C286 1.378 . S
C284 C288 1.350 . S
C285 C288 1.463 . S
C285 C290 1.350 . S
C285 N293 1.427 . S
C286 H277 0.930 . S
C286 C284 1.378 . S
C286 C287 1.367 . S
C287 C286 1.367 . S
C287 C289 1.433 . S
C288 C284 1.350 . S
C288 C285 1.463 . S
C288 N292 1.427 . S
C289 H279 0.929 . S
C289 C287 1.433 . S
C289 N292 1.384 . S
C290 H281 0.929 . S
C290 C282 1.378 . S
C290 C285 1.350 . S
C291 H278 0.929 . S
C291 C283 1.433 . S
C291 N293 1.384 . S
N292 C288 1.427 . S
N292 C289 1.384 . S
N293 C285 1.427 . S
N293 C291 1.384 . S
H294 C300 0.930 . S
H295 C304 0.930 . S
H296 C309 0.929 . S
H297 C307 0.929 . S
H298 C302 0.929 . S
H299 C308 0.929 . S
C300 H294 0.930 . S
C300 C301 1.367 . S
C300 C308 1.378 . S
C301 C300 1.367 . S
C301 C309 1.433 . S
C302 H298 0.929 . S
C302 C304 1.378 . S
C302 C306 1.350 . S
C303 C306 1.463 1_655 S
C303 C308 1.350 . S
C303 N311 1.427 . S
C304 H295 0.930 . S
C304 C302 1.378 . S
C304 C305 1.367 . S
C305 C304 1.367 . S
C305 C307 1.433 . S
C306 C302 1.350 . S
C306 C303 1.463 1_455 S
C306 N310 1.427 . S
C307 H297 0.929 . S
C307 C305 1.433 . S
C307 N310 1.384 . S
C308 H299 0.929 . S
C308 C300 1.378 . S
C308 C303 1.350 . S
C309 H296 0.929 . S
C309 C301 1.433 . S
C309 N311 1.384 . S
N310 C306 1.427 . S
N310 C307 1.384 . S
N311 C303 1.427 . S
N311 C309 1.384 . S
H312 C318 0.930 . S
H313 C322 0.930 . S
H314 C327 0.929 . S
H315 C325 0.929 . S
H316 C320 0.929 . S
H317 C326 0.929 . S
C318 H312 0.930 . S
C318 C319 1.367 1_556 S
C318 C326 1.378 . S
C319 C318 1.367 1_554 S
C319 C327 1.433 . S
C320 H316 0.929 . S
C320 C322 1.378 . S
C320 C324 1.334 1_554 S
C321 C324 1.461 1_544 S
C321 C326 1.350 1_554 S
C321 N329 1.427 . S
C322 H313 0.930 . S
C322 C320 1.378 . S
C322 C323 1.367 1_554 S
C323 C322 1.367 1_556 S
C323 C325 1.433 . S
C324 C320 1.334 1_556 S
C324 C321 1.461 1_566 S
C324 N328 1.447 . S
C325 H315 0.929 . S
C325 C323 1.433 . S
C325 N328 1.384 . S
C326 H317 0.929 . S
C326 C318 1.378 . S
C326 C321 1.350 1_556 S
C327 H314 0.929 . S
C327 C319 1.433 . S
C327 N329 1.384 . S
N328 C324 1.447 . S
N328 C325 1.384 . S
N329 C321 1.427 . S
N329 C327 1.384 . S
H330 C336 0.930 . S
H331 C340 0.930 . S
H332 C345 0.929 . S
H333 C343 0.929 . S
H334 C338 0.929 . S
H335 C344 0.929 . S
C336 H330 0.930 . S
C336 C337 1.367 . S
C336 C344 1.378 . S
C337 C336 1.367 . S
C337 C345 1.433 . S
C338 H334 0.929 . S
C338 C340 1.378 . S
C338 C342 1.350 . S
C339 C342 1.463 . S
C339 C344 1.350 . S
C339 N347 1.427 . S
C340 H331 0.930 . S
C340 C338 1.378 . S
C340 C341 1.367 . S
C341 C340 1.367 . S
C341 C343 1.433 . S
C342 C338 1.350 . S
C342 C339 1.463 . S
C342 N346 1.427 . S
C343 H333 0.929 . S
C343 C341 1.433 . S
C343 N346 1.384 . S
C344 H335 0.929 . S
C344 C336 1.378 . S
C344 C339 1.350 . S
C345 H332 0.929 . S
C345 C337 1.433 . S
C345 N347 1.384 . S
N346 C342 1.427 . S
N346 C343 1.384 . S
N347 C339 1.427 . S
N347 C345 1.384 . S
H348 C354 0.930 . S
H349 C358 0.930 . S
H350 C363 0.929 . S
H351 C361 0.929 . S
H352 C356 0.929 . S
H353 C362 0.929 . S
C354 H348 0.930 . S
C354 C355 1.367 . S
C354 C362 1.378 . S
C355 C354 1.367 . S
C355 C363 1.433 . S
C356 H352 0.929 . S
C356 C358 1.378 . S
C356 C360 1.350 . S
C357 C360 1.463 1_455 S
C357 C362 1.350 . S
C357 N365 1.427 . S
C358 H349 0.930 . S
C358 C356 1.378 . S
C358 C359 1.367 . S
C359 C358 1.367 . S
C359 C361 1.433 . S
C360 C356 1.350 . S
C360 C357 1.463 1_655 S
C360 N364 1.427 . S
C361 H351 0.929 . S
C361 C359 1.433 . S
C361 N364 1.384 . S
C362 H353 0.929 . S
C362 C354 1.378 . S
C362 C357 1.350 . S
C363 H350 0.929 . S
C363 C355 1.433 . S
C363 N365 1.384 . S
N364 C360 1.427 . S
N364 C361 1.384 . S
N365 C357 1.427 . S
N365 C363 1.384 . S
H366 C372 0.930 . S
H367 C376 0.930 . S
H368 C381 0.929 . S
H369 C379 0.929 . S
H370 C374 0.929 . S
H371 C380 0.929 . S
C372 H366 0.930 . S
C372 C373 1.367 . S
C372 C380 1.378 . S
C373 C372 1.367 . S
C373 C381 1.433 1_556 S
C374 H370 0.929 . S
C374 C376 1.378 . S
C374 C378 1.350 . S
C375 C378 1.463 1_546 S
C375 C380 1.350 . S
C375 N383 1.427 1_556 S
C376 H367 0.930 . S
C376 C374 1.378 . S
C376 C377 1.367 . S
C377 C376 1.367 . S
C377 C379 1.433 1_554 S
C378 C374 1.350 . S
C378 C375 1.463 1_564 S
C378 N382 1.427 1_554 S
C379 H369 0.929 . S
C379 C377 1.433 1_556 S
C379 N382 1.384 . S
C380 H371 0.929 . S
C380 C372 1.378 . S
C380 C375 1.350 . S
C381 H368 0.929 . S
C381 C373 1.433 1_554 S
C381 N383 1.384 . S
N382 C378 1.427 1_556 S
N382 C379 1.384 . S
N383 C375 1.427 1_554 S
N383 C381 1.384 . S
H384 C390 0.930 . S
H385 C394 0.930 . S
H386 C399 0.929 . S
H387 C397 0.929 . S
H388 C392 0.929 . S
H389 C398 0.929 . S
C390 H384 0.930 . S
C390 C391 1.367 . S
C390 C398 1.378 . S
C391 C390 1.367 . S
C391 C399 1.433 . S
C392 H388 0.929 . S
C392 C394 1.378 . S
C392 C396 1.350 . S
C393 C396 1.463 1_655 S
C393 C398 1.350 . S
C393 N401 1.427 . S
C394 H385 0.930 . S
C394 C392 1.378 . S
C394 C395 1.367 . S
C395 C394 1.367 . S
C395 C397 1.433 . S
C396 C392 1.350 . S
C396 C393 1.463 1_455 S
C396 N400 1.427 . S
C397 H387 0.929 . S
C397 C395 1.433 . S
C397 N400 1.384 . S
C398 H389 0.929 . S
C398 C390 1.378 . S
C398 C393 1.350 . S
C399 H386 0.929 . S
C399 C391 1.433 . S
C399 N401 1.384 . S
N400 C396 1.427 . S
N400 C397 1.384 . S
N401 C393 1.427 . S
N401 C399 1.384 . S
H402 C408 0.930 1_565 S
H403 C412 0.930 1_545 S
H404 C417 0.929 . S
H405 C415 0.929 . S
H406 C410 0.929 . S
H407 C416 0.929 . S
C408 H402 0.930 1_545 S
C408 C409 1.367 . S
C408 C416 1.378 1_545 S
C409 C408 1.367 . S
C409 C417 1.433 . S
C410 H406 0.929 . S
C410 C412 1.378 1_545 S
C410 C414 1.350 1_545 S
C411 C414 1.463 1_545 S
C411 C416 1.350 1_545 S
C411 N419 1.427 . S
C412 H403 0.930 1_565 S
C412 C410 1.378 1_565 S
C412 C413 1.367 . S
C413 C412 1.367 . S
C413 C415 1.433 . S
C414 C410 1.350 1_565 S
C414 C411 1.463 1_565 S
C414 N418 1.427 . S
C415 H405 0.929 . S
C415 C413 1.433 . S
C415 N418 1.384 . S
C416 H407 0.929 . S
C416 C408 1.378 1_565 S
C416 C411 1.350 1_565 S
C417 H404 0.929 . S
C417 C409 1.433 . S
C417 N419 1.384 . S
N418 C414 1.427 . S
N418 C415 1.384 . S
N419 C411 1.427 . S
N419 C417 1.384 . S
H420 C426 0.930 . S
H421 C430 0.930 . S
H422 C435 0.929 . S
H423 C433 0.929 . S
H424 C428 0.929 . S
H425 C434 0.929 . S
C426 H420 0.930 . S
C426 C427 1.367 . S
C426 C434 1.378 . S
C427 C426 1.367 . S
C427 C435 1.433 . S
C428 H424 0.929 . S
C428 C430 1.378 . S
C428 C432 1.350 . S
C429 C432 1.463 . S
C429 C434 1.350 . S
C429 N437 1.427 . S
C430 H421 0.930 . S
C430 C428 1.378 . S
C430 C431 1.367 . S
C431 C430 1.367 . S
C431 C433 1.433 . S
C432 C428 1.350 . S
C432 C429 1.463 . S
C432 N436 1.427 . S
C433 H423 0.929 . S
C433 C431 1.433 . S
C433 N436 1.384 . S
C434 H425 0.929 . S
C434 C426 1.378 . S
C434 C429 1.350 . S
C435 H422 0.929 . S
C435 C427 1.433 . S
C435 N437 1.384 . S
N436 C432 1.427 . S
N436 C433 1.384 . S
N437 C429 1.427 . S
N437 C435 1.384 . S
H438 C444 0.930 . S
H439 C448 0.930 . S
H440 C453 0.929 1_655 S
H441 C451 0.929 . S
H442 C446 0.929 . S
H443 C452 0.929 . S
C444 H438 0.930 . S
C444 C445 1.367 . S
C444 C452 1.378 . S
C445 C444 1.367 . S
C445 C453 1.433 . S
C446 H442 0.929 . S
C446 C448 1.378 . S
C446 C450 1.350 . S
C447 C450 1.463 1_455 S
C447 C452 1.350 . S
C447 N455 1.427 1_455 S
C448 H439 0.930 . S
C448 C446 1.378 . S
C448 C449 1.367 . S
C449 C448 1.367 . S
C449 C451 1.433 1_655 S
C450 C446 1.350 . S
C450 C447 1.463 1_655 S
C450 N454 1.427 1_655 S
C451 H441 0.929 . S
C451 C449 1.433 1_455 S
C451 N454 1.384 . S
C452 H443 0.929 . S
C452 C444 1.378 . S
C452 C447 1.350 . S
C453 H440 0.929 1_455 S
C453 C445 1.433 . S
C453 N455 1.384 1_455 S
N454 C450 1.427 1_455 S
N454 C451 1.384 . S
N455 C447 1.427 1_655 S
N455 C453 1.384 1_655 S
H456 C462 0.930 . S
H457 C466 0.930 . S
H458 C471 0.929 . S
H459 C469 0.929 . S
H460 C464 0.929 . S
H461 C470 0.929 . S
C462 H456 0.930 . S
C462 C463 1.367 . S
C462 C470 1.378 . S
C463 C462 1.367 . S
C463 C471 1.433 . S
C464 H460 0.929 . S
C464 C466 1.378 . S
C464 C468 1.350 . S
C465 C468 1.463 1_545 S
C465 C470 1.350 . S
C465 N473 1.427 1_545 S
C466 H457 0.930 . S
C466 C464 1.378 . S
C466 C467 1.367 . S
C467 C466 1.367 . S
C467 C469 1.433 . S
C468 C464 1.350 . S
C468 C465 1.463 1_565 S
C468 N472 1.427 1_565 S
C469 H459 0.929 . S
C469 C467 1.433 . S
C469 N472 1.384 1_565 S
C470 H461 0.929 . S
C470 C462 1.378 . S
C470 C465 1.350 . S
C471 H458 0.929 . S
C471 C463 1.433 . S
C471 N473 1.384 1_545 S
N472 C468 1.427 1_545 S
N472 C469 1.384 1_545 S
N473 C465 1.427 1_565 S
N473 C471 1.384 1_565 S
H474 C480 0.930 . S
H475 C484 0.930 . S
H476 C489 0.929 . S
H477 C487 0.929 . S
H478 C482 0.929 . S
H479 C488 0.929 . S
C480 H474 0.930 . S
C480 C481 1.367 . S
C480 C488 1.378 . S
C481 C480 1.367 . S
C481 C489 1.433 . S
C482 H478 0.929 . S
C482 C484 1.378 . S
C482 C486 1.350 . S
C483 C486 1.463 . S
C483 C488 1.350 . S
C483 N491 1.427 . S
C484 H475 0.930 . S
C484 C482 1.378 . S
C484 C485 1.367 . S
C485 C484 1.367 . S
C485 C487 1.433 . S
C486 C482 1.350 . S
C486 C483 1.463 . S
C486 N490 1.427 . S
C487 H477 0.929 . S
C487 C485 1.433 . S
C487 N490 1.384 . S
C488 H479 0.929 . S
C488 C480 1.378 . S
C488 C483 1.350 . S
C489 H476 0.929 . S
C489 C481 1.433 . S
C489 N491 1.384 . S
N490 C486 1.427 . S
N490 C487 1.384 . S
N491 C483 1.427 . S
N491 C489 1.384 . S
H492 C498 0.930 . S
H493 C502 0.930 . S
H494 C507 0.929 . S
H495 C505 0.929 . S
H496 C500 0.929 . S
H497 C506 0.929 . S
C498 H492 0.930 . S
C498 C499 1.367 . S
C498 C506 1.378 . S
C499 C498 1.367 . S
C499 C507 1.433 . S
C500 H496 0.929 . S
C500 C502 1.378 . S
C500 C504 1.350 . S
C501 C504 1.463 . S
C501 C506 1.350 . S
C501 N509 1.427 . S
C502 H493 0.930 . S
C502 C500 1.378 . S
C502 C503 1.367 . S
C503 C502 1.367 . S
C503 C505 1.433 . S
C504 C500 1.350 . S
C504 C501 1.463 . S
C504 N508 1.427 . S
C505 H495 0.929 . S
C505 C503 1.433 . S
C505 N508 1.384 . S
C506 H497 0.929 . S
C506 C498 1.378 . S
C506 C501 1.350 . S
C507 H494 0.929 . S
C507 C499 1.433 . S
C507 N509 1.384 . S
N508 C504 1.427 . S
N508 C505 1.384 . S
N509 C501 1.427 . S
N509 C507 1.384 . S
H510 C516 0.930 . S
H511 C520 0.930 . S
H512 C525 0.929 . S
H513 C523 0.929 . S
H514 C518 0.929 . S
H515 C524 0.929 . S
C516 H510 0.930 . S
C516 C517 1.367 . S
C516 C524 1.378 . S
C517 C516 1.367 . S
C517 C525 1.433 . S
C518 H514 0.929 . S
C518 C520 1.378 . S
C518 C522 1.350 . S
C519 C522 1.463 . S
C519 C524 1.350 . S
C519 N527 1.427 . S
C520 H511 0.930 . S
C520 C518 1.378 . S
C520 C521 1.367 . S
C521 C520 1.367 . S
C521 C523 1.433 . S
C522 C518 1.350 . S
C522 C519 1.463 . S
C522 N526 1.427 . S
C523 H513 0.929 . S
C523 C521 1.433 . S
C523 N526 1.384 . S
C524 H515 0.929 . S
C524 C516 1.378 . S
C524 C519 1.350 . S
C525 H512 0.929 . S
C525 C517 1.433 . S
C525 N527 1.384 . S
N526 C522 1.427 . S
N526 C523 1.384 . S
N527 C519 1.427 . S
N527 C525 1.384 . S
H528 C534 0.930 . S
H529 C538 0.930 . S
H530 C543 0.929 . S
H531 C541 0.929 . S
H532 C536 0.929 . S
H533 C542 0.929 . S
C534 H528 0.930 . S
C534 C535 1.367 . S
C534 C542 1.378 . S
C535 C534 1.367 . S
C535 C543 1.433 . S
C536 H532 0.929 . S
C536 C538 1.378 . S
C536 C540 1.350 . S
C537 C540 1.463 . S
C537 C542 1.350 . S
C537 N545 1.427 . S
C538 H529 0.930 . S
C538 C536 1.378 . S
C538 C539 1.367 . S
C539 C538 1.367 . S
C539 C541 1.433 . S
C540 C536 1.350 . S
C540 C537 1.463 . S
C540 N544 1.427 . S
C541 H531 0.929 . S
C541 C539 1.433 . S
C541 N544 1.384 . S
C542 H533 0.929 . S
C542 C534 1.378 . S
C542 C537 1.350 . S
C543 H530 0.929 . S
C543 C535 1.433 . S
C543 N545 1.384 . S
N544 C540 1.427 . S
N544 C541 1.384 . S
N545 C537 1.427 . S
N545 C543 1.384 . S
H546 C552 0.930 . S
H547 C556 0.930 . S
H548 C561 0.929 . S
H549 C559 0.929 . S
H550 C554 0.929 . S
H551 C560 0.929 . S
C552 H546 0.930 . S
C552 C553 1.367 . S
C552 C560 1.378 . S
C553 C552 1.367 . S
C553 C561 1.433 . S
C554 H550 0.929 . S
C554 C556 1.378 . S
C554 C558 1.350 . S
C555 C558 1.463 . S
C555 C560 1.350 . S
C555 N563 1.427 . S
C556 H547 0.930 . S
C556 C554 1.378 . S
C556 C557 1.367 . S
C557 C556 1.367 . S
C557 C559 1.433 . S
C558 C554 1.350 . S
C558 C555 1.463 . S
C558 N562 1.427 . S
C559 H549 0.929 . S
C559 C557 1.433 . S
C559 N562 1.384 . S
C560 H551 0.929 . S
C560 C552 1.378 . S
C560 C555 1.350 . S
C561 H548 0.929 . S
C561 C553 1.433 . S
C561 N563 1.384 . S
N562 C558 1.427 . S
N562 C559 1.384 . S
N563 C555 1.427 . S
N563 C561 1.384 . S
H564 C570 0.930 . S
H565 C574 0.930 . S
H566 C579 0.929 . S
H567 C577 0.929 . S
H568 C572 0.929 . S
H569 C578 0.929 . S
C570 H564 0.930 . S
C570 C571 1.367 . S
C570 C578 1.378 . S
C571 C570 1.367 . S
C571 C579 1.433 . S
C572 H568 0.929 . S
C572 C574 1.378 . S
C572 C576 1.350 . S
C573 C576 1.463 . S
C573 C578 1.350 . S
C573 N581 1.427 . S
C574 H565 0.930 . S
C574 C572 1.378 . S
C574 C575 1.367 . S
C575 C574 1.367 . S
C575 C577 1.433 . S
C576 C572 1.350 . S
C576 C573 1.463 . S
C576 N580 1.427 . S
C577 H567 0.929 . S
C577 C575 1.433 . S
C577 N580 1.384 . S
C578 H569 0.929 . S
C578 C570 1.378 . S
C578 C573 1.350 . S
C579 H566 0.929 . S
C579 C571 1.433 . S
C579 N581 1.384 . S
N580 C576 1.427 . S
N580 C577 1.384 . S
N581 C573 1.427 . S
N581 C579 1.384 . S
H582 C588 0.930 . S
H583 C592 0.930 . S
H584 C597 0.929 . S
H585 C595 0.929 . S
H586 C590 0.929 . S
H587 C596 0.929 . S
C588 H582 0.930 . S
C588 C589 1.367 . S
C588 C596 1.378 . S
C589 C588 1.367 . S
C589 C597 1.433 . S
C590 H586 0.929 . S
C590 C592 1.378 . S
C590 C594 1.350 . S
C591 C594 1.463 . S
C591 C596 1.350 . S
C591 N599 1.427 . S
C592 H583 0.930 . S
C592 C590 1.378 . S
C592 C593 1.367 . S
C593 C592 1.367 . S
C593 C595 1.433 . S
C594 C590 1.350 . S
C594 C591 1.463 . S
C594 N598 1.427 . S
C595 H585 0.929 . S
C595 C593 1.433 . S
C595 N598 1.384 . S
C596 H587 0.929 . S
C596 C588 1.378 . S
C596 C591 1.350 . S
C597 H584 0.929 . S
C597 C589 1.433 . S
C597 N599 1.384 . S
N598 C594 1.427 . S
N598 C595 1.384 . S
N599 C591 1.427 . S
N599 C597 1.384 . S
C175 C3 1.584 . S
C179 C87 1.582 . S
C193 C17 1.583 . S
C197 C101 1.581 . S
C211 C31 1.499 . S
C215 C115 1.495 . S
C229 C129 1.587 . S
C233 C45 1.580 . S
C247 C59 1.583 . S
C251 C143 1.582 . S
C265 C157 1.502 . S
C269 C73 1.495 . S
C283 C7 1.038 . S
C287 C133 1.029 . S
C301 C21 1.038 . S
C305 C147 1.028 . S
C319 C161 0.975 . S
C323 C35 0.992 . S
C337 C91 1.035 . S
C341 C49 1.030 . S
C355 C63 1.029 . S
C359 C105 1.049 . S
C373 C77 0.991 . S
C377 C119 1.002 . S
C391 C162 1.726 . S
C395 C8 1.717 . S
C409 C22 1.898 . S
C413 C92 1.897 . S
C427 C36 1.727 . S
C431 C106 1.717 . S
C445 C120 1.723 . S
C449 C50 1.716 . S
C463 C134 1.895 . S
C467 C64 1.894 . S
C481 C78 1.727 . S
C485 C148 1.718 . S
C499 C9 0.955 . S
C503 C149 0.950 . S
C517 C163 1.062 . S
C521 C23 1.074 . S
C535 C93 1.052 . S
C539 C37 1.057 . S
C553 C51 0.949 . S
C557 C107 0.955 . S
C571 C121 1.083 . S
C575 C65 1.089 . S
C589 C135 1.083 . S
C593 C79 1.080 . S
