# Generated by pormake.
# Topology sow, (4)-cn, num edge types: 1
# Building blocks:
#     Node 0, Type 0, BuildingBlock: QUQFOY_clean_sbu_3, # of connection points: 4
#     Node 1, Type 0, BuildingBlock: QUQFOY_clean_sbu_3, # of connection points: 4
#     Node 2, Type 0, BuildingBlock: QUQFOY_clean_sbu_3, # of connection points: 4
#     Node 3, Type 0, BuildingBlock: QUQFOY_clean_sbu_3, # of connection points: 4
#     Node 4, Type 0, BuildingBlock: QUQFOY_clean_sbu_3, # of connection points: 4
#     Node 5, Type 0, BuildingBlock: QUQFOY_clean_sbu_3, # of connection points: 4
#     Node 6, Type 0, BuildingBlock: QUQFOY_clean_sbu_3, # of connection points: 4
#     Node 7, Type 0, BuildingBlock: QUQFOY_clean_sbu_3, # of connection points: 4
#     Edge 8, Type (0, 0), BuildingBlock: MIFKUJ_clean_linker_0, # of connection points: 2
#     Edge 9, Type (0, 0), BuildingBlock: MIFKUJ_clean_linker_0, # of connection points: 2
#     Edge 10, Type (0, 0), BuildingBlock: MIFKUJ_clean_linker_0, # of connection points: 2
#     Edge 11, Type (0, 0), BuildingBlock: MIFKUJ_clean_linker_0, # of connection points: 2
#     Edge 12, Type (0, 0), BuildingBlock: MIFKUJ_clean_linker_0, # of connection points: 2
#     Edge 13, Type (0, 0), BuildingBlock: MIFKUJ_clean_linker_0, # of connection points: 2
#     Edge 14, Type (0, 0), BuildingBlock: MIFKUJ_clean_linker_0, # of connection points: 2
#     Edge 15, Type (0, 0), BuildingBlock: MIFKUJ_clean_linker_0, # of connection points: 2
#     Edge 16, Type (0, 0), BuildingBlock: MIFKUJ_clean_linker_0, # of connection points: 2
#     Edge 17, Type (0, 0), BuildingBlock: MIFKUJ_clean_linker_0, # of connection points: 2
#     Edge 18, Type (0, 0), BuildingBlock: MIFKUJ_clean_linker_0, # of connection points: 2
#     Edge 19, Type (0, 0), BuildingBlock: MIFKUJ_clean_linker_0, # of connection points: 2
#     Edge 20, Type (0, 0), BuildingBlock: MIFKUJ_clean_linker_0, # of connection points: 2
#     Edge 21, Type (0, 0), BuildingBlock: MIFKUJ_clean_linker_0, # of connection points: 2
#     Edge 22, Type (0, 0), BuildingBlock: MIFKUJ_clean_linker_0, # of connection points: 2
#     Edge 23, Type (0, 0), BuildingBlock: MIFKUJ_clean_linker_0, # of connection points: 2
# Relax obj value: 0.155
# Max RMSD: 0.203
# Mean RMSD: 0.203
data_MOF--net-sow--node1-QUQFOY_clean_sbu_3--edge1-MIFKUJ_clean_linker_0
_symmetry_space_group_name_H-M    P1
_symmetry_Int_Tables_number       1
_symmetry_cell_setting            triclinic
loop_
_symmetry_equiv_pos_as_xyz
'x, y, z'
_cell_length_a     52.616561
_cell_length_b     31.373583
_cell_length_c     32.328274
_cell_angle_alpha  90.165061
_cell_angle_beta   90.296692
_cell_angle_gamma 89.811827
loop_
_atom_site_label
_atom_site_type_symbol
_atom_site_fract_x
_atom_site_fract_y
_atom_site_fract_z
_atom_type_partial_charge
C0 C 0.08139 0.11247 0.05774 0.0
O1 O 0.08929 0.10483 0.09419 0.0
Cd2 Cd 0.1178 0.15054 0.13268 0.0
O3 O 0.08978 0.14452 0.03796 0.0
Cd4 Cd 0.12037 0.20387 0.04835 0.0
C5 C 0.08216 0.24225 0.12341 0.0
O6 O 0.15325 0.17097 0.09214 0.0
O7 O 0.15245 0.23972 0.08996 0.0
O8 O 0.1399 0.19013 -0.01827 0.0
C9 C 0.16326 0.20611 0.10296 0.0
O10 O 0.09239 0.21398 0.14636 0.0
C11 C 0.13631 0.2272 0.96709 0.0
O12 O 0.08693 0.24407 0.08479 0.0
O13 O 0.12441 0.2536 -0.01013 0.0
C14 C 0.35966 0.39995 0.56004 0.0
O15 O 0.35189 0.40858 0.59629 0.0
Cd16 Cd 0.32188 0.36601 0.63463 0.0
O17 O 0.35082 0.36793 0.54043 0.0
Cd18 Cd 0.31981 0.30947 0.55025 0.0
C19 C 0.35595 0.27262 0.63024 0.0
O20 O 0.28736 0.34662 0.59086 0.0
O21 O 0.28377 0.27833 0.58632 0.0
O22 O 0.30528 0.32209 0.47981 0.0
C23 C 0.27506 0.31327 0.60011 0.0
O24 O 0.34595 0.30219 0.65187 0.0
C25 C 0.30725 0.28364 0.46779 0.0
O26 O 0.35152 0.26956 0.59147 0.0
O27 O 0.3158 0.25694 0.49398 0.0
C28 C 0.57454 0.37808 0.88455 0.0
O29 O 0.58297 0.38748 0.84898 0.0
Cd30 Cd 0.61366 0.34456 0.81224 0.0
O31 O 0.58396 0.34678 0.90457 0.0
Cd32 Cd 0.61792 0.29172 0.8971 0.0
C33 C 0.5812 0.24973 0.82153 0.0
O34 O 0.6495 0.32904 0.85497 0.0
O35 O 0.65251 0.26051 0.85749 0.0
O36 O 0.6333 0.30776 0.96664 0.0
C37 C 0.66154 0.29549 0.84477 0.0
O38 O 0.58995 0.27929 0.79875 0.0
C39 C 0.63263 0.26961 -0.02036 0.0
O40 O 0.58683 0.24788 0.85991 0.0
O41 O 0.62448 0.24155 0.95444 0.0
C42 C 0.86278 0.12242 0.39127 0.0
O43 O 0.85399 0.11163 0.3561 0.0
Cd44 Cd 0.82463 0.15519 0.31687 0.0
O45 O 0.85431 0.15556 0.40955 0.0
Cd46 Cd 0.8218 0.21244 0.3996 0.0
C47 C 0.85931 0.2484 0.323 0.0
O48 O 0.78925 0.17609 0.35786 0.0
O49 O 0.78803 0.24485 0.35888 0.0
O50 O 0.80619 0.19838 0.46884 0.0
C51 C 0.77818 0.21022 0.34653 0.0
O52 O 0.84992 0.21811 0.30152 0.0
C53 C 0.80757 0.23662 0.48164 0.0
O54 O 0.85383 0.25274 0.36119 0.0
O55 O 0.81618 0.26399 0.45641 0.0
C56 C 0.8629 0.88713 0.90054 0.0
O57 O 0.85522 0.89413 0.86386 0.0
Cd58 Cd 0.82643 0.84823 0.82625 0.0
O59 O 0.85415 0.85575 0.92091 0.0
Cd60 Cd 0.82299 0.7971 0.91105 0.0
C61 C 0.8611 0.75582 0.83758 0.0
O62 O 0.79047 0.83011 0.86664 0.0
O63 O 0.79109 0.76136 0.86893 0.0
O64 O 0.80297 0.81286 0.97684 0.0
C65 C 0.78031 0.79504 0.85603 0.0
O66 O 0.8511 0.78367 0.8139 0.0
C67 C 0.8058 0.77593 -0.00782 0.0
O68 O 0.8564 0.75524 0.87626 0.0
O69 O 0.81763 0.74866 0.97027 0.0
C70 C 0.57755 0.61802 0.39635 0.0
O71 O 0.58495 0.61068 0.35964 0.0
Cd72 Cd 0.61629 0.65233 0.32308 0.0
O73 O 0.58733 0.64828 0.41739 0.0
Cd74 Cd 0.6198 0.70481 0.40989 0.0
C75 C 0.58544 0.7485 0.3315 0.0
O76 O 0.65108 0.66685 0.36784 0.0
O77 O 0.65665 0.73452 0.37463 0.0
O78 O 0.63449 0.68883 0.47954 0.0
C79 C 0.66429 0.69945 0.35953 0.0
O80 O 0.59474 0.71933 0.30859 0.0
C81 C 0.63296 0.72681 0.49304 0.0
O82 O 0.58934 0.74897 0.37049 0.0
O83 O 0.62458 0.75479 0.46801 0.0
C84 C 0.36359 0.61241 0.057 0.0
O85 O 0.35632 0.60365 0.0934 0.0
Cd86 Cd 0.33045 0.65121 0.1345 0.0
O87 O 0.35542 0.64585 0.03894 0.0
Cd88 Cd 0.32571 0.70629 0.05137 0.0
C89 C 0.36735 0.74136 0.12347 0.0
O90 O 0.2938 0.67425 0.09711 0.0
O91 O 0.29495 0.74295 0.09463 0.0
O92 O 0.30574 0.69245 -0.01521 0.0
C93 C 0.28443 0.70971 0.10864 0.0
O94 O 0.35802 0.71241 0.14638 0.0
C95 C 0.30875 0.72966 0.97029 0.0
O96 O 0.36052 0.74504 0.08571 0.0
O97 O 0.32018 0.75641 -0.00662 0.0
C98 C 0.07896 0.89606 0.5584 0.0
O99 O 0.08736 0.90593 0.59405 0.0
Cd100 Cd 0.11451 0.85939 0.63414 0.0
O101 O 0.08679 0.86229 0.54046 0.0
Cd102 Cd 0.11775 0.8033 0.55233 0.0
C103 C 0.07826 0.76793 0.62607 0.0
O104 O 0.15076 0.8364 0.5962 0.0
O105 O 0.14882 0.76768 0.59584 0.0
O106 O 0.13603 0.81819 0.48518 0.0
C107 C 0.16009 0.80107 0.60817 0.0
O108 O 0.08791 0.79763 0.64802 0.0
C109 C 0.13463 0.78041 0.4712 0.0
O110 O 0.08405 0.76373 0.58797 0.0
O111 O 0.12459 0.75276 0.49468 0.0
H112 H 0.26757 0.37194 0.66156 0.0
H113 H 0.23951 0.36472 0.72151 0.0
H114 H 0.20992 0.24746 0.67112 0.0
H115 H 0.23828 0.25393 0.61168 0.0
H116 H 0.17226 0.304 0.71181 0.0
H117 H 0.25428 0.23468 0.73209 0.0
H118 H 0.30116 0.23412 0.73276 0.0
H119 H 0.30156 0.33347 0.8244 0.0
H120 H 0.25463 0.33514 0.82366 0.0
H121 H 0.16751 0.18001 0.91789 0.0
H122 H 0.18732 0.20116 0.85307 0.0
H123 H 0.14919 0.32288 0.85914 0.0
H124 H 0.12929 0.302 0.92453 0.0
H125 H 0.21983 0.26907 0.8404 0.0
H126 H 0.13694 0.35093 0.75493 0.0
H127 H 0.09008 0.34882 0.75191 0.0
H128 H 0.09123 0.21765 0.78946 0.0
H129 H 0.13807 0.21883 0.79215 0.0
C130 C 0.25464 0.34519 0.66281 0.0
C131 C 0.25519 0.31332 0.63218 0.0
C132 C 0.23867 0.3411 0.69703 0.0
C133 C 0.22274 0.30551 0.70067 0.0
C134 C 0.222 0.27523 0.66871 0.0
C135 C 0.23828 0.27886 0.63494 0.0
C136 C 0.20924 0.29693 0.7398 0.0
C137 C 0.18259 0.2968 0.74008 0.0
C138 C 0.22281 0.28694 0.77639 0.0
C139 C 0.25098 0.28539 0.77746 0.0
C140 C 0.26437 0.25665 0.75212 0.0
C141 C 0.29094 0.25609 0.75254 0.0
C142 C 0.30433 0.28383 0.77851 0.0
C143 C 0.29116 0.31206 0.80423 0.0
C144 C 0.26458 0.31283 0.80382 0.0
C145 C 0.16315 0.21119 0.90538 0.0
C146 C 0.14682 0.23935 0.92639 0.0
C147 C 0.1746 0.22329 0.86841 0.0
C148 C 0.16976 0.26357 0.85135 0.0
C149 C 0.15309 0.29156 0.87173 0.0
C150 C 0.14175 0.27959 0.90905 0.0
C151 C 0.18272 0.27622 0.81268 0.0
C152 C 0.20939 0.27701 0.81242 0.0
C153 C 0.16912 0.28645 0.77611 0.0
C154 C 0.14098 0.28517 0.77423 0.0
C155 C 0.12718 0.32163 0.76245 0.0
C156 C 0.10062 0.32059 0.76079 0.0
C157 C 0.08768 0.28318 0.77065 0.0
C158 C 0.10127 0.24667 0.78202 0.0
C159 C 0.12782 0.24753 0.78369 0.0
H160 H 0.06713 0.28245 0.76936 0.0
H161 H 0.3249 0.28336 0.77878 0.0
H162 H 0.18618 0.14016 0.14465 0.0
H163 H 0.2168 0.14539 0.20184 0.0
H164 H 0.21619 0.28242 0.19093 0.0
H165 H 0.18611 0.27743 0.13353 0.0
H166 H 0.26326 0.25437 0.20609 0.0
H167 H 0.17946 0.23078 0.26238 0.0
H168 H 0.13928 0.1916 0.27102 0.0
H169 H 0.18061 0.08203 0.31421 0.0
H170 H 0.22108 0.12042 0.30527 0.0
H171 H 0.29151 0.33502 0.40474 0.0
H172 H 0.27342 0.31363 0.33827 0.0
H173 H 0.28475 0.18136 0.36967 0.0
H174 H 0.30281 0.2026 0.43668 0.0
H175 H 0.23686 0.19664 0.34191 0.0
H176 H 0.32067 0.2265 0.29522 0.0
H177 H 0.36002 0.2682 0.28783 0.0
H178 H 0.31818 0.36836 0.22778 0.0
H179 H 0.2785 0.32754 0.23533 0.0
C180 C 0.19284 0.17135 0.15413 0.0
C181 C 0.18355 0.2084 0.1348 0.0
C182 C 0.21025 0.1743 0.1869 0.0
C183 C 0.21853 0.21435 0.20106 0.0
C184 C 0.21009 0.25118 0.1806 0.0
C185 C 0.19278 0.24827 0.14786 0.0
C186 C 0.23483 0.21848 0.23851 0.0
C187 C 0.25747 0.24186 0.23583 0.0
C188 C 0.2276 0.20128 0.27714 0.0
C189 C 0.20329 0.17826 0.28267 0.0
C190 C 0.17998 0.19821 0.27341 0.0
C191 C 0.15716 0.17618 0.2784 0.0
C192 C 0.1574 0.1343 0.29302 0.0
C193 C 0.18046 0.11443 0.30279 0.0
C194 C 0.20334 0.13631 0.29778 0.0
C195 C 0.29047 0.30137 0.39736 0.0
C196 C 0.29857 0.2705 0.42602 0.0
C197 C 0.28022 0.28918 0.35922 0.0
C198 C 0.27792 0.24589 0.34881 0.0
C199 C 0.28643 0.21495 0.37702 0.0
C200 C 0.29681 0.22714 0.41522 0.0
C201 C 0.26504 0.2333 0.30969 0.0
C202 C 0.24298 0.20841 0.31206 0.0
C203 C 0.27272 0.2494 0.27087 0.0
C204 C 0.29657 0.27403 0.26608 0.0
C205 C 0.31982 0.25754 0.2807 0.0
C206 C 0.34219 0.28101 0.27643 0.0
C207 C 0.34159 0.32093 0.25741 0.0
C208 C 0.31862 0.33743 0.24252 0.0
C209 C 0.29618 0.31411 0.24673 0.0
H210 H 0.35893 0.33905 0.25414 0.0
H211 H 0.13971 0.11729 0.29688 0.0
H212 H 0.75705 0.14186 0.30592 0.0
H213 H 0.72647 0.14385 0.24846 0.0
H214 H 0.72342 0.28102 0.25719 0.0
H215 H 0.75339 0.27922 0.31489 0.0
H216 H 0.67736 0.25026 0.24169 0.0
H217 H 0.76195 0.22941 0.18692 0.0
H218 H 0.80299 0.19199 0.17959 0.0
H219 H 0.76423 0.07938 0.13799 0.0
H220 H 0.72291 0.11601 0.14563 0.0
H221 H 0.6478 0.32383 0.04102 0.0
H222 H 0.6666 0.3055 0.10784 0.0
H223 H 0.65811 0.17179 0.07981 0.0
H224 H 0.63933 0.18993 0.01255 0.0
H225 H 0.70573 0.19046 0.10733 0.0
H226 H 0.62106 0.21724 0.15256 0.0
H227 H 0.5808 0.25716 0.15863 0.0
H228 H 0.62019 0.36103 0.21694 0.0
H229 H 0.66076 0.322 0.2107 0.0
C230 C 0.74958 0.17237 0.29593 0.0
C231 C 0.75782 0.21041 0.31471 0.0
C232 C 0.73219 0.17348 0.26299 0.0
C233 C 0.72293 0.21265 0.24809 0.0
C234 C 0.7303 0.25043 0.26807 0.0
C235 C 0.74755 0.24934 0.30099 0.0
C236 C 0.70673 0.21498 0.21035 0.0
C237 C 0.68359 0.2373 0.21228 0.0
C238 C 0.71454 0.19721 0.17213 0.0
C239 C 0.73935 0.17525 0.16733 0.0
C240 C 0.76218 0.19657 0.17651 0.0
C241 C 0.78548 0.17552 0.17226 0.0
C242 C 0.78621 0.13329 0.15846 0.0
C243 C 0.76363 0.11206 0.14876 0.0
C244 C 0.74027 0.13294 0.15304 0.0
C245 C 0.64966 0.29051 0.0492 0.0
C246 C 0.64208 0.25833 0.02145 0.0
C247 C 0.66031 0.28007 0.08753 0.0
C248 C 0.66357 0.23727 0.099 0.0
C249 C 0.6557 0.20503 0.07163 0.0
C250 C 0.6449 0.21545 0.03328 0.0
C251 C 0.67661 0.22654 0.13849 0.0
C252 C 0.69921 0.20271 0.13687 0.0
C253 C 0.66839 0.24322 0.1769 0.0
C254 C 0.64399 0.26677 0.1809 0.0
C255 C 0.62117 0.24872 0.16641 0.0
C256 C 0.59829 0.27118 0.16993 0.0
C257 C 0.59794 0.31163 0.18809 0.0
C258 C 0.62048 0.32969 0.20287 0.0
C259 C 0.64343 0.30738 0.1994 0.0
H260 H 0.58021 0.32897 0.19078 0.0
H261 H 0.80427 0.11704 0.15518 0.0
H262 H 0.68207 0.36461 0.80533 0.0
H263 H 0.71306 0.36381 0.74896 0.0
H264 H 0.71764 0.22672 0.75668 0.0
H265 H 0.68732 0.22737 0.81338 0.0
H266 H 0.7633 0.2586 0.74286 0.0
H267 H 0.6788 0.27825 0.68544 0.0
H268 H 0.63764 0.31519 0.67714 0.0
H269 H 0.67613 0.42856 0.63813 0.0
H270 H 0.71756 0.3924 0.64674 0.0
H271 H 0.7925 0.18349 0.54331 0.0
H272 H 0.774 0.20286 0.6098 0.0
H273 H 0.78284 0.33612 0.58095 0.0
H274 H 0.80136 0.3169 0.51392 0.0
H275 H 0.73514 0.31794 0.60806 0.0
H276 H 0.81974 0.29184 0.65479 0.0
H277 H 0.86008 0.25218 0.66145 0.0
H278 H 0.82095 0.14842 0.71915 0.0
H279 H 0.78029 0.18717 0.71231 0.0
C280 C 0.68995 0.33438 0.79534 0.0
C281 C 0.68205 0.29602 0.81356 0.0
C282 C 0.70758 0.33394 0.76302 0.0
C283 C 0.7174 0.29513 0.74813 0.0
C284 C 0.71034 0.25705 0.76756 0.0
C285 C 0.69288 0.25748 0.79991 0.0
C286 C 0.73386 0.29341 0.71091 0.0
C287 C 0.75713 0.27148 0.71335 0.0
C288 C 0.72614 0.31116 0.67259 0.0
C289 C 0.70126 0.33282 0.66722 0.0
C290 C 0.67848 0.31115 0.67539 0.0
C291 C 0.65511 0.33193 0.67059 0.0
C292 C 0.65428 0.37424 0.65725 0.0
C293 C 0.67681 0.39582 0.64856 0.0
C294 C 0.70024 0.37521 0.65338 0.0
C295 C 0.7908 0.21694 0.55123 0.0
C296 C 0.79838 0.24867 0.5233 0.0
C297 C 0.78033 0.22797 0.58939 0.0
C298 C 0.77725 0.27094 0.60054 0.0
C299 C 0.78514 0.30276 0.57302 0.0
C300 C 0.79577 0.29173 0.53482 0.0
C301 C 0.76427 0.28218 0.63979 0.0
C302 C 0.74162 0.30584 0.63771 0.0
C303 C 0.77247 0.2657 0.67834 0.0
C304 C 0.79692 0.24236 0.68281 0.0
C305 C 0.8197 0.26044 0.66865 0.0
C306 C 0.84263 0.23814 0.6725 0.0
C307 C 0.84307 0.19778 0.69065 0.0
C308 C 0.82058 0.17969 0.70509 0.0
C309 C 0.79759 0.20184 0.7013 0.0
H310 H 0.86084 0.18056 0.69358 0.0
H311 H 0.63616 0.39027 0.65354 0.0
H312 H 0.7743 0.825 0.03911 0.0
H313 H 0.7533 0.80581 0.10352 0.0
H314 H 0.79018 0.68289 0.10128 0.0
H315 H 0.81128 0.70178 0.03633 0.0
H316 H 0.71989 0.73925 0.11726 0.0
H317 H 0.80152 0.65726 0.20587 0.0
H318 H 0.84837 0.65841 0.20975 0.0
H319 H 0.84851 0.78877 0.16964 0.0
H320 H 0.80169 0.78855 0.16608 0.0
H321 H 0.67028 0.641 0.29744 0.0
H322 H 0.69802 0.6472 0.23703 0.0
H323 H 0.72973 0.76301 0.28719 0.0
H324 H 0.70174 0.7575 0.3472 0.0
H325 H 0.76627 0.70589 0.24737 0.0
H326 H 0.68505 0.77625 0.22515 0.0
H327 H 0.63819 0.7783 0.22357 0.0
H328 H 0.63732 0.67859 0.13233 0.0
H329 H 0.68422 0.67544 0.13393 0.0
C330 C 0.77812 0.79395 0.05238 0.0
C331 C 0.79449 0.7649 0.0326 0.0
C332 C 0.76597 0.78297 0.08909 0.0
C333 C 0.77015 0.74295 0.10712 0.0
C334 C 0.78679 0.71403 0.08792 0.0
C335 C 0.79882 0.72487 0.05086 0.0
C336 C 0.75675 0.73167 0.1458 0.0
C337 C 0.73006 0.73165 0.14559 0.0
C338 C 0.76999 0.72197 0.18282 0.0
C339 C 0.79813 0.72267 0.18523 0.0
C340 C 0.81156 0.68618 0.19798 0.0
C341 C 0.83811 0.68667 0.20012 0.0
C342 C 0.85142 0.72359 0.18979 0.0
C343 C 0.83819 0.76014 0.17745 0.0
C344 C 0.81165 0.75982 0.1753 0.0
C345 C 0.68357 0.66725 0.29601 0.0
C346 C 0.68378 0.69895 0.32684 0.0
C347 C 0.69934 0.67077 0.2615 0.0
C348 C 0.71579 0.70565 0.25769 0.0
C349 C 0.7172 0.73581 0.2897 0.0
C350 C 0.70115 0.73271 0.32382 0.0
C351 C 0.72954 0.71331 0.21861 0.0
C352 C 0.75619 0.71276 0.21878 0.0
C353 C 0.71629 0.72289 0.18159 0.0
C354 C 0.68812 0.72526 0.18002 0.0
C355 C 0.67486 0.75451 0.20501 0.0
C356 C 0.6483 0.75591 0.20408 0.0
C357 C 0.63478 0.7285 0.17796 0.0
C358 C 0.64782 0.69974 0.1526 0.0
C359 C 0.67439 0.69814 0.15351 0.0
H360 H 0.61422 0.72963 0.17728 0.0
H361 H 0.87196 0.7239 0.19145 0.0
H362 H 0.63542 0.80603 0.52883 0.0
H363 H 0.65421 0.82459 0.59599 0.0
H364 H 0.67013 0.69174 0.61889 0.0
H365 H 0.65114 0.67293 0.55231 0.0
H366 H 0.65366 0.73123 0.68823 0.0
H367 H 0.71558 0.75794 0.58078 0.0
H368 H 0.73106 0.79143 0.51678 0.0
H369 H 0.72042 0.91551 0.57052 0.0
H370 H 0.70456 0.8827 0.63468 0.0
H371 H 0.75872 0.72382 0.82289 0.0
H372 H 0.72765 0.71965 0.76696 0.0
H373 H 0.72393 0.85697 0.76214 0.0
H374 H 0.75567 0.86139 0.81777 0.0
H375 H 0.72936 0.82509 0.68716 0.0
H376 H 0.67355 0.79702 0.79914 0.0
H377 H 0.65895 0.76264 0.86321 0.0
H378 H 0.65825 0.64105 0.80191 0.0
H379 H 0.67319 0.67458 0.73762 0.0
C380 C 0.64264 0.78074 0.54842 0.0
C381 C 0.64198 0.73804 0.53512 0.0
C382 C 0.65344 0.79141 0.58671 0.0
C383 C 0.66386 0.75959 0.61222 0.0
C384 C 0.66222 0.71682 0.59973 0.0
C385 C 0.65144 0.70614 0.56155 0.0
C386 C 0.67778 0.77061 0.65083 0.0
C387 C 0.67027 0.75164 0.68805 0.0
C388 C 0.69901 0.79821 0.65079 0.0
C389 C 0.7086 0.81791 0.6123 0.0
C390 C 0.71636 0.79237 0.57881 0.0
C391 C 0.72523 0.81122 0.54254 0.0
C392 C 0.72664 0.85558 0.53953 0.0
C393 C 0.71926 0.88116 0.57285 0.0
C394 C 0.71033 0.86246 0.60918 0.0
C395 C 0.75111 0.7532 0.81031 0.0
C396 C 0.75971 0.79296 0.82473 0.0
C397 C 0.73318 0.75076 0.77845 0.0
C398 C 0.72316 0.78799 0.76064 0.0
C399 C 0.73132 0.82781 0.77551 0.0
C400 C 0.74941 0.83029 0.80735 0.0
C401 C 0.70561 0.78498 0.72459 0.0
C402 C 0.71246 0.80538 0.68772 0.0
C403 C 0.68379 0.75865 0.72501 0.0
C404 C 0.67464 0.73833 0.76359 0.0
C405 C 0.67044 0.76291 0.79938 0.0
C406 C 0.66208 0.74357 0.83574 0.0
C407 C 0.65771 0.69968 0.83665 0.0
C408 C 0.66164 0.67505 0.80117 0.0
C409 C 0.67002 0.69422 0.76473 0.0
H410 H 0.65124 0.68477 0.86483 0.0
H411 H 0.73352 0.87011 0.51143 0.0
H412 H 0.31022 0.80751 0.93172 0.0
H413 H 0.29099 0.82675 0.86503 0.0
H414 H 0.26464 0.69759 0.8496 0.0
H415 H 0.28401 0.67807 0.91555 0.0
H416 H 0.28322 0.7281 0.77833 0.0
H417 H 0.22546 0.77793 0.88546 0.0
H418 H 0.21411 0.82042 0.94703 0.0
H419 H 0.23387 0.93543 0.88325 0.0
H420 H 0.24563 0.89352 0.82146 0.0
H421 H 0.17757 0.72993 0.64707 0.0
H422 H 0.20846 0.72532 0.70304 0.0
H423 H 0.21998 0.86131 0.69754 0.0
H424 H 0.18816 0.86636 0.64193 0.0
H425 H 0.21509 0.83772 0.77464 0.0
H426 H 0.26627 0.78868 0.66345 0.0
H427 H 0.2772 0.74635 0.60163 0.0
H428 H 0.27064 0.63088 0.67168 0.0
H429 H 0.25932 0.67244 0.73379 0.0
C430 C 0.30049 0.78317 0.91393 0.0
C431 C 0.29853 0.74131 0.92903 0.0
C432 C 0.28944 0.79425 0.87591 0.0
C433 C 0.27614 0.7637 0.8525 0.0
C434 C 0.27481 0.72169 0.86706 0.0
C435 C 0.28584 0.71061 0.90491 0.0
C436 C 0.26277 0.77526 0.8135 0.0
C437 C 0.26827 0.75198 0.77749 0.0
C438 C 0.24388 0.80746 0.81201 0.0
C439 C 0.2367 0.83259 0.84907 0.0
C440 C 0.22756 0.81226 0.8847 0.0
C441 C 0.22102 0.83623 0.9196 0.0
C442 C 0.22334 0.88058 0.9191 0.0
C443 C 0.23213 0.90107 0.88363 0.0
C444 C 0.23872 0.87723 0.84867 0.0
C445 C 0.18681 0.7589 0.65738 0.0
C446 C 0.18041 0.79854 0.63997 0.0
C447 C 0.20466 0.75616 0.6893 0.0
C448 C 0.21696 0.79285 0.70412 0.0
C449 C 0.21085 0.83252 0.68649 0.0
C450 C 0.19273 0.83535 0.65466 0.0
C451 C 0.23497 0.78958 0.73964 0.0
C452 C 0.23038 0.81444 0.77504 0.0
C453 C 0.25478 0.7589 0.7405 0.0
C454 C 0.26182 0.73373 0.70327 0.0
C455 C 0.26702 0.75425 0.66563 0.0
C456 C 0.2733 0.73039 0.63053 0.0
C457 C 0.27459 0.68596 0.63272 0.0
C458 C 0.26965 0.6653 0.67004 0.0
C459 C 0.26334 0.68901 0.70522 0.0
H460 H 0.27944 0.66754 0.6055 0.0
H461 H 0.21827 0.89909 0.94615 0.0
H462 H 0.2618 0.64467 0.15159 0.0
H463 H 0.23314 0.65126 0.21097 0.0
H464 H 0.23538 0.78819 0.20033 0.0
H465 H 0.26387 0.78196 0.14138 0.0
H466 H 0.24585 0.76134 0.27856 0.0
H467 H 0.18288 0.73347 0.17271 0.0
H468 H 0.1631 0.69219 0.11614 0.0
H469 H 0.15359 0.58558 0.19755 0.0
H470 H 0.17364 0.62607 0.25449 0.0
H471 H 0.15265 0.83476 0.41288 0.0
H472 H 0.17502 0.81685 0.34929 0.0
H473 H 0.16479 0.68297 0.37389 0.0
H474 H 0.14187 0.70076 0.43765 0.0
H475 H 0.15919 0.70094 0.29109 0.0
H476 H 0.22035 0.72808 0.39728 0.0
H477 H 0.24045 0.76783 0.45457 0.0
H478 H 0.25455 0.87311 0.37337 0.0
H479 H 0.23419 0.83422 0.3157 0.0
C480 C 0.25591 0.67614 0.16162 0.0
C481 C 0.26522 0.71279 0.1419 0.0
C482 C 0.2395 0.67984 0.19548 0.0
C483 C 0.23214 0.72024 0.21008 0.0
C484 C 0.24089 0.75672 0.18969 0.0
C485 C 0.25715 0.75307 0.15591 0.0
C486 C 0.21656 0.72507 0.24799 0.0
C487 C 0.2268 0.74851 0.28109 0.0
C488 C 0.19208 0.70695 0.25191 0.0
C489 C 0.18003 0.68262 0.21772 0.0
C490 C 0.17679 0.70109 0.17845 0.0
C491 C 0.16548 0.67787 0.14634 0.0
C492 C 0.15717 0.63624 0.15321 0.0
C493 C 0.16008 0.6178 0.19225 0.0
C494 C 0.1714 0.64088 0.22446 0.0
C495 C 0.15489 0.80148 0.40463 0.0
C496 C 0.14571 0.76916 0.43055 0.0
C497 C 0.16776 0.79129 0.36828 0.0
C498 C 0.17203 0.74856 0.35725 0.0
C499 C 0.16182 0.71615 0.38194 0.0
C500 C 0.14877 0.72636 0.41837 0.0
C501 C 0.18827 0.73823 0.3211 0.0
C502 C 0.17829 0.71358 0.28857 0.0
C503 C 0.21314 0.75492 0.3177 0.0
C504 C 0.22555 0.77835 0.35225 0.0
C505 C 0.22757 0.75983 0.39171 0.0
C506 C 0.23904 0.78219 0.42424 0.0
C507 C 0.24873 0.82301 0.41763 0.0
C508 C 0.24702 0.8415 0.37844 0.0
C509 C 0.23554 0.8193 0.34581 0.0
H510 H 0.2576 0.84027 0.44286 0.0
H511 H 0.14841 0.61832 0.12832 0.0
H512 H 0.03727 0.26745 0.08869 0.0
H513 H 0.00043 0.29557 0.12567 0.0
H514 H 0.04578 0.30702 0.23685 0.0
H515 H 0.0822 0.27678 0.20038 0.0
H516 H 0.00757 0.26155 0.25241 0.0
H517 H 0.01609 0.39593 0.1865 0.0
H518 H 0.02197 0.44624 0.12893 0.0
H519 H 0.95254 0.403 0.07273 0.0
H520 H 0.94641 0.35198 0.12964 0.0
H521 H 0.89602 0.29567 0.36214 0.0
H522 H 0.9349 0.32311 0.33072 0.0
H523 H 0.90695 0.28733 0.20994 0.0
H524 H 0.86811 0.26017 0.2409 0.0
H525 H 0.93865 0.35961 0.2077 0.0
H526 H 0.93738 0.21507 0.26346 0.0
H527 H 0.93096 0.163 0.31948 0.0
H528 H -0.0123 0.22595 0.39328 0.0
H529 H -0.00586 0.2788 0.33786 0.0
C530 C 0.03954 0.27735 0.12062 0.0
C531 C 0.06242 0.26965 0.14186 0.0
C532 C 0.01849 0.29364 0.14179 0.0
C533 C 0.02024 0.30348 0.18421 0.0
C534 C 0.04386 0.29943 0.20427 0.0
C535 C 0.06468 0.28225 0.18341 0.0
C536 C -0.00314 0.3107 0.20898 0.0
C537 C -0.00708 0.2841 0.24324 0.0
C538 C -0.02269 0.33921 0.19663 0.0
C539 C -0.01914 0.36993 0.16231 0.0
C540 C 0.00216 0.39692 0.16173 0.0
C541 C 0.00552 0.42562 0.12923 0.0
C542 C -0.01234 0.42778 0.09717 0.0
C543 C 0.96636 0.4013 0.09759 0.0
C544 C 0.96291 0.37254 0.13002 0.0
C545 C 0.89776 0.29503 0.32878 0.0
C546 C 0.87929 0.27488 0.30405 0.0
C547 C 0.91998 0.31074 0.31088 0.0
C548 C 0.92393 0.30654 0.26811 0.0
C549 C 0.90429 0.29079 0.243 0.0
C550 C 0.88219 0.27493 0.26082 0.0
C551 C 0.94973 0.31046 0.25047 0.0
C552 C 0.95389 0.33849 0.21746 0.0
C553 C 0.96961 0.28324 0.26374 0.0
C554 C 0.966 0.25115 0.2968 0.0
C555 C 0.94835 0.21795 0.29176 0.0
C556 C 0.94472 0.1883 0.32337 0.0
C557 C 0.95886 0.19124 0.35998 0.0
C558 C -0.02328 0.22377 0.36496 0.0
C559 C -0.01964 0.25359 0.33348 0.0
H560 H 0.95602 0.16826 0.38442 0.0
H561 H -0.0097 0.45001 0.07203 0.0
H562 H 0.39866 0.23855 0.59574 0.0
H563 H 0.43509 0.20866 0.63283 0.0
H564 H 0.39311 0.21475 0.74714 0.0
H565 H 0.35713 0.24658 0.71035 0.0
H566 H 0.43484 0.25288 0.75772 0.0
H567 H 0.41466 0.11702 0.70133 0.0
H568 H 0.4032 0.06428 0.64778 0.0
H569 H 0.47297 0.08918 0.58407 0.0
H570 H 0.48471 0.14252 0.63691 0.0
H571 H 0.54523 0.20434 0.86342 0.0
H572 H 0.50509 0.17858 0.83441 0.0
H573 H 0.5312 0.20795 0.71159 0.0
H574 H 0.57133 0.23352 0.74016 0.0
H575 H 0.49475 0.13873 0.71474 0.0
H576 H 0.50724 0.28665 0.76184 0.0
H577 H 0.52112 0.33652 0.81662 0.0
H578 H 0.46511 0.28554 0.89879 0.0
H579 H 0.45125 0.2348 0.84467 0.0
C580 C 0.39696 0.23228 0.62855 0.0
C581 C 0.3752 0.24517 0.65026 0.0
C582 C 0.41778 0.21498 0.64979 0.0
C583 C 0.41693 0.20927 0.69292 0.0
C584 C 0.39435 0.21904 0.71397 0.0
C585 C 0.37377 0.23713 0.69291 0.0
C586 C 0.44051 0.19924 0.71663 0.0
C587 C 0.44747 0.22702 0.74895 0.0
C588 C 0.45744 0.16612 0.70492 0.0
C589 C 0.4505 0.13398 0.67304 0.0
C590 C 0.42749 0.11148 0.67576 0.0
C591 C 0.42096 0.08143 0.64555 0.0
C592 C 0.43733 0.07343 0.61252 0.0
C593 C 0.46031 0.0954 0.60968 0.0
C594 C 0.46693 0.1255 0.6398 0.0
C595 C 0.54288 0.20362 0.83012 0.0
C596 C 0.56113 0.22203 0.80412 0.0
C597 C 0.51993 0.18879 0.81359 0.0
C598 C 0.51506 0.19218 0.77097 0.0
C599 C 0.53458 0.2052 0.74457 0.0
C600 C 0.55743 0.22018 0.76103 0.0
C601 C 0.48865 0.19232 0.75512 0.0
C602 C 0.48145 0.16338 0.72413 0.0
C603 C 0.47134 0.22423 0.76796 0.0
C604 C 0.4784 0.25669 0.79943 0.0
C605 C 0.49792 0.28608 0.79162 0.0
C606 C 0.50586 0.31435 0.82258 0.0
C607 C 0.49418 0.31389 0.86129 0.0
C608 C 0.47427 0.28561 0.86889 0.0
C609 C 0.46635 0.25712 0.83809 0.0
H610 H 0.50038 0.33573 0.88524 0.0
H611 H 0.43224 0.05016 0.58916 0.0
H612 H 0.07057 0.75375 0.70796 0.0
H613 H 0.0333 0.72236 0.73986 0.0
H614 H 0.00335 0.69035 0.61928 0.0
H615 H 0.04081 0.72216 0.5869 0.0
H616 H -0.02828 0.74043 0.66254 0.0
H617 H 0.01585 0.61141 0.68934 0.0
H618 H 0.0514 0.56571 0.71223 0.0
H619 H 0.04401 0.61378 0.83607 0.0
H620 H 0.00866 0.66026 0.81387 0.0
H621 H 0.85889 0.71242 0.76505 0.0
H622 H 0.89513 0.68422 0.72645 0.0
H623 H 0.94452 0.71273 0.82981 0.0
H624 H 0.90799 0.73867 0.86929 0.0
H625 H 0.96382 0.64771 0.78587 0.0
H626 H 0.93036 0.78861 0.75608 0.0
H627 H 0.89685 0.83979 0.73592 0.0
H628 H 0.8871 0.77459 0.61996 0.0
H629 H 0.92034 0.72265 0.63975 0.0
C630 C 0.05637 0.73909 0.68818 0.0
C631 C 0.05843 0.74098 0.64487 0.0
C632 C 0.03516 0.72072 0.70653 0.0
C633 C 0.01555 0.70382 0.682 0.0
C634 C 0.01834 0.70304 0.63878 0.0
C635 C 0.03974 0.72119 0.62033 0.0
C636 C -0.00932 0.69437 0.70128 0.0
C637 C 0.96979 0.71901 0.68864 0.0
C638 C -0.01161 0.66753 0.7362 0.0
C639 C 0.00961 0.63948 0.74985 0.0
C640 C 0.0219 0.61247 0.72141 0.0
C641 C 0.04201 0.58638 0.73428 0.0
C642 C 0.04997 0.58686 0.77557 0.0
C643 C 0.03781 0.6134 0.8041 0.0
C644 C 0.01769 0.63957 0.7914 0.0
C645 C 0.87733 0.71093 0.78006 0.0
C646 C 0.88082 0.728 0.81986 0.0
C647 C 0.89803 0.69501 0.75798 0.0
C648 C 0.92266 0.69765 0.77474 0.0
C649 C 0.92573 0.71059 0.81613 0.0
C650 C 0.90486 0.72543 0.8387 0.0
C651 C 0.94521 0.69437 0.74745 0.0
C652 C 0.9656 0.66783 0.75882 0.0
C653 C 0.94736 0.72011 0.71167 0.0
C654 C 0.92756 0.7515 0.69959 0.0
C655 C 0.92095 0.78508 0.72639 0.0
C656 C 0.90202 0.81421 0.71504 0.0
C657 C 0.8898 0.81037 0.67674 0.0
C658 C 0.89654 0.77745 0.64966 0.0
C659 C 0.91541 0.74816 0.66093 0.0
H660 H 0.87515 0.83295 0.66799 0.0
H661 H 0.06555 0.56665 0.78546 0.0
H662 H 0.37727 0.75792 0.20453 0.0
H663 H 0.41572 0.78897 0.23378 0.0
H664 H 0.44326 0.81517 0.11103 0.0
H665 H 0.40458 0.78385 0.08133 0.0
H666 H 0.47545 0.76569 0.15514 0.0
H667 H 0.43348 0.89742 0.17776 0.0
H668 H 0.3989 0.94556 0.19952 0.0
H669 H 0.40751 0.90334 0.32503 0.0
H670 H 0.4419 0.85446 0.30399 0.0
H671 H 0.58938 0.78894 0.25767 0.0
H672 H 0.55421 0.81929 0.21752 0.0
H673 H 0.5039 0.79985 0.32076 0.0
H674 H 0.53942 0.77209 0.36176 0.0
H675 H 0.4864 0.86357 0.27471 0.0
H676 H 0.5163 0.71868 0.24868 0.0
H677 H 0.54929 0.66589 0.2304 0.0
H678 H 0.56083 0.72855 0.11409 0.0
H679 H 0.52805 0.78197 0.13194 0.0
C680 C 0.3912 0.77124 0.18371 0.0
C681 C 0.38805 0.76796 0.14061 0.0
C682 C 0.4131 0.7894 0.20052 0.0
C683 C 0.43234 0.8046 0.17462 0.0
C684 C 0.42857 0.80383 0.13156 0.0
C685 C 0.40646 0.78598 0.11465 0.0
C686 C 0.45769 0.81416 0.19256 0.0
C687 C 0.47806 0.78818 0.18037 0.0
C688 C 0.46089 0.8426 0.22626 0.0
C689 C 0.44027 0.87212 0.23921 0.0
C690 C 0.42791 0.89817 0.20997 0.0
C691 C 0.40835 0.92564 0.22218 0.0
C692 C 0.401 0.92749 0.26362 0.0
C693 C 0.41324 0.90191 0.29294 0.0
C694 C 0.43281 0.87437 0.2809 0.0
C695 C 0.57103 0.79296 0.27228 0.0
C696 C 0.56692 0.77783 0.31252 0.0
C697 C 0.55093 0.81007 0.24931 0.0
C698 C 0.52623 0.81043 0.26562 0.0
C699 C 0.52274 0.79963 0.30737 0.0
C700 C 0.54304 0.78371 0.33082 0.0
C701 C 0.50376 0.8143 0.23787 0.0
C702 C 0.48397 0.84237 0.24844 0.0
C703 C 0.50078 0.78718 0.20303 0.0
C704 C 0.51997 0.7545 0.1918 0.0
C705 C 0.52593 0.7212 0.21925 0.0
C706 C 0.54458 0.69121 0.20899 0.0
C707 C 0.55719 0.69393 0.17115 0.0
C708 C 0.55107 0.72653 0.14341 0.0
C709 C 0.53245 0.75665 0.15356 0.0
H710 H 0.57169 0.67077 0.1633 0.0
H711 H 0.38585 0.94876 0.27301 0.0
H712 H 0.05885 0.12084 -0.01846 0.0
H713 H 0.02204 0.08223 0.95459 0.0
H714 H 0.01971 0.00683 0.06583 0.0
H715 H 0.05675 0.04483 0.09284 0.0
H716 H 0.01064 0.95831 -0.00145 0.0
H717 H -0.02025 0.09142 0.05265 0.0
H718 H -0.0219 0.16965 0.05995 0.0
H719 H 0.95951 0.18177 0.93102 0.0
H720 H 0.96141 0.1036 0.92282 0.0
H721 H 0.88557 0.87919 0.97669 0.0
H722 H 0.9225 0.91781 0.00319 0.0
H723 H 0.92483 0.99229 0.89137 0.0
H724 H 0.8877 0.95423 0.86477 0.0
H725 H 0.93392 0.04129 0.95868 0.0
H726 H 0.96468 0.90819 0.90462 0.0
H727 H 0.96624 0.82996 0.89732 0.0
H728 H -0.01495 0.81782 0.02616 0.0
H729 H -0.01677 0.89599 0.03437 0.0
C730 C 0.0507 0.09575 0.00016 0.0
C731 C 0.06071 0.08617 0.03952 0.0
C732 C 0.02954 0.07385 -0.01523 0.0
C733 C 0.01782 0.04214 0.0085 0.0
C734 C 0.02836 0.0313 0.04704 0.0
C735 C 0.04956 0.05313 0.06245 0.0
C736 C -0.00582 0.02103 -0.00635 0.0
C737 C -0.00623 0.97642 -0.00967 0.0
C738 C -0.02771 0.04469 -0.01788 0.0
C739 C 0.97097 0.09168 -0.01296 0.0
C740 C -0.02451 0.11079 0.02579 0.0
C741 C -0.02552 0.15511 0.0301 0.0
C742 C 0.96877 0.18067 -0.00405 0.0
C743 C 0.96397 0.16193 0.95744 0.0
C744 C 0.96499 0.11762 0.95294 0.0
C745 C 0.89374 0.90407 0.95784 0.0
C746 C 0.88371 0.91338 0.91844 0.0
C747 C 0.91497 0.92597 0.97298 0.0
C748 C 0.92671 0.95745 0.94897 0.0
C749 C 0.91615 0.968 0.91037 0.0
C750 C 0.89491 0.94614 0.89519 0.0
C751 C 0.95038 0.97858 0.96362 0.0
C752 C 0.9508 0.02318 0.9669 0.0
C753 C -0.02773 0.95492 0.97511 0.0
C754 C -0.02643 0.90792 0.97019 0.0
C755 C 0.96896 0.88882 0.93146 0.0
C756 C 0.96992 0.8445 0.92715 0.0
C757 C -0.02432 0.81893 0.96127 0.0
C758 C -0.01944 0.83766 -0.00023 0.0
C759 C -0.02041 0.88197 0.00426 0.0
H760 H -0.02359 0.78462 0.95788 0.0
H761 H 0.96799 0.21498 -0.00065 0.0
H762 H 0.54875 0.55664 0.35806 0.0
H763 H 0.51174 0.51964 0.38569 0.0
H764 H 0.52075 0.58625 0.50169 0.0
H765 H 0.55791 0.62314 0.47452 0.0
H766 H 0.50962 0.50288 0.51367 0.0
H767 H 0.47659 0.61857 0.43269 0.0
H768 H 0.47161 0.66273 0.37018 0.0
H769 H 0.44287 0.55473 0.30304 0.0
H770 H 0.44803 0.50974 0.36503 0.0
H771 H 0.38772 0.46326 0.59666 0.0
H772 H 0.42444 0.50036 0.56819 0.0
H773 H 0.41588 0.43099 0.45365 0.0
H774 H 0.37905 0.3938 0.48173 0.0
H775 H 0.42673 0.51546 0.44067 0.0
H776 H 0.45977 0.39988 0.52197 0.0
H777 H 0.46469 0.35599 0.58467 0.0
H778 H 0.49332 0.4643 0.65147 0.0
H779 H 0.48823 0.50902 0.58927 0.0
C780 C 0.54302 0.56321 0.38958 0.0
C781 C 0.55628 0.59307 0.41398 0.0
C782 C 0.52176 0.54217 0.40525 0.0
C783 C 0.51326 0.55063 0.44556 0.0
C784 C 0.52692 0.57933 0.47045 0.0
C785 C 0.54815 0.60046 0.4548 0.0
C786 C 0.48985 0.53018 0.46155 0.0
C787 C 0.49144 0.50608 0.49799 0.0
C788 C 0.46621 0.53366 0.44066 0.0
C789 C 0.46295 0.56068 0.40339 0.0
C790 C 0.4694 0.60415 0.4045 0.0
C791 C 0.46651 0.62934 0.36918 0.0
C792 C 0.457 0.61151 0.33262 0.0
C793 C 0.45027 0.56847 0.33136 0.0
C794 C 0.45316 0.54312 0.36659 0.0
C795 C 0.39345 0.45614 0.56526 0.0
C796 C 0.38048 0.42533 0.54159 0.0
C797 C 0.41454 0.47725 0.54911 0.0
C798 C 0.42311 0.468 0.509 0.0
C799 C 0.40965 0.4385 0.48472 0.0
C800 C 0.38862 0.41722 0.50089 0.0
C801 C 0.44651 0.48824 0.49279 0.0
C802 C 0.44492 0.51228 0.45632 0.0
C803 C 0.47014 0.48476 0.51368 0.0
C804 C 0.47337 0.4579 0.55107 0.0
C805 C 0.46692 0.41443 0.55012 0.0
C806 C 0.46977 0.38939 0.58555 0.0
C807 C 0.47925 0.40738 0.62206 0.0
C808 C 0.48595 0.45043 0.62318 0.0
C809 C 0.4831 0.47563 0.58783 0.0
H810 H 0.48144 0.38794 0.64947 0.0
H811 H 0.45478 0.63107 0.30531 0.0
H812 H 0.38407 0.53707 0.08449 0.0
H813 H 0.41873 0.49607 0.05363 0.0
H814 H 0.42269 0.58616 0.95334 0.0
H815 H 0.38767 0.6268 -0.01655 0.0
H816 H 0.42842 0.50831 0.92431 0.0
H817 H 0.46534 0.58886 0.03496 0.0
H818 H 0.47014 0.61543 0.10643 0.0
H819 H 0.48275 0.48771 0.14947 0.0
H820 H 0.47771 0.4603 0.07828 0.0
H821 H 0.55164 0.44988 0.8534 0.0
H822 H 0.5148 0.48793 0.88085 0.0
H823 H 0.51028 0.39801 -0.01877 0.0
H824 H 0.54751 0.36043 0.95459 0.0
H825 H 0.50471 0.47609 0.00958 0.0
H826 H 0.46514 0.39651 0.89637 0.0
H827 H 0.4597 0.37305 0.82377 0.0
H828 H 0.45414 0.50331 0.78463 0.0
H829 H 0.45907 0.52754 0.85693 0.0
C830 C 0.39215 0.548 0.05568 0.0
C831 C 0.38313 0.58541 0.03661 0.0
C832 C 0.4121 0.52464 0.03818 0.0
C833 C 0.42368 0.53843 0.00153 0.0
C834 C 0.41415 0.57493 -0.0183 0.0
C835 C 0.3941 0.59818 -0.00098 0.0
C836 C 0.44601 0.51529 -0.01574 0.0
C837 C 0.4452 0.50165 0.94288 0.0
C838 C 0.46785 0.50613 0.00849 0.0
C839 C 0.47088 0.52249 0.05135 0.0
C840 C 0.46893 0.5664 0.05971 0.0
C841 C 0.47174 0.58162 0.10016 0.0
C842 C 0.47668 0.55326 0.13249 0.0
C843 C 0.47889 0.50963 0.12441 0.0
C844 C 0.47608 0.49424 0.08401 0.0
C845 C 0.54286 0.43821 0.88138 0.0
C846 C 0.55264 0.40213 0.90184 0.0
C847 C 0.5216 0.45981 0.89684 0.0
C848 C 0.50943 0.44548 0.93277 0.0
C849 C 0.51927 0.40966 0.95341 0.0
C850 C 0.54063 0.38823 0.93815 0.0
C851 C 0.48701 0.46862 0.94976 0.0
C852 C 0.48786 0.48248 -0.0089 0.0
C853 C 0.46534 0.47839 0.92536 0.0
C854 C 0.46274 0.4638 0.88192 0.0
C855 C 0.46294 0.42011 0.8722 0.0
C856 C 0.4599 0.40668 0.83118 0.0
C857 C 0.45685 0.43664 0.79964 0.0
C858 C 0.45659 0.48012 0.80907 0.0
C859 C 0.45936 0.49372 0.85006 0.0
H860 H 0.45456 0.42615 0.76791 0.0
H861 H 0.47885 0.56511 0.16378 0.0
H862 H 0.05221 0.87903 0.48736 0.0
H863 H 0.0163 0.91879 0.45873 0.0
H864 H 0.02362 0.01222 0.55619 0.0
H865 H 0.05922 0.97206 0.58564 0.0
H866 H -0.02435 0.99016 0.54738 0.0
H867 H 0.04145 0.03331 0.45454 0.0
H868 H 0.07672 0.02303 0.40552 0.0
H869 H 0.02721 0.95424 0.32332 0.0
H870 H -0.00828 0.96363 0.37211 0.0
H871 H 0.89061 0.14251 0.46042 0.0
H872 H 0.92769 0.10515 0.48817 0.0
H873 H 0.92077 0.00989 0.39232 0.0
H874 H 0.88397 0.04762 0.36375 0.0
H875 H 0.96882 0.03395 0.40043 0.0
H876 H 0.90321 0.99004 0.49399 0.0
H877 H 0.86799 1.00068 0.54303 0.0
H878 H 0.91734 0.07138 0.62394 0.0
H879 H 0.95279 0.0616 0.57512 0.0
C880 C 0.0464 0.90829 0.50251 0.0
C881 C 0.05867 0.92231 0.53884 0.0
C882 C 0.02586 0.93111 0.48598 0.0
C883 C 0.01733 0.96878 0.50505 0.0
C884 C 0.02981 0.98325 0.54092 0.0
C885 C 0.05026 0.96031 0.55763 0.0
C886 C -0.00525 0.9921 0.48862 0.0
C887 C -0.02565 1.00031 0.51538 0.0
C888 C -0.00731 0.00444 0.44662 0.0
C889 C 0.01399 0.99885 0.41717 0.0
C890 C 0.03813 0.01572 0.42616 0.0
C891 C 0.05815 0.0101 0.39838 0.0
C892 C 0.05422 0.98791 0.36138 0.0
C893 C 0.03024 0.97138 0.35202 0.0
C894 C 0.01016 0.97688 0.3797 0.0
C895 C 0.89679 0.11339 0.44541 0.0
C896 C 0.88418 0.09799 0.40992 0.0
C897 C 0.91801 0.09198 0.4614 0.0
C898 C 0.92692 0.0544 0.44263 0.0
C899 C 0.91428 0.03881 0.40736 0.0
C900 C 0.89314 0.06034 0.39118 0.0
C901 C 0.94974 0.03188 0.45917 0.0
C902 C 0.97017 0.02383 0.43244 0.0
C903 C 0.95184 0.01971 0.50121 0.0
C904 C 0.93058 0.02542 0.53071 0.0
C905 C 0.9065 0.00811 0.5221 0.0
C906 C 0.8865 0.01394 0.54988 0.0
C907 C 0.8904 0.03678 0.58653 0.0
C908 C 0.91433 0.05373 0.59552 0.0
C909 C 0.93439 0.04802 0.56783 0.0
H910 H 0.8749 0.04127 0.60799 0.0
H911 H 0.06975 0.98359 0.33992 0.0
loop_
_geom_bond_atom_site_label_1
_geom_bond_atom_site_label_2
_geom_bond_distance
_geom_bond_site_symmetry_2
_ccdc_geom_bond_type
C0 O1 1.306 . S
C0 O3 1.160 . S
O1 C0 1.306 . S
O1 Cd2 2.228 . S
Cd2 O1 2.228 . S
Cd2 O6 2.273 . S
Cd2 O10 2.277 . S
O3 C0 1.160 . S
O3 Cd4 2.203 . S
Cd4 O3 2.203 . S
Cd4 O6 2.411 . S
Cd4 O7 2.333 . S
Cd4 O8 2.352 . S
Cd4 O12 2.277 . S
Cd4 O13 2.356 . S
C5 O10 1.209 . S
C5 O12 1.226 . S
O6 Cd2 2.273 . S
O6 Cd4 2.411 . S
O6 C9 1.320 . S
O7 Cd4 2.333 . S
O7 C9 1.214 . S
O8 Cd4 2.352 . S
O8 C11 1.260 . S
C9 O6 1.320 . S
C9 O7 1.214 . S
O10 Cd2 2.277 . S
O10 C5 1.209 . S
C11 O8 1.260 . S
C11 O13 1.284 . S
O12 Cd4 2.277 . S
O12 C5 1.226 . S
O13 Cd4 2.356 . S
O13 C11 1.284 . S
C14 O15 1.306 . S
C14 O17 1.160 . S
O15 C14 1.306 . S
O15 Cd16 2.228 . S
Cd16 O15 2.228 . S
Cd16 O20 2.273 . S
Cd16 O24 2.277 . S
O17 C14 1.160 . S
O17 Cd18 2.203 . S
Cd18 O17 2.203 . S
Cd18 O20 2.411 . S
Cd18 O21 2.333 . S
Cd18 O22 2.352 . S
Cd18 O26 2.277 . S
Cd18 O27 2.356 . S
C19 O24 1.209 . S
C19 O26 1.226 . S
O20 Cd16 2.273 . S
O20 Cd18 2.411 . S
O20 C23 1.320 . S
O21 Cd18 2.333 . S
O21 C23 1.214 . S
O22 Cd18 2.352 . S
O22 C25 1.258 . S
C23 O20 1.320 . S
C23 O21 1.214 . S
O24 Cd16 2.277 . S
O24 C19 1.209 . S
C25 O22 1.258 . S
C25 O27 1.282 . S
O26 Cd18 2.277 . S
O26 C19 1.226 . S
O27 Cd18 2.356 . S
O27 C25 1.282 . S
C28 O29 1.306 . S
C28 O31 1.160 . S
O29 C28 1.306 . S
O29 Cd30 2.228 . S
Cd30 O29 2.228 . S
Cd30 O34 2.273 . S
Cd30 O38 2.277 . S
O31 C28 1.160 . S
O31 Cd32 2.203 . S
Cd32 O31 2.203 . S
Cd32 O34 2.411 . S
Cd32 O35 2.333 . S
Cd32 O36 2.352 . S
Cd32 O40 2.277 . S
Cd32 O41 2.356 . S
C33 O38 1.209 . S
C33 O40 1.226 . S
O34 Cd30 2.273 . S
O34 Cd32 2.411 . S
O34 C37 1.320 . S
O35 Cd32 2.333 . S
O35 C37 1.214 . S
O36 Cd32 2.352 . S
O36 C39 1.260 . S
C37 O34 1.320 . S
C37 O35 1.214 . S
O38 Cd30 2.277 . S
O38 C33 1.209 . S
C39 O36 1.260 . S
C39 O41 1.284 . S
O40 Cd32 2.277 . S
O40 C33 1.226 . S
O41 Cd32 2.356 . S
O41 C39 1.284 . S
C42 O43 1.306 . S
C42 O45 1.160 . S
O43 C42 1.306 . S
O43 Cd44 2.228 . S
Cd44 O43 2.228 . S
Cd44 O48 2.273 . S
Cd44 O52 2.277 . S
O45 C42 1.160 . S
O45 Cd46 2.203 . S
Cd46 O45 2.203 . S
Cd46 O48 2.411 . S
Cd46 O49 2.333 . S
Cd46 O50 2.352 . S
Cd46 O54 2.277 . S
Cd46 O55 2.356 . S
C47 O52 1.209 . S
C47 O54 1.226 . S
O48 Cd44 2.273 . S
O48 Cd46 2.411 . S
O48 C51 1.320 . S
O49 Cd46 2.333 . S
O49 C51 1.214 . S
O50 Cd46 2.352 . S
O50 C53 1.258 . S
C51 O48 1.320 . S
C51 O49 1.214 . S
O52 Cd44 2.277 . S
O52 C47 1.209 . S
C53 O50 1.258 . S
C53 O55 1.282 . S
O54 Cd46 2.277 . S
O54 C47 1.226 . S
O55 Cd46 2.356 . S
O55 C53 1.282 . S
C56 O57 1.306 . S
C56 O59 1.160 . S
O57 C56 1.306 . S
O57 Cd58 2.228 . S
Cd58 O57 2.228 . S
Cd58 O62 2.273 . S
Cd58 O66 2.277 . S
O59 C56 1.160 . S
O59 Cd60 2.203 . S
Cd60 O59 2.203 . S
Cd60 O62 2.411 . S
Cd60 O63 2.333 . S
Cd60 O64 2.352 . S
Cd60 O68 2.277 . S
Cd60 O69 2.356 . S
C61 O66 1.209 . S
C61 O68 1.226 . S
O62 Cd58 2.273 . S
O62 Cd60 2.411 . S
O62 C65 1.320 . S
O63 Cd60 2.333 . S
O63 C65 1.214 . S
O64 Cd60 2.352 . S
O64 C67 1.260 . S
C65 O62 1.320 . S
C65 O63 1.214 . S
O66 Cd58 2.277 . S
O66 C61 1.209 . S
C67 O64 1.260 . S
C67 O69 1.284 . S
O68 Cd60 2.277 . S
O68 C61 1.226 . S
O69 Cd60 2.356 . S
O69 C67 1.284 . S
C70 O71 1.306 . S
C70 O73 1.160 . S
O71 C70 1.306 . S
O71 Cd72 2.228 . S
Cd72 O71 2.228 . S
Cd72 O76 2.273 . S
Cd72 O80 2.277 . S
O73 C70 1.160 . S
O73 Cd74 2.203 . S
Cd74 O73 2.203 . S
Cd74 O76 2.411 . S
Cd74 O77 2.333 . S
Cd74 O78 2.352 . S
Cd74 O82 2.277 . S
Cd74 O83 2.356 . S
C75 O80 1.209 . S
C75 O82 1.226 . S
O76 Cd72 2.273 . S
O76 Cd74 2.411 . S
O76 C79 1.320 . S
O77 Cd74 2.333 . S
O77 C79 1.214 . S
O78 Cd74 2.352 . S
O78 C81 1.258 . S
C79 O76 1.320 . S
C79 O77 1.214 . S
O80 Cd72 2.277 . S
O80 C75 1.209 . S
C81 O78 1.258 . S
C81 O83 1.282 . S
O82 Cd74 2.277 . S
O82 C75 1.226 . S
O83 Cd74 2.356 . S
O83 C81 1.282 . S
C84 O85 1.306 . S
C84 O87 1.160 . S
O85 C84 1.306 . S
O85 Cd86 2.228 . S
Cd86 O85 2.228 . S
Cd86 O90 2.273 . S
Cd86 O94 2.277 . S
O87 C84 1.160 . S
O87 Cd88 2.203 . S
Cd88 O87 2.203 . S
Cd88 O90 2.411 . S
Cd88 O91 2.333 . S
Cd88 O92 2.352 . S
Cd88 O96 2.277 . S
Cd88 O97 2.356 . S
C89 O94 1.209 . S
C89 O96 1.226 . S
O90 Cd86 2.273 . S
O90 Cd88 2.411 . S
O90 C93 1.320 . S
O91 Cd88 2.333 . S
O91 C93 1.214 . S
O92 Cd88 2.352 . S
O92 C95 1.260 . S
C93 O90 1.320 . S
C93 O91 1.214 . S
O94 Cd86 2.277 . S
O94 C89 1.209 . S
C95 O92 1.260 . S
C95 O97 1.284 . S
O96 Cd88 2.277 . S
O96 C89 1.226 . S
O97 Cd88 2.356 . S
O97 C95 1.284 . S
C98 O99 1.306 . S
C98 O101 1.160 . S
O99 C98 1.306 . S
O99 Cd100 2.228 . S
Cd100 O99 2.228 . S
Cd100 O104 2.273 . S
Cd100 O108 2.277 . S
O101 C98 1.160 . S
O101 Cd102 2.203 . S
Cd102 O101 2.203 . S
Cd102 O104 2.411 . S
Cd102 O105 2.333 . S
Cd102 O106 2.352 . S
Cd102 O110 2.277 . S
Cd102 O111 2.356 . S
C103 O108 1.209 . S
C103 O110 1.226 . S
O104 Cd100 2.273 . S
O104 Cd102 2.411 . S
O104 C107 1.320 . S
O105 Cd102 2.333 . S
O105 C107 1.214 . S
O106 Cd102 2.352 . S
O106 C109 1.258 . S
C107 O104 1.320 . S
C107 O105 1.214 . S
O108 Cd100 2.277 . S
O108 C103 1.209 . S
C109 O106 1.258 . S
C109 O111 1.282 . S
O110 Cd102 2.277 . S
O110 C103 1.226 . S
O111 Cd102 2.356 . S
O111 C109 1.282 . S
H112 C130 0.951 . S
H113 C132 0.951 . S
H114 C134 0.950 . S
H115 C135 0.950 . S
H116 C137 0.950 . S
H117 C140 0.950 . S
H118 C141 0.950 . S
H119 C143 0.950 . S
H120 C144 0.950 . S
H121 C145 0.951 . S
H122 C147 0.951 . S
H123 C149 0.950 . S
H124 C150 0.950 . S
H125 C152 0.950 . S
H126 C155 0.950 . S
H127 C156 0.950 . S
H128 C158 0.950 . S
H129 C159 0.950 . S
C130 H112 0.951 . S
C130 C131 1.366 . S
C130 C132 1.388 . S
C131 C130 1.366 . S
C131 C135 1.385 . S
C132 H113 0.951 . S
C132 C130 1.388 . S
C132 C133 1.366 . S
C133 C132 1.366 . S
C133 C134 1.414 . S
C133 C136 1.499 . S
C134 H114 0.950 . S
C134 C133 1.414 . S
C134 C135 1.374 . S
C135 H115 0.950 . S
C135 C131 1.385 . S
C135 C134 1.374 . S
C136 C133 1.499 . S
C136 C137 1.373 . S
C136 C138 1.389 . S
C137 H116 0.950 . S
C137 C136 1.373 . S
C137 C153 1.377 . S
C138 C136 1.389 . S
C138 C139 1.524 . S
C138 C152 1.377 . S
C139 C138 1.524 . S
C139 C140 1.397 . S
C139 C144 1.363 . S
C140 H117 0.950 . S
C140 C139 1.397 . S
C140 C141 1.334 . S
C141 H118 0.950 . S
C141 C140 1.334 . S
C141 C142 1.287 . S
C142 C141 1.287 . S
C142 C143 1.524 . S
C142 H161 0.913 . S
C143 H119 0.950 . S
C143 C142 1.524 . S
C143 C144 1.415 . S
C144 H120 0.950 . S
C144 C139 1.363 . S
C144 C143 1.415 . S
C145 H121 0.951 . S
C145 C146 1.366 . S
C145 C147 1.388 . S
C146 C145 1.366 . S
C146 C150 1.385 . S
C147 H122 0.951 . S
C147 C145 1.388 . S
C147 C148 1.366 . S
C148 C147 1.366 . S
C148 C149 1.414 . S
C148 C151 1.499 . S
C149 H123 0.950 . S
C149 C148 1.414 . S
C149 C150 1.374 . S
C150 H124 0.950 . S
C150 C146 1.385 . S
C150 C149 1.374 . S
C151 C148 1.499 . S
C151 C152 1.373 . S
C151 C153 1.389 . S
C152 H125 0.950 . S
C152 C138 1.377 . S
C152 C151 1.373 . S
C153 C137 1.377 . S
C153 C151 1.389 . S
C153 C154 1.524 . S
C154 C153 1.524 . S
C154 C155 1.397 . S
C154 C159 1.363 . S
C155 H126 0.950 . S
C155 C154 1.397 . S
C155 C156 1.334 . S
C156 H127 0.950 . S
C156 C155 1.334 . S
C156 C157 1.287 . S
C157 C156 1.287 . S
C157 C158 1.524 . S
C157 H160 0.999 . S
C158 H128 0.950 . S
C158 C157 1.524 . S
C158 C159 1.415 . S
C159 H129 0.950 . S
C159 C154 1.363 . S
C159 C158 1.415 . S
H160 C157 0.999 . S
H161 C142 0.913 . S
H162 C180 0.951 . S
H163 C182 0.951 . S
H164 C184 0.950 . S
H165 C185 0.950 . S
H166 C187 0.950 . S
H167 C190 0.950 . S
H168 C191 0.950 . S
H169 C193 0.950 . S
H170 C194 0.950 . S
H171 C195 0.951 . S
H172 C197 0.951 . S
H173 C199 0.950 . S
H174 C200 0.950 . S
H175 C202 0.950 . S
H176 C205 0.950 . S
H177 C206 0.950 . S
H178 C208 0.950 . S
H179 C209 0.950 . S
C180 H162 0.951 . S
C180 C181 1.366 . S
C180 C182 1.388 . S
C181 C180 1.366 . S
C181 C185 1.385 . S
C182 H163 0.951 . S
C182 C180 1.388 . S
C182 C183 1.366 . S
C183 C182 1.366 . S
C183 C184 1.414 . S
C183 C186 1.499 . S
C184 H164 0.950 . S
C184 C183 1.414 . S
C184 C185 1.374 . S
C185 H165 0.950 . S
C185 C181 1.385 . S
C185 C184 1.374 . S
C186 C183 1.499 . S
C186 C187 1.373 . S
C186 C188 1.389 . S
C187 H166 0.950 . S
C187 C186 1.373 . S
C187 C203 1.377 . S
C188 C186 1.389 . S
C188 C189 1.524 . S
C188 C202 1.377 . S
C189 C188 1.524 . S
C189 C190 1.397 . S
C189 C194 1.363 . S
C190 H167 0.950 . S
C190 C189 1.397 . S
C190 C191 1.334 . S
C191 H168 0.950 . S
C191 C190 1.334 . S
C191 C192 1.287 . S
C192 C191 1.287 . S
C192 C193 1.524 . S
C192 H211 0.913 . S
C193 H169 0.950 . S
C193 C192 1.524 . S
C193 C194 1.415 . S
C194 H170 0.950 . S
C194 C189 1.363 . S
C194 C193 1.415 . S
C195 H171 0.951 . S
C195 C196 1.366 . S
C195 C197 1.388 . S
C196 C195 1.366 . S
C196 C200 1.385 . S
C197 H172 0.951 . S
C197 C195 1.388 . S
C197 C198 1.366 . S
C198 C197 1.366 . S
C198 C199 1.414 . S
C198 C201 1.499 . S
C199 H173 0.950 . S
C199 C198 1.414 . S
C199 C200 1.374 . S
C200 H174 0.950 . S
C200 C196 1.385 . S
C200 C199 1.374 . S
C201 C198 1.499 . S
C201 C202 1.373 . S
C201 C203 1.389 . S
C202 H175 0.950 . S
C202 C188 1.377 . S
C202 C201 1.373 . S
C203 C187 1.377 . S
C203 C201 1.389 . S
C203 C204 1.524 . S
C204 C203 1.524 . S
C204 C205 1.397 . S
C204 C209 1.363 . S
C205 H176 0.950 . S
C205 C204 1.397 . S
C205 C206 1.334 . S
C206 H177 0.950 . S
C206 C205 1.334 . S
C206 C207 1.287 . S
C207 C206 1.287 . S
C207 C208 1.524 . S
C207 H210 0.999 . S
C208 H178 0.950 . S
C208 C207 1.524 . S
C208 C209 1.415 . S
C209 H179 0.950 . S
C209 C204 1.363 . S
C209 C208 1.415 . S
H210 C207 0.999 . S
H211 C192 0.913 . S
H212 C230 0.951 . S
H213 C232 0.951 . S
H214 C234 0.950 . S
H215 C235 0.950 . S
H216 C237 0.950 . S
H217 C240 0.950 . S
H218 C241 0.950 . S
H219 C243 0.950 . S
H220 C244 0.950 . S
H221 C245 0.951 . S
H222 C247 0.951 . S
H223 C249 0.950 . S
H224 C250 0.950 . S
H225 C252 0.950 . S
H226 C255 0.950 . S
H227 C256 0.950 . S
H228 C258 0.950 . S
H229 C259 0.950 . S
C230 H212 0.951 . S
C230 C231 1.366 . S
C230 C232 1.388 . S
C231 C230 1.366 . S
C231 C235 1.385 . S
C232 H213 0.951 . S
C232 C230 1.388 . S
C232 C233 1.366 . S
C233 C232 1.366 . S
C233 C234 1.414 . S
C233 C236 1.499 . S
C234 H214 0.950 . S
C234 C233 1.414 . S
C234 C235 1.374 . S
C235 H215 0.950 . S
C235 C231 1.385 . S
C235 C234 1.374 . S
C236 C233 1.499 . S
C236 C237 1.373 . S
C236 C238 1.389 . S
C237 H216 0.950 . S
C237 C236 1.373 . S
C237 C253 1.377 . S
C238 C236 1.389 . S
C238 C239 1.524 . S
C238 C252 1.377 . S
C239 C238 1.524 . S
C239 C240 1.397 . S
C239 C244 1.363 . S
C240 H217 0.950 . S
C240 C239 1.397 . S
C240 C241 1.334 . S
C241 H218 0.950 . S
C241 C240 1.334 . S
C241 C242 1.287 . S
C242 C241 1.287 . S
C242 C243 1.524 . S
C242 H261 0.913 . S
C243 H219 0.950 . S
C243 C242 1.524 . S
C243 C244 1.415 . S
C244 H220 0.950 . S
C244 C239 1.363 . S
C244 C243 1.415 . S
C245 H221 0.951 . S
C245 C246 1.366 . S
C245 C247 1.388 . S
C246 C245 1.366 . S
C246 C250 1.385 . S
C247 H222 0.951 . S
C247 C245 1.388 . S
C247 C248 1.366 . S
C248 C247 1.366 . S
C248 C249 1.414 . S
C248 C251 1.499 . S
C249 H223 0.950 . S
C249 C248 1.414 . S
C249 C250 1.374 . S
C250 H224 0.950 . S
C250 C246 1.385 . S
C250 C249 1.374 . S
C251 C248 1.499 . S
C251 C252 1.373 . S
C251 C253 1.389 . S
C252 H225 0.950 . S
C252 C238 1.377 . S
C252 C251 1.373 . S
C253 C237 1.377 . S
C253 C251 1.389 . S
C253 C254 1.524 . S
C254 C253 1.524 . S
C254 C255 1.397 . S
C254 C259 1.363 . S
C255 H226 0.950 . S
C255 C254 1.397 . S
C255 C256 1.334 . S
C256 H227 0.950 . S
C256 C255 1.334 . S
C256 C257 1.287 . S
C257 C256 1.287 . S
C257 C258 1.524 . S
C257 H260 0.999 . S
C258 H228 0.950 . S
C258 C257 1.524 . S
C258 C259 1.415 . S
C259 H229 0.950 . S
C259 C254 1.363 . S
C259 C258 1.415 . S
H260 C257 0.999 . S
H261 C242 0.913 . S
H262 C280 0.951 . S
H263 C282 0.951 . S
H264 C284 0.950 . S
H265 C285 0.950 . S
H266 C287 0.950 . S
H267 C290 0.950 . S
H268 C291 0.950 . S
H269 C293 0.950 . S
H270 C294 0.950 . S
H271 C295 0.951 . S
H272 C297 0.951 . S
H273 C299 0.950 . S
H274 C300 0.950 . S
H275 C302 0.950 . S
H276 C305 0.950 . S
H277 C306 0.950 . S
H278 C308 0.950 . S
H279 C309 0.950 . S
C280 H262 0.951 . S
C280 C281 1.366 . S
C280 C282 1.388 . S
C281 C280 1.366 . S
C281 C285 1.385 . S
C282 H263 0.951 . S
C282 C280 1.388 . S
C282 C283 1.366 . S
C283 C282 1.366 . S
C283 C284 1.414 . S
C283 C286 1.499 . S
C284 H264 0.950 . S
C284 C283 1.414 . S
C284 C285 1.374 . S
C285 H265 0.950 . S
C285 C281 1.385 . S
C285 C284 1.374 . S
C286 C283 1.499 . S
C286 C287 1.373 . S
C286 C288 1.389 . S
C287 H266 0.950 . S
C287 C286 1.373 . S
C287 C303 1.377 . S
C288 C286 1.389 . S
C288 C289 1.524 . S
C288 C302 1.377 . S
C289 C288 1.524 . S
C289 C290 1.397 . S
C289 C294 1.363 . S
C290 H267 0.950 . S
C290 C289 1.397 . S
C290 C291 1.334 . S
C291 H268 0.950 . S
C291 C290 1.334 . S
C291 C292 1.287 . S
C292 C291 1.287 . S
C292 C293 1.524 . S
C292 H311 0.913 . S
C293 H269 0.950 . S
C293 C292 1.524 . S
C293 C294 1.415 . S
C294 H270 0.950 . S
C294 C289 1.363 . S
C294 C293 1.415 . S
C295 H271 0.951 . S
C295 C296 1.366 . S
C295 C297 1.388 . S
C296 C295 1.366 . S
C296 C300 1.385 . S
C297 H272 0.951 . S
C297 C295 1.388 . S
C297 C298 1.366 . S
C298 C297 1.366 . S
C298 C299 1.414 . S
C298 C301 1.499 . S
C299 H273 0.950 . S
C299 C298 1.414 . S
C299 C300 1.374 . S
C300 H274 0.950 . S
C300 C296 1.385 . S
C300 C299 1.374 . S
C301 C298 1.499 . S
C301 C302 1.373 . S
C301 C303 1.389 . S
C302 H275 0.950 . S
C302 C288 1.377 . S
C302 C301 1.373 . S
C303 C287 1.377 . S
C303 C301 1.389 . S
C303 C304 1.524 . S
C304 C303 1.524 . S
C304 C305 1.397 . S
C304 C309 1.363 . S
C305 H276 0.950 . S
C305 C304 1.397 . S
C305 C306 1.334 . S
C306 H277 0.950 . S
C306 C305 1.334 . S
C306 C307 1.287 . S
C307 C306 1.287 . S
C307 C308 1.524 . S
C307 H310 0.999 . S
C308 H278 0.950 . S
C308 C307 1.524 . S
C308 C309 1.415 . S
C309 H279 0.950 . S
C309 C304 1.363 . S
C309 C308 1.415 . S
H310 C307 0.999 . S
H311 C292 0.913 . S
H312 C330 0.951 . S
H313 C332 0.951 . S
H314 C334 0.950 . S
H315 C335 0.950 . S
H316 C337 0.950 . S
H317 C340 0.950 . S
H318 C341 0.950 . S
H319 C343 0.950 . S
H320 C344 0.950 . S
H321 C345 0.951 . S
H322 C347 0.951 . S
H323 C349 0.950 . S
H324 C350 0.950 . S
H325 C352 0.950 . S
H326 C355 0.950 . S
H327 C356 0.950 . S
H328 C358 0.950 . S
H329 C359 0.950 . S
C330 H312 0.951 . S
C330 C331 1.366 . S
C330 C332 1.388 . S
C331 C330 1.366 . S
C331 C335 1.385 . S
C332 H313 0.951 . S
C332 C330 1.388 . S
C332 C333 1.366 . S
C333 C332 1.366 . S
C333 C334 1.414 . S
C333 C336 1.499 . S
C334 H314 0.950 . S
C334 C333 1.414 . S
C334 C335 1.374 . S
C335 H315 0.950 . S
C335 C331 1.385 . S
C335 C334 1.374 . S
C336 C333 1.499 . S
C336 C337 1.373 . S
C336 C338 1.389 . S
C337 H316 0.950 . S
C337 C336 1.373 . S
C337 C353 1.377 . S
C338 C336 1.389 . S
C338 C339 1.524 . S
C338 C352 1.377 . S
C339 C338 1.524 . S
C339 C340 1.397 . S
C339 C344 1.363 . S
C340 H317 0.950 . S
C340 C339 1.397 . S
C340 C341 1.334 . S
C341 H318 0.950 . S
C341 C340 1.334 . S
C341 C342 1.287 . S
C342 C341 1.287 . S
C342 C343 1.524 . S
C342 H361 0.913 . S
C343 H319 0.950 . S
C343 C342 1.524 . S
C343 C344 1.415 . S
C344 H320 0.950 . S
C344 C339 1.363 . S
C344 C343 1.415 . S
C345 H321 0.951 . S
C345 C346 1.366 . S
C345 C347 1.388 . S
C346 C345 1.366 . S
C346 C350 1.385 . S
C347 H322 0.951 . S
C347 C345 1.388 . S
C347 C348 1.366 . S
C348 C347 1.366 . S
C348 C349 1.414 . S
C348 C351 1.499 . S
C349 H323 0.950 . S
C349 C348 1.414 . S
C349 C350 1.374 . S
C350 H324 0.950 . S
C350 C346 1.385 . S
C350 C349 1.374 . S
C351 C348 1.499 . S
C351 C352 1.373 . S
C351 C353 1.389 . S
C352 H325 0.950 . S
C352 C338 1.377 . S
C352 C351 1.373 . S
C353 C337 1.377 . S
C353 C351 1.389 . S
C353 C354 1.524 . S
C354 C353 1.524 . S
C354 C355 1.397 . S
C354 C359 1.363 . S
C355 H326 0.950 . S
C355 C354 1.397 . S
C355 C356 1.334 . S
C356 H327 0.950 . S
C356 C355 1.334 . S
C356 C357 1.287 . S
C357 C356 1.287 . S
C357 C358 1.524 . S
C357 H360 0.999 . S
C358 H328 0.950 . S
C358 C357 1.524 . S
C358 C359 1.415 . S
C359 H329 0.950 . S
C359 C354 1.363 . S
C359 C358 1.415 . S
H360 C357 0.999 . S
H361 C342 0.913 . S
H362 C380 0.951 . S
H363 C382 0.951 . S
H364 C384 0.950 . S
H365 C385 0.950 . S
H366 C387 0.950 . S
H367 C390 0.950 . S
H368 C391 0.950 . S
H369 C393 0.950 . S
H370 C394 0.950 . S
H371 C395 0.951 . S
H372 C397 0.951 . S
H373 C399 0.950 . S
H374 C400 0.950 . S
H375 C402 0.950 . S
H376 C405 0.950 . S
H377 C406 0.950 . S
H378 C408 0.950 . S
H379 C409 0.950 . S
C380 H362 0.951 . S
C380 C381 1.366 . S
C380 C382 1.388 . S
C381 C380 1.366 . S
C381 C385 1.385 . S
C382 H363 0.951 . S
C382 C380 1.388 . S
C382 C383 1.366 . S
C383 C382 1.366 . S
C383 C384 1.414 . S
C383 C386 1.499 . S
C384 H364 0.950 . S
C384 C383 1.414 . S
C384 C385 1.374 . S
C385 H365 0.950 . S
C385 C381 1.385 . S
C385 C384 1.374 . S
C386 C383 1.499 . S
C386 C387 1.373 . S
C386 C388 1.389 . S
C387 H366 0.950 . S
C387 C386 1.373 . S
C387 C403 1.377 . S
C388 C386 1.389 . S
C388 C389 1.524 . S
C388 C402 1.377 . S
C389 C388 1.524 . S
C389 C390 1.397 . S
C389 C394 1.363 . S
C390 H367 0.950 . S
C390 C389 1.397 . S
C390 C391 1.334 . S
C391 H368 0.950 . S
C391 C390 1.334 . S
C391 C392 1.287 . S
C392 C391 1.287 . S
C392 C393 1.524 . S
C392 H411 0.913 . S
C393 H369 0.950 . S
C393 C392 1.524 . S
C393 C394 1.415 . S
C394 H370 0.950 . S
C394 C389 1.363 . S
C394 C393 1.415 . S
C395 H371 0.951 . S
C395 C396 1.366 . S
C395 C397 1.388 . S
C396 C395 1.366 . S
C396 C400 1.385 . S
C397 H372 0.951 . S
C397 C395 1.388 . S
C397 C398 1.366 . S
C398 C397 1.366 . S
C398 C399 1.414 . S
C398 C401 1.499 . S
C399 H373 0.950 . S
C399 C398 1.414 . S
C399 C400 1.374 . S
C400 H374 0.950 . S
C400 C396 1.385 . S
C400 C399 1.374 . S
C401 C398 1.499 . S
C401 C402 1.373 . S
C401 C403 1.389 . S
C402 H375 0.950 . S
C402 C388 1.377 . S
C402 C401 1.373 . S
C403 C387 1.377 . S
C403 C401 1.389 . S
C403 C404 1.524 . S
C404 C403 1.524 . S
C404 C405 1.397 . S
C404 C409 1.363 . S
C405 H376 0.950 . S
C405 C404 1.397 . S
C405 C406 1.334 . S
C406 H377 0.950 . S
C406 C405 1.334 . S
C406 C407 1.287 . S
C407 C406 1.287 . S
C407 C408 1.524 . S
C407 H410 0.999 . S
C408 H378 0.950 . S
C408 C407 1.524 . S
C408 C409 1.415 . S
C409 H379 0.950 . S
C409 C404 1.363 . S
C409 C408 1.415 . S
H410 C407 0.999 . S
H411 C392 0.913 . S
H412 C430 0.951 . S
H413 C432 0.951 . S
H414 C434 0.950 . S
H415 C435 0.950 . S
H416 C437 0.950 . S
H417 C440 0.950 . S
H418 C441 0.950 . S
H419 C443 0.950 . S
H420 C444 0.950 . S
H421 C445 0.951 . S
H422 C447 0.951 . S
H423 C449 0.950 . S
H424 C450 0.950 . S
H425 C452 0.950 . S
H426 C455 0.950 . S
H427 C456 0.950 . S
H428 C458 0.950 . S
H429 C459 0.950 . S
C430 H412 0.951 . S
C430 C431 1.366 . S
C430 C432 1.388 . S
C431 C430 1.366 . S
C431 C435 1.385 . S
C432 H413 0.951 . S
C432 C430 1.388 . S
C432 C433 1.366 . S
C433 C432 1.366 . S
C433 C434 1.414 . S
C433 C436 1.499 . S
C434 H414 0.950 . S
C434 C433 1.414 . S
C434 C435 1.374 . S
C435 H415 0.950 . S
C435 C431 1.385 . S
C435 C434 1.374 . S
C436 C433 1.499 . S
C436 C437 1.373 . S
C436 C438 1.389 . S
C437 H416 0.950 . S
C437 C436 1.373 . S
C437 C453 1.377 . S
C438 C436 1.389 . S
C438 C439 1.524 . S
C438 C452 1.377 . S
C439 C438 1.524 . S
C439 C440 1.397 . S
C439 C444 1.363 . S
C440 H417 0.950 . S
C440 C439 1.397 . S
C440 C441 1.334 . S
C441 H418 0.950 . S
C441 C440 1.334 . S
C441 C442 1.287 . S
C442 C441 1.287 . S
C442 C443 1.524 . S
C442 H461 0.913 . S
C443 H419 0.950 . S
C443 C442 1.524 . S
C443 C444 1.415 . S
C444 H420 0.950 . S
C444 C439 1.363 . S
C444 C443 1.415 . S
C445 H421 0.951 . S
C445 C446 1.366 . S
C445 C447 1.388 . S
C446 C445 1.366 . S
C446 C450 1.385 . S
C447 H422 0.951 . S
C447 C445 1.388 . S
C447 C448 1.366 . S
C448 C447 1.366 . S
C448 C449 1.414 . S
C448 C451 1.499 . S
C449 H423 0.950 . S
C449 C448 1.414 . S
C449 C450 1.374 . S
C450 H424 0.950 . S
C450 C446 1.385 . S
C450 C449 1.374 . S
C451 C448 1.499 . S
C451 C452 1.373 . S
C451 C453 1.389 . S
C452 H425 0.950 . S
C452 C438 1.377 . S
C452 C451 1.373 . S
C453 C437 1.377 . S
C453 C451 1.389 . S
C453 C454 1.524 . S
C454 C453 1.524 . S
C454 C455 1.397 . S
C454 C459 1.363 . S
C455 H426 0.950 . S
C455 C454 1.397 . S
C455 C456 1.334 . S
C456 H427 0.950 . S
C456 C455 1.334 . S
C456 C457 1.287 . S
C457 C456 1.287 . S
C457 C458 1.524 . S
C457 H460 0.999 . S
C458 H428 0.950 . S
C458 C457 1.524 . S
C458 C459 1.415 . S
C459 H429 0.950 . S
C459 C454 1.363 . S
C459 C458 1.415 . S
H460 C457 0.999 . S
H461 C442 0.913 . S
H462 C480 0.951 . S
H463 C482 0.951 . S
H464 C484 0.950 . S
H465 C485 0.950 . S
H466 C487 0.950 . S
H467 C490 0.950 . S
H468 C491 0.950 . S
H469 C493 0.950 . S
H470 C494 0.950 . S
H471 C495 0.951 . S
H472 C497 0.951 . S
H473 C499 0.950 . S
H474 C500 0.950 . S
H475 C502 0.950 . S
H476 C505 0.950 . S
H477 C506 0.950 . S
H478 C508 0.950 . S
H479 C509 0.950 . S
C480 H462 0.951 . S
C480 C481 1.366 . S
C480 C482 1.388 . S
C481 C480 1.366 . S
C481 C485 1.385 . S
C482 H463 0.951 . S
C482 C480 1.388 . S
C482 C483 1.366 . S
C483 C482 1.366 . S
C483 C484 1.414 . S
C483 C486 1.499 . S
C484 H464 0.950 . S
C484 C483 1.414 . S
C484 C485 1.374 . S
C485 H465 0.950 . S
C485 C481 1.385 . S
C485 C484 1.374 . S
C486 C483 1.499 . S
C486 C487 1.373 . S
C486 C488 1.389 . S
C487 H466 0.950 . S
C487 C486 1.373 . S
C487 C503 1.377 . S
C488 C486 1.389 . S
C488 C489 1.524 . S
C488 C502 1.377 . S
C489 C488 1.524 . S
C489 C490 1.397 . S
C489 C494 1.363 . S
C490 H467 0.950 . S
C490 C489 1.397 . S
C490 C491 1.334 . S
C491 H468 0.950 . S
C491 C490 1.334 . S
C491 C492 1.287 . S
C492 C491 1.287 . S
C492 C493 1.524 . S
C492 H511 0.913 . S
C493 H469 0.950 . S
C493 C492 1.524 . S
C493 C494 1.415 . S
C494 H470 0.950 . S
C494 C489 1.363 . S
C494 C493 1.415 . S
C495 H471 0.951 . S
C495 C496 1.366 . S
C495 C497 1.388 . S
C496 C495 1.366 . S
C496 C500 1.385 . S
C497 H472 0.951 . S
C497 C495 1.388 . S
C497 C498 1.366 . S
C498 C497 1.366 . S
C498 C499 1.414 . S
C498 C501 1.499 . S
C499 H473 0.950 . S
C499 C498 1.414 . S
C499 C500 1.374 . S
C500 H474 0.950 . S
C500 C496 1.385 . S
C500 C499 1.374 . S
C501 C498 1.499 . S
C501 C502 1.373 . S
C501 C503 1.389 . S
C502 H475 0.950 . S
C502 C488 1.377 . S
C502 C501 1.373 . S
C503 C487 1.377 . S
C503 C501 1.389 . S
C503 C504 1.524 . S
C504 C503 1.524 . S
C504 C505 1.397 . S
C504 C509 1.363 . S
C505 H476 0.950 . S
C505 C504 1.397 . S
C505 C506 1.334 . S
C506 H477 0.950 . S
C506 C505 1.334 . S
C506 C507 1.287 . S
C507 C506 1.287 . S
C507 C508 1.524 . S
C507 H510 0.999 . S
C508 H478 0.950 . S
C508 C507 1.524 . S
C508 C509 1.415 . S
C509 H479 0.950 . S
C509 C504 1.363 . S
C509 C508 1.415 . S
H510 C507 0.999 . S
H511 C492 0.913 . S
H512 C530 0.951 . S
H513 C532 0.951 . S
H514 C534 0.950 . S
H515 C535 0.950 . S
H516 C537 0.950 . S
H517 C540 0.950 . S
H518 C541 0.950 . S
H519 C543 0.950 . S
H520 C544 0.950 . S
H521 C545 0.951 . S
H522 C547 0.951 . S
H523 C549 0.950 . S
H524 C550 0.950 . S
H525 C552 0.950 . S
H526 C555 0.950 . S
H527 C556 0.950 . S
H528 C558 0.950 . S
H529 C559 0.950 . S
C530 H512 0.951 . S
C530 C531 1.366 . S
C530 C532 1.388 . S
C531 C530 1.366 . S
C531 C535 1.385 . S
C532 H513 0.951 . S
C532 C530 1.388 . S
C532 C533 1.366 . S
C533 C532 1.366 . S
C533 C534 1.414 . S
C533 C536 1.499 . S
C534 H514 0.950 . S
C534 C533 1.414 . S
C534 C535 1.374 . S
C535 H515 0.950 . S
C535 C531 1.385 . S
C535 C534 1.374 . S
C536 C533 1.499 . S
C536 C537 1.373 . S
C536 C538 1.389 1_455 S
C537 H516 0.950 . S
C537 C536 1.373 . S
C537 C553 1.377 . S
C538 C536 1.389 1_655 S
C538 C539 1.524 . S
C538 C552 1.377 . S
C539 C538 1.524 . S
C539 C540 1.397 . S
C539 C544 1.363 . S
C540 H517 0.950 . S
C540 C539 1.397 . S
C540 C541 1.334 . S
C541 H518 0.950 . S
C541 C540 1.334 . S
C541 C542 1.287 . S
C542 C541 1.287 . S
C542 C543 1.524 . S
C542 H561 0.913 . S
C543 H519 0.950 . S
C543 C542 1.524 . S
C543 C544 1.415 . S
C544 H520 0.950 . S
C544 C539 1.363 . S
C544 C543 1.415 . S
C545 H521 0.951 . S
C545 C546 1.366 . S
C545 C547 1.388 . S
C546 C545 1.366 . S
C546 C550 1.385 . S
C547 H522 0.951 . S
C547 C545 1.388 . S
C547 C548 1.366 . S
C548 C547 1.366 . S
C548 C549 1.414 . S
C548 C551 1.499 . S
C549 H523 0.950 . S
C549 C548 1.414 . S
C549 C550 1.374 . S
C550 H524 0.950 . S
C550 C546 1.385 . S
C550 C549 1.374 . S
C551 C548 1.499 . S
C551 C552 1.373 . S
C551 C553 1.389 1_655 S
C552 H525 0.950 . S
C552 C538 1.377 . S
C552 C551 1.373 . S
C553 C537 1.377 . S
C553 C551 1.389 1_455 S
C553 C554 1.524 . S
C554 C553 1.524 . S
C554 C555 1.397 . S
C554 C559 1.363 . S
C555 H526 0.950 . S
C555 C554 1.397 . S
C555 C556 1.334 . S
C556 H527 0.950 . S
C556 C555 1.334 . S
C556 C557 1.287 . S
C557 C556 1.287 . S
C557 C558 1.524 . S
C557 H560 0.999 . S
C558 H528 0.950 . S
C558 C557 1.524 . S
C558 C559 1.415 . S
C559 H529 0.950 . S
C559 C554 1.363 . S
C559 C558 1.415 . S
H560 C557 0.999 . S
H561 C542 0.913 . S
H562 C580 0.951 . S
H563 C582 0.951 . S
H564 C584 0.950 . S
H565 C585 0.950 . S
H566 C587 0.950 . S
H567 C590 0.950 . S
H568 C591 0.950 . S
H569 C593 0.950 . S
H570 C594 0.950 . S
H571 C595 0.951 . S
H572 C597 0.951 . S
H573 C599 0.950 . S
H574 C600 0.950 . S
H575 C602 0.950 . S
H576 C605 0.950 . S
H577 C606 0.950 . S
H578 C608 0.950 . S
H579 C609 0.950 . S
C580 H562 0.951 . S
C580 C581 1.366 . S
C580 C582 1.388 . S
C581 C580 1.366 . S
C581 C585 1.385 . S
C582 H563 0.951 . S
C582 C580 1.388 . S
C582 C583 1.366 . S
C583 C582 1.366 . S
C583 C584 1.414 . S
C583 C586 1.499 . S
C584 H564 0.950 . S
C584 C583 1.414 . S
C584 C585 1.374 . S
C585 H565 0.950 . S
C585 C581 1.385 . S
C585 C584 1.374 . S
C586 C583 1.499 . S
C586 C587 1.373 . S
C586 C588 1.389 . S
C587 H566 0.950 . S
C587 C586 1.373 . S
C587 C603 1.377 . S
C588 C586 1.389 . S
C588 C589 1.524 . S
C588 C602 1.377 . S
C589 C588 1.524 . S
C589 C590 1.397 . S
C589 C594 1.363 . S
C590 H567 0.950 . S
C590 C589 1.397 . S
C590 C591 1.334 . S
C591 H568 0.950 . S
C591 C590 1.334 . S
C591 C592 1.287 . S
C592 C591 1.287 . S
C592 C593 1.524 . S
C592 H611 0.913 . S
C593 H569 0.950 . S
C593 C592 1.524 . S
C593 C594 1.415 . S
C594 H570 0.950 . S
C594 C589 1.363 . S
C594 C593 1.415 . S
C595 H571 0.951 . S
C595 C596 1.366 . S
C595 C597 1.388 . S
C596 C595 1.366 . S
C596 C600 1.385 . S
C597 H572 0.951 . S
C597 C595 1.388 . S
C597 C598 1.366 . S
C598 C597 1.366 . S
C598 C599 1.414 . S
C598 C601 1.499 . S
C599 H573 0.950 . S
C599 C598 1.414 . S
C599 C600 1.374 . S
C600 H574 0.950 . S
C600 C596 1.385 . S
C600 C599 1.374 . S
C601 C598 1.499 . S
C601 C602 1.373 . S
C601 C603 1.389 . S
C602 H575 0.950 . S
C602 C588 1.377 . S
C602 C601 1.373 . S
C603 C587 1.377 . S
C603 C601 1.389 . S
C603 C604 1.524 . S
C604 C603 1.524 . S
C604 C605 1.397 . S
C604 C609 1.363 . S
C605 H576 0.950 . S
C605 C604 1.397 . S
C605 C606 1.334 . S
C606 H577 0.950 . S
C606 C605 1.334 . S
C606 C607 1.287 . S
C607 C606 1.287 . S
C607 C608 1.524 . S
C607 H610 0.999 . S
C608 H578 0.950 . S
C608 C607 1.524 . S
C608 C609 1.415 . S
C609 H579 0.950 . S
C609 C604 1.363 . S
C609 C608 1.415 . S
H610 C607 0.999 . S
H611 C592 0.913 . S
H612 C630 0.951 . S
H613 C632 0.951 . S
H614 C634 0.950 . S
H615 C635 0.950 . S
H616 C637 0.950 . S
H617 C640 0.950 . S
H618 C641 0.950 . S
H619 C643 0.950 . S
H620 C644 0.950 . S
H621 C645 0.951 . S
H622 C647 0.951 . S
H623 C649 0.950 . S
H624 C650 0.950 . S
H625 C652 0.950 . S
H626 C655 0.950 . S
H627 C656 0.950 . S
H628 C658 0.950 . S
H629 C659 0.950 . S
C630 H612 0.951 . S
C630 C631 1.366 . S
C630 C632 1.388 . S
C631 C630 1.366 . S
C631 C635 1.385 . S
C632 H613 0.951 . S
C632 C630 1.388 . S
C632 C633 1.366 . S
C633 C632 1.366 . S
C633 C634 1.414 . S
C633 C636 1.499 . S
C634 H614 0.950 . S
C634 C633 1.414 . S
C634 C635 1.374 . S
C635 H615 0.950 . S
C635 C631 1.385 . S
C635 C634 1.374 . S
C636 C633 1.499 . S
C636 C637 1.373 1_455 S
C636 C638 1.389 . S
C637 H616 0.950 . S
C637 C636 1.373 1_655 S
C637 C653 1.377 . S
C638 C636 1.389 . S
C638 C639 1.524 . S
C638 C652 1.377 . S
C639 C638 1.524 . S
C639 C640 1.397 . S
C639 C644 1.363 . S
C640 H617 0.950 . S
C640 C639 1.397 . S
C640 C641 1.334 . S
C641 H618 0.950 . S
C641 C640 1.334 . S
C641 C642 1.287 . S
C642 C641 1.287 . S
C642 C643 1.524 . S
C642 H661 0.913 . S
C643 H619 0.950 . S
C643 C642 1.524 . S
C643 C644 1.415 . S
C644 H620 0.950 . S
C644 C639 1.363 . S
C644 C643 1.415 . S
C645 H621 0.951 . S
C645 C646 1.366 . S
C645 C647 1.388 . S
C646 C645 1.366 . S
C646 C650 1.385 . S
C647 H622 0.951 . S
C647 C645 1.388 . S
C647 C648 1.366 . S
C648 C647 1.366 . S
C648 C649 1.414 . S
C648 C651 1.499 . S
C649 H623 0.950 . S
C649 C648 1.414 . S
C649 C650 1.374 . S
C650 H624 0.950 . S
C650 C646 1.385 . S
C650 C649 1.374 . S
C651 C648 1.499 . S
C651 C652 1.373 1_655 S
C651 C653 1.389 . S
C652 H625 0.950 . S
C652 C638 1.377 . S
C652 C651 1.373 1_455 S
C653 C637 1.377 . S
C653 C651 1.389 . S
C653 C654 1.524 . S
C654 C653 1.524 . S
C654 C655 1.397 . S
C654 C659 1.363 . S
C655 H626 0.950 . S
C655 C654 1.397 . S
C655 C656 1.334 . S
C656 H627 0.950 . S
C656 C655 1.334 . S
C656 C657 1.287 . S
C657 C656 1.287 . S
C657 C658 1.524 . S
C657 H660 0.999 . S
C658 H628 0.950 . S
C658 C657 1.524 . S
C658 C659 1.415 . S
C659 H629 0.950 . S
C659 C654 1.363 . S
C659 C658 1.415 . S
H660 C657 0.999 . S
H661 C642 0.913 . S
H662 C680 0.951 . S
H663 C682 0.951 . S
H664 C684 0.950 . S
H665 C685 0.950 . S
H666 C687 0.950 . S
H667 C690 0.950 . S
H668 C691 0.950 . S
H669 C693 0.950 . S
H670 C694 0.950 . S
H671 C695 0.951 . S
H672 C697 0.951 . S
H673 C699 0.950 . S
H674 C700 0.950 . S
H675 C702 0.950 . S
H676 C705 0.950 . S
H677 C706 0.950 . S
H678 C708 0.950 . S
H679 C709 0.950 . S
C680 H662 0.951 . S
C680 C681 1.366 . S
C680 C682 1.388 . S
C681 C680 1.366 . S
C681 C685 1.385 . S
C682 H663 0.951 . S
C682 C680 1.388 . S
C682 C683 1.366 . S
C683 C682 1.366 . S
C683 C684 1.414 . S
C683 C686 1.499 . S
C684 H664 0.950 . S
C684 C683 1.414 . S
C684 C685 1.374 . S
C685 H665 0.950 . S
C685 C681 1.385 . S
C685 C684 1.374 . S
C686 C683 1.499 . S
C686 C687 1.373 . S
C686 C688 1.389 . S
C687 H666 0.950 . S
C687 C686 1.373 . S
C687 C703 1.377 . S
C688 C686 1.389 . S
C688 C689 1.524 . S
C688 C702 1.377 . S
C689 C688 1.524 . S
C689 C690 1.397 . S
C689 C694 1.363 . S
C690 H667 0.950 . S
C690 C689 1.397 . S
C690 C691 1.334 . S
C691 H668 0.950 . S
C691 C690 1.334 . S
C691 C692 1.287 . S
C692 C691 1.287 . S
C692 C693 1.524 . S
C692 H711 0.913 . S
C693 H669 0.950 . S
C693 C692 1.524 . S
C693 C694 1.415 . S
C694 H670 0.950 . S
C694 C689 1.363 . S
C694 C693 1.415 . S
C695 H671 0.951 . S
C695 C696 1.366 . S
C695 C697 1.388 . S
C696 C695 1.366 . S
C696 C700 1.385 . S
C697 H672 0.951 . S
C697 C695 1.388 . S
C697 C698 1.366 . S
C698 C697 1.366 . S
C698 C699 1.414 . S
C698 C701 1.499 . S
C699 H673 0.950 . S
C699 C698 1.414 . S
C699 C700 1.374 . S
C700 H674 0.950 . S
C700 C696 1.385 . S
C700 C699 1.374 . S
C701 C698 1.499 . S
C701 C702 1.373 . S
C701 C703 1.389 . S
C702 H675 0.950 . S
C702 C688 1.377 . S
C702 C701 1.373 . S
C703 C687 1.377 . S
C703 C701 1.389 . S
C703 C704 1.524 . S
C704 C703 1.524 . S
C704 C705 1.397 . S
C704 C709 1.363 . S
C705 H676 0.950 . S
C705 C704 1.397 . S
C705 C706 1.334 . S
C706 H677 0.950 . S
C706 C705 1.334 . S
C706 C707 1.287 . S
C707 C706 1.287 . S
C707 C708 1.524 . S
C707 H710 0.999 . S
C708 H678 0.950 . S
C708 C707 1.524 . S
C708 C709 1.415 . S
C709 H679 0.950 . S
C709 C704 1.363 . S
C709 C708 1.415 . S
H710 C707 0.999 . S
H711 C692 0.913 . S
H712 C730 0.951 . S
H713 C732 0.951 . S
H714 C734 0.950 . S
H715 C735 0.950 . S
H716 C737 0.950 . S
H717 C740 0.955 . S
H718 C741 0.950 . S
H719 C743 0.950 . S
H720 C744 0.950 . S
H721 C745 0.951 . S
H722 C747 0.951 . S
H723 C749 0.950 . S
H724 C750 0.950 . S
H725 C752 0.950 . S
H726 C755 0.955 . S
H727 C756 0.950 . S
H728 C758 0.950 . S
H729 C759 0.950 . S
C730 H712 0.951 . S
C730 C731 1.366 1_556 S
C730 C732 1.388 . S
C731 C730 1.366 1_554 S
C731 C735 1.385 . S
C732 H713 0.951 . S
C732 C730 1.388 . S
C732 C733 1.366 1_556 S
C733 C732 1.366 1_554 S
C733 C734 1.414 . S
C733 C736 1.499 . S
C734 H714 0.950 . S
C734 C733 1.414 . S
C734 C735 1.374 . S
C735 H715 0.950 . S
C735 C731 1.385 . S
C735 C734 1.374 . S
C736 C733 1.499 . S
C736 C737 1.373 1_545 S
C736 C738 1.375 1_454 S
C737 H716 0.950 . S
C737 C736 1.373 1_565 S
C737 C753 1.391 . S
C738 C736 1.375 1_656 S
C738 C739 1.527 . S
C738 C752 1.391 . S
C739 C738 1.527 . S
C739 C740 1.397 . S
C739 C744 1.363 . S
C740 H717 0.955 . S
C740 C739 1.397 . S
C740 C741 1.334 . S
C741 H718 0.950 . S
C741 C740 1.334 . S
C741 C742 1.287 . S
C742 C741 1.287 . S
C742 C743 1.524 . S
C742 H761 0.913 . S
C743 H719 0.950 . S
C743 C742 1.524 . S
C743 C744 1.415 . S
C744 H720 0.950 . S
C744 C739 1.363 . S
C744 C743 1.415 . S
C745 H721 0.951 . S
C745 C746 1.366 1_554 S
C745 C747 1.388 . S
C746 C745 1.366 1_556 S
C746 C750 1.385 . S
C747 H722 0.951 . S
C747 C745 1.388 . S
C747 C748 1.366 1_554 S
C748 C747 1.366 1_556 S
C748 C749 1.414 . S
C748 C751 1.499 . S
C749 H723 0.950 . S
C749 C748 1.414 . S
C749 C750 1.374 . S
C750 H724 0.950 . S
C750 C746 1.385 . S
C750 C749 1.374 . S
C751 C748 1.499 . S
C751 C752 1.373 1_565 S
C751 C753 1.375 1_656 S
C752 H725 0.950 . S
C752 C738 1.391 . S
C752 C751 1.373 1_545 S
C753 C737 1.391 . S
C753 C751 1.375 1_454 S
C753 C754 1.527 . S
C754 C753 1.527 . S
C754 C755 1.397 . S
C754 C759 1.363 . S
C755 H726 0.955 . S
C755 C754 1.397 . S
C755 C756 1.334 . S
C756 H727 0.950 . S
C756 C755 1.334 . S
C756 C757 1.287 . S
C757 C756 1.287 . S
C757 C758 1.524 . S
C757 H760 0.999 . S
C758 H728 0.950 . S
C758 C757 1.524 . S
C758 C759 1.415 . S
C759 H729 0.950 . S
C759 C754 1.363 . S
C759 C758 1.415 . S
H760 C757 0.999 . S
H761 C742 0.913 . S
H762 C780 0.951 . S
H763 C782 0.951 . S
H764 C784 0.950 . S
H765 C785 0.950 . S
H766 C787 0.950 . S
H767 C790 0.950 . S
H768 C791 0.950 . S
H769 C793 0.950 . S
H770 C794 0.950 . S
H771 C795 0.951 . S
H772 C797 0.951 . S
H773 C799 0.950 . S
H774 C800 0.950 . S
H775 C802 0.950 . S
H776 C805 0.950 . S
H777 C806 0.950 . S
H778 C808 0.950 . S
H779 C809 0.950 . S
C780 H762 0.951 . S
C780 C781 1.366 . S
C780 C782 1.388 . S
C781 C780 1.366 . S
C781 C785 1.385 . S
C782 H763 0.951 . S
C782 C780 1.388 . S
C782 C783 1.366 . S
C783 C782 1.366 . S
C783 C784 1.414 . S
C783 C786 1.499 . S
C784 H764 0.950 . S
C784 C783 1.414 . S
C784 C785 1.374 . S
C785 H765 0.950 . S
C785 C781 1.385 . S
C785 C784 1.374 . S
C786 C783 1.499 . S
C786 C787 1.373 . S
C786 C788 1.389 . S
C787 H766 0.950 . S
C787 C786 1.373 . S
C787 C803 1.377 . S
C788 C786 1.389 . S
C788 C789 1.524 . S
C788 C802 1.377 . S
C789 C788 1.524 . S
C789 C790 1.397 . S
C789 C794 1.363 . S
C790 H767 0.950 . S
C790 C789 1.397 . S
C790 C791 1.334 . S
C791 H768 0.950 . S
C791 C790 1.334 . S
C791 C792 1.287 . S
C792 C791 1.287 . S
C792 C793 1.524 . S
C792 H811 0.913 . S
C793 H769 0.950 . S
C793 C792 1.524 . S
C793 C794 1.415 . S
C794 H770 0.950 . S
C794 C789 1.363 . S
C794 C793 1.415 . S
C795 H771 0.951 . S
C795 C796 1.366 . S
C795 C797 1.388 . S
C796 C795 1.366 . S
C796 C800 1.385 . S
C797 H772 0.951 . S
C797 C795 1.388 . S
C797 C798 1.366 . S
C798 C797 1.366 . S
C798 C799 1.414 . S
C798 C801 1.499 . S
C799 H773 0.950 . S
C799 C798 1.414 . S
C799 C800 1.374 . S
C800 H774 0.950 . S
C800 C796 1.385 . S
C800 C799 1.374 . S
C801 C798 1.499 . S
C801 C802 1.373 . S
C801 C803 1.389 . S
C802 H775 0.950 . S
C802 C788 1.377 . S
C802 C801 1.373 . S
C803 C787 1.377 . S
C803 C801 1.389 . S
C803 C804 1.524 . S
C804 C803 1.524 . S
C804 C805 1.397 . S
C804 C809 1.363 . S
C805 H776 0.950 . S
C805 C804 1.397 . S
C805 C806 1.334 . S
C806 H777 0.950 . S
C806 C805 1.334 . S
C806 C807 1.287 . S
C807 C806 1.287 . S
C807 C808 1.524 . S
C807 H810 0.999 . S
C808 H778 0.950 . S
C808 C807 1.524 . S
C808 C809 1.415 . S
C809 H779 0.950 . S
C809 C804 1.363 . S
C809 C808 1.415 . S
H810 C807 0.999 . S
H811 C792 0.913 . S
H812 C830 0.951 . S
H813 C832 0.951 . S
H814 C834 0.950 . S
H815 C835 0.950 . S
H816 C837 0.950 . S
H817 C840 0.950 . S
H818 C841 0.950 . S
H819 C843 0.950 . S
H820 C844 0.950 . S
H821 C845 0.951 . S
H822 C847 0.951 . S
H823 C849 0.950 . S
H824 C850 0.950 . S
H825 C852 0.950 . S
H826 C855 0.950 . S
H827 C856 0.950 . S
H828 C858 0.950 . S
H829 C859 0.950 . S
C830 H812 0.951 . S
C830 C831 1.366 . S
C830 C832 1.388 . S
C831 C830 1.366 . S
C831 C835 1.385 . S
C832 H813 0.951 . S
C832 C830 1.388 . S
C832 C833 1.366 . S
C833 C832 1.366 . S
C833 C834 1.414 . S
C833 C836 1.499 . S
C834 H814 0.950 . S
C834 C833 1.414 . S
C834 C835 1.374 . S
C835 H815 0.950 . S
C835 C831 1.385 . S
C835 C834 1.374 . S
C836 C833 1.499 . S
C836 C837 1.373 1_554 S
C836 C838 1.389 . S
C837 H816 0.950 . S
C837 C836 1.373 1_556 S
C837 C853 1.377 . S
C838 C836 1.389 . S
C838 C839 1.524 . S
C838 C852 1.377 . S
C839 C838 1.524 . S
C839 C840 1.397 . S
C839 C844 1.363 . S
C840 H817 0.950 . S
C840 C839 1.397 . S
C840 C841 1.334 . S
C841 H818 0.950 . S
C841 C840 1.334 . S
C841 C842 1.287 . S
C842 C841 1.287 . S
C842 C843 1.524 . S
C842 H861 0.913 . S
C843 H819 0.950 . S
C843 C842 1.524 . S
C843 C844 1.415 . S
C844 H820 0.950 . S
C844 C839 1.363 . S
C844 C843 1.415 . S
C845 H821 0.951 . S
C845 C846 1.366 . S
C845 C847 1.388 . S
C846 C845 1.366 . S
C846 C850 1.385 . S
C847 H822 0.951 . S
C847 C845 1.388 . S
C847 C848 1.366 . S
C848 C847 1.366 . S
C848 C849 1.414 . S
C848 C851 1.499 . S
C849 H823 0.950 . S
C849 C848 1.414 . S
C849 C850 1.374 . S
C850 H824 0.950 . S
C850 C846 1.385 . S
C850 C849 1.374 . S
C851 C848 1.499 . S
C851 C852 1.373 1_556 S
C851 C853 1.389 . S
C852 H825 0.950 . S
C852 C838 1.377 . S
C852 C851 1.373 1_554 S
C853 C837 1.377 . S
C853 C851 1.389 . S
C853 C854 1.524 . S
C854 C853 1.524 . S
C854 C855 1.397 . S
C854 C859 1.363 . S
C855 H826 0.950 . S
C855 C854 1.397 . S
C855 C856 1.334 . S
C856 H827 0.950 . S
C856 C855 1.334 . S
C856 C857 1.287 . S
C857 C856 1.287 . S
C857 C858 1.524 . S
C857 H860 0.999 . S
C858 H828 0.950 . S
C858 C857 1.524 . S
C858 C859 1.415 . S
C859 H829 0.950 . S
C859 C854 1.363 . S
C859 C858 1.415 . S
H860 C857 0.999 . S
H861 C842 0.913 . S
H862 C880 0.951 . S
H863 C882 0.951 . S
H864 C884 0.950 . S
H865 C885 0.950 . S
H866 C887 0.950 . S
H867 C890 0.950 . S
H868 C891 0.950 . S
H869 C893 0.950 . S
H870 C894 0.950 . S
H871 C895 0.951 . S
H872 C897 0.951 . S
H873 C899 0.950 . S
H874 C900 0.950 . S
H875 C902 0.950 . S
H876 C905 0.950 . S
H877 C906 0.950 . S
H878 C908 0.950 . S
H879 C909 0.950 . S
C880 H862 0.951 . S
C880 C881 1.366 . S
C880 C882 1.388 . S
C881 C880 1.366 . S
C881 C885 1.385 . S
C882 H863 0.951 . S
C882 C880 1.388 . S
C882 C883 1.366 . S
C883 C882 1.366 . S
C883 C884 1.414 . S
C883 C886 1.499 . S
C884 H864 0.950 . S
C884 C883 1.414 . S
C884 C885 1.374 . S
C885 H865 0.950 . S
C885 C881 1.385 . S
C885 C884 1.374 . S
C886 C883 1.499 . S
C886 C887 1.373 1_565 S
C886 C888 1.389 1_455 S
C887 H866 0.950 . S
C887 C886 1.373 1_545 S
C887 C903 1.377 . S
C888 C886 1.389 1_655 S
C888 C889 1.524 . S
C888 C902 1.377 . S
C889 C888 1.524 . S
C889 C890 1.397 1_655 S
C889 C894 1.363 . S
C890 H867 0.950 . S
C890 C889 1.397 1_455 S
C890 C891 1.334 . S
C891 H868 0.950 . S
C891 C890 1.334 . S
C891 C892 1.287 1_455 S
C892 C891 1.287 1_655 S
C892 C893 1.524 . S
C892 H911 0.913 . S
C893 H869 0.950 . S
C893 C892 1.524 . S
C893 C894 1.415 . S
C894 H870 0.950 . S
C894 C889 1.363 . S
C894 C893 1.415 . S
C895 H871 0.951 . S
C895 C896 1.366 . S
C895 C897 1.388 . S
C896 C895 1.366 . S
C896 C900 1.385 . S
C897 H872 0.951 . S
C897 C895 1.388 . S
C897 C898 1.366 . S
C898 C897 1.366 . S
C898 C899 1.414 . S
C898 C901 1.499 . S
C899 H873 0.950 . S
C899 C898 1.414 . S
C899 C900 1.374 . S
C900 H874 0.950 . S
C900 C896 1.385 . S
C900 C899 1.374 . S
C901 C898 1.499 . S
C901 C902 1.373 1_545 S
C901 C903 1.389 1_655 S
C902 H875 0.950 . S
C902 C888 1.377 . S
C902 C901 1.373 1_565 S
C903 C887 1.377 . S
C903 C901 1.389 1_455 S
C903 C904 1.524 . S
C904 C903 1.524 . S
C904 C905 1.397 1_455 S
C904 C909 1.363 . S
C905 H876 0.950 . S
C905 C904 1.397 1_655 S
C905 C906 1.334 . S
C906 H877 0.950 . S
C906 C905 1.334 . S
C906 C907 1.287 1_655 S
C907 C906 1.287 1_455 S
C907 C908 1.524 . S
C907 H910 0.999 . S
C908 H878 0.950 . S
C908 C907 1.524 . S
C908 C909 1.415 . S
C909 H879 0.950 . S
C909 C904 1.363 . S
C909 C908 1.415 . S
H910 C907 0.999 . S
H911 C892 0.913 . S
C131 C23 1.660 . S
C146 C11 1.644 1_556 S
C181 C9 1.660 . S
C196 C25 1.647 . S
C231 C51 1.660 . S
C246 C39 1.645 1_554 S
C281 C37 1.660 . S
C296 C53 1.647 . S
C331 C67 1.644 1_554 S
C346 C79 1.660 . S
C381 C81 1.647 . S
C396 C65 1.660 . S
C431 C95 1.644 1_556 S
C446 C107 1.660 . S
C481 C93 1.660 . S
C496 C109 1.647 . S
C531 C5 0.398 . S
C546 C47 0.399 . S
C581 C19 0.397 . S
C596 C33 0.401 . S
C631 C103 0.399 . S
C646 C61 0.401 . S
C681 C89 0.398 . S
C696 C75 0.402 . S
C731 C0 1.533 . S
C746 C56 1.533 . S
C781 C70 1.533 . S
C796 C14 1.533 . S
C831 C84 1.533 . S
C846 C28 1.533 . S
C881 C98 1.533 . S
C896 C42 1.533 . S
