# Generated by pormake.
# Topology npo, (4)-cn, num edge types: 1
# Building blocks:
#     Node 0, Type 0, BuildingBlock: KUFVIS_clean_sbu_0, # of connection points: 4
#     Node 1, Type 0, BuildingBlock: KUFVIS_clean_sbu_0, # of connection points: 4
#     Node 2, Type 0, BuildingBlock: KUFVIS_clean_sbu_0, # of connection points: 4
#     Node 3, Type 0, BuildingBlock: KUFVIS_clean_sbu_0, # of connection points: 4
#     Node 4, Type 0, BuildingBlock: KUFVIS_clean_sbu_0, # of connection points: 4
#     Node 5, Type 0, BuildingBlock: KUFVIS_clean_sbu_0, # of connection points: 4
#     Edge 6, Type (0, 0), BuildingBlock: CIFDUS_clean_linker_0, # of connection points: 2
#     Edge 7, Type (0, 0), BuildingBlock: CIFDUS_clean_linker_0, # of connection points: 2
#     Edge 8, Type (0, 0), BuildingBlock: CIFDUS_clean_linker_0, # of connection points: 2
#     Edge 9, Type (0, 0), BuildingBlock: CIFDUS_clean_linker_0, # of connection points: 2
#     Edge 10, Type (0, 0), BuildingBlock: CIFDUS_clean_linker_0, # of connection points: 2
#     Edge 11, Type (0, 0), BuildingBlock: CIFDUS_clean_linker_0, # of connection points: 2
#     Edge 12, Type (0, 0), BuildingBlock: CIFDUS_clean_linker_0, # of connection points: 2
#     Edge 13, Type (0, 0), BuildingBlock: CIFDUS_clean_linker_0, # of connection points: 2
#     Edge 14, Type (0, 0), BuildingBlock: CIFDUS_clean_linker_0, # of connection points: 2
#     Edge 15, Type (0, 0), BuildingBlock: CIFDUS_clean_linker_0, # of connection points: 2
#     Edge 16, Type (0, 0), BuildingBlock: CIFDUS_clean_linker_0, # of connection points: 2
#     Edge 17, Type (0, 0), BuildingBlock: CIFDUS_clean_linker_0, # of connection points: 2
# Relax obj value: 0.273
# Max RMSD: 0.239
# Mean RMSD: 0.233
data_MOF--net-npo--node1-KUFVIS_clean_sbu_0--edge1-CIFDUS_clean_linker_0
_symmetry_space_group_name_H-M    P1
_symmetry_Int_Tables_number       1
_symmetry_cell_setting            triclinic
loop_
_symmetry_equiv_pos_as_xyz
'x, y, z'
_cell_length_a     37.177801
_cell_length_b     39.818245
_cell_length_c     20.929566
_cell_angle_alpha  90.087421
_cell_angle_beta   91.40124
_cell_angle_gamma 122.6061
loop_
_atom_site_label
_atom_site_type_symbol
_atom_site_fract_x
_atom_site_fract_y
_atom_site_fract_z
_atom_type_partial_charge
Mn0 Mn 0.56772 0.13184 0.27885 0.0
Mn1 Mn 0.62604 0.09061 0.26576 0.0
C2 C 0.64105 0.1696 0.29977 0.0
C3 C 0.53801 0.16734 0.24365 0.0
C4 C 0.56685 0.07354 0.37478 0.0
O5 O 0.52972 0.08368 0.21968 0.0
O6 O 0.57337 0.06079 0.21082 0.0
C7 C 0.64971 0.10661 0.12992 0.0
N8 N 0.66143 0.11065 0.19303 0.0
C9 C 0.73589 0.14536 0.16818 0.0
C10 C 0.72462 0.14161 0.10294 0.0
C11 C 0.68135 0.12229 0.08377 0.0
C12 C 0.70301 0.12956 0.212 0.0
H13 H 0.61649 0.09153 0.1149 0.0
C14 C 0.53923 0.05996 0.1954 0.0
O15 O 0.52267 0.14322 0.29114 0.0
O16 O 0.56914 0.16909 0.2135 0.0
N17 N 0.67819 0.11816 0.31563 0.0
C18 C 0.6838 0.12091 0.38046 0.0
C19 C 0.72523 0.13939 0.40752 0.0
C20 C 0.76037 0.15458 0.36771 0.0
C21 C 0.75385 0.15201 0.30114 0.0
C22 C 0.71184 0.13333 0.27691 0.0
H23 H 0.65689 0.10874 0.41137 0.0
O24 O 0.61616 0.17859 0.32678 0.0
O25 O 0.62188 0.13763 0.26407 0.0
O26 O 0.55545 0.09673 0.35571 0.0
O27 O 0.59219 0.06782 0.34374 0.0
C28 C 0.78734 0.16689 0.2579 0.0
C29 C 0.77844 0.16405 0.19147 0.0
H30 H 0.7489 0.15346 0.06717 0.0
H31 H 0.67239 0.11929 0.03351 0.0
H32 H 0.73002 0.14146 0.45894 0.0
H33 H 0.79215 0.16799 0.38887 0.0
H34 H 0.82007 0.18072 0.27529 0.0
H35 H 0.80455 0.1762 0.15873 0.0
Mn36 Mn 0.42159 0.55816 0.71711 0.0
Mn37 Mn 0.36406 0.4582 0.72966 0.0
C38 C 0.34772 0.52193 0.7012 0.0
C39 C 0.45234 0.6238 0.75231 0.0
C40 C 0.42154 0.50109 0.61916 0.0
O41 O 0.46082 0.54829 0.77336 0.0
O42 O 0.41725 0.48147 0.78313 0.0
C43 C 0.34179 0.44884 0.86628 0.0
N44 N 0.32942 0.44183 0.80332 0.0
C45 C 0.25527 0.40121 0.82972 0.0
C46 C 0.26721 0.40811 0.89481 0.0
C47 C 0.31065 0.43214 0.91314 0.0
C48 C 0.28769 0.41895 0.78519 0.0
H49 H 0.37513 0.46707 0.88065 0.0
C50 C 0.45155 0.51509 0.79772 0.0
O51 O 0.46634 0.61469 0.70352 0.0
O52 O 0.42194 0.59446 0.78382 0.0
N53 N 0.31142 0.43354 0.68106 0.0
C54 C 0.30513 0.43154 0.61639 0.0
C55 C 0.26342 0.40894 0.59016 0.0
C56 C 0.22868 0.38843 0.63062 0.0
C57 C 0.23592 0.3914 0.69705 0.0
C58 C 0.27818 0.4145 0.72045 0.0
H59 H 0.33172 0.4468 0.58496 0.0
O60 O 0.37168 0.55581 0.67322 0.0
O61 O 0.3681 0.50937 0.73397 0.0
O62 O 0.43228 0.53555 0.63835 0.0
O63 O 0.39719 0.46985 0.65073 0.0
C64 C 0.20291 0.37214 0.74095 0.0
C65 C 0.2125 0.3774 0.80726 0.0
H66 H 0.2433 0.39514 0.93111 0.0
H67 H 0.32012 0.43761 0.96328 0.0
H68 H 0.25807 0.40696 0.53885 0.0
H69 H 0.19663 0.3705 0.61006 0.0
H70 H 0.17 0.35329 0.72416 0.0
H71 H 0.18674 0.36294 0.84054 0.0
Mn72 Mn 0.87278 0.45504 0.26827 0.0
Mn73 Mn 0.92803 0.41441 0.31713 0.0
C74 C 0.8415 0.38651 0.26579 0.0
C75 C 0.82657 0.47666 0.28062 0.0
C76 C 0.94251 0.45632 0.19153 0.0
O77 O 0.91949 0.49908 0.32548 0.0
O78 O 0.95468 0.4692 0.35448 0.0
C79 C 0.91141 0.40843 0.45581 0.0
N80 N 0.90854 0.39056 0.39869 0.0
C81 C 0.87294 0.32581 0.44647 0.0
C82 C 0.87554 0.34355 0.50575 0.0
C83 C 0.89491 0.38505 0.51042 0.0
C84 C 0.89036 0.35068 0.39382 0.0
H85 H 0.92615 0.44025 0.45978 0.0
C86 C 0.94913 0.49837 0.35639 0.0
O87 O 0.85374 0.4896 0.23518 0.0
O88 O 0.82774 0.45265 0.32143 0.0
N89 N 0.90373 0.36114 0.28531 0.0
C90 C 0.90111 0.34836 0.22396 0.0
C91 C 0.88161 0.30751 0.21075 0.0
C92 C 0.86487 0.28023 0.2607 0.0
C93 C 0.86767 0.29401 0.32343 0.0
C94 C 0.88786 0.33512 0.3338 0.0
H95 H 0.91328 0.3691 0.18532 0.0
O96 O 0.8282 0.40303 0.22643 0.0
O97 O 0.87378 0.41075 0.30289 0.0
O98 O 0.91523 0.46561 0.19974 0.0
O99 O 0.95011 0.43682 0.2319 0.0
C100 C 0.85049 0.26851 0.37583 0.0
C101 C 0.85307 0.28435 0.43732 0.0
H102 H 0.86254 0.32558 0.54788 0.0
H103 H 0.897 0.39899 0.55598 0.0
H104 H 0.87918 0.29703 0.16213 0.0
H105 H 0.8496 0.2488 0.25009 0.0
H106 H 0.83489 0.23667 0.36917 0.0
H107 H 0.83927 0.26434 0.47709 0.0
Mn108 Mn 0.45686 0.87384 0.77341 0.0
Mn109 Mn 0.39857 0.91508 0.75418 0.0
C110 C 0.38434 0.83755 0.79035 0.0
C111 C 0.48305 0.83536 0.74151 0.0
C112 C 0.45795 0.93305 0.86861 0.0
O113 O 0.4945 0.9208 0.71568 0.0
O114 O 0.4522 0.94539 0.70594 0.0
C115 C 0.37769 0.89845 0.61558 0.0
N116 N 0.36461 0.89409 0.67695 0.0
C117 C 0.29084 0.85193 0.64256 0.0
C118 C 0.30356 0.85616 0.57904 0.0
C119 C 0.34717 0.87955 0.56551 0.0
C120 C 0.32267 0.87182 0.69045 0.0
H121 H 0.41116 0.91604 0.60482 0.0
C122 C 0.48576 0.94544 0.69231 0.0
O123 O 0.50059 0.86048 0.78913 0.0
O124 O 0.45271 0.83505 0.70891 0.0
N125 N 0.34544 0.88668 0.79716 0.0
C126 C 0.33853 0.88403 0.86113 0.0
C127 C 0.29657 0.86109 0.8827 0.0
C128 C 0.26218 0.84104 0.83837 0.0
C129 C 0.27006 0.84431 0.77279 0.0
C130 C 0.31251 0.86804 0.75405 0.0
H131 H 0.36483 0.89901 0.89551 0.0
O132 O 0.40892 0.82828 0.81955 0.0
O133 O 0.40328 0.86864 0.75476 0.0
O134 O 0.47051 0.91079 0.84965 0.0
O135 O 0.43127 0.9376 0.83643 0.0
C136 C 0.2375 0.82431 0.72536 0.0
C137 C 0.24788 0.82813 0.6603 0.0
H138 H 0.28014 0.84134 0.54031 0.0
H139 H 0.35725 0.8828 0.51662 0.0
H140 H 0.29076 0.85859 0.9334 0.0
H141 H 0.2299 0.82295 0.85523 0.0
H142 H 0.20441 0.80559 0.73844 0.0
H143 H 0.22261 0.81229 0.62432 0.0
Mn144 Mn 0.53667 0.41557 0.21998 0.0
Mn145 Mn 0.59353 0.51554 0.23909 0.0
C146 C 0.60816 0.45333 0.19662 0.0
C147 C 0.51252 0.35122 0.25219 0.0
C148 C 0.53218 0.4728 0.12701 0.0
O149 O 0.49994 0.42374 0.28109 0.0
O150 O 0.54061 0.49096 0.28951 0.0
C151 C 0.61673 0.51951 0.37666 0.0
N152 N 0.62877 0.52907 0.31499 0.0
C153 C 0.70314 0.56254 0.34664 0.0
C154 C 0.6915 0.55321 0.41044 0.0
C155 C 0.6481 0.53163 0.42549 0.0
C156 C 0.67048 0.55002 0.30004 0.0
H157 H 0.58344 0.50257 0.38857 0.0
C158 C 0.50797 0.45694 0.30437 0.0
O159 O 0.49332 0.35787 0.20605 0.0
O160 O 0.54369 0.38194 0.28283 0.0
N161 N 0.64598 0.542 0.19426 0.0
C162 C 0.65189 0.54712 0.13014 0.0
C163 C 0.69353 0.56768 0.1071 0.0
C164 C 0.72865 0.5827 0.15014 0.0
C165 C 0.7218 0.57727 0.21591 0.0
C166 C 0.6796 0.55707 0.23618 0.0
H167 H 0.62504 0.5353 0.09673 0.0
O168 O 0.58314 0.41881 0.16907 0.0
O169 O 0.59034 0.465 0.23564 0.0
O170 O 0.52016 0.43803 0.14603 0.0
O171 O 0.55943 0.5045 0.1582 0.0
C172 C 0.75517 0.59049 0.26205 0.0
C173 C 0.74584 0.58309 0.32735 0.0
H174 H 0.71558 0.56218 0.44819 0.0
H175 H 0.63885 0.52414 0.47459 0.0
H176 H 0.69855 0.57166 0.05625 0.0
H177 H 0.7607 0.5981 0.13211 0.0
H178 H 0.7881 0.60601 0.24777 0.0
H179 H 0.77175 0.59301 0.3623 0.0
Mn180 Mn 0.11409 0.56802 0.77904 0.0
Mn181 Mn 0.0594 0.47486 0.71578 0.0
C182 C 0.1463 0.53209 0.76898 0.0
C183 C 0.15935 0.63688 0.77837 0.0
C184 C 0.04433 0.49481 0.84777 0.0
O185 O 0.06668 0.56733 0.72667 0.0
O186 O 0.03352 0.50465 0.68466 0.0
C187 C 0.07718 0.49161 0.57825 0.0
N188 N 0.0797 0.47433 0.63287 0.0
C189 C 0.11524 0.44722 0.57889 0.0
C190 C 0.11312 0.46484 0.52216 0.0
C191 C 0.09394 0.48708 0.52184 0.0
C192 C 0.09759 0.45242 0.63348 0.0
H193 H 0.06247 0.50867 0.57765 0.0
C194 C 0.03827 0.53895 0.69052 0.0
O195 O 0.13185 0.61886 0.82257 0.0
O196 O 0.15886 0.61502 0.73164 0.0
N197 N 0.08341 0.44481 0.74198 0.0
C198 C 0.08555 0.43212 0.80156 0.0
C199 C 0.10484 0.41033 0.81049 0.0
C200 C 0.12183 0.40195 0.7582 0.0
C201 C 0.11956 0.41558 0.69741 0.0
C202 C 0.09961 0.43685 0.69128 0.0
H203 H 0.073 0.43884 0.84213 0.0
O204 O 0.15943 0.55948 0.81329 0.0
O205 O 0.11358 0.52538 0.73451 0.0
O206 O 0.07273 0.53163 0.84514 0.0
O207 O 0.03587 0.4705 0.80163 0.0
C208 C 0.137 0.40953 0.64294 0.0
C209 C 0.13487 0.42532 0.58372 0.0
H210 H 0.12633 0.46168 0.47867 0.0
H211 H 0.09216 0.50077 0.47826 0.0
H212 H 0.10682 0.40019 0.85762 0.0
H213 H 0.13678 0.38531 0.76556 0.0
H214 H 0.15242 0.39307 0.64624 0.0
H215 H 0.14886 0.42083 0.54236 0.0
H216 H 0.51449 0.20053 0.33157 0.0
H217 H 0.53498 0.19959 0.12991 0.0
H218 H 0.52143 0.25292 0.11387 0.0
H219 H 0.51116 0.30417 0.15933 0.0
H220 H 0.50248 0.31178 0.36311 0.0
H221 H 0.50337 0.25104 0.37673 0.0
C222 C 0.51514 0.2115 0.28391 0.0
C223 C 0.52522 0.19601 0.23175 0.0
C224 C 0.50958 0.2434 0.27583 0.0
C225 C 0.52709 0.21105 0.17055 0.0
C226 C 0.51943 0.24152 0.16151 0.0
C227 C 0.50837 0.2918 0.20646 0.0
C228 C 0.50586 0.31162 0.26017 0.0
C229 C 0.51159 0.25848 0.21404 0.0
C230 C 0.5038 0.29647 0.32127 0.0
C231 C 0.50459 0.262 0.32895 0.0
H232 H 0.28754 0.52284 0.62626 0.0
H233 H 0.31279 0.49956 0.81762 0.0
H234 H 0.24847 0.49432 0.85424 0.0
H235 H 0.19125 0.50724 0.83586 0.0
H236 H 0.17006 0.53707 0.64687 0.0
H237 H 0.22599 0.52926 0.60559 0.0
C238 C 0.27814 0.5155 0.67547 0.0
C239 C 0.30417 0.51023 0.71854 0.0
C240 C 0.24214 0.51469 0.6971 0.0
C241 C 0.2923 0.50178 0.78266 0.0
C242 C 0.25591 0.49968 0.80409 0.0
C243 C 0.19851 0.51126 0.78552 0.0
C244 C 0.17617 0.52195 0.74423 0.0
C245 C 0.23149 0.50761 0.76234 0.0
C246 C 0.18621 0.52783 0.67924 0.0
C247 C 0.21843 0.52369 0.65567 0.0
H248 H 0.69847 0.22596 0.38402 0.0
H249 H 0.68085 0.1881 0.18666 0.0
H250 H 0.74553 0.25055 0.15918 0.0
H251 H 0.80007 0.32064 0.18803 0.0
H252 H 0.8153 0.35973 0.38441 0.0
H253 H 0.75902 0.29289 0.41545 0.0
C254 C 0.70967 0.23104 0.33548 0.0
C255 C 0.68543 0.20213 0.28781 0.0
C256 C 0.74603 0.26787 0.31948 0.0
C257 C 0.69974 0.20922 0.22476 0.0
C258 C 0.73634 0.24537 0.20869 0.0
C259 C 0.79146 0.31411 0.23767 0.0
C260 C 0.81194 0.34473 0.28397 0.0
C261 C 0.75866 0.27559 0.25511 0.0
C262 C 0.80037 0.33631 0.34813 0.0
C263 C 0.76803 0.29817 0.36588 0.0
H264 H 0.48167 0.78902 0.83521 0.0
H265 H 0.49531 0.80619 0.63197 0.0
H266 H 0.49314 0.74384 0.61955 0.0
H267 H 0.47919 0.68136 0.66503 0.0
H268 H 0.45399 0.6592 0.86562 0.0
H269 H 0.46898 0.72674 0.88119 0.0
C270 C 0.48532 0.7795 0.78851 0.0
C271 C 0.48955 0.80227 0.7346 0.0
C272 C 0.48132 0.74255 0.78148 0.0
C273 C 0.49268 0.78924 0.674 0.0
C274 C 0.49114 0.75356 0.66699 0.0
C275 C 0.47779 0.6916 0.71242 0.0
C276 C 0.4659 0.6656 0.76434 0.0
C277 C 0.4843 0.7295 0.72016 0.0
C278 C 0.46321 0.67882 0.82513 0.0
C279 C 0.4717 0.71733 0.83391 0.0
H280 H 0.65323 0.46549 0.30512 0.0
H281 H 0.66378 0.47328 0.10048 0.0
H282 H 0.73735 0.48934 0.1106 0.0
H283 H 0.794 0.49181 0.17665 0.0
H284 H 0.77916 0.47464 0.38002 0.0
H285 H 0.71223 0.4728 0.37214 0.0
C286 C 0.6722 0.47175 0.263 0.0
C287 C 0.65394 0.46909 0.20221 0.0
C288 C 0.71341 0.47905 0.26923 0.0
C289 C 0.6778 0.47577 0.14762 0.0
C290 C 0.71963 0.48482 0.15351 0.0
C291 C 0.77662 0.48861 0.21948 0.0
C292 C 0.79125 0.48328 0.27885 0.0
C293 C 0.73719 0.48526 0.21393 0.0
C294 C 0.76827 0.47864 0.33385 0.0
C295 C 0.73001 0.47738 0.32926 0.0
H296 H 0.32198 0.79673 0.87539 0.0
H297 H 0.34802 0.8075 0.67454 0.0
H298 H 0.27762 0.74791 0.65059 0.0
H299 H 0.2125 0.68811 0.68896 0.0
H300 H 0.18466 0.6798 0.88937 0.0
H301 H 0.25113 0.74345 0.9111 0.0
C302 C 0.31166 0.7863 0.82644 0.0
C303 C 0.33965 0.80607 0.77679 0.0
C304 C 0.27094 0.75243 0.81295 0.0
C305 C 0.32649 0.79261 0.71337 0.0
C306 C 0.28641 0.75853 0.69968 0.0
C307 C 0.22063 0.7007 0.73707 0.0
C308 C 0.19422 0.67898 0.78754 0.0
C309 C 0.25886 0.7375 0.74935 0.0
C310 C 0.20466 0.69584 0.84961 0.0
C311 C 0.24284 0.73213 0.86229 0.0
H312 H 0.43618 0.97902 0.93604 0.0
H313 H 0.51716 0.93179 0.94556 0.0
H314 H 0.54474 0.96269 0.04982 0.0
H315 H 0.54895 0.00501 0.13618 0.0
H316 H 0.472 0.05623 0.1286 0.0
H317 H 0.43908 0.02093 0.02692 0.0
C318 C 0.45991 0.97558 0.96087 0.0
C319 C 0.47461 0.95318 0.93216 0.0
C320 C 0.47614 0.99375 0.02166 0.0
C321 C 0.50517 0.94886 0.96569 0.0
C322 C 0.52101 0.96646 0.02574 0.0
C323 C 0.52465 0.00832 0.11298 0.0
C324 C 0.51325 0.03353 0.14027 0.0
C325 C 0.507 0.98913 0.05391 0.0
C326 C 0.48141 0.03696 0.1091 0.0
C327 C 0.46284 0.01706 0.05053 0.0
H328 H 0.51329 0.52102 0.36012 0.0
H329 H 0.4444 0.39265 0.36918 0.0
H330 H 0.41039 0.39453 0.46673 0.0
H331 H 0.40427 0.43343 0.55393 0.0
H332 H 0.47617 0.56204 0.54319 0.0
H333 H 0.50505 0.55894 0.44247 0.0
C334 C 0.49051 0.49324 0.38276 0.0
C335 C 0.48172 0.45677 0.35714 0.0
C336 C 0.47196 0.49458 0.43941 0.0
C337 C 0.45181 0.42123 0.38746 0.0
C338 C 0.43257 0.4223 0.44365 0.0
C339 C 0.42622 0.46075 0.52953 0.0
C340 C 0.43814 0.49791 0.55694 0.0
C341 C 0.44313 0.45893 0.4709 0.0
C342 C 0.4664 0.53295 0.524 0.0
C343 C 0.483 0.5313 0.46603 0.0
H344 H 0.03837 0.53859 0.94075 0.0
H345 H -7e-05 0.41807 0.89211 0.0
H346 H 0.96778 0.39579 0.99678 0.0
H347 H 0.95068 0.41099 0.10235 0.0
H348 H 0.98573 0.53094 0.14639 0.0
H349 H 0.02006 0.55331 0.04351 0.0
C350 C 0.02297 0.50738 0.95285 0.0
C351 C 0.02178 0.48008 0.90869 0.0
C352 C 0.00446 0.49485 0.01261 0.0
C353 C 0.00119 0.4397 0.92506 0.0
C354 C 0.98305 0.427 0.98506 0.0
C355 C 0.96636 0.44205 0.08967 0.0
C356 C 0.96635 0.4695 0.13203 0.0
C357 C 0.98471 0.45439 0.02939 0.0
C358 C 0.98579 0.50949 0.11452 0.0
C359 C 0.00517 0.5222 0.0557 0.0
H360 H 0.58735 0.02607 0.44154 0.0
H361 H 0.50981 0.07677 0.44922 0.0
H362 H 0.48269 0.04577 0.55115 0.0
H363 H 0.47776 0.00221 0.63549 0.0
H364 H 0.55146 0.94778 0.62902 0.0
H365 H 0.58408 0.98327 0.53048 0.0
C366 C 0.56448 0.03027 0.46546 0.0
C367 C 0.55054 0.0536 0.43695 0.0
C368 C 0.54857 0.01207 0.52478 0.0
C369 C 0.52114 0.05893 0.46929 0.0
C370 C 0.50558 0.04128 0.52797 0.0
C371 C 0.50131 0.99826 0.61325 0.0
C372 C 0.51183 0.97205 0.63985 0.0
C373 C 0.51877 0.01759 0.55584 0.0
C374 C 0.54273 0.9678 0.61001 0.0
C375 C 0.56111 0.98781 0.5532 0.0
H376 H 0.44027 0.45076 0.85992 0.0
H377 H 0.52057 0.57933 0.86169 0.0
H378 H 0.55328 0.578 0.96407 0.0
H379 H 0.55515 0.53993 0.05702 0.0
H380 H 0.47011 0.4115 0.05374 0.0
H381 H 0.44269 0.41362 0.94884 0.0
C382 C 0.46526 0.4787 0.88195 0.0
C383 C 0.47768 0.51511 0.85281 0.0
C384 C 0.48256 0.47782 0.94156 0.0
C385 C 0.51037 0.55078 0.8826 0.0
C386 C 0.52878 0.55005 0.94159 0.0
C387 C 0.53049 0.51246 0.03347 0.0
C388 C 0.51475 0.47564 0.06395 0.0
C389 C 0.51437 0.51372 0.97233 0.0
C390 C 0.48298 0.44035 0.03212 0.0
C391 C 0.46725 0.44141 0.97172 0.0
H392 H 0.07352 0.5801 0.58595 0.0
H393 H 0.95404 0.51366 0.68144 0.0
H394 H 0.91503 0.50577 0.58068 0.0
H395 H 0.91505 0.5029 0.46366 0.0
H396 H 0.0343 0.55471 0.36788 0.0
H397 H 0.07371 0.58405 0.46922 0.0
C398 C 0.03903 0.56562 0.5849 0.0
C399 C 0.01649 0.54802 0.64068 0.0
C400 C 0.01698 0.55792 0.52592 0.0
C401 C 0.97184 0.52804 0.63908 0.0
C402 C 0.94965 0.52305 0.5813 0.0
C403 C 0.94964 0.52223 0.46487 0.0
C404 C 0.97198 0.52738 0.40878 0.0
C405 C 0.97181 0.53574 0.52398 0.0
C406 C 0.0167 0.5511 0.41055 0.0
C407 C 0.0391 0.56738 0.46858 0.0
loop_
_geom_bond_atom_site_label_1
_geom_bond_atom_site_label_2
_geom_bond_distance
_geom_bond_site_symmetry_2
_ccdc_geom_bond_type
Mn0 O5 2.095 . S
Mn0 O15 2.162 . S
Mn0 O16 2.297 . S
Mn0 O24 2.385 . S
Mn0 O25 2.209 . S
Mn0 O26 2.094 . S
Mn1 O6 2.121 . S
Mn1 N8 2.257 . S
Mn1 N17 2.282 . S
Mn1 O25 2.215 . S
Mn1 O27 2.117 . S
C2 O24 1.234 . S
C2 O25 1.283 . S
C3 O15 1.281 . S
C3 O16 1.236 . S
C4 O26 1.240 . S
C4 O27 1.264 . S
O5 Mn0 2.095 . S
O5 C14 1.250 . S
O6 Mn1 2.121 . S
O6 C14 1.258 . S
C7 N8 1.326 . S
C7 C11 1.460 . S
C7 H13 0.929 . S
N8 Mn1 2.257 . S
N8 C7 1.326 . S
N8 C12 1.362 . S
C9 C10 1.258 . S
C9 C12 1.431 . S
C9 C29 1.449 . S
C10 C9 1.258 . S
C10 C11 1.477 . S
C10 H30 0.931 . S
C11 C7 1.460 . S
C11 C10 1.477 . S
C11 H31 0.930 . S
C12 N8 1.362 . S
C12 C9 1.431 . S
C12 C22 1.476 . S
H13 C7 0.929 . S
C14 O5 1.250 . S
C14 O6 1.258 . S
O15 Mn0 2.162 . S
O15 C3 1.281 . S
O16 Mn0 2.297 . S
O16 C3 1.236 . S
N17 Mn1 2.282 . S
N17 C18 1.328 . S
N17 C22 1.318 . S
C18 N17 1.328 . S
C18 C19 1.457 . S
C18 H23 0.929 . S
C19 C18 1.457 . S
C19 C20 1.291 . S
C19 H32 0.931 . S
C20 C19 1.291 . S
C20 C21 1.373 . S
C20 H33 0.929 . S
C21 C20 1.373 . S
C21 C22 1.396 . S
C21 C28 1.403 . S
C22 C12 1.476 . S
C22 N17 1.318 . S
C22 C21 1.396 . S
H23 C18 0.929 . S
O24 Mn0 2.385 . S
O24 C2 1.234 . S
O25 Mn0 2.209 . S
O25 Mn1 2.215 . S
O25 C2 1.283 . S
O26 Mn0 2.094 . S
O26 C4 1.240 . S
O27 Mn1 2.117 . S
O27 C4 1.264 . S
C28 C21 1.403 . S
C28 C29 1.399 . S
C28 H34 0.929 . S
C29 C9 1.449 . S
C29 C28 1.399 . S
C29 H35 0.930 . S
H30 C10 0.931 . S
H31 C11 0.930 . S
H32 C19 0.931 . S
H33 C20 0.929 . S
H34 C28 0.929 . S
H35 C29 0.930 . S
Mn36 O41 2.095 . S
Mn36 O51 2.162 . S
Mn36 O52 2.297 . S
Mn36 O60 2.385 . S
Mn36 O61 2.209 . S
Mn36 O62 2.094 . S
Mn37 O42 2.121 . S
Mn37 N44 2.257 . S
Mn37 N53 2.282 . S
Mn37 O61 2.215 . S
Mn37 O63 2.117 . S
C38 O60 1.234 . S
C38 O61 1.283 . S
C39 O51 1.281 . S
C39 O52 1.236 . S
C40 O62 1.240 . S
C40 O63 1.264 . S
O41 Mn36 2.095 . S
O41 C50 1.250 . S
O42 Mn37 2.121 . S
O42 C50 1.258 . S
C43 N44 1.326 . S
C43 C47 1.460 . S
C43 H49 0.929 . S
N44 Mn37 2.257 . S
N44 C43 1.326 . S
N44 C48 1.362 . S
C45 C46 1.258 . S
C45 C48 1.431 . S
C45 C65 1.449 . S
C46 C45 1.258 . S
C46 C47 1.477 . S
C46 H66 0.931 . S
C47 C43 1.460 . S
C47 C46 1.477 . S
C47 H67 0.930 . S
C48 N44 1.362 . S
C48 C45 1.431 . S
C48 C58 1.476 . S
H49 C43 0.929 . S
C50 O41 1.250 . S
C50 O42 1.258 . S
O51 Mn36 2.162 . S
O51 C39 1.281 . S
O52 Mn36 2.297 . S
O52 C39 1.236 . S
N53 Mn37 2.282 . S
N53 C54 1.328 . S
N53 C58 1.318 . S
C54 N53 1.328 . S
C54 C55 1.457 . S
C54 H59 0.929 . S
C55 C54 1.457 . S
C55 C56 1.291 . S
C55 H68 0.931 . S
C56 C55 1.291 . S
C56 C57 1.373 . S
C56 H69 0.929 . S
C57 C56 1.373 . S
C57 C58 1.396 . S
C57 C64 1.403 . S
C58 C48 1.476 . S
C58 N53 1.318 . S
C58 C57 1.396 . S
H59 C54 0.929 . S
O60 Mn36 2.385 . S
O60 C38 1.234 . S
O61 Mn36 2.209 . S
O61 Mn37 2.215 . S
O61 C38 1.283 . S
O62 Mn36 2.094 . S
O62 C40 1.240 . S
O63 Mn37 2.117 . S
O63 C40 1.264 . S
C64 C57 1.403 . S
C64 C65 1.399 . S
C64 H70 0.929 . S
C65 C45 1.449 . S
C65 C64 1.399 . S
C65 H71 0.930 . S
H66 C46 0.931 . S
H67 C47 0.930 . S
H68 C55 0.931 . S
H69 C56 0.929 . S
H70 C64 0.929 . S
H71 C65 0.930 . S
Mn72 O77 2.095 . S
Mn72 O87 2.162 . S
Mn72 O88 2.297 . S
Mn72 O96 2.385 . S
Mn72 O97 2.209 . S
Mn72 O98 2.094 . S
Mn73 O78 2.121 . S
Mn73 N80 2.257 . S
Mn73 N89 2.282 . S
Mn73 O97 2.215 . S
Mn73 O99 2.117 . S
C74 O96 1.234 . S
C74 O97 1.283 . S
C75 O87 1.281 . S
C75 O88 1.236 . S
C76 O98 1.240 . S
C76 O99 1.264 . S
O77 Mn72 2.095 . S
O77 C86 1.250 . S
O78 Mn73 2.121 . S
O78 C86 1.258 . S
C79 N80 1.326 . S
C79 C83 1.460 . S
C79 H85 0.929 . S
N80 Mn73 2.257 . S
N80 C79 1.326 . S
N80 C84 1.362 . S
C81 C82 1.258 . S
C81 C84 1.431 . S
C81 C101 1.449 . S
C82 C81 1.258 . S
C82 C83 1.477 . S
C82 H102 0.931 . S
C83 C79 1.460 . S
C83 C82 1.477 . S
C83 H103 0.930 . S
C84 N80 1.362 . S
C84 C81 1.431 . S
C84 C94 1.476 . S
H85 C79 0.929 . S
C86 O77 1.250 . S
C86 O78 1.258 . S
O87 Mn72 2.162 . S
O87 C75 1.281 . S
O88 Mn72 2.297 . S
O88 C75 1.236 . S
N89 Mn73 2.282 . S
N89 C90 1.328 . S
N89 C94 1.318 . S
C90 N89 1.328 . S
C90 C91 1.457 . S
C90 H95 0.929 . S
C91 C90 1.457 . S
C91 C92 1.291 . S
C91 H104 0.931 . S
C92 C91 1.291 . S
C92 C93 1.373 . S
C92 H105 0.929 . S
C93 C92 1.373 . S
C93 C94 1.396 . S
C93 C100 1.403 . S
C94 C84 1.476 . S
C94 N89 1.318 . S
C94 C93 1.396 . S
H95 C90 0.929 . S
O96 Mn72 2.385 . S
O96 C74 1.234 . S
O97 Mn72 2.209 . S
O97 Mn73 2.215 . S
O97 C74 1.283 . S
O98 Mn72 2.094 . S
O98 C76 1.240 . S
O99 Mn73 2.117 . S
O99 C76 1.264 . S
C100 C93 1.403 . S
C100 C101 1.399 . S
C100 H106 0.929 . S
C101 C81 1.449 . S
C101 C100 1.399 . S
C101 H107 0.930 . S
H102 C82 0.931 . S
H103 C83 0.930 . S
H104 C91 0.931 . S
H105 C92 0.929 . S
H106 C100 0.929 . S
H107 C101 0.930 . S
Mn108 O113 2.095 . S
Mn108 O123 2.162 . S
Mn108 O124 2.297 . S
Mn108 O132 2.385 . S
Mn108 O133 2.209 . S
Mn108 O134 2.094 . S
Mn109 O114 2.121 . S
Mn109 N116 2.257 . S
Mn109 N125 2.282 . S
Mn109 O133 2.215 . S
Mn109 O135 2.117 . S
C110 O132 1.234 . S
C110 O133 1.283 . S
C111 O123 1.281 . S
C111 O124 1.236 . S
C112 O134 1.240 . S
C112 O135 1.264 . S
O113 Mn108 2.095 . S
O113 C122 1.250 . S
O114 Mn109 2.121 . S
O114 C122 1.258 . S
C115 N116 1.326 . S
C115 C119 1.460 . S
C115 H121 0.929 . S
N116 Mn109 2.257 . S
N116 C115 1.326 . S
N116 C120 1.362 . S
C117 C118 1.258 . S
C117 C120 1.431 . S
C117 C137 1.449 . S
C118 C117 1.258 . S
C118 C119 1.477 . S
C118 H138 0.931 . S
C119 C115 1.460 . S
C119 C118 1.477 . S
C119 H139 0.930 . S
C120 N116 1.362 . S
C120 C117 1.431 . S
C120 C130 1.476 . S
H121 C115 0.929 . S
C122 O113 1.250 . S
C122 O114 1.258 . S
O123 Mn108 2.162 . S
O123 C111 1.281 . S
O124 Mn108 2.297 . S
O124 C111 1.236 . S
N125 Mn109 2.282 . S
N125 C126 1.328 . S
N125 C130 1.318 . S
C126 N125 1.328 . S
C126 C127 1.457 . S
C126 H131 0.929 . S
C127 C126 1.457 . S
C127 C128 1.291 . S
C127 H140 0.931 . S
C128 C127 1.291 . S
C128 C129 1.373 . S
C128 H141 0.929 . S
C129 C128 1.373 . S
C129 C130 1.396 . S
C129 C136 1.403 . S
C130 C120 1.476 . S
C130 N125 1.318 . S
C130 C129 1.396 . S
H131 C126 0.929 . S
O132 Mn108 2.385 . S
O132 C110 1.234 . S
O133 Mn108 2.209 . S
O133 Mn109 2.215 . S
O133 C110 1.283 . S
O134 Mn108 2.094 . S
O134 C112 1.240 . S
O135 Mn109 2.117 . S
O135 C112 1.264 . S
C136 C129 1.403 . S
C136 C137 1.399 . S
C136 H142 0.929 . S
C137 C117 1.449 . S
C137 C136 1.399 . S
C137 H143 0.930 . S
H138 C118 0.931 . S
H139 C119 0.930 . S
H140 C127 0.931 . S
H141 C128 0.929 . S
H142 C136 0.929 . S
H143 C137 0.930 . S
Mn144 O149 2.095 . S
Mn144 O159 2.162 . S
Mn144 O160 2.297 . S
Mn144 O168 2.385 . S
Mn144 O169 2.209 . S
Mn144 O170 2.094 . S
Mn145 O150 2.121 . S
Mn145 N152 2.257 . S
Mn145 N161 2.282 . S
Mn145 O169 2.215 . S
Mn145 O171 2.117 . S
C146 O168 1.234 . S
C146 O169 1.283 . S
C147 O159 1.281 . S
C147 O160 1.236 . S
C148 O170 1.240 . S
C148 O171 1.264 . S
O149 Mn144 2.095 . S
O149 C158 1.250 . S
O150 Mn145 2.121 . S
O150 C158 1.258 . S
C151 N152 1.326 . S
C151 C155 1.460 . S
C151 H157 0.929 . S
N152 Mn145 2.257 . S
N152 C151 1.326 . S
N152 C156 1.362 . S
C153 C154 1.258 . S
C153 C156 1.431 . S
C153 C173 1.449 . S
C154 C153 1.258 . S
C154 C155 1.477 . S
C154 H174 0.931 . S
C155 C151 1.460 . S
C155 C154 1.477 . S
C155 H175 0.930 . S
C156 N152 1.362 . S
C156 C153 1.431 . S
C156 C166 1.476 . S
H157 C151 0.929 . S
C158 O149 1.250 . S
C158 O150 1.258 . S
O159 Mn144 2.162 . S
O159 C147 1.281 . S
O160 Mn144 2.297 . S
O160 C147 1.236 . S
N161 Mn145 2.282 . S
N161 C162 1.328 . S
N161 C166 1.318 . S
C162 N161 1.328 . S
C162 C163 1.457 . S
C162 H167 0.929 . S
C163 C162 1.457 . S
C163 C164 1.291 . S
C163 H176 0.931 . S
C164 C163 1.291 . S
C164 C165 1.373 . S
C164 H177 0.929 . S
C165 C164 1.373 . S
C165 C166 1.396 . S
C165 C172 1.403 . S
C166 C156 1.476 . S
C166 N161 1.318 . S
C166 C165 1.396 . S
H167 C162 0.929 . S
O168 Mn144 2.385 . S
O168 C146 1.234 . S
O169 Mn144 2.209 . S
O169 Mn145 2.215 . S
O169 C146 1.283 . S
O170 Mn144 2.094 . S
O170 C148 1.240 . S
O171 Mn145 2.117 . S
O171 C148 1.264 . S
C172 C165 1.403 . S
C172 C173 1.399 . S
C172 H178 0.929 . S
C173 C153 1.449 . S
C173 C172 1.399 . S
C173 H179 0.930 . S
H174 C154 0.931 . S
H175 C155 0.930 . S
H176 C163 0.931 . S
H177 C164 0.929 . S
H178 C172 0.929 . S
H179 C173 0.930 . S
Mn180 O185 2.095 . S
Mn180 O195 2.162 . S
Mn180 O196 2.297 . S
Mn180 O204 2.385 . S
Mn180 O205 2.209 . S
Mn180 O206 2.094 . S
Mn181 O186 2.121 . S
Mn181 N188 2.257 . S
Mn181 N197 2.282 . S
Mn181 O205 2.215 . S
Mn181 O207 2.117 . S
C182 O204 1.234 . S
C182 O205 1.283 . S
C183 O195 1.281 . S
C183 O196 1.236 . S
C184 O206 1.240 . S
C184 O207 1.264 . S
O185 Mn180 2.095 . S
O185 C194 1.250 . S
O186 Mn181 2.121 . S
O186 C194 1.258 . S
C187 N188 1.326 . S
C187 C191 1.460 . S
C187 H193 0.929 . S
N188 Mn181 2.257 . S
N188 C187 1.326 . S
N188 C192 1.362 . S
C189 C190 1.258 . S
C189 C192 1.431 . S
C189 C209 1.449 . S
C190 C189 1.258 . S
C190 C191 1.477 . S
C190 H210 0.931 . S
C191 C187 1.460 . S
C191 C190 1.477 . S
C191 H211 0.930 . S
C192 N188 1.362 . S
C192 C189 1.431 . S
C192 C202 1.476 . S
H193 C187 0.929 . S
C194 O185 1.250 . S
C194 O186 1.258 . S
O195 Mn180 2.162 . S
O195 C183 1.281 . S
O196 Mn180 2.297 . S
O196 C183 1.236 . S
N197 Mn181 2.282 . S
N197 C198 1.328 . S
N197 C202 1.318 . S
C198 N197 1.328 . S
C198 C199 1.457 . S
C198 H203 0.929 . S
C199 C198 1.457 . S
C199 C200 1.291 . S
C199 H212 0.931 . S
C200 C199 1.291 . S
C200 C201 1.373 . S
C200 H213 0.929 . S
C201 C200 1.373 . S
C201 C202 1.396 . S
C201 C208 1.403 . S
C202 C192 1.476 . S
C202 N197 1.318 . S
C202 C201 1.396 . S
H203 C198 0.929 . S
O204 Mn180 2.385 . S
O204 C182 1.234 . S
O205 Mn180 2.209 . S
O205 Mn181 2.215 . S
O205 C182 1.283 . S
O206 Mn180 2.094 . S
O206 C184 1.240 . S
O207 Mn181 2.117 . S
O207 C184 1.264 . S
C208 C201 1.403 . S
C208 C209 1.399 . S
C208 H214 0.929 . S
C209 C189 1.449 . S
C209 C208 1.399 . S
C209 H215 0.930 . S
H210 C190 0.931 . S
H211 C191 0.930 . S
H212 C199 0.931 . S
H213 C200 0.929 . S
H214 C208 0.929 . S
H215 C209 0.930 . S
H216 C222 0.930 . S
H217 C225 0.930 . S
H218 C226 0.930 . S
H219 C227 0.930 . S
H220 C230 0.930 . S
H221 C231 0.930 . S
C222 H216 0.930 . S
C222 C223 1.355 . S
C222 C224 1.415 . S
C223 C222 1.355 . S
C223 C225 1.419 . S
C224 C222 1.415 . S
C224 C229 1.425 . S
C224 C231 1.409 . S
C225 H217 0.930 . S
C225 C223 1.419 . S
C225 C226 1.362 . S
C226 H218 0.930 . S
C226 C225 1.362 . S
C226 C229 1.409 . S
C227 H219 0.930 . S
C227 C228 1.355 . S
C227 C229 1.415 . S
C228 C227 1.355 . S
C228 C230 1.419 . S
C229 C224 1.425 . S
C229 C226 1.409 . S
C229 C227 1.415 . S
C230 H220 0.930 . S
C230 C228 1.419 . S
C230 C231 1.362 . S
C231 H221 0.930 . S
C231 C224 1.409 . S
C231 C230 1.362 . S
H232 C238 0.930 . S
H233 C241 0.930 . S
H234 C242 0.930 . S
H235 C243 0.930 . S
H236 C246 0.930 . S
H237 C247 0.930 . S
C238 H232 0.930 . S
C238 C239 1.355 . S
C238 C240 1.415 . S
C239 C238 1.355 . S
C239 C241 1.419 . S
C240 C238 1.415 . S
C240 C245 1.425 . S
C240 C247 1.409 . S
C241 H233 0.930 . S
C241 C239 1.419 . S
C241 C242 1.362 . S
C242 H234 0.930 . S
C242 C241 1.362 . S
C242 C245 1.409 . S
C243 H235 0.930 . S
C243 C244 1.355 . S
C243 C245 1.415 . S
C244 C243 1.355 . S
C244 C246 1.419 . S
C245 C240 1.425 . S
C245 C242 1.409 . S
C245 C243 1.415 . S
C246 H236 0.930 . S
C246 C244 1.419 . S
C246 C247 1.362 . S
C247 H237 0.930 . S
C247 C240 1.409 . S
C247 C246 1.362 . S
H248 C254 0.930 . S
H249 C257 0.930 . S
H250 C258 0.930 . S
H251 C259 0.930 . S
H252 C262 0.930 . S
H253 C263 0.930 . S
C254 H248 0.930 . S
C254 C255 1.355 . S
C254 C256 1.415 . S
C255 C254 1.355 . S
C255 C257 1.419 . S
C256 C254 1.415 . S
C256 C261 1.425 . S
C256 C263 1.409 . S
C257 H249 0.930 . S
C257 C255 1.419 . S
C257 C258 1.362 . S
C258 H250 0.930 . S
C258 C257 1.362 . S
C258 C261 1.409 . S
C259 H251 0.930 . S
C259 C260 1.355 . S
C259 C261 1.415 . S
C260 C259 1.355 . S
C260 C262 1.419 . S
C261 C256 1.425 . S
C261 C258 1.409 . S
C261 C259 1.415 . S
C262 H252 0.930 . S
C262 C260 1.419 . S
C262 C263 1.362 . S
C263 H253 0.930 . S
C263 C256 1.409 . S
C263 C262 1.362 . S
H264 C270 0.930 . S
H265 C273 0.930 . S
H266 C274 0.930 . S
H267 C275 0.930 . S
H268 C278 0.930 . S
H269 C279 0.930 . S
C270 H264 0.930 . S
C270 C271 1.355 . S
C270 C272 1.415 . S
C271 C270 1.355 . S
C271 C273 1.419 . S
C272 C270 1.415 . S
C272 C277 1.425 . S
C272 C279 1.409 . S
C273 H265 0.930 . S
C273 C271 1.419 . S
C273 C274 1.362 . S
C274 H266 0.930 . S
C274 C273 1.362 . S
C274 C277 1.409 . S
C275 H267 0.930 . S
C275 C276 1.355 . S
C275 C277 1.415 . S
C276 C275 1.355 . S
C276 C278 1.419 . S
C277 C272 1.425 . S
C277 C274 1.409 . S
C277 C275 1.415 . S
C278 H268 0.930 . S
C278 C276 1.419 . S
C278 C279 1.362 . S
C279 H269 0.930 . S
C279 C272 1.409 . S
C279 C278 1.362 . S
H280 C286 0.930 . S
H281 C289 0.930 . S
H282 C290 0.930 . S
H283 C291 0.930 . S
H284 C294 0.930 . S
H285 C295 0.930 . S
C286 H280 0.930 . S
C286 C287 1.355 . S
C286 C288 1.415 . S
C287 C286 1.355 . S
C287 C289 1.419 . S
C288 C286 1.415 . S
C288 C293 1.425 . S
C288 C295 1.409 . S
C289 H281 0.930 . S
C289 C287 1.419 . S
C289 C290 1.362 . S
C290 H282 0.930 . S
C290 C289 1.362 . S
C290 C293 1.409 . S
C291 H283 0.930 . S
C291 C292 1.355 . S
C291 C293 1.415 . S
C292 C291 1.355 . S
C292 C294 1.419 . S
C293 C288 1.425 . S
C293 C290 1.409 . S
C293 C291 1.415 . S
C294 H284 0.930 . S
C294 C292 1.419 . S
C294 C295 1.362 . S
C295 H285 0.930 . S
C295 C288 1.409 . S
C295 C294 1.362 . S
H296 C302 0.930 . S
H297 C305 0.930 . S
H298 C306 0.930 . S
H299 C307 0.930 . S
H300 C310 0.930 . S
H301 C311 0.930 . S
C302 H296 0.930 . S
C302 C303 1.355 . S
C302 C304 1.415 . S
C303 C302 1.355 . S
C303 C305 1.419 . S
C304 C302 1.415 . S
C304 C309 1.425 . S
C304 C311 1.409 . S
C305 H297 0.930 . S
C305 C303 1.419 . S
C305 C306 1.362 . S
C306 H298 0.930 . S
C306 C305 1.362 . S
C306 C309 1.409 . S
C307 H299 0.930 . S
C307 C308 1.355 . S
C307 C309 1.415 . S
C308 C307 1.355 . S
C308 C310 1.419 . S
C309 C304 1.425 . S
C309 C306 1.409 . S
C309 C307 1.415 . S
C310 H300 0.930 . S
C310 C308 1.419 . S
C310 C311 1.362 . S
C311 H301 0.930 . S
C311 C304 1.409 . S
C311 C310 1.362 . S
H312 C318 0.930 1_545 S
H313 C321 0.930 . S
H314 C322 0.930 1_554 S
H315 C323 0.930 . S
H316 C326 0.930 . S
H317 C327 0.930 . S
C318 H312 0.930 1_565 S
C318 C319 1.355 . S
C318 C320 1.415 1_566 S
C319 C318 1.355 . S
C319 C321 1.419 . S
C320 C318 1.415 1_544 S
C320 C325 1.423 . S
C320 C327 1.409 . S
C321 H313 0.930 . S
C321 C319 1.419 . S
C321 C322 1.362 . S
C322 H314 0.930 1_556 S
C322 C321 1.362 . S
C322 C325 1.405 1_566 S
C323 H315 0.930 . S
C323 C324 1.355 . S
C323 C325 1.420 . S
C324 C323 1.355 . S
C324 C326 1.419 . S
C325 C320 1.423 . S
C325 C322 1.405 1_544 S
C325 C323 1.420 . S
C326 H316 0.930 . S
C326 C324 1.419 . S
C326 C327 1.362 . S
C327 H317 0.930 . S
C327 C320 1.409 . S
C327 C326 1.362 . S
H328 C334 0.930 . S
H329 C337 0.930 . S
H330 C338 0.930 . S
H331 C339 0.930 . S
H332 C342 0.930 . S
H333 C343 0.930 . S
C334 H328 0.930 . S
C334 C335 1.355 . S
C334 C336 1.415 . S
C335 C334 1.355 . S
C335 C337 1.419 . S
C336 C334 1.415 . S
C336 C341 1.425 . S
C336 C343 1.409 . S
C337 H329 0.930 . S
C337 C335 1.419 . S
C337 C338 1.362 . S
C338 H330 0.930 . S
C338 C337 1.362 . S
C338 C341 1.409 . S
C339 H331 0.930 . S
C339 C340 1.355 . S
C339 C341 1.415 . S
C340 C339 1.355 . S
C340 C342 1.419 . S
C341 C336 1.425 . S
C341 C338 1.409 . S
C341 C339 1.415 . S
C342 H332 0.930 . S
C342 C340 1.419 . S
C342 C343 1.362 . S
C343 H333 0.930 . S
C343 C336 1.409 . S
C343 C342 1.362 . S
H344 C350 0.930 . S
H345 C353 0.930 . S
H346 C354 0.930 1_554 S
H347 C355 0.930 . S
H348 C358 0.930 . S
H349 C359 0.930 1_556 S
C350 H344 0.930 . S
C350 C351 1.355 . S
C350 C352 1.415 1_455 S
C351 C350 1.355 . S
C351 C353 1.419 . S
C352 C350 1.415 1_655 S
C352 C357 1.425 1_656 S
C352 C359 1.409 1_556 S
C353 H345 0.930 . S
C353 C351 1.419 . S
C353 C354 1.362 . S
C354 H346 0.930 1_556 S
C354 C353 1.362 . S
C354 C357 1.409 1_556 S
C355 H347 0.930 . S
C355 C356 1.355 . S
C355 C357 1.415 1_655 S
C356 C355 1.355 . S
C356 C358 1.419 . S
C357 C352 1.425 1_454 S
C357 C354 1.409 1_554 S
C357 C355 1.415 1_455 S
C358 H348 0.930 . S
C358 C356 1.419 . S
C358 C359 1.362 . S
C359 H349 0.930 1_554 S
C359 C352 1.409 1_554 S
C359 C358 1.362 . S
H360 C366 0.930 1_565 S
H361 C369 0.930 . S
H362 C370 0.930 . S
H363 C371 0.930 1_545 S
H364 C374 0.930 . S
H365 C375 0.930 . S
C366 H360 0.930 1_545 S
C366 C367 1.355 . S
C366 C368 1.415 1_545 S
C367 C366 1.355 . S
C367 C369 1.419 . S
C368 C366 1.415 1_565 S
C368 C373 1.425 1_565 S
C368 C375 1.409 . S
C369 H361 0.930 . S
C369 C367 1.419 . S
C369 C370 1.362 . S
C370 H362 0.930 . S
C370 C369 1.362 . S
C370 C373 1.409 . S
C371 H363 0.930 1_565 S
C371 C372 1.355 . S
C371 C373 1.415 1_565 S
C372 C371 1.355 . S
C372 C374 1.419 . S
C373 C368 1.425 1_545 S
C373 C370 1.409 . S
C373 C371 1.415 1_545 S
C374 H364 0.930 . S
C374 C372 1.419 . S
C374 C375 1.362 . S
C375 H365 0.930 . S
C375 C368 1.409 . S
C375 C374 1.362 . S
H376 C382 0.930 . S
H377 C385 0.930 . S
H378 C386 0.930 . S
H379 C387 0.930 . S
H380 C390 0.930 . S
H381 C391 0.930 . S
C382 H376 0.930 . S
C382 C383 1.355 . S
C382 C384 1.415 . S
C383 C382 1.355 . S
C383 C385 1.419 . S
C384 C382 1.415 . S
C384 C389 1.425 . S
C384 C391 1.409 1_556 S
C385 H377 0.930 . S
C385 C383 1.419 . S
C385 C386 1.362 . S
C386 H378 0.930 . S
C386 C385 1.362 . S
C386 C389 1.409 . S
C387 H379 0.930 . S
C387 C388 1.355 . S
C387 C389 1.415 1_554 S
C388 C387 1.355 . S
C388 C390 1.419 . S
C389 C384 1.425 . S
C389 C386 1.409 . S
C389 C387 1.415 1_556 S
C390 H380 0.930 . S
C390 C388 1.419 . S
C390 C391 1.362 . S
C391 H381 0.930 . S
C391 C384 1.409 1_554 S
C391 C390 1.362 . S
H392 C398 0.930 . S
H393 C401 0.930 . S
H394 C402 0.930 1_655 S
H395 C403 0.930 . S
H396 C406 0.930 . S
H397 C407 0.930 1_455 S
C398 H392 0.930 . S
C398 C399 1.355 . S
C398 C400 1.415 . S
C399 C398 1.355 . S
C399 C401 1.419 . S
C400 C398 1.415 . S
C400 C405 1.425 1_455 S
C400 C407 1.409 1_455 S
C401 H393 0.930 . S
C401 C399 1.419 . S
C401 C402 1.362 . S
C402 H394 0.930 1_455 S
C402 C401 1.362 . S
C402 C405 1.409 1_455 S
C403 H395 0.930 . S
C403 C404 1.355 . S
C403 C405 1.415 . S
C404 C403 1.355 . S
C404 C406 1.419 . S
C405 C400 1.425 1_655 S
C405 C402 1.409 1_655 S
C405 C403 1.415 . S
C406 H396 0.930 . S
C406 C404 1.419 . S
C406 C407 1.362 . S
C407 H397 0.930 1_655 S
C407 C400 1.409 1_655 S
C407 C406 1.362 . S
C223 C3 1.123 . S
C228 C147 1.076 . S
C239 C38 1.127 . S
C244 C182 1.145 . S
C255 C2 1.147 . S
C260 C74 1.126 . S
C271 C111 1.159 . S
C276 C39 1.120 . S
C287 C146 1.126 . S
C292 C75 1.173 . S
C303 C110 1.130 . S
C308 C183 1.110 . S
C319 C112 1.382 . S
C324 C14 1.320 . S
C335 C158 1.342 . S
C340 C40 1.405 . S
C351 C184 1.417 . S
C356 C76 1.425 . S
C367 C4 1.406 . S
C372 C122 1.349 . S
C383 C50 1.383 . S
C388 C148 1.415 . S
C399 C194 1.381 . S
C404 C86 1.307 . S
